ligand
 OpenBabel11021811493D
libRbt.so/2013.1/901 2013/11/27
 31 33  0  0  0  0  0  0  0  0999 V2000
   -3.5560   14.1030    4.8689 C   0  0  2  0  0  0  0  0  0  0  0  0
   -4.0288   14.3077    6.1970 O   0  0  0  0  0  0  0  0  0  0  0  0
   -3.9802   12.3543    9.9740 C   0  0  2  0  0  0  0  0  0  0  0  0
   -4.1747   11.3445   10.9687 N   0  0  0  0  0  0  0  0  0  0  0  0
   -1.5381   10.1564    9.9894 C   0  0  2  0  0  0  0  0  0  0  0  0
   -3.1720   15.5304    4.3024 C   0  0  2  0  0  0  0  0  0  0  0  0
   -2.1481   16.1160    5.1614 N   0  0  0  0  0  0  0  0  0  0  0  0
   -5.3916   12.7270    9.3583 C   0  0  0  0  0  0  0  0  0  0  0  0
   -0.6544   10.4558   11.2417 C   0  0  2  0  0  0  0  0  0  0  0  0
   -1.3646   11.3351   12.0874 O   0  0  0  0  0  0  0  0  0  0  0  0
   -4.4488   16.4605    4.2423 C   0  0  0  0  0  0  0  0  0  0  0  0
   -5.1810   13.8365    8.2611 C   0  0  2  0  0  0  0  0  0  0  0  0
   -6.4897   14.1833    7.6809 N   0  0  0  0  0  0  0  0  0  0  0  0
    0.6773   11.1219   10.7252 C   0  0  1  0  0  0  0  0  0  0  0  0
    1.5632   11.4522   11.8902 N   0  0  0  0  0  0  0  0  0  0  0  0
   -5.7547   15.6652    3.8156 C   0  0  0  0  0  0  0  0  0  0  0  0
   -4.2019   13.2952    7.1279 C   0  0  2  0  0  0  0  0  0  0  0  0
    1.4335   10.0491    9.7579 C   0  0  1  0  0  0  0  0  0  0  0  0
    1.7230    8.8329   10.4259 O   0  0  0  0  0  0  0  0  0  0  0  0
   -5.7545   14.3083    3.7361 C   0  0  2  0  0  0  0  0  0  0  0  0
   -4.5938   13.5211    4.0273 O   0  0  0  0  0  0  0  0  0  0  0  0
   -2.8130   12.9239    7.7676 C   0  0  2  0  0  0  0  0  0  0  0  0
   -1.9354   12.4249    6.7354 O   0  0  0  0  0  0  0  0  0  0  0  0
    0.5195    9.6952    8.5400 C   0  0  0  0  0  0  0  0  0  0  0  0
   -0.8158    9.2148    9.0442 O   0  0  0  0  0  0  0  0  0  0  0  0
   -6.9861   13.4981    3.3273 C   0  0  0  0  0  0  0  0  0  0  0  0
   -7.4245   12.7356    4.4765 O   0  0  0  0  0  0  0  0  0  0  0  0
   -3.0405   11.7993    8.8442 C   0  0  1  0  0  0  0  0  0  0  0  0
   -1.8018   11.4651    9.3868 O   0  0  0  0  0  0  0  0  0  0  0  0
    2.7722   10.5423    9.1576 C   0  0  0  0  0  0  0  0  0  0  0  0
    1.3401   12.7588   12.5422 C   0  0  0  0  0  0  0  0  0  0  0  0
  1  2  1  1  0  0  0
  1  6  1  0  0  0  0
  1 21  1  0  0  0  0
  3  4  1  1  0  0  0
  3  8  1  0  0  0  0
  3 28  1  0  0  0  0
  5  9  1  0  0  0  0
  5 25  1  0  0  0  0
  5 29  1  6  0  0  0
  6  7  1  1  0  0  0
  6 11  1  0  0  0  0
  8 12  1  0  0  0  0
  9 10  1  1  0  0  0
  9 14  1  0  0  0  0
 11 16  1  0  0  0  0
 12 13  1  6  0  0  0
 12 17  1  0  0  0  0
 14 15  1  1  0  0  0
 14 18  1  0  0  0  0
 15 31  1  0  0  0  0
 16 20  1  0  0  0  0
 17  2  1  6  0  0  0
 17 22  1  0  0  0  0
 18 19  1  1  0  0  0
 18 24  1  0  0  0  0
 18 30  1  0  0  0  0
 20 21  1  0  0  0  0
 20 26  1  6  0  0  0
 22 23  1  6  0  0  0
 22 28  1  0  0  0  0
 24 25  1  0  0  0  0
 26 27  1  0  0  0  0
 28 29  1  1  0  0  0
M  END
>  <CHROM.1>
-166.02524833,-140.57815760,-86.60998428,-160.97698268,-112.91173832,86.21752329
-2.60384836,12.49686479,7.92558301,-2.26728976,-0.15134147,2.02332671

>  <Name>
ligand

>  <RI>
0

>  <Rbt.Current_Directory>
/home/itssahil/PROJECTS/Mol_Feturizer/New_Systems/rnas/4GPX

>  <Rbt.Executable>
rbdock ($Id: //depot/dev/client3/rdock/2013.1/src/exe/rbdock.cxx#4 $)

>  <Rbt.Library>
libRbt.so (2013.1, Build901 2013/11/27)

>  <Rbt.Parameter_File>
/export/apps/rDock/src/rDock_2013.1_src/data/scripts/dock_solv.prm

>  <Rbt.Receptor>
prm/pocket_docking_2.prm

>  <SCORE>
-20.9339

>  <SCORE.INTER>
-17.4334

>  <SCORE.INTER.CONST>
1

>  <SCORE.INTER.POLAR>
0

>  <SCORE.INTER.ROT>
6

>  <SCORE.INTER.SOLV>
19.866

>  <SCORE.INTER.VDW>
-25.8443

>  <SCORE.INTER.norm>
-0.562368

>  <SCORE.INTRA>
-3.50053

>  <SCORE.INTRA.DIHEDRAL>
-7.67664

>  <SCORE.INTRA.DIHEDRAL.0>
20.6841

>  <SCORE.INTRA.POLAR>
0

>  <SCORE.INTRA.POLAR.0>
0

>  <SCORE.INTRA.REPUL>
0

>  <SCORE.INTRA.REPUL.0>
0

>  <SCORE.INTRA.SOLV>
0.330462

>  <SCORE.INTRA.SOLV.lig_0>
-64.6797

>  <SCORE.INTRA.VDW>
0.172558

>  <SCORE.INTRA.VDW.0>
-4.11825

>  <SCORE.INTRA.norm>
-0.11292

>  <SCORE.RESTR>
0

>  <SCORE.RESTR.CAVITY>
0

>  <SCORE.RESTR.norm>
0

>  <SCORE.SYSTEM>
0

>  <SCORE.SYSTEM.CONST>
0

>  <SCORE.SYSTEM.DIHEDRAL>
0

>  <SCORE.SYSTEM.SOLV>
0

>  <SCORE.SYSTEM.norm>
0

>  <SCORE.heavy>
31

>  <SCORE.norm>
-0.675289

>  <RMSD>
0.572

$$$$
ligand
 OpenBabel11021811493D
libRbt.so/2013.1/901 2013/11/27
 31 33  0  0  0  0  0  0  0  0999 V2000
   -3.5447   14.0536    4.8668 C   0  0  2  0  0  0  0  0  0  0  0  0
   -4.0887   14.2898    6.1620 O   0  0  0  0  0  0  0  0  0  0  0  0
   -4.0099   12.4492    9.9947 C   0  0  2  0  0  0  0  0  0  0  0  0
   -4.2045   11.4728   11.0222 N   0  0  0  0  0  0  0  0  0  0  0  0
   -1.5965   10.2021   10.0135 C   0  0  2  0  0  0  0  0  0  0  0  0
   -3.1664   15.4708    4.2717 C   0  0  2  0  0  0  0  0  0  0  0  0
   -2.2013   16.1100    5.1600 N   0  0  0  0  0  0  0  0  0  0  0  0
   -5.4250   12.8269    9.3906 C   0  0  0  0  0  0  0  0  0  0  0  0
   -0.6986   10.5077   11.2541 C   0  0  2  0  0  0  0  0  0  0  0  0
   -1.3940   11.4010   12.0973 O   0  0  0  0  0  0  0  0  0  0  0  0
   -4.4602   16.3658    4.1166 C   0  0  0  0  0  0  0  0  0  0  0  0
   -5.2144   13.8997    8.2573 C   0  0  2  0  0  0  0  0  0  0  0  0
   -6.5266   14.2509    7.6879 N   0  0  0  0  0  0  0  0  0  0  0  0
    0.6330   11.1582   10.7180 C   0  0  1  0  0  0  0  0  0  0  0  0
    1.5326   11.4938   11.8709 N   0  0  0  0  0  0  0  0  0  0  0  0
   -5.7236   15.5242    3.6528 C   0  0  0  0  0  0  0  0  0  0  0  0
   -4.2630   13.3085    7.1255 C   0  0  2  0  0  0  0  0  0  0  0  0
    1.3718   10.0699    9.7547 C   0  0  1  0  0  0  0  0  0  0  0  0
    1.6586    8.8584   10.4325 O   0  0  0  0  0  0  0  0  0  0  0  0
   -5.6874   14.1658    3.6198 C   0  0  2  0  0  0  0  0  0  0  0  0
   -4.5246   13.4183    3.9950 O   0  0  0  0  0  0  0  0  0  0  0  0
   -2.8700   12.9331    7.7539 C   0  0  2  0  0  0  0  0  0  0  0  0
   -2.0177   12.3890    6.7233 O   0  0  0  0  0  0  0  0  0  0  0  0
    0.4435    9.7103    8.5493 C   0  0  0  0  0  0  0  0  0  0  0  0
   -0.8905    9.2453    9.0712 O   0  0  0  0  0  0  0  0  0  0  0  0
   -6.8773   13.3117    3.1781 C   0  0  0  0  0  0  0  0  0  0  0  0
   -7.4669   12.7174    4.3586 O   0  0  0  0  0  0  0  0  0  0  0  0
   -3.0981   11.8451    8.8672 C   0  0  1  0  0  0  0  0  0  0  0  0
   -1.8562   11.5064    9.3999 O   0  0  0  0  0  0  0  0  0  0  0  0
    2.7083   10.5466    9.1365 C   0  0  0  0  0  0  0  0  0  0  0  0
    1.3089   12.7980   12.5276 C   0  0  0  0  0  0  0  0  0  0  0  0
  1  2  1  1  0  0  0
  1  6  1  0  0  0  0
  1 21  1  0  0  0  0
  3  4  1  1  0  0  0
  3  8  1  0  0  0  0
  3 28  1  0  0  0  0
  5  9  1  0  0  0  0
  5 25  1  0  0  0  0
  5 29  1  6  0  0  0
  6  7  1  1  0  0  0
  6 11  1  0  0  0  0
  8 12  1  0  0  0  0
  9 10  1  1  0  0  0
  9 14  1  0  0  0  0
 11 16  1  0  0  0  0
 12 13  1  6  0  0  0
 12 17  1  0  0  0  0
 14 15  1  1  0  0  0
 14 18  1  0  0  0  0
 15 31  1  0  0  0  0
 16 20  1  0  0  0  0
 17  2  1  6  0  0  0
 17 22  1  0  0  0  0
 18 19  1  1  0  0  0
 18 24  1  0  0  0  0
 18 30  1  0  0  0  0
 20 21  1  0  0  0  0
 20 26  1  6  0  0  0
 22 23  1  6  0  0  0
 22 28  1  0  0  0  0
 24 25  1  0  0  0  0
 26 27  1  0  0  0  0
 28 29  1  1  0  0  0
M  END
>  <CHROM.1>
-164.84621600,-140.49245197,-85.50197242,-166.00427106,-105.31606221,87.45743377
-2.63422616,12.49930181,7.90493121,-2.26616842,-0.19020579,1.97145410

>  <Name>
ligand

>  <RI>
0

>  <Rbt.Current_Directory>
/home/itssahil/PROJECTS/Mol_Feturizer/New_Systems/rnas/4GPX

>  <Rbt.Executable>
rbdock ($Id: //depot/dev/client3/rdock/2013.1/src/exe/rbdock.cxx#4 $)

>  <Rbt.Library>
libRbt.so (2013.1, Build901 2013/11/27)

>  <Rbt.Parameter_File>
/export/apps/rDock/src/rDock_2013.1_src/data/scripts/dock_solv.prm

>  <Rbt.Receptor>
prm/pocket_docking_2.prm

>  <SCORE>
-20.943

>  <SCORE.INTER>
-17.2763

>  <SCORE.INTER.CONST>
1

>  <SCORE.INTER.POLAR>
0

>  <SCORE.INTER.ROT>
6

>  <SCORE.INTER.SOLV>
19.8186

>  <SCORE.INTER.VDW>
-25.7238

>  <SCORE.INTER.norm>
-0.557301

>  <SCORE.INTRA>
-3.66671

>  <SCORE.INTRA.DIHEDRAL>
-7.82694

>  <SCORE.INTRA.DIHEDRAL.0>
20.6841

>  <SCORE.INTRA.POLAR>
0

>  <SCORE.INTRA.POLAR.0>
0

>  <SCORE.INTRA.REPUL>
0

>  <SCORE.INTRA.REPUL.0>
0

>  <SCORE.INTRA.SOLV>
-0.146773

>  <SCORE.INTRA.SOLV.lig_0>
-64.6797

>  <SCORE.INTRA.VDW>
0.320144

>  <SCORE.INTRA.VDW.0>
-4.11825

>  <SCORE.INTRA.norm>
-0.118281

>  <SCORE.RESTR>
0

>  <SCORE.RESTR.CAVITY>
0

>  <SCORE.RESTR.norm>
0

>  <SCORE.SYSTEM>
0

>  <SCORE.SYSTEM.CONST>
0

>  <SCORE.SYSTEM.DIHEDRAL>
0

>  <SCORE.SYSTEM.SOLV>
0

>  <SCORE.SYSTEM.norm>
0

>  <SCORE.heavy>
31

>  <SCORE.norm>
-0.675582

>  <RMSD>
0.580

$$$$
ligand
 OpenBabel11021811493D
libRbt.so/2013.1/901 2013/11/27
 31 33  0  0  0  0  0  0  0  0999 V2000
   -3.5595   14.0343    4.8586 C   0  0  2  0  0  0  0  0  0  0  0  0
   -4.0508   14.2612    6.1763 O   0  0  0  0  0  0  0  0  0  0  0  0
   -3.9598   12.3730    9.9856 C   0  0  2  0  0  0  0  0  0  0  0  0
   -4.1489   11.3829   11.0009 N   0  0  0  0  0  0  0  0  0  0  0  0
   -1.5452   10.1494   10.0039 C   0  0  2  0  0  0  0  0  0  0  0  0
   -3.1950   15.4549    4.2629 C   0  0  2  0  0  0  0  0  0  0  0  0
   -2.1915   16.0789    5.1189 N   0  0  0  0  0  0  0  0  0  0  0  0
   -5.3772   12.7516    9.3875 C   0  0  0  0  0  0  0  0  0  0  0  0
   -0.6555   10.4668   11.2475 C   0  0  2  0  0  0  0  0  0  0  0  0
   -1.3572   11.3669   12.0783 O   0  0  0  0  0  0  0  0  0  0  0  0
   -4.4876   16.3598    4.1672 C   0  0  0  0  0  0  0  0  0  0  0  0
   -5.1727   13.8395    8.2676 C   0  0  2  0  0  0  0  0  0  0  0  0
   -6.4871   14.1916    7.7038 N   0  0  0  0  0  0  0  0  0  0  0  0
    0.6788   11.1140   10.7141 C   0  0  1  0  0  0  0  0  0  0  0  0
    1.5707   11.4607   11.8697 N   0  0  0  0  0  0  0  0  0  0  0  0
   -5.7740   15.5311    3.7452 C   0  0  0  0  0  0  0  0  0  0  0  0
   -4.2196   13.2671    7.1276 C   0  0  2  0  0  0  0  0  0  0  0  0
    1.4248   10.0179    9.7652 C   0  0  1  0  0  0  0  0  0  0  0  0
    1.7085    8.8128   10.4555 O   0  0  0  0  0  0  0  0  0  0  0  0
   -5.7484   14.1728    3.6976 C   0  0  2  0  0  0  0  0  0  0  0  0
   -4.5771   13.4141    4.0197 O   0  0  0  0  0  0  0  0  0  0  0  0
   -2.8243   12.8904    7.7500 C   0  0  2  0  0  0  0  0  0  0  0  0
   -1.9704   12.3632    6.7120 O   0  0  0  0  0  0  0  0  0  0  0  0
    0.5046    9.6467    8.5572 C   0  0  0  0  0  0  0  0  0  0  0  0
   -0.8322    9.1850    9.0747 O   0  0  0  0  0  0  0  0  0  0  0  0
   -6.9606   13.3310    3.2946 C   0  0  0  0  0  0  0  0  0  0  0  0
   -7.4903   12.7057    4.4875 O   0  0  0  0  0  0  0  0  0  0  0  0
   -3.0462   11.7874    8.8498 C   0  0  1  0  0  0  0  0  0  0  0  0
   -1.8022   11.4479    9.3771 O   0  0  0  0  0  0  0  0  0  0  0  0
    2.7648   10.4905    9.1514 C   0  0  0  0  0  0  0  0  0  0  0  0
    1.3462   12.7734   12.5089 C   0  0  0  0  0  0  0  0  0  0  0  0
  1  2  1  1  0  0  0
  1  6  1  0  0  0  0
  1 21  1  0  0  0  0
  3  4  1  1  0  0  0
  3  8  1  0  0  0  0
  3 28  1  0  0  0  0
  5  9  1  0  0  0  0
  5 25  1  0  0  0  0
  5 29  1  6  0  0  0
  6  7  1  1  0  0  0
  6 11  1  0  0  0  0
  8 12  1  0  0  0  0
  9 10  1  1  0  0  0
  9 14  1  0  0  0  0
 11 16  1  0  0  0  0
 12 13  1  6  0  0  0
 12 17  1  0  0  0  0
 14 15  1  1  0  0  0
 14 18  1  0  0  0  0
 15 31  1  0  0  0  0
 16 20  1  0  0  0  0
 17  2  1  6  0  0  0
 17 22  1  0  0  0  0
 18 19  1  1  0  0  0
 18 24  1  0  0  0  0
 18 30  1  0  0  0  0
 20 21  1  0  0  0  0
 20 26  1  6  0  0  0
 22 23  1  6  0  0  0
 22 28  1  0  0  0  0
 24 25  1  0  0  0  0
 26 27  1  0  0  0  0
 28 29  1  1  0  0  0
M  END
>  <CHROM.1>
-166.21395166,-139.59888693,-85.80735983,-163.24100414,-106.53503193,85.90663479
-2.61113464,12.46158932,7.91782781,-2.27199258,-0.17224291,1.99418704

>  <Name>
ligand

>  <RI>
0

>  <Rbt.Current_Directory>
/home/itssahil/PROJECTS/Mol_Feturizer/New_Systems/rnas/4GPX

>  <Rbt.Executable>
rbdock ($Id: //depot/dev/client3/rdock/2013.1/src/exe/rbdock.cxx#4 $)

>  <Rbt.Library>
libRbt.so (2013.1, Build901 2013/11/27)

>  <Rbt.Parameter_File>
/export/apps/rDock/src/rDock_2013.1_src/data/scripts/dock_solv.prm

>  <Rbt.Receptor>
prm/pocket_docking_2.prm

>  <SCORE>
-20.9078

>  <SCORE.INTER>
-17.3423

>  <SCORE.INTER.CONST>
1

>  <SCORE.INTER.POLAR>
0

>  <SCORE.INTER.ROT>
6

>  <SCORE.INTER.SOLV>
20.0366

>  <SCORE.INTER.VDW>
-25.8404

>  <SCORE.INTER.norm>
-0.55943

>  <SCORE.INTRA>
-3.5655

>  <SCORE.INTRA.DIHEDRAL>
-7.80202

>  <SCORE.INTRA.DIHEDRAL.0>
20.6841

>  <SCORE.INTRA.POLAR>
0

>  <SCORE.INTRA.POLAR.0>
0

>  <SCORE.INTRA.REPUL>
0

>  <SCORE.INTRA.REPUL.0>
0

>  <SCORE.INTRA.SOLV>
0.14791

>  <SCORE.INTRA.SOLV.lig_0>
-64.6797

>  <SCORE.INTRA.VDW>
0.261557

>  <SCORE.INTRA.VDW.0>
-4.11825

>  <SCORE.INTRA.norm>
-0.115016

>  <SCORE.RESTR>
0

>  <SCORE.RESTR.CAVITY>
0

>  <SCORE.RESTR.norm>
0

>  <SCORE.SYSTEM>
0

>  <SCORE.SYSTEM.CONST>
0

>  <SCORE.SYSTEM.DIHEDRAL>
0

>  <SCORE.SYSTEM.SOLV>
0

>  <SCORE.SYSTEM.norm>
0

>  <SCORE.heavy>
31

>  <SCORE.norm>
-0.674446

>  <RMSD>
0.582

$$$$
ligand
 OpenBabel11021811493D
libRbt.so/2013.1/901 2013/11/27
 31 33  0  0  0  0  0  0  0  0999 V2000
   -3.5894   14.0284    4.8714 C   0  0  2  0  0  0  0  0  0  0  0  0
   -4.1210   14.2759    6.1696 O   0  0  0  0  0  0  0  0  0  0  0  0
   -4.0727   12.4568   10.0131 C   0  0  2  0  0  0  0  0  0  0  0  0
   -4.2749   11.4860   11.0444 N   0  0  0  0  0  0  0  0  0  0  0  0
   -1.6593   10.2160   10.0725 C   0  0  2  0  0  0  0  0  0  0  0  0
   -3.2011   15.4392    4.2672 C   0  0  2  0  0  0  0  0  0  0  0  0
   -2.2227   16.0722    5.1453 N   0  0  0  0  0  0  0  0  0  0  0  0
   -5.4830   12.8294    9.3949 C   0  0  0  0  0  0  0  0  0  0  0  0
   -0.7254   10.5281   11.2845 C   0  0  2  0  0  0  0  0  0  0  0  0
   -1.3845   11.4478   12.1285 O   0  0  0  0  0  0  0  0  0  0  0  0
   -4.4868   16.3467    4.1180 C   0  0  0  0  0  0  0  0  0  0  0  0
   -5.2640   13.8961    8.2575 C   0  0  2  0  0  0  0  0  0  0  0  0
   -6.5718   14.2425    7.6749 N   0  0  0  0  0  0  0  0  0  0  0  0
    0.6027   11.1465   10.7036 C   0  0  1  0  0  0  0  0  0  0  0  0
    1.5366   11.4871   11.8274 N   0  0  0  0  0  0  0  0  0  0  0  0
   -5.7623   15.5161    3.6675 C   0  0  0  0  0  0  0  0  0  0  0  0
   -4.3023   13.2998    7.1371 C   0  0  2  0  0  0  0  0  0  0  0  0
    1.2989   10.0289    9.7420 C   0  0  1  0  0  0  0  0  0  0  0  0
    1.5828    8.8249   10.4342 O   0  0  0  0  0  0  0  0  0  0  0  0
   -5.7402   14.1573    3.6402 C   0  0  2  0  0  0  0  0  0  0  0  0
   -4.5824   13.3995    4.0099 O   0  0  0  0  0  0  0  0  0  0  0  0
   -2.9143   12.9297    7.7794 C   0  0  2  0  0  0  0  0  0  0  0  0
   -2.0526   12.3808    6.7592 O   0  0  0  0  0  0  0  0  0  0  0  0
    0.3346    9.6639    8.5669 C   0  0  0  0  0  0  0  0  0  0  0  0
   -0.9932    9.2309    9.1303 O   0  0  0  0  0  0  0  0  0  0  0  0
   -6.9422   13.3136    3.2114 C   0  0  0  0  0  0  0  0  0  0  0  0
   -7.5430   12.7496    4.4011 O   0  0  0  0  0  0  0  0  0  0  0  0
   -3.1506   11.8476    8.8969 C   0  0  1  0  0  0  0  0  0  0  0  0
   -1.9129   11.5134    9.4420 O   0  0  0  0  0  0  0  0  0  0  0  0
    2.6270   10.4720    9.0821 C   0  0  0  0  0  0  0  0  0  0  0  0
    1.3498   12.8055   12.4672 C   0  0  0  0  0  0  0  0  0  0  0  0
  1  2  1  1  0  0  0
  1  6  1  0  0  0  0
  1 21  1  0  0  0  0
  3  4  1  1  0  0  0
  3  8  1  0  0  0  0
  3 28  1  0  0  0  0
  5  9  1  0  0  0  0
  5 25  1  0  0  0  0
  5 29  1  6  0  0  0
  6  7  1  1  0  0  0
  6 11  1  0  0  0  0
  8 12  1  0  0  0  0
  9 10  1  1  0  0  0
  9 14  1  0  0  0  0
 11 16  1  0  0  0  0
 12 13  1  6  0  0  0
 12 17  1  0  0  0  0
 14 15  1  1  0  0  0
 14 18  1  0  0  0  0
 15 31  1  0  0  0  0
 16 20  1  0  0  0  0
 17  2  1  6  0  0  0
 17 22  1  0  0  0  0
 18 19  1  1  0  0  0
 18 24  1  0  0  0  0
 18 30  1  0  0  0  0
 20 21  1  0  0  0  0
 20 26  1  6  0  0  0
 22 23  1  6  0  0  0
 22 28  1  0  0  0  0
 24 25  1  0  0  0  0
 26 27  1  0  0  0  0
 28 29  1  1  0  0  0
M  END
>  <CHROM.1>
-165.08297766,-142.56065842,-85.40833583,-164.75049548,-104.32263536,87.07505629
-2.68169172,12.49087917,7.91528882,-2.26740660,-0.18781570,1.97445807

>  <Name>
ligand

>  <RI>
0

>  <Rbt.Current_Directory>
/home/itssahil/PROJECTS/Mol_Feturizer/New_Systems/rnas/4GPX

>  <Rbt.Executable>
rbdock ($Id: //depot/dev/client3/rdock/2013.1/src/exe/rbdock.cxx#4 $)

>  <Rbt.Library>
libRbt.so (2013.1, Build901 2013/11/27)

>  <Rbt.Parameter_File>
/export/apps/rDock/src/rDock_2013.1_src/data/scripts/dock_solv.prm

>  <Rbt.Receptor>
prm/pocket_docking_2.prm

>  <SCORE>
-21.0424

>  <SCORE.INTER>
-17.2479

>  <SCORE.INTER.CONST>
1

>  <SCORE.INTER.POLAR>
0

>  <SCORE.INTER.ROT>
6

>  <SCORE.INTER.SOLV>
20.0621

>  <SCORE.INTER.VDW>
-25.786

>  <SCORE.INTER.norm>
-0.556383

>  <SCORE.INTRA>
-3.79447

>  <SCORE.INTRA.DIHEDRAL>
-8.08526

>  <SCORE.INTRA.DIHEDRAL.0>
20.6841

>  <SCORE.INTRA.POLAR>
0

>  <SCORE.INTRA.POLAR.0>
0

>  <SCORE.INTRA.REPUL>
0

>  <SCORE.INTRA.REPUL.0>
0

>  <SCORE.INTRA.SOLV>
-0.0936789

>  <SCORE.INTRA.SOLV.lig_0>
-64.6797

>  <SCORE.INTRA.VDW>
0.294999

>  <SCORE.INTRA.VDW.0>
-4.11825

>  <SCORE.INTRA.norm>
-0.122402

>  <SCORE.RESTR>
0

>  <SCORE.RESTR.CAVITY>
0

>  <SCORE.RESTR.norm>
0

>  <SCORE.SYSTEM>
0

>  <SCORE.SYSTEM.CONST>
0

>  <SCORE.SYSTEM.DIHEDRAL>
0

>  <SCORE.SYSTEM.SOLV>
0

>  <SCORE.SYSTEM.norm>
0

>  <SCORE.heavy>
31

>  <SCORE.norm>
-0.678786

>  <RMSD>
0.593

$$$$
ligand
 OpenBabel11021811493D
libRbt.so/2013.1/901 2013/11/27
 31 33  0  0  0  0  0  0  0  0999 V2000
   -3.6047   14.0486    4.8831 C   0  0  2  0  0  0  0  0  0  0  0  0
   -4.1209   14.2923    6.1882 O   0  0  0  0  0  0  0  0  0  0  0  0
   -4.0443   12.4494   10.0199 C   0  0  2  0  0  0  0  0  0  0  0  0
   -4.2430   11.4740   11.0475 N   0  0  0  0  0  0  0  0  0  0  0  0
   -1.6537   10.1933   10.0509 C   0  0  2  0  0  0  0  0  0  0  0  0
   -3.2208   15.4608    4.2795 C   0  0  2  0  0  0  0  0  0  0  0  0
   -2.2311   16.0889    5.1486 N   0  0  0  0  0  0  0  0  0  0  0  0
   -5.4583   12.8378    9.4202 C   0  0  0  0  0  0  0  0  0  0  0  0
   -0.7396   10.5053   11.2780 C   0  0  2  0  0  0  0  0  0  0  0  0
   -1.4134   11.4228   12.1127 O   0  0  0  0  0  0  0  0  0  0  0  0
   -4.5064   16.3713    4.1484 C   0  0  0  0  0  0  0  0  0  0  0  0
   -5.2432   13.9095    8.2867 C   0  0  2  0  0  0  0  0  0  0  0  0
   -6.5545   14.2706    7.7214 N   0  0  0  0  0  0  0  0  0  0  0  0
    0.5966   11.1265   10.7191 C   0  0  1  0  0  0  0  0  0  0  0  0
    1.5120   11.4671   11.8580 N   0  0  0  0  0  0  0  0  0  0  0  0
   -5.7885   15.5447    3.7096 C   0  0  0  0  0  0  0  0  0  0  0  0
   -4.2995   13.3119    7.1518 C   0  0  2  0  0  0  0  0  0  0  0  0
    1.3097   10.0113    9.7671 C   0  0  1  0  0  0  0  0  0  0  0  0
    1.5845    8.8068   10.4622 O   0  0  0  0  0  0  0  0  0  0  0  0
   -5.7693   14.1859    3.6772 C   0  0  2  0  0  0  0  0  0  0  0  0
   -4.6087   13.4246    4.0308 O   0  0  0  0  0  0  0  0  0  0  0  0
   -2.9075   12.9260    7.7759 C   0  0  2  0  0  0  0  0  0  0  0  0
   -2.0622   12.3761    6.7426 O   0  0  0  0  0  0  0  0  0  0  0  0
    0.3648    9.6463    8.5764 C   0  0  0  0  0  0  0  0  0  0  0  0
   -0.9711    9.2105    9.1181 O   0  0  0  0  0  0  0  0  0  0  0  0
   -6.9777   13.3459    3.2592 C   0  0  0  0  0  0  0  0  0  0  0  0
   -7.5039   12.6962    4.4404 O   0  0  0  0  0  0  0  0  0  0  0  0
   -3.1402   11.8392    8.8894 C   0  0  1  0  0  0  0  0  0  0  0  0
   -1.8993   11.4912    9.4183 O   0  0  0  0  0  0  0  0  0  0  0  0
    2.6474   10.4573    9.1290 C   0  0  0  0  0  0  0  0  0  0  0  0
    1.3179   12.7874   12.4915 C   0  0  0  0  0  0  0  0  0  0  0  0
  1  2  1  1  0  0  0
  1  6  1  0  0  0  0
  1 21  1  0  0  0  0
  3  4  1  1  0  0  0
  3  8  1  0  0  0  0
  3 28  1  0  0  0  0
  5  9  1  0  0  0  0
  5 25  1  0  0  0  0
  5 29  1  6  0  0  0
  6  7  1  1  0  0  0
  6 11  1  0  0  0  0
  8 12  1  0  0  0  0
  9 10  1  1  0  0  0
  9 14  1  0  0  0  0
 11 16  1  0  0  0  0
 12 13  1  6  0  0  0
 12 17  1  0  0  0  0
 14 15  1  1  0  0  0
 14 18  1  0  0  0  0
 15 31  1  0  0  0  0
 16 20  1  0  0  0  0
 17  2  1  6  0  0  0
 17 22  1  0  0  0  0
 18 19  1  1  0  0  0
 18 24  1  0  0  0  0
 18 30  1  0  0  0  0
 20 21  1  0  0  0  0
 20 26  1  6  0  0  0
 22 23  1  6  0  0  0
 22 28  1  0  0  0  0
 24 25  1  0  0  0  0
 26 27  1  0  0  0  0
 28 29  1  1  0  0  0
M  END
>  <CHROM.1>
-165.43761448,-140.60490922,-85.73980815,-164.83560558,-108.66148009,86.39330403
-2.68196584,12.48871303,7.93004223,-2.26800243,-0.19221021,1.97746200

>  <Name>
ligand

>  <RI>
0

>  <Rbt.Current_Directory>
/home/itssahil/PROJECTS/Mol_Feturizer/New_Systems/rnas/4GPX

>  <Rbt.Executable>
rbdock ($Id: //depot/dev/client3/rdock/2013.1/src/exe/rbdock.cxx#4 $)

>  <Rbt.Library>
libRbt.so (2013.1, Build901 2013/11/27)

>  <Rbt.Parameter_File>
/export/apps/rDock/src/rDock_2013.1_src/data/scripts/dock_solv.prm

>  <Rbt.Receptor>
prm/pocket_docking_2.prm

>  <SCORE>
-21.0332

>  <SCORE.INTER>
-17.2652

>  <SCORE.INTER.CONST>
1

>  <SCORE.INTER.POLAR>
0

>  <SCORE.INTER.ROT>
6

>  <SCORE.INTER.SOLV>
20.0591

>  <SCORE.INTER.VDW>
-25.7965

>  <SCORE.INTER.norm>
-0.55694

>  <SCORE.INTRA>
-3.76807

>  <SCORE.INTRA.DIHEDRAL>
-8.06758

>  <SCORE.INTRA.DIHEDRAL.0>
20.6841

>  <SCORE.INTRA.POLAR>
0

>  <SCORE.INTRA.POLAR.0>
0

>  <SCORE.INTRA.REPUL>
0

>  <SCORE.INTRA.REPUL.0>
0

>  <SCORE.INTRA.SOLV>
-0.045688

>  <SCORE.INTRA.SOLV.lig_0>
-64.6797

>  <SCORE.INTRA.VDW>
0.288563

>  <SCORE.INTRA.VDW.0>
-4.11825

>  <SCORE.INTRA.norm>
-0.121551

>  <SCORE.RESTR>
0

>  <SCORE.RESTR.CAVITY>
0

>  <SCORE.RESTR.norm>
0

>  <SCORE.SYSTEM>
0

>  <SCORE.SYSTEM.CONST>
0

>  <SCORE.SYSTEM.DIHEDRAL>
0

>  <SCORE.SYSTEM.SOLV>
0

>  <SCORE.SYSTEM.norm>
0

>  <SCORE.heavy>
31

>  <SCORE.norm>
-0.678491

>  <RMSD>
0.597

$$$$
ligand
 OpenBabel11021811493D
libRbt.so/2013.1/901 2013/11/27
 31 33  0  0  0  0  0  0  0  0999 V2000
   -3.5966   14.0347    4.8197 C   0  0  2  0  0  0  0  0  0  0  0  0
   -4.0895   14.2789    6.1337 O   0  0  0  0  0  0  0  0  0  0  0  0
   -4.0958   12.4311    9.9638 C   0  0  2  0  0  0  0  0  0  0  0  0
   -4.3088   11.4510   10.9840 N   0  0  0  0  0  0  0  0  0  0  0  0
   -1.6688   10.2121   10.0576 C   0  0  2  0  0  0  0  0  0  0  0  0
   -3.2126   15.4456    4.2132 C   0  0  2  0  0  0  0  0  0  0  0  0
   -2.2044   16.0645    5.0674 N   0  0  0  0  0  0  0  0  0  0  0  0
   -5.4977   12.7974    9.3231 C   0  0  0  0  0  0  0  0  0  0  0  0
   -0.7454   10.5257   11.2773 C   0  0  2  0  0  0  0  0  0  0  0  0
   -1.4126   11.4449   12.1156 O   0  0  0  0  0  0  0  0  0  0  0  0
   -4.4937   16.3655    4.1054 C   0  0  0  0  0  0  0  0  0  0  0  0
   -5.2668   13.8743    8.1977 C   0  0  2  0  0  0  0  0  0  0  0  0
   -6.5666   14.2149    7.5943 N   0  0  0  0  0  0  0  0  0  0  0  0
    0.5868   11.1455   10.7074 C   0  0  1  0  0  0  0  0  0  0  0  0
    1.5108   11.4876   11.8389 N   0  0  0  0  0  0  0  0  0  0  0  0
   -5.7887   15.5491    3.6858 C   0  0  0  0  0  0  0  0  0  0  0  0
   -4.2804   13.2941    7.0905 C   0  0  2  0  0  0  0  0  0  0  0  0
    1.2923   10.0285    9.7520 C   0  0  1  0  0  0  0  0  0  0  0  0
    1.5719    8.8251   10.4469 O   0  0  0  0  0  0  0  0  0  0  0  0
   -5.7797   14.1903    3.6499 C   0  0  2  0  0  0  0  0  0  0  0  0
   -4.6189   13.4199    3.9825 O   0  0  0  0  0  0  0  0  0  0  0  0
   -2.9013   12.9300    7.7549 C   0  0  2  0  0  0  0  0  0  0  0  0
   -2.0170   12.3956    6.7464 O   0  0  0  0  0  0  0  0  0  0  0  0
    0.3384    9.6620    8.5690 C   0  0  0  0  0  0  0  0  0  0  0  0
   -0.9935    9.2275    9.1214 O   0  0  0  0  0  0  0  0  0  0  0  0
   -7.0008   13.3600    3.2498 C   0  0  0  0  0  0  0  0  0  0  0  0
   -7.5122   12.7112    4.4381 O   0  0  0  0  0  0  0  0  0  0  0  0
   -3.1489   11.8376    8.8599 C   0  0  1  0  0  0  0  0  0  0  0  0
   -1.9186   11.5091    9.4247 O   0  0  0  0  0  0  0  0  0  0  0  0
    2.6254   10.4730    9.1031 C   0  0  0  0  0  0  0  0  0  0  0  0
    1.2927   12.7898   12.5015 C   0  0  0  0  0  0  0  0  0  0  0  0
  1  2  1  1  0  0  0
  1  6  1  0  0  0  0
  1 21  1  0  0  0  0
  3  4  1  1  0  0  0
  3  8  1  0  0  0  0
  3 28  1  0  0  0  0
  5  9  1  0  0  0  0
  5 25  1  0  0  0  0
  5 29  1  6  0  0  0
  6  7  1  1  0  0  0
  6 11  1  0  0  0  0
  8 12  1  0  0  0  0
  9 10  1  1  0  0  0
  9 14  1  0  0  0  0
 11 16  1  0  0  0  0
 12 13  1  6  0  0  0
 12 17  1  0  0  0  0
 14 15  1  1  0  0  0
 14 18  1  0  0  0  0
 15 31  1  0  0  0  0
 16 20  1  0  0  0  0
 17  2  1  6  0  0  0
 17 22  1  0  0  0  0
 18 19  1  1  0  0  0
 18 24  1  0  0  0  0
 18 30  1  0  0  0  0
 20 21  1  0  0  0  0
 20 26  1  6  0  0  0
 22 23  1  6  0  0  0
 22 28  1  0  0  0  0
 24 25  1  0  0  0  0
 26 27  1  0  0  0  0
 28 29  1  1  0  0  0
M  END
>  <CHROM.1>
-166.56930362,-143.07357023,-83.74345401,-161.39326376,-108.65378328,86.66886974
-2.69047321,12.48907865,7.89782231,-2.26213839,-0.16788136,1.99313596

>  <Name>
ligand

>  <RI>
0

>  <Rbt.Current_Directory>
/home/itssahil/PROJECTS/Mol_Feturizer/New_Systems/rnas/4GPX

>  <Rbt.Executable>
rbdock ($Id: //depot/dev/client3/rdock/2013.1/src/exe/rbdock.cxx#4 $)

>  <Rbt.Library>
libRbt.so (2013.1, Build901 2013/11/27)

>  <Rbt.Parameter_File>
/export/apps/rDock/src/rDock_2013.1_src/data/scripts/dock_solv.prm

>  <Rbt.Receptor>
prm/pocket_docking_2.prm

>  <SCORE>
-21.0977

>  <SCORE.INTER>
-17.4092

>  <SCORE.INTER.CONST>
1

>  <SCORE.INTER.POLAR>
0

>  <SCORE.INTER.ROT>
6

>  <SCORE.INTER.SOLV>
20.2777

>  <SCORE.INTER.VDW>
-25.9654

>  <SCORE.INTER.norm>
-0.561588

>  <SCORE.INTRA>
-3.68848

>  <SCORE.INTRA.DIHEDRAL>
-8.14135

>  <SCORE.INTRA.DIHEDRAL.0>
20.6841

>  <SCORE.INTRA.POLAR>
0

>  <SCORE.INTRA.POLAR.0>
0

>  <SCORE.INTRA.REPUL>
0

>  <SCORE.INTRA.REPUL.0>
0

>  <SCORE.INTRA.SOLV>
0.212084

>  <SCORE.INTRA.SOLV.lig_0>
-64.6797

>  <SCORE.INTRA.VDW>
0.276156

>  <SCORE.INTRA.VDW.0>
-4.11825

>  <SCORE.INTRA.norm>
-0.118983

>  <SCORE.RESTR>
0

>  <SCORE.RESTR.CAVITY>
0

>  <SCORE.RESTR.norm>
0

>  <SCORE.SYSTEM>
0

>  <SCORE.SYSTEM.CONST>
0

>  <SCORE.SYSTEM.DIHEDRAL>
0

>  <SCORE.SYSTEM.SOLV>
0

>  <SCORE.SYSTEM.norm>
0

>  <SCORE.heavy>
31

>  <SCORE.norm>
-0.680572

>  <RMSD>
0.598

$$$$
ligand
 OpenBabel11021811493D
libRbt.so/2013.1/901 2013/11/27
 31 33  0  0  0  0  0  0  0  0999 V2000
   -3.5794   14.0381    4.8575 C   0  0  2  0  0  0  0  0  0  0  0  0
   -4.0977   14.2823    6.1617 O   0  0  0  0  0  0  0  0  0  0  0  0
   -4.0406   12.4436    9.9958 C   0  0  2  0  0  0  0  0  0  0  0  0
   -4.2423   11.4684   11.0230 N   0  0  0  0  0  0  0  0  0  0  0  0
   -1.6426   10.2021   10.0551 C   0  0  2  0  0  0  0  0  0  0  0  0
   -3.2063   15.4512    4.2492 C   0  0  2  0  0  0  0  0  0  0  0  0
   -2.2217   16.0898    5.1164 N   0  0  0  0  0  0  0  0  0  0  0  0
   -5.4520   12.8249    9.3854 C   0  0  0  0  0  0  0  0  0  0  0  0
   -0.7224   10.5232   11.2752 C   0  0  2  0  0  0  0  0  0  0  0  0
   -1.3899   11.4510   12.1038 O   0  0  0  0  0  0  0  0  0  0  0  0
   -4.4988   16.3513    4.1148 C   0  0  0  0  0  0  0  0  0  0  0  0
   -5.2335   13.8964    8.2524 C   0  0  2  0  0  0  0  0  0  0  0  0
   -6.5423   14.2509    7.6771 N   0  0  0  0  0  0  0  0  0  0  0  0
    0.6133   11.1348   10.7047 C   0  0  1  0  0  0  0  0  0  0  0  0
    1.5346   11.4836   11.8364 N   0  0  0  0  0  0  0  0  0  0  0  0
   -5.7745   15.5133    3.6787 C   0  0  0  0  0  0  0  0  0  0  0  0
   -4.2788   13.3020    7.1250 C   0  0  2  0  0  0  0  0  0  0  0  0
    1.3189   10.0082    9.7606 C   0  0  1  0  0  0  0  0  0  0  0  0
    1.5929    8.8097   10.4662 O   0  0  0  0  0  0  0  0  0  0  0  0
   -5.7448   14.1546    3.6508 C   0  0  2  0  0  0  0  0  0  0  0  0
   -4.5784   13.4035    4.0072 O   0  0  0  0  0  0  0  0  0  0  0  0
   -2.8896   12.9232    7.7596 C   0  0  2  0  0  0  0  0  0  0  0  0
   -2.0344   12.3761    6.7331 O   0  0  0  0  0  0  0  0  0  0  0  0
    0.3678    9.6346    8.5775 C   0  0  0  0  0  0  0  0  0  0  0  0
   -0.9670    9.2082    9.1290 O   0  0  0  0  0  0  0  0  0  0  0  0
   -6.9466   13.3040    3.2355 C   0  0  0  0  0  0  0  0  0  0  0  0
   -7.5017   12.6980    4.4267 O   0  0  0  0  0  0  0  0  0  0  0  0
   -3.1255   11.8364    8.8726 C   0  0  1  0  0  0  0  0  0  0  0  0
   -1.8869   11.4946    9.4108 O   0  0  0  0  0  0  0  0  0  0  0  0
    2.6553   10.4438    9.1125 C   0  0  0  0  0  0  0  0  0  0  0  0
    1.3467   12.8102   12.4583 C   0  0  0  0  0  0  0  0  0  0  0  0
  1  2  1  1  0  0  0
  1  6  1  0  0  0  0
  1 21  1  0  0  0  0
  3  4  1  1  0  0  0
  3  8  1  0  0  0  0
  3 28  1  0  0  0  0
  5  9  1  0  0  0  0
  5 25  1  0  0  0  0
  5 29  1  6  0  0  0
  6  7  1  1  0  0  0
  6 11  1  0  0  0  0
  8 12  1  0  0  0  0
  9 10  1  1  0  0  0
  9 14  1  0  0  0  0
 11 16  1  0  0  0  0
 12 13  1  6  0  0  0
 12 17  1  0  0  0  0
 14 15  1  1  0  0  0
 14 18  1  0  0  0  0
 15 31  1  0  0  0  0
 16 20  1  0  0  0  0
 17  2  1  6  0  0  0
 17 22  1  0  0  0  0
 18 19  1  1  0  0  0
 18 24  1  0  0  0  0
 18 30  1  0  0  0  0
 20 21  1  0  0  0  0
 20 26  1  6  0  0  0
 22 23  1  6  0  0  0
 22 28  1  0  0  0  0
 24 25  1  0  0  0  0
 26 27  1  0  0  0  0
 28 29  1  1  0  0  0
M  END
>  <CHROM.1>
-165.97283364,-141.22636847,-85.70307776,-164.38772087,-106.33396264,85.94945315
-2.66703135,12.48353980,7.91130529,-2.26654454,-0.18492372,1.97960822

>  <Name>
ligand

>  <RI>
0

>  <Rbt.Current_Directory>
/home/itssahil/PROJECTS/Mol_Feturizer/New_Systems/rnas/4GPX

>  <Rbt.Executable>
rbdock ($Id: //depot/dev/client3/rdock/2013.1/src/exe/rbdock.cxx#4 $)

>  <Rbt.Library>
libRbt.so (2013.1, Build901 2013/11/27)

>  <Rbt.Parameter_File>
/export/apps/rDock/src/rDock_2013.1_src/data/scripts/dock_solv.prm

>  <Rbt.Receptor>
prm/pocket_docking_2.prm

>  <SCORE>
-21.0132

>  <SCORE.INTER>
-17.1878

>  <SCORE.INTER.CONST>
1

>  <SCORE.INTER.POLAR>
0

>  <SCORE.INTER.ROT>
6

>  <SCORE.INTER.SOLV>
20.1116

>  <SCORE.INTER.VDW>
-25.7624

>  <SCORE.INTER.norm>
-0.554444

>  <SCORE.INTRA>
-3.82546

>  <SCORE.INTRA.DIHEDRAL>
-8.19127

>  <SCORE.INTRA.DIHEDRAL.0>
20.6841

>  <SCORE.INTRA.POLAR>
0

>  <SCORE.INTRA.POLAR.0>
0

>  <SCORE.INTRA.REPUL>
0

>  <SCORE.INTRA.REPUL.0>
0

>  <SCORE.INTRA.SOLV>
-0.0262783

>  <SCORE.INTRA.SOLV.lig_0>
-64.6797

>  <SCORE.INTRA.VDW>
0.283309

>  <SCORE.INTRA.VDW.0>
-4.11825

>  <SCORE.INTRA.norm>
-0.123402

>  <SCORE.RESTR>
0

>  <SCORE.RESTR.CAVITY>
0

>  <SCORE.RESTR.norm>
0

>  <SCORE.SYSTEM>
0

>  <SCORE.SYSTEM.CONST>
0

>  <SCORE.SYSTEM.DIHEDRAL>
0

>  <SCORE.SYSTEM.SOLV>
0

>  <SCORE.SYSTEM.norm>
0

>  <SCORE.heavy>
31

>  <SCORE.norm>
-0.677846

>  <RMSD>
0.604

$$$$
ligand
 OpenBabel11021811493D
libRbt.so/2013.1/901 2013/11/27
 31 33  0  0  0  0  0  0  0  0999 V2000
   -3.5895   14.0552    4.8465 C   0  0  2  0  0  0  0  0  0  0  0  0
   -4.0975   14.2890    6.1566 O   0  0  0  0  0  0  0  0  0  0  0  0
   -4.0882   12.4210    9.9769 C   0  0  2  0  0  0  0  0  0  0  0  0
   -4.2966   11.4353   10.9927 N   0  0  0  0  0  0  0  0  0  0  0  0
   -1.6652   10.2110   10.0680 C   0  0  2  0  0  0  0  0  0  0  0  0
   -3.2090   15.4719    4.2514 C   0  0  2  0  0  0  0  0  0  0  0  0
   -2.2138   16.0931    5.1191 N   0  0  0  0  0  0  0  0  0  0  0  0
   -5.4928   12.7895    9.3433 C   0  0  0  0  0  0  0  0  0  0  0  0
   -0.7377   10.5317   11.2826 C   0  0  2  0  0  0  0  0  0  0  0  0
   -1.3996   11.4601   12.1148 O   0  0  0  0  0  0  0  0  0  0  0  0
   -4.4951   16.3836    4.1352 C   0  0  0  0  0  0  0  0  0  0  0  0
   -5.2669   13.8726    8.2228 C   0  0  2  0  0  0  0  0  0  0  0  0
   -6.5692   14.2153    7.6260 N   0  0  0  0  0  0  0  0  0  0  0  0
    0.5952   11.1421   10.7041 C   0  0  1  0  0  0  0  0  0  0  0  0
    1.5233   11.4905   11.8303 N   0  0  0  0  0  0  0  0  0  0  0  0
   -5.7802   15.5606    3.6981 C   0  0  0  0  0  0  0  0  0  0  0  0
   -4.2841   13.2990    7.1088 C   0  0  2  0  0  0  0  0  0  0  0  0
    1.2944   10.0148    9.7562 C   0  0  1  0  0  0  0  0  0  0  0  0
    1.5716    8.8162   10.4605 O   0  0  0  0  0  0  0  0  0  0  0  0
   -5.7616   14.2021    3.6552 C   0  0  2  0  0  0  0  0  0  0  0  0
   -4.5990   13.4379    3.9956 O   0  0  0  0  0  0  0  0  0  0  0  0
   -2.9022   12.9324    7.7663 C   0  0  2  0  0  0  0  0  0  0  0  0
   -2.0213   12.4042    6.7516 O   0  0  0  0  0  0  0  0  0  0  0  0
    0.3361    9.6416    8.5788 C   0  0  0  0  0  0  0  0  0  0  0  0
   -0.9958    9.2163    9.1382 O   0  0  0  0  0  0  0  0  0  0  0  0
   -6.9728   13.3657    3.2382 C   0  0  0  0  0  0  0  0  0  0  0  0
   -7.4905   12.7053    4.4173 O   0  0  0  0  0  0  0  0  0  0  0  0
   -3.1450   11.8341    8.8663 C   0  0  1  0  0  0  0  0  0  0  0  0
   -1.9123   11.5035    9.4248 O   0  0  0  0  0  0  0  0  0  0  0  0
    2.6273   10.4492    9.1002 C   0  0  0  0  0  0  0  0  0  0  0  0
    1.2979   12.7896   12.4964 C   0  0  0  0  0  0  0  0  0  0  0  0
  1  2  1  1  0  0  0
  1  6  1  0  0  0  0
  1 21  1  0  0  0  0
  3  4  1  1  0  0  0
  3  8  1  0  0  0  0
  3 28  1  0  0  0  0
  5  9  1  0  0  0  0
  5 25  1  0  0  0  0
  5 29  1  6  0  0  0
  6  7  1  1  0  0  0
  6 11  1  0  0  0  0
  8 12  1  0  0  0  0
  9 10  1  1  0  0  0
  9 14  1  0  0  0  0
 11 16  1  0  0  0  0
 12 13  1  6  0  0  0
 12 17  1  0  0  0  0
 14 15  1  1  0  0  0
 14 18  1  0  0  0  0
 15 31  1  0  0  0  0
 16 20  1  0  0  0  0
 17  2  1  6  0  0  0
 17 22  1  0  0  0  0
 18 19  1  1  0  0  0
 18 24  1  0  0  0  0
 18 30  1  0  0  0  0
 20 21  1  0  0  0  0
 20 26  1  6  0  0  0
 22 23  1  6  0  0  0
 22 28  1  0  0  0  0
 24 25  1  0  0  0  0
 26 27  1  0  0  0  0
 28 29  1  1  0  0  0
M  END
>  <CHROM.1>
-166.17511237,-142.74804796,-82.81717808,-162.42267711,-108.74799607,85.72092159
-2.68524622,12.49091066,7.90873356,-2.26180217,-0.16891867,1.99557078

>  <Name>
ligand

>  <RI>
0

>  <Rbt.Current_Directory>
/home/itssahil/PROJECTS/Mol_Feturizer/New_Systems/rnas/4GPX

>  <Rbt.Executable>
rbdock ($Id: //depot/dev/client3/rdock/2013.1/src/exe/rbdock.cxx#4 $)

>  <Rbt.Library>
libRbt.so (2013.1, Build901 2013/11/27)

>  <Rbt.Parameter_File>
/export/apps/rDock/src/rDock_2013.1_src/data/scripts/dock_solv.prm

>  <Rbt.Receptor>
prm/pocket_docking_2.prm

>  <SCORE>
-21.0886

>  <SCORE.INTER>
-17.3043

>  <SCORE.INTER.CONST>
1

>  <SCORE.INTER.POLAR>
0

>  <SCORE.INTER.ROT>
6

>  <SCORE.INTER.SOLV>
20.1668

>  <SCORE.INTER.VDW>
-25.8585

>  <SCORE.INTER.norm>
-0.558205

>  <SCORE.INTRA>
-3.78421

>  <SCORE.INTRA.DIHEDRAL>
-8.39777

>  <SCORE.INTRA.DIHEDRAL.0>
20.6841

>  <SCORE.INTRA.POLAR>
0

>  <SCORE.INTRA.POLAR.0>
0

>  <SCORE.INTRA.REPUL>
0

>  <SCORE.INTRA.REPUL.0>
0

>  <SCORE.INTRA.SOLV>
0.122857

>  <SCORE.INTRA.SOLV.lig_0>
-64.6797

>  <SCORE.INTRA.VDW>
0.353242

>  <SCORE.INTRA.VDW.0>
-4.11825

>  <SCORE.INTRA.norm>
-0.122071

>  <SCORE.RESTR>
0

>  <SCORE.RESTR.CAVITY>
0

>  <SCORE.RESTR.norm>
0

>  <SCORE.SYSTEM>
0

>  <SCORE.SYSTEM.CONST>
0

>  <SCORE.SYSTEM.DIHEDRAL>
0

>  <SCORE.SYSTEM.SOLV>
0

>  <SCORE.SYSTEM.norm>
0

>  <SCORE.heavy>
31

>  <SCORE.norm>
-0.680276

>  <RMSD>
0.605

$$$$
ligand
 OpenBabel11021811493D
libRbt.so/2013.1/901 2013/11/27
 31 33  0  0  0  0  0  0  0  0999 V2000
   -3.5832   14.1023    4.8388 C   0  0  2  0  0  0  0  0  0  0  0  0
   -4.0803   14.3327    6.1537 O   0  0  0  0  0  0  0  0  0  0  0  0
   -4.0927   12.4423    9.9629 C   0  0  2  0  0  0  0  0  0  0  0  0
   -4.3090   11.4515   10.9721 N   0  0  0  0  0  0  0  0  0  0  0  0
   -1.6819   10.2248   10.0572 C   0  0  2  0  0  0  0  0  0  0  0  0
   -3.1714   15.5164    4.2586 C   0  0  2  0  0  0  0  0  0  0  0  0
   -2.1583   16.1035    5.1292 N   0  0  0  0  0  0  0  0  0  0  0  0
   -5.4934   12.8204    9.3264 C   0  0  0  0  0  0  0  0  0  0  0  0
   -0.7675   10.5414   11.2829 C   0  0  2  0  0  0  0  0  0  0  0  0
   -1.4369   11.4700   12.1091 O   0  0  0  0  0  0  0  0  0  0  0  0
   -4.4359   16.4598    4.1586 C   0  0  0  0  0  0  0  0  0  0  0  0
   -5.2589   13.9091    8.2132 C   0  0  2  0  0  0  0  0  0  0  0  0
   -6.5575   14.2608    7.6137 N   0  0  0  0  0  0  0  0  0  0  0  0
    0.5732   11.1499   10.7207 C   0  0  1  0  0  0  0  0  0  0  0  0
    1.4891   11.4943   11.8581 N   0  0  0  0  0  0  0  0  0  0  0  0
   -5.7420   15.6728    3.7175 C   0  0  0  0  0  0  0  0  0  0  0  0
   -4.2745   13.3379    7.0994 C   0  0  2  0  0  0  0  0  0  0  0  0
    1.2807   10.0225    9.7790 C   0  0  1  0  0  0  0  0  0  0  0  0
    1.5472    8.8222   10.4844 O   0  0  0  0  0  0  0  0  0  0  0  0
   -5.7559   14.3149    3.6586 C   0  0  2  0  0  0  0  0  0  0  0  0
   -4.6105   13.5193    3.9852 O   0  0  0  0  0  0  0  0  0  0  0  0
   -2.8966   12.9617    7.7597 C   0  0  2  0  0  0  0  0  0  0  0  0
   -2.0141   12.4357    6.7452 O   0  0  0  0  0  0  0  0  0  0  0  0
    0.3352    9.6534    8.5901 C   0  0  0  0  0  0  0  0  0  0  0  0
   -1.0040    9.2302    9.1335 O   0  0  0  0  0  0  0  0  0  0  0  0
   -6.9884   13.5124    3.2371 C   0  0  0  0  0  0  0  0  0  0  0  0
   -7.4519   12.7640    4.3858 O   0  0  0  0  0  0  0  0  0  0  0  0
   -3.1479   11.8579    8.8524 C   0  0  1  0  0  0  0  0  0  0  0  0
   -1.9187   11.5189    9.4134 O   0  0  0  0  0  0  0  0  0  0  0  0
    2.6220   10.4551    9.1391 C   0  0  0  0  0  0  0  0  0  0  0  0
    1.3178   12.8302   12.4650 C   0  0  0  0  0  0  0  0  0  0  0  0
  1  2  1  1  0  0  0
  1  6  1  0  0  0  0
  1 21  1  0  0  0  0
  3  4  1  1  0  0  0
  3  8  1  0  0  0  0
  3 28  1  0  0  0  0
  5  9  1  0  0  0  0
  5 25  1  0  0  0  0
  5 29  1  6  0  0  0
  6  7  1  1  0  0  0
  6 11  1  0  0  0  0
  8 12  1  0  0  0  0
  9 10  1  1  0  0  0
  9 14  1  0  0  0  0
 11 16  1  0  0  0  0
 12 13  1  6  0  0  0
 12 17  1  0  0  0  0
 14 15  1  1  0  0  0
 14 18  1  0  0  0  0
 15 31  1  0  0  0  0
 16 20  1  0  0  0  0
 17  2  1  6  0  0  0
 17 22  1  0  0  0  0
 18 19  1  1  0  0  0
 18 24  1  0  0  0  0
 18 30  1  0  0  0  0
 20 21  1  0  0  0  0
 20 26  1  6  0  0  0
 22 23  1  6  0  0  0
 22 28  1  0  0  0  0
 24 25  1  0  0  0  0
 26 27  1  0  0  0  0
 28 29  1  1  0  0  0
M  END
>  <CHROM.1>
-165.52796433,-142.13558490,-86.76895854,-161.65151594,-113.38141042,85.33242595
-2.68289363,12.52809055,7.90781892,-2.25487624,-0.16009128,2.01167842

>  <Name>
ligand

>  <RI>
0

>  <Rbt.Current_Directory>
/home/itssahil/PROJECTS/Mol_Feturizer/New_Systems/rnas/4GPX

>  <Rbt.Executable>
rbdock ($Id: //depot/dev/client3/rdock/2013.1/src/exe/rbdock.cxx#4 $)

>  <Rbt.Library>
libRbt.so (2013.1, Build901 2013/11/27)

>  <Rbt.Parameter_File>
/export/apps/rDock/src/rDock_2013.1_src/data/scripts/dock_solv.prm

>  <Rbt.Receptor>
prm/pocket_docking_2.prm

>  <SCORE>
-21.0735

>  <SCORE.INTER>
-17.3081

>  <SCORE.INTER.CONST>
1

>  <SCORE.INTER.POLAR>
0

>  <SCORE.INTER.ROT>
6

>  <SCORE.INTER.SOLV>
20.0051

>  <SCORE.INTER.VDW>
-25.8071

>  <SCORE.INTER.norm>
-0.558325

>  <SCORE.INTRA>
-3.76546

>  <SCORE.INTRA.DIHEDRAL>
-8.14843

>  <SCORE.INTRA.DIHEDRAL.0>
20.6841

>  <SCORE.INTRA.POLAR>
0

>  <SCORE.INTRA.POLAR.0>
0

>  <SCORE.INTRA.REPUL>
0

>  <SCORE.INTRA.REPUL.0>
0

>  <SCORE.INTRA.SOLV>
0.207273

>  <SCORE.INTRA.SOLV.lig_0>
-64.6797

>  <SCORE.INTRA.VDW>
0.205117

>  <SCORE.INTRA.VDW.0>
-4.11825

>  <SCORE.INTRA.norm>
-0.121466

>  <SCORE.RESTR>
0

>  <SCORE.RESTR.CAVITY>
0

>  <SCORE.RESTR.norm>
0

>  <SCORE.SYSTEM>
0

>  <SCORE.SYSTEM.CONST>
0

>  <SCORE.SYSTEM.DIHEDRAL>
0

>  <SCORE.SYSTEM.SOLV>
0

>  <SCORE.SYSTEM.norm>
0

>  <SCORE.heavy>
31

>  <SCORE.norm>
-0.679791

>  <RMSD>
0.609

$$$$
ligand
 OpenBabel11021811493D
libRbt.so/2013.1/901 2013/11/27
 31 33  0  0  0  0  0  0  0  0999 V2000
   -3.5184   14.0320    4.7720 C   0  0  2  0  0  0  0  0  0  0  0  0
   -3.9963   14.2865    6.0896 O   0  0  0  0  0  0  0  0  0  0  0  0
   -4.0742   12.4583    9.9283 C   0  0  2  0  0  0  0  0  0  0  0  0
   -4.3040   11.4824   10.9489 N   0  0  0  0  0  0  0  0  0  0  0  0
   -1.6315   10.2409   10.0610 C   0  0  2  0  0  0  0  0  0  0  0  0
   -3.1564   15.4395    4.1444 C   0  0  2  0  0  0  0  0  0  0  0  0
   -2.1431   16.0780    4.9779 N   0  0  0  0  0  0  0  0  0  0  0  0
   -5.4640   12.8151    9.2567 C   0  0  0  0  0  0  0  0  0  0  0  0
   -0.7050   10.5443   11.2810 C   0  0  2  0  0  0  0  0  0  0  0  0
   -1.3697   11.4569   12.1283 O   0  0  0  0  0  0  0  0  0  0  0  0
   -4.4478   16.3455    4.0431 C   0  0  0  0  0  0  0  0  0  0  0  0
   -5.2144   13.8873    8.1309 C   0  0  2  0  0  0  0  0  0  0  0  0
   -6.5029   14.2190    7.4988 N   0  0  0  0  0  0  0  0  0  0  0  0
    0.6261   11.1681   10.7129 C   0  0  1  0  0  0  0  0  0  0  0  0
    1.5530   11.5007   11.8448 N   0  0  0  0  0  0  0  0  0  0  0  0
   -5.7402   15.5117    3.6503 C   0  0  0  0  0  0  0  0  0  0  0  0
   -4.2027   13.3058    7.0473 C   0  0  2  0  0  0  0  0  0  0  0  0
    1.3288   10.0586    9.7466 C   0  0  1  0  0  0  0  0  0  0  0  0
    1.6095    8.8495   10.4311 O   0  0  0  0  0  0  0  0  0  0  0  0
   -5.7182   14.1528    3.6298 C   0  0  2  0  0  0  0  0  0  0  0  0
   -4.5456   13.3977    3.9557 O   0  0  0  0  0  0  0  0  0  0  0  0
   -2.8361   12.9511    7.7421 C   0  0  2  0  0  0  0  0  0  0  0  0
   -1.9289   12.4156    6.7549 O   0  0  0  0  0  0  0  0  0  0  0  0
    0.3718    9.7021    8.5630 C   0  0  0  0  0  0  0  0  0  0  0  0
   -0.9589    9.2637    9.1151 O   0  0  0  0  0  0  0  0  0  0  0  0
   -6.9362   13.3060    3.2556 C   0  0  0  0  0  0  0  0  0  0  0  0
   -7.4646   12.7181    4.4679 O   0  0  0  0  0  0  0  0  0  0  0  0
   -3.1020   11.8633    8.8473 C   0  0  1  0  0  0  0  0  0  0  0  0
   -1.8823   11.5431    9.4392 O   0  0  0  0  0  0  0  0  0  0  0  0
    2.6605   10.5078    9.0981 C   0  0  0  0  0  0  0  0  0  0  0  0
    1.3010   12.7707   12.5559 C   0  0  0  0  0  0  0  0  0  0  0  0
  1  2  1  1  0  0  0
  1  6  1  0  0  0  0
  1 21  1  0  0  0  0
  3  4  1  1  0  0  0
  3  8  1  0  0  0  0
  3 28  1  0  0  0  0
  5  9  1  0  0  0  0
  5 25  1  0  0  0  0
  5 29  1  6  0  0  0
  6  7  1  1  0  0  0
  6 11  1  0  0  0  0
  8 12  1  0  0  0  0
  9 10  1  1  0  0  0
  9 14  1  0  0  0  0
 11 16  1  0  0  0  0
 12 13  1  6  0  0  0
 12 17  1  0  0  0  0
 14 15  1  1  0  0  0
 14 18  1  0  0  0  0
 15 31  1  0  0  0  0
 16 20  1  0  0  0  0
 17  2  1  6  0  0  0
 17 22  1  0  0  0  0
 18 19  1  1  0  0  0
 18 24  1  0  0  0  0
 18 30  1  0  0  0  0
 20 21  1  0  0  0  0
 20 26  1  6  0  0  0
 22 23  1  6  0  0  0
 22 28  1  0  0  0  0
 24 25  1  0  0  0  0
 26 27  1  0  0  0  0
 28 29  1  1  0  0  0
M  END
>  <CHROM.1>
-168.59228340,-144.89167636,-81.20623496,-159.14007259,-105.91069891,87.88488688
-2.64168615,12.49866546,7.87755570,-2.25772031,-0.16279799,1.99096427

>  <Name>
ligand

>  <RI>
0

>  <Rbt.Current_Directory>
/home/itssahil/PROJECTS/Mol_Feturizer/New_Systems/rnas/4GPX

>  <Rbt.Executable>
rbdock ($Id: //depot/dev/client3/rdock/2013.1/src/exe/rbdock.cxx#4 $)

>  <Rbt.Library>
libRbt.so (2013.1, Build901 2013/11/27)

>  <Rbt.Parameter_File>
/export/apps/rDock/src/rDock_2013.1_src/data/scripts/dock_solv.prm

>  <Rbt.Receptor>
prm/pocket_docking_2.prm

>  <SCORE>
-21.0224

>  <SCORE.INTER>
-17.4833

>  <SCORE.INTER.CONST>
1

>  <SCORE.INTER.POLAR>
0

>  <SCORE.INTER.ROT>
6

>  <SCORE.INTER.SOLV>
20.1499

>  <SCORE.INTER.VDW>
-25.9722

>  <SCORE.INTER.norm>
-0.563978

>  <SCORE.INTRA>
-3.53905

>  <SCORE.INTRA.DIHEDRAL>
-8.09487

>  <SCORE.INTRA.DIHEDRAL.0>
20.6841

>  <SCORE.INTRA.POLAR>
0

>  <SCORE.INTRA.POLAR.0>
0

>  <SCORE.INTRA.REPUL>
0

>  <SCORE.INTRA.REPUL.0>
0

>  <SCORE.INTRA.SOLV>
0.375873

>  <SCORE.INTRA.SOLV.lig_0>
-64.6797

>  <SCORE.INTRA.VDW>
0.320451

>  <SCORE.INTRA.VDW.0>
-4.11825

>  <SCORE.INTRA.norm>
-0.114163

>  <SCORE.RESTR>
0

>  <SCORE.RESTR.CAVITY>
0

>  <SCORE.RESTR.norm>
0

>  <SCORE.SYSTEM>
0

>  <SCORE.SYSTEM.CONST>
0

>  <SCORE.SYSTEM.DIHEDRAL>
0

>  <SCORE.SYSTEM.SOLV>
0

>  <SCORE.SYSTEM.norm>
0

>  <SCORE.heavy>
31

>  <SCORE.norm>
-0.678141

>  <RMSD>
0.610

$$$$
ligand
 OpenBabel11021811493D
libRbt.so/2013.1/901 2013/11/27
 31 33  0  0  0  0  0  0  0  0999 V2000
   -3.5553   14.0583    4.8456 C   0  0  2  0  0  0  0  0  0  0  0  0
   -4.0644   14.3042    6.1531 O   0  0  0  0  0  0  0  0  0  0  0  0
   -4.0413   12.4621    9.9858 C   0  0  2  0  0  0  0  0  0  0  0  0
   -4.2515   11.4856   11.0102 N   0  0  0  0  0  0  0  0  0  0  0  0
   -1.6419   10.2249   10.0686 C   0  0  2  0  0  0  0  0  0  0  0  0
   -3.1853   15.4704    4.2332 C   0  0  2  0  0  0  0  0  0  0  0  0
   -2.1943   16.1093    5.0928 N   0  0  0  0  0  0  0  0  0  0  0  0
   -5.4473   12.8420    9.3624 C   0  0  0  0  0  0  0  0  0  0  0  0
   -0.7300   10.5475   11.2946 C   0  0  2  0  0  0  0  0  0  0  0  0
   -1.4026   11.4770   12.1170 O   0  0  0  0  0  0  0  0  0  0  0  0
   -4.4781   16.3712    4.1067 C   0  0  0  0  0  0  0  0  0  0  0  0
   -5.2195   13.9149    8.2325 C   0  0  2  0  0  0  0  0  0  0  0  0
   -6.5233   14.2682    7.6451 N   0  0  0  0  0  0  0  0  0  0  0  0
    0.6100   11.1573   10.7324 C   0  0  1  0  0  0  0  0  0  0  0  0
    1.5236   11.5074   11.8699 N   0  0  0  0  0  0  0  0  0  0  0  0
   -5.7574   15.5338    3.6803 C   0  0  0  0  0  0  0  0  0  0  0  0
   -4.2534   13.3228    7.1137 C   0  0  2  0  0  0  0  0  0  0  0  0
    1.3215   10.0287    9.7951 C   0  0  1  0  0  0  0  0  0  0  0  0
    1.5898    8.8312   10.5046 O   0  0  0  0  0  0  0  0  0  0  0  0
   -5.7288   14.1750    3.6537 C   0  0  2  0  0  0  0  0  0  0  0  0
   -4.5606   13.4234    4.0028 O   0  0  0  0  0  0  0  0  0  0  0  0
   -2.8698   12.9452    7.7612 C   0  0  2  0  0  0  0  0  0  0  0  0
   -2.0041   12.4003    6.7423 O   0  0  0  0  0  0  0  0  0  0  0  0
    0.3784    9.6538    8.6060 C   0  0  0  0  0  0  0  0  0  0  0  0
   -0.9605    9.2291    9.1489 O   0  0  0  0  0  0  0  0  0  0  0  0
   -6.9341   13.3248    3.2476 C   0  0  0  0  0  0  0  0  0  0  0  0
   -7.4951   12.7387    4.4460 O   0  0  0  0  0  0  0  0  0  0  0  0
   -3.1148   11.8571    8.8709 C   0  0  1  0  0  0  0  0  0  0  0  0
   -1.8809   11.5165    9.4206 O   0  0  0  0  0  0  0  0  0  0  0  0
    2.6626   10.4624    9.1556 C   0  0  0  0  0  0  0  0  0  0  0  0
    1.3034   12.8169   12.5172 C   0  0  0  0  0  0  0  0  0  0  0  0
  1  2  1  1  0  0  0
  1  6  1  0  0  0  0
  1 21  1  0  0  0  0
  3  4  1  1  0  0  0
  3  8  1  0  0  0  0
  3 28  1  0  0  0  0
  5  9  1  0  0  0  0
  5 25  1  0  0  0  0
  5 29  1  6  0  0  0
  6  7  1  1  0  0  0
  6 11  1  0  0  0  0
  8 12  1  0  0  0  0
  9 10  1  1  0  0  0
  9 14  1  0  0  0  0
 11 16  1  0  0  0  0
 12 13  1  6  0  0  0
 12 17  1  0  0  0  0
 14 15  1  1  0  0  0
 14 18  1  0  0  0  0
 15 31  1  0  0  0  0
 16 20  1  0  0  0  0
 17  2  1  6  0  0  0
 17 22  1  0  0  0  0
 18 19  1  1  0  0  0
 18 24  1  0  0  0  0
 18 30  1  0  0  0  0
 20 21  1  0  0  0  0
 20 26  1  6  0  0  0
 22 23  1  6  0  0  0
 22 28  1  0  0  0  0
 24 25  1  0  0  0  0
 26 27  1  0  0  0  0
 28 29  1  1  0  0  0
M  END
>  <CHROM.1>
-166.71421101,-141.35428847,-83.76334077,-163.23863320,-105.37745445,85.80843746
-2.65862751,12.50453411,7.91833797,-2.26151530,-0.18006267,1.98301185

>  <Name>
ligand

>  <RI>
0

>  <Rbt.Current_Directory>
/home/itssahil/PROJECTS/Mol_Feturizer/New_Systems/rnas/4GPX

>  <Rbt.Executable>
rbdock ($Id: //depot/dev/client3/rdock/2013.1/src/exe/rbdock.cxx#4 $)

>  <Rbt.Library>
libRbt.so (2013.1, Build901 2013/11/27)

>  <Rbt.Parameter_File>
/export/apps/rDock/src/rDock_2013.1_src/data/scripts/dock_solv.prm

>  <Rbt.Receptor>
prm/pocket_docking_2.prm

>  <SCORE>
-21.0374

>  <SCORE.INTER>
-17.3171

>  <SCORE.INTER.CONST>
1

>  <SCORE.INTER.POLAR>
0

>  <SCORE.INTER.ROT>
6

>  <SCORE.INTER.SOLV>
19.9806

>  <SCORE.INTER.VDW>
-25.8049

>  <SCORE.INTER.norm>
-0.558615

>  <SCORE.INTRA>
-3.72038

>  <SCORE.INTRA.DIHEDRAL>
-8.19411

>  <SCORE.INTRA.DIHEDRAL.0>
20.6841

>  <SCORE.INTRA.POLAR>
0

>  <SCORE.INTRA.POLAR.0>
0

>  <SCORE.INTRA.REPUL>
0

>  <SCORE.INTRA.REPUL.0>
0

>  <SCORE.INTRA.SOLV>
0.0838512

>  <SCORE.INTRA.SOLV.lig_0>
-64.6797

>  <SCORE.INTRA.VDW>
0.334748

>  <SCORE.INTRA.VDW.0>
-4.11825

>  <SCORE.INTRA.norm>
-0.120012

>  <SCORE.RESTR>
0

>  <SCORE.RESTR.CAVITY>
0

>  <SCORE.RESTR.norm>
0

>  <SCORE.SYSTEM>
0

>  <SCORE.SYSTEM.CONST>
0

>  <SCORE.SYSTEM.DIHEDRAL>
0

>  <SCORE.SYSTEM.SOLV>
0

>  <SCORE.SYSTEM.norm>
0

>  <SCORE.heavy>
31

>  <SCORE.norm>
-0.678627

>  <RMSD>
0.612

$$$$
ligand
 OpenBabel11021811493D
libRbt.so/2013.1/901 2013/11/27
 31 33  0  0  0  0  0  0  0  0999 V2000
   -3.5358   14.0973    4.7466 C   0  0  2  0  0  0  0  0  0  0  0  0
   -3.9795   14.3515    6.0762 O   0  0  0  0  0  0  0  0  0  0  0  0
   -4.0668   12.4981    9.9026 C   0  0  2  0  0  0  0  0  0  0  0  0
   -4.3056   11.5183   10.9175 N   0  0  0  0  0  0  0  0  0  0  0  0
   -1.6581   10.2538   10.0249 C   0  0  2  0  0  0  0  0  0  0  0  0
   -3.1345   15.4989    4.1299 C   0  0  2  0  0  0  0  0  0  0  0  0
   -2.0833   16.0893    4.9519 N   0  0  0  0  0  0  0  0  0  0  0  0
   -5.4544   12.8777    9.2389 C   0  0  0  0  0  0  0  0  0  0  0  0
   -0.7428   10.5496   11.2550 C   0  0  2  0  0  0  0  0  0  0  0  0
   -1.4083   11.4697   12.0936 O   0  0  0  0  0  0  0  0  0  0  0  0
   -4.3937   16.4524    4.0647 C   0  0  0  0  0  0  0  0  0  0  0  0
   -5.1950   13.9542    8.1194 C   0  0  2  0  0  0  0  0  0  0  0  0
   -6.4814   14.3072    7.4947 N   0  0  0  0  0  0  0  0  0  0  0  0
    0.6008   11.1596   10.7016 C   0  0  1  0  0  0  0  0  0  0  0  0
    1.5179   11.4844   11.8437 N   0  0  0  0  0  0  0  0  0  0  0  0
   -5.7227   15.6712    3.6862 C   0  0  0  0  0  0  0  0  0  0  0  0
   -4.1952   13.3670    7.0280 C   0  0  2  0  0  0  0  0  0  0  0  0
    1.3036   10.0421    9.7447 C   0  0  1  0  0  0  0  0  0  0  0  0
    1.5645    8.8311   10.4337 O   0  0  0  0  0  0  0  0  0  0  0  0
   -5.7507   14.3128    3.6482 C   0  0  2  0  0  0  0  0  0  0  0  0
   -4.6005   13.5114    3.9422 O   0  0  0  0  0  0  0  0  0  0  0  0
   -2.8308   12.9897    7.7150 C   0  0  2  0  0  0  0  0  0  0  0  0
   -1.9344   12.4491    6.7206 O   0  0  0  0  0  0  0  0  0  0  0  0
    0.3568    9.6935    8.5506 C   0  0  0  0  0  0  0  0  0  0  0  0
   -0.9844    9.2689    9.0879 O   0  0  0  0  0  0  0  0  0  0  0  0
   -7.0055   13.5157    3.2868 C   0  0  0  0  0  0  0  0  0  0  0  0
   -7.4378   12.7982    4.4669 O   0  0  0  0  0  0  0  0  0  0  0  0
   -3.1067   11.8979    8.8138 C   0  0  1  0  0  0  0  0  0  0  0  0
   -1.8890   11.5576    9.3988 O   0  0  0  0  0  0  0  0  0  0  0  0
    2.6470   10.4774    9.1111 C   0  0  0  0  0  0  0  0  0  0  0  0
    1.3016   12.7806   12.5186 C   0  0  0  0  0  0  0  0  0  0  0  0
  1  2  1  1  0  0  0
  1  6  1  0  0  0  0
  1 21  1  0  0  0  0
  3  4  1  1  0  0  0
  3  8  1  0  0  0  0
  3 28  1  0  0  0  0
  5  9  1  0  0  0  0
  5 25  1  0  0  0  0
  5 29  1  6  0  0  0
  6  7  1  1  0  0  0
  6 11  1  0  0  0  0
  8 12  1  0  0  0  0
  9 10  1  1  0  0  0
  9 14  1  0  0  0  0
 11 16  1  0  0  0  0
 12 13  1  6  0  0  0
 12 17  1  0  0  0  0
 14 15  1  1  0  0  0
 14 18  1  0  0  0  0
 15 31  1  0  0  0  0
 16 20  1  0  0  0  0
 17  2  1  6  0  0  0
 17 22  1  0  0  0  0
 18 19  1  1  0  0  0
 18 24  1  0  0  0  0
 18 30  1  0  0  0  0
 20 21  1  0  0  0  0
 20 26  1  6  0  0  0
 22 23  1  6  0  0  0
 22 28  1  0  0  0  0
 24 25  1  0  0  0  0
 26 27  1  0  0  0  0
 28 29  1  1  0  0  0
M  END
>  <CHROM.1>
-168.14256458,-143.70283884,-83.38472530,-157.81494655,-112.86081052,87.13546401
-2.64877626,12.54524189,7.86437105,-2.25274091,-0.16484280,2.00649255

>  <Name>
ligand

>  <RI>
0

>  <Rbt.Current_Directory>
/home/itssahil/PROJECTS/Mol_Feturizer/New_Systems/rnas/4GPX

>  <Rbt.Executable>
rbdock ($Id: //depot/dev/client3/rdock/2013.1/src/exe/rbdock.cxx#4 $)

>  <Rbt.Library>
libRbt.so (2013.1, Build901 2013/11/27)

>  <Rbt.Parameter_File>
/export/apps/rDock/src/rDock_2013.1_src/data/scripts/dock_solv.prm

>  <Rbt.Receptor>
prm/pocket_docking_2.prm

>  <SCORE>
-21.0278

>  <SCORE.INTER>
-17.5697

>  <SCORE.INTER.CONST>
1

>  <SCORE.INTER.POLAR>
0

>  <SCORE.INTER.ROT>
6

>  <SCORE.INTER.SOLV>
20.0435

>  <SCORE.INTER.VDW>
-25.9943

>  <SCORE.INTER.norm>
-0.566764

>  <SCORE.INTRA>
-3.45813

>  <SCORE.INTRA.DIHEDRAL>
-7.8671

>  <SCORE.INTRA.DIHEDRAL.0>
20.6841

>  <SCORE.INTRA.POLAR>
0

>  <SCORE.INTRA.POLAR.0>
0

>  <SCORE.INTRA.REPUL>
0

>  <SCORE.INTRA.REPUL.0>
0

>  <SCORE.INTRA.SOLV>
0.535932

>  <SCORE.INTRA.SOLV.lig_0>
-64.6797

>  <SCORE.INTRA.VDW>
0.207451

>  <SCORE.INTRA.VDW.0>
-4.11825

>  <SCORE.INTRA.norm>
-0.111553

>  <SCORE.RESTR>
0

>  <SCORE.RESTR.CAVITY>
0

>  <SCORE.RESTR.norm>
0

>  <SCORE.SYSTEM>
0

>  <SCORE.SYSTEM.CONST>
0

>  <SCORE.SYSTEM.DIHEDRAL>
0

>  <SCORE.SYSTEM.SOLV>
0

>  <SCORE.SYSTEM.norm>
0

>  <SCORE.heavy>
31

>  <SCORE.norm>
-0.678317

>  <RMSD>
0.615

$$$$
ligand
 OpenBabel11021811493D
libRbt.so/2013.1/901 2013/11/27
 31 33  0  0  0  0  0  0  0  0999 V2000
   -3.5984   14.0459    4.8543 C   0  0  2  0  0  0  0  0  0  0  0  0
   -4.1131   14.2865    6.1606 O   0  0  0  0  0  0  0  0  0  0  0  0
   -4.0719   12.4351    9.9888 C   0  0  2  0  0  0  0  0  0  0  0  0
   -4.2769   11.4560   11.0117 N   0  0  0  0  0  0  0  0  0  0  0  0
   -1.6731   10.2030   10.0635 C   0  0  2  0  0  0  0  0  0  0  0  0
   -3.2374   15.4614    4.2446 C   0  0  2  0  0  0  0  0  0  0  0  0
   -2.2536   16.1067    5.1077 N   0  0  0  0  0  0  0  0  0  0  0  0
   -5.4809   12.8156    9.3724 C   0  0  0  0  0  0  0  0  0  0  0  0
   -0.7637   10.5303   11.2901 C   0  0  2  0  0  0  0  0  0  0  0  0
   -1.4392   11.4608   12.1090 O   0  0  0  0  0  0  0  0  0  0  0  0
   -4.5365   16.3527    4.1155 C   0  0  0  0  0  0  0  0  0  0  0  0
   -5.2588   13.8913    8.2442 C   0  0  2  0  0  0  0  0  0  0  0  0
   -6.5654   14.2451    7.6634 N   0  0  0  0  0  0  0  0  0  0  0  0
    0.5762   11.1410   10.7284 C   0  0  1  0  0  0  0  0  0  0  0  0
    1.4874   11.4956   11.8664 N   0  0  0  0  0  0  0  0  0  0  0  0
   -5.8083   15.5062    3.6845 C   0  0  0  0  0  0  0  0  0  0  0  0
   -4.2972   13.3026    7.1197 C   0  0  2  0  0  0  0  0  0  0  0  0
    1.2911   10.0112    9.7952 C   0  0  1  0  0  0  0  0  0  0  0  0
    1.5604    8.8160   10.5082 O   0  0  0  0  0  0  0  0  0  0  0  0
   -5.7695   14.1477    3.6565 C   0  0  2  0  0  0  0  0  0  0  0  0
   -4.5966   13.4045    4.0080 O   0  0  0  0  0  0  0  0  0  0  0  0
   -2.9105   12.9245    7.7602 C   0  0  2  0  0  0  0  0  0  0  0  0
   -2.0488   12.3826    6.7362 O   0  0  0  0  0  0  0  0  0  0  0  0
    0.3506    9.6315    8.6056 C   0  0  0  0  0  0  0  0  0  0  0  0
   -0.9885    9.2059    9.1475 O   0  0  0  0  0  0  0  0  0  0  0  0
   -6.9672   13.2889    3.2460 C   0  0  0  0  0  0  0  0  0  0  0  0
   -7.5184   12.6859    4.4405 O   0  0  0  0  0  0  0  0  0  0  0  0
   -3.1498   11.8335    8.8683 C   0  0  1  0  0  0  0  0  0  0  0  0
   -1.9133   11.4924    9.4117 O   0  0  0  0  0  0  0  0  0  0  0  0
    2.6325   10.4456    9.1567 C   0  0  0  0  0  0  0  0  0  0  0  0
    1.3006   12.8294   12.4734 C   0  0  0  0  0  0  0  0  0  0  0  0
  1  2  1  1  0  0  0
  1  6  1  0  0  0  0
  1 21  1  0  0  0  0
  3  4  1  1  0  0  0
  3  8  1  0  0  0  0
  3 28  1  0  0  0  0
  5  9  1  0  0  0  0
  5 25  1  0  0  0  0
  5 29  1  6  0  0  0
  6  7  1  1  0  0  0
  6 11  1  0  0  0  0
  8 12  1  0  0  0  0
  9 10  1  1  0  0  0
  9 14  1  0  0  0  0
 11 16  1  0  0  0  0
 12 13  1  6  0  0  0
 12 17  1  0  0  0  0
 14 15  1  1  0  0  0
 14 18  1  0  0  0  0
 15 31  1  0  0  0  0
 16 20  1  0  0  0  0
 17  2  1  6  0  0  0
 17 22  1  0  0  0  0
 18 19  1  1  0  0  0
 18 24  1  0  0  0  0
 18 30  1  0  0  0  0
 20 21  1  0  0  0  0
 20 26  1  6  0  0  0
 22 23  1  6  0  0  0
 22 28  1  0  0  0  0
 24 25  1  0  0  0  0
 26 27  1  0  0  0  0
 28 29  1  1  0  0  0
M  END
>  <CHROM.1>
-166.70153611,-140.85039937,-86.22386630,-163.81736721,-105.97994521,85.39120644
-2.69501143,12.48434648,7.91883308,-2.26321247,-0.17619859,1.98574585

>  <Name>
ligand

>  <RI>
0

>  <Rbt.Current_Directory>
/home/itssahil/PROJECTS/Mol_Feturizer/New_Systems/rnas/4GPX

>  <Rbt.Executable>
rbdock ($Id: //depot/dev/client3/rdock/2013.1/src/exe/rbdock.cxx#4 $)

>  <Rbt.Library>
libRbt.so (2013.1, Build901 2013/11/27)

>  <Rbt.Parameter_File>
/export/apps/rDock/src/rDock_2013.1_src/data/scripts/dock_solv.prm

>  <Rbt.Receptor>
prm/pocket_docking_2.prm

>  <SCORE>
-21.0604

>  <SCORE.INTER>
-17.2445

>  <SCORE.INTER.CONST>
1

>  <SCORE.INTER.POLAR>
0

>  <SCORE.INTER.ROT>
6

>  <SCORE.INTER.SOLV>
20.2365

>  <SCORE.INTER.VDW>
-25.8418

>  <SCORE.INTER.norm>
-0.556274

>  <SCORE.INTRA>
-3.81587

>  <SCORE.INTRA.DIHEDRAL>
-8.21319

>  <SCORE.INTRA.DIHEDRAL.0>
20.6841

>  <SCORE.INTRA.POLAR>
0

>  <SCORE.INTRA.POLAR.0>
0

>  <SCORE.INTRA.REPUL>
0

>  <SCORE.INTRA.REPUL.0>
0

>  <SCORE.INTRA.SOLV>
0.0335119

>  <SCORE.INTRA.SOLV.lig_0>
-64.6797

>  <SCORE.INTRA.VDW>
0.273969

>  <SCORE.INTRA.VDW.0>
-4.11825

>  <SCORE.INTRA.norm>
-0.123092

>  <SCORE.RESTR>
0

>  <SCORE.RESTR.CAVITY>
0

>  <SCORE.RESTR.norm>
0

>  <SCORE.SYSTEM>
0

>  <SCORE.SYSTEM.CONST>
0

>  <SCORE.SYSTEM.DIHEDRAL>
0

>  <SCORE.SYSTEM.SOLV>
0

>  <SCORE.SYSTEM.norm>
0

>  <SCORE.heavy>
31

>  <SCORE.norm>
-0.679367

>  <RMSD>
0.615

$$$$
ligand
 OpenBabel11021811493D
libRbt.so/2013.1/901 2013/11/27
 31 33  0  0  0  0  0  0  0  0999 V2000
   -3.5290   14.0477    4.7724 C   0  0  2  0  0  0  0  0  0  0  0  0
   -3.9926   14.3006    6.0953 O   0  0  0  0  0  0  0  0  0  0  0  0
   -4.0764   12.4551    9.9256 C   0  0  2  0  0  0  0  0  0  0  0  0
   -4.3114   11.4762   10.9422 N   0  0  0  0  0  0  0  0  0  0  0  0
   -1.6514   10.2217   10.0485 C   0  0  2  0  0  0  0  0  0  0  0  0
   -3.1578   15.4544    4.1485 C   0  0  2  0  0  0  0  0  0  0  0  0
   -2.1306   16.0782    4.9761 N   0  0  0  0  0  0  0  0  0  0  0  0
   -5.4649   12.8250    9.2584 C   0  0  0  0  0  0  0  0  0  0  0  0
   -0.7339   10.5183   11.2769 C   0  0  2  0  0  0  0  0  0  0  0  0
   -1.4022   11.4312   12.1211 O   0  0  0  0  0  0  0  0  0  0  0  0
   -4.4405   16.3744    4.0631 C   0  0  0  0  0  0  0  0  0  0  0  0
   -5.2098   13.9006    8.1370 C   0  0  2  0  0  0  0  0  0  0  0  0
   -6.4970   14.2445    7.5091 N   0  0  0  0  0  0  0  0  0  0  0  0
    0.6042   11.1386   10.7215 C   0  0  1  0  0  0  0  0  0  0  0  0
    1.5230   11.4646   11.8619 N   0  0  0  0  0  0  0  0  0  0  0  0
   -5.7449   15.5561    3.6776 C   0  0  0  0  0  0  0  0  0  0  0  0
   -4.2043   13.3169    7.0489 C   0  0  2  0  0  0  0  0  0  0  0  0
    1.3107   10.0290    9.7581 C   0  0  1  0  0  0  0  0  0  0  0  0
    1.5811    8.8170   10.4417 O   0  0  0  0  0  0  0  0  0  0  0  0
   -5.7374   14.1971    3.6502 C   0  0  2  0  0  0  0  0  0  0  0  0
   -4.5699   13.4282    3.9620 O   0  0  0  0  0  0  0  0  0  0  0  0
   -2.8390   12.9492    7.7394 C   0  0  2  0  0  0  0  0  0  0  0  0
   -1.9375   12.4118    6.7480 O   0  0  0  0  0  0  0  0  0  0  0  0
    0.3622    9.6793    8.5657 C   0  0  0  0  0  0  0  0  0  0  0  0
   -0.9747    9.2445    9.1056 O   0  0  0  0  0  0  0  0  0  0  0  0
   -6.9674   13.3650    3.2826 C   0  0  0  0  0  0  0  0  0  0  0  0
   -7.4305   12.6947    4.4787 O   0  0  0  0  0  0  0  0  0  0  0  0
   -3.1106   11.8582    8.8401 C   0  0  1  0  0  0  0  0  0  0  0  0
   -1.8921   11.5265    9.4281 O   0  0  0  0  0  0  0  0  0  0  0  0
    2.6494   10.4748    9.1219 C   0  0  0  0  0  0  0  0  0  0  0  0
    1.2918   12.7502   12.5519 C   0  0  0  0  0  0  0  0  0  0  0  0
  1  2  1  1  0  0  0
  1  6  1  0  0  0  0
  1 21  1  0  0  0  0
  3  4  1  1  0  0  0
  3  8  1  0  0  0  0
  3 28  1  0  0  0  0
  5  9  1  0  0  0  0
  5 25  1  0  0  0  0
  5 29  1  6  0  0  0
  6  7  1  1  0  0  0
  6 11  1  0  0  0  0
  8 12  1  0  0  0  0
  9 10  1  1  0  0  0
  9 14  1  0  0  0  0
 11 16  1  0  0  0  0
 12 13  1  6  0  0  0
 12 17  1  0  0  0  0
 14 15  1  1  0  0  0
 14 18  1  0  0  0  0
 15 31  1  0  0  0  0
 16 20  1  0  0  0  0
 17  2  1  6  0  0  0
 17 22  1  0  0  0  0
 18 19  1  1  0  0  0
 18 24  1  0  0  0  0
 18 30  1  0  0  0  0
 20 21  1  0  0  0  0
 20 26  1  6  0  0  0
 22 23  1  6  0  0  0
 22 28  1  0  0  0  0
 24 25  1  0  0  0  0
 26 27  1  0  0  0  0
 28 29  1  1  0  0  0
M  END
>  <CHROM.1>
-168.77073574,-144.16516319,-82.74443519,-158.62746662,-110.22240004,87.61535041
-2.65103000,12.49695588,7.88196349,-2.25471934,-0.16356859,1.99861420

>  <Name>
ligand

>  <RI>
0

>  <Rbt.Current_Directory>
/home/itssahil/PROJECTS/Mol_Feturizer/New_Systems/rnas/4GPX

>  <Rbt.Executable>
rbdock ($Id: //depot/dev/client3/rdock/2013.1/src/exe/rbdock.cxx#4 $)

>  <Rbt.Library>
libRbt.so (2013.1, Build901 2013/11/27)

>  <Rbt.Parameter_File>
/export/apps/rDock/src/rDock_2013.1_src/data/scripts/dock_solv.prm

>  <Rbt.Receptor>
prm/pocket_docking_2.prm

>  <SCORE>
-20.9832

>  <SCORE.INTER>
-17.4327

>  <SCORE.INTER.CONST>
1

>  <SCORE.INTER.POLAR>
0

>  <SCORE.INTER.ROT>
6

>  <SCORE.INTER.SOLV>
20.2292

>  <SCORE.INTER.VDW>
-25.9648

>  <SCORE.INTER.norm>
-0.562344

>  <SCORE.INTRA>
-3.55052

>  <SCORE.INTRA.DIHEDRAL>
-8.02873

>  <SCORE.INTRA.DIHEDRAL.0>
20.6841

>  <SCORE.INTRA.POLAR>
0

>  <SCORE.INTRA.POLAR.0>
0

>  <SCORE.INTRA.REPUL>
0

>  <SCORE.INTRA.REPUL.0>
0

>  <SCORE.INTRA.SOLV>
0.439175

>  <SCORE.INTRA.SOLV.lig_0>
-64.6797

>  <SCORE.INTRA.VDW>
0.24425

>  <SCORE.INTRA.VDW.0>
-4.11825

>  <SCORE.INTRA.norm>
-0.114533

>  <SCORE.RESTR>
0

>  <SCORE.RESTR.CAVITY>
0

>  <SCORE.RESTR.norm>
0

>  <SCORE.SYSTEM>
0

>  <SCORE.SYSTEM.CONST>
0

>  <SCORE.SYSTEM.DIHEDRAL>
0

>  <SCORE.SYSTEM.SOLV>
0

>  <SCORE.SYSTEM.norm>
0

>  <SCORE.heavy>
31

>  <SCORE.norm>
-0.676877

>  <RMSD>
0.618

$$$$
ligand
 OpenBabel11021811493D
libRbt.so/2013.1/901 2013/11/27
 31 33  0  0  0  0  0  0  0  0999 V2000
   -3.8293   13.9200    4.8781 C   0  0  2  0  0  0  0  0  0  0  0  0
   -4.1369   14.1981    6.2410 O   0  0  0  0  0  0  0  0  0  0  0  0
   -3.9385   12.3978   10.0885 C   0  0  2  0  0  0  0  0  0  0  0  0
   -4.1044   11.4339   11.1327 N   0  0  0  0  0  0  0  0  0  0  0  0
   -1.5477   10.1422   10.0695 C   0  0  2  0  0  0  0  0  0  0  0  0
   -3.4413   15.3030    4.2127 C   0  0  2  0  0  0  0  0  0  0  0  0
   -2.2981   15.8624    4.9264 N   0  0  0  0  0  0  0  0  0  0  0  0
   -5.3709   12.7796    9.5296 C   0  0  0  0  0  0  0  0  0  0  0  0
   -0.6382   10.4748   11.2946 C   0  0  2  0  0  0  0  0  0  0  0  0
   -1.3259   11.3864   12.1246 O   0  0  0  0  0  0  0  0  0  0  0  0
   -4.6684   16.2985    4.2568 C   0  0  0  0  0  0  0  0  0  0  0  0
   -5.1921   13.8386    8.3781 C   0  0  2  0  0  0  0  0  0  0  0  0
   -6.5208   14.1935    7.8505 N   0  0  0  0  0  0  0  0  0  0  0  0
    0.6881   11.1135   10.7320 C   0  0  1  0  0  0  0  0  0  0  0  0
    1.5985   11.4743   11.8687 N   0  0  0  0  0  0  0  0  0  0  0  0
   -6.0526   15.5609    4.0126 C   0  0  0  0  0  0  0  0  0  0  0  0
   -4.2847   13.2284    7.2206 C   0  0  2  0  0  0  0  0  0  0  0  0
    1.4181   10.0044    9.7857 C   0  0  1  0  0  0  0  0  0  0  0  0
    1.7115    8.8080   10.4871 O   0  0  0  0  0  0  0  0  0  0  0  0
   -6.1295   14.2039    3.9907 C   0  0  2  0  0  0  0  0  0  0  0  0
   -4.9841   13.3656    4.1831 O   0  0  0  0  0  0  0  0  0  0  0  0
   -2.8735   12.8494    7.8045 C   0  0  2  0  0  0  0  0  0  0  0  0
   -2.0612   12.2880    6.7511 O   0  0  0  0  0  0  0  0  0  0  0  0
    0.4786    9.6186    8.5973 C   0  0  0  0  0  0  0  0  0  0  0  0
   -0.8503    9.1651    9.1418 O   0  0  0  0  0  0  0  0  0  0  0  0
   -7.4387   13.4479    3.7567 C   0  0  0  0  0  0  0  0  0  0  0  0
   -7.3251   12.7286    2.5061 O   0  0  0  0  0  0  0  0  0  0  0  0
   -3.0705   11.7750    8.9369 C   0  0  1  0  0  0  0  0  0  0  0  0
   -1.8134   11.4328    9.4300 O   0  0  0  0  0  0  0  0  0  0  0  0
    2.7486   10.4675    9.1447 C   0  0  0  0  0  0  0  0  0  0  0  0
    1.3536   12.7742   12.5263 C   0  0  0  0  0  0  0  0  0  0  0  0
  1  2  1  1  0  0  0
  1  6  1  0  0  0  0
  1 21  1  0  0  0  0
  3  4  1  1  0  0  0
  3  8  1  0  0  0  0
  3 28  1  0  0  0  0
  5  9  1  0  0  0  0
  5 25  1  0  0  0  0
  5 29  1  6  0  0  0
  6  7  1  1  0  0  0
  6 11  1  0  0  0  0
  8 12  1  0  0  0  0
  9 10  1  1  0  0  0
  9 14  1  0  0  0  0
 11 16  1  0  0  0  0
 12 13  1  6  0  0  0
 12 17  1  0  0  0  0
 14 15  1  1  0  0  0
 14 18  1  0  0  0  0
 15 31  1  0  0  0  0
 16 20  1  0  0  0  0
 17  2  1  6  0  0  0
 17 22  1  0  0  0  0
 18 19  1  1  0  0  0
 18 24  1  0  0  0  0
 18 30  1  0  0  0  0
 20 21  1  0  0  0  0
 20 26  1  6  0  0  0
 22 23  1  6  0  0  0
 22 28  1  0  0  0  0
 24 25  1  0  0  0  0
 26 27  1  0  0  0  0
 28 29  1  1  0  0  0
M  END
>  <CHROM.1>
-167.62790376,-138.56336877,-83.64572931,-156.35438212,114.96472346,86.36383827
-2.68931770,12.44270821,7.92313431,-2.30342993,-0.27865813,1.87158887

>  <Name>
ligand

>  <RI>
0

>  <Rbt.Current_Directory>
/home/itssahil/PROJECTS/Mol_Feturizer/New_Systems/rnas/4GPX

>  <Rbt.Executable>
rbdock ($Id: //depot/dev/client3/rdock/2013.1/src/exe/rbdock.cxx#4 $)

>  <Rbt.Library>
libRbt.so (2013.1, Build901 2013/11/27)

>  <Rbt.Parameter_File>
/export/apps/rDock/src/rDock_2013.1_src/data/scripts/dock_solv.prm

>  <Rbt.Receptor>
prm/pocket_docking_2.prm

>  <SCORE>
-19.9764

>  <SCORE.INTER>
-16.964

>  <SCORE.INTER.CONST>
1

>  <SCORE.INTER.POLAR>
0

>  <SCORE.INTER.ROT>
6

>  <SCORE.INTER.SOLV>
20.6891

>  <SCORE.INTER.VDW>
-25.8057

>  <SCORE.INTER.norm>
-0.547225

>  <SCORE.INTRA>
-3.01246

>  <SCORE.INTRA.DIHEDRAL>
-6.85781

>  <SCORE.INTRA.DIHEDRAL.0>
20.6841

>  <SCORE.INTRA.POLAR>
0

>  <SCORE.INTRA.POLAR.0>
0

>  <SCORE.INTRA.REPUL>
0

>  <SCORE.INTRA.REPUL.0>
0

>  <SCORE.INTRA.SOLV>
0.150073

>  <SCORE.INTRA.SOLV.lig_0>
-64.6797

>  <SCORE.INTRA.VDW>
0.341412

>  <SCORE.INTRA.VDW.0>
-4.11825

>  <SCORE.INTRA.norm>
-0.097176

>  <SCORE.RESTR>
0

>  <SCORE.RESTR.CAVITY>
0

>  <SCORE.RESTR.norm>
0

>  <SCORE.SYSTEM>
0

>  <SCORE.SYSTEM.CONST>
0

>  <SCORE.SYSTEM.DIHEDRAL>
0

>  <SCORE.SYSTEM.SOLV>
0

>  <SCORE.SYSTEM.norm>
0

>  <SCORE.heavy>
31

>  <SCORE.norm>
-0.644401

>  <RMSD>
0.630

$$$$
ligand
 OpenBabel11021811493D
libRbt.so/2013.1/901 2013/11/27
 31 33  0  0  0  0  0  0  0  0999 V2000
   -3.5195   14.0807    4.7306 C   0  0  2  0  0  0  0  0  0  0  0  0
   -3.9517   14.3432    6.0624 O   0  0  0  0  0  0  0  0  0  0  0  0
   -4.0776   12.5062    9.8956 C   0  0  2  0  0  0  0  0  0  0  0  0
   -4.3275   11.5312   10.9123 N   0  0  0  0  0  0  0  0  0  0  0  0
   -1.6725   10.2563   10.0450 C   0  0  2  0  0  0  0  0  0  0  0  0
   -3.1127   15.4770    4.1056 C   0  0  2  0  0  0  0  0  0  0  0  0
   -2.0513   16.0629    4.9176 N   0  0  0  0  0  0  0  0  0  0  0  0
   -5.4583   12.8854    9.2175 C   0  0  0  0  0  0  0  0  0  0  0  0
   -0.7572   10.5507   11.2755 C   0  0  2  0  0  0  0  0  0  0  0  0
   -1.4195   11.4755   12.1114 O   0  0  0  0  0  0  0  0  0  0  0  0
   -4.3654   16.4393    4.0458 C   0  0  0  0  0  0  0  0  0  0  0  0
   -5.1867   13.9567    8.0959 C   0  0  2  0  0  0  0  0  0  0  0  0
   -6.4667   14.3093    7.4579 N   0  0  0  0  0  0  0  0  0  0  0  0
    0.5897   11.1537   10.7222 C   0  0  1  0  0  0  0  0  0  0  0  0
    1.5069   11.4769   11.8647 N   0  0  0  0  0  0  0  0  0  0  0  0
   -5.7027   15.6663    3.6799 C   0  0  0  0  0  0  0  0  0  0  0  0
   -4.1780   13.3631    7.0163 C   0  0  2  0  0  0  0  0  0  0  0  0
    1.2886   10.0311    9.7685 C   0  0  1  0  0  0  0  0  0  0  0  0
    1.5435    8.8204   10.4603 O   0  0  0  0  0  0  0  0  0  0  0  0
   -5.7407   14.3079    3.6474 C   0  0  2  0  0  0  0  0  0  0  0  0
   -4.5942   13.4994    3.9361 O   0  0  0  0  0  0  0  0  0  0  0  0
   -2.8206   12.9863    7.7175 C   0  0  2  0  0  0  0  0  0  0  0  0
   -1.9160   12.4399    6.7337 O   0  0  0  0  0  0  0  0  0  0  0  0
    0.3416    9.6841    8.5741 C   0  0  0  0  0  0  0  0  0  0  0  0
   -1.0021    9.2665    9.1108 O   0  0  0  0  0  0  0  0  0  0  0  0
   -7.0038   13.5185    3.2981 C   0  0  0  0  0  0  0  0  0  0  0  0
   -7.4251   12.7981    4.4804 O   0  0  0  0  0  0  0  0  0  0  0  0
   -3.1086   11.8997    8.8183 C   0  0  1  0  0  0  0  0  0  0  0  0
   -1.8970   11.5598    9.4159 O   0  0  0  0  0  0  0  0  0  0  0  0
    2.6346   10.4591    9.1353 C   0  0  0  0  0  0  0  0  0  0  0  0
    1.2905   12.7718   12.5418 C   0  0  0  0  0  0  0  0  0  0  0  0
  1  2  1  1  0  0  0
  1  6  1  0  0  0  0
  1 21  1  0  0  0  0
  3  4  1  1  0  0  0
  3  8  1  0  0  0  0
  3 28  1  0  0  0  0
  5  9  1  0  0  0  0
  5 25  1  0  0  0  0
  5 29  1  6  0  0  0
  6  7  1  1  0  0  0
  6 11  1  0  0  0  0
  8 12  1  0  0  0  0
  9 10  1  1  0  0  0
  9 14  1  0  0  0  0
 11 16  1  0  0  0  0
 12 13  1  6  0  0  0
 12 17  1  0  0  0  0
 14 15  1  1  0  0  0
 14 18  1  0  0  0  0
 15 31  1  0  0  0  0
 16 20  1  0  0  0  0
 17  2  1  6  0  0  0
 17 22  1  0  0  0  0
 18 19  1  1  0  0  0
 18 24  1  0  0  0  0
 18 30  1  0  0  0  0
 20 21  1  0  0  0  0
 20 26  1  6  0  0  0
 22 23  1  6  0  0  0
 22 28  1  0  0  0  0
 24 25  1  0  0  0  0
 26 27  1  0  0  0  0
 28 29  1  1  0  0  0
M  END
>  <CHROM.1>
-168.68757828,-144.29595853,-83.03128662,-156.62310573,-113.42235508,87.38200487
-2.64737928,12.54040683,7.86736405,-2.24811466,-0.16323625,2.00650557

>  <Name>
ligand

>  <RI>
0

>  <Rbt.Current_Directory>
/home/itssahil/PROJECTS/Mol_Feturizer/New_Systems/rnas/4GPX

>  <Rbt.Executable>
rbdock ($Id: //depot/dev/client3/rdock/2013.1/src/exe/rbdock.cxx#4 $)

>  <Rbt.Library>
libRbt.so (2013.1, Build901 2013/11/27)

>  <Rbt.Parameter_File>
/export/apps/rDock/src/rDock_2013.1_src/data/scripts/dock_solv.prm

>  <Rbt.Receptor>
prm/pocket_docking_2.prm

>  <SCORE>
-21.0001

>  <SCORE.INTER>
-17.5876

>  <SCORE.INTER.CONST>
1

>  <SCORE.INTER.POLAR>
0

>  <SCORE.INTER.ROT>
6

>  <SCORE.INTER.SOLV>
20.0705

>  <SCORE.INTER.VDW>
-26.0152

>  <SCORE.INTER.norm>
-0.567341

>  <SCORE.INTRA>
-3.41251

>  <SCORE.INTRA.DIHEDRAL>
-7.79761

>  <SCORE.INTRA.DIHEDRAL.0>
20.6841

>  <SCORE.INTRA.POLAR>
0

>  <SCORE.INTRA.POLAR.0>
0

>  <SCORE.INTRA.REPUL>
0

>  <SCORE.INTRA.REPUL.0>
0

>  <SCORE.INTRA.SOLV>
0.632635

>  <SCORE.INTRA.SOLV.lig_0>
-64.6797

>  <SCORE.INTRA.VDW>
0.169978

>  <SCORE.INTRA.VDW.0>
-4.11825

>  <SCORE.INTRA.norm>
-0.110081

>  <SCORE.RESTR>
0

>  <SCORE.RESTR.CAVITY>
0

>  <SCORE.RESTR.norm>
0

>  <SCORE.SYSTEM>
0

>  <SCORE.SYSTEM.CONST>
0

>  <SCORE.SYSTEM.DIHEDRAL>
0

>  <SCORE.SYSTEM.SOLV>
0

>  <SCORE.SYSTEM.norm>
0

>  <SCORE.heavy>
31

>  <SCORE.norm>
-0.677422

>  <RMSD>
0.630

$$$$
ligand
 OpenBabel11021811493D
libRbt.so/2013.1/901 2013/11/27
 31 33  0  0  0  0  0  0  0  0999 V2000
   -3.5569   14.0393    4.7735 C   0  0  2  0  0  0  0  0  0  0  0  0
   -4.0445   14.2912    6.0880 O   0  0  0  0  0  0  0  0  0  0  0  0
   -4.0987   12.4511    9.9214 C   0  0  2  0  0  0  0  0  0  0  0  0
   -4.3273   11.4743   10.9414 N   0  0  0  0  0  0  0  0  0  0  0  0
   -1.6904   10.2227   10.0548 C   0  0  2  0  0  0  0  0  0  0  0  0
   -3.1913   15.4481    4.1510 C   0  0  2  0  0  0  0  0  0  0  0  0
   -2.1845   16.0858    4.9930 N   0  0  0  0  0  0  0  0  0  0  0  0
   -5.4921   12.8246    9.2666 C   0  0  0  0  0  0  0  0  0  0  0  0
   -0.7788   10.5421   11.2818 C   0  0  2  0  0  0  0  0  0  0  0  0
   -1.4480   11.4758   12.1021 O   0  0  0  0  0  0  0  0  0  0  0  0
   -4.4825   16.3535    4.0420 C   0  0  0  0  0  0  0  0  0  0  0  0
   -5.2439   13.8979    8.1415 C   0  0  2  0  0  0  0  0  0  0  0  0
   -6.5358   14.2451    7.5250 N   0  0  0  0  0  0  0  0  0  0  0  0
    0.5651   11.1447   10.7209 C   0  0  1  0  0  0  0  0  0  0  0  0
    1.4787   11.4915   11.8594 N   0  0  0  0  0  0  0  0  0  0  0  0
   -5.7714   15.5196    3.6382 C   0  0  0  0  0  0  0  0  0  0  0  0
   -4.2506   13.3095    7.0448 C   0  0  2  0  0  0  0  0  0  0  0  0
    1.2724   10.0116    9.7859 C   0  0  1  0  0  0  0  0  0  0  0  0
    1.5338    8.8135   10.4970 O   0  0  0  0  0  0  0  0  0  0  0  0
   -5.7484   14.1607    3.6155 C   0  0  2  0  0  0  0  0  0  0  0  0
   -4.5777   13.4058    3.9486 O   0  0  0  0  0  0  0  0  0  0  0  0
   -2.8801   12.9383    7.7231 C   0  0  2  0  0  0  0  0  0  0  0  0
   -1.9895   12.3966    6.7241 O   0  0  0  0  0  0  0  0  0  0  0  0
    0.3293    9.6400    8.5958 C   0  0  0  0  0  0  0  0  0  0  0  0
   -1.0126    9.2225    9.1372 O   0  0  0  0  0  0  0  0  0  0  0  0
   -6.9631   13.3139    3.2309 C   0  0  0  0  0  0  0  0  0  0  0  0
   -7.4989   12.7221    4.4380 O   0  0  0  0  0  0  0  0  0  0  0  0
   -3.1449   11.8497    8.8277 C   0  0  1  0  0  0  0  0  0  0  0  0
   -1.9221   11.5148    9.4049 O   0  0  0  0  0  0  0  0  0  0  0  0
    2.6166   10.4380    9.1479 C   0  0  0  0  0  0  0  0  0  0  0  0
    1.2596   12.7999   12.5093 C   0  0  0  0  0  0  0  0  0  0  0  0
  1  2  1  1  0  0  0
  1  6  1  0  0  0  0
  1 21  1  0  0  0  0
  3  4  1  1  0  0  0
  3  8  1  0  0  0  0
  3 28  1  0  0  0  0
  5  9  1  0  0  0  0
  5 25  1  0  0  0  0
  5 29  1  6  0  0  0
  6  7  1  1  0  0  0
  6 11  1  0  0  0  0
  8 12  1  0  0  0  0
  9 10  1  1  0  0  0
  9 14  1  0  0  0  0
 11 16  1  0  0  0  0
 12 13  1  6  0  0  0
 12 17  1  0  0  0  0
 14 15  1  1  0  0  0
 14 18  1  0  0  0  0
 15 31  1  0  0  0  0
 16 20  1  0  0  0  0
 17  2  1  6  0  0  0
 17 22  1  0  0  0  0
 18 19  1  1  0  0  0
 18 24  1  0  0  0  0
 18 30  1  0  0  0  0
 20 21  1  0  0  0  0
 20 26  1  6  0  0  0
 22 23  1  6  0  0  0
 22 28  1  0  0  0  0
 24 25  1  0  0  0  0
 26 27  1  0  0  0  0
 28 29  1  1  0  0  0
M  END
>  <CHROM.1>
-168.22892827,-142.76315244,-83.46927534,-160.54412609,-105.97904209,86.03068781
-2.68663795,12.49120713,7.87770280,-2.25358891,-0.16587733,1.99324015

>  <Name>
ligand

>  <RI>
0

>  <Rbt.Current_Directory>
/home/itssahil/PROJECTS/Mol_Feturizer/New_Systems/rnas/4GPX

>  <Rbt.Executable>
rbdock ($Id: //depot/dev/client3/rdock/2013.1/src/exe/rbdock.cxx#4 $)

>  <Rbt.Library>
libRbt.so (2013.1, Build901 2013/11/27)

>  <Rbt.Parameter_File>
/export/apps/rDock/src/rDock_2013.1_src/data/scripts/dock_solv.prm

>  <Rbt.Receptor>
prm/pocket_docking_2.prm

>  <SCORE>
-21.0083

>  <SCORE.INTER>
-17.3302

>  <SCORE.INTER.CONST>
1

>  <SCORE.INTER.POLAR>
0

>  <SCORE.INTER.ROT>
6

>  <SCORE.INTER.SOLV>
20.3796

>  <SCORE.INTER.VDW>
-25.9467

>  <SCORE.INTER.norm>
-0.559039

>  <SCORE.INTRA>
-3.67812

>  <SCORE.INTRA.DIHEDRAL>
-8.18723

>  <SCORE.INTRA.DIHEDRAL.0>
20.6841

>  <SCORE.INTRA.POLAR>
0

>  <SCORE.INTRA.POLAR.0>
0

>  <SCORE.INTRA.REPUL>
0

>  <SCORE.INTRA.REPUL.0>
0

>  <SCORE.INTRA.SOLV>
0.296087

>  <SCORE.INTRA.SOLV.lig_0>
-64.6797

>  <SCORE.INTRA.VDW>
0.26745

>  <SCORE.INTRA.VDW.0>
-4.11825

>  <SCORE.INTRA.norm>
-0.118649

>  <SCORE.RESTR>
0

>  <SCORE.RESTR.CAVITY>
0

>  <SCORE.RESTR.norm>
0

>  <SCORE.SYSTEM>
0

>  <SCORE.SYSTEM.CONST>
0

>  <SCORE.SYSTEM.DIHEDRAL>
0

>  <SCORE.SYSTEM.SOLV>
0

>  <SCORE.SYSTEM.norm>
0

>  <SCORE.heavy>
31

>  <SCORE.norm>
-0.677688

>  <RMSD>
0.631

$$$$
ligand
 OpenBabel11021811493D
libRbt.so/2013.1/901 2013/11/27
 31 33  0  0  0  0  0  0  0  0999 V2000
   -3.6269   14.1204    4.7646 C   0  0  2  0  0  0  0  0  0  0  0  0
   -4.1110   14.3686    6.0811 O   0  0  0  0  0  0  0  0  0  0  0  0
   -4.1894   12.5056    9.9030 C   0  0  2  0  0  0  0  0  0  0  0  0
   -4.4283   11.5243   10.9164 N   0  0  0  0  0  0  0  0  0  0  0  0
   -1.7978   10.2568   10.0262 C   0  0  2  0  0  0  0  0  0  0  0  0
   -3.1994   15.5238    4.1698 C   0  0  2  0  0  0  0  0  0  0  0  0
   -2.1717   16.1035    5.0282 N   0  0  0  0  0  0  0  0  0  0  0  0
   -5.5782   12.8938    9.2469 C   0  0  0  0  0  0  0  0  0  0  0  0
   -0.8954   10.5612   11.2638 C   0  0  2  0  0  0  0  0  0  0  0  0
   -1.5679   11.4900   12.0870 O   0  0  0  0  0  0  0  0  0  0  0  0
   -4.4511   16.4842    4.0710 C   0  0  0  0  0  0  0  0  0  0  0  0
   -5.3188   13.9720    8.1290 C   0  0  2  0  0  0  0  0  0  0  0  0
   -6.6064   14.3330    7.5113 N   0  0  0  0  0  0  0  0  0  0  0  0
    0.4556   11.1634   10.7200 C   0  0  1  0  0  0  0  0  0  0  0  0
    1.3608   11.4961   11.8693 N   0  0  0  0  0  0  0  0  0  0  0  0
   -5.7714   15.7123    3.6458 C   0  0  0  0  0  0  0  0  0  0  0  0
   -4.3271   13.3827    7.0313 C   0  0  2  0  0  0  0  0  0  0  0  0
    1.1663   10.0361    9.7806 C   0  0  1  0  0  0  0  0  0  0  0  0
    1.4168    8.8305   10.4829 O   0  0  0  0  0  0  0  0  0  0  0  0
   -5.8049   14.3543    3.5983 C   0  0  2  0  0  0  0  0  0  0  0  0
   -4.6686   13.5452    3.9232 O   0  0  0  0  0  0  0  0  0  0  0  0
   -2.9613   12.9968    7.7109 C   0  0  2  0  0  0  0  0  0  0  0  0
   -2.0723   12.4544    6.7108 O   0  0  0  0  0  0  0  0  0  0  0  0
    0.2319    9.6793    8.5792 C   0  0  0  0  0  0  0  0  0  0  0  0
   -1.1161    9.2623    9.1052 O   0  0  0  0  0  0  0  0  0  0  0  0
   -7.0517   13.5660    3.1923 C   0  0  0  0  0  0  0  0  0  0  0  0
   -7.4904   12.7976    4.3375 O   0  0  0  0  0  0  0  0  0  0  0  0
   -3.2374   11.9035    8.8081 C   0  0  1  0  0  0  0  0  0  0  0  0
   -2.0187   11.5557    9.3864 O   0  0  0  0  0  0  0  0  0  0  0  0
    2.5177   10.4629    9.1581 C   0  0  0  0  0  0  0  0  0  0  0  0
    1.1810   12.8240   12.4911 C   0  0  0  0  0  0  0  0  0  0  0  0
  1  2  1  1  0  0  0
  1  6  1  0  0  0  0
  1 21  1  0  0  0  0
  3  4  1  1  0  0  0
  3  8  1  0  0  0  0
  3 28  1  0  0  0  0
  5  9  1  0  0  0  0
  5 25  1  0  0  0  0
  5 29  1  6  0  0  0
  6  7  1  1  0  0  0
  6 11  1  0  0  0  0
  8 12  1  0  0  0  0
  9 10  1  1  0  0  0
  9 14  1  0  0  0  0
 11 16  1  0  0  0  0
 12 13  1  6  0  0  0
 12 17  1  0  0  0  0
 14 15  1  1  0  0  0
 14 18  1  0  0  0  0
 15 31  1  0  0  0  0
 16 20  1  0  0  0  0
 17  2  1  6  0  0  0
 17 22  1  0  0  0  0
 18 19  1  1  0  0  0
 18 24  1  0  0  0  0
 18 30  1  0  0  0  0
 20 21  1  0  0  0  0
 20 26  1  6  0  0  0
 22 23  1  6  0  0  0
 22 28  1  0  0  0  0
 24 25  1  0  0  0  0
 26 27  1  0  0  0  0
 28 29  1  1  0  0  0
M  END
>  <CHROM.1>
-166.31005076,-142.41907472,-86.09010053,-160.28349113,-115.33681488,86.17186101
-2.76264291,12.55913725,7.86415194,-2.24363062,-0.16566597,2.00753874

>  <Name>
ligand

>  <RI>
0

>  <Rbt.Current_Directory>
/home/itssahil/PROJECTS/Mol_Feturizer/New_Systems/rnas/4GPX

>  <Rbt.Executable>
rbdock ($Id: //depot/dev/client3/rdock/2013.1/src/exe/rbdock.cxx#4 $)

>  <Rbt.Library>
libRbt.so (2013.1, Build901 2013/11/27)

>  <Rbt.Parameter_File>
/export/apps/rDock/src/rDock_2013.1_src/data/scripts/dock_solv.prm

>  <Rbt.Receptor>
prm/pocket_docking_2.prm

>  <SCORE>
-21.0482

>  <SCORE.INTER>
-17.3996

>  <SCORE.INTER.CONST>
1

>  <SCORE.INTER.POLAR>
0

>  <SCORE.INTER.ROT>
6

>  <SCORE.INTER.SOLV>
20.3444

>  <SCORE.INTER.VDW>
-25.9812

>  <SCORE.INTER.norm>
-0.561279

>  <SCORE.INTRA>
-3.64855

>  <SCORE.INTRA.DIHEDRAL>
-7.9755

>  <SCORE.INTRA.DIHEDRAL.0>
20.6841

>  <SCORE.INTRA.POLAR>
0

>  <SCORE.INTRA.POLAR.0>
0

>  <SCORE.INTRA.REPUL>
0

>  <SCORE.INTRA.REPUL.0>
0

>  <SCORE.INTRA.SOLV>
0.322035

>  <SCORE.INTRA.SOLV.lig_0>
-64.6797

>  <SCORE.INTRA.VDW>
0.178181

>  <SCORE.INTRA.VDW.0>
-4.11825

>  <SCORE.INTRA.norm>
-0.117695

>  <SCORE.RESTR>
0

>  <SCORE.RESTR.CAVITY>
0

>  <SCORE.RESTR.norm>
0

>  <SCORE.SYSTEM>
0

>  <SCORE.SYSTEM.CONST>
0

>  <SCORE.SYSTEM.DIHEDRAL>
0

>  <SCORE.SYSTEM.SOLV>
0

>  <SCORE.SYSTEM.norm>
0

>  <SCORE.heavy>
31

>  <SCORE.norm>
-0.678974

>  <RMSD>
0.638

$$$$
ligand
 OpenBabel11021811493D
libRbt.so/2013.1/901 2013/11/27
 31 33  0  0  0  0  0  0  0  0999 V2000
   -3.8030   13.9485    4.8352 C   0  0  2  0  0  0  0  0  0  0  0  0
   -4.0923   14.2198    6.2034 O   0  0  0  0  0  0  0  0  0  0  0  0
   -3.9756   12.4008   10.0455 C   0  0  2  0  0  0  0  0  0  0  0  0
   -4.1598   11.4302   11.0803 N   0  0  0  0  0  0  0  0  0  0  0  0
   -1.5607   10.1532   10.0505 C   0  0  2  0  0  0  0  0  0  0  0  0
   -3.5025   15.3449    4.1528 C   0  0  2  0  0  0  0  0  0  0  0  0
   -2.3731   15.9672    4.8357 N   0  0  0  0  0  0  0  0  0  0  0  0
   -5.3965   12.7749    9.4532 C   0  0  0  0  0  0  0  0  0  0  0  0
   -0.6542   10.4642   11.2835 C   0  0  2  0  0  0  0  0  0  0  0  0
   -1.3451   11.3587   12.1292 O   0  0  0  0  0  0  0  0  0  0  0  0
   -4.7778   16.2764    4.2205 C   0  0  0  0  0  0  0  0  0  0  0  0
   -5.1973   13.8413    8.3119 C   0  0  2  0  0  0  0  0  0  0  0  0
   -6.5151   14.1890    7.7534 N   0  0  0  0  0  0  0  0  0  0  0  0
    0.6721   11.1158   10.7356 C   0  0  1  0  0  0  0  0  0  0  0  0
    1.5795   11.4567   11.8808 N   0  0  0  0  0  0  0  0  0  0  0  0
   -6.1275   15.4670    4.0137 C   0  0  0  0  0  0  0  0  0  0  0  0
   -4.2569   13.2439    7.1741 C   0  0  2  0  0  0  0  0  0  0  0  0
    1.4059   10.0261    9.7700 C   0  0  1  0  0  0  0  0  0  0  0  0
    1.7002    8.8172   10.4493 O   0  0  0  0  0  0  0  0  0  0  0  0
   -6.1349   14.1078    4.0014 C   0  0  2  0  0  0  0  0  0  0  0  0
   -4.9437   13.3307    4.1712 O   0  0  0  0  0  0  0  0  0  0  0  0
   -2.8577   12.8724    7.7909 C   0  0  2  0  0  0  0  0  0  0  0  0
   -2.0154   12.3226    6.7551 O   0  0  0  0  0  0  0  0  0  0  0  0
    0.4694    9.6611    8.5727 C   0  0  0  0  0  0  0  0  0  0  0  0
   -0.8597    9.1950    9.1058 O   0  0  0  0  0  0  0  0  0  0  0  0
   -7.4087   13.2839    3.8030 C   0  0  0  0  0  0  0  0  0  0  0  0
   -7.3740   12.7160    2.4724 O   0  0  0  0  0  0  0  0  0  0  0  0
   -3.0746   11.7905    8.9126 C   0  0  1  0  0  0  0  0  0  0  0  0
   -1.8275   11.4551    9.4349 O   0  0  0  0  0  0  0  0  0  0  0  0
    2.7368   10.5036    9.1405 C   0  0  0  0  0  0  0  0  0  0  0  0
    1.2980   12.7182   12.5960 C   0  0  0  0  0  0  0  0  0  0  0  0
  1  2  1  1  0  0  0
  1  6  1  0  0  0  0
  1 21  1  0  0  0  0
  3  4  1  1  0  0  0
  3  8  1  0  0  0  0
  3 28  1  0  0  0  0
  5  9  1  0  0  0  0
  5 25  1  0  0  0  0
  5 29  1  6  0  0  0
  6  7  1  1  0  0  0
  6 11  1  0  0  0  0
  8 12  1  0  0  0  0
  9 10  1  1  0  0  0
  9 14  1  0  0  0  0
 11 16  1  0  0  0  0
 12 13  1  6  0  0  0
 12 17  1  0  0  0  0
 14 15  1  1  0  0  0
 14 18  1  0  0  0  0
 15 31  1  0  0  0  0
 16 20  1  0  0  0  0
 17  2  1  6  0  0  0
 17 22  1  0  0  0  0
 18 19  1  1  0  0  0
 18 24  1  0  0  0  0
 18 30  1  0  0  0  0
 20 21  1  0  0  0  0
 20 26  1  6  0  0  0
 22 23  1  6  0  0  0
 22 28  1  0  0  0  0
 24 25  1  0  0  0  0
 26 27  1  0  0  0  0
 28 29  1  1  0  0  0
M  END
>  <CHROM.1>
-172.23091989,-140.38034181,-81.32462311,-153.65848350,106.87959542,87.60457409
-2.70417503,12.44004738,7.90033211,-2.30006693,-0.26774562,1.87676710

>  <Name>
ligand

>  <RI>
0

>  <Rbt.Current_Directory>
/home/itssahil/PROJECTS/Mol_Feturizer/New_Systems/rnas/4GPX

>  <Rbt.Executable>
rbdock ($Id: //depot/dev/client3/rdock/2013.1/src/exe/rbdock.cxx#4 $)

>  <Rbt.Library>
libRbt.so (2013.1, Build901 2013/11/27)

>  <Rbt.Parameter_File>
/export/apps/rDock/src/rDock_2013.1_src/data/scripts/dock_solv.prm

>  <Rbt.Receptor>
prm/pocket_docking_2.prm

>  <SCORE>
-20.0708

>  <SCORE.INTER>
-17.1681

>  <SCORE.INTER.CONST>
1

>  <SCORE.INTER.POLAR>
0

>  <SCORE.INTER.ROT>
6

>  <SCORE.INTER.SOLV>
20.9729

>  <SCORE.INTER.VDW>
-26.0363

>  <SCORE.INTER.norm>
-0.553808

>  <SCORE.INTRA>
-2.90273

>  <SCORE.INTRA.DIHEDRAL>
-6.74581

>  <SCORE.INTRA.DIHEDRAL.0>
20.6841

>  <SCORE.INTRA.POLAR>
0

>  <SCORE.INTRA.POLAR.0>
0

>  <SCORE.INTRA.REPUL>
0

>  <SCORE.INTRA.REPUL.0>
0

>  <SCORE.INTRA.SOLV>
0.233872

>  <SCORE.INTRA.SOLV.lig_0>
-64.6797

>  <SCORE.INTRA.VDW>
0.353236

>  <SCORE.INTRA.VDW.0>
-4.11825

>  <SCORE.INTRA.norm>
-0.0936365

>  <SCORE.RESTR>
0

>  <SCORE.RESTR.CAVITY>
0

>  <SCORE.RESTR.norm>
0

>  <SCORE.SYSTEM>
0

>  <SCORE.SYSTEM.CONST>
0

>  <SCORE.SYSTEM.DIHEDRAL>
0

>  <SCORE.SYSTEM.SOLV>
0

>  <SCORE.SYSTEM.norm>
0

>  <SCORE.heavy>
31

>  <SCORE.norm>
-0.647445

>  <RMSD>
0.649

$$$$
ligand
 OpenBabel11021811493D
libRbt.so/2013.1/901 2013/11/27
 31 33  0  0  0  0  0  0  0  0999 V2000
   -3.5928   14.0201    4.8850 C   0  0  2  0  0  0  0  0  0  0  0  0
   -4.1291   14.2455    6.1854 O   0  0  0  0  0  0  0  0  0  0  0  0
   -3.9954   12.3828   10.0059 C   0  0  2  0  0  0  0  0  0  0  0  0
   -4.1737   11.3999   11.0301 N   0  0  0  0  0  0  0  0  0  0  0  0
   -1.5812   10.1521   10.0017 C   0  0  2  0  0  0  0  0  0  0  0  0
   -3.2423   15.4443    4.2893 C   0  0  2  0  0  0  0  0  0  0  0  0
   -2.2796   16.0972    5.1704 N   0  0  0  0  0  0  0  0  0  0  0  0
   -5.4193   12.7595    9.4223 C   0  0  0  0  0  0  0  0  0  0  0  0
   -0.7071   10.4737   11.2551 C   0  0  2  0  0  0  0  0  0  0  0  0
   -1.4265   11.3623   12.0831 O   0  0  0  0  0  0  0  0  0  0  0  0
   -4.5514   16.3189    4.1472 C   0  0  0  0  0  0  0  0  0  0  0  0
   -5.2266   13.8395    8.2927 C   0  0  2  0  0  0  0  0  0  0  0  0
   -6.5471   14.1898    7.7422 N   0  0  0  0  0  0  0  0  0  0  0  0
    0.6251   11.1378   10.7375 C   0  0  1  0  0  0  0  0  0  0  0  0
    1.5020   11.4892   11.9031 N   0  0  0  0  0  0  0  0  0  0  0  0
   -5.8053   15.4581    3.6929 C   0  0  0  0  0  0  0  0  0  0  0  0
   -4.2879   13.2580    7.1453 C   0  0  2  0  0  0  0  0  0  0  0  0
    1.3922   10.0543    9.7910 C   0  0  1  0  0  0  0  0  0  0  0  0
    1.6825    8.8492   10.4788 O   0  0  0  0  0  0  0  0  0  0  0  0
   -5.7478   14.1005    3.6570 C   0  0  2  0  0  0  0  0  0  0  0  0
   -4.5701   13.3709    4.0206 O   0  0  0  0  0  0  0  0  0  0  0  0
   -2.8858   12.8835    7.7536 C   0  0  2  0  0  0  0  0  0  0  0  0
   -2.0451   12.3481    6.7090 O   0  0  0  0  0  0  0  0  0  0  0  0
    0.4877    9.6784    8.5726 C   0  0  0  0  0  0  0  0  0  0  0  0
   -0.8488    9.1997    9.0752 O   0  0  0  0  0  0  0  0  0  0  0  0
   -6.9279   13.2284    3.2242 C   0  0  0  0  0  0  0  0  0  0  0  0
   -7.9551   14.0956    2.6884 O   0  0  0  0  0  0  0  0  0  0  0  0
   -3.0962   11.7883    8.8634 C   0  0  1  0  0  0  0  0  0  0  0  0
   -1.8465   11.4505    9.3781 O   0  0  0  0  0  0  0  0  0  0  0  0
    2.7327   10.5443    9.1922 C   0  0  0  0  0  0  0  0  0  0  0  0
    1.2471   12.7899   12.5552 C   0  0  0  0  0  0  0  0  0  0  0  0
  1  2  1  1  0  0  0
  1  6  1  0  0  0  0
  1 21  1  0  0  0  0
  3  4  1  1  0  0  0
  3  8  1  0  0  0  0
  3 28  1  0  0  0  0
  5  9  1  0  0  0  0
  5 25  1  0  0  0  0
  5 29  1  6  0  0  0
  6  7  1  1  0  0  0
  6 11  1  0  0  0  0
  8 12  1  0  0  0  0
  9 10  1  1  0  0  0
  9 14  1  0  0  0  0
 11 16  1  0  0  0  0
 12 13  1  6  0  0  0
 12 17  1  0  0  0  0
 14 15  1  1  0  0  0
 14 18  1  0  0  0  0
 15 31  1  0  0  0  0
 16 20  1  0  0  0  0
 17  2  1  6  0  0  0
 17 22  1  0  0  0  0
 18 19  1  1  0  0  0
 18 24  1  0  0  0  0
 18 30  1  0  0  0  0
 20 21  1  0  0  0  0
 20 26  1  6  0  0  0
 22 23  1  6  0  0  0
 22 28  1  0  0  0  0
 24 25  1  0  0  0  0
 26 27  1  0  0  0  0
 28 29  1  1  0  0  0
M  END
>  <CHROM.1>
-165.31416341,-138.33540173,-85.14846875,-166.43800950,8.91827454,86.36861807
-2.67053929,12.50896631,7.86283747,-2.27085620,-0.24192601,1.92368788

>  <Name>
ligand

>  <RI>
0

>  <Rbt.Current_Directory>
/home/itssahil/PROJECTS/Mol_Feturizer/New_Systems/rnas/4GPX

>  <Rbt.Executable>
rbdock ($Id: //depot/dev/client3/rdock/2013.1/src/exe/rbdock.cxx#4 $)

>  <Rbt.Library>
libRbt.so (2013.1, Build901 2013/11/27)

>  <Rbt.Parameter_File>
/export/apps/rDock/src/rDock_2013.1_src/data/scripts/dock_solv.prm

>  <Rbt.Receptor>
prm/pocket_docking_2.prm

>  <SCORE>
-20.3732

>  <SCORE.INTER>
-17.5542

>  <SCORE.INTER.CONST>
1

>  <SCORE.INTER.POLAR>
0

>  <SCORE.INTER.ROT>
6

>  <SCORE.INTER.SOLV>
19.6897

>  <SCORE.INTER.VDW>
-25.866

>  <SCORE.INTER.norm>
-0.566264

>  <SCORE.INTRA>
-2.81897

>  <SCORE.INTRA.DIHEDRAL>
-7.9774

>  <SCORE.INTRA.DIHEDRAL.0>
20.6841

>  <SCORE.INTRA.POLAR>
0

>  <SCORE.INTRA.POLAR.0>
0

>  <SCORE.INTRA.REPUL>
0

>  <SCORE.INTRA.REPUL.0>
0

>  <SCORE.INTRA.SOLV>
-0.583886

>  <SCORE.INTRA.SOLV.lig_0>
-64.6797

>  <SCORE.INTRA.VDW>
1.46167

>  <SCORE.INTRA.VDW.0>
-4.11825

>  <SCORE.INTRA.norm>
-0.0909345

>  <SCORE.RESTR>
0

>  <SCORE.RESTR.CAVITY>
0

>  <SCORE.RESTR.norm>
0

>  <SCORE.SYSTEM>
0

>  <SCORE.SYSTEM.CONST>
0

>  <SCORE.SYSTEM.DIHEDRAL>
0

>  <SCORE.SYSTEM.SOLV>
0

>  <SCORE.SYSTEM.norm>
0

>  <SCORE.heavy>
31

>  <SCORE.norm>
-0.657199

>  <RMSD>
0.655

$$$$
ligand
 OpenBabel11021811493D
libRbt.so/2013.1/901 2013/11/27
 31 33  0  0  0  0  0  0  0  0999 V2000
   -3.6333   14.0085    4.8550 C   0  0  2  0  0  0  0  0  0  0  0  0
   -4.1526   14.2588    6.1577 O   0  0  0  0  0  0  0  0  0  0  0  0
   -4.0898   12.4406   10.0014 C   0  0  2  0  0  0  0  0  0  0  0  0
   -4.2896   11.4707   11.0340 N   0  0  0  0  0  0  0  0  0  0  0  0
   -1.6828   10.1915   10.0470 C   0  0  2  0  0  0  0  0  0  0  0  0
   -3.2700   15.4195    4.2361 C   0  0  2  0  0  0  0  0  0  0  0  0
   -2.2893   16.0712    5.0980 N   0  0  0  0  0  0  0  0  0  0  0  0
   -5.5022   12.8176    9.3905 C   0  0  0  0  0  0  0  0  0  0  0  0
   -0.7645   10.5035   11.2710 C   0  0  2  0  0  0  0  0  0  0  0  0
   -1.4381   11.4162   12.1112 O   0  0  0  0  0  0  0  0  0  0  0  0
   -4.5686   16.3099    4.0957 C   0  0  0  0  0  0  0  0  0  0  0  0
   -5.2858   13.8832    8.2517 C   0  0  2  0  0  0  0  0  0  0  0  0
   -6.5955   14.2337    7.6760 N   0  0  0  0  0  0  0  0  0  0  0  0
    0.5669   11.1313   10.7079 C   0  0  1  0  0  0  0  0  0  0  0  0
    1.4860   11.4721   11.8438 N   0  0  0  0  0  0  0  0  0  0  0  0
   -5.8388   15.4602    3.6665 C   0  0  0  0  0  0  0  0  0  0  0  0
   -4.3319   13.2836    7.1264 C   0  0  2  0  0  0  0  0  0  0  0  0
    1.2800   10.0214    9.7497 C   0  0  1  0  0  0  0  0  0  0  0  0
    1.5623    8.8160   10.4402 O   0  0  0  0  0  0  0  0  0  0  0  0
   -5.8001   14.1016    3.6487 C   0  0  2  0  0  0  0  0  0  0  0  0
   -4.6285   13.3610    4.0099 O   0  0  0  0  0  0  0  0  0  0  0  0
   -2.9417   12.9092    7.7614 C   0  0  2  0  0  0  0  0  0  0  0  0
   -2.0872   12.3573    6.7369 O   0  0  0  0  0  0  0  0  0  0  0  0
    0.3311    9.6562    8.5621 C   0  0  0  0  0  0  0  0  0  0  0  0
   -1.0007    9.2138    9.1085 O   0  0  0  0  0  0  0  0  0  0  0  0
   -6.9964   13.2399    3.2403 C   0  0  0  0  0  0  0  0  0  0  0  0
   -8.1014   14.1220    2.9319 O   0  0  0  0  0  0  0  0  0  0  0  0
   -3.1755   11.8281    8.8804 C   0  0  1  0  0  0  0  0  0  0  0  0
   -1.9360   11.4902    9.4191 O   0  0  0  0  0  0  0  0  0  0  0  0
    2.6132   10.4742    9.1069 C   0  0  0  0  0  0  0  0  0  0  0  0
    1.3220   12.8092   12.4500 C   0  0  0  0  0  0  0  0  0  0  0  0
  1  2  1  1  0  0  0
  1  6  1  0  0  0  0
  1 21  1  0  0  0  0
  3  4  1  1  0  0  0
  3  8  1  0  0  0  0
  3 28  1  0  0  0  0
  5  9  1  0  0  0  0
  5 25  1  0  0  0  0
  5 29  1  6  0  0  0
  6  7  1  1  0  0  0
  6 11  1  0  0  0  0
  8 12  1  0  0  0  0
  9 10  1  1  0  0  0
  9 14  1  0  0  0  0
 11 16  1  0  0  0  0
 12 13  1  6  0  0  0
 12 17  1  0  0  0  0
 14 15  1  1  0  0  0
 14 18  1  0  0  0  0
 15 31  1  0  0  0  0
 16 20  1  0  0  0  0
 17  2  1  6  0  0  0
 17 22  1  0  0  0  0
 18 19  1  1  0  0  0
 18 24  1  0  0  0  0
 18 30  1  0  0  0  0
 20 21  1  0  0  0  0
 20 26  1  6  0  0  0
 22 23  1  6  0  0  0
 22 28  1  0  0  0  0
 24 25  1  0  0  0  0
 26 27  1  0  0  0  0
 28 29  1  1  0  0  0
M  END
>  <CHROM.1>
-166.25445376,-141.49900523,-87.87535513,-164.50526851,-1.23969520,87.15284668
-2.73594020,12.52056178,7.85354517,-2.27088406,-0.23483470,1.93330909

>  <Name>
ligand

>  <RI>
0

>  <Rbt.Current_Directory>
/home/itssahil/PROJECTS/Mol_Feturizer/New_Systems/rnas/4GPX

>  <Rbt.Executable>
rbdock ($Id: //depot/dev/client3/rdock/2013.1/src/exe/rbdock.cxx#4 $)

>  <Rbt.Library>
libRbt.so (2013.1, Build901 2013/11/27)

>  <Rbt.Parameter_File>
/export/apps/rDock/src/rDock_2013.1_src/data/scripts/dock_solv.prm

>  <Rbt.Receptor>
prm/pocket_docking_2.prm

>  <SCORE>
-20.4483

>  <SCORE.INTER>
-17.4014

>  <SCORE.INTER.CONST>
1

>  <SCORE.INTER.POLAR>
0

>  <SCORE.INTER.ROT>
6

>  <SCORE.INTER.SOLV>
19.9895

>  <SCORE.INTER.VDW>
-25.8641

>  <SCORE.INTER.norm>
-0.561334

>  <SCORE.INTRA>
-3.04697

>  <SCORE.INTRA.DIHEDRAL>
-8.23179

>  <SCORE.INTRA.DIHEDRAL.0>
20.6841

>  <SCORE.INTRA.POLAR>
0

>  <SCORE.INTRA.POLAR.0>
0

>  <SCORE.INTRA.REPUL>
0

>  <SCORE.INTRA.REPUL.0>
0

>  <SCORE.INTRA.SOLV>
-0.568524

>  <SCORE.INTRA.SOLV.lig_0>
-64.6797

>  <SCORE.INTRA.VDW>
1.35318

>  <SCORE.INTRA.VDW.0>
-4.11825

>  <SCORE.INTRA.norm>
-0.0982894

>  <SCORE.RESTR>
0

>  <SCORE.RESTR.CAVITY>
0

>  <SCORE.RESTR.norm>
0

>  <SCORE.SYSTEM>
0

>  <SCORE.SYSTEM.CONST>
0

>  <SCORE.SYSTEM.DIHEDRAL>
0

>  <SCORE.SYSTEM.SOLV>
0

>  <SCORE.SYSTEM.norm>
0

>  <SCORE.heavy>
31

>  <SCORE.norm>
-0.659623

>  <RMSD>
0.659

$$$$
ligand
 OpenBabel11021811493D
libRbt.so/2013.1/901 2013/11/27
 31 33  0  0  0  0  0  0  0  0999 V2000
   -3.5881   14.1213    4.8358 C   0  0  2  0  0  0  0  0  0  0  0  0
   -3.9066   14.3535    6.2047 O   0  0  0  0  0  0  0  0  0  0  0  0
   -3.9012   12.4256    9.9951 C   0  0  2  0  0  0  0  0  0  0  0  0
   -4.1144   11.4256   10.9959 N   0  0  0  0  0  0  0  0  0  0  0  0
   -1.4873   10.1863   10.0208 C   0  0  2  0  0  0  0  0  0  0  0  0
   -3.1817   15.5235    4.2237 C   0  0  2  0  0  0  0  0  0  0  0  0
   -2.0408   16.0469    4.9676 N   0  0  0  0  0  0  0  0  0  0  0  0
   -5.3046   12.8148    9.3714 C   0  0  0  0  0  0  0  0  0  0  0  0
   -0.6001   10.4701   11.2742 C   0  0  2  0  0  0  0  0  0  0  0  0
   -1.2991   11.3557   12.1227 O   0  0  0  0  0  0  0  0  0  0  0  0
   -4.4006   16.5278    4.2917 C   0  0  0  0  0  0  0  0  0  0  0  0
   -5.0734   13.9136    8.2674 C   0  0  2  0  0  0  0  0  0  0  0  0
   -6.3747   14.2757    7.6799 N   0  0  0  0  0  0  0  0  0  0  0  0
    0.7402   11.1207   10.7602 C   0  0  1  0  0  0  0  0  0  0  0  0
    1.6300   11.4358   11.9263 N   0  0  0  0  0  0  0  0  0  0  0  0
   -5.7886   15.8117    4.0083 C   0  0  0  0  0  0  0  0  0  0  0  0
   -4.0982   13.3501    7.1418 C   0  0  2  0  0  0  0  0  0  0  0  0
    1.4827   10.0416    9.7894 C   0  0  1  0  0  0  0  0  0  0  0  0
    1.7564    8.8195   10.4534 O   0  0  0  0  0  0  0  0  0  0  0  0
   -5.8770   14.4572    3.9374 C   0  0  2  0  0  0  0  0  0  0  0  0
   -4.7408   13.6023    4.1106 O   0  0  0  0  0  0  0  0  0  0  0  0
   -2.7174   12.9626    7.7894 C   0  0  2  0  0  0  0  0  0  0  0  0
   -1.8434   12.4436    6.7641 O   0  0  0  0  0  0  0  0  0  0  0  0
    0.5645    9.7034    8.5702 C   0  0  0  0  0  0  0  0  0  0  0  0
   -0.7769    9.2386    9.0726 O   0  0  0  0  0  0  0  0  0  0  0  0
   -7.1904   13.7217    3.6642 C   0  0  0  0  0  0  0  0  0  0  0  0
   -7.0173   12.9205    2.4715 O   0  0  0  0  0  0  0  0  0  0  0  0
   -2.9656   11.8490    8.8727 C   0  0  1  0  0  0  0  0  0  0  0  0
   -1.7340   11.5002    9.4225 O   0  0  0  0  0  0  0  0  0  0  0  0
    2.8278   10.5194    9.1909 C   0  0  0  0  0  0  0  0  0  0  0  0
    1.3855   12.7176   12.6186 C   0  0  0  0  0  0  0  0  0  0  0  0
  1  2  1  1  0  0  0
  1  6  1  0  0  0  0
  1 21  1  0  0  0  0
  3  4  1  1  0  0  0
  3  8  1  0  0  0  0
  3 28  1  0  0  0  0
  5  9  1  0  0  0  0
  5 25  1  0  0  0  0
  5 29  1  6  0  0  0
  6  7  1  1  0  0  0
  6 11  1  0  0  0  0
  8 12  1  0  0  0  0
  9 10  1  1  0  0  0
  9 14  1  0  0  0  0
 11 16  1  0  0  0  0
 12 13  1  6  0  0  0
 12 17  1  0  0  0  0
 14 15  1  1  0  0  0
 14 18  1  0  0  0  0
 15 31  1  0  0  0  0
 16 20  1  0  0  0  0
 17  2  1  6  0  0  0
 17 22  1  0  0  0  0
 18 19  1  1  0  0  0
 18 24  1  0  0  0  0
 18 30  1  0  0  0  0
 20 21  1  0  0  0  0
 20 26  1  6  0  0  0
 22 23  1  6  0  0  0
 22 28  1  0  0  0  0
 24 25  1  0  0  0  0
 26 27  1  0  0  0  0
 28 29  1  1  0  0  0
M  END
>  <CHROM.1>
-168.95964445,-141.01542439,-84.07948200,-153.04945724,121.60047933,86.95869907
-2.55123098,12.54340898,7.89014544,-2.26789087,-0.24227715,1.93672609

>  <Name>
ligand

>  <RI>
0

>  <Rbt.Current_Directory>
/home/itssahil/PROJECTS/Mol_Feturizer/New_Systems/rnas/4GPX

>  <Rbt.Executable>
rbdock ($Id: //depot/dev/client3/rdock/2013.1/src/exe/rbdock.cxx#4 $)

>  <Rbt.Library>
libRbt.so (2013.1, Build901 2013/11/27)

>  <Rbt.Parameter_File>
/export/apps/rDock/src/rDock_2013.1_src/data/scripts/dock_solv.prm

>  <Rbt.Receptor>
prm/pocket_docking_2.prm

>  <SCORE>
-20.3497

>  <SCORE.INTER>
-17.417

>  <SCORE.INTER.CONST>
1

>  <SCORE.INTER.POLAR>
0

>  <SCORE.INTER.ROT>
6

>  <SCORE.INTER.SOLV>
20.0756

>  <SCORE.INTER.VDW>
-25.9032

>  <SCORE.INTER.norm>
-0.561839

>  <SCORE.INTRA>
-2.93527

>  <SCORE.INTRA.DIHEDRAL>
-6.70331

>  <SCORE.INTRA.DIHEDRAL.0>
20.6841

>  <SCORE.INTRA.POLAR>
0

>  <SCORE.INTRA.POLAR.0>
0

>  <SCORE.INTRA.REPUL>
0

>  <SCORE.INTRA.REPUL.0>
0

>  <SCORE.INTRA.SOLV>
0.305864

>  <SCORE.INTRA.SOLV.lig_0>
-64.6797

>  <SCORE.INTRA.VDW>
0.263455

>  <SCORE.INTRA.VDW.0>
-4.11825

>  <SCORE.INTRA.norm>
-0.0946861

>  <SCORE.RESTR>
0.00261345

>  <SCORE.RESTR.CAVITY>
0.00261345

>  <SCORE.RESTR.norm>
8.43049e-05

>  <SCORE.SYSTEM>
0

>  <SCORE.SYSTEM.CONST>
0

>  <SCORE.SYSTEM.DIHEDRAL>
0

>  <SCORE.SYSTEM.SOLV>
0

>  <SCORE.SYSTEM.norm>
0

>  <SCORE.heavy>
31

>  <SCORE.norm>
-0.656441

>  <RMSD>
0.664

$$$$
ligand
 OpenBabel11021811493D
libRbt.so/2013.1/901 2013/11/27
 31 33  0  0  0  0  0  0  0  0999 V2000
   -3.6826   14.1620    4.7337 C   0  0  2  0  0  0  0  0  0  0  0  0
   -4.0079   14.3852    6.1025 O   0  0  0  0  0  0  0  0  0  0  0  0
   -3.8948   12.4140    9.8689 C   0  0  2  0  0  0  0  0  0  0  0  0
   -4.0922   11.4084   10.8672 N   0  0  0  0  0  0  0  0  0  0  0  0
   -1.5592   10.1410    9.8362 C   0  0  2  0  0  0  0  0  0  0  0  0
   -3.2214   15.5579    4.1468 C   0  0  2  0  0  0  0  0  0  0  0  0
   -2.0713   16.0307    4.9103 N   0  0  0  0  0  0  0  0  0  0  0  0
   -5.3123   12.8464    9.3088 C   0  0  0  0  0  0  0  0  0  0  0  0
   -0.7434   10.4573   11.1297 C   0  0  2  0  0  0  0  0  0  0  0  0
   -1.4917   11.3575   11.9185 O   0  0  0  0  0  0  0  0  0  0  0  0
   -4.4055   16.6028    4.2169 C   0  0  0  0  0  0  0  0  0  0  0  0
   -5.0987   13.9516    8.2077 C   0  0  2  0  0  0  0  0  0  0  0  0
   -6.4135   14.3538    7.6791 N   0  0  0  0  0  0  0  0  0  0  0  0
    0.6202   11.1038   10.6754 C   0  0  1  0  0  0  0  0  0  0  0  0
    1.4434   11.4495   11.8812 N   0  0  0  0  0  0  0  0  0  0  0  0
   -5.8142   15.9394    3.9084 C   0  0  0  0  0  0  0  0  0  0  0  0
   -4.1864   13.3763    7.0362 C   0  0  2  0  0  0  0  0  0  0  0  0
    1.4196   10.0076    9.7711 C   0  0  1  0  0  0  0  0  0  0  0  0
    1.6617    8.8020   10.4763 O   0  0  0  0  0  0  0  0  0  0  0  0
   -5.9485   14.5899    3.8165 C   0  0  2  0  0  0  0  0  0  0  0  0
   -4.8445   13.6938    3.9889 O   0  0  0  0  0  0  0  0  0  0  0  0
   -2.7904   12.9460    7.6212 C   0  0  2  0  0  0  0  0  0  0  0  0
   -1.9738   12.4166    6.5546 O   0  0  0  0  0  0  0  0  0  0  0  0
    0.5712    9.6375    8.5113 C   0  0  0  0  0  0  0  0  0  0  0  0
   -0.7938    9.1765    8.9497 O   0  0  0  0  0  0  0  0  0  0  0  0
   -7.2834   13.9044    3.5187 C   0  0  0  0  0  0  0  0  0  0  0  0
   -7.0506   12.8802    2.5232 O   0  0  0  0  0  0  0  0  0  0  0  0
   -3.0223   11.8266    8.7022 C   0  0  1  0  0  0  0  0  0  0  0  0
   -1.7784   11.4399    9.1960 O   0  0  0  0  0  0  0  0  0  0  0  0
    2.7934   10.4795    9.2367 C   0  0  0  0  0  0  0  0  0  0  0  0
    1.1844   12.7630   12.5055 C   0  0  0  0  0  0  0  0  0  0  0  0
  1  2  1  1  0  0  0
  1  6  1  0  0  0  0
  1 21  1  0  0  0  0
  3  4  1  1  0  0  0
  3  8  1  0  0  0  0
  3 28  1  0  0  0  0
  5  9  1  0  0  0  0
  5 25  1  0  0  0  0
  5 29  1  6  0  0  0
  6  7  1  1  0  0  0
  6 11  1  0  0  0  0
  8 12  1  0  0  0  0
  9 10  1  1  0  0  0
  9 14  1  0  0  0  0
 11 16  1  0  0  0  0
 12 13  1  6  0  0  0
 12 17  1  0  0  0  0
 14 15  1  1  0  0  0
 14 18  1  0  0  0  0
 15 31  1  0  0  0  0
 16 20  1  0  0  0  0
 17  2  1  6  0  0  0
 17 22  1  0  0  0  0
 18 19  1  1  0  0  0
 18 24  1  0  0  0  0
 18 30  1  0  0  0  0
 20 21  1  0  0  0  0
 20 26  1  6  0  0  0
 22 23  1  6  0  0  0
 22 28  1  0  0  0  0
 24 25  1  0  0  0  0
 26 27  1  0  0  0  0
 28 29  1  1  0  0  0
M  END
>  <CHROM.1>
-165.98784735,-133.78606362,-85.90040761,-156.54801953,135.03406180,83.52011298
-2.62160552,12.55708501,7.79282291,-2.26424304,-0.25787582,1.94026695

>  <Name>
ligand

>  <RI>
0

>  <Rbt.Current_Directory>
/home/itssahil/PROJECTS/Mol_Feturizer/New_Systems/rnas/4GPX

>  <Rbt.Executable>
rbdock ($Id: //depot/dev/client3/rdock/2013.1/src/exe/rbdock.cxx#4 $)

>  <Rbt.Library>
libRbt.so (2013.1, Build901 2013/11/27)

>  <Rbt.Parameter_File>
/export/apps/rDock/src/rDock_2013.1_src/data/scripts/dock_solv.prm

>  <Rbt.Receptor>
prm/pocket_docking_2.prm

>  <SCORE>
-20.2112

>  <SCORE.INTER>
-17.6842

>  <SCORE.INTER.CONST>
1

>  <SCORE.INTER.POLAR>
0

>  <SCORE.INTER.ROT>
6

>  <SCORE.INTER.SOLV>
20.4492

>  <SCORE.INTER.VDW>
-26.2059

>  <SCORE.INTER.norm>
-0.570459

>  <SCORE.INTRA>
-2.52963

>  <SCORE.INTRA.DIHEDRAL>
-6.22254

>  <SCORE.INTRA.DIHEDRAL.0>
20.6841

>  <SCORE.INTRA.POLAR>
0

>  <SCORE.INTRA.POLAR.0>
0

>  <SCORE.INTRA.REPUL>
0

>  <SCORE.INTRA.REPUL.0>
0

>  <SCORE.INTRA.SOLV>
0.355104

>  <SCORE.INTRA.SOLV.lig_0>
-64.6797

>  <SCORE.INTRA.VDW>
0.404091

>  <SCORE.INTRA.VDW.0>
-4.11825

>  <SCORE.INTRA.norm>
-0.0816008

>  <SCORE.RESTR>
0.00269251

>  <SCORE.RESTR.CAVITY>
0.00269251

>  <SCORE.RESTR.norm>
8.68553e-05

>  <SCORE.SYSTEM>
0

>  <SCORE.SYSTEM.CONST>
0

>  <SCORE.SYSTEM.DIHEDRAL>
0

>  <SCORE.SYSTEM.SOLV>
0

>  <SCORE.SYSTEM.norm>
0

>  <SCORE.heavy>
31

>  <SCORE.norm>
-0.651973

>  <RMSD>
0.666

$$$$
ligand
 OpenBabel11021811493D
libRbt.so/2013.1/901 2013/11/27
 31 33  0  0  0  0  0  0  0  0999 V2000
   -3.6413   14.0009    4.8550 C   0  0  2  0  0  0  0  0  0  0  0  0
   -4.1909   14.2422    6.1469 O   0  0  0  0  0  0  0  0  0  0  0  0
   -4.1231   12.4238    9.9904 C   0  0  2  0  0  0  0  0  0  0  0  0
   -4.3182   11.4523   11.0224 N   0  0  0  0  0  0  0  0  0  0  0  0
   -1.7004   10.1920   10.0412 C   0  0  2  0  0  0  0  0  0  0  0  0
   -3.2907   15.4180    4.2427 C   0  0  2  0  0  0  0  0  0  0  0  0
   -2.3392   16.0871    5.1236 N   0  0  0  0  0  0  0  0  0  0  0  0
   -5.5369   12.7908    9.3767 C   0  0  0  0  0  0  0  0  0  0  0  0
   -0.7805   10.5098   11.2624 C   0  0  2  0  0  0  0  0  0  0  0  0
   -1.4562   11.4202   12.1034 O   0  0  0  0  0  0  0  0  0  0  0  0
   -4.6019   16.2851    4.0759 C   0  0  0  0  0  0  0  0  0  0  0  0
   -5.3257   13.8581    8.2384 C   0  0  2  0  0  0  0  0  0  0  0  0
   -6.6367   14.1993    7.6601 N   0  0  0  0  0  0  0  0  0  0  0  0
    0.5465   11.1432   10.6953 C   0  0  1  0  0  0  0  0  0  0  0  0
    1.4668   11.4897   11.8284 N   0  0  0  0  0  0  0  0  0  0  0  0
   -5.8480   15.4129    3.6218 C   0  0  0  0  0  0  0  0  0  0  0  0
   -4.3653   13.2655    7.1151 C   0  0  2  0  0  0  0  0  0  0  0  0
    1.2623   10.0358    9.7365 C   0  0  1  0  0  0  0  0  0  0  0  0
    1.5522    8.8325   10.4275 O   0  0  0  0  0  0  0  0  0  0  0  0
   -5.7848   14.0552    3.6056 C   0  0  2  0  0  0  0  0  0  0  0  0
   -4.6077   13.3356    3.9906 O   0  0  0  0  0  0  0  0  0  0  0  0
   -2.9738   12.9009    7.7530 C   0  0  2  0  0  0  0  0  0  0  0  0
   -2.1132   12.3554    6.7301 O   0  0  0  0  0  0  0  0  0  0  0  0
    0.3123    9.6648    8.5517 C   0  0  0  0  0  0  0  0  0  0  0  0
   -1.0160    9.2166    9.1020 O   0  0  0  0  0  0  0  0  0  0  0  0
   -6.9572   13.1723    3.1738 C   0  0  0  0  0  0  0  0  0  0  0  0
   -8.0483   14.0362    2.7769 O   0  0  0  0  0  0  0  0  0  0  0  0
   -3.2022   11.8180    8.8713 C   0  0  1  0  0  0  0  0  0  0  0  0
   -1.9614   11.4888    9.4125 O   0  0  0  0  0  0  0  0  0  0  0  0
    2.5918   10.4942    9.0898 C   0  0  0  0  0  0  0  0  0  0  0  0
    1.2184   12.7742   12.5143 C   0  0  0  0  0  0  0  0  0  0  0  0
  1  2  1  1  0  0  0
  1  6  1  0  0  0  0
  1 21  1  0  0  0  0
  3  4  1  1  0  0  0
  3  8  1  0  0  0  0
  3 28  1  0  0  0  0
  5  9  1  0  0  0  0
  5 25  1  0  0  0  0
  5 29  1  6  0  0  0
  6  7  1  1  0  0  0
  6 11  1  0  0  0  0
  8 12  1  0  0  0  0
  9 10  1  1  0  0  0
  9 14  1  0  0  0  0
 11 16  1  0  0  0  0
 12 13  1  6  0  0  0
 12 17  1  0  0  0  0
 14 15  1  1  0  0  0
 14 18  1  0  0  0  0
 15 31  1  0  0  0  0
 16 20  1  0  0  0  0
 17  2  1  6  0  0  0
 17 22  1  0  0  0  0
 18 19  1  1  0  0  0
 18 24  1  0  0  0  0
 18 30  1  0  0  0  0
 20 21  1  0  0  0  0
 20 26  1  6  0  0  0
 22 23  1  6  0  0  0
 22 28  1  0  0  0  0
 24 25  1  0  0  0  0
 26 27  1  0  0  0  0
 28 29  1  1  0  0  0
M  END
>  <CHROM.1>
-165.87610250,-141.79261240,-82.45234129,-165.87046970,1.67129784,87.12888556
-2.75600595,12.50744634,7.83762424,-2.26851977,-0.24208969,1.91980807

>  <Name>
ligand

>  <RI>
0

>  <Rbt.Current_Directory>
/home/itssahil/PROJECTS/Mol_Feturizer/New_Systems/rnas/4GPX

>  <Rbt.Executable>
rbdock ($Id: //depot/dev/client3/rdock/2013.1/src/exe/rbdock.cxx#4 $)

>  <Rbt.Library>
libRbt.so (2013.1, Build901 2013/11/27)

>  <Rbt.Parameter_File>
/export/apps/rDock/src/rDock_2013.1_src/data/scripts/dock_solv.prm

>  <Rbt.Receptor>
prm/pocket_docking_2.prm

>  <SCORE>
-20.4376

>  <SCORE.INTER>
-17.3852

>  <SCORE.INTER.CONST>
1

>  <SCORE.INTER.POLAR>
0

>  <SCORE.INTER.ROT>
6

>  <SCORE.INTER.SOLV>
20.0852

>  <SCORE.INTER.VDW>
-25.8852

>  <SCORE.INTER.norm>
-0.560812

>  <SCORE.INTRA>
-3.0524

>  <SCORE.INTRA.DIHEDRAL>
-8.58131

>  <SCORE.INTRA.DIHEDRAL.0>
20.6841

>  <SCORE.INTRA.POLAR>
0

>  <SCORE.INTRA.POLAR.0>
0

>  <SCORE.INTRA.REPUL>
0

>  <SCORE.INTRA.REPUL.0>
0

>  <SCORE.INTRA.SOLV>
-0.664554

>  <SCORE.INTRA.SOLV.lig_0>
-64.6797

>  <SCORE.INTRA.VDW>
1.57053

>  <SCORE.INTRA.VDW.0>
-4.11825

>  <SCORE.INTRA.norm>
-0.0984645

>  <SCORE.RESTR>
0

>  <SCORE.RESTR.CAVITY>
0

>  <SCORE.RESTR.norm>
0

>  <SCORE.SYSTEM>
0

>  <SCORE.SYSTEM.CONST>
0

>  <SCORE.SYSTEM.DIHEDRAL>
0

>  <SCORE.SYSTEM.SOLV>
0

>  <SCORE.SYSTEM.norm>
0

>  <SCORE.heavy>
31

>  <SCORE.norm>
-0.659276

>  <RMSD>
0.669

$$$$
ligand
 OpenBabel11021811493D
libRbt.so/2013.1/901 2013/11/27
 31 33  0  0  0  0  0  0  0  0999 V2000
   -3.6244   13.9949    4.8329 C   0  0  2  0  0  0  0  0  0  0  0  0
   -4.1311   14.2366    6.1421 O   0  0  0  0  0  0  0  0  0  0  0  0
   -4.0855   12.3980    9.9764 C   0  0  2  0  0  0  0  0  0  0  0  0
   -4.2838   11.4200   11.0015 N   0  0  0  0  0  0  0  0  0  0  0  0
   -1.6571   10.1878   10.0550 C   0  0  2  0  0  0  0  0  0  0  0  0
   -3.2612   15.4095    4.2221 C   0  0  2  0  0  0  0  0  0  0  0  0
   -2.2703   16.0504    5.0804 N   0  0  0  0  0  0  0  0  0  0  0  0
   -5.4961   12.7603    9.3526 C   0  0  0  0  0  0  0  0  0  0  0  0
   -0.7419   10.5170   11.2767 C   0  0  2  0  0  0  0  0  0  0  0  0
   -1.4200   11.4369   12.1054 O   0  0  0  0  0  0  0  0  0  0  0  0
   -4.5576   16.3058    4.1006 C   0  0  0  0  0  0  0  0  0  0  0  0
   -5.2814   13.8350    8.2219 C   0  0  2  0  0  0  0  0  0  0  0  0
   -6.5894   14.1718    7.6342 N   0  0  0  0  0  0  0  0  0  0  0  0
    0.5883   11.1429   10.7087 C   0  0  1  0  0  0  0  0  0  0  0  0
    1.5043   11.4999   11.8421 N   0  0  0  0  0  0  0  0  0  0  0  0
   -5.8348   15.4645    3.6759 C   0  0  0  0  0  0  0  0  0  0  0  0
   -4.3081   13.2538    7.1036 C   0  0  2  0  0  0  0  0  0  0  0  0
    1.3067   10.0247    9.7644 C   0  0  1  0  0  0  0  0  0  0  0  0
    1.5921    8.8283   10.4690 O   0  0  0  0  0  0  0  0  0  0  0  0
   -5.8014   14.1059    3.6468 C   0  0  2  0  0  0  0  0  0  0  0  0
   -4.6296   13.3580    3.9915 O   0  0  0  0  0  0  0  0  0  0  0  0
   -2.9200   12.8936    7.7513 C   0  0  2  0  0  0  0  0  0  0  0  0
   -2.0477   12.3584    6.7329 O   0  0  0  0  0  0  0  0  0  0  0  0
    0.3612    9.6427    8.5795 C   0  0  0  0  0  0  0  0  0  0  0  0
   -0.9700    9.2019    9.1288 O   0  0  0  0  0  0  0  0  0  0  0  0
   -7.0046   13.2520    3.2421 C   0  0  0  0  0  0  0  0  0  0  0  0
   -8.0314   14.1352    2.7319 O   0  0  0  0  0  0  0  0  0  0  0  0
   -3.1517   11.8035    8.8619 C   0  0  1  0  0  0  0  0  0  0  0  0
   -1.9137   11.4784    9.4118 O   0  0  0  0  0  0  0  0  0  0  0  0
    2.6395   10.4747    9.1186 C   0  0  0  0  0  0  0  0  0  0  0  0
    1.2909   12.8168   12.4764 C   0  0  0  0  0  0  0  0  0  0  0  0
  1  2  1  1  0  0  0
  1  6  1  0  0  0  0
  1 21  1  0  0  0  0
  3  4  1  1  0  0  0
  3  8  1  0  0  0  0
  3 28  1  0  0  0  0
  5  9  1  0  0  0  0
  5 25  1  0  0  0  0
  5 29  1  6  0  0  0
  6  7  1  1  0  0  0
  6 11  1  0  0  0  0
  8 12  1  0  0  0  0
  9 10  1  1  0  0  0
  9 14  1  0  0  0  0
 11 16  1  0  0  0  0
 12 13  1  6  0  0  0
 12 17  1  0  0  0  0
 14 15  1  1  0  0  0
 14 18  1  0  0  0  0
 15 31  1  0  0  0  0
 16 20  1  0  0  0  0
 17  2  1  6  0  0  0
 17 22  1  0  0  0  0
 18 19  1  1  0  0  0
 18 24  1  0  0  0  0
 18 30  1  0  0  0  0
 20 21  1  0  0  0  0
 20 26  1  6  0  0  0
 22 23  1  6  0  0  0
 22 28  1  0  0  0  0
 24 25  1  0  0  0  0
 26 27  1  0  0  0  0
 28 29  1  1  0  0  0
M  END
>  <CHROM.1>
-166.39284376,-141.80169959,-84.95531952,-162.95715649,8.44379472,86.12298016
-2.71917160,12.51093007,7.84093447,-2.26638868,-0.22301710,1.93911638

>  <Name>
ligand

>  <RI>
0

>  <Rbt.Current_Directory>
/home/itssahil/PROJECTS/Mol_Feturizer/New_Systems/rnas/4GPX

>  <Rbt.Executable>
rbdock ($Id: //depot/dev/client3/rdock/2013.1/src/exe/rbdock.cxx#4 $)

>  <Rbt.Library>
libRbt.so (2013.1, Build901 2013/11/27)

>  <Rbt.Parameter_File>
/export/apps/rDock/src/rDock_2013.1_src/data/scripts/dock_solv.prm

>  <Rbt.Receptor>
prm/pocket_docking_2.prm

>  <SCORE>
-20.4066

>  <SCORE.INTER>
-17.444

>  <SCORE.INTER.CONST>
1

>  <SCORE.INTER.POLAR>
0

>  <SCORE.INTER.ROT>
6

>  <SCORE.INTER.SOLV>
20.0769

>  <SCORE.INTER.VDW>
-25.9216

>  <SCORE.INTER.norm>
-0.562709

>  <SCORE.INTRA>
-2.96264

>  <SCORE.INTRA.DIHEDRAL>
-8.27194

>  <SCORE.INTRA.DIHEDRAL.0>
20.6841

>  <SCORE.INTRA.POLAR>
0

>  <SCORE.INTRA.POLAR.0>
0

>  <SCORE.INTRA.REPUL>
0

>  <SCORE.INTRA.REPUL.0>
0

>  <SCORE.INTRA.SOLV>
-0.457991

>  <SCORE.INTRA.SOLV.lig_0>
-64.6797

>  <SCORE.INTRA.VDW>
1.40232

>  <SCORE.INTRA.VDW.0>
-4.11825

>  <SCORE.INTRA.norm>
-0.0955692

>  <SCORE.RESTR>
0

>  <SCORE.RESTR.CAVITY>
0

>  <SCORE.RESTR.norm>
0

>  <SCORE.SYSTEM>
0

>  <SCORE.SYSTEM.CONST>
0

>  <SCORE.SYSTEM.DIHEDRAL>
0

>  <SCORE.SYSTEM.SOLV>
0

>  <SCORE.SYSTEM.norm>
0

>  <SCORE.heavy>
31

>  <SCORE.norm>
-0.658278

>  <RMSD>
0.670

$$$$
ligand
 OpenBabel11021811493D
libRbt.so/2013.1/901 2013/11/27
 31 33  0  0  0  0  0  0  0  0999 V2000
   -3.5877   14.1176    4.8258 C   0  0  2  0  0  0  0  0  0  0  0  0
   -3.8996   14.3728    6.1922 O   0  0  0  0  0  0  0  0  0  0  0  0
   -3.9732   12.5059   10.0123 C   0  0  2  0  0  0  0  0  0  0  0  0
   -4.2084   11.5225   11.0245 N   0  0  0  0  0  0  0  0  0  0  0  0
   -1.5540   10.2495   10.0892 C   0  0  2  0  0  0  0  0  0  0  0  0
   -3.1833   15.5091    4.1886 C   0  0  2  0  0  0  0  0  0  0  0  0
   -2.0384   16.0440    4.9183 N   0  0  0  0  0  0  0  0  0  0  0  0
   -5.3631   12.8880    9.3550 C   0  0  0  0  0  0  0  0  0  0  0  0
   -0.6224   10.5193   11.3131 C   0  0  2  0  0  0  0  0  0  0  0  0
   -1.2787   11.4173   12.1822 O   0  0  0  0  0  0  0  0  0  0  0  0
   -4.4011   16.5154    4.2456 C   0  0  0  0  0  0  0  0  0  0  0  0
   -5.1077   13.9685    8.2384 C   0  0  2  0  0  0  0  0  0  0  0  0
   -6.3963   14.3238    7.6196 N   0  0  0  0  0  0  0  0  0  0  0  0
    0.7115   11.1465   10.7555 C   0  0  1  0  0  0  0  0  0  0  0  0
    1.6436   11.4473   11.8921 N   0  0  0  0  0  0  0  0  0  0  0  0
   -5.7909   15.7957    3.9807 C   0  0  0  0  0  0  0  0  0  0  0  0
   -4.1119   13.3849    7.1412 C   0  0  2  0  0  0  0  0  0  0  0  0
    1.4041   10.0540    9.7629 C   0  0  1  0  0  0  0  0  0  0  0  0
    1.6782    8.8279   10.4196 O   0  0  0  0  0  0  0  0  0  0  0  0
   -5.8806   14.4402    3.9328 C   0  0  2  0  0  0  0  0  0  0  0  0
   -4.7442   13.5875    4.1148 O   0  0  0  0  0  0  0  0  0  0  0  0
   -2.7450   13.0050    7.8220 C   0  0  2  0  0  0  0  0  0  0  0  0
   -1.8523   12.4678    6.8224 O   0  0  0  0  0  0  0  0  0  0  0  0
    0.4417    9.7304    8.5742 C   0  0  0  0  0  0  0  0  0  0  0  0
   -0.8906    9.2890    9.1200 O   0  0  0  0  0  0  0  0  0  0  0  0
   -7.1957   13.7013    3.6781 C   0  0  0  0  0  0  0  0  0  0  0  0
   -7.0544   12.9406    2.4551 O   0  0  0  0  0  0  0  0  0  0  0  0
   -3.0171   11.9094    8.9179 C   0  0  1  0  0  0  0  0  0  0  0  0
   -1.7974   11.5669    9.4972 O   0  0  0  0  0  0  0  0  0  0  0  0
    2.7373   10.5083    9.1210 C   0  0  0  0  0  0  0  0  0  0  0  0
    1.4440   12.7343   12.5892 C   0  0  0  0  0  0  0  0  0  0  0  0
  1  2  1  1  0  0  0
  1  6  1  0  0  0  0
  1 21  1  0  0  0  0
  3  4  1  1  0  0  0
  3  8  1  0  0  0  0
  3 28  1  0  0  0  0
  5  9  1  0  0  0  0
  5 25  1  0  0  0  0
  5 29  1  6  0  0  0
  6  7  1  1  0  0  0
  6 11  1  0  0  0  0
  8 12  1  0  0  0  0
  9 10  1  1  0  0  0
  9 14  1  0  0  0  0
 11 16  1  0  0  0  0
 12 13  1  6  0  0  0
 12 17  1  0  0  0  0
 14 15  1  1  0  0  0
 14 18  1  0  0  0  0
 15 31  1  0  0  0  0
 16 20  1  0  0  0  0
 17  2  1  6  0  0  0
 17 22  1  0  0  0  0
 18 19  1  1  0  0  0
 18 24  1  0  0  0  0
 18 30  1  0  0  0  0
 20 21  1  0  0  0  0
 20 26  1  6  0  0  0
 22 23  1  6  0  0  0
 22 28  1  0  0  0  0
 24 25  1  0  0  0  0
 26 27  1  0  0  0  0
 28 29  1  1  0  0  0
M  END
>  <CHROM.1>
-170.21492921,-144.77601373,-84.13625852,-151.40652309,118.33286688,88.64117057
-2.58332280,12.57020207,7.89014925,-2.26524651,-0.24480177,1.92973401

>  <Name>
ligand

>  <RI>
0

>  <Rbt.Current_Directory>
/home/itssahil/PROJECTS/Mol_Feturizer/New_Systems/rnas/4GPX

>  <Rbt.Executable>
rbdock ($Id: //depot/dev/client3/rdock/2013.1/src/exe/rbdock.cxx#4 $)

>  <Rbt.Library>
libRbt.so (2013.1, Build901 2013/11/27)

>  <Rbt.Parameter_File>
/export/apps/rDock/src/rDock_2013.1_src/data/scripts/dock_solv.prm

>  <Rbt.Receptor>
prm/pocket_docking_2.prm

>  <SCORE>
-20.3041

>  <SCORE.INTER>
-17.2455

>  <SCORE.INTER.CONST>
1

>  <SCORE.INTER.POLAR>
0

>  <SCORE.INTER.ROT>
6

>  <SCORE.INTER.SOLV>
20.0966

>  <SCORE.INTER.VDW>
-25.7959

>  <SCORE.INTER.norm>
-0.556307

>  <SCORE.INTRA>
-3.06018

>  <SCORE.INTRA.DIHEDRAL>
-6.8612

>  <SCORE.INTRA.DIHEDRAL.0>
20.6841

>  <SCORE.INTRA.POLAR>
0

>  <SCORE.INTRA.POLAR.0>
0

>  <SCORE.INTRA.REPUL>
0

>  <SCORE.INTRA.REPUL.0>
0

>  <SCORE.INTRA.SOLV>
0.277646

>  <SCORE.INTRA.SOLV.lig_0>
-64.6797

>  <SCORE.INTRA.VDW>
0.231599

>  <SCORE.INTRA.VDW.0>
-4.11825

>  <SCORE.INTRA.norm>
-0.0987154

>  <SCORE.RESTR>
0.00158913

>  <SCORE.RESTR.CAVITY>
0.00158913

>  <SCORE.RESTR.norm>
5.12622e-05

>  <SCORE.SYSTEM>
0

>  <SCORE.SYSTEM.CONST>
0

>  <SCORE.SYSTEM.DIHEDRAL>
0

>  <SCORE.SYSTEM.SOLV>
0

>  <SCORE.SYSTEM.norm>
0

>  <SCORE.heavy>
31

>  <SCORE.norm>
-0.654971

>  <RMSD>
0.672

$$$$
ligand
 OpenBabel11021811493D
libRbt.so/2013.1/901 2013/11/27
 31 33  0  0  0  0  0  0  0  0999 V2000
   -3.6042   14.0127    4.8625 C   0  0  2  0  0  0  0  0  0  0  0  0
   -4.1352   14.2462    6.1636 O   0  0  0  0  0  0  0  0  0  0  0  0
   -4.0694   12.3959    9.9919 C   0  0  2  0  0  0  0  0  0  0  0  0
   -4.2638   11.4154   11.0155 N   0  0  0  0  0  0  0  0  0  0  0  0
   -1.6488   10.1794   10.0512 C   0  0  2  0  0  0  0  0  0  0  0  0
   -3.2539   15.4330    4.2574 C   0  0  2  0  0  0  0  0  0  0  0  0
   -2.2869   16.0894    5.1311 N   0  0  0  0  0  0  0  0  0  0  0  0
   -5.4830   12.7646    9.3789 C   0  0  0  0  0  0  0  0  0  0  0  0
   -0.7345   10.5063   11.2742 C   0  0  2  0  0  0  0  0  0  0  0  0
   -1.4129   11.4252   12.1038 O   0  0  0  0  0  0  0  0  0  0  0  0
   -4.5623   16.3087    4.1155 C   0  0  0  0  0  0  0  0  0  0  0  0
   -5.2725   13.8419    8.2500 C   0  0  2  0  0  0  0  0  0  0  0  0
   -6.5834   14.1847    7.6722 N   0  0  0  0  0  0  0  0  0  0  0  0
    0.5964   11.1327   10.7083 C   0  0  1  0  0  0  0  0  0  0  0  0
    1.5116   11.4876   11.8430 N   0  0  0  0  0  0  0  0  0  0  0  0
   -5.8192   15.4473    3.6708 C   0  0  0  0  0  0  0  0  0  0  0  0
   -4.3088   13.2610    7.1233 C   0  0  2  0  0  0  0  0  0  0  0  0
    1.3152   10.0157    9.7628 C   0  0  1  0  0  0  0  0  0  0  0  0
    1.5996    8.8180   10.4659 O   0  0  0  0  0  0  0  0  0  0  0  0
   -5.7639   14.0895    3.6424 C   0  0  2  0  0  0  0  0  0  0  0  0
   -4.5859   13.3601    4.0055 O   0  0  0  0  0  0  0  0  0  0  0  0
   -2.9175   12.8945    7.7605 C   0  0  2  0  0  0  0  0  0  0  0  0
   -2.0538   12.3595    6.7345 O   0  0  0  0  0  0  0  0  0  0  0  0
    0.3705    9.6358    8.5766 C   0  0  0  0  0  0  0  0  0  0  0  0
   -0.9613    9.1947    9.1240 O   0  0  0  0  0  0  0  0  0  0  0  0
   -6.9469   13.2167    3.2189 C   0  0  0  0  0  0  0  0  0  0  0  0
   -7.9779   14.0832    2.6894 O   0  0  0  0  0  0  0  0  0  0  0  0
   -3.1451   11.8018    8.8693 C   0  0  1  0  0  0  0  0  0  0  0  0
   -1.9044   11.4711    9.4098 O   0  0  0  0  0  0  0  0  0  0  0  0
    2.6487   10.4663    9.1189 C   0  0  0  0  0  0  0  0  0  0  0  0
    1.2967   12.8026   12.4807 C   0  0  0  0  0  0  0  0  0  0  0  0
  1  2  1  1  0  0  0
  1  6  1  0  0  0  0
  1 21  1  0  0  0  0
  3  4  1  1  0  0  0
  3  8  1  0  0  0  0
  3 28  1  0  0  0  0
  5  9  1  0  0  0  0
  5 25  1  0  0  0  0
  5 29  1  6  0  0  0
  6  7  1  1  0  0  0
  6 11  1  0  0  0  0
  8 12  1  0  0  0  0
  9 10  1  1  0  0  0
  9 14  1  0  0  0  0
 11 16  1  0  0  0  0
 12 13  1  6  0  0  0
 12 17  1  0  0  0  0
 14 15  1  1  0  0  0
 14 18  1  0  0  0  0
 15 31  1  0  0  0  0
 16 20  1  0  0  0  0
 17  2  1  6  0  0  0
 17 22  1  0  0  0  0
 18 19  1  1  0  0  0
 18 24  1  0  0  0  0
 18 30  1  0  0  0  0
 20 21  1  0  0  0  0
 20 26  1  6  0  0  0
 22 23  1  6  0  0  0
 22 28  1  0  0  0  0
 24 25  1  0  0  0  0
 26 27  1  0  0  0  0
 28 29  1  1  0  0  0
M  END
>  <CHROM.1>
-166.23743078,-141.24971105,-84.85568873,-164.73772200,8.59459898,85.92125939
-2.70701016,12.50680694,7.84801416,-2.26664281,-0.23291275,1.93188320

>  <Name>
ligand

>  <RI>
0

>  <Rbt.Current_Directory>
/home/itssahil/PROJECTS/Mol_Feturizer/New_Systems/rnas/4GPX

>  <Rbt.Executable>
rbdock ($Id: //depot/dev/client3/rdock/2013.1/src/exe/rbdock.cxx#4 $)

>  <Rbt.Library>
libRbt.so (2013.1, Build901 2013/11/27)

>  <Rbt.Parameter_File>
/export/apps/rDock/src/rDock_2013.1_src/data/scripts/dock_solv.prm

>  <Rbt.Receptor>
prm/pocket_docking_2.prm

>  <SCORE>
-20.4291

>  <SCORE.INTER>
-17.353

>  <SCORE.INTER.CONST>
1

>  <SCORE.INTER.POLAR>
0

>  <SCORE.INTER.ROT>
6

>  <SCORE.INTER.SOLV>
19.9738

>  <SCORE.INTER.VDW>
-25.8266

>  <SCORE.INTER.norm>
-0.559774

>  <SCORE.INTRA>
-3.0761

>  <SCORE.INTRA.DIHEDRAL>
-8.4466

>  <SCORE.INTRA.DIHEDRAL.0>
20.6841

>  <SCORE.INTRA.POLAR>
0

>  <SCORE.INTRA.POLAR.0>
0

>  <SCORE.INTRA.REPUL>
0

>  <SCORE.INTRA.REPUL.0>
0

>  <SCORE.INTRA.SOLV>
-0.572673

>  <SCORE.INTRA.SOLV.lig_0>
-64.6797

>  <SCORE.INTRA.VDW>
1.43354

>  <SCORE.INTRA.VDW.0>
-4.11825

>  <SCORE.INTRA.norm>
-0.099229

>  <SCORE.RESTR>
0

>  <SCORE.RESTR.CAVITY>
0

>  <SCORE.RESTR.norm>
0

>  <SCORE.SYSTEM>
0

>  <SCORE.SYSTEM.CONST>
0

>  <SCORE.SYSTEM.DIHEDRAL>
0

>  <SCORE.SYSTEM.SOLV>
0

>  <SCORE.SYSTEM.norm>
0

>  <SCORE.heavy>
31

>  <SCORE.norm>
-0.659003

>  <RMSD>
0.675

$$$$
ligand
 OpenBabel11021811493D
libRbt.so/2013.1/901 2013/11/27
 31 33  0  0  0  0  0  0  0  0999 V2000
   -3.5776   14.0211    4.8482 C   0  0  2  0  0  0  0  0  0  0  0  0
   -4.1040   14.2667    6.1488 O   0  0  0  0  0  0  0  0  0  0  0  0
   -4.0679   12.4382    9.9880 C   0  0  2  0  0  0  0  0  0  0  0  0
   -4.2730   11.4647   11.0162 N   0  0  0  0  0  0  0  0  0  0  0  0
   -1.6574   10.2044   10.0632 C   0  0  2  0  0  0  0  0  0  0  0  0
   -3.2365   15.4360    4.2256 C   0  0  2  0  0  0  0  0  0  0  0  0
   -2.2689   16.1067    5.0876 N   0  0  0  0  0  0  0  0  0  0  0  0
   -5.4763   12.8114    9.3658 C   0  0  0  0  0  0  0  0  0  0  0  0
   -0.7389   10.5253   11.2847 C   0  0  2  0  0  0  0  0  0  0  0  0
   -1.4097   11.4488   12.1152 O   0  0  0  0  0  0  0  0  0  0  0  0
   -4.5495   16.3040    4.0794 C   0  0  0  0  0  0  0  0  0  0  0  0
   -5.2541   13.8810    8.2317 C   0  0  2  0  0  0  0  0  0  0  0  0
   -6.5601   14.2279    7.6455 N   0  0  0  0  0  0  0  0  0  0  0  0
    0.5952   11.1426   10.7164 C   0  0  1  0  0  0  0  0  0  0  0  0
    1.5148   11.4914   11.8495 N   0  0  0  0  0  0  0  0  0  0  0  0
   -5.8043   15.4318    3.6500 C   0  0  0  0  0  0  0  0  0  0  0  0
   -4.2880   13.2881    7.1133 C   0  0  2  0  0  0  0  0  0  0  0  0
    1.3049   10.0206    9.7699 C   0  0  1  0  0  0  0  0  0  0  0  0
    1.5823    8.8212   10.4726 O   0  0  0  0  0  0  0  0  0  0  0  0
   -5.7427   14.0740    3.6366 C   0  0  2  0  0  0  0  0  0  0  0  0
   -4.5597   13.3542    4.0029 O   0  0  0  0  0  0  0  0  0  0  0  0
   -2.9020   12.9174    7.7595 C   0  0  2  0  0  0  0  0  0  0  0  0
   -2.0364   12.3717    6.7410 O   0  0  0  0  0  0  0  0  0  0  0  0
    0.3556    9.6470    8.5853 C   0  0  0  0  0  0  0  0  0  0  0  0
   -0.9782    9.2150    9.1350 O   0  0  0  0  0  0  0  0  0  0  0  0
   -6.9234   13.1910    3.2282 C   0  0  0  0  0  0  0  0  0  0  0  0
   -8.0097   14.0546    2.8175 O   0  0  0  0  0  0  0  0  0  0  0  0
   -3.1414   11.8324    8.8735 C   0  0  1  0  0  0  0  0  0  0  0  0
   -1.9054   11.4978    9.4221 O   0  0  0  0  0  0  0  0  0  0  0  0
    2.6403   10.4621    9.1236 C   0  0  0  0  0  0  0  0  0  0  0  0
    1.3399   12.8264   12.4572 C   0  0  0  0  0  0  0  0  0  0  0  0
  1  2  1  1  0  0  0
  1  6  1  0  0  0  0
  1 21  1  0  0  0  0
  3  4  1  1  0  0  0
  3  8  1  0  0  0  0
  3 28  1  0  0  0  0
  5  9  1  0  0  0  0
  5 25  1  0  0  0  0
  5 29  1  6  0  0  0
  6  7  1  1  0  0  0
  6 11  1  0  0  0  0
  8 12  1  0  0  0  0
  9 10  1  1  0  0  0
  9 14  1  0  0  0  0
 11 16  1  0  0  0  0
 12 13  1  6  0  0  0
 12 17  1  0  0  0  0
 14 15  1  1  0  0  0
 14 18  1  0  0  0  0
 15 31  1  0  0  0  0
 16 20  1  0  0  0  0
 17  2  1  6  0  0  0
 17 22  1  0  0  0  0
 18 19  1  1  0  0  0
 18 24  1  0  0  0  0
 18 30  1  0  0  0  0
 20 21  1  0  0  0  0
 20 26  1  6  0  0  0
 22 23  1  6  0  0  0
 22 28  1  0  0  0  0
 24 25  1  0  0  0  0
 26 27  1  0  0  0  0
 28 29  1  1  0  0  0
M  END
>  <CHROM.1>
-167.27307647,-141.81206767,-86.87133479,-164.23074120,3.02118144,86.39269748
-2.69991792,12.52051373,7.84817177,-2.26575795,-0.23107882,1.93235987

>  <Name>
ligand

>  <RI>
0

>  <Rbt.Current_Directory>
/home/itssahil/PROJECTS/Mol_Feturizer/New_Systems/rnas/4GPX

>  <Rbt.Executable>
rbdock ($Id: //depot/dev/client3/rdock/2013.1/src/exe/rbdock.cxx#4 $)

>  <Rbt.Library>
libRbt.so (2013.1, Build901 2013/11/27)

>  <Rbt.Parameter_File>
/export/apps/rDock/src/rDock_2013.1_src/data/scripts/dock_solv.prm

>  <Rbt.Receptor>
prm/pocket_docking_2.prm

>  <SCORE>
-20.4188

>  <SCORE.INTER>
-17.2656

>  <SCORE.INTER.CONST>
1

>  <SCORE.INTER.POLAR>
0

>  <SCORE.INTER.ROT>
6

>  <SCORE.INTER.SOLV>
19.9214

>  <SCORE.INTER.VDW>
-25.7509

>  <SCORE.INTER.norm>
-0.556956

>  <SCORE.INTRA>
-3.1532

>  <SCORE.INTRA.DIHEDRAL>
-8.53234

>  <SCORE.INTRA.DIHEDRAL.0>
20.6841

>  <SCORE.INTRA.POLAR>
0

>  <SCORE.INTRA.POLAR.0>
0

>  <SCORE.INTRA.REPUL>
0

>  <SCORE.INTRA.REPUL.0>
0

>  <SCORE.INTRA.SOLV>
-0.572402

>  <SCORE.INTRA.SOLV.lig_0>
-64.6797

>  <SCORE.INTRA.VDW>
1.39917

>  <SCORE.INTRA.VDW.0>
-4.11825

>  <SCORE.INTRA.norm>
-0.101716

>  <SCORE.RESTR>
0

>  <SCORE.RESTR.CAVITY>
0

>  <SCORE.RESTR.norm>
0

>  <SCORE.SYSTEM>
0

>  <SCORE.SYSTEM.CONST>
0

>  <SCORE.SYSTEM.DIHEDRAL>
0

>  <SCORE.SYSTEM.SOLV>
0

>  <SCORE.SYSTEM.norm>
0

>  <SCORE.heavy>
31

>  <SCORE.norm>
-0.658672

>  <RMSD>
0.676

$$$$
ligand
 OpenBabel11021811493D
libRbt.so/2013.1/901 2013/11/27
 31 33  0  0  0  0  0  0  0  0999 V2000
   -3.6850   14.1715    4.7754 C   0  0  2  0  0  0  0  0  0  0  0  0
   -4.0261   14.4178    6.1363 O   0  0  0  0  0  0  0  0  0  0  0  0
   -4.0085   12.5128    9.9383 C   0  0  2  0  0  0  0  0  0  0  0  0
   -4.2291   11.5237   10.9482 N   0  0  0  0  0  0  0  0  0  0  0  0
   -1.6559   10.2392    9.9847 C   0  0  2  0  0  0  0  0  0  0  0  0
   -3.2187   15.5578    4.1698 C   0  0  2  0  0  0  0  0  0  0  0  0
   -2.0779   16.0452    4.9381 N   0  0  0  0  0  0  0  0  0  0  0  0
   -5.4119   12.9287    9.3320 C   0  0  0  0  0  0  0  0  0  0  0  0
   -0.7764   10.5467   11.2379 C   0  0  2  0  0  0  0  0  0  0  0  0
   -1.4666   11.4732   12.0491 O   0  0  0  0  0  0  0  0  0  0  0  0
   -4.4048   16.6021    4.2084 C   0  0  0  0  0  0  0  0  0  0  0  0
   -5.1727   14.0156    8.2180 C   0  0  2  0  0  0  0  0  0  0  0  0
   -6.4741   14.4024    7.6465 N   0  0  0  0  0  0  0  0  0  0  0  0
    0.5818   11.1538   10.7177 C   0  0  1  0  0  0  0  0  0  0  0  0
    1.4655   11.4896   11.8828 N   0  0  0  0  0  0  0  0  0  0  0  0
   -5.8091   15.9316    3.8953 C   0  0  0  0  0  0  0  0  0  0  0  0
   -4.2260   13.4244    7.0823 C   0  0  2  0  0  0  0  0  0  0  0  0
    1.3129   10.0290    9.7911 C   0  0  1  0  0  0  0  0  0  0  0  0
    1.5553    8.8243   10.4977 O   0  0  0  0  0  0  0  0  0  0  0  0
   -5.9407   14.5805    3.8252 C   0  0  2  0  0  0  0  0  0  0  0  0
   -4.8377   13.6890    4.0255 O   0  0  0  0  0  0  0  0  0  0  0  0
   -2.8449   13.0109    7.7128 C   0  0  2  0  0  0  0  0  0  0  0  0
   -1.9969   12.4670    6.6785 O   0  0  0  0  0  0  0  0  0  0  0  0
    0.4009    9.6688    8.5735 C   0  0  0  0  0  0  0  0  0  0  0  0
   -0.9547    9.2471    9.0758 O   0  0  0  0  0  0  0  0  0  0  0  0
   -7.2713   13.8882    3.5240 C   0  0  0  0  0  0  0  0  0  0  0  0
   -7.0440   12.9117    2.4803 O   0  0  0  0  0  0  0  0  0  0  0  0
   -3.1017   11.9094    8.8065 C   0  0  1  0  0  0  0  0  0  0  0  0
   -1.8702   11.5372    9.3410 O   0  0  0  0  0  0  0  0  0  0  0  0
    2.6733   10.4605    9.1923 C   0  0  0  0  0  0  0  0  0  0  0  0
    1.2479   12.8036   12.5218 C   0  0  0  0  0  0  0  0  0  0  0  0
  1  2  1  1  0  0  0
  1  6  1  0  0  0  0
  1 21  1  0  0  0  0
  3  4  1  1  0  0  0
  3  8  1  0  0  0  0
  3 28  1  0  0  0  0
  5  9  1  0  0  0  0
  5 25  1  0  0  0  0
  5 29  1  6  0  0  0
  6  7  1  1  0  0  0
  6 11  1  0  0  0  0
  8 12  1  0  0  0  0
  9 10  1  1  0  0  0
  9 14  1  0  0  0  0
 11 16  1  0  0  0  0
 12 13  1  6  0  0  0
 12 17  1  0  0  0  0
 14 15  1  1  0  0  0
 14 18  1  0  0  0  0
 15 31  1  0  0  0  0
 16 20  1  0  0  0  0
 17  2  1  6  0  0  0
 17 22  1  0  0  0  0
 18 19  1  1  0  0  0
 18 24  1  0  0  0  0
 18 30  1  0  0  0  0
 20 21  1  0  0  0  0
 20 26  1  6  0  0  0
 22 23  1  6  0  0  0
 22 28  1  0  0  0  0
 24 25  1  0  0  0  0
 26 27  1  0  0  0  0
 28 29  1  1  0  0  0
M  END
>  <CHROM.1>
-166.60084330,-138.79651405,-84.65259676,-155.40948628,131.03905706,84.83228410
-2.66890449,12.60099721,7.83856237,-2.25841681,-0.26137772,1.92981188

>  <Name>
ligand

>  <RI>
0

>  <Rbt.Current_Directory>
/home/itssahil/PROJECTS/Mol_Feturizer/New_Systems/rnas/4GPX

>  <Rbt.Executable>
rbdock ($Id: //depot/dev/client3/rdock/2013.1/src/exe/rbdock.cxx#4 $)

>  <Rbt.Library>
libRbt.so (2013.1, Build901 2013/11/27)

>  <Rbt.Parameter_File>
/export/apps/rDock/src/rDock_2013.1_src/data/scripts/dock_solv.prm

>  <Rbt.Receptor>
prm/pocket_docking_2.prm

>  <SCORE>
-20.3809

>  <SCORE.INTER>
-17.4698

>  <SCORE.INTER.CONST>
1

>  <SCORE.INTER.POLAR>
0

>  <SCORE.INTER.ROT>
6

>  <SCORE.INTER.SOLV>
20.3777

>  <SCORE.INTER.VDW>
-26.0391

>  <SCORE.INTER.norm>
-0.563542

>  <SCORE.INTRA>
-2.91111

>  <SCORE.INTRA.DIHEDRAL>
-6.73238

>  <SCORE.INTRA.DIHEDRAL.0>
20.6841

>  <SCORE.INTRA.POLAR>
0

>  <SCORE.INTRA.POLAR.0>
0

>  <SCORE.INTRA.REPUL>
0

>  <SCORE.INTRA.REPUL.0>
0

>  <SCORE.INTRA.SOLV>
0.246715

>  <SCORE.INTRA.SOLV.lig_0>
-64.6797

>  <SCORE.INTRA.VDW>
0.331726

>  <SCORE.INTRA.VDW.0>
-4.11825

>  <SCORE.INTRA.norm>
-0.0939067

>  <SCORE.RESTR>
0

>  <SCORE.RESTR.CAVITY>
0

>  <SCORE.RESTR.norm>
0

>  <SCORE.SYSTEM>
0

>  <SCORE.SYSTEM.CONST>
0

>  <SCORE.SYSTEM.DIHEDRAL>
0

>  <SCORE.SYSTEM.SOLV>
0

>  <SCORE.SYSTEM.norm>
0

>  <SCORE.heavy>
31

>  <SCORE.norm>
-0.657448

>  <RMSD>
0.681

$$$$
ligand
 OpenBabel11021811493D
libRbt.so/2013.1/901 2013/11/27
 31 33  0  0  0  0  0  0  0  0999 V2000
   -3.6379   14.1896    4.7575 C   0  0  2  0  0  0  0  0  0  0  0  0
   -3.9581   14.4250    6.1254 O   0  0  0  0  0  0  0  0  0  0  0  0
   -4.0464   12.4996    9.9161 C   0  0  2  0  0  0  0  0  0  0  0  0
   -4.2876   11.5017   10.9126 N   0  0  0  0  0  0  0  0  0  0  0  0
   -1.6592   10.2561   10.0235 C   0  0  2  0  0  0  0  0  0  0  0  0
   -3.2053   15.5857    4.1494 C   0  0  2  0  0  0  0  0  0  0  0  0
   -2.0589   16.0887    4.8989 N   0  0  0  0  0  0  0  0  0  0  0  0
   -5.4335   12.8979    9.2625 C   0  0  0  0  0  0  0  0  0  0  0  0
   -0.7652   10.5517   11.2693 C   0  0  2  0  0  0  0  0  0  0  0  0
   -1.4424   11.4763   12.0934 O   0  0  0  0  0  0  0  0  0  0  0  0
   -4.4074   16.6103    4.2139 C   0  0  0  0  0  0  0  0  0  0  0  0
   -5.1715   13.9944    8.1631 C   0  0  2  0  0  0  0  0  0  0  0  0
   -6.4575   14.3649    7.5478 N   0  0  0  0  0  0  0  0  0  0  0  0
    0.5904   11.1554   10.7388 C   0  0  1  0  0  0  0  0  0  0  0  0
    1.4878   11.4798   11.8966 N   0  0  0  0  0  0  0  0  0  0  0  0
   -5.8060   15.9181    3.9235 C   0  0  0  0  0  0  0  0  0  0  0  0
   -4.1764   13.4235    7.0587 C   0  0  2  0  0  0  0  0  0  0  0  0
    1.3064   10.0329    9.7977 C   0  0  1  0  0  0  0  0  0  0  0  0
    1.5503    8.8227   10.4943 O   0  0  0  0  0  0  0  0  0  0  0  0
   -5.9169   14.5653    3.8501 C   0  0  2  0  0  0  0  0  0  0  0  0
   -4.7961   13.6912    4.0266 O   0  0  0  0  0  0  0  0  0  0  0  0
   -2.8124   13.0271    7.7357 C   0  0  2  0  0  0  0  0  0  0  0  0
   -1.9203   12.5016    6.7295 O   0  0  0  0  0  0  0  0  0  0  0  0
    0.3801    9.6848    8.5874 C   0  0  0  0  0  0  0  0  0  0  0  0
   -0.9722    9.2663    9.1013 O   0  0  0  0  0  0  0  0  0  0  0  0
   -7.2413   13.8525    3.5702 C   0  0  0  0  0  0  0  0  0  0  0  0
   -7.0353   12.9376    2.4681 O   0  0  0  0  0  0  0  0  0  0  0  0
   -3.0911   11.9159    8.8141 C   0  0  1  0  0  0  0  0  0  0  0  0
   -1.8738   11.5591    9.3900 O   0  0  0  0  0  0  0  0  0  0  0  0
    2.6627   10.4617    9.1874 C   0  0  0  0  0  0  0  0  0  0  0  0
    1.3186   12.8117   12.5128 C   0  0  0  0  0  0  0  0  0  0  0  0
  1  2  1  1  0  0  0
  1  6  1  0  0  0  0
  1 21  1  0  0  0  0
  3  4  1  1  0  0  0
  3  8  1  0  0  0  0
  3 28  1  0  0  0  0
  5  9  1  0  0  0  0
  5 25  1  0  0  0  0
  5 29  1  6  0  0  0
  6  7  1  1  0  0  0
  6 11  1  0  0  0  0
  8 12  1  0  0  0  0
  9 10  1  1  0  0  0
  9 14  1  0  0  0  0
 11 16  1  0  0  0  0
 12 13  1  6  0  0  0
 12 17  1  0  0  0  0
 14 15  1  1  0  0  0
 14 18  1  0  0  0  0
 15 31  1  0  0  0  0
 16 20  1  0  0  0  0
 17  2  1  6  0  0  0
 17 22  1  0  0  0  0
 18 19  1  1  0  0  0
 18 24  1  0  0  0  0
 18 30  1  0  0  0  0
 20 21  1  0  0  0  0
 20 26  1  6  0  0  0
 22 23  1  6  0  0  0
 22 28  1  0  0  0  0
 24 25  1  0  0  0  0
 26 27  1  0  0  0  0
 28 29  1  1  0  0  0
M  END
>  <CHROM.1>
-169.26122402,-141.92389637,-86.94390907,-151.76760160,127.88469369,85.41509443
-2.65575757,12.60416601,7.83944521,-2.24944253,-0.22672658,1.95792467

>  <Name>
ligand

>  <RI>
0

>  <Rbt.Current_Directory>
/home/itssahil/PROJECTS/Mol_Feturizer/New_Systems/rnas/4GPX

>  <Rbt.Executable>
rbdock ($Id: //depot/dev/client3/rdock/2013.1/src/exe/rbdock.cxx#4 $)

>  <Rbt.Library>
libRbt.so (2013.1, Build901 2013/11/27)

>  <Rbt.Parameter_File>
/export/apps/rDock/src/rDock_2013.1_src/data/scripts/dock_solv.prm

>  <Rbt.Receptor>
prm/pocket_docking_2.prm

>  <SCORE>
-20.4957

>  <SCORE.INTER>
-17.4833

>  <SCORE.INTER.CONST>
1

>  <SCORE.INTER.POLAR>
0

>  <SCORE.INTER.ROT>
6

>  <SCORE.INTER.SOLV>
20.4897

>  <SCORE.INTER.VDW>
-26.0854

>  <SCORE.INTER.norm>
-0.563977

>  <SCORE.INTRA>
-3.01238

>  <SCORE.INTRA.DIHEDRAL>
-6.76936

>  <SCORE.INTRA.DIHEDRAL.0>
20.6841

>  <SCORE.INTRA.POLAR>
0

>  <SCORE.INTRA.POLAR.0>
0

>  <SCORE.INTRA.REPUL>
0

>  <SCORE.INTRA.REPUL.0>
0

>  <SCORE.INTRA.SOLV>
0.365269

>  <SCORE.INTRA.SOLV.lig_0>
-64.6797

>  <SCORE.INTRA.VDW>
0.189662

>  <SCORE.INTRA.VDW.0>
-4.11825

>  <SCORE.INTRA.norm>
-0.0971736

>  <SCORE.RESTR>
0

>  <SCORE.RESTR.CAVITY>
0

>  <SCORE.RESTR.norm>
0

>  <SCORE.SYSTEM>
0

>  <SCORE.SYSTEM.CONST>
0

>  <SCORE.SYSTEM.DIHEDRAL>
0

>  <SCORE.SYSTEM.SOLV>
0

>  <SCORE.SYSTEM.norm>
0

>  <SCORE.heavy>
31

>  <SCORE.norm>
-0.661151

>  <RMSD>
0.698

$$$$
ligand
 OpenBabel11021811493D
libRbt.so/2013.1/901 2013/11/27
 31 33  0  0  0  0  0  0  0  0999 V2000
   -3.5956   14.2192    4.7338 C   0  0  2  0  0  0  0  0  0  0  0  0
   -3.9358   14.4557    6.0967 O   0  0  0  0  0  0  0  0  0  0  0  0
   -4.0231   12.5271    9.8857 C   0  0  2  0  0  0  0  0  0  0  0  0
   -4.2679   11.5302   10.8823 N   0  0  0  0  0  0  0  0  0  0  0  0
   -1.6557   10.2679    9.9880 C   0  0  2  0  0  0  0  0  0  0  0  0
   -3.1379   15.6116    4.1356 C   0  0  2  0  0  0  0  0  0  0  0  0
   -1.9986   16.1008    4.9049 N   0  0  0  0  0  0  0  0  0  0  0  0
   -5.4098   12.9371    9.2385 C   0  0  0  0  0  0  0  0  0  0  0  0
   -0.7805   10.5650   11.2467 C   0  0  2  0  0  0  0  0  0  0  0  0
   -1.4696   11.4911   12.0591 O   0  0  0  0  0  0  0  0  0  0  0  0
   -4.3296   16.6491    4.1822 C   0  0  0  0  0  0  0  0  0  0  0  0
   -5.1438   14.0326    8.1392 C   0  0  2  0  0  0  0  0  0  0  0  0
   -6.4294   14.4139    7.5298 N   0  0  0  0  0  0  0  0  0  0  0  0
    0.5832   11.1675   10.7358 C   0  0  1  0  0  0  0  0  0  0  0  0
    1.4632   11.4932   11.9065 N   0  0  0  0  0  0  0  0  0  0  0  0
   -5.7307   15.9728    3.8675 C   0  0  0  0  0  0  0  0  0  0  0  0
   -4.1580   13.4550    7.0299 C   0  0  2  0  0  0  0  0  0  0  0  0
    1.3129   10.0433    9.8072 C   0  0  1  0  0  0  0  0  0  0  0  0
    1.5458    8.8340   10.5092 O   0  0  0  0  0  0  0  0  0  0  0  0
   -5.8551   14.6214    3.7896 C   0  0  2  0  0  0  0  0  0  0  0  0
   -4.7468   13.7348    3.9829 O   0  0  0  0  0  0  0  0  0  0  0  0
   -2.7942   13.0472    7.7007 C   0  0  2  0  0  0  0  0  0  0  0  0
   -1.9107   12.5156    6.6900 O   0  0  0  0  0  0  0  0  0  0  0  0
    0.4048    9.6937    8.5836 C   0  0  0  0  0  0  0  0  0  0  0  0
   -0.9553    9.2765    9.0777 O   0  0  0  0  0  0  0  0  0  0  0  0
   -7.1824   13.9236    3.4865 C   0  0  0  0  0  0  0  0  0  0  0  0
   -6.9377   12.9074    2.4855 O   0  0  0  0  0  0  0  0  0  0  0  0
   -3.0771   11.9370    8.7791 C   0  0  1  0  0  0  0  0  0  0  0  0
   -1.8603   11.5701    9.3495 O   0  0  0  0  0  0  0  0  0  0  0  0
    2.6783   10.4707    9.2168 C   0  0  0  0  0  0  0  0  0  0  0  0
    1.2935   12.8306   12.5106 C   0  0  0  0  0  0  0  0  0  0  0  0
  1  2  1  1  0  0  0
  1  6  1  0  0  0  0
  1 21  1  0  0  0  0
  3  4  1  1  0  0  0
  3  8  1  0  0  0  0
  3 28  1  0  0  0  0
  5  9  1  0  0  0  0
  5 25  1  0  0  0  0
  5 29  1  6  0  0  0
  6  7  1  1  0  0  0
  6 11  1  0  0  0  0
  8 12  1  0  0  0  0
  9 10  1  1  0  0  0
  9 14  1  0  0  0  0
 11 16  1  0  0  0  0
 12 13  1  6  0  0  0
 12 17  1  0  0  0  0
 14 15  1  1  0  0  0
 14 18  1  0  0  0  0
 15 31  1  0  0  0  0
 16 20  1  0  0  0  0
 17  2  1  6  0  0  0
 17 22  1  0  0  0  0
 18 19  1  1  0  0  0
 18 24  1  0  0  0  0
 18 30  1  0  0  0  0
 20 21  1  0  0  0  0
 20 26  1  6  0  0  0
 22 23  1  6  0  0  0
 22 28  1  0  0  0  0
 24 25  1  0  0  0  0
 26 27  1  0  0  0  0
 28 29  1  1  0  0  0
M  END
>  <CHROM.1>
-168.10854153,-140.56514014,-87.46454489,-153.15437919,133.91965032,85.02793831
-2.63093746,12.62780933,7.81751193,-2.24230713,-0.23215692,1.95770827

>  <Name>
ligand

>  <RI>
0

>  <Rbt.Current_Directory>
/home/itssahil/PROJECTS/Mol_Feturizer/New_Systems/rnas/4GPX

>  <Rbt.Executable>
rbdock ($Id: //depot/dev/client3/rdock/2013.1/src/exe/rbdock.cxx#4 $)

>  <Rbt.Library>
libRbt.so (2013.1, Build901 2013/11/27)

>  <Rbt.Parameter_File>
/export/apps/rDock/src/rDock_2013.1_src/data/scripts/dock_solv.prm

>  <Rbt.Receptor>
prm/pocket_docking_2.prm

>  <SCORE>
-20.5154

>  <SCORE.INTER>
-17.6331

>  <SCORE.INTER.CONST>
1

>  <SCORE.INTER.POLAR>
0

>  <SCORE.INTER.ROT>
6

>  <SCORE.INTER.SOLV>
20.3597

>  <SCORE.INTER.VDW>
-26.1419

>  <SCORE.INTER.norm>
-0.568809

>  <SCORE.INTRA>
-2.88852

>  <SCORE.INTRA.DIHEDRAL>
-6.56911

>  <SCORE.INTRA.DIHEDRAL.0>
20.6841

>  <SCORE.INTRA.POLAR>
0

>  <SCORE.INTRA.POLAR.0>
0

>  <SCORE.INTRA.REPUL>
0

>  <SCORE.INTRA.REPUL.0>
0

>  <SCORE.INTRA.SOLV>
0.332516

>  <SCORE.INTRA.SOLV.lig_0>
-64.6797

>  <SCORE.INTRA.VDW>
0.229772

>  <SCORE.INTRA.VDW.0>
-4.11825

>  <SCORE.INTRA.norm>
-0.0931782

>  <SCORE.RESTR>
0.00624087

>  <SCORE.RESTR.CAVITY>
0.00624087

>  <SCORE.RESTR.norm>
0.000201318

>  <SCORE.SYSTEM>
0

>  <SCORE.SYSTEM.CONST>
0

>  <SCORE.SYSTEM.DIHEDRAL>
0

>  <SCORE.SYSTEM.SOLV>
0

>  <SCORE.SYSTEM.norm>
0

>  <SCORE.heavy>
31

>  <SCORE.norm>
-0.661786

>  <RMSD>
0.712

$$$$
ligand
 OpenBabel11021811493D
libRbt.so/2013.1/901 2013/11/27
 31 33  0  0  0  0  0  0  0  0999 V2000
   -3.5417   14.1778    4.9662 C   0  0  2  0  0  0  0  0  0  0  0  0
   -4.1185   14.4121    6.2475 O   0  0  0  0  0  0  0  0  0  0  0  0
   -4.3078   12.5596   10.0707 C   0  0  2  0  0  0  0  0  0  0  0  0
   -4.5627   11.5755   11.0773 N   0  0  0  0  0  0  0  0  0  0  0  0
   -1.8581   10.3707   10.2898 C   0  0  2  0  0  0  0  0  0  0  0  0
   -3.2121   15.5998    4.3537 C   0  0  2  0  0  0  0  0  0  0  0  0
   -2.2907   16.2933    5.2477 N   0  0  0  0  0  0  0  0  0  0  0  0
   -5.6777   12.9081    9.3551 C   0  0  0  0  0  0  0  0  0  0  0  0
   -0.8433   10.6624   11.4404 C   0  0  2  0  0  0  0  0  0  0  0  0
   -1.4131   11.6238   12.3027 O   0  0  0  0  0  0  0  0  0  0  0  0
   -4.5390   16.4371    4.1609 C   0  0  0  0  0  0  0  0  0  0  0  0
   -5.4005   13.9894    8.2445 C   0  0  2  0  0  0  0  0  0  0  0  0
   -6.6701   14.3134    7.5716 N   0  0  0  0  0  0  0  0  0  0  0  0
    0.4740   11.2128   10.7730 C   0  0  1  0  0  0  0  0  0  0  0  0
    1.4848   11.5315   11.8349 N   0  0  0  0  0  0  0  0  0  0  0  0
   -5.7577   15.5357    3.6896 C   0  0  0  0  0  0  0  0  0  0  0  0
   -4.3478   13.4236    7.1920 C   0  0  2  0  0  0  0  0  0  0  0  0
    1.0656   10.0502    9.7949 C   0  0  1  0  0  0  0  0  0  0  0  0
    1.3378    8.8468   10.4928 O   0  0  0  0  0  0  0  0  0  0  0  0
   -5.6643   14.1797    3.6804 C   0  0  2  0  0  0  0  0  0  0  0  0
   -4.4784   13.4878    4.0884 O   0  0  0  0  0  0  0  0  0  0  0  0
   -3.0020   13.0770    7.9301 C   0  0  2  0  0  0  0  0  0  0  0  0
   -2.0574   12.5557    6.9707 O   0  0  0  0  0  0  0  0  0  0  0  0
    0.0204    9.7076    8.6839 C   0  0  0  0  0  0  0  0  0  0  0  0
   -1.2897    9.3420    9.3302 O   0  0  0  0  0  0  0  0  0  0  0  0
   -6.8094   13.2693    3.2326 C   0  0  0  0  0  0  0  0  0  0  0  0
   -7.4380   12.7225    4.4160 O   0  0  0  0  0  0  0  0  0  0  0  0
   -3.2947   11.9801    9.0194 C   0  0  1  0  0  0  0  0  0  0  0  0
   -2.0925   11.6671    9.6499 O   0  0  0  0  0  0  0  0  0  0  0  0
    2.3709   10.4241    9.0519 C   0  0  0  0  0  0  0  0  0  0  0  0
    1.3378   12.8319   12.5202 C   0  0  0  0  0  0  0  0  0  0  0  0
  1  2  1  1  0  0  0
  1  6  1  0  0  0  0
  1 21  1  0  0  0  0
  3  4  1  1  0  0  0
  3  8  1  0  0  0  0
  3 28  1  0  0  0  0
  5  9  1  0  0  0  0
  5 25  1  0  0  0  0
  5 29  1  6  0  0  0
  6  7  1  1  0  0  0
  6 11  1  0  0  0  0
  8 12  1  0  0  0  0
  9 10  1  1  0  0  0
  9 14  1  0  0  0  0
 11 16  1  0  0  0  0
 12 13  1  6  0  0  0
 12 17  1  0  0  0  0
 14 15  1  1  0  0  0
 14 18  1  0  0  0  0
 15 31  1  0  0  0  0
 16 20  1  0  0  0  0
 17  2  1  6  0  0  0
 17 22  1  0  0  0  0
 18 19  1  1  0  0  0
 18 24  1  0  0  0  0
 18 30  1  0  0  0  0
 20 21  1  0  0  0  0
 20 26  1  6  0  0  0
 22 23  1  6  0  0  0
 22 28  1  0  0  0  0
 24 25  1  0  0  0  0
 26 27  1  0  0  0  0
 28 29  1  1  0  0  0
M  END
>  <CHROM.1>
-169.18172577,-150.91221344,-81.55865335,-161.93081778,-102.49250263,86.94062461
-2.77574338,12.57884700,7.99197237,-2.24227938,-0.16393885,1.99735989

>  <Name>
ligand

>  <RI>
0

>  <Rbt.Current_Directory>
/home/itssahil/PROJECTS/Mol_Feturizer/New_Systems/rnas/4GPX

>  <Rbt.Executable>
rbdock ($Id: //depot/dev/client3/rdock/2013.1/src/exe/rbdock.cxx#4 $)

>  <Rbt.Library>
libRbt.so (2013.1, Build901 2013/11/27)

>  <Rbt.Parameter_File>
/export/apps/rDock/src/rDock_2013.1_src/data/scripts/dock_solv.prm

>  <Rbt.Receptor>
prm/pocket_docking_4.prm

>  <SCORE>
-21.4127

>  <SCORE.INTER>
-16.9008

>  <SCORE.INTER.CONST>
1

>  <SCORE.INTER.POLAR>
0

>  <SCORE.INTER.ROT>
6

>  <SCORE.INTER.SOLV>
19.7948

>  <SCORE.INTER.VDW>
-25.4654

>  <SCORE.INTER.norm>
-0.545186

>  <SCORE.INTRA>
-4.5119

>  <SCORE.INTRA.DIHEDRAL>
-9.76634

>  <SCORE.INTRA.DIHEDRAL.0>
20.6841

>  <SCORE.INTRA.POLAR>
0

>  <SCORE.INTRA.POLAR.0>
0

>  <SCORE.INTRA.REPUL>
0

>  <SCORE.INTRA.REPUL.0>
0

>  <SCORE.INTRA.SOLV>
-0.140244

>  <SCORE.INTRA.SOLV.lig_0>
-64.6797

>  <SCORE.INTRA.VDW>
0.441395

>  <SCORE.INTRA.VDW.0>
-4.11825

>  <SCORE.INTRA.norm>
-0.145545

>  <SCORE.RESTR>
0

>  <SCORE.RESTR.CAVITY>
0

>  <SCORE.RESTR.norm>
0

>  <SCORE.SYSTEM>
0

>  <SCORE.SYSTEM.CONST>
0

>  <SCORE.SYSTEM.DIHEDRAL>
0

>  <SCORE.SYSTEM.SOLV>
0

>  <SCORE.SYSTEM.norm>
0

>  <SCORE.heavy>
31

>  <SCORE.norm>
-0.690731

>  <RMSD>
0.724

$$$$
ligand
 OpenBabel11021811493D
libRbt.so/2013.1/901 2013/11/27
 31 33  0  0  0  0  0  0  0  0999 V2000
   -3.6698   14.2277    4.7269 C   0  0  2  0  0  0  0  0  0  0  0  0
   -4.0394   14.4616    6.0826 O   0  0  0  0  0  0  0  0  0  0  0  0
   -4.1998   12.5307    9.8681 C   0  0  2  0  0  0  0  0  0  0  0  0
   -4.4610   11.5318   10.8586 N   0  0  0  0  0  0  0  0  0  0  0  0
   -1.8154   10.2779   10.0047 C   0  0  2  0  0  0  0  0  0  0  0  0
   -3.1644   15.6135    4.1523 C   0  0  2  0  0  0  0  0  0  0  0  0
   -2.0342   16.0697    4.9546 N   0  0  0  0  0  0  0  0  0  0  0  0
   -5.5742   12.9327    9.1902 C   0  0  0  0  0  0  0  0  0  0  0  0
   -0.9073   10.5563   11.2443 C   0  0  2  0  0  0  0  0  0  0  0  0
   -1.5663   11.4846   12.0790 O   0  0  0  0  0  0  0  0  0  0  0  0
   -4.3324   16.6784    4.1770 C   0  0  0  0  0  0  0  0  0  0  0  0
   -5.2902   14.0303    8.0974 C   0  0  2  0  0  0  0  0  0  0  0  0
   -6.5642   14.4042    7.4595 N   0  0  0  0  0  0  0  0  0  0  0  0
    0.4508   11.1467   10.7052 C   0  0  1  0  0  0  0  0  0  0  0  0
    1.3619   11.4543   11.8569 N   0  0  0  0  0  0  0  0  0  0  0  0
   -5.7403   16.0377    3.8209 C   0  0  0  0  0  0  0  0  0  0  0  0
   -4.2765   13.4591    7.0103 C   0  0  2  0  0  0  0  0  0  0  0  0
    1.1452   10.0208    9.7521 C   0  0  1  0  0  0  0  0  0  0  0  0
    1.3807    8.8041   10.4403 O   0  0  0  0  0  0  0  0  0  0  0  0
   -5.8942   14.6903    3.7286 C   0  0  2  0  0  0  0  0  0  0  0  0
   -4.8123   13.7764    3.9428 O   0  0  0  0  0  0  0  0  0  0  0  0
   -2.9256   13.0591    7.7112 C   0  0  2  0  0  0  0  0  0  0  0  0
   -2.0166   12.5332    6.7204 O   0  0  0  0  0  0  0  0  0  0  0  0
    0.2045    9.6900    8.5481 C   0  0  0  0  0  0  0  0  0  0  0  0
   -1.1483    9.2850    9.0715 O   0  0  0  0  0  0  0  0  0  0  0  0
   -7.2291   14.0263    3.3858 C   0  0  0  0  0  0  0  0  0  0  0  0
   -6.9632   12.9129    2.5004 O   0  0  0  0  0  0  0  0  0  0  0  0
   -3.2259   11.9468    8.7827 C   0  0  1  0  0  0  0  0  0  0  0  0
   -2.0200   11.5868    9.3800 O   0  0  0  0  0  0  0  0  0  0  0  0
    2.5012   10.4366    9.1324 C   0  0  0  0  0  0  0  0  0  0  0  0
    1.2077   12.7813   12.4873 C   0  0  0  0  0  0  0  0  0  0  0  0
  1  2  1  1  0  0  0
  1  6  1  0  0  0  0
  1 21  1  0  0  0  0
  3  4  1  1  0  0  0
  3  8  1  0  0  0  0
  3 28  1  0  0  0  0
  5  9  1  0  0  0  0
  5 25  1  0  0  0  0
  5 29  1  6  0  0  0
  6  7  1  1  0  0  0
  6 11  1  0  0  0  0
  8 12  1  0  0  0  0
  9 10  1  1  0  0  0
  9 14  1  0  0  0  0
 11 16  1  0  0  0  0
 12 13  1  6  0  0  0
 12 17  1  0  0  0  0
 14 15  1  1  0  0  0
 14 18  1  0  0  0  0
 15 31  1  0  0  0  0
 16 20  1  0  0  0  0
 17  2  1  6  0  0  0
 17 22  1  0  0  0  0
 18 19  1  1  0  0  0
 18 24  1  0  0  0  0
 18 30  1  0  0  0  0
 20 21  1  0  0  0  0
 20 26  1  6  0  0  0
 22 23  1  6  0  0  0
 22 28  1  0  0  0  0
 24 25  1  0  0  0  0
 26 27  1  0  0  0  0
 28 29  1  1  0  0  0
M  END
>  <CHROM.1>
-166.42536496,-143.79934659,-86.54264037,-153.03547447,140.38998518,85.97004644
-2.74411192,12.63261165,7.79664245,-2.23089723,-0.22329436,1.97326921

>  <Name>
ligand

>  <RI>
0

>  <Rbt.Current_Directory>
/home/itssahil/PROJECTS/Mol_Feturizer/New_Systems/rnas/4GPX

>  <Rbt.Executable>
rbdock ($Id: //depot/dev/client3/rdock/2013.1/src/exe/rbdock.cxx#4 $)

>  <Rbt.Library>
libRbt.so (2013.1, Build901 2013/11/27)

>  <Rbt.Parameter_File>
/export/apps/rDock/src/rDock_2013.1_src/data/scripts/dock_solv.prm

>  <Rbt.Receptor>
prm/pocket_docking_2.prm

>  <SCORE>
-20.2936

>  <SCORE.INTER>
-17.4746

>  <SCORE.INTER.CONST>
1

>  <SCORE.INTER.POLAR>
0

>  <SCORE.INTER.ROT>
6

>  <SCORE.INTER.SOLV>
20.7572

>  <SCORE.INTER.VDW>
-26.1688

>  <SCORE.INTER.norm>
-0.563697

>  <SCORE.INTRA>
-2.81895

>  <SCORE.INTRA.DIHEDRAL>
-6.51291

>  <SCORE.INTRA.DIHEDRAL.0>
20.6841

>  <SCORE.INTRA.POLAR>
0

>  <SCORE.INTRA.POLAR.0>
0

>  <SCORE.INTRA.REPUL>
0

>  <SCORE.INTRA.REPUL.0>
0

>  <SCORE.INTRA.SOLV>
0.253948

>  <SCORE.INTRA.SOLV.lig_0>
-64.6797

>  <SCORE.INTRA.VDW>
0.31053

>  <SCORE.INTRA.VDW.0>
-4.11825

>  <SCORE.INTRA.norm>
-0.090934

>  <SCORE.RESTR>
0

>  <SCORE.RESTR.CAVITY>
0

>  <SCORE.RESTR.norm>
0

>  <SCORE.SYSTEM>
0

>  <SCORE.SYSTEM.CONST>
0

>  <SCORE.SYSTEM.DIHEDRAL>
0

>  <SCORE.SYSTEM.SOLV>
0

>  <SCORE.SYSTEM.norm>
0

>  <SCORE.heavy>
31

>  <SCORE.norm>
-0.654631

>  <RMSD>
0.734

$$$$
ligand
 OpenBabel11021811493D
libRbt.so/2013.1/901 2013/11/27
 31 33  0  0  0  0  0  0  0  0999 V2000
   -3.5230   14.2195    4.6978 C   0  0  2  0  0  0  0  0  0  0  0  0
   -3.8366   14.4639    6.0657 O   0  0  0  0  0  0  0  0  0  0  0  0
   -4.0470   12.5656    9.8652 C   0  0  2  0  0  0  0  0  0  0  0  0
   -4.3202   11.5748   10.8605 N   0  0  0  0  0  0  0  0  0  0  0  0
   -1.6551   10.3132   10.0416 C   0  0  2  0  0  0  0  0  0  0  0  0
   -3.0723   15.6074    4.0841 C   0  0  2  0  0  0  0  0  0  0  0  0
   -1.9170   16.0966    4.8292 N   0  0  0  0  0  0  0  0  0  0  0  0
   -5.4124   12.9589    9.1644 C   0  0  0  0  0  0  0  0  0  0  0  0
   -0.7438   10.5908   11.2789 C   0  0  2  0  0  0  0  0  0  0  0  0
   -1.3992   11.5209   12.1144 O   0  0  0  0  0  0  0  0  0  0  0  0
   -4.2596   16.6491    4.1480 C   0  0  0  0  0  0  0  0  0  0  0  0
   -5.1150   14.0475    8.0663 C   0  0  2  0  0  0  0  0  0  0  0  0
   -6.3805   14.4133    7.4072 N   0  0  0  0  0  0  0  0  0  0  0  0
    0.6143   11.1784   10.7365 C   0  0  1  0  0  0  0  0  0  0  0  0
    1.5285   11.4851   11.8859 N   0  0  0  0  0  0  0  0  0  0  0  0
   -5.6686   15.9758    3.8633 C   0  0  0  0  0  0  0  0  0  0  0  0
   -4.0849   13.4691    6.9986 C   0  0  2  0  0  0  0  0  0  0  0  0
    1.3045   10.0505    9.7826 C   0  0  1  0  0  0  0  0  0  0  0  0
    1.5393    8.8339   10.4712 O   0  0  0  0  0  0  0  0  0  0  0  0
   -5.7987   14.6245    3.7946 C   0  0  2  0  0  0  0  0  0  0  0  0
   -4.6899   13.7352    3.9714 O   0  0  0  0  0  0  0  0  0  0  0  0
   -2.7433   13.0779    7.7221 C   0  0  2  0  0  0  0  0  0  0  0  0
   -1.8193   12.5454    6.7489 O   0  0  0  0  0  0  0  0  0  0  0  0
    0.3606    9.7206    8.5810 C   0  0  0  0  0  0  0  0  0  0  0  0
   -0.9918    9.3184    9.1076 O   0  0  0  0  0  0  0  0  0  0  0  0
   -7.1338   13.9296    3.5202 C   0  0  0  0  0  0  0  0  0  0  0  0
   -6.9212   12.9398    2.4861 O   0  0  0  0  0  0  0  0  0  0  0  0
   -3.0566   11.9743    8.7988 C   0  0  1  0  0  0  0  0  0  0  0  0
   -1.8586   11.6220    9.4163 O   0  0  0  0  0  0  0  0  0  0  0  0
    2.6599   10.4634    9.1596 C   0  0  0  0  0  0  0  0  0  0  0  0
    1.3252   12.7805   12.5663 C   0  0  0  0  0  0  0  0  0  0  0  0
  1  2  1  1  0  0  0
  1  6  1  0  0  0  0
  1 21  1  0  0  0  0
  3  4  1  1  0  0  0
  3  8  1  0  0  0  0
  3 28  1  0  0  0  0
  5  9  1  0  0  0  0
  5 25  1  0  0  0  0
  5 29  1  6  0  0  0
  6  7  1  1  0  0  0
  6 11  1  0  0  0  0
  8 12  1  0  0  0  0
  9 10  1  1  0  0  0
  9 14  1  0  0  0  0
 11 16  1  0  0  0  0
 12 13  1  6  0  0  0
 12 17  1  0  0  0  0
 14 15  1  1  0  0  0
 14 18  1  0  0  0  0
 15 31  1  0  0  0  0
 16 20  1  0  0  0  0
 17  2  1  6  0  0  0
 17 22  1  0  0  0  0
 18 19  1  1  0  0  0
 18 24  1  0  0  0  0
 18 30  1  0  0  0  0
 20 21  1  0  0  0  0
 20 26  1  6  0  0  0
 22 23  1  6  0  0  0
 22 28  1  0  0  0  0
 24 25  1  0  0  0  0
 26 27  1  0  0  0  0
 28 29  1  1  0  0  0
M  END
>  <CHROM.1>
-170.18931008,-145.05941341,-83.06948978,-149.22650754,131.93615305,86.70101556
-2.59898638,12.64239140,7.80893328,-2.23439131,-0.21854273,1.96704881

>  <Name>
ligand

>  <RI>
0

>  <Rbt.Current_Directory>
/home/itssahil/PROJECTS/Mol_Feturizer/New_Systems/rnas/4GPX

>  <Rbt.Executable>
rbdock ($Id: //depot/dev/client3/rdock/2013.1/src/exe/rbdock.cxx#4 $)

>  <Rbt.Library>
libRbt.so (2013.1, Build901 2013/11/27)

>  <Rbt.Parameter_File>
/export/apps/rDock/src/rDock_2013.1_src/data/scripts/dock_solv.prm

>  <Rbt.Receptor>
prm/pocket_docking_2.prm

>  <SCORE>
-20.3599

>  <SCORE.INTER>
-17.5354

>  <SCORE.INTER.CONST>
1

>  <SCORE.INTER.POLAR>
0

>  <SCORE.INTER.ROT>
6

>  <SCORE.INTER.SOLV>
20.2289

>  <SCORE.INTER.VDW>
-26.0332

>  <SCORE.INTER.norm>
-0.565658

>  <SCORE.INTRA>
-2.83127

>  <SCORE.INTRA.DIHEDRAL>
-6.71666

>  <SCORE.INTRA.DIHEDRAL.0>
20.6841

>  <SCORE.INTRA.POLAR>
0

>  <SCORE.INTRA.POLAR.0>
0

>  <SCORE.INTRA.REPUL>
0

>  <SCORE.INTRA.REPUL.0>
0

>  <SCORE.INTRA.SOLV>
0.450955

>  <SCORE.INTRA.SOLV.lig_0>
-64.6797

>  <SCORE.INTRA.VDW>
0.301577

>  <SCORE.INTRA.VDW.0>
-4.11825

>  <SCORE.INTRA.norm>
-0.0913314

>  <SCORE.RESTR>
0.0067603

>  <SCORE.RESTR.CAVITY>
0.0067603

>  <SCORE.RESTR.norm>
0.000218074

>  <SCORE.SYSTEM>
0

>  <SCORE.SYSTEM.CONST>
0

>  <SCORE.SYSTEM.DIHEDRAL>
0

>  <SCORE.SYSTEM.SOLV>
0

>  <SCORE.SYSTEM.norm>
0

>  <SCORE.heavy>
31

>  <SCORE.norm>
-0.656771

>  <RMSD>
0.735

$$$$
ligand
 OpenBabel11021811493D
libRbt.so/2013.1/901 2013/11/27
 31 33  0  0  0  0  0  0  0  0999 V2000
   -3.6489   14.2477    4.7542 C   0  0  2  0  0  0  0  0  0  0  0  0
   -4.0546   14.4567    6.1036 O   0  0  0  0  0  0  0  0  0  0  0  0
   -4.1925   12.4722    9.8622 C   0  0  2  0  0  0  0  0  0  0  0  0
   -4.4405   11.4563   10.8386 N   0  0  0  0  0  0  0  0  0  0  0  0
   -1.7919   10.2704   10.0150 C   0  0  2  0  0  0  0  0  0  0  0  0
   -3.1244   15.6426    4.2203 C   0  0  2  0  0  0  0  0  0  0  0  0
   -2.0151   16.0796    5.0616 N   0  0  0  0  0  0  0  0  0  0  0  0
   -5.5715   12.8636    9.1877 C   0  0  0  0  0  0  0  0  0  0  0  0
   -0.9150   10.5799   11.2696 C   0  0  2  0  0  0  0  0  0  0  0  0
   -1.6036   11.5130   12.0744 O   0  0  0  0  0  0  0  0  0  0  0  0
   -4.2897   16.7107    4.2341 C   0  0  0  0  0  0  0  0  0  0  0  0
   -5.3018   13.9800    8.1104 C   0  0  2  0  0  0  0  0  0  0  0  0
   -6.5801   14.3442    7.4757 N   0  0  0  0  0  0  0  0  0  0  0  0
    0.4474   11.1786   10.7509 C   0  0  1  0  0  0  0  0  0  0  0  0
    1.3290   11.5160   11.9172 N   0  0  0  0  0  0  0  0  0  0  0  0
   -5.6892   16.0816    3.8276 C   0  0  0  0  0  0  0  0  0  0  0  0
   -4.2785   13.4384    7.0172 C   0  0  2  0  0  0  0  0  0  0  0  0
    1.1765   10.0465    9.8317 C   0  0  1  0  0  0  0  0  0  0  0  0
    1.4115    8.8439   10.5445 O   0  0  0  0  0  0  0  0  0  0  0  0
   -5.8442   14.7367    3.7052 C   0  0  2  0  0  0  0  0  0  0  0  0
   -4.7710   13.8153    3.9309 O   0  0  0  0  0  0  0  0  0  0  0  0
   -2.9230   13.0482    7.7148 C   0  0  2  0  0  0  0  0  0  0  0  0
   -2.0051   12.5491    6.7183 O   0  0  0  0  0  0  0  0  0  0  0  0
    0.2668    9.6848    8.6129 C   0  0  0  0  0  0  0  0  0  0  0  0
   -1.0922    9.2712    9.1129 O   0  0  0  0  0  0  0  0  0  0  0  0
   -7.1712   14.0838    3.3136 C   0  0  0  0  0  0  0  0  0  0  0  0
   -6.8770   12.8937    2.5445 O   0  0  0  0  0  0  0  0  0  0  0  0
   -3.2087   11.9172    8.7705 C   0  0  1  0  0  0  0  0  0  0  0  0
   -1.9985   11.5665    9.3647 O   0  0  0  0  0  0  0  0  0  0  0  0
    2.5407   10.4694    9.2352 C   0  0  0  0  0  0  0  0  0  0  0  0
    1.1657   12.8621   12.5032 C   0  0  0  0  0  0  0  0  0  0  0  0
  1  2  1  1  0  0  0
  1  6  1  0  0  0  0
  1 21  1  0  0  0  0
  3  4  1  1  0  0  0
  3  8  1  0  0  0  0
  3 28  1  0  0  0  0
  5  9  1  0  0  0  0
  5 25  1  0  0  0  0
  5 29  1  6  0  0  0
  6  7  1  1  0  0  0
  6 11  1  0  0  0  0
  8 12  1  0  0  0  0
  9 10  1  1  0  0  0
  9 14  1  0  0  0  0
 11 16  1  0  0  0  0
 12 13  1  6  0  0  0
 12 17  1  0  0  0  0
 14 15  1  1  0  0  0
 14 18  1  0  0  0  0
 15 31  1  0  0  0  0
 16 20  1  0  0  0  0
 17  2  1  6  0  0  0
 17 22  1  0  0  0  0
 18 19  1  1  0  0  0
 18 24  1  0  0  0  0
 18 30  1  0  0  0  0
 20 21  1  0  0  0  0
 20 26  1  6  0  0  0
 22 23  1  6  0  0  0
 22 28  1  0  0  0  0
 24 25  1  0  0  0  0
 26 27  1  0  0  0  0
 28 29  1  1  0  0  0
M  END
>  <CHROM.1>
-164.28763976,-141.81774344,-87.87286493,-154.59197993,147.06211242,83.68487250
-2.72557007,12.63863816,7.82094792,-2.22236536,-0.19365989,1.99566421

>  <Name>
ligand

>  <RI>
0

>  <Rbt.Current_Directory>
/home/itssahil/PROJECTS/Mol_Feturizer/New_Systems/rnas/4GPX

>  <Rbt.Executable>
rbdock ($Id: //depot/dev/client3/rdock/2013.1/src/exe/rbdock.cxx#4 $)

>  <Rbt.Library>
libRbt.so (2013.1, Build901 2013/11/27)

>  <Rbt.Parameter_File>
/export/apps/rDock/src/rDock_2013.1_src/data/scripts/dock_solv.prm

>  <Rbt.Receptor>
prm/pocket_docking_2.prm

>  <SCORE>
-19.9518

>  <SCORE.INTER>
-17.3128

>  <SCORE.INTER.CONST>
1

>  <SCORE.INTER.POLAR>
0

>  <SCORE.INTER.ROT>
6

>  <SCORE.INTER.SOLV>
20.5892

>  <SCORE.INTER.VDW>
-26.0049

>  <SCORE.INTER.norm>
-0.558477

>  <SCORE.INTRA>
-2.63905

>  <SCORE.INTRA.DIHEDRAL>
-6.23132

>  <SCORE.INTRA.DIHEDRAL.0>
20.6841

>  <SCORE.INTRA.POLAR>
0

>  <SCORE.INTRA.POLAR.0>
0

>  <SCORE.INTRA.REPUL>
0

>  <SCORE.INTRA.REPUL.0>
0

>  <SCORE.INTRA.SOLV>
0.231183

>  <SCORE.INTRA.SOLV.lig_0>
-64.6797

>  <SCORE.INTRA.VDW>
0.361024

>  <SCORE.INTRA.VDW.0>
-4.11825

>  <SCORE.INTRA.norm>
-0.0851305

>  <SCORE.RESTR>
0

>  <SCORE.RESTR.CAVITY>
0

>  <SCORE.RESTR.norm>
0

>  <SCORE.SYSTEM>
0

>  <SCORE.SYSTEM.CONST>
0

>  <SCORE.SYSTEM.DIHEDRAL>
0

>  <SCORE.SYSTEM.SOLV>
0

>  <SCORE.SYSTEM.norm>
0

>  <SCORE.heavy>
31

>  <SCORE.norm>
-0.643608

>  <RMSD>
0.737

$$$$
ligand
 OpenBabel11021811493D
libRbt.so/2013.1/901 2013/11/27
 31 33  0  0  0  0  0  0  0  0999 V2000
   -3.4571   14.3382    4.9146 C   0  0  2  0  0  0  0  0  0  0  0  0
   -3.9785   14.5424    6.2245 O   0  0  0  0  0  0  0  0  0  0  0  0
   -4.2496   12.5712    9.9828 C   0  0  2  0  0  0  0  0  0  0  0  0
   -4.5250   11.5558   10.9523 N   0  0  0  0  0  0  0  0  0  0  0  0
   -1.8122   10.3899   10.2142 C   0  0  2  0  0  0  0  0  0  0  0  0
   -3.1708   15.7749    4.3147 C   0  0  2  0  0  0  0  0  0  0  0  0
   -2.2179   16.4628    5.1796 N   0  0  0  0  0  0  0  0  0  0  0  0
   -5.6038   12.9401    9.2479 C   0  0  0  0  0  0  0  0  0  0  0  0
   -0.8326   10.6640   11.3990 C   0  0  2  0  0  0  0  0  0  0  0  0
   -1.4261   11.6160   12.2558 O   0  0  0  0  0  0  0  0  0  0  0  0
   -4.5140   16.5999    4.1969 C   0  0  0  0  0  0  0  0  0  0  0  0
   -5.3039   14.0559    8.1780 C   0  0  2  0  0  0  0  0  0  0  0  0
   -6.5588   14.3992    7.4873 N   0  0  0  0  0  0  0  0  0  0  0  0
    0.5060   11.2191   10.7794 C   0  0  1  0  0  0  0  0  0  0  0  0
    1.4845   11.5213   11.8759 N   0  0  0  0  0  0  0  0  0  0  0  0
   -5.7427   15.6931    3.7636 C   0  0  0  0  0  0  0  0  0  0  0  0
   -4.2269   13.5246    7.1323 C   0  0  2  0  0  0  0  0  0  0  0  0
    1.1244   10.0673    9.8051 C   0  0  1  0  0  0  0  0  0  0  0  0
    1.3721    8.8544   10.4955 O   0  0  0  0  0  0  0  0  0  0  0  0
   -5.6350   14.3386    3.7248 C   0  0  2  0  0  0  0  0  0  0  0  0
   -4.4245   13.6534    4.0667 O   0  0  0  0  0  0  0  0  0  0  0  0
   -2.8973   13.1569    7.8892 C   0  0  2  0  0  0  0  0  0  0  0  0
   -1.9304   12.6670    6.9354 O   0  0  0  0  0  0  0  0  0  0  0  0
    0.1130    9.7420    8.6583 C   0  0  0  0  0  0  0  0  0  0  0  0
   -1.2172    9.3719    9.2594 O   0  0  0  0  0  0  0  0  0  0  0  0
   -6.7890   13.4231    3.3116 C   0  0  0  0  0  0  0  0  0  0  0  0
   -7.2896   12.7665    4.5001 O   0  0  0  0  0  0  0  0  0  0  0  0
   -3.2121   12.0261    8.9369 C   0  0  1  0  0  0  0  0  0  0  0  0
   -2.0237   11.6952    9.5842 O   0  0  0  0  0  0  0  0  0  0  0  0
    2.4529   10.4470    9.1074 C   0  0  0  0  0  0  0  0  0  0  0  0
    1.3479   12.8324   12.5427 C   0  0  0  0  0  0  0  0  0  0  0  0
  1  2  1  1  0  0  0
  1  6  1  0  0  0  0
  1 21  1  0  0  0  0
  3  4  1  1  0  0  0
  3  8  1  0  0  0  0
  3 28  1  0  0  0  0
  5  9  1  0  0  0  0
  5 25  1  0  0  0  0
  5 29  1  6  0  0  0
  6  7  1  1  0  0  0
  6 11  1  0  0  0  0
  8 12  1  0  0  0  0
  9 10  1  1  0  0  0
  9 14  1  0  0  0  0
 11 16  1  0  0  0  0
 12 13  1  6  0  0  0
 12 17  1  0  0  0  0
 14 15  1  1  0  0  0
 14 18  1  0  0  0  0
 15 31  1  0  0  0  0
 16 20  1  0  0  0  0
 17  2  1  6  0  0  0
 17 22  1  0  0  0  0
 18 19  1  1  0  0  0
 18 24  1  0  0  0  0
 18 30  1  0  0  0  0
 20 21  1  0  0  0  0
 20 26  1  6  0  0  0
 22 23  1  6  0  0  0
 22 28  1  0  0  0  0
 24 25  1  0  0  0  0
 26 27  1  0  0  0  0
 28 29  1  1  0  0  0
M  END
>  <CHROM.1>
-173.08149468,-150.01669679,-83.53525001,-157.45193342,-106.93639085,85.55276919
-2.71273899,12.64755725,7.96810666,-2.23154206,-0.13104540,2.04553906

>  <Name>
ligand

>  <RI>
0

>  <Rbt.Current_Directory>
/home/itssahil/PROJECTS/Mol_Feturizer/New_Systems/rnas/4GPX

>  <Rbt.Executable>
rbdock ($Id: //depot/dev/client3/rdock/2013.1/src/exe/rbdock.cxx#4 $)

>  <Rbt.Library>
libRbt.so (2013.1, Build901 2013/11/27)

>  <Rbt.Parameter_File>
/export/apps/rDock/src/rDock_2013.1_src/data/scripts/dock_solv.prm

>  <Rbt.Receptor>
prm/pocket_docking_8.prm

>  <SCORE>
-21.5562

>  <SCORE.INTER>
-17.164

>  <SCORE.INTER.CONST>
1

>  <SCORE.INTER.POLAR>
0

>  <SCORE.INTER.ROT>
6

>  <SCORE.INTER.SOLV>
19.5864

>  <SCORE.INTER.VDW>
-25.5715

>  <SCORE.INTER.norm>
-0.553678

>  <SCORE.INTRA>
-4.39213

>  <SCORE.INTRA.DIHEDRAL>
-9.54869

>  <SCORE.INTRA.DIHEDRAL.0>
20.6841

>  <SCORE.INTRA.POLAR>
0

>  <SCORE.INTRA.POLAR.0>
0

>  <SCORE.INTRA.REPUL>
0

>  <SCORE.INTRA.REPUL.0>
0

>  <SCORE.INTRA.SOLV>
0.313656

>  <SCORE.INTRA.SOLV.lig_0>
-64.6797

>  <SCORE.INTRA.VDW>
0.225384

>  <SCORE.INTRA.VDW.0>
-4.11825

>  <SCORE.INTRA.norm>
-0.141682

>  <SCORE.RESTR>
0

>  <SCORE.RESTR.CAVITY>
0

>  <SCORE.RESTR.norm>
0

>  <SCORE.SYSTEM>
0

>  <SCORE.SYSTEM.CONST>
0

>  <SCORE.SYSTEM.DIHEDRAL>
0

>  <SCORE.SYSTEM.SOLV>
0

>  <SCORE.SYSTEM.norm>
0

>  <SCORE.heavy>
31

>  <SCORE.norm>
-0.69536

>  <RMSD>
0.745

$$$$
ligand
 OpenBabel11021811493D
libRbt.so/2013.1/901 2013/11/27
 31 33  0  0  0  0  0  0  0  0999 V2000
   -3.6089   14.2128    4.9702 C   0  0  2  0  0  0  0  0  0  0  0  0
   -4.0534   14.4531    6.3021 O   0  0  0  0  0  0  0  0  0  0  0  0
   -4.2031   12.5733   10.1137 C   0  0  2  0  0  0  0  0  0  0  0  0
   -4.4485   11.5824   11.1160 N   0  0  0  0  0  0  0  0  0  0  0  0
   -1.7471   10.3696   10.2681 C   0  0  2  0  0  0  0  0  0  0  0  0
   -3.2343   15.6241    4.3588 C   0  0  2  0  0  0  0  0  0  0  0  0
   -2.1914   16.2293    5.1807 N   0  0  0  0  0  0  0  0  0  0  0  0
   -5.5802   12.9297    9.4163 C   0  0  0  0  0  0  0  0  0  0  0  0
   -0.7728   10.6491   11.4561 C   0  0  2  0  0  0  0  0  0  0  0  0
   -1.3899   11.5698   12.3303 O   0  0  0  0  0  0  0  0  0  0  0  0
   -4.5103   16.5554    4.3014 C   0  0  0  0  0  0  0  0  0  0  0  0
   -5.3134   14.0184    8.3104 C   0  0  2  0  0  0  0  0  0  0  0  0
   -6.5899   14.3499    7.6545 N   0  0  0  0  0  0  0  0  0  0  0  0
    0.5493   11.2505   10.8444 C   0  0  1  0  0  0  0  0  0  0  0  0
    1.5214   11.5596   11.9446 N   0  0  0  0  0  0  0  0  0  0  0  0
   -5.8263   15.7524    3.9228 C   0  0  0  0  0  0  0  0  0  0  0  0
   -4.2740   13.4583    7.2420 C   0  0  2  0  0  0  0  0  0  0  0  0
    1.1964   10.1329    9.8492 C   0  0  1  0  0  0  0  0  0  0  0  0
    1.4777    8.9151   10.5180 O   0  0  0  0  0  0  0  0  0  0  0  0
   -5.8303   14.3939    3.8787 C   0  0  2  0  0  0  0  0  0  0  0  0
   -4.6652   13.6118    4.1659 O   0  0  0  0  0  0  0  0  0  0  0  0
   -2.9206   13.1036    7.9622 C   0  0  2  0  0  0  0  0  0  0  0  0
   -1.9880   12.5874    6.9883 O   0  0  0  0  0  0  0  0  0  0  0  0
    0.1918    9.8006    8.6983 C   0  0  0  0  0  0  0  0  0  0  0  0
   -1.1269    9.3847    9.2948 O   0  0  0  0  0  0  0  0  0  0  0  0
   -7.0717   13.5763    3.5169 C   0  0  0  0  0  0  0  0  0  0  0  0
   -6.7027   12.6316    2.4846 O   0  0  0  0  0  0  0  0  0  0  0  0
   -3.2031   11.9994    9.0468 C   0  0  1  0  0  0  0  0  0  0  0  0
   -1.9945   11.6795    9.6613 O   0  0  0  0  0  0  0  0  0  0  0  0
    2.5129   10.5600    9.1563 C   0  0  0  0  0  0  0  0  0  0  0  0
    1.3508   12.8546   12.6346 C   0  0  0  0  0  0  0  0  0  0  0  0
  1  2  1  1  0  0  0
  1  6  1  0  0  0  0
  1 21  1  0  0  0  0
  3  4  1  1  0  0  0
  3  8  1  0  0  0  0
  3 28  1  0  0  0  0
  5  9  1  0  0  0  0
  5 25  1  0  0  0  0
  5 29  1  6  0  0  0
  6  7  1  1  0  0  0
  6 11  1  0  0  0  0
  8 12  1  0  0  0  0
  9 10  1  1  0  0  0
  9 14  1  0  0  0  0
 11 16  1  0  0  0  0
 12 13  1  6  0  0  0
 12 17  1  0  0  0  0
 14 15  1  1  0  0  0
 14 18  1  0  0  0  0
 15 31  1  0  0  0  0
 16 20  1  0  0  0  0
 17  2  1  6  0  0  0
 17 22  1  0  0  0  0
 18 19  1  1  0  0  0
 18 24  1  0  0  0  0
 18 30  1  0  0  0  0
 20 21  1  0  0  0  0
 20 26  1  6  0  0  0
 22 23  1  6  0  0  0
 22 28  1  0  0  0  0
 24 25  1  0  0  0  0
 26 27  1  0  0  0  0
 28 29  1  1  0  0  0
M  END
>  <CHROM.1>
-169.46403184,-148.60871125,-83.51543380,-155.82588476,129.36419308,88.05351987
-2.70406926,12.62975091,7.98032467,-2.24882950,-0.25350882,1.91135230

>  <Name>
ligand

>  <RI>
0

>  <Rbt.Current_Directory>
/home/itssahil/PROJECTS/Mol_Feturizer/New_Systems/rnas/4GPX

>  <Rbt.Executable>
rbdock ($Id: //depot/dev/client3/rdock/2013.1/src/exe/rbdock.cxx#4 $)

>  <Rbt.Library>
libRbt.so (2013.1, Build901 2013/11/27)

>  <Rbt.Parameter_File>
/export/apps/rDock/src/rDock_2013.1_src/data/scripts/dock_solv.prm

>  <Rbt.Receptor>
prm/pocket_docking_3.prm

>  <SCORE>
-20.9467

>  <SCORE.INTER>
-17.0964

>  <SCORE.INTER.CONST>
1

>  <SCORE.INTER.POLAR>
0

>  <SCORE.INTER.ROT>
6

>  <SCORE.INTER.SOLV>
20.0839

>  <SCORE.INTER.VDW>
-25.6922

>  <SCORE.INTER.norm>
-0.551498

>  <SCORE.INTRA>
-3.85029

>  <SCORE.INTRA.DIHEDRAL>
-8.33533

>  <SCORE.INTRA.DIHEDRAL.0>
20.6841

>  <SCORE.INTRA.POLAR>
0

>  <SCORE.INTRA.POLAR.0>
0

>  <SCORE.INTRA.REPUL>
0

>  <SCORE.INTRA.REPUL.0>
0

>  <SCORE.INTRA.SOLV>
-0.151306

>  <SCORE.INTRA.SOLV.lig_0>
-64.6797

>  <SCORE.INTRA.VDW>
0.393023

>  <SCORE.INTRA.VDW.0>
-4.11825

>  <SCORE.INTRA.norm>
-0.124203

>  <SCORE.RESTR>
0

>  <SCORE.RESTR.CAVITY>
0

>  <SCORE.RESTR.norm>
0

>  <SCORE.SYSTEM>
0

>  <SCORE.SYSTEM.CONST>
0

>  <SCORE.SYSTEM.DIHEDRAL>
0

>  <SCORE.SYSTEM.SOLV>
0

>  <SCORE.SYSTEM.norm>
0

>  <SCORE.heavy>
31

>  <SCORE.norm>
-0.675701

>  <RMSD>
0.747

$$$$
ligand
 OpenBabel11021811493D
libRbt.so/2013.1/901 2013/11/27
 31 33  0  0  0  0  0  0  0  0999 V2000
   -3.5484   14.1846    4.9251 C   0  0  2  0  0  0  0  0  0  0  0  0
   -4.1263   14.4081    6.2077 O   0  0  0  0  0  0  0  0  0  0  0  0
   -4.2583   12.5260   10.0188 C   0  0  2  0  0  0  0  0  0  0  0  0
   -4.5017   11.5355   11.0221 N   0  0  0  0  0  0  0  0  0  0  0  0
   -1.8223   10.3186   10.1773 C   0  0  2  0  0  0  0  0  0  0  0  0
   -3.2497   15.6125    4.3105 C   0  0  2  0  0  0  0  0  0  0  0  0
   -2.3402   16.3256    5.2013 N   0  0  0  0  0  0  0  0  0  0  0  0
   -5.6386   12.8902    9.3317 C   0  0  0  0  0  0  0  0  0  0  0  0
   -0.8492   10.6088   11.3636 C   0  0  2  0  0  0  0  0  0  0  0  0
   -1.4614   11.5477   12.2217 O   0  0  0  0  0  0  0  0  0  0  0  0
   -4.5940   16.4222    4.1206 C   0  0  0  0  0  0  0  0  0  0  0  0
   -5.3740   13.9785    8.2248 C   0  0  2  0  0  0  0  0  0  0  0  0
   -6.6535   14.3173    7.5784 N   0  0  0  0  0  0  0  0  0  0  0  0
    0.4792   11.1904   10.7464 C   0  0  1  0  0  0  0  0  0  0  0  0
    1.4508   11.5089   11.8445 N   0  0  0  0  0  0  0  0  0  0  0  0
   -5.7952   15.4957    3.6534 C   0  0  0  0  0  0  0  0  0  0  0  0
   -4.3454   13.4137    7.1484 C   0  0  2  0  0  0  0  0  0  0  0  0
    1.1203   10.0525    9.7704 C   0  0  1  0  0  0  0  0  0  0  0  0
    1.3902    8.8431   10.4587 O   0  0  0  0  0  0  0  0  0  0  0  0
   -5.6740   14.1418    3.6451 C   0  0  2  0  0  0  0  0  0  0  0  0
   -4.4731   13.4748    4.0504 O   0  0  0  0  0  0  0  0  0  0  0  0
   -2.9887   13.0512    7.8584 C   0  0  2  0  0  0  0  0  0  0  0  0
   -2.0660   12.5309    6.8774 O   0  0  0  0  0  0  0  0  0  0  0  0
    0.1164    9.7103    8.6220 C   0  0  0  0  0  0  0  0  0  0  0  0
   -1.2072    9.3139    9.2211 O   0  0  0  0  0  0  0  0  0  0  0  0
   -6.8015   13.2077    3.2013 C   0  0  0  0  0  0  0  0  0  0  0  0
   -7.9157   14.0227    2.7670 O   0  0  0  0  0  0  0  0  0  0  0  0
   -3.2692   11.9476    8.9441 C   0  0  1  0  0  0  0  0  0  0  0  0
   -2.0579   11.6208    9.5496 O   0  0  0  0  0  0  0  0  0  0  0  0
    2.4420   10.4586    9.0748 C   0  0  0  0  0  0  0  0  0  0  0  0
    1.3135   12.8320   12.4870 C   0  0  0  0  0  0  0  0  0  0  0  0
  1  2  1  1  0  0  0
  1  6  1  0  0  0  0
  1 21  1  0  0  0  0
  3  4  1  1  0  0  0
  3  8  1  0  0  0  0
  3 28  1  0  0  0  0
  5  9  1  0  0  0  0
  5 25  1  0  0  0  0
  5 29  1  6  0  0  0
  6  7  1  1  0  0  0
  6 11  1  0  0  0  0
  8 12  1  0  0  0  0
  9 10  1  1  0  0  0
  9 14  1  0  0  0  0
 11 16  1  0  0  0  0
 12 13  1  6  0  0  0
 12 17  1  0  0  0  0
 14 15  1  1  0  0  0
 14 18  1  0  0  0  0
 15 31  1  0  0  0  0
 16 20  1  0  0  0  0
 17  2  1  6  0  0  0
 17 22  1  0  0  0  0
 18 19  1  1  0  0  0
 18 24  1  0  0  0  0
 18 30  1  0  0  0  0
 20 21  1  0  0  0  0
 20 26  1  6  0  0  0
 22 23  1  6  0  0  0
 22 28  1  0  0  0  0
 24 25  1  0  0  0  0
 26 27  1  0  0  0  0
 28 29  1  1  0  0  0
M  END
>  <CHROM.1>
-169.87856904,-147.63429222,-85.26512517,-163.35927247,2.45672488,86.79418877
-2.78169859,12.60757665,7.88627755,-2.24591636,-0.21938709,1.95127617

>  <Name>
ligand

>  <RI>
0

>  <Rbt.Current_Directory>
/home/itssahil/PROJECTS/Mol_Feturizer/New_Systems/rnas/4GPX

>  <Rbt.Executable>
rbdock ($Id: //depot/dev/client3/rdock/2013.1/src/exe/rbdock.cxx#4 $)

>  <Rbt.Library>
libRbt.so (2013.1, Build901 2013/11/27)

>  <Rbt.Parameter_File>
/export/apps/rDock/src/rDock_2013.1_src/data/scripts/dock_solv.prm

>  <Rbt.Receptor>
prm/pocket_docking_3.prm

>  <SCORE>
-20.8566

>  <SCORE.INTER>
-17.0899

>  <SCORE.INTER.CONST>
1

>  <SCORE.INTER.POLAR>
0

>  <SCORE.INTER.ROT>
6

>  <SCORE.INTER.SOLV>
19.7247

>  <SCORE.INTER.VDW>
-25.5682

>  <SCORE.INTER.norm>
-0.551288

>  <SCORE.INTRA>
-3.7667

>  <SCORE.INTRA.DIHEDRAL>
-9.71565

>  <SCORE.INTRA.DIHEDRAL.0>
20.6841

>  <SCORE.INTRA.POLAR>
0

>  <SCORE.INTRA.POLAR.0>
0

>  <SCORE.INTRA.REPUL>
0

>  <SCORE.INTRA.REPUL.0>
0

>  <SCORE.INTRA.SOLV>
-0.743108

>  <SCORE.INTRA.SOLV.lig_0>
-64.6797

>  <SCORE.INTRA.VDW>
1.46268

>  <SCORE.INTRA.VDW.0>
-4.11825

>  <SCORE.INTRA.norm>
-0.121506

>  <SCORE.RESTR>
0

>  <SCORE.RESTR.CAVITY>
0

>  <SCORE.RESTR.norm>
0

>  <SCORE.SYSTEM>
0

>  <SCORE.SYSTEM.CONST>
0

>  <SCORE.SYSTEM.DIHEDRAL>
0

>  <SCORE.SYSTEM.SOLV>
0

>  <SCORE.SYSTEM.norm>
0

>  <SCORE.heavy>
31

>  <SCORE.norm>
-0.672794

>  <RMSD>
0.752

$$$$
ligand
 OpenBabel11021811493D
libRbt.so/2013.1/901 2013/11/27
 31 33  0  0  0  0  0  0  0  0999 V2000
   -3.5528   14.1691    4.9635 C   0  0  2  0  0  0  0  0  0  0  0  0
   -4.1326   14.3979    6.2443 O   0  0  0  0  0  0  0  0  0  0  0  0
   -4.3184   12.5327   10.0615 C   0  0  2  0  0  0  0  0  0  0  0  0
   -4.5718   11.5449   11.0650 N   0  0  0  0  0  0  0  0  0  0  0  0
   -1.8609   10.3407   10.2599 C   0  0  2  0  0  0  0  0  0  0  0  0
   -3.2420   15.5943    4.3485 C   0  0  2  0  0  0  0  0  0  0  0  0
   -2.3298   16.3014    5.2413 N   0  0  0  0  0  0  0  0  0  0  0  0
   -5.6889   12.8819    9.3476 C   0  0  0  0  0  0  0  0  0  0  0  0
   -0.8544   10.6242   11.4197 C   0  0  2  0  0  0  0  0  0  0  0  0
   -1.4361   11.5691   12.2924 O   0  0  0  0  0  0  0  0  0  0  0  0
   -4.5799   16.4136    4.1542 C   0  0  0  0  0  0  0  0  0  0  0  0
   -5.4133   13.9672    8.2404 C   0  0  2  0  0  0  0  0  0  0  0  0
   -6.6836   14.2920    7.5691 N   0  0  0  0  0  0  0  0  0  0  0  0
    0.4620   11.1942   10.7670 C   0  0  1  0  0  0  0  0  0  0  0  0
    1.4647   11.5059   11.8386 N   0  0  0  0  0  0  0  0  0  0  0  0
   -5.7865   15.4954    3.6845 C   0  0  0  0  0  0  0  0  0  0  0  0
   -4.3605   13.4061    7.1857 C   0  0  2  0  0  0  0  0  0  0  0  0
    1.0677   10.0499    9.7759 C   0  0  1  0  0  0  0  0  0  0  0  0
    1.3458    8.8391   10.4585 O   0  0  0  0  0  0  0  0  0  0  0  0
   -5.6751   14.1407    3.6776 C   0  0  2  0  0  0  0  0  0  0  0  0
   -4.4802   13.4652    4.0868 O   0  0  0  0  0  0  0  0  0  0  0  0
   -3.0140   13.0585    7.9221 C   0  0  2  0  0  0  0  0  0  0  0  0
   -2.0692   12.5415    6.9606 O   0  0  0  0  0  0  0  0  0  0  0  0
    0.0310    9.7147    8.6548 C   0  0  0  0  0  0  0  0  0  0  0  0
   -1.2795    9.3299    9.2892 O   0  0  0  0  0  0  0  0  0  0  0  0
   -6.8081   13.2145    3.2314 C   0  0  0  0  0  0  0  0  0  0  0  0
   -7.9734   14.0284    2.9593 O   0  0  0  0  0  0  0  0  0  0  0  0
   -3.3050   11.9577    9.0079 C   0  0  1  0  0  0  0  0  0  0  0  0
   -2.1023   11.6441    9.6369 O   0  0  0  0  0  0  0  0  0  0  0  0
    2.3739   10.4444    9.0452 C   0  0  0  0  0  0  0  0  0  0  0  0
    1.3287   12.8133   12.5127 C   0  0  0  0  0  0  0  0  0  0  0  0
  1  2  1  1  0  0  0
  1  6  1  0  0  0  0
  1 21  1  0  0  0  0
  3  4  1  1  0  0  0
  3  8  1  0  0  0  0
  3 28  1  0  0  0  0
  5  9  1  0  0  0  0
  5 25  1  0  0  0  0
  5 29  1  6  0  0  0
  6  7  1  1  0  0  0
  6 11  1  0  0  0  0
  8 12  1  0  0  0  0
  9 10  1  1  0  0  0
  9 14  1  0  0  0  0
 11 16  1  0  0  0  0
 12 13  1  6  0  0  0
 12 17  1  0  0  0  0
 14 15  1  1  0  0  0
 14 18  1  0  0  0  0
 15 31  1  0  0  0  0
 16 20  1  0  0  0  0
 17  2  1  6  0  0  0
 17 22  1  0  0  0  0
 18 19  1  1  0  0  0
 18 24  1  0  0  0  0
 18 30  1  0  0  0  0
 20 21  1  0  0  0  0
 20 26  1  6  0  0  0
 22 23  1  6  0  0  0
 22 28  1  0  0  0  0
 24 25  1  0  0  0  0
 26 27  1  0  0  0  0
 28 29  1  1  0  0  0
M  END
>  <CHROM.1>
-169.81788725,-150.72015726,-83.36772878,-162.10932934,-4.88604296,87.60948871
-2.80577407,12.60709271,7.92849580,-2.24459217,-0.20783457,1.96075802

>  <Name>
ligand

>  <RI>
0

>  <Rbt.Current_Directory>
/home/itssahil/PROJECTS/Mol_Feturizer/New_Systems/rnas/4GPX

>  <Rbt.Executable>
rbdock ($Id: //depot/dev/client3/rdock/2013.1/src/exe/rbdock.cxx#4 $)

>  <Rbt.Library>
libRbt.so (2013.1, Build901 2013/11/27)

>  <Rbt.Parameter_File>
/export/apps/rDock/src/rDock_2013.1_src/data/scripts/dock_solv.prm

>  <Rbt.Receptor>
prm/pocket_docking_3.prm

>  <SCORE>
-20.8621

>  <SCORE.INTER>
-17.005

>  <SCORE.INTER.CONST>
1

>  <SCORE.INTER.POLAR>
0

>  <SCORE.INTER.ROT>
6

>  <SCORE.INTER.SOLV>
19.6352

>  <SCORE.INTER.VDW>
-25.4818

>  <SCORE.INTER.norm>
-0.54855

>  <SCORE.INTRA>
-3.85702

>  <SCORE.INTRA.DIHEDRAL>
-9.98672

>  <SCORE.INTRA.DIHEDRAL.0>
20.6841

>  <SCORE.INTRA.POLAR>
0

>  <SCORE.INTRA.POLAR.0>
0

>  <SCORE.INTRA.REPUL>
0

>  <SCORE.INTRA.REPUL.0>
0

>  <SCORE.INTRA.SOLV>
-0.743775

>  <SCORE.INTRA.SOLV.lig_0>
-64.6797

>  <SCORE.INTRA.VDW>
1.50823

>  <SCORE.INTRA.VDW.0>
-4.11825

>  <SCORE.INTRA.norm>
-0.12442

>  <SCORE.RESTR>
0

>  <SCORE.RESTR.CAVITY>
0

>  <SCORE.RESTR.norm>
0

>  <SCORE.SYSTEM>
0

>  <SCORE.SYSTEM.CONST>
0

>  <SCORE.SYSTEM.DIHEDRAL>
0

>  <SCORE.SYSTEM.SOLV>
0

>  <SCORE.SYSTEM.norm>
0

>  <SCORE.heavy>
31

>  <SCORE.norm>
-0.67297

>  <RMSD>
0.761

$$$$
ligand
 OpenBabel11021811493D
libRbt.so/2013.1/901 2013/11/27
 31 33  0  0  0  0  0  0  0  0999 V2000
   -3.5040   14.2948    4.9570 C   0  0  2  0  0  0  0  0  0  0  0  0
   -4.0433   14.5238    6.2554 O   0  0  0  0  0  0  0  0  0  0  0  0
   -4.4006   12.6283   10.0453 C   0  0  2  0  0  0  0  0  0  0  0  0
   -4.6946   11.6309   11.0280 N   0  0  0  0  0  0  0  0  0  0  0  0
   -1.9320   10.4510   10.3384 C   0  0  2  0  0  0  0  0  0  0  0  0
   -3.1601   15.7178    4.3546 C   0  0  2  0  0  0  0  0  0  0  0  0
   -2.2021   16.3801    5.2337 N   0  0  0  0  0  0  0  0  0  0  0  0
   -5.7373   12.9716    9.2672 C   0  0  0  0  0  0  0  0  0  0  0  0
   -0.8939   10.7092   11.4760 C   0  0  2  0  0  0  0  0  0  0  0  0
   -1.4351   11.6640   12.3638 O   0  0  0  0  0  0  0  0  0  0  0  0
   -4.4736   16.5848    4.2064 C   0  0  0  0  0  0  0  0  0  0  0  0
   -5.4169   14.0674    8.1828 C   0  0  2  0  0  0  0  0  0  0  0  0
   -6.6553   14.3869    7.4521 N   0  0  0  0  0  0  0  0  0  0  0  0
    0.4197   11.2522   10.7953 C   0  0  1  0  0  0  0  0  0  0  0  0
    1.4528   11.5389   11.8448 N   0  0  0  0  0  0  0  0  0  0  0  0
   -5.7224   15.7153    3.7548 C   0  0  0  0  0  0  0  0  0  0  0  0
   -4.3087   13.5231    7.1773 C   0  0  2  0  0  0  0  0  0  0  0  0
    0.9779   10.0979    9.7881 C   0  0  1  0  0  0  0  0  0  0  0  0
    1.2447    8.8793   10.4614 O   0  0  0  0  0  0  0  0  0  0  0  0
   -5.6578   14.3578    3.7257 C   0  0  2  0  0  0  0  0  0  0  0  0
   -4.4768   13.6362    4.0945 O   0  0  0  0  0  0  0  0  0  0  0  0
   -2.9971   13.1811    7.9766 C   0  0  2  0  0  0  0  0  0  0  0  0
   -2.0017   12.6791    7.0592 O   0  0  0  0  0  0  0  0  0  0  0  0
   -0.0907    9.7886    8.6898 C   0  0  0  0  0  0  0  0  0  0  0  0
   -1.3947    9.4307    9.3524 O   0  0  0  0  0  0  0  0  0  0  0  0
   -6.8327   13.4774    3.2957 C   0  0  0  0  0  0  0  0  0  0  0  0
   -7.3296   12.7873    4.4666 O   0  0  0  0  0  0  0  0  0  0  0  0
   -3.3317   12.0697    9.0388 C   0  0  1  0  0  0  0  0  0  0  0  0
   -2.1587   11.7612    9.7241 O   0  0  0  0  0  0  0  0  0  0  0  0
    2.2757   10.4659    9.0292 C   0  0  0  0  0  0  0  0  0  0  0  0
    1.3387   12.8315   12.5508 C   0  0  0  0  0  0  0  0  0  0  0  0
  1  2  1  1  0  0  0
  1  6  1  0  0  0  0
  1 21  1  0  0  0  0
  3  4  1  1  0  0  0
  3  8  1  0  0  0  0
  3 28  1  0  0  0  0
  5  9  1  0  0  0  0
  5 25  1  0  0  0  0
  5 29  1  6  0  0  0
  6  7  1  1  0  0  0
  6 11  1  0  0  0  0
  8 12  1  0  0  0  0
  9 10  1  1  0  0  0
  9 14  1  0  0  0  0
 11 16  1  0  0  0  0
 12 13  1  6  0  0  0
 12 17  1  0  0  0  0
 14 15  1  1  0  0  0
 14 18  1  0  0  0  0
 15 31  1  0  0  0  0
 16 20  1  0  0  0  0
 17  2  1  6  0  0  0
 17 22  1  0  0  0  0
 18 19  1  1  0  0  0
 18 24  1  0  0  0  0
 18 30  1  0  0  0  0
 20 21  1  0  0  0  0
 20 26  1  6  0  0  0
 22 23  1  6  0  0  0
 22 28  1  0  0  0  0
 24 25  1  0  0  0  0
 26 27  1  0  0  0  0
 28 29  1  1  0  0  0
M  END
>  <CHROM.1>
-171.30047666,-155.46745347,-81.75315568,-156.48625020,-110.06557578,88.18121282
-2.79339952,12.66620551,8.00282105,-2.22627570,-0.13519396,2.03393675

>  <Name>
ligand

>  <RI>
0

>  <Rbt.Current_Directory>
/home/itssahil/PROJECTS/Mol_Feturizer/New_Systems/rnas/4GPX

>  <Rbt.Executable>
rbdock ($Id: //depot/dev/client3/rdock/2013.1/src/exe/rbdock.cxx#4 $)

>  <Rbt.Library>
libRbt.so (2013.1, Build901 2013/11/27)

>  <Rbt.Parameter_File>
/export/apps/rDock/src/rDock_2013.1_src/data/scripts/dock_solv.prm

>  <Rbt.Receptor>
prm/pocket_docking_3.prm

>  <SCORE>
-21.4811

>  <SCORE.INTER>
-16.8548

>  <SCORE.INTER.CONST>
1

>  <SCORE.INTER.POLAR>
0

>  <SCORE.INTER.ROT>
6

>  <SCORE.INTER.SOLV>
19.5025

>  <SCORE.INTER.VDW>
-25.3374

>  <SCORE.INTER.norm>
-0.543703

>  <SCORE.INTRA>
-4.62628

>  <SCORE.INTRA.DIHEDRAL>
-9.91187

>  <SCORE.INTRA.DIHEDRAL.0>
20.6841

>  <SCORE.INTRA.POLAR>
0

>  <SCORE.INTRA.POLAR.0>
0

>  <SCORE.INTRA.REPUL>
0

>  <SCORE.INTRA.REPUL.0>
0

>  <SCORE.INTRA.SOLV>
0.261135

>  <SCORE.INTRA.SOLV.lig_0>
-64.6797

>  <SCORE.INTRA.VDW>
0.199089

>  <SCORE.INTRA.VDW.0>
-4.11825

>  <SCORE.INTRA.norm>
-0.149235

>  <SCORE.RESTR>
0

>  <SCORE.RESTR.CAVITY>
0

>  <SCORE.RESTR.norm>
0

>  <SCORE.SYSTEM>
0

>  <SCORE.SYSTEM.CONST>
0

>  <SCORE.SYSTEM.DIHEDRAL>
0

>  <SCORE.SYSTEM.SOLV>
0

>  <SCORE.SYSTEM.norm>
0

>  <SCORE.heavy>
31

>  <SCORE.norm>
-0.692938

>  <RMSD>
0.775

$$$$
ligand
 OpenBabel11021811493D
libRbt.so/2013.1/901 2013/11/27
 31 33  0  0  0  0  0  0  0  0999 V2000
   -3.5707   14.1803    4.9775 C   0  0  2  0  0  0  0  0  0  0  0  0
   -4.1609   14.4028    6.2548 O   0  0  0  0  0  0  0  0  0  0  0  0
   -4.3361   12.5287   10.0681 C   0  0  2  0  0  0  0  0  0  0  0  0
   -4.5854   11.5381   11.0698 N   0  0  0  0  0  0  0  0  0  0  0  0
   -1.8810   10.3507   10.2780 C   0  0  2  0  0  0  0  0  0  0  0  0
   -3.2740   15.6089    4.3634 C   0  0  2  0  0  0  0  0  0  0  0  0
   -2.3761   16.3280    5.2610 N   0  0  0  0  0  0  0  0  0  0  0  0
   -5.7086   12.8761    9.3570 C   0  0  0  0  0  0  0  0  0  0  0  0
   -0.8723   10.6458   11.4330 C   0  0  2  0  0  0  0  0  0  0  0  0
   -1.4496   11.6042   12.2938 O   0  0  0  0  0  0  0  0  0  0  0  0
   -4.6208   16.4113    4.1605 C   0  0  0  0  0  0  0  0  0  0  0  0
   -5.4374   13.9644    8.2518 C   0  0  2  0  0  0  0  0  0  0  0  0
   -6.7095   14.2875    7.5832 N   0  0  0  0  0  0  0  0  0  0  0  0
    0.4455   11.2023   10.7714 C   0  0  1  0  0  0  0  0  0  0  0  0
    1.4505   11.5245   11.8378 N   0  0  0  0  0  0  0  0  0  0  0  0
   -5.8131   15.4778    3.6844 C   0  0  0  0  0  0  0  0  0  0  0  0
   -4.3848   13.4084    7.1943 C   0  0  2  0  0  0  0  0  0  0  0  0
    1.0459   10.0430    9.7948 C   0  0  1  0  0  0  0  0  0  0  0  0
    1.3204    8.8402   10.4930 O   0  0  0  0  0  0  0  0  0  0  0  0
   -5.6848   14.1246    3.6792 C   0  0  2  0  0  0  0  0  0  0  0  0
   -4.4840   13.4644    4.0960 O   0  0  0  0  0  0  0  0  0  0  0  0
   -3.0363   13.0626    7.9279 C   0  0  2  0  0  0  0  0  0  0  0  0
   -2.0916   12.5500    6.9638 O   0  0  0  0  0  0  0  0  0  0  0  0
    0.0068    9.6968    8.6793 C   0  0  0  0  0  0  0  0  0  0  0  0
   -1.3044    9.3252    9.3201 O   0  0  0  0  0  0  0  0  0  0  0  0
   -6.8035   13.1840    3.2270 C   0  0  0  0  0  0  0  0  0  0  0  0
   -7.9521   13.9896    2.8720 O   0  0  0  0  0  0  0  0  0  0  0  0
   -3.3229   11.9587    9.0117 C   0  0  1  0  0  0  0  0  0  0  0  0
   -2.1184   11.6467    9.6382 O   0  0  0  0  0  0  0  0  0  0  0  0
    2.3527   10.4230    9.0576 C   0  0  0  0  0  0  0  0  0  0  0  0
    1.3274   12.8459   12.4864 C   0  0  0  0  0  0  0  0  0  0  0  0
  1  2  1  1  0  0  0
  1  6  1  0  0  0  0
  1 21  1  0  0  0  0
  3  4  1  1  0  0  0
  3  8  1  0  0  0  0
  3 28  1  0  0  0  0
  5  9  1  0  0  0  0
  5 25  1  0  0  0  0
  5 29  1  6  0  0  0
  6  7  1  1  0  0  0
  6 11  1  0  0  0  0
  8 12  1  0  0  0  0
  9 10  1  1  0  0  0
  9 14  1  0  0  0  0
 11 16  1  0  0  0  0
 12 13  1  6  0  0  0
 12 17  1  0  0  0  0
 14 15  1  1  0  0  0
 14 18  1  0  0  0  0
 15 31  1  0  0  0  0
 16 20  1  0  0  0  0
 17  2  1  6  0  0  0
 17 22  1  0  0  0  0
 18 19  1  1  0  0  0
 18 24  1  0  0  0  0
 18 30  1  0  0  0  0
 20 21  1  0  0  0  0
 20 26  1  6  0  0  0
 22 23  1  6  0  0  0
 22 28  1  0  0  0  0
 24 25  1  0  0  0  0
 26 27  1  0  0  0  0
 28 29  1  1  0  0  0
M  END
>  <CHROM.1>
-169.97588754,-150.42020276,-83.89456080,-162.73843868,-1.56284066,86.53527481
-2.82437959,12.60776968,7.93405476,-2.24365603,-0.20774587,1.95838013

>  <Name>
ligand

>  <RI>
0

>  <Rbt.Current_Directory>
/home/itssahil/PROJECTS/Mol_Feturizer/New_Systems/rnas/4GPX

>  <Rbt.Executable>
rbdock ($Id: //depot/dev/client3/rdock/2013.1/src/exe/rbdock.cxx#4 $)

>  <Rbt.Library>
libRbt.so (2013.1, Build901 2013/11/27)

>  <Rbt.Parameter_File>
/export/apps/rDock/src/rDock_2013.1_src/data/scripts/dock_solv.prm

>  <Rbt.Receptor>
prm/pocket_docking_3.prm

>  <SCORE>
-20.8686

>  <SCORE.INTER>
-16.878

>  <SCORE.INTER.CONST>
1

>  <SCORE.INTER.POLAR>
0

>  <SCORE.INTER.ROT>
6

>  <SCORE.INTER.SOLV>
19.7112

>  <SCORE.INTER.VDW>
-25.4224

>  <SCORE.INTER.norm>
-0.544453

>  <SCORE.INTRA>
-3.99056

>  <SCORE.INTRA.DIHEDRAL>
-10.2519

>  <SCORE.INTRA.DIHEDRAL.0>
20.6841

>  <SCORE.INTRA.POLAR>
0

>  <SCORE.INTRA.POLAR.0>
0

>  <SCORE.INTRA.REPUL>
0

>  <SCORE.INTRA.REPUL.0>
0

>  <SCORE.INTRA.SOLV>
-0.788097

>  <SCORE.INTRA.SOLV.lig_0>
-64.6797

>  <SCORE.INTRA.VDW>
1.52942

>  <SCORE.INTRA.VDW.0>
-4.11825

>  <SCORE.INTRA.norm>
-0.128728

>  <SCORE.RESTR>
0

>  <SCORE.RESTR.CAVITY>
0

>  <SCORE.RESTR.norm>
0

>  <SCORE.SYSTEM>
0

>  <SCORE.SYSTEM.CONST>
0

>  <SCORE.SYSTEM.DIHEDRAL>
0

>  <SCORE.SYSTEM.SOLV>
0

>  <SCORE.SYSTEM.norm>
0

>  <SCORE.heavy>
31

>  <SCORE.norm>
-0.673181

>  <RMSD>
0.779

$$$$
ligand
 OpenBabel11021811493D
libRbt.so/2013.1/901 2013/11/27
 31 33  0  0  0  0  0  0  0  0999 V2000
   -3.5456   14.0584    5.0180 C   0  0  2  0  0  0  0  0  0  0  0  0
   -4.1470   14.3146    6.2837 O   0  0  0  0  0  0  0  0  0  0  0  0
   -4.4939   12.5386   10.1320 C   0  0  2  0  0  0  0  0  0  0  0  0
   -4.7789   11.5700   11.1457 N   0  0  0  0  0  0  0  0  0  0  0  0
   -1.9805   10.3874   10.4644 C   0  0  2  0  0  0  0  0  0  0  0  0
   -3.1535   15.4673    4.4121 C   0  0  2  0  0  0  0  0  0  0  0  0
   -2.2329   16.1321    5.3284 N   0  0  0  0  0  0  0  0  0  0  0  0
   -5.8320   12.8400    9.3393 C   0  0  0  0  0  0  0  0  0  0  0  0
   -0.9156   10.6684   11.5715 C   0  0  2  0  0  0  0  0  0  0  0  0
   -1.4450   11.6237   12.4657 O   0  0  0  0  0  0  0  0  0  0  0  0
   -4.4467   16.3475    4.1840 C   0  0  0  0  0  0  0  0  0  0  0  0
   -5.5214   13.9040    8.2208 C   0  0  2  0  0  0  0  0  0  0  0  0
   -6.7612   14.1844    7.4765 N   0  0  0  0  0  0  0  0  0  0  0  0
    0.3721   11.2221   10.8511 C   0  0  1  0  0  0  0  0  0  0  0  0
    1.4293   11.5308   11.8700 N   0  0  0  0  0  0  0  0  0  0  0  0
   -5.6820   15.4858    3.6828 C   0  0  0  0  0  0  0  0  0  0  0  0
   -4.4032   13.3411    7.2367 C   0  0  2  0  0  0  0  0  0  0  0  0
    0.9179   10.0664    9.8387 C   0  0  1  0  0  0  0  0  0  0  0  0
    1.2184    8.8571   10.5145 O   0  0  0  0  0  0  0  0  0  0  0  0
   -5.6333   14.1274    3.6780 C   0  0  2  0  0  0  0  0  0  0  0  0
   -4.4818   13.3977    4.1175 O   0  0  0  0  0  0  0  0  0  0  0  0
   -3.0903   13.0413    8.0506 C   0  0  2  0  0  0  0  0  0  0  0  0
   -2.0857   12.5222    7.1529 O   0  0  0  0  0  0  0  0  0  0  0  0
   -0.1757    9.7343    8.7722 C   0  0  0  0  0  0  0  0  0  0  0  0
   -1.4568    9.3655    9.4727 O   0  0  0  0  0  0  0  0  0  0  0  0
   -6.7961   13.2543    3.2024 C   0  0  0  0  0  0  0  0  0  0  0  0
   -7.4588   12.7134    4.3696 O   0  0  0  0  0  0  0  0  0  0  0  0
   -3.4149   11.9609    9.1474 C   0  0  1  0  0  0  0  0  0  0  0  0
   -2.2405   11.6893    9.8458 O   0  0  0  0  0  0  0  0  0  0  0  0
    2.1900   10.4444    9.0420 C   0  0  0  0  0  0  0  0  0  0  0  0
    1.3209   12.8304   12.5638 C   0  0  0  0  0  0  0  0  0  0  0  0
  1  2  1  1  0  0  0
  1  6  1  0  0  0  0
  1 21  1  0  0  0  0
  3  4  1  1  0  0  0
  3  8  1  0  0  0  0
  3 28  1  0  0  0  0
  5  9  1  0  0  0  0
  5 25  1  0  0  0  0
  5 29  1  6  0  0  0
  6  7  1  1  0  0  0
  6 11  1  0  0  0  0
  8 12  1  0  0  0  0
  9 10  1  1  0  0  0
  9 14  1  0  0  0  0
 11 16  1  0  0  0  0
 12 13  1  6  0  0  0
 12 17  1  0  0  0  0
 14 15  1  1  0  0  0
 14 18  1  0  0  0  0
 15 31  1  0  0  0  0
 16 20  1  0  0  0  0
 17  2  1  6  0  0  0
 17 22  1  0  0  0  0
 18 19  1  1  0  0  0
 18 24  1  0  0  0  0
 18 30  1  0  0  0  0
 20 21  1  0  0  0  0
 20 26  1  6  0  0  0
 22 23  1  6  0  0  0
 22 28  1  0  0  0  0
 24 25  1  0  0  0  0
 26 27  1  0  0  0  0
 28 29  1  1  0  0  0
M  END
>  <CHROM.1>
-167.53328788,-157.89480233,-82.02303634,-159.41518697,-103.43295778,90.29890947
-2.84475332,12.54259012,8.04975916,-2.22821641,-0.14073549,1.99785853

>  <Name>
ligand

>  <RI>
0

>  <Rbt.Current_Directory>
/home/itssahil/PROJECTS/Mol_Feturizer/New_Systems/rnas/4GPX

>  <Rbt.Executable>
rbdock ($Id: //depot/dev/client3/rdock/2013.1/src/exe/rbdock.cxx#4 $)

>  <Rbt.Library>
libRbt.so (2013.1, Build901 2013/11/27)

>  <Rbt.Parameter_File>
/export/apps/rDock/src/rDock_2013.1_src/data/scripts/dock_solv.prm

>  <Rbt.Receptor>
prm/pocket_docking_5.prm

>  <SCORE>
-21.4437

>  <SCORE.INTER>
-16.7451

>  <SCORE.INTER.CONST>
1

>  <SCORE.INTER.POLAR>
0

>  <SCORE.INTER.ROT>
6

>  <SCORE.INTER.SOLV>
19.8347

>  <SCORE.INTER.VDW>
-25.3749

>  <SCORE.INTER.norm>
-0.540164

>  <SCORE.INTRA>
-4.69863

>  <SCORE.INTRA.DIHEDRAL>
-9.85543

>  <SCORE.INTRA.DIHEDRAL.0>
20.6841

>  <SCORE.INTRA.POLAR>
0

>  <SCORE.INTRA.POLAR.0>
0

>  <SCORE.INTRA.REPUL>
0

>  <SCORE.INTRA.REPUL.0>
0

>  <SCORE.INTRA.SOLV>
-0.0805054

>  <SCORE.INTRA.SOLV.lig_0>
-64.6797

>  <SCORE.INTRA.VDW>
0.269342

>  <SCORE.INTRA.VDW.0>
-4.11825

>  <SCORE.INTRA.norm>
-0.151569

>  <SCORE.RESTR>
0

>  <SCORE.RESTR.CAVITY>
0

>  <SCORE.RESTR.norm>
0

>  <SCORE.SYSTEM>
0

>  <SCORE.SYSTEM.CONST>
0

>  <SCORE.SYSTEM.DIHEDRAL>
0

>  <SCORE.SYSTEM.SOLV>
0

>  <SCORE.SYSTEM.norm>
0

>  <SCORE.heavy>
31

>  <SCORE.norm>
-0.691732

>  <RMSD>
0.780

$$$$
ligand
 OpenBabel11021811493D
libRbt.so/2013.1/901 2013/11/27
 31 33  0  0  0  0  0  0  0  0999 V2000
   -3.5305   14.2371    5.0192 C   0  0  2  0  0  0  0  0  0  0  0  0
   -4.1664   14.4637    6.2736 O   0  0  0  0  0  0  0  0  0  0  0  0
   -4.3748   12.6087   10.0946 C   0  0  2  0  0  0  0  0  0  0  0  0
   -4.6386   11.6255   11.0999 N   0  0  0  0  0  0  0  0  0  0  0  0
   -1.9477   10.4054   10.3263 C   0  0  2  0  0  0  0  0  0  0  0  0
   -3.2190   15.6637    4.4079 C   0  0  2  0  0  0  0  0  0  0  0  0
   -2.3566   16.3921    5.3327 N   0  0  0  0  0  0  0  0  0  0  0  0
   -5.7410   12.9687    9.3778 C   0  0  0  0  0  0  0  0  0  0  0  0
   -0.9147   10.6908   11.4622 C   0  0  2  0  0  0  0  0  0  0  0  0
   -1.4570   11.6713   12.3206 O   0  0  0  0  0  0  0  0  0  0  0  0
   -4.5615   16.4585    4.1533 C   0  0  0  0  0  0  0  0  0  0  0  0
   -5.4540   14.0490    8.2687 C   0  0  2  0  0  0  0  0  0  0  0  0
   -6.7202   14.3838    7.5947 N   0  0  0  0  0  0  0  0  0  0  0  0
    0.4046   11.2102   10.7740 C   0  0  1  0  0  0  0  0  0  0  0  0
    1.4331   11.5216   11.8210 N   0  0  0  0  0  0  0  0  0  0  0  0
   -5.7319   15.5167    3.6406 C   0  0  0  0  0  0  0  0  0  0  0  0
   -4.4047   13.4761    7.2168 C   0  0  2  0  0  0  0  0  0  0  0  0
    0.9638   10.0269    9.8017 C   0  0  1  0  0  0  0  0  0  0  0  0
    1.2224    8.8261   10.5094 O   0  0  0  0  0  0  0  0  0  0  0  0
   -5.5973   14.1641    3.6475 C   0  0  2  0  0  0  0  0  0  0  0  0
   -4.4088   13.5120    4.1101 O   0  0  0  0  0  0  0  0  0  0  0  0
   -3.0625   13.1180    7.9560 C   0  0  2  0  0  0  0  0  0  0  0  0
   -2.1209   12.5903    6.9971 O   0  0  0  0  0  0  0  0  0  0  0  0
   -0.1000    9.6917    8.7064 C   0  0  0  0  0  0  0  0  0  0  0  0
   -1.4090    9.3566    9.3714 O   0  0  0  0  0  0  0  0  0  0  0  0
   -6.6949   13.2157    3.1614 C   0  0  0  0  0  0  0  0  0  0  0  0
   -7.4337   12.7535    4.3168 O   0  0  0  0  0  0  0  0  0  0  0  0
   -3.3651   12.0223    9.0438 C   0  0  1  0  0  0  0  0  0  0  0  0
   -2.1661   11.6992    9.6754 O   0  0  0  0  0  0  0  0  0  0  0  0
    2.2670   10.3694    9.0401 C   0  0  0  0  0  0  0  0  0  0  0  0
    1.3309   12.8407   12.4781 C   0  0  0  0  0  0  0  0  0  0  0  0
  1  2  1  1  0  0  0
  1  6  1  0  0  0  0
  1 21  1  0  0  0  0
  3  4  1  1  0  0  0
  3  8  1  0  0  0  0
  3 28  1  0  0  0  0
  5  9  1  0  0  0  0
  5 25  1  0  0  0  0
  5 29  1  6  0  0  0
  6  7  1  1  0  0  0
  6 11  1  0  0  0  0
  8 12  1  0  0  0  0
  9 10  1  1  0  0  0
  9 14  1  0  0  0  0
 11 16  1  0  0  0  0
 12 13  1  6  0  0  0
 12 17  1  0  0  0  0
 14 15  1  1  0  0  0
 14 18  1  0  0  0  0
 15 31  1  0  0  0  0
 16 20  1  0  0  0  0
 17  2  1  6  0  0  0
 17 22  1  0  0  0  0
 18 19  1  1  0  0  0
 18 24  1  0  0  0  0
 18 30  1  0  0  0  0
 20 21  1  0  0  0  0
 20 26  1  6  0  0  0
 22 23  1  6  0  0  0
 22 28  1  0  0  0  0
 24 25  1  0  0  0  0
 26 27  1  0  0  0  0
 28 29  1  1  0  0  0
M  END
>  <CHROM.1>
-169.18589983,-151.55718631,-82.54694416,-165.14850158,-97.36828282,86.28283856
-2.82023396,12.60315146,8.00178568,-2.23408113,-0.18253262,1.98724982

>  <Name>
ligand

>  <RI>
0

>  <Rbt.Current_Directory>
/home/itssahil/PROJECTS/Mol_Feturizer/New_Systems/rnas/4GPX

>  <Rbt.Executable>
rbdock ($Id: //depot/dev/client3/rdock/2013.1/src/exe/rbdock.cxx#4 $)

>  <Rbt.Library>
libRbt.so (2013.1, Build901 2013/11/27)

>  <Rbt.Parameter_File>
/export/apps/rDock/src/rDock_2013.1_src/data/scripts/dock_solv.prm

>  <Rbt.Receptor>
prm/pocket_docking_5.prm

>  <SCORE>
-21.2951

>  <SCORE.INTER>
-16.4333

>  <SCORE.INTER.CONST>
1

>  <SCORE.INTER.POLAR>
0

>  <SCORE.INTER.ROT>
6

>  <SCORE.INTER.SOLV>
19.7936

>  <SCORE.INTER.VDW>
-25.1534

>  <SCORE.INTER.norm>
-0.530106

>  <SCORE.INTRA>
-4.86181

>  <SCORE.INTRA.DIHEDRAL>
-10.2184

>  <SCORE.INTRA.DIHEDRAL.0>
20.6841

>  <SCORE.INTRA.POLAR>
0

>  <SCORE.INTRA.POLAR.0>
0

>  <SCORE.INTRA.REPUL>
0

>  <SCORE.INTRA.REPUL.0>
0

>  <SCORE.INTRA.SOLV>
-0.505371

>  <SCORE.INTRA.SOLV.lig_0>
-64.6797

>  <SCORE.INTRA.VDW>
0.500058

>  <SCORE.INTRA.VDW.0>
-4.11825

>  <SCORE.INTRA.norm>
-0.156833

>  <SCORE.RESTR>
0

>  <SCORE.RESTR.CAVITY>
0

>  <SCORE.RESTR.norm>
0

>  <SCORE.SYSTEM>
0

>  <SCORE.SYSTEM.CONST>
0

>  <SCORE.SYSTEM.DIHEDRAL>
0

>  <SCORE.SYSTEM.SOLV>
0

>  <SCORE.SYSTEM.norm>
0

>  <SCORE.heavy>
31

>  <SCORE.norm>
-0.686938

>  <RMSD>
0.786

$$$$
ligand
 OpenBabel11021811493D
libRbt.so/2013.1/901 2013/11/27
 31 33  0  0  0  0  0  0  0  0999 V2000
   -3.5482   14.1937    4.9923 C   0  0  2  0  0  0  0  0  0  0  0  0
   -4.1347   14.4357    6.2677 O   0  0  0  0  0  0  0  0  0  0  0  0
   -4.4382   12.5994   10.0913 C   0  0  2  0  0  0  0  0  0  0  0  0
   -4.7200   11.6183   11.0937 N   0  0  0  0  0  0  0  0  0  0  0  0
   -1.9738   10.4176   10.3791 C   0  0  2  0  0  0  0  0  0  0  0  0
   -3.2219   15.6122    4.3700 C   0  0  2  0  0  0  0  0  0  0  0  0
   -2.3101   16.3181    5.2642 N   0  0  0  0  0  0  0  0  0  0  0  0
   -5.7859   12.9362    9.3296 C   0  0  0  0  0  0  0  0  0  0  0  0
   -0.9254   10.6917   11.5036 C   0  0  2  0  0  0  0  0  0  0  0  0
   -1.4580   11.6600   12.3819 O   0  0  0  0  0  0  0  0  0  0  0  0
   -4.5518   16.4408    4.1613 C   0  0  0  0  0  0  0  0  0  0  0  0
   -5.4789   14.0141    8.2236 C   0  0  2  0  0  0  0  0  0  0  0  0
   -6.7277   14.3273    7.5080 N   0  0  0  0  0  0  0  0  0  0  0  0
    0.3825   11.2234   10.8033 C   0  0  1  0  0  0  0  0  0  0  0  0
    1.4250   11.5247   11.8393 N   0  0  0  0  0  0  0  0  0  0  0  0
   -5.7626   15.5291    3.6896 C   0  0  0  0  0  0  0  0  0  0  0  0
   -4.3890   13.4502    7.2088 C   0  0  2  0  0  0  0  0  0  0  0  0
    0.9309   10.0538    9.8084 C   0  0  1  0  0  0  0  0  0  0  0  0
    1.2027    8.8451   10.4973 O   0  0  0  0  0  0  0  0  0  0  0  0
   -5.6621   14.1735    3.6924 C   0  0  2  0  0  0  0  0  0  0  0  0
   -4.4753   13.4914    4.1142 O   0  0  0  0  0  0  0  0  0  0  0  0
   -3.0660   13.1152    7.9922 C   0  0  2  0  0  0  0  0  0  0  0  0
   -2.0873   12.5954    7.0668 O   0  0  0  0  0  0  0  0  0  0  0  0
   -0.1476    9.7293    8.7243 C   0  0  0  0  0  0  0  0  0  0  0  0
   -1.4460    9.3823    9.4037 O   0  0  0  0  0  0  0  0  0  0  0  0
   -6.7994   13.2534    3.2449 C   0  0  0  0  0  0  0  0  0  0  0  0
   -7.4281   12.7074    4.4285 O   0  0  0  0  0  0  0  0  0  0  0  0
   -3.3876   12.0214    9.0765 C   0  0  1  0  0  0  0  0  0  0  0  0
   -2.2050   11.7187    9.7476 O   0  0  0  0  0  0  0  0  0  0  0  0
    2.2222   10.4094    9.0326 C   0  0  0  0  0  0  0  0  0  0  0  0
    1.3234   12.8314   12.5206 C   0  0  0  0  0  0  0  0  0  0  0  0
  1  2  1  1  0  0  0
  1  6  1  0  0  0  0
  1 21  1  0  0  0  0
  3  4  1  1  0  0  0
  3  8  1  0  0  0  0
  3 28  1  0  0  0  0
  5  9  1  0  0  0  0
  5 25  1  0  0  0  0
  5 29  1  6  0  0  0
  6  7  1  1  0  0  0
  6 11  1  0  0  0  0
  8 12  1  0  0  0  0
  9 10  1  1  0  0  0
  9 14  1  0  0  0  0
 11 16  1  0  0  0  0
 12 13  1  6  0  0  0
 12 17  1  0  0  0  0
 14 15  1  1  0  0  0
 14 18  1  0  0  0  0
 15 31  1  0  0  0  0
 16 20  1  0  0  0  0
 17  2  1  6  0  0  0
 17 22  1  0  0  0  0
 18 19  1  1  0  0  0
 18 24  1  0  0  0  0
 18 30  1  0  0  0  0
 20 21  1  0  0  0  0
 20 26  1  6  0  0  0
 22 23  1  6  0  0  0
 22 28  1  0  0  0  0
 24 25  1  0  0  0  0
 26 27  1  0  0  0  0
 28 29  1  1  0  0  0
M  END
>  <CHROM.1>
-170.48905672,-154.99265508,-82.14984231,-160.13421158,-102.81327185,88.12339548
-2.84203243,12.59655965,8.01768575,-2.23130050,-0.15419157,2.00378695

>  <Name>
ligand

>  <RI>
0

>  <Rbt.Current_Directory>
/home/itssahil/PROJECTS/Mol_Feturizer/New_Systems/rnas/4GPX

>  <Rbt.Executable>
rbdock ($Id: //depot/dev/client3/rdock/2013.1/src/exe/rbdock.cxx#4 $)

>  <Rbt.Library>
libRbt.so (2013.1, Build901 2013/11/27)

>  <Rbt.Parameter_File>
/export/apps/rDock/src/rDock_2013.1_src/data/scripts/dock_solv.prm

>  <Rbt.Receptor>
prm/pocket_docking_4.prm

>  <SCORE>
-21.5671

>  <SCORE.INTER>
-16.7525

>  <SCORE.INTER.CONST>
1

>  <SCORE.INTER.POLAR>
0

>  <SCORE.INTER.ROT>
6

>  <SCORE.INTER.SOLV>
19.8922

>  <SCORE.INTER.VDW>
-25.3991

>  <SCORE.INTER.norm>
-0.540404

>  <SCORE.INTRA>
-4.81453

>  <SCORE.INTRA.DIHEDRAL>
-10.1414

>  <SCORE.INTRA.DIHEDRAL.0>
20.6841

>  <SCORE.INTRA.POLAR>
0

>  <SCORE.INTRA.POLAR.0>
0

>  <SCORE.INTRA.REPUL>
0

>  <SCORE.INTRA.REPUL.0>
0

>  <SCORE.INTRA.SOLV>
-0.0939642

>  <SCORE.INTRA.SOLV.lig_0>
-64.6797

>  <SCORE.INTRA.VDW>
0.30313

>  <SCORE.INTRA.VDW.0>
-4.11825

>  <SCORE.INTRA.norm>
-0.155307

>  <SCORE.RESTR>
0

>  <SCORE.RESTR.CAVITY>
0

>  <SCORE.RESTR.norm>
0

>  <SCORE.SYSTEM>
0

>  <SCORE.SYSTEM.CONST>
0

>  <SCORE.SYSTEM.DIHEDRAL>
0

>  <SCORE.SYSTEM.SOLV>
0

>  <SCORE.SYSTEM.norm>
0

>  <SCORE.heavy>
31

>  <SCORE.norm>
-0.695712

>  <RMSD>
0.787

$$$$
ligand
 OpenBabel11021811493D
libRbt.so/2013.1/901 2013/11/27
 31 33  0  0  0  0  0  0  0  0999 V2000
   -3.5124   14.3077    4.9522 C   0  0  2  0  0  0  0  0  0  0  0  0
   -4.0552   14.5285    6.2506 O   0  0  0  0  0  0  0  0  0  0  0  0
   -4.3946   12.6100   10.0306 C   0  0  2  0  0  0  0  0  0  0  0  0
   -4.6848   11.6070   11.0087 N   0  0  0  0  0  0  0  0  0  0  0  0
   -1.9435   10.4396   10.3287 C   0  0  2  0  0  0  0  0  0  0  0  0
   -3.1850   15.7356    4.3521 C   0  0  2  0  0  0  0  0  0  0  0  0
   -2.2355   16.4079    5.2329 N   0  0  0  0  0  0  0  0  0  0  0  0
   -5.7350   12.9605    9.2622 C   0  0  0  0  0  0  0  0  0  0  0  0
   -0.9145   10.7096   11.4719 C   0  0  2  0  0  0  0  0  0  0  0  0
   -1.4579   11.6819   12.3391 O   0  0  0  0  0  0  0  0  0  0  0  0
   -4.5085   16.5872    4.2042 C   0  0  0  0  0  0  0  0  0  0  0  0
   -5.4188   14.0625    8.1828 C   0  0  2  0  0  0  0  0  0  0  0  0
   -6.6607   14.3887    7.4611 N   0  0  0  0  0  0  0  0  0  0  0  0
    0.4089   11.2334   10.7951 C   0  0  1  0  0  0  0  0  0  0  0  0
    1.4338   11.5305   11.8497 N   0  0  0  0  0  0  0  0  0  0  0  0
   -5.7466   15.7035    3.7504 C   0  0  0  0  0  0  0  0  0  0  0  0
   -4.3172   13.5225    7.1677 C   0  0  2  0  0  0  0  0  0  0  0  0
    0.9692   10.0596    9.8119 C   0  0  1  0  0  0  0  0  0  0  0  0
    1.2218    8.8504   10.5071 O   0  0  0  0  0  0  0  0  0  0  0  0
   -5.6659   14.3469    3.7195 C   0  0  2  0  0  0  0  0  0  0  0  0
   -4.4766   13.6388    4.0881 O   0  0  0  0  0  0  0  0  0  0  0  0
   -3.0018   13.1732    7.9575 C   0  0  2  0  0  0  0  0  0  0  0  0
   -2.0124   12.6752    7.0314 O   0  0  0  0  0  0  0  0  0  0  0  0
   -0.0910    9.7393    8.7085 C   0  0  0  0  0  0  0  0  0  0  0  0
   -1.4035    9.4002    9.3644 O   0  0  0  0  0  0  0  0  0  0  0  0
   -6.8299   13.4533    3.2873 C   0  0  0  0  0  0  0  0  0  0  0  0
   -7.3427   12.7830    4.4630 O   0  0  0  0  0  0  0  0  0  0  0  0
   -3.3324   12.0559    9.0147 C   0  0  1  0  0  0  0  0  0  0  0  0
   -2.1561   11.7411    9.6914 O   0  0  0  0  0  0  0  0  0  0  0  0
    2.2764   10.4073    9.0595 C   0  0  0  0  0  0  0  0  0  0  0  0
    1.3432   12.8497   12.5082 C   0  0  0  0  0  0  0  0  0  0  0  0
  1  2  1  1  0  0  0
  1  6  1  0  0  0  0
  1 21  1  0  0  0  0
  3  4  1  1  0  0  0
  3  8  1  0  0  0  0
  3 28  1  0  0  0  0
  5  9  1  0  0  0  0
  5 25  1  0  0  0  0
  5 29  1  6  0  0  0
  6  7  1  1  0  0  0
  6 11  1  0  0  0  0
  8 12  1  0  0  0  0
  9 10  1  1  0  0  0
  9 14  1  0  0  0  0
 11 16  1  0  0  0  0
 12 13  1  6  0  0  0
 12 17  1  0  0  0  0
 14 15  1  1  0  0  0
 14 18  1  0  0  0  0
 15 31  1  0  0  0  0
 16 20  1  0  0  0  0
 17  2  1  6  0  0  0
 17 22  1  0  0  0  0
 18 19  1  1  0  0  0
 18 24  1  0  0  0  0
 18 30  1  0  0  0  0
 20 21  1  0  0  0  0
 20 26  1  6  0  0  0
 22 23  1  6  0  0  0
 22 28  1  0  0  0  0
 24 25  1  0  0  0  0
 26 27  1  0  0  0  0
 28 29  1  1  0  0  0
M  END
>  <CHROM.1>
-171.72402800,-154.05628633,-83.34685669,-157.08078485,-108.54598894,86.41770442
-2.80269226,12.65677429,7.99847699,-2.22491222,-0.13013545,2.04111854

>  <Name>
ligand

>  <RI>
0

>  <Rbt.Current_Directory>
/home/itssahil/PROJECTS/Mol_Feturizer/New_Systems/rnas/4GPX

>  <Rbt.Executable>
rbdock ($Id: //depot/dev/client3/rdock/2013.1/src/exe/rbdock.cxx#4 $)

>  <Rbt.Library>
libRbt.so (2013.1, Build901 2013/11/27)

>  <Rbt.Parameter_File>
/export/apps/rDock/src/rDock_2013.1_src/data/scripts/dock_solv.prm

>  <Rbt.Receptor>
prm/pocket_docking_8.prm

>  <SCORE>
-21.5195

>  <SCORE.INTER>
-16.8192

>  <SCORE.INTER.CONST>
1

>  <SCORE.INTER.POLAR>
0

>  <SCORE.INTER.ROT>
6

>  <SCORE.INTER.SOLV>
19.6939

>  <SCORE.INTER.VDW>
-25.3775

>  <SCORE.INTER.norm>
-0.542556

>  <SCORE.INTRA>
-4.70027

>  <SCORE.INTRA.DIHEDRAL>
-10.0352

>  <SCORE.INTRA.DIHEDRAL.0>
20.6841

>  <SCORE.INTRA.POLAR>
0

>  <SCORE.INTRA.POLAR.0>
0

>  <SCORE.INTRA.REPUL>
0

>  <SCORE.INTRA.REPUL.0>
0

>  <SCORE.INTRA.SOLV>
0.250147

>  <SCORE.INTRA.SOLV.lig_0>
-64.6797

>  <SCORE.INTRA.VDW>
0.192276

>  <SCORE.INTRA.VDW.0>
-4.11825

>  <SCORE.INTRA.norm>
-0.151622

>  <SCORE.RESTR>
0

>  <SCORE.RESTR.CAVITY>
0

>  <SCORE.RESTR.norm>
0

>  <SCORE.SYSTEM>
0

>  <SCORE.SYSTEM.CONST>
0

>  <SCORE.SYSTEM.DIHEDRAL>
0

>  <SCORE.SYSTEM.SOLV>
0

>  <SCORE.SYSTEM.norm>
0

>  <SCORE.heavy>
31

>  <SCORE.norm>
-0.694178

>  <RMSD>
0.788

$$$$
ligand
 OpenBabel11021811493D
libRbt.so/2013.1/901 2013/11/27
 31 33  0  0  0  0  0  0  0  0999 V2000
   -3.5578   14.1751    4.9714 C   0  0  2  0  0  0  0  0  0  0  0  0
   -4.1057   14.4245    6.2624 O   0  0  0  0  0  0  0  0  0  0  0  0
   -4.4318   12.5924   10.0862 C   0  0  2  0  0  0  0  0  0  0  0  0
   -4.7190   11.6121   11.0880 N   0  0  0  0  0  0  0  0  0  0  0  0
   -1.9750   10.4209   10.4098 C   0  0  2  0  0  0  0  0  0  0  0  0
   -3.2133   15.5886    4.3475 C   0  0  2  0  0  0  0  0  0  0  0  0
   -2.2624   16.2677    5.2213 N   0  0  0  0  0  0  0  0  0  0  0  0
   -5.7750   12.9267    9.3154 C   0  0  0  0  0  0  0  0  0  0  0  0
   -0.9255   10.7042   11.5309 C   0  0  2  0  0  0  0  0  0  0  0  0
   -1.4512   11.6901   12.3936 O   0  0  0  0  0  0  0  0  0  0  0  0
   -4.5278   16.4499    4.1766 C   0  0  0  0  0  0  0  0  0  0  0  0
   -5.4620   14.0037    8.2101 C   0  0  2  0  0  0  0  0  0  0  0  0
   -6.7065   14.3147    7.4861 N   0  0  0  0  0  0  0  0  0  0  0  0
    0.3871   11.2146   10.8237 C   0  0  1  0  0  0  0  0  0  0  0  0
    1.4312   11.5238   11.8559 N   0  0  0  0  0  0  0  0  0  0  0  0
   -5.7718   15.5699    3.7317 C   0  0  0  0  0  0  0  0  0  0  0  0
   -4.3650   13.4398    7.2031 C   0  0  2  0  0  0  0  0  0  0  0  0
    0.9272   10.0255    9.8476 C   0  0  1  0  0  0  0  0  0  0  0  0
    1.1889    8.8255   10.5554 O   0  0  0  0  0  0  0  0  0  0  0  0
   -5.7039   14.2123    3.7258 C   0  0  2  0  0  0  0  0  0  0  0  0
   -4.5236   13.4998    4.1140 O   0  0  0  0  0  0  0  0  0  0  0  0
   -3.0467   13.1072    7.9954 C   0  0  2  0  0  0  0  0  0  0  0  0
   -2.0615   12.5874    7.0769 O   0  0  0  0  0  0  0  0  0  0  0  0
   -0.1529    9.6926    8.7676 C   0  0  0  0  0  0  0  0  0  0  0  0
   -1.4546    9.3664    9.4511 O   0  0  0  0  0  0  0  0  0  0  0  0
   -6.8741   13.3221    3.3031 C   0  0  0  0  0  0  0  0  0  0  0  0
   -7.4082   12.6884    4.4895 O   0  0  0  0  0  0  0  0  0  0  0  0
   -3.3741   12.0143    9.0789 C   0  0  1  0  0  0  0  0  0  0  0  0
   -2.1954   11.7138    9.7580 O   0  0  0  0  0  0  0  0  0  0  0  0
    2.2219   10.3589    9.0676 C   0  0  0  0  0  0  0  0  0  0  0  0
    1.3252   12.8320   12.5338 C   0  0  0  0  0  0  0  0  0  0  0  0
  1  2  1  1  0  0  0
  1  6  1  0  0  0  0
  1 21  1  0  0  0  0
  3  4  1  1  0  0  0
  3  8  1  0  0  0  0
  3 28  1  0  0  0  0
  5  9  1  0  0  0  0
  5 25  1  0  0  0  0
  5 29  1  6  0  0  0
  6  7  1  1  0  0  0
  6 11  1  0  0  0  0
  8 12  1  0  0  0  0
  9 10  1  1  0  0  0
  9 14  1  0  0  0  0
 11 16  1  0  0  0  0
 12 13  1  6  0  0  0
 12 17  1  0  0  0  0
 14 15  1  1  0  0  0
 14 18  1  0  0  0  0
 15 31  1  0  0  0  0
 16 20  1  0  0  0  0
 17  2  1  6  0  0  0
 17 22  1  0  0  0  0
 18 19  1  1  0  0  0
 18 24  1  0  0  0  0
 18 30  1  0  0  0  0
 20 21  1  0  0  0  0
 20 26  1  6  0  0  0
 22 23  1  6  0  0  0
 22 28  1  0  0  0  0
 24 25  1  0  0  0  0
 26 27  1  0  0  0  0
 28 29  1  1  0  0  0
M  END
>  <CHROM.1>
-170.77449983,-155.12100680,-81.10213069,-157.63238159,-107.99020230,87.17917077
-2.83944397,12.59153661,8.03181927,-2.22909477,-0.14257022,2.01485425

>  <Name>
ligand

>  <RI>
0

>  <Rbt.Current_Directory>
/home/itssahil/PROJECTS/Mol_Feturizer/New_Systems/rnas/4GPX

>  <Rbt.Executable>
rbdock ($Id: //depot/dev/client3/rdock/2013.1/src/exe/rbdock.cxx#4 $)

>  <Rbt.Library>
libRbt.so (2013.1, Build901 2013/11/27)

>  <Rbt.Parameter_File>
/export/apps/rDock/src/rDock_2013.1_src/data/scripts/dock_solv.prm

>  <Rbt.Receptor>
prm/pocket_docking_3.prm

>  <SCORE>
-21.5264

>  <SCORE.INTER>
-16.8091

>  <SCORE.INTER.CONST>
1

>  <SCORE.INTER.POLAR>
0

>  <SCORE.INTER.ROT>
6

>  <SCORE.INTER.SOLV>
19.9641

>  <SCORE.INTER.VDW>
-25.4608

>  <SCORE.INTER.norm>
-0.54223

>  <SCORE.INTRA>
-4.71726

>  <SCORE.INTRA.DIHEDRAL>
-10.1546

>  <SCORE.INTRA.DIHEDRAL.0>
20.6841

>  <SCORE.INTRA.POLAR>
0

>  <SCORE.INTRA.POLAR.0>
0

>  <SCORE.INTRA.REPUL>
0

>  <SCORE.INTRA.REPUL.0>
0

>  <SCORE.INTRA.SOLV>
0.174595

>  <SCORE.INTRA.SOLV.lig_0>
-64.6797

>  <SCORE.INTRA.VDW>
0.272728

>  <SCORE.INTRA.VDW.0>
-4.11825

>  <SCORE.INTRA.norm>
-0.15217

>  <SCORE.RESTR>
0

>  <SCORE.RESTR.CAVITY>
0

>  <SCORE.RESTR.norm>
0

>  <SCORE.SYSTEM>
0

>  <SCORE.SYSTEM.CONST>
0

>  <SCORE.SYSTEM.DIHEDRAL>
0

>  <SCORE.SYSTEM.SOLV>
0

>  <SCORE.SYSTEM.norm>
0

>  <SCORE.heavy>
31

>  <SCORE.norm>
-0.6944

>  <RMSD>
0.793

$$$$
ligand
 OpenBabel11021811493D
libRbt.so/2013.1/901 2013/11/27
 31 33  0  0  0  0  0  0  0  0999 V2000
   -3.4692   14.2768    4.9110 C   0  0  2  0  0  0  0  0  0  0  0  0
   -4.0418   14.4878    6.1982 O   0  0  0  0  0  0  0  0  0  0  0  0
   -4.2849   12.5464    9.9739 C   0  0  2  0  0  0  0  0  0  0  0  0
   -4.5583   11.5408   10.9542 N   0  0  0  0  0  0  0  0  0  0  0  0
   -1.8638   10.3370   10.1800 C   0  0  2  0  0  0  0  0  0  0  0  0
   -3.2066   15.7109    4.2942 C   0  0  2  0  0  0  0  0  0  0  0  0
   -2.3059   16.4437    5.1780 N   0  0  0  0  0  0  0  0  0  0  0  0
   -5.6445   12.9243    9.2538 C   0  0  0  0  0  0  0  0  0  0  0  0
   -0.8976   10.6101   11.3761 C   0  0  2  0  0  0  0  0  0  0  0  0
   -1.5036   11.5565   12.2303 O   0  0  0  0  0  0  0  0  0  0  0  0
   -4.5697   16.4911    4.1150 C   0  0  0  0  0  0  0  0  0  0  0  0
   -5.3469   14.0293    8.1722 C   0  0  2  0  0  0  0  0  0  0  0  0
   -6.6069   14.3809    7.4952 N   0  0  0  0  0  0  0  0  0  0  0  0
    0.4452   11.1727   10.7727 C   0  0  1  0  0  0  0  0  0  0  0  0
    1.4111   11.4742   11.8805 N   0  0  0  0  0  0  0  0  0  0  0  0
   -5.7540   15.5385    3.6572 C   0  0  0  0  0  0  0  0  0  0  0  0
   -4.2891   13.4792    7.1165 C   0  0  2  0  0  0  0  0  0  0  0  0
    1.0781   10.0271    9.8004 C   0  0  1  0  0  0  0  0  0  0  0  0
    1.3232    8.8123   10.4886 O   0  0  0  0  0  0  0  0  0  0  0  0
   -5.6034   14.1876    3.6477 C   0  0  2  0  0  0  0  0  0  0  0  0
   -4.3851   13.5469    4.0436 O   0  0  0  0  0  0  0  0  0  0  0  0
   -2.9537   13.1027    7.8588 C   0  0  2  0  0  0  0  0  0  0  0  0
   -2.0045   12.5959    6.8962 O   0  0  0  0  0  0  0  0  0  0  0  0
    0.0800    9.7025    8.6418 C   0  0  0  0  0  0  0  0  0  0  0  0
   -1.2550    9.3251    9.2276 O   0  0  0  0  0  0  0  0  0  0  0  0
   -6.7137   13.2291    3.2127 C   0  0  0  0  0  0  0  0  0  0  0  0
   -7.8945   14.0126    2.9193 O   0  0  0  0  0  0  0  0  0  0  0  0
   -3.2668   11.9828    8.9187 C   0  0  1  0  0  0  0  0  0  0  0  0
   -2.0736   11.6439    9.5529 O   0  0  0  0  0  0  0  0  0  0  0  0
    2.4124   10.4144    9.1181 C   0  0  0  0  0  0  0  0  0  0  0  0
    1.3284   12.8204   12.4831 C   0  0  0  0  0  0  0  0  0  0  0  0
  1  2  1  1  0  0  0
  1  6  1  0  0  0  0
  1 21  1  0  0  0  0
  3  4  1  1  0  0  0
  3  8  1  0  0  0  0
  3 28  1  0  0  0  0
  5  9  1  0  0  0  0
  5 25  1  0  0  0  0
  5 29  1  6  0  0  0
  6  7  1  1  0  0  0
  6 11  1  0  0  0  0
  8 12  1  0  0  0  0
  9 10  1  1  0  0  0
  9 14  1  0  0  0  0
 11 16  1  0  0  0  0
 12 13  1  6  0  0  0
 12 17  1  0  0  0  0
 14 15  1  1  0  0  0
 14 18  1  0  0  0  0
 15 31  1  0  0  0  0
 16 20  1  0  0  0  0
 17  2  1  6  0  0  0
 17 22  1  0  0  0  0
 18 19  1  1  0  0  0
 18 24  1  0  0  0  0
 18 30  1  0  0  0  0
 20 21  1  0  0  0  0
 20 26  1  6  0  0  0
 22 23  1  6  0  0  0
 22 28  1  0  0  0  0
 24 25  1  0  0  0  0
 26 27  1  0  0  0  0
 28 29  1  1  0  0  0
M  END
>  <CHROM.1>
-173.02461172,-148.65360375,-87.96119593,-161.15572281,-3.37252846,86.06703580
-2.77246450,12.63656819,7.88571601,-2.23138150,-0.19626657,1.98308824

>  <Name>
ligand

>  <RI>
0

>  <Rbt.Current_Directory>
/home/itssahil/PROJECTS/Mol_Feturizer/New_Systems/rnas/4GPX

>  <Rbt.Executable>
rbdock ($Id: //depot/dev/client3/rdock/2013.1/src/exe/rbdock.cxx#4 $)

>  <Rbt.Library>
libRbt.so (2013.1, Build901 2013/11/27)

>  <Rbt.Parameter_File>
/export/apps/rDock/src/rDock_2013.1_src/data/scripts/dock_solv.prm

>  <Rbt.Receptor>
prm/pocket_docking_5.prm

>  <SCORE>
-20.8011

>  <SCORE.INTER>
-16.872

>  <SCORE.INTER.CONST>
1

>  <SCORE.INTER.POLAR>
0

>  <SCORE.INTER.ROT>
6

>  <SCORE.INTER.SOLV>
19.7558

>  <SCORE.INTER.VDW>
-25.4333

>  <SCORE.INTER.norm>
-0.544259

>  <SCORE.INTRA>
-3.92911

>  <SCORE.INTRA.DIHEDRAL>
-9.87462

>  <SCORE.INTRA.DIHEDRAL.0>
20.6841

>  <SCORE.INTRA.POLAR>
0

>  <SCORE.INTRA.POLAR.0>
0

>  <SCORE.INTRA.REPUL>
0

>  <SCORE.INTRA.REPUL.0>
0

>  <SCORE.INTRA.SOLV>
-0.657884

>  <SCORE.INTRA.SOLV.lig_0>
-64.6797

>  <SCORE.INTRA.VDW>
1.33714

>  <SCORE.INTRA.VDW.0>
-4.11825

>  <SCORE.INTRA.norm>
-0.126745

>  <SCORE.RESTR>
0

>  <SCORE.RESTR.CAVITY>
0

>  <SCORE.RESTR.norm>
0

>  <SCORE.SYSTEM>
0

>  <SCORE.SYSTEM.CONST>
0

>  <SCORE.SYSTEM.DIHEDRAL>
0

>  <SCORE.SYSTEM.SOLV>
0

>  <SCORE.SYSTEM.norm>
0

>  <SCORE.heavy>
31

>  <SCORE.norm>
-0.671004

>  <RMSD>
0.794

$$$$
ligand
 OpenBabel11021811493D
libRbt.so/2013.1/901 2013/11/27
 31 33  0  0  0  0  0  0  0  0999 V2000
   -3.5845   14.2052    4.9037 C   0  0  2  0  0  0  0  0  0  0  0  0
   -3.9945   14.4552    6.2448 O   0  0  0  0  0  0  0  0  0  0  0  0
   -4.3117   12.5937   10.0551 C   0  0  2  0  0  0  0  0  0  0  0  0
   -4.5988   11.6066   11.0501 N   0  0  0  0  0  0  0  0  0  0  0  0
   -1.8570   10.4031   10.3364 C   0  0  2  0  0  0  0  0  0  0  0  0
   -3.1789   15.6060    4.2880 C   0  0  2  0  0  0  0  0  0  0  0  0
   -2.1016   16.1765    5.0900 N   0  0  0  0  0  0  0  0  0  0  0  0
   -5.6567   12.9403    9.2931 C   0  0  0  0  0  0  0  0  0  0  0  0
   -0.8170   10.6695   11.4704 C   0  0  2  0  0  0  0  0  0  0  0  0
   -1.3547   11.6344   12.3493 O   0  0  0  0  0  0  0  0  0  0  0  0
   -4.4266   16.5762    4.2584 C   0  0  0  0  0  0  0  0  0  0  0  0
   -5.3439   14.0248    8.1951 C   0  0  2  0  0  0  0  0  0  0  0  0
   -6.5903   14.3472    7.4793 N   0  0  0  0  0  0  0  0  0  0  0  0
    0.4974   11.2022   10.7830 C   0  0  1  0  0  0  0  0  0  0  0  0
    1.5323   11.4963   11.8287 N   0  0  0  0  0  0  0  0  0  0  0  0
   -5.7740   15.8153    3.9047 C   0  0  0  0  0  0  0  0  0  0  0  0
   -4.2540   13.4641    7.1786 C   0  0  2  0  0  0  0  0  0  0  0  0
    1.0514   10.0366    9.7867 C   0  0  1  0  0  0  0  0  0  0  0  0
    1.3155    8.8239   10.4715 O   0  0  0  0  0  0  0  0  0  0  0  0
   -5.8208   14.4576    3.8577 C   0  0  2  0  0  0  0  0  0  0  0  0
   -4.6748   13.6392    4.1196 O   0  0  0  0  0  0  0  0  0  0  0  0
   -2.9337   13.1192    7.9622 C   0  0  2  0  0  0  0  0  0  0  0  0
   -1.9550   12.6024    7.0351 O   0  0  0  0  0  0  0  0  0  0  0  0
   -0.0192    9.7195    8.6925 C   0  0  0  0  0  0  0  0  0  0  0  0
   -1.3236    9.3716    9.3599 O   0  0  0  0  0  0  0  0  0  0  0  0
   -7.0939   13.6796    3.5192 C   0  0  0  0  0  0  0  0  0  0  0  0
   -6.7633   12.6918    2.5146 O   0  0  0  0  0  0  0  0  0  0  0  0
   -3.2611   12.0191    9.0383 C   0  0  1  0  0  0  0  0  0  0  0  0
   -2.0808   11.7078    9.7096 O   0  0  0  0  0  0  0  0  0  0  0  0
    2.3494   10.3935    9.0228 C   0  0  0  0  0  0  0  0  0  0  0  0
    1.3994   12.7787   12.5497 C   0  0  0  0  0  0  0  0  0  0  0  0
  1  2  1  1  0  0  0
  1  6  1  0  0  0  0
  1 21  1  0  0  0  0
  3  4  1  1  0  0  0
  3  8  1  0  0  0  0
  3 28  1  0  0  0  0
  5  9  1  0  0  0  0
  5 25  1  0  0  0  0
  5 29  1  6  0  0  0
  6  7  1  1  0  0  0
  6 11  1  0  0  0  0
  8 12  1  0  0  0  0
  9 10  1  1  0  0  0
  9 14  1  0  0  0  0
 11 16  1  0  0  0  0
 12 13  1  6  0  0  0
 12 17  1  0  0  0  0
 14 15  1  1  0  0  0
 14 18  1  0  0  0  0
 15 31  1  0  0  0  0
 16 20  1  0  0  0  0
 17  2  1  6  0  0  0
 17 22  1  0  0  0  0
 18 19  1  1  0  0  0
 18 24  1  0  0  0  0
 18 30  1  0  0  0  0
 20 21  1  0  0  0  0
 20 26  1  6  0  0  0
 22 23  1  6  0  0  0
 22 28  1  0  0  0  0
 24 25  1  0  0  0  0
 26 27  1  0  0  0  0
 28 29  1  1  0  0  0
M  END
>  <CHROM.1>
-170.88235923,-154.55929950,-80.02093903,-150.86697809,131.54728108,87.91705953
-2.74232503,12.62622831,7.94169151,-2.23181666,-0.22614065,1.94668244

>  <Name>
ligand

>  <RI>
0

>  <Rbt.Current_Directory>
/home/itssahil/PROJECTS/Mol_Feturizer/New_Systems/rnas/4GPX

>  <Rbt.Executable>
rbdock ($Id: //depot/dev/client3/rdock/2013.1/src/exe/rbdock.cxx#4 $)

>  <Rbt.Library>
libRbt.so (2013.1, Build901 2013/11/27)

>  <Rbt.Parameter_File>
/export/apps/rDock/src/rDock_2013.1_src/data/scripts/dock_solv.prm

>  <Rbt.Receptor>
prm/pocket_docking_3.prm

>  <SCORE>
-21.1305

>  <SCORE.INTER>
-17.2136

>  <SCORE.INTER.CONST>
1

>  <SCORE.INTER.POLAR>
0

>  <SCORE.INTER.ROT>
6

>  <SCORE.INTER.SOLV>
20.3251

>  <SCORE.INTER.VDW>
-25.8508

>  <SCORE.INTER.norm>
-0.555277

>  <SCORE.INTRA>
-3.91695

>  <SCORE.INTRA.DIHEDRAL>
-8.73055

>  <SCORE.INTRA.DIHEDRAL.0>
20.6841

>  <SCORE.INTRA.POLAR>
0

>  <SCORE.INTRA.POLAR.0>
0

>  <SCORE.INTRA.REPUL>
0

>  <SCORE.INTRA.REPUL.0>
0

>  <SCORE.INTRA.SOLV>
0.0203761

>  <SCORE.INTRA.SOLV.lig_0>
-64.6797

>  <SCORE.INTRA.VDW>
0.438138

>  <SCORE.INTRA.VDW.0>
-4.11825

>  <SCORE.INTRA.norm>
-0.126353

>  <SCORE.RESTR>
0

>  <SCORE.RESTR.CAVITY>
0

>  <SCORE.RESTR.norm>
0

>  <SCORE.SYSTEM>
0

>  <SCORE.SYSTEM.CONST>
0

>  <SCORE.SYSTEM.DIHEDRAL>
0

>  <SCORE.SYSTEM.SOLV>
0

>  <SCORE.SYSTEM.norm>
0

>  <SCORE.heavy>
31

>  <SCORE.norm>
-0.68163

>  <RMSD>
0.797

$$$$
ligand
 OpenBabel11021811493D
libRbt.so/2013.1/901 2013/11/27
 31 33  0  0  0  0  0  0  0  0999 V2000
   -3.5668   14.2034    4.8992 C   0  0  2  0  0  0  0  0  0  0  0  0
   -3.9692   14.4503    6.2432 O   0  0  0  0  0  0  0  0  0  0  0  0
   -4.3081   12.5827   10.0486 C   0  0  2  0  0  0  0  0  0  0  0  0
   -4.5984   11.5930   11.0402 N   0  0  0  0  0  0  0  0  0  0  0  0
   -1.8436   10.4022   10.3437 C   0  0  2  0  0  0  0  0  0  0  0  0
   -3.1707   15.6065    4.2825 C   0  0  2  0  0  0  0  0  0  0  0  0
   -2.0906   16.1804    5.0783 N   0  0  0  0  0  0  0  0  0  0  0  0
   -5.6486   12.9237    9.2762 C   0  0  0  0  0  0  0  0  0  0  0  0
   -0.8083   10.6692   11.4819 C   0  0  2  0  0  0  0  0  0  0  0  0
   -1.3525   11.6294   12.3620 O   0  0  0  0  0  0  0  0  0  0  0  0
   -4.4223   16.5718    4.2620 C   0  0  0  0  0  0  0  0  0  0  0  0
   -5.3322   14.0110    8.1820 C   0  0  2  0  0  0  0  0  0  0  0  0
   -6.5743   14.3282    7.4566 N   0  0  0  0  0  0  0  0  0  0  0  0
    0.5063   11.2088   10.8005 C   0  0  1  0  0  0  0  0  0  0  0  0
    1.5367   11.5037   11.8504 N   0  0  0  0  0  0  0  0  0  0  0  0
   -5.7690   15.8059    3.9160 C   0  0  0  0  0  0  0  0  0  0  0  0
   -4.2314   13.4568    7.1737 C   0  0  2  0  0  0  0  0  0  0  0  0
    1.0680   10.0483    9.8024 C   0  0  1  0  0  0  0  0  0  0  0  0
    1.3344    8.8346   10.4845 O   0  0  0  0  0  0  0  0  0  0  0  0
   -5.8106   14.4481    3.8677 C   0  0  2  0  0  0  0  0  0  0  0  0
   -4.6598   13.6340    4.1213 O   0  0  0  0  0  0  0  0  0  0  0  0
   -2.9158   13.1173    7.9675 C   0  0  2  0  0  0  0  0  0  0  0  0
   -1.9272   12.6064    7.0477 O   0  0  0  0  0  0  0  0  0  0  0  0
    0.0022    9.7305    8.7038 C   0  0  0  0  0  0  0  0  0  0  0  0
   -1.3030    9.3757    9.3659 O   0  0  0  0  0  0  0  0  0  0  0  0
   -7.0828   13.6655    3.5364 C   0  0  0  0  0  0  0  0  0  0  0  0
   -6.7583   12.6908    2.5171 O   0  0  0  0  0  0  0  0  0  0  0  0
   -3.2466   12.0143    9.0397 C   0  0  1  0  0  0  0  0  0  0  0  0
   -2.0702   11.7079    9.7201 O   0  0  0  0  0  0  0  0  0  0  0  0
    2.3671   10.4125    9.0439 C   0  0  0  0  0  0  0  0  0  0  0  0
    1.4281   12.8070   12.5373 C   0  0  0  0  0  0  0  0  0  0  0  0
  1  2  1  1  0  0  0
  1  6  1  0  0  0  0
  1 21  1  0  0  0  0
  3  4  1  1  0  0  0
  3  8  1  0  0  0  0
  3 28  1  0  0  0  0
  5  9  1  0  0  0  0
  5 25  1  0  0  0  0
  5 29  1  6  0  0  0
  6  7  1  1  0  0  0
  6 11  1  0  0  0  0
  8 12  1  0  0  0  0
  9 10  1  1  0  0  0
  9 14  1  0  0  0  0
 11 16  1  0  0  0  0
 12 13  1  6  0  0  0
 12 17  1  0  0  0  0
 14 15  1  1  0  0  0
 14 18  1  0  0  0  0
 15 31  1  0  0  0  0
 16 20  1  0  0  0  0
 17  2  1  6  0  0  0
 17 22  1  0  0  0  0
 18 19  1  1  0  0  0
 18 24  1  0  0  0  0
 18 30  1  0  0  0  0
 20 21  1  0  0  0  0
 20 26  1  6  0  0  0
 22 23  1  6  0  0  0
 22 28  1  0  0  0  0
 24 25  1  0  0  0  0
 26 27  1  0  0  0  0
 28 29  1  1  0  0  0
M  END
>  <CHROM.1>
-171.54002656,-154.91483811,-82.37929412,-149.87130928,130.87964247,88.10562417
-2.72904255,12.62520219,7.94517409,-2.22978614,-0.21149095,1.95591004

>  <Name>
ligand

>  <RI>
0

>  <Rbt.Current_Directory>
/home/itssahil/PROJECTS/Mol_Feturizer/New_Systems/rnas/4GPX

>  <Rbt.Executable>
rbdock ($Id: //depot/dev/client3/rdock/2013.1/src/exe/rbdock.cxx#4 $)

>  <Rbt.Library>
libRbt.so (2013.1, Build901 2013/11/27)

>  <Rbt.Parameter_File>
/export/apps/rDock/src/rDock_2013.1_src/data/scripts/dock_solv.prm

>  <Rbt.Receptor>
prm/pocket_docking_5.prm

>  <SCORE>
-21.1154

>  <SCORE.INTER>
-17.1715

>  <SCORE.INTER.CONST>
1

>  <SCORE.INTER.POLAR>
0

>  <SCORE.INTER.ROT>
6

>  <SCORE.INTER.SOLV>
20.311

>  <SCORE.INTER.VDW>
-25.818

>  <SCORE.INTER.norm>
-0.553921

>  <SCORE.INTRA>
-3.94387

>  <SCORE.INTRA.DIHEDRAL>
-8.58011

>  <SCORE.INTRA.DIHEDRAL.0>
20.6841

>  <SCORE.INTRA.POLAR>
0

>  <SCORE.INTRA.POLAR.0>
0

>  <SCORE.INTRA.REPUL>
0

>  <SCORE.INTRA.REPUL.0>
0

>  <SCORE.INTRA.SOLV>
0.0688071

>  <SCORE.INTRA.SOLV.lig_0>
-64.6797

>  <SCORE.INTRA.VDW>
0.311786

>  <SCORE.INTRA.VDW.0>
-4.11825

>  <SCORE.INTRA.norm>
-0.127221

>  <SCORE.RESTR>
0

>  <SCORE.RESTR.CAVITY>
0

>  <SCORE.RESTR.norm>
0

>  <SCORE.SYSTEM>
0

>  <SCORE.SYSTEM.CONST>
0

>  <SCORE.SYSTEM.DIHEDRAL>
0

>  <SCORE.SYSTEM.SOLV>
0

>  <SCORE.SYSTEM.norm>
0

>  <SCORE.heavy>
31

>  <SCORE.norm>
-0.681142

>  <RMSD>
0.797

$$$$
ligand
 OpenBabel11021811493D
libRbt.so/2013.1/901 2013/11/27
 31 33  0  0  0  0  0  0  0  0999 V2000
   -3.5979   14.1752    4.8913 C   0  0  2  0  0  0  0  0  0  0  0  0
   -3.9859   14.4259    6.2389 O   0  0  0  0  0  0  0  0  0  0  0  0
   -4.3337   12.5706   10.0495 C   0  0  2  0  0  0  0  0  0  0  0  0
   -4.6249   11.5836   11.0435 N   0  0  0  0  0  0  0  0  0  0  0  0
   -1.8686   10.4025   10.3715 C   0  0  2  0  0  0  0  0  0  0  0  0
   -3.2119   15.5771    4.2655 C   0  0  2  0  0  0  0  0  0  0  0  0
   -2.1243   16.1561    5.0472 N   0  0  0  0  0  0  0  0  0  0  0  0
   -5.6723   12.9050    9.2709 C   0  0  0  0  0  0  0  0  0  0  0  0
   -0.8243   10.6782   11.4994 C   0  0  2  0  0  0  0  0  0  0  0  0
   -1.3573   11.6528   12.3705 O   0  0  0  0  0  0  0  0  0  0  0  0
   -4.4659   16.5395    4.2556 C   0  0  0  0  0  0  0  0  0  0  0  0
   -5.3550   13.9893    8.1741 C   0  0  2  0  0  0  0  0  0  0  0  0
   -6.5952   14.3003    7.4428 N   0  0  0  0  0  0  0  0  0  0  0  0
    0.4887   11.2015   10.8024 C   0  0  1  0  0  0  0  0  0  0  0  0
    1.5277   11.5040   11.8417 N   0  0  0  0  0  0  0  0  0  0  0  0
   -5.8145   15.7694    3.9272 C   0  0  0  0  0  0  0  0  0  0  0  0
   -4.2487   13.4349    7.1719 C   0  0  2  0  0  0  0  0  0  0  0  0
    1.0372   10.0250    9.8158 C   0  0  1  0  0  0  0  0  0  0  0  0
    1.3013    8.8187   10.5118 O   0  0  0  0  0  0  0  0  0  0  0  0
   -5.8536   14.4113    3.8840 C   0  0  2  0  0  0  0  0  0  0  0  0
   -4.6982   13.6007    4.1276 O   0  0  0  0  0  0  0  0  0  0  0  0
   -2.9351   13.1021    7.9719 C   0  0  2  0  0  0  0  0  0  0  0  0
   -1.9415   12.5909    7.0576 O   0  0  0  0  0  0  0  0  0  0  0  0
   -0.0376    9.6992    8.7284 C   0  0  0  0  0  0  0  0  0  0  0  0
   -1.3404    9.3604    9.4036 O   0  0  0  0  0  0  0  0  0  0  0  0
   -7.1276   13.6247    3.5696 C   0  0  0  0  0  0  0  0  0  0  0  0
   -6.8277   12.6897    2.5066 O   0  0  0  0  0  0  0  0  0  0  0  0
   -3.2667   12.0019    9.0467 C   0  0  1  0  0  0  0  0  0  0  0  0
   -2.0920   11.7014    9.7325 O   0  0  0  0  0  0  0  0  0  0  0  0
    2.3333   10.3719    9.0442 C   0  0  0  0  0  0  0  0  0  0  0  0
    1.3807   12.7786   12.5738 C   0  0  0  0  0  0  0  0  0  0  0  0
  1  2  1  1  0  0  0
  1  6  1  0  0  0  0
  1 21  1  0  0  0  0
  3  4  1  1  0  0  0
  3  8  1  0  0  0  0
  3 28  1  0  0  0  0
  5  9  1  0  0  0  0
  5 25  1  0  0  0  0
  5 29  1  6  0  0  0
  6  7  1  1  0  0  0
  6 11  1  0  0  0  0
  8 12  1  0  0  0  0
  9 10  1  1  0  0  0
  9 14  1  0  0  0  0
 11 16  1  0  0  0  0
 12 13  1  6  0  0  0
 12 17  1  0  0  0  0
 14 15  1  1  0  0  0
 14 18  1  0  0  0  0
 15 31  1  0  0  0  0
 16 20  1  0  0  0  0
 17  2  1  6  0  0  0
 17 22  1  0  0  0  0
 18 19  1  1  0  0  0
 18 24  1  0  0  0  0
 18 30  1  0  0  0  0
 20 21  1  0  0  0  0
 20 26  1  6  0  0  0
 22 23  1  6  0  0  0
 22 28  1  0  0  0  0
 24 25  1  0  0  0  0
 26 27  1  0  0  0  0
 28 29  1  1  0  0  0
M  END
>  <CHROM.1>
-172.22725296,-155.44998941,-78.55755752,-148.84655308,128.26358585,87.56429923
-2.75869498,12.60673473,7.95142676,-2.23061622,-0.21102956,1.95280079

>  <Name>
ligand

>  <RI>
0

>  <Rbt.Current_Directory>
/home/itssahil/PROJECTS/Mol_Feturizer/New_Systems/rnas/4GPX

>  <Rbt.Executable>
rbdock ($Id: //depot/dev/client3/rdock/2013.1/src/exe/rbdock.cxx#4 $)

>  <Rbt.Library>
libRbt.so (2013.1, Build901 2013/11/27)

>  <Rbt.Parameter_File>
/export/apps/rDock/src/rDock_2013.1_src/data/scripts/dock_solv.prm

>  <Rbt.Receptor>
prm/pocket_docking_4.prm

>  <SCORE>
-21.0716

>  <SCORE.INTER>
-17.202

>  <SCORE.INTER.CONST>
1

>  <SCORE.INTER.POLAR>
0

>  <SCORE.INTER.ROT>
6

>  <SCORE.INTER.SOLV>
20.4611

>  <SCORE.INTER.VDW>
-25.8884

>  <SCORE.INTER.norm>
-0.554905

>  <SCORE.INTRA>
-3.86953

>  <SCORE.INTRA.DIHEDRAL>
-8.8069

>  <SCORE.INTRA.DIHEDRAL.0>
20.6841

>  <SCORE.INTRA.POLAR>
0

>  <SCORE.INTRA.POLAR.0>
0

>  <SCORE.INTRA.REPUL>
0

>  <SCORE.INTRA.REPUL.0>
0

>  <SCORE.INTRA.SOLV>
0.136066

>  <SCORE.INTRA.SOLV.lig_0>
-64.6797

>  <SCORE.INTRA.VDW>
0.465887

>  <SCORE.INTRA.VDW.0>
-4.11825

>  <SCORE.INTRA.norm>
-0.124824

>  <SCORE.RESTR>
0

>  <SCORE.RESTR.CAVITY>
0

>  <SCORE.RESTR.norm>
0

>  <SCORE.SYSTEM>
0

>  <SCORE.SYSTEM.CONST>
0

>  <SCORE.SYSTEM.DIHEDRAL>
0

>  <SCORE.SYSTEM.SOLV>
0

>  <SCORE.SYSTEM.norm>
0

>  <SCORE.heavy>
31

>  <SCORE.norm>
-0.679728

>  <RMSD>
0.806

$$$$
ligand
 OpenBabel11021811493D
libRbt.so/2013.1/901 2013/11/27
 31 33  0  0  0  0  0  0  0  0999 V2000
   -3.4731   14.3005    4.9657 C   0  0  2  0  0  0  0  0  0  0  0  0
   -4.0121   14.5280    6.2645 O   0  0  0  0  0  0  0  0  0  0  0  0
   -4.4321   12.6290   10.0463 C   0  0  2  0  0  0  0  0  0  0  0  0
   -4.7384   11.6292   11.0227 N   0  0  0  0  0  0  0  0  0  0  0  0
   -1.9609   10.4765   10.4043 C   0  0  2  0  0  0  0  0  0  0  0  0
   -3.1415   15.7249    4.3597 C   0  0  2  0  0  0  0  0  0  0  0  0
   -2.1874   16.3967    5.2359 N   0  0  0  0  0  0  0  0  0  0  0  0
   -5.7552   12.9623    9.2411 C   0  0  0  0  0  0  0  0  0  0  0  0
   -0.9084   10.7402   11.5274 C   0  0  2  0  0  0  0  0  0  0  0  0
   -1.4289   11.7161   12.4046 O   0  0  0  0  0  0  0  0  0  0  0  0
   -4.4621   16.5811    4.2118 C   0  0  0  0  0  0  0  0  0  0  0  0
   -5.4212   14.0607    8.1635 C   0  0  2  0  0  0  0  0  0  0  0  0
   -6.6468   14.3709    7.4077 N   0  0  0  0  0  0  0  0  0  0  0  0
    0.4049   11.2555   10.8250 C   0  0  1  0  0  0  0  0  0  0  0  0
    1.4519   11.5464   11.8596 N   0  0  0  0  0  0  0  0  0  0  0  0
   -5.7047   15.7006    3.7640 C   0  0  0  0  0  0  0  0  0  0  0  0
   -4.2885   13.5250    7.1807 C   0  0  2  0  0  0  0  0  0  0  0  0
    0.9388   10.0781    9.8315 C   0  0  1  0  0  0  0  0  0  0  0  0
    1.1972    8.8674   10.5221 O   0  0  0  0  0  0  0  0  0  0  0  0
   -5.6292   14.3436    3.7377 C   0  0  2  0  0  0  0  0  0  0  0  0
   -4.4419   13.6323    4.1062 O   0  0  0  0  0  0  0  0  0  0  0  0
   -2.9910   13.1929    8.0066 C   0  0  2  0  0  0  0  0  0  0  0  0
   -1.9732   12.6987    7.1097 O   0  0  0  0  0  0  0  0  0  0  0  0
   -0.1444    9.7643    8.7489 C   0  0  0  0  0  0  0  0  0  0  0  0
   -1.4461    9.4335    9.4301 O   0  0  0  0  0  0  0  0  0  0  0  0
   -6.7978   13.4530    3.3114 C   0  0  0  0  0  0  0  0  0  0  0  0
   -7.2993   12.7757    4.4879 O   0  0  0  0  0  0  0  0  0  0  0  0
   -3.3387   12.0788    9.0618 C   0  0  1  0  0  0  0  0  0  0  0  0
   -2.1775   11.7792    9.7708 O   0  0  0  0  0  0  0  0  0  0  0  0
    2.2334   10.4174    9.0540 C   0  0  0  0  0  0  0  0  0  0  0  0
    1.3433   12.8389   12.5665 C   0  0  0  0  0  0  0  0  0  0  0  0
  1  2  1  1  0  0  0
  1  6  1  0  0  0  0
  1 21  1  0  0  0  0
  3  4  1  1  0  0  0
  3  8  1  0  0  0  0
  3 28  1  0  0  0  0
  5  9  1  0  0  0  0
  5 25  1  0  0  0  0
  5 29  1  6  0  0  0
  6  7  1  1  0  0  0
  6 11  1  0  0  0  0
  8 12  1  0  0  0  0
  9 10  1  1  0  0  0
  9 14  1  0  0  0  0
 11 16  1  0  0  0  0
 12 13  1  6  0  0  0
 12 17  1  0  0  0  0
 14 15  1  1  0  0  0
 14 18  1  0  0  0  0
 15 31  1  0  0  0  0
 16 20  1  0  0  0  0
 17  2  1  6  0  0  0
 17 22  1  0  0  0  0
 18 19  1  1  0  0  0
 18 24  1  0  0  0  0
 18 30  1  0  0  0  0
 20 21  1  0  0  0  0
 20 26  1  6  0  0  0
 22 23  1  6  0  0  0
 22 28  1  0  0  0  0
 24 25  1  0  0  0  0
 26 27  1  0  0  0  0
 28 29  1  1  0  0  0
M  END
>  <CHROM.1>
-172.41011778,-157.21214995,-80.43690271,-154.98989674,-109.27534276,87.36992397
-2.79609227,12.66677450,8.02420554,-2.21868518,-0.12104723,2.04295115

>  <Name>
ligand

>  <RI>
0

>  <Rbt.Current_Directory>
/home/itssahil/PROJECTS/Mol_Feturizer/New_Systems/rnas/4GPX

>  <Rbt.Executable>
rbdock ($Id: //depot/dev/client3/rdock/2013.1/src/exe/rbdock.cxx#4 $)

>  <Rbt.Library>
libRbt.so (2013.1, Build901 2013/11/27)

>  <Rbt.Parameter_File>
/export/apps/rDock/src/rDock_2013.1_src/data/scripts/dock_solv.prm

>  <Rbt.Receptor>
prm/pocket_docking_4.prm

>  <SCORE>
-21.5466

>  <SCORE.INTER>
-16.8608

>  <SCORE.INTER.CONST>
1

>  <SCORE.INTER.POLAR>
0

>  <SCORE.INTER.ROT>
6

>  <SCORE.INTER.SOLV>
19.4881

>  <SCORE.INTER.VDW>
-25.3366

>  <SCORE.INTER.norm>
-0.543898

>  <SCORE.INTRA>
-4.68577

>  <SCORE.INTRA.DIHEDRAL>
-10.2079

>  <SCORE.INTRA.DIHEDRAL.0>
20.6841

>  <SCORE.INTRA.POLAR>
0

>  <SCORE.INTRA.POLAR.0>
0

>  <SCORE.INTRA.REPUL>
0

>  <SCORE.INTRA.REPUL.0>
0

>  <SCORE.INTRA.SOLV>
0.377005

>  <SCORE.INTRA.SOLV.lig_0>
-64.6797

>  <SCORE.INTRA.VDW>
0.229679

>  <SCORE.INTRA.VDW.0>
-4.11825

>  <SCORE.INTRA.norm>
-0.151154

>  <SCORE.RESTR>
0

>  <SCORE.RESTR.CAVITY>
0

>  <SCORE.RESTR.norm>
0

>  <SCORE.SYSTEM>
0

>  <SCORE.SYSTEM.CONST>
0

>  <SCORE.SYSTEM.DIHEDRAL>
0

>  <SCORE.SYSTEM.SOLV>
0

>  <SCORE.SYSTEM.norm>
0

>  <SCORE.heavy>
31

>  <SCORE.norm>
-0.695052

>  <RMSD>
0.815

$$$$
ligand
 OpenBabel11021811493D
libRbt.so/2013.1/901 2013/11/27
 31 33  0  0  0  0  0  0  0  0999 V2000
   -3.5985   14.1890    4.9153 C   0  0  2  0  0  0  0  0  0  0  0  0
   -4.0008   14.4477    6.2571 O   0  0  0  0  0  0  0  0  0  0  0  0
   -4.3760   12.6113   10.0743 C   0  0  2  0  0  0  0  0  0  0  0  0
   -4.6772   11.6304   11.0712 N   0  0  0  0  0  0  0  0  0  0  0  0
   -1.9097   10.4184   10.3860 C   0  0  2  0  0  0  0  0  0  0  0  0
   -3.2045   15.5869    4.2856 C   0  0  2  0  0  0  0  0  0  0  0  0
   -2.1248   16.1695    5.0756 N   0  0  0  0  0  0  0  0  0  0  0  0
   -5.7092   12.9498    9.2882 C   0  0  0  0  0  0  0  0  0  0  0  0
   -0.8773   10.6795   11.5281 C   0  0  2  0  0  0  0  0  0  0  0  0
   -1.4253   11.6322   12.4139 O   0  0  0  0  0  0  0  0  0  0  0  0
   -4.4575   16.5503    4.2566 C   0  0  0  0  0  0  0  0  0  0  0  0
   -5.3809   14.0275    8.1881 C   0  0  2  0  0  0  0  0  0  0  0  0
   -6.6161   14.3422    7.4499 N   0  0  0  0  0  0  0  0  0  0  0  0
    0.4375   11.2269   10.8532 C   0  0  1  0  0  0  0  0  0  0  0  0
    1.4652   11.5164   11.9073 N   0  0  0  0  0  0  0  0  0  0  0  0
   -5.8032   15.7795    3.9182 C   0  0  0  0  0  0  0  0  0  0  0  0
   -4.2733   13.4624    7.1933 C   0  0  2  0  0  0  0  0  0  0  0  0
    1.0037   10.0747    9.8481 C   0  0  1  0  0  0  0  0  0  0  0  0
    1.2714    8.8567   10.5220 O   0  0  0  0  0  0  0  0  0  0  0  0
   -5.8431   14.4212    3.8825 C   0  0  2  0  0  0  0  0  0  0  0  0
   -4.6911   13.6110    4.1431 O   0  0  0  0  0  0  0  0  0  0  0  0
   -2.9652   13.1257    8.0006 C   0  0  2  0  0  0  0  0  0  0  0  0
   -1.9704   12.6048    7.0931 O   0  0  0  0  0  0  0  0  0  0  0  0
   -0.0592    9.7624    8.7450 C   0  0  0  0  0  0  0  0  0  0  0  0
   -1.3650    9.4001    9.4020 O   0  0  0  0  0  0  0  0  0  0  0  0
   -7.1143   13.6339    3.5589 C   0  0  0  0  0  0  0  0  0  0  0  0
   -6.8199   12.7351    2.4636 O   0  0  0  0  0  0  0  0  0  0  0  0
   -3.3079   12.0322    9.0787 C   0  0  1  0  0  0  0  0  0  0  0  0
   -2.1379   11.7281    9.7712 O   0  0  0  0  0  0  0  0  0  0  0  0
    2.3035   10.4470    9.0948 C   0  0  0  0  0  0  0  0  0  0  0  0
    1.3573   12.8180   12.5975 C   0  0  0  0  0  0  0  0  0  0  0  0
  1  2  1  1  0  0  0
  1  6  1  0  0  0  0
  1 21  1  0  0  0  0
  3  4  1  1  0  0  0
  3  8  1  0  0  0  0
  3 28  1  0  0  0  0
  5  9  1  0  0  0  0
  5 25  1  0  0  0  0
  5 29  1  6  0  0  0
  6  7  1  1  0  0  0
  6 11  1  0  0  0  0
  8 12  1  0  0  0  0
  9 10  1  1  0  0  0
  9 14  1  0  0  0  0
 11 16  1  0  0  0  0
 12 13  1  6  0  0  0
 12 17  1  0  0  0  0
 14 15  1  1  0  0  0
 14 18  1  0  0  0  0
 15 31  1  0  0  0  0
 16 20  1  0  0  0  0
 17  2  1  6  0  0  0
 17 22  1  0  0  0  0
 18 19  1  1  0  0  0
 18 24  1  0  0  0  0
 18 30  1  0  0  0  0
 20 21  1  0  0  0  0
 20 26  1  6  0  0  0
 22 23  1  6  0  0  0
 22 28  1  0  0  0  0
 24 25  1  0  0  0  0
 26 27  1  0  0  0  0
 28 29  1  1  0  0  0
M  END
>  <CHROM.1>
-172.16725355,-155.59723473,-82.73966001,-149.33575821,125.71140579,89.25564773
-2.78242050,12.63344393,7.97132615,-2.22567447,-0.21406380,1.94747329

>  <Name>
ligand

>  <RI>
0

>  <Rbt.Current_Directory>
/home/itssahil/PROJECTS/Mol_Feturizer/New_Systems/rnas/4GPX

>  <Rbt.Executable>
rbdock ($Id: //depot/dev/client3/rdock/2013.1/src/exe/rbdock.cxx#4 $)

>  <Rbt.Library>
libRbt.so (2013.1, Build901 2013/11/27)

>  <Rbt.Parameter_File>
/export/apps/rDock/src/rDock_2013.1_src/data/scripts/dock_solv.prm

>  <Rbt.Receptor>
prm/pocket_docking_3.prm

>  <SCORE>
-21.1071

>  <SCORE.INTER>
-17.1248

>  <SCORE.INTER.CONST>
1

>  <SCORE.INTER.POLAR>
0

>  <SCORE.INTER.ROT>
6

>  <SCORE.INTER.SOLV>
20.3478

>  <SCORE.INTER.VDW>
-25.7992

>  <SCORE.INTER.norm>
-0.552414

>  <SCORE.INTRA>
-3.98228

>  <SCORE.INTRA.DIHEDRAL>
-8.53429

>  <SCORE.INTRA.DIHEDRAL.0>
20.6841

>  <SCORE.INTRA.POLAR>
0

>  <SCORE.INTRA.POLAR.0>
0

>  <SCORE.INTRA.REPUL>
0

>  <SCORE.INTRA.REPUL.0>
0

>  <SCORE.INTRA.SOLV>
0.0651099

>  <SCORE.INTRA.SOLV.lig_0>
-64.6797

>  <SCORE.INTRA.VDW>
0.252313

>  <SCORE.INTRA.VDW.0>
-4.11825

>  <SCORE.INTRA.norm>
-0.128461

>  <SCORE.RESTR>
0

>  <SCORE.RESTR.CAVITY>
0

>  <SCORE.RESTR.norm>
0

>  <SCORE.SYSTEM>
0

>  <SCORE.SYSTEM.CONST>
0

>  <SCORE.SYSTEM.DIHEDRAL>
0

>  <SCORE.SYSTEM.SOLV>
0

>  <SCORE.SYSTEM.norm>
0

>  <SCORE.heavy>
31

>  <SCORE.norm>
-0.680875

>  <RMSD>
0.817

$$$$
ligand
 OpenBabel11021811493D
libRbt.so/2013.1/901 2013/11/27
 31 33  0  0  0  0  0  0  0  0999 V2000
   -3.5166   14.2561    5.0461 C   0  0  2  0  0  0  0  0  0  0  0  0
   -4.0933   14.4763    6.3299 O   0  0  0  0  0  0  0  0  0  0  0  0
   -4.5059   12.5817   10.1146 C   0  0  2  0  0  0  0  0  0  0  0  0
   -4.8034   11.5803   11.0922 N   0  0  0  0  0  0  0  0  0  0  0  0
   -1.9956   10.4546   10.4669 C   0  0  2  0  0  0  0  0  0  0  0  0
   -3.1707   15.6840    4.4566 C   0  0  2  0  0  0  0  0  0  0  0  0
   -2.2437   16.3535    5.3630 N   0  0  0  0  0  0  0  0  0  0  0  0
   -5.8295   12.8950    9.3023 C   0  0  0  0  0  0  0  0  0  0  0  0
   -0.9302   10.7193   11.5775 C   0  0  2  0  0  0  0  0  0  0  0  0
   -1.4507   11.6777   12.4738 O   0  0  0  0  0  0  0  0  0  0  0  0
   -4.4883   16.5382    4.2746 C   0  0  0  0  0  0  0  0  0  0  0  0
   -5.5051   13.9951    8.2233 C   0  0  2  0  0  0  0  0  0  0  0  0
   -6.7312   14.2867    7.4609 N   0  0  0  0  0  0  0  0  0  0  0  0
    0.3657   11.2604   10.8622 C   0  0  1  0  0  0  0  0  0  0  0  0
    1.4238   11.5532   11.8848 N   0  0  0  0  0  0  0  0  0  0  0  0
   -5.7155   15.6574    3.7871 C   0  0  0  0  0  0  0  0  0  0  0  0
   -4.3606   13.4722    7.2474 C   0  0  2  0  0  0  0  0  0  0  0  0
    0.9004   10.1019    9.8472 C   0  0  1  0  0  0  0  0  0  0  0  0
    1.1850    8.8868   10.5195 O   0  0  0  0  0  0  0  0  0  0  0  0
   -5.6365   14.3007    3.7567 C   0  0  2  0  0  0  0  0  0  0  0  0
   -4.4588   13.5900    4.1559 O   0  0  0  0  0  0  0  0  0  0  0  0
   -3.0627   13.1597    8.0804 C   0  0  2  0  0  0  0  0  0  0  0  0
   -2.0341   12.6769    7.1896 O   0  0  0  0  0  0  0  0  0  0  0  0
   -0.1944    9.7863    8.7768 C   0  0  0  0  0  0  0  0  0  0  0  0
   -1.4814    9.4301    9.4729 O   0  0  0  0  0  0  0  0  0  0  0  0
   -6.7904   13.4098    3.2927 C   0  0  0  0  0  0  0  0  0  0  0  0
   -7.3430   12.7482    4.4551 O   0  0  0  0  0  0  0  0  0  0  0  0
   -3.4004   12.0437    9.1368 C   0  0  1  0  0  0  0  0  0  0  0  0
   -2.2388   11.7616    9.8522 O   0  0  0  0  0  0  0  0  0  0  0  0
    2.1788   10.4676    9.0550 C   0  0  0  0  0  0  0  0  0  0  0  0
    1.3289   12.8516   12.5829 C   0  0  0  0  0  0  0  0  0  0  0  0
  1  2  1  1  0  0  0
  1  6  1  0  0  0  0
  1 21  1  0  0  0  0
  3  4  1  1  0  0  0
  3  8  1  0  0  0  0
  3 28  1  0  0  0  0
  5  9  1  0  0  0  0
  5 25  1  0  0  0  0
  5 29  1  6  0  0  0
  6  7  1  1  0  0  0
  6 11  1  0  0  0  0
  8 12  1  0  0  0  0
  9 10  1  1  0  0  0
  9 14  1  0  0  0  0
 11 16  1  0  0  0  0
 12 13  1  6  0  0  0
 12 17  1  0  0  0  0
 14 15  1  1  0  0  0
 14 18  1  0  0  0  0
 15 31  1  0  0  0  0
 16 20  1  0  0  0  0
 17  2  1  6  0  0  0
 17 22  1  0  0  0  0
 18 19  1  1  0  0  0
 18 24  1  0  0  0  0
 18 30  1  0  0  0  0
 20 21  1  0  0  0  0
 20 26  1  6  0  0  0
 22 23  1  6  0  0  0
 22 28  1  0  0  0  0
 24 25  1  0  0  0  0
 26 27  1  0  0  0  0
 28 29  1  1  0  0  0
M  END
>  <CHROM.1>
-170.58822594,-158.76301307,-82.01499494,-156.49834055,-108.04731265,88.65009927
-2.83997514,12.64007079,8.07228627,-2.22111481,-0.11576150,2.03889721

>  <Name>
ligand

>  <RI>
0

>  <Rbt.Current_Directory>
/home/itssahil/PROJECTS/Mol_Feturizer/New_Systems/rnas/4GPX

>  <Rbt.Executable>
rbdock ($Id: //depot/dev/client3/rdock/2013.1/src/exe/rbdock.cxx#4 $)

>  <Rbt.Library>
libRbt.so (2013.1, Build901 2013/11/27)

>  <Rbt.Parameter_File>
/export/apps/rDock/src/rDock_2013.1_src/data/scripts/dock_solv.prm

>  <Rbt.Receptor>
prm/pocket_docking_4.prm

>  <SCORE>
-21.3935

>  <SCORE.INTER>
-16.5342

>  <SCORE.INTER.CONST>
1

>  <SCORE.INTER.POLAR>
0

>  <SCORE.INTER.ROT>
6

>  <SCORE.INTER.SOLV>
19.5314

>  <SCORE.INTER.VDW>
-25.1333

>  <SCORE.INTER.norm>
-0.533361

>  <SCORE.INTRA>
-4.85937

>  <SCORE.INTRA.DIHEDRAL>
-10.2803

>  <SCORE.INTRA.DIHEDRAL.0>
20.6841

>  <SCORE.INTRA.POLAR>
0

>  <SCORE.INTRA.POLAR.0>
0

>  <SCORE.INTRA.REPUL>
0

>  <SCORE.INTRA.REPUL.0>
0

>  <SCORE.INTRA.SOLV>
0.184138

>  <SCORE.INTRA.SOLV.lig_0>
-64.6797

>  <SCORE.INTRA.VDW>
0.188737

>  <SCORE.INTRA.VDW.0>
-4.11825

>  <SCORE.INTRA.norm>
-0.156754

>  <SCORE.RESTR>
0

>  <SCORE.RESTR.CAVITY>
0

>  <SCORE.RESTR.norm>
0

>  <SCORE.SYSTEM>
0

>  <SCORE.SYSTEM.CONST>
0

>  <SCORE.SYSTEM.DIHEDRAL>
0

>  <SCORE.SYSTEM.SOLV>
0

>  <SCORE.SYSTEM.norm>
0

>  <SCORE.heavy>
31

>  <SCORE.norm>
-0.690114

>  <RMSD>
0.818

$$$$
ligand
 OpenBabel11021811493D
libRbt.so/2013.1/901 2013/11/27
 31 33  0  0  0  0  0  0  0  0999 V2000
   -3.4755   14.3163    4.9683 C   0  0  2  0  0  0  0  0  0  0  0  0
   -4.0075   14.5430    6.2702 O   0  0  0  0  0  0  0  0  0  0  0  0
   -4.4643   12.6421   10.0467 C   0  0  2  0  0  0  0  0  0  0  0  0
   -4.7771   11.6406   11.0194 N   0  0  0  0  0  0  0  0  0  0  0  0
   -1.9762   10.4972   10.4191 C   0  0  2  0  0  0  0  0  0  0  0  0
   -3.1426   15.7409    4.3635 C   0  0  2  0  0  0  0  0  0  0  0  0
   -2.1822   16.4081    5.2362 N   0  0  0  0  0  0  0  0  0  0  0  0
   -5.7790   12.9675    9.2248 C   0  0  0  0  0  0  0  0  0  0  0  0
   -0.9136   10.7526   11.5345 C   0  0  2  0  0  0  0  0  0  0  0  0
   -1.4277   11.7191   12.4257 O   0  0  0  0  0  0  0  0  0  0  0  0
   -4.4613   16.6013    4.2235 C   0  0  0  0  0  0  0  0  0  0  0  0
   -5.4378   14.0678    8.1513 C   0  0  2  0  0  0  0  0  0  0  0  0
   -6.6556   14.3707    7.3800 N   0  0  0  0  0  0  0  0  0  0  0  0
    0.3920   11.2773   10.8245 C   0  0  1  0  0  0  0  0  0  0  0  0
    1.4481   11.5606   11.8518 N   0  0  0  0  0  0  0  0  0  0  0  0
   -5.7087   15.7254    3.7801 C   0  0  0  0  0  0  0  0  0  0  0  0
   -4.2897   13.5386    7.1830 C   0  0  2  0  0  0  0  0  0  0  0  0
    0.9187   10.1103    9.8150 C   0  0  1  0  0  0  0  0  0  0  0  0
    1.1861    8.8937   10.4917 O   0  0  0  0  0  0  0  0  0  0  0  0
   -5.6374   14.3683    3.7510 C   0  0  2  0  0  0  0  0  0  0  0  0
   -4.4505   13.6526    4.1123 O   0  0  0  0  0  0  0  0  0  0  0  0
   -3.0008   13.2141    8.0253 C   0  0  2  0  0  0  0  0  0  0  0  0
   -1.9689   12.7257    7.1414 O   0  0  0  0  0  0  0  0  0  0  0  0
   -0.1741    9.8044    8.7398 C   0  0  0  0  0  0  0  0  0  0  0  0
   -1.4686    9.4645    9.4302 O   0  0  0  0  0  0  0  0  0  0  0  0
   -6.8107   13.4820    3.3287 C   0  0  0  0  0  0  0  0  0  0  0  0
   -7.3080   12.8033    4.5061 O   0  0  0  0  0  0  0  0  0  0  0  0
   -3.3553   12.0981    9.0762 C   0  0  1  0  0  0  0  0  0  0  0  0
   -2.2015   11.8053    9.7999 O   0  0  0  0  0  0  0  0  0  0  0  0
    2.2052   10.4596    9.0284 C   0  0  0  0  0  0  0  0  0  0  0  0
    1.3318   12.8368   12.5866 C   0  0  0  0  0  0  0  0  0  0  0  0
  1  2  1  1  0  0  0
  1  6  1  0  0  0  0
  1 21  1  0  0  0  0
  3  4  1  1  0  0  0
  3  8  1  0  0  0  0
  3 28  1  0  0  0  0
  5  9  1  0  0  0  0
  5 25  1  0  0  0  0
  5 29  1  6  0  0  0
  6  7  1  1  0  0  0
  6 11  1  0  0  0  0
  8 12  1  0  0  0  0
  9 10  1  1  0  0  0
  9 14  1  0  0  0  0
 11 16  1  0  0  0  0
 12 13  1  6  0  0  0
 12 17  1  0  0  0  0
 14 15  1  1  0  0  0
 14 18  1  0  0  0  0
 15 31  1  0  0  0  0
 16 20  1  0  0  0  0
 17  2  1  6  0  0  0
 17 22  1  0  0  0  0
 18 19  1  1  0  0  0
 18 24  1  0  0  0  0
 18 30  1  0  0  0  0
 20 21  1  0  0  0  0
 20 26  1  6  0  0  0
 22 23  1  6  0  0  0
 22 28  1  0  0  0  0
 24 25  1  0  0  0  0
 26 27  1  0  0  0  0
 28 29  1  1  0  0  0
M  END
>  <CHROM.1>
-172.79603853,-158.86571434,-79.52043295,-153.68985766,-109.31001784,88.32784674
-2.80765544,12.68592987,8.02787303,-2.21801177,-0.11555402,2.04691215

>  <Name>
ligand

>  <RI>
0

>  <Rbt.Current_Directory>
/home/itssahil/PROJECTS/Mol_Feturizer/New_Systems/rnas/4GPX

>  <Rbt.Executable>
rbdock ($Id: //depot/dev/client3/rdock/2013.1/src/exe/rbdock.cxx#4 $)

>  <Rbt.Library>
libRbt.so (2013.1, Build901 2013/11/27)

>  <Rbt.Parameter_File>
/export/apps/rDock/src/rDock_2013.1_src/data/scripts/dock_solv.prm

>  <Rbt.Receptor>
prm/pocket_docking_4.prm

>  <SCORE>
-21.5586

>  <SCORE.INTER>
-16.9502

>  <SCORE.INTER.CONST>
1

>  <SCORE.INTER.POLAR>
0

>  <SCORE.INTER.ROT>
6

>  <SCORE.INTER.SOLV>
19.3729

>  <SCORE.INTER.VDW>
-25.3578

>  <SCORE.INTER.norm>
-0.546782

>  <SCORE.INTRA>
-4.60838

>  <SCORE.INTRA.DIHEDRAL>
-10.1278

>  <SCORE.INTRA.DIHEDRAL.0>
20.6841

>  <SCORE.INTRA.POLAR>
0

>  <SCORE.INTRA.POLAR.0>
0

>  <SCORE.INTRA.REPUL>
0

>  <SCORE.INTRA.REPUL.0>
0

>  <SCORE.INTRA.SOLV>
0.458667

>  <SCORE.INTRA.SOLV.lig_0>
-64.6797

>  <SCORE.INTRA.VDW>
0.2262

>  <SCORE.INTRA.VDW.0>
-4.11825

>  <SCORE.INTRA.norm>
-0.148657

>  <SCORE.RESTR>
0

>  <SCORE.RESTR.CAVITY>
0

>  <SCORE.RESTR.norm>
0

>  <SCORE.SYSTEM>
0

>  <SCORE.SYSTEM.CONST>
0

>  <SCORE.SYSTEM.DIHEDRAL>
0

>  <SCORE.SYSTEM.SOLV>
0

>  <SCORE.SYSTEM.norm>
0

>  <SCORE.heavy>
31

>  <SCORE.norm>
-0.695439

>  <RMSD>
0.821

$$$$
ligand
 OpenBabel11021811493D
libRbt.so/2013.1/901 2013/11/27
 31 33  0  0  0  0  0  0  0  0999 V2000
   -3.4500   14.3243    4.9614 C   0  0  2  0  0  0  0  0  0  0  0  0
   -3.9848   14.5472    6.2627 O   0  0  0  0  0  0  0  0  0  0  0  0
   -4.4314   12.6380   10.0363 C   0  0  2  0  0  0  0  0  0  0  0  0
   -4.7410   11.6341   11.0075 N   0  0  0  0  0  0  0  0  0  0  0  0
   -1.9485   10.5018   10.4155 C   0  0  2  0  0  0  0  0  0  0  0  0
   -3.1363   15.7516    4.3528 C   0  0  2  0  0  0  0  0  0  0  0  0
   -2.1849   16.4339    5.2236 N   0  0  0  0  0  0  0  0  0  0  0  0
   -5.7483   12.9634    9.2178 C   0  0  0  0  0  0  0  0  0  0  0  0
   -0.8916   10.7657   11.5344 C   0  0  2  0  0  0  0  0  0  0  0  0
   -1.4090   11.7412   12.4138 O   0  0  0  0  0  0  0  0  0  0  0  0
   -4.4664   16.5939    4.2108 C   0  0  0  0  0  0  0  0  0  0  0  0
   -5.4106   14.0663    8.1458 C   0  0  2  0  0  0  0  0  0  0  0  0
   -6.6304   14.3693    7.3776 N   0  0  0  0  0  0  0  0  0  0  0  0
    0.4187   11.2816   10.8269 C   0  0  1  0  0  0  0  0  0  0  0  0
    1.4697   11.5726   11.8573 N   0  0  0  0  0  0  0  0  0  0  0  0
   -5.7020   15.7003    3.7699 C   0  0  0  0  0  0  0  0  0  0  0  0
   -4.2639   13.5406    7.1741 C   0  0  2  0  0  0  0  0  0  0  0  0
    0.9490   10.1045    9.8311 C   0  0  1  0  0  0  0  0  0  0  0  0
    1.2106    8.8938   10.5204 O   0  0  0  0  0  0  0  0  0  0  0  0
   -5.6126   14.3442    3.7442 C   0  0  2  0  0  0  0  0  0  0  0  0
   -4.4162   13.6454    4.1072 O   0  0  0  0  0  0  0  0  0  0  0  0
   -2.9728   13.2160    8.0131 C   0  0  2  0  0  0  0  0  0  0  0  0
   -1.9422   12.7307    7.1260 O   0  0  0  0  0  0  0  0  0  0  0  0
   -0.1384    9.7906    8.7527 C   0  0  0  0  0  0  0  0  0  0  0  0
   -1.4373    9.4592    9.4390 O   0  0  0  0  0  0  0  0  0  0  0  0
   -6.7740   13.4411    3.3244 C   0  0  0  0  0  0  0  0  0  0  0  0
   -7.2533   12.7487    4.5014 O   0  0  0  0  0  0  0  0  0  0  0  0
   -3.3238   12.0974    9.0624 C   0  0  1  0  0  0  0  0  0  0  0  0
   -2.1681   11.8046    9.7831 O   0  0  0  0  0  0  0  0  0  0  0  0
    2.2404   10.4444    9.0484 C   0  0  0  0  0  0  0  0  0  0  0  0
    1.3399   12.8463   12.5943 C   0  0  0  0  0  0  0  0  0  0  0  0
  1  2  1  1  0  0  0
  1  6  1  0  0  0  0
  1 21  1  0  0  0  0
  3  4  1  1  0  0  0
  3  8  1  0  0  0  0
  3 28  1  0  0  0  0
  5  9  1  0  0  0  0
  5 25  1  0  0  0  0
  5 29  1  6  0  0  0
  6  7  1  1  0  0  0
  6 11  1  0  0  0  0
  8 12  1  0  0  0  0
  9 10  1  1  0  0  0
  9 14  1  0  0  0  0
 11 16  1  0  0  0  0
 12 13  1  6  0  0  0
 12 17  1  0  0  0  0
 14 15  1  1  0  0  0
 14 18  1  0  0  0  0
 15 31  1  0  0  0  0
 16 20  1  0  0  0  0
 17  2  1  6  0  0  0
 17 22  1  0  0  0  0
 18 19  1  1  0  0  0
 18 24  1  0  0  0  0
 18 30  1  0  0  0  0
 20 21  1  0  0  0  0
 20 26  1  6  0  0  0
 22 23  1  6  0  0  0
 22 28  1  0  0  0  0
 24 25  1  0  0  0  0
 26 27  1  0  0  0  0
 28 29  1  1  0  0  0
M  END
>  <CHROM.1>
-173.35940713,-158.16389752,-78.61305879,-153.96369700,-109.87651230,87.42156875
-2.78223157,12.68271619,8.02475460,-2.21736781,-0.11307250,2.04680986

>  <Name>
ligand

>  <RI>
0

>  <Rbt.Current_Directory>
/home/itssahil/PROJECTS/Mol_Feturizer/New_Systems/rnas/4GPX

>  <Rbt.Executable>
rbdock ($Id: //depot/dev/client3/rdock/2013.1/src/exe/rbdock.cxx#4 $)

>  <Rbt.Library>
libRbt.so (2013.1, Build901 2013/11/27)

>  <Rbt.Parameter_File>
/export/apps/rDock/src/rDock_2013.1_src/data/scripts/dock_solv.prm

>  <Rbt.Receptor>
prm/pocket_docking_3.prm

>  <SCORE>
-21.5494

>  <SCORE.INTER>
-16.9127

>  <SCORE.INTER.CONST>
1

>  <SCORE.INTER.POLAR>
0

>  <SCORE.INTER.ROT>
6

>  <SCORE.INTER.SOLV>
19.3502

>  <SCORE.INTER.VDW>
-25.3252

>  <SCORE.INTER.norm>
-0.54557

>  <SCORE.INTRA>
-4.63673

>  <SCORE.INTRA.DIHEDRAL>
-10.3047

>  <SCORE.INTRA.DIHEDRAL.0>
20.6841

>  <SCORE.INTRA.POLAR>
0

>  <SCORE.INTRA.POLAR.0>
0

>  <SCORE.INTRA.REPUL>
0

>  <SCORE.INTRA.REPUL.0>
0

>  <SCORE.INTRA.SOLV>
0.451977

>  <SCORE.INTRA.SOLV.lig_0>
-64.6797

>  <SCORE.INTRA.VDW>
0.289656

>  <SCORE.INTRA.VDW.0>
-4.11825

>  <SCORE.INTRA.norm>
-0.149572

>  <SCORE.RESTR>
0

>  <SCORE.RESTR.CAVITY>
0

>  <SCORE.RESTR.norm>
0

>  <SCORE.SYSTEM>
0

>  <SCORE.SYSTEM.CONST>
0

>  <SCORE.SYSTEM.DIHEDRAL>
0

>  <SCORE.SYSTEM.SOLV>
0

>  <SCORE.SYSTEM.norm>
0

>  <SCORE.heavy>
31

>  <SCORE.norm>
-0.695142

>  <RMSD>
0.823

$$$$
ligand
 OpenBabel11021811493D
libRbt.so/2013.1/901 2013/11/27
 31 33  0  0  0  0  0  0  0  0999 V2000
   -3.5657   14.2016    4.8985 C   0  0  2  0  0  0  0  0  0  0  0  0
   -3.9683   14.4601    6.2403 O   0  0  0  0  0  0  0  0  0  0  0  0
   -4.3518   12.6224   10.0560 C   0  0  2  0  0  0  0  0  0  0  0  0
   -4.6557   11.6413   11.0520 N   0  0  0  0  0  0  0  0  0  0  0  0
   -1.8975   10.4343   10.3897 C   0  0  2  0  0  0  0  0  0  0  0  0
   -3.1648   15.5986    4.2713 C   0  0  2  0  0  0  0  0  0  0  0  0
   -2.0834   16.1753    5.0633 N   0  0  0  0  0  0  0  0  0  0  0  0
   -5.6833   12.9626    9.2678 C   0  0  0  0  0  0  0  0  0  0  0  0
   -0.8607   10.7020   11.5264 C   0  0  2  0  0  0  0  0  0  0  0  0
   -1.3981   11.6728   12.3990 O   0  0  0  0  0  0  0  0  0  0  0  0
   -4.4134   16.5676    4.2424 C   0  0  0  0  0  0  0  0  0  0  0  0
   -5.3520   14.0404    8.1687 C   0  0  2  0  0  0  0  0  0  0  0  0
   -6.5856   14.3568    7.4286 N   0  0  0  0  0  0  0  0  0  0  0  0
    0.4581   11.2267   10.8415 C   0  0  1  0  0  0  0  0  0  0  0  0
    1.4903   11.5217   11.8898 N   0  0  0  0  0  0  0  0  0  0  0  0
   -5.7622   15.8033    3.9014 C   0  0  0  0  0  0  0  0  0  0  0  0
   -4.2434   13.4746    7.1756 C   0  0  2  0  0  0  0  0  0  0  0  0
    1.0115   10.0546    9.8525 C   0  0  1  0  0  0  0  0  0  0  0  0
    1.2686    8.8440   10.5437 O   0  0  0  0  0  0  0  0  0  0  0  0
   -5.8081   14.4453    3.8636 C   0  0  2  0  0  0  0  0  0  0  0  0
   -4.6600   13.6296    4.1243 O   0  0  0  0  0  0  0  0  0  0  0  0
   -2.9370   13.1363    7.9849 C   0  0  2  0  0  0  0  0  0  0  0  0
   -1.9412   12.6148    7.0788 O   0  0  0  0  0  0  0  0  0  0  0  0
   -0.0561    9.7366    8.7557 C   0  0  0  0  0  0  0  0  0  0  0  0
   -1.3643    9.3965    9.4198 O   0  0  0  0  0  0  0  0  0  0  0  0
   -7.0824   13.6641    3.5375 C   0  0  0  0  0  0  0  0  0  0  0  0
   -6.7610   12.6825    2.5238 O   0  0  0  0  0  0  0  0  0  0  0  0
   -3.2825   12.0426    9.0619 C   0  0  1  0  0  0  0  0  0  0  0  0
   -2.1141   11.7370    9.7562 O   0  0  0  0  0  0  0  0  0  0  0  0
    2.3137   10.4033    9.0919 C   0  0  0  0  0  0  0  0  0  0  0  0
    1.3821   12.8245   12.5775 C   0  0  0  0  0  0  0  0  0  0  0  0
  1  2  1  1  0  0  0
  1  6  1  0  0  0  0
  1 21  1  0  0  0  0
  3  4  1  1  0  0  0
  3  8  1  0  0  0  0
  3 28  1  0  0  0  0
  5  9  1  0  0  0  0
  5 25  1  0  0  0  0
  5 29  1  6  0  0  0
  6  7  1  1  0  0  0
  6 11  1  0  0  0  0
  8 12  1  0  0  0  0
  9 10  1  1  0  0  0
  9 14  1  0  0  0  0
 11 16  1  0  0  0  0
 12 13  1  6  0  0  0
 12 17  1  0  0  0  0
 14 15  1  1  0  0  0
 14 18  1  0  0  0  0
 15 31  1  0  0  0  0
 16 20  1  0  0  0  0
 17  2  1  6  0  0  0
 17 22  1  0  0  0  0
 18 19  1  1  0  0  0
 18 24  1  0  0  0  0
 18 30  1  0  0  0  0
 20 21  1  0  0  0  0
 20 26  1  6  0  0  0
 22 23  1  6  0  0  0
 22 28  1  0  0  0  0
 24 25  1  0  0  0  0
 26 27  1  0  0  0  0
 28 29  1  1  0  0  0
M  END
>  <CHROM.1>
-172.02069563,-155.55202301,-81.71509567,-149.25041495,130.74870122,88.22195179
-2.75656757,12.63969826,7.96279457,-2.22251350,-0.21175935,1.95233163

>  <Name>
ligand

>  <RI>
0

>  <Rbt.Current_Directory>
/home/itssahil/PROJECTS/Mol_Feturizer/New_Systems/rnas/4GPX

>  <Rbt.Executable>
rbdock ($Id: //depot/dev/client3/rdock/2013.1/src/exe/rbdock.cxx#4 $)

>  <Rbt.Library>
libRbt.so (2013.1, Build901 2013/11/27)

>  <Rbt.Parameter_File>
/export/apps/rDock/src/rDock_2013.1_src/data/scripts/dock_solv.prm

>  <Rbt.Receptor>
prm/pocket_docking_3.prm

>  <SCORE>
-21.0556

>  <SCORE.INTER>
-17.1201

>  <SCORE.INTER.CONST>
1

>  <SCORE.INTER.POLAR>
0

>  <SCORE.INTER.ROT>
6

>  <SCORE.INTER.SOLV>
20.2987

>  <SCORE.INTER.VDW>
-25.7796

>  <SCORE.INTER.norm>
-0.552261

>  <SCORE.INTRA>
-3.93546

>  <SCORE.INTRA.DIHEDRAL>
-8.6173

>  <SCORE.INTRA.DIHEDRAL.0>
20.6841

>  <SCORE.INTRA.POLAR>
0

>  <SCORE.INTRA.POLAR.0>
0

>  <SCORE.INTRA.REPUL>
0

>  <SCORE.INTRA.REPUL.0>
0

>  <SCORE.INTRA.SOLV>
0.0942376

>  <SCORE.INTRA.SOLV.lig_0>
-64.6797

>  <SCORE.INTRA.VDW>
0.32607

>  <SCORE.INTRA.VDW.0>
-4.11825

>  <SCORE.INTRA.norm>
-0.12695

>  <SCORE.RESTR>
0

>  <SCORE.RESTR.CAVITY>
0

>  <SCORE.RESTR.norm>
0

>  <SCORE.SYSTEM>
0

>  <SCORE.SYSTEM.CONST>
0

>  <SCORE.SYSTEM.DIHEDRAL>
0

>  <SCORE.SYSTEM.SOLV>
0

>  <SCORE.SYSTEM.norm>
0

>  <SCORE.heavy>
31

>  <SCORE.norm>
-0.679211

>  <RMSD>
0.825

$$$$
ligand
 OpenBabel11021811493D
libRbt.so/2013.1/901 2013/11/27
 31 33  0  0  0  0  0  0  0  0999 V2000
   -3.6703   14.1679    4.9223 C   0  0  2  0  0  0  0  0  0  0  0  0
   -4.0772   14.4310    6.2618 O   0  0  0  0  0  0  0  0  0  0  0  0
   -4.4240   12.6088   10.0885 C   0  0  2  0  0  0  0  0  0  0  0  0
   -4.7170   11.6312   11.0912 N   0  0  0  0  0  0  0  0  0  0  0  0
   -1.9613   10.4279   10.4103 C   0  0  2  0  0  0  0  0  0  0  0  0
   -3.2632   15.5623    4.2930 C   0  0  2  0  0  0  0  0  0  0  0  0
   -2.1833   16.1381    5.0876 N   0  0  0  0  0  0  0  0  0  0  0  0
   -5.7629   12.9423    9.3101 C   0  0  0  0  0  0  0  0  0  0  0  0
   -0.9090   10.7011   11.5313 C   0  0  2  0  0  0  0  0  0  0  0  0
   -1.4343   11.6761   12.4065 O   0  0  0  0  0  0  0  0  0  0  0  0
   -4.5091   16.5345    4.2568 C   0  0  0  0  0  0  0  0  0  0  0  0
   -5.4436   14.0162    8.2037 C   0  0  2  0  0  0  0  0  0  0  0  0
   -6.6842   14.3264    7.4727 N   0  0  0  0  0  0  0  0  0  0  0  0
    0.4003   11.2225   10.8258 C   0  0  1  0  0  0  0  0  0  0  0  0
    1.4468   11.5225   11.8582 N   0  0  0  0  0  0  0  0  0  0  0  0
   -5.8586   15.7729    3.9127 C   0  0  0  0  0  0  0  0  0  0  0  0
   -4.3420   13.4489    7.2036 C   0  0  2  0  0  0  0  0  0  0  0  0
    0.9401   10.0456    9.8349 C   0  0  1  0  0  0  0  0  0  0  0  0
    1.2067    8.8384   10.5284 O   0  0  0  0  0  0  0  0  0  0  0  0
   -5.9080   14.4149    3.8782 C   0  0  2  0  0  0  0  0  0  0  0  0
   -4.7631   13.5968    4.1454 O   0  0  0  0  0  0  0  0  0  0  0  0
   -3.0280   13.1172    8.0033 C   0  0  2  0  0  0  0  0  0  0  0  0
   -2.0386   12.5943    7.0911 O   0  0  0  0  0  0  0  0  0  0  0  0
   -0.1426    9.7223    8.7545 C   0  0  0  0  0  0  0  0  0  0  0  0
   -1.4414    9.3855    9.4382 O   0  0  0  0  0  0  0  0  0  0  0  0
   -7.1832   13.6363    3.5493 C   0  0  0  0  0  0  0  0  0  0  0  0
   -6.8789   12.7045    2.4846 O   0  0  0  0  0  0  0  0  0  0  0  0
   -3.3617   12.0273    9.0879 C   0  0  1  0  0  0  0  0  0  0  0  0
   -2.1867   11.7275    9.7736 O   0  0  0  0  0  0  0  0  0  0  0  0
    2.2316   10.3907    9.0547 C   0  0  0  0  0  0  0  0  0  0  0  0
    1.3517   12.8313   12.5367 C   0  0  0  0  0  0  0  0  0  0  0  0
  1  2  1  1  0  0  0
  1  6  1  0  0  0  0
  1 21  1  0  0  0  0
  3  4  1  1  0  0  0
  3  8  1  0  0  0  0
  3 28  1  0  0  0  0
  5  9  1  0  0  0  0
  5 25  1  0  0  0  0
  5 29  1  6  0  0  0
  6  7  1  1  0  0  0
  6 11  1  0  0  0  0
  8 12  1  0  0  0  0
  9 10  1  1  0  0  0
  9 14  1  0  0  0  0
 11 16  1  0  0  0  0
 12 13  1  6  0  0  0
 12 17  1  0  0  0  0
 14 15  1  1  0  0  0
 14 18  1  0  0  0  0
 15 31  1  0  0  0  0
 16 20  1  0  0  0  0
 17  2  1  6  0  0  0
 17 22  1  0  0  0  0
 18 19  1  1  0  0  0
 18 24  1  0  0  0  0
 18 30  1  0  0  0  0
 20 21  1  0  0  0  0
 20 26  1  6  0  0  0
 22 23  1  6  0  0  0
 22 28  1  0  0  0  0
 24 25  1  0  0  0  0
 26 27  1  0  0  0  0
 28 29  1  1  0  0  0
M  END
>  <CHROM.1>
-171.15632437,-155.90306280,-81.98646654,-150.01657182,127.47830627,88.24669233
-2.83810372,12.62354535,7.97237106,-2.22952140,-0.21790769,1.94365649

>  <Name>
ligand

>  <RI>
0

>  <Rbt.Current_Directory>
/home/itssahil/PROJECTS/Mol_Feturizer/New_Systems/rnas/4GPX

>  <Rbt.Executable>
rbdock ($Id: //depot/dev/client3/rdock/2013.1/src/exe/rbdock.cxx#4 $)

>  <Rbt.Library>
libRbt.so (2013.1, Build901 2013/11/27)

>  <Rbt.Parameter_File>
/export/apps/rDock/src/rDock_2013.1_src/data/scripts/dock_solv.prm

>  <Rbt.Receptor>
prm/pocket_docking_4.prm

>  <SCORE>
-21.1288

>  <SCORE.INTER>
-17.0514

>  <SCORE.INTER.CONST>
1

>  <SCORE.INTER.POLAR>
0

>  <SCORE.INTER.ROT>
6

>  <SCORE.INTER.SOLV>
20.5466

>  <SCORE.INTER.VDW>
-25.8165

>  <SCORE.INTER.norm>
-0.550046

>  <SCORE.INTRA>
-4.07734

>  <SCORE.INTRA.DIHEDRAL>
-8.81836

>  <SCORE.INTRA.DIHEDRAL.0>
20.6841

>  <SCORE.INTRA.POLAR>
0

>  <SCORE.INTRA.POLAR.0>
0

>  <SCORE.INTRA.REPUL>
0

>  <SCORE.INTRA.REPUL.0>
0

>  <SCORE.INTRA.SOLV>
0.0273565

>  <SCORE.INTRA.SOLV.lig_0>
-64.6797

>  <SCORE.INTRA.VDW>
0.318165

>  <SCORE.INTRA.VDW.0>
-4.11825

>  <SCORE.INTRA.norm>
-0.131527

>  <SCORE.RESTR>
0

>  <SCORE.RESTR.CAVITY>
0

>  <SCORE.RESTR.norm>
0

>  <SCORE.SYSTEM>
0

>  <SCORE.SYSTEM.CONST>
0

>  <SCORE.SYSTEM.DIHEDRAL>
0

>  <SCORE.SYSTEM.SOLV>
0

>  <SCORE.SYSTEM.norm>
0

>  <SCORE.heavy>
31

>  <SCORE.norm>
-0.681573

>  <RMSD>
0.828

$$$$
ligand
 OpenBabel11021811493D
libRbt.so/2013.1/901 2013/11/27
 31 33  0  0  0  0  0  0  0  0999 V2000
   -3.6020   14.1981    4.9054 C   0  0  2  0  0  0  0  0  0  0  0  0
   -4.0263   14.4551    6.2407 O   0  0  0  0  0  0  0  0  0  0  0  0
   -4.3970   12.6159   10.0570 C   0  0  2  0  0  0  0  0  0  0  0  0
   -4.6962   11.6339   11.0535 N   0  0  0  0  0  0  0  0  0  0  0  0
   -1.9371   10.4348   10.3869 C   0  0  2  0  0  0  0  0  0  0  0  0
   -3.2011   15.5974    4.2830 C   0  0  2  0  0  0  0  0  0  0  0  0
   -2.1357   16.1820    5.0906 N   0  0  0  0  0  0  0  0  0  0  0  0
   -5.7311   12.9526    9.2717 C   0  0  0  0  0  0  0  0  0  0  0  0
   -0.9042   10.7073   11.5260 C   0  0  2  0  0  0  0  0  0  0  0  0
   -1.4479   11.6761   12.3970 O   0  0  0  0  0  0  0  0  0  0  0  0
   -4.4557   16.5579    4.2344 C   0  0  0  0  0  0  0  0  0  0  0  0
   -5.4050   14.0315    8.1721 C   0  0  2  0  0  0  0  0  0  0  0  0
   -6.6409   14.3447    7.4346 N   0  0  0  0  0  0  0  0  0  0  0  0
    0.4141   11.2374   10.8443 C   0  0  1  0  0  0  0  0  0  0  0  0
    1.4424   11.5371   11.8949 N   0  0  0  0  0  0  0  0  0  0  0  0
   -5.7940   15.7842    3.8740 C   0  0  0  0  0  0  0  0  0  0  0  0
   -4.2969   13.4688    7.1765 C   0  0  2  0  0  0  0  0  0  0  0  0
    0.9749   10.0673    9.8570 C   0  0  1  0  0  0  0  0  0  0  0  0
    1.2354    8.8581   10.5493 O   0  0  0  0  0  0  0  0  0  0  0  0
   -5.8302   14.4259    3.8368 C   0  0  2  0  0  0  0  0  0  0  0  0
   -4.6806   13.6181    4.1155 O   0  0  0  0  0  0  0  0  0  0  0  0
   -2.9879   13.1337    7.9831 C   0  0  2  0  0  0  0  0  0  0  0  0
   -1.9927   12.6150    7.0748 O   0  0  0  0  0  0  0  0  0  0  0  0
   -0.0887    9.7444    8.7577 C   0  0  0  0  0  0  0  0  0  0  0  0
   -1.3970    9.3990    9.4187 O   0  0  0  0  0  0  0  0  0  0  0  0
   -7.0942   13.6358    3.4924 C   0  0  0  0  0  0  0  0  0  0  0  0
   -6.7484   12.6475    2.4934 O   0  0  0  0  0  0  0  0  0  0  0  0
   -3.3283   12.0390    9.0607 C   0  0  1  0  0  0  0  0  0  0  0  0
   -2.1576   11.7364    9.7524 O   0  0  0  0  0  0  0  0  0  0  0  0
    2.2774   10.4214    9.0995 C   0  0  0  0  0  0  0  0  0  0  0  0
    1.3294   12.8415   12.5791 C   0  0  0  0  0  0  0  0  0  0  0  0
  1  2  1  1  0  0  0
  1  6  1  0  0  0  0
  1 21  1  0  0  0  0
  3  4  1  1  0  0  0
  3  8  1  0  0  0  0
  3 28  1  0  0  0  0
  5  9  1  0  0  0  0
  5 25  1  0  0  0  0
  5 29  1  6  0  0  0
  6  7  1  1  0  0  0
  6 11  1  0  0  0  0
  8 12  1  0  0  0  0
  9 10  1  1  0  0  0
  9 14  1  0  0  0  0
 11 16  1  0  0  0  0
 12 13  1  6  0  0  0
 12 17  1  0  0  0  0
 14 15  1  1  0  0  0
 14 18  1  0  0  0  0
 15 31  1  0  0  0  0
 16 20  1  0  0  0  0
 17  2  1  6  0  0  0
 17 22  1  0  0  0  0
 18 19  1  1  0  0  0
 18 24  1  0  0  0  0
 18 30  1  0  0  0  0
 20 21  1  0  0  0  0
 20 26  1  6  0  0  0
 22 23  1  6  0  0  0
 22 28  1  0  0  0  0
 24 25  1  0  0  0  0
 26 27  1  0  0  0  0
 28 29  1  1  0  0  0
M  END
>  <CHROM.1>
-171.39573966,-155.23650468,-81.89628836,-150.46862280,131.26150416,88.13345314
-2.79618567,12.63724673,7.96032565,-2.22169402,-0.21504455,1.94619111

>  <Name>
ligand

>  <RI>
0

>  <Rbt.Current_Directory>
/home/itssahil/PROJECTS/Mol_Feturizer/New_Systems/rnas/4GPX

>  <Rbt.Executable>
rbdock ($Id: //depot/dev/client3/rdock/2013.1/src/exe/rbdock.cxx#4 $)

>  <Rbt.Library>
libRbt.so (2013.1, Build901 2013/11/27)

>  <Rbt.Parameter_File>
/export/apps/rDock/src/rDock_2013.1_src/data/scripts/dock_solv.prm

>  <Rbt.Receptor>
prm/pocket_docking_8.prm

>  <SCORE>
-21.0517

>  <SCORE.INTER>
-17.037

>  <SCORE.INTER.CONST>
1

>  <SCORE.INTER.POLAR>
0

>  <SCORE.INTER.ROT>
6

>  <SCORE.INTER.SOLV>
20.4802

>  <SCORE.INTER.VDW>
-25.7847

>  <SCORE.INTER.norm>
-0.549579

>  <SCORE.INTRA>
-4.01473

>  <SCORE.INTRA.DIHEDRAL>
-8.73754

>  <SCORE.INTRA.DIHEDRAL.0>
20.6841

>  <SCORE.INTRA.POLAR>
0

>  <SCORE.INTRA.POLAR.0>
0

>  <SCORE.INTRA.REPUL>
0

>  <SCORE.INTRA.REPUL.0>
0

>  <SCORE.INTRA.SOLV>
0.0198216

>  <SCORE.INTRA.SOLV.lig_0>
-64.6797

>  <SCORE.INTRA.VDW>
0.344129

>  <SCORE.INTRA.VDW.0>
-4.11825

>  <SCORE.INTRA.norm>
-0.129507

>  <SCORE.RESTR>
0

>  <SCORE.RESTR.CAVITY>
0

>  <SCORE.RESTR.norm>
0

>  <SCORE.SYSTEM>
0

>  <SCORE.SYSTEM.CONST>
0

>  <SCORE.SYSTEM.DIHEDRAL>
0

>  <SCORE.SYSTEM.SOLV>
0

>  <SCORE.SYSTEM.norm>
0

>  <SCORE.heavy>
31

>  <SCORE.norm>
-0.679087

>  <RMSD>
0.831

$$$$
ligand
 OpenBabel11021811493D
libRbt.so/2013.1/901 2013/11/27
 31 33  0  0  0  0  0  0  0  0999 V2000
   -3.5703   14.1524    5.0263 C   0  0  2  0  0  0  0  0  0  0  0  0
   -4.1800   14.3904    6.2916 O   0  0  0  0  0  0  0  0  0  0  0  0
   -4.4705   12.5657   10.1218 C   0  0  2  0  0  0  0  0  0  0  0  0
   -4.7443   11.5858   11.1275 N   0  0  0  0  0  0  0  0  0  0  0  0
   -1.9764   10.3996   10.3992 C   0  0  2  0  0  0  0  0  0  0  0  0
   -3.2465   15.5732    4.4079 C   0  0  2  0  0  0  0  0  0  0  0  0
   -2.3560   16.2881    5.3163 N   0  0  0  0  0  0  0  0  0  0  0  0
   -5.8205   12.8872    9.3574 C   0  0  0  0  0  0  0  0  0  0  0  0
   -0.9185   10.6739   11.5146 C   0  0  2  0  0  0  0  0  0  0  0  0
   -1.4517   11.6273   12.4086 O   0  0  0  0  0  0  0  0  0  0  0  0
   -4.5801   16.3896    4.1763 C   0  0  0  0  0  0  0  0  0  0  0  0
   -5.5223   13.9638    8.2477 C   0  0  2  0  0  0  0  0  0  0  0  0
   -6.7732   14.2628    7.5297 N   0  0  0  0  0  0  0  0  0  0  0  0
    0.3756   11.2270   10.8052 C   0  0  1  0  0  0  0  0  0  0  0  0
    1.4264   11.5293   11.8325 N   0  0  0  0  0  0  0  0  0  0  0  0
   -5.7747   15.4667    3.6856 C   0  0  0  0  0  0  0  0  0  0  0  0
   -4.4261   13.4061    7.2362 C   0  0  2  0  0  0  0  0  0  0  0  0
    0.9254   10.0736    9.7924 C   0  0  1  0  0  0  0  0  0  0  0  0
    1.2182    8.8611   10.4657 O   0  0  0  0  0  0  0  0  0  0  0  0
   -5.6621   14.1121    3.6917 C   0  0  2  0  0  0  0  0  0  0  0  0
   -4.4765   13.4410    4.1338 O   0  0  0  0  0  0  0  0  0  0  0  0
   -3.1010   13.0863    8.0221 C   0  0  2  0  0  0  0  0  0  0  0  0
   -2.1165   12.5721    7.0996 O   0  0  0  0  0  0  0  0  0  0  0  0
   -0.1616    9.7482    8.7171 C   0  0  0  0  0  0  0  0  0  0  0  0
   -1.4484    9.3801    9.4074 O   0  0  0  0  0  0  0  0  0  0  0  0
   -6.7836   13.1813    3.2264 C   0  0  0  0  0  0  0  0  0  0  0  0
   -7.8686   13.9990    2.7279 O   0  0  0  0  0  0  0  0  0  0  0  0
   -3.4136   11.9936    9.1102 C   0  0  1  0  0  0  0  0  0  0  0  0
   -2.2289   11.7044    9.7836 O   0  0  0  0  0  0  0  0  0  0  0  0
    2.2039   10.4512    9.0059 C   0  0  0  0  0  0  0  0  0  0  0  0
    1.3459   12.8476   12.4940 C   0  0  0  0  0  0  0  0  0  0  0  0
  1  2  1  1  0  0  0
  1  6  1  0  0  0  0
  1 21  1  0  0  0  0
  3  4  1  1  0  0  0
  3  8  1  0  0  0  0
  3 28  1  0  0  0  0
  5  9  1  0  0  0  0
  5 25  1  0  0  0  0
  5 29  1  6  0  0  0
  6  7  1  1  0  0  0
  6 11  1  0  0  0  0
  8 12  1  0  0  0  0
  9 10  1  1  0  0  0
  9 14  1  0  0  0  0
 11 16  1  0  0  0  0
 12 13  1  6  0  0  0
 12 17  1  0  0  0  0
 14 15  1  1  0  0  0
 14 18  1  0  0  0  0
 15 31  1  0  0  0  0
 16 20  1  0  0  0  0
 17  2  1  6  0  0  0
 17 22  1  0  0  0  0
 18 19  1  1  0  0  0
 18 24  1  0  0  0  0
 18 30  1  0  0  0  0
 20 21  1  0  0  0  0
 20 26  1  6  0  0  0
 22 23  1  6  0  0  0
 22 28  1  0  0  0  0
 24 25  1  0  0  0  0
 26 27  1  0  0  0  0
 28 29  1  1  0  0  0
M  END
>  <CHROM.1>
-169.66560876,-156.05443078,-84.24215164,-161.19249455,3.74458357,89.26666138
-2.87357998,12.61916260,7.96858598,-2.23257319,-0.20103477,1.95598806

>  <Name>
ligand

>  <RI>
0

>  <Rbt.Current_Directory>
/home/itssahil/PROJECTS/Mol_Feturizer/New_Systems/rnas/4GPX

>  <Rbt.Executable>
rbdock ($Id: //depot/dev/client3/rdock/2013.1/src/exe/rbdock.cxx#4 $)

>  <Rbt.Library>
libRbt.so (2013.1, Build901 2013/11/27)

>  <Rbt.Parameter_File>
/export/apps/rDock/src/rDock_2013.1_src/data/scripts/dock_solv.prm

>  <Rbt.Receptor>
prm/pocket_docking_3.prm

>  <SCORE>
-20.8938

>  <SCORE.INTER>
-16.6185

>  <SCORE.INTER.CONST>
1

>  <SCORE.INTER.POLAR>
0

>  <SCORE.INTER.ROT>
6

>  <SCORE.INTER.SOLV>
19.6684

>  <SCORE.INTER.VDW>
-25.2351

>  <SCORE.INTER.norm>
-0.53608

>  <SCORE.INTRA>
-4.27527

>  <SCORE.INTRA.DIHEDRAL>
-10.4935

>  <SCORE.INTRA.DIHEDRAL.0>
20.6841

>  <SCORE.INTRA.POLAR>
0

>  <SCORE.INTRA.POLAR.0>
0

>  <SCORE.INTRA.REPUL>
0

>  <SCORE.INTRA.REPUL.0>
0

>  <SCORE.INTRA.SOLV>
-0.849401

>  <SCORE.INTRA.SOLV.lig_0>
-64.6797

>  <SCORE.INTRA.VDW>
1.39617

>  <SCORE.INTRA.VDW.0>
-4.11825

>  <SCORE.INTRA.norm>
-0.137912

>  <SCORE.RESTR>
0

>  <SCORE.RESTR.CAVITY>
0

>  <SCORE.RESTR.norm>
0

>  <SCORE.SYSTEM>
0

>  <SCORE.SYSTEM.CONST>
0

>  <SCORE.SYSTEM.DIHEDRAL>
0

>  <SCORE.SYSTEM.SOLV>
0

>  <SCORE.SYSTEM.norm>
0

>  <SCORE.heavy>
31

>  <SCORE.norm>
-0.673992

>  <RMSD>
0.832

$$$$
ligand
 OpenBabel11021811493D
libRbt.so/2013.1/901 2013/11/27
 31 33  0  0  0  0  0  0  0  0999 V2000
   -3.5499   14.1699    4.9930 C   0  0  2  0  0  0  0  0  0  0  0  0
   -4.1379   14.4042    6.2691 O   0  0  0  0  0  0  0  0  0  0  0  0
   -4.4643   12.5629   10.0884 C   0  0  2  0  0  0  0  0  0  0  0  0
   -4.7421   11.5765   11.0868 N   0  0  0  0  0  0  0  0  0  0  0  0
   -1.9655   10.4344   10.4243 C   0  0  2  0  0  0  0  0  0  0  0  0
   -3.2269   15.5923    4.3778 C   0  0  2  0  0  0  0  0  0  0  0  0
   -2.3175   16.2961    5.2760 N   0  0  0  0  0  0  0  0  0  0  0  0
   -5.8064   12.8724    9.3056 C   0  0  0  0  0  0  0  0  0  0  0  0
   -0.9107   10.7269   11.5380 C   0  0  2  0  0  0  0  0  0  0  0  0
   -1.4425   11.7018   12.4094 O   0  0  0  0  0  0  0  0  0  0  0  0
   -4.5588   16.4184    4.1722 C   0  0  0  0  0  0  0  0  0  0  0  0
   -5.5038   13.9561    8.2039 C   0  0  2  0  0  0  0  0  0  0  0  0
   -6.7473   14.2441    7.4687 N   0  0  0  0  0  0  0  0  0  0  0  0
    0.3890   11.2582   10.8224 C   0  0  1  0  0  0  0  0  0  0  0  0
    1.4373   11.5768   11.8474 N   0  0  0  0  0  0  0  0  0  0  0  0
   -5.7669   15.5059    3.6952 C   0  0  0  0  0  0  0  0  0  0  0  0
   -4.3871   13.4139    7.2067 C   0  0  2  0  0  0  0  0  0  0  0  0
    0.9370   10.0809    9.8365 C   0  0  1  0  0  0  0  0  0  0  0  0
    1.2207    8.8814   10.5366 O   0  0  0  0  0  0  0  0  0  0  0  0
   -5.6629   14.1506    3.6916 C   0  0  2  0  0  0  0  0  0  0  0  0
   -4.4747   13.4695    4.1108 O   0  0  0  0  0  0  0  0  0  0  0  0
   -3.0701   13.1057    8.0108 C   0  0  2  0  0  0  0  0  0  0  0  0
   -2.0668   12.6055    7.1011 O   0  0  0  0  0  0  0  0  0  0  0  0
   -0.1474    9.7382    8.7639 C   0  0  0  0  0  0  0  0  0  0  0  0
   -1.4389    9.3914    9.4565 O   0  0  0  0  0  0  0  0  0  0  0  0
   -6.7976   13.2298    3.2387 C   0  0  0  0  0  0  0  0  0  0  0  0
   -7.9377   14.0543    2.9003 O   0  0  0  0  0  0  0  0  0  0  0  0
   -3.3866   12.0059    9.0905 C   0  0  1  0  0  0  0  0  0  0  0  0
   -2.2087   11.7272    9.7801 O   0  0  0  0  0  0  0  0  0  0  0  0
    2.2206   10.4352    9.0475 C   0  0  0  0  0  0  0  0  0  0  0  0
    1.3211   12.8818   12.5299 C   0  0  0  0  0  0  0  0  0  0  0  0
  1  2  1  1  0  0  0
  1  6  1  0  0  0  0
  1 21  1  0  0  0  0
  3  4  1  1  0  0  0
  3  8  1  0  0  0  0
  3 28  1  0  0  0  0
  5  9  1  0  0  0  0
  5 25  1  0  0  0  0
  5 29  1  6  0  0  0
  6  7  1  1  0  0  0
  6 11  1  0  0  0  0
  8 12  1  0  0  0  0
  9 10  1  1  0  0  0
  9 14  1  0  0  0  0
 11 16  1  0  0  0  0
 12 13  1  6  0  0  0
 12 17  1  0  0  0  0
 14 15  1  1  0  0  0
 14 18  1  0  0  0  0
 15 31  1  0  0  0  0
 16 20  1  0  0  0  0
 17  2  1  6  0  0  0
 17 22  1  0  0  0  0
 18 19  1  1  0  0  0
 18 24  1  0  0  0  0
 18 30  1  0  0  0  0
 20 21  1  0  0  0  0
 20 26  1  6  0  0  0
 22 23  1  6  0  0  0
 22 28  1  0  0  0  0
 24 25  1  0  0  0  0
 26 27  1  0  0  0  0
 28 29  1  1  0  0  0
M  END
>  <CHROM.1>
-170.31210825,-156.36516880,-81.23888526,-158.88974410,-2.40775478,87.66370905
-2.86157141,12.63985207,7.97373809,-2.22900645,-0.17655327,1.97571200

>  <Name>
ligand

>  <RI>
0

>  <Rbt.Current_Directory>
/home/itssahil/PROJECTS/Mol_Feturizer/New_Systems/rnas/4GPX

>  <Rbt.Executable>
rbdock ($Id: //depot/dev/client3/rdock/2013.1/src/exe/rbdock.cxx#4 $)

>  <Rbt.Library>
libRbt.so (2013.1, Build901 2013/11/27)

>  <Rbt.Parameter_File>
/export/apps/rDock/src/rDock_2013.1_src/data/scripts/dock_solv.prm

>  <Rbt.Receptor>
prm/pocket_docking_4.prm

>  <SCORE>
-20.9069

>  <SCORE.INTER>
-16.748

>  <SCORE.INTER.CONST>
1

>  <SCORE.INTER.POLAR>
0

>  <SCORE.INTER.ROT>
6

>  <SCORE.INTER.SOLV>
19.5773

>  <SCORE.INTER.VDW>
-25.2911

>  <SCORE.INTER.norm>
-0.540257

>  <SCORE.INTRA>
-4.15888

>  <SCORE.INTRA.DIHEDRAL>
-10.6333

>  <SCORE.INTRA.DIHEDRAL.0>
20.6841

>  <SCORE.INTRA.POLAR>
0

>  <SCORE.INTRA.POLAR.0>
0

>  <SCORE.INTRA.REPUL>
0

>  <SCORE.INTRA.REPUL.0>
0

>  <SCORE.INTRA.SOLV>
-0.661571

>  <SCORE.INTRA.SOLV.lig_0>
-64.6797

>  <SCORE.INTRA.VDW>
1.48857

>  <SCORE.INTRA.VDW.0>
-4.11825

>  <SCORE.INTRA.norm>
-0.134157

>  <SCORE.RESTR>
0

>  <SCORE.RESTR.CAVITY>
0

>  <SCORE.RESTR.norm>
0

>  <SCORE.SYSTEM>
0

>  <SCORE.SYSTEM.CONST>
0

>  <SCORE.SYSTEM.DIHEDRAL>
0

>  <SCORE.SYSTEM.SOLV>
0

>  <SCORE.SYSTEM.norm>
0

>  <SCORE.heavy>
31

>  <SCORE.norm>
-0.674415

>  <RMSD>
0.833

$$$$
ligand
 OpenBabel11021811493D
libRbt.so/2013.1/901 2013/11/27
 31 33  0  0  0  0  0  0  0  0999 V2000
   -3.4624   14.3388    4.9433 C   0  0  2  0  0  0  0  0  0  0  0  0
   -3.9898   14.5681    6.2466 O   0  0  0  0  0  0  0  0  0  0  0  0
   -4.4438   12.6683   10.0240 C   0  0  2  0  0  0  0  0  0  0  0  0
   -4.7593   11.6685   10.9975 N   0  0  0  0  0  0  0  0  0  0  0  0
   -1.9810   10.5160   10.4087 C   0  0  2  0  0  0  0  0  0  0  0  0
   -3.1493   15.7629    4.3270 C   0  0  2  0  0  0  0  0  0  0  0  0
   -2.1920   16.4471    5.1899 N   0  0  0  0  0  0  0  0  0  0  0  0
   -5.7597   13.0030    9.2077 C   0  0  0  0  0  0  0  0  0  0  0  0
   -0.9347   10.7807   11.5374 C   0  0  2  0  0  0  0  0  0  0  0  0
   -1.4567   11.7631   12.4064 O   0  0  0  0  0  0  0  0  0  0  0  0
   -4.4786   16.6071    4.1887 C   0  0  0  0  0  0  0  0  0  0  0  0
   -5.4155   14.1015    8.1333 C   0  0  2  0  0  0  0  0  0  0  0  0
   -6.6344   14.4130    7.3672 N   0  0  0  0  0  0  0  0  0  0  0  0
    0.3854   11.2868   10.8412 C   0  0  1  0  0  0  0  0  0  0  0  0
    1.4269   11.5781   11.8812 N   0  0  0  0  0  0  0  0  0  0  0  0
   -5.7182   15.7138    3.7581 C   0  0  0  0  0  0  0  0  0  0  0  0
   -4.2750   13.5651    7.1601 C   0  0  2  0  0  0  0  0  0  0  0  0
    0.9206   10.1021    9.8570 C   0  0  1  0  0  0  0  0  0  0  0  0
    1.1692    8.8938   10.5552 O   0  0  0  0  0  0  0  0  0  0  0  0
   -5.6314   14.3575    3.7377 C   0  0  2  0  0  0  0  0  0  0  0  0
   -4.4343   13.6580    4.0972 O   0  0  0  0  0  0  0  0  0  0  0  0
   -2.9848   13.2316    7.9969 C   0  0  2  0  0  0  0  0  0  0  0  0
   -1.9599   12.7367    7.1085 O   0  0  0  0  0  0  0  0  0  0  0  0
   -0.1568    9.7878    8.7688 C   0  0  0  0  0  0  0  0  0  0  0  0
   -1.4644    9.4660    9.4430 O   0  0  0  0  0  0  0  0  0  0  0  0
   -6.7966   13.4548    3.3279 C   0  0  0  0  0  0  0  0  0  0  0  0
   -7.3448   12.8564    4.5262 O   0  0  0  0  0  0  0  0  0  0  0  0
   -3.3425   12.1174    9.0487 C   0  0  1  0  0  0  0  0  0  0  0  0
   -2.1877   11.8165    9.7675 O   0  0  0  0  0  0  0  0  0  0  0  0
    2.2218   10.4320    9.0864 C   0  0  0  0  0  0  0  0  0  0  0  0
    1.3626   12.9039   12.5295 C   0  0  0  0  0  0  0  0  0  0  0  0
  1  2  1  1  0  0  0
  1  6  1  0  0  0  0
  1 21  1  0  0  0  0
  3  4  1  1  0  0  0
  3  8  1  0  0  0  0
  3 28  1  0  0  0  0
  5  9  1  0  0  0  0
  5 25  1  0  0  0  0
  5 29  1  6  0  0  0
  6  7  1  1  0  0  0
  6 11  1  0  0  0  0
  8 12  1  0  0  0  0
  9 10  1  1  0  0  0
  9 14  1  0  0  0  0
 11 16  1  0  0  0  0
 12 13  1  6  0  0  0
 12 17  1  0  0  0  0
 14 15  1  1  0  0  0
 14 18  1  0  0  0  0
 15 31  1  0  0  0  0
 16 20  1  0  0  0  0
 17  2  1  6  0  0  0
 17 22  1  0  0  0  0
 18 19  1  1  0  0  0
 18 24  1  0  0  0  0
 18 30  1  0  0  0  0
 20 21  1  0  0  0  0
 20 26  1  6  0  0  0
 22 23  1  6  0  0  0
 22 28  1  0  0  0  0
 24 25  1  0  0  0  0
 26 27  1  0  0  0  0
 28 29  1  1  0  0  0
M  END
>  <CHROM.1>
-173.85256884,-157.25228628,-83.62313596,-153.81325824,-105.03822193,87.01577439
-2.80379471,12.70248130,8.01948742,-2.21581691,-0.11061215,2.05049446

>  <Name>
ligand

>  <RI>
0

>  <Rbt.Current_Directory>
/home/itssahil/PROJECTS/Mol_Feturizer/New_Systems/rnas/4GPX

>  <Rbt.Executable>
rbdock ($Id: //depot/dev/client3/rdock/2013.1/src/exe/rbdock.cxx#4 $)

>  <Rbt.Library>
libRbt.so (2013.1, Build901 2013/11/27)

>  <Rbt.Parameter_File>
/export/apps/rDock/src/rDock_2013.1_src/data/scripts/dock_solv.prm

>  <Rbt.Receptor>
prm/pocket_docking_7.prm

>  <SCORE>
-21.5501

>  <SCORE.INTER>
-16.8952

>  <SCORE.INTER.CONST>
1

>  <SCORE.INTER.POLAR>
0

>  <SCORE.INTER.ROT>
6

>  <SCORE.INTER.SOLV>
19.4557

>  <SCORE.INTER.VDW>
-25.3487

>  <SCORE.INTER.norm>
-0.545006

>  <SCORE.INTRA>
-4.65488

>  <SCORE.INTRA.DIHEDRAL>
-9.93725

>  <SCORE.INTRA.DIHEDRAL.0>
20.6841

>  <SCORE.INTRA.POLAR>
0

>  <SCORE.INTRA.POLAR.0>
0

>  <SCORE.INTRA.REPUL>
0

>  <SCORE.INTRA.REPUL.0>
0

>  <SCORE.INTRA.SOLV>
0.488181

>  <SCORE.INTRA.SOLV.lig_0>
-64.6797

>  <SCORE.INTRA.VDW>
0.0696549

>  <SCORE.INTRA.VDW.0>
-4.11825

>  <SCORE.INTRA.norm>
-0.150157

>  <SCORE.RESTR>
0

>  <SCORE.RESTR.CAVITY>
0

>  <SCORE.RESTR.norm>
0

>  <SCORE.SYSTEM>
0

>  <SCORE.SYSTEM.CONST>
0

>  <SCORE.SYSTEM.DIHEDRAL>
0

>  <SCORE.SYSTEM.SOLV>
0

>  <SCORE.SYSTEM.norm>
0

>  <SCORE.heavy>
31

>  <SCORE.norm>
-0.695164

>  <RMSD>
0.835

$$$$
ligand
 OpenBabel11021811493D
libRbt.so/2013.1/901 2013/11/27
 31 33  0  0  0  0  0  0  0  0999 V2000
   -3.5465   14.1345    5.0219 C   0  0  2  0  0  0  0  0  0  0  0  0
   -4.1312   14.3770    6.2980 O   0  0  0  0  0  0  0  0  0  0  0  0
   -4.4955   12.5592   10.1251 C   0  0  2  0  0  0  0  0  0  0  0  0
   -4.7801   11.5777   11.1265 N   0  0  0  0  0  0  0  0  0  0  0  0
   -1.9698   10.4340   10.4709 C   0  0  2  0  0  0  0  0  0  0  0  0
   -3.2197   15.5528    4.3993 C   0  0  2  0  0  0  0  0  0  0  0  0
   -2.3063   16.2579    5.2924 N   0  0  0  0  0  0  0  0  0  0  0  0
   -5.8293   12.8553    9.3231 C   0  0  0  0  0  0  0  0  0  0  0  0
   -0.8896   10.7133   11.5635 C   0  0  2  0  0  0  0  0  0  0  0  0
   -1.4030   11.6742   12.4612 O   0  0  0  0  0  0  0  0  0  0  0  0
   -4.5492   16.3825    4.1921 C   0  0  0  0  0  0  0  0  0  0  0  0
   -5.5191   13.9334    8.2182 C   0  0  2  0  0  0  0  0  0  0  0  0
   -6.7548   14.2089    7.4652 N   0  0  0  0  0  0  0  0  0  0  0  0
    0.3916   11.2582   10.8251 C   0  0  1  0  0  0  0  0  0  0  0  0
    1.4630   11.5649   11.8296 N   0  0  0  0  0  0  0  0  0  0  0  0
   -5.7613   15.4718    3.7218 C   0  0  0  0  0  0  0  0  0  0  0  0
   -4.3864   13.3915    7.2389 C   0  0  2  0  0  0  0  0  0  0  0  0
    0.9188   10.0965    9.8098 C   0  0  1  0  0  0  0  0  0  0  0  0
    1.2218    8.8879   10.4857 O   0  0  0  0  0  0  0  0  0  0  0  0
   -5.6619   14.1162    3.7246 C   0  0  2  0  0  0  0  0  0  0  0  0
   -4.4753   13.4330    4.1449 O   0  0  0  0  0  0  0  0  0  0  0  0
   -3.0780   13.0966    8.0619 C   0  0  2  0  0  0  0  0  0  0  0  0
   -2.0602   12.5965    7.1684 O   0  0  0  0  0  0  0  0  0  0  0  0
   -0.1898    9.7664    8.7582 C   0  0  0  0  0  0  0  0  0  0  0  0
   -1.4638    9.4063    9.4761 O   0  0  0  0  0  0  0  0  0  0  0  0
   -6.8006   13.1970    3.2784 C   0  0  0  0  0  0  0  0  0  0  0  0
   -7.9178   14.0262    2.8800 O   0  0  0  0  0  0  0  0  0  0  0  0
   -3.4018   12.0021    9.1448 C   0  0  1  0  0  0  0  0  0  0  0  0
   -2.2312   11.7351    9.8513 O   0  0  0  0  0  0  0  0  0  0  0  0
    2.1826   10.4655    8.9959 C   0  0  0  0  0  0  0  0  0  0  0  0
    1.3513   12.8527   12.5447 C   0  0  0  0  0  0  0  0  0  0  0  0
  1  2  1  1  0  0  0
  1  6  1  0  0  0  0
  1 21  1  0  0  0  0
  3  4  1  1  0  0  0
  3  8  1  0  0  0  0
  3 28  1  0  0  0  0
  5  9  1  0  0  0  0
  5 25  1  0  0  0  0
  5 29  1  6  0  0  0
  6  7  1  1  0  0  0
  6 11  1  0  0  0  0
  8 12  1  0  0  0  0
  9 10  1  1  0  0  0
  9 14  1  0  0  0  0
 11 16  1  0  0  0  0
 12 13  1  6  0  0  0
 12 17  1  0  0  0  0
 14 15  1  1  0  0  0
 14 18  1  0  0  0  0
 15 31  1  0  0  0  0
 16 20  1  0  0  0  0
 17  2  1  6  0  0  0
 17 22  1  0  0  0  0
 18 19  1  1  0  0  0
 18 24  1  0  0  0  0
 18 30  1  0  0  0  0
 20 21  1  0  0  0  0
 20 26  1  6  0  0  0
 22 23  1  6  0  0  0
 22 28  1  0  0  0  0
 24 25  1  0  0  0  0
 26 27  1  0  0  0  0
 28 29  1  1  0  0  0
M  END
>  <CHROM.1>
-170.55483890,-159.16303483,-80.55055442,-157.76697504,0.16108577,89.66290358
-2.86449441,12.62562762,7.99360992,-2.23038726,-0.17542334,1.97168864

>  <Name>
ligand

>  <RI>
0

>  <Rbt.Current_Directory>
/home/itssahil/PROJECTS/Mol_Feturizer/New_Systems/rnas/4GPX

>  <Rbt.Executable>
rbdock ($Id: //depot/dev/client3/rdock/2013.1/src/exe/rbdock.cxx#4 $)

>  <Rbt.Library>
libRbt.so (2013.1, Build901 2013/11/27)

>  <Rbt.Parameter_File>
/export/apps/rDock/src/rDock_2013.1_src/data/scripts/dock_solv.prm

>  <Rbt.Receptor>
prm/pocket_docking_3.prm

>  <SCORE>
-20.8864

>  <SCORE.INTER>
-16.7227

>  <SCORE.INTER.CONST>
1

>  <SCORE.INTER.POLAR>
0

>  <SCORE.INTER.ROT>
6

>  <SCORE.INTER.SOLV>
19.4702

>  <SCORE.INTER.VDW>
-25.2386

>  <SCORE.INTER.norm>
-0.539443

>  <SCORE.INTRA>
-4.16368

>  <SCORE.INTRA.DIHEDRAL>
-10.5992

>  <SCORE.INTRA.DIHEDRAL.0>
20.6841

>  <SCORE.INTRA.POLAR>
0

>  <SCORE.INTRA.POLAR.0>
0

>  <SCORE.INTRA.REPUL>
0

>  <SCORE.INTRA.REPUL.0>
0

>  <SCORE.INTRA.SOLV>
-0.671724

>  <SCORE.INTRA.SOLV.lig_0>
-64.6797

>  <SCORE.INTRA.VDW>
1.47179

>  <SCORE.INTRA.VDW.0>
-4.11825

>  <SCORE.INTRA.norm>
-0.134312

>  <SCORE.RESTR>
0

>  <SCORE.RESTR.CAVITY>
0

>  <SCORE.RESTR.norm>
0

>  <SCORE.SYSTEM>
0

>  <SCORE.SYSTEM.CONST>
0

>  <SCORE.SYSTEM.DIHEDRAL>
0

>  <SCORE.SYSTEM.SOLV>
0

>  <SCORE.SYSTEM.norm>
0

>  <SCORE.heavy>
31

>  <SCORE.norm>
-0.673755

>  <RMSD>
0.836

$$$$
ligand
 OpenBabel11021811493D
libRbt.so/2013.1/901 2013/11/27
 31 33  0  0  0  0  0  0  0  0999 V2000
   -3.6512   14.1842    4.9177 C   0  0  2  0  0  0  0  0  0  0  0  0
   -4.0507   14.4397    6.2610 O   0  0  0  0  0  0  0  0  0  0  0  0
   -4.4411   12.5992   10.0747 C   0  0  2  0  0  0  0  0  0  0  0  0
   -4.7428   11.6158   11.0690 N   0  0  0  0  0  0  0  0  0  0  0  0
   -1.9689   10.4281   10.4166 C   0  0  2  0  0  0  0  0  0  0  0  0
   -3.2606   15.5839    4.2899 C   0  0  2  0  0  0  0  0  0  0  0  0
   -2.1800   16.1665    5.0786 N   0  0  0  0  0  0  0  0  0  0  0  0
   -5.7708   12.9289    9.2790 C   0  0  0  0  0  0  0  0  0  0  0  0
   -0.9213   10.6964   11.5432 C   0  0  2  0  0  0  0  0  0  0  0  0
   -1.4520   11.6647   12.4227 O   0  0  0  0  0  0  0  0  0  0  0  0
   -4.5150   16.5456    4.2657 C   0  0  0  0  0  0  0  0  0  0  0  0
   -5.4418   14.0093    8.1818 C   0  0  2  0  0  0  0  0  0  0  0  0
   -6.6737   14.3160    7.4348 N   0  0  0  0  0  0  0  0  0  0  0  0
    0.3894   11.2253   10.8459 C   0  0  1  0  0  0  0  0  0  0  0  0
    1.4314   11.5210   11.8840 N   0  0  0  0  0  0  0  0  0  0  0  0
   -5.8604   15.7734    3.9289 C   0  0  0  0  0  0  0  0  0  0  0  0
   -4.3233   13.4521    7.1948 C   0  0  2  0  0  0  0  0  0  0  0  0
    0.9354   10.0559    9.8494 C   0  0  1  0  0  0  0  0  0  0  0  0
    1.2022    8.8449   10.5362 O   0  0  0  0  0  0  0  0  0  0  0  0
   -5.8984   14.4152    3.8906 C   0  0  2  0  0  0  0  0  0  0  0  0
   -4.7446   13.6061    4.1470 O   0  0  0  0  0  0  0  0  0  0  0  0
   -3.0188   13.1240    8.0115 C   0  0  2  0  0  0  0  0  0  0  0  0
   -2.0140   12.6103    7.1109 O   0  0  0  0  0  0  0  0  0  0  0  0
   -0.1426    9.7371    8.7630 C   0  0  0  0  0  0  0  0  0  0  0  0
   -1.4431    9.3930    9.4398 O   0  0  0  0  0  0  0  0  0  0  0  0
   -7.1692   13.6266    3.5684 C   0  0  0  0  0  0  0  0  0  0  0  0
   -6.8582   12.6831    2.5161 O   0  0  0  0  0  0  0  0  0  0  0  0
   -3.3618   12.0277    9.0866 C   0  0  1  0  0  0  0  0  0  0  0  0
   -2.1949   11.7312    9.7874 O   0  0  0  0  0  0  0  0  0  0  0  0
    2.2290   10.4089    9.0763 C   0  0  0  0  0  0  0  0  0  0  0  0
    1.3267   12.8222   12.5755 C   0  0  0  0  0  0  0  0  0  0  0  0
  1  2  1  1  0  0  0
  1  6  1  0  0  0  0
  1 21  1  0  0  0  0
  3  4  1  1  0  0  0
  3  8  1  0  0  0  0
  3 28  1  0  0  0  0
  5  9  1  0  0  0  0
  5 25  1  0  0  0  0
  5 29  1  6  0  0  0
  6  7  1  1  0  0  0
  6 11  1  0  0  0  0
  8 12  1  0  0  0  0
  9 10  1  1  0  0  0
  9 14  1  0  0  0  0
 11 16  1  0  0  0  0
 12 13  1  6  0  0  0
 12 17  1  0  0  0  0
 14 15  1  1  0  0  0
 14 18  1  0  0  0  0
 15 31  1  0  0  0  0
 16 20  1  0  0  0  0
 17  2  1  6  0  0  0
 17 22  1  0  0  0  0
 18 19  1  1  0  0  0
 18 24  1  0  0  0  0
 18 30  1  0  0  0  0
 20 21  1  0  0  0  0
 20 26  1  6  0  0  0
 22 23  1  6  0  0  0
 22 28  1  0  0  0  0
 24 25  1  0  0  0  0
 26 27  1  0  0  0  0
 28 29  1  1  0  0  0
M  END
>  <CHROM.1>
-172.35800446,-156.63526598,-81.67532102,-148.61605394,128.54319742,88.52509034
-2.83759190,12.62587221,7.97764258,-2.22480456,-0.20424154,1.95497847

>  <Name>
ligand

>  <RI>
0

>  <Rbt.Current_Directory>
/home/itssahil/PROJECTS/Mol_Feturizer/New_Systems/rnas/4GPX

>  <Rbt.Executable>
rbdock ($Id: //depot/dev/client3/rdock/2013.1/src/exe/rbdock.cxx#4 $)

>  <Rbt.Library>
libRbt.so (2013.1, Build901 2013/11/27)

>  <Rbt.Parameter_File>
/export/apps/rDock/src/rDock_2013.1_src/data/scripts/dock_solv.prm

>  <Rbt.Receptor>
prm/pocket_docking_3.prm

>  <SCORE>
-21.0747

>  <SCORE.INTER>
-17.0731

>  <SCORE.INTER.CONST>
1

>  <SCORE.INTER.POLAR>
0

>  <SCORE.INTER.ROT>
6

>  <SCORE.INTER.SOLV>
20.5513

>  <SCORE.INTER.VDW>
-25.8325

>  <SCORE.INTER.norm>
-0.550744

>  <SCORE.INTRA>
-4.00162

>  <SCORE.INTRA.DIHEDRAL>
-8.7149

>  <SCORE.INTRA.DIHEDRAL.0>
20.6841

>  <SCORE.INTRA.POLAR>
0

>  <SCORE.INTRA.POLAR.0>
0

>  <SCORE.INTRA.REPUL>
0

>  <SCORE.INTRA.REPUL.0>
0

>  <SCORE.INTRA.SOLV>
0.101954

>  <SCORE.INTRA.SOLV.lig_0>
-64.6797

>  <SCORE.INTRA.VDW>
0.304847

>  <SCORE.INTRA.VDW.0>
-4.11825

>  <SCORE.INTRA.norm>
-0.129085

>  <SCORE.RESTR>
0

>  <SCORE.RESTR.CAVITY>
0

>  <SCORE.RESTR.norm>
0

>  <SCORE.SYSTEM>
0

>  <SCORE.SYSTEM.CONST>
0

>  <SCORE.SYSTEM.DIHEDRAL>
0

>  <SCORE.SYSTEM.SOLV>
0

>  <SCORE.SYSTEM.norm>
0

>  <SCORE.heavy>
31

>  <SCORE.norm>
-0.679829

>  <RMSD>
0.836

$$$$
ligand
 OpenBabel11021811493D
libRbt.so/2013.1/901 2013/11/27
 31 33  0  0  0  0  0  0  0  0999 V2000
   -3.6453   14.1754    4.9547 C   0  0  2  0  0  0  0  0  0  0  0  0
   -4.0787   14.4289    6.2878 O   0  0  0  0  0  0  0  0  0  0  0  0
   -4.4458   12.5884   10.1038 C   0  0  2  0  0  0  0  0  0  0  0  0
   -4.7391   11.6041   11.0997 N   0  0  0  0  0  0  0  0  0  0  0  0
   -1.9585   10.4259   10.4293 C   0  0  2  0  0  0  0  0  0  0  0  0
   -3.2644   15.5793    4.3302 C   0  0  2  0  0  0  0  0  0  0  0  0
   -2.2114   16.1827    5.1403 N   0  0  0  0  0  0  0  0  0  0  0  0
   -5.7801   12.9116    9.3132 C   0  0  0  0  0  0  0  0  0  0  0  0
   -0.9003   10.6940   11.5460 C   0  0  2  0  0  0  0  0  0  0  0  0
   -1.4261   11.6561   12.4352 O   0  0  0  0  0  0  0  0  0  0  0  0
   -4.5338   16.5196    4.2745 C   0  0  0  0  0  0  0  0  0  0  0  0
   -5.4604   13.9930    8.2142 C   0  0  2  0  0  0  0  0  0  0  0  0
   -6.6966   14.2937    7.4719 N   0  0  0  0  0  0  0  0  0  0  0  0
    0.4006   11.2316   10.8373 C   0  0  1  0  0  0  0  0  0  0  0  0
    1.4522   11.5276   11.8658 N   0  0  0  0  0  0  0  0  0  0  0  0
   -5.8583   15.7239    3.9111 C   0  0  0  0  0  0  0  0  0  0  0  0
   -4.3432   13.4405    7.2231 C   0  0  2  0  0  0  0  0  0  0  0  0
    0.9413   10.0690    9.8302 C   0  0  1  0  0  0  0  0  0  0  0  0
    1.2207    8.8563   10.5089 O   0  0  0  0  0  0  0  0  0  0  0  0
   -5.8728   14.3650    3.8772 C   0  0  2  0  0  0  0  0  0  0  0  0
   -4.7116   13.5764    4.1622 O   0  0  0  0  0  0  0  0  0  0  0  0
   -3.0340   13.1188    8.0348 C   0  0  2  0  0  0  0  0  0  0  0  0
   -2.0304   12.6093    7.1306 O   0  0  0  0  0  0  0  0  0  0  0  0
   -0.1466    9.7501    8.7538 C   0  0  0  0  0  0  0  0  0  0  0  0
   -1.4384    9.3973    9.4426 O   0  0  0  0  0  0  0  0  0  0  0  0
   -7.1228   13.5542    3.5301 C   0  0  0  0  0  0  0  0  0  0  0  0
   -6.7852   12.6457    2.4554 O   0  0  0  0  0  0  0  0  0  0  0  0
   -3.3678   12.0215    9.1118 C   0  0  1  0  0  0  0  0  0  0  0  0
   -2.1968   11.7307    9.8082 O   0  0  0  0  0  0  0  0  0  0  0  0
    2.2252   10.4310    9.0451 C   0  0  0  0  0  0  0  0  0  0  0  0
    1.3681   12.8390   12.5404 C   0  0  0  0  0  0  0  0  0  0  0  0
  1  2  1  1  0  0  0
  1  6  1  0  0  0  0
  1 21  1  0  0  0  0
  3  4  1  1  0  0  0
  3  8  1  0  0  0  0
  3 28  1  0  0  0  0
  5  9  1  0  0  0  0
  5 25  1  0  0  0  0
  5 29  1  6  0  0  0
  6  7  1  1  0  0  0
  6 11  1  0  0  0  0
  8 12  1  0  0  0  0
  9 10  1  1  0  0  0
  9 14  1  0  0  0  0
 11 16  1  0  0  0  0
 12 13  1  6  0  0  0
 12 17  1  0  0  0  0
 14 15  1  1  0  0  0
 14 18  1  0  0  0  0
 15 31  1  0  0  0  0
 16 20  1  0  0  0  0
 17  2  1  6  0  0  0
 17 22  1  0  0  0  0
 18 19  1  1  0  0  0
 18 24  1  0  0  0  0
 18 30  1  0  0  0  0
 20 21  1  0  0  0  0
 20 26  1  6  0  0  0
 22 23  1  6  0  0  0
 22 28  1  0  0  0  0
 24 25  1  0  0  0  0
 26 27  1  0  0  0  0
 28 29  1  1  0  0  0
M  END
>  <CHROM.1>
-171.71238449,-157.15909910,-83.11977620,-150.54725242,126.51747247,88.94978756
-2.83243402,12.61638752,7.98423256,-2.22794949,-0.21353968,1.94265189

>  <Name>
ligand

>  <RI>
0

>  <Rbt.Current_Directory>
/home/itssahil/PROJECTS/Mol_Feturizer/New_Systems/rnas/4GPX

>  <Rbt.Executable>
rbdock ($Id: //depot/dev/client3/rdock/2013.1/src/exe/rbdock.cxx#4 $)

>  <Rbt.Library>
libRbt.so (2013.1, Build901 2013/11/27)

>  <Rbt.Parameter_File>
/export/apps/rDock/src/rDock_2013.1_src/data/scripts/dock_solv.prm

>  <Rbt.Receptor>
prm/pocket_docking_3.prm

>  <SCORE>
-21.0813

>  <SCORE.INTER>
-16.8011

>  <SCORE.INTER.CONST>
1

>  <SCORE.INTER.POLAR>
0

>  <SCORE.INTER.ROT>
6

>  <SCORE.INTER.SOLV>
20.574

>  <SCORE.INTER.VDW>
-25.6587

>  <SCORE.INTER.norm>
-0.54197

>  <SCORE.INTRA>
-4.28024

>  <SCORE.INTRA.DIHEDRAL>
-9.03912

>  <SCORE.INTRA.DIHEDRAL.0>
20.6841

>  <SCORE.INTRA.POLAR>
0

>  <SCORE.INTRA.POLAR.0>
0

>  <SCORE.INTRA.REPUL>
0

>  <SCORE.INTRA.REPUL.0>
0

>  <SCORE.INTRA.SOLV>
-0.0606708

>  <SCORE.INTRA.SOLV.lig_0>
-64.6797

>  <SCORE.INTRA.VDW>
0.269661

>  <SCORE.INTRA.VDW.0>
-4.11825

>  <SCORE.INTRA.norm>
-0.138072

>  <SCORE.RESTR>
0

>  <SCORE.RESTR.CAVITY>
0

>  <SCORE.RESTR.norm>
0

>  <SCORE.SYSTEM>
0

>  <SCORE.SYSTEM.CONST>
0

>  <SCORE.SYSTEM.DIHEDRAL>
0

>  <SCORE.SYSTEM.SOLV>
0

>  <SCORE.SYSTEM.norm>
0

>  <SCORE.heavy>
31

>  <SCORE.norm>
-0.680042

>  <RMSD>
0.837

$$$$
ligand
 OpenBabel11021811493D
libRbt.so/2013.1/901 2013/11/27
 31 33  0  0  0  0  0  0  0  0999 V2000
   -3.4354   14.3396    4.9684 C   0  0  2  0  0  0  0  0  0  0  0  0
   -3.9682   14.5541    6.2720 O   0  0  0  0  0  0  0  0  0  0  0  0
   -4.4477   12.6192   10.0284 C   0  0  2  0  0  0  0  0  0  0  0  0
   -4.7649   11.6085   10.9900 N   0  0  0  0  0  0  0  0  0  0  0  0
   -1.9648   10.4847   10.4171 C   0  0  2  0  0  0  0  0  0  0  0  0
   -3.1382   15.7714    4.3620 C   0  0  2  0  0  0  0  0  0  0  0  0
   -2.1910   16.4615    5.2313 N   0  0  0  0  0  0  0  0  0  0  0  0
   -5.7572   12.9479    9.1994 C   0  0  0  0  0  0  0  0  0  0  0  0
   -0.9138   10.7414   11.5432 C   0  0  2  0  0  0  0  0  0  0  0  0
   -1.4356   11.7116   12.4258 O   0  0  0  0  0  0  0  0  0  0  0  0
   -4.4773   16.6004    4.2263 C   0  0  0  0  0  0  0  0  0  0  0  0
   -5.4112   14.0584    8.1380 C   0  0  2  0  0  0  0  0  0  0  0  0
   -6.6240   14.3644    7.3602 N   0  0  0  0  0  0  0  0  0  0  0  0
    0.4005   11.2613   10.8459 C   0  0  1  0  0  0  0  0  0  0  0  0
    1.4460   11.5457   11.8837 N   0  0  0  0  0  0  0  0  0  0  0  0
   -5.7051   15.6951    3.7873 C   0  0  0  0  0  0  0  0  0  0  0  0
   -4.2542   13.5410    7.1739 C   0  0  2  0  0  0  0  0  0  0  0  0
    0.9358   10.0902    9.8457 C   0  0  1  0  0  0  0  0  0  0  0  0
    1.1934    8.8752   10.5290 O   0  0  0  0  0  0  0  0  0  0  0  0
   -5.6020   14.3400    3.7583 C   0  0  2  0  0  0  0  0  0  0  0  0
   -4.3973   13.6528    4.1159 O   0  0  0  0  0  0  0  0  0  0  0  0
   -2.9707   13.2131    8.0232 C   0  0  2  0  0  0  0  0  0  0  0  0
   -1.9308   12.7354    7.1429 O   0  0  0  0  0  0  0  0  0  0  0  0
   -0.1459    9.7831    8.7597 C   0  0  0  0  0  0  0  0  0  0  0  0
   -1.4485    9.4479    9.4370 O   0  0  0  0  0  0  0  0  0  0  0  0
   -6.7554   13.4261    3.3403 C   0  0  0  0  0  0  0  0  0  0  0  0
   -7.1985   12.6978    4.5097 O   0  0  0  0  0  0  0  0  0  0  0  0
   -3.3298   12.0870    9.0617 C   0  0  1  0  0  0  0  0  0  0  0  0
   -2.1807   11.7913    9.7916 O   0  0  0  0  0  0  0  0  0  0  0  0
    2.2314   10.4345    9.0721 C   0  0  0  0  0  0  0  0  0  0  0  0
    1.3433   12.8390   12.5900 C   0  0  0  0  0  0  0  0  0  0  0  0
  1  2  1  1  0  0  0
  1  6  1  0  0  0  0
  1 21  1  0  0  0  0
  3  4  1  1  0  0  0
  3  8  1  0  0  0  0
  3 28  1  0  0  0  0
  5  9  1  0  0  0  0
  5 25  1  0  0  0  0
  5 29  1  6  0  0  0
  6  7  1  1  0  0  0
  6 11  1  0  0  0  0
  8 12  1  0  0  0  0
  9 10  1  1  0  0  0
  9 14  1  0  0  0  0
 11 16  1  0  0  0  0
 12 13  1  6  0  0  0
 12 17  1  0  0  0  0
 14 15  1  1  0  0  0
 14 18  1  0  0  0  0
 15 31  1  0  0  0  0
 16 20  1  0  0  0  0
 17  2  1  6  0  0  0
 17 22  1  0  0  0  0
 18 19  1  1  0  0  0
 18 24  1  0  0  0  0
 18 30  1  0  0  0  0
 20 21  1  0  0  0  0
 20 26  1  6  0  0  0
 22 23  1  6  0  0  0
 22 28  1  0  0  0  0
 24 25  1  0  0  0  0
 26 27  1  0  0  0  0
 28 29  1  1  0  0  0
M  END
>  <CHROM.1>
-174.45351433,-158.44337409,-80.97041997,-153.18167125,-111.48994866,87.43812627
-2.78474126,12.67372111,8.03112208,-2.21315129,-0.10263031,2.05771689

>  <Name>
ligand

>  <RI>
0

>  <Rbt.Current_Directory>
/home/itssahil/PROJECTS/Mol_Feturizer/New_Systems/rnas/4GPX

>  <Rbt.Executable>
rbdock ($Id: //depot/dev/client3/rdock/2013.1/src/exe/rbdock.cxx#4 $)

>  <Rbt.Library>
libRbt.so (2013.1, Build901 2013/11/27)

>  <Rbt.Parameter_File>
/export/apps/rDock/src/rDock_2013.1_src/data/scripts/dock_solv.prm

>  <Rbt.Receptor>
prm/pocket_docking_4.prm

>  <SCORE>
-21.543

>  <SCORE.INTER>
-16.8263

>  <SCORE.INTER.CONST>
1

>  <SCORE.INTER.POLAR>
0

>  <SCORE.INTER.ROT>
6

>  <SCORE.INTER.SOLV>
19.4366

>  <SCORE.INTER.VDW>
-25.2964

>  <SCORE.INTER.norm>
-0.542785

>  <SCORE.INTRA>
-4.71667

>  <SCORE.INTRA.DIHEDRAL>
-10.2437

>  <SCORE.INTRA.DIHEDRAL.0>
20.6841

>  <SCORE.INTRA.POLAR>
0

>  <SCORE.INTRA.POLAR.0>
0

>  <SCORE.INTRA.REPUL>
0

>  <SCORE.INTRA.REPUL.0>
0

>  <SCORE.INTRA.SOLV>
0.500186

>  <SCORE.INTRA.SOLV.lig_0>
-64.6797

>  <SCORE.INTRA.VDW>
0.155082

>  <SCORE.INTRA.VDW.0>
-4.11825

>  <SCORE.INTRA.norm>
-0.152151

>  <SCORE.RESTR>
0

>  <SCORE.RESTR.CAVITY>
0

>  <SCORE.RESTR.norm>
0

>  <SCORE.SYSTEM>
0

>  <SCORE.SYSTEM.CONST>
0

>  <SCORE.SYSTEM.DIHEDRAL>
0

>  <SCORE.SYSTEM.SOLV>
0

>  <SCORE.SYSTEM.norm>
0

>  <SCORE.heavy>
31

>  <SCORE.norm>
-0.694935

>  <RMSD>
0.838

$$$$
ligand
 OpenBabel11021811493D
libRbt.so/2013.1/901 2013/11/27
 31 33  0  0  0  0  0  0  0  0999 V2000
   -3.4313   14.3211    4.9548 C   0  0  2  0  0  0  0  0  0  0  0  0
   -3.9500   14.5477    6.2621 O   0  0  0  0  0  0  0  0  0  0  0  0
   -4.4356   12.6358   10.0294 C   0  0  2  0  0  0  0  0  0  0  0  0
   -4.7596   11.6330   10.9970 N   0  0  0  0  0  0  0  0  0  0  0  0
   -1.9701   10.4752   10.4132 C   0  0  2  0  0  0  0  0  0  0  0  0
   -3.1281   15.7468    4.3371 C   0  0  2  0  0  0  0  0  0  0  0  0
   -2.1669   16.4340    5.1933 N   0  0  0  0  0  0  0  0  0  0  0  0
   -5.7447   12.9740    9.2036 C   0  0  0  0  0  0  0  0  0  0  0  0
   -0.9270   10.7275   11.5477 C   0  0  2  0  0  0  0  0  0  0  0  0
   -1.4531   11.6975   12.4280 O   0  0  0  0  0  0  0  0  0  0  0  0
   -4.4615   16.5861    4.2091 C   0  0  0  0  0  0  0  0  0  0  0  0
   -5.3911   14.0759    8.1357 C   0  0  2  0  0  0  0  0  0  0  0  0
   -6.6036   14.3906    7.3608 N   0  0  0  0  0  0  0  0  0  0  0  0
    0.3937   11.2453   10.8612 C   0  0  1  0  0  0  0  0  0  0  0  0
    1.4320   11.5254   11.9074 N   0  0  0  0  0  0  0  0  0  0  0  0
   -5.7009   15.6886    3.7871 C   0  0  0  0  0  0  0  0  0  0  0  0
   -4.2431   13.5420    7.1699 C   0  0  2  0  0  0  0  0  0  0  0  0
    0.9337   10.0746    9.8632 C   0  0  1  0  0  0  0  0  0  0  0  0
    1.1832    8.8578   10.5463 O   0  0  0  0  0  0  0  0  0  0  0  0
   -5.6092   14.3326    3.7652 C   0  0  2  0  0  0  0  0  0  0  0  0
   -4.4069   13.6373    4.1155 O   0  0  0  0  0  0  0  0  0  0  0  0
   -2.9600   13.2048    8.0160 C   0  0  2  0  0  0  0  0  0  0  0  0
   -1.9282   12.7123    7.1343 O   0  0  0  0  0  0  0  0  0  0  0  0
   -0.1405    9.7720    8.7685 C   0  0  0  0  0  0  0  0  0  0  0  0
   -1.4490    9.4389    9.4353 O   0  0  0  0  0  0  0  0  0  0  0  0
   -6.7741   13.4258    3.3634 C   0  0  0  0  0  0  0  0  0  0  0  0
   -7.2223   12.7198    4.5446 O   0  0  0  0  0  0  0  0  0  0  0  0
   -3.3268   12.0875    9.0612 C   0  0  1  0  0  0  0  0  0  0  0  0
   -2.1781   11.7835    9.7883 O   0  0  0  0  0  0  0  0  0  0  0  0
    2.2360   10.4170    9.1000 C   0  0  0  0  0  0  0  0  0  0  0  0
    1.3251   12.8163   12.6177 C   0  0  0  0  0  0  0  0  0  0  0  0
  1  2  1  1  0  0  0
  1  6  1  0  0  0  0
  1 21  1  0  0  0  0
  3  4  1  1  0  0  0
  3  8  1  0  0  0  0
  3 28  1  0  0  0  0
  5  9  1  0  0  0  0
  5 25  1  0  0  0  0
  5 29  1  6  0  0  0
  6  7  1  1  0  0  0
  6 11  1  0  0  0  0
  8 12  1  0  0  0  0
  9 10  1  1  0  0  0
  9 14  1  0  0  0  0
 11 16  1  0  0  0  0
 12 13  1  6  0  0  0
 12 17  1  0  0  0  0
 14 15  1  1  0  0  0
 14 18  1  0  0  0  0
 15 31  1  0  0  0  0
 16 20  1  0  0  0  0
 17  2  1  6  0  0  0
 17 22  1  0  0  0  0
 18 19  1  1  0  0  0
 18 24  1  0  0  0  0
 18 30  1  0  0  0  0
 20 21  1  0  0  0  0
 20 26  1  6  0  0  0
 22 23  1  6  0  0  0
 22 28  1  0  0  0  0
 24 25  1  0  0  0  0
 26 27  1  0  0  0  0
 28 29  1  1  0  0  0
M  END
>  <CHROM.1>
-174.84131577,-157.80355860,-80.81258584,-152.80974208,-110.83284169,87.77404356
-2.78376197,12.66735760,8.03414676,-2.21193805,-0.11181291,2.05153244

>  <Name>
ligand

>  <RI>
0

>  <Rbt.Current_Directory>
/home/itssahil/PROJECTS/Mol_Feturizer/New_Systems/rnas/4GPX

>  <Rbt.Executable>
rbdock ($Id: //depot/dev/client3/rdock/2013.1/src/exe/rbdock.cxx#4 $)

>  <Rbt.Library>
libRbt.so (2013.1, Build901 2013/11/27)

>  <Rbt.Parameter_File>
/export/apps/rDock/src/rDock_2013.1_src/data/scripts/dock_solv.prm

>  <Rbt.Receptor>
prm/pocket_docking_5.prm

>  <SCORE>
-21.5677

>  <SCORE.INTER>
-16.981

>  <SCORE.INTER.CONST>
1

>  <SCORE.INTER.POLAR>
0

>  <SCORE.INTER.ROT>
6

>  <SCORE.INTER.SOLV>
19.4862

>  <SCORE.INTER.VDW>
-25.4161

>  <SCORE.INTER.norm>
-0.547775

>  <SCORE.INTRA>
-4.58672

>  <SCORE.INTRA.DIHEDRAL>
-10.0118

>  <SCORE.INTRA.DIHEDRAL.0>
20.6841

>  <SCORE.INTRA.POLAR>
0

>  <SCORE.INTRA.POLAR.0>
0

>  <SCORE.INTRA.REPUL>
0

>  <SCORE.INTRA.REPUL.0>
0

>  <SCORE.INTRA.SOLV>
0.549566

>  <SCORE.INTRA.SOLV.lig_0>
-64.6797

>  <SCORE.INTRA.VDW>
0.144397

>  <SCORE.INTRA.VDW.0>
-4.11825

>  <SCORE.INTRA.norm>
-0.147959

>  <SCORE.RESTR>
0

>  <SCORE.RESTR.CAVITY>
0

>  <SCORE.RESTR.norm>
0

>  <SCORE.SYSTEM>
0

>  <SCORE.SYSTEM.CONST>
0

>  <SCORE.SYSTEM.DIHEDRAL>
0

>  <SCORE.SYSTEM.SOLV>
0

>  <SCORE.SYSTEM.norm>
0

>  <SCORE.heavy>
31

>  <SCORE.norm>
-0.695734

>  <RMSD>
0.839

$$$$
ligand
 OpenBabel11021811493D
libRbt.so/2013.1/901 2013/11/27
 31 33  0  0  0  0  0  0  0  0999 V2000
   -3.5307   14.1783    4.9697 C   0  0  2  0  0  0  0  0  0  0  0  0
   -4.1037   14.4160    6.2521 O   0  0  0  0  0  0  0  0  0  0  0  0
   -4.4563   12.5729   10.0682 C   0  0  2  0  0  0  0  0  0  0  0  0
   -4.7415   11.5862   11.0642 N   0  0  0  0  0  0  0  0  0  0  0  0
   -1.9612   10.4403   10.4163 C   0  0  2  0  0  0  0  0  0  0  0  0
   -3.2119   15.5990    4.3485 C   0  0  2  0  0  0  0  0  0  0  0  0
   -2.2909   16.3026    5.2351 N   0  0  0  0  0  0  0  0  0  0  0  0
   -5.7931   12.8844    9.2770 C   0  0  0  0  0  0  0  0  0  0  0  0
   -0.9039   10.7275   11.5291 C   0  0  2  0  0  0  0  0  0  0  0  0
   -1.4307   11.7037   12.4020 O   0  0  0  0  0  0  0  0  0  0  0  0
   -4.5444   16.4275    4.1566 C   0  0  0  0  0  0  0  0  0  0  0  0
   -5.4823   13.9684    8.1780 C   0  0  2  0  0  0  0  0  0  0  0  0
   -6.7208   14.2583    7.4351 N   0  0  0  0  0  0  0  0  0  0  0  0
    0.3972   11.2541   10.8124 C   0  0  1  0  0  0  0  0  0  0  0  0
    1.4479   11.5676   11.8365 N   0  0  0  0  0  0  0  0  0  0  0  0
   -5.7597   15.5166    3.6949 C   0  0  0  0  0  0  0  0  0  0  0  0
   -4.3599   13.4255    7.1874 C   0  0  2  0  0  0  0  0  0  0  0  0
    0.9392   10.0755    9.8249 C   0  0  1  0  0  0  0  0  0  0  0  0
    1.2189    8.8742   10.5236 O   0  0  0  0  0  0  0  0  0  0  0  0
   -5.6584   14.1611    3.6924 C   0  0  2  0  0  0  0  0  0  0  0  0
   -4.4668   13.4783    4.0993 O   0  0  0  0  0  0  0  0  0  0  0  0
   -3.0484   13.1152    7.9997 C   0  0  2  0  0  0  0  0  0  0  0  0
   -2.0400   12.6143    7.0959 O   0  0  0  0  0  0  0  0  0  0  0  0
   -0.1478    9.7382    8.7532 C   0  0  0  0  0  0  0  0  0  0  0  0
   -1.4399    9.3960    9.4470 O   0  0  0  0  0  0  0  0  0  0  0  0
   -6.7999   13.2417    3.2541 C   0  0  0  0  0  0  0  0  0  0  0  0
   -7.8879   14.0703    2.7806 O   0  0  0  0  0  0  0  0  0  0  0  0
   -3.3730   12.0151    9.0767 C   0  0  1  0  0  0  0  0  0  0  0  0
   -2.1999   11.7346    9.7736 O   0  0  0  0  0  0  0  0  0  0  0  0
    2.2234   10.4252    9.0347 C   0  0  0  0  0  0  0  0  0  0  0  0
    1.3102   12.8508   12.5553 C   0  0  0  0  0  0  0  0  0  0  0  0
  1  2  1  1  0  0  0
  1  6  1  0  0  0  0
  1 21  1  0  0  0  0
  3  4  1  1  0  0  0
  3  8  1  0  0  0  0
  3 28  1  0  0  0  0
  5  9  1  0  0  0  0
  5 25  1  0  0  0  0
  5 29  1  6  0  0  0
  6  7  1  1  0  0  0
  6 11  1  0  0  0  0
  8 12  1  0  0  0  0
  9 10  1  1  0  0  0
  9 14  1  0  0  0  0
 11 16  1  0  0  0  0
 12 13  1  6  0  0  0
 12 17  1  0  0  0  0
 14 15  1  1  0  0  0
 14 18  1  0  0  0  0
 15 31  1  0  0  0  0
 16 20  1  0  0  0  0
 17  2  1  6  0  0  0
 17 22  1  0  0  0  0
 18 19  1  1  0  0  0
 18 24  1  0  0  0  0
 18 30  1  0  0  0  0
 20 21  1  0  0  0  0
 20 26  1  6  0  0  0
 22 23  1  6  0  0  0
 22 28  1  0  0  0  0
 24 25  1  0  0  0  0
 26 27  1  0  0  0  0
 28 29  1  1  0  0  0
M  END
>  <CHROM.1>
-171.17575818,-156.87492521,-79.09037005,-157.67407306,4.11163876,87.78371697
-2.84929205,12.64465738,7.95721888,-2.22597335,-0.17984276,1.97409780

>  <Name>
ligand

>  <RI>
0

>  <Rbt.Current_Directory>
/home/itssahil/PROJECTS/Mol_Feturizer/New_Systems/rnas/4GPX

>  <Rbt.Executable>
rbdock ($Id: //depot/dev/client3/rdock/2013.1/src/exe/rbdock.cxx#4 $)

>  <Rbt.Library>
libRbt.so (2013.1, Build901 2013/11/27)

>  <Rbt.Parameter_File>
/export/apps/rDock/src/rDock_2013.1_src/data/scripts/dock_solv.prm

>  <Rbt.Receptor>
prm/pocket_docking_4.prm

>  <SCORE>
-20.9039

>  <SCORE.INTER>
-16.8587

>  <SCORE.INTER.CONST>
1

>  <SCORE.INTER.POLAR>
0

>  <SCORE.INTER.ROT>
6

>  <SCORE.INTER.SOLV>
19.5836

>  <SCORE.INTER.VDW>
-25.367

>  <SCORE.INTER.norm>
-0.543829

>  <SCORE.INTRA>
-4.04517

>  <SCORE.INTRA.DIHEDRAL>
-10.6135

>  <SCORE.INTRA.DIHEDRAL.0>
20.6841

>  <SCORE.INTRA.POLAR>
0

>  <SCORE.INTRA.POLAR.0>
0

>  <SCORE.INTRA.REPUL>
0

>  <SCORE.INTRA.REPUL.0>
0

>  <SCORE.INTRA.SOLV>
-0.586819

>  <SCORE.INTRA.SOLV.lig_0>
-64.6797

>  <SCORE.INTRA.VDW>
1.555

>  <SCORE.INTRA.VDW.0>
-4.11825

>  <SCORE.INTRA.norm>
-0.130489

>  <SCORE.RESTR>
0

>  <SCORE.RESTR.CAVITY>
0

>  <SCORE.RESTR.norm>
0

>  <SCORE.SYSTEM>
0

>  <SCORE.SYSTEM.CONST>
0

>  <SCORE.SYSTEM.DIHEDRAL>
0

>  <SCORE.SYSTEM.SOLV>
0

>  <SCORE.SYSTEM.norm>
0

>  <SCORE.heavy>
31

>  <SCORE.norm>
-0.674318

>  <RMSD>
0.841

$$$$
ligand
 OpenBabel11021811493D
libRbt.so/2013.1/901 2013/11/27
 31 33  0  0  0  0  0  0  0  0999 V2000
   -3.5627   14.1319    5.0168 C   0  0  2  0  0  0  0  0  0  0  0  0
   -4.1591   14.3668    6.2889 O   0  0  0  0  0  0  0  0  0  0  0  0
   -4.4626   12.5370   10.1157 C   0  0  2  0  0  0  0  0  0  0  0  0
   -4.7334   11.5532   11.1185 N   0  0  0  0  0  0  0  0  0  0  0  0
   -1.9607   10.4170   10.4516 C   0  0  2  0  0  0  0  0  0  0  0  0
   -3.2329   15.5540    4.4045 C   0  0  2  0  0  0  0  0  0  0  0  0
   -2.3285   16.2558    5.3093 N   0  0  0  0  0  0  0  0  0  0  0  0
   -5.8093   12.8413    9.3385 C   0  0  0  0  0  0  0  0  0  0  0  0
   -0.8892   10.7150   11.5478 C   0  0  2  0  0  0  0  0  0  0  0  0
   -1.4044   11.7004   12.4173 O   0  0  0  0  0  0  0  0  0  0  0  0
   -4.5618   16.3827    4.1900 C   0  0  0  0  0  0  0  0  0  0  0  0
   -5.5144   13.9221    8.2320 C   0  0  2  0  0  0  0  0  0  0  0  0
   -6.7621   14.2052    7.5021 N   0  0  0  0  0  0  0  0  0  0  0  0
    0.4029   11.2335   10.8093 C   0  0  1  0  0  0  0  0  0  0  0  0
    1.4667   11.5567   11.8167 N   0  0  0  0  0  0  0  0  0  0  0  0
   -5.7683   15.4726    3.7043 C   0  0  0  0  0  0  0  0  0  0  0  0
   -4.4016   13.3790    7.2309 C   0  0  2  0  0  0  0  0  0  0  0  0
    0.9317   10.0444    9.8271 C   0  0  1  0  0  0  0  0  0  0  0  0
    1.2197    8.8502   10.5345 O   0  0  0  0  0  0  0  0  0  0  0  0
   -5.6667   14.1171    3.7008 C   0  0  2  0  0  0  0  0  0  0  0  0
   -4.4826   13.4336    4.1279 O   0  0  0  0  0  0  0  0  0  0  0  0
   -3.0799   13.0760    8.0294 C   0  0  2  0  0  0  0  0  0  0  0  0
   -2.0802   12.5749    7.1162 O   0  0  0  0  0  0  0  0  0  0  0  0
   -0.1690    9.6968    8.7728 C   0  0  0  0  0  0  0  0  0  0  0  0
   -1.4523    9.3625    9.4865 O   0  0  0  0  0  0  0  0  0  0  0  0
   -6.7999   13.1985    3.2397 C   0  0  0  0  0  0  0  0  0  0  0  0
   -7.8801   14.0280    2.7504 O   0  0  0  0  0  0  0  0  0  0  0  0
   -3.3888   11.9790    9.1141 C   0  0  1  0  0  0  0  0  0  0  0  0
   -2.2070   11.7048    9.7987 O   0  0  0  0  0  0  0  0  0  0  0  0
    2.2058   10.3853    9.0171 C   0  0  0  0  0  0  0  0  0  0  0  0
    1.3195   12.8309   12.5495 C   0  0  0  0  0  0  0  0  0  0  0  0
  1  2  1  1  0  0  0
  1  6  1  0  0  0  0
  1 21  1  0  0  0  0
  3  4  1  1  0  0  0
  3  8  1  0  0  0  0
  3 28  1  0  0  0  0
  5  9  1  0  0  0  0
  5 25  1  0  0  0  0
  5 29  1  6  0  0  0
  6  7  1  1  0  0  0
  6 11  1  0  0  0  0
  8 12  1  0  0  0  0
  9 10  1  1  0  0  0
  9 14  1  0  0  0  0
 11 16  1  0  0  0  0
 12 13  1  6  0  0  0
 12 17  1  0  0  0  0
 14 15  1  1  0  0  0
 14 18  1  0  0  0  0
 15 31  1  0  0  0  0
 16 20  1  0  0  0  0
 17  2  1  6  0  0  0
 17 22  1  0  0  0  0
 18 19  1  1  0  0  0
 18 24  1  0  0  0  0
 18 30  1  0  0  0  0
 20 21  1  0  0  0  0
 20 26  1  6  0  0  0
 22 23  1  6  0  0  0
 22 28  1  0  0  0  0
 24 25  1  0  0  0  0
 26 27  1  0  0  0  0
 28 29  1  1  0  0  0
M  END
>  <CHROM.1>
-169.48465701,-156.86847673,-77.52917331,-159.65715154,4.00764043,87.34313776
-2.86194089,12.60884683,7.98199698,-2.23033393,-0.18945203,1.96334056

>  <Name>
ligand

>  <RI>
0

>  <Rbt.Current_Directory>
/home/itssahil/PROJECTS/Mol_Feturizer/New_Systems/rnas/4GPX

>  <Rbt.Executable>
rbdock ($Id: //depot/dev/client3/rdock/2013.1/src/exe/rbdock.cxx#4 $)

>  <Rbt.Library>
libRbt.so (2013.1, Build901 2013/11/27)

>  <Rbt.Parameter_File>
/export/apps/rDock/src/rDock_2013.1_src/data/scripts/dock_solv.prm

>  <Rbt.Receptor>
prm/pocket_docking_5.prm

>  <SCORE>
-20.8791

>  <SCORE.INTER>
-16.7558

>  <SCORE.INTER.CONST>
1

>  <SCORE.INTER.POLAR>
0

>  <SCORE.INTER.ROT>
6

>  <SCORE.INTER.SOLV>
19.6357

>  <SCORE.INTER.VDW>
-25.3158

>  <SCORE.INTER.norm>
-0.540509

>  <SCORE.INTRA>
-4.12326

>  <SCORE.INTRA.DIHEDRAL>
-10.9171

>  <SCORE.INTRA.DIHEDRAL.0>
20.6841

>  <SCORE.INTRA.POLAR>
0

>  <SCORE.INTRA.POLAR.0>
0

>  <SCORE.INTRA.REPUL>
0

>  <SCORE.INTRA.REPUL.0>
0

>  <SCORE.INTRA.SOLV>
-0.709432

>  <SCORE.INTRA.SOLV.lig_0>
-64.6797

>  <SCORE.INTRA.VDW>
1.68999

>  <SCORE.INTRA.VDW.0>
-4.11825

>  <SCORE.INTRA.norm>
-0.133008

>  <SCORE.RESTR>
0

>  <SCORE.RESTR.CAVITY>
0

>  <SCORE.RESTR.norm>
0

>  <SCORE.SYSTEM>
0

>  <SCORE.SYSTEM.CONST>
0

>  <SCORE.SYSTEM.DIHEDRAL>
0

>  <SCORE.SYSTEM.SOLV>
0

>  <SCORE.SYSTEM.norm>
0

>  <SCORE.heavy>
31

>  <SCORE.norm>
-0.673518

>  <RMSD>
0.842

$$$$
ligand
 OpenBabel11021811493D
libRbt.so/2013.1/901 2013/11/27
 31 33  0  0  0  0  0  0  0  0999 V2000
   -3.5334   14.1873    4.8273 C   0  0  2  0  0  0  0  0  0  0  0  0
   -3.8858   14.4482    6.1827 O   0  0  0  0  0  0  0  0  0  0  0  0
   -4.3852   12.6280    9.9934 C   0  0  2  0  0  0  0  0  0  0  0  0
   -4.7155   11.6499   10.9839 N   0  0  0  0  0  0  0  0  0  0  0  0
   -1.9212   10.4554   10.4104 C   0  0  2  0  0  0  0  0  0  0  0  0
   -3.1424   15.5814    4.1872 C   0  0  2  0  0  0  0  0  0  0  0  0
   -2.0285   16.1476    4.9408 N   0  0  0  0  0  0  0  0  0  0  0  0
   -5.6916   12.9539    9.1586 C   0  0  0  0  0  0  0  0  0  0  0  0
   -0.8698   10.7171   11.5350 C   0  0  2  0  0  0  0  0  0  0  0  0
   -1.3884   11.6961   12.4098 O   0  0  0  0  0  0  0  0  0  0  0  0
   -4.3826   16.5615    4.2031 C   0  0  0  0  0  0  0  0  0  0  0  0
   -5.3311   14.0284    8.0654 C   0  0  2  0  0  0  0  0  0  0  0  0
   -6.5412   14.3315    7.2821 N   0  0  0  0  0  0  0  0  0  0  0  0
    0.4466   11.2267   10.8342 C   0  0  1  0  0  0  0  0  0  0  0  0
    1.4927   11.5154   11.8702 N   0  0  0  0  0  0  0  0  0  0  0  0
   -5.7494   15.8095    3.9097 C   0  0  0  0  0  0  0  0  0  0  0  0
   -4.1852   13.4657    7.1136 C   0  0  2  0  0  0  0  0  0  0  0  0
    0.9781   10.0458    9.8435 C   0  0  1  0  0  0  0  0  0  0  0  0
    1.2310    8.8353   10.5364 O   0  0  0  0  0  0  0  0  0  0  0  0
   -5.8087   14.4520    3.8727 C   0  0  2  0  0  0  0  0  0  0  0  0
   -4.6594   13.6259    4.0921 O   0  0  0  0  0  0  0  0  0  0  0  0
   -2.9047   13.1415    7.9687 C   0  0  2  0  0  0  0  0  0  0  0  0
   -1.8749   12.6227    7.0998 O   0  0  0  0  0  0  0  0  0  0  0  0
   -0.1043    9.7342    8.7594 C   0  0  0  0  0  0  0  0  0  0  0  0
   -1.4084    9.4091    9.4387 O   0  0  0  0  0  0  0  0  0  0  0  0
   -7.1007   13.6825    3.5915 C   0  0  0  0  0  0  0  0  0  0  0  0
   -6.8394   12.7398    2.5251 O   0  0  0  0  0  0  0  0  0  0  0  0
   -3.2785   12.0510    9.0394 C   0  0  1  0  0  0  0  0  0  0  0  0
   -2.1321   11.7578    9.7746 O   0  0  0  0  0  0  0  0  0  0  0  0
    2.2753   10.3794    9.0678 C   0  0  0  0  0  0  0  0  0  0  0  0
    1.3906   12.8117   12.5711 C   0  0  0  0  0  0  0  0  0  0  0  0
  1  2  1  1  0  0  0
  1  6  1  0  0  0  0
  1 21  1  0  0  0  0
  3  4  1  1  0  0  0
  3  8  1  0  0  0  0
  3 28  1  0  0  0  0
  5  9  1  0  0  0  0
  5 25  1  0  0  0  0
  5 29  1  6  0  0  0
  6  7  1  1  0  0  0
  6 11  1  0  0  0  0
  8 12  1  0  0  0  0
  9 10  1  1  0  0  0
  9 14  1  0  0  0  0
 11 16  1  0  0  0  0
 12 13  1  6  0  0  0
 12 17  1  0  0  0  0
 14 15  1  1  0  0  0
 14 18  1  0  0  0  0
 15 31  1  0  0  0  0
 16 20  1  0  0  0  0
 17  2  1  6  0  0  0
 17 22  1  0  0  0  0
 18 19  1  1  0  0  0
 18 24  1  0  0  0  0
 18 30  1  0  0  0  0
 20 21  1  0  0  0  0
 20 26  1  6  0  0  0
 22 23  1  6  0  0  0
 22 28  1  0  0  0  0
 24 25  1  0  0  0  0
 26 27  1  0  0  0  0
 28 29  1  1  0  0  0
M  END
>  <CHROM.1>
-174.54786330,-158.58980600,-80.68067728,-144.30012995,128.25331070,88.88362280
-2.75613621,12.64066204,7.93494940,-2.21395089,-0.18032163,1.97562171

>  <Name>
ligand

>  <RI>
0

>  <Rbt.Current_Directory>
/home/itssahil/PROJECTS/Mol_Feturizer/New_Systems/rnas/4GPX

>  <Rbt.Executable>
rbdock ($Id: //depot/dev/client3/rdock/2013.1/src/exe/rbdock.cxx#4 $)

>  <Rbt.Library>
libRbt.so (2013.1, Build901 2013/11/27)

>  <Rbt.Parameter_File>
/export/apps/rDock/src/rDock_2013.1_src/data/scripts/dock_solv.prm

>  <Rbt.Receptor>
prm/pocket_docking_3.prm

>  <SCORE>
-21.0161

>  <SCORE.INTER>
-17.2591

>  <SCORE.INTER.CONST>
1

>  <SCORE.INTER.POLAR>
0

>  <SCORE.INTER.ROT>
6

>  <SCORE.INTER.SOLV>
20.3609

>  <SCORE.INTER.VDW>
-25.893

>  <SCORE.INTER.norm>
-0.556745

>  <SCORE.INTRA>
-3.757

>  <SCORE.INTRA.DIHEDRAL>
-8.36215

>  <SCORE.INTRA.DIHEDRAL.0>
20.6841

>  <SCORE.INTRA.POLAR>
0

>  <SCORE.INTRA.POLAR.0>
0

>  <SCORE.INTRA.REPUL>
0

>  <SCORE.INTRA.REPUL.0>
0

>  <SCORE.INTRA.SOLV>
0.349304

>  <SCORE.INTRA.SOLV.lig_0>
-64.6797

>  <SCORE.INTRA.VDW>
0.249427

>  <SCORE.INTRA.VDW.0>
-4.11825

>  <SCORE.INTRA.norm>
-0.121193

>  <SCORE.RESTR>
0

>  <SCORE.RESTR.CAVITY>
0

>  <SCORE.RESTR.norm>
0

>  <SCORE.SYSTEM>
0

>  <SCORE.SYSTEM.CONST>
0

>  <SCORE.SYSTEM.DIHEDRAL>
0

>  <SCORE.SYSTEM.SOLV>
0

>  <SCORE.SYSTEM.norm>
0

>  <SCORE.heavy>
31

>  <SCORE.norm>
-0.677938

>  <RMSD>
0.845

$$$$
ligand
 OpenBabel11021811493D
libRbt.so/2013.1/901 2013/11/27
 31 33  0  0  0  0  0  0  0  0999 V2000
   -3.4615   14.3602    4.9594 C   0  0  2  0  0  0  0  0  0  0  0  0
   -3.9807   14.5776    6.2680 O   0  0  0  0  0  0  0  0  0  0  0  0
   -4.4378   12.6482   10.0300 C   0  0  2  0  0  0  0  0  0  0  0  0
   -4.7502   11.6392   10.9950 N   0  0  0  0  0  0  0  0  0  0  0  0
   -1.9685   10.5188   10.4274 C   0  0  2  0  0  0  0  0  0  0  0  0
   -3.1618   15.7903    4.3504 C   0  0  2  0  0  0  0  0  0  0  0  0
   -2.2023   16.4747    5.2108 N   0  0  0  0  0  0  0  0  0  0  0  0
   -5.7524   12.9784    9.2097 C   0  0  0  0  0  0  0  0  0  0  0  0
   -0.9155   10.7875   11.5489 C   0  0  2  0  0  0  0  0  0  0  0  0
   -1.4296   11.7775   12.4138 O   0  0  0  0  0  0  0  0  0  0  0  0
   -4.4972   16.6272    4.2275 C   0  0  0  0  0  0  0  0  0  0  0  0
   -5.4117   14.0869    8.1446 C   0  0  2  0  0  0  0  0  0  0  0  0
   -6.6293   14.3943    7.3748 N   0  0  0  0  0  0  0  0  0  0  0  0
    0.4028   11.2843   10.8425 C   0  0  1  0  0  0  0  0  0  0  0  0
    1.4506   11.5791   11.8751 N   0  0  0  0  0  0  0  0  0  0  0  0
   -5.7344   15.7292    3.8000 C   0  0  0  0  0  0  0  0  0  0  0  0
   -4.2624   13.5661    7.1732 C   0  0  2  0  0  0  0  0  0  0  0  0
    0.9288   10.0911    9.8637 C   0  0  1  0  0  0  0  0  0  0  0  0
    1.1768    8.8866   10.5687 O   0  0  0  0  0  0  0  0  0  0  0  0
   -5.6395   14.3736    3.7699 C   0  0  2  0  0  0  0  0  0  0  0  0
   -4.4355   13.6792    4.1159 O   0  0  0  0  0  0  0  0  0  0  0  0
   -2.9737   13.2367    8.0139 C   0  0  2  0  0  0  0  0  0  0  0  0
   -1.9408   12.7560    7.1270 O   0  0  0  0  0  0  0  0  0  0  0  0
   -0.1553    9.7731    8.7832 C   0  0  0  0  0  0  0  0  0  0  0  0
   -1.4605    9.4605    9.4663 O   0  0  0  0  0  0  0  0  0  0  0  0
   -6.8022   13.4664    3.3626 C   0  0  0  0  0  0  0  0  0  0  0  0
   -7.2287   12.7296    4.5329 O   0  0  0  0  0  0  0  0  0  0  0  0
   -3.3277   12.1126    9.0562 C   0  0  1  0  0  0  0  0  0  0  0  0
   -2.1741   11.8156    9.7784 O   0  0  0  0  0  0  0  0  0  0  0  0
    2.2271   10.4112    9.0841 C   0  0  0  0  0  0  0  0  0  0  0  0
    1.3705   12.8942   12.5431 C   0  0  0  0  0  0  0  0  0  0  0  0
  1  2  1  1  0  0  0
  1  6  1  0  0  0  0
  1 21  1  0  0  0  0
  3  4  1  1  0  0  0
  3  8  1  0  0  0  0
  3 28  1  0  0  0  0
  5  9  1  0  0  0  0
  5 25  1  0  0  0  0
  5 29  1  6  0  0  0
  6  7  1  1  0  0  0
  6 11  1  0  0  0  0
  8 12  1  0  0  0  0
  9 10  1  1  0  0  0
  9 14  1  0  0  0  0
 11 16  1  0  0  0  0
 12 13  1  6  0  0  0
 12 17  1  0  0  0  0
 14 15  1  1  0  0  0
 14 18  1  0  0  0  0
 15 31  1  0  0  0  0
 16 20  1  0  0  0  0
 17  2  1  6  0  0  0
 17 22  1  0  0  0  0
 18 19  1  1  0  0  0
 18 24  1  0  0  0  0
 18 30  1  0  0  0  0
 20 21  1  0  0  0  0
 20 26  1  6  0  0  0
 22 23  1  6  0  0  0
 22 28  1  0  0  0  0
 24 25  1  0  0  0  0
 26 27  1  0  0  0  0
 28 29  1  1  0  0  0
M  END
>  <CHROM.1>
-174.36004862,-157.68086488,-81.88737617,-152.96549613,-112.11659648,86.14057145
-2.79382650,12.69914386,8.03396941,-2.21539249,-0.09975388,2.06111431

>  <Name>
ligand

>  <RI>
0

>  <Rbt.Current_Directory>
/home/itssahil/PROJECTS/Mol_Feturizer/New_Systems/rnas/4GPX

>  <Rbt.Executable>
rbdock ($Id: //depot/dev/client3/rdock/2013.1/src/exe/rbdock.cxx#4 $)

>  <Rbt.Library>
libRbt.so (2013.1, Build901 2013/11/27)

>  <Rbt.Parameter_File>
/export/apps/rDock/src/rDock_2013.1_src/data/scripts/dock_solv.prm

>  <Rbt.Receptor>
prm/pocket_docking_3.prm

>  <SCORE>
-21.5574

>  <SCORE.INTER>
-16.8181

>  <SCORE.INTER.CONST>
1

>  <SCORE.INTER.POLAR>
0

>  <SCORE.INTER.ROT>
6

>  <SCORE.INTER.SOLV>
19.4321

>  <SCORE.INTER.VDW>
-25.2894

>  <SCORE.INTER.norm>
-0.542519

>  <SCORE.INTRA>
-4.73925

>  <SCORE.INTRA.DIHEDRAL>
-10.2953

>  <SCORE.INTRA.DIHEDRAL.0>
20.6841

>  <SCORE.INTRA.POLAR>
0

>  <SCORE.INTRA.POLAR.0>
0

>  <SCORE.INTRA.REPUL>
0

>  <SCORE.INTRA.REPUL.0>
0

>  <SCORE.INTRA.SOLV>
0.553178

>  <SCORE.INTRA.SOLV.lig_0>
-64.6797

>  <SCORE.INTRA.VDW>
0.131787

>  <SCORE.INTRA.VDW.0>
-4.11825

>  <SCORE.INTRA.norm>
-0.152879

>  <SCORE.RESTR>
0

>  <SCORE.RESTR.CAVITY>
0

>  <SCORE.RESTR.norm>
0

>  <SCORE.SYSTEM>
0

>  <SCORE.SYSTEM.CONST>
0

>  <SCORE.SYSTEM.DIHEDRAL>
0

>  <SCORE.SYSTEM.SOLV>
0

>  <SCORE.SYSTEM.norm>
0

>  <SCORE.heavy>
31

>  <SCORE.norm>
-0.695398

>  <RMSD>
0.845

$$$$
ligand
 OpenBabel11021811493D
libRbt.so/2013.1/901 2013/11/27
 31 33  0  0  0  0  0  0  0  0999 V2000
   -3.5517   14.1980    5.0189 C   0  0  2  0  0  0  0  0  0  0  0  0
   -4.1557   14.4258    6.2888 O   0  0  0  0  0  0  0  0  0  0  0  0
   -4.4606   12.5647   10.1002 C   0  0  2  0  0  0  0  0  0  0  0  0
   -4.7382   11.5752   11.0956 N   0  0  0  0  0  0  0  0  0  0  0  0
   -1.9800   10.4057   10.3923 C   0  0  2  0  0  0  0  0  0  0  0  0
   -3.2551   15.6241    4.3989 C   0  0  2  0  0  0  0  0  0  0  0  0
   -2.3693   16.3527    5.3010 N   0  0  0  0  0  0  0  0  0  0  0  0
   -5.8076   12.8935    9.3340 C   0  0  0  0  0  0  0  0  0  0  0  0
   -0.9295   10.6830   11.5140 C   0  0  2  0  0  0  0  0  0  0  0  0
   -1.4632   11.6488   12.3943 O   0  0  0  0  0  0  0  0  0  0  0  0
   -4.6032   16.4193    4.1776 C   0  0  0  0  0  0  0  0  0  0  0  0
   -5.5053   13.9806    8.2357 C   0  0  2  0  0  0  0  0  0  0  0  0
   -6.7535   14.2866    7.5159 N   0  0  0  0  0  0  0  0  0  0  0  0
    0.3745   11.2199   10.8103 C   0  0  1  0  0  0  0  0  0  0  0  0
    1.4188   11.5244   11.8435 N   0  0  0  0  0  0  0  0  0  0  0  0
   -5.7866   15.4776    3.6952 C   0  0  0  0  0  0  0  0  0  0  0  0
   -4.4054   13.4325    7.2230 C   0  0  2  0  0  0  0  0  0  0  0  0
    0.9243   10.0529    9.8132 C   0  0  1  0  0  0  0  0  0  0  0  0
    1.2025    8.8448   10.5005 O   0  0  0  0  0  0  0  0  0  0  0  0
   -5.6524   14.1249    3.6998 C   0  0  2  0  0  0  0  0  0  0  0  0
   -4.4530   13.4727    4.1327 O   0  0  0  0  0  0  0  0  0  0  0  0
   -3.0832   13.1051    8.0108 C   0  0  2  0  0  0  0  0  0  0  0  0
   -2.0954   12.5996    7.0871 O   0  0  0  0  0  0  0  0  0  0  0  0
   -0.1561    9.7250    8.7319 C   0  0  0  0  0  0  0  0  0  0  0  0
   -1.4513    9.3729    9.4148 O   0  0  0  0  0  0  0  0  0  0  0  0
   -6.7624   13.1767    3.2423 C   0  0  0  0  0  0  0  0  0  0  0  0
   -7.8585   13.9769    2.7397 O   0  0  0  0  0  0  0  0  0  0  0  0
   -3.4000   12.0021    9.0872 C   0  0  1  0  0  0  0  0  0  0  0  0
   -2.2178   11.7064    9.7622 O   0  0  0  0  0  0  0  0  0  0  0  0
    2.2121   10.4136    9.0339 C   0  0  0  0  0  0  0  0  0  0  0  0
    1.3088   12.8263   12.5327 C   0  0  0  0  0  0  0  0  0  0  0  0
  1  2  1  1  0  0  0
  1  6  1  0  0  0  0
  1 21  1  0  0  0  0
  3  4  1  1  0  0  0
  3  8  1  0  0  0  0
  3 28  1  0  0  0  0
  5  9  1  0  0  0  0
  5 25  1  0  0  0  0
  5 29  1  6  0  0  0
  6  7  1  1  0  0  0
  6 11  1  0  0  0  0
  8 12  1  0  0  0  0
  9 10  1  1  0  0  0
  9 14  1  0  0  0  0
 11 16  1  0  0  0  0
 12 13  1  6  0  0  0
 12 17  1  0  0  0  0
 14 15  1  1  0  0  0
 14 18  1  0  0  0  0
 15 31  1  0  0  0  0
 16 20  1  0  0  0  0
 17  2  1  6  0  0  0
 17 22  1  0  0  0  0
 18 19  1  1  0  0  0
 18 24  1  0  0  0  0
 18 30  1  0  0  0  0
 20 21  1  0  0  0  0
 20 26  1  6  0  0  0
 22 23  1  6  0  0  0
 22 28  1  0  0  0  0
 24 25  1  0  0  0  0
 26 27  1  0  0  0  0
 28 29  1  1  0  0  0
M  END
>  <CHROM.1>
-171.12071900,-155.41811957,-81.72649228,-160.63323746,4.31677974,87.85275351
-2.86964801,12.62767762,7.96777269,-2.22920537,-0.19919947,1.96242581

>  <Name>
ligand

>  <RI>
0

>  <Rbt.Current_Directory>
/home/itssahil/PROJECTS/Mol_Feturizer/New_Systems/rnas/4GPX

>  <Rbt.Executable>
rbdock ($Id: //depot/dev/client3/rdock/2013.1/src/exe/rbdock.cxx#4 $)

>  <Rbt.Library>
libRbt.so (2013.1, Build901 2013/11/27)

>  <Rbt.Parameter_File>
/export/apps/rDock/src/rDock_2013.1_src/data/scripts/dock_solv.prm

>  <Rbt.Receptor>
prm/pocket_docking_3.prm

>  <SCORE>
-20.895

>  <SCORE.INTER>
-16.6195

>  <SCORE.INTER.CONST>
1

>  <SCORE.INTER.POLAR>
0

>  <SCORE.INTER.ROT>
6

>  <SCORE.INTER.SOLV>
19.7204

>  <SCORE.INTER.VDW>
-25.2531

>  <SCORE.INTER.norm>
-0.536112

>  <SCORE.INTRA>
-4.27549

>  <SCORE.INTRA.DIHEDRAL>
-10.7551

>  <SCORE.INTRA.DIHEDRAL.0>
20.6841

>  <SCORE.INTRA.POLAR>
0

>  <SCORE.INTRA.POLAR.0>
0

>  <SCORE.INTRA.REPUL>
0

>  <SCORE.INTRA.REPUL.0>
0

>  <SCORE.INTRA.SOLV>
-0.78631

>  <SCORE.INTRA.SOLV.lig_0>
-64.6797

>  <SCORE.INTRA.VDW>
1.4952

>  <SCORE.INTRA.VDW.0>
-4.11825

>  <SCORE.INTRA.norm>
-0.137919

>  <SCORE.RESTR>
0

>  <SCORE.RESTR.CAVITY>
0

>  <SCORE.RESTR.norm>
0

>  <SCORE.SYSTEM>
0

>  <SCORE.SYSTEM.CONST>
0

>  <SCORE.SYSTEM.DIHEDRAL>
0

>  <SCORE.SYSTEM.SOLV>
0

>  <SCORE.SYSTEM.norm>
0

>  <SCORE.heavy>
31

>  <SCORE.norm>
-0.674031

>  <RMSD>
0.846

$$$$
ligand
 OpenBabel11021811493D
libRbt.so/2013.1/901 2013/11/27
 31 33  0  0  0  0  0  0  0  0999 V2000
   -3.5425   14.1883    4.9666 C   0  0  2  0  0  0  0  0  0  0  0  0
   -4.0940   14.4358    6.2565 O   0  0  0  0  0  0  0  0  0  0  0  0
   -4.4492   12.6021   10.0769 C   0  0  2  0  0  0  0  0  0  0  0  0
   -4.7408   11.6201   11.0757 N   0  0  0  0  0  0  0  0  0  0  0  0
   -1.9777   10.4421   10.4174 C   0  0  2  0  0  0  0  0  0  0  0  0
   -3.2568   15.6045    4.3195 C   0  0  2  0  0  0  0  0  0  0  0  0
   -2.3294   16.3339    5.1781 N   0  0  0  0  0  0  0  0  0  0  0  0
   -5.7861   12.9279    9.2918 C   0  0  0  0  0  0  0  0  0  0  0  0
   -0.9409   10.7270   11.5499 C   0  0  2  0  0  0  0  0  0  0  0  0
   -1.4833   11.7020   12.4146 O   0  0  0  0  0  0  0  0  0  0  0  0
   -4.6049   16.4107    4.1422 C   0  0  0  0  0  0  0  0  0  0  0  0
   -5.4683   14.0067    8.1897 C   0  0  2  0  0  0  0  0  0  0  0  0
   -6.7069   14.3098    7.4524 N   0  0  0  0  0  0  0  0  0  0  0  0
    0.3733   11.2542   10.8582 C   0  0  1  0  0  0  0  0  0  0  0  0
    1.4052   11.5655   11.9020 N   0  0  0  0  0  0  0  0  0  0  0  0
   -5.8152   15.4758    3.7171 C   0  0  0  0  0  0  0  0  0  0  0  0
   -4.3570   13.4496    7.1945 C   0  0  2  0  0  0  0  0  0  0  0  0
    0.9330   10.0769    9.8788 C   0  0  1  0  0  0  0  0  0  0  0  0
    1.1992    8.8744   10.5805 O   0  0  0  0  0  0  0  0  0  0  0  0
   -5.6939   14.1220    3.7315 C   0  0  2  0  0  0  0  0  0  0  0  0
   -4.4847   13.4625    4.1245 O   0  0  0  0  0  0  0  0  0  0  0  0
   -3.0452   13.1254    8.0008 C   0  0  2  0  0  0  0  0  0  0  0  0
   -2.0470   12.6117    7.0929 O   0  0  0  0  0  0  0  0  0  0  0  0
   -0.1343    9.7419    8.7867 C   0  0  0  0  0  0  0  0  0  0  0  0
   -1.4391    9.3992    9.4560 O   0  0  0  0  0  0  0  0  0  0  0  0
   -6.8300   13.1800    3.3284 C   0  0  0  0  0  0  0  0  0  0  0  0
   -7.9322   13.9850    2.8475 O   0  0  0  0  0  0  0  0  0  0  0  0
   -3.3772   12.0306    9.0810 C   0  0  1  0  0  0  0  0  0  0  0  0
   -2.2039   11.7376    9.7725 O   0  0  0  0  0  0  0  0  0  0  0  0
    2.2315   10.4274    9.1130 C   0  0  0  0  0  0  0  0  0  0  0  0
    1.2972   12.8792   12.5688 C   0  0  0  0  0  0  0  0  0  0  0  0
  1  2  1  1  0  0  0
  1  6  1  0  0  0  0
  1 21  1  0  0  0  0
  3  4  1  1  0  0  0
  3  8  1  0  0  0  0
  3 28  1  0  0  0  0
  5  9  1  0  0  0  0
  5 25  1  0  0  0  0
  5 29  1  6  0  0  0
  6  7  1  1  0  0  0
  6 11  1  0  0  0  0
  8 12  1  0  0  0  0
  9 10  1  1  0  0  0
  9 14  1  0  0  0  0
 11 16  1  0  0  0  0
 12 13  1  6  0  0  0
 12 17  1  0  0  0  0
 14 15  1  1  0  0  0
 14 18  1  0  0  0  0
 15 31  1  0  0  0  0
 16 20  1  0  0  0  0
 17  2  1  6  0  0  0
 17 22  1  0  0  0  0
 18 19  1  1  0  0  0
 18 24  1  0  0  0  0
 18 30  1  0  0  0  0
 20 21  1  0  0  0  0
 20 26  1  6  0  0  0
 22 23  1  6  0  0  0
 22 28  1  0  0  0  0
 24 25  1  0  0  0  0
 26 27  1  0  0  0  0
 28 29  1  1  0  0  0
M  END
>  <CHROM.1>
-173.32692457,-155.34892382,-82.29125562,-157.01816717,4.87934947,87.70467221
-2.86503200,12.64703057,7.97659316,-2.22727910,-0.18160919,1.97009310

>  <Name>
ligand

>  <RI>
0

>  <Rbt.Current_Directory>
/home/itssahil/PROJECTS/Mol_Feturizer/New_Systems/rnas/4GPX

>  <Rbt.Executable>
rbdock ($Id: //depot/dev/client3/rdock/2013.1/src/exe/rbdock.cxx#4 $)

>  <Rbt.Library>
libRbt.so (2013.1, Build901 2013/11/27)

>  <Rbt.Parameter_File>
/export/apps/rDock/src/rDock_2013.1_src/data/scripts/dock_solv.prm

>  <Rbt.Receptor>
prm/pocket_docking_4.prm

>  <SCORE>
-20.8897

>  <SCORE.INTER>
-16.8616

>  <SCORE.INTER.CONST>
1

>  <SCORE.INTER.POLAR>
0

>  <SCORE.INTER.ROT>
6

>  <SCORE.INTER.SOLV>
19.6626

>  <SCORE.INTER.VDW>
-25.3953

>  <SCORE.INTER.norm>
-0.543923

>  <SCORE.INTRA>
-4.02811

>  <SCORE.INTRA.DIHEDRAL>
-10.303

>  <SCORE.INTRA.DIHEDRAL.0>
20.6841

>  <SCORE.INTRA.POLAR>
0

>  <SCORE.INTRA.POLAR.0>
0

>  <SCORE.INTRA.REPUL>
0

>  <SCORE.INTRA.REPUL.0>
0

>  <SCORE.INTRA.SOLV>
-0.529781

>  <SCORE.INTRA.SOLV.lig_0>
-64.6797

>  <SCORE.INTRA.VDW>
1.3883

>  <SCORE.INTRA.VDW.0>
-4.11825

>  <SCORE.INTRA.norm>
-0.129939

>  <SCORE.RESTR>
0

>  <SCORE.RESTR.CAVITY>
0

>  <SCORE.RESTR.norm>
0

>  <SCORE.SYSTEM>
0

>  <SCORE.SYSTEM.CONST>
0

>  <SCORE.SYSTEM.DIHEDRAL>
0

>  <SCORE.SYSTEM.SOLV>
0

>  <SCORE.SYSTEM.norm>
0

>  <SCORE.heavy>
31

>  <SCORE.norm>
-0.673862

>  <RMSD>
0.847

$$$$
ligand
 OpenBabel11021811493D
libRbt.so/2013.1/901 2013/11/27
 31 33  0  0  0  0  0  0  0  0999 V2000
   -3.5330   14.2061    4.9257 C   0  0  2  0  0  0  0  0  0  0  0  0
   -4.0953   14.4352    6.2143 O   0  0  0  0  0  0  0  0  0  0  0  0
   -4.4925   12.5787   10.0196 C   0  0  2  0  0  0  0  0  0  0  0  0
   -4.7776   11.5843   11.0078 N   0  0  0  0  0  0  0  0  0  0  0  0
   -1.9691   10.5125   10.4444 C   0  0  2  0  0  0  0  0  0  0  0  0
   -3.2531   15.6315    4.2964 C   0  0  2  0  0  0  0  0  0  0  0  0
   -2.3371   16.3579    5.1696 N   0  0  0  0  0  0  0  0  0  0  0  0
   -5.8176   12.8607    9.1984 C   0  0  0  0  0  0  0  0  0  0  0  0
   -0.9039   10.8223   11.5434 C   0  0  2  0  0  0  0  0  0  0  0  0
   -1.4239   11.8175   12.3989 O   0  0  0  0  0  0  0  0  0  0  0  0
   -4.6058   16.4298    4.1186 C   0  0  0  0  0  0  0  0  0  0  0  0
   -5.5069   13.9531    8.1078 C   0  0  2  0  0  0  0  0  0  0  0  0
   -6.7344   14.2156    7.3371 N   0  0  0  0  0  0  0  0  0  0  0  0
    0.3926   11.3323   10.8067 C   0  0  1  0  0  0  0  0  0  0  0  0
    1.4507   11.6665   11.8166 N   0  0  0  0  0  0  0  0  0  0  0  0
   -5.8063   15.4910    3.6746 C   0  0  0  0  0  0  0  0  0  0  0  0
   -4.3500   13.4376    7.1426 C   0  0  2  0  0  0  0  0  0  0  0  0
    0.9268   10.1322    9.8408 C   0  0  1  0  0  0  0  0  0  0  0  0
    1.2103    8.9459   10.5631 O   0  0  0  0  0  0  0  0  0  0  0  0
   -5.6752   14.1380    3.6748 C   0  0  2  0  0  0  0  0  0  0  0  0
   -4.4640   13.4829    4.0689 O   0  0  0  0  0  0  0  0  0  0  0  0
   -3.0505   13.1564    7.9843 C   0  0  2  0  0  0  0  0  0  0  0  0
   -2.0105   12.6801    7.1034 O   0  0  0  0  0  0  0  0  0  0  0  0
   -0.1679    9.7732    8.7841 C   0  0  0  0  0  0  0  0  0  0  0  0
   -1.4554    9.4472    9.4940 O   0  0  0  0  0  0  0  0  0  0  0  0
   -6.8015   13.1924    3.2532 C   0  0  0  0  0  0  0  0  0  0  0  0
   -7.9512   13.9946    2.8941 O   0  0  0  0  0  0  0  0  0  0  0  0
   -3.3743   12.0475    9.0526 C   0  0  1  0  0  0  0  0  0  0  0  0
   -2.2112   11.7930    9.7758 O   0  0  0  0  0  0  0  0  0  0  0  0
    2.2057   10.4638    9.0345 C   0  0  0  0  0  0  0  0  0  0  0  0
    1.3815   13.0092   12.4285 C   0  0  0  0  0  0  0  0  0  0  0  0
  1  2  1  1  0  0  0
  1  6  1  0  0  0  0
  1 21  1  0  0  0  0
  3  4  1  1  0  0  0
  3  8  1  0  0  0  0
  3 28  1  0  0  0  0
  5  9  1  0  0  0  0
  5 25  1  0  0  0  0
  5 29  1  6  0  0  0
  6  7  1  1  0  0  0
  6 11  1  0  0  0  0
  8 12  1  0  0  0  0
  9 10  1  1  0  0  0
  9 14  1  0  0  0  0
 11 16  1  0  0  0  0
 12 13  1  6  0  0  0
 12 17  1  0  0  0  0
 14 15  1  1  0  0  0
 14 18  1  0  0  0  0
 15 31  1  0  0  0  0
 16 20  1  0  0  0  0
 17  2  1  6  0  0  0
 17 22  1  0  0  0  0
 18 19  1  1  0  0  0
 18 24  1  0  0  0  0
 18 30  1  0  0  0  0
 20 21  1  0  0  0  0
 20 26  1  6  0  0  0
 22 23  1  6  0  0  0
 22 28  1  0  0  0  0
 24 25  1  0  0  0  0
 26 27  1  0  0  0  0
 28 29  1  1  0  0  0
M  END
>  <CHROM.1>
-172.90850812,-158.55072332,-83.90414099,-155.26354421,-0.47825598,86.56771971
-2.86132520,12.67635750,7.93898914,-2.22618377,-0.13539281,1.99714186

>  <Name>
ligand

>  <RI>
0

>  <Rbt.Current_Directory>
/home/itssahil/PROJECTS/Mol_Feturizer/New_Systems/rnas/4GPX

>  <Rbt.Executable>
rbdock ($Id: //depot/dev/client3/rdock/2013.1/src/exe/rbdock.cxx#4 $)

>  <Rbt.Library>
libRbt.so (2013.1, Build901 2013/11/27)

>  <Rbt.Parameter_File>
/export/apps/rDock/src/rDock_2013.1_src/data/scripts/dock_solv.prm

>  <Rbt.Receptor>
prm/pocket_docking_4.prm

>  <SCORE>
-20.7827

>  <SCORE.INTER>
-16.5188

>  <SCORE.INTER.CONST>
1

>  <SCORE.INTER.POLAR>
0

>  <SCORE.INTER.ROT>
6

>  <SCORE.INTER.SOLV>
19.5741

>  <SCORE.INTER.VDW>
-25.1372

>  <SCORE.INTER.norm>
-0.532864

>  <SCORE.INTRA>
-4.26389

>  <SCORE.INTRA.DIHEDRAL>
-10.7201

>  <SCORE.INTRA.DIHEDRAL.0>
20.6841

>  <SCORE.INTRA.POLAR>
0

>  <SCORE.INTRA.POLAR.0>
0

>  <SCORE.INTRA.REPUL>
0

>  <SCORE.INTRA.REPUL.0>
0

>  <SCORE.INTRA.SOLV>
-0.461676

>  <SCORE.INTRA.SOLV.lig_0>
-64.6797

>  <SCORE.INTRA.VDW>
1.32698

>  <SCORE.INTRA.VDW.0>
-4.11825

>  <SCORE.INTRA.norm>
-0.137545

>  <SCORE.RESTR>
0

>  <SCORE.RESTR.CAVITY>
0

>  <SCORE.RESTR.norm>
0

>  <SCORE.SYSTEM>
0

>  <SCORE.SYSTEM.CONST>
0

>  <SCORE.SYSTEM.DIHEDRAL>
0

>  <SCORE.SYSTEM.SOLV>
0

>  <SCORE.SYSTEM.norm>
0

>  <SCORE.heavy>
31

>  <SCORE.norm>
-0.670408

>  <RMSD>
0.853

$$$$
ligand
 OpenBabel11021811493D
libRbt.so/2013.1/901 2013/11/27
 31 33  0  0  0  0  0  0  0  0999 V2000
   -3.5374   14.2338    4.8776 C   0  0  2  0  0  0  0  0  0  0  0  0
   -3.9186   14.4927    6.2256 O   0  0  0  0  0  0  0  0  0  0  0  0
   -4.4048   12.6633   10.0336 C   0  0  2  0  0  0  0  0  0  0  0  0
   -4.7314   11.6828   11.0229 N   0  0  0  0  0  0  0  0  0  0  0  0
   -1.9358   10.4890   10.4327 C   0  0  2  0  0  0  0  0  0  0  0  0
   -3.1515   15.6315    4.2423 C   0  0  2  0  0  0  0  0  0  0  0  0
   -2.0591   16.2126    5.0157 N   0  0  0  0  0  0  0  0  0  0  0  0
   -5.7141   12.9905    9.2038 C   0  0  0  0  0  0  0  0  0  0  0  0
   -0.8762   10.7451   11.5508 C   0  0  2  0  0  0  0  0  0  0  0  0
   -1.3888   11.7191   12.4347 O   0  0  0  0  0  0  0  0  0  0  0  0
   -4.4037   16.5963    4.2329 C   0  0  0  0  0  0  0  0  0  0  0  0
   -5.3577   14.0677    8.1119 C   0  0  2  0  0  0  0  0  0  0  0  0
   -6.5704   14.3720    7.3333 N   0  0  0  0  0  0  0  0  0  0  0  0
    0.4348   11.2593   10.8430 C   0  0  1  0  0  0  0  0  0  0  0  0
    1.4884   11.5429   11.8728 N   0  0  0  0  0  0  0  0  0  0  0  0
   -5.7553   15.8271    3.9151 C   0  0  0  0  0  0  0  0  0  0  0  0
   -4.2146   13.5078    7.1551 C   0  0  2  0  0  0  0  0  0  0  0  0
    0.9594   10.0841    9.8420 C   0  0  1  0  0  0  0  0  0  0  0  0
    1.2180    8.8699   10.5263 O   0  0  0  0  0  0  0  0  0  0  0  0
   -5.7973   14.4689    3.8796 C   0  0  2  0  0  0  0  0  0  0  0  0
   -4.6424   13.6573    4.1223 O   0  0  0  0  0  0  0  0  0  0  0  0
   -2.9311   13.1823    8.0053 C   0  0  2  0  0  0  0  0  0  0  0  0
   -1.9038   12.6661    7.1319 O   0  0  0  0  0  0  0  0  0  0  0  0
   -0.1308    9.7779    8.7643 C   0  0  0  0  0  0  0  0  0  0  0  0
   -1.4297    9.4483    9.4515 O   0  0  0  0  0  0  0  0  0  0  0  0
   -7.0743   13.6831    3.5755 C   0  0  0  0  0  0  0  0  0  0  0  0
   -6.7796   12.7371    2.5208 O   0  0  0  0  0  0  0  0  0  0  0  0
   -3.3010   12.0891    9.0747 C   0  0  1  0  0  0  0  0  0  0  0  0
   -2.1520   11.7948    9.8056 O   0  0  0  0  0  0  0  0  0  0  0  0
    2.2507   10.4226    9.0585 C   0  0  0  0  0  0  0  0  0  0  0  0
    1.3915   12.8358   12.5807 C   0  0  0  0  0  0  0  0  0  0  0  0
  1  2  1  1  0  0  0
  1  6  1  0  0  0  0
  1 21  1  0  0  0  0
  3  4  1  1  0  0  0
  3  8  1  0  0  0  0
  3 28  1  0  0  0  0
  5  9  1  0  0  0  0
  5 25  1  0  0  0  0
  5 29  1  6  0  0  0
  6  7  1  1  0  0  0
  6 11  1  0  0  0  0
  8 12  1  0  0  0  0
  9 10  1  1  0  0  0
  9 14  1  0  0  0  0
 11 16  1  0  0  0  0
 12 13  1  6  0  0  0
 12 17  1  0  0  0  0
 14 15  1  1  0  0  0
 14 18  1  0  0  0  0
 15 31  1  0  0  0  0
 16 20  1  0  0  0  0
 17  2  1  6  0  0  0
 17 22  1  0  0  0  0
 18 19  1  1  0  0  0
 18 24  1  0  0  0  0
 18 30  1  0  0  0  0
 20 21  1  0  0  0  0
 20 26  1  6  0  0  0
 22 23  1  6  0  0  0
 22 28  1  0  0  0  0
 24 25  1  0  0  0  0
 26 27  1  0  0  0  0
 28 29  1  1  0  0  0
M  END
>  <CHROM.1>
-174.07980824,-158.92672441,-80.72681631,-145.96707754,128.53844423,89.16148337
-2.76773879,12.67461542,7.95892467,-2.21476223,-0.19139269,1.96751621

>  <Name>
ligand

>  <RI>
0

>  <Rbt.Current_Directory>
/home/itssahil/PROJECTS/Mol_Feturizer/New_Systems/rnas/4GPX

>  <Rbt.Executable>
rbdock ($Id: //depot/dev/client3/rdock/2013.1/src/exe/rbdock.cxx#4 $)

>  <Rbt.Library>
libRbt.so (2013.1, Build901 2013/11/27)

>  <Rbt.Parameter_File>
/export/apps/rDock/src/rDock_2013.1_src/data/scripts/dock_solv.prm

>  <Rbt.Receptor>
prm/pocket_docking_3.prm

>  <SCORE>
-21.0639

>  <SCORE.INTER>
-17.1283

>  <SCORE.INTER.CONST>
1

>  <SCORE.INTER.POLAR>
0

>  <SCORE.INTER.ROT>
6

>  <SCORE.INTER.SOLV>
20.1468

>  <SCORE.INTER.VDW>
-25.7345

>  <SCORE.INTER.norm>
-0.552526

>  <SCORE.INTRA>
-3.93561

>  <SCORE.INTRA.DIHEDRAL>
-8.63741

>  <SCORE.INTRA.DIHEDRAL.0>
20.6841

>  <SCORE.INTRA.POLAR>
0

>  <SCORE.INTRA.POLAR.0>
0

>  <SCORE.INTRA.REPUL>
0

>  <SCORE.INTRA.REPUL.0>
0

>  <SCORE.INTRA.SOLV>
0.220631

>  <SCORE.INTRA.SOLV.lig_0>
-64.6797

>  <SCORE.INTRA.VDW>
0.272785

>  <SCORE.INTRA.VDW.0>
-4.11825

>  <SCORE.INTRA.norm>
-0.126955

>  <SCORE.RESTR>
0

>  <SCORE.RESTR.CAVITY>
0

>  <SCORE.RESTR.norm>
0

>  <SCORE.SYSTEM>
0

>  <SCORE.SYSTEM.CONST>
0

>  <SCORE.SYSTEM.DIHEDRAL>
0

>  <SCORE.SYSTEM.SOLV>
0

>  <SCORE.SYSTEM.norm>
0

>  <SCORE.heavy>
31

>  <SCORE.norm>
-0.679482

>  <RMSD>
0.856

$$$$
ligand
 OpenBabel11021811493D
libRbt.so/2013.1/901 2013/11/27
 31 33  0  0  0  0  0  0  0  0999 V2000
   -3.5377   14.2501    4.8806 C   0  0  2  0  0  0  0  0  0  0  0  0
   -3.9195   14.4991    6.2302 O   0  0  0  0  0  0  0  0  0  0  0  0
   -4.4434   12.6465   10.0220 C   0  0  2  0  0  0  0  0  0  0  0  0
   -4.7770   11.6589   11.0019 N   0  0  0  0  0  0  0  0  0  0  0  0
   -1.9635   10.4805   10.4328 C   0  0  2  0  0  0  0  0  0  0  0  0
   -3.1674   15.6545    4.2509 C   0  0  2  0  0  0  0  0  0  0  0  0
   -2.0799   16.2435    5.0252 N   0  0  0  0  0  0  0  0  0  0  0  0
   -5.7440   12.9711    9.1776 C   0  0  0  0  0  0  0  0  0  0  0  0
   -0.9002   10.7282   11.5494 C   0  0  2  0  0  0  0  0  0  0  0  0
   -1.4106   11.6940   12.4434 O   0  0  0  0  0  0  0  0  0  0  0  0
   -4.4295   16.6063    4.2476 C   0  0  0  0  0  0  0  0  0  0  0  0
   -5.3798   14.0561    8.0961 C   0  0  2  0  0  0  0  0  0  0  0  0
   -6.5843   14.3581    7.3039 N   0  0  0  0  0  0  0  0  0  0  0  0
    0.4077   11.2496   10.8414 C   0  0  1  0  0  0  0  0  0  0  0  0
    1.4647   11.5254   11.8698 N   0  0  0  0  0  0  0  0  0  0  0  0
   -5.7736   15.8245    3.9284 C   0  0  0  0  0  0  0  0  0  0  0  0
   -4.2217   13.5076    7.1507 C   0  0  2  0  0  0  0  0  0  0  0  0
    0.9300   10.0835    9.8285 C   0  0  1  0  0  0  0  0  0  0  0  0
    1.1922    8.8638   10.5016 O   0  0  0  0  0  0  0  0  0  0  0  0
   -5.8015   14.4661    3.8870 C   0  0  2  0  0  0  0  0  0  0  0  0
   -4.6378   13.6655    4.1244 O   0  0  0  0  0  0  0  0  0  0  0  0
   -2.9472   13.1844    8.0152 C   0  0  2  0  0  0  0  0  0  0  0  0
   -1.9063   12.6785    7.1520 O   0  0  0  0  0  0  0  0  0  0  0  0
   -0.1638    9.7854    8.7521 C   0  0  0  0  0  0  0  0  0  0  0  0
   -1.4599    9.4487    9.4410 O   0  0  0  0  0  0  0  0  0  0  0  0
   -7.0707   13.6684    3.5813 C   0  0  0  0  0  0  0  0  0  0  0  0
   -6.7748   12.7481    2.5044 O   0  0  0  0  0  0  0  0  0  0  0  0
   -3.3245   12.0835    9.0740 C   0  0  1  0  0  0  0  0  0  0  0  0
   -2.1832   11.7914    9.8176 O   0  0  0  0  0  0  0  0  0  0  0  0
    2.2181   10.4299    9.0434 C   0  0  0  0  0  0  0  0  0  0  0  0
    1.3809   12.8210   12.5746 C   0  0  0  0  0  0  0  0  0  0  0  0
  1  2  1  1  0  0  0
  1  6  1  0  0  0  0
  1 21  1  0  0  0  0
  3  4  1  1  0  0  0
  3  8  1  0  0  0  0
  3 28  1  0  0  0  0
  5  9  1  0  0  0  0
  5 25  1  0  0  0  0
  5 29  1  6  0  0  0
  6  7  1  1  0  0  0
  6 11  1  0  0  0  0
  8 12  1  0  0  0  0
  9 10  1  1  0  0  0
  9 14  1  0  0  0  0
 11 16  1  0  0  0  0
 12 13  1  6  0  0  0
 12 17  1  0  0  0  0
 14 15  1  1  0  0  0
 14 18  1  0  0  0  0
 15 31  1  0  0  0  0
 16 20  1  0  0  0  0
 17  2  1  6  0  0  0
 17 22  1  0  0  0  0
 18 19  1  1  0  0  0
 18 24  1  0  0  0  0
 18 30  1  0  0  0  0
 20 21  1  0  0  0  0
 20 26  1  6  0  0  0
 22 23  1  6  0  0  0
 22 28  1  0  0  0  0
 24 25  1  0  0  0  0
 26 27  1  0  0  0  0
 28 29  1  1  0  0  0
M  END
>  <CHROM.1>
-175.01129063,-160.05627432,-81.62191768,-145.07223431,127.45433747,89.58451246
-2.78651521,12.67218586,7.95595732,-2.21157097,-0.18109082,1.97786072

>  <Name>
ligand

>  <RI>
0

>  <Rbt.Current_Directory>
/home/itssahil/PROJECTS/Mol_Feturizer/New_Systems/rnas/4GPX

>  <Rbt.Executable>
rbdock ($Id: //depot/dev/client3/rdock/2013.1/src/exe/rbdock.cxx#4 $)

>  <Rbt.Library>
libRbt.so (2013.1, Build901 2013/11/27)

>  <Rbt.Parameter_File>
/export/apps/rDock/src/rDock_2013.1_src/data/scripts/dock_solv.prm

>  <Rbt.Receptor>
prm/pocket_docking_4.prm

>  <SCORE>
-21.035

>  <SCORE.INTER>
-17.0503

>  <SCORE.INTER.CONST>
1

>  <SCORE.INTER.POLAR>
0

>  <SCORE.INTER.ROT>
6

>  <SCORE.INTER.SOLV>
20.246

>  <SCORE.INTER.VDW>
-25.7155

>  <SCORE.INTER.norm>
-0.550008

>  <SCORE.INTRA>
-3.98478

>  <SCORE.INTRA.DIHEDRAL>
-8.62742

>  <SCORE.INTRA.DIHEDRAL.0>
20.6841

>  <SCORE.INTRA.POLAR>
0

>  <SCORE.INTRA.POLAR.0>
0

>  <SCORE.INTRA.REPUL>
0

>  <SCORE.INTRA.REPUL.0>
0

>  <SCORE.INTRA.SOLV>
0.243131

>  <SCORE.INTRA.SOLV.lig_0>
-64.6797

>  <SCORE.INTRA.VDW>
0.207368

>  <SCORE.INTRA.VDW.0>
-4.11825

>  <SCORE.INTRA.norm>
-0.128541

>  <SCORE.RESTR>
0

>  <SCORE.RESTR.CAVITY>
0

>  <SCORE.RESTR.norm>
0

>  <SCORE.SYSTEM>
0

>  <SCORE.SYSTEM.CONST>
0

>  <SCORE.SYSTEM.DIHEDRAL>
0

>  <SCORE.SYSTEM.SOLV>
0

>  <SCORE.SYSTEM.norm>
0

>  <SCORE.heavy>
31

>  <SCORE.norm>
-0.678549

>  <RMSD>
0.868

$$$$
ligand
 OpenBabel11021811493D
libRbt.so/2013.1/901 2013/11/27
 31 33  0  0  0  0  0  0  0  0999 V2000
   -3.5222   14.2418    5.0110 C   0  0  2  0  0  0  0  0  0  0  0  0
   -4.1393   14.4658    6.2753 O   0  0  0  0  0  0  0  0  0  0  0  0
   -4.4953   12.6099   10.0848 C   0  0  2  0  0  0  0  0  0  0  0  0
   -4.7774   11.6184   11.0769 N   0  0  0  0  0  0  0  0  0  0  0  0
   -1.9899   10.4994   10.4480 C   0  0  2  0  0  0  0  0  0  0  0  0
   -3.2316   15.6697    4.3923 C   0  0  2  0  0  0  0  0  0  0  0  0
   -2.3599   16.4062    5.3016 N   0  0  0  0  0  0  0  0  0  0  0  0
   -5.8307   12.9132    9.2883 C   0  0  0  0  0  0  0  0  0  0  0  0
   -0.9227   10.7917   11.5500 C   0  0  2  0  0  0  0  0  0  0  0  0
   -1.4401   11.7750   12.4206 O   0  0  0  0  0  0  0  0  0  0  0  0
   -4.5842   16.4537    4.1583 C   0  0  0  0  0  0  0  0  0  0  0  0
   -5.5233   14.0025    8.1935 C   0  0  2  0  0  0  0  0  0  0  0  0
   -6.7605   14.2847    7.4457 N   0  0  0  0  0  0  0  0  0  0  0  0
    0.3735   11.3106   10.8190 C   0  0  1  0  0  0  0  0  0  0  0  0
    1.4334   11.6286   11.8322 N   0  0  0  0  0  0  0  0  0  0  0  0
   -5.7555   15.5021    3.6663 C   0  0  0  0  0  0  0  0  0  0  0  0
   -4.3921   13.4709    7.2068 C   0  0  2  0  0  0  0  0  0  0  0  0
    0.9047   10.1241    9.8350 C   0  0  1  0  0  0  0  0  0  0  0  0
    1.1876    8.9270   10.5394 O   0  0  0  0  0  0  0  0  0  0  0  0
   -5.6104   14.1505    3.6734 C   0  0  2  0  0  0  0  0  0  0  0  0
   -4.4097   13.5084    4.1176 O   0  0  0  0  0  0  0  0  0  0  0  0
   -3.0820   13.1686    8.0244 C   0  0  2  0  0  0  0  0  0  0  0  0
   -2.0656   12.6779    7.1240 O   0  0  0  0  0  0  0  0  0  0  0  0
   -0.1919    9.7821    8.7746 C   0  0  0  0  0  0  0  0  0  0  0  0
   -1.4789    9.4475    9.4814 O   0  0  0  0  0  0  0  0  0  0  0  0
   -6.7086   13.1929    3.2069 C   0  0  0  0  0  0  0  0  0  0  0  0
   -7.8166   13.9842    2.7165 O   0  0  0  0  0  0  0  0  0  0  0  0
   -3.4031   12.0632    9.0970 C   0  0  1  0  0  0  0  0  0  0  0  0
   -2.2310   11.7899    9.7985 O   0  0  0  0  0  0  0  0  0  0  0  0
    2.1830   10.4657    9.0318 C   0  0  0  0  0  0  0  0  0  0  0  0
    1.3676   12.9628   12.4630 C   0  0  0  0  0  0  0  0  0  0  0  0
  1  2  1  1  0  0  0
  1  6  1  0  0  0  0
  1 21  1  0  0  0  0
  3  4  1  1  0  0  0
  3  8  1  0  0  0  0
  3 28  1  0  0  0  0
  5  9  1  0  0  0  0
  5 25  1  0  0  0  0
  5 29  1  6  0  0  0
  6  7  1  1  0  0  0
  6 11  1  0  0  0  0
  8 12  1  0  0  0  0
  9 10  1  1  0  0  0
  9 14  1  0  0  0  0
 11 16  1  0  0  0  0
 12 13  1  6  0  0  0
 12 17  1  0  0  0  0
 14 15  1  1  0  0  0
 14 18  1  0  0  0  0
 15 31  1  0  0  0  0
 16 20  1  0  0  0  0
 17  2  1  6  0  0  0
 17 22  1  0  0  0  0
 18 19  1  1  0  0  0
 18 24  1  0  0  0  0
 18 30  1  0  0  0  0
 20 21  1  0  0  0  0
 20 26  1  6  0  0  0
 22 23  1  6  0  0  0
 22 28  1  0  0  0  0
 24 25  1  0  0  0  0
 26 27  1  0  0  0  0
 28 29  1  1  0  0  0
M  END
>  <CHROM.1>
-171.28325337,-157.60470922,-83.95584876,-159.62887373,3.28646417,87.28799908
-2.86337627,12.68539278,7.96582501,-2.22278797,-0.17274841,1.97374748

>  <Name>
ligand

>  <RI>
0

>  <Rbt.Current_Directory>
/home/itssahil/PROJECTS/Mol_Feturizer/New_Systems/rnas/4GPX

>  <Rbt.Executable>
rbdock ($Id: //depot/dev/client3/rdock/2013.1/src/exe/rbdock.cxx#4 $)

>  <Rbt.Library>
libRbt.so (2013.1, Build901 2013/11/27)

>  <Rbt.Parameter_File>
/export/apps/rDock/src/rDock_2013.1_src/data/scripts/dock_solv.prm

>  <Rbt.Receptor>
prm/pocket_docking_3.prm

>  <SCORE>
-20.8015

>  <SCORE.INTER>
-16.2989

>  <SCORE.INTER.CONST>
1

>  <SCORE.INTER.POLAR>
0

>  <SCORE.INTER.ROT>
6

>  <SCORE.INTER.SOLV>
19.4714

>  <SCORE.INTER.VDW>
-24.9564

>  <SCORE.INTER.norm>
-0.52577

>  <SCORE.INTRA>
-4.50269

>  <SCORE.INTRA.DIHEDRAL>
-11.0444

>  <SCORE.INTRA.DIHEDRAL.0>
20.6841

>  <SCORE.INTRA.POLAR>
0

>  <SCORE.INTRA.POLAR.0>
0

>  <SCORE.INTRA.REPUL>
0

>  <SCORE.INTRA.REPUL.0>
0

>  <SCORE.INTRA.SOLV>
-0.765369

>  <SCORE.INTRA.SOLV.lig_0>
-64.6797

>  <SCORE.INTRA.VDW>
1.40218

>  <SCORE.INTRA.VDW.0>
-4.11825

>  <SCORE.INTRA.norm>
-0.145248

>  <SCORE.RESTR>
0

>  <SCORE.RESTR.CAVITY>
0

>  <SCORE.RESTR.norm>
0

>  <SCORE.SYSTEM>
0

>  <SCORE.SYSTEM.CONST>
0

>  <SCORE.SYSTEM.DIHEDRAL>
0

>  <SCORE.SYSTEM.SOLV>
0

>  <SCORE.SYSTEM.norm>
0

>  <SCORE.heavy>
31

>  <SCORE.norm>
-0.671018

>  <RMSD>
0.872

$$$$
ligand
 OpenBabel11021811493D
libRbt.so/2013.1/901 2013/11/27
 31 33  0  0  0  0  0  0  0  0999 V2000
   -3.6159   14.3465    5.0653 C   0  0  2  0  0  0  0  0  0  0  0  0
   -4.2268   14.5354    6.3382 O   0  0  0  0  0  0  0  0  0  0  0  0
   -4.4989   12.6046   10.1173 C   0  0  2  0  0  0  0  0  0  0  0  0
   -4.7506   11.5905   11.0946 N   0  0  0  0  0  0  0  0  0  0  0  0
   -1.9721   10.5462   10.4459 C   0  0  2  0  0  0  0  0  0  0  0  0
   -3.3835   15.7900    4.4585 C   0  0  2  0  0  0  0  0  0  0  0  0
   -2.5288   16.5483    5.3662 N   0  0  0  0  0  0  0  0  0  0  0  0
   -5.8501   12.8995    9.3446 C   0  0  0  0  0  0  0  0  0  0  0  0
   -0.9023   10.8566   11.5404 C   0  0  2  0  0  0  0  0  0  0  0  0
   -1.4231   11.8443   12.4040 O   0  0  0  0  0  0  0  0  0  0  0  0
   -4.7657   16.5273    4.2469 C   0  0  0  0  0  0  0  0  0  0  0  0
   -5.5762   14.0136    8.2661 C   0  0  2  0  0  0  0  0  0  0  0  0
   -6.8282   14.2883    7.5404 N   0  0  0  0  0  0  0  0  0  0  0  0
    0.3869   11.3778   10.7990 C   0  0  1  0  0  0  0  0  0  0  0  0
    1.4488   11.7129   11.8045 N   0  0  0  0  0  0  0  0  0  0  0  0
   -5.9075   15.5392    3.7574 C   0  0  0  0  0  0  0  0  0  0  0  0
   -4.4500   13.5195    7.2546 C   0  0  2  0  0  0  0  0  0  0  0  0
    0.9225   10.1859    9.8238 C   0  0  1  0  0  0  0  0  0  0  0  0
    1.2169    8.9975   10.5383 O   0  0  0  0  0  0  0  0  0  0  0  0
   -5.7140   14.1937    3.7487 C   0  0  2  0  0  0  0  0  0  0  0  0
   -4.4862   13.5907    4.1736 O   0  0  0  0  0  0  0  0  0  0  0  0
   -3.1238   13.2248    8.0486 C   0  0  2  0  0  0  0  0  0  0  0  0
   -2.1118   12.7680    7.1257 O   0  0  0  0  0  0  0  0  0  0  0  0
   -0.1762    9.8260    8.7716 C   0  0  0  0  0  0  0  0  0  0  0  0
   -1.4577    9.4889    9.4871 O   0  0  0  0  0  0  0  0  0  0  0  0
   -6.7822   13.2020    3.2839 C   0  0  0  0  0  0  0  0  0  0  0  0
   -7.8633   13.9541    2.6840 O   0  0  0  0  0  0  0  0  0  0  0  0
   -3.4114   12.0947    9.1049 C   0  0  1  0  0  0  0  0  0  0  0  0
   -2.2253   11.8287    9.7854 O   0  0  0  0  0  0  0  0  0  0  0  0
    2.1948   10.5290    9.0119 C   0  0  0  0  0  0  0  0  0  0  0  0
    1.3576   13.0401   12.4466 C   0  0  0  0  0  0  0  0  0  0  0  0
  1  2  1  1  0  0  0
  1  6  1  0  0  0  0
  1 21  1  0  0  0  0
  3  4  1  1  0  0  0
  3  8  1  0  0  0  0
  3 28  1  0  0  0  0
  5  9  1  0  0  0  0
  5 25  1  0  0  0  0
  5 29  1  6  0  0  0
  6  7  1  1  0  0  0
  6 11  1  0  0  0  0
  8 12  1  0  0  0  0
  9 10  1  1  0  0  0
  9 14  1  0  0  0  0
 11 16  1  0  0  0  0
 12 13  1  6  0  0  0
 12 17  1  0  0  0  0
 14 15  1  1  0  0  0
 14 18  1  0  0  0  0
 15 31  1  0  0  0  0
 16 20  1  0  0  0  0
 17  2  1  6  0  0  0
 17 22  1  0  0  0  0
 18 19  1  1  0  0  0
 18 24  1  0  0  0  0
 18 30  1  0  0  0  0
 20 21  1  0  0  0  0
 20 26  1  6  0  0  0
 22 23  1  6  0  0  0
 22 28  1  0  0  0  0
 24 25  1  0  0  0  0
 26 27  1  0  0  0  0
 28 29  1  1  0  0  0
M  END
>  <CHROM.1>
-172.19089350,-156.53384366,-82.54202144,-160.04367868,9.23068768,85.19336458
-2.90253199,12.73631928,7.99156024,-2.23620123,-0.16517205,1.98026254

>  <Name>
ligand

>  <RI>
0

>  <Rbt.Current_Directory>
/home/itssahil/PROJECTS/Mol_Feturizer/New_Systems/rnas/4GPX

>  <Rbt.Executable>
rbdock ($Id: //depot/dev/client3/rdock/2013.1/src/exe/rbdock.cxx#4 $)

>  <Rbt.Library>
libRbt.so (2013.1, Build901 2013/11/27)

>  <Rbt.Parameter_File>
/export/apps/rDock/src/rDock_2013.1_src/data/scripts/dock_solv.prm

>  <Rbt.Receptor>
prm/pocket_docking_7.prm

>  <SCORE>
-20.8288

>  <SCORE.INTER>
-16.2493

>  <SCORE.INTER.CONST>
1

>  <SCORE.INTER.POLAR>
0

>  <SCORE.INTER.ROT>
6

>  <SCORE.INTER.SOLV>
19.3293

>  <SCORE.INTER.VDW>
-24.876

>  <SCORE.INTER.norm>
-0.524172

>  <SCORE.INTRA>
-4.57947

>  <SCORE.INTRA.DIHEDRAL>
-11.3283

>  <SCORE.INTRA.DIHEDRAL.0>
20.6841

>  <SCORE.INTRA.POLAR>
0

>  <SCORE.INTRA.POLAR.0>
0

>  <SCORE.INTRA.REPUL>
0

>  <SCORE.INTRA.REPUL.0>
0

>  <SCORE.INTRA.SOLV>
-0.755151

>  <SCORE.INTRA.SOLV.lig_0>
-64.6797

>  <SCORE.INTRA.VDW>
1.46224

>  <SCORE.INTRA.VDW.0>
-4.11825

>  <SCORE.INTRA.norm>
-0.147725

>  <SCORE.RESTR>
0

>  <SCORE.RESTR.CAVITY>
0

>  <SCORE.RESTR.norm>
0

>  <SCORE.SYSTEM>
0

>  <SCORE.SYSTEM.CONST>
0

>  <SCORE.SYSTEM.DIHEDRAL>
0

>  <SCORE.SYSTEM.SOLV>
0

>  <SCORE.SYSTEM.norm>
0

>  <SCORE.heavy>
31

>  <SCORE.norm>
-0.671897

>  <RMSD>
0.876

$$$$
ligand
 OpenBabel11021811493D
libRbt.so/2013.1/901 2013/11/27
 31 33  0  0  0  0  0  0  0  0999 V2000
   -3.5088   14.2778    4.8919 C   0  0  2  0  0  0  0  0  0  0  0  0
   -3.8950   14.5274    6.2401 O   0  0  0  0  0  0  0  0  0  0  0  0
   -4.4512   12.6772   10.0285 C   0  0  2  0  0  0  0  0  0  0  0  0
   -4.7935   11.6903   11.0061 N   0  0  0  0  0  0  0  0  0  0  0  0
   -1.9695   10.5054   10.4489 C   0  0  2  0  0  0  0  0  0  0  0  0
   -3.1584   15.6844    4.2558 C   0  0  2  0  0  0  0  0  0  0  0  0
   -2.0801   16.2927    5.0280 N   0  0  0  0  0  0  0  0  0  0  0  0
   -5.7446   13.0022    9.1732 C   0  0  0  0  0  0  0  0  0  0  0  0
   -0.9050   10.7454   11.5660 C   0  0  2  0  0  0  0  0  0  0  0  0
   -1.4145   11.7050   12.4672 O   0  0  0  0  0  0  0  0  0  0  0  0
   -4.4342   16.6178    4.2474 C   0  0  0  0  0  0  0  0  0  0  0  0
   -5.3708   14.0864    8.0942 C   0  0  2  0  0  0  0  0  0  0  0  0
   -6.5686   14.3888    7.2920 N   0  0  0  0  0  0  0  0  0  0  0  0
    0.4021   11.2719   10.8603 C   0  0  1  0  0  0  0  0  0  0  0  0
    1.4602   11.5407   11.8895 N   0  0  0  0  0  0  0  0  0  0  0  0
   -5.7666   15.8152    3.9311 C   0  0  0  0  0  0  0  0  0  0  0  0
   -4.2054   13.5366    7.1586 C   0  0  2  0  0  0  0  0  0  0  0  0
    0.9234   10.1130    9.8388 C   0  0  1  0  0  0  0  0  0  0  0  0
    1.1865    8.8887   10.5031 O   0  0  0  0  0  0  0  0  0  0  0  0
   -5.7749   14.4564    3.8960 C   0  0  2  0  0  0  0  0  0  0  0  0
   -4.5999   13.6738    4.1378 O   0  0  0  0  0  0  0  0  0  0  0  0
   -2.9383   13.2130    8.0337 C   0  0  2  0  0  0  0  0  0  0  0  0
   -1.8907   12.7060    7.1793 O   0  0  0  0  0  0  0  0  0  0  0  0
   -0.1715    9.8222    8.7614 C   0  0  0  0  0  0  0  0  0  0  0  0
   -1.4668    9.4806    9.4494 O   0  0  0  0  0  0  0  0  0  0  0  0
   -7.0322   13.6390    3.5934 C   0  0  0  0  0  0  0  0  0  0  0  0
   -6.7117   12.6920    2.5471 O   0  0  0  0  0  0  0  0  0  0  0  0
   -3.3249   12.1129    9.0900 C   0  0  1  0  0  0  0  0  0  0  0  0
   -2.1900   11.8206    9.8431 O   0  0  0  0  0  0  0  0  0  0  0  0
    2.2107   10.4649    9.0547 C   0  0  0  0  0  0  0  0  0  0  0  0
    1.3858   12.8378   12.5925 C   0  0  0  0  0  0  0  0  0  0  0  0
  1  2  1  1  0  0  0
  1  6  1  0  0  0  0
  1 21  1  0  0  0  0
  3  4  1  1  0  0  0
  3  8  1  0  0  0  0
  3 28  1  0  0  0  0
  5  9  1  0  0  0  0
  5 25  1  0  0  0  0
  5 29  1  6  0  0  0
  6  7  1  1  0  0  0
  6 11  1  0  0  0  0
  8 12  1  0  0  0  0
  9 10  1  1  0  0  0
  9 14  1  0  0  0  0
 11 16  1  0  0  0  0
 12 13  1  6  0  0  0
 12 17  1  0  0  0  0
 14 15  1  1  0  0  0
 14 18  1  0  0  0  0
 15 31  1  0  0  0  0
 16 20  1  0  0  0  0
 17  2  1  6  0  0  0
 17 22  1  0  0  0  0
 18 19  1  1  0  0  0
 18 24  1  0  0  0  0
 18 30  1  0  0  0  0
 20 21  1  0  0  0  0
 20 26  1  6  0  0  0
 22 23  1  6  0  0  0
 22 28  1  0  0  0  0
 24 25  1  0  0  0  0
 26 27  1  0  0  0  0
 28 29  1  1  0  0  0
M  END
>  <CHROM.1>
-176.15640544,-160.80304199,-82.29154129,-144.74261210,129.05507799,90.24537933
-2.77943324,12.69164373,7.96753961,-2.20895147,-0.18006486,1.97701216

>  <Name>
ligand

>  <RI>
0

>  <Rbt.Current_Directory>
/home/itssahil/PROJECTS/Mol_Feturizer/New_Systems/rnas/4GPX

>  <Rbt.Executable>
rbdock ($Id: //depot/dev/client3/rdock/2013.1/src/exe/rbdock.cxx#4 $)

>  <Rbt.Library>
libRbt.so (2013.1, Build901 2013/11/27)

>  <Rbt.Parameter_File>
/export/apps/rDock/src/rDock_2013.1_src/data/scripts/dock_solv.prm

>  <Rbt.Receptor>
prm/pocket_docking_6.prm

>  <SCORE>
-21.0227

>  <SCORE.INTER>
-17.0286

>  <SCORE.INTER.CONST>
1

>  <SCORE.INTER.POLAR>
0

>  <SCORE.INTER.ROT>
6

>  <SCORE.INTER.SOLV>
20.1106

>  <SCORE.INTER.VDW>
-25.6559

>  <SCORE.INTER.norm>
-0.549308

>  <SCORE.INTRA>
-3.99413

>  <SCORE.INTRA.DIHEDRAL>
-8.56003

>  <SCORE.INTRA.DIHEDRAL.0>
20.6841

>  <SCORE.INTRA.POLAR>
0

>  <SCORE.INTRA.POLAR.0>
0

>  <SCORE.INTRA.REPUL>
0

>  <SCORE.INTRA.REPUL.0>
0

>  <SCORE.INTRA.SOLV>
0.236788

>  <SCORE.INTRA.SOLV.lig_0>
-64.6797

>  <SCORE.INTRA.VDW>
0.167492

>  <SCORE.INTRA.VDW.0>
-4.11825

>  <SCORE.INTRA.norm>
-0.128843

>  <SCORE.RESTR>
0

>  <SCORE.RESTR.CAVITY>
0

>  <SCORE.RESTR.norm>
0

>  <SCORE.SYSTEM>
0

>  <SCORE.SYSTEM.CONST>
0

>  <SCORE.SYSTEM.DIHEDRAL>
0

>  <SCORE.SYSTEM.SOLV>
0

>  <SCORE.SYSTEM.norm>
0

>  <SCORE.heavy>
31

>  <SCORE.norm>
-0.678151

>  <RMSD>
0.882

$$$$
ligand
 OpenBabel11021811493D
libRbt.so/2013.1/901 2013/11/27
 31 33  0  0  0  0  0  0  0  0999 V2000
   -3.8905   14.2327    4.7364 C   0  0  2  0  0  0  0  0  0  0  0  0
   -4.3028   14.4933    6.0748 O   0  0  0  0  0  0  0  0  0  0  0  0
   -4.3468   12.6656    9.9143 C   0  0  2  0  0  0  0  0  0  0  0  0
   -4.5681   11.6901   10.9371 N   0  0  0  0  0  0  0  0  0  0  0  0
   -1.3322   10.6404    8.9235 C   0  0  2  0  0  0  0  0  0  0  0  0
   -3.4793   15.6281    4.1119 C   0  0  2  0  0  0  0  0  0  0  0  0
   -2.4022   16.2010    4.9125 N   0  0  0  0  0  0  0  0  0  0  0  0
   -5.7425   13.0237    9.2556 C   0  0  0  0  0  0  0  0  0  0  0  0
   -0.3960   10.2820   10.1209 C   0  0  2  0  0  0  0  0  0  0  0  0
   -1.2017    9.9452   11.2300 O   0  0  0  0  0  0  0  0  0  0  0  0
   -4.7241   16.6017    4.0726 C   0  0  0  0  0  0  0  0  0  0  0  0
   -5.5024   14.0955    8.1273 C   0  0  2  0  0  0  0  0  0  0  0  0
   -6.7963   14.4284    7.5073 N   0  0  0  0  0  0  0  0  0  0  0  0
    0.4806   11.5557   10.4259 C   0  0  1  0  0  0  0  0  0  0  0  0
    1.3910   11.2780   11.5857 N   0  0  0  0  0  0  0  0  0  0  0  0
   -6.0729   15.8423    3.7211 C   0  0  0  0  0  0  0  0  0  0  0  0
   -4.5014   13.5129    7.0345 C   0  0  2  0  0  0  0  0  0  0  0  0
    1.3751   11.8791    9.1017 C   0  0  1  0  0  0  0  0  0  0  0  0
    2.2060   10.7909    8.7345 O   0  0  0  0  0  0  0  0  0  0  0  0
   -6.1235   14.4844    3.6834 C   0  0  2  0  0  0  0  0  0  0  0  0
   -4.9806   13.6645    3.9536 O   0  0  0  0  0  0  0  0  0  0  0  0
   -3.1287   13.1570    7.7166 C   0  0  2  0  0  0  0  0  0  0  0  0
   -2.2312   12.6204    6.7211 O   0  0  0  0  0  0  0  0  0  0  0  0
    0.4376   12.1690    7.8847 C   0  0  0  0  0  0  0  0  0  0  0  0
   -0.5118   11.0142    7.7031 O   0  0  0  0  0  0  0  0  0  0  0  0
   -7.3981   13.7079    3.3473 C   0  0  0  0  0  0  0  0  0  0  0  0
   -7.0519   12.6584    2.4129 O   0  0  0  0  0  0  0  0  0  0  0  0
   -3.3853   12.0696    8.8244 C   0  0  1  0  0  0  0  0  0  0  0  0
   -2.1605   11.7482    9.4050 O   0  0  0  0  0  0  0  0  0  0  0  0
    2.3048   13.1102    9.2268 C   0  0  0  0  0  0  0  0  0  0  0  0
    1.3193   12.2172   12.7236 C   0  0  0  0  0  0  0  0  0  0  0  0
  1  2  1  1  0  0  0
  1  6  1  0  0  0  0
  1 21  1  0  0  0  0
  3  4  1  1  0  0  0
  3  8  1  0  0  0  0
  3 28  1  0  0  0  0
  5  9  1  0  0  0  0
  5 25  1  0  0  0  0
  5 29  1  1  0  0  0
  6  7  1  1  0  0  0
  6 11  1  0  0  0  0
  8 12  1  0  0  0  0
  9 10  1  1  0  0  0
  9 14  1  0  0  0  0
 11 16  1  0  0  0  0
 12 13  1  6  0  0  0
 12 17  1  0  0  0  0
 14 15  1  1  0  0  0
 14 18  1  0  0  0  0
 15 31  1  0  0  0  0
 16 20  1  0  0  0  0
 17  2  1  6  0  0  0
 17 22  1  0  0  0  0
 18 19  1  6  0  0  0
 18 24  1  0  0  0  0
 18 30  1  0  0  0  0
 20 21  1  0  0  0  0
 20 26  1  6  0  0  0
 22 23  1  6  0  0  0
 22 28  1  0  0  0  0
 24 25  1  0  0  0  0
 26 27  1  0  0  0  0
 28 29  1  1  0  0  0
M  END
>  <CHROM.1>
-167.43385959,-158.73249366,-125.16454248,-156.42786088,135.04710944,148.88863757
-2.77452428,12.92252816,7.54092994,-2.31078348,-0.04703115,2.01782713

>  <Name>
ligand

>  <RI>
0

>  <Rbt.Current_Directory>
/home/itssahil/PROJECTS/Mol_Feturizer/New_Systems/rnas/4GPX

>  <Rbt.Executable>
rbdock ($Id: //depot/dev/client3/rdock/2013.1/src/exe/rbdock.cxx#4 $)

>  <Rbt.Library>
libRbt.so (2013.1, Build901 2013/11/27)

>  <Rbt.Parameter_File>
/export/apps/rDock/src/rDock_2013.1_src/data/scripts/dock_solv.prm

>  <Rbt.Receptor>
prm/pocket_docking_5.prm

>  <SCORE>
-17.0776

>  <SCORE.INTER>
-12.6716

>  <SCORE.INTER.CONST>
1

>  <SCORE.INTER.POLAR>
0

>  <SCORE.INTER.ROT>
6

>  <SCORE.INTER.SOLV>
20.3484

>  <SCORE.INTER.VDW>
-22.8306

>  <SCORE.INTER.norm>
-0.408763

>  <SCORE.INTRA>
-4.40595

>  <SCORE.INTRA.DIHEDRAL>
-8.55686

>  <SCORE.INTRA.DIHEDRAL.0>
20.6841

>  <SCORE.INTRA.POLAR>
0

>  <SCORE.INTRA.POLAR.0>
0

>  <SCORE.INTRA.REPUL>
0

>  <SCORE.INTRA.REPUL.0>
0

>  <SCORE.INTRA.SOLV>
-1.10818

>  <SCORE.INTRA.SOLV.lig_0>
-64.6797

>  <SCORE.INTRA.VDW>
0.426575

>  <SCORE.INTRA.VDW.0>
-4.11825

>  <SCORE.INTRA.norm>
-0.142127

>  <SCORE.RESTR>
0

>  <SCORE.RESTR.CAVITY>
0

>  <SCORE.RESTR.norm>
0

>  <SCORE.SYSTEM>
0

>  <SCORE.SYSTEM.CONST>
0

>  <SCORE.SYSTEM.DIHEDRAL>
0

>  <SCORE.SYSTEM.SOLV>
0

>  <SCORE.SYSTEM.norm>
0

>  <SCORE.heavy>
31

>  <SCORE.norm>
-0.55089

>  <RMSD>
0.884

$$$$
ligand
 OpenBabel11021811493D
libRbt.so/2013.1/901 2013/11/27
 31 33  0  0  0  0  0  0  0  0999 V2000
   -3.4101   14.3445    4.9648 C   0  0  2  0  0  0  0  0  0  0  0  0
   -3.9528   14.5620    6.2638 O   0  0  0  0  0  0  0  0  0  0  0  0
   -4.4308   12.6325   10.0232 C   0  0  2  0  0  0  0  0  0  0  0  0
   -4.7507   11.6243   10.9866 N   0  0  0  0  0  0  0  0  0  0  0  0
   -1.9607   10.4837   10.4063 C   0  0  2  0  0  0  0  0  0  0  0  0
   -3.1307   15.7754    4.3480 C   0  0  2  0  0  0  0  0  0  0  0  0
   -2.1982   16.4865    5.2164 N   0  0  0  0  0  0  0  0  0  0  0  0
   -5.7412   12.9687    9.1987 C   0  0  0  0  0  0  0  0  0  0  0  0
   -0.9140   10.7381   11.5370 C   0  0  2  0  0  0  0  0  0  0  0  0
   -1.4368   11.7107   12.4164 O   0  0  0  0  0  0  0  0  0  0  0  0
   -4.4811   16.5835    4.1984 C   0  0  0  0  0  0  0  0  0  0  0  0
   -5.3922   14.0764    8.1353 C   0  0  2  0  0  0  0  0  0  0  0  0
   -6.6059   14.3894    7.3616 N   0  0  0  0  0  0  0  0  0  0  0  0
    0.4049   11.2534   10.8451 C   0  0  1  0  0  0  0  0  0  0  0  0
    1.4466   11.5354   11.8874 N   0  0  0  0  0  0  0  0  0  0  0  0
   -5.6932   15.6568    3.7608 C   0  0  0  0  0  0  0  0  0  0  0  0
   -4.2419   13.5512    7.1674 C   0  0  2  0  0  0  0  0  0  0  0  0
    0.9412   10.0798    9.8484 C   0  0  1  0  0  0  0  0  0  0  0  0
    1.1920    8.8646   10.5338 O   0  0  0  0  0  0  0  0  0  0  0  0
   -5.5701   14.3031    3.7436 C   0  0  2  0  0  0  0  0  0  0  0  0
   -4.3574   13.6366    4.1131 O   0  0  0  0  0  0  0  0  0  0  0  0
   -2.9574   13.2159    8.0123 C   0  0  2  0  0  0  0  0  0  0  0  0
   -1.9236   12.7313    7.1286 O   0  0  0  0  0  0  0  0  0  0  0  0
   -0.1366    9.7751    8.7577 C   0  0  0  0  0  0  0  0  0  0  0  0
   -1.4433    9.4445    9.4294 O   0  0  0  0  0  0  0  0  0  0  0  0
   -6.7078   13.3689    3.3273 C   0  0  0  0  0  0  0  0  0  0  0  0
   -7.7591   14.1736    2.7427 O   0  0  0  0  0  0  0  0  0  0  0  0
   -3.3197   12.0927    9.0528 C   0  0  1  0  0  0  0  0  0  0  0  0
   -2.1698   11.7904    9.7787 O   0  0  0  0  0  0  0  0  0  0  0  0
    2.2413   10.4195    9.0803 C   0  0  0  0  0  0  0  0  0  0  0  0
    1.3623   12.8421   12.5714 C   0  0  0  0  0  0  0  0  0  0  0  0
  1  2  1  1  0  0  0
  1  6  1  0  0  0  0
  1 21  1  0  0  0  0
  3  4  1  1  0  0  0
  3  8  1  0  0  0  0
  3 28  1  0  0  0  0
  5  9  1  0  0  0  0
  5 25  1  0  0  0  0
  5 29  1  6  0  0  0
  6  7  1  1  0  0  0
  6 11  1  0  0  0  0
  8 12  1  0  0  0  0
  9 10  1  1  0  0  0
  9 14  1  0  0  0  0
 11 16  1  0  0  0  0
 12 13  1  6  0  0  0
 12 17  1  0  0  0  0
 14 15  1  1  0  0  0
 14 18  1  0  0  0  0
 15 31  1  0  0  0  0
 16 20  1  0  0  0  0
 17  2  1  6  0  0  0
 17 22  1  0  0  0  0
 18 19  1  1  0  0  0
 18 24  1  0  0  0  0
 18 30  1  0  0  0  0
 20 21  1  0  0  0  0
 20 26  1  6  0  0  0
 22 23  1  6  0  0  0
 22 28  1  0  0  0  0
 24 25  1  0  0  0  0
 26 27  1  0  0  0  0
 28 29  1  1  0  0  0
M  END
>  <CHROM.1>
-175.15962279,-157.89640559,-82.26943750,-154.02051297,10.77793848,87.32882445
-2.79355604,12.72460348,7.95952030,-2.21004272,-0.16077660,2.00920021

>  <Name>
ligand

>  <RI>
0

>  <Rbt.Current_Directory>
/home/itssahil/PROJECTS/Mol_Feturizer/New_Systems/rnas/4GPX

>  <Rbt.Executable>
rbdock ($Id: //depot/dev/client3/rdock/2013.1/src/exe/rbdock.cxx#4 $)

>  <Rbt.Library>
libRbt.so (2013.1, Build901 2013/11/27)

>  <Rbt.Parameter_File>
/export/apps/rDock/src/rDock_2013.1_src/data/scripts/dock_solv.prm

>  <Rbt.Receptor>
prm/pocket_docking_4.prm

>  <SCORE>
-20.7923

>  <SCORE.INTER>
-16.7612

>  <SCORE.INTER.CONST>
1

>  <SCORE.INTER.POLAR>
0

>  <SCORE.INTER.ROT>
6

>  <SCORE.INTER.SOLV>
19.2803

>  <SCORE.INTER.VDW>
-25.2009

>  <SCORE.INTER.norm>
-0.540683

>  <SCORE.INTRA>
-4.03111

>  <SCORE.INTRA.DIHEDRAL>
-10.2693

>  <SCORE.INTRA.DIHEDRAL.0>
20.6841

>  <SCORE.INTRA.POLAR>
0

>  <SCORE.INTRA.POLAR.0>
0

>  <SCORE.INTRA.REPUL>
0

>  <SCORE.INTRA.REPUL.0>
0

>  <SCORE.INTRA.SOLV>
-0.379099

>  <SCORE.INTRA.SOLV.lig_0>
-64.6797

>  <SCORE.INTRA.VDW>
1.29308

>  <SCORE.INTRA.VDW.0>
-4.11825

>  <SCORE.INTRA.norm>
-0.130036

>  <SCORE.RESTR>
0

>  <SCORE.RESTR.CAVITY>
0

>  <SCORE.RESTR.norm>
0

>  <SCORE.SYSTEM>
0

>  <SCORE.SYSTEM.CONST>
0

>  <SCORE.SYSTEM.DIHEDRAL>
0

>  <SCORE.SYSTEM.SOLV>
0

>  <SCORE.SYSTEM.norm>
0

>  <SCORE.heavy>
31

>  <SCORE.norm>
-0.670718

>  <RMSD>
0.892

$$$$
ligand
 OpenBabel11021811493D
libRbt.so/2013.1/901 2013/11/27
 31 33  0  0  0  0  0  0  0  0999 V2000
   -3.2447   14.6008    4.9050 C   0  0  2  0  0  0  0  0  0  0  0  0
   -3.7518   14.7616    6.2264 O   0  0  0  0  0  0  0  0  0  0  0  0
   -4.4657   12.6834    9.8672 C   0  0  2  0  0  0  0  0  0  0  0  0
   -4.8296   11.6322   10.7669 N   0  0  0  0  0  0  0  0  0  0  0  0
   -1.9910   10.6049   10.4080 C   0  0  2  0  0  0  0  0  0  0  0  0
   -3.0455   16.0576    4.3185 C   0  0  2  0  0  0  0  0  0  0  0  0
   -2.1145   16.7848    5.1750 N   0  0  0  0  0  0  0  0  0  0  0  0
   -5.7166   13.0130    8.9526 C   0  0  0  0  0  0  0  0  0  0  0  0
   -0.9517   10.8412   11.5494 C   0  0  2  0  0  0  0  0  0  0  0  0
   -1.4646   11.8257   12.4213 O   0  0  0  0  0  0  0  0  0  0  0  0
   -4.4324   16.8117    4.2351 C   0  0  0  0  0  0  0  0  0  0  0  0
   -5.3188   14.1681    7.9591 C   0  0  2  0  0  0  0  0  0  0  0  0
   -6.4767   14.4753    7.1020 N   0  0  0  0  0  0  0  0  0  0  0  0
    0.3844   11.3289   10.8707 C   0  0  1  0  0  0  0  0  0  0  0  0
    1.4203   11.5927   11.9235 N   0  0  0  0  0  0  0  0  0  0  0  0
   -5.6192   15.8463    3.8121 C   0  0  0  0  0  0  0  0  0  0  0  0
   -4.0802   13.7109    7.0689 C   0  0  2  0  0  0  0  0  0  0  0  0
    0.9081   10.1429    9.8821 C   0  0  1  0  0  0  0  0  0  0  0  0
    1.1276    8.9245   10.5725 O   0  0  0  0  0  0  0  0  0  0  0  0
   -5.4410   14.5000    3.7542 C   0  0  2  0  0  0  0  0  0  0  0  0
   -4.1901   13.8758    4.0657 O   0  0  0  0  0  0  0  0  0  0  0  0
   -2.8567   13.3807    8.0018 C   0  0  2  0  0  0  0  0  0  0  0  0
   -1.7420   12.9577    7.1875 O   0  0  0  0  0  0  0  0  0  0  0  0
   -0.1637    9.8571    8.7805 C   0  0  0  0  0  0  0  0  0  0  0  0
   -1.4837    9.5536    9.4388 O   0  0  0  0  0  0  0  0  0  0  0  0
   -6.5526   13.5297    3.3499 C   0  0  0  0  0  0  0  0  0  0  0  0
   -6.9924   12.8297    4.5377 O   0  0  0  0  0  0  0  0  0  0  0  0
   -3.2654   12.2106    8.9709 C   0  0  1  0  0  0  0  0  0  0  0  0
   -2.1677   11.9141    9.7757 O   0  0  0  0  0  0  0  0  0  0  0  0
    2.2228   10.4553    9.1273 C   0  0  0  0  0  0  0  0  0  0  0  0
    1.3459   12.8967   12.6137 C   0  0  0  0  0  0  0  0  0  0  0  0
  1  2  1  1  0  0  0
  1  6  1  0  0  0  0
  1 21  1  0  0  0  0
  3  4  1  1  0  0  0
  3  8  1  0  0  0  0
  3 28  1  0  0  0  0
  5  9  1  0  0  0  0
  5 25  1  0  0  0  0
  5 29  1  6  0  0  0
  6  7  1  1  0  0  0
  6 11  1  0  0  0  0
  8 12  1  0  0  0  0
  9 10  1  1  0  0  0
  9 14  1  0  0  0  0
 11 16  1  0  0  0  0
 12 13  1  6  0  0  0
 12 17  1  0  0  0  0
 14 15  1  1  0  0  0
 14 18  1  0  0  0  0
 15 31  1  0  0  0  0
 16 20  1  0  0  0  0
 17  2  1  6  0  0  0
 17 22  1  0  0  0  0
 18 19  1  1  0  0  0
 18 24  1  0  0  0  0
 18 30  1  0  0  0  0
 20 21  1  0  0  0  0
 20 26  1  6  0  0  0
 22 23  1  6  0  0  0
 22 28  1  0  0  0  0
 24 25  1  0  0  0  0
 26 27  1  0  0  0  0
 28 29  1  1  0  0  0
M  END
>  <CHROM.1>
178.85016998,-161.82758512,-81.66249444,-146.40909120,-107.15348948,85.30840426
-2.72109351,12.80437354,7.99403353,-2.18555152,-0.03217414,2.12498614

>  <Name>
ligand

>  <RI>
0

>  <Rbt.Current_Directory>
/home/itssahil/PROJECTS/Mol_Feturizer/New_Systems/rnas/4GPX

>  <Rbt.Executable>
rbdock ($Id: //depot/dev/client3/rdock/2013.1/src/exe/rbdock.cxx#4 $)

>  <Rbt.Library>
libRbt.so (2013.1, Build901 2013/11/27)

>  <Rbt.Parameter_File>
/export/apps/rDock/src/rDock_2013.1_src/data/scripts/dock_solv.prm

>  <Rbt.Receptor>
prm/pocket_docking_4.prm

>  <SCORE>
-20.9543

>  <SCORE.INTER>
-16.4772

>  <SCORE.INTER.CONST>
1

>  <SCORE.INTER.POLAR>
0

>  <SCORE.INTER.ROT>
6

>  <SCORE.INTER.SOLV>
18.746

>  <SCORE.INTER.VDW>
-24.8335

>  <SCORE.INTER.norm>
-0.531522

>  <SCORE.INTRA>
-4.47707

>  <SCORE.INTRA.DIHEDRAL>
-9.92691

>  <SCORE.INTRA.DIHEDRAL.0>
20.6841

>  <SCORE.INTRA.POLAR>
0

>  <SCORE.INTRA.POLAR.0>
0

>  <SCORE.INTRA.REPUL>
0

>  <SCORE.INTRA.REPUL.0>
0

>  <SCORE.INTRA.SOLV>
1.09432

>  <SCORE.INTRA.SOLV.lig_0>
-64.6797

>  <SCORE.INTRA.VDW>
-0.0607788

>  <SCORE.INTRA.VDW.0>
-4.11825

>  <SCORE.INTRA.norm>
-0.144422

>  <SCORE.RESTR>
0

>  <SCORE.RESTR.CAVITY>
0

>  <SCORE.RESTR.norm>
0

>  <SCORE.SYSTEM>
0

>  <SCORE.SYSTEM.CONST>
0

>  <SCORE.SYSTEM.DIHEDRAL>
0

>  <SCORE.SYSTEM.SOLV>
0

>  <SCORE.SYSTEM.norm>
0

>  <SCORE.heavy>
31

>  <SCORE.norm>
-0.675944

>  <RMSD>
0.965

$$$$
ligand
 OpenBabel11021811493D
libRbt.so/2013.1/901 2013/11/27
 31 33  0  0  0  0  0  0  0  0999 V2000
   -3.8559   14.2111    4.7498 C   0  0  2  0  0  0  0  0  0  0  0  0
   -4.4461   14.4175    6.0298 O   0  0  0  0  0  0  0  0  0  0  0  0
   -4.2980   12.6438    9.8919 C   0  0  2  0  0  0  0  0  0  0  0  0
   -4.4311   11.6684   10.9301 N   0  0  0  0  0  0  0  0  0  0  0  0
   -1.0764   10.9772    8.7603 C   0  0  2  0  0  0  0  0  0  0  0  0
   -3.6237   15.6465    4.1240 C   0  0  2  0  0  0  0  0  0  0  0  0
   -2.7505   16.4088    5.0104 N   0  0  0  0  0  0  0  0  0  0  0  0
   -5.7259   12.8881    9.2505 C   0  0  0  0  0  0  0  0  0  0  0  0
   -0.1628   10.5255    9.9435 C   0  0  2  0  0  0  0  0  0  0  0  0
   -0.9740    9.9138   10.9235 O   0  0  0  0  0  0  0  0  0  0  0  0
   -5.0043   16.3903    3.9255 C   0  0  0  0  0  0  0  0  0  0  0  0
   -5.5828   13.9594    8.1054 C   0  0  2  0  0  0  0  0  0  0  0  0
   -6.9068   14.1868    7.5013 N   0  0  0  0  0  0  0  0  0  0  0  0
    0.5349   11.8181   10.5146 C   0  0  1  0  0  0  0  0  0  0  0  0
    1.4150   11.4490   11.6724 N   0  0  0  0  0  0  0  0  0  0  0  0
   -6.1596   15.4044    3.4641 C   0  0  0  0  0  0  0  0  0  0  0  0
   -4.5571   13.4382    7.0045 C   0  0  2  0  0  0  0  0  0  0  0  0
    1.4463   12.4639    9.3269 C   0  0  1  0  0  0  0  0  0  0  0  0
    2.4214   11.5561    8.8428 O   0  0  0  0  0  0  0  0  0  0  0  0
   -5.9748   14.0577    3.4670 C   0  0  2  0  0  0  0  0  0  0  0  0
   -4.7445   13.4514    3.8797 O   0  0  0  0  0  0  0  0  0  0  0  0
   -3.1519   13.1946    7.6697 C   0  0  2  0  0  0  0  0  0  0  0  0
   -2.2314   12.7129    6.6672 O   0  0  0  0  0  0  0  0  0  0  0  0
    0.5406   12.8517    8.1131 C   0  0  0  0  0  0  0  0  0  0  0  0
   -0.2498   11.6459    7.6780 O   0  0  0  0  0  0  0  0  0  0  0  0
   -7.0561   13.0680    3.0292 C   0  0  0  0  0  0  0  0  0  0  0  0
   -8.2392   13.8224    2.6749 O   0  0  0  0  0  0  0  0  0  0  0  0
   -3.3107   12.1062    8.7947 C   0  0  1  0  0  0  0  0  0  0  0  0
   -2.0570   11.8848    9.3603 O   0  0  0  0  0  0  0  0  0  0  0  0
    2.2105   13.7519    9.7177 C   0  0  0  0  0  0  0  0  0  0  0  0
    1.3561   12.3304   12.8563 C   0  0  0  0  0  0  0  0  0  0  0  0
  1  2  1  1  0  0  0
  1  6  1  0  0  0  0
  1 21  1  0  0  0  0
  3  4  1  1  0  0  0
  3  8  1  0  0  0  0
  3 28  1  0  0  0  0
  5  9  1  0  0  0  0
  5 25  1  0  0  0  0
  5 29  1  1  0  0  0
  6  7  1  1  0  0  0
  6 11  1  0  0  0  0
  8 12  1  0  0  0  0
  9 10  1  1  0  0  0
  9 14  1  0  0  0  0
 11 16  1  0  0  0  0
 12 13  1  6  0  0  0
 12 17  1  0  0  0  0
 14 15  1  1  0  0  0
 14 18  1  0  0  0  0
 15 31  1  0  0  0  0
 16 20  1  0  0  0  0
 17  2  1  6  0  0  0
 17 22  1  0  0  0  0
 18 19  1  6  0  0  0
 18 24  1  0  0  0  0
 18 30  1  0  0  0  0
 20 21  1  0  0  0  0
 20 26  1  6  0  0  0
 22 23  1  6  0  0  0
 22 28  1  0  0  0  0
 24 25  1  0  0  0  0
 26 27  1  0  0  0  0
 28 29  1  1  0  0  0
M  END
>  <CHROM.1>
-166.37104134,-155.22871178,-136.55640918,-165.85546205,-1.46918714,158.23774780
-2.77524767,13.04178694,7.53386762,-2.34197378,0.05040135,2.03926075

>  <Name>
ligand

>  <RI>
0

>  <Rbt.Current_Directory>
/home/itssahil/PROJECTS/Mol_Feturizer/New_Systems/rnas/4GPX

>  <Rbt.Executable>
rbdock ($Id: //depot/dev/client3/rdock/2013.1/src/exe/rbdock.cxx#4 $)

>  <Rbt.Library>
libRbt.so (2013.1, Build901 2013/11/27)

>  <Rbt.Parameter_File>
/export/apps/rDock/src/rDock_2013.1_src/data/scripts/dock_solv.prm

>  <Rbt.Receptor>
prm/pocket_docking_3.prm

>  <SCORE>
-17.4988

>  <SCORE.INTER>
-12.7407

>  <SCORE.INTER.CONST>
1

>  <SCORE.INTER.POLAR>
0

>  <SCORE.INTER.ROT>
6

>  <SCORE.INTER.SOLV>
19.0472

>  <SCORE.INTER.VDW>
-22.4429

>  <SCORE.INTER.norm>
-0.410991

>  <SCORE.INTRA>
-4.75808

>  <SCORE.INTRA.DIHEDRAL>
-11.4619

>  <SCORE.INTRA.DIHEDRAL.0>
20.6841

>  <SCORE.INTRA.POLAR>
0

>  <SCORE.INTRA.POLAR.0>
0

>  <SCORE.INTRA.REPUL>
0

>  <SCORE.INTRA.REPUL.0>
0

>  <SCORE.INTRA.SOLV>
-2.00907

>  <SCORE.INTRA.SOLV.lig_0>
-64.6797

>  <SCORE.INTRA.VDW>
1.97742

>  <SCORE.INTRA.VDW.0>
-4.11825

>  <SCORE.INTRA.norm>
-0.153486

>  <SCORE.RESTR>
0

>  <SCORE.RESTR.CAVITY>
0

>  <SCORE.RESTR.norm>
0

>  <SCORE.SYSTEM>
0

>  <SCORE.SYSTEM.CONST>
0

>  <SCORE.SYSTEM.DIHEDRAL>
0

>  <SCORE.SYSTEM.SOLV>
0

>  <SCORE.SYSTEM.norm>
0

>  <SCORE.heavy>
31

>  <SCORE.norm>
-0.564477

>  <RMSD>
1.112

$$$$
ligand
 OpenBabel11021811493D
libRbt.so/2013.1/901 2013/11/27
 31 33  0  0  0  0  0  0  0  0999 V2000
   -3.9070   14.2675    4.6915 C   0  0  2  0  0  0  0  0  0  0  0  0
   -4.3078   14.5062    6.0374 O   0  0  0  0  0  0  0  0  0  0  0  0
   -4.2419   12.6818    9.8782 C   0  0  2  0  0  0  0  0  0  0  0  0
   -4.4024   11.6948   10.9014 N   0  0  0  0  0  0  0  0  0  0  0  0
   -1.0122   11.0105    8.7664 C   0  0  2  0  0  0  0  0  0  0  0  0
   -3.5423   15.6783    4.0731 C   0  0  2  0  0  0  0  0  0  0  0  0
   -2.4701   16.2738    4.8636 N   0  0  0  0  0  0  0  0  0  0  0  0
   -5.6564   12.9500    9.2170 C   0  0  0  0  0  0  0  0  0  0  0  0
   -0.1225   10.5225    9.9534 C   0  0  2  0  0  0  0  0  0  0  0  0
   -0.9541    9.8870   10.9006 O   0  0  0  0  0  0  0  0  0  0  0  0
   -4.8133   16.6182    4.0587 C   0  0  0  0  0  0  0  0  0  0  0  0
   -5.4830   14.0342    8.0883 C   0  0  2  0  0  0  0  0  0  0  0  0
   -6.7945   14.2839    7.4660 N   0  0  0  0  0  0  0  0  0  0  0  0
    0.5687   11.7960   10.5734 C   0  0  1  0  0  0  0  0  0  0  0  0
    1.4256   11.3914   11.7366 N   0  0  0  0  0  0  0  0  0  0  0  0
   -6.1458   15.8253    3.7192 C   0  0  0  0  0  0  0  0  0  0  0  0
   -4.4452   13.5157    6.9976 C   0  0  2  0  0  0  0  0  0  0  0  0
    1.5044   12.4710    9.4214 C   0  0  1  0  0  0  0  0  0  0  0  0
    2.4854   11.5732    8.9305 O   0  0  0  0  0  0  0  0  0  0  0  0
   -6.1603   14.4669    3.6710 C   0  0  2  0  0  0  0  0  0  0  0  0
   -4.9921   13.6761    3.9189 O   0  0  0  0  0  0  0  0  0  0  0  0
   -3.0538   13.2482    7.6821 C   0  0  2  0  0  0  0  0  0  0  0  0
   -2.1224   12.7692    6.6884 O   0  0  0  0  0  0  0  0  0  0  0  0
    0.6231   12.8960    8.2022 C   0  0  0  0  0  0  0  0  0  0  0  0
   -0.1631   11.7059    7.7188 O   0  0  0  0  0  0  0  0  0  0  0  0
   -7.4180   13.6588    3.3458 C   0  0  0  0  0  0  0  0  0  0  0  0
   -7.0541   12.6189    2.4074 O   0  0  0  0  0  0  0  0  0  0  0  0
   -3.2427   12.1474    8.7903 C   0  0  1  0  0  0  0  0  0  0  0  0
   -2.0008   11.9049    9.3731 O   0  0  0  0  0  0  0  0  0  0  0  0
    2.2655   13.7446    9.8622 C   0  0  0  0  0  0  0  0  0  0  0  0
    1.4161   12.2889   12.9099 C   0  0  0  0  0  0  0  0  0  0  0  0
  1  2  1  1  0  0  0
  1  6  1  0  0  0  0
  1 21  1  0  0  0  0
  3  4  1  1  0  0  0
  3  8  1  0  0  0  0
  3 28  1  0  0  0  0
  5  9  1  0  0  0  0
  5 25  1  0  0  0  0
  5 29  1  1  0  0  0
  6  7  1  1  0  0  0
  6 11  1  0  0  0  0
  8 12  1  0  0  0  0
  9 10  1  1  0  0  0
  9 14  1  0  0  0  0
 11 16  1  0  0  0  0
 12 13  1  6  0  0  0
 12 17  1  0  0  0  0
 14 15  1  1  0  0  0
 14 18  1  0  0  0  0
 15 31  1  0  0  0  0
 16 20  1  0  0  0  0
 17  2  1  6  0  0  0
 17 22  1  0  0  0  0
 18 19  1  6  0  0  0
 18 24  1  0  0  0  0
 18 30  1  0  0  0  0
 20 21  1  0  0  0  0
 20 26  1  6  0  0  0
 22 23  1  6  0  0  0
 22 28  1  0  0  0  0
 24 25  1  0  0  0  0
 26 27  1  0  0  0  0
 28 29  1  1  0  0  0
M  END
>  <CHROM.1>
-166.31759602,-155.25848100,-140.49765511,-154.92053215,135.55743549,159.22165942
-2.69237159,13.07670118,7.56402495,-2.33222506,0.06474392,2.05946794

>  <Name>
ligand

>  <RI>
0

>  <Rbt.Current_Directory>
/home/itssahil/PROJECTS/Mol_Feturizer/New_Systems/rnas/4GPX

>  <Rbt.Executable>
rbdock ($Id: //depot/dev/client3/rdock/2013.1/src/exe/rbdock.cxx#4 $)

>  <Rbt.Library>
libRbt.so (2013.1, Build901 2013/11/27)

>  <Rbt.Parameter_File>
/export/apps/rDock/src/rDock_2013.1_src/data/scripts/dock_solv.prm

>  <Rbt.Receptor>
prm/pocket_docking_3.prm

>  <SCORE>
-17.2046

>  <SCORE.INTER>
-12.7496

>  <SCORE.INTER.CONST>
1

>  <SCORE.INTER.POLAR>
0

>  <SCORE.INTER.ROT>
6

>  <SCORE.INTER.SOLV>
19.894

>  <SCORE.INTER.VDW>
-22.731

>  <SCORE.INTER.norm>
-0.411276

>  <SCORE.INTRA>
-4.45506

>  <SCORE.INTRA.DIHEDRAL>
-9.69234

>  <SCORE.INTRA.DIHEDRAL.0>
20.6841

>  <SCORE.INTRA.POLAR>
0

>  <SCORE.INTRA.POLAR.0>
0

>  <SCORE.INTRA.REPUL>
0

>  <SCORE.INTRA.REPUL.0>
0

>  <SCORE.INTRA.SOLV>
-1.15976

>  <SCORE.INTRA.SOLV.lig_0>
-64.6797

>  <SCORE.INTRA.VDW>
0.970994

>  <SCORE.INTRA.VDW.0>
-4.11825

>  <SCORE.INTRA.norm>
-0.143712

>  <SCORE.RESTR>
0

>  <SCORE.RESTR.CAVITY>
0

>  <SCORE.RESTR.norm>
0

>  <SCORE.SYSTEM>
0

>  <SCORE.SYSTEM.CONST>
0

>  <SCORE.SYSTEM.DIHEDRAL>
0

>  <SCORE.SYSTEM.SOLV>
0

>  <SCORE.SYSTEM.norm>
0

>  <SCORE.heavy>
31

>  <SCORE.norm>
-0.554988

>  <RMSD>
1.112

$$$$
ligand
 OpenBabel11021811493D
libRbt.so/2013.1/901 2013/11/27
 31 33  0  0  0  0  0  0  0  0999 V2000
   -3.8323   14.4107    4.8065 C   0  0  2  0  0  0  0  0  0  0  0  0
   -4.3996   14.5839    6.1016 O   0  0  0  0  0  0  0  0  0  0  0  0
   -4.3270   12.6708    9.8988 C   0  0  2  0  0  0  0  0  0  0  0  0
   -4.4808   11.6586   10.8982 N   0  0  0  0  0  0  0  0  0  0  0  0
   -1.0818   11.0494    8.7639 C   0  0  2  0  0  0  0  0  0  0  0  0
   -3.5556   15.8621    4.2382 C   0  0  2  0  0  0  0  0  0  0  0  0
   -2.6451   16.5547    5.1440 N   0  0  0  0  0  0  0  0  0  0  0  0
   -5.7421   12.9405    9.2396 C   0  0  0  0  0  0  0  0  0  0  0  0
   -0.1804   10.5620    9.9422 C   0  0  2  0  0  0  0  0  0  0  0  0
   -0.9997    9.9099   10.8888 O   0  0  0  0  0  0  0  0  0  0  0  0
   -4.9106   16.6624    4.0891 C   0  0  0  0  0  0  0  0  0  0  0  0
   -5.5761   14.0525    8.1372 C   0  0  2  0  0  0  0  0  0  0  0  0
   -6.8882   14.3038    7.5166 N   0  0  0  0  0  0  0  0  0  0  0  0
    0.5001   11.8381   10.5685 C   0  0  1  0  0  0  0  0  0  0  0  0
    1.3677   11.4339   11.7239 N   0  0  0  0  0  0  0  0  0  0  0  0
   -6.1062   15.7387    3.6023 C   0  0  0  0  0  0  0  0  0  0  0  0
   -4.5300   13.5700    7.0379 C   0  0  2  0  0  0  0  0  0  0  0  0
    1.4221   12.5324    9.4169 C   0  0  1  0  0  0  0  0  0  0  0  0
    2.4103   11.6494    8.9137 O   0  0  0  0  0  0  0  0  0  0  0  0
   -5.9702   14.3874    3.5466 C   0  0  2  0  0  0  0  0  0  0  0  0
   -4.7579   13.7206    3.9172 O   0  0  0  0  0  0  0  0  0  0  0  0
   -3.1381   13.3002    7.7204 C   0  0  2  0  0  0  0  0  0  0  0  0
   -2.1990   12.8537    6.7188 O   0  0  0  0  0  0  0  0  0  0  0  0
    0.5295   12.9572    8.2058 C   0  0  0  0  0  0  0  0  0  0  0  0
   -0.2461   11.7623    7.7173 O   0  0  0  0  0  0  0  0  0  0  0  0
   -7.0917   13.4562    3.0821 C   0  0  0  0  0  0  0  0  0  0  0  0
   -7.6358   12.7919    4.2470 O   0  0  0  0  0  0  0  0  0  0  0  0
   -3.3193   12.1719    8.8019 C   0  0  1  0  0  0  0  0  0  0  0  0
   -2.0769   11.9280    9.3829 O   0  0  0  0  0  0  0  0  0  0  0  0
    2.1715   13.8109    9.8637 C   0  0  0  0  0  0  0  0  0  0  0  0
    1.3603   12.3258   12.9014 C   0  0  0  0  0  0  0  0  0  0  0  0
  1  2  1  1  0  0  0
  1  6  1  0  0  0  0
  1 21  1  0  0  0  0
  3  4  1  1  0  0  0
  3  8  1  0  0  0  0
  3 28  1  0  0  0  0
  5  9  1  0  0  0  0
  5 25  1  0  0  0  0
  5 29  1  1  0  0  0
  6  7  1  1  0  0  0
  6 11  1  0  0  0  0
  8 12  1  0  0  0  0
  9 10  1  1  0  0  0
  9 14  1  0  0  0  0
 11 16  1  0  0  0  0
 12 13  1  6  0  0  0
 12 17  1  0  0  0  0
 14 15  1  1  0  0  0
 14 18  1  0  0  0  0
 15 31  1  0  0  0  0
 16 20  1  0  0  0  0
 17  2  1  6  0  0  0
 17 22  1  0  0  0  0
 18 19  1  6  0  0  0
 18 24  1  0  0  0  0
 18 30  1  0  0  0  0
 20 21  1  0  0  0  0
 20 26  1  6  0  0  0
 22 23  1  6  0  0  0
 22 28  1  0  0  0  0
 24 25  1  0  0  0  0
 26 27  1  0  0  0  0
 28 29  1  1  0  0  0
M  END
>  <CHROM.1>
-166.12402979,-155.91661336,-140.81388653,-163.29440749,-105.76445201,158.72137080
-2.74969107,13.12084783,7.64177728,-2.34910697,0.09037843,2.10811792

>  <Name>
ligand

>  <RI>
0

>  <Rbt.Current_Directory>
/home/itssahil/PROJECTS/Mol_Feturizer/New_Systems/rnas/4GPX

>  <Rbt.Executable>
rbdock ($Id: //depot/dev/client3/rdock/2013.1/src/exe/rbdock.cxx#4 $)

>  <Rbt.Library>
libRbt.so (2013.1, Build901 2013/11/27)

>  <Rbt.Parameter_File>
/export/apps/rDock/src/rDock_2013.1_src/data/scripts/dock_solv.prm

>  <Rbt.Receptor>
prm/pocket_docking_5.prm

>  <SCORE>
-17.8961

>  <SCORE.INTER>
-12.6464

>  <SCORE.INTER.CONST>
1

>  <SCORE.INTER.POLAR>
0

>  <SCORE.INTER.ROT>
6

>  <SCORE.INTER.SOLV>
18.9278

>  <SCORE.INTER.VDW>
-22.3402

>  <SCORE.INTER.norm>
-0.40795

>  <SCORE.INTRA>
-5.24961

>  <SCORE.INTRA.DIHEDRAL>
-11.1486

>  <SCORE.INTRA.DIHEDRAL.0>
20.6841

>  <SCORE.INTRA.POLAR>
0

>  <SCORE.INTRA.POLAR.0>
0

>  <SCORE.INTRA.REPUL>
0

>  <SCORE.INTRA.REPUL.0>
0

>  <SCORE.INTRA.SOLV>
-1.28136

>  <SCORE.INTRA.SOLV.lig_0>
-64.6797

>  <SCORE.INTRA.VDW>
0.965397

>  <SCORE.INTRA.VDW.0>
-4.11825

>  <SCORE.INTRA.norm>
-0.169342

>  <SCORE.RESTR>
0

>  <SCORE.RESTR.CAVITY>
0

>  <SCORE.RESTR.norm>
0

>  <SCORE.SYSTEM>
0

>  <SCORE.SYSTEM.CONST>
0

>  <SCORE.SYSTEM.DIHEDRAL>
0

>  <SCORE.SYSTEM.SOLV>
0

>  <SCORE.SYSTEM.norm>
0

>  <SCORE.heavy>
31

>  <SCORE.norm>
-0.577292

>  <RMSD>
1.112

$$$$
ligand
 OpenBabel11021811493D
libRbt.so/2013.1/901 2013/11/27
 31 33  0  0  0  0  0  0  0  0999 V2000
   -3.7334   14.7140    4.6541 C   0  0  2  0  0  0  0  0  0  0  0  0
   -4.2687   14.8101    5.9707 O   0  0  0  0  0  0  0  0  0  0  0  0
   -3.7611   12.9639    9.7679 C   0  0  2  0  0  0  0  0  0  0  0  0
   -3.7193   11.9487   10.7751 N   0  0  0  0  0  0  0  0  0  0  0  0
   -1.0206   11.5328   10.1090 C   0  0  2  0  0  0  0  0  0  0  0  0
   -3.7184   16.1835    4.0656 C   0  0  2  0  0  0  0  0  0  0  0  0
   -2.8963   17.0257    4.9282 N   0  0  0  0  0  0  0  0  0  0  0  0
   -5.2242   13.0056    9.1615 C   0  0  0  0  0  0  0  0  0  0  0  0
    0.4633   11.8750   10.4548 C   0  0  2  0  0  0  0  0  0  0  0  0
    0.5044   13.1772   10.9981 O   0  0  0  0  0  0  0  0  0  0  0  0
   -5.1900   16.7525    3.9683 C   0  0  0  0  0  0  0  0  0  0  0  0
   -5.2732   14.1204    8.0505 C   0  0  2  0  0  0  0  0  0  0  0  0
   -6.6301   14.1601    7.4790 N   0  0  0  0  0  0  0  0  0  0  0  0
    1.2856   11.7971    9.1126 C   0  0  1  0  0  0  0  0  0  0  0  0
    2.7225   12.1371    9.3785 N   0  0  0  0  0  0  0  0  0  0  0  0
   -6.2389   15.6417    3.5377 C   0  0  0  0  0  0  0  0  0  0  0  0
   -4.2059   13.7962    6.9140 C   0  0  2  0  0  0  0  0  0  0  0  0
    1.1864   10.2699    8.5503 C   0  0  1  0  0  0  0  0  0  0  0  0
    1.6792    9.3208    9.4807 O   0  0  0  0  0  0  0  0  0  0  0  0
   -5.8883   14.3294    3.4848 C   0  0  2  0  0  0  0  0  0  0  0  0
   -4.5701   13.8720    3.8087 O   0  0  0  0  0  0  0  0  0  0  0  0
   -2.7649   13.7511    7.5446 C   0  0  2  0  0  0  0  0  0  0  0  0
   -1.8053   13.4469    6.5096 O   0  0  0  0  0  0  0  0  0  0  0  0
   -0.3071    9.9025    8.2704 C   0  0  0  0  0  0  0  0  0  0  0  0
   -1.1188   10.1395    9.5166 O   0  0  0  0  0  0  0  0  0  0  0  0
   -6.8620   13.2235    3.0736 C   0  0  0  0  0  0  0  0  0  0  0  0
   -7.5158   12.7330    4.2679 O   0  0  0  0  0  0  0  0  0  0  0  0
   -2.7292   12.6177    8.6352 C   0  0  1  0  0  0  0  0  0  0  0  0
   -1.4435   12.5741    9.1698 O   0  0  0  0  0  0  0  0  0  0  0  0
    1.9447   10.0115    7.2259 C   0  0  0  0  0  0  0  0  0  0  0  0
    3.1355   13.5287    9.1043 C   0  0  0  0  0  0  0  0  0  0  0  0
  1  2  1  1  0  0  0
  1  6  1  0  0  0  0
  1 21  1  0  0  0  0
  3  4  1  1  0  0  0
  3  8  1  0  0  0  0
  3 28  1  0  0  0  0
  5  9  1  0  0  0  0
  5 25  1  0  0  0  0
  5 29  1  6  0  0  0
  6  7  1  1  0  0  0
  6 11  1  0  0  0  0
  8 12  1  0  0  0  0
  9 10  1  6  0  0  0
  9 14  1  0  0  0  0
 11 16  1  0  0  0  0
 12 13  1  6  0  0  0
 12 17  1  0  0  0  0
 14 15  1  1  0  0  0
 14 18  1  0  0  0  0
 15 31  1  0  0  0  0
 16 20  1  0  0  0  0
 17  2  1  6  0  0  0
 17 22  1  0  0  0  0
 18 19  1  1  0  0  0
 18 24  1  0  0  0  0
 18 30  1  0  0  0  0
 20 21  1  0  0  0  0
 20 26  1  6  0  0  0
 22 23  1  6  0  0  0
 22 28  1  0  0  0  0
 24 25  1  0  0  0  0
 26 27  1  0  0  0  0
 28 29  1  1  0  0  0
M  END
>  <CHROM.1>
-166.72067880,-179.39925240,-97.24004865,-163.06335328,-90.68187605,68.16864980
-2.49318032,13.05376690,7.35154455,-2.40188748,-0.05461334,2.11940869

>  <Name>
ligand

>  <RI>
0

>  <Rbt.Current_Directory>
/home/itssahil/PROJECTS/Mol_Feturizer/New_Systems/rnas/4GPX

>  <Rbt.Executable>
rbdock ($Id: //depot/dev/client3/rdock/2013.1/src/exe/rbdock.cxx#4 $)

>  <Rbt.Library>
libRbt.so (2013.1, Build901 2013/11/27)

>  <Rbt.Parameter_File>
/export/apps/rDock/src/rDock_2013.1_src/data/scripts/dock_solv.prm

>  <Rbt.Receptor>
prm/pocket_docking_5.prm

>  <SCORE>
-17.5409

>  <SCORE.INTER>
-10.4127

>  <SCORE.INTER.CONST>
1

>  <SCORE.INTER.POLAR>
0

>  <SCORE.INTER.ROT>
6

>  <SCORE.INTER.SOLV>
16.8

>  <SCORE.INTER.VDW>
-20.1418

>  <SCORE.INTER.norm>
-0.335894

>  <SCORE.INTRA>
-7.12816

>  <SCORE.INTRA.DIHEDRAL>
-14.7592

>  <SCORE.INTRA.DIHEDRAL.0>
20.6841

>  <SCORE.INTRA.POLAR>
0

>  <SCORE.INTRA.POLAR.0>
0

>  <SCORE.INTRA.REPUL>
0

>  <SCORE.INTRA.REPUL.0>
0

>  <SCORE.INTRA.SOLV>
-0.516605

>  <SCORE.INTRA.SOLV.lig_0>
-64.6797

>  <SCORE.INTRA.VDW>
0.509741

>  <SCORE.INTRA.VDW.0>
-4.11825

>  <SCORE.INTRA.norm>
-0.229941

>  <SCORE.RESTR>
0

>  <SCORE.RESTR.CAVITY>
0

>  <SCORE.RESTR.norm>
0

>  <SCORE.SYSTEM>
0

>  <SCORE.SYSTEM.CONST>
0

>  <SCORE.SYSTEM.DIHEDRAL>
0

>  <SCORE.SYSTEM.SOLV>
0

>  <SCORE.SYSTEM.norm>
0

>  <SCORE.heavy>
31

>  <SCORE.norm>
-0.565834

>  <RMSD>
1.480

$$$$
ligand
 OpenBabel11021811493D
libRbt.so/2013.1/901 2013/11/27
 31 33  0  0  0  0  0  0  0  0999 V2000
   -4.2465   14.2158    4.5700 C   0  0  2  0  0  0  0  0  0  0  0  0
   -4.6793   14.4469    5.9073 O   0  0  0  0  0  0  0  0  0  0  0  0
   -4.0734   12.5759    9.6778 C   0  0  2  0  0  0  0  0  0  0  0  0
   -4.1467   11.6022   10.7234 N   0  0  0  0  0  0  0  0  0  0  0  0
   -1.3339   10.5903    7.9222 C   0  0  2  0  0  0  0  0  0  0  0  0
   -3.7205   15.6041    4.0204 C   0  0  2  0  0  0  0  0  0  0  0  0
   -2.6304   16.0639    4.8744 N   0  0  0  0  0  0  0  0  0  0  0  0
   -5.5475   13.0246    9.3093 C   0  0  0  0  0  0  0  0  0  0  0  0
   -0.4764    9.7671    8.9350 C   0  0  2  0  0  0  0  0  0  0  0  0
   -1.3488    9.1459    9.8546 O   0  0  0  0  0  0  0  0  0  0  0  0
   -4.8926   16.6645    3.9921 C   0  0  0  0  0  0  0  0  0  0  0  0
   -5.4707   14.0947    8.1566 C   0  0  2  0  0  0  0  0  0  0  0  0
   -6.8392   14.5117    7.8058 N   0  0  0  0  0  0  0  0  0  0  0  0
    0.4849   10.7804    9.6649 C   0  0  1  0  0  0  0  0  0  0  0  0
    1.3246   10.0479   10.6695 N   0  0  0  0  0  0  0  0  0  0  0  0
   -6.2800   16.0187    3.5707 C   0  0  0  0  0  0  0  0  0  0  0  0
   -4.7431   13.4678    6.8865 C   0  0  2  0  0  0  0  0  0  0  0  0
    1.4532   11.4543    8.5394 C   0  0  1  0  0  0  0  0  0  0  0  0
    2.2098   10.4870    7.8316 O   0  0  0  0  0  0  0  0  0  0  0  0
   -6.4242   14.6708    3.4703 C   0  0  2  0  0  0  0  0  0  0  0  0
   -5.3498   13.7608    3.7336 O   0  0  0  0  0  0  0  0  0  0  0  0
   -3.2868   13.0223    7.2826 C   0  0  2  0  0  0  0  0  0  0  0  0
   -2.6382   12.4463    6.1284 O   0  0  0  0  0  0  0  0  0  0  0  0
    0.5897   12.2200    7.4849 C   0  0  0  0  0  0  0  0  0  0  0  0
   -0.4396   11.2826    6.9108 O   0  0  0  0  0  0  0  0  0  0  0  0
   -7.7393   14.0019    3.0657 C   0  0  0  0  0  0  0  0  0  0  0  0
   -7.4296   12.7047    2.5040 O   0  0  0  0  0  0  0  0  0  0  0  0
   -3.3846   11.9379    8.4184 C   0  0  1  0  0  0  0  0  0  0  0  0
   -2.0909   11.5370    8.7443 O   0  0  0  0  0  0  0  0  0  0  0  0
    2.4710   12.4842    9.0863 C   0  0  0  0  0  0  0  0  0  0  0  0
    1.9962    8.8185   10.2007 C   0  0  0  0  0  0  0  0  0  0  0  0
  1  2  1  1  0  0  0
  1  6  1  0  0  0  0
  1 21  1  0  0  0  0
  3  4  1  1  0  0  0
  3  8  1  0  0  0  0
  3 28  1  0  0  0  0
  5  9  1  0  0  0  0
  5 25  1  0  0  0  0
  5 29  1  1  0  0  0
  6  7  1  1  0  0  0
  6 11  1  0  0  0  0
  8 12  1  0  0  0  0
  9 10  1  1  0  0  0
  9 14  1  0  0  0  0
 11 16  1  0  0  0  0
 12 13  1  6  0  0  0
 12 17  1  0  0  0  0
 14 15  1  1  0  0  0
 14 18  1  0  0  0  0
 15 31  1  0  0  0  0
 16 20  1  0  0  0  0
 17  2  1  6  0  0  0
 17 22  1  0  0  0  0
 18 19  1  6  0  0  0
 18 24  1  0  0  0  0
 18 30  1  0  0  0  0
 20 21  1  0  0  0  0
 20 26  1  6  0  0  0
 22 23  1  6  0  0  0
 22 28  1  0  0  0  0
 24 25  1  0  0  0  0
 26 27  1  0  0  0  0
 28 29  1  1  0  0  0
M  END
>  <CHROM.1>
-155.26838074,-145.71145359,48.62738826,-171.90716547,155.53238805,162.57219796
-2.84014026,12.65994865,7.07439596,-2.38106362,-0.18082571,2.08004046

>  <Name>
ligand

>  <RI>
0

>  <Rbt.Current_Directory>
/home/itssahil/PROJECTS/Mol_Feturizer/New_Systems/rnas/4GPX

>  <Rbt.Executable>
rbdock ($Id: //depot/dev/client3/rdock/2013.1/src/exe/rbdock.cxx#4 $)

>  <Rbt.Library>
libRbt.so (2013.1, Build901 2013/11/27)

>  <Rbt.Parameter_File>
/export/apps/rDock/src/rDock_2013.1_src/data/scripts/dock_solv.prm

>  <Rbt.Receptor>
prm/pocket_docking_2.prm

>  <SCORE>
-12.6233

>  <SCORE.INTER>
-10.5444

>  <SCORE.INTER.CONST>
1

>  <SCORE.INTER.POLAR>
0

>  <SCORE.INTER.ROT>
6

>  <SCORE.INTER.SOLV>
22.6185

>  <SCORE.INTER.VDW>
-22.1691

>  <SCORE.INTER.norm>
-0.340141

>  <SCORE.INTRA>
-2.28058

>  <SCORE.INTRA.DIHEDRAL>
-8.92156

>  <SCORE.INTRA.DIHEDRAL.0>
20.6841

>  <SCORE.INTRA.POLAR>
0

>  <SCORE.INTRA.POLAR.0>
0

>  <SCORE.INTRA.REPUL>
0

>  <SCORE.INTRA.REPUL.0>
0

>  <SCORE.INTRA.SOLV>
-1.75031

>  <SCORE.INTRA.SOLV.lig_0>
-64.6797

>  <SCORE.INTRA.VDW>
3.05535

>  <SCORE.INTRA.VDW.0>
-4.11825

>  <SCORE.INTRA.norm>
-0.0735671

>  <SCORE.RESTR>
0.201655

>  <SCORE.RESTR.CAVITY>
0.201655

>  <SCORE.RESTR.norm>
0.00650501

>  <SCORE.SYSTEM>
0

>  <SCORE.SYSTEM.CONST>
0

>  <SCORE.SYSTEM.DIHEDRAL>
0

>  <SCORE.SYSTEM.SOLV>
0

>  <SCORE.SYSTEM.norm>
0

>  <SCORE.heavy>
31

>  <SCORE.norm>
-0.407204

>  <RMSD>
1.481

$$$$
ligand
 OpenBabel11021811493D
libRbt.so/2013.1/901 2013/11/27
 31 33  0  0  0  0  0  0  0  0999 V2000
   -4.1631   14.0646    4.8815 C   0  0  2  0  0  0  0  0  0  0  0  0
   -4.7326   14.3277    6.1604 O   0  0  0  0  0  0  0  0  0  0  0  0
   -4.2734   12.9490   10.1569 C   0  0  2  0  0  0  0  0  0  0  0  0
   -4.2689   12.0669   11.2833 N   0  0  0  0  0  0  0  0  0  0  0  0
   -1.6256   11.5157   10.7320 C   0  0  2  0  0  0  0  0  0  0  0  0
   -3.7494   15.4673    4.2753 C   0  0  2  0  0  0  0  0  0  0  0  0
   -2.7948   16.1044    5.1765 N   0  0  0  0  0  0  0  0  0  0  0  0
   -5.7390   12.9841    9.5563 C   0  0  0  0  0  0  0  0  0  0  0  0
   -0.1071   11.7808   10.9818 C   0  0  2  0  0  0  0  0  0  0  0  0
    0.0671   13.1570   11.2435 O   0  0  0  0  0  0  0  0  0  0  0  0
   -5.0253   16.3795    4.0781 C   0  0  0  0  0  0  0  0  0  0  0  0
   -5.7470   13.9523    8.3144 C   0  0  2  0  0  0  0  0  0  0  0  0
   -7.1064   13.9848    7.7481 N   0  0  0  0  0  0  0  0  0  0  0  0
    0.6630   11.3528    9.6750 C   0  0  1  0  0  0  0  0  0  0  0  0
    2.1321   11.6037    9.8477 N   0  0  0  0  0  0  0  0  0  0  0  0
   -6.2908   15.5506    3.5974 C   0  0  0  0  0  0  0  0  0  0  0  0
   -4.7077   13.4380    7.2231 C   0  0  2  0  0  0  0  0  0  0  0  0
    0.4104    9.7590    9.4420 C   0  0  1  0  0  0  0  0  0  0  0  0
    0.8451    8.9786   10.5427 O   0  0  0  0  0  0  0  0  0  0  0  0
   -6.2749   14.1915    3.5843 C   0  0  2  0  0  0  0  0  0  0  0  0
   -5.1327   13.4318    3.9964 O   0  0  0  0  0  0  0  0  0  0  0  0
   -3.2640   13.4035    7.8483 C   0  0  2  0  0  0  0  0  0  0  0  0
   -2.3302   12.9268    6.8557 O   0  0  0  0  0  0  0  0  0  0  0  0
   -1.1180    9.4837    9.2621 C   0  0  0  0  0  0  0  0  0  0  0  0
   -1.8662   10.0460   10.4418 O   0  0  0  0  0  0  0  0  0  0  0  0
   -7.4677   13.3493    3.1275 C   0  0  0  0  0  0  0  0  0  0  0  0
   -8.5647   14.2461    2.8332 O   0  0  0  0  0  0  0  0  0  0  0  0
   -3.2703   12.4150    9.0724 C   0  0  1  0  0  0  0  0  0  0  0  0
   -1.9827   12.3775    9.6028 O   0  0  0  0  0  0  0  0  0  0  0  0
    1.1011    9.1648    8.1908 C   0  0  0  0  0  0  0  0  0  0  0  0
    2.8791   12.0191    8.6429 C   0  0  0  0  0  0  0  0  0  0  0  0
  1  2  1  1  0  0  0
  1  6  1  0  0  0  0
  1 21  1  0  0  0  0
  3  4  1  1  0  0  0
  3  8  1  0  0  0  0
  3 28  1  0  0  0  0
  5  9  1  0  0  0  0
  5 25  1  0  0  0  0
  5 29  1  6  0  0  0
  6  7  1  1  0  0  0
  6 11  1  0  0  0  0
  8 12  1  0  0  0  0
  9 10  1  6  0  0  0
  9 14  1  0  0  0  0
 11 16  1  0  0  0  0
 12 13  1  6  0  0  0
 12 17  1  0  0  0  0
 14 15  1  1  0  0  0
 14 18  1  0  0  0  0
 15 31  1  0  0  0  0
 16 20  1  0  0  0  0
 17  2  1  6  0  0  0
 17 22  1  0  0  0  0
 18 19  1  1  0  0  0
 18 24  1  0  0  0  0
 18 30  1  0  0  0  0
 20 21  1  0  0  0  0
 20 26  1  6  0  0  0
 22 23  1  6  0  0  0
 22 28  1  0  0  0  0
 24 25  1  0  0  0  0
 26 27  1  0  0  0  0
 28 29  1  1  0  0  0
M  END
>  <CHROM.1>
-151.64263634,179.54447085,-145.76606792,-165.96968228,-4.00121126,63.38232555
-2.99942582,12.77162464,7.68041049,-2.34782533,-0.20915061,1.95220478

>  <Name>
ligand

>  <RI>
0

>  <Rbt.Current_Directory>
/home/itssahil/PROJECTS/Mol_Feturizer/New_Systems/rnas/4GPX

>  <Rbt.Executable>
rbdock ($Id: //depot/dev/client3/rdock/2013.1/src/exe/rbdock.cxx#4 $)

>  <Rbt.Library>
libRbt.so (2013.1, Build901 2013/11/27)

>  <Rbt.Parameter_File>
/export/apps/rDock/src/rDock_2013.1_src/data/scripts/dock_solv.prm

>  <Rbt.Receptor>
prm/pocket_docking_2.prm

>  <SCORE>
-18.3935

>  <SCORE.INTER>
-13.1534

>  <SCORE.INTER.CONST>
1

>  <SCORE.INTER.POLAR>
0

>  <SCORE.INTER.ROT>
6

>  <SCORE.INTER.SOLV>
18.3046

>  <SCORE.INTER.VDW>
-22.4705

>  <SCORE.INTER.norm>
-0.424303

>  <SCORE.INTRA>
-5.24455

>  <SCORE.INTRA.DIHEDRAL>
-13.9667

>  <SCORE.INTRA.DIHEDRAL.0>
20.6841

>  <SCORE.INTRA.POLAR>
0

>  <SCORE.INTRA.POLAR.0>
0

>  <SCORE.INTRA.REPUL>
0

>  <SCORE.INTRA.REPUL.0>
0

>  <SCORE.INTRA.SOLV>
-0.839743

>  <SCORE.INTRA.SOLV.lig_0>
-64.6797

>  <SCORE.INTRA.VDW>
2.15869

>  <SCORE.INTRA.VDW.0>
-4.11825

>  <SCORE.INTRA.norm>
-0.169179

>  <SCORE.RESTR>
0.00444447

>  <SCORE.RESTR.CAVITY>
0.00444447

>  <SCORE.RESTR.norm>
0.00014337

>  <SCORE.SYSTEM>
0

>  <SCORE.SYSTEM.CONST>
0

>  <SCORE.SYSTEM.DIHEDRAL>
0

>  <SCORE.SYSTEM.SOLV>
0

>  <SCORE.SYSTEM.norm>
0

>  <SCORE.heavy>
31

>  <SCORE.norm>
-0.593339

>  <RMSD>
1.523

$$$$
ligand
 OpenBabel11021811493D
libRbt.so/2013.1/901 2013/11/27
 31 33  0  0  0  0  0  0  0  0999 V2000
   -4.1046   14.0304    4.8427 C   0  0  2  0  0  0  0  0  0  0  0  0
   -4.6801   14.3127    6.1148 O   0  0  0  0  0  0  0  0  0  0  0  0
   -4.2472   12.9779   10.1292 C   0  0  2  0  0  0  0  0  0  0  0  0
   -4.2553   12.1096   11.2662 N   0  0  0  0  0  0  0  0  0  0  0  0
   -1.6170   11.5269   10.7319 C   0  0  2  0  0  0  0  0  0  0  0  0
   -3.7150   15.4258    4.2048 C   0  0  2  0  0  0  0  0  0  0  0  0
   -2.7728   16.1002    5.0918 N   0  0  0  0  0  0  0  0  0  0  0  0
   -5.7105   13.0210    9.5236 C   0  0  0  0  0  0  0  0  0  0  0  0
   -0.0958   11.7769   10.9814 C   0  0  2  0  0  0  0  0  0  0  0  0
    0.0948   13.1546   11.2227 O   0  0  0  0  0  0  0  0  0  0  0  0
   -5.0065   16.3106    3.9857 C   0  0  0  0  0  0  0  0  0  0  0  0
   -5.7048   13.9739    8.2701 C   0  0  2  0  0  0  0  0  0  0  0  0
   -7.0621   14.0137    7.6992 N   0  0  0  0  0  0  0  0  0  0  0  0
    0.6717   11.3198    9.6830 C   0  0  1  0  0  0  0  0  0  0  0  0
    2.1434   11.5551    9.8554 N   0  0  0  0  0  0  0  0  0  0  0  0
   -6.2567   15.4488    3.5232 C   0  0  0  0  0  0  0  0  0  0  0  0
   -4.6676   13.4357    7.1883 C   0  0  2  0  0  0  0  0  0  0  0  0
    0.3998    9.7259    9.4734 C   0  0  1  0  0  0  0  0  0  0  0  0
    0.8224    8.9569   10.5867 O   0  0  0  0  0  0  0  0  0  0  0  0
   -6.2168   14.0902    3.5414 C   0  0  2  0  0  0  0  0  0  0  0  0
   -5.0619   13.3604    3.9717 O   0  0  0  0  0  0  0  0  0  0  0  0
   -3.2263   13.3938    7.8184 C   0  0  2  0  0  0  0  0  0  0  0  0
   -2.2945   12.8955    6.8345 O   0  0  0  0  0  0  0  0  0  0  0  0
   -1.1314    9.4669    9.2940 C   0  0  0  0  0  0  0  0  0  0  0  0
   -1.8752   10.0562   10.4634 O   0  0  0  0  0  0  0  0  0  0  0  0
   -7.3940   13.2168    3.1032 C   0  0  0  0  0  0  0  0  0  0  0  0
   -8.4923   14.0890    2.7461 O   0  0  0  0  0  0  0  0  0  0  0  0
   -3.2465   12.4204    9.0543 C   0  0  1  0  0  0  0  0  0  0  0  0
   -1.9609   12.3760    9.5891 O   0  0  0  0  0  0  0  0  0  0  0  0
    1.0859    9.1044    8.2329 C   0  0  0  0  0  0  0  0  0  0  0  0
    2.8936   11.9672    8.6515 C   0  0  0  0  0  0  0  0  0  0  0  0
  1  2  1  1  0  0  0
  1  6  1  0  0  0  0
  1 21  1  0  0  0  0
  3  4  1  1  0  0  0
  3  8  1  0  0  0  0
  3 28  1  0  0  0  0
  5  9  1  0  0  0  0
  5 25  1  0  0  0  0
  5 29  1  6  0  0  0
  6  7  1  1  0  0  0
  6 11  1  0  0  0  0
  8 12  1  0  0  0  0
  9 10  1  6  0  0  0
  9 14  1  0  0  0  0
 11 16  1  0  0  0  0
 12 13  1  6  0  0  0
 12 17  1  0  0  0  0
 14 15  1  1  0  0  0
 14 18  1  0  0  0  0
 15 31  1  0  0  0  0
 16 20  1  0  0  0  0
 17  2  1  6  0  0  0
 17 22  1  0  0  0  0
 18 19  1  1  0  0  0
 18 24  1  0  0  0  0
 18 30  1  0  0  0  0
 20 21  1  0  0  0  0
 20 26  1  6  0  0  0
 22 23  1  6  0  0  0
 22 28  1  0  0  0  0
 24 25  1  0  0  0  0
 26 27  1  0  0  0  0
 28 29  1  1  0  0  0
M  END
>  <CHROM.1>
-153.19640873,179.47797714,-144.67339462,-166.24819716,-2.17278507,63.21787264
-2.97287892,12.74315178,7.65807394,-2.34218666,-0.21747516,1.93490014

>  <Name>
ligand

>  <RI>
0

>  <Rbt.Current_Directory>
/home/itssahil/PROJECTS/Mol_Feturizer/New_Systems/rnas/4GPX

>  <Rbt.Executable>
rbdock ($Id: //depot/dev/client3/rdock/2013.1/src/exe/rbdock.cxx#4 $)

>  <Rbt.Library>
libRbt.so (2013.1, Build901 2013/11/27)

>  <Rbt.Parameter_File>
/export/apps/rDock/src/rDock_2013.1_src/data/scripts/dock_solv.prm

>  <Rbt.Receptor>
prm/pocket_docking_2.prm

>  <SCORE>
-18.3497

>  <SCORE.INTER>
-12.9179

>  <SCORE.INTER.CONST>
1

>  <SCORE.INTER.POLAR>
0

>  <SCORE.INTER.ROT>
6

>  <SCORE.INTER.SOLV>
18.5656

>  <SCORE.INTER.VDW>
-22.4004

>  <SCORE.INTER.norm>
-0.416706

>  <SCORE.INTRA>
-5.43202

>  <SCORE.INTRA.DIHEDRAL>
-14.2783

>  <SCORE.INTRA.DIHEDRAL.0>
20.6841

>  <SCORE.INTRA.POLAR>
0

>  <SCORE.INTRA.POLAR.0>
0

>  <SCORE.INTRA.REPUL>
0

>  <SCORE.INTRA.REPUL.0>
0

>  <SCORE.INTRA.SOLV>
-0.885988

>  <SCORE.INTRA.SOLV.lig_0>
-64.6797

>  <SCORE.INTRA.VDW>
2.15011

>  <SCORE.INTRA.VDW.0>
-4.11825

>  <SCORE.INTRA.norm>
-0.175226

>  <SCORE.RESTR>
0.00022368

>  <SCORE.RESTR.CAVITY>
0.00022368

>  <SCORE.RESTR.norm>
7.21547e-06

>  <SCORE.SYSTEM>
0

>  <SCORE.SYSTEM.CONST>
0

>  <SCORE.SYSTEM.DIHEDRAL>
0

>  <SCORE.SYSTEM.SOLV>
0

>  <SCORE.SYSTEM.norm>
0

>  <SCORE.heavy>
31

>  <SCORE.norm>
-0.591925

>  <RMSD>
1.532

$$$$
ligand
 OpenBabel11021811493D
libRbt.so/2013.1/901 2013/11/27
 31 33  0  0  0  0  0  0  0  0999 V2000
   -4.1488   14.0283    4.8764 C   0  0  2  0  0  0  0  0  0  0  0  0
   -4.7344   14.3113    6.1437 O   0  0  0  0  0  0  0  0  0  0  0  0
   -4.2707   13.0019   10.1630 C   0  0  2  0  0  0  0  0  0  0  0  0
   -4.2721   12.1413   11.3059 N   0  0  0  0  0  0  0  0  0  0  0  0
   -1.6392   11.5375   10.7465 C   0  0  2  0  0  0  0  0  0  0  0  0
   -3.7417   15.4226    4.2469 C   0  0  2  0  0  0  0  0  0  0  0  0
   -2.8028   16.0865    5.1453 N   0  0  0  0  0  0  0  0  0  0  0  0
   -5.7393   13.0469    9.5704 C   0  0  0  0  0  0  0  0  0  0  0  0
   -0.1215   11.8051   10.9989 C   0  0  2  0  0  0  0  0  0  0  0  0
    0.0520   13.1840   11.2459 O   0  0  0  0  0  0  0  0  0  0  0  0
   -5.0237   16.3186    4.0181 C   0  0  0  0  0  0  0  0  0  0  0  0
   -5.7410   13.9914    8.3104 C   0  0  2  0  0  0  0  0  0  0  0  0
   -7.1032   14.0329    7.7515 N   0  0  0  0  0  0  0  0  0  0  0  0
    0.6532   11.3623    9.6998 C   0  0  1  0  0  0  0  0  0  0  0  0
    2.1217   11.6148    9.8751 N   0  0  0  0  0  0  0  0  0  0  0  0
   -6.2763   15.4684    3.5406 C   0  0  0  0  0  0  0  0  0  0  0  0
   -4.7159   13.4415    7.2230 C   0  0  2  0  0  0  0  0  0  0  0  0
    0.4010    9.7661    9.4837 C   0  0  1  0  0  0  0  0  0  0  0  0
    0.8315    8.9979   10.5946 O   0  0  0  0  0  0  0  0  0  0  0  0
   -6.2476   14.1095    3.5547 C   0  0  2  0  0  0  0  0  0  0  0  0
   -5.1029   13.3690    3.9939 O   0  0  0  0  0  0  0  0  0  0  0  0
   -3.2691   13.3979    7.8403 C   0  0  2  0  0  0  0  0  0  0  0  0
   -2.3483   12.8890    6.8515 O   0  0  0  0  0  0  0  0  0  0  0  0
   -1.1267    9.4892    9.3012 C   0  0  0  0  0  0  0  0  0  0  0  0
   -1.8791   10.0648   10.4719 O   0  0  0  0  0  0  0  0  0  0  0  0
   -7.4275   13.2472    3.1021 C   0  0  0  0  0  0  0  0  0  0  0  0
   -8.3811   14.1057    2.4329 O   0  0  0  0  0  0  0  0  0  0  0  0
   -3.2821   12.4329    9.0830 C   0  0  1  0  0  0  0  0  0  0  0  0
   -1.9919   12.3868    9.6064 O   0  0  0  0  0  0  0  0  0  0  0  0
    1.0962    9.1578    8.2418 C   0  0  0  0  0  0  0  0  0  0  0  0
    2.8832   11.9652    8.6588 C   0  0  0  0  0  0  0  0  0  0  0  0
  1  2  1  1  0  0  0
  1  6  1  0  0  0  0
  1 21  1  0  0  0  0
  3  4  1  1  0  0  0
  3  8  1  0  0  0  0
  3 28  1  0  0  0  0
  5  9  1  0  0  0  0
  5 25  1  0  0  0  0
  5 29  1  6  0  0  0
  6  7  1  1  0  0  0
  6 11  1  0  0  0  0
  8 12  1  0  0  0  0
  9 10  1  6  0  0  0
  9 14  1  0  0  0  0
 11 16  1  0  0  0  0
 12 13  1  6  0  0  0
 12 17  1  0  0  0  0
 14 15  1  1  0  0  0
 14 18  1  0  0  0  0
 15 31  1  0  0  0  0
 16 20  1  0  0  0  0
 17  2  1  6  0  0  0
 17 22  1  0  0  0  0
 18 19  1  1  0  0  0
 18 24  1  0  0  0  0
 18 30  1  0  0  0  0
 20 21  1  0  0  0  0
 20 26  1  6  0  0  0
 22 23  1  6  0  0  0
 22 28  1  0  0  0  0
 24 25  1  0  0  0  0
 26 27  1  0  0  0  0
 28 29  1  1  0  0  0
M  END
>  <CHROM.1>
-151.82394164,-179.51966426,-148.07947353,-167.52919311,11.74341463,63.62082229
-2.99372878,12.76111012,7.66941043,-2.34379525,-0.23499645,1.91119462

>  <Name>
ligand

>  <RI>
0

>  <Rbt.Current_Directory>
/home/itssahil/PROJECTS/Mol_Feturizer/New_Systems/rnas/4GPX

>  <Rbt.Executable>
rbdock ($Id: //depot/dev/client3/rdock/2013.1/src/exe/rbdock.cxx#4 $)

>  <Rbt.Library>
libRbt.so (2013.1, Build901 2013/11/27)

>  <Rbt.Parameter_File>
/export/apps/rDock/src/rDock_2013.1_src/data/scripts/dock_solv.prm

>  <Rbt.Receptor>
prm/pocket_docking_2.prm

>  <SCORE>
-18.2754

>  <SCORE.INTER>
-12.9646

>  <SCORE.INTER.CONST>
1

>  <SCORE.INTER.POLAR>
0

>  <SCORE.INTER.ROT>
6

>  <SCORE.INTER.SOLV>
18.5016

>  <SCORE.INTER.VDW>
-22.4103

>  <SCORE.INTER.norm>
-0.418213

>  <SCORE.INTRA>
-5.31075

>  <SCORE.INTRA.DIHEDRAL>
-14.0975

>  <SCORE.INTRA.DIHEDRAL.0>
20.6841

>  <SCORE.INTRA.POLAR>
0

>  <SCORE.INTRA.POLAR.0>
0

>  <SCORE.INTRA.REPUL>
0

>  <SCORE.INTRA.REPUL.0>
0

>  <SCORE.INTRA.SOLV>
-0.963005

>  <SCORE.INTRA.SOLV.lig_0>
-64.6797

>  <SCORE.INTRA.VDW>
2.21952

>  <SCORE.INTRA.VDW.0>
-4.11825

>  <SCORE.INTRA.norm>
-0.171314

>  <SCORE.RESTR>
0

>  <SCORE.RESTR.CAVITY>
0

>  <SCORE.RESTR.norm>
0

>  <SCORE.SYSTEM>
0

>  <SCORE.SYSTEM.CONST>
0

>  <SCORE.SYSTEM.DIHEDRAL>
0

>  <SCORE.SYSTEM.SOLV>
0

>  <SCORE.SYSTEM.norm>
0

>  <SCORE.heavy>
31

>  <SCORE.norm>
-0.589527

>  <RMSD>
1.538

$$$$
ligand
 OpenBabel11021811493D
libRbt.so/2013.1/901 2013/11/27
 31 33  0  0  0  0  0  0  0  0999 V2000
   -2.6846   14.4536    4.3512 C   0  0  2  0  0  0  0  0  0  0  0  0
   -2.6768   14.4769    5.7755 O   0  0  0  0  0  0  0  0  0  0  0  0
   -4.1481   12.5472    9.2677 C   0  0  2  0  0  0  0  0  0  0  0  0
   -4.6902   11.5298   10.1151 N   0  0  0  0  0  0  0  0  0  0  0  0
   -1.6796   10.4821   10.2823 C   0  0  2  0  0  0  0  0  0  0  0  0
   -1.6567   15.5602    3.8770 C   0  0  2  0  0  0  0  0  0  0  0  0
   -0.3405   15.2412    4.4202 N   0  0  0  0  0  0  0  0  0  0  0  0
   -5.1728   12.8135    8.0892 C   0  0  0  0  0  0  0  0  0  0  0  0
   -0.7231   10.6971   11.4978 C   0  0  2  0  0  0  0  0  0  0  0  0
   -1.3331   11.6066   12.3884 O   0  0  0  0  0  0  0  0  0  0  0  0
   -2.1272   16.9907    4.3577 C   0  0  0  0  0  0  0  0  0  0  0  0
   -4.5782   13.9311    7.1529 C   0  0  2  0  0  0  0  0  0  0  0  0
   -5.5244   14.1793    6.0517 N   0  0  0  0  0  0  0  0  0  0  0  0
    0.6272   11.2805   10.9321 C   0  0  1  0  0  0  0  0  0  0  0  0
    1.5843   11.5279   12.0608 N   0  0  0  0  0  0  0  0  0  0  0  0
   -3.7034   17.1632    4.2848 C   0  0  0  0  0  0  0  0  0  0  0  0
   -3.1718   13.4582    6.5748 C   0  0  2  0  0  0  0  0  0  0  0  0
    1.2645   10.1772    9.9148 C   0  0  1  0  0  0  0  0  0  0  0  0
    1.4987    8.9317   10.5498 O   0  0  0  0  0  0  0  0  0  0  0  0
   -4.5142   16.1006    4.0374 C   0  0  2  0  0  0  0  0  0  0  0  0
   -4.0061   14.7777    3.8293 O   0  0  0  0  0  0  0  0  0  0  0  0
   -2.1778   13.1915    7.7652 C   0  0  2  0  0  0  0  0  0  0  0  0
   -0.9092   12.7537    7.2327 O   0  0  0  0  0  0  0  0  0  0  0  0
    0.2755    9.9092    8.7341 C   0  0  0  0  0  0  0  0  0  0  0  0
   -1.0661    9.5114    9.2906 O   0  0  0  0  0  0  0  0  0  0  0  0
   -6.0375   16.2171    3.9550 C   0  0  0  0  0  0  0  0  0  0  0  0
   -6.4897   15.4169    2.8372 O   0  0  0  0  0  0  0  0  0  0  0  0
   -2.7777   12.0576    8.6761 C   0  0  1  0  0  0  0  0  0  0  0  0
   -1.8788   11.8167    9.7128 O   0  0  0  0  0  0  0  0  0  0  0  0
    2.6062   10.5892    9.2624 C   0  0  0  0  0  0  0  0  0  0  0  0
    1.4391   12.8080   12.7837 C   0  0  0  0  0  0  0  0  0  0  0  0
  1  2  1  1  0  0  0
  1  6  1  0  0  0  0
  1 21  1  0  0  0  0
  3  4  1  1  0  0  0
  3  8  1  0  0  0  0
  3 28  1  0  0  0  0
  5  9  1  0  0  0  0
  5 25  1  0  0  0  0
  5 29  1  6  0  0  0
  6  7  1  1  0  0  0
  6 11  1  0  0  0  0
  8 12  1  0  0  0  0
  9 10  1  1  0  0  0
  9 14  1  0  0  0  0
 11 16  1  0  0  0  0
 12 13  1  6  0  0  0
 12 17  1  0  0  0  0
 14 15  1  1  0  0  0
 14 18  1  0  0  0  0
 15 31  1  0  0  0  0
 16 20  1  0  0  0  0
 17  2  1  6  0  0  0
 17 22  1  0  0  0  0
 18 19  1  1  0  0  0
 18 24  1  0  0  0  0
 18 30  1  0  0  0  0
 20 21  1  0  0  0  0
 20 26  1  6  0  0  0
 22 23  1  6  0  0  0
 22 28  1  0  0  0  0
 24 25  1  0  0  0  0
 26 27  1  0  0  0  0
 28 29  1  1  0  0  0
M  END
>  <CHROM.1>
-163.06081652,-173.96402732,-83.83228960,-104.01760018,137.73637715,95.50102724
-2.07625132,12.95846849,7.74913851,-2.08315755,-0.05550105,2.17203097

>  <Name>
ligand

>  <RI>
0

>  <Rbt.Current_Directory>
/home/itssahil/PROJECTS/Mol_Feturizer/New_Systems/rnas/4GPX

>  <Rbt.Executable>
rbdock ($Id: //depot/dev/client3/rdock/2013.1/src/exe/rbdock.cxx#4 $)

>  <Rbt.Library>
libRbt.so (2013.1, Build901 2013/11/27)

>  <Rbt.Parameter_File>
/export/apps/rDock/src/rDock_2013.1_src/data/scripts/dock_solv.prm

>  <Rbt.Receptor>
prm/pocket_docking_5.prm

>  <SCORE>
-18.6482

>  <SCORE.INTER>
-16.7506

>  <SCORE.INTER.CONST>
1

>  <SCORE.INTER.POLAR>
0

>  <SCORE.INTER.ROT>
6

>  <SCORE.INTER.SOLV>
15.7429

>  <SCORE.INTER.VDW>
-24.0147

>  <SCORE.INTER.norm>
-0.540343

>  <SCORE.INTRA>
-1.89754

>  <SCORE.INTRA.DIHEDRAL>
-6.07086

>  <SCORE.INTRA.DIHEDRAL.0>
20.6841

>  <SCORE.INTRA.POLAR>
0

>  <SCORE.INTRA.POLAR.0>
0

>  <SCORE.INTRA.REPUL>
0

>  <SCORE.INTRA.REPUL.0>
0

>  <SCORE.INTRA.SOLV>
2.0724

>  <SCORE.INTRA.SOLV.lig_0>
-64.6797

>  <SCORE.INTRA.VDW>
0.101692

>  <SCORE.INTRA.VDW.0>
-4.11825

>  <SCORE.INTRA.norm>
-0.0612109

>  <SCORE.RESTR>
0

>  <SCORE.RESTR.CAVITY>
0

>  <SCORE.RESTR.norm>
0

>  <SCORE.SYSTEM>
0

>  <SCORE.SYSTEM.CONST>
0

>  <SCORE.SYSTEM.DIHEDRAL>
0

>  <SCORE.SYSTEM.SOLV>
0

>  <SCORE.SYSTEM.norm>
0

>  <SCORE.heavy>
31

>  <SCORE.norm>
-0.601554

>  <RMSD>
1.580

$$$$
ligand
 OpenBabel11021811493D
libRbt.so/2013.1/901 2013/11/27
 31 33  0  0  0  0  0  0  0  0999 V2000
   -3.8707   14.5555    4.7936 C   0  0  2  0  0  0  0  0  0  0  0  0
   -4.4459   14.7531    6.0817 O   0  0  0  0  0  0  0  0  0  0  0  0
   -4.1963   13.1128    9.9972 C   0  0  2  0  0  0  0  0  0  0  0  0
   -4.2414   12.1564   11.0602 N   0  0  0  0  0  0  0  0  0  0  0  0
   -1.5891   11.7572   10.6989 C   0  0  2  0  0  0  0  0  0  0  0  0
   -3.6865   15.9931    4.1570 C   0  0  2  0  0  0  0  0  0  0  0  0
   -2.8200   16.7830    5.0256 N   0  0  0  0  0  0  0  0  0  0  0  0
   -5.6245   13.1671    9.3136 C   0  0  0  0  0  0  0  0  0  0  0  0
   -0.0574   11.9113   10.9612 C   0  0  2  0  0  0  0  0  0  0  0  0
    0.2196   13.2763   11.1904 O   0  0  0  0  0  0  0  0  0  0  0  0
   -5.0893   16.6991    3.9768 C   0  0  0  0  0  0  0  0  0  0  0  0
   -5.5778   14.2171    8.1412 C   0  0  2  0  0  0  0  0  0  0  0  0
   -6.9020   14.2680    7.4980 N   0  0  0  0  0  0  0  0  0  0  0  0
    0.6912   11.3915    9.6754 C   0  0  1  0  0  0  0  0  0  0  0  0
    2.1733   11.5332    9.8602 N   0  0  0  0  0  0  0  0  0  0  0  0
   -6.2252   15.6805    3.5388 C   0  0  0  0  0  0  0  0  0  0  0  0
   -4.4667   13.7937    7.0820 C   0  0  2  0  0  0  0  0  0  0  0  0
    0.3189    9.8163    9.4793 C   0  0  1  0  0  0  0  0  0  0  0  0
    0.6804    9.0337   10.6046 O   0  0  0  0  0  0  0  0  0  0  0  0
   -6.0047   14.3393    3.5454 C   0  0  2  0  0  0  0  0  0  0  0  0
   -4.7524   13.7679    3.9414 O   0  0  0  0  0  0  0  0  0  0  0  0
   -3.0619   13.7381    7.7888 C   0  0  2  0  0  0  0  0  0  0  0  0
   -2.0626   13.3438    6.8241 O   0  0  0  0  0  0  0  0  0  0  0  0
   -1.2241    9.6547    9.2870 C   0  0  0  0  0  0  0  0  0  0  0  0
   -1.9392   10.3033   10.4428 O   0  0  0  0  0  0  0  0  0  0  0  0
   -7.0662   13.3190    3.1298 C   0  0  0  0  0  0  0  0  0  0  0  0
   -7.6377   12.7500    4.3314 O   0  0  0  0  0  0  0  0  0  0  0  0
   -3.1214   12.6687    8.9413 C   0  0  1  0  0  0  0  0  0  0  0  0
   -1.8666   12.6142    9.5441 O   0  0  0  0  0  0  0  0  0  0  0  0
    0.9750    9.1385    8.2522 C   0  0  0  0  0  0  0  0  0  0  0  0
    2.9455   11.9958    8.6889 C   0  0  0  0  0  0  0  0  0  0  0  0
  1  2  1  1  0  0  0
  1  6  1  0  0  0  0
  1 21  1  0  0  0  0
  3  4  1  1  0  0  0
  3  8  1  0  0  0  0
  3 28  1  0  0  0  0
  5  9  1  0  0  0  0
  5 25  1  0  0  0  0
  5 29  1  6  0  0  0
  6  7  1  1  0  0  0
  6 11  1  0  0  0  0
  8 12  1  0  0  0  0
  9 10  1  6  0  0  0
  9 14  1  0  0  0  0
 11 16  1  0  0  0  0
 12 13  1  6  0  0  0
 12 17  1  0  0  0  0
 14 15  1  1  0  0  0
 14 18  1  0  0  0  0
 15 31  1  0  0  0  0
 16 20  1  0  0  0  0
 17  2  1  6  0  0  0
 17 22  1  0  0  0  0
 18 19  1  1  0  0  0
 18 24  1  0  0  0  0
 18 30  1  0  0  0  0
 20 21  1  0  0  0  0
 20 26  1  6  0  0  0
 22 23  1  6  0  0  0
 22 28  1  0  0  0  0
 24 25  1  0  0  0  0
 26 27  1  0  0  0  0
 28 29  1  1  0  0  0
M  END
>  <CHROM.1>
-163.61709141,175.15643512,-139.58155294,-161.82935902,-101.49532943,58.57771732
-2.86726685,12.92753096,7.67184094,-2.30651340,-0.11616940,2.07531583

>  <Name>
ligand

>  <RI>
0

>  <Rbt.Current_Directory>
/home/itssahil/PROJECTS/Mol_Feturizer/New_Systems/rnas/4GPX

>  <Rbt.Executable>
rbdock ($Id: //depot/dev/client3/rdock/2013.1/src/exe/rbdock.cxx#4 $)

>  <Rbt.Library>
libRbt.so (2013.1, Build901 2013/11/27)

>  <Rbt.Parameter_File>
/export/apps/rDock/src/rDock_2013.1_src/data/scripts/dock_solv.prm

>  <Rbt.Receptor>
prm/pocket_docking_4.prm

>  <SCORE>
-19.5333

>  <SCORE.INTER>
-13.2127

>  <SCORE.INTER.CONST>
1

>  <SCORE.INTER.POLAR>
0

>  <SCORE.INTER.ROT>
6

>  <SCORE.INTER.SOLV>
18.7837

>  <SCORE.INTER.VDW>
-22.6697

>  <SCORE.INTER.norm>
-0.426216

>  <SCORE.INTRA>
-6.32065

>  <SCORE.INTRA.DIHEDRAL>
-14.7862

>  <SCORE.INTRA.DIHEDRAL.0>
20.6841

>  <SCORE.INTRA.POLAR>
0

>  <SCORE.INTRA.POLAR.0>
0

>  <SCORE.INTRA.REPUL>
0

>  <SCORE.INTRA.REPUL.0>
0

>  <SCORE.INTRA.SOLV>
0.0945135

>  <SCORE.INTRA.SOLV.lig_0>
-64.6797

>  <SCORE.INTRA.VDW>
1.02519

>  <SCORE.INTRA.VDW.0>
-4.11825

>  <SCORE.INTRA.norm>
-0.203892

>  <SCORE.RESTR>
0

>  <SCORE.RESTR.CAVITY>
0

>  <SCORE.RESTR.norm>
0

>  <SCORE.SYSTEM>
0

>  <SCORE.SYSTEM.CONST>
0

>  <SCORE.SYSTEM.DIHEDRAL>
0

>  <SCORE.SYSTEM.SOLV>
0

>  <SCORE.SYSTEM.norm>
0

>  <SCORE.heavy>
31

>  <SCORE.norm>
-0.630108

>  <RMSD>
1.600

$$$$
ligand
 OpenBabel11021811493D
libRbt.so/2013.1/901 2013/11/27
 31 33  0  0  0  0  0  0  0  0999 V2000
   -3.8758   14.5184    4.8863 C   0  0  2  0  0  0  0  0  0  0  0  0
   -4.4667   14.7352    6.1642 O   0  0  0  0  0  0  0  0  0  0  0  0
   -3.9716   13.2328   10.1116 C   0  0  2  0  0  0  0  0  0  0  0  0
   -3.9672   12.3187   11.2122 N   0  0  0  0  0  0  0  0  0  0  0  0
   -1.3647   11.8022   10.6622 C   0  0  2  0  0  0  0  0  0  0  0  0
   -3.6832   15.9464    4.2309 C   0  0  2  0  0  0  0  0  0  0  0  0
   -2.8270   16.7489    5.0982 N   0  0  0  0  0  0  0  0  0  0  0  0
   -5.4457   13.3148    9.5368 C   0  0  0  0  0  0  0  0  0  0  0  0
    0.1819   11.9430   10.8264 C   0  0  2  0  0  0  0  0  0  0  0  0
    0.4881   13.3100   11.0004 O   0  0  0  0  0  0  0  0  0  0  0  0
   -5.0834   16.6501    4.0231 C   0  0  0  0  0  0  0  0  0  0  0  0
   -5.4538   14.3183    8.3233 C   0  0  2  0  0  0  0  0  0  0  0  0
   -6.8212   14.3946    7.7810 N   0  0  0  0  0  0  0  0  0  0  0  0
    0.8444   11.3790    9.5123 C   0  0  1  0  0  0  0  0  0  0  0  0
    2.3366   11.5061    9.6026 N   0  0  0  0  0  0  0  0  0  0  0  0
   -6.2143   15.6254    3.5862 C   0  0  0  0  0  0  0  0  0  0  0  0
   -4.4430   13.8149    7.2006 C   0  0  2  0  0  0  0  0  0  0  0  0
    0.4427    9.8041    9.3829 C   0  0  1  0  0  0  0  0  0  0  0  0
    0.8633    9.0475   10.5054 O   0  0  0  0  0  0  0  0  0  0  0  0
   -5.9945   14.2843    3.6154 C   0  0  2  0  0  0  0  0  0  0  0  0
   -4.7474   13.7185    4.0351 O   0  0  0  0  0  0  0  0  0  0  0  0
   -2.9905   13.7332    7.8003 C   0  0  2  0  0  0  0  0  0  0  0  0
   -2.0829   13.2666    6.7790 O   0  0  0  0  0  0  0  0  0  0  0  0
   -1.1110    9.6578    9.2895 C   0  0  0  0  0  0  0  0  0  0  0  0
   -1.7465   10.3467   10.4683 O   0  0  0  0  0  0  0  0  0  0  0  0
   -7.0512   13.2583    3.2019 C   0  0  0  0  0  0  0  0  0  0  0  0
   -7.6117   12.6806    4.4045 O   0  0  0  0  0  0  0  0  0  0  0  0
   -2.9974   12.7102    8.9956 C   0  0  1  0  0  0  0  0  0  0  0  0
   -1.7024   12.6314    9.5031 O   0  0  0  0  0  0  0  0  0  0  0  0
    1.0146    9.0849    8.1375 C   0  0  0  0  0  0  0  0  0  0  0  0
    2.9606   12.5721    8.7924 C   0  0  0  0  0  0  0  0  0  0  0  0
  1  2  1  1  0  0  0
  1  6  1  0  0  0  0
  1 21  1  0  0  0  0
  3  4  1  1  0  0  0
  3  8  1  0  0  0  0
  3 28  1  0  0  0  0
  5  9  1  0  0  0  0
  5 25  1  0  0  0  0
  5 29  1  6  0  0  0
  6  7  1  1  0  0  0
  6 11  1  0  0  0  0
  8 12  1  0  0  0  0
  9 10  1  6  0  0  0
  9 14  1  0  0  0  0
 11 16  1  0  0  0  0
 12 13  1  6  0  0  0
 12 17  1  0  0  0  0
 14 15  1  1  0  0  0
 14 18  1  0  0  0  0
 15 31  1  0  0  0  0
 16 20  1  0  0  0  0
 17  2  1  6  0  0  0
 17 22  1  0  0  0  0
 18 19  1  1  0  0  0
 18 24  1  0  0  0  0
 18 30  1  0  0  0  0
 20 21  1  0  0  0  0
 20 26  1  6  0  0  0
 22 23  1  6  0  0  0
 22 28  1  0  0  0  0
 24 25  1  0  0  0  0
 26 27  1  0  0  0  0
 28 29  1  1  0  0  0
M  END
>  <CHROM.1>
-160.31806378,176.68325750,-105.53152127,-168.63653691,-103.04589522,58.92180150
-2.77097449,12.95409403,7.69696397,-2.33503181,-0.14141413,2.04674926

>  <Name>
ligand

>  <RI>
0

>  <Rbt.Current_Directory>
/home/itssahil/PROJECTS/Mol_Feturizer/New_Systems/rnas/4GPX

>  <Rbt.Executable>
rbdock ($Id: //depot/dev/client3/rdock/2013.1/src/exe/rbdock.cxx#4 $)

>  <Rbt.Library>
libRbt.so (2013.1, Build901 2013/11/27)

>  <Rbt.Parameter_File>
/export/apps/rDock/src/rDock_2013.1_src/data/scripts/dock_solv.prm

>  <Rbt.Receptor>
prm/pocket_docking_4.prm

>  <SCORE>
-19.0553

>  <SCORE.INTER>
-12.2608

>  <SCORE.INTER.CONST>
1

>  <SCORE.INTER.POLAR>
0

>  <SCORE.INTER.ROT>
6

>  <SCORE.INTER.SOLV>
17.8985

>  <SCORE.INTER.VDW>
-21.74

>  <SCORE.INTER.norm>
-0.395509

>  <SCORE.INTRA>
-6.79458

>  <SCORE.INTRA.DIHEDRAL>
-15.1781

>  <SCORE.INTRA.DIHEDRAL.0>
20.6841

>  <SCORE.INTRA.POLAR>
0

>  <SCORE.INTRA.POLAR.0>
0

>  <SCORE.INTRA.REPUL>
0

>  <SCORE.INTRA.REPUL.0>
0

>  <SCORE.INTRA.SOLV>
-0.519373

>  <SCORE.INTRA.SOLV.lig_0>
-64.6797

>  <SCORE.INTRA.VDW>
1.05416

>  <SCORE.INTRA.VDW.0>
-4.11825

>  <SCORE.INTRA.norm>
-0.21918

>  <SCORE.RESTR>
0

>  <SCORE.RESTR.CAVITY>
0

>  <SCORE.RESTR.norm>
0

>  <SCORE.SYSTEM>
0

>  <SCORE.SYSTEM.CONST>
0

>  <SCORE.SYSTEM.DIHEDRAL>
0

>  <SCORE.SYSTEM.SOLV>
0

>  <SCORE.SYSTEM.norm>
0

>  <SCORE.heavy>
31

>  <SCORE.norm>
-0.614688

>  <RMSD>
1.601

$$$$
ligand
 OpenBabel11021811493D
libRbt.so/2013.1/901 2013/11/27
 31 33  0  0  0  0  0  0  0  0999 V2000
   -3.8879   14.5132    4.7608 C   0  0  2  0  0  0  0  0  0  0  0  0
   -4.4887   14.6822    6.0412 O   0  0  0  0  0  0  0  0  0  0  0  0
   -4.2015   13.0183    9.9442 C   0  0  2  0  0  0  0  0  0  0  0  0
   -4.2290   12.0538   11.0006 N   0  0  0  0  0  0  0  0  0  0  0  0
   -1.5819   11.7219   10.6488 C   0  0  2  0  0  0  0  0  0  0  0  0
   -3.7667   15.9581    4.1257 C   0  0  2  0  0  0  0  0  0  0  0  0
   -2.9515   16.7899    5.0048 N   0  0  0  0  0  0  0  0  0  0  0  0
   -5.6327   13.0565    9.2659 C   0  0  0  0  0  0  0  0  0  0  0  0
   -0.0556   11.9096   10.9210 C   0  0  2  0  0  0  0  0  0  0  0  0
    0.1929   13.2830   11.1326 O   0  0  0  0  0  0  0  0  0  0  0  0
   -5.2003   16.5940    3.9270 C   0  0  0  0  0  0  0  0  0  0  0  0
   -5.6055   14.1154    8.1007 C   0  0  2  0  0  0  0  0  0  0  0  0
   -6.9325   14.1515    7.4625 N   0  0  0  0  0  0  0  0  0  0  0  0
    0.7135   11.3863    9.6488 C   0  0  1  0  0  0  0  0  0  0  0  0
    2.1910   11.5596    9.8433 N   0  0  0  0  0  0  0  0  0  0  0  0
   -6.2787   15.5206    3.4750 C   0  0  0  0  0  0  0  0  0  0  0  0
   -4.4921   13.7155    7.0348 C   0  0  2  0  0  0  0  0  0  0  0  0
    0.3735    9.8015    9.4725 C   0  0  1  0  0  0  0  0  0  0  0  0
    0.7409    9.0423   10.6119 O   0  0  0  0  0  0  0  0  0  0  0  0
   -5.9923   14.1918    3.4854 C   0  0  2  0  0  0  0  0  0  0  0  0
   -4.7186   13.6830    3.8979 O   0  0  0  0  0  0  0  0  0  0  0  0
   -3.0841   13.6754    7.7364 C   0  0  2  0  0  0  0  0  0  0  0  0
   -2.0826   13.3025    6.7655 O   0  0  0  0  0  0  0  0  0  0  0  0
   -1.1644    9.6070    9.2704 C   0  0  0  0  0  0  0  0  0  0  0  0
   -1.9015   10.2580   10.4110 O   0  0  0  0  0  0  0  0  0  0  0  0
   -6.9967   13.1203    3.0568 C   0  0  0  0  0  0  0  0  0  0  0  0
   -8.2382   13.7797    2.7130 O   0  0  0  0  0  0  0  0  0  0  0  0
   -3.1240   12.5972    8.8815 C   0  0  1  0  0  0  0  0  0  0  0  0
   -1.8665   12.5568    9.4796 O   0  0  0  0  0  0  0  0  0  0  0  0
    1.0528    9.1191    8.2606 C   0  0  0  0  0  0  0  0  0  0  0  0
    2.9650   12.0118    8.6692 C   0  0  0  0  0  0  0  0  0  0  0  0
  1  2  1  1  0  0  0
  1  6  1  0  0  0  0
  1 21  1  0  0  0  0
  3  4  1  1  0  0  0
  3  8  1  0  0  0  0
  3 28  1  0  0  0  0
  5  9  1  0  0  0  0
  5 25  1  0  0  0  0
  5 29  1  6  0  0  0
  6  7  1  1  0  0  0
  6 11  1  0  0  0  0
  8 12  1  0  0  0  0
  9 10  1  6  0  0  0
  9 14  1  0  0  0  0
 11 16  1  0  0  0  0
 12 13  1  6  0  0  0
 12 17  1  0  0  0  0
 14 15  1  1  0  0  0
 14 18  1  0  0  0  0
 15 31  1  0  0  0  0
 16 20  1  0  0  0  0
 17  2  1  6  0  0  0
 17 22  1  0  0  0  0
 18 19  1  1  0  0  0
 18 24  1  0  0  0  0
 18 30  1  0  0  0  0
 20 21  1  0  0  0  0
 20 26  1  6  0  0  0
 22 23  1  6  0  0  0
 22 28  1  0  0  0  0
 24 25  1  0  0  0  0
 26 27  1  0  0  0  0
 28 29  1  1  0  0  0
M  END
>  <CHROM.1>
-164.61035572,176.39920870,-139.97444909,-163.36337252,-1.96784135,56.95238001
-2.89240809,12.90835510,7.57492748,-2.30888427,-0.14504210,2.02505564

>  <Name>
ligand

>  <RI>
0

>  <Rbt.Current_Directory>
/home/itssahil/PROJECTS/Mol_Feturizer/New_Systems/rnas/4GPX

>  <Rbt.Executable>
rbdock ($Id: //depot/dev/client3/rdock/2013.1/src/exe/rbdock.cxx#4 $)

>  <Rbt.Library>
libRbt.so (2013.1, Build901 2013/11/27)

>  <Rbt.Parameter_File>
/export/apps/rDock/src/rDock_2013.1_src/data/scripts/dock_solv.prm

>  <Rbt.Receptor>
prm/pocket_docking_5.prm

>  <SCORE>
-19.1372

>  <SCORE.INTER>
-13.3651

>  <SCORE.INTER.CONST>
1

>  <SCORE.INTER.POLAR>
0

>  <SCORE.INTER.ROT>
6

>  <SCORE.INTER.SOLV>
18.8097

>  <SCORE.INTER.VDW>
-22.78

>  <SCORE.INTER.norm>
-0.431133

>  <SCORE.INTRA>
-5.77207

>  <SCORE.INTRA.DIHEDRAL>
-15.5894

>  <SCORE.INTRA.DIHEDRAL.0>
20.6841

>  <SCORE.INTRA.POLAR>
0

>  <SCORE.INTRA.POLAR.0>
0

>  <SCORE.INTRA.REPUL>
0

>  <SCORE.INTRA.REPUL.0>
0

>  <SCORE.INTRA.SOLV>
-0.591859

>  <SCORE.INTRA.SOLV.lig_0>
-64.6797

>  <SCORE.INTRA.VDW>
2.31854

>  <SCORE.INTRA.VDW.0>
-4.11825

>  <SCORE.INTRA.norm>
-0.186196

>  <SCORE.RESTR>
0

>  <SCORE.RESTR.CAVITY>
0

>  <SCORE.RESTR.norm>
0

>  <SCORE.SYSTEM>
0

>  <SCORE.SYSTEM.CONST>
0

>  <SCORE.SYSTEM.DIHEDRAL>
0

>  <SCORE.SYSTEM.SOLV>
0

>  <SCORE.SYSTEM.norm>
0

>  <SCORE.heavy>
31

>  <SCORE.norm>
-0.617329

>  <RMSD>
1.616

$$$$
ligand
 OpenBabel11021811493D
libRbt.so/2013.1/901 2013/11/27
 31 33  0  0  0  0  0  0  0  0999 V2000
   -3.8478   14.5109    4.7913 C   0  0  2  0  0  0  0  0  0  0  0  0
   -4.4817   14.6751    6.0564 O   0  0  0  0  0  0  0  0  0  0  0  0
   -4.1587   13.0584    9.9763 C   0  0  2  0  0  0  0  0  0  0  0  0
   -4.1761   12.1067   11.0444 N   0  0  0  0  0  0  0  0  0  0  0  0
   -1.5275   11.7589   10.6627 C   0  0  2  0  0  0  0  0  0  0  0  0
   -3.7269   15.9562    4.1570 C   0  0  2  0  0  0  0  0  0  0  0  0
   -2.9426   16.7981    5.0545 N   0  0  0  0  0  0  0  0  0  0  0  0
   -5.5960   13.0877    9.3104 C   0  0  0  0  0  0  0  0  0  0  0  0
    0.0009   11.9520   10.9184 C   0  0  2  0  0  0  0  0  0  0  0  0
    0.2468   13.3262   11.1274 O   0  0  0  0  0  0  0  0  0  0  0  0
   -5.1619   16.5761    3.9221 C   0  0  0  0  0  0  0  0  0  0  0  0
   -5.5798   14.1324    8.1324 C   0  0  2  0  0  0  0  0  0  0  0  0
   -6.9124   14.1601    7.5056 N   0  0  0  0  0  0  0  0  0  0  0  0
    0.7581   11.4313    9.6380 C   0  0  1  0  0  0  0  0  0  0  0  0
    2.2370   11.6098    9.8166 N   0  0  0  0  0  0  0  0  0  0  0  0
   -6.2172   15.4903    3.4456 C   0  0  0  0  0  0  0  0  0  0  0  0
   -4.4756   13.7205    7.0615 C   0  0  2  0  0  0  0  0  0  0  0  0
    0.4218    9.8453    9.4654 C   0  0  1  0  0  0  0  0  0  0  0  0
    0.8041    9.0874   10.6007 O   0  0  0  0  0  0  0  0  0  0  0  0
   -5.9167   14.1648    3.4652 C   0  0  2  0  0  0  0  0  0  0  0  0
   -4.6480   13.6704    3.9096 O   0  0  0  0  0  0  0  0  0  0  0  0
   -3.0614   13.6896    7.7509 C   0  0  2  0  0  0  0  0  0  0  0  0
   -2.0684   13.3056    6.7757 O   0  0  0  0  0  0  0  0  0  0  0  0
   -1.1175    9.6454    9.2798 C   0  0  0  0  0  0  0  0  0  0  0  0
   -1.8445   10.2938   10.4283 O   0  0  0  0  0  0  0  0  0  0  0  0
   -6.8985   13.0817    3.0139 C   0  0  0  0  0  0  0  0  0  0  0  0
   -8.1163   13.7318    2.5793 O   0  0  0  0  0  0  0  0  0  0  0  0
   -3.0904   12.6252    8.9092 C   0  0  1  0  0  0  0  0  0  0  0  0
   -1.8276   12.5927    9.4965 O   0  0  0  0  0  0  0  0  0  0  0  0
    1.0904    9.1653    8.2463 C   0  0  0  0  0  0  0  0  0  0  0  0
    3.0060   12.0037    8.6184 C   0  0  0  0  0  0  0  0  0  0  0  0
  1  2  1  1  0  0  0
  1  6  1  0  0  0  0
  1 21  1  0  0  0  0
  3  4  1  1  0  0  0
  3  8  1  0  0  0  0
  3 28  1  0  0  0  0
  5  9  1  0  0  0  0
  5 25  1  0  0  0  0
  5 29  1  6  0  0  0
  6  7  1  1  0  0  0
  6 11  1  0  0  0  0
  8 12  1  0  0  0  0
  9 10  1  6  0  0  0
  9 14  1  0  0  0  0
 11 16  1  0  0  0  0
 12 13  1  6  0  0  0
 12 17  1  0  0  0  0
 14 15  1  1  0  0  0
 14 18  1  0  0  0  0
 15 31  1  0  0  0  0
 16 20  1  0  0  0  0
 17  2  1  6  0  0  0
 17 22  1  0  0  0  0
 18 19  1  1  0  0  0
 18 24  1  0  0  0  0
 18 30  1  0  0  0  0
 20 21  1  0  0  0  0
 20 26  1  6  0  0  0
 22 23  1  6  0  0  0
 22 28  1  0  0  0  0
 24 25  1  0  0  0  0
 26 27  1  0  0  0  0
 28 29  1  1  0  0  0
M  END
>  <CHROM.1>
-163.22815511,176.17428745,-142.73838957,-165.89420223,0.67412668,57.76267893
-2.84640356,12.92344764,7.57758171,-2.31355289,-0.17410902,1.98922045

>  <Name>
ligand

>  <RI>
0

>  <Rbt.Current_Directory>
/home/itssahil/PROJECTS/Mol_Feturizer/New_Systems/rnas/4GPX

>  <Rbt.Executable>
rbdock ($Id: //depot/dev/client3/rdock/2013.1/src/exe/rbdock.cxx#4 $)

>  <Rbt.Library>
libRbt.so (2013.1, Build901 2013/11/27)

>  <Rbt.Parameter_File>
/export/apps/rDock/src/rDock_2013.1_src/data/scripts/dock_solv.prm

>  <Rbt.Receptor>
prm/pocket_docking_4.prm

>  <SCORE>
-19.1706

>  <SCORE.INTER>
-13.2397

>  <SCORE.INTER.CONST>
1

>  <SCORE.INTER.POLAR>
0

>  <SCORE.INTER.ROT>
6

>  <SCORE.INTER.SOLV>
18.4393

>  <SCORE.INTER.VDW>
-22.5729

>  <SCORE.INTER.norm>
-0.427088

>  <SCORE.INTRA>
-5.93086

>  <SCORE.INTRA.DIHEDRAL>
-15.834

>  <SCORE.INTRA.DIHEDRAL.0>
20.6841

>  <SCORE.INTRA.POLAR>
0

>  <SCORE.INTRA.POLAR.0>
0

>  <SCORE.INTRA.REPUL>
0

>  <SCORE.INTRA.REPUL.0>
0

>  <SCORE.INTRA.SOLV>
-0.789873

>  <SCORE.INTRA.SOLV.lig_0>
-64.6797

>  <SCORE.INTRA.VDW>
2.38106

>  <SCORE.INTRA.VDW.0>
-4.11825

>  <SCORE.INTRA.norm>
-0.191318

>  <SCORE.RESTR>
0

>  <SCORE.RESTR.CAVITY>
0

>  <SCORE.RESTR.norm>
0

>  <SCORE.SYSTEM>
0

>  <SCORE.SYSTEM.CONST>
0

>  <SCORE.SYSTEM.DIHEDRAL>
0

>  <SCORE.SYSTEM.SOLV>
0

>  <SCORE.SYSTEM.norm>
0

>  <SCORE.heavy>
31

>  <SCORE.norm>
-0.618407

>  <RMSD>
1.623

$$$$
ligand
 OpenBabel11021811493D
libRbt.so/2013.1/901 2013/11/27
 31 33  0  0  0  0  0  0  0  0999 V2000
   -3.6273   14.5998    4.8427 C   0  0  2  0  0  0  0  0  0  0  0  0
   -4.1809   14.7811    6.1427 O   0  0  0  0  0  0  0  0  0  0  0  0
   -3.7559   13.1142   10.0318 C   0  0  2  0  0  0  0  0  0  0  0  0
   -3.7621   12.1526   11.0910 N   0  0  0  0  0  0  0  0  0  0  0  0
   -1.1443   11.7261   10.6030 C   0  0  2  0  0  0  0  0  0  0  0  0
   -3.5007   16.0417    4.2019 C   0  0  2  0  0  0  0  0  0  0  0  0
   -2.6405   16.8586    5.0516 N   0  0  0  0  0  0  0  0  0  0  0  0
   -5.2166   13.1969    9.4241 C   0  0  0  0  0  0  0  0  0  0  0  0
    0.4072   11.8133   10.7573 C   0  0  2  0  0  0  0  0  0  0  0  0
    0.7604   13.1673   10.9431 O   0  0  0  0  0  0  0  0  0  0  0  0
   -4.9279   16.7044    4.0512 C   0  0  0  0  0  0  0  0  0  0  0  0
   -5.2129   14.2527    8.2559 C   0  0  2  0  0  0  0  0  0  0  0  0
   -6.5678   14.3300    7.6831 N   0  0  0  0  0  0  0  0  0  0  0  0
    1.0412   11.2412    9.4326 C   0  0  1  0  0  0  0  0  0  0  0  0
    2.5374   11.3173    9.5133 N   0  0  0  0  0  0  0  0  0  0  0  0
   -6.0413   15.6512    3.6378 C   0  0  0  0  0  0  0  0  0  0  0  0
   -4.1662   13.8164    7.1381 C   0  0  2  0  0  0  0  0  0  0  0  0
    0.5859    9.6822    9.2900 C   0  0  1  0  0  0  0  0  0  0  0  0
    0.9887    8.9000   10.4015 O   0  0  0  0  0  0  0  0  0  0  0  0
   -5.7798   14.3173    3.6403 C   0  0  2  0  0  0  0  0  0  0  0  0
   -4.5025   13.7848    4.0098 O   0  0  0  0  0  0  0  0  0  0  0  0
   -2.7276   13.7326    7.7701 C   0  0  2  0  0  0  0  0  0  0  0  0
   -1.7870   13.3269    6.7526 O   0  0  0  0  0  0  0  0  0  0  0  0
   -0.9724    9.5890    9.2065 C   0  0  0  0  0  0  0  0  0  0  0  0
   -1.5762   10.2864   10.3969 O   0  0  0  0  0  0  0  0  0  0  0  0
   -6.8181   13.2646    3.2476 C   0  0  0  0  0  0  0  0  0  0  0  0
   -7.3333   12.6669    4.4608 O   0  0  0  0  0  0  0  0  0  0  0  0
   -2.7455   12.6578    8.9190 C   0  0  1  0  0  0  0  0  0  0  0  0
   -1.4621   12.5783    9.4550 O   0  0  0  0  0  0  0  0  0  0  0  0
    1.1246    8.9573    8.0330 C   0  0  0  0  0  0  0  0  0  0  0  0
    3.1886   12.3928    8.7378 C   0  0  0  0  0  0  0  0  0  0  0  0
  1  2  1  1  0  0  0
  1  6  1  0  0  0  0
  1 21  1  0  0  0  0
  3  4  1  1  0  0  0
  3  8  1  0  0  0  0
  3 28  1  0  0  0  0
  5  9  1  0  0  0  0
  5 25  1  0  0  0  0
  5 29  1  6  0  0  0
  6  7  1  1  0  0  0
  6 11  1  0  0  0  0
  8 12  1  0  0  0  0
  9 10  1  6  0  0  0
  9 14  1  0  0  0  0
 11 16  1  0  0  0  0
 12 13  1  6  0  0  0
 12 17  1  0  0  0  0
 14 15  1  1  0  0  0
 14 18  1  0  0  0  0
 15 31  1  0  0  0  0
 16 20  1  0  0  0  0
 17  2  1  6  0  0  0
 17 22  1  0  0  0  0
 18 19  1  1  0  0  0
 18 24  1  0  0  0  0
 18 30  1  0  0  0  0
 20 21  1  0  0  0  0
 20 26  1  6  0  0  0
 22 23  1  6  0  0  0
 22 28  1  0  0  0  0
 24 25  1  0  0  0  0
 26 27  1  0  0  0  0
 28 29  1  1  0  0  0
M  END
>  <CHROM.1>
-164.47388185,173.61897447,-103.95879871,-164.55655042,-102.25741483,57.58369518
-2.55407340,12.90732337,7.64764073,-2.32342346,-0.10585582,2.11277490

>  <Name>
ligand

>  <RI>
0

>  <Rbt.Current_Directory>
/home/itssahil/PROJECTS/Mol_Feturizer/New_Systems/rnas/4GPX

>  <Rbt.Executable>
rbdock ($Id: //depot/dev/client3/rdock/2013.1/src/exe/rbdock.cxx#4 $)

>  <Rbt.Library>
libRbt.so (2013.1, Build901 2013/11/27)

>  <Rbt.Parameter_File>
/export/apps/rDock/src/rDock_2013.1_src/data/scripts/dock_solv.prm

>  <Rbt.Receptor>
prm/pocket_docking_8.prm

>  <SCORE>
-19.2609

>  <SCORE.INTER>
-12.6974

>  <SCORE.INTER.CONST>
1

>  <SCORE.INTER.POLAR>
0

>  <SCORE.INTER.ROT>
6

>  <SCORE.INTER.SOLV>
17.0804

>  <SCORE.INTER.VDW>
-21.7584

>  <SCORE.INTER.norm>
-0.409593

>  <SCORE.INTRA>
-6.56353

>  <SCORE.INTRA.DIHEDRAL>
-15.1408

>  <SCORE.INTRA.DIHEDRAL.0>
20.6841

>  <SCORE.INTRA.POLAR>
0

>  <SCORE.INTRA.POLAR.0>
0

>  <SCORE.INTRA.REPUL>
0

>  <SCORE.INTRA.REPUL.0>
0

>  <SCORE.INTRA.SOLV>
-0.0535279

>  <SCORE.INTRA.SOLV.lig_0>
-64.6797

>  <SCORE.INTRA.VDW>
1.03363

>  <SCORE.INTRA.VDW.0>
-4.11825

>  <SCORE.INTRA.norm>
-0.211727

>  <SCORE.RESTR>
0

>  <SCORE.RESTR.CAVITY>
0

>  <SCORE.RESTR.norm>
0

>  <SCORE.SYSTEM>
0

>  <SCORE.SYSTEM.CONST>
0

>  <SCORE.SYSTEM.DIHEDRAL>
0

>  <SCORE.SYSTEM.SOLV>
0

>  <SCORE.SYSTEM.norm>
0

>  <SCORE.heavy>
31

>  <SCORE.norm>
-0.621319

>  <RMSD>
1.630

$$$$
ligand
 OpenBabel11021811493D
libRbt.so/2013.1/901 2013/11/27
 31 33  0  0  0  0  0  0  0  0999 V2000
   -3.7837   14.3451    4.8051 C   0  0  2  0  0  0  0  0  0  0  0  0
   -4.1900   14.6275    6.1409 O   0  0  0  0  0  0  0  0  0  0  0  0
   -3.8240   13.0894   10.0886 C   0  0  2  0  0  0  0  0  0  0  0  0
   -3.8496   12.1639   11.1793 N   0  0  0  0  0  0  0  0  0  0  0  0
   -1.2097   11.6416   10.6869 C   0  0  2  0  0  0  0  0  0  0  0  0
   -3.4890   15.7411    4.1193 C   0  0  2  0  0  0  0  0  0  0  0  0
   -2.4432   16.4231    4.8745 N   0  0  0  0  0  0  0  0  0  0  0  0
   -5.2766   13.1605    9.4602 C   0  0  0  0  0  0  0  0  0  0  0  0
    0.3391   11.7431   10.8589 C   0  0  2  0  0  0  0  0  0  0  0  0
    0.6739   13.0958   11.0845 O   0  0  0  0  0  0  0  0  0  0  0  0
   -4.8032   16.6181    4.0690 C   0  0  0  0  0  0  0  0  0  0  0  0
   -5.2516   14.1766    8.2575 C   0  0  2  0  0  0  0  0  0  0  0  0
   -6.5987   14.2428    7.6654 N   0  0  0  0  0  0  0  0  0  0  0  0
    0.9927   11.2146    9.5258 C   0  0  1  0  0  0  0  0  0  0  0  0
    2.4871   11.3063    9.6233 N   0  0  0  0  0  0  0  0  0  0  0  0
   -6.0979   15.7479    3.7751 C   0  0  0  0  0  0  0  0  0  0  0  0
   -4.1939   13.6966    7.1681 C   0  0  2  0  0  0  0  0  0  0  0  0
    0.5579    9.6546    9.3369 C   0  0  1  0  0  0  0  0  0  0  0  0
    0.9595    8.8477   10.4309 O   0  0  0  0  0  0  0  0  0  0  0  0
   -6.0480   14.3896    3.7904 C   0  0  2  0  0  0  0  0  0  0  0  0
   -4.8425   13.6676    4.0677 O   0  0  0  0  0  0  0  0  0  0  0  0
   -2.7638   13.6254    7.8207 C   0  0  2  0  0  0  0  0  0  0  0  0
   -1.8134   13.1800    6.8292 O   0  0  0  0  0  0  0  0  0  0  0  0
   -0.9982    9.5450    9.2353 C   0  0  0  0  0  0  0  0  0  0  0  0
   -1.6219   10.2028   10.4379 O   0  0  0  0  0  0  0  0  0  0  0  0
   -7.2671   13.5085    3.5111 C   0  0  0  0  0  0  0  0  0  0  0  0
   -6.9415   12.6261    2.4113 O   0  0  0  0  0  0  0  0  0  0  0  0
   -2.8029   12.5898    9.0045 C   0  0  1  0  0  0  0  0  0  0  0  0
   -1.5268   12.5205    9.5591 O   0  0  0  0  0  0  0  0  0  0  0  0
    1.1176    8.9704    8.0663 C   0  0  0  0  0  0  0  0  0  0  0  0
    3.1981   11.8195    8.4345 C   0  0  0  0  0  0  0  0  0  0  0  0
  1  2  1  1  0  0  0
  1  6  1  0  0  0  0
  1 21  1  0  0  0  0
  3  4  1  1  0  0  0
  3  8  1  0  0  0  0
  3 28  1  0  0  0  0
  5  9  1  0  0  0  0
  5 25  1  0  0  0  0
  5 29  1  6  0  0  0
  6  7  1  1  0  0  0
  6 11  1  0  0  0  0
  8 12  1  0  0  0  0
  9 10  1  6  0  0  0
  9 14  1  0  0  0  0
 11 16  1  0  0  0  0
 12 13  1  6  0  0  0
 12 17  1  0  0  0  0
 14 15  1  1  0  0  0
 14 18  1  0  0  0  0
 15 31  1  0  0  0  0
 16 20  1  0  0  0  0
 17  2  1  6  0  0  0
 17 22  1  0  0  0  0
 18 19  1  1  0  0  0
 18 24  1  0  0  0  0
 18 30  1  0  0  0  0
 20 21  1  0  0  0  0
 20 26  1  6  0  0  0
 22 23  1  6  0  0  0
 22 28  1  0  0  0  0
 24 25  1  0  0  0  0
 26 27  1  0  0  0  0
 28 29  1  1  0  0  0
M  END
>  <CHROM.1>
-161.96145857,173.00578079,-136.71831945,-155.88906961,123.48697988,61.49436292
-2.60077055,12.81854989,7.61274861,-2.33931775,-0.26453034,1.92935806

>  <Name>
ligand

>  <RI>
0

>  <Rbt.Current_Directory>
/home/itssahil/PROJECTS/Mol_Feturizer/New_Systems/rnas/4GPX

>  <Rbt.Executable>
rbdock ($Id: //depot/dev/client3/rdock/2013.1/src/exe/rbdock.cxx#4 $)

>  <Rbt.Library>
libRbt.so (2013.1, Build901 2013/11/27)

>  <Rbt.Parameter_File>
/export/apps/rDock/src/rDock_2013.1_src/data/scripts/dock_solv.prm

>  <Rbt.Receptor>
prm/pocket_docking_4.prm

>  <SCORE>
-18.9383

>  <SCORE.INTER>
-12.8885

>  <SCORE.INTER.CONST>
1

>  <SCORE.INTER.POLAR>
0

>  <SCORE.INTER.ROT>
6

>  <SCORE.INTER.SOLV>
18.1126

>  <SCORE.INTER.VDW>
-22.2299

>  <SCORE.INTER.norm>
-0.415759

>  <SCORE.INTRA>
-6.0498

>  <SCORE.INTRA.DIHEDRAL>
-13.7478

>  <SCORE.INTRA.DIHEDRAL.0>
20.6841

>  <SCORE.INTRA.POLAR>
0

>  <SCORE.INTRA.POLAR.0>
0

>  <SCORE.INTRA.REPUL>
0

>  <SCORE.INTRA.REPUL.0>
0

>  <SCORE.INTRA.SOLV>
-0.0816853

>  <SCORE.INTRA.SOLV.lig_0>
-64.6797

>  <SCORE.INTRA.VDW>
0.864933

>  <SCORE.INTRA.VDW.0>
-4.11825

>  <SCORE.INTRA.norm>
-0.195155

>  <SCORE.RESTR>
0

>  <SCORE.RESTR.CAVITY>
0

>  <SCORE.RESTR.norm>
0

>  <SCORE.SYSTEM>
0

>  <SCORE.SYSTEM.CONST>
0

>  <SCORE.SYSTEM.DIHEDRAL>
0

>  <SCORE.SYSTEM.SOLV>
0

>  <SCORE.SYSTEM.norm>
0

>  <SCORE.heavy>
31

>  <SCORE.norm>
-0.610914

>  <RMSD>
1.631

$$$$
ligand
 OpenBabel11021811493D
libRbt.so/2013.1/901 2013/11/27
 31 33  0  0  0  0  0  0  0  0999 V2000
   -3.5992   14.6068    4.8665 C   0  0  2  0  0  0  0  0  0  0  0  0
   -4.1474   14.7785    6.1701 O   0  0  0  0  0  0  0  0  0  0  0  0
   -3.8038   13.0588   10.0442 C   0  0  2  0  0  0  0  0  0  0  0  0
   -3.8262   12.0814   11.0888 N   0  0  0  0  0  0  0  0  0  0  0  0
   -1.1893   11.6847   10.6568 C   0  0  2  0  0  0  0  0  0  0  0  0
   -3.4828   16.0528    4.2328 C   0  0  2  0  0  0  0  0  0  0  0  0
   -2.6225   16.8694    5.0828 N   0  0  0  0  0  0  0  0  0  0  0  0
   -5.2492   13.1338    9.3998 C   0  0  0  0  0  0  0  0  0  0  0  0
    0.3593   11.7717   10.8386 C   0  0  2  0  0  0  0  0  0  0  0  0
    0.7064   13.1226   11.0557 O   0  0  0  0  0  0  0  0  0  0  0  0
   -4.9139   16.7092    4.0926 C   0  0  0  0  0  0  0  0  0  0  0  0
   -5.2277   14.2069    8.2477 C   0  0  2  0  0  0  0  0  0  0  0  0
   -6.5680   14.2772    7.6409 N   0  0  0  0  0  0  0  0  0  0  0  0
    1.0164   11.2258    9.5142 C   0  0  1  0  0  0  0  0  0  0  0  0
    2.5110   11.3030    9.6213 N   0  0  0  0  0  0  0  0  0  0  0  0
   -6.0241   15.6528    3.6788 C   0  0  0  0  0  0  0  0  0  0  0  0
   -4.1472   13.7992    7.1513 C   0  0  2  0  0  0  0  0  0  0  0  0
    0.5669    9.6689    9.3347 C   0  0  1  0  0  0  0  0  0  0  0  0
    0.9527    8.8667   10.4379 O   0  0  0  0  0  0  0  0  0  0  0  0
   -5.7560   14.3202    3.6729 C   0  0  2  0  0  0  0  0  0  0  0  0
   -4.4744   13.7920    4.0334 O   0  0  0  0  0  0  0  0  0  0  0  0
   -2.7245   13.7225    7.8194 C   0  0  2  0  0  0  0  0  0  0  0  0
   -1.7532   13.3428    6.8210 O   0  0  0  0  0  0  0  0  0  0  0  0
   -0.9896    9.5745    9.2234 C   0  0  0  0  0  0  0  0  0  0  0  0
   -1.6146   10.2483   10.4164 O   0  0  0  0  0  0  0  0  0  0  0  0
   -6.7911   13.2645    3.2796 C   0  0  0  0  0  0  0  0  0  0  0  0
   -7.3269   12.6862    4.4932 O   0  0  0  0  0  0  0  0  0  0  0  0
   -2.7596   12.6306    8.9516 C   0  0  1  0  0  0  0  0  0  0  0  0
   -1.4897   12.5578    9.5198 O   0  0  0  0  0  0  0  0  0  0  0  0
    1.1281    8.9688    8.0735 C   0  0  0  0  0  0  0  0  0  0  0  0
    3.2107   12.0774    8.5759 C   0  0  0  0  0  0  0  0  0  0  0  0
  1  2  1  1  0  0  0
  1  6  1  0  0  0  0
  1 21  1  0  0  0  0
  3  4  1  1  0  0  0
  3  8  1  0  0  0  0
  3 28  1  0  0  0  0
  5  9  1  0  0  0  0
  5 25  1  0  0  0  0
  5 29  1  6  0  0  0
  6  7  1  1  0  0  0
  6 11  1  0  0  0  0
  8 12  1  0  0  0  0
  9 10  1  6  0  0  0
  9 14  1  0  0  0  0
 11 16  1  0  0  0  0
 12 13  1  6  0  0  0
 12 17  1  0  0  0  0
 14 15  1  1  0  0  0
 14 18  1  0  0  0  0
 15 31  1  0  0  0  0
 16 20  1  0  0  0  0
 17  2  1  6  0  0  0
 17 22  1  0  0  0  0
 18 19  1  1  0  0  0
 18 24  1  0  0  0  0
 18 30  1  0  0  0  0
 20 21  1  0  0  0  0
 20 26  1  6  0  0  0
 22 23  1  6  0  0  0
 22 28  1  0  0  0  0
 24 25  1  0  0  0  0
 26 27  1  0  0  0  0
 28 29  1  1  0  0  0
M  END
>  <CHROM.1>
-165.83207226,172.66956237,-123.08364138,-162.27664214,-100.55398040,58.05524077
-2.56078204,12.87979717,7.67711717,-2.31813462,-0.11791836,2.10915316

>  <Name>
ligand

>  <RI>
0

>  <Rbt.Current_Directory>
/home/itssahil/PROJECTS/Mol_Feturizer/New_Systems/rnas/4GPX

>  <Rbt.Executable>
rbdock ($Id: //depot/dev/client3/rdock/2013.1/src/exe/rbdock.cxx#4 $)

>  <Rbt.Library>
libRbt.so (2013.1, Build901 2013/11/27)

>  <Rbt.Parameter_File>
/export/apps/rDock/src/rDock_2013.1_src/data/scripts/dock_solv.prm

>  <Rbt.Receptor>
prm/pocket_docking_5.prm

>  <SCORE>
-19.3446

>  <SCORE.INTER>
-12.9977

>  <SCORE.INTER.CONST>
1

>  <SCORE.INTER.POLAR>
0

>  <SCORE.INTER.ROT>
6

>  <SCORE.INTER.SOLV>
17.1057

>  <SCORE.INTER.VDW>
-21.9671

>  <SCORE.INTER.norm>
-0.419282

>  <SCORE.INTRA>
-6.34686

>  <SCORE.INTRA.DIHEDRAL>
-14.6778

>  <SCORE.INTRA.DIHEDRAL.0>
20.6841

>  <SCORE.INTRA.POLAR>
0

>  <SCORE.INTRA.POLAR.0>
0

>  <SCORE.INTRA.REPUL>
0

>  <SCORE.INTRA.REPUL.0>
0

>  <SCORE.INTRA.SOLV>
0.131981

>  <SCORE.INTRA.SOLV.lig_0>
-64.6797

>  <SCORE.INTRA.VDW>
0.926056

>  <SCORE.INTRA.VDW.0>
-4.11825

>  <SCORE.INTRA.norm>
-0.204738

>  <SCORE.RESTR>
0

>  <SCORE.RESTR.CAVITY>
0

>  <SCORE.RESTR.norm>
0

>  <SCORE.SYSTEM>
0

>  <SCORE.SYSTEM.CONST>
0

>  <SCORE.SYSTEM.DIHEDRAL>
0

>  <SCORE.SYSTEM.SOLV>
0

>  <SCORE.SYSTEM.norm>
0

>  <SCORE.heavy>
31

>  <SCORE.norm>
-0.62402

>  <RMSD>
1.633

$$$$
ligand
 OpenBabel11021811493D
libRbt.so/2013.1/901 2013/11/27
 31 33  0  0  0  0  0  0  0  0999 V2000
   -3.8992   14.5302    4.8052 C   0  0  2  0  0  0  0  0  0  0  0  0
   -4.5213   14.7108    6.0738 O   0  0  0  0  0  0  0  0  0  0  0  0
   -4.1964   13.1080    9.9993 C   0  0  2  0  0  0  0  0  0  0  0  0
   -4.2216   12.1619   11.0722 N   0  0  0  0  0  0  0  0  0  0  0  0
   -1.5790   11.7599   10.6661 C   0  0  2  0  0  0  0  0  0  0  0  0
   -3.7840   15.9672    4.1512 C   0  0  2  0  0  0  0  0  0  0  0  0
   -2.9914   16.8204    5.0305 N   0  0  0  0  0  0  0  0  0  0  0  0
   -5.6377   13.1576    9.3436 C   0  0  0  0  0  0  0  0  0  0  0  0
   -0.0483   11.9402   10.9174 C   0  0  2  0  0  0  0  0  0  0  0  0
    0.2087   13.3114   11.1325 O   0  0  0  0  0  0  0  0  0  0  0  0
   -5.2211   16.5843    3.9217 C   0  0  0  0  0  0  0  0  0  0  0  0
   -5.6130   14.1963    8.1603 C   0  0  2  0  0  0  0  0  0  0  0  0
   -6.9495   14.2428    7.5429 N   0  0  0  0  0  0  0  0  0  0  0  0
    0.7006   11.4203    9.6319 C   0  0  1  0  0  0  0  0  0  0  0  0
    2.1814   11.5868    9.8063 N   0  0  0  0  0  0  0  0  0  0  0  0
   -6.2809   15.4927    3.4690 C   0  0  0  0  0  0  0  0  0  0  0  0
   -4.5235   13.7611    7.0836 C   0  0  2  0  0  0  0  0  0  0  0  0
    0.3518    9.8377    9.4525 C   0  0  1  0  0  0  0  0  0  0  0  0
    0.7322    9.0713   10.5827 O   0  0  0  0  0  0  0  0  0  0  0  0
   -5.9803   14.1674    3.5029 C   0  0  2  0  0  0  0  0  0  0  0  0
   -4.7075   13.6786    3.9418 O   0  0  0  0  0  0  0  0  0  0  0  0
   -3.1051   13.7103    7.7630 C   0  0  2  0  0  0  0  0  0  0  0  0
   -2.1255   13.3054    6.7826 O   0  0  0  0  0  0  0  0  0  0  0  0
   -1.1897    9.6504    9.2712 C   0  0  0  0  0  0  0  0  0  0  0  0
   -1.9078   10.2985   10.4254 O   0  0  0  0  0  0  0  0  0  0  0  0
   -6.9663   13.0789    3.0746 C   0  0  0  0  0  0  0  0  0  0  0  0
   -8.1546   13.7256    2.5608 O   0  0  0  0  0  0  0  0  0  0  0  0
   -3.1431   12.6522    8.9267 C   0  0  1  0  0  0  0  0  0  0  0  0
   -1.8768   12.6018    9.5051 O   0  0  0  0  0  0  0  0  0  0  0  0
    1.0110    9.1589    8.2277 C   0  0  0  0  0  0  0  0  0  0  0  0
    2.9394   12.0491    8.6257 C   0  0  0  0  0  0  0  0  0  0  0  0
  1  2  1  1  0  0  0
  1  6  1  0  0  0  0
  1 21  1  0  0  0  0
  3  4  1  1  0  0  0
  3  8  1  0  0  0  0
  3 28  1  0  0  0  0
  5  9  1  0  0  0  0
  5 25  1  0  0  0  0
  5 29  1  6  0  0  0
  6  7  1  1  0  0  0
  6 11  1  0  0  0  0
  8 12  1  0  0  0  0
  9 10  1  6  0  0  0
  9 14  1  0  0  0  0
 11 16  1  0  0  0  0
 12 13  1  6  0  0  0
 12 17  1  0  0  0  0
 14 15  1  1  0  0  0
 14 18  1  0  0  0  0
 15 31  1  0  0  0  0
 16 20  1  0  0  0  0
 17  2  1  6  0  0  0
 17 22  1  0  0  0  0
 18 19  1  1  0  0  0
 18 24  1  0  0  0  0
 18 30  1  0  0  0  0
 20 21  1  0  0  0  0
 20 26  1  6  0  0  0
 22 23  1  6  0  0  0
 22 28  1  0  0  0  0
 24 25  1  0  0  0  0
 26 27  1  0  0  0  0
 28 29  1  1  0  0  0
M  END
>  <CHROM.1>
-164.26543232,176.52402077,-139.64068811,-165.90546306,4.37110846,58.30970872
-2.90032528,12.93863617,7.58669002,-2.31583596,-0.18995588,1.97831321

>  <Name>
ligand

>  <RI>
0

>  <Rbt.Current_Directory>
/home/itssahil/PROJECTS/Mol_Feturizer/New_Systems/rnas/4GPX

>  <Rbt.Executable>
rbdock ($Id: //depot/dev/client3/rdock/2013.1/src/exe/rbdock.cxx#4 $)

>  <Rbt.Library>
libRbt.so (2013.1, Build901 2013/11/27)

>  <Rbt.Parameter_File>
/export/apps/rDock/src/rDock_2013.1_src/data/scripts/dock_solv.prm

>  <Rbt.Receptor>
prm/pocket_docking_5.prm

>  <SCORE>
-19.2307

>  <SCORE.INTER>
-13.1362

>  <SCORE.INTER.CONST>
1

>  <SCORE.INTER.POLAR>
0

>  <SCORE.INTER.ROT>
6

>  <SCORE.INTER.SOLV>
18.6963

>  <SCORE.INTER.VDW>
-22.5895

>  <SCORE.INTER.norm>
-0.423748

>  <SCORE.INTRA>
-6.09447

>  <SCORE.INTRA.DIHEDRAL>
-15.8942

>  <SCORE.INTRA.DIHEDRAL.0>
20.6841

>  <SCORE.INTRA.POLAR>
0

>  <SCORE.INTRA.POLAR.0>
0

>  <SCORE.INTRA.REPUL>
0

>  <SCORE.INTRA.REPUL.0>
0

>  <SCORE.INTRA.SOLV>
-0.834134

>  <SCORE.INTRA.SOLV.lig_0>
-64.6797

>  <SCORE.INTRA.VDW>
2.26968

>  <SCORE.INTRA.VDW.0>
-4.11825

>  <SCORE.INTRA.norm>
-0.196596

>  <SCORE.RESTR>
0

>  <SCORE.RESTR.CAVITY>
0

>  <SCORE.RESTR.norm>
0

>  <SCORE.SYSTEM>
0

>  <SCORE.SYSTEM.CONST>
0

>  <SCORE.SYSTEM.DIHEDRAL>
0

>  <SCORE.SYSTEM.SOLV>
0

>  <SCORE.SYSTEM.norm>
0

>  <SCORE.heavy>
31

>  <SCORE.norm>
-0.620344

>  <RMSD>
1.636

$$$$
ligand
 OpenBabel11021811493D
libRbt.so/2013.1/901 2013/11/27
 31 33  0  0  0  0  0  0  0  0999 V2000
   -3.6075   14.4443    4.9291 C   0  0  2  0  0  0  0  0  0  0  0  0
   -4.1865   14.6691    6.2111 O   0  0  0  0  0  0  0  0  0  0  0  0
   -3.7655   13.1325   10.1539 C   0  0  2  0  0  0  0  0  0  0  0  0
   -3.7856   12.2099   11.2472 N   0  0  0  0  0  0  0  0  0  0  0  0
   -1.1743   11.6597   10.7202 C   0  0  2  0  0  0  0  0  0  0  0  0
   -3.3953   15.8699    4.2744 C   0  0  2  0  0  0  0  0  0  0  0  0
   -2.5205   16.6568    5.1373 N   0  0  0  0  0  0  0  0  0  0  0  0
   -5.2296   13.2306    9.5566 C   0  0  0  0  0  0  0  0  0  0  0  0
    0.3763   11.7520   10.8800 C   0  0  2  0  0  0  0  0  0  0  0  0
    0.7235   13.1062   11.0754 O   0  0  0  0  0  0  0  0  0  0  0  0
   -4.7850   16.5970    4.0765 C   0  0  0  0  0  0  0  0  0  0  0  0
   -5.2107   14.2435    8.3511 C   0  0  2  0  0  0  0  0  0  0  0  0
   -6.5688   14.3348    7.7880 N   0  0  0  0  0  0  0  0  0  0  0  0
    1.0168   11.1906    9.5540 C   0  0  1  0  0  0  0  0  0  0  0  0
    2.5125   11.2720    9.6400 N   0  0  0  0  0  0  0  0  0  0  0  0
   -5.9355   15.5919    3.6456 C   0  0  0  0  0  0  0  0  0  0  0  0
   -4.1864   13.7406    7.2405 C   0  0  2  0  0  0  0  0  0  0  0  0
    0.5681    9.6306    9.4003 C   0  0  1  0  0  0  0  0  0  0  0  0
    0.9704    8.8433   10.5082 O   0  0  0  0  0  0  0  0  0  0  0  0
   -5.7378   14.2473    3.6715 C   0  0  2  0  0  0  0  0  0  0  0  0
   -4.4976   13.6603    4.0825 O   0  0  0  0  0  0  0  0  0  0  0  0
   -2.7442   13.6428    7.8623 C   0  0  2  0  0  0  0  0  0  0  0  0
   -1.8243   13.1769    6.8517 O   0  0  0  0  0  0  0  0  0  0  0  0
   -0.9895    9.5318    9.3111 C   0  0  0  0  0  0  0  0  0  0  0  0
   -1.5999   10.2195   10.5038 O   0  0  0  0  0  0  0  0  0  0  0  0
   -6.8141   13.2395    3.2635 C   0  0  0  0  0  0  0  0  0  0  0  0
   -7.4082   12.7033    4.4692 O   0  0  0  0  0  0  0  0  0  0  0  0
   -2.7780   12.6107    9.0493 C   0  0  1  0  0  0  0  0  0  0  0  0
   -1.4918   12.5177    9.5764 O   0  0  0  0  0  0  0  0  0  0  0  0
    1.1138    8.9157    8.1406 C   0  0  0  0  0  0  0  0  0  0  0  0
    3.2246   11.6882    8.4145 C   0  0  0  0  0  0  0  0  0  0  0  0
  1  2  1  1  0  0  0
  1  6  1  0  0  0  0
  1 21  1  0  0  0  0
  3  4  1  1  0  0  0
  3  8  1  0  0  0  0
  3 28  1  0  0  0  0
  5  9  1  0  0  0  0
  5 25  1  0  0  0  0
  5 29  1  6  0  0  0
  6  7  1  1  0  0  0
  6 11  1  0  0  0  0
  8 12  1  0  0  0  0
  9 10  1  6  0  0  0
  9 14  1  0  0  0  0
 11 16  1  0  0  0  0
 12 13  1  6  0  0  0
 12 17  1  0  0  0  0
 14 15  1  1  0  0  0
 14 18  1  0  0  0  0
 15 31  1  0  0  0  0
 16 20  1  0  0  0  0
 17  2  1  6  0  0  0
 17 22  1  0  0  0  0
 18 19  1  1  0  0  0
 18 24  1  0  0  0  0
 18 30  1  0  0  0  0
 20 21  1  0  0  0  0
 20 26  1  6  0  0  0
 22 23  1  6  0  0  0
 22 28  1  0  0  0  0
 24 25  1  0  0  0  0
 26 27  1  0  0  0  0
 28 29  1  1  0  0  0
M  END
>  <CHROM.1>
-161.17440379,174.60607769,-139.75729575,-166.93382589,-101.11222148,59.97119542
-2.55225410,12.82284760,7.72595297,-2.33444494,-0.21276633,2.01270735

>  <Name>
ligand

>  <RI>
0

>  <Rbt.Current_Directory>
/home/itssahil/PROJECTS/Mol_Feturizer/New_Systems/rnas/4GPX

>  <Rbt.Executable>
rbdock ($Id: //depot/dev/client3/rdock/2013.1/src/exe/rbdock.cxx#4 $)

>  <Rbt.Library>
libRbt.so (2013.1, Build901 2013/11/27)

>  <Rbt.Parameter_File>
/export/apps/rDock/src/rDock_2013.1_src/data/scripts/dock_solv.prm

>  <Rbt.Receptor>
prm/pocket_docking_6.prm

>  <SCORE>
-19.4511

>  <SCORE.INTER>
-12.7746

>  <SCORE.INTER.CONST>
1

>  <SCORE.INTER.POLAR>
0

>  <SCORE.INTER.ROT>
6

>  <SCORE.INTER.SOLV>
16.9349

>  <SCORE.INTER.VDW>
-21.7614

>  <SCORE.INTER.norm>
-0.412084

>  <SCORE.INTRA>
-6.67655

>  <SCORE.INTRA.DIHEDRAL>
-15.0909

>  <SCORE.INTRA.DIHEDRAL.0>
20.6841

>  <SCORE.INTRA.POLAR>
0

>  <SCORE.INTRA.POLAR.0>
0

>  <SCORE.INTRA.REPUL>
0

>  <SCORE.INTRA.REPUL.0>
0

>  <SCORE.INTRA.SOLV>
-0.432636

>  <SCORE.INTRA.SOLV.lig_0>
-64.6797

>  <SCORE.INTRA.VDW>
1.08524

>  <SCORE.INTRA.VDW.0>
-4.11825

>  <SCORE.INTRA.norm>
-0.215373

>  <SCORE.RESTR>
0

>  <SCORE.RESTR.CAVITY>
0

>  <SCORE.RESTR.norm>
0

>  <SCORE.SYSTEM>
0

>  <SCORE.SYSTEM.CONST>
0

>  <SCORE.SYSTEM.DIHEDRAL>
0

>  <SCORE.SYSTEM.SOLV>
0

>  <SCORE.SYSTEM.norm>
0

>  <SCORE.heavy>
31

>  <SCORE.norm>
-0.627456

>  <RMSD>
1.638

$$$$
ligand
 OpenBabel11021811493D
libRbt.so/2013.1/901 2013/11/27
 31 33  0  0  0  0  0  0  0  0999 V2000
   -3.5817   14.4999    4.9091 C   0  0  2  0  0  0  0  0  0  0  0  0
   -4.1671   14.6980    6.1926 O   0  0  0  0  0  0  0  0  0  0  0  0
   -3.7774   13.1096   10.1181 C   0  0  2  0  0  0  0  0  0  0  0  0
   -3.7920   12.1692   11.1961 N   0  0  0  0  0  0  0  0  0  0  0  0
   -1.1553   11.6965   10.7073 C   0  0  2  0  0  0  0  0  0  0  0  0
   -3.3959   15.9372    4.2721 C   0  0  2  0  0  0  0  0  0  0  0  0
   -2.5378   16.7302    5.1462 N   0  0  0  0  0  0  0  0  0  0  0  0
   -5.2321   13.1765    9.4943 C   0  0  0  0  0  0  0  0  0  0  0  0
    0.3961   11.7856   10.8619 C   0  0  2  0  0  0  0  0  0  0  0  0
    0.7452   13.1372   11.0719 O   0  0  0  0  0  0  0  0  0  0  0  0
   -4.7989   16.6399    4.0804 C   0  0  0  0  0  0  0  0  0  0  0  0
   -5.2192   14.2090    8.3054 C   0  0  2  0  0  0  0  0  0  0  0  0
   -6.5683   14.2714    7.7177 N   0  0  0  0  0  0  0  0  0  0  0  0
    1.0307   11.2395    9.5267 C   0  0  1  0  0  0  0  0  0  0  0  0
    2.5267   11.3186    9.6076 N   0  0  0  0  0  0  0  0  0  0  0  0
   -5.9292   15.6182    3.6351 C   0  0  0  0  0  0  0  0  0  0  0  0
   -4.1602   13.7532    7.2070 C   0  0  2  0  0  0  0  0  0  0  0  0
    0.5800    9.6818    9.3564 C   0  0  1  0  0  0  0  0  0  0  0  0
    0.9861    8.8811   10.4533 O   0  0  0  0  0  0  0  0  0  0  0  0
   -5.7057   14.2774    3.6451 C   0  0  2  0  0  0  0  0  0  0  0  0
   -4.4552   13.7093    4.0513 O   0  0  0  0  0  0  0  0  0  0  0  0
   -2.7278   13.6857    7.8550 C   0  0  2  0  0  0  0  0  0  0  0  0
   -1.7761   13.2622    6.8552 O   0  0  0  0  0  0  0  0  0  0  0  0
   -0.9780    9.5854    9.2724 C   0  0  0  0  0  0  0  0  0  0  0  0
   -1.5830   10.2593   10.4756 O   0  0  0  0  0  0  0  0  0  0  0  0
   -6.7618   13.2542    3.2228 C   0  0  0  0  0  0  0  0  0  0  0  0
   -7.3647   12.7099    4.4205 O   0  0  0  0  0  0  0  0  0  0  0  0
   -2.7548   12.6338    9.0247 C   0  0  1  0  0  0  0  0  0  0  0  0
   -1.4767   12.5682    9.5751 O   0  0  0  0  0  0  0  0  0  0  0  0
    1.1200    8.9814    8.0862 C   0  0  0  0  0  0  0  0  0  0  0  0
    3.2311   11.7924    8.3986 C   0  0  0  0  0  0  0  0  0  0  0  0
  1  2  1  1  0  0  0
  1  6  1  0  0  0  0
  1 21  1  0  0  0  0
  3  4  1  1  0  0  0
  3  8  1  0  0  0  0
  3 28  1  0  0  0  0
  5  9  1  0  0  0  0
  5 25  1  0  0  0  0
  5 29  1  6  0  0  0
  6  7  1  1  0  0  0
  6 11  1  0  0  0  0
  8 12  1  0  0  0  0
  9 10  1  6  0  0  0
  9 14  1  0  0  0  0
 11 16  1  0  0  0  0
 12 13  1  6  0  0  0
 12 17  1  0  0  0  0
 14 15  1  1  0  0  0
 14 18  1  0  0  0  0
 15 31  1  0  0  0  0
 16 20  1  0  0  0  0
 17  2  1  6  0  0  0
 17 22  1  0  0  0  0
 18 19  1  1  0  0  0
 18 24  1  0  0  0  0
 18 30  1  0  0  0  0
 20 21  1  0  0  0  0
 20 26  1  6  0  0  0
 22 23  1  6  0  0  0
 22 28  1  0  0  0  0
 24 25  1  0  0  0  0
 26 27  1  0  0  0  0
 28 29  1  1  0  0  0
M  END
>  <CHROM.1>
-161.71002448,172.33021040,-137.75580152,-165.58461230,-100.08180264,60.24886679
-2.53735048,12.85390363,7.69882677,-2.32962281,-0.18599558,2.03535240

>  <Name>
ligand

>  <RI>
0

>  <Rbt.Current_Directory>
/home/itssahil/PROJECTS/Mol_Feturizer/New_Systems/rnas/4GPX

>  <Rbt.Executable>
rbdock ($Id: //depot/dev/client3/rdock/2013.1/src/exe/rbdock.cxx#4 $)

>  <Rbt.Library>
libRbt.so (2013.1, Build901 2013/11/27)

>  <Rbt.Parameter_File>
/export/apps/rDock/src/rDock_2013.1_src/data/scripts/dock_solv.prm

>  <Rbt.Receptor>
prm/pocket_docking_3.prm

>  <SCORE>
-19.453

>  <SCORE.INTER>
-12.9559

>  <SCORE.INTER.CONST>
1

>  <SCORE.INTER.POLAR>
0

>  <SCORE.INTER.ROT>
6

>  <SCORE.INTER.SOLV>
16.6903

>  <SCORE.INTER.VDW>
-21.8007

>  <SCORE.INTER.norm>
-0.417933

>  <SCORE.INTRA>
-6.4971

>  <SCORE.INTRA.DIHEDRAL>
-14.7665

>  <SCORE.INTRA.DIHEDRAL.0>
20.6841

>  <SCORE.INTRA.POLAR>
0

>  <SCORE.INTRA.POLAR.0>
0

>  <SCORE.INTRA.REPUL>
0

>  <SCORE.INTRA.REPUL.0>
0

>  <SCORE.INTRA.SOLV>
-0.249572

>  <SCORE.INTRA.SOLV.lig_0>
-64.6797

>  <SCORE.INTRA.VDW>
1.01096

>  <SCORE.INTRA.VDW.0>
-4.11825

>  <SCORE.INTRA.norm>
-0.209584

>  <SCORE.RESTR>
0

>  <SCORE.RESTR.CAVITY>
0

>  <SCORE.RESTR.norm>
0

>  <SCORE.SYSTEM>
0

>  <SCORE.SYSTEM.CONST>
0

>  <SCORE.SYSTEM.DIHEDRAL>
0

>  <SCORE.SYSTEM.SOLV>
0

>  <SCORE.SYSTEM.norm>
0

>  <SCORE.heavy>
31

>  <SCORE.norm>
-0.627517

>  <RMSD>
1.643

$$$$
ligand
 OpenBabel11021811493D
libRbt.so/2013.1/901 2013/11/27
 31 33  0  0  0  0  0  0  0  0999 V2000
   -3.6403   14.4476    4.8930 C   0  0  2  0  0  0  0  0  0  0  0  0
   -4.2069   14.6756    6.1800 O   0  0  0  0  0  0  0  0  0  0  0  0
   -3.7498   13.1594   10.1266 C   0  0  2  0  0  0  0  0  0  0  0  0
   -3.7554   12.2413   11.2239 N   0  0  0  0  0  0  0  0  0  0  0  0
   -1.1396   11.7030   10.6764 C   0  0  2  0  0  0  0  0  0  0  0  0
   -3.4329   15.8717    4.2334 C   0  0  2  0  0  0  0  0  0  0  0  0
   -2.5490   16.6594    5.0865 N   0  0  0  0  0  0  0  0  0  0  0  0
   -5.2181   13.2418    9.5373 C   0  0  0  0  0  0  0  0  0  0  0  0
    0.4135   11.7933   10.8121 C   0  0  2  0  0  0  0  0  0  0  0  0
    0.7653   13.1468   11.0038 O   0  0  0  0  0  0  0  0  0  0  0  0
   -4.8236   16.5999    4.0473 C   0  0  0  0  0  0  0  0  0  0  0  0
   -5.2152   14.2497    8.3275 C   0  0  2  0  0  0  0  0  0  0  0  0
   -6.5772   14.3263    7.7717 N   0  0  0  0  0  0  0  0  0  0  0  0
    1.0325   11.2330    9.4754 C   0  0  1  0  0  0  0  0  0  0  0  0
    2.5294   11.3125    9.5381 N   0  0  0  0  0  0  0  0  0  0  0  0
   -5.9792   15.5952    3.6293 C   0  0  0  0  0  0  0  0  0  0  0  0
   -4.1926   13.7515    7.2132 C   0  0  2  0  0  0  0  0  0  0  0  0
    0.5796    9.6738    9.3266 C   0  0  1  0  0  0  0  0  0  0  0  0
    0.9982    8.8844   10.4271 O   0  0  0  0  0  0  0  0  0  0  0  0
   -5.7827   14.2504    3.6561 C   0  0  2  0  0  0  0  0  0  0  0  0
   -4.5393   13.6629    4.0565 O   0  0  0  0  0  0  0  0  0  0  0  0
   -2.7461   13.6694    7.8272 C   0  0  2  0  0  0  0  0  0  0  0  0
   -1.8276   13.2077    6.8134 O   0  0  0  0  0  0  0  0  0  0  0  0
   -0.9794    9.5769    9.2617 C   0  0  0  0  0  0  0  0  0  0  0  0
   -1.5701   10.2636   10.4648 O   0  0  0  0  0  0  0  0  0  0  0  0
   -6.8638   13.2430    3.2603 C   0  0  0  0  0  0  0  0  0  0  0  0
   -7.4226   12.6837    4.4724 O   0  0  0  0  0  0  0  0  0  0  0  0
   -2.7638   12.6420    9.0187 C   0  0  1  0  0  0  0  0  0  0  0  0
   -1.4739   12.5629    9.5389 O   0  0  0  0  0  0  0  0  0  0  0  0
    1.1046    8.9599    8.0576 C   0  0  0  0  0  0  0  0  0  0  0  0
    3.2195   11.7780    8.3177 C   0  0  0  0  0  0  0  0  0  0  0  0
  1  2  1  1  0  0  0
  1  6  1  0  0  0  0
  1 21  1  0  0  0  0
  3  4  1  1  0  0  0
  3  8  1  0  0  0  0
  3 28  1  0  0  0  0
  5  9  1  0  0  0  0
  5 25  1  0  0  0  0
  5 29  1  6  0  0  0
  6  7  1  1  0  0  0
  6 11  1  0  0  0  0
  8 12  1  0  0  0  0
  9 10  1  6  0  0  0
  9 14  1  0  0  0  0
 11 16  1  0  0  0  0
 12 13  1  6  0  0  0
 12 17  1  0  0  0  0
 14 15  1  1  0  0  0
 14 18  1  0  0  0  0
 15 31  1  0  0  0  0
 16 20  1  0  0  0  0
 17  2  1  6  0  0  0
 17 22  1  0  0  0  0
 18 19  1  1  0  0  0
 18 24  1  0  0  0  0
 18 30  1  0  0  0  0
 20 21  1  0  0  0  0
 20 26  1  6  0  0  0
 22 23  1  6  0  0  0
 22 28  1  0  0  0  0
 24 25  1  0  0  0  0
 26 27  1  0  0  0  0
 28 29  1  1  0  0  0
M  END
>  <CHROM.1>
-160.86173694,173.56268888,-137.54294599,-166.52918279,-102.60451573,60.56464341
-2.55456892,12.84681253,7.68358076,-2.34368641,-0.20989004,2.00954157

>  <Name>
ligand

>  <RI>
0

>  <Rbt.Current_Directory>
/home/itssahil/PROJECTS/Mol_Feturizer/New_Systems/rnas/4GPX

>  <Rbt.Executable>
rbdock ($Id: //depot/dev/client3/rdock/2013.1/src/exe/rbdock.cxx#4 $)

>  <Rbt.Library>
libRbt.so (2013.1, Build901 2013/11/27)

>  <Rbt.Parameter_File>
/export/apps/rDock/src/rDock_2013.1_src/data/scripts/dock_solv.prm

>  <Rbt.Receptor>
prm/pocket_docking_4.prm

>  <SCORE>
-19.4654

>  <SCORE.INTER>
-12.8248

>  <SCORE.INTER.CONST>
1

>  <SCORE.INTER.POLAR>
0

>  <SCORE.INTER.ROT>
6

>  <SCORE.INTER.SOLV>
16.791

>  <SCORE.INTER.VDW>
-21.7469

>  <SCORE.INTER.norm>
-0.413705

>  <SCORE.INTRA>
-6.64051

>  <SCORE.INTRA.DIHEDRAL>
-14.9348

>  <SCORE.INTRA.DIHEDRAL.0>
20.6841

>  <SCORE.INTRA.POLAR>
0

>  <SCORE.INTRA.POLAR.0>
0

>  <SCORE.INTRA.REPUL>
0

>  <SCORE.INTRA.REPUL.0>
0

>  <SCORE.INTRA.SOLV>
-0.37652

>  <SCORE.INTRA.SOLV.lig_0>
-64.6797

>  <SCORE.INTRA.VDW>
1.01517

>  <SCORE.INTRA.VDW.0>
-4.11825

>  <SCORE.INTRA.norm>
-0.21421

>  <SCORE.RESTR>
0

>  <SCORE.RESTR.CAVITY>
0

>  <SCORE.RESTR.norm>
0

>  <SCORE.SYSTEM>
0

>  <SCORE.SYSTEM.CONST>
0

>  <SCORE.SYSTEM.DIHEDRAL>
0

>  <SCORE.SYSTEM.SOLV>
0

>  <SCORE.SYSTEM.norm>
0

>  <SCORE.heavy>
31

>  <SCORE.norm>
-0.627915

>  <RMSD>
1.651

$$$$
ligand
 OpenBabel11021811493D
libRbt.so/2013.1/901 2013/11/27
 31 33  0  0  0  0  0  0  0  0999 V2000
   -3.9317   14.5351    4.7885 C   0  0  2  0  0  0  0  0  0  0  0  0
   -4.5439   14.7145    6.0622 O   0  0  0  0  0  0  0  0  0  0  0  0
   -4.1986   13.1069    9.9840 C   0  0  2  0  0  0  0  0  0  0  0  0
   -4.2168   12.1592   11.0556 N   0  0  0  0  0  0  0  0  0  0  0  0
   -1.5810   11.7858   10.6544 C   0  0  2  0  0  0  0  0  0  0  0  0
   -3.8019   15.9753    4.1442 C   0  0  2  0  0  0  0  0  0  0  0  0
   -2.9931   16.8117    5.0248 N   0  0  0  0  0  0  0  0  0  0  0  0
   -5.6427   13.1531    9.3340 C   0  0  0  0  0  0  0  0  0  0  0  0
   -0.0480   11.9612   10.8950 C   0  0  2  0  0  0  0  0  0  0  0  0
    0.2183   13.3345   11.0840 O   0  0  0  0  0  0  0  0  0  0  0  0
   -5.2323   16.6125    3.9279 C   0  0  0  0  0  0  0  0  0  0  0  0
   -5.6257   14.1936    8.1522 C   0  0  2  0  0  0  0  0  0  0  0  0
   -6.9648   14.2370    7.5402 N   0  0  0  0  0  0  0  0  0  0  0  0
    0.6913   11.4136    9.6154 C   0  0  1  0  0  0  0  0  0  0  0  0
    2.1740   11.5741    9.7796 N   0  0  0  0  0  0  0  0  0  0  0  0
   -6.3088   15.5380    3.4738 C   0  0  0  0  0  0  0  0  0  0  0  0
   -4.5392   13.7633    7.0705 C   0  0  2  0  0  0  0  0  0  0  0  0
    0.3320    9.8302    9.4664 C   0  0  1  0  0  0  0  0  0  0  0  0
    0.7134    9.0820   10.6083 O   0  0  0  0  0  0  0  0  0  0  0  0
   -6.0252   14.2088    3.4963 C   0  0  2  0  0  0  0  0  0  0  0  0
   -4.7562   13.7004    3.9240 O   0  0  0  0  0  0  0  0  0  0  0  0
   -3.1180   13.7158    7.7442 C   0  0  2  0  0  0  0  0  0  0  0  0
   -2.1411   13.3153    6.7594 O   0  0  0  0  0  0  0  0  0  0  0  0
   -1.2114    9.6491    9.2960 C   0  0  0  0  0  0  0  0  0  0  0  0
   -1.9199   10.3223   10.4417 O   0  0  0  0  0  0  0  0  0  0  0  0
   -7.0277   13.1362    3.0662 C   0  0  0  0  0  0  0  0  0  0  0  0
   -8.2135   13.8019    2.5712 O   0  0  0  0  0  0  0  0  0  0  0  0
   -3.1482   12.6559    8.9066 C   0  0  1  0  0  0  0  0  0  0  0  0
   -1.8794   12.6084    9.4799 O   0  0  0  0  0  0  0  0  0  0  0  0
    0.9811    9.1253    8.2508 C   0  0  0  0  0  0  0  0  0  0  0  0
    2.9370   11.9512    8.5723 C   0  0  0  0  0  0  0  0  0  0  0  0
  1  2  1  1  0  0  0
  1  6  1  0  0  0  0
  1 21  1  0  0  0  0
  3  4  1  1  0  0  0
  3  8  1  0  0  0  0
  3 28  1  0  0  0  0
  5  9  1  0  0  0  0
  5 25  1  0  0  0  0
  5 29  1  6  0  0  0
  6  7  1  1  0  0  0
  6 11  1  0  0  0  0
  8 12  1  0  0  0  0
  9 10  1  6  0  0  0
  9 14  1  0  0  0  0
 11 16  1  0  0  0  0
 12 13  1  6  0  0  0
 12 17  1  0  0  0  0
 14 15  1  1  0  0  0
 14 18  1  0  0  0  0
 15 31  1  0  0  0  0
 16 20  1  0  0  0  0
 17  2  1  6  0  0  0
 17 22  1  0  0  0  0
 18 19  1  1  0  0  0
 18 24  1  0  0  0  0
 18 30  1  0  0  0  0
 20 21  1  0  0  0  0
 20 26  1  6  0  0  0
 22 23  1  6  0  0  0
 22 28  1  0  0  0  0
 24 25  1  0  0  0  0
 26 27  1  0  0  0  0
 28 29  1  1  0  0  0
M  END
>  <CHROM.1>
-163.49969950,176.50349510,-142.31244385,-165.58949887,4.06219622,57.08490789
-2.91743922,12.94640397,7.57761731,-2.31634113,-0.18741363,1.98546805

>  <Name>
ligand

>  <RI>
0

>  <Rbt.Current_Directory>
/home/itssahil/PROJECTS/Mol_Feturizer/New_Systems/rnas/4GPX

>  <Rbt.Executable>
rbdock ($Id: //depot/dev/client3/rdock/2013.1/src/exe/rbdock.cxx#4 $)

>  <Rbt.Library>
libRbt.so (2013.1, Build901 2013/11/27)

>  <Rbt.Parameter_File>
/export/apps/rDock/src/rDock_2013.1_src/data/scripts/dock_solv.prm

>  <Rbt.Receptor>
prm/pocket_docking_4.prm

>  <SCORE>
-19.1998

>  <SCORE.INTER>
-13.322

>  <SCORE.INTER.CONST>
1

>  <SCORE.INTER.POLAR>
0

>  <SCORE.INTER.ROT>
6

>  <SCORE.INTER.SOLV>
18.7203

>  <SCORE.INTER.VDW>
-22.7215

>  <SCORE.INTER.norm>
-0.429742

>  <SCORE.INTRA>
-5.87783

>  <SCORE.INTRA.DIHEDRAL>
-15.7955

>  <SCORE.INTRA.DIHEDRAL.0>
20.6841

>  <SCORE.INTRA.POLAR>
0

>  <SCORE.INTRA.POLAR.0>
0

>  <SCORE.INTRA.REPUL>
0

>  <SCORE.INTRA.REPUL.0>
0

>  <SCORE.INTRA.SOLV>
-0.75375

>  <SCORE.INTRA.SOLV.lig_0>
-64.6797

>  <SCORE.INTRA.VDW>
2.39682

>  <SCORE.INTRA.VDW.0>
-4.11825

>  <SCORE.INTRA.norm>
-0.189607

>  <SCORE.RESTR>
0

>  <SCORE.RESTR.CAVITY>
0

>  <SCORE.RESTR.norm>
0

>  <SCORE.SYSTEM>
0

>  <SCORE.SYSTEM.CONST>
0

>  <SCORE.SYSTEM.DIHEDRAL>
0

>  <SCORE.SYSTEM.SOLV>
0

>  <SCORE.SYSTEM.norm>
0

>  <SCORE.heavy>
31

>  <SCORE.norm>
-0.61935

>  <RMSD>
1.654

$$$$
ligand
 OpenBabel11021811493D
libRbt.so/2013.1/901 2013/11/27
 31 33  0  0  0  0  0  0  0  0999 V2000
   -3.5697   14.5827    4.9243 C   0  0  2  0  0  0  0  0  0  0  0  0
   -4.1828   14.7205    6.2027 O   0  0  0  0  0  0  0  0  0  0  0  0
   -3.7669   13.0315   10.0832 C   0  0  2  0  0  0  0  0  0  0  0  0
   -3.7609   12.0606   11.1340 N   0  0  0  0  0  0  0  0  0  0  0  0
   -1.1250   11.7131   10.6809 C   0  0  2  0  0  0  0  0  0  0  0  0
   -3.4844   16.0377    4.3065 C   0  0  2  0  0  0  0  0  0  0  0  0
   -2.6978   16.8813    5.2002 N   0  0  0  0  0  0  0  0  0  0  0  0
   -5.2204   13.0779    9.4548 C   0  0  0  0  0  0  0  0  0  0  0  0
    0.4308   11.7709   10.8022 C   0  0  2  0  0  0  0  0  0  0  0  0
    0.8137   13.1186   10.9744 O   0  0  0  0  0  0  0  0  0  0  0  0
   -4.9336   16.6362    4.1057 C   0  0  0  0  0  0  0  0  0  0  0  0
   -5.2300   14.1439    8.2958 C   0  0  2  0  0  0  0  0  0  0  0  0
   -6.5780   14.1877    7.7037 N   0  0  0  0  0  0  0  0  0  0  0  0
    1.0256   11.1813    9.4671 C   0  0  1  0  0  0  0  0  0  0  0  0
    2.5244   11.2288    9.5160 N   0  0  0  0  0  0  0  0  0  0  0  0
   -5.9794   15.5389    3.6346 C   0  0  0  0  0  0  0  0  0  0  0  0
   -4.1550   13.7477    7.1899 C   0  0  2  0  0  0  0  0  0  0  0  0
    0.5375    9.6307    9.3411 C   0  0  1  0  0  0  0  0  0  0  0  0
    0.9486    8.8455   10.4475 O   0  0  0  0  0  0  0  0  0  0  0  0
   -5.6566   14.2185    3.6318 C   0  0  2  0  0  0  0  0  0  0  0  0
   -4.3719   13.7400    4.0467 O   0  0  0  0  0  0  0  0  0  0  0  0
   -2.7239   13.6993    7.8424 C   0  0  2  0  0  0  0  0  0  0  0  0
   -1.7574   13.3297    6.8355 O   0  0  0  0  0  0  0  0  0  0  0  0
   -1.0237    9.5672    9.2907 C   0  0  0  0  0  0  0  0  0  0  0  0
   -1.5887   10.2811   10.4904 O   0  0  0  0  0  0  0  0  0  0  0  0
   -6.6285   13.1249    3.1846 C   0  0  0  0  0  0  0  0  0  0  0  0
   -7.7115   13.0666    4.1428 O   0  0  0  0  0  0  0  0  0  0  0  0
   -2.7277   12.6141    8.9816 C   0  0  1  0  0  0  0  0  0  0  0  0
   -1.4505   12.5665    9.5359 O   0  0  0  0  0  0  0  0  0  0  0  0
    1.0357    8.8904    8.0764 C   0  0  0  0  0  0  0  0  0  0  0  0
    3.1991   11.9722    8.4324 C   0  0  0  0  0  0  0  0  0  0  0  0
  1  2  1  1  0  0  0
  1  6  1  0  0  0  0
  1 21  1  0  0  0  0
  3  4  1  1  0  0  0
  3  8  1  0  0  0  0
  3 28  1  0  0  0  0
  5  9  1  0  0  0  0
  5 25  1  0  0  0  0
  5 29  1  6  0  0  0
  6  7  1  1  0  0  0
  6 11  1  0  0  0  0
  8 12  1  0  0  0  0
  9 10  1  6  0  0  0
  9 14  1  0  0  0  0
 11 16  1  0  0  0  0
 12 13  1  6  0  0  0
 12 17  1  0  0  0  0
 14 15  1  1  0  0  0
 14 18  1  0  0  0  0
 15 31  1  0  0  0  0
 16 20  1  0  0  0  0
 17  2  1  6  0  0  0
 17 22  1  0  0  0  0
 18 19  1  1  0  0  0
 18 24  1  0  0  0  0
 18 30  1  0  0  0  0
 20 21  1  0  0  0  0
 20 26  1  6  0  0  0
 22 23  1  6  0  0  0
 22 28  1  0  0  0  0
 24 25  1  0  0  0  0
 26 27  1  0  0  0  0
 28 29  1  1  0  0  0
M  END
>  <CHROM.1>
-163.97346807,170.10574437,-122.66595811,-166.59408983,-67.20749846,57.60620408
-2.55530241,12.85443817,7.67252949,-2.32456735,-0.14859644,2.07474106

>  <Name>
ligand

>  <RI>
0

>  <Rbt.Current_Directory>
/home/itssahil/PROJECTS/Mol_Feturizer/New_Systems/rnas/4GPX

>  <Rbt.Executable>
rbdock ($Id: //depot/dev/client3/rdock/2013.1/src/exe/rbdock.cxx#4 $)

>  <Rbt.Library>
libRbt.so (2013.1, Build901 2013/11/27)

>  <Rbt.Parameter_File>
/export/apps/rDock/src/rDock_2013.1_src/data/scripts/dock_solv.prm

>  <Rbt.Receptor>
prm/pocket_docking_8.prm

>  <SCORE>
-18.6973

>  <SCORE.INTER>
-13.0624

>  <SCORE.INTER.CONST>
1

>  <SCORE.INTER.POLAR>
0

>  <SCORE.INTER.ROT>
6

>  <SCORE.INTER.SOLV>
16.6434

>  <SCORE.INTER.VDW>
-21.8561

>  <SCORE.INTER.norm>
-0.421367

>  <SCORE.INTRA>
-5.6349

>  <SCORE.INTRA.DIHEDRAL>
-13.4012

>  <SCORE.INTRA.DIHEDRAL.0>
20.6841

>  <SCORE.INTRA.POLAR>
0

>  <SCORE.INTRA.POLAR.0>
0

>  <SCORE.INTRA.REPUL>
0

>  <SCORE.INTRA.REPUL.0>
0

>  <SCORE.INTRA.SOLV>
-0.371349

>  <SCORE.INTRA.SOLV.lig_0>
-64.6797

>  <SCORE.INTRA.VDW>
1.25138

>  <SCORE.INTRA.VDW.0>
-4.11825

>  <SCORE.INTRA.norm>
-0.181771

>  <SCORE.RESTR>
0

>  <SCORE.RESTR.CAVITY>
0

>  <SCORE.RESTR.norm>
0

>  <SCORE.SYSTEM>
0

>  <SCORE.SYSTEM.CONST>
0

>  <SCORE.SYSTEM.DIHEDRAL>
0

>  <SCORE.SYSTEM.SOLV>
0

>  <SCORE.SYSTEM.norm>
0

>  <SCORE.heavy>
31

>  <SCORE.norm>
-0.603138

>  <RMSD>
1.672

$$$$
ligand
 OpenBabel11021811493D
libRbt.so/2013.1/901 2013/11/27
 31 33  0  0  0  0  0  0  0  0999 V2000
   -3.6274   14.3745    4.9663 C   0  0  2  0  0  0  0  0  0  0  0  0
   -4.0795   14.6639    6.2858 O   0  0  0  0  0  0  0  0  0  0  0  0
   -3.6660   13.1774   10.2486 C   0  0  2  0  0  0  0  0  0  0  0  0
   -3.6897   12.2692   11.3538 N   0  0  0  0  0  0  0  0  0  0  0  0
   -1.0662   11.6554   10.7948 C   0  0  2  0  0  0  0  0  0  0  0  0
   -3.3481   15.7684    4.2699 C   0  0  2  0  0  0  0  0  0  0  0  0
   -2.3423   16.4869    5.0455 N   0  0  0  0  0  0  0  0  0  0  0  0
   -5.1294   13.2722    9.6490 C   0  0  0  0  0  0  0  0  0  0  0  0
    0.4896   11.7120   10.9175 C   0  0  2  0  0  0  0  0  0  0  0  0
    0.8700   13.0535   11.1375 O   0  0  0  0  0  0  0  0  0  0  0  0
   -4.6821   16.6106    4.1696 C   0  0  0  0  0  0  0  0  0  0  0  0
   -5.1066   14.2692    8.4304 C   0  0  2  0  0  0  0  0  0  0  0  0
   -6.4639   14.3573    7.8651 N   0  0  0  0  0  0  0  0  0  0  0  0
    1.0850   11.1713    9.5622 C   0  0  1  0  0  0  0  0  0  0  0  0
    2.5837   11.2200    9.6123 N   0  0  0  0  0  0  0  0  0  0  0  0
   -5.9453   15.7037    3.8507 C   0  0  0  0  0  0  0  0  0  0  0  0
   -4.0829   13.7489    7.3272 C   0  0  2  0  0  0  0  0  0  0  0  0
    0.5999    9.6252    9.3814 C   0  0  1  0  0  0  0  0  0  0  0  0
    1.0129    8.8021   10.4590 O   0  0  0  0  0  0  0  0  0  0  0  0
   -5.8615   14.3475    3.8863 C   0  0  2  0  0  0  0  0  0  0  0  0
   -4.6467   13.6603    4.2082 O   0  0  0  0  0  0  0  0  0  0  0  0
   -2.6415   13.6548    7.9514 C   0  0  2  0  0  0  0  0  0  0  0  0
   -1.7222   13.1730    6.9477 O   0  0  0  0  0  0  0  0  0  0  0  0
   -0.9612    9.5606    9.3292 C   0  0  0  0  0  0  0  0  0  0  0  0
   -1.5271   10.2302   10.5536 O   0  0  0  0  0  0  0  0  0  0  0  0
   -7.0493   13.4318    3.5842 C   0  0  0  0  0  0  0  0  0  0  0  0
   -6.6937   12.5894    2.4626 O   0  0  0  0  0  0  0  0  0  0  0  0
   -2.6792   12.6384    9.1517 C   0  0  1  0  0  0  0  0  0  0  0  0
   -1.3938   12.5484    9.6810 O   0  0  0  0  0  0  0  0  0  0  0  0
    1.0990    8.9313    8.0910 C   0  0  0  0  0  0  0  0  0  0  0  0
    3.2736   11.6576    8.3815 C   0  0  0  0  0  0  0  0  0  0  0  0
  1  2  1  1  0  0  0
  1  6  1  0  0  0  0
  1 21  1  0  0  0  0
  3  4  1  1  0  0  0
  3  8  1  0  0  0  0
  3 28  1  0  0  0  0
  5  9  1  0  0  0  0
  5 25  1  0  0  0  0
  5 29  1  6  0  0  0
  6  7  1  1  0  0  0
  6 11  1  0  0  0  0
  8 12  1  0  0  0  0
  9 10  1  6  0  0  0
  9 14  1  0  0  0  0
 11 16  1  0  0  0  0
 12 13  1  6  0  0  0
 12 17  1  0  0  0  0
 14 15  1  1  0  0  0
 14 18  1  0  0  0  0
 15 31  1  0  0  0  0
 16 20  1  0  0  0  0
 17  2  1  6  0  0  0
 17 22  1  0  0  0  0
 18 19  1  1  0  0  0
 18 24  1  0  0  0  0
 18 30  1  0  0  0  0
 20 21  1  0  0  0  0
 20 26  1  6  0  0  0
 22 23  1  6  0  0  0
 22 28  1  0  0  0  0
 24 25  1  0  0  0  0
 26 27  1  0  0  0  0
 28 29  1  1  0  0  0
M  END
>  <CHROM.1>
-161.58991210,171.79614117,-139.51491501,-160.04963330,120.65655971,63.00198059
-2.47421359,12.82324195,7.71606339,-2.35886848,-0.34699734,1.85733293

>  <Name>
ligand

>  <RI>
0

>  <Rbt.Current_Directory>
/home/itssahil/PROJECTS/Mol_Feturizer/New_Systems/rnas/4GPX

>  <Rbt.Executable>
rbdock ($Id: //depot/dev/client3/rdock/2013.1/src/exe/rbdock.cxx#4 $)

>  <Rbt.Library>
libRbt.so (2013.1, Build901 2013/11/27)

>  <Rbt.Parameter_File>
/export/apps/rDock/src/rDock_2013.1_src/data/scripts/dock_solv.prm

>  <Rbt.Receptor>
prm/pocket_docking_6.prm

>  <SCORE>
-18.9388

>  <SCORE.INTER>
-12.4631

>  <SCORE.INTER.CONST>
1

>  <SCORE.INTER.POLAR>
0

>  <SCORE.INTER.ROT>
6

>  <SCORE.INTER.SOLV>
17.1543

>  <SCORE.INTER.VDW>
-21.6268

>  <SCORE.INTER.norm>
-0.402034

>  <SCORE.INTRA>
-6.47571

>  <SCORE.INTRA.DIHEDRAL>
-14.3705

>  <SCORE.INTRA.DIHEDRAL.0>
20.6841

>  <SCORE.INTRA.POLAR>
0

>  <SCORE.INTRA.POLAR.0>
0

>  <SCORE.INTRA.REPUL>
0

>  <SCORE.INTRA.REPUL.0>
0

>  <SCORE.INTRA.SOLV>
-0.405341

>  <SCORE.INTRA.SOLV.lig_0>
-64.6797

>  <SCORE.INTRA.VDW>
0.912218

>  <SCORE.INTRA.VDW.0>
-4.11825

>  <SCORE.INTRA.norm>
-0.208894

>  <SCORE.RESTR>
0

>  <SCORE.RESTR.CAVITY>
0

>  <SCORE.RESTR.norm>
0

>  <SCORE.SYSTEM>
0

>  <SCORE.SYSTEM.CONST>
0

>  <SCORE.SYSTEM.DIHEDRAL>
0

>  <SCORE.SYSTEM.SOLV>
0

>  <SCORE.SYSTEM.norm>
0

>  <SCORE.heavy>
31

>  <SCORE.norm>
-0.610928

>  <RMSD>
1.685

$$$$
ligand
 OpenBabel11021811493D
libRbt.so/2013.1/901 2013/11/27
 31 33  0  0  0  0  0  0  0  0999 V2000
   -4.4580   14.0749    4.9731 C   0  0  2  0  0  0  0  0  0  0  0  0
   -5.0527   14.3506    6.2378 O   0  0  0  0  0  0  0  0  0  0  0  0
   -4.4658   13.1169   10.2649 C   0  0  2  0  0  0  0  0  0  0  0  0
   -4.4233   12.2757   11.4214 N   0  0  0  0  0  0  0  0  0  0  0  0
   -1.7845   11.6754   10.7773 C   0  0  2  0  0  0  0  0  0  0  0  0
   -4.0496   15.4730    4.3530 C   0  0  2  0  0  0  0  0  0  0  0  0
   -3.1182   16.1346    5.2607 N   0  0  0  0  0  0  0  0  0  0  0  0
   -5.9492   13.1264    9.7088 C   0  0  0  0  0  0  0  0  0  0  0  0
   -0.2275   11.7844   10.8280 C   0  0  2  0  0  0  0  0  0  0  0  0
    0.1179   13.1419   11.0025 O   0  0  0  0  0  0  0  0  0  0  0  0
   -5.3320   16.3674    4.1199 C   0  0  0  0  0  0  0  0  0  0  0  0
   -5.9991   14.0495    8.4341 C   0  0  2  0  0  0  0  0  0  0  0  0
   -7.3753   14.0579    7.9091 N   0  0  0  0  0  0  0  0  0  0  0  0
    0.3241   11.2330    9.4586 C   0  0  1  0  0  0  0  0  0  0  0  0
    1.8212   11.3307    9.4395 N   0  0  0  0  0  0  0  0  0  0  0  0
   -6.5795   15.5169    3.6299 C   0  0  0  0  0  0  0  0  0  0  0  0
   -4.9917   13.4995    7.3303 C   0  0  2  0  0  0  0  0  0  0  0  0
   -0.1173    9.6686    9.3321 C   0  0  1  0  0  0  0  0  0  0  0  0
    0.3704    8.8832   10.4068 O   0  0  0  0  0  0  0  0  0  0  0  0
   -6.5481   14.1580    3.6377 C   0  0  2  0  0  0  0  0  0  0  0  0
   -5.4048   13.4178    4.0811 O   0  0  0  0  0  0  0  0  0  0  0  0
   -3.5295   13.4914    7.9116 C   0  0  2  0  0  0  0  0  0  0  0  0
   -2.6247   12.9821    6.9083 O   0  0  0  0  0  0  0  0  0  0  0  0
   -1.6762    9.5528    9.3524 C   0  0  0  0  0  0  0  0  0  0  0  0
   -2.2086   10.2311   10.5871 O   0  0  0  0  0  0  0  0  0  0  0  0
   -7.7231   13.2954    3.1732 C   0  0  0  0  0  0  0  0  0  0  0  0
   -8.8115   14.1769    2.8089 O   0  0  0  0  0  0  0  0  0  0  0  0
   -3.4943   12.5473    9.1697 C   0  0  1  0  0  0  0  0  0  0  0  0
   -2.1909   12.5324    9.6612 O   0  0  0  0  0  0  0  0  0  0  0  0
    0.3461    8.9624    8.0351 C   0  0  0  0  0  0  0  0  0  0  0  0
    2.5616   10.3025   10.1989 C   0  0  0  0  0  0  0  0  0  0  0  0
  1  2  1  1  0  0  0
  1  6  1  0  0  0  0
  1 21  1  0  0  0  0
  3  4  1  1  0  0  0
  3  8  1  0  0  0  0
  3 28  1  0  0  0  0
  5  9  1  0  0  0  0
  5 25  1  0  0  0  0
  5 29  1  6  0  0  0
  6  7  1  1  0  0  0
  6 11  1  0  0  0  0
  8 12  1  0  0  0  0
  9 10  1  6  0  0  0
  9 14  1  0  0  0  0
 11 16  1  0  0  0  0
 12 13  1  6  0  0  0
 12 17  1  0  0  0  0
 14 15  1  1  0  0  0
 14 18  1  0  0  0  0
 15 31  1  0  0  0  0
 16 20  1  0  0  0  0
 17  2  1  6  0  0  0
 17 22  1  0  0  0  0
 18 19  1  1  0  0  0
 18 24  1  0  0  0  0
 18 30  1  0  0  0  0
 20 21  1  0  0  0  0
 20 26  1  6  0  0  0
 22 23  1  6  0  0  0
 22 28  1  0  0  0  0
 24 25  1  0  0  0  0
 26 27  1  0  0  0  0
 28 29  1  1  0  0  0
M  END
>  <CHROM.1>
-149.02178395,170.32884816,77.70983654,-169.57246374,-2.34073842,65.69962726
-3.29282071,12.73344217,7.74837128,-2.37744654,-0.34723166,1.83405394

>  <Name>
ligand

>  <RI>
0

>  <Rbt.Current_Directory>
/home/itssahil/PROJECTS/Mol_Feturizer/New_Systems/rnas/4GPX

>  <Rbt.Executable>
rbdock ($Id: //depot/dev/client3/rdock/2013.1/src/exe/rbdock.cxx#4 $)

>  <Rbt.Library>
libRbt.so (2013.1, Build901 2013/11/27)

>  <Rbt.Parameter_File>
/export/apps/rDock/src/rDock_2013.1_src/data/scripts/dock_solv.prm

>  <Rbt.Receptor>
prm/pocket_docking_2.prm

>  <SCORE>
-13.2123

>  <SCORE.INTER>
-12.3285

>  <SCORE.INTER.CONST>
1

>  <SCORE.INTER.POLAR>
0

>  <SCORE.INTER.ROT>
6

>  <SCORE.INTER.SOLV>
18.9766

>  <SCORE.INTER.VDW>
-22.1445

>  <SCORE.INTER.norm>
-0.397693

>  <SCORE.INTRA>
-0.95272

>  <SCORE.INTRA.DIHEDRAL>
-13.8299

>  <SCORE.INTRA.DIHEDRAL.0>
20.6841

>  <SCORE.INTRA.POLAR>
0

>  <SCORE.INTRA.POLAR.0>
0

>  <SCORE.INTRA.REPUL>
0

>  <SCORE.INTRA.REPUL.0>
0

>  <SCORE.INTRA.SOLV>
-0.557724

>  <SCORE.INTRA.SOLV.lig_0>
-64.6797

>  <SCORE.INTRA.VDW>
6.24109

>  <SCORE.INTRA.VDW.0>
-4.11825

>  <SCORE.INTRA.norm>
-0.0307329

>  <SCORE.RESTR>
0.068945

>  <SCORE.RESTR.CAVITY>
0.068945

>  <SCORE.RESTR.norm>
0.00222403

>  <SCORE.SYSTEM>
0

>  <SCORE.SYSTEM.CONST>
0

>  <SCORE.SYSTEM.DIHEDRAL>
0

>  <SCORE.SYSTEM.SOLV>
0

>  <SCORE.SYSTEM.norm>
0

>  <SCORE.heavy>
31

>  <SCORE.norm>
-0.426202

>  <RMSD>
1.693

$$$$
ligand
 OpenBabel11021811493D
libRbt.so/2013.1/901 2013/11/27
 31 33  0  0  0  0  0  0  0  0999 V2000
   -3.5026   14.4174    4.8921 C   0  0  2  0  0  0  0  0  0  0  0  0
   -4.0346   14.6648    6.1901 O   0  0  0  0  0  0  0  0  0  0  0  0
   -3.5129   13.1906   10.1447 C   0  0  2  0  0  0  0  0  0  0  0  0
   -3.5006   12.2842   11.2516 N   0  0  0  0  0  0  0  0  0  0  0  0
   -0.8941   11.7379   10.6660 C   0  0  2  0  0  0  0  0  0  0  0  0
   -3.2424   15.8336    4.2343 C   0  0  2  0  0  0  0  0  0  0  0  0
   -2.3081   16.5761    5.0739 N   0  0  0  0  0  0  0  0  0  0  0  0
   -4.9907   13.2673    9.5787 C   0  0  0  0  0  0  0  0  0  0  0  0
    0.6671   11.7328   10.7014 C   0  0  2  0  0  0  0  0  0  0  0  0
    1.1135   13.0659   10.8294 O   0  0  0  0  0  0  0  0  0  0  0  0
   -4.6016   16.6253    4.0767 C   0  0  0  0  0  0  0  0  0  0  0  0
   -5.0075   14.2622    8.3584 C   0  0  2  0  0  0  0  0  0  0  0  0
   -6.3783   14.3335    7.8243 N   0  0  0  0  0  0  0  0  0  0  0  0
    1.1631   11.0991    9.3464 C   0  0  1  0  0  0  0  0  0  0  0  0
    2.6630   11.0850    9.3129 N   0  0  0  0  0  0  0  0  0  0  0  0
   -5.8093   15.6763    3.6762 C   0  0  0  0  0  0  0  0  0  0  0  0
   -4.0034   13.7518    7.2327 C   0  0  2  0  0  0  0  0  0  0  0  0
    0.6062    9.5684    9.2739 C   0  0  1  0  0  0  0  0  0  0  0  0
    1.0452    8.7835   10.3696 O   0  0  0  0  0  0  0  0  0  0  0  0
   -5.6739   14.3238    3.6941 C   0  0  2  0  0  0  0  0  0  0  0  0
   -4.4515   13.6783    4.0692 O   0  0  0  0  0  0  0  0  0  0  0  0
   -2.5470   13.6756    7.8237 C   0  0  2  0  0  0  0  0  0  0  0  0
   -1.6455   13.2027    6.7999 O   0  0  0  0  0  0  0  0  0  0  0  0
   -0.9567    9.5691    9.3095 C   0  0  0  0  0  0  0  0  0  0  0  0
   -1.4254   10.3237   10.5256 O   0  0  0  0  0  0  0  0  0  0  0  0
   -6.8070   13.3686    3.3144 C   0  0  0  0  0  0  0  0  0  0  0  0
   -7.3296   12.7849    4.5312 O   0  0  0  0  0  0  0  0  0  0  0  0
   -2.5454   12.6610    9.0262 C   0  0  1  0  0  0  0  0  0  0  0  0
   -1.2471   12.5868    9.5259 O   0  0  0  0  0  0  0  0  0  0  0  0
    1.0035    8.7892    7.9969 C   0  0  0  0  0  0  0  0  0  0  0  0
    3.3156   12.0920    8.4514 C   0  0  0  0  0  0  0  0  0  0  0  0
  1  2  1  1  0  0  0
  1  6  1  0  0  0  0
  1 21  1  0  0  0  0
  3  4  1  1  0  0  0
  3  8  1  0  0  0  0
  3 28  1  0  0  0  0
  5  9  1  0  0  0  0
  5 25  1  0  0  0  0
  5 29  1  6  0  0  0
  6  7  1  1  0  0  0
  6 11  1  0  0  0  0
  8 12  1  0  0  0  0
  9 10  1  6  0  0  0
  9 14  1  0  0  0  0
 11 16  1  0  0  0  0
 12 13  1  6  0  0  0
 12 17  1  0  0  0  0
 14 15  1  1  0  0  0
 14 18  1  0  0  0  0
 15 31  1  0  0  0  0
 16 20  1  0  0  0  0
 17  2  1  6  0  0  0
 17 22  1  0  0  0  0
 18 19  1  1  0  0  0
 18 24  1  0  0  0  0
 18 30  1  0  0  0  0
 20 21  1  0  0  0  0
 20 26  1  6  0  0  0
 22 23  1  6  0  0  0
 22 28  1  0  0  0  0
 24 25  1  0  0  0  0
 26 27  1  0  0  0  0
 28 29  1  1  0  0  0
M  END
>  <CHROM.1>
-158.60736718,168.93723199,-104.80580880,-165.79746531,-105.07436354,60.62937577
-2.39517191,12.84609061,7.67826498,-2.33678237,-0.18480456,2.04769864

>  <Name>
ligand

>  <RI>
0

>  <Rbt.Current_Directory>
/home/itssahil/PROJECTS/Mol_Feturizer/New_Systems/rnas/4GPX

>  <Rbt.Executable>
rbdock ($Id: //depot/dev/client3/rdock/2013.1/src/exe/rbdock.cxx#4 $)

>  <Rbt.Library>
libRbt.so (2013.1, Build901 2013/11/27)

>  <Rbt.Parameter_File>
/export/apps/rDock/src/rDock_2013.1_src/data/scripts/dock_solv.prm

>  <Rbt.Receptor>
prm/pocket_docking_3.prm

>  <SCORE>
-19.1135

>  <SCORE.INTER>
-12.9125

>  <SCORE.INTER.CONST>
1

>  <SCORE.INTER.POLAR>
0

>  <SCORE.INTER.ROT>
6

>  <SCORE.INTER.SOLV>
15.8651

>  <SCORE.INTER.VDW>
-21.4967

>  <SCORE.INTER.norm>
-0.416532

>  <SCORE.INTRA>
-6.20101

>  <SCORE.INTRA.DIHEDRAL>
-14.1256

>  <SCORE.INTRA.DIHEDRAL.0>
20.6841

>  <SCORE.INTRA.POLAR>
0

>  <SCORE.INTRA.POLAR.0>
0

>  <SCORE.INTRA.REPUL>
0

>  <SCORE.INTRA.REPUL.0>
0

>  <SCORE.INTRA.SOLV>
-0.0675564

>  <SCORE.INTRA.SOLV.lig_0>
-64.6797

>  <SCORE.INTRA.VDW>
0.895588

>  <SCORE.INTRA.VDW.0>
-4.11825

>  <SCORE.INTRA.norm>
-0.200033

>  <SCORE.RESTR>
0

>  <SCORE.RESTR.CAVITY>
0

>  <SCORE.RESTR.norm>
0

>  <SCORE.SYSTEM>
0

>  <SCORE.SYSTEM.CONST>
0

>  <SCORE.SYSTEM.DIHEDRAL>
0

>  <SCORE.SYSTEM.SOLV>
0

>  <SCORE.SYSTEM.norm>
0

>  <SCORE.heavy>
31

>  <SCORE.norm>
-0.616565

>  <RMSD>
1.708

$$$$
ligand
 OpenBabel11021811493D
libRbt.so/2013.1/901 2013/11/27
 31 33  0  0  0  0  0  0  0  0999 V2000
   -3.5626   14.4196    4.9544 C   0  0  2  0  0  0  0  0  0  0  0  0
   -3.9785   14.6967    6.2884 O   0  0  0  0  0  0  0  0  0  0  0  0
   -3.5762   13.1650   10.2350 C   0  0  2  0  0  0  0  0  0  0  0  0
   -3.5897   12.2407   11.3270 N   0  0  0  0  0  0  0  0  0  0  0  0
   -0.9478   11.7172   10.8051 C   0  0  2  0  0  0  0  0  0  0  0  0
   -3.3130   15.8202    4.2602 C   0  0  2  0  0  0  0  0  0  0  0  0
   -2.2903   16.5405    5.0115 N   0  0  0  0  0  0  0  0  0  0  0  0
   -5.0337   13.2294    9.6176 C   0  0  0  0  0  0  0  0  0  0  0  0
    0.6124   11.7159   10.8724 C   0  0  2  0  0  0  0  0  0  0  0  0
    1.0508   13.0451   11.0565 O   0  0  0  0  0  0  0  0  0  0  0  0
   -4.6551   16.6536    4.2041 C   0  0  0  0  0  0  0  0  0  0  0  0
   -5.0220   14.2441    8.4135 C   0  0  2  0  0  0  0  0  0  0  0  0
   -6.3739   14.3041    7.8316 N   0  0  0  0  0  0  0  0  0  0  0  0
    1.1385   11.1321    9.5064 C   0  0  1  0  0  0  0  0  0  0  0  0
    2.6388   11.1240    9.5033 N   0  0  0  0  0  0  0  0  0  0  0  0
   -5.9207   15.7401    3.9152 C   0  0  0  0  0  0  0  0  0  0  0  0
   -3.9708   13.7671    7.3167 C   0  0  2  0  0  0  0  0  0  0  0  0
    0.5892    9.6032    9.3684 C   0  0  1  0  0  0  0  0  0  0  0  0
    1.0088    8.7814   10.4446 O   0  0  0  0  0  0  0  0  0  0  0  0
   -5.8266   14.3843    3.9388 C   0  0  2  0  0  0  0  0  0  0  0  0
   -4.5984   13.7035    4.2209 O   0  0  0  0  0  0  0  0  0  0  0  0
   -2.5354   13.7025    7.9584 C   0  0  2  0  0  0  0  0  0  0  0  0
   -1.5908   13.2598    6.9603 O   0  0  0  0  0  0  0  0  0  0  0  0
   -0.9741    9.5976    9.3719 C   0  0  0  0  0  0  0  0  0  0  0  0
   -1.4705   10.3071   10.6040 O   0  0  0  0  0  0  0  0  0  0  0  0
   -7.0163   13.4623    3.6646 C   0  0  0  0  0  0  0  0  0  0  0  0
   -6.6886   12.6323    2.5254 O   0  0  0  0  0  0  0  0  0  0  0  0
   -2.5613   12.6682    9.1438 C   0  0  1  0  0  0  0  0  0  0  0  0
   -1.2808   12.6048    9.6886 O   0  0  0  0  0  0  0  0  0  0  0  0
    1.0156    8.8709    8.0732 C   0  0  0  0  0  0  0  0  0  0  0  0
    3.3037   12.0006    8.5175 C   0  0  0  0  0  0  0  0  0  0  0  0
  1  2  1  1  0  0  0
  1  6  1  0  0  0  0
  1 21  1  0  0  0  0
  3  4  1  1  0  0  0
  3  8  1  0  0  0  0
  3 28  1  0  0  0  0
  5  9  1  0  0  0  0
  5 25  1  0  0  0  0
  5 29  1  6  0  0  0
  6  7  1  1  0  0  0
  6 11  1  0  0  0  0
  8 12  1  0  0  0  0
  9 10  1  6  0  0  0
  9 14  1  0  0  0  0
 11 16  1  0  0  0  0
 12 13  1  6  0  0  0
 12 17  1  0  0  0  0
 14 15  1  1  0  0  0
 14 18  1  0  0  0  0
 15 31  1  0  0  0  0
 16 20  1  0  0  0  0
 17  2  1  6  0  0  0
 17 22  1  0  0  0  0
 18 19  1  1  0  0  0
 18 24  1  0  0  0  0
 18 30  1  0  0  0  0
 20 21  1  0  0  0  0
 20 26  1  6  0  0  0
 22 23  1  6  0  0  0
 22 28  1  0  0  0  0
 24 25  1  0  0  0  0
 26 27  1  0  0  0  0
 28 29  1  1  0  0  0
M  END
>  <CHROM.1>
-162.93491965,167.32131989,-115.14272177,-156.85696453,120.52799365,62.21597805
-2.41065544,12.84943329,7.71829655,-2.33907501,-0.28405822,1.92455573

>  <Name>
ligand

>  <RI>
0

>  <Rbt.Current_Directory>
/home/itssahil/PROJECTS/Mol_Feturizer/New_Systems/rnas/4GPX

>  <Rbt.Executable>
rbdock ($Id: //depot/dev/client3/rdock/2013.1/src/exe/rbdock.cxx#4 $)

>  <Rbt.Library>
libRbt.so (2013.1, Build901 2013/11/27)

>  <Rbt.Parameter_File>
/export/apps/rDock/src/rDock_2013.1_src/data/scripts/dock_solv.prm

>  <Rbt.Receptor>
prm/pocket_docking_3.prm

>  <SCORE>
-18.815

>  <SCORE.INTER>
-12.849

>  <SCORE.INTER.CONST>
1

>  <SCORE.INTER.POLAR>
0

>  <SCORE.INTER.ROT>
6

>  <SCORE.INTER.SOLV>
16.6813

>  <SCORE.INTER.VDW>
-21.7264

>  <SCORE.INTER.norm>
-0.414484

>  <SCORE.INTRA>
-5.966

>  <SCORE.INTRA.DIHEDRAL>
-13.3464

>  <SCORE.INTRA.DIHEDRAL.0>
20.6841

>  <SCORE.INTRA.POLAR>
0

>  <SCORE.INTRA.POLAR.0>
0

>  <SCORE.INTRA.REPUL>
0

>  <SCORE.INTRA.REPUL.0>
0

>  <SCORE.INTRA.SOLV>
0.00323508

>  <SCORE.INTRA.SOLV.lig_0>
-64.6797

>  <SCORE.INTRA.VDW>
0.705577

>  <SCORE.INTRA.VDW.0>
-4.11825

>  <SCORE.INTRA.norm>
-0.192451

>  <SCORE.RESTR>
0

>  <SCORE.RESTR.CAVITY>
0

>  <SCORE.RESTR.norm>
0

>  <SCORE.SYSTEM>
0

>  <SCORE.SYSTEM.CONST>
0

>  <SCORE.SYSTEM.DIHEDRAL>
0

>  <SCORE.SYSTEM.SOLV>
0

>  <SCORE.SYSTEM.norm>
0

>  <SCORE.heavy>
31

>  <SCORE.norm>
-0.606936

>  <RMSD>
1.715

$$$$
ligand
 OpenBabel11021811493D
libRbt.so/2013.1/901 2013/11/27
 31 33  0  0  0  0  0  0  0  0999 V2000
   -2.4695   14.8326    4.4272 C   0  0  2  0  0  0  0  0  0  0  0  0
   -2.6085   14.8331    5.8449 O   0  0  0  0  0  0  0  0  0  0  0  0
   -4.1837   12.7306    9.1890 C   0  0  2  0  0  0  0  0  0  0  0  0
   -4.7421   11.6694    9.9692 N   0  0  0  0  0  0  0  0  0  0  0  0
   -1.7945   10.6742   10.2708 C   0  0  2  0  0  0  0  0  0  0  0  0
   -1.4627   16.0016    4.0729 C   0  0  2  0  0  0  0  0  0  0  0  0
   -0.1930   15.7469    4.7452 N   0  0  0  0  0  0  0  0  0  0  0  0
   -5.1659   13.0343    7.9837 C   0  0  0  0  0  0  0  0  0  0  0  0
   -0.8200   10.8452   11.4790 C   0  0  2  0  0  0  0  0  0  0  0  0
   -1.3726   11.7948   12.3653 O   0  0  0  0  0  0  0  0  0  0  0  0
   -2.0599   17.3961    4.5177 C   0  0  0  0  0  0  0  0  0  0  0  0
   -4.5530   14.2004    7.1211 C   0  0  2  0  0  0  0  0  0  0  0  0
   -5.4596   14.4836    5.9953 N   0  0  0  0  0  0  0  0  0  0  0  0
    0.5574   11.3473   10.9007 C   0  0  1  0  0  0  0  0  0  0  0  0
    1.5337   11.5499   12.0217 N   0  0  0  0  0  0  0  0  0  0  0  0
   -3.6277   17.4826    4.2849 C   0  0  0  0  0  0  0  0  0  0  0  0
   -3.1180   13.7732    6.5790 C   0  0  2  0  0  0  0  0  0  0  0  0
    1.1255   10.2017    9.8892 C   0  0  1  0  0  0  0  0  0  0  0  0
    1.2936    8.9503   10.5335 O   0  0  0  0  0  0  0  0  0  0  0  0
   -4.3477   16.3811    3.9443 C   0  0  2  0  0  0  0  0  0  0  0  0
   -3.7471   15.0918    3.7756 O   0  0  0  0  0  0  0  0  0  0  0  0
   -2.1669   13.4683    7.7949 C   0  0  2  0  0  0  0  0  0  0  0  0
   -0.8718   13.0723    7.2944 O   0  0  0  0  0  0  0  0  0  0  0  0
    0.1159    9.9799    8.7165 C   0  0  0  0  0  0  0  0  0  0  0  0
   -1.2425    9.6626    9.2839 O   0  0  0  0  0  0  0  0  0  0  0  0
   -5.8587   16.4148    3.7069 C   0  0  0  0  0  0  0  0  0  0  0  0
   -6.2291   15.2094    2.9969 O   0  0  0  0  0  0  0  0  0  0  0  0
   -2.7838   12.2870    8.6312 C   0  0  1  0  0  0  0  0  0  0  0  0
   -1.9222   12.0132    9.6911 O   0  0  0  0  0  0  0  0  0  0  0  0
    2.4842   10.5325    9.2256 C   0  0  0  0  0  0  0  0  0  0  0  0
    1.4400   12.8266   12.7590 C   0  0  0  0  0  0  0  0  0  0  0  0
  1  2  1  1  0  0  0
  1  6  1  0  0  0  0
  1 21  1  0  0  0  0
  3  4  1  1  0  0  0
  3  8  1  0  0  0  0
  3 28  1  0  0  0  0
  5  9  1  0  0  0  0
  5 25  1  0  0  0  0
  5 29  1  6  0  0  0
  6  7  1  1  0  0  0
  6 11  1  0  0  0  0
  8 12  1  0  0  0  0
  9 10  1  1  0  0  0
  9 14  1  0  0  0  0
 11 16  1  0  0  0  0
 12 13  1  6  0  0  0
 12 17  1  0  0  0  0
 14 15  1  1  0  0  0
 14 18  1  0  0  0  0
 15 31  1  0  0  0  0
 16 20  1  0  0  0  0
 17  2  1  1  0  0  0
 17 22  1  0  0  0  0
 18 19  1  1  0  0  0
 18 24  1  0  0  0  0
 18 30  1  0  0  0  0
 20 21  1  0  0  0  0
 20 26  1  6  0  0  0
 22 23  1  6  0  0  0
 22 28  1  0  0  0  0
 24 25  1  0  0  0  0
 26 27  1  0  0  0  0
 28 29  1  1  0  0  0
M  END
>  <CHROM.1>
-162.72835723,-175.90523292,-82.17652841,-108.86579469,163.45404994,91.10984587
-2.05929991,13.15859075,7.74829606,-2.05253900,0.00170042,2.22787694

>  <Name>
ligand

>  <RI>
0

>  <Rbt.Current_Directory>
/home/itssahil/PROJECTS/Mol_Feturizer/New_Systems/rnas/4GPX

>  <Rbt.Executable>
rbdock ($Id: //depot/dev/client3/rdock/2013.1/src/exe/rbdock.cxx#4 $)

>  <Rbt.Library>
libRbt.so (2013.1, Build901 2013/11/27)

>  <Rbt.Parameter_File>
/export/apps/rDock/src/rDock_2013.1_src/data/scripts/dock_solv.prm

>  <Rbt.Receptor>
prm/pocket_docking_5.prm

>  <SCORE>
-18.2879

>  <SCORE.INTER>
-17.0273

>  <SCORE.INTER.CONST>
1

>  <SCORE.INTER.POLAR>
0

>  <SCORE.INTER.ROT>
6

>  <SCORE.INTER.SOLV>
15.1132

>  <SCORE.INTER.VDW>
-23.9893

>  <SCORE.INTER.norm>
-0.549268

>  <SCORE.INTRA>
-1.26059

>  <SCORE.INTRA.DIHEDRAL>
-5.18842

>  <SCORE.INTRA.DIHEDRAL.0>
20.6841

>  <SCORE.INTRA.POLAR>
0

>  <SCORE.INTRA.POLAR.0>
0

>  <SCORE.INTRA.REPUL>
0

>  <SCORE.INTRA.REPUL.0>
0

>  <SCORE.INTRA.SOLV>
2.29137

>  <SCORE.INTRA.SOLV.lig_0>
-64.6797

>  <SCORE.INTRA.VDW>
0.187938

>  <SCORE.INTRA.VDW.0>
-4.11825

>  <SCORE.INTRA.norm>
-0.040664

>  <SCORE.RESTR>
0

>  <SCORE.RESTR.CAVITY>
0

>  <SCORE.RESTR.norm>
0

>  <SCORE.SYSTEM>
0

>  <SCORE.SYSTEM.CONST>
0

>  <SCORE.SYSTEM.DIHEDRAL>
0

>  <SCORE.SYSTEM.SOLV>
0

>  <SCORE.SYSTEM.norm>
0

>  <SCORE.heavy>
31

>  <SCORE.norm>
-0.589932

>  <RMSD>
1.725

$$$$
ligand
 OpenBabel11021811493D
libRbt.so/2013.1/901 2013/11/27
 31 33  0  0  0  0  0  0  0  0999 V2000
   -3.6508   14.3721    4.8166 C   0  0  2  0  0  0  0  0  0  0  0  0
   -4.0298   14.6600    6.1592 O   0  0  0  0  0  0  0  0  0  0  0  0
   -3.4718   13.1628   10.1002 C   0  0  2  0  0  0  0  0  0  0  0  0
   -3.4477   12.2496   11.2012 N   0  0  0  0  0  0  0  0  0  0  0  0
   -0.8483   11.7319   10.6050 C   0  0  2  0  0  0  0  0  0  0  0  0
   -3.3960   15.7663    4.1116 C   0  0  2  0  0  0  0  0  0  0  0  0
   -2.3441   16.4726    4.8354 N   0  0  0  0  0  0  0  0  0  0  0  0
   -4.9542   13.2382    9.5466 C   0  0  0  0  0  0  0  0  0  0  0  0
    0.7132   11.7208   10.6252 C   0  0  2  0  0  0  0  0  0  0  0  0
    1.1662   13.0532   10.7348 O   0  0  0  0  0  0  0  0  0  0  0  0
   -4.7257   16.6208    4.0849 C   0  0  0  0  0  0  0  0  0  0  0  0
   -4.9840   14.2407    8.3326 C   0  0  2  0  0  0  0  0  0  0  0  0
   -6.3594   14.3108    7.8100 N   0  0  0  0  0  0  0  0  0  0  0  0
    1.1932   11.0708    9.2721 C   0  0  1  0  0  0  0  0  0  0  0  0
    2.6926   11.0501    9.2241 N   0  0  0  0  0  0  0  0  0  0  0  0
   -6.0121   15.7266    3.8299 C   0  0  0  0  0  0  0  0  0  0  0  0
   -3.9874   13.7406    7.1958 C   0  0  2  0  0  0  0  0  0  0  0  0
    0.6294    9.5418    9.2211 C   0  0  1  0  0  0  0  0  0  0  0  0
    1.0759    8.7666   10.3206 O   0  0  0  0  0  0  0  0  0  0  0  0
   -5.9390   14.3695    3.8561 C   0  0  2  0  0  0  0  0  0  0  0  0
   -4.7152   13.6702    4.1109 O   0  0  0  0  0  0  0  0  0  0  0  0
   -2.5261   13.6655    7.7747 C   0  0  2  0  0  0  0  0  0  0  0  0
   -1.6313   13.2019    6.7407 O   0  0  0  0  0  0  0  0  0  0  0  0
   -0.9331    9.5494    9.2720 C   0  0  0  0  0  0  0  0  0  0  0  0
   -1.3867   10.3186   10.4847 O   0  0  0  0  0  0  0  0  0  0  0  0
   -7.1494   13.4657    3.6140 C   0  0  0  0  0  0  0  0  0  0  0  0
   -6.8663   12.6337    2.4642 O   0  0  0  0  0  0  0  0  0  0  0  0
   -2.5115   12.6434    8.9707 C   0  0  1  0  0  0  0  0  0  0  0  0
   -1.2090   12.5704    9.4595 O   0  0  0  0  0  0  0  0  0  0  0  0
    1.0109    8.7476    7.9485 C   0  0  0  0  0  0  0  0  0  0  0  0
    3.3406   12.0396    8.3391 C   0  0  0  0  0  0  0  0  0  0  0  0
  1  2  1  1  0  0  0
  1  6  1  0  0  0  0
  1 21  1  0  0  0  0
  3  4  1  1  0  0  0
  3  8  1  0  0  0  0
  3 28  1  0  0  0  0
  5  9  1  0  0  0  0
  5 25  1  0  0  0  0
  5 29  1  6  0  0  0
  6  7  1  1  0  0  0
  6 11  1  0  0  0  0
  8 12  1  0  0  0  0
  9 10  1  6  0  0  0
  9 14  1  0  0  0  0
 11 16  1  0  0  0  0
 12 13  1  6  0  0  0
 12 17  1  0  0  0  0
 14 15  1  1  0  0  0
 14 18  1  0  0  0  0
 15 31  1  0  0  0  0
 16 20  1  0  0  0  0
 17  2  1  6  0  0  0
 17 22  1  0  0  0  0
 18 19  1  1  0  0  0
 18 24  1  0  0  0  0
 18 30  1  0  0  0  0
 20 21  1  0  0  0  0
 20 26  1  6  0  0  0
 22 23  1  6  0  0  0
 22 28  1  0  0  0  0
 24 25  1  0  0  0  0
 26 27  1  0  0  0  0
 28 29  1  1  0  0  0
M  END
>  <CHROM.1>
-161.63141769,168.85031454,-105.18189355,-158.16508664,120.12070841,59.62427676
-2.40616703,12.82508077,7.57158356,-2.35816331,-0.28096190,1.92719045

>  <Name>
ligand

>  <RI>
0

>  <Rbt.Current_Directory>
/home/itssahil/PROJECTS/Mol_Feturizer/New_Systems/rnas/4GPX

>  <Rbt.Executable>
rbdock ($Id: //depot/dev/client3/rdock/2013.1/src/exe/rbdock.cxx#4 $)

>  <Rbt.Library>
libRbt.so (2013.1, Build901 2013/11/27)

>  <Rbt.Parameter_File>
/export/apps/rDock/src/rDock_2013.1_src/data/scripts/dock_solv.prm

>  <Rbt.Receptor>
prm/pocket_docking_4.prm

>  <SCORE>
-18.8519

>  <SCORE.INTER>
-12.9406

>  <SCORE.INTER.CONST>
1

>  <SCORE.INTER.POLAR>
0

>  <SCORE.INTER.ROT>
6

>  <SCORE.INTER.SOLV>
16.8347

>  <SCORE.INTER.VDW>
-21.8386

>  <SCORE.INTER.norm>
-0.417438

>  <SCORE.INTRA>
-5.91127

>  <SCORE.INTRA.DIHEDRAL>
-13.7218

>  <SCORE.INTRA.DIHEDRAL.0>
20.6841

>  <SCORE.INTRA.POLAR>
0

>  <SCORE.INTRA.POLAR.0>
0

>  <SCORE.INTRA.REPUL>
0

>  <SCORE.INTRA.REPUL.0>
0

>  <SCORE.INTRA.SOLV>
0.00196608

>  <SCORE.INTRA.SOLV.lig_0>
-64.6797

>  <SCORE.INTRA.VDW>
0.948641

>  <SCORE.INTRA.VDW.0>
-4.11825

>  <SCORE.INTRA.norm>
-0.190686

>  <SCORE.RESTR>
0

>  <SCORE.RESTR.CAVITY>
0

>  <SCORE.RESTR.norm>
0

>  <SCORE.SYSTEM>
0

>  <SCORE.SYSTEM.CONST>
0

>  <SCORE.SYSTEM.DIHEDRAL>
0

>  <SCORE.SYSTEM.SOLV>
0

>  <SCORE.SYSTEM.norm>
0

>  <SCORE.heavy>
31

>  <SCORE.norm>
-0.608124

>  <RMSD>
1.751

$$$$
ligand
 OpenBabel11021811493D
libRbt.so/2013.1/901 2013/11/27
 31 33  0  0  0  0  0  0  0  0999 V2000
   -3.6915   14.3695    4.8003 C   0  0  2  0  0  0  0  0  0  0  0  0
   -4.0794   14.6514    6.1417 O   0  0  0  0  0  0  0  0  0  0  0  0
   -3.4317   13.1626   10.0721 C   0  0  2  0  0  0  0  0  0  0  0  0
   -3.3868   12.2529   11.1754 N   0  0  0  0  0  0  0  0  0  0  0  0
   -0.8153   11.7430   10.5390 C   0  0  2  0  0  0  0  0  0  0  0  0
   -3.4165   15.7663    4.1080 C   0  0  2  0  0  0  0  0  0  0  0  0
   -2.3639   16.4564    4.8462 N   0  0  0  0  0  0  0  0  0  0  0  0
   -4.9274   13.2492    9.5571 C   0  0  0  0  0  0  0  0  0  0  0  0
    0.7463   11.7405   10.5441 C   0  0  2  0  0  0  0  0  0  0  0  0
    1.1931   13.0778   10.6130 O   0  0  0  0  0  0  0  0  0  0  0  0
   -4.7371   16.6345    4.0762 C   0  0  0  0  0  0  0  0  0  0  0  0
   -4.9801   14.2478    8.3407 C   0  0  2  0  0  0  0  0  0  0  0  0
   -6.3680   14.3283    7.8539 N   0  0  0  0  0  0  0  0  0  0  0  0
    1.2167   11.0564    9.2045 C   0  0  1  0  0  0  0  0  0  0  0  0
    2.7157   11.0422    9.1422 N   0  0  0  0  0  0  0  0  0  0  0  0
   -6.0303   15.7554    3.8034 C   0  0  0  0  0  0  0  0  0  0  0  0
   -4.0179   13.7351    7.1801 C   0  0  2  0  0  0  0  0  0  0  0  0
    0.6608    9.5237    9.2006 C   0  0  1  0  0  0  0  0  0  0  0  0
    1.1222    8.7810   10.3163 O   0  0  0  0  0  0  0  0  0  0  0  0
   -5.9712   14.3974    3.8199 C   0  0  2  0  0  0  0  0  0  0  0  0
   -4.7569   13.6838    4.0801 O   0  0  0  0  0  0  0  0  0  0  0  0
   -2.5427   13.6491    7.7209 C   0  0  2  0  0  0  0  0  0  0  0  0
   -1.6793   13.1742    6.6657 O   0  0  0  0  0  0  0  0  0  0  0  0
   -0.9012    9.5246    9.2667 C   0  0  0  0  0  0  0  0  0  0  0  0
   -1.3471   10.3242   10.4624 O   0  0  0  0  0  0  0  0  0  0  0  0
   -7.1885   13.5079    3.5605 C   0  0  0  0  0  0  0  0  0  0  0  0
   -6.8598   12.5991    2.4833 O   0  0  0  0  0  0  0  0  0  0  0  0
   -2.5058   12.6309    8.9198 C   0  0  1  0  0  0  0  0  0  0  0  0
   -1.1917   12.5481    9.3748 O   0  0  0  0  0  0  0  0  0  0  0  0
    1.0342    8.6972    7.9463 C   0  0  0  0  0  0  0  0  0  0  0  0
    3.3572   12.1320    8.3787 C   0  0  0  0  0  0  0  0  0  0  0  0
  1  2  1  1  0  0  0
  1  6  1  0  0  0  0
  1 21  1  0  0  0  0
  3  4  1  1  0  0  0
  3  8  1  0  0  0  0
  3 28  1  0  0  0  0
  5  9  1  0  0  0  0
  5 25  1  0  0  0  0
  5 29  1  6  0  0  0
  6  7  1  1  0  0  0
  6 11  1  0  0  0  0
  8 12  1  0  0  0  0
  9 10  1  6  0  0  0
  9 14  1  0  0  0  0
 11 16  1  0  0  0  0
 12 13  1  6  0  0  0
 12 17  1  0  0  0  0
 14 15  1  1  0  0  0
 14 18  1  0  0  0  0
 15 31  1  0  0  0  0
 16 20  1  0  0  0  0
 17  2  1  6  0  0  0
 17 22  1  0  0  0  0
 18 19  1  1  0  0  0
 18 24  1  0  0  0  0
 18 30  1  0  0  0  0
 20 21  1  0  0  0  0
 20 26  1  6  0  0  0
 22 23  1  6  0  0  0
 22 28  1  0  0  0  0
 24 25  1  0  0  0  0
 26 27  1  0  0  0  0
 28 29  1  1  0  0  0
M  END
>  <CHROM.1>
-159.63197662,170.70882254,-96.64964646,-160.57456810,125.14885193,57.68083789
-2.40262183,12.82732643,7.54348418,-2.36392410,-0.27921977,1.93010842

>  <Name>
ligand

>  <RI>
0

>  <Rbt.Current_Directory>
/home/itssahil/PROJECTS/Mol_Feturizer/New_Systems/rnas/4GPX

>  <Rbt.Executable>
rbdock ($Id: //depot/dev/client3/rdock/2013.1/src/exe/rbdock.cxx#4 $)

>  <Rbt.Library>
libRbt.so (2013.1, Build901 2013/11/27)

>  <Rbt.Parameter_File>
/export/apps/rDock/src/rDock_2013.1_src/data/scripts/dock_solv.prm

>  <Rbt.Receptor>
prm/pocket_docking_3.prm

>  <SCORE>
-18.722

>  <SCORE.INTER>
-12.8189

>  <SCORE.INTER.CONST>
1

>  <SCORE.INTER.POLAR>
0

>  <SCORE.INTER.ROT>
6

>  <SCORE.INTER.SOLV>
16.8672

>  <SCORE.INTER.VDW>
-21.7683

>  <SCORE.INTER.norm>
-0.413514

>  <SCORE.INTRA>
-5.90304

>  <SCORE.INTRA.DIHEDRAL>
-14.1439

>  <SCORE.INTRA.DIHEDRAL.0>
20.6841

>  <SCORE.INTRA.POLAR>
0

>  <SCORE.INTRA.POLAR.0>
0

>  <SCORE.INTRA.REPUL>
0

>  <SCORE.INTRA.REPUL.0>
0

>  <SCORE.INTRA.SOLV>
-0.0828075

>  <SCORE.INTRA.SOLV.lig_0>
-64.6797

>  <SCORE.INTRA.VDW>
1.2103

>  <SCORE.INTRA.VDW.0>
-4.11825

>  <SCORE.INTRA.norm>
-0.190421

>  <SCORE.RESTR>
0

>  <SCORE.RESTR.CAVITY>
0

>  <SCORE.RESTR.norm>
0

>  <SCORE.SYSTEM>
0

>  <SCORE.SYSTEM.CONST>
0

>  <SCORE.SYSTEM.DIHEDRAL>
0

>  <SCORE.SYSTEM.SOLV>
0

>  <SCORE.SYSTEM.norm>
0

>  <SCORE.heavy>
31

>  <SCORE.norm>
-0.603935

>  <RMSD>
1.755

$$$$
ligand
 OpenBabel11021811493D
libRbt.so/2013.1/901 2013/11/27
 31 33  0  0  0  0  0  0  0  0999 V2000
   -4.0440   13.9728    4.7784 C   0  0  2  0  0  0  0  0  0  0  0  0
   -4.6210   14.2104    6.0590 O   0  0  0  0  0  0  0  0  0  0  0  0
   -3.6234   12.9933   10.0095 C   0  0  2  0  0  0  0  0  0  0  0  0
   -3.4837   12.1631   11.1664 N   0  0  0  0  0  0  0  0  0  0  0  0
   -0.9897   11.6011   10.3530 C   0  0  2  0  0  0  0  0  0  0  0  0
   -3.7127   15.3932    4.1630 C   0  0  2  0  0  0  0  0  0  0  0  0
   -2.7909   16.0876    5.0558 N   0  0  0  0  0  0  0  0  0  0  0  0
   -5.1597   13.0653    9.6295 C   0  0  0  0  0  0  0  0  0  0  0  0
    0.5684   11.6704   10.2754 C   0  0  2  0  0  0  0  0  0  0  0  0
    0.9512   13.0281   10.2229 O   0  0  0  0  0  0  0  0  0  0  0  0
   -5.0387   16.2314    3.9678 C   0  0  0  0  0  0  0  0  0  0  0  0
   -5.3170   13.9763    8.3548 C   0  0  2  0  0  0  0  0  0  0  0  0
   -6.7433   14.0427    7.9932 N   0  0  0  0  0  0  0  0  0  0  0  0
    1.0051   10.9097    8.9660 C   0  0  1  0  0  0  0  0  0  0  0  0
    2.4981   10.9594    8.8255 N   0  0  0  0  0  0  0  0  0  0  0  0
   -6.2581   15.3303    3.4980 C   0  0  0  0  0  0  0  0  0  0  0  0
   -4.4709   13.3689    7.1503 C   0  0  2  0  0  0  0  0  0  0  0  0
    0.5263    9.3572    9.1033 C   0  0  1  0  0  0  0  0  0  0  0  0
    1.0788    8.7225   10.2441 O   0  0  0  0  0  0  0  0  0  0  0  0
   -6.1661   13.9741    3.4917 C   0  0  2  0  0  0  0  0  0  0  0  0
   -4.9810   13.2819    3.9017 O   0  0  0  0  0  0  0  0  0  0  0  0
   -2.9525   13.2995    7.5578 C   0  0  2  0  0  0  0  0  0  0  0  0
   -2.1947   12.7387    6.4643 O   0  0  0  0  0  0  0  0  0  0  0  0
   -1.0285    9.2916    9.2520 C   0  0  0  0  0  0  0  0  0  0  0  0
   -1.4537   10.1576   10.4084 O   0  0  0  0  0  0  0  0  0  0  0  0
   -7.3120   13.0640    3.0455 C   0  0  0  0  0  0  0  0  0  0  0  0
   -8.4616   13.8955    2.7605 O   0  0  0  0  0  0  0  0  0  0  0  0
   -2.8128   12.3680    8.8180 C   0  0  1  0  0  0  0  0  0  0  0  0
   -1.4629   12.2982    9.1549 O   0  0  0  0  0  0  0  0  0  0  0  0
    0.8777    8.4566    7.8945 C   0  0  0  0  0  0  0  0  0  0  0  0
    3.0477   12.0354    7.9756 C   0  0  0  0  0  0  0  0  0  0  0  0
  1  2  1  1  0  0  0
  1  6  1  0  0  0  0
  1 21  1  0  0  0  0
  3  4  1  1  0  0  0
  3  8  1  0  0  0  0
  3 28  1  0  0  0  0
  5  9  1  0  0  0  0
  5 25  1  0  0  0  0
  5 29  1  6  0  0  0
  6  7  1  1  0  0  0
  6 11  1  0  0  0  0
  8 12  1  0  0  0  0
  9 10  1  6  0  0  0
  9 14  1  0  0  0  0
 11 16  1  0  0  0  0
 12 13  1  6  0  0  0
 12 17  1  0  0  0  0
 14 15  1  1  0  0  0
 14 18  1  0  0  0  0
 15 31  1  0  0  0  0
 16 20  1  0  0  0  0
 17  2  1  6  0  0  0
 17 22  1  0  0  0  0
 18 19  1  1  0  0  0
 18 24  1  0  0  0  0
 18 30  1  0  0  0  0
 20 21  1  0  0  0  0
 20 26  1  6  0  0  0
 22 23  1  6  0  0  0
 22 28  1  0  0  0  0
 24 25  1  0  0  0  0
 26 27  1  0  0  0  0
 28 29  1  1  0  0  0
M  END
>  <CHROM.1>
-147.43578870,175.47721330,-95.33110477,-177.91314138,-4.35131843,56.06043047
-2.71126707,12.62449886,7.42519260,-2.40440852,-0.28787556,1.89709898

>  <Name>
ligand

>  <RI>
0

>  <Rbt.Current_Directory>
/home/itssahil/PROJECTS/Mol_Feturizer/New_Systems/rnas/4GPX

>  <Rbt.Executable>
rbdock ($Id: //depot/dev/client3/rdock/2013.1/src/exe/rbdock.cxx#4 $)

>  <Rbt.Library>
libRbt.so (2013.1, Build901 2013/11/27)

>  <Rbt.Parameter_File>
/export/apps/rDock/src/rDock_2013.1_src/data/scripts/dock_solv.prm

>  <Rbt.Receptor>
prm/pocket_docking_2.prm

>  <SCORE>
-15.9536

>  <SCORE.INTER>
-11.6613

>  <SCORE.INTER.CONST>
1

>  <SCORE.INTER.POLAR>
0

>  <SCORE.INTER.ROT>
6

>  <SCORE.INTER.SOLV>
16.5684

>  <SCORE.INTER.VDW>
-20.897

>  <SCORE.INTER.norm>
-0.376171

>  <SCORE.INTRA>
-4.49433

>  <SCORE.INTRA.DIHEDRAL>
-13.9268

>  <SCORE.INTRA.DIHEDRAL.0>
20.6841

>  <SCORE.INTRA.POLAR>
0

>  <SCORE.INTRA.POLAR.0>
0

>  <SCORE.INTRA.REPUL>
0

>  <SCORE.INTRA.REPUL.0>
0

>  <SCORE.INTRA.SOLV>
-0.685433

>  <SCORE.INTRA.SOLV.lig_0>
-64.6797

>  <SCORE.INTRA.VDW>
2.81179

>  <SCORE.INTRA.VDW.0>
-4.11825

>  <SCORE.INTRA.norm>
-0.144978

>  <SCORE.RESTR>
0.202044

>  <SCORE.RESTR.CAVITY>
0.202044

>  <SCORE.RESTR.norm>
0.00651753

>  <SCORE.SYSTEM>
0

>  <SCORE.SYSTEM.CONST>
0

>  <SCORE.SYSTEM.DIHEDRAL>
0

>  <SCORE.SYSTEM.SOLV>
0

>  <SCORE.SYSTEM.norm>
0

>  <SCORE.heavy>
31

>  <SCORE.norm>
-0.514632

>  <RMSD>
1.762

$$$$
ligand
 OpenBabel11021811493D
libRbt.so/2013.1/901 2013/11/27
 31 33  0  0  0  0  0  0  0  0999 V2000
   -3.6637   14.3773    4.8047 C   0  0  2  0  0  0  0  0  0  0  0  0
   -4.0471   14.6604    6.1471 O   0  0  0  0  0  0  0  0  0  0  0  0
   -3.4388   13.1716   10.0838 C   0  0  2  0  0  0  0  0  0  0  0  0
   -3.3989   12.2603   11.1860 N   0  0  0  0  0  0  0  0  0  0  0  0
   -0.8090   11.7693   10.5757 C   0  0  2  0  0  0  0  0  0  0  0  0
   -3.4062   15.7740    4.1056 C   0  0  2  0  0  0  0  0  0  0  0  0
   -2.3566   16.4774    4.8355 N   0  0  0  0  0  0  0  0  0  0  0  0
   -4.9278   13.2408    9.5470 C   0  0  0  0  0  0  0  0  0  0  0  0
    0.7525   11.7514   10.5754 C   0  0  2  0  0  0  0  0  0  0  0  0
    1.2127   13.0837   10.6521 O   0  0  0  0  0  0  0  0  0  0  0  0
   -4.7356   16.6289    4.0778 C   0  0  0  0  0  0  0  0  0  0  0  0
   -4.9750   14.2412    8.3319 C   0  0  2  0  0  0  0  0  0  0  0  0
   -6.3564   14.3056    7.8248 N   0  0  0  0  0  0  0  0  0  0  0  0
    1.2116   11.0721    9.2295 C   0  0  1  0  0  0  0  0  0  0  0  0
    2.7101   11.0436    9.1620 N   0  0  0  0  0  0  0  0  0  0  0  0
   -6.0215   15.7360    3.8153 C   0  0  0  0  0  0  0  0  0  0  0  0
   -3.9895   13.7428    7.1846 C   0  0  2  0  0  0  0  0  0  0  0  0
    0.6405    9.5450    9.2168 C   0  0  1  0  0  0  0  0  0  0  0  0
    1.0984    8.7900   10.3258 O   0  0  0  0  0  0  0  0  0  0  0  0
   -5.9488   14.3788    3.8367 C   0  0  2  0  0  0  0  0  0  0  0  0
   -4.7260   13.6782    4.0929 O   0  0  0  0  0  0  0  0  0  0  0  0
   -2.5215   13.6739    7.7469 C   0  0  2  0  0  0  0  0  0  0  0  0
   -1.6369   13.2118    6.7036 O   0  0  0  0  0  0  0  0  0  0  0  0
   -0.9211    9.5608    9.2883 C   0  0  0  0  0  0  0  0  0  0  0  0
   -1.3551   10.3563   10.4911 O   0  0  0  0  0  0  0  0  0  0  0  0
   -7.1586   13.4763    3.5874 C   0  0  0  0  0  0  0  0  0  0  0  0
   -6.8472   12.6042    2.4752 O   0  0  0  0  0  0  0  0  0  0  0  0
   -2.4896   12.6538    8.9443 C   0  0  1  0  0  0  0  0  0  0  0  0
   -1.1814   12.5862    9.4184 O   0  0  0  0  0  0  0  0  0  0  0  0
    1.0016    8.7237    7.9556 C   0  0  0  0  0  0  0  0  0  0  0  0
    3.3589   12.1226    8.3894 C   0  0  0  0  0  0  0  0  0  0  0  0
  1  2  1  1  0  0  0
  1  6  1  0  0  0  0
  1 21  1  0  0  0  0
  3  4  1  1  0  0  0
  3  8  1  0  0  0  0
  3 28  1  0  0  0  0
  5  9  1  0  0  0  0
  5 25  1  0  0  0  0
  5 29  1  6  0  0  0
  6  7  1  1  0  0  0
  6 11  1  0  0  0  0
  8 12  1  0  0  0  0
  9 10  1  6  0  0  0
  9 14  1  0  0  0  0
 11 16  1  0  0  0  0
 12 13  1  6  0  0  0
 12 17  1  0  0  0  0
 14 15  1  1  0  0  0
 14 18  1  0  0  0  0
 15 31  1  0  0  0  0
 16 20  1  0  0  0  0
 17  2  1  6  0  0  0
 17 22  1  0  0  0  0
 18 19  1  1  0  0  0
 18 24  1  0  0  0  0
 18 30  1  0  0  0  0
 20 21  1  0  0  0  0
 20 26  1  6  0  0  0
 22 23  1  6  0  0  0
 22 28  1  0  0  0  0
 24 25  1  0  0  0  0
 26 27  1  0  0  0  0
 28 29  1  1  0  0  0
M  END
>  <CHROM.1>
-160.63324235,168.75275884,-97.40319814,-159.12892858,122.80112860,58.51605667
-2.39542972,12.83577259,7.55714576,-2.35901443,-0.27086467,1.93463736

>  <Name>
ligand

>  <RI>
0

>  <Rbt.Current_Directory>
/home/itssahil/PROJECTS/Mol_Feturizer/New_Systems/rnas/4GPX

>  <Rbt.Executable>
rbdock ($Id: //depot/dev/client3/rdock/2013.1/src/exe/rbdock.cxx#4 $)

>  <Rbt.Library>
libRbt.so (2013.1, Build901 2013/11/27)

>  <Rbt.Parameter_File>
/export/apps/rDock/src/rDock_2013.1_src/data/scripts/dock_solv.prm

>  <Rbt.Receptor>
prm/pocket_docking_3.prm

>  <SCORE>
-18.8315

>  <SCORE.INTER>
-13.0097

>  <SCORE.INTER.CONST>
1

>  <SCORE.INTER.POLAR>
0

>  <SCORE.INTER.ROT>
6

>  <SCORE.INTER.SOLV>
16.7916

>  <SCORE.INTER.VDW>
-21.8703

>  <SCORE.INTER.norm>
-0.419667

>  <SCORE.INTRA>
-5.82186

>  <SCORE.INTRA.DIHEDRAL>
-13.8987

>  <SCORE.INTRA.DIHEDRAL.0>
20.6841

>  <SCORE.INTRA.POLAR>
0

>  <SCORE.INTRA.POLAR.0>
0

>  <SCORE.INTRA.REPUL>
0

>  <SCORE.INTRA.REPUL.0>
0

>  <SCORE.INTRA.SOLV>
0.0163293

>  <SCORE.INTRA.SOLV.lig_0>
-64.6797

>  <SCORE.INTRA.VDW>
1.1193

>  <SCORE.INTRA.VDW.0>
-4.11825

>  <SCORE.INTRA.norm>
-0.187802

>  <SCORE.RESTR>
0

>  <SCORE.RESTR.CAVITY>
0

>  <SCORE.RESTR.norm>
0

>  <SCORE.SYSTEM>
0

>  <SCORE.SYSTEM.CONST>
0

>  <SCORE.SYSTEM.DIHEDRAL>
0

>  <SCORE.SYSTEM.SOLV>
0

>  <SCORE.SYSTEM.norm>
0

>  <SCORE.heavy>
31

>  <SCORE.norm>
-0.607469

>  <RMSD>
1.762

$$$$
ligand
 OpenBabel11021811493D
libRbt.so/2013.1/901 2013/11/27
 31 33  0  0  0  0  0  0  0  0999 V2000
   -3.7279   14.3297    4.8152 C   0  0  2  0  0  0  0  0  0  0  0  0
   -4.1225   14.6307    6.1505 O   0  0  0  0  0  0  0  0  0  0  0  0
   -3.3974   13.2213   10.0966 C   0  0  2  0  0  0  0  0  0  0  0  0
   -3.3349   12.3352   11.2182 N   0  0  0  0  0  0  0  0  0  0  0  0
   -0.7784   11.7640   10.5160 C   0  0  2  0  0  0  0  0  0  0  0  0
   -3.4269   15.7153    4.1113 C   0  0  2  0  0  0  0  0  0  0  0  0
   -2.3704   16.3975    4.8513 N   0  0  0  0  0  0  0  0  0  0  0  0
   -4.9038   13.3098    9.6139 C   0  0  0  0  0  0  0  0  0  0  0  0
    0.7830   11.7592   10.4867 C   0  0  2  0  0  0  0  0  0  0  0  0
    1.2331   13.0957   10.5490 O   0  0  0  0  0  0  0  0  0  0  0  0
   -4.7345   16.6021    4.0600 C   0  0  0  0  0  0  0  0  0  0  0  0
   -4.9760   14.2824    8.3776 C   0  0  2  0  0  0  0  0  0  0  0  0
   -6.3739   14.3645    7.9207 N   0  0  0  0  0  0  0  0  0  0  0  0
    1.2228   11.0777    9.1355 C   0  0  1  0  0  0  0  0  0  0  0  0
    2.7200   11.0615    9.0403 N   0  0  0  0  0  0  0  0  0  0  0  0
   -6.0381   15.7391    3.7852 C   0  0  0  0  0  0  0  0  0  0  0  0
   -4.0449   13.7365    7.2069 C   0  0  2  0  0  0  0  0  0  0  0  0
    0.6646    9.5458    9.1401 C   0  0  1  0  0  0  0  0  0  0  0  0
    1.1494    8.7998   10.2437 O   0  0  0  0  0  0  0  0  0  0  0  0
   -5.9988   14.3807    3.8158 C   0  0  2  0  0  0  0  0  0  0  0  0
   -4.7972   13.6522    4.0931 O   0  0  0  0  0  0  0  0  0  0  0  0
   -2.5584   13.6493    7.7159 C   0  0  2  0  0  0  0  0  0  0  0  0
   -1.7233   13.1442    6.6519 O   0  0  0  0  0  0  0  0  0  0  0  0
   -0.8954    9.5488    9.2406 C   0  0  0  0  0  0  0  0  0  0  0  0
   -1.3139   10.3460   10.4477 O   0  0  0  0  0  0  0  0  0  0  0  0
   -7.2268   13.5063    3.5553 C   0  0  0  0  0  0  0  0  0  0  0  0
   -6.9294   12.6346    2.4390 O   0  0  0  0  0  0  0  0  0  0  0  0
   -2.5025   12.6569    8.9355 C   0  0  1  0  0  0  0  0  0  0  0  0
   -1.1791   12.5724    9.3623 O   0  0  0  0  0  0  0  0  0  0  0  0
    1.0092    8.7218    7.8760 C   0  0  0  0  0  0  0  0  0  0  0  0
    3.3483   12.1720    8.2958 C   0  0  0  0  0  0  0  0  0  0  0  0
  1  2  1  1  0  0  0
  1  6  1  0  0  0  0
  1 21  1  0  0  0  0
  3  4  1  1  0  0  0
  3  8  1  0  0  0  0
  3 28  1  0  0  0  0
  5  9  1  0  0  0  0
  5 25  1  0  0  0  0
  5 29  1  6  0  0  0
  6  7  1  1  0  0  0
  6 11  1  0  0  0  0
  8 12  1  0  0  0  0
  9 10  1  6  0  0  0
  9 14  1  0  0  0  0
 11 16  1  0  0  0  0
 12 13  1  6  0  0  0
 12 17  1  0  0  0  0
 14 15  1  1  0  0  0
 14 18  1  0  0  0  0
 15 31  1  0  0  0  0
 16 20  1  0  0  0  0
 17  2  1  6  0  0  0
 17 22  1  0  0  0  0
 18 19  1  1  0  0  0
 18 24  1  0  0  0  0
 18 30  1  0  0  0  0
 20 21  1  0  0  0  0
 20 26  1  6  0  0  0
 22 23  1  6  0  0  0
 22 28  1  0  0  0  0
 24 25  1  0  0  0  0
 26 27  1  0  0  0  0
 28 29  1  1  0  0  0
M  END
>  <CHROM.1>
-157.59436484,170.62703073,-95.07510217,-162.64995054,121.90071819,59.15870355
-2.40565602,12.83727399,7.52833906,-2.38562505,-0.31672897,1.88148987

>  <Name>
ligand

>  <RI>
0

>  <Rbt.Current_Directory>
/home/itssahil/PROJECTS/Mol_Feturizer/New_Systems/rnas/4GPX

>  <Rbt.Executable>
rbdock ($Id: //depot/dev/client3/rdock/2013.1/src/exe/rbdock.cxx#4 $)

>  <Rbt.Library>
libRbt.so (2013.1, Build901 2013/11/27)

>  <Rbt.Parameter_File>
/export/apps/rDock/src/rDock_2013.1_src/data/scripts/dock_solv.prm

>  <Rbt.Receptor>
prm/pocket_docking_6.prm

>  <SCORE>
-18.7215

>  <SCORE.INTER>
-12.6705

>  <SCORE.INTER.CONST>
1

>  <SCORE.INTER.POLAR>
0

>  <SCORE.INTER.ROT>
6

>  <SCORE.INTER.SOLV>
16.5715

>  <SCORE.INTER.VDW>
-21.5708

>  <SCORE.INTER.norm>
-0.408727

>  <SCORE.INTRA>
-6.05098

>  <SCORE.INTRA.DIHEDRAL>
-14.2122

>  <SCORE.INTRA.DIHEDRAL.0>
20.6841

>  <SCORE.INTRA.POLAR>
0

>  <SCORE.INTRA.POLAR.0>
0

>  <SCORE.INTRA.REPUL>
0

>  <SCORE.INTRA.REPUL.0>
0

>  <SCORE.INTRA.SOLV>
-0.241459

>  <SCORE.INTRA.SOLV.lig_0>
-64.6797

>  <SCORE.INTRA.VDW>
1.17585

>  <SCORE.INTRA.VDW.0>
-4.11825

>  <SCORE.INTRA.norm>
-0.195193

>  <SCORE.RESTR>
0

>  <SCORE.RESTR.CAVITY>
0

>  <SCORE.RESTR.norm>
0

>  <SCORE.SYSTEM>
0

>  <SCORE.SYSTEM.CONST>
0

>  <SCORE.SYSTEM.DIHEDRAL>
0

>  <SCORE.SYSTEM.SOLV>
0

>  <SCORE.SYSTEM.norm>
0

>  <SCORE.heavy>
31

>  <SCORE.norm>
-0.60392

>  <RMSD>
1.770

$$$$
ligand
 OpenBabel11021811493D
libRbt.so/2013.1/901 2013/11/27
 31 33  0  0  0  0  0  0  0  0999 V2000
   -3.3671   14.6882    4.9377 C   0  0  2  0  0  0  0  0  0  0  0  0
   -3.9180   14.8497    6.2414 O   0  0  0  0  0  0  0  0  0  0  0  0
   -3.5092   13.1440   10.1153 C   0  0  2  0  0  0  0  0  0  0  0  0
   -3.5070   12.1689   11.1623 N   0  0  0  0  0  0  0  0  0  0  0  0
   -0.8674   11.7995   10.6961 C   0  0  2  0  0  0  0  0  0  0  0  0
   -3.2782   16.1360    4.3036 C   0  0  2  0  0  0  0  0  0  0  0  0
   -2.4333   16.9689    5.1531 N   0  0  0  0  0  0  0  0  0  0  0  0
   -4.9624   13.1979    9.4865 C   0  0  0  0  0  0  0  0  0  0  0  0
    0.6931   11.7552   10.7377 C   0  0  2  0  0  0  0  0  0  0  0  0
    1.1717   13.0748   10.8867 O   0  0  0  0  0  0  0  0  0  0  0  0
   -4.7216   16.7652    4.1637 C   0  0  0  0  0  0  0  0  0  0  0  0
   -4.9679   14.2685    8.3318 C   0  0  2  0  0  0  0  0  0  0  0  0
   -6.3155   14.3192    7.7394 N   0  0  0  0  0  0  0  0  0  0  0  0
    1.1790   11.1288    9.3757 C   0  0  1  0  0  0  0  0  0  0  0  0
    2.6783   11.0780    9.3480 N   0  0  0  0  0  0  0  0  0  0  0  0
   -5.8116   15.6878    3.7505 C   0  0  0  0  0  0  0  0  0  0  0  0
   -3.8938   13.8729    7.2247 C   0  0  2  0  0  0  0  0  0  0  0  0
    0.5847    9.6136    9.2789 C   0  0  1  0  0  0  0  0  0  0  0  0
    0.9994    8.8025   10.3649 O   0  0  0  0  0  0  0  0  0  0  0  0
   -5.5184   14.3605    3.7447 C   0  0  2  0  0  0  0  0  0  0  0  0
   -4.2269   13.8568    4.1050 O   0  0  0  0  0  0  0  0  0  0  0  0
   -2.4632   13.8171    7.8775 C   0  0  2  0  0  0  0  0  0  0  0  0
   -1.4976   13.4481    6.8695 O   0  0  0  0  0  0  0  0  0  0  0  0
   -0.9778    9.6526    9.3083 C   0  0  0  0  0  0  0  0  0  0  0  0
   -1.4329   10.4011   10.5333 O   0  0  0  0  0  0  0  0  0  0  0  0
   -6.5334   13.2853    3.3520 C   0  0  0  0  0  0  0  0  0  0  0  0
   -7.0918   12.7294    4.5658 O   0  0  0  0  0  0  0  0  0  0  0  0
   -2.4711   12.7274    9.0124 C   0  0  1  0  0  0  0  0  0  0  0  0
   -1.1943   12.6732    9.5670 O   0  0  0  0  0  0  0  0  0  0  0  0
    0.9681    8.8431    7.9924 C   0  0  0  0  0  0  0  0  0  0  0  0
    3.3543   11.9882    8.4011 C   0  0  0  0  0  0  0  0  0  0  0  0
  1  2  1  1  0  0  0
  1  6  1  0  0  0  0
  1 21  1  0  0  0  0
  3  4  1  1  0  0  0
  3  8  1  0  0  0  0
  3 28  1  0  0  0  0
  5  9  1  0  0  0  0
  5 25  1  0  0  0  0
  5 29  1  6  0  0  0
  6  7  1  1  0  0  0
  6 11  1  0  0  0  0
  8 12  1  0  0  0  0
  9 10  1  6  0  0  0
  9 14  1  0  0  0  0
 11 16  1  0  0  0  0
 12 13  1  6  0  0  0
 12 17  1  0  0  0  0
 14 15  1  1  0  0  0
 14 18  1  0  0  0  0
 15 31  1  0  0  0  0
 16 20  1  0  0  0  0
 17  2  1  6  0  0  0
 17 22  1  0  0  0  0
 18 19  1  1  0  0  0
 18 24  1  0  0  0  0
 18 30  1  0  0  0  0
 20 21  1  0  0  0  0
 20 26  1  6  0  0  0
 22 23  1  6  0  0  0
 22 28  1  0  0  0  0
 24 25  1  0  0  0  0
 26 27  1  0  0  0  0
 28 29  1  1  0  0  0
M  END
>  <CHROM.1>
-165.54351877,165.04915280,-110.80217676,-163.08341414,-98.60201186,58.52607557
-2.34490953,12.91352247,7.69566913,-2.31569444,-0.13929374,2.11329621

>  <Name>
ligand

>  <RI>
0

>  <Rbt.Current_Directory>
/home/itssahil/PROJECTS/Mol_Feturizer/New_Systems/rnas/4GPX

>  <Rbt.Executable>
rbdock ($Id: //depot/dev/client3/rdock/2013.1/src/exe/rbdock.cxx#4 $)

>  <Rbt.Library>
libRbt.so (2013.1, Build901 2013/11/27)

>  <Rbt.Parameter_File>
/export/apps/rDock/src/rDock_2013.1_src/data/scripts/dock_solv.prm

>  <Rbt.Receptor>
prm/pocket_docking_4.prm

>  <SCORE>
-19.122

>  <SCORE.INTER>
-13.247

>  <SCORE.INTER.CONST>
1

>  <SCORE.INTER.POLAR>
0

>  <SCORE.INTER.ROT>
6

>  <SCORE.INTER.SOLV>
15.3495

>  <SCORE.INTER.VDW>
-21.5479

>  <SCORE.INTER.norm>
-0.427323

>  <SCORE.INTRA>
-5.87497

>  <SCORE.INTRA.DIHEDRAL>
-13.9569

>  <SCORE.INTRA.DIHEDRAL.0>
20.6841

>  <SCORE.INTRA.POLAR>
0

>  <SCORE.INTRA.POLAR.0>
0

>  <SCORE.INTRA.REPUL>
0

>  <SCORE.INTRA.REPUL.0>
0

>  <SCORE.INTRA.SOLV>
0.281639

>  <SCORE.INTRA.SOLV.lig_0>
-64.6797

>  <SCORE.INTRA.VDW>
0.962638

>  <SCORE.INTRA.VDW.0>
-4.11825

>  <SCORE.INTRA.norm>
-0.189515

>  <SCORE.RESTR>
0

>  <SCORE.RESTR.CAVITY>
0

>  <SCORE.RESTR.norm>
0

>  <SCORE.SYSTEM>
0

>  <SCORE.SYSTEM.CONST>
0

>  <SCORE.SYSTEM.DIHEDRAL>
0

>  <SCORE.SYSTEM.SOLV>
0

>  <SCORE.SYSTEM.norm>
0

>  <SCORE.heavy>
31

>  <SCORE.norm>
-0.616839

>  <RMSD>
1.776

$$$$
ligand
 OpenBabel11021811493D
libRbt.so/2013.1/901 2013/11/27
 31 33  0  0  0  0  0  0  0  0999 V2000
   -3.4389   14.3607    4.9686 C   0  0  2  0  0  0  0  0  0  0  0  0
   -3.8439   14.6496    6.3034 O   0  0  0  0  0  0  0  0  0  0  0  0
   -3.1363   13.2103   10.2419 C   0  0  2  0  0  0  0  0  0  0  0  0
   -3.0781   12.3157   11.3569 N   0  0  0  0  0  0  0  0  0  0  0  0
   -0.5117   11.7224   10.6384 C   0  0  2  0  0  0  0  0  0  0  0  0
   -3.1735   15.7546    4.2667 C   0  0  2  0  0  0  0  0  0  0  0  0
   -2.1369   16.4639    5.0095 N   0  0  0  0  0  0  0  0  0  0  0  0
   -4.6404   13.3010    9.7526 C   0  0  0  0  0  0  0  0  0  0  0  0
    1.0465   11.6551   10.5605 C   0  0  2  0  0  0  0  0  0  0  0  0
    1.5528   12.9707   10.6340 O   0  0  0  0  0  0  0  0  0  0  0  0
   -4.5041   16.6064    4.2138 C   0  0  0  0  0  0  0  0  0  0  0  0
   -4.7078   14.2832    8.5237 C   0  0  2  0  0  0  0  0  0  0  0  0
   -6.1035   14.3673    8.0607 N   0  0  0  0  0  0  0  0  0  0  0  0
    1.4168   10.9838    9.1836 C   0  0  1  0  0  0  0  0  0  0  0  0
    2.9085   10.9090    9.0415 N   0  0  0  0  0  0  0  0  0  0  0  0
   -5.7838   15.7093    3.9356 C   0  0  0  0  0  0  0  0  0  0  0  0
   -3.7704   13.7473    7.3533 C   0  0  2  0  0  0  0  0  0  0  0  0
    0.7966    9.4759    9.1766 C   0  0  1  0  0  0  0  0  0  0  0  0
    1.2836    8.6887   10.2502 O   0  0  0  0  0  0  0  0  0  0  0  0
   -5.7085   14.3524    3.9649 C   0  0  2  0  0  0  0  0  0  0  0  0
   -4.4884   13.6558    4.2437 O   0  0  0  0  0  0  0  0  0  0  0  0
   -2.2863   13.6577    7.8687 C   0  0  2  0  0  0  0  0  0  0  0  0
   -1.4455   13.1618    6.8048 O   0  0  0  0  0  0  0  0  0  0  0  0
   -0.7582    9.5399    9.3255 C   0  0  0  0  0  0  0  0  0  0  0  0
   -1.1068   10.3289   10.5600 O   0  0  0  0  0  0  0  0  0  0  0  0
   -6.9123   13.4459    3.7010 C   0  0  0  0  0  0  0  0  0  0  0  0
   -6.6117   12.6235    2.5488 O   0  0  0  0  0  0  0  0  0  0  0  0
   -2.2352   12.6559    9.0808 C   0  0  1  0  0  0  0  0  0  0  0  0
   -0.9137   12.5695    9.5133 O   0  0  0  0  0  0  0  0  0  0  0  0
    1.0686    8.6644    7.8870 C   0  0  0  0  0  0  0  0  0  0  0  0
    3.5688   12.0519    8.3782 C   0  0  0  0  0  0  0  0  0  0  0  0
  1  2  1  1  0  0  0
  1  6  1  0  0  0  0
  1 21  1  0  0  0  0
  3  4  1  1  0  0  0
  3  8  1  0  0  0  0
  3 28  1  0  0  0  0
  5  9  1  0  0  0  0
  5 25  1  0  0  0  0
  5 29  1  6  0  0  0
  6  7  1  1  0  0  0
  6 11  1  0  0  0  0
  8 12  1  0  0  0  0
  9 10  1  6  0  0  0
  9 14  1  0  0  0  0
 11 16  1  0  0  0  0
 12 13  1  6  0  0  0
 12 17  1  0  0  0  0
 14 15  1  1  0  0  0
 14 18  1  0  0  0  0
 15 31  1  0  0  0  0
 16 20  1  0  0  0  0
 17  2  1  6  0  0  0
 17 22  1  0  0  0  0
 18 19  1  1  0  0  0
 18 24  1  0  0  0  0
 18 30  1  0  0  0  0
 20 21  1  0  0  0  0
 20 26  1  6  0  0  0
 22 23  1  6  0  0  0
 22 28  1  0  0  0  0
 24 25  1  0  0  0  0
 26 27  1  0  0  0  0
 28 29  1  1  0  0  0
M  END
>  <CHROM.1>
-158.99780709,166.82963972,-91.12006067,-162.84421205,119.49359772,60.96812349
-2.16120602,12.80882186,7.64413597,-2.39199225,-0.35371232,1.86041619

>  <Name>
ligand

>  <RI>
0

>  <Rbt.Current_Directory>
/home/itssahil/PROJECTS/Mol_Feturizer/New_Systems/rnas/4GPX

>  <Rbt.Executable>
rbdock ($Id: //depot/dev/client3/rdock/2013.1/src/exe/rbdock.cxx#4 $)

>  <Rbt.Library>
libRbt.so (2013.1, Build901 2013/11/27)

>  <Rbt.Parameter_File>
/export/apps/rDock/src/rDock_2013.1_src/data/scripts/dock_solv.prm

>  <Rbt.Receptor>
prm/pocket_docking_4.prm

>  <SCORE>
-18.6611

>  <SCORE.INTER>
-12.5567

>  <SCORE.INTER.CONST>
1

>  <SCORE.INTER.POLAR>
0

>  <SCORE.INTER.ROT>
6

>  <SCORE.INTER.SOLV>
15.0141

>  <SCORE.INTER.VDW>
-20.9759

>  <SCORE.INTER.norm>
-0.405055

>  <SCORE.INTRA>
-6.10435

>  <SCORE.INTRA.DIHEDRAL>
-14.208

>  <SCORE.INTRA.DIHEDRAL.0>
20.6841

>  <SCORE.INTRA.POLAR>
0

>  <SCORE.INTRA.POLAR.0>
0

>  <SCORE.INTRA.REPUL>
0

>  <SCORE.INTRA.REPUL.0>
0

>  <SCORE.INTRA.SOLV>
-0.240906

>  <SCORE.INTRA.SOLV.lig_0>
-64.6797

>  <SCORE.INTRA.VDW>
1.1201

>  <SCORE.INTRA.VDW.0>
-4.11825

>  <SCORE.INTRA.norm>
-0.196914

>  <SCORE.RESTR>
0

>  <SCORE.RESTR.CAVITY>
0

>  <SCORE.RESTR.norm>
0

>  <SCORE.SYSTEM>
0

>  <SCORE.SYSTEM.CONST>
0

>  <SCORE.SYSTEM.DIHEDRAL>
0

>  <SCORE.SYSTEM.SOLV>
0

>  <SCORE.SYSTEM.norm>
0

>  <SCORE.heavy>
31

>  <SCORE.norm>
-0.60197

>  <RMSD>
1.845

$$$$
ligand
 OpenBabel11021811493D
libRbt.so/2013.1/901 2013/11/27
 31 33  0  0  0  0  0  0  0  0999 V2000
   -3.3906   14.3627    4.9586 C   0  0  2  0  0  0  0  0  0  0  0  0
   -3.7804   14.6646    6.2950 O   0  0  0  0  0  0  0  0  0  0  0  0
   -3.1188   13.2340   10.2447 C   0  0  2  0  0  0  0  0  0  0  0  0
   -3.0733   12.3417   11.3621 N   0  0  0  0  0  0  0  0  0  0  0  0
   -0.4951   11.7340   10.6633 C   0  0  2  0  0  0  0  0  0  0  0  0
   -3.1255   15.7493    4.2424 C   0  0  2  0  0  0  0  0  0  0  0  0
   -2.0778   16.4594    4.9686 N   0  0  0  0  0  0  0  0  0  0  0  0
   -4.6170   13.3228    9.7374 C   0  0  0  0  0  0  0  0  0  0  0  0
    1.0619   11.6455   10.5821 C   0  0  2  0  0  0  0  0  0  0  0  0
    1.5866   12.9536   10.6621 O   0  0  0  0  0  0  0  0  0  0  0  0
   -4.4523   16.6074    4.1961 C   0  0  0  0  0  0  0  0  0  0  0  0
   -4.6704   14.3023    8.5056 C   0  0  2  0  0  0  0  0  0  0  0  0
   -6.0606   14.3846    8.0259 N   0  0  0  0  0  0  0  0  0  0  0  0
    1.4203   10.9771    9.2006 C   0  0  1  0  0  0  0  0  0  0  0  0
    2.9106   10.8824    9.0553 N   0  0  0  0  0  0  0  0  0  0  0  0
   -5.7393   15.7146    3.9386 C   0  0  0  0  0  0  0  0  0  0  0  0
   -3.7188   13.7646    7.3476 C   0  0  2  0  0  0  0  0  0  0  0  0
    0.7793    9.4780    9.1863 C   0  0  1  0  0  0  0  0  0  0  0  0
    1.2573    8.6780   10.2544 O   0  0  0  0  0  0  0  0  0  0  0  0
   -5.6705   14.3576    3.9784 C   0  0  2  0  0  0  0  0  0  0  0  0
   -4.4511   13.6572    4.2504 O   0  0  0  0  0  0  0  0  0  0  0  0
   -2.2409   13.6769    7.8807 C   0  0  2  0  0  0  0  0  0  0  0  0
   -1.3873   13.1793    6.8280 O   0  0  0  0  0  0  0  0  0  0  0  0
   -0.7743    9.5627    9.3386 C   0  0  0  0  0  0  0  0  0  0  0  0
   -1.1096   10.3494   10.5782 O   0  0  0  0  0  0  0  0  0  0  0  0
   -6.8815   13.4552    3.7344 C   0  0  0  0  0  0  0  0  0  0  0  0
   -6.5975   12.6225    2.5854 O   0  0  0  0  0  0  0  0  0  0  0  0
   -2.2036   12.6777    9.0955 C   0  0  1  0  0  0  0  0  0  0  0  0
   -0.8874   12.5931    9.5438 O   0  0  0  0  0  0  0  0  0  0  0  0
    1.0376    8.6701    7.8916 C   0  0  0  0  0  0  0  0  0  0  0  0
    3.5643   11.9273    8.2411 C   0  0  0  0  0  0  0  0  0  0  0  0
  1  2  1  1  0  0  0
  1  6  1  0  0  0  0
  1 21  1  0  0  0  0
  3  4  1  1  0  0  0
  3  8  1  0  0  0  0
  3 28  1  0  0  0  0
  5  9  1  0  0  0  0
  5 25  1  0  0  0  0
  5 29  1  6  0  0  0
  6  7  1  1  0  0  0
  6 11  1  0  0  0  0
  8 12  1  0  0  0  0
  9 10  1  6  0  0  0
  9 14  1  0  0  0  0
 11 16  1  0  0  0  0
 12 13  1  6  0  0  0
 12 17  1  0  0  0  0
 14 15  1  1  0  0  0
 14 18  1  0  0  0  0
 15 31  1  0  0  0  0
 16 20  1  0  0  0  0
 17  2  1  6  0  0  0
 17 22  1  0  0  0  0
 18 19  1  1  0  0  0
 18 24  1  0  0  0  0
 18 30  1  0  0  0  0
 20 21  1  0  0  0  0
 20 26  1  6  0  0  0
 22 23  1  6  0  0  0
 22 28  1  0  0  0  0
 24 25  1  0  0  0  0
 26 27  1  0  0  0  0
 28 29  1  1  0  0  0
M  END
>  <CHROM.1>
-159.98071286,165.38112398,-99.05391493,-161.20105126,119.44478027,61.85390538
-2.13723252,12.81182895,7.64508831,-2.38864382,-0.35868557,1.86002547

>  <Name>
ligand

>  <RI>
0

>  <Rbt.Current_Directory>
/home/itssahil/PROJECTS/Mol_Feturizer/New_Systems/rnas/4GPX

>  <Rbt.Executable>
rbdock ($Id: //depot/dev/client3/rdock/2013.1/src/exe/rbdock.cxx#4 $)

>  <Rbt.Library>
libRbt.so (2013.1, Build901 2013/11/27)

>  <Rbt.Parameter_File>
/export/apps/rDock/src/rDock_2013.1_src/data/scripts/dock_solv.prm

>  <Rbt.Receptor>
prm/pocket_docking_3.prm

>  <SCORE>
-18.7098

>  <SCORE.INTER>
-12.6971

>  <SCORE.INTER.CONST>
1

>  <SCORE.INTER.POLAR>
0

>  <SCORE.INTER.ROT>
6

>  <SCORE.INTER.SOLV>
14.8632

>  <SCORE.INTER.VDW>
-21.0191

>  <SCORE.INTER.norm>
-0.409584

>  <SCORE.INTRA>
-6.01271

>  <SCORE.INTRA.DIHEDRAL>
-13.6885

>  <SCORE.INTRA.DIHEDRAL.0>
20.6841

>  <SCORE.INTRA.POLAR>
0

>  <SCORE.INTRA.POLAR.0>
0

>  <SCORE.INTRA.REPUL>
0

>  <SCORE.INTRA.REPUL.0>
0

>  <SCORE.INTRA.SOLV>
-0.161614

>  <SCORE.INTRA.SOLV.lig_0>
-64.6797

>  <SCORE.INTRA.VDW>
0.912351

>  <SCORE.INTRA.VDW.0>
-4.11825

>  <SCORE.INTRA.norm>
-0.193958

>  <SCORE.RESTR>
0

>  <SCORE.RESTR.CAVITY>
0

>  <SCORE.RESTR.norm>
0

>  <SCORE.SYSTEM>
0

>  <SCORE.SYSTEM.CONST>
0

>  <SCORE.SYSTEM.DIHEDRAL>
0

>  <SCORE.SYSTEM.SOLV>
0

>  <SCORE.SYSTEM.norm>
0

>  <SCORE.heavy>
31

>  <SCORE.norm>
-0.603542

>  <RMSD>
1.870

$$$$
ligand
 OpenBabel11021811493D
libRbt.so/2013.1/901 2013/11/27
 31 33  0  0  0  0  0  0  0  0999 V2000
   -3.1396   14.8736    5.2586 C   0  0  2  0  0  0  0  0  0  0  0  0
   -3.8016   15.0419    6.5086 O   0  0  0  0  0  0  0  0  0  0  0  0
   -4.8433   13.1626   10.1783 C   0  0  2  0  0  0  0  0  0  0  0  0
   -5.1226   12.1309   11.1294 N   0  0  0  0  0  0  0  0  0  0  0  0
   -1.8772   11.9883   11.3991 C   0  0  2  0  0  0  0  0  0  0  0  0
   -3.0573   16.3087    4.5955 C   0  0  2  0  0  0  0  0  0  0  0  0
   -2.3191   17.1961    5.4881 N   0  0  0  0  0  0  0  0  0  0  0  0
   -5.8465   13.0053    8.9623 C   0  0  0  0  0  0  0  0  0  0  0  0
   -1.4240   12.5112   12.7990 C   0  0  2  0  0  0  0  0  0  0  0  0
   -2.5563   13.0185   13.4723 O   0  0  0  0  0  0  0  0  0  0  0  0
   -4.5086   16.8729    4.3225 C   0  0  0  0  0  0  0  0  0  0  0  0
   -5.5403   14.1379    7.9120 C   0  0  2  0  0  0  0  0  0  0  0  0
   -6.4666   13.9934    6.7760 N   0  0  0  0  0  0  0  0  0  0  0  0
   -0.3590   13.6461   12.5513 C   0  0  1  0  0  0  0  0  0  0  0  0
    0.1017   14.2040   13.8657 N   0  0  0  0  0  0  0  0  0  0  0  0
   -5.5168   15.7410    3.8512 C   0  0  0  0  0  0  0  0  0  0  0  0
   -4.0330   14.0169    7.4128 C   0  0  2  0  0  0  0  0  0  0  0  0
    0.9098   12.9831   11.7709 C   0  0  1  0  0  0  0  0  0  0  0  0
    1.4930   11.9169   12.5005 O   0  0  0  0  0  0  0  0  0  0  0  0
   -5.1709   14.4275    3.9046 C   0  0  2  0  0  0  0  0  0  0  0  0
   -3.8941   13.9874    4.3815 O   0  0  0  0  0  0  0  0  0  0  0  0
   -3.0598   14.1667    8.6402 C   0  0  2  0  0  0  0  0  0  0  0  0
   -1.6966   14.0458    8.1801 O   0  0  0  0  0  0  0  0  0  0  0  0
    0.4425   12.3963   10.3993 C   0  0  0  0  0  0  0  0  0  0  0  0
   -0.6919   11.4335   10.6316 O   0  0  0  0  0  0  0  0  0  0  0  0
   -6.1062   13.3016    3.4597 C   0  0  0  0  0  0  0  0  0  0  0  0
   -5.3304   12.3479    2.6963 O   0  0  0  0  0  0  0  0  0  0  0  0
   -3.3654   13.0144    9.6670 C   0  0  1  0  0  0  0  0  0  0  0  0
   -2.4836   13.1457   10.7374 O   0  0  0  0  0  0  0  0  0  0  0  0
    2.0610   13.9650   11.4449 C   0  0  0  0  0  0  0  0  0  0  0  0
   -0.6610   15.3495   14.4027 C   0  0  0  0  0  0  0  0  0  0  0  0
  1  2  1  1  0  0  0
  1  6  1  0  0  0  0
  1 21  1  0  0  0  0
  3  4  1  1  0  0  0
  3  8  1  0  0  0  0
  3 28  1  0  0  0  0
  5  9  1  0  0  0  0
  5 25  1  0  0  0  0
  5 29  1  6  0  0  0
  6  7  1  1  0  0  0
  6 11  1  0  0  0  0
  8 12  1  0  0  0  0
  9 10  1  6  0  0  0
  9 14  1  0  0  0  0
 11 16  1  0  0  0  0
 12 13  1  6  0  0  0
 12 17  1  0  0  0  0
 14 15  1  1  0  0  0
 14 18  1  0  0  0  0
 15 31  1  0  0  0  0
 16 20  1  0  0  0  0
 17  2  1  6  0  0  0
 17 22  1  0  0  0  0
 18 19  1  1  0  0  0
 18 24  1  0  0  0  0
 18 30  1  0  0  0  0
 20 21  1  0  0  0  0
 20 26  1  6  0  0  0
 22 23  1  6  0  0  0
 22 28  1  0  0  0  0
 24 25  1  0  0  0  0
 26 27  1  0  0  0  0
 28 29  1  1  0  0  0
M  END
>  <CHROM.1>
-178.01349438,-159.62169467,-90.07650634,-134.50235858,137.02474603,99.91624632
-2.80772940,13.79894550,8.69334289,-2.10505637,0.32048928,1.94331851

>  <Name>
ligand

>  <RI>
0

>  <Rbt.Current_Directory>
/home/itssahil/PROJECTS/Mol_Feturizer/New_Systems/rnas/4GPX

>  <Rbt.Executable>
rbdock ($Id: //depot/dev/client3/rdock/2013.1/src/exe/rbdock.cxx#4 $)

>  <Rbt.Library>
libRbt.so (2013.1, Build901 2013/11/27)

>  <Rbt.Parameter_File>
/export/apps/rDock/src/rDock_2013.1_src/data/scripts/dock_solv.prm

>  <Rbt.Receptor>
prm/pocket_docking_4.prm

>  <SCORE>
-12.4722

>  <SCORE.INTER>
-10.37

>  <SCORE.INTER.CONST>
1

>  <SCORE.INTER.POLAR>
0

>  <SCORE.INTER.ROT>
6

>  <SCORE.INTER.SOLV>
14.3449

>  <SCORE.INTER.VDW>
-19.295

>  <SCORE.INTER.norm>
-0.334516

>  <SCORE.INTRA>
-2.10219

>  <SCORE.INTRA.DIHEDRAL>
-4.5648

>  <SCORE.INTRA.DIHEDRAL.0>
20.6841

>  <SCORE.INTRA.POLAR>
0

>  <SCORE.INTRA.POLAR.0>
0

>  <SCORE.INTRA.REPUL>
0

>  <SCORE.INTRA.REPUL.0>
0

>  <SCORE.INTRA.SOLV>
0.971793

>  <SCORE.INTRA.SOLV.lig_0>
-64.6797

>  <SCORE.INTRA.VDW>
-0.305682

>  <SCORE.INTRA.VDW.0>
-4.11825

>  <SCORE.INTRA.norm>
-0.0678124

>  <SCORE.RESTR>
0

>  <SCORE.RESTR.CAVITY>
0

>  <SCORE.RESTR.norm>
0

>  <SCORE.SYSTEM>
0

>  <SCORE.SYSTEM.CONST>
0

>  <SCORE.SYSTEM.DIHEDRAL>
0

>  <SCORE.SYSTEM.SOLV>
0

>  <SCORE.SYSTEM.norm>
0

>  <SCORE.heavy>
31

>  <SCORE.norm>
-0.402328

>  <RMSD>
2.270

$$$$
ligand
 OpenBabel11021811493D
libRbt.so/2013.1/901 2013/11/27
 31 33  0  0  0  0  0  0  0  0999 V2000
   -4.0622   14.4860    4.4247 C   0  0  2  0  0  0  0  0  0  0  0  0
   -4.5129   14.5245    5.7754 O   0  0  0  0  0  0  0  0  0  0  0  0
   -3.6238   12.2561    9.2608 C   0  0  2  0  0  0  0  0  0  0  0  0
   -3.6062   11.1675   10.1889 N   0  0  0  0  0  0  0  0  0  0  0  0
   -0.6738   12.2918    8.6781 C   0  0  2  0  0  0  0  0  0  0  0  0
   -4.0469   15.9837    3.9120 C   0  0  2  0  0  0  0  0  0  0  0  0
   -3.1526   16.7615    4.7632 N   0  0  0  0  0  0  0  0  0  0  0  0
   -5.1292   12.6950    9.0348 C   0  0  0  0  0  0  0  0  0  0  0  0
    0.6260   12.0370    7.8509 C   0  0  2  0  0  0  0  0  0  0  0  0
    0.3484   12.3038    6.4928 O   0  0  0  0  0  0  0  0  0  0  0  0
   -5.5071   16.5888    3.9364 C   0  0  0  0  0  0  0  0  0  0  0  0
   -5.1527   13.8917    8.0115 C   0  0  2  0  0  0  0  0  0  0  0  0
   -6.5507   14.3006    7.7931 N   0  0  0  0  0  0  0  0  0  0  0  0
    1.0238   10.5263    8.0595 C   0  0  1  0  0  0  0  0  0  0  0  0
    2.2606   10.2145    7.2695 N   0  0  0  0  0  0  0  0  0  0  0  0
   -6.6078   15.5250    3.5164 C   0  0  0  0  0  0  0  0  0  0  0  0
   -4.4898   13.4383    6.6365 C   0  0  2  0  0  0  0  0  0  0  0  0
    1.3242   10.3002    9.6460 C   0  0  1  0  0  0  0  0  0  0  0  0
    2.3551   11.1472   10.1247 O   0  0  0  0  0  0  0  0  0  0  0  0
   -6.2938   14.2100    3.3747 C   0  0  2  0  0  0  0  0  0  0  0  0
   -4.9700   13.7079    3.5915 O   0  0  0  0  0  0  0  0  0  0  0  0
   -3.0005   12.9989    6.8913 C   0  0  2  0  0  0  0  0  0  0  0  0
   -2.4107   12.5803    5.6417 O   0  0  0  0  0  0  0  0  0  0  0  0
    0.0427   10.6235   10.4810 C   0  0  0  0  0  0  0  0  0  0  0  0
   -0.4282   12.0149   10.1495 O   0  0  0  0  0  0  0  0  0  0  0  0
   -7.3182   13.1485    2.9695 C   0  0  0  0  0  0  0  0  0  0  0  0
   -8.5913   13.8063    2.7673 O   0  0  0  0  0  0  0  0  0  0  0  0
   -2.9988   11.7893    7.8974 C   0  0  1  0  0  0  0  0  0  0  0  0
   -1.6773   11.3968    8.0974 O   0  0  0  0  0  0  0  0  0  0  0  0
    1.7336    8.8588   10.0337 C   0  0  0  0  0  0  0  0  0  0  0  0
    2.0638    9.5417    5.9693 C   0  0  0  0  0  0  0  0  0  0  0  0
  1  2  1  1  0  0  0
  1  6  1  0  0  0  0
  1 21  1  0  0  0  0
  3  4  1  1  0  0  0
  3  8  1  0  0  0  0
  3 28  1  0  0  0  0
  5  9  1  0  0  0  0
  5 25  1  0  0  0  0
  5 29  1  6  0  0  0
  6  7  1  1  0  0  0
  6 11  1  0  0  0  0
  8 12  1  0  0  0  0
  9 10  1  6  0  0  0
  9 14  1  0  0  0  0
 11 16  1  0  0  0  0
 12 13  1  6  0  0  0
 12 17  1  0  0  0  0
 14 15  1  6  0  0  0
 14 18  1  0  0  0  0
 15 31  1  0  0  0  0
 16 20  1  0  0  0  0
 17  2  1  6  0  0  0
 17 22  1  0  0  0  0
 18 19  1  1  0  0  0
 18 24  1  0  0  0  0
 18 30  1  0  0  0  0
 20 21  1  0  0  0  0
 20 26  1  6  0  0  0
 22 23  1  6  0  0  0
 22 28  1  0  0  0  0
 24 25  1  0  0  0  0
 26 27  1  0  0  0  0
 28 29  1  1  0  0  0
M  END
>  <CHROM.1>
-170.69849359,-139.48330995,-99.24010229,-176.93497994,0.75849437,-57.02516646
-2.66129189,12.72990366,6.86184374,-2.47186132,-0.31814287,1.89544434

>  <Name>
ligand

>  <RI>
0

>  <Rbt.Current_Directory>
/home/itssahil/PROJECTS/Mol_Feturizer/New_Systems/rnas/4GPX

>  <Rbt.Executable>
rbdock ($Id: //depot/dev/client3/rdock/2013.1/src/exe/rbdock.cxx#4 $)

>  <Rbt.Library>
libRbt.so (2013.1, Build901 2013/11/27)

>  <Rbt.Parameter_File>
/export/apps/rDock/src/rDock_2013.1_src/data/scripts/dock_solv.prm

>  <Rbt.Receptor>
prm/pocket_docking_3.prm

>  <SCORE>
-18.3475

>  <SCORE.INTER>
-13.536

>  <SCORE.INTER.CONST>
1

>  <SCORE.INTER.POLAR>
0

>  <SCORE.INTER.ROT>
6

>  <SCORE.INTER.SOLV>
18.8229

>  <SCORE.INTER.VDW>
-22.8983

>  <SCORE.INTER.norm>
-0.436647

>  <SCORE.INTRA>
-4.81148

>  <SCORE.INTRA.DIHEDRAL>
-12.1195

>  <SCORE.INTRA.DIHEDRAL.0>
20.6841

>  <SCORE.INTRA.POLAR>
0

>  <SCORE.INTRA.POLAR.0>
0

>  <SCORE.INTRA.REPUL>
0

>  <SCORE.INTRA.REPUL.0>
0

>  <SCORE.INTRA.SOLV>
-1.21337

>  <SCORE.INTRA.SOLV.lig_0>
-64.6797

>  <SCORE.INTRA.VDW>
1.85497

>  <SCORE.INTRA.VDW.0>
-4.11825

>  <SCORE.INTRA.norm>
-0.155209

>  <SCORE.RESTR>
0

>  <SCORE.RESTR.CAVITY>
0

>  <SCORE.RESTR.norm>
0

>  <SCORE.SYSTEM>
0

>  <SCORE.SYSTEM.CONST>
0

>  <SCORE.SYSTEM.DIHEDRAL>
0

>  <SCORE.SYSTEM.SOLV>
0

>  <SCORE.SYSTEM.norm>
0

>  <SCORE.heavy>
31

>  <SCORE.norm>
-0.591856

>  <RMSD>
2.391

$$$$
ligand
 OpenBabel11021811493D
libRbt.so/2013.1/901 2013/11/27
 31 33  0  0  0  0  0  0  0  0999 V2000
   -4.0614   14.5216    4.3322 C   0  0  2  0  0  0  0  0  0  0  0  0
   -4.4522   14.5229    5.7021 O   0  0  0  0  0  0  0  0  0  0  0  0
   -3.5382   12.1712    9.1252 C   0  0  2  0  0  0  0  0  0  0  0  0
   -3.4975   11.0535   10.0175 N   0  0  0  0  0  0  0  0  0  0  0  0
   -0.5979   12.2998    8.6455 C   0  0  2  0  0  0  0  0  0  0  0  0
   -4.0712   16.0324    3.8596 C   0  0  2  0  0  0  0  0  0  0  0  0
   -3.1415   16.7899    4.6909 N   0  0  0  0  0  0  0  0  0  0  0  0
   -5.0541   12.5671    8.8900 C   0  0  0  0  0  0  0  0  0  0  0  0
    0.7585   12.0911    7.9003 C   0  0  2  0  0  0  0  0  0  0  0  0
    0.5701   12.4055    6.5371 O   0  0  0  0  0  0  0  0  0  0  0  0
   -5.5299   16.6325    3.9644 C   0  0  0  0  0  0  0  0  0  0  0  0
   -5.1028   13.7955    7.9061 C   0  0  2  0  0  0  0  0  0  0  0  0
   -6.5106   14.1649    7.6791 N   0  0  0  0  0  0  0  0  0  0  0  0
    1.1622   10.5783    8.0802 C   0  0  1  0  0  0  0  0  0  0  0  0
    2.4541   10.3105    7.3657 N   0  0  0  0  0  0  0  0  0  0  0  0
   -6.6463   15.5772    3.5650 C   0  0  0  0  0  0  0  0  0  0  0  0
   -4.4051   13.4102    6.5275 C   0  0  2  0  0  0  0  0  0  0  0  0
    1.3573   10.2962    9.6741 C   0  0  1  0  0  0  0  0  0  0  0  0
    2.3414   11.1364   10.2529 O   0  0  0  0  0  0  0  0  0  0  0  0
   -6.3367   14.2673    3.3747 C   0  0  2  0  0  0  0  0  0  0  0  0
   -5.0038   13.7633    3.5194 O   0  0  0  0  0  0  0  0  0  0  0  0
   -2.9057   13.0123    6.7913 C   0  0  2  0  0  0  0  0  0  0  0  0
   -2.2840   12.6550    5.5381 O   0  0  0  0  0  0  0  0  0  0  0  0
    0.0177   10.5733   10.4308 C   0  0  0  0  0  0  0  0  0  0  0  0
   -0.4489   11.9708   10.1191 O   0  0  0  0  0  0  0  0  0  0  0  0
   -7.3763   13.2140    2.9868 C   0  0  0  0  0  0  0  0  0  0  0  0
   -8.6593   13.8723    2.8646 O   0  0  0  0  0  0  0  0  0  0  0  0
   -2.8780   11.7707    7.7573 C   0  0  1  0  0  0  0  0  0  0  0  0
   -1.5470   11.4158    7.9651 O   0  0  0  0  0  0  0  0  0  0  0  0
    1.7596    8.8461   10.0358 C   0  0  0  0  0  0  0  0  0  0  0  0
    2.3529    9.7684    5.9953 C   0  0  0  0  0  0  0  0  0  0  0  0
  1  2  1  1  0  0  0
  1  6  1  0  0  0  0
  1 21  1  0  0  0  0
  3  4  1  1  0  0  0
  3  8  1  0  0  0  0
  3 28  1  0  0  0  0
  5  9  1  0  0  0  0
  5 25  1  0  0  0  0
  5 29  1  6  0  0  0
  6  7  1  1  0  0  0
  6 11  1  0  0  0  0
  8 12  1  0  0  0  0
  9 10  1  6  0  0  0
  9 14  1  0  0  0  0
 11 16  1  0  0  0  0
 12 13  1  6  0  0  0
 12 17  1  0  0  0  0
 14 15  1  6  0  0  0
 14 18  1  0  0  0  0
 15 31  1  0  0  0  0
 16 20  1  0  0  0  0
 17  2  1  6  0  0  0
 17 22  1  0  0  0  0
 18 19  1  1  0  0  0
 18 24  1  0  0  0  0
 18 30  1  0  0  0  0
 20 21  1  0  0  0  0
 20 26  1  6  0  0  0
 22 23  1  6  0  0  0
 22 28  1  0  0  0  0
 24 25  1  0  0  0  0
 26 27  1  0  0  0  0
 28 29  1  1  0  0  0
M  END
>  <CHROM.1>
-171.54347690,-143.21542777,-95.28819839,-172.66891707,0.49745805,-54.15472198
-2.60465331,12.74329528,6.82618323,-2.45832929,-0.25996289,1.96439083

>  <Name>
ligand

>  <RI>
0

>  <Rbt.Current_Directory>
/home/itssahil/PROJECTS/Mol_Feturizer/New_Systems/rnas/4GPX

>  <Rbt.Executable>
rbdock ($Id: //depot/dev/client3/rdock/2013.1/src/exe/rbdock.cxx#4 $)

>  <Rbt.Library>
libRbt.so (2013.1, Build901 2013/11/27)

>  <Rbt.Parameter_File>
/export/apps/rDock/src/rDock_2013.1_src/data/scripts/dock_solv.prm

>  <Rbt.Receptor>
prm/pocket_docking_6.prm

>  <SCORE>
-18.2793

>  <SCORE.INTER>
-13.2765

>  <SCORE.INTER.CONST>
1

>  <SCORE.INTER.POLAR>
0

>  <SCORE.INTER.ROT>
6

>  <SCORE.INTER.SOLV>
19.1697

>  <SCORE.INTER.VDW>
-22.8409

>  <SCORE.INTER.norm>
-0.428273

>  <SCORE.INTRA>
-5.00284

>  <SCORE.INTRA.DIHEDRAL>
-12.5984

>  <SCORE.INTRA.DIHEDRAL.0>
20.6841

>  <SCORE.INTRA.POLAR>
0

>  <SCORE.INTRA.POLAR.0>
0

>  <SCORE.INTRA.REPUL>
0

>  <SCORE.INTRA.REPUL.0>
0

>  <SCORE.INTRA.SOLV>
-0.923957

>  <SCORE.INTRA.SOLV.lig_0>
-64.6797

>  <SCORE.INTRA.VDW>
1.75832

>  <SCORE.INTRA.VDW.0>
-4.11825

>  <SCORE.INTRA.norm>
-0.161382

>  <SCORE.RESTR>
0

>  <SCORE.RESTR.CAVITY>
0

>  <SCORE.RESTR.norm>
0

>  <SCORE.SYSTEM>
0

>  <SCORE.SYSTEM.CONST>
0

>  <SCORE.SYSTEM.DIHEDRAL>
0

>  <SCORE.SYSTEM.SOLV>
0

>  <SCORE.SYSTEM.norm>
0

>  <SCORE.heavy>
31

>  <SCORE.norm>
-0.589655

>  <RMSD>
2.402

$$$$
ligand
 OpenBabel11021811493D
libRbt.so/2013.1/901 2013/11/27
 31 33  0  0  0  0  0  0  0  0999 V2000
   -5.5158   15.1114    6.0919 C   0  0  2  0  0  0  0  0  0  0  0  0
   -4.5400   14.6780    7.0348 O   0  0  0  0  0  0  0  0  0  0  0  0
   -4.6944   12.5658   10.7225 C   0  0  2  0  0  0  0  0  0  0  0  0
   -4.8976   11.4993   11.6542 N   0  0  0  0  0  0  0  0  0  0  0  0
   -2.0909   10.5835   10.9200 C   0  0  2  0  0  0  0  0  0  0  0  0
   -5.5974   13.9880    4.9795 C   0  0  2  0  0  0  0  0  0  0  0  0
   -5.9727   12.7279    5.6122 N   0  0  0  0  0  0  0  0  0  0  0  0
   -6.0653   12.8481    9.9802 C   0  0  0  0  0  0  0  0  0  0  0  0
   -0.8892   10.8477   11.8817 C   0  0  2  0  0  0  0  0  0  0  0  0
   -1.2818   11.8193   12.8275 O   0  0  0  0  0  0  0  0  0  0  0  0
   -4.2094   13.8477    4.2362 C   0  0  0  0  0  0  0  0  0  0  0  0
   -5.8446   14.0200    8.9518 C   0  0  2  0  0  0  0  0  0  0  0  0
   -7.1150   14.2834    8.2543 N   0  0  0  0  0  0  0  0  0  0  0  0
    0.3085   11.3695   11.0003 C   0  0  1  0  0  0  0  0  0  0  0  0
    1.4919   11.6610   11.8754 N   0  0  0  0  0  0  0  0  0  0  0  0
   -3.4953   15.2491    4.0224 C   0  0  0  0  0  0  0  0  0  0  0  0
   -4.7154   13.6134    7.9053 C   0  0  2  0  0  0  0  0  0  0  0  0
    0.6982   10.1966    9.9369 C   0  0  1  0  0  0  0  0  0  0  0  0
    1.0564    8.9849   10.5794 O   0  0  0  0  0  0  0  0  0  0  0  0
   -3.9668   16.3747    4.6211 C   0  0  2  0  0  0  0  0  0  0  0  0
   -5.1207   16.3686    5.4696 O   0  0  0  0  0  0  0  0  0  0  0  0
   -3.3694   13.3295    8.6692 C   0  0  2  0  0  0  0  0  0  0  0  0
   -2.3544   12.9521    7.7143 O   0  0  0  0  0  0  0  0  0  0  0  0
   -0.5278    9.8821    9.0194 C   0  0  0  0  0  0  0  0  0  0  0  0
   -1.7177    9.5450    9.8787 O   0  0  0  0  0  0  0  0  0  0  0  0
   -3.3153   17.7475    4.4435 C   0  0  0  0  0  0  0  0  0  0  0  0
   -1.9468   17.5440    4.0189 O   0  0  0  0  0  0  0  0  0  0  0  0
   -3.6034   12.1422    9.6748 C   0  0  1  0  0  0  0  0  0  0  0  0
   -2.3998   11.8872   10.3283 O   0  0  0  0  0  0  0  0  0  0  0  0
    1.8672   10.5425    8.9832 C   0  0  0  0  0  0  0  0  0  0  0  0
    1.4827   12.9522   12.5930 C   0  0  0  0  0  0  0  0  0  0  0  0
  1  2  1  1  0  0  0
  1  6  1  0  0  0  0
  1 21  1  0  0  0  0
  3  4  1  1  0  0  0
  3  8  1  0  0  0  0
  3 28  1  0  0  0  0
  5  9  1  0  0  0  0
  5 25  1  0  0  0  0
  5 29  1  6  0  0  0
  6  7  1  1  0  0  0
  6 11  1  0  0  0  0
  8 12  1  0  0  0  0
  9 10  1  1  0  0  0
  9 14  1  0  0  0  0
 11 16  1  0  0  0  0
 12 13  1  6  0  0  0
 12 17  1  0  0  0  0
 14 15  1  1  0  0  0
 14 18  1  0  0  0  0
 15 31  1  0  0  0  0
 16 20  1  0  0  0  0
 17  2  1  6  0  0  0
 17 22  1  0  0  0  0
 18 19  1  1  0  0  0
 18 24  1  0  0  0  0
 18 30  1  0  0  0  0
 20 21  1  0  0  0  0
 20 26  1  6  0  0  0
 22 23  1  6  0  0  0
 22 28  1  0  0  0  0
 24 25  1  0  0  0  0
 26 27  1  0  0  0  0
 28 29  1  1  0  0  0
M  END
>  <CHROM.1>
-70.05744148,-163.79097432,-80.53487014,-67.53294866,-21.36174217,85.46804659
-2.80505449,12.94537736,8.51083332,2.11961220,0.12647857,-0.96683539

>  <Name>
ligand

>  <RI>
0

>  <Rbt.Current_Directory>
/home/itssahil/PROJECTS/Mol_Feturizer/New_Systems/rnas/4GPX

>  <Rbt.Executable>
rbdock ($Id: //depot/dev/client3/rdock/2013.1/src/exe/rbdock.cxx#4 $)

>  <Rbt.Library>
libRbt.so (2013.1, Build901 2013/11/27)

>  <Rbt.Parameter_File>
/export/apps/rDock/src/rDock_2013.1_src/data/scripts/dock_solv.prm

>  <Rbt.Receptor>
prm/pocket_docking_4.prm

>  <SCORE>
-16.3904

>  <SCORE.INTER>
-13.2077

>  <SCORE.INTER.CONST>
1

>  <SCORE.INTER.POLAR>
0

>  <SCORE.INTER.ROT>
6

>  <SCORE.INTER.SOLV>
22.5083

>  <SCORE.INTER.VDW>
-23.9079

>  <SCORE.INTER.norm>
-0.426055

>  <SCORE.INTRA>
-3.18268

>  <SCORE.INTRA.DIHEDRAL>
-13.3996

>  <SCORE.INTRA.DIHEDRAL.0>
20.6841

>  <SCORE.INTRA.POLAR>
0

>  <SCORE.INTRA.POLAR.0>
0

>  <SCORE.INTRA.REPUL>
0

>  <SCORE.INTRA.REPUL.0>
0

>  <SCORE.INTRA.SOLV>
2.3451

>  <SCORE.INTRA.SOLV.lig_0>
-64.6797

>  <SCORE.INTRA.VDW>
2.34459

>  <SCORE.INTRA.VDW.0>
-4.11825

>  <SCORE.INTRA.norm>
-0.102667

>  <SCORE.RESTR>
0

>  <SCORE.RESTR.CAVITY>
0

>  <SCORE.RESTR.norm>
0

>  <SCORE.SYSTEM>
0

>  <SCORE.SYSTEM.CONST>
0

>  <SCORE.SYSTEM.DIHEDRAL>
0

>  <SCORE.SYSTEM.SOLV>
0

>  <SCORE.SYSTEM.norm>
0

>  <SCORE.heavy>
31

>  <SCORE.norm>
-0.528722

>  <RMSD>
2.423

$$$$
ligand
 OpenBabel11021811493D
libRbt.so/2013.1/901 2013/11/27
 31 33  0  0  0  0  0  0  0  0999 V2000
   -5.4578   14.9179    6.1652 C   0  0  2  0  0  0  0  0  0  0  0  0
   -5.5077   13.5012    6.3050 O   0  0  0  0  0  0  0  0  0  0  0  0
   -4.1586   12.8149   10.2790 C   0  0  2  0  0  0  0  0  0  0  0  0
   -3.9535   12.1636   11.5363 N   0  0  0  0  0  0  0  0  0  0  0  0
   -1.4992   10.4959    9.1654 C   0  0  2  0  0  0  0  0  0  0  0  0
   -5.7782   15.2324    4.6472 C   0  0  2  0  0  0  0  0  0  0  0  0
   -7.0979   14.6991    4.3262 N   0  0  0  0  0  0  0  0  0  0  0  0
   -5.7176   12.9813   10.0514 C   0  0  0  0  0  0  0  0  0  0  0  0
   -0.6234   10.3268   10.4472 C   0  0  2  0  0  0  0  0  0  0  0  0
   -1.4712   10.3755   11.5748 O   0  0  0  0  0  0  0  0  0  0  0  0
   -4.6761   14.5968    3.7090 C   0  0  0  0  0  0  0  0  0  0  0  0
   -5.9471   13.6955    8.6670 C   0  0  2  0  0  0  0  0  0  0  0  0
   -7.3956   13.8481    8.4472 N   0  0  0  0  0  0  0  0  0  0  0  0
    0.4107   11.5159   10.4666 C   0  0  1  0  0  0  0  0  0  0  0  0
    1.2717   11.4184   11.6914 N   0  0  0  0  0  0  0  0  0  0  0  0
   -3.2222   14.6870    4.3396 C   0  0  0  0  0  0  0  0  0  0  0  0
   -5.3010   12.8275    7.4988 C   0  0  2  0  0  0  0  0  0  0  0  0
    1.3458   11.3906    9.1368 C   0  0  1  0  0  0  0  0  0  0  0  0
    2.0291   10.1502    9.0744 O   0  0  0  0  0  0  0  0  0  0  0  0
   -3.0402   15.0784    5.6286 C   0  0  2  0  0  0  0  0  0  0  0  0
   -4.1317   15.4296    6.4869 O   0  0  0  0  0  0  0  0  0  0  0  0
   -3.7564   12.6699    7.7547 C   0  0  2  0  0  0  0  0  0  0  0  0
   -3.1808   11.8736    6.6968 O   0  0  0  0  0  0  0  0  0  0  0  0
    0.4597   11.4892    7.8526 C   0  0  0  0  0  0  0  0  0  0  0  0
   -0.6315   10.4536    7.9215 O   0  0  0  0  0  0  0  0  0  0  0  0
   -1.6598   15.1833    6.2798 C   0  0  0  0  0  0  0  0  0  0  0  0
   -0.9213   13.9793    5.9645 O   0  0  0  0  0  0  0  0  0  0  0  0
   -3.5476   11.9349    9.1301 C   0  0  1  0  0  0  0  0  0  0  0  0
   -2.1779   11.7828    9.3340 O   0  0  0  0  0  0  0  0  0  0  0  0
    2.4277   12.4882    8.9940 C   0  0  0  0  0  0  0  0  0  0  0  0
    0.9049   12.2857   12.8295 C   0  0  0  0  0  0  0  0  0  0  0  0
  1  2  1  6  0  0  0
  1  6  1  0  0  0  0
  1 21  1  0  0  0  0
  3  4  1  1  0  0  0
  3  8  1  0  0  0  0
  3 28  1  0  0  0  0
  5  9  1  0  0  0  0
  5 25  1  0  0  0  0
  5 29  1  1  0  0  0
  6  7  1  6  0  0  0
  6 11  1  0  0  0  0
  8 12  1  0  0  0  0
  9 10  1  1  0  0  0
  9 14  1  0  0  0  0
 11 16  1  0  0  0  0
 12 13  1  6  0  0  0
 12 17  1  0  0  0  0
 14 15  1  1  0  0  0
 14 18  1  0  0  0  0
 15 31  1  0  0  0  0
 16 20  1  0  0  0  0
 17  2  1  6  0  0  0
 17 22  1  0  0  0  0
 18 19  1  1  0  0  0
 18 24  1  0  0  0  0
 18 30  1  0  0  0  0
 20 21  1  0  0  0  0
 20 26  1  6  0  0  0
 22 23  1  6  0  0  0
 22 28  1  0  0  0  0
 24 25  1  0  0  0  0
 26 27  1  0  0  0  0
 28 29  1  1  0  0  0
M  END
>  <CHROM.1>
-178.98641152,-131.82712029,-99.45302708,37.02623688,-46.70691742,136.44477908
-2.59830794,12.76473954,8.14132399,2.40070595,0.19416091,-1.15018057

>  <Name>
ligand

>  <RI>
0

>  <Rbt.Current_Directory>
/home/itssahil/PROJECTS/Mol_Feturizer/New_Systems/rnas/4GPX

>  <Rbt.Executable>
rbdock ($Id: //depot/dev/client3/rdock/2013.1/src/exe/rbdock.cxx#4 $)

>  <Rbt.Library>
libRbt.so (2013.1, Build901 2013/11/27)

>  <Rbt.Parameter_File>
/export/apps/rDock/src/rDock_2013.1_src/data/scripts/dock_solv.prm

>  <Rbt.Receptor>
prm/pocket_docking_2.prm

>  <SCORE>
-6.32001

>  <SCORE.INTER>
-5.37931

>  <SCORE.INTER.CONST>
1

>  <SCORE.INTER.POLAR>
0

>  <SCORE.INTER.ROT>
6

>  <SCORE.INTER.SOLV>
17.9581

>  <SCORE.INTER.VDW>
-17.1722

>  <SCORE.INTER.norm>
-0.173526

>  <SCORE.INTRA>
-0.950913

>  <SCORE.INTRA.DIHEDRAL>
-1.63139

>  <SCORE.INTRA.DIHEDRAL.0>
20.6841

>  <SCORE.INTRA.POLAR>
0

>  <SCORE.INTRA.POLAR.0>
0

>  <SCORE.INTRA.REPUL>
0

>  <SCORE.INTRA.REPUL.0>
0

>  <SCORE.INTRA.SOLV>
0.039661

>  <SCORE.INTRA.SOLV.lig_0>
-64.6797

>  <SCORE.INTRA.VDW>
-0.15505

>  <SCORE.INTRA.VDW.0>
-4.11825

>  <SCORE.INTRA.norm>
-0.0306746

>  <SCORE.RESTR>
0.0102099

>  <SCORE.RESTR.CAVITY>
0.0102099

>  <SCORE.RESTR.norm>
0.000329353

>  <SCORE.SYSTEM>
0

>  <SCORE.SYSTEM.CONST>
0

>  <SCORE.SYSTEM.DIHEDRAL>
0

>  <SCORE.SYSTEM.SOLV>
0

>  <SCORE.SYSTEM.norm>
0

>  <SCORE.heavy>
31

>  <SCORE.norm>
-0.203871

>  <RMSD>
2.430

$$$$
ligand
 OpenBabel11021811493D
libRbt.so/2013.1/901 2013/11/27
 31 33  0  0  0  0  0  0  0  0999 V2000
   -5.4540   14.9374    6.1767 C   0  0  2  0  0  0  0  0  0  0  0  0
   -5.5381   13.5305    6.3835 O   0  0  0  0  0  0  0  0  0  0  0  0
   -4.0922   12.9836   10.3452 C   0  0  2  0  0  0  0  0  0  0  0  0
   -3.8718   12.3854   11.6260 N   0  0  0  0  0  0  0  0  0  0  0  0
   -1.5241   10.5615    9.0895 C   0  0  2  0  0  0  0  0  0  0  0  0
   -5.7394   15.1845    4.6393 C   0  0  2  0  0  0  0  0  0  0  0  0
   -7.0647   14.6647    4.3190 N   0  0  0  0  0  0  0  0  0  0  0  0
   -5.6506   13.1966   10.1553 C   0  0  0  0  0  0  0  0  0  0  0  0
   -0.6198   10.2632   10.3272 C   0  0  2  0  0  0  0  0  0  0  0  0
   -1.4390   10.2173   11.4759 O   0  0  0  0  0  0  0  0  0  0  0  0
   -4.6349   14.4806    3.7543 C   0  0  0  0  0  0  0  0  0  0  0  0
   -5.8972   13.8525    8.7452 C   0  0  2  0  0  0  0  0  0  0  0  0
   -7.3454   14.0480    8.5605 N   0  0  0  0  0  0  0  0  0  0  0  0
    0.4317   11.4325   10.4301 C   0  0  1  0  0  0  0  0  0  0  0  0
    1.3209   11.2110   11.6181 N   0  0  0  0  0  0  0  0  0  0  0  0
   -3.1911   14.5701    4.4079 C   0  0  0  0  0  0  0  0  0  0  0  0
   -5.3187   12.9069    7.6020 C   0  0  2  0  0  0  0  0  0  0  0  0
    1.3321   11.4199    9.0709 C   0  0  1  0  0  0  0  0  0  0  0  0
    1.9955   10.1823    8.8763 O   0  0  0  0  0  0  0  0  0  0  0  0
   -3.0240   15.0197    5.6798 C   0  0  2  0  0  0  0  0  0  0  0  0
   -4.1229   15.4355    6.4989 O   0  0  0  0  0  0  0  0  0  0  0  0
   -3.7735   12.7045    7.8202 C   0  0  2  0  0  0  0  0  0  0  0  0
   -3.2595   11.8383    6.7857 O   0  0  0  0  0  0  0  0  0  0  0  0
    0.4165   11.6483    7.8246 C   0  0  0  0  0  0  0  0  0  0  0  0
   -0.6878   10.6244    7.8252 O   0  0  0  0  0  0  0  0  0  0  0  0
   -1.6537   15.1265    6.3517 C   0  0  0  0  0  0  0  0  0  0  0  0
   -0.8620   13.9865    5.9420 O   0  0  0  0  0  0  0  0  0  0  0  0
   -3.5486   12.0283    9.2229 C   0  0  1  0  0  0  0  0  0  0  0  0
   -2.1796   11.8354    9.3940 O   0  0  0  0  0  0  0  0  0  0  0  0
    2.4262   12.5126    9.0026 C   0  0  0  0  0  0  0  0  0  0  0  0
    1.2596   12.2261   12.6895 C   0  0  0  0  0  0  0  0  0  0  0  0
  1  2  1  6  0  0  0
  1  6  1  0  0  0  0
  1 21  1  0  0  0  0
  3  4  1  1  0  0  0
  3  8  1  0  0  0  0
  3 28  1  0  0  0  0
  5  9  1  0  0  0  0
  5 25  1  0  0  0  0
  5 29  1  1  0  0  0
  6  7  1  6  0  0  0
  6 11  1  0  0  0  0
  8 12  1  0  0  0  0
  9 10  1  1  0  0  0
  9 14  1  0  0  0  0
 11 16  1  0  0  0  0
 12 13  1  6  0  0  0
 12 17  1  0  0  0  0
 14 15  1  1  0  0  0
 14 18  1  0  0  0  0
 15 31  1  0  0  0  0
 16 20  1  0  0  0  0
 17  2  1  6  0  0  0
 17 22  1  0  0  0  0
 18 19  1  6  0  0  0
 18 24  1  0  0  0  0
 18 30  1  0  0  0  0
 20 21  1  0  0  0  0
 20 26  1  6  0  0  0
 22 23  1  6  0  0  0
 22 28  1  0  0  0  0
 24 25  1  0  0  0  0
 26 27  1  0  0  0  0
 28 29  1  1  0  0  0
M  END
>  <CHROM.1>
178.47160819,-132.72522319,-116.71493047,36.43369938,-38.13827947,145.07008626
-2.57604763,12.78735810,8.14762410,2.42272978,0.21999666,-1.17175433

>  <Name>
ligand

>  <RI>
0

>  <Rbt.Current_Directory>
/home/itssahil/PROJECTS/Mol_Feturizer/New_Systems/rnas/4GPX

>  <Rbt.Executable>
rbdock ($Id: //depot/dev/client3/rdock/2013.1/src/exe/rbdock.cxx#4 $)

>  <Rbt.Library>
libRbt.so (2013.1, Build901 2013/11/27)

>  <Rbt.Parameter_File>
/export/apps/rDock/src/rDock_2013.1_src/data/scripts/dock_solv.prm

>  <Rbt.Receptor>
prm/pocket_docking_2.prm

>  <SCORE>
-6.75873

>  <SCORE.INTER>
-5.0751

>  <SCORE.INTER.CONST>
1

>  <SCORE.INTER.POLAR>
0

>  <SCORE.INTER.ROT>
6

>  <SCORE.INTER.SOLV>
17.8095

>  <SCORE.INTER.VDW>
-16.9199

>  <SCORE.INTER.norm>
-0.163713

>  <SCORE.INTRA>
-1.73975

>  <SCORE.INTRA.DIHEDRAL>
-3.08081

>  <SCORE.INTRA.DIHEDRAL.0>
20.6841

>  <SCORE.INTRA.POLAR>
0

>  <SCORE.INTRA.POLAR.0>
0

>  <SCORE.INTRA.REPUL>
0

>  <SCORE.INTRA.REPUL.0>
0

>  <SCORE.INTRA.SOLV>
-0.312244

>  <SCORE.INTRA.SOLV.lig_0>
-64.6797

>  <SCORE.INTRA.VDW>
-0.0432284

>  <SCORE.INTRA.VDW.0>
-4.11825

>  <SCORE.INTRA.norm>
-0.0561211

>  <SCORE.RESTR>
0.0561284

>  <SCORE.RESTR.CAVITY>
0.0561284

>  <SCORE.RESTR.norm>
0.00181059

>  <SCORE.SYSTEM>
0

>  <SCORE.SYSTEM.CONST>
0

>  <SCORE.SYSTEM.DIHEDRAL>
0

>  <SCORE.SYSTEM.SOLV>
0

>  <SCORE.SYSTEM.norm>
0

>  <SCORE.heavy>
31

>  <SCORE.norm>
-0.218023

>  <RMSD>
2.462

$$$$
ligand
 OpenBabel11021811493D
libRbt.so/2013.1/901 2013/11/27
 31 33  0  0  0  0  0  0  0  0999 V2000
   -5.7401   14.9411    6.0287 C   0  0  2  0  0  0  0  0  0  0  0  0
   -4.7674   14.5447    6.9910 O   0  0  0  0  0  0  0  0  0  0  0  0
   -4.9812   12.5850   10.7590 C   0  0  2  0  0  0  0  0  0  0  0  0
   -5.1884   11.5540   11.7291 N   0  0  0  0  0  0  0  0  0  0  0  0
   -2.3428   10.6684   11.1076 C   0  0  2  0  0  0  0  0  0  0  0  0
   -5.8204   13.7739    4.9623 C   0  0  2  0  0  0  0  0  0  0  0  0
   -6.1992   12.5408    5.6442 N   0  0  0  0  0  0  0  0  0  0  0  0
   -6.3363   12.8065    9.9688 C   0  0  0  0  0  0  0  0  0  0  0  0
   -1.0856   10.9660   11.9847 C   0  0  2  0  0  0  0  0  0  0  0  0
   -1.4093   11.9997   12.8900 O   0  0  0  0  0  0  0  0  0  0  0  0
   -4.4305   13.6018    4.2290 C   0  0  0  0  0  0  0  0  0  0  0  0
   -6.1112   13.9390    8.8982 C   0  0  2  0  0  0  0  0  0  0  0  0
   -7.3668   14.1457    8.1562 N   0  0  0  0  0  0  0  0  0  0  0  0
    0.0697   11.4110   11.0095 C   0  0  1  0  0  0  0  0  0  0  0  0
    1.3043   11.7311   11.7996 N   0  0  0  0  0  0  0  0  0  0  0  0
   -3.7139   14.9926    3.9608 C   0  0  0  0  0  0  0  0  0  0  0  0
   -4.9452   13.5138    7.9005 C   0  0  2  0  0  0  0  0  0  0  0  0
    0.3808   10.1696    9.9994 C   0  0  1  0  0  0  0  0  0  0  0  0
    0.7546    8.9915   10.6936 O   0  0  0  0  0  0  0  0  0  0  0  0
   -4.1854   16.1420    4.5124 C   0  0  2  0  0  0  0  0  0  0  0  0
   -5.3416   16.1716    5.3573 O   0  0  0  0  0  0  0  0  0  0  0  0
   -3.6154   13.2910    8.7117 C   0  0  2  0  0  0  0  0  0  0  0  0
   -2.5667   12.8962    7.8013 O   0  0  0  0  0  0  0  0  0  0  0  0
   -0.8991    9.8249    9.1707 C   0  0  0  0  0  0  0  0  0  0  0  0
   -2.0448    9.5627   10.1123 O   0  0  0  0  0  0  0  0  0  0  0  0
   -3.5314   17.5056    4.2815 C   0  0  0  0  0  0  0  0  0  0  0  0
   -2.3714   17.5993    5.1417 O   0  0  0  0  0  0  0  0  0  0  0  0
   -3.8530   12.1418    9.7598 C   0  0  1  0  0  0  0  0  0  0  0  0
   -2.6631   11.9403   10.4557 O   0  0  0  0  0  0  0  0  0  0  0  0
    1.5005   10.4353    8.9643 C   0  0  0  0  0  0  0  0  0  0  0  0
    1.3987   13.0960   12.3566 C   0  0  0  0  0  0  0  0  0  0  0  0
  1  2  1  1  0  0  0
  1  6  1  0  0  0  0
  1 21  1  0  0  0  0
  3  4  1  1  0  0  0
  3  8  1  0  0  0  0
  3 28  1  0  0  0  0
  5  9  1  0  0  0  0
  5 25  1  0  0  0  0
  5 29  1  6  0  0  0
  6  7  1  1  0  0  0
  6 11  1  0  0  0  0
  8 12  1  0  0  0  0
  9 10  1  1  0  0  0
  9 14  1  0  0  0  0
 11 16  1  0  0  0  0
 12 13  1  6  0  0  0
 12 17  1  0  0  0  0
 14 15  1  1  0  0  0
 14 18  1  0  0  0  0
 15 31  1  0  0  0  0
 16 20  1  0  0  0  0
 17  2  1  6  0  0  0
 17 22  1  0  0  0  0
 18 19  1  1  0  0  0
 18 24  1  0  0  0  0
 18 30  1  0  0  0  0
 20 21  1  0  0  0  0
 20 26  1  6  0  0  0
 22 23  1  6  0  0  0
 22 28  1  0  0  0  0
 24 25  1  0  0  0  0
 26 27  1  0  0  0  0
 28 29  1  1  0  0  0
M  END
>  <CHROM.1>
-69.85825586,-169.18402724,-84.75422451,-65.73811754,-79.07410188,85.60289741
-3.05567604,12.89296874,8.56311306,2.13590610,0.08613697,-0.96791605

>  <Name>
ligand

>  <RI>
0

>  <Rbt.Current_Directory>
/home/itssahil/PROJECTS/Mol_Feturizer/New_Systems/rnas/4GPX

>  <Rbt.Executable>
rbdock ($Id: //depot/dev/client3/rdock/2013.1/src/exe/rbdock.cxx#4 $)

>  <Rbt.Library>
libRbt.so (2013.1, Build901 2013/11/27)

>  <Rbt.Parameter_File>
/export/apps/rDock/src/rDock_2013.1_src/data/scripts/dock_solv.prm

>  <Rbt.Receptor>
prm/pocket_docking_3.prm

>  <SCORE>
-16.2399

>  <SCORE.INTER>
-12.324

>  <SCORE.INTER.CONST>
1

>  <SCORE.INTER.POLAR>
0

>  <SCORE.INTER.ROT>
6

>  <SCORE.INTER.SOLV>
23.1412

>  <SCORE.INTER.VDW>
-23.5298

>  <SCORE.INTER.norm>
-0.39755

>  <SCORE.INTRA>
-3.91583

>  <SCORE.INTRA.DIHEDRAL>
-13.1072

>  <SCORE.INTRA.DIHEDRAL.0>
20.6841

>  <SCORE.INTRA.POLAR>
0

>  <SCORE.INTRA.POLAR.0>
0

>  <SCORE.INTRA.REPUL>
0

>  <SCORE.INTRA.REPUL.0>
0

>  <SCORE.INTRA.SOLV>
2.33728

>  <SCORE.INTRA.SOLV.lig_0>
-64.6797

>  <SCORE.INTRA.VDW>
1.46911

>  <SCORE.INTRA.VDW.0>
-4.11825

>  <SCORE.INTRA.norm>
-0.126317

>  <SCORE.RESTR>
0

>  <SCORE.RESTR.CAVITY>
0

>  <SCORE.RESTR.norm>
0

>  <SCORE.SYSTEM>
0

>  <SCORE.SYSTEM.CONST>
0

>  <SCORE.SYSTEM.DIHEDRAL>
0

>  <SCORE.SYSTEM.SOLV>
0

>  <SCORE.SYSTEM.norm>
0

>  <SCORE.heavy>
31

>  <SCORE.norm>
-0.523867

>  <RMSD>
2.464

$$$$
ligand
 OpenBabel11021811493D
libRbt.so/2013.1/901 2013/11/27
 31 33  0  0  0  0  0  0  0  0999 V2000
   -4.9104   14.3482    6.2992 C   0  0  2  0  0  0  0  0  0  0  0  0
   -5.1754   12.9985    6.6697 O   0  0  0  0  0  0  0  0  0  0  0  0
   -3.7714   12.7682   10.6771 C   0  0  2  0  0  0  0  0  0  0  0  0
   -3.5944   12.2936   12.0152 N   0  0  0  0  0  0  0  0  0  0  0  0
   -1.4660   10.0695   10.2714 C   0  0  2  0  0  0  0  0  0  0  0  0
   -5.3384   14.4911    4.7818 C   0  0  2  0  0  0  0  0  0  0  0  0
   -6.7545   14.1606    4.6609 N   0  0  0  0  0  0  0  0  0  0  0  0
   -5.3104   13.0716   10.4547 C   0  0  0  0  0  0  0  0  0  0  0  0
   -0.4439   10.3433   11.4199 C   0  0  2  0  0  0  0  0  0  0  0  0
   -1.1089   11.0438   12.4494 O   0  0  0  0  0  0  0  0  0  0  0  0
   -4.4636   13.5402    3.8712 C   0  0  0  0  0  0  0  0  0  0  0  0
   -5.5095   13.5918    8.9819 C   0  0  2  0  0  0  0  0  0  0  0  0
   -6.9398   13.8704    8.7673 N   0  0  0  0  0  0  0  0  0  0  0  0
    0.7229   11.2096   10.8101 C   0  0  1  0  0  0  0  0  0  0  0  0
    1.7312   11.5231   11.8760 N   0  0  0  0  0  0  0  0  0  0  0  0
   -2.9546   13.4605    4.3573 C   0  0  0  0  0  0  0  0  0  0  0  0
   -5.0012   12.4922    7.9483 C   0  0  2  0  0  0  0  0  0  0  0  0
    1.4350   10.3357    9.6323 C   0  0  1  0  0  0  0  0  0  0  0  0
    1.9418    9.1009   10.1098 O   0  0  0  0  0  0  0  0  0  0  0  0
   -2.5720   13.9959    5.5467 C   0  0  2  0  0  0  0  0  0  0  0  0
   -3.4916   14.6567    6.4238 O   0  0  0  0  0  0  0  0  0  0  0  0
   -3.4746   12.2033    8.1977 C   0  0  2  0  0  0  0  0  0  0  0  0
   -3.0249   11.1985    7.2635 O   0  0  0  0  0  0  0  0  0  0  0  0
    0.3938   10.0009    8.5153 C   0  0  0  0  0  0  0  0  0  0  0  0
   -0.7973    9.3189    9.1350 O   0  0  0  0  0  0  0  0  0  0  0  0
   -1.1305   13.9466    6.0566 C   0  0  0  0  0  0  0  0  0  0  0  0
   -0.8645   12.6029    6.5235 O   0  0  0  0  0  0  0  0  0  0  0  0
   -3.2987   11.6637    9.6652 C   0  0  1  0  0  0  0  0  0  0  0  0
   -1.9471   11.3920    9.8654 O   0  0  0  0  0  0  0  0  0  0  0  0
    2.6142   11.0404    8.9190 C   0  0  0  0  0  0  0  0  0  0  0  0
    1.4201   12.6582   12.7686 C   0  0  0  0  0  0  0  0  0  0  0  0
  1  2  1  6  0  0  0
  1  6  1  0  0  0  0
  1 21  1  0  0  0  0
  3  4  1  1  0  0  0
  3  8  1  0  0  0  0
  3 28  1  0  0  0  0
  5  9  1  0  0  0  0
  5 25  1  0  0  0  0
  5 29  1  6  0  0  0
  6  7  1  1  0  0  0
  6 11  1  0  0  0  0
  8 12  1  0  0  0  0
  9 10  1  1  0  0  0
  9 14  1  0  0  0  0
 11 16  1  0  0  0  0
 12 13  1  6  0  0  0
 12 17  1  0  0  0  0
 14 15  1  1  0  0  0
 14 18  1  0  0  0  0
 15 31  1  0  0  0  0
 16 20  1  0  0  0  0
 17  2  1  6  0  0  0
 17 22  1  0  0  0  0
 18 19  1  1  0  0  0
 18 24  1  0  0  0  0
 18 30  1  0  0  0  0
 20 21  1  0  0  0  0
 20 26  1  6  0  0  0
 22 23  1  6  0  0  0
 22 28  1  0  0  0  0
 24 25  1  0  0  0  0
 26 27  1  0  0  0  0
 28 29  1  1  0  0  0
M  END
>  <CHROM.1>
-176.39608955,-134.04295891,-81.89270768,40.49621265,-75.42073792,118.13423223
-2.31395582,12.21423837,8.55062880,2.41232497,0.34088692,-1.35716820

>  <Name>
ligand

>  <RI>
0

>  <Rbt.Current_Directory>
/home/itssahil/PROJECTS/Mol_Feturizer/New_Systems/rnas/4GPX

>  <Rbt.Executable>
rbdock ($Id: //depot/dev/client3/rdock/2013.1/src/exe/rbdock.cxx#4 $)

>  <Rbt.Library>
libRbt.so (2013.1, Build901 2013/11/27)

>  <Rbt.Parameter_File>
/export/apps/rDock/src/rDock_2013.1_src/data/scripts/dock_solv.prm

>  <Rbt.Receptor>
prm/pocket_docking_2.prm

>  <SCORE>
-8.02966

>  <SCORE.INTER>
-8.09183

>  <SCORE.INTER.CONST>
1

>  <SCORE.INTER.POLAR>
0

>  <SCORE.INTER.ROT>
6

>  <SCORE.INTER.SOLV>
17.1986

>  <SCORE.INTER.VDW>
-18.7274

>  <SCORE.INTER.norm>
-0.261027

>  <SCORE.INTRA>
-0.415457

>  <SCORE.INTRA.DIHEDRAL>
-1.78919

>  <SCORE.INTRA.DIHEDRAL.0>
20.6841

>  <SCORE.INTRA.POLAR>
0

>  <SCORE.INTRA.POLAR.0>
0

>  <SCORE.INTRA.REPUL>
0.0105279

>  <SCORE.INTRA.REPUL.0>
0

>  <SCORE.INTRA.SOLV>
0.822237

>  <SCORE.INTRA.SOLV.lig_0>
-64.6797

>  <SCORE.INTRA.VDW>
0.0153808

>  <SCORE.INTRA.VDW.0>
-4.11825

>  <SCORE.INTRA.norm>
-0.0134018

>  <SCORE.RESTR>
0.47762

>  <SCORE.RESTR.CAVITY>
0.47762

>  <SCORE.RESTR.norm>
0.0154071

>  <SCORE.SYSTEM>
0

>  <SCORE.SYSTEM.CONST>
0

>  <SCORE.SYSTEM.DIHEDRAL>
0

>  <SCORE.SYSTEM.SOLV>
0

>  <SCORE.SYSTEM.norm>
0

>  <SCORE.heavy>
31

>  <SCORE.norm>
-0.259021

>  <RMSD>
2.510

$$$$
ligand
 OpenBabel11021811493D
libRbt.so/2013.1/901 2013/11/27
 31 33  0  0  0  0  0  0  0  0999 V2000
   -5.1199   14.5877    6.3852 C   0  0  2  0  0  0  0  0  0  0  0  0
   -5.3265   13.1911    6.5749 O   0  0  0  0  0  0  0  0  0  0  0  0
   -4.1089   12.5346   10.5961 C   0  0  2  0  0  0  0  0  0  0  0  0
   -3.9736   11.9084   11.8754 N   0  0  0  0  0  0  0  0  0  0  0  0
   -1.6996   10.1138   10.3495 C   0  0  2  0  0  0  0  0  0  0  0  0
   -5.4280   14.8859    4.8614 C   0  0  2  0  0  0  0  0  0  0  0  0
   -6.8045   14.4948    4.5760 N   0  0  0  0  0  0  0  0  0  0  0  0
   -5.6485   12.7958   10.3286 C   0  0  0  0  0  0  0  0  0  0  0  0
   -0.5993   10.5707   11.3591 C   0  0  2  0  0  0  0  0  0  0  0  0
   -1.1818   11.4759   12.2722 O   0  0  0  0  0  0  0  0  0  0  0  0
   -4.4201   14.0991    3.9319 C   0  0  0  0  0  0  0  0  0  0  0  0
   -5.8014   13.4827    8.9199 C   0  0  2  0  0  0  0  0  0  0  0  0
   -7.2317   13.7231    8.6631 N   0  0  0  0  0  0  0  0  0  0  0  0
    0.5411   11.2671   10.5234 C   0  0  1  0  0  0  0  0  0  0  0  0
    1.6230   11.7475   11.4452 N   0  0  0  0  0  0  0  0  0  0  0  0
   -2.9550   14.0452    4.5404 C   0  0  0  0  0  0  0  0  0  0  0  0
   -5.1896   12.5406    7.7913 C   0  0  2  0  0  0  0  0  0  0  0  0
    1.1576   10.1618    9.4956 C   0  0  1  0  0  0  0  0  0  0  0  0
    1.6712    9.0263   10.1712 O   0  0  0  0  0  0  0  0  0  0  0  0
   -2.7088   14.4560    5.8125 C   0  0  2  0  0  0  0  0  0  0  0  0
   -3.7394   14.9567    6.6720 O   0  0  0  0  0  0  0  0  0  0  0  0
   -3.6645   12.2899    8.0866 C   0  0  2  0  0  0  0  0  0  0  0  0
   -3.1207   11.4272    7.0646 O   0  0  0  0  0  0  0  0  0  0  0  0
    0.0391    9.6517    8.5300 C   0  0  0  0  0  0  0  0  0  0  0  0
   -1.1214    9.1387    9.3411 O   0  0  0  0  0  0  0  0  0  0  0  0
   -1.3148   14.4258    6.4420 C   0  0  0  0  0  0  0  0  0  0  0  0
   -0.3826   15.0040    5.4980 O   0  0  0  0  0  0  0  0  0  0  0  0
   -3.5334   11.5835    9.4863 C   0  0  1  0  0  0  0  0  0  0  0  0
   -2.1813   11.3482    9.7256 O   0  0  0  0  0  0  0  0  0  0  0  0
    2.3004   10.6794    8.5892 C   0  0  0  0  0  0  0  0  0  0  0  0
    1.3659   13.0107   12.1665 C   0  0  0  0  0  0  0  0  0  0  0  0
  1  2  1  6  0  0  0
  1  6  1  0  0  0  0
  1 21  1  0  0  0  0
  3  4  1  1  0  0  0
  3  8  1  0  0  0  0
  3 28  1  0  0  0  0
  5  9  1  0  0  0  0
  5 25  1  0  0  0  0
  5 29  1  6  0  0  0
  6  7  1  6  0  0  0
  6 11  1  0  0  0  0
  8 12  1  0  0  0  0
  9 10  1  1  0  0  0
  9 14  1  0  0  0  0
 11 16  1  0  0  0  0
 12 13  1  6  0  0  0
 12 17  1  0  0  0  0
 14 15  1  1  0  0  0
 14 18  1  0  0  0  0
 15 31  1  0  0  0  0
 16 20  1  0  0  0  0
 17  2  1  6  0  0  0
 17 22  1  0  0  0  0
 18 19  1  1  0  0  0
 18 24  1  0  0  0  0
 18 30  1  0  0  0  0
 20 21  1  0  0  0  0
 20 26  1  6  0  0  0
 22 23  1  6  0  0  0
 22 28  1  0  0  0  0
 24 25  1  0  0  0  0
 26 27  1  0  0  0  0
 28 29  1  1  0  0  0
M  END
>  <CHROM.1>
-178.33429855,-137.98391620,-79.15597586,40.05868516,47.17698777,100.86051527
-2.48711003,12.39407130,8.45384518,2.35348989,0.22265357,-1.13654724

>  <Name>
ligand

>  <RI>
0

>  <Rbt.Current_Directory>
/home/itssahil/PROJECTS/Mol_Feturizer/New_Systems/rnas/4GPX

>  <Rbt.Executable>
rbdock ($Id: //depot/dev/client3/rdock/2013.1/src/exe/rbdock.cxx#4 $)

>  <Rbt.Library>
libRbt.so (2013.1, Build901 2013/11/27)

>  <Rbt.Parameter_File>
/export/apps/rDock/src/rDock_2013.1_src/data/scripts/dock_solv.prm

>  <Rbt.Receptor>
prm/pocket_docking_2.prm

>  <SCORE>
-8.44129

>  <SCORE.INTER>
-7.53425

>  <SCORE.INTER.CONST>
1

>  <SCORE.INTER.POLAR>
0

>  <SCORE.INTER.ROT>
6

>  <SCORE.INTER.SOLV>
17.7968

>  <SCORE.INTER.VDW>
-18.5551

>  <SCORE.INTER.norm>
-0.24304

>  <SCORE.INTRA>
-0.993794

>  <SCORE.INTRA.DIHEDRAL>
-3.94904

>  <SCORE.INTRA.DIHEDRAL.0>
20.6841

>  <SCORE.INTRA.POLAR>
0

>  <SCORE.INTRA.POLAR.0>
0

>  <SCORE.INTRA.REPUL>
0

>  <SCORE.INTRA.REPUL.0>
0

>  <SCORE.INTRA.SOLV>
-0.0532211

>  <SCORE.INTRA.SOLV.lig_0>
-64.6797

>  <SCORE.INTRA.VDW>
1.00733

>  <SCORE.INTRA.VDW.0>
-4.11825

>  <SCORE.INTRA.norm>
-0.0320579

>  <SCORE.RESTR>
0.0867554

>  <SCORE.RESTR.CAVITY>
0.0867554

>  <SCORE.RESTR.norm>
0.00279856

>  <SCORE.SYSTEM>
0

>  <SCORE.SYSTEM.CONST>
0

>  <SCORE.SYSTEM.DIHEDRAL>
0

>  <SCORE.SYSTEM.SOLV>
0

>  <SCORE.SYSTEM.norm>
0

>  <SCORE.heavy>
31

>  <SCORE.norm>
-0.2723

>  <RMSD>
2.555

$$$$
ligand
 OpenBabel11021811493D
libRbt.so/2013.1/901 2013/11/27
 31 33  0  0  0  0  0  0  0  0999 V2000
   -5.9232   14.1442    6.0416 C   0  0  2  0  0  0  0  0  0  0  0  0
   -5.6833   12.8513    6.5895 O   0  0  0  0  0  0  0  0  0  0  0  0
   -3.9673   13.6023   10.4073 C   0  0  2  0  0  0  0  0  0  0  0  0
   -3.5922   13.4108   11.7746 N   0  0  0  0  0  0  0  0  0  0  0  0
   -1.1002   11.4409    9.0826 C   0  0  2  0  0  0  0  0  0  0  0  0
   -6.3156   13.9245    4.5238 C   0  0  2  0  0  0  0  0  0  0  0  0
   -7.5029   13.0783    4.4642 N   0  0  0  0  0  0  0  0  0  0  0  0
   -5.5476   13.5469   10.3108 C   0  0  0  0  0  0  0  0  0  0  0  0
   -0.2210   10.9765   10.2868 C   0  0  2  0  0  0  0  0  0  0  0  0
   -1.0775   10.5430   11.3218 O   0  0  0  0  0  0  0  0  0  0  0  0
   -5.1168   13.2605    3.7359 C   0  0  0  0  0  0  0  0  0  0  0  0
   -5.9641   13.7547    8.8065 C   0  0  2  0  0  0  0  0  0  0  0  0
   -7.4328   13.6987    8.7096 N   0  0  0  0  0  0  0  0  0  0  0  0
    0.6358   12.2171   10.7455 C   0  0  1  0  0  0  0  0  0  0  0  0
    1.4908   11.8365   11.9181 N   0  0  0  0  0  0  0  0  0  0  0  0
   -3.7053   13.8102    4.2103 C   0  0  0  0  0  0  0  0  0  0  0  0
   -5.3086   12.6185    7.9037 C   0  0  2  0  0  0  0  0  0  0  0  0
    1.5913   12.6564    9.4995 C   0  0  1  0  0  0  0  0  0  0  0  0
    2.4424   11.6045    9.0771 O   0  0  0  0  0  0  0  0  0  0  0  0
   -3.5938   14.5953    5.3143 C   0  0  2  0  0  0  0  0  0  0  0  0
   -4.7253   14.9716    6.1078 O   0  0  0  0  0  0  0  0  0  0  0  0
   -3.7414   12.6899    8.0258 C   0  0  2  0  0  0  0  0  0  0  0  0
   -3.1560   11.6505    7.2125 O   0  0  0  0  0  0  0  0  0  0  0  0
    0.7118   13.0544    8.2698 C   0  0  0  0  0  0  0  0  0  0  0  0
   -0.2239   11.9212    7.9410 O   0  0  0  0  0  0  0  0  0  0  0  0
   -2.2570   15.1509    5.8092 C   0  0  0  0  0  0  0  0  0  0  0  0
   -2.0885   14.7531    7.1904 O   0  0  0  0  0  0  0  0  0  0  0  0
   -3.3437   12.4579    9.5303 C   0  0  1  0  0  0  0  0  0  0  0  0
   -1.9543   12.5022    9.6207 O   0  0  0  0  0  0  0  0  0  0  0  0
    2.5097   13.8708    9.7780 C   0  0  0  0  0  0  0  0  0  0  0  0
    1.4700   12.7514   13.0776 C   0  0  0  0  0  0  0  0  0  0  0  0
  1  2  1  6  0  0  0
  1  6  1  0  0  0  0
  1 21  1  0  0  0  0
  3  4  1  1  0  0  0
  3  8  1  0  0  0  0
  3 28  1  0  0  0  0
  5  9  1  0  0  0  0
  5 25  1  0  0  0  0
  5 29  1  1  0  0  0
  6  7  1  1  0  0  0
  6 11  1  0  0  0  0
  8 12  1  0  0  0  0
  9 10  1  1  0  0  0
  9 14  1  0  0  0  0
 11 16  1  0  0  0  0
 12 13  1  1  0  0  0
 12 17  1  0  0  0  0
 14 15  1  1  0  0  0
 14 18  1  0  0  0  0
 15 31  1  0  0  0  0
 16 20  1  0  0  0  0
 17  2  1  6  0  0  0
 17 22  1  0  0  0  0
 18 19  1  6  0  0  0
 18 24  1  0  0  0  0
 18 30  1  0  0  0  0
 20 21  1  0  0  0  0
 20 26  1  6  0  0  0
 22 23  1  6  0  0  0
 22 28  1  0  0  0  0
 24 25  1  0  0  0  0
 26 27  1  0  0  0  0
 28 29  1  6  0  0  0
M  END
>  <CHROM.1>
179.77885232,-124.56018841,-131.45628953,31.47376402,-124.95644831,170.35227435
-2.62163505,13.00095560,8.30368964,2.50078643,0.07640941,-1.35967717

>  <Name>
ligand

>  <RI>
0

>  <Rbt.Current_Directory>
/home/itssahil/PROJECTS/Mol_Feturizer/New_Systems/rnas/4GPX

>  <Rbt.Executable>
rbdock ($Id: //depot/dev/client3/rdock/2013.1/src/exe/rbdock.cxx#4 $)

>  <Rbt.Library>
libRbt.so (2013.1, Build901 2013/11/27)

>  <Rbt.Parameter_File>
/export/apps/rDock/src/rDock_2013.1_src/data/scripts/dock_solv.prm

>  <Rbt.Receptor>
prm/pocket_docking_3.prm

>  <SCORE>
-8.21022

>  <SCORE.INTER>
-4.99006

>  <SCORE.INTER.CONST>
1

>  <SCORE.INTER.POLAR>
0

>  <SCORE.INTER.ROT>
6

>  <SCORE.INTER.SOLV>
18.2389

>  <SCORE.INTER.VDW>
-17.0063

>  <SCORE.INTER.norm>
-0.16097

>  <SCORE.INTRA>
-3.22016

>  <SCORE.INTRA.DIHEDRAL>
-6.99654

>  <SCORE.INTRA.DIHEDRAL.0>
20.6841

>  <SCORE.INTRA.POLAR>
0

>  <SCORE.INTRA.POLAR.0>
0

>  <SCORE.INTRA.REPUL>
0

>  <SCORE.INTRA.REPUL.0>
0

>  <SCORE.INTRA.SOLV>
-0.19692

>  <SCORE.INTRA.SOLV.lig_0>
-64.6797

>  <SCORE.INTRA.VDW>
0.376571

>  <SCORE.INTRA.VDW.0>
-4.11825

>  <SCORE.INTRA.norm>
-0.103876

>  <SCORE.RESTR>
0

>  <SCORE.RESTR.CAVITY>
0

>  <SCORE.RESTR.norm>
0

>  <SCORE.SYSTEM>
0

>  <SCORE.SYSTEM.CONST>
0

>  <SCORE.SYSTEM.DIHEDRAL>
0

>  <SCORE.SYSTEM.SOLV>
0

>  <SCORE.SYSTEM.norm>
0

>  <SCORE.heavy>
31

>  <SCORE.norm>
-0.264846

>  <RMSD>
2.601

$$$$
ligand
 OpenBabel11021811493D
libRbt.so/2013.1/901 2013/11/27
 31 33  0  0  0  0  0  0  0  0999 V2000
   -4.5638   14.9713    6.5260 C   0  0  2  0  0  0  0  0  0  0  0  0
   -4.8853   13.5843    6.4780 O   0  0  0  0  0  0  0  0  0  0  0  0
   -4.1113   12.2669   10.4466 C   0  0  2  0  0  0  0  0  0  0  0  0
   -4.1172   11.4412   11.6149 N   0  0  0  0  0  0  0  0  0  0  0  0
   -1.7279    9.9289   10.2377 C   0  0  2  0  0  0  0  0  0  0  0  0
   -4.7998   15.5391    5.0672 C   0  0  2  0  0  0  0  0  0  0  0  0
   -6.1932   15.3150    4.6966 N   0  0  0  0  0  0  0  0  0  0  0  0
   -5.6120   12.5999   10.0631 C   0  0  0  0  0  0  0  0  0  0  0  0
   -0.7481   10.3251   11.3874 C   0  0  2  0  0  0  0  0  0  0  0  0
   -1.4177   11.2138   12.2560 O   0  0  0  0  0  0  0  0  0  0  0  0
   -3.8283   14.8344    4.0384 C   0  0  0  0  0  0  0  0  0  0  0  0
   -5.6094   13.5067    8.7757 C   0  0  2  0  0  0  0  0  0  0  0  0
   -7.0028   13.8152    8.4110 N   0  0  0  0  0  0  0  0  0  0  0  0
    0.4987   11.0203   10.7197 C   0  0  1  0  0  0  0  0  0  0  0  0
    1.4713   11.4432   11.7809 N   0  0  0  0  0  0  0  0  0  0  0  0
   -2.3917   14.5609    4.6557 C   0  0  0  0  0  0  0  0  0  0  0  0
   -4.8829   12.7447    7.5810 C   0  0  2  0  0  0  0  0  0  0  0  0
    1.2118    9.9345    9.7343 C   0  0  1  0  0  0  0  0  0  0  0  0
    1.6168    8.7651   10.4256 O   0  0  0  0  0  0  0  0  0  0  0  0
   -2.1538   14.7364    5.9825 C   0  0  2  0  0  0  0  0  0  0  0  0
   -3.1683   15.1731    6.8944 O   0  0  0  0  0  0  0  0  0  0  0  0
   -3.3995   12.4178    7.9919 C   0  0  2  0  0  0  0  0  0  0  0  0
   -2.7518   11.7186    6.9074 O   0  0  0  0  0  0  0  0  0  0  0  0
    0.2075    9.4843    8.6241 C   0  0  0  0  0  0  0  0  0  0  0  0
   -1.0525    8.9736    9.2717 O   0  0  0  0  0  0  0  0  0  0  0  0
   -0.7868   14.4886    6.6230 C   0  0  0  0  0  0  0  0  0  0  0  0
   -0.0109   13.6639    5.7218 O   0  0  0  0  0  0  0  0  0  0  0  0
   -3.4229   11.4938    9.2651 C   0  0  1  0  0  0  0  0  0  0  0  0
   -2.1055   11.1948    9.6050 O   0  0  0  0  0  0  0  0  0  0  0  0
    2.4659   10.4534    8.9903 C   0  0  0  0  0  0  0  0  0  0  0  0
    1.1902   12.7218   12.4654 C   0  0  0  0  0  0  0  0  0  0  0  0
  1  2  1  6  0  0  0
  1  6  1  0  0  0  0
  1 21  1  0  0  0  0
  3  4  1  1  0  0  0
  3  8  1  0  0  0  0
  3 28  1  0  0  0  0
  5  9  1  0  0  0  0
  5 25  1  0  0  0  0
  5 29  1  6  0  0  0
  6  7  1  6  0  0  0
  6 11  1  0  0  0  0
  8 12  1  0  0  0  0
  9 10  1  1  0  0  0
  9 14  1  0  0  0  0
 11 16  1  0  0  0  0
 12 13  1  6  0  0  0
 12 17  1  0  0  0  0
 14 15  1  1  0  0  0
 14 18  1  0  0  0  0
 15 31  1  0  0  0  0
 16 20  1  0  0  0  0
 17  2  1  6  0  0  0
 17 22  1  0  0  0  0
 18 19  1  1  0  0  0
 18 24  1  0  0  0  0
 18 30  1  0  0  0  0
 20 21  1  0  0  0  0
 20 26  1  6  0  0  0
 22 23  1  6  0  0  0
 22 28  1  0  0  0  0
 24 25  1  0  0  0  0
 26 27  1  0  0  0  0
 28 29  1  1  0  0  0
M  END
>  <CHROM.1>
-175.98664755,-135.23503122,-82.04860046,44.58303543,-18.42292862,92.41112515
-2.27897464,12.37734900,8.49301533,2.26818840,0.24500619,-1.04361915

>  <Name>
ligand

>  <RI>
0

>  <Rbt.Current_Directory>
/home/itssahil/PROJECTS/Mol_Feturizer/New_Systems/rnas/4GPX

>  <Rbt.Executable>
rbdock ($Id: //depot/dev/client3/rdock/2013.1/src/exe/rbdock.cxx#4 $)

>  <Rbt.Library>
libRbt.so (2013.1, Build901 2013/11/27)

>  <Rbt.Parameter_File>
/export/apps/rDock/src/rDock_2013.1_src/data/scripts/dock_solv.prm

>  <Rbt.Receptor>
prm/pocket_docking_4.prm

>  <SCORE>
-10.9518

>  <SCORE.INTER>
-8.85588

>  <SCORE.INTER.CONST>
1

>  <SCORE.INTER.POLAR>
0

>  <SCORE.INTER.ROT>
6

>  <SCORE.INTER.SOLV>
18.9658

>  <SCORE.INTER.VDW>
-19.8259

>  <SCORE.INTER.norm>
-0.285674

>  <SCORE.INTRA>
-2.09595

>  <SCORE.INTRA.DIHEDRAL>
-6.86796

>  <SCORE.INTRA.DIHEDRAL.0>
20.6841

>  <SCORE.INTRA.POLAR>
0

>  <SCORE.INTRA.POLAR.0>
0

>  <SCORE.INTRA.REPUL>
0

>  <SCORE.INTRA.REPUL.0>
0

>  <SCORE.INTRA.SOLV>
0.36898

>  <SCORE.INTRA.SOLV.lig_0>
-64.6797

>  <SCORE.INTRA.VDW>
1.15354

>  <SCORE.INTRA.VDW.0>
-4.11825

>  <SCORE.INTRA.norm>
-0.0676113

>  <SCORE.RESTR>
0

>  <SCORE.RESTR.CAVITY>
0

>  <SCORE.RESTR.norm>
0

>  <SCORE.SYSTEM>
0

>  <SCORE.SYSTEM.CONST>
0

>  <SCORE.SYSTEM.DIHEDRAL>
0

>  <SCORE.SYSTEM.SOLV>
0

>  <SCORE.SYSTEM.norm>
0

>  <SCORE.heavy>
31

>  <SCORE.norm>
-0.353285

>  <RMSD>
2.609

$$$$
ligand
 OpenBabel11021811493D
libRbt.so/2013.1/901 2013/11/27
 31 33  0  0  0  0  0  0  0  0999 V2000
   -3.2248   14.5779    4.4787 C   0  0  2  0  0  0  0  0  0  0  0  0
   -3.4875   14.3961    5.8670 O   0  0  0  0  0  0  0  0  0  0  0  0
   -2.4385   11.6195    8.9124 C   0  0  2  0  0  0  0  0  0  0  0  0
   -2.3461   10.3896    9.6374 N   0  0  0  0  0  0  0  0  0  0  0  0
    0.0183    9.7148    7.6647 C   0  0  2  0  0  0  0  0  0  0  0  0
   -3.3411   16.1314    4.1979 C   0  0  2  0  0  0  0  0  0  0  0  0
   -2.3712   16.8328    5.0326 N   0  0  0  0  0  0  0  0  0  0  0  0
   -3.9703   11.9919    8.7543 C   0  0  0  0  0  0  0  0  0  0  0  0
    1.5060    9.7920    8.1331 C   0  0  2  0  0  0  0  0  0  0  0  0
    1.5436   10.4298    9.3918 O   0  0  0  0  0  0  0  0  0  0  0  0
   -4.8077   16.6373    4.5012 C   0  0  0  0  0  0  0  0  0  0  0  0
   -4.0760   13.3440    7.9543 C   0  0  2  0  0  0  0  0  0  0  0  0
   -5.4987   13.6927    7.7993 N   0  0  0  0  0  0  0  0  0  0  0  0
    2.2929   10.6275    7.0531 C   0  0  1  0  0  0  0  0  0  0  0  0
    3.7316   10.7535    7.4598 N   0  0  0  0  0  0  0  0  0  0  0  0
   -5.9111   15.5796    4.0731 C   0  0  0  0  0  0  0  0  0  0  0  0
   -3.3900   13.1807    6.5265 C   0  0  2  0  0  0  0  0  0  0  0  0
    2.2000    9.8294    5.6344 C   0  0  1  0  0  0  0  0  0  0  0  0
    2.7308    8.5177    5.7190 O   0  0  0  0  0  0  0  0  0  0  0  0
   -5.5660   14.3197    3.6973 C   0  0  2  0  0  0  0  0  0  0  0  0
   -4.2056   13.8728    3.6634 O   0  0  0  0  0  0  0  0  0  0  0  0
   -1.8741   12.8018    6.7127 C   0  0  2  0  0  0  0  0  0  0  0  0
   -1.2628   12.6460    5.4140 O   0  0  0  0  0  0  0  0  0  0  0  0
    0.7048    9.6899    5.1999 C   0  0  0  0  0  0  0  0  0  0  0  0
   -0.0763    9.0379    6.3102 O   0  0  0  0  0  0  0  0  0  0  0  0
   -6.5920   13.2667    3.2742 C   0  0  0  0  0  0  0  0  0  0  0  0
   -7.9115   13.8458    3.4072 O   0  0  0  0  0  0  0  0  0  0  0  0
   -1.7894   11.4384    7.4934 C   0  0  1  0  0  0  0  0  0  0  0  0
   -0.4442   11.1042    7.6325 O   0  0  0  0  0  0  0  0  0  0  0  0
    2.9259   10.5143    4.4514 C   0  0  0  0  0  0  0  0  0  0  0  0
    4.1311   12.0258    8.0952 C   0  0  0  0  0  0  0  0  0  0  0  0
  1  2  1  1  0  0  0
  1  6  1  0  0  0  0
  1 21  1  0  0  0  0
  3  4  1  1  0  0  0
  3  8  1  0  0  0  0
  3 28  1  0  0  0  0
  5  9  1  0  0  0  0
  5 25  1  0  0  0  0
  5 29  1  6  0  0  0
  6  7  1  1  0  0  0
  6 11  1  0  0  0  0
  8 12  1  0  0  0  0
  9 10  1  1  0  0  0
  9 14  1  0  0  0  0
 11 16  1  0  0  0  0
 12 13  1  6  0  0  0
 12 17  1  0  0  0  0
 14 15  1  1  0  0  0
 14 18  1  0  0  0  0
 15 31  1  0  0  0  0
 16 20  1  0  0  0  0
 17  2  1  1  0  0  0
 17 22  1  0  0  0  0
 18 19  1  1  0  0  0
 18 24  1  0  0  0  0
 18 30  1  0  0  0  0
 20 21  1  0  0  0  0
 20 26  1  6  0  0  0
 22 23  1  6  0  0  0
 22 28  1  0  0  0  0
 24 25  1  0  0  0  0
 26 27  1  0  0  0  0
 28 29  1  1  0  0  0
M  END
>  <CHROM.1>
-175.31367983,-168.23904754,-99.96102572,-167.30834766,-2.23576853,92.88213155
-1.68762453,12.32245738,6.24421792,-2.62399755,-0.35791217,2.08278543

>  <Name>
ligand

>  <RI>
0

>  <Rbt.Current_Directory>
/home/itssahil/PROJECTS/Mol_Feturizer/New_Systems/rnas/4GPX

>  <Rbt.Executable>
rbdock ($Id: //depot/dev/client3/rdock/2013.1/src/exe/rbdock.cxx#4 $)

>  <Rbt.Library>
libRbt.so (2013.1, Build901 2013/11/27)

>  <Rbt.Parameter_File>
/export/apps/rDock/src/rDock_2013.1_src/data/scripts/dock_solv.prm

>  <Rbt.Receptor>
prm/pocket_docking_5.prm

>  <SCORE>
-15.6767

>  <SCORE.INTER>
-9.673

>  <SCORE.INTER.CONST>
1

>  <SCORE.INTER.POLAR>
0

>  <SCORE.INTER.ROT>
6

>  <SCORE.INTER.SOLV>
14.0977

>  <SCORE.INTER.VDW>
-18.7479

>  <SCORE.INTER.norm>
-0.312032

>  <SCORE.INTRA>
-6.00368

>  <SCORE.INTRA.DIHEDRAL>
-12.4153

>  <SCORE.INTRA.DIHEDRAL.0>
20.6841

>  <SCORE.INTRA.POLAR>
0

>  <SCORE.INTRA.POLAR.0>
0

>  <SCORE.INTRA.REPUL>
0

>  <SCORE.INTRA.REPUL.0>
0

>  <SCORE.INTRA.SOLV>
-1.77047

>  <SCORE.INTRA.SOLV.lig_0>
-64.6797

>  <SCORE.INTRA.VDW>
1.08922

>  <SCORE.INTRA.VDW.0>
-4.11825

>  <SCORE.INTRA.norm>
-0.193667

>  <SCORE.RESTR>
0

>  <SCORE.RESTR.CAVITY>
0

>  <SCORE.RESTR.norm>
0

>  <SCORE.SYSTEM>
0

>  <SCORE.SYSTEM.CONST>
0

>  <SCORE.SYSTEM.DIHEDRAL>
0

>  <SCORE.SYSTEM.SOLV>
0

>  <SCORE.SYSTEM.norm>
0

>  <SCORE.heavy>
31

>  <SCORE.norm>
-0.5057

>  <RMSD>
2.636

$$$$
ligand
 OpenBabel11021811493D
libRbt.so/2013.1/901 2013/11/27
 31 33  0  0  0  0  0  0  0  0999 V2000
   -3.5128   14.3337    4.3874 C   0  0  2  0  0  0  0  0  0  0  0  0
   -3.6312   14.2539    5.8047 O   0  0  0  0  0  0  0  0  0  0  0  0
   -2.3631   11.6665    8.9321 C   0  0  2  0  0  0  0  0  0  0  0  0
   -2.2248   10.4857    9.7281 N   0  0  0  0  0  0  0  0  0  0  0  0
   -0.0431    9.6392    7.5962 C   0  0  2  0  0  0  0  0  0  0  0  0
   -3.4288   15.8731    4.0282 C   0  0  2  0  0  0  0  0  0  0  0  0
   -2.2720   16.4501    4.7052 N   0  0  0  0  0  0  0  0  0  0  0  0
   -3.8981   12.0547    8.8775 C   0  0  0  0  0  0  0  0  0  0  0  0
    1.4402    9.7110    8.0790 C   0  0  2  0  0  0  0  0  0  0  0  0
    1.4712   10.3763    9.3236 O   0  0  0  0  0  0  0  0  0  0  0  0
   -4.7563   16.6130    4.4629 C   0  0  0  0  0  0  0  0  0  0  0  0
   -4.0544   13.3527    7.9998 C   0  0  2  0  0  0  0  0  0  0  0  0
   -5.4807   13.7156    7.9408 N   0  0  0  0  0  0  0  0  0  0  0  0
    2.2477   10.5140    6.9895 C   0  0  1  0  0  0  0  0  0  0  0  0
    3.6832   10.6338    7.4091 N   0  0  0  0  0  0  0  0  0  0  0  0
   -6.0486   15.7223    4.2257 C   0  0  0  0  0  0  0  0  0  0  0  0
   -3.4933   13.0832    6.5342 C   0  0  2  0  0  0  0  0  0  0  0  0
    2.1614    9.6855    5.5879 C   0  0  1  0  0  0  0  0  0  0  0  0
    2.6771    8.3705    5.7073 O   0  0  0  0  0  0  0  0  0  0  0  0
   -5.9430   14.4093    3.8902 C   0  0  2  0  0  0  0  0  0  0  0  0
   -4.6786   13.7555    3.7310 O   0  0  0  0  0  0  0  0  0  0  0  0
   -1.9718   12.6906    6.6184 C   0  0  2  0  0  0  0  0  0  0  0  0
   -1.4742   12.4384    5.2868 O   0  0  0  0  0  0  0  0  0  0  0  0
    0.6695    9.5522    5.1402 C   0  0  0  0  0  0  0  0  0  0  0  0
   -0.1305    8.9334    6.2560 O   0  0  0  0  0  0  0  0  0  0  0  0
   -7.1580   13.5113    3.6490 C   0  0  0  0  0  0  0  0  0  0  0  0
   -6.9434   12.7866    2.4148 O   0  0  0  0  0  0  0  0  0  0  0  0
   -1.8382   11.3805    7.4794 C   0  0  1  0  0  0  0  0  0  0  0  0
   -0.4902   11.0323    7.5281 O   0  0  0  0  0  0  0  0  0  0  0  0
    2.9074   10.3363    4.3981 C   0  0  0  0  0  0  0  0  0  0  0  0
    4.0299   11.7900    8.2606 C   0  0  0  0  0  0  0  0  0  0  0  0
  1  2  1  1  0  0  0
  1  6  1  0  0  0  0
  1 21  1  0  0  0  0
  3  4  1  1  0  0  0
  3  8  1  0  0  0  0
  3 28  1  0  0  0  0
  5  9  1  0  0  0  0
  5 25  1  0  0  0  0
  5 29  1  6  0  0  0
  6  7  1  1  0  0  0
  6 11  1  0  0  0  0
  8 12  1  0  0  0  0
  9 10  1  1  0  0  0
  9 14  1  0  0  0  0
 11 16  1  0  0  0  0
 12 13  1  6  0  0  0
 12 17  1  0  0  0  0
 14 15  1  1  0  0  0
 14 18  1  0  0  0  0
 15 31  1  0  0  0  0
 16 20  1  0  0  0  0
 17  2  1  6  0  0  0
 17 22  1  0  0  0  0
 18 19  1  1  0  0  0
 18 24  1  0  0  0  0
 18 30  1  0  0  0  0
 20 21  1  0  0  0  0
 20 26  1  6  0  0  0
 22 23  1  6  0  0  0
 22 28  1  0  0  0  0
 24 25  1  0  0  0  0
 26 27  1  0  0  0  0
 28 29  1  1  0  0  0
M  END
>  <CHROM.1>
-168.00708850,-162.74464361,-87.90170731,-165.89378599,132.29934573,93.76398412
-1.74142835,12.20556654,6.20193847,-2.69312066,-0.44739908,1.88763231

>  <Name>
ligand

>  <RI>
0

>  <Rbt.Current_Directory>
/home/itssahil/PROJECTS/Mol_Feturizer/New_Systems/rnas/4GPX

>  <Rbt.Executable>
rbdock ($Id: //depot/dev/client3/rdock/2013.1/src/exe/rbdock.cxx#4 $)

>  <Rbt.Library>
libRbt.so (2013.1, Build901 2013/11/27)

>  <Rbt.Parameter_File>
/export/apps/rDock/src/rDock_2013.1_src/data/scripts/dock_solv.prm

>  <Rbt.Receptor>
prm/pocket_docking_5.prm

>  <SCORE>
-15.8413

>  <SCORE.INTER>
-10.0507

>  <SCORE.INTER.CONST>
1

>  <SCORE.INTER.POLAR>
0

>  <SCORE.INTER.ROT>
6

>  <SCORE.INTER.SOLV>
15.7005

>  <SCORE.INTER.VDW>
-19.5339

>  <SCORE.INTER.norm>
-0.324215

>  <SCORE.INTRA>
-5.79093

>  <SCORE.INTRA.DIHEDRAL>
-10.9699

>  <SCORE.INTRA.DIHEDRAL.0>
20.6841

>  <SCORE.INTRA.POLAR>
0

>  <SCORE.INTRA.POLAR.0>
0

>  <SCORE.INTRA.REPUL>
0

>  <SCORE.INTRA.REPUL.0>
0

>  <SCORE.INTRA.SOLV>
-1.37702

>  <SCORE.INTRA.SOLV.lig_0>
-64.6797

>  <SCORE.INTRA.VDW>
0.382544

>  <SCORE.INTRA.VDW.0>
-4.11825

>  <SCORE.INTRA.norm>
-0.186804

>  <SCORE.RESTR>
0.000283559

>  <SCORE.RESTR.CAVITY>
0.000283559

>  <SCORE.RESTR.norm>
9.14707e-06

>  <SCORE.SYSTEM>
0

>  <SCORE.SYSTEM.CONST>
0

>  <SCORE.SYSTEM.DIHEDRAL>
0

>  <SCORE.SYSTEM.SOLV>
0

>  <SCORE.SYSTEM.norm>
0

>  <SCORE.heavy>
31

>  <SCORE.norm>
-0.511011

>  <RMSD>
2.643

$$$$
ligand
 OpenBabel11021811493D
libRbt.so/2013.1/901 2013/11/27
 31 33  0  0  0  0  0  0  0  0999 V2000
   -2.0554   15.3964    4.6821 C   0  0  2  0  0  0  0  0  0  0  0  0
   -2.1459   15.7199    6.0665 O   0  0  0  0  0  0  0  0  0  0  0  0
   -2.5518   14.1226    9.9867 C   0  0  2  0  0  0  0  0  0  0  0  0
   -2.8950   13.2203   11.0426 N   0  0  0  0  0  0  0  0  0  0  0  0
   -0.3839   12.0946   10.7791 C   0  0  2  0  0  0  0  0  0  0  0  0
   -1.3205   16.6115    3.9826 C   0  0  2  0  0  0  0  0  0  0  0  0
   -0.0045   16.7767    4.5909 N   0  0  0  0  0  0  0  0  0  0  0  0
   -3.8777   14.5109    9.2112 C   0  0  0  0  0  0  0  0  0  0  0  0
    1.1156   11.7012   10.9675 C   0  0  2  0  0  0  0  0  0  0  0  0
    1.8505   12.8725   11.2516 O   0  0  0  0  0  0  0  0  0  0  0  0
   -2.1752   17.9327    4.1341 C   0  0  0  0  0  0  0  0  0  0  0  0
   -3.5033   15.5021    8.0464 C   0  0  2  0  0  0  0  0  0  0  0  0
   -4.7318   15.8625    7.3180 N   0  0  0  0  0  0  0  0  0  0  0  0
    1.5992   11.0445    9.6190 C   0  0  1  0  0  0  0  0  0  0  0  0
    3.0454   10.6615    9.7323 N   0  0  0  0  0  0  0  0  0  0  0  0
   -3.7343   17.6593    4.0150 C   0  0  0  0  0  0  0  0  0  0  0  0
   -2.4623   14.8080    7.0614 C   0  0  2  0  0  0  0  0  0  0  0  0
    0.7040    9.7062    9.3623 C   0  0  1  0  0  0  0  0  0  0  0  0
    0.8116    8.7746   10.4253 O   0  0  0  0  0  0  0  0  0  0  0  0
   -4.2248   16.3916    4.0023 C   0  0  2  0  0  0  0  0  0  0  0  0
   -3.3793   15.2391    4.0934 O   0  0  0  0  0  0  0  0  0  0  0  0
   -1.1609   14.4244    7.8585 C   0  0  2  0  0  0  0  0  0  0  0  0
   -0.2272   13.7869    6.9605 O   0  0  0  0  0  0  0  0  0  0  0  0
   -0.8064   10.0917    9.2438 C   0  0  0  0  0  0  0  0  0  0  0  0
   -1.2187   10.8666   10.4675 O   0  0  0  0  0  0  0  0  0  0  0  0
   -5.7176   16.0777    3.8868 C   0  0  0  0  0  0  0  0  0  0  0  0
   -5.8632   14.8648    3.1109 O   0  0  0  0  0  0  0  0  0  0  0  0
   -1.5511   13.4172    9.0025 C   0  0  1  0  0  0  0  0  0  0  0  0
   -0.3881   13.0695    9.6860 O   0  0  0  0  0  0  0  0  0  0  0  0
    1.0486    8.9287    8.0691 C   0  0  0  0  0  0  0  0  0  0  0  0
    3.9021   10.9572    8.5657 C   0  0  0  0  0  0  0  0  0  0  0  0
  1  2  1  1  0  0  0
  1  6  1  0  0  0  0
  1 21  1  0  0  0  0
  3  4  1  1  0  0  0
  3  8  1  0  0  0  0
  3 28  1  0  0  0  0
  5  9  1  0  0  0  0
  5 25  1  0  0  0  0
  5 29  1  6  0  0  0
  6  7  1  1  0  0  0
  6 11  1  0  0  0  0
  8 12  1  0  0  0  0
  9 10  1  6  0  0  0
  9 14  1  0  0  0  0
 11 16  1  0  0  0  0
 12 13  1  6  0  0  0
 12 17  1  0  0  0  0
 14 15  1  1  0  0  0
 14 18  1  0  0  0  0
 15 31  1  0  0  0  0
 16 20  1  0  0  0  0
 17  2  1  6  0  0  0
 17 22  1  0  0  0  0
 18 19  1  1  0  0  0
 18 24  1  0  0  0  0
 18 30  1  0  0  0  0
 20 21  1  0  0  0  0
 20 26  1  6  0  0  0
 22 23  1  6  0  0  0
 22 28  1  0  0  0  0
 24 25  1  0  0  0  0
 26 27  1  0  0  0  0
 28 29  1  1  0  0  0
M  END
>  <CHROM.1>
-165.69607740,164.03939298,-137.35913366,-136.33021033,145.08208314,64.16560426
-1.35147429,13.61890716,7.64704993,-2.15804884,-0.35872595,2.13129485

>  <Name>
ligand

>  <RI>
0

>  <Rbt.Current_Directory>
/home/itssahil/PROJECTS/Mol_Feturizer/New_Systems/rnas/4GPX

>  <Rbt.Executable>
rbdock ($Id: //depot/dev/client3/rdock/2013.1/src/exe/rbdock.cxx#4 $)

>  <Rbt.Library>
libRbt.so (2013.1, Build901 2013/11/27)

>  <Rbt.Parameter_File>
/export/apps/rDock/src/rDock_2013.1_src/data/scripts/dock_solv.prm

>  <Rbt.Receptor>
prm/pocket_docking_4.prm

>  <SCORE>
-14.7717

>  <SCORE.INTER>
-11.3961

>  <SCORE.INTER.CONST>
1

>  <SCORE.INTER.POLAR>
0

>  <SCORE.INTER.ROT>
6

>  <SCORE.INTER.SOLV>
14.297

>  <SCORE.INTER.VDW>
-19.9631

>  <SCORE.INTER.norm>
-0.367617

>  <SCORE.INTRA>
-3.37558

>  <SCORE.INTRA.DIHEDRAL>
-9.11682

>  <SCORE.INTRA.DIHEDRAL.0>
20.6841

>  <SCORE.INTRA.POLAR>
0

>  <SCORE.INTRA.POLAR.0>
0

>  <SCORE.INTRA.REPUL>
0

>  <SCORE.INTRA.REPUL.0>
0

>  <SCORE.INTRA.SOLV>
1.38632

>  <SCORE.INTRA.SOLV.lig_0>
-64.6797

>  <SCORE.INTRA.VDW>
0.489674

>  <SCORE.INTRA.VDW.0>
-4.11825

>  <SCORE.INTRA.norm>
-0.10889

>  <SCORE.RESTR>
0

>  <SCORE.RESTR.CAVITY>
0

>  <SCORE.RESTR.norm>
0

>  <SCORE.SYSTEM>
0

>  <SCORE.SYSTEM.CONST>
0

>  <SCORE.SYSTEM.DIHEDRAL>
0

>  <SCORE.SYSTEM.SOLV>
0

>  <SCORE.SYSTEM.norm>
0

>  <SCORE.heavy>
31

>  <SCORE.norm>
-0.476507

>  <RMSD>
2.653

$$$$
ligand
 OpenBabel11021811493D
libRbt.so/2013.1/901 2013/11/27
 31 33  0  0  0  0  0  0  0  0999 V2000
   -2.0453   14.3214    3.7942 C   0  0  2  0  0  0  0  0  0  0  0  0
   -1.6841   13.9990    5.1339 O   0  0  0  0  0  0  0  0  0  0  0  0
   -3.7821   12.5163    8.5227 C   0  0  2  0  0  0  0  0  0  0  0  0
   -4.5240   11.6262    9.3618 N   0  0  0  0  0  0  0  0  0  0  0  0
   -1.5133   10.3185    9.9297 C   0  0  2  0  0  0  0  0  0  0  0  0
   -0.6992   14.6638    3.0346 C   0  0  2  0  0  0  0  0  0  0  0  0
    0.1828   13.5030    3.0971 N   0  0  0  0  0  0  0  0  0  0  0  0
   -4.6103   12.7558    7.1935 C   0  0  0  0  0  0  0  0  0  0  0  0
   -0.6834   10.5447   11.2330 C   0  0  2  0  0  0  0  0  0  0  0  0
   -1.3877   11.4482   12.0577 O   0  0  0  0  0  0  0  0  0  0  0  0
   -0.0061   15.9269    3.6851 C   0  0  0  0  0  0  0  0  0  0  0  0
   -3.7953   13.7333    6.2662 C   0  0  2  0  0  0  0  0  0  0  0  0
   -4.5581   13.9555    5.0259 N   0  0  0  0  0  0  0  0  0  0  0  0
    0.7098   11.1422   10.8018 C   0  0  1  0  0  0  0  0  0  0  0  0
    1.5485   11.4006   12.0187 N   0  0  0  0  0  0  0  0  0  0  0  0
   -1.0590   17.0207    4.1485 C   0  0  0  0  0  0  0  0  0  0  0  0
   -2.3732   13.0994    5.9323 C   0  0  2  0  0  0  0  0  0  0  0  0
    1.4556   10.0450    9.8541 C   0  0  1  0  0  0  0  0  0  0  0  0
    1.6395    8.8025   10.5113 O   0  0  0  0  0  0  0  0  0  0  0  0
   -2.3914   16.7519    4.1568 C   0  0  2  0  0  0  0  0  0  0  0  0
   -2.9227   15.4843    3.7537 O   0  0  0  0  0  0  0  0  0  0  0  0
   -1.5769   12.8631    7.2689 C   0  0  2  0  0  0  0  0  0  0  0  0
   -0.2936   12.2792    6.9577 O   0  0  0  0  0  0  0  0  0  0  0  0
    0.5905    9.7655    8.5823 C   0  0  0  0  0  0  0  0  0  0  0  0
   -0.7951    9.3538    9.0049 O   0  0  0  0  0  0  0  0  0  0  0  0
   -3.4440   17.7733    4.5920 C   0  0  0  0  0  0  0  0  0  0  0  0
   -4.1717   17.2189    5.7134 O   0  0  0  0  0  0  0  0  0  0  0  0
   -2.3951   11.8676    8.1716 C   0  0  1  0  0  0  0  0  0  0  0  0
   -1.6698   11.6505    9.3410 O   0  0  0  0  0  0  0  0  0  0  0  0
    2.8506   10.4709    9.3360 C   0  0  0  0  0  0  0  0  0  0  0  0
    1.4048   12.7272   12.6525 C   0  0  0  0  0  0  0  0  0  0  0  0
  1  2  1  1  0  0  0
  1  6  1  0  0  0  0
  1 21  1  0  0  0  0
  3  4  1  1  0  0  0
  3  8  1  0  0  0  0
  3 28  1  0  0  0  0
  5  9  1  0  0  0  0
  5 25  1  0  0  0  0
  5 29  1  6  0  0  0
  6  7  1  1  0  0  0
  6 11  1  0  0  0  0
  8 12  1  0  0  0  0
  9 10  1  1  0  0  0
  9 14  1  0  0  0  0
 11 16  1  0  0  0  0
 12 13  1  6  0  0  0
 12 17  1  0  0  0  0
 14 15  1  1  0  0  0
 14 18  1  0  0  0  0
 15 31  1  0  0  0  0
 16 20  1  0  0  0  0
 17  2  1  6  0  0  0
 17 22  1  0  0  0  0
 18 19  1  1  0  0  0
 18 24  1  0  0  0  0
 18 30  1  0  0  0  0
 20 21  1  0  0  0  0
 20 26  1  6  0  0  0
 22 23  1  6  0  0  0
 22 28  1  0  0  0  0
 24 25  1  0  0  0  0
 26 27  1  0  0  0  0
 28 29  1  1  0  0  0
M  END
>  <CHROM.1>
-148.98930732,-178.15751261,-89.03089679,-68.24088967,-120.46933341,104.56351392
-1.34070373,12.86625484,7.48048712,-1.91908126,-0.24318268,2.15937919

>  <Name>
ligand

>  <RI>
0

>  <Rbt.Current_Directory>
/home/itssahil/PROJECTS/Mol_Feturizer/New_Systems/rnas/4GPX

>  <Rbt.Executable>
rbdock ($Id: //depot/dev/client3/rdock/2013.1/src/exe/rbdock.cxx#4 $)

>  <Rbt.Library>
libRbt.so (2013.1, Build901 2013/11/27)

>  <Rbt.Parameter_File>
/export/apps/rDock/src/rDock_2013.1_src/data/scripts/dock_solv.prm

>  <Rbt.Receptor>
prm/pocket_docking_5.prm

>  <SCORE>
-16.4497

>  <SCORE.INTER>
-13.2239

>  <SCORE.INTER.CONST>
1

>  <SCORE.INTER.POLAR>
0

>  <SCORE.INTER.ROT>
6

>  <SCORE.INTER.SOLV>
15.6531

>  <SCORE.INTER.VDW>
-21.6336

>  <SCORE.INTER.norm>
-0.426577

>  <SCORE.INTRA>
-3.22581

>  <SCORE.INTRA.DIHEDRAL>
-8.21173

>  <SCORE.INTRA.DIHEDRAL.0>
20.6841

>  <SCORE.INTRA.POLAR>
0

>  <SCORE.INTRA.POLAR.0>
0

>  <SCORE.INTRA.REPUL>
0

>  <SCORE.INTRA.REPUL.0>
0

>  <SCORE.INTRA.SOLV>
1.08881

>  <SCORE.INTRA.SOLV.lig_0>
-64.6797

>  <SCORE.INTRA.VDW>
0.335659

>  <SCORE.INTRA.VDW.0>
-4.11825

>  <SCORE.INTRA.norm>
-0.104058

>  <SCORE.RESTR>
0

>  <SCORE.RESTR.CAVITY>
0

>  <SCORE.RESTR.norm>
0

>  <SCORE.SYSTEM>
0

>  <SCORE.SYSTEM.CONST>
0

>  <SCORE.SYSTEM.DIHEDRAL>
0

>  <SCORE.SYSTEM.SOLV>
0

>  <SCORE.SYSTEM.norm>
0

>  <SCORE.heavy>
31

>  <SCORE.norm>
-0.530635

>  <RMSD>
2.710

$$$$
ligand
 OpenBabel11021811493D
libRbt.so/2013.1/901 2013/11/27
 31 33  0  0  0  0  0  0  0  0999 V2000
   -5.3134   14.9124    6.5403 C   0  0  2  0  0  0  0  0  0  0  0  0
   -4.0977   14.6342    7.2287 O   0  0  0  0  0  0  0  0  0  0  0  0
   -3.1991   13.0013   11.0510 C   0  0  2  0  0  0  0  0  0  0  0  0
   -3.0806   12.0505   12.1134 N   0  0  0  0  0  0  0  0  0  0  0  0
   -0.5275   11.4683   11.1884 C   0  0  2  0  0  0  0  0  0  0  0  0
   -5.6051   13.6600    5.6170 C   0  0  2  0  0  0  0  0  0  0  0  0
   -5.7144   12.4727    6.4582 N   0  0  0  0  0  0  0  0  0  0  0  0
   -4.7243   13.0953   10.6330 C   0  0  0  0  0  0  0  0  0  0  0  0
    1.0282   11.4780   11.0531 C   0  0  2  0  0  0  0  0  0  0  0  0
    1.4860   12.7943   11.2775 O   0  0  0  0  0  0  0  0  0  0  0  0
   -4.4531   13.4832    4.5491 C   0  0  0  0  0  0  0  0  0  0  0  0
   -4.8581   14.1393    9.4618 C   0  0  2  0  0  0  0  0  0  0  0  0
   -6.2739   14.2269    9.0649 N   0  0  0  0  0  0  0  0  0  0  0  0
    1.3728   11.0020    9.5908 C   0  0  1  0  0  0  0  0  0  0  0  0
    2.8601   11.0095    9.3931 N   0  0  0  0  0  0  0  0  0  0  0  0
   -3.9180   14.8745    4.0034 C   0  0  0  0  0  0  0  0  0  0  0  0
   -3.9667   13.6794    8.2251 C   0  0  2  0  0  0  0  0  0  0  0  0
    0.8112    9.4819    9.4115 C   0  0  1  0  0  0  0  0  0  0  0  0
    1.3673    8.5873   10.3601 O   0  0  0  0  0  0  0  0  0  0  0  0
   -4.2932   16.0457    4.5823 C   0  0  2  0  0  0  0  0  0  0  0  0
   -5.1822   16.0988    5.7041 O   0  0  0  0  0  0  0  0  0  0  0  0
   -2.4603   13.5849    8.6701 C   0  0  2  0  0  0  0  0  0  0  0  0
   -1.6612   13.1578    7.5460 O   0  0  0  0  0  0  0  0  0  0  0  0
   -0.7385    9.4601    9.6167 C   0  0  0  0  0  0  0  0  0  0  0  0
   -1.0712   10.0717   10.9521 O   0  0  0  0  0  0  0  0  0  0  0  0
   -3.8068   17.4105    4.0912 C   0  0  0  0  0  0  0  0  0  0  0  0
   -2.4481   17.5966    4.5535 O   0  0  0  0  0  0  0  0  0  0  0  0
   -2.3433   12.5218    9.8241 C   0  0  1  0  0  0  0  0  0  0  0  0
   -1.0031   12.4325   10.1937 O   0  0  0  0  0  0  0  0  0  0  0  0
    1.0663    8.8516    8.0210 C   0  0  0  0  0  0  0  0  0  0  0  0
    3.4097   12.0851    8.5427 C   0  0  0  0  0  0  0  0  0  0  0  0
  1  2  1  6  0  0  0
  1  6  1  0  0  0  0
  1 21  1  0  0  0  0
  3  4  1  1  0  0  0
  3  8  1  0  0  0  0
  3 28  1  0  0  0  0
  5  9  1  0  0  0  0
  5 25  1  0  0  0  0
  5 29  1  6  0  0  0
  6  7  1  1  0  0  0
  6 11  1  0  0  0  0
  8 12  1  0  0  0  0
  9 10  1  6  0  0  0
  9 14  1  0  0  0  0
 11 16  1  0  0  0  0
 12 13  1  6  0  0  0
 12 17  1  0  0  0  0
 14 15  1  1  0  0  0
 14 18  1  0  0  0  0
 15 31  1  0  0  0  0
 16 20  1  0  0  0  0
 17  2  1  6  0  0  0
 17 22  1  0  0  0  0
 18 19  1  1  0  0  0
 18 24  1  0  0  0  0
 18 30  1  0  0  0  0
 20 21  1  0  0  0  0
 20 26  1  6  0  0  0
 22 23  1  6  0  0  0
 22 28  1  0  0  0  0
 24 25  1  0  0  0  0
 26 27  1  0  0  0  0
 28 29  1  1  0  0  0
M  END
>  <CHROM.1>
-70.20350655,167.24637610,-106.87394301,-65.11297503,-76.85730714,65.29707632
-2.12969728,12.88914983,8.36145711,2.31401969,0.30745000,-1.02917776

>  <Name>
ligand

>  <RI>
0

>  <Rbt.Current_Directory>
/home/itssahil/PROJECTS/Mol_Feturizer/New_Systems/rnas/4GPX

>  <Rbt.Executable>
rbdock ($Id: //depot/dev/client3/rdock/2013.1/src/exe/rbdock.cxx#4 $)

>  <Rbt.Library>
libRbt.so (2013.1, Build901 2013/11/27)

>  <Rbt.Parameter_File>
/export/apps/rDock/src/rDock_2013.1_src/data/scripts/dock_solv.prm

>  <Rbt.Receptor>
prm/pocket_docking_3.prm

>  <SCORE>
-14.7254

>  <SCORE.INTER>
-10.4489

>  <SCORE.INTER.CONST>
1

>  <SCORE.INTER.POLAR>
0

>  <SCORE.INTER.ROT>
6

>  <SCORE.INTER.SOLV>
16.133

>  <SCORE.INTER.VDW>
-19.9436

>  <SCORE.INTER.norm>
-0.337062

>  <SCORE.INTRA>
-4.27651

>  <SCORE.INTRA.DIHEDRAL>
-14.8185

>  <SCORE.INTRA.DIHEDRAL.0>
20.6841

>  <SCORE.INTRA.POLAR>
0

>  <SCORE.INTRA.POLAR.0>
0

>  <SCORE.INTRA.REPUL>
0

>  <SCORE.INTRA.REPUL.0>
0

>  <SCORE.INTRA.SOLV>
2.91713

>  <SCORE.INTRA.SOLV.lig_0>
-64.6797

>  <SCORE.INTRA.VDW>
1.67418

>  <SCORE.INTRA.VDW.0>
-4.11825

>  <SCORE.INTRA.norm>
-0.137952

>  <SCORE.RESTR>
0

>  <SCORE.RESTR.CAVITY>
0

>  <SCORE.RESTR.norm>
0

>  <SCORE.SYSTEM>
0

>  <SCORE.SYSTEM.CONST>
0

>  <SCORE.SYSTEM.DIHEDRAL>
0

>  <SCORE.SYSTEM.SOLV>
0

>  <SCORE.SYSTEM.norm>
0

>  <SCORE.heavy>
31

>  <SCORE.norm>
-0.475014

>  <RMSD>
2.773

$$$$
ligand
 OpenBabel11021811493D
libRbt.so/2013.1/901 2013/11/27
 31 33  0  0  0  0  0  0  0  0999 V2000
   -6.1761   14.2347    6.1158 C   0  0  2  0  0  0  0  0  0  0  0  0
   -5.1755   13.2642    6.4091 O   0  0  0  0  0  0  0  0  0  0  0  0
   -3.6325   13.3308   10.3713 C   0  0  2  0  0  0  0  0  0  0  0  0
   -3.3358   12.9110   11.7064 N   0  0  0  0  0  0  0  0  0  0  0  0
   -0.9806   11.6120   10.6464 C   0  0  2  0  0  0  0  0  0  0  0  0
   -6.7760   13.8502    4.7022 C   0  0  2  0  0  0  0  0  0  0  0  0
   -7.3297   12.5023    4.7787 N   0  0  0  0  0  0  0  0  0  0  0  0
   -5.2067   13.3615   10.1959 C   0  0  0  0  0  0  0  0  0  0  0  0
    0.5495   11.8496   10.4446 C   0  0  2  0  0  0  0  0  0  0  0  0
    0.7817   13.2413   10.4015 O   0  0  0  0  0  0  0  0  0  0  0  0
   -5.6569   13.9316    3.5888 C   0  0  0  0  0  0  0  0  0  0  0  0
   -5.5370   13.8207    8.7263 C   0  0  2  0  0  0  0  0  0  0  0  0
   -6.9998   13.8459    8.5555 N   0  0  0  0  0  0  0  0  0  0  0  0
    0.9525   11.1676    9.0821 C   0  0  1  0  0  0  0  0  0  0  0  0
    2.4148   11.3801    8.8224 N   0  0  0  0  0  0  0  0  0  0  0  0
   -4.6607   15.1450    3.8226 C   0  0  0  0  0  0  0  0  0  0  0  0
   -4.8779   12.8120    7.6853 C   0  0  2  0  0  0  0  0  0  0  0  0
    0.6528    9.5702    9.2116 C   0  0  1  0  0  0  0  0  0  0  0  0
    1.3626    8.9747   10.2845 O   0  0  0  0  0  0  0  0  0  0  0  0
   -4.6874   15.8615    4.9774 C   0  0  2  0  0  0  0  0  0  0  0  0
   -5.6025   15.5723    6.0407 O   0  0  0  0  0  0  0  0  0  0  0  0
   -3.3176   12.7937    7.8879 C   0  0  2  0  0  0  0  0  0  0  0  0
   -2.7295   11.8695    6.9472 O   0  0  0  0  0  0  0  0  0  0  0  0
   -0.8685    9.3351    9.4841 C   0  0  0  0  0  0  0  0  0  0  0  0
   -1.2840   10.1262   10.6963 O   0  0  0  0  0  0  0  0  0  0  0  0
   -3.7502   17.0400    5.2479 C   0  0  0  0  0  0  0  0  0  0  0  0
   -3.9843   17.4995    6.6001 O   0  0  0  0  0  0  0  0  0  0  0  0
   -3.0069   12.3114    9.3529 C   0  0  1  0  0  0  0  0  0  0  0  0
   -1.6233   12.2792    9.5119 O   0  0  0  0  0  0  0  0  0  0  0  0
    0.9942    8.7379    7.9521 C   0  0  0  0  0  0  0  0  0  0  0  0
    2.8050   11.6638    7.4261 C   0  0  0  0  0  0  0  0  0  0  0  0
  1  2  1  6  0  0  0
  1  6  1  0  0  0  0
  1 21  1  0  0  0  0
  3  4  1  1  0  0  0
  3  8  1  0  0  0  0
  3 28  1  0  0  0  0
  5  9  1  0  0  0  0
  5 25  1  0  0  0  0
  5 29  1  6  0  0  0
  6  7  1  1  0  0  0
  6 11  1  0  0  0  0
  8 12  1  0  0  0  0
  9 10  1  6  0  0  0
  9 14  1  0  0  0  0
 11 16  1  0  0  0  0
 12 13  1  1  0  0  0
 12 17  1  0  0  0  0
 14 15  1  1  0  0  0
 14 18  1  0  0  0  0
 15 31  1  0  0  0  0
 16 20  1  0  0  0  0
 17  2  1  6  0  0  0
 17 22  1  0  0  0  0
 18 19  1  1  0  0  0
 18 24  1  0  0  0  0
 18 30  1  0  0  0  0
 20 21  1  0  0  0  0
 20 26  1  6  0  0  0
 22 23  1  6  0  0  0
 22 28  1  0  0  0  0
 24 25  1  0  0  0  0
 26 27  1  0  0  0  0
 28 29  1  6  0  0  0
M  END
>  <CHROM.1>
-146.91558922,-178.67344341,-140.60044362,-15.03255434,-175.77860840,74.56898861
-2.75650727,12.76944023,7.99098662,2.48231466,0.34639936,-1.17056083

>  <Name>
ligand

>  <RI>
0

>  <Rbt.Current_Directory>
/home/itssahil/PROJECTS/Mol_Feturizer/New_Systems/rnas/4GPX

>  <Rbt.Executable>
rbdock ($Id: //depot/dev/client3/rdock/2013.1/src/exe/rbdock.cxx#4 $)

>  <Rbt.Library>
libRbt.so (2013.1, Build901 2013/11/27)

>  <Rbt.Parameter_File>
/export/apps/rDock/src/rDock_2013.1_src/data/scripts/dock_solv.prm

>  <Rbt.Receptor>
prm/pocket_docking_3.prm

>  <SCORE>
-8.37848

>  <SCORE.INTER>
-9.62141

>  <SCORE.INTER.CONST>
1

>  <SCORE.INTER.POLAR>
0

>  <SCORE.INTER.ROT>
6

>  <SCORE.INTER.SOLV>
20.9578

>  <SCORE.INTER.VDW>
-21.0002

>  <SCORE.INTER.norm>
-0.310368

>  <SCORE.INTRA>
1.229

>  <SCORE.INTRA.DIHEDRAL>
-4.89695

>  <SCORE.INTRA.DIHEDRAL.0>
20.6841

>  <SCORE.INTRA.POLAR>
0

>  <SCORE.INTRA.POLAR.0>
0

>  <SCORE.INTRA.REPUL>
0

>  <SCORE.INTRA.REPUL.0>
0

>  <SCORE.INTRA.SOLV>
-0.00921993

>  <SCORE.INTRA.SOLV.lig_0>
-64.6797

>  <SCORE.INTRA.VDW>
3.68208

>  <SCORE.INTRA.VDW.0>
-4.11825

>  <SCORE.INTRA.norm>
0.0396452

>  <SCORE.RESTR>
0.0139241

>  <SCORE.RESTR.CAVITY>
0.0139241

>  <SCORE.RESTR.norm>
0.000449164

>  <SCORE.SYSTEM>
0

>  <SCORE.SYSTEM.CONST>
0

>  <SCORE.SYSTEM.DIHEDRAL>
0

>  <SCORE.SYSTEM.SOLV>
0

>  <SCORE.SYSTEM.norm>
0

>  <SCORE.heavy>
31

>  <SCORE.norm>
-0.270274

>  <RMSD>
2.798

$$$$
ligand
 OpenBabel11021811493D
libRbt.so/2013.1/901 2013/11/27
 31 33  0  0  0  0  0  0  0  0999 V2000
   -2.4082   15.3976    5.1876 C   0  0  2  0  0  0  0  0  0  0  0  0
   -2.5536   16.0050    6.4679 O   0  0  0  0  0  0  0  0  0  0  0  0
   -1.5468   14.7738   10.4118 C   0  0  2  0  0  0  0  0  0  0  0  0
   -1.6178   14.0912   11.6672 N   0  0  0  0  0  0  0  0  0  0  0  0
   -0.0374   12.0969   10.5725 C   0  0  2  0  0  0  0  0  0  0  0  0
   -2.3277   16.5778    4.1357 C   0  0  2  0  0  0  0  0  0  0  0  0
   -1.1883   17.4263    4.4691 N   0  0  0  0  0  0  0  0  0  0  0  0
   -2.8801   15.6079   10.2210 C   0  0  0  0  0  0  0  0  0  0  0  0
    1.4787   11.7246   10.5334 C   0  0  2  0  0  0  0  0  0  0  0  0
    2.2314   12.9170   10.5985 O   0  0  0  0  0  0  0  0  0  0  0  0
   -3.6685   17.4151    4.1441 C   0  0  0  0  0  0  0  0  0  0  0  0
   -2.8065   16.3586    8.8388 C   0  0  2  0  0  0  0  0  0  0  0  0
   -4.0463   17.1319    8.6533 N   0  0  0  0  0  0  0  0  0  0  0  0
    1.7387   10.9663    9.1765 C   0  0  1  0  0  0  0  0  0  0  0  0
    3.1894   10.5983    9.0718 N   0  0  0  0  0  0  0  0  0  0  0  0
   -4.9498   16.4999    4.3451 C   0  0  0  0  0  0  0  0  0  0  0  0
   -2.6345   15.3020    7.6599 C   0  0  2  0  0  0  0  0  0  0  0  0
    0.8353    9.6090    9.1782 C   0  0  1  0  0  0  0  0  0  0  0  0
    1.1363    8.7635   10.2754 O   0  0  0  0  0  0  0  0  0  0  0  0
   -4.8287   15.1885    4.6816 C   0  0  2  0  0  0  0  0  0  0  0  0
   -3.5569   14.5579    4.8727 O   0  0  0  0  0  0  0  0  0  0  0  0
   -1.3096   14.4818    7.8793 C   0  0  2  0  0  0  0  0  0  0  0  0
   -1.1669   13.5199    6.8121 O   0  0  0  0  0  0  0  0  0  0  0  0
   -0.6796    9.9788    9.2885 C   0  0  0  0  0  0  0  0  0  0  0  0
   -0.8922   10.8454   10.5016 O   0  0  0  0  0  0  0  0  0  0  0  0
   -6.0325   14.2662    4.8835 C   0  0  0  0  0  0  0  0  0  0  0  0
   -6.0422   13.8357    6.2651 O   0  0  0  0  0  0  0  0  0  0  0  0
   -1.4111   13.7217    9.2532 C   0  0  1  0  0  0  0  0  0  0  0  0
   -0.2423   12.9834    9.4248 O   0  0  0  0  0  0  0  0  0  0  0  0
    0.9696    8.7341    7.9084 C   0  0  0  0  0  0  0  0  0  0  0  0
    4.0439   11.4960    8.2680 C   0  0  0  0  0  0  0  0  0  0  0  0
  1  2  1  1  0  0  0
  1  6  1  0  0  0  0
  1 21  1  0  0  0  0
  3  4  1  1  0  0  0
  3  8  1  0  0  0  0
  3 28  1  0  0  0  0
  5  9  1  0  0  0  0
  5 25  1  0  0  0  0
  5 29  1  6  0  0  0
  6  7  1  1  0  0  0
  6 11  1  0  0  0  0
  8 12  1  0  0  0  0
  9 10  1  6  0  0  0
  9 14  1  0  0  0  0
 11 16  1  0  0  0  0
 12 13  1  6  0  0  0
 12 17  1  0  0  0  0
 14 15  1  1  0  0  0
 14 18  1  0  0  0  0
 15 31  1  0  0  0  0
 16 20  1  0  0  0  0
 17  2  1  6  0  0  0
 17 22  1  0  0  0  0
 18 19  1  1  0  0  0
 18 24  1  0  0  0  0
 18 30  1  0  0  0  0
 20 21  1  0  0  0  0
 20 26  1  6  0  0  0
 22 23  1  6  0  0  0
 22 28  1  0  0  0  0
 24 25  1  0  0  0  0
 26 27  1  0  0  0  0
 28 29  1  1  0  0  0
M  END
>  <CHROM.1>
-178.75011233,-168.16807911,-98.21203272,-179.37214105,-116.32623094,64.67220589
-1.38406677,13.60256385,7.92450176,-2.76261332,-0.84533367,1.37377313

>  <Name>
ligand

>  <RI>
0

>  <Rbt.Current_Directory>
/home/itssahil/PROJECTS/Mol_Feturizer/New_Systems/rnas/4GPX

>  <Rbt.Executable>
rbdock ($Id: //depot/dev/client3/rdock/2013.1/src/exe/rbdock.cxx#4 $)

>  <Rbt.Library>
libRbt.so (2013.1, Build901 2013/11/27)

>  <Rbt.Parameter_File>
/export/apps/rDock/src/rDock_2013.1_src/data/scripts/dock_solv.prm

>  <Rbt.Receptor>
prm/pocket_docking_5.prm

>  <SCORE>
-17.1972

>  <SCORE.INTER>
-8.87122

>  <SCORE.INTER.CONST>
1

>  <SCORE.INTER.POLAR>
0

>  <SCORE.INTER.ROT>
6

>  <SCORE.INTER.SOLV>
13.6361

>  <SCORE.INTER.VDW>
-18.0595

>  <SCORE.INTER.norm>
-0.286169

>  <SCORE.INTRA>
-8.32595

>  <SCORE.INTRA.DIHEDRAL>
-17.3369

>  <SCORE.INTRA.DIHEDRAL.0>
20.6841

>  <SCORE.INTRA.POLAR>
0

>  <SCORE.INTRA.POLAR.0>
0

>  <SCORE.INTRA.REPUL>
0

>  <SCORE.INTRA.REPUL.0>
0

>  <SCORE.INTRA.SOLV>
-1.70159

>  <SCORE.INTRA.SOLV.lig_0>
-64.6797

>  <SCORE.INTRA.VDW>
1.19328

>  <SCORE.INTRA.VDW.0>
-4.11825

>  <SCORE.INTRA.norm>
-0.268579

>  <SCORE.RESTR>
0

>  <SCORE.RESTR.CAVITY>
0

>  <SCORE.RESTR.norm>
0

>  <SCORE.SYSTEM>
0

>  <SCORE.SYSTEM.CONST>
0

>  <SCORE.SYSTEM.DIHEDRAL>
0

>  <SCORE.SYSTEM.SOLV>
0

>  <SCORE.SYSTEM.norm>
0

>  <SCORE.heavy>
31

>  <SCORE.norm>
-0.554748

>  <RMSD>
2.808

$$$$
ligand
 OpenBabel11021811493D
libRbt.so/2013.1/901 2013/11/27
 31 33  0  0  0  0  0  0  0  0999 V2000
   -2.0985   15.6663    5.2085 C   0  0  2  0  0  0  0  0  0  0  0  0
   -2.3908   16.1932    6.4993 O   0  0  0  0  0  0  0  0  0  0  0  0
   -1.6769   14.7370   10.4305 C   0  0  2  0  0  0  0  0  0  0  0  0
   -1.8368   13.9808   11.6344 N   0  0  0  0  0  0  0  0  0  0  0  0
   -0.1298   12.1146   10.5880 C   0  0  2  0  0  0  0  0  0  0  0  0
   -1.8075   16.9079    4.2705 C   0  0  2  0  0  0  0  0  0  0  0  0
   -0.6831   17.6578    4.8205 N   0  0  0  0  0  0  0  0  0  0  0  0
   -3.0010   15.5720   10.1860 C   0  0  0  0  0  0  0  0  0  0  0  0
    1.3820   11.7236   10.6020 C   0  0  2  0  0  0  0  0  0  0  0  0
    2.1461   12.9055   10.7105 O   0  0  0  0  0  0  0  0  0  0  0  0
   -3.0896   17.8259    4.1589 C   0  0  0  0  0  0  0  0  0  0  0  0
   -2.8296   16.4038    8.8600 C   0  0  2  0  0  0  0  0  0  0  0  0
   -4.0602   17.1782    8.6245 N   0  0  0  0  0  0  0  0  0  0  0  0
    1.6843   10.9784    9.2467 C   0  0  1  0  0  0  0  0  0  0  0  0
    3.1334   10.5934    9.1927 N   0  0  0  0  0  0  0  0  0  0  0  0
   -4.4333   16.9822    4.1122 C   0  0  0  0  0  0  0  0  0  0  0  0
   -2.5552   15.4202    7.6382 C   0  0  2  0  0  0  0  0  0  0  0  0
    0.7650    9.6327    9.1971 C   0  0  1  0  0  0  0  0  0  0  0  0
    1.0135    8.7704   10.2944 O   0  0  0  0  0  0  0  0  0  0  0  0
   -4.4310   15.6459    4.3611 C   0  0  2  0  0  0  0  0  0  0  0  0
   -3.2343   14.9244    4.6761 O   0  0  0  0  0  0  0  0  0  0  0  0
   -1.2420   14.5975    7.9113 C   0  0  2  0  0  0  0  0  0  0  0  0
   -1.0064   13.7016    6.8038 O   0  0  0  0  0  0  0  0  0  0  0  0
   -0.7484   10.0204    9.2542 C   0  0  0  0  0  0  0  0  0  0  0  0
   -0.9966   10.8750   10.4691 O   0  0  0  0  0  0  0  0  0  0  0  0
   -5.6986   14.7902    4.3254 C   0  0  0  0  0  0  0  0  0  0  0  0
   -5.9680   14.3293    5.6705 O   0  0  0  0  0  0  0  0  0  0  0  0
   -1.4404   13.7566    9.2262 C   0  0  1  0  0  0  0  0  0  0  0  0
   -0.2799   13.0174    9.4445 O   0  0  0  0  0  0  0  0  0  0  0  0
    0.9370    8.7715    7.9225 C   0  0  0  0  0  0  0  0  0  0  0  0
    4.0263   11.4816    8.4206 C   0  0  0  0  0  0  0  0  0  0  0  0
  1  2  1  1  0  0  0
  1  6  1  0  0  0  0
  1 21  1  0  0  0  0
  3  4  1  1  0  0  0
  3  8  1  0  0  0  0
  3 28  1  0  0  0  0
  5  9  1  0  0  0  0
  5 25  1  0  0  0  0
  5 29  1  6  0  0  0
  6  7  1  1  0  0  0
  6 11  1  0  0  0  0
  8 12  1  0  0  0  0
  9 10  1  6  0  0  0
  9 14  1  0  0  0  0
 11 16  1  0  0  0  0
 12 13  1  6  0  0  0
 12 17  1  0  0  0  0
 14 15  1  1  0  0  0
 14 18  1  0  0  0  0
 15 31  1  0  0  0  0
 16 20  1  0  0  0  0
 17  2  1  6  0  0  0
 17 22  1  0  0  0  0
 18 19  1  1  0  0  0
 18 24  1  0  0  0  0
 18 30  1  0  0  0  0
 20 21  1  0  0  0  0
 20 26  1  6  0  0  0
 22 23  1  6  0  0  0
 22 28  1  0  0  0  0
 24 25  1  0  0  0  0
 26 27  1  0  0  0  0
 28 29  1  1  0  0  0
M  END
>  <CHROM.1>
-172.54353949,-169.20161062,-98.87086062,178.56442521,-113.18501670,61.61210184
-1.29967803,13.74186846,7.89354498,-2.55331836,-0.82171767,1.62908728

>  <Name>
ligand

>  <RI>
0

>  <Rbt.Current_Directory>
/home/itssahil/PROJECTS/Mol_Feturizer/New_Systems/rnas/4GPX

>  <Rbt.Executable>
rbdock ($Id: //depot/dev/client3/rdock/2013.1/src/exe/rbdock.cxx#4 $)

>  <Rbt.Library>
libRbt.so (2013.1, Build901 2013/11/27)

>  <Rbt.Parameter_File>
/export/apps/rDock/src/rDock_2013.1_src/data/scripts/dock_solv.prm

>  <Rbt.Receptor>
prm/pocket_docking_7.prm

>  <SCORE>
-17.4191

>  <SCORE.INTER>
-9.43612

>  <SCORE.INTER.CONST>
1

>  <SCORE.INTER.POLAR>
0

>  <SCORE.INTER.ROT>
6

>  <SCORE.INTER.SOLV>
13.4127

>  <SCORE.INTER.VDW>
-18.3617

>  <SCORE.INTER.norm>
-0.304391

>  <SCORE.INTRA>
-7.98296

>  <SCORE.INTRA.DIHEDRAL>
-17.2077

>  <SCORE.INTRA.DIHEDRAL.0>
20.6841

>  <SCORE.INTRA.POLAR>
0

>  <SCORE.INTRA.POLAR.0>
0

>  <SCORE.INTRA.REPUL>
0

>  <SCORE.INTRA.REPUL.0>
0

>  <SCORE.INTRA.SOLV>
-1.76269

>  <SCORE.INTRA.SOLV.lig_0>
-64.6797

>  <SCORE.INTRA.VDW>
1.50223

>  <SCORE.INTRA.VDW.0>
-4.11825

>  <SCORE.INTRA.norm>
-0.257515

>  <SCORE.RESTR>
0

>  <SCORE.RESTR.CAVITY>
0

>  <SCORE.RESTR.norm>
0

>  <SCORE.SYSTEM>
0

>  <SCORE.SYSTEM.CONST>
0

>  <SCORE.SYSTEM.DIHEDRAL>
0

>  <SCORE.SYSTEM.SOLV>
0

>  <SCORE.SYSTEM.norm>
0

>  <SCORE.heavy>
31

>  <SCORE.norm>
-0.561906

>  <RMSD>
2.867

$$$$
ligand
 OpenBabel11021811493D
libRbt.so/2013.1/901 2013/11/27
 31 33  0  0  0  0  0  0  0  0999 V2000
   -2.0287   15.6549    5.1930 C   0  0  2  0  0  0  0  0  0  0  0  0
   -2.2570   16.2218    6.4798 O   0  0  0  0  0  0  0  0  0  0  0  0
   -1.7365   14.8781   10.4807 C   0  0  2  0  0  0  0  0  0  0  0  0
   -1.9548   14.1556   11.6962 N   0  0  0  0  0  0  0  0  0  0  0  0
   -0.2244   12.2031   10.7420 C   0  0  2  0  0  0  0  0  0  0  0  0
   -1.6393   16.8537    4.2353 C   0  0  2  0  0  0  0  0  0  0  0  0
   -0.4459   17.5068    4.7628 N   0  0  0  0  0  0  0  0  0  0  0  0
   -3.0474   15.7032   10.1481 C   0  0  0  0  0  0  0  0  0  0  0  0
    1.2757   11.7783   10.8302 C   0  0  2  0  0  0  0  0  0  0  0  0
    2.0573   12.9402   11.0083 O   0  0  0  0  0  0  0  0  0  0  0  0
   -2.8355   17.8814    4.1255 C   0  0  0  0  0  0  0  0  0  0  0  0
   -2.8115   16.4977    8.8092 C   0  0  2  0  0  0  0  0  0  0  0  0
   -4.0295   17.2628    8.4917 N   0  0  0  0  0  0  0  0  0  0  0  0
    1.6372   11.0567    9.4765 C   0  0  1  0  0  0  0  0  0  0  0  0
    3.0786   10.6407    9.4935 N   0  0  0  0  0  0  0  0  0  0  0  0
   -4.2497   17.1607    4.1049 C   0  0  0  0  0  0  0  0  0  0  0  0
   -2.4768   15.4807    7.6305 C   0  0  2  0  0  0  0  0  0  0  0  0
    0.6939    9.7333    9.3449 C   0  0  1  0  0  0  0  0  0  0  0  0
    0.8628    8.8416   10.4338 O   0  0  0  0  0  0  0  0  0  0  0  0
   -4.3637   15.8327    4.3717 C   0  0  2  0  0  0  0  0  0  0  0  0
   -3.2326   15.0111    4.6831 O   0  0  0  0  0  0  0  0  0  0  0  0
   -1.1781   14.6686    7.9909 C   0  0  2  0  0  0  0  0  0  0  0  0
   -0.8878   13.7425    6.9220 O   0  0  0  0  0  0  0  0  0  0  0  0
   -0.8118   10.1533    9.3276 C   0  0  0  0  0  0  0  0  0  0  0  0
   -1.1091   10.9861   10.5465 O   0  0  0  0  0  0  0  0  0  0  0  0
   -5.7031   15.0935    4.3613 C   0  0  0  0  0  0  0  0  0  0  0  0
   -5.5924   13.9753    3.4493 O   0  0  0  0  0  0  0  0  0  0  0  0
   -1.4404   13.8646    9.3176 C   0  0  1  0  0  0  0  0  0  0  0  0
   -0.2916   13.1342    9.6134 O   0  0  0  0  0  0  0  0  0  0  0  0
    0.9184    8.8969    8.0620 C   0  0  0  0  0  0  0  0  0  0  0  0
    3.9387   11.1891    8.4250 C   0  0  0  0  0  0  0  0  0  0  0  0
  1  2  1  1  0  0  0
  1  6  1  0  0  0  0
  1 21  1  0  0  0  0
  3  4  1  1  0  0  0
  3  8  1  0  0  0  0
  3 28  1  0  0  0  0
  5  9  1  0  0  0  0
  5 25  1  0  0  0  0
  5 29  1  6  0  0  0
  6  7  1  1  0  0  0
  6 11  1  0  0  0  0
  8 12  1  0  0  0  0
  9 10  1  6  0  0  0
  9 14  1  0  0  0  0
 11 16  1  0  0  0  0
 12 13  1  6  0  0  0
 12 17  1  0  0  0  0
 14 15  1  1  0  0  0
 14 18  1  0  0  0  0
 15 31  1  0  0  0  0
 16 20  1  0  0  0  0
 17  2  1  6  0  0  0
 17 22  1  0  0  0  0
 18 19  1  1  0  0  0
 18 24  1  0  0  0  0
 18 30  1  0  0  0  0
 20 21  1  0  0  0  0
 20 26  1  6  0  0  0
 22 23  1  6  0  0  0
 22 28  1  0  0  0  0
 24 25  1  0  0  0  0
 26 27  1  0  0  0  0
 28 29  1  1  0  0  0
M  END
>  <CHROM.1>
-172.58308939,-171.78973456,-121.01524659,-175.09349137,124.84939207,65.36260305
-1.27753622,13.79861953,7.87860007,-2.73031795,-0.94033247,1.32664611

>  <Name>
ligand

>  <RI>
0

>  <Rbt.Current_Directory>
/home/itssahil/PROJECTS/Mol_Feturizer/New_Systems/rnas/4GPX

>  <Rbt.Executable>
rbdock ($Id: //depot/dev/client3/rdock/2013.1/src/exe/rbdock.cxx#4 $)

>  <Rbt.Library>
libRbt.so (2013.1, Build901 2013/11/27)

>  <Rbt.Parameter_File>
/export/apps/rDock/src/rDock_2013.1_src/data/scripts/dock_solv.prm

>  <Rbt.Receptor>
prm/pocket_docking_6.prm

>  <SCORE>
-17.8803

>  <SCORE.INTER>
-9.58699

>  <SCORE.INTER.CONST>
1

>  <SCORE.INTER.POLAR>
0

>  <SCORE.INTER.ROT>
6

>  <SCORE.INTER.SOLV>
13.9198

>  <SCORE.INTER.VDW>
-18.6313

>  <SCORE.INTER.norm>
-0.309258

>  <SCORE.INTRA>
-8.29333

>  <SCORE.INTRA.DIHEDRAL>
-16.9075

>  <SCORE.INTRA.DIHEDRAL.0>
20.6841

>  <SCORE.INTRA.POLAR>
0

>  <SCORE.INTRA.POLAR.0>
0

>  <SCORE.INTRA.REPUL>
0

>  <SCORE.INTRA.REPUL.0>
0

>  <SCORE.INTRA.SOLV>
-1.76719

>  <SCORE.INTRA.SOLV.lig_0>
-64.6797

>  <SCORE.INTRA.VDW>
1.04401

>  <SCORE.INTRA.VDW.0>
-4.11825

>  <SCORE.INTRA.norm>
-0.267527

>  <SCORE.RESTR>
0

>  <SCORE.RESTR.CAVITY>
0

>  <SCORE.RESTR.norm>
0

>  <SCORE.SYSTEM>
0

>  <SCORE.SYSTEM.CONST>
0

>  <SCORE.SYSTEM.DIHEDRAL>
0

>  <SCORE.SYSTEM.SOLV>
0

>  <SCORE.SYSTEM.norm>
0

>  <SCORE.heavy>
31

>  <SCORE.norm>
-0.576784

>  <RMSD>
2.899

$$$$
ligand
 OpenBabel11021811493D
libRbt.so/2013.1/901 2013/11/27
 31 33  0  0  0  0  0  0  0  0999 V2000
   -2.7649   15.2714    4.6109 C   0  0  2  0  0  0  0  0  0  0  0  0
   -2.5225   14.5032    5.7858 O   0  0  0  0  0  0  0  0  0  0  0  0
   -1.1679   10.4849    6.1065 C   0  0  2  0  0  0  0  0  0  0  0  0
   -0.2795    9.3643    6.1489 N   0  0  0  0  0  0  0  0  0  0  0  0
   -0.0495    9.7818    8.9441 C   0  0  2  0  0  0  0  0  0  0  0  0
   -3.3141   16.6747    5.0956 C   0  0  2  0  0  0  0  0  0  0  0  0
   -2.3146   17.2973    5.9573 N   0  0  0  0  0  0  0  0  0  0  0  0
   -0.9901   11.2103    4.7093 C   0  0  0  0  0  0  0  0  0  0  0  0
    0.3828   10.1999   10.3852 C   0  0  2  0  0  0  0  0  0  0  0  0
   -0.7775   10.3225   11.1798 O   0  0  0  0  0  0  0  0  0  0  0  0
   -4.6817   16.4938    5.8675 C   0  0  0  0  0  0  0  0  0  0  0  0
   -1.9648   12.4460    4.6601 C   0  0  2  0  0  0  0  0  0  0  0  0
   -1.7999   13.1280    3.3649 N   0  0  0  0  0  0  0  0  0  0  0  0
    1.1335   11.5804   10.2657 C   0  0  1  0  0  0  0  0  0  0  0  0
    1.5581   12.0457   11.6274 N   0  0  0  0  0  0  0  0  0  0  0  0
   -5.5935   15.3658    5.2226 C   0  0  0  0  0  0  0  0  0  0  0  0
   -1.6305   13.4443    5.8549 C   0  0  2  0  0  0  0  0  0  0  0  0
    2.4534   11.3558    9.3351 C   0  0  1  0  0  0  0  0  0  0  0  0
    3.3242   10.3707    9.8650 O   0  0  0  0  0  0  0  0  0  0  0  0
   -5.1099   14.5405    4.2568 C   0  0  2  0  0  0  0  0  0  0  0  0
   -3.7675   14.6347    3.7663 O   0  0  0  0  0  0  0  0  0  0  0  0
   -1.8053   12.6963    7.2283 C   0  0  2  0  0  0  0  0  0  0  0  0
   -1.4907   13.6053    8.3050 O   0  0  0  0  0  0  0  0  0  0  0  0
    2.0245   10.8691    7.9128 C   0  0  0  0  0  0  0  0  0  0  0  0
    1.1656    9.6394    8.0468 O   0  0  0  0  0  0  0  0  0  0  0  0
   -5.9499   13.4413    3.6037 C   0  0  0  0  0  0  0  0  0  0  0  0
   -7.0620   13.1443    4.4809 O   0  0  0  0  0  0  0  0  0  0  0  0
   -0.8086   11.4796    7.2680 C   0  0  1  0  0  0  0  0  0  0  0  0
   -0.9582   10.8397    8.4963 O   0  0  0  0  0  0  0  0  0  0  0  0
    3.3167   12.6208    9.1109 C   0  0  0  0  0  0  0  0  0  0  0  0
    0.6479   12.9792   12.3218 C   0  0  0  0  0  0  0  0  0  0  0  0
  1  2  1  1  0  0  0
  1  6  1  0  0  0  0
  1 21  1  0  0  0  0
  3  4  1  6  0  0  0
  3  8  1  0  0  0  0
  3 28  1  0  0  0  0
  5  9  1  0  0  0  0
  5 25  1  0  0  0  0
  5 29  1  6  0  0  0
  6  7  1  1  0  0  0
  6 11  1  0  0  0  0
  8 12  1  0  0  0  0
  9 10  1  1  0  0  0
  9 14  1  0  0  0  0
 11 16  1  0  0  0  0
 12 13  1  6  0  0  0
 12 17  1  0  0  0  0
 14 15  1  1  0  0  0
 14 18  1  0  0  0  0
 15 31  1  0  0  0  0
 16 20  1  0  0  0  0
 17  2  1  1  0  0  0
 17 22  1  0  0  0  0
 18 19  1  1  0  0  0
 18 24  1  0  0  0  0
 18 30  1  0  0  0  0
 20 21  1  0  0  0  0
 20 26  1  6  0  0  0
 22 23  1  1  0  0  0
 22 28  1  0  0  0  0
 24 25  1  0  0  0  0
 26 27  1  0  0  0  0
 28 29  1  1  0  0  0
M  END
>  <CHROM.1>
-156.17951926,129.75115423,-94.98133233,-51.59817114,-20.18159362,70.21838146
-1.31927475,12.62906199,7.11819591,-3.12170405,0.83982748,-2.54595705

>  <Name>
ligand

>  <RI>
0

>  <Rbt.Current_Directory>
/home/itssahil/PROJECTS/Mol_Feturizer/New_Systems/rnas/4GPX

>  <Rbt.Executable>
rbdock ($Id: //depot/dev/client3/rdock/2013.1/src/exe/rbdock.cxx#4 $)

>  <Rbt.Library>
libRbt.so (2013.1, Build901 2013/11/27)

>  <Rbt.Parameter_File>
/export/apps/rDock/src/rDock_2013.1_src/data/scripts/dock_solv.prm

>  <Rbt.Receptor>
prm/pocket_docking_3.prm

>  <SCORE>
-5.45273

>  <SCORE.INTER>
-7.57315

>  <SCORE.INTER.CONST>
1

>  <SCORE.INTER.POLAR>
0

>  <SCORE.INTER.ROT>
6

>  <SCORE.INTER.SOLV>
15.2114

>  <SCORE.INTER.VDW>
-17.7193

>  <SCORE.INTER.norm>
-0.244295

>  <SCORE.INTRA>
1.90447

>  <SCORE.INTRA.DIHEDRAL>
-7.71013

>  <SCORE.INTRA.DIHEDRAL.0>
20.6841

>  <SCORE.INTRA.POLAR>
0

>  <SCORE.INTRA.POLAR.0>
0

>  <SCORE.INTRA.REPUL>
0

>  <SCORE.INTRA.REPUL.0>
0

>  <SCORE.INTRA.SOLV>
2.17853

>  <SCORE.INTRA.SOLV.lig_0>
-64.6797

>  <SCORE.INTRA.VDW>
4.67027

>  <SCORE.INTRA.VDW.0>
-4.11825

>  <SCORE.INTRA.norm>
0.0614346

>  <SCORE.RESTR>
0.215947

>  <SCORE.RESTR.CAVITY>
0.215947

>  <SCORE.RESTR.norm>
0.00696605

>  <SCORE.SYSTEM>
0

>  <SCORE.SYSTEM.CONST>
0

>  <SCORE.SYSTEM.DIHEDRAL>
0

>  <SCORE.SYSTEM.SOLV>
0

>  <SCORE.SYSTEM.norm>
0

>  <SCORE.heavy>
31

>  <SCORE.norm>
-0.175895

>  <RMSD>
2.925

$$$$
ligand
 OpenBabel11021811493D
libRbt.so/2013.1/901 2013/11/27
 31 33  0  0  0  0  0  0  0  0999 V2000
   -5.3720   15.4167    6.2930 C   0  0  2  0  0  0  0  0  0  0  0  0
   -5.3729   13.9933    6.3484 O   0  0  0  0  0  0  0  0  0  0  0  0
   -4.5121   13.1721   10.4312 C   0  0  2  0  0  0  0  0  0  0  0  0
   -4.3940   12.4537   11.6628 N   0  0  0  0  0  0  0  0  0  0  0  0
   -1.8065   11.7330   10.8877 C   0  0  2  0  0  0  0  0  0  0  0  0
   -5.5384   15.8083    4.7682 C   0  0  2  0  0  0  0  0  0  0  0  0
   -6.7898   15.2442    4.2731 N   0  0  0  0  0  0  0  0  0  0  0  0
   -6.0310   13.1452    9.9813 C   0  0  0  0  0  0  0  0  0  0  0  0
   -0.2813   12.0553   10.9791 C   0  0  2  0  0  0  0  0  0  0  0  0
   -0.1294   13.4515   11.1218 O   0  0  0  0  0  0  0  0  0  0  0  0
   -4.3128   15.2729    3.9255 C   0  0  0  0  0  0  0  0  0  0  0  0
   -6.1643   13.9329    8.6244 C   0  0  2  0  0  0  0  0  0  0  0  0
   -7.5740   13.9067    8.1981 N   0  0  0  0  0  0  0  0  0  0  0  0
    0.3841   11.5487    9.6432 C   0  0  1  0  0  0  0  0  0  0  0  0
    1.8538   11.8498    9.6635 N   0  0  0  0  0  0  0  0  0  0  0  0
   -2.9421   15.3818    4.7186 C   0  0  0  0  0  0  0  0  0  0  0  0
   -5.2409   13.2582    7.5163 C   0  0  2  0  0  0  0  0  0  0  0  0
    0.1637    9.9358    9.5521 C   0  0  1  0  0  0  0  0  0  0  0  0
    0.7187    9.2532   10.6636 O   0  0  0  0  0  0  0  0  0  0  0  0
   -2.9200   15.7025    6.0394 C   0  0  2  0  0  0  0  0  0  0  0  0
   -4.1135   15.9595    6.7884 O   0  0  0  0  0  0  0  0  0  0  0  0
   -3.7414   13.2894    7.9925 C   0  0  2  0  0  0  0  0  0  0  0  0
   -2.9130   12.6671    6.9870 O   0  0  0  0  0  0  0  0  0  0  0  0
   -1.3648    9.6085    9.5317 C   0  0  0  0  0  0  0  0  0  0  0  0
   -2.0240   10.2398   10.7296 O   0  0  0  0  0  0  0  0  0  0  0  0
   -1.6252   15.8220    6.8455 C   0  0  0  0  0  0  0  0  0  0  0  0
   -0.5210   15.9008    5.9134 O   0  0  0  0  0  0  0  0  0  0  0  0
   -3.6241   12.4793    9.3361 C   0  0  1  0  0  0  0  0  0  0  0  0
   -2.2895   12.4967    9.7349 O   0  0  0  0  0  0  0  0  0  0  0  0
    0.7604    9.2658    8.2909 C   0  0  0  0  0  0  0  0  0  0  0  0
    2.2848   13.0915    8.9894 C   0  0  0  0  0  0  0  0  0  0  0  0
  1  2  1  6  0  0  0
  1  6  1  0  0  0  0
  1 21  1  0  0  0  0
  3  4  1  1  0  0  0
  3  8  1  0  0  0  0
  3 28  1  0  0  0  0
  5  9  1  0  0  0  0
  5 25  1  0  0  0  0
  5 29  1  6  0  0  0
  6  7  1  6  0  0  0
  6 11  1  0  0  0  0
  8 12  1  0  0  0  0
  9 10  1  6  0  0  0
  9 14  1  0  0  0  0
 11 16  1  0  0  0  0
 12 13  1  6  0  0  0
 12 17  1  0  0  0  0
 14 15  1  1  0  0  0
 14 18  1  0  0  0  0
 15 31  1  0  0  0  0
 16 20  1  0  0  0  0
 17  2  1  6  0  0  0
 17 22  1  0  0  0  0
 18 19  1  1  0  0  0
 18 24  1  0  0  0  0
 18 30  1  0  0  0  0
 20 21  1  0  0  0  0
 20 26  1  6  0  0  0
 22 23  1  6  0  0  0
 22 28  1  0  0  0  0
 24 25  1  0  0  0  0
 26 27  1  0  0  0  0
 28 29  1  1  0  0  0
M  END
>  <CHROM.1>
179.67067080,-179.27955657,-96.03555219,43.76788614,15.19586381,66.89439091
-2.70563316,13.13149352,8.27372839,2.30629604,0.12464149,-0.90064253

>  <Name>
ligand

>  <RI>
0

>  <Rbt.Current_Directory>
/home/itssahil/PROJECTS/Mol_Feturizer/New_Systems/rnas/4GPX

>  <Rbt.Executable>
rbdock ($Id: //depot/dev/client3/rdock/2013.1/src/exe/rbdock.cxx#4 $)

>  <Rbt.Library>
libRbt.so (2013.1, Build901 2013/11/27)

>  <Rbt.Parameter_File>
/export/apps/rDock/src/rDock_2013.1_src/data/scripts/dock_solv.prm

>  <Rbt.Receptor>
prm/pocket_docking_5.prm

>  <SCORE>
-12.302

>  <SCORE.INTER>
-5.18713

>  <SCORE.INTER.CONST>
1

>  <SCORE.INTER.POLAR>
0

>  <SCORE.INTER.ROT>
6

>  <SCORE.INTER.SOLV>
18.0973

>  <SCORE.INTER.VDW>
-17.0905

>  <SCORE.INTER.norm>
-0.167327

>  <SCORE.INTRA>
-7.11483

>  <SCORE.INTRA.DIHEDRAL>
-16.4583

>  <SCORE.INTRA.DIHEDRAL.0>
20.6841

>  <SCORE.INTRA.POLAR>
0

>  <SCORE.INTRA.POLAR.0>
0

>  <SCORE.INTRA.REPUL>
0

>  <SCORE.INTRA.REPUL.0>
0

>  <SCORE.INTRA.SOLV>
-0.732971

>  <SCORE.INTRA.SOLV.lig_0>
-64.6797

>  <SCORE.INTRA.VDW>
1.48079

>  <SCORE.INTRA.VDW.0>
-4.11825

>  <SCORE.INTRA.norm>
-0.229511

>  <SCORE.RESTR>
0

>  <SCORE.RESTR.CAVITY>
0

>  <SCORE.RESTR.norm>
0

>  <SCORE.SYSTEM>
0

>  <SCORE.SYSTEM.CONST>
0

>  <SCORE.SYSTEM.DIHEDRAL>
0

>  <SCORE.SYSTEM.SOLV>
0

>  <SCORE.SYSTEM.norm>
0

>  <SCORE.heavy>
31

>  <SCORE.norm>
-0.396837

>  <RMSD>
2.946

$$$$
ligand
 OpenBabel11021811493D
libRbt.so/2013.1/901 2013/11/27
 31 33  0  0  0  0  0  0  0  0999 V2000
   -1.8944   15.7526    5.2015 C   0  0  2  0  0  0  0  0  0  0  0  0
   -2.1849   16.3041    6.4823 O   0  0  0  0  0  0  0  0  0  0  0  0
   -1.7283   14.8705   10.4598 C   0  0  2  0  0  0  0  0  0  0  0  0
   -1.9761   14.1331   11.6606 N   0  0  0  0  0  0  0  0  0  0  0  0
   -0.2967   12.1601   10.6915 C   0  0  2  0  0  0  0  0  0  0  0  0
   -1.4053   16.9540    4.2941 C   0  0  2  0  0  0  0  0  0  0  0  0
   -0.2266   17.5561    4.9084 N   0  0  0  0  0  0  0  0  0  0  0  0
   -3.0103   15.7435   10.1367 C   0  0  0  0  0  0  0  0  0  0  0  0
    1.2018   11.7394   10.8185 C   0  0  2  0  0  0  0  0  0  0  0  0
    1.9746   12.9026   11.0244 O   0  0  0  0  0  0  0  0  0  0  0  0
   -2.5572   18.0241    4.1298 C   0  0  0  0  0  0  0  0  0  0  0  0
   -2.7422   16.5547    8.8140 C   0  0  2  0  0  0  0  0  0  0  0  0
   -3.9333   17.3644    8.5053 N   0  0  0  0  0  0  0  0  0  0  0  0
    1.6026   11.0265    9.4713 C   0  0  1  0  0  0  0  0  0  0  0  0
    3.0443   10.6148    9.5256 N   0  0  0  0  0  0  0  0  0  0  0  0
   -3.9905   17.3532    4.0061 C   0  0  0  0  0  0  0  0  0  0  0  0
   -2.4343   15.5494    7.6181 C   0  0  2  0  0  0  0  0  0  0  0  0
    0.6676    9.7010    9.3065 C   0  0  1  0  0  0  0  0  0  0  0  0
    0.8094    8.8037   10.3947 O   0  0  0  0  0  0  0  0  0  0  0  0
   -4.1654   16.0254    4.2388 C   0  0  2  0  0  0  0  0  0  0  0  0
   -3.0843   15.1599    4.6043 O   0  0  0  0  0  0  0  0  0  0  0  0
   -1.1642   14.6893    7.9691 C   0  0  2  0  0  0  0  0  0  0  0  0
   -0.8983   13.7742    6.8844 O   0  0  0  0  0  0  0  0  0  0  0  0
   -0.8384   10.1165    9.2502 C   0  0  0  0  0  0  0  0  0  0  0  0
   -1.1718   10.9416   10.4651 O   0  0  0  0  0  0  0  0  0  0  0  0
   -5.5253   15.3332    4.1297 C   0  0  0  0  0  0  0  0  0  0  0  0
   -6.3891   16.1644    3.3191 O   0  0  0  0  0  0  0  0  0  0  0  0
   -1.4590   13.8697    9.2794 C   0  0  1  0  0  0  0  0  0  0  0  0
   -0.3358   13.0973    9.5666 O   0  0  0  0  0  0  0  0  0  0  0  0
    0.9298    8.8725    8.0257 C   0  0  0  0  0  0  0  0  0  0  0  0
    3.9200   11.1264    8.4514 C   0  0  0  0  0  0  0  0  0  0  0  0
  1  2  1  1  0  0  0
  1  6  1  0  0  0  0
  1 21  1  0  0  0  0
  3  4  1  1  0  0  0
  3  8  1  0  0  0  0
  3 28  1  0  0  0  0
  5  9  1  0  0  0  0
  5 25  1  0  0  0  0
  5 29  1  6  0  0  0
  6  7  1  1  0  0  0
  6 11  1  0  0  0  0
  8 12  1  0  0  0  0
  9 10  1  6  0  0  0
  9 14  1  0  0  0  0
 11 16  1  0  0  0  0
 12 13  1  6  0  0  0
 12 17  1  0  0  0  0
 14 15  1  1  0  0  0
 14 18  1  0  0  0  0
 15 31  1  0  0  0  0
 16 20  1  0  0  0  0
 17  2  1  6  0  0  0
 17 22  1  0  0  0  0
 18 19  1  1  0  0  0
 18 24  1  0  0  0  0
 18 30  1  0  0  0  0
 20 21  1  0  0  0  0
 20 26  1  6  0  0  0
 22 23  1  6  0  0  0
 22 28  1  0  0  0  0
 24 25  1  0  0  0  0
 26 27  1  0  0  0  0
 28 29  1  1  0  0  0
M  END
>  <CHROM.1>
-169.11349664,-168.87508471,-123.49607505,-178.76395823,20.03903871,64.31722610
-1.26242253,13.91256166,7.84796902,-2.52853631,-0.87685890,1.59803817

>  <Name>
ligand

>  <RI>
0

>  <Rbt.Current_Directory>
/home/itssahil/PROJECTS/Mol_Feturizer/New_Systems/rnas/4GPX

>  <Rbt.Executable>
rbdock ($Id: //depot/dev/client3/rdock/2013.1/src/exe/rbdock.cxx#4 $)

>  <Rbt.Library>
libRbt.so (2013.1, Build901 2013/11/27)

>  <Rbt.Parameter_File>
/export/apps/rDock/src/rDock_2013.1_src/data/scripts/dock_solv.prm

>  <Rbt.Receptor>
prm/pocket_docking_5.prm

>  <SCORE>
-17.4233

>  <SCORE.INTER>
-10.5614

>  <SCORE.INTER.CONST>
1

>  <SCORE.INTER.POLAR>
0

>  <SCORE.INTER.ROT>
6

>  <SCORE.INTER.SOLV>
14.1543

>  <SCORE.INTER.VDW>
-19.359

>  <SCORE.INTER.norm>
-0.340689

>  <SCORE.INTRA>
-6.86198

>  <SCORE.INTRA.DIHEDRAL>
-16.0594

>  <SCORE.INTRA.DIHEDRAL.0>
20.6841

>  <SCORE.INTRA.POLAR>
0

>  <SCORE.INTRA.POLAR.0>
0

>  <SCORE.INTRA.REPUL>
0

>  <SCORE.INTRA.REPUL.0>
0

>  <SCORE.INTRA.SOLV>
-1.87699

>  <SCORE.INTRA.SOLV.lig_0>
-64.6797

>  <SCORE.INTRA.VDW>
2.10623

>  <SCORE.INTRA.VDW.0>
-4.11825

>  <SCORE.INTRA.norm>
-0.221354

>  <SCORE.RESTR>
0

>  <SCORE.RESTR.CAVITY>
0

>  <SCORE.RESTR.norm>
0

>  <SCORE.SYSTEM>
0

>  <SCORE.SYSTEM.CONST>
0

>  <SCORE.SYSTEM.DIHEDRAL>
0

>  <SCORE.SYSTEM.SOLV>
0

>  <SCORE.SYSTEM.norm>
0

>  <SCORE.heavy>
31

>  <SCORE.norm>
-0.562043

>  <RMSD>
2.989

$$$$
ligand
 OpenBabel11021811493D
libRbt.so/2013.1/901 2013/11/27
 31 33  0  0  0  0  0  0  0  0999 V2000
   -5.3672   15.5709    6.0835 C   0  0  2  0  0  0  0  0  0  0  0  0
   -4.8363   14.2496    6.0430 O   0  0  0  0  0  0  0  0  0  0  0  0
   -4.1909   13.0898   10.0831 C   0  0  2  0  0  0  0  0  0  0  0  0
   -4.1107   12.2649   11.2493 N   0  0  0  0  0  0  0  0  0  0  0  0
   -1.4805   11.8625   10.6801 C   0  0  2  0  0  0  0  0  0  0  0  0
   -5.2430   16.1514    4.6160 C   0  0  2  0  0  0  0  0  0  0  0  0
   -5.9917   15.2906    3.7062 N   0  0  0  0  0  0  0  0  0  0  0  0
   -5.6743   13.0294    9.5300 C   0  0  0  0  0  0  0  0  0  0  0  0
    0.0591   12.0993   10.7909 C   0  0  2  0  0  0  0  0  0  0  0  0
    0.2906   13.4896   10.8706 O   0  0  0  0  0  0  0  0  0  0  0  0
   -3.7248   16.2340    4.1835 C   0  0  0  0  0  0  0  0  0  0  0  0
   -5.7656   13.9344    8.2446 C   0  0  2  0  0  0  0  0  0  0  0  0
   -7.1417   13.8778    7.7225 N   0  0  0  0  0  0  0  0  0  0  0  0
    0.7197   11.4903    9.4962 C   0  0  1  0  0  0  0  0  0  0  0  0
    2.2040   11.7057    9.5357 N   0  0  0  0  0  0  0  0  0  0  0  0
   -2.7783   16.6625    5.3836 C   0  0  0  0  0  0  0  0  0  0  0  0
   -4.7374   13.4149    7.1453 C   0  0  2  0  0  0  0  0  0  0  0  0
    0.4059    9.8905    9.4768 C   0  0  1  0  0  0  0  0  0  0  0  0
    0.8971    9.2316   10.6318 O   0  0  0  0  0  0  0  0  0  0  0  0
   -3.2469   16.7254    6.6580 C   0  0  2  0  0  0  0  0  0  0  0  0
   -4.6040   16.4144    6.9944 O   0  0  0  0  0  0  0  0  0  0  0  0
   -3.2752   13.4761    7.7237 C   0  0  2  0  0  0  0  0  0  0  0  0
   -2.3510   12.9941    6.7245 O   0  0  0  0  0  0  0  0  0  0  0  0
   -1.1386    9.6522    9.4370 C   0  0  0  0  0  0  0  0  0  0  0  0
   -1.7830   10.3786   10.5882 O   0  0  0  0  0  0  0  0  0  0  0  0
   -2.3750   17.1351    7.8464 C   0  0  0  0  0  0  0  0  0  0  0  0
   -2.6663   16.2415    8.9469 O   0  0  0  0  0  0  0  0  0  0  0  0
   -3.1977   12.5493    8.9927 C   0  0  1  0  0  0  0  0  0  0  0  0
   -1.8941   12.5959    9.4816 O   0  0  0  0  0  0  0  0  0  0  0  0
    0.9869    9.1261    8.2627 C   0  0  0  0  0  0  0  0  0  0  0  0
    2.8621   12.0198    8.2510 C   0  0  0  0  0  0  0  0  0  0  0  0
  1  2  1  6  0  0  0
  1  6  1  0  0  0  0
  1 21  1  0  0  0  0
  3  4  1  1  0  0  0
  3  8  1  0  0  0  0
  3 28  1  0  0  0  0
  5  9  1  0  0  0  0
  5 25  1  0  0  0  0
  5 29  1  6  0  0  0
  6  7  1  6  0  0  0
  6 11  1  0  0  0  0
  8 12  1  0  0  0  0
  9 10  1  6  0  0  0
  9 14  1  0  0  0  0
 11 16  1  0  0  0  0
 12 13  1  6  0  0  0
 12 17  1  0  0  0  0
 14 15  1  1  0  0  0
 14 18  1  0  0  0  0
 15 31  1  0  0  0  0
 16 20  1  0  0  0  0
 17  2  1  6  0  0  0
 17 22  1  0  0  0  0
 18 19  1  1  0  0  0
 18 24  1  0  0  0  0
 18 30  1  0  0  0  0
 20 21  1  0  0  0  0
 20 26  1  6  0  0  0
 22 23  1  6  0  0  0
 22 28  1  0  0  0  0
 24 25  1  0  0  0  0
 26 27  1  0  0  0  0
 28 29  1  1  0  0  0
M  END
>  <CHROM.1>
178.40923031,175.41772406,-142.52000902,20.89790824,-137.15941775,60.06411110
-2.51285782,13.30769797,8.25239034,2.28683198,0.10853822,-0.76555271

>  <Name>
ligand

>  <RI>
0

>  <Rbt.Current_Directory>
/home/itssahil/PROJECTS/Mol_Feturizer/New_Systems/rnas/4GPX

>  <Rbt.Executable>
rbdock ($Id: //depot/dev/client3/rdock/2013.1/src/exe/rbdock.cxx#4 $)

>  <Rbt.Library>
libRbt.so (2013.1, Build901 2013/11/27)

>  <Rbt.Parameter_File>
/export/apps/rDock/src/rDock_2013.1_src/data/scripts/dock_solv.prm

>  <Rbt.Receptor>
prm/pocket_docking_5.prm

>  <SCORE>
-11.1596

>  <SCORE.INTER>
-6.78964

>  <SCORE.INTER.CONST>
1

>  <SCORE.INTER.POLAR>
0

>  <SCORE.INTER.ROT>
6

>  <SCORE.INTER.SOLV>
16.9516

>  <SCORE.INTER.VDW>
-17.777

>  <SCORE.INTER.norm>
-0.219021

>  <SCORE.INTRA>
-4.36995

>  <SCORE.INTRA.DIHEDRAL>
-12.4351

>  <SCORE.INTRA.DIHEDRAL.0>
20.6841

>  <SCORE.INTRA.POLAR>
0

>  <SCORE.INTRA.POLAR.0>
0

>  <SCORE.INTRA.REPUL>
0

>  <SCORE.INTRA.REPUL.0>
0

>  <SCORE.INTRA.SOLV>
0.512943

>  <SCORE.INTRA.SOLV.lig_0>
-64.6797

>  <SCORE.INTRA.VDW>
1.59111

>  <SCORE.INTRA.VDW.0>
-4.11825

>  <SCORE.INTRA.norm>
-0.140966

>  <SCORE.RESTR>
0

>  <SCORE.RESTR.CAVITY>
0

>  <SCORE.RESTR.norm>
0

>  <SCORE.SYSTEM>
0

>  <SCORE.SYSTEM.CONST>
0

>  <SCORE.SYSTEM.DIHEDRAL>
0

>  <SCORE.SYSTEM.SOLV>
0

>  <SCORE.SYSTEM.norm>
0

>  <SCORE.heavy>
31

>  <SCORE.norm>
-0.359987

>  <RMSD>
2.994

$$$$
ligand
 OpenBabel11021811493D
libRbt.so/2013.1/901 2013/11/27
 31 33  0  0  0  0  0  0  0  0999 V2000
   -5.0503   15.6580    6.3518 C   0  0  2  0  0  0  0  0  0  0  0  0
   -4.8946   14.2447    6.2650 O   0  0  0  0  0  0  0  0  0  0  0  0
   -4.2233   13.0510   10.2909 C   0  0  2  0  0  0  0  0  0  0  0  0
   -4.1438   12.2181   11.4515 N   0  0  0  0  0  0  0  0  0  0  0  0
   -1.5129   11.7265   10.8129 C   0  0  2  0  0  0  0  0  0  0  0  0
   -5.2667   16.1792    4.8728 C   0  0  2  0  0  0  0  0  0  0  0  0
   -6.4512   15.5334    4.3167 N   0  0  0  0  0  0  0  0  0  0  0  0
   -5.7136   13.0185    9.7544 C   0  0  0  0  0  0  0  0  0  0  0  0
    0.0268   11.9638   10.9206 C   0  0  2  0  0  0  0  0  0  0  0  0
    0.2539   13.3486   11.0736 O   0  0  0  0  0  0  0  0  0  0  0  0
   -3.9942   15.8682    3.9879 C   0  0  0  0  0  0  0  0  0  0  0  0
   -5.8042   13.9323    8.4752 C   0  0  2  0  0  0  0  0  0  0  0  0
   -7.1869   13.9017    7.9683 N   0  0  0  0  0  0  0  0  0  0  0  0
    0.6761   11.4292    9.5878 C   0  0  1  0  0  0  0  0  0  0  0  0
    2.1599   11.6487    9.6238 N   0  0  0  0  0  0  0  0  0  0  0  0
   -2.6396   16.0471    4.7958 C   0  0  0  0  0  0  0  0  0  0  0  0
   -4.7972   13.4021    7.3614 C   0  0  2  0  0  0  0  0  0  0  0  0
    0.3683    9.8314    9.4844 C   0  0  1  0  0  0  0  0  0  0  0  0
    0.8742    9.1127   10.5966 O   0  0  0  0  0  0  0  0  0  0  0  0
   -2.6458   16.2350    6.1420 C   0  0  2  0  0  0  0  0  0  0  0  0
   -3.8563   16.2834    6.9061 O   0  0  0  0  0  0  0  0  0  0  0  0
   -3.3278   13.4356    7.9234 C   0  0  2  0  0  0  0  0  0  0  0  0
   -2.4232   12.9441    6.9112 O   0  0  0  0  0  0  0  0  0  0  0  0
   -1.1757    9.5888    9.4477 C   0  0  0  0  0  0  0  0  0  0  0  0
   -1.8106   10.2485   10.6434 O   0  0  0  0  0  0  0  0  0  0  0  0
   -1.3677   16.4148    6.9634 C   0  0  0  0  0  0  0  0  0  0  0  0
   -1.7256   16.3803    8.3652 O   0  0  0  0  0  0  0  0  0  0  0  0
   -3.2516   12.5003    9.1863 C   0  0  1  0  0  0  0  0  0  0  0  0
   -1.9419   12.5223    9.6606 O   0  0  0  0  0  0  0  0  0  0  0  0
    0.9393    9.1369    8.2246 C   0  0  0  0  0  0  0  0  0  0  0  0
    2.8049   12.0238    8.3488 C   0  0  0  0  0  0  0  0  0  0  0  0
  1  2  1  6  0  0  0
  1  6  1  0  0  0  0
  1 21  1  0  0  0  0
  3  4  1  1  0  0  0
  3  8  1  0  0  0  0
  3 28  1  0  0  0  0
  5  9  1  0  0  0  0
  5 25  1  0  0  0  0
  5 29  1  6  0  0  0
  6  7  1  6  0  0  0
  6 11  1  0  0  0  0
  8 12  1  0  0  0  0
  9 10  1  6  0  0  0
  9 14  1  0  0  0  0
 11 16  1  0  0  0  0
 12 13  1  6  0  0  0
 12 17  1  0  0  0  0
 14 15  1  1  0  0  0
 14 18  1  0  0  0  0
 15 31  1  0  0  0  0
 16 20  1  0  0  0  0
 17  2  1  6  0  0  0
 17 22  1  0  0  0  0
 18 19  1  1  0  0  0
 18 24  1  0  0  0  0
 18 30  1  0  0  0  0
 20 21  1  0  0  0  0
 20 26  1  6  0  0  0
 22 23  1  6  0  0  0
 22 28  1  0  0  0  0
 24 25  1  0  0  0  0
 26 27  1  0  0  0  0
 28 29  1  1  0  0  0
M  END
>  <CHROM.1>
-174.24965056,175.64872408,-143.03594208,38.67254880,-171.22137862,62.97677337
-2.44240978,13.21129046,8.29241905,2.27601227,0.12110453,-0.79897955

>  <Name>
ligand

>  <RI>
0

>  <Rbt.Current_Directory>
/home/itssahil/PROJECTS/Mol_Feturizer/New_Systems/rnas/4GPX

>  <Rbt.Executable>
rbdock ($Id: //depot/dev/client3/rdock/2013.1/src/exe/rbdock.cxx#4 $)

>  <Rbt.Library>
libRbt.so (2013.1, Build901 2013/11/27)

>  <Rbt.Parameter_File>
/export/apps/rDock/src/rDock_2013.1_src/data/scripts/dock_solv.prm

>  <Rbt.Receptor>
prm/pocket_docking_5.prm

>  <SCORE>
-11.4651

>  <SCORE.INTER>
-5.6385

>  <SCORE.INTER.CONST>
1

>  <SCORE.INTER.POLAR>
0

>  <SCORE.INTER.ROT>
6

>  <SCORE.INTER.SOLV>
17.1101

>  <SCORE.INTER.VDW>
-17.0624

>  <SCORE.INTER.norm>
-0.181887

>  <SCORE.INTRA>
-5.82658

>  <SCORE.INTRA.DIHEDRAL>
-14.0378

>  <SCORE.INTRA.DIHEDRAL.0>
20.6841

>  <SCORE.INTRA.POLAR>
0

>  <SCORE.INTRA.POLAR.0>
0

>  <SCORE.INTRA.REPUL>
0

>  <SCORE.INTRA.REPUL.0>
0

>  <SCORE.INTRA.SOLV>
0.138511

>  <SCORE.INTRA.SOLV.lig_0>
-64.6797

>  <SCORE.INTRA.VDW>
1.12306

>  <SCORE.INTRA.VDW.0>
-4.11825

>  <SCORE.INTRA.norm>
-0.187954

>  <SCORE.RESTR>
0

>  <SCORE.RESTR.CAVITY>
0

>  <SCORE.RESTR.norm>
0

>  <SCORE.SYSTEM>
0

>  <SCORE.SYSTEM.CONST>
0

>  <SCORE.SYSTEM.DIHEDRAL>
0

>  <SCORE.SYSTEM.SOLV>
0

>  <SCORE.SYSTEM.norm>
0

>  <SCORE.heavy>
31

>  <SCORE.norm>
-0.369841

>  <RMSD>
3.017

$$$$
ligand
 OpenBabel11021811493D
libRbt.so/2013.1/901 2013/11/27
 31 33  0  0  0  0  0  0  0  0999 V2000
   -1.7982   15.7918    5.1514 C   0  0  2  0  0  0  0  0  0  0  0  0
   -2.0608   16.3162    6.4496 O   0  0  0  0  0  0  0  0  0  0  0  0
   -1.7274   14.8259   10.4184 C   0  0  2  0  0  0  0  0  0  0  0  0
   -2.0065   14.0648   11.5973 N   0  0  0  0  0  0  0  0  0  0  0  0
   -0.2462   12.1617   10.6815 C   0  0  2  0  0  0  0  0  0  0  0  0
   -1.2386   16.9929    4.2851 C   0  0  2  0  0  0  0  0  0  0  0  0
   -0.0294   17.5059    4.9206 N   0  0  0  0  0  0  0  0  0  0  0  0
   -3.0120   15.6815   10.0610 C   0  0  0  0  0  0  0  0  0  0  0  0
    1.2494   11.7360   10.8256 C   0  0  2  0  0  0  0  0  0  0  0  0
    2.0245   12.8975   11.0321 O   0  0  0  0  0  0  0  0  0  0  0  0
   -2.3271   18.1318    4.1552 C   0  0  0  0  0  0  0  0  0  0  0  0
   -2.7093   16.5188    8.7622 C   0  0  2  0  0  0  0  0  0  0  0  0
   -3.9025   17.3126    8.4217 N   0  0  0  0  0  0  0  0  0  0  0  0
    1.6605   11.0135    9.4867 C   0  0  1  0  0  0  0  0  0  0  0  0
    3.1001   10.5967    9.5576 N   0  0  0  0  0  0  0  0  0  0  0  0
   -3.7958   17.5483    4.0074 C   0  0  0  0  0  0  0  0  0  0  0  0
   -2.3388   15.5388    7.5631 C   0  0  2  0  0  0  0  0  0  0  0  0
    0.7221    9.6906    9.3208 C   0  0  1  0  0  0  0  0  0  0  0  0
    0.8498    8.7993   10.4157 O   0  0  0  0  0  0  0  0  0  0  0  0
   -4.0469   16.2257    4.1955 C   0  0  2  0  0  0  0  0  0  0  0  0
   -3.0181   15.2881    4.5333 O   0  0  0  0  0  0  0  0  0  0  0  0
   -1.0674   14.6953    7.9482 C   0  0  2  0  0  0  0  0  0  0  0  0
   -0.7447   13.8029    6.8600 O   0  0  0  0  0  0  0  0  0  0  0  0
   -0.7817   10.1114    9.2472 C   0  0  0  0  0  0  0  0  0  0  0  0
   -1.1237   10.9451   10.4539 O   0  0  0  0  0  0  0  0  0  0  0  0
   -5.4438   15.6162    4.0617 C   0  0  0  0  0  0  0  0  0  0  0  0
   -5.8317   15.0932    5.3541 O   0  0  0  0  0  0  0  0  0  0  0  0
   -1.3962   13.8494    9.2334 C   0  0  1  0  0  0  0  0  0  0  0  0
   -0.2708   13.0921    9.5506 O   0  0  0  0  0  0  0  0  0  0  0  0
    0.9936    8.8533    8.0476 C   0  0  0  0  0  0  0  0  0  0  0  0
    3.9828   11.0775    8.4751 C   0  0  0  0  0  0  0  0  0  0  0  0
  1  2  1  1  0  0  0
  1  6  1  0  0  0  0
  1 21  1  0  0  0  0
  3  4  1  1  0  0  0
  3  8  1  0  0  0  0
  3 28  1  0  0  0  0
  5  9  1  0  0  0  0
  5 25  1  0  0  0  0
  5 29  1  6  0  0  0
  6  7  1  1  0  0  0
  6 11  1  0  0  0  0
  8 12  1  0  0  0  0
  9 10  1  6  0  0  0
  9 14  1  0  0  0  0
 11 16  1  0  0  0  0
 12 13  1  6  0  0  0
 12 17  1  0  0  0  0
 14 15  1  1  0  0  0
 14 18  1  0  0  0  0
 15 31  1  0  0  0  0
 16 20  1  0  0  0  0
 17  2  1  6  0  0  0
 17 22  1  0  0  0  0
 18 19  1  1  0  0  0
 18 24  1  0  0  0  0
 18 30  1  0  0  0  0
 20 21  1  0  0  0  0
 20 26  1  6  0  0  0
 22 23  1  6  0  0  0
 22 28  1  0  0  0  0
 24 25  1  0  0  0  0
 26 27  1  0  0  0  0
 28 29  1  1  0  0  0
M  END
>  <CHROM.1>
-168.21189977,-170.04718823,-124.60690843,-174.48533070,-116.48858965,62.78180357
-1.16590260,13.89192536,7.90326986,-2.33573321,-0.74060405,1.88660841

>  <Name>
ligand

>  <RI>
0

>  <Rbt.Current_Directory>
/home/itssahil/PROJECTS/Mol_Feturizer/New_Systems/rnas/4GPX

>  <Rbt.Executable>
rbdock ($Id: //depot/dev/client3/rdock/2013.1/src/exe/rbdock.cxx#4 $)

>  <Rbt.Library>
libRbt.so (2013.1, Build901 2013/11/27)

>  <Rbt.Parameter_File>
/export/apps/rDock/src/rDock_2013.1_src/data/scripts/dock_solv.prm

>  <Rbt.Receptor>
prm/pocket_docking_5.prm

>  <SCORE>
-17.929

>  <SCORE.INTER>
-10.0076

>  <SCORE.INTER.CONST>
1

>  <SCORE.INTER.POLAR>
0

>  <SCORE.INTER.ROT>
6

>  <SCORE.INTER.SOLV>
13.947

>  <SCORE.INTER.VDW>
-18.9207

>  <SCORE.INTER.norm>
-0.322826

>  <SCORE.INTRA>
-7.92137

>  <SCORE.INTRA.DIHEDRAL>
-16.4646

>  <SCORE.INTRA.DIHEDRAL.0>
20.6841

>  <SCORE.INTRA.POLAR>
0

>  <SCORE.INTRA.POLAR.0>
0

>  <SCORE.INTRA.REPUL>
0

>  <SCORE.INTRA.REPUL.0>
0

>  <SCORE.INTRA.SOLV>
-1.4829

>  <SCORE.INTRA.SOLV.lig_0>
-64.6797

>  <SCORE.INTRA.VDW>
1.05236

>  <SCORE.INTRA.VDW.0>
-4.11825

>  <SCORE.INTRA.norm>
-0.255528

>  <SCORE.RESTR>
0

>  <SCORE.RESTR.CAVITY>
0

>  <SCORE.RESTR.norm>
0

>  <SCORE.SYSTEM>
0

>  <SCORE.SYSTEM.CONST>
0

>  <SCORE.SYSTEM.DIHEDRAL>
0

>  <SCORE.SYSTEM.SOLV>
0

>  <SCORE.SYSTEM.norm>
0

>  <SCORE.heavy>
31

>  <SCORE.norm>
-0.578354

>  <RMSD>
3.019

$$$$
ligand
 OpenBabel11021811493D
libRbt.so/2013.1/901 2013/11/27
 31 33  0  0  0  0  0  0  0  0999 V2000
   -5.5311   14.1806    6.1454 C   0  0  2  0  0  0  0  0  0  0  0  0
   -5.4052   12.8661    6.6798 O   0  0  0  0  0  0  0  0  0  0  0  0
   -3.6180   13.4954   10.4869 C   0  0  2  0  0  0  0  0  0  0  0  0
   -3.2058   13.2547   11.8356 N   0  0  0  0  0  0  0  0  0  0  0  0
   -0.8348   11.9806   10.7522 C   0  0  2  0  0  0  0  0  0  0  0  0
   -5.9999   14.0129    4.6427 C   0  0  2  0  0  0  0  0  0  0  0  0
   -7.2692   13.2934    4.6250 N   0  0  0  0  0  0  0  0  0  0  0  0
   -5.1984   13.4033   10.4240 C   0  0  0  0  0  0  0  0  0  0  0  0
    0.6631   12.2138   10.3772 C   0  0  2  0  0  0  0  0  0  0  0  0
    0.8512   13.5913   10.1330 O   0  0  0  0  0  0  0  0  0  0  0  0
   -4.9057   13.2350    3.8083 C   0  0  0  0  0  0  0  0  0  0  0  0
   -5.6556   13.6651    8.9401 C   0  0  2  0  0  0  0  0  0  0  0  0
   -7.1243   13.5753    8.8742 N   0  0  0  0  0  0  0  0  0  0  0  0
    0.9579   11.3654    9.0822 C   0  0  1  0  0  0  0  0  0  0  0  0
    2.3836   11.5650    8.6596 N   0  0  0  0  0  0  0  0  0  0  0  0
   -3.4285   13.6337    4.2311 C   0  0  0  0  0  0  0  0  0  0  0  0
   -4.9936   12.5865    7.9737 C   0  0  2  0  0  0  0  0  0  0  0  0
    0.7162    9.7943    9.4447 C   0  0  1  0  0  0  0  0  0  0  0  0
    1.5382    9.3559   10.5132 O   0  0  0  0  0  0  0  0  0  0  0  0
   -3.1962   14.3955    5.3326 C   0  0  2  0  0  0  0  0  0  0  0  0
   -4.2529   14.8803    6.1692 O   0  0  0  0  0  0  0  0  0  0  0  0
   -3.4262   12.6932    8.0631 C   0  0  2  0  0  0  0  0  0  0  0  0
   -2.8347   11.7055    7.1919 O   0  0  0  0  0  0  0  0  0  0  0  0
   -0.7664    9.5730    9.8883 C   0  0  0  0  0  0  0  0  0  0  0  0
   -1.0905   10.5096   11.0222 O   0  0  0  0  0  0  0  0  0  0  0  0
   -1.7920   14.8075    5.7788 C   0  0  0  0  0  0  0  0  0  0  0  0
   -0.9608   14.9210    4.5995 O   0  0  0  0  0  0  0  0  0  0  0  0
   -2.9872   12.4066    9.5466 C   0  0  1  0  0  0  0  0  0  0  0  0
   -1.5975   12.4830    9.6072 O   0  0  0  0  0  0  0  0  0  0  0  0
    0.9636    8.8094    8.2765 C   0  0  0  0  0  0  0  0  0  0  0  0
    2.6300   11.7164    7.2110 C   0  0  0  0  0  0  0  0  0  0  0  0
  1  2  1  6  0  0  0
  1  6  1  0  0  0  0
  1 21  1  0  0  0  0
  3  4  1  1  0  0  0
  3  8  1  0  0  0  0
  3 28  1  0  0  0  0
  5  9  1  0  0  0  0
  5 25  1  0  0  0  0
  5 29  1  6  0  0  0
  6  7  1  1  0  0  0
  6 11  1  0  0  0  0
  8 12  1  0  0  0  0
  9 10  1  6  0  0  0
  9 14  1  0  0  0  0
 11 16  1  0  0  0  0
 12 13  1  1  0  0  0
 12 17  1  0  0  0  0
 14 15  1  1  0  0  0
 14 18  1  0  0  0  0
 15 31  1  0  0  0  0
 16 20  1  0  0  0  0
 17  2  1  6  0  0  0
 17 22  1  0  0  0  0
 18 19  1  1  0  0  0
 18 24  1  0  0  0  0
 18 30  1  0  0  0  0
 20 21  1  0  0  0  0
 20 26  1  6  0  0  0
 22 23  1  6  0  0  0
 22 28  1  0  0  0  0
 24 25  1  0  0  0  0
 26 27  1  0  0  0  0
 28 29  1  6  0  0  0
M  END
>  <CHROM.1>
179.01905834,177.79325817,-138.53798192,39.59437594,30.48348066,75.36800251
-2.38245861,12.56969062,8.06695810,2.53189840,0.28131681,-1.28636261

>  <Name>
ligand

>  <RI>
0

>  <Rbt.Current_Directory>
/home/itssahil/PROJECTS/Mol_Feturizer/New_Systems/rnas/4GPX

>  <Rbt.Executable>
rbdock ($Id: //depot/dev/client3/rdock/2013.1/src/exe/rbdock.cxx#4 $)

>  <Rbt.Library>
libRbt.so (2013.1, Build901 2013/11/27)

>  <Rbt.Parameter_File>
/export/apps/rDock/src/rDock_2013.1_src/data/scripts/dock_solv.prm

>  <Rbt.Receptor>
prm/pocket_docking_4.prm

>  <SCORE>
-11.6

>  <SCORE.INTER>
-5.11024

>  <SCORE.INTER.CONST>
1

>  <SCORE.INTER.POLAR>
0

>  <SCORE.INTER.ROT>
6

>  <SCORE.INTER.SOLV>
15.6887

>  <SCORE.INTER.VDW>
-16.2364

>  <SCORE.INTER.norm>
-0.164846

>  <SCORE.INTRA>
-6.48978

>  <SCORE.INTRA.DIHEDRAL>
-14.0719

>  <SCORE.INTRA.DIHEDRAL.0>
20.6841

>  <SCORE.INTRA.POLAR>
0

>  <SCORE.INTRA.POLAR.0>
0

>  <SCORE.INTRA.REPUL>
0

>  <SCORE.INTRA.REPUL.0>
0

>  <SCORE.INTRA.SOLV>
-1.0287

>  <SCORE.INTRA.SOLV.lig_0>
-64.6797

>  <SCORE.INTRA.VDW>
1.06053

>  <SCORE.INTRA.VDW.0>
-4.11825

>  <SCORE.INTRA.norm>
-0.209348

>  <SCORE.RESTR>
0

>  <SCORE.RESTR.CAVITY>
0

>  <SCORE.RESTR.norm>
0

>  <SCORE.SYSTEM>
0

>  <SCORE.SYSTEM.CONST>
0

>  <SCORE.SYSTEM.DIHEDRAL>
0

>  <SCORE.SYSTEM.SOLV>
0

>  <SCORE.SYSTEM.norm>
0

>  <SCORE.heavy>
31

>  <SCORE.norm>
-0.374194

>  <RMSD>
3.021

$$$$
ligand
 OpenBabel11021811493D
libRbt.so/2013.1/901 2013/11/27
 31 33  0  0  0  0  0  0  0  0999 V2000
   -1.8530   15.7625    5.2253 C   0  0  2  0  0  0  0  0  0  0  0  0
   -2.0437   16.3589    6.5048 O   0  0  0  0  0  0  0  0  0  0  0  0
   -1.8695   15.1218   10.5697 C   0  0  2  0  0  0  0  0  0  0  0  0
   -2.1967   14.4369   11.7825 N   0  0  0  0  0  0  0  0  0  0  0  0
   -0.4540   12.3533   10.9549 C   0  0  2  0  0  0  0  0  0  0  0  0
   -1.2706   16.8937    4.2834 C   0  0  2  0  0  0  0  0  0  0  0  0
   -0.0167   17.3775    4.8516 N   0  0  0  0  0  0  0  0  0  0  0  0
   -3.1363   15.9545   10.1094 C   0  0  0  0  0  0  0  0  0  0  0  0
    1.0079   11.8302   11.1218 C   0  0  2  0  0  0  0  0  0  0  0  0
    1.8444   12.9310   11.4068 O   0  0  0  0  0  0  0  0  0  0  0  0
   -2.3094   18.0761    4.1358 C   0  0  0  0  0  0  0  0  0  0  0  0
   -2.7806   16.7078    8.7731 C   0  0  2  0  0  0  0  0  0  0  0  0
   -3.9568   17.4797    8.3371 N   0  0  0  0  0  0  0  0  0  0  0  0
    1.4176   11.1469    9.7621 C   0  0  1  0  0  0  0  0  0  0  0  0
    2.8266   10.6395    9.8546 N   0  0  0  0  0  0  0  0  0  0  0  0
   -3.8079   17.5571    4.0667 C   0  0  0  0  0  0  0  0  0  0  0  0
   -2.3673   15.6536    7.6535 C   0  0  2  0  0  0  0  0  0  0  0  0
    0.4073    9.8934    9.5049 C   0  0  1  0  0  0  0  0  0  0  0  0
    0.4461    8.9459   10.5586 O   0  0  0  0  0  0  0  0  0  0  0  0
   -4.1127   16.2582    4.3271 C   0  0  2  0  0  0  0  0  0  0  0  0
   -3.1166   15.2894    4.6744 O   0  0  0  0  0  0  0  0  0  0  0  0
   -1.1148   14.8348    8.1401 C   0  0  2  0  0  0  0  0  0  0  0  0
   -0.7534   13.8751    7.1238 O   0  0  0  0  0  0  0  0  0  0  0  0
   -1.0654   10.4088    9.4081 C   0  0  0  0  0  0  0  0  0  0  0  0
   -1.3953   11.2049   10.6432 O   0  0  0  0  0  0  0  0  0  0  0  0
   -5.5401   15.7106    4.2708 C   0  0  0  0  0  0  0  0  0  0  0  0
   -5.5650   14.6172    3.3231 O   0  0  0  0  0  0  0  0  0  0  0  0
   -1.4961   14.0721    9.4624 C   0  0  1  0  0  0  0  0  0  0  0  0
   -0.3864   13.3351    9.8702 O   0  0  0  0  0  0  0  0  0  0  0  0
    0.6687    9.1012    8.2011 C   0  0  0  0  0  0  0  0  0  0  0  0
    3.7067   10.9149    8.7005 C   0  0  0  0  0  0  0  0  0  0  0  0
  1  2  1  1  0  0  0
  1  6  1  0  0  0  0
  1 21  1  0  0  0  0
  3  4  1  1  0  0  0
  3  8  1  0  0  0  0
  3 28  1  0  0  0  0
  5  9  1  0  0  0  0
  5 25  1  0  0  0  0
  5 29  1  6  0  0  0
  6  7  1  1  0  0  0
  6 11  1  0  0  0  0
  8 12  1  0  0  0  0
  9 10  1  6  0  0  0
  9 14  1  0  0  0  0
 11 16  1  0  0  0  0
 12 13  1  6  0  0  0
 12 17  1  0  0  0  0
 14 15  1  1  0  0  0
 14 18  1  0  0  0  0
 15 31  1  0  0  0  0
 16 20  1  0  0  0  0
 17  2  1  6  0  0  0
 17 22  1  0  0  0  0
 18 19  1  1  0  0  0
 18 24  1  0  0  0  0
 18 30  1  0  0  0  0
 20 21  1  0  0  0  0
 20 26  1  6  0  0  0
 22 23  1  6  0  0  0
 22 28  1  0  0  0  0
 24 25  1  0  0  0  0
 26 27  1  0  0  0  0
 28 29  1  1  0  0  0
M  END
>  <CHROM.1>
-170.81660456,-177.14656534,-135.17616405,-168.45967558,122.74924691,70.54980205
-1.29257985,13.98440042,7.97757221,-2.54369032,-0.94197550,1.51971957

>  <Name>
ligand

>  <RI>
0

>  <Rbt.Current_Directory>
/home/itssahil/PROJECTS/Mol_Feturizer/New_Systems/rnas/4GPX

>  <Rbt.Executable>
rbdock ($Id: //depot/dev/client3/rdock/2013.1/src/exe/rbdock.cxx#4 $)

>  <Rbt.Library>
libRbt.so (2013.1, Build901 2013/11/27)

>  <Rbt.Parameter_File>
/export/apps/rDock/src/rDock_2013.1_src/data/scripts/dock_solv.prm

>  <Rbt.Receptor>
prm/pocket_docking_7.prm

>  <SCORE>
-18.2906

>  <SCORE.INTER>
-9.98088

>  <SCORE.INTER.CONST>
1

>  <SCORE.INTER.POLAR>
0

>  <SCORE.INTER.ROT>
6

>  <SCORE.INTER.SOLV>
14.0021

>  <SCORE.INTER.VDW>
-18.9213

>  <SCORE.INTER.norm>
-0.321964

>  <SCORE.INTRA>
-8.30974

>  <SCORE.INTRA.DIHEDRAL>
-16.3413

>  <SCORE.INTRA.DIHEDRAL.0>
20.6841

>  <SCORE.INTRA.POLAR>
0

>  <SCORE.INTRA.POLAR.0>
0

>  <SCORE.INTRA.REPUL>
0

>  <SCORE.INTRA.REPUL.0>
0

>  <SCORE.INTRA.SOLV>
-1.62755

>  <SCORE.INTRA.SOLV.lig_0>
-64.6797

>  <SCORE.INTRA.VDW>
0.674692

>  <SCORE.INTRA.VDW.0>
-4.11825

>  <SCORE.INTRA.norm>
-0.268056

>  <SCORE.RESTR>
0

>  <SCORE.RESTR.CAVITY>
0

>  <SCORE.RESTR.norm>
0

>  <SCORE.SYSTEM>
0

>  <SCORE.SYSTEM.CONST>
0

>  <SCORE.SYSTEM.DIHEDRAL>
0

>  <SCORE.SYSTEM.SOLV>
0

>  <SCORE.SYSTEM.norm>
0

>  <SCORE.heavy>
31

>  <SCORE.norm>
-0.59002

>  <RMSD>
3.035

$$$$
ligand
 OpenBabel11021811493D
libRbt.so/2013.1/901 2013/11/27
 31 33  0  0  0  0  0  0  0  0999 V2000
   -1.8845   15.7379    5.2262 C   0  0  2  0  0  0  0  0  0  0  0  0
   -2.0638   16.3533    6.4984 O   0  0  0  0  0  0  0  0  0  0  0  0
   -1.8252   15.1513   10.5705 C   0  0  2  0  0  0  0  0  0  0  0  0
   -2.1390   14.4841   11.7966 N   0  0  0  0  0  0  0  0  0  0  0  0
   -0.4555   12.3564   10.9491 C   0  0  2  0  0  0  0  0  0  0  0  0
   -1.2205   16.8269    4.2885 C   0  0  2  0  0  0  0  0  0  0  0  0
    0.0486   17.2417    4.8772 N   0  0  0  0  0  0  0  0  0  0  0  0
   -3.0857   16.0037   10.1293 C   0  0  0  0  0  0  0  0  0  0  0  0
    1.0056   11.8293   11.1103 C   0  0  2  0  0  0  0  0  0  0  0  0
    1.8478   12.9292   11.3818 O   0  0  0  0  0  0  0  0  0  0  0  0
   -2.1865   18.0660    4.1145 C   0  0  0  0  0  0  0  0  0  0  0  0
   -2.7447   16.7375    8.7784 C   0  0  2  0  0  0  0  0  0  0  0  0
   -3.9154   17.5276    8.3602 N   0  0  0  0  0  0  0  0  0  0  0  0
    1.4041   11.1348    9.7529 C   0  0  1  0  0  0  0  0  0  0  0  0
    2.8118   10.6231    9.8399 N   0  0  0  0  0  0  0  0  0  0  0  0
   -3.7110   17.6337    4.0205 C   0  0  0  0  0  0  0  0  0  0  0  0
   -2.3758   15.6651    7.6606 C   0  0  2  0  0  0  0  0  0  0  0  0
    0.3876    9.8830    9.5114 C   0  0  1  0  0  0  0  0  0  0  0  0
    0.4300    8.9431   10.5717 O   0  0  0  0  0  0  0  0  0  0  0  0
   -4.0949   16.3565    4.2829 C   0  0  2  0  0  0  0  0  0  0  0  0
   -3.1629   15.3344    4.6547 O   0  0  0  0  0  0  0  0  0  0  0  0
   -1.1287   14.8271    8.1282 C   0  0  2  0  0  0  0  0  0  0  0  0
   -0.8075   13.8512    7.1138 O   0  0  0  0  0  0  0  0  0  0  0  0
   -1.0838   10.4030    9.4204 C   0  0  0  0  0  0  0  0  0  0  0  0
   -1.4028   11.2091   10.6518 O   0  0  0  0  0  0  0  0  0  0  0  0
   -5.5503   15.8916    4.2033 C   0  0  0  0  0  0  0  0  0  0  0  0
   -5.6262   14.8151    3.2390 O   0  0  0  0  0  0  0  0  0  0  0  0
   -1.4956   14.0843    9.4657 C   0  0  1  0  0  0  0  0  0  0  0  0
   -0.3916   13.3301    9.8569 O   0  0  0  0  0  0  0  0  0  0  0  0
    0.6378    9.0805    8.2118 C   0  0  0  0  0  0  0  0  0  0  0  0
    3.7027   10.9395    8.7049 C   0  0  0  0  0  0  0  0  0  0  0  0
  1  2  1  1  0  0  0
  1  6  1  0  0  0  0
  1 21  1  0  0  0  0
  3  4  1  1  0  0  0
  3  8  1  0  0  0  0
  3 28  1  0  0  0  0
  5  9  1  0  0  0  0
  5 25  1  0  0  0  0
  5 29  1  6  0  0  0
  6  7  1  1  0  0  0
  6 11  1  0  0  0  0
  8 12  1  0  0  0  0
  9 10  1  6  0  0  0
  9 14  1  0  0  0  0
 11 16  1  0  0  0  0
 12 13  1  6  0  0  0
 12 17  1  0  0  0  0
 14 15  1  1  0  0  0
 14 18  1  0  0  0  0
 15 31  1  0  0  0  0
 16 20  1  0  0  0  0
 17  2  1  6  0  0  0
 17 22  1  0  0  0  0
 18 19  1  1  0  0  0
 18 24  1  0  0  0  0
 18 30  1  0  0  0  0
 20 21  1  0  0  0  0
 20 26  1  6  0  0  0
 22 23  1  6  0  0  0
 22 28  1  0  0  0  0
 24 25  1  0  0  0  0
 26 27  1  0  0  0  0
 28 29  1  1  0  0  0
M  END
>  <CHROM.1>
-167.05518430,-176.04250671,-132.51012599,-169.84215305,121.45274413,70.77994853
-1.28706712,14.00141725,7.96974796,-2.53869244,-0.94456155,1.52348998

>  <Name>
ligand

>  <RI>
0

>  <Rbt.Current_Directory>
/home/itssahil/PROJECTS/Mol_Feturizer/New_Systems/rnas/4GPX

>  <Rbt.Executable>
rbdock ($Id: //depot/dev/client3/rdock/2013.1/src/exe/rbdock.cxx#4 $)

>  <Rbt.Library>
libRbt.so (2013.1, Build901 2013/11/27)

>  <Rbt.Parameter_File>
/export/apps/rDock/src/rDock_2013.1_src/data/scripts/dock_solv.prm

>  <Rbt.Receptor>
prm/pocket_docking_8.prm

>  <SCORE>
-18.2896

>  <SCORE.INTER>
-10.1845

>  <SCORE.INTER.CONST>
1

>  <SCORE.INTER.POLAR>
0

>  <SCORE.INTER.ROT>
6

>  <SCORE.INTER.SOLV>
13.8483

>  <SCORE.INTER.VDW>
-19.0057

>  <SCORE.INTER.norm>
-0.328532

>  <SCORE.INTRA>
-8.10512

>  <SCORE.INTRA.DIHEDRAL>
-15.9865

>  <SCORE.INTRA.DIHEDRAL.0>
20.6841

>  <SCORE.INTRA.POLAR>
0

>  <SCORE.INTRA.POLAR.0>
0

>  <SCORE.INTRA.REPUL>
0

>  <SCORE.INTRA.REPUL.0>
0

>  <SCORE.INTRA.SOLV>
-1.62286

>  <SCORE.INTRA.SOLV.lig_0>
-64.6797

>  <SCORE.INTRA.VDW>
0.699532

>  <SCORE.INTRA.VDW.0>
-4.11825

>  <SCORE.INTRA.norm>
-0.261456

>  <SCORE.RESTR>
0

>  <SCORE.RESTR.CAVITY>
0

>  <SCORE.RESTR.norm>
0

>  <SCORE.SYSTEM>
0

>  <SCORE.SYSTEM.CONST>
0

>  <SCORE.SYSTEM.DIHEDRAL>
0

>  <SCORE.SYSTEM.SOLV>
0

>  <SCORE.SYSTEM.norm>
0

>  <SCORE.heavy>
31

>  <SCORE.norm>
-0.589988

>  <RMSD>
3.058

$$$$
ligand
 OpenBabel11021811493D
libRbt.so/2013.1/901 2013/11/27
 31 33  0  0  0  0  0  0  0  0999 V2000
   -2.2285   15.2585    4.7028 C   0  0  2  0  0  0  0  0  0  0  0  0
   -2.4450   15.0090    6.0885 O   0  0  0  0  0  0  0  0  0  0  0  0
   -2.9433   11.4333    8.3358 C   0  0  2  0  0  0  0  0  0  0  0  0
   -2.6292   10.1967    8.9831 N   0  0  0  0  0  0  0  0  0  0  0  0
   -2.2392   11.5846   11.2531 C   0  0  2  0  0  0  0  0  0  0  0  0
   -2.1083   16.8286    4.5412 C   0  0  2  0  0  0  0  0  0  0  0  0
   -0.9968   17.3007    5.3602 N   0  0  0  0  0  0  0  0  0  0  0  0
   -2.6032   11.2907    6.7950 C   0  0  0  0  0  0  0  0  0  0  0  0
   -2.3523   12.2224   12.6740 C   0  0  2  0  0  0  0  0  0  0  0  0
   -3.5933   12.8891   12.7648 O   0  0  0  0  0  0  0  0  0  0  0  0
   -3.4572   17.5312    4.9725 C   0  0  0  0  0  0  0  0  0  0  0  0
   -2.9453   12.6511    6.0797 C   0  0  2  0  0  0  0  0  0  0  0  0
   -2.6258   12.5264    4.6472 N   0  0  0  0  0  0  0  0  0  0  0  0
   -1.1548   13.2353   12.8281 C   0  0  1  0  0  0  0  0  0  0  0  0
   -1.2215   13.8976   14.1727 N   0  0  0  0  0  0  0  0  0  0  0  0
   -4.7366   16.6964    4.5414 C   0  0  0  0  0  0  0  0  0  0  0  0
   -2.0985   13.8313    6.7323 C   0  0  2  0  0  0  0  0  0  0  0  0
    0.2354   12.3917   12.7092 C   0  0  1  0  0  0  0  0  0  0  0  0
    0.3306   11.3705   13.6876 O   0  0  0  0  0  0  0  0  0  0  0  0
   -4.6180   15.4324    4.0556 C   0  0  2  0  0  0  0  0  0  0  0  0
   -3.3505   14.7829    3.9035 O   0  0  0  0  0  0  0  0  0  0  0  0
   -2.4479   13.9441    8.2625 C   0  0  2  0  0  0  0  0  0  0  0  0
   -1.6687   15.0093    8.8480 O   0  0  0  0  0  0  0  0  0  0  0  0
    0.3166   11.6950   11.3121 C   0  0  0  0  0  0  0  0  0  0  0  0
   -0.9167   10.8563   11.1030 O   0  0  0  0  0  0  0  0  0  0  0  0
   -5.8200   14.5898    3.6249 C   0  0  0  0  0  0  0  0  0  0  0  0
   -5.8690   13.4133    4.4661 O   0  0  0  0  0  0  0  0  0  0  0  0
   -2.0787   12.5849    8.9636 C   0  0  1  0  0  0  0  0  0  0  0  0
   -2.3727   12.7056   10.3199 O   0  0  0  0  0  0  0  0  0  0  0  0
    1.5251   13.2375   12.8397 C   0  0  0  0  0  0  0  0  0  0  0  0
   -0.7785   15.3052   14.2403 C   0  0  0  0  0  0  0  0  0  0  0  0
  1  2  1  1  0  0  0
  1  6  1  0  0  0  0
  1 21  1  0  0  0  0
  3  4  1  1  0  0  0
  3  8  1  0  0  0  0
  3 28  1  0  0  0  0
  5  9  1  0  0  0  0
  5 25  1  0  0  0  0
  5 29  1  6  0  0  0
  6  7  1  1  0  0  0
  6 11  1  0  0  0  0
  8 12  1  0  0  0  0
  9 10  1  6  0  0  0
  9 14  1  0  0  0  0
 11 16  1  0  0  0  0
 12 13  1  6  0  0  0
 12 17  1  0  0  0  0
 14 15  1  1  0  0  0
 14 18  1  0  0  0  0
 15 31  1  0  0  0  0
 16 20  1  0  0  0  0
 17  2  1  6  0  0  0
 17 22  1  0  0  0  0
 18 19  1  1  0  0  0
 18 24  1  0  0  0  0
 18 30  1  0  0  0  0
 20 21  1  0  0  0  0
 20 26  1  6  0  0  0
 22 23  1  1  0  0  0
 22 28  1  0  0  0  0
 24 25  1  0  0  0  0
 26 27  1  0  0  0  0
 28 29  1  1  0  0  0
M  END
>  <CHROM.1>
-153.78686285,167.76553545,-145.49758946,-62.74288535,-118.15540014,56.75599190
-2.25676556,13.60083403,8.53961088,-2.34530333,1.09873857,2.59659323

>  <Name>
ligand

>  <RI>
0

>  <Rbt.Current_Directory>
/home/itssahil/PROJECTS/Mol_Feturizer/New_Systems/rnas/4GPX

>  <Rbt.Executable>
rbdock ($Id: //depot/dev/client3/rdock/2013.1/src/exe/rbdock.cxx#4 $)

>  <Rbt.Library>
libRbt.so (2013.1, Build901 2013/11/27)

>  <Rbt.Parameter_File>
/export/apps/rDock/src/rDock_2013.1_src/data/scripts/dock_solv.prm

>  <Rbt.Receptor>
prm/pocket_docking_4.prm

>  <SCORE>
-13.5055

>  <SCORE.INTER>
-9.67365

>  <SCORE.INTER.CONST>
1

>  <SCORE.INTER.POLAR>
0

>  <SCORE.INTER.ROT>
6

>  <SCORE.INTER.SOLV>
13.0662

>  <SCORE.INTER.VDW>
-18.4045

>  <SCORE.INTER.norm>
-0.312053

>  <SCORE.INTRA>
-3.83688

>  <SCORE.INTRA.DIHEDRAL>
-14.5571

>  <SCORE.INTRA.DIHEDRAL.0>
20.6841

>  <SCORE.INTRA.POLAR>
0

>  <SCORE.INTRA.POLAR.0>
0

>  <SCORE.INTRA.REPUL>
0

>  <SCORE.INTRA.REPUL.0>
0

>  <SCORE.INTRA.SOLV>
2.34071

>  <SCORE.INTRA.SOLV.lig_0>
-64.6797

>  <SCORE.INTRA.VDW>
2.27133

>  <SCORE.INTRA.VDW.0>
-4.11825

>  <SCORE.INTRA.norm>
-0.12377

>  <SCORE.RESTR>
0.00501972

>  <SCORE.RESTR.CAVITY>
0.00501972

>  <SCORE.RESTR.norm>
0.000161927

>  <SCORE.SYSTEM>
0

>  <SCORE.SYSTEM.CONST>
0

>  <SCORE.SYSTEM.DIHEDRAL>
0

>  <SCORE.SYSTEM.SOLV>
0

>  <SCORE.SYSTEM.norm>
0

>  <SCORE.heavy>
31

>  <SCORE.norm>
-0.435661

>  <RMSD>
3.059

$$$$
ligand
 OpenBabel11021811493D
libRbt.so/2013.1/901 2013/11/27
 31 33  0  0  0  0  0  0  0  0999 V2000
   -3.3861   14.6786    4.9700 C   0  0  2  0  0  0  0  0  0  0  0  0
   -3.7677   15.0959    6.2775 O   0  0  0  0  0  0  0  0  0  0  0  0
   -5.4629   13.8180    9.9622 C   0  0  2  0  0  0  0  0  0  0  0  0
   -5.8931   12.9512   11.0160 N   0  0  0  0  0  0  0  0  0  0  0  0
   -3.3987   13.3021   12.2011 C   0  0  2  0  0  0  0  0  0  0  0  0
   -2.6752   15.9193    4.2907 C   0  0  2  0  0  0  0  0  0  0  0  0
   -1.5220   16.2999    5.0998 N   0  0  0  0  0  0  0  0  0  0  0  0
   -6.1951   13.3816    8.6268 C   0  0  0  0  0  0  0  0  0  0  0  0
   -2.6550   14.1520   13.2796 C   0  0  2  0  0  0  0  0  0  0  0  0
   -3.2540   15.4292   13.3304 O   0  0  0  0  0  0  0  0  0  0  0  0
   -3.6860   17.1272    4.1565 C   0  0  0  0  0  0  0  0  0  0  0  0
   -5.7219   14.3320    7.4639 C   0  0  2  0  0  0  0  0  0  0  0  0
   -6.3954   13.9275    6.2179 N   0  0  0  0  0  0  0  0  0  0  0  0
   -1.1462   14.2533   12.8357 C   0  0  1  0  0  0  0  0  0  0  0  0
   -0.3808   15.0790   13.8274 N   0  0  0  0  0  0  0  0  0  0  0  0
   -5.1551   16.6469    3.7951 C   0  0  0  0  0  0  0  0  0  0  0  0
   -4.1419   14.2308    7.2940 C   0  0  2  0  0  0  0  0  0  0  0  0
   -0.5306   12.7440   12.7991 C   0  0  1  0  0  0  0  0  0  0  0  0
   -0.6275   12.0926   14.0543 O   0  0  0  0  0  0  0  0  0  0  0  0
   -5.4892   15.3297    3.8248 C   0  0  2  0  0  0  0  0  0  0  0  0
   -4.5513   14.3063    4.1780 O   0  0  0  0  0  0  0  0  0  0  0  0
   -3.4411   14.6597    8.6360 C   0  0  2  0  0  0  0  0  0  0  0  0
   -2.0099   14.5554    8.4764 O   0  0  0  0  0  0  0  0  0  0  0  0
   -1.3210   11.8723   11.7698 C   0  0  0  0  0  0  0  0  0  0  0  0
   -2.7885   11.9164   12.1051 O   0  0  0  0  0  0  0  0  0  0  0  0
   -6.8897   14.8181    3.4824 C   0  0  0  0  0  0  0  0  0  0  0  0
   -6.7523   13.5322    2.8329 O   0  0  0  0  0  0  0  0  0  0  0  0
   -3.9082   13.6859    9.7801 C   0  0  1  0  0  0  0  0  0  0  0  0
   -3.2647   14.0629   10.9567 O   0  0  0  0  0  0  0  0  0  0  0  0
    0.9567   12.6558   12.3797 C   0  0  0  0  0  0  0  0  0  0  0  0
   -0.5067   14.6931   15.2477 C   0  0  0  0  0  0  0  0  0  0  0  0
  1  2  1  1  0  0  0
  1  6  1  0  0  0  0
  1 21  1  0  0  0  0
  3  4  1  1  0  0  0
  3  8  1  0  0  0  0
  3 28  1  0  0  0  0
  5  9  1  0  0  0  0
  5 25  1  0  0  0  0
  5 29  1  6  0  0  0
  6  7  1  1  0  0  0
  6 11  1  0  0  0  0
  8 12  1  0  0  0  0
  9 10  1  6  0  0  0
  9 14  1  0  0  0  0
 11 16  1  0  0  0  0
 12 13  1  6  0  0  0
 12 17  1  0  0  0  0
 14 15  1  1  0  0  0
 14 18  1  0  0  0  0
 15 31  1  0  0  0  0
 16 20  1  0  0  0  0
 17  2  1  6  0  0  0
 17 22  1  0  0  0  0
 18 19  1  1  0  0  0
 18 24  1  0  0  0  0
 18 30  1  0  0  0  0
 20 21  1  0  0  0  0
 20 26  1  6  0  0  0
 22 23  1  6  0  0  0
 22 28  1  0  0  0  0
 24 25  1  0  0  0  0
 26 27  1  0  0  0  0
 28 29  1  1  0  0  0
M  END
>  <CHROM.1>
-164.79751783,-173.96226069,51.78054800,-105.47877446,145.71645171,65.87066817
-3.40435832,14.23058314,8.89349390,-1.97664670,0.33037032,1.88645409

>  <Name>
ligand

>  <RI>
0

>  <Rbt.Current_Directory>
/home/itssahil/PROJECTS/Mol_Feturizer/New_Systems/rnas/4GPX

>  <Rbt.Executable>
rbdock ($Id: //depot/dev/client3/rdock/2013.1/src/exe/rbdock.cxx#4 $)

>  <Rbt.Library>
libRbt.so (2013.1, Build901 2013/11/27)

>  <Rbt.Parameter_File>
/export/apps/rDock/src/rDock_2013.1_src/data/scripts/dock_solv.prm

>  <Rbt.Receptor>
prm/pocket_docking_6.prm

>  <SCORE>
-14.4836

>  <SCORE.INTER>
-13.2977

>  <SCORE.INTER.CONST>
1

>  <SCORE.INTER.POLAR>
0

>  <SCORE.INTER.ROT>
6

>  <SCORE.INTER.SOLV>
12.6311

>  <SCORE.INTER.VDW>
-20.6755

>  <SCORE.INTER.norm>
-0.428959

>  <SCORE.INTRA>
-1.18589

>  <SCORE.INTRA.DIHEDRAL>
-10.557

>  <SCORE.INTRA.DIHEDRAL.0>
20.6841

>  <SCORE.INTRA.POLAR>
0

>  <SCORE.INTRA.POLAR.0>
0

>  <SCORE.INTRA.REPUL>
0

>  <SCORE.INTRA.REPUL.0>
0

>  <SCORE.INTRA.SOLV>
2.76252

>  <SCORE.INTRA.SOLV.lig_0>
-64.6797

>  <SCORE.INTRA.VDW>
2.71137

>  <SCORE.INTRA.VDW.0>
-4.11825

>  <SCORE.INTRA.norm>
-0.0382544

>  <SCORE.RESTR>
0

>  <SCORE.RESTR.CAVITY>
0

>  <SCORE.RESTR.norm>
0

>  <SCORE.SYSTEM>
0

>  <SCORE.SYSTEM.CONST>
0

>  <SCORE.SYSTEM.DIHEDRAL>
0

>  <SCORE.SYSTEM.SOLV>
0

>  <SCORE.SYSTEM.norm>
0

>  <SCORE.heavy>
31

>  <SCORE.norm>
-0.467213

>  <RMSD>
3.080

$$$$
ligand
 OpenBabel11021811493D
libRbt.so/2013.1/901 2013/11/27
 31 33  0  0  0  0  0  0  0  0999 V2000
   -1.7124   15.9208    5.2632 C   0  0  2  0  0  0  0  0  0  0  0  0
   -1.9988   16.4784    6.5423 O   0  0  0  0  0  0  0  0  0  0  0  0
   -1.8824   15.0969   10.5625 C   0  0  2  0  0  0  0  0  0  0  0  0
   -2.2261   14.3685   11.7450 N   0  0  0  0  0  0  0  0  0  0  0  0
   -0.4533   12.3606   10.9100 C   0  0  2  0  0  0  0  0  0  0  0  0
   -1.1647   17.1058    4.3677 C   0  0  2  0  0  0  0  0  0  0  0  0
    0.0279   17.6593    5.0005 N   0  0  0  0  0  0  0  0  0  0  0  0
   -3.1437   15.9438   10.1135 C   0  0  0  0  0  0  0  0  0  0  0  0
    1.0098   11.8429   11.0833 C   0  0  2  0  0  0  0  0  0  0  0  0
    1.8419   12.9475   11.3662 O   0  0  0  0  0  0  0  0  0  0  0  0
   -2.2719   18.2204    4.1924 C   0  0  0  0  0  0  0  0  0  0  0  0
   -2.7698   16.7449    8.8105 C   0  0  2  0  0  0  0  0  0  0  0  0
   -3.9409   17.5303    8.3850 N   0  0  0  0  0  0  0  0  0  0  0  0
    1.4256   11.1555    9.7274 C   0  0  1  0  0  0  0  0  0  0  0  0
    2.8358   10.6530    9.8260 N   0  0  0  0  0  0  0  0  0  0  0  0
   -3.7282   17.6060    4.0463 C   0  0  0  0  0  0  0  0  0  0  0  0
   -2.3381   15.7320    7.6601 C   0  0  2  0  0  0  0  0  0  0  0  0
    0.4200    9.8977    9.4725 C   0  0  1  0  0  0  0  0  0  0  0  0
    0.4588    8.9547   10.5301 O   0  0  0  0  0  0  0  0  0  0  0  0
   -3.9576   16.2852    4.2709 C   0  0  2  0  0  0  0  0  0  0  0  0
   -2.9160   15.3770    4.6473 O   0  0  0  0  0  0  0  0  0  0  0  0
   -1.0913   14.8980    8.1357 C   0  0  2  0  0  0  0  0  0  0  0  0
   -0.7131   13.9758    7.0911 O   0  0  0  0  0  0  0  0  0  0  0  0
   -1.0541   10.4081    9.3693 C   0  0  0  0  0  0  0  0  0  0  0  0
   -1.3900   11.2080   10.6002 O   0  0  0  0  0  0  0  0  0  0  0  0
   -5.3417   15.6467    4.1403 C   0  0  0  0  0  0  0  0  0  0  0  0
   -5.7223   15.1294    5.4373 O   0  0  0  0  0  0  0  0  0  0  0  0
   -1.4906   14.0879    9.4240 C   0  0  1  0  0  0  0  0  0  0  0  0
   -0.3858   13.3383    9.8216 O   0  0  0  0  0  0  0  0  0  0  0  0
    0.6877    9.1012    8.1726 C   0  0  0  0  0  0  0  0  0  0  0  0
    3.7218   10.9371    8.6786 C   0  0  0  0  0  0  0  0  0  0  0  0
  1  2  1  1  0  0  0
  1  6  1  0  0  0  0
  1 21  1  0  0  0  0
  3  4  1  1  0  0  0
  3  8  1  0  0  0  0
  3 28  1  0  0  0  0
  5  9  1  0  0  0  0
  5 25  1  0  0  0  0
  5 29  1  6  0  0  0
  6  7  1  1  0  0  0
  6 11  1  0  0  0  0
  8 12  1  0  0  0  0
  9 10  1  6  0  0  0
  9 14  1  0  0  0  0
 11 16  1  0  0  0  0
 12 13  1  6  0  0  0
 12 17  1  0  0  0  0
 14 15  1  1  0  0  0
 14 18  1  0  0  0  0
 15 31  1  0  0  0  0
 16 20  1  0  0  0  0
 17  2  1  6  0  0  0
 17 22  1  0  0  0  0
 18 19  1  1  0  0  0
 18 24  1  0  0  0  0
 18 30  1  0  0  0  0
 20 21  1  0  0  0  0
 20 26  1  6  0  0  0
 22 23  1  6  0  0  0
 22 28  1  0  0  0  0
 24 25  1  0  0  0  0
 26 27  1  0  0  0  0
 28 29  1  1  0  0  0
M  END
>  <CHROM.1>
-171.44434434,-175.93326971,-134.64172237,-172.27055595,-117.70116926,67.74955378
-1.26044619,14.04653317,8.04359453,-2.32570397,-0.79756471,1.85151177

>  <Name>
ligand

>  <RI>
0

>  <Rbt.Current_Directory>
/home/itssahil/PROJECTS/Mol_Feturizer/New_Systems/rnas/4GPX

>  <Rbt.Executable>
rbdock ($Id: //depot/dev/client3/rdock/2013.1/src/exe/rbdock.cxx#4 $)

>  <Rbt.Library>
libRbt.so (2013.1, Build901 2013/11/27)

>  <Rbt.Parameter_File>
/export/apps/rDock/src/rDock_2013.1_src/data/scripts/dock_solv.prm

>  <Rbt.Receptor>
prm/pocket_docking_8.prm

>  <SCORE>
-18.046

>  <SCORE.INTER>
-9.57989

>  <SCORE.INTER.CONST>
1

>  <SCORE.INTER.POLAR>
0

>  <SCORE.INTER.ROT>
6

>  <SCORE.INTER.SOLV>
13.8988

>  <SCORE.INTER.VDW>
-18.6195

>  <SCORE.INTER.norm>
-0.309029

>  <SCORE.INTRA>
-8.46607

>  <SCORE.INTRA.DIHEDRAL>
-16.9333

>  <SCORE.INTRA.DIHEDRAL.0>
20.6841

>  <SCORE.INTRA.POLAR>
0

>  <SCORE.INTRA.POLAR.0>
0

>  <SCORE.INTRA.REPUL>
0

>  <SCORE.INTRA.REPUL.0>
0

>  <SCORE.INTRA.SOLV>
-1.53751

>  <SCORE.INTRA.SOLV.lig_0>
-64.6797

>  <SCORE.INTRA.VDW>
0.769339

>  <SCORE.INTRA.VDW.0>
-4.11825

>  <SCORE.INTRA.norm>
-0.273099

>  <SCORE.RESTR>
0

>  <SCORE.RESTR.CAVITY>
0

>  <SCORE.RESTR.norm>
0

>  <SCORE.SYSTEM>
0

>  <SCORE.SYSTEM.CONST>
0

>  <SCORE.SYSTEM.DIHEDRAL>
0

>  <SCORE.SYSTEM.SOLV>
0

>  <SCORE.SYSTEM.norm>
0

>  <SCORE.heavy>
31

>  <SCORE.norm>
-0.582128

>  <RMSD>
3.097

$$$$
ligand
 OpenBabel11021811493D
libRbt.so/2013.1/901 2013/11/27
 31 33  0  0  0  0  0  0  0  0999 V2000
   -5.3286   14.9370    7.2459 C   0  0  2  0  0  0  0  0  0  0  0  0
   -3.9757   14.5867    7.5220 O   0  0  0  0  0  0  0  0  0  0  0  0
   -1.8702   13.5569   11.0703 C   0  0  2  0  0  0  0  0  0  0  0  0
   -1.4544   12.8136   12.2199 N   0  0  0  0  0  0  0  0  0  0  0  0
    0.4933   11.6217   10.6338 C   0  0  2  0  0  0  0  0  0  0  0  0
   -6.0895   13.5842    6.9342 C   0  0  2  0  0  0  0  0  0  0  0  0
   -5.9796   12.7063    8.0946 N   0  0  0  0  0  0  0  0  0  0  0  0
   -3.4238   13.8410   11.1948 C   0  0  0  0  0  0  0  0  0  0  0  0
    1.9280   11.4547   10.0402 C   0  0  2  0  0  0  0  0  0  0  0  0
    2.4930   12.7377    9.8745 O   0  0  0  0  0  0  0  0  0  0  0  0
   -5.4787   12.8922    5.6509 C   0  0  0  0  0  0  0  0  0  0  0  0
   -3.8856   14.6569    9.9297 C   0  0  2  0  0  0  0  0  0  0  0  0
   -5.3310   14.9195   10.0372 N   0  0  0  0  0  0  0  0  0  0  0  0
    1.7774   10.7208    8.6537 C   0  0  1  0  0  0  0  0  0  0  0  0
    3.1275   10.5486    8.0225 N   0  0  0  0  0  0  0  0  0  0  0  0
   -5.0620   13.9451    4.5386 C   0  0  0  0  0  0  0  0  0  0  0  0
   -3.5735   13.8251    8.6082 C   0  0  2  0  0  0  0  0  0  0  0  0
    1.1185    9.2552    8.9297 C   0  0  1  0  0  0  0  0  0  0  0  0
    1.9009    8.4714    9.8146 O   0  0  0  0  0  0  0  0  0  0  0  0
   -5.0542   15.2784    4.8032 C   0  0  2  0  0  0  0  0  0  0  0  0
   -5.4165   15.8105    6.0827 O   0  0  0  0  0  0  0  0  0  0  0  0
   -2.0271   13.5488    8.5149 C   0  0  2  0  0  0  0  0  0  0  0  0
   -1.7545   12.7860    7.3197 O   0  0  0  0  0  0  0  0  0  0  0  0
   -0.2892    9.4208    9.5892 C   0  0  0  0  0  0  0  0  0  0  0  0
   -0.1605   10.2665   10.8286 O   0  0  0  0  0  0  0  0  0  0  0  0
   -4.6631   16.3311    3.7643 C   0  0  0  0  0  0  0  0  0  0  0  0
   -5.8753   16.9531    3.2762 O   0  0  0  0  0  0  0  0  0  0  0  0
   -1.5891   12.7143    9.7747 C   0  0  1  0  0  0  0  0  0  0  0  0
   -0.2238   12.4584    9.6689 O   0  0  0  0  0  0  0  0  0  0  0  0
    0.8982    8.3901    7.6653 C   0  0  0  0  0  0  0  0  0  0  0  0
    3.5463   11.5884    7.0605 C   0  0  0  0  0  0  0  0  0  0  0  0
  1  2  1  6  0  0  0
  1  6  1  0  0  0  0
  1 21  1  0  0  0  0
  3  4  1  1  0  0  0
  3  8  1  0  0  0  0
  3 28  1  0  0  0  0
  5  9  1  0  0  0  0
  5 25  1  0  0  0  0
  5 29  1  6  0  0  0
  6  7  1  1  0  0  0
  6 11  1  0  0  0  0
  8 12  1  0  0  0  0
  9 10  1  6  0  0  0
  9 14  1  0  0  0  0
 11 16  1  0  0  0  0
 12 13  1  1  0  0  0
 12 17  1  0  0  0  0
 14 15  1  1  0  0  0
 14 18  1  0  0  0  0
 15 31  1  0  0  0  0
 16 20  1  0  0  0  0
 17  2  1  6  0  0  0
 17 22  1  0  0  0  0
 18 19  1  1  0  0  0
 18 24  1  0  0  0  0
 18 30  1  0  0  0  0
 20 21  1  0  0  0  0
 20 26  1  6  0  0  0
 22 23  1  6  0  0  0
 22 28  1  0  0  0  0
 24 25  1  0  0  0  0
 26 27  1  0  0  0  0
 28 29  1  6  0  0  0
M  END
>  <CHROM.1>
-64.93197312,172.91346688,-94.54952649,-65.52073791,103.20019720,65.56193392
-1.94925925,12.79347184,8.27430511,2.69053566,0.55643912,-1.48020661

>  <Name>
ligand

>  <RI>
0

>  <Rbt.Current_Directory>
/home/itssahil/PROJECTS/Mol_Feturizer/New_Systems/rnas/4GPX

>  <Rbt.Executable>
rbdock ($Id: //depot/dev/client3/rdock/2013.1/src/exe/rbdock.cxx#4 $)

>  <Rbt.Library>
libRbt.so (2013.1, Build901 2013/11/27)

>  <Rbt.Parameter_File>
/export/apps/rDock/src/rDock_2013.1_src/data/scripts/dock_solv.prm

>  <Rbt.Receptor>
prm/pocket_docking_3.prm

>  <SCORE>
-14.2816

>  <SCORE.INTER>
-9.24166

>  <SCORE.INTER.CONST>
1

>  <SCORE.INTER.POLAR>
0

>  <SCORE.INTER.ROT>
6

>  <SCORE.INTER.SOLV>
14.4647

>  <SCORE.INTER.VDW>
-18.5827

>  <SCORE.INTER.norm>
-0.298118

>  <SCORE.INTRA>
-5.04547

>  <SCORE.INTRA.DIHEDRAL>
-17.2348

>  <SCORE.INTRA.DIHEDRAL.0>
20.6841

>  <SCORE.INTRA.POLAR>
0

>  <SCORE.INTRA.POLAR.0>
0

>  <SCORE.INTRA.REPUL>
0

>  <SCORE.INTRA.REPUL.0>
0

>  <SCORE.INTRA.SOLV>
3.19086

>  <SCORE.INTRA.SOLV.lig_0>
-64.6797

>  <SCORE.INTRA.VDW>
1.97652

>  <SCORE.INTRA.VDW.0>
-4.11825

>  <SCORE.INTRA.norm>
-0.162757

>  <SCORE.RESTR>
0.00548709

>  <SCORE.RESTR.CAVITY>
0.00548709

>  <SCORE.RESTR.norm>
0.000177003

>  <SCORE.SYSTEM>
0

>  <SCORE.SYSTEM.CONST>
0

>  <SCORE.SYSTEM.DIHEDRAL>
0

>  <SCORE.SYSTEM.SOLV>
0

>  <SCORE.SYSTEM.norm>
0

>  <SCORE.heavy>
31

>  <SCORE.norm>
-0.460698

>  <RMSD>
3.098

$$$$
ligand
 OpenBabel11021811493D
libRbt.so/2013.1/901 2013/11/27
 31 33  0  0  0  0  0  0  0  0999 V2000
   -1.8217   15.7942    5.2618 C   0  0  2  0  0  0  0  0  0  0  0  0
   -2.0118   16.4163    6.5291 O   0  0  0  0  0  0  0  0  0  0  0  0
   -1.7178   15.1913   10.5908 C   0  0  2  0  0  0  0  0  0  0  0  0
   -2.0233   14.5283   11.8212 N   0  0  0  0  0  0  0  0  0  0  0  0
   -0.4200   12.3565   10.9284 C   0  0  2  0  0  0  0  0  0  0  0  0
   -1.2357   16.9050    4.2980 C   0  0  2  0  0  0  0  0  0  0  0  0
    0.0190   17.3967    4.8575 N   0  0  0  0  0  0  0  0  0  0  0  0
   -2.9630   16.0807   10.1805 C   0  0  0  0  0  0  0  0  0  0  0  0
    1.0391   11.8235   11.0883 C   0  0  2  0  0  0  0  0  0  0  0  0
    1.8853   12.9194   11.3635 O   0  0  0  0  0  0  0  0  0  0  0  0
   -2.2714   18.0868    4.1263 C   0  0  0  0  0  0  0  0  0  0  0  0
   -2.6313   16.8101    8.8250 C   0  0  2  0  0  0  0  0  0  0  0  0
   -3.7881   17.6346    8.4354 N   0  0  0  0  0  0  0  0  0  0  0  0
    1.4353   11.1318    9.7288 C   0  0  1  0  0  0  0  0  0  0  0  0
    2.8411   10.6147    9.8145 N   0  0  0  0  0  0  0  0  0  0  0  0
   -3.7712   17.5704    4.0664 C   0  0  0  0  0  0  0  0  0  0  0  0
   -2.3175   15.7324    7.6955 C   0  0  2  0  0  0  0  0  0  0  0  0
    0.4144    9.8846    9.4832 C   0  0  1  0  0  0  0  0  0  0  0  0
    0.4530    8.9412   10.5405 O   0  0  0  0  0  0  0  0  0  0  0  0
   -4.0795   16.2777    4.3522 C   0  0  2  0  0  0  0  0  0  0  0  0
   -3.0861   15.3134    4.7194 O   0  0  0  0  0  0  0  0  0  0  0  0
   -1.0846   14.8577    8.1326 C   0  0  2  0  0  0  0  0  0  0  0  0
   -0.8135   13.8773    7.1079 O   0  0  0  0  0  0  0  0  0  0  0  0
   -1.0552   10.4103    9.3934 C   0  0  0  0  0  0  0  0  0  0  0  0
   -1.3714   11.2136   10.6273 O   0  0  0  0  0  0  0  0  0  0  0  0
   -5.5082   15.7327    4.3057 C   0  0  0  0  0  0  0  0  0  0  0  0
   -5.5294   14.6035    3.4008 O   0  0  0  0  0  0  0  0  0  0  0  0
   -1.4429   14.1200    9.4753 C   0  0  1  0  0  0  0  0  0  0  0  0
   -0.3522   13.3334    9.8393 O   0  0  0  0  0  0  0  0  0  0  0  0
    0.6618    9.0853    8.1810 C   0  0  0  0  0  0  0  0  0  0  0  0
    3.7304   10.9220    8.6757 C   0  0  0  0  0  0  0  0  0  0  0  0
  1  2  1  1  0  0  0
  1  6  1  0  0  0  0
  1 21  1  0  0  0  0
  3  4  1  1  0  0  0
  3  8  1  0  0  0  0
  3 28  1  0  0  0  0
  5  9  1  0  0  0  0
  5 25  1  0  0  0  0
  5 29  1  6  0  0  0
  6  7  1  1  0  0  0
  6 11  1  0  0  0  0
  8 12  1  0  0  0  0
  9 10  1  6  0  0  0
  9 14  1  0  0  0  0
 11 16  1  0  0  0  0
 12 13  1  6  0  0  0
 12 17  1  0  0  0  0
 14 15  1  1  0  0  0
 14 18  1  0  0  0  0
 15 31  1  0  0  0  0
 16 20  1  0  0  0  0
 17  2  1  6  0  0  0
 17 22  1  0  0  0  0
 18 19  1  1  0  0  0
 18 24  1  0  0  0  0
 18 30  1  0  0  0  0
 20 21  1  0  0  0  0
 20 26  1  6  0  0  0
 22 23  1  6  0  0  0
 22 28  1  0  0  0  0
 24 25  1  0  0  0  0
 26 27  1  0  0  0  0
 28 29  1  1  0  0  0
M  END
>  <CHROM.1>
-169.76112456,-174.17672865,-132.98767544,-172.64473184,123.90678977,70.84025338
-1.24654158,14.01009492,7.98521094,-2.64370644,-0.98793301,1.40689779

>  <Name>
ligand

>  <RI>
0

>  <Rbt.Current_Directory>
/home/itssahil/PROJECTS/Mol_Feturizer/New_Systems/rnas/4GPX

>  <Rbt.Executable>
rbdock ($Id: //depot/dev/client3/rdock/2013.1/src/exe/rbdock.cxx#4 $)

>  <Rbt.Library>
libRbt.so (2013.1, Build901 2013/11/27)

>  <Rbt.Parameter_File>
/export/apps/rDock/src/rDock_2013.1_src/data/scripts/dock_solv.prm

>  <Rbt.Receptor>
prm/pocket_docking_7.prm

>  <SCORE>
-18.2382

>  <SCORE.INTER>
-9.95387

>  <SCORE.INTER.CONST>
1

>  <SCORE.INTER.POLAR>
0

>  <SCORE.INTER.ROT>
6

>  <SCORE.INTER.SOLV>
13.442

>  <SCORE.INTER.VDW>
-18.7166

>  <SCORE.INTER.norm>
-0.321093

>  <SCORE.INTRA>
-8.28429

>  <SCORE.INTRA.DIHEDRAL>
-16.4071

>  <SCORE.INTRA.DIHEDRAL.0>
20.6841

>  <SCORE.INTRA.POLAR>
0

>  <SCORE.INTRA.POLAR.0>
0

>  <SCORE.INTRA.REPUL>
0

>  <SCORE.INTRA.REPUL.0>
0

>  <SCORE.INTRA.SOLV>
-1.76445

>  <SCORE.INTRA.SOLV.lig_0>
-64.6797

>  <SCORE.INTRA.VDW>
0.801472

>  <SCORE.INTRA.VDW.0>
-4.11825

>  <SCORE.INTRA.norm>
-0.267235

>  <SCORE.RESTR>
0

>  <SCORE.RESTR.CAVITY>
0

>  <SCORE.RESTR.norm>
0

>  <SCORE.SYSTEM>
0

>  <SCORE.SYSTEM.CONST>
0

>  <SCORE.SYSTEM.DIHEDRAL>
0

>  <SCORE.SYSTEM.SOLV>
0

>  <SCORE.SYSTEM.norm>
0

>  <SCORE.heavy>
31

>  <SCORE.norm>
-0.588328

>  <RMSD>
3.099

$$$$
ligand
 OpenBabel11021811493D
libRbt.so/2013.1/901 2013/11/27
 31 33  0  0  0  0  0  0  0  0999 V2000
   -1.8024   15.7633    4.9190 C   0  0  2  0  0  0  0  0  0  0  0  0
   -2.1209   15.8938    6.3013 O   0  0  0  0  0  0  0  0  0  0  0  0
   -1.5323   13.4960    9.7637 C   0  0  2  0  0  0  0  0  0  0  0  0
   -1.6860   12.4259   10.7008 N   0  0  0  0  0  0  0  0  0  0  0  0
    0.2521   10.8730    8.9546 C   0  0  2  0  0  0  0  0  0  0  0  0
   -1.6911   17.2330    4.3416 C   0  0  2  0  0  0  0  0  0  0  0  0
   -0.6518   17.9476    5.0754 N   0  0  0  0  0  0  0  0  0  0  0  0
   -2.9302   14.2242    9.6040 C   0  0  0  0  0  0  0  0  0  0  0  0
    1.7765   10.5402    8.8924 C   0  0  2  0  0  0  0  0  0  0  0  0
    2.4641   11.4466    9.7281 O   0  0  0  0  0  0  0  0  0  0  0  0
   -3.0781   17.9807    4.4682 C   0  0  0  0  0  0  0  0  0  0  0  0
   -2.7654   15.4013    8.5712 C   0  0  2  0  0  0  0  0  0  0  0  0
   -4.0637   16.0790    8.4143 N   0  0  0  0  0  0  0  0  0  0  0  0
    2.2291   10.7017    7.3914 C   0  0  1  0  0  0  0  0  0  0  0  0
    3.6964   10.4129    7.2710 N   0  0  0  0  0  0  0  0  0  0  0  0
   -4.3097   17.0174    4.1943 C   0  0  0  0  0  0  0  0  0  0  0  0
   -2.2719   14.8250    7.1711 C   0  0  2  0  0  0  0  0  0  0  0  0
    1.3912    9.6277    6.4955 C   0  0  1  0  0  0  0  0  0  0  0  0
    1.5950    8.2926    6.9260 O   0  0  0  0  0  0  0  0  0  0  0  0
   -4.1375   15.6736    4.0836 C   0  0  2  0  0  0  0  0  0  0  0  0
   -2.8535   15.0503    4.2044 O   0  0  0  0  0  0  0  0  0  0  0  0
   -0.8885   14.0995    7.3603 C   0  0  2  0  0  0  0  0  0  0  0  0
   -0.4537   13.5716    6.0887 O   0  0  0  0  0  0  0  0  0  0  0  0
   -0.1406    9.9171    6.6137 C   0  0  0  0  0  0  0  0  0  0  0  0
   -0.5336    9.9255    8.0675 O   0  0  0  0  0  0  0  0  0  0  0  0
   -5.2918   14.7054    3.8175 C   0  0  0  0  0  0  0  0  0  0  0  0
   -5.3858   13.7984    4.9412 O   0  0  0  0  0  0  0  0  0  0  0  0
   -1.0780   12.9139    8.3772 C   0  0  1  0  0  0  0  0  0  0  0  0
    0.1478   12.2675    8.5191 O   0  0  0  0  0  0  0  0  0  0  0  0
    1.7136    9.6482    4.9818 C   0  0  0  0  0  0  0  0  0  0  0  0
    4.6142   11.5539    7.4658 C   0  0  0  0  0  0  0  0  0  0  0  0
  1  2  1  1  0  0  0
  1  6  1  0  0  0  0
  1 21  1  0  0  0  0
  3  4  1  1  0  0  0
  3  8  1  0  0  0  0
  3 28  1  0  0  0  0
  5  9  1  0  0  0  0
  5 25  1  0  0  0  0
  5 29  1  6  0  0  0
  6  7  1  1  0  0  0
  6 11  1  0  0  0  0
  8 12  1  0  0  0  0
  9 10  1  1  0  0  0
  9 14  1  0  0  0  0
 11 16  1  0  0  0  0
 12 13  1  6  0  0  0
 12 17  1  0  0  0  0
 14 15  1  1  0  0  0
 14 18  1  0  0  0  0
 15 31  1  0  0  0  0
 16 20  1  0  0  0  0
 17  2  1  6  0  0  0
 17 22  1  0  0  0  0
 18 19  1  1  0  0  0
 18 24  1  0  0  0  0
 18 30  1  0  0  0  0
 20 21  1  0  0  0  0
 20 26  1  6  0  0  0
 22 23  1  6  0  0  0
 22 28  1  0  0  0  0
 24 25  1  0  0  0  0
 26 27  1  0  0  0  0
 28 29  1  1  0  0  0
M  END
>  <CHROM.1>
-178.39443955,176.75409556,-88.67803865,-174.39811992,-118.38186725,85.02527143
-0.94725139,13.29683795,6.88143724,-2.64482101,-0.76015767,1.81410100

>  <Name>
ligand

>  <RI>
0

>  <Rbt.Current_Directory>
/home/itssahil/PROJECTS/Mol_Feturizer/New_Systems/rnas/4GPX

>  <Rbt.Executable>
rbdock ($Id: //depot/dev/client3/rdock/2013.1/src/exe/rbdock.cxx#4 $)

>  <Rbt.Library>
libRbt.so (2013.1, Build901 2013/11/27)

>  <Rbt.Parameter_File>
/export/apps/rDock/src/rDock_2013.1_src/data/scripts/dock_solv.prm

>  <Rbt.Receptor>
prm/pocket_docking_4.prm

>  <SCORE>
-14.6411

>  <SCORE.INTER>
-6.33716

>  <SCORE.INTER.CONST>
1

>  <SCORE.INTER.POLAR>
0

>  <SCORE.INTER.ROT>
6

>  <SCORE.INTER.SOLV>
9.31133

>  <SCORE.INTER.VDW>
-14.9285

>  <SCORE.INTER.norm>
-0.204425

>  <SCORE.INTRA>
-8.30396

>  <SCORE.INTRA.DIHEDRAL>
-15.5405

>  <SCORE.INTRA.DIHEDRAL.0>
20.6841

>  <SCORE.INTRA.POLAR>
0

>  <SCORE.INTRA.POLAR.0>
0

>  <SCORE.INTRA.REPUL>
0

>  <SCORE.INTRA.REPUL.0>
0

>  <SCORE.INTRA.SOLV>
-1.92687

>  <SCORE.INTRA.SOLV.lig_0>
-64.6797

>  <SCORE.INTRA.VDW>
0.429696

>  <SCORE.INTRA.VDW.0>
-4.11825

>  <SCORE.INTRA.norm>
-0.26787

>  <SCORE.RESTR>
0

>  <SCORE.RESTR.CAVITY>
0

>  <SCORE.RESTR.norm>
0

>  <SCORE.SYSTEM>
0

>  <SCORE.SYSTEM.CONST>
0

>  <SCORE.SYSTEM.DIHEDRAL>
0

>  <SCORE.SYSTEM.SOLV>
0

>  <SCORE.SYSTEM.norm>
0

>  <SCORE.heavy>
31

>  <SCORE.norm>
-0.472294

>  <RMSD>
3.105

$$$$
ligand
 OpenBabel11021811493D
libRbt.so/2013.1/901 2013/11/27
 31 33  0  0  0  0  0  0  0  0999 V2000
   -5.0110   13.8445    7.9776 C   0  0  2  0  0  0  0  0  0  0  0  0
   -5.2418   12.4925    8.3627 O   0  0  0  0  0  0  0  0  0  0  0  0
   -3.3415   12.2162   12.1570 C   0  0  2  0  0  0  0  0  0  0  0  0
   -2.8096   11.6462   13.3566 N   0  0  0  0  0  0  0  0  0  0  0  0
   -0.2861   11.0336   11.6778 C   0  0  2  0  0  0  0  0  0  0  0  0
   -6.2747   14.2957    7.1377 C   0  0  2  0  0  0  0  0  0  0  0  0
   -7.4643   14.1620    7.9721 N   0  0  0  0  0  0  0  0  0  0  0  0
   -4.8860   11.8711   12.0825 C   0  0  0  0  0  0  0  0  0  0  0  0
    1.1057   11.7065   11.4565 C   0  0  2  0  0  0  0  0  0  0  0  0
    1.0523   13.0191   11.9730 O   0  0  0  0  0  0  0  0  0  0  0  0
   -6.4086   13.4176    5.8301 C   0  0  0  0  0  0  0  0  0  0  0  0
   -5.4743   12.4949   10.7618 C   0  0  2  0  0  0  0  0  0  0  0  0
   -6.9095   12.1725   10.6843 N   0  0  0  0  0  0  0  0  0  0  0  0
    1.3757   11.7214    9.9039 C   0  0  1  0  0  0  0  0  0  0  0  0
    2.6962   12.3769    9.6257 N   0  0  0  0  0  0  0  0  0  0  0  0
   -4.9986   13.0764    5.1858 C   0  0  0  0  0  0  0  0  0  0  0  0
   -4.7076   11.9030    9.4979 C   0  0  2  0  0  0  0  0  0  0  0  0
    1.4196   10.1758    9.3865 C   0  0  1  0  0  0  0  0  0  0  0  0
    2.4159    9.4149   10.0481 O   0  0  0  0  0  0  0  0  0  0  0  0
   -3.8419   13.3503    5.8451 C   0  0  2  0  0  0  0  0  0  0  0  0
   -3.8214   13.9556    7.1430 O   0  0  0  0  0  0  0  0  0  0  0  0
   -3.1766   12.2512    9.6023 C   0  0  2  0  0  0  0  0  0  0  0  0
   -2.4879   11.7024    8.4581 O   0  0  0  0  0  0  0  0  0  0  0  0
    0.0489    9.4805    9.6721 C   0  0  0  0  0  0  0  0  0  0  0  0
   -0.2819    9.6169   11.1350 O   0  0  0  0  0  0  0  0  0  0  0  0
   -2.4601   13.0427    5.2650 C   0  0  0  0  0  0  0  0  0  0  0  0
   -1.9895   11.8079    5.8550 O   0  0  0  0  0  0  0  0  0  0  0  0
   -2.6020   11.6013   10.9149 C   0  0  1  0  0  0  0  0  0  0  0  0
   -1.2428   11.8988   10.9840 O   0  0  0  0  0  0  0  0  0  0  0  0
    1.6784   10.0022    7.8704 C   0  0  0  0  0  0  0  0  0  0  0  0
    2.6688   13.8256    9.3379 C   0  0  0  0  0  0  0  0  0  0  0  0
  1  2  1  6  0  0  0
  1  6  1  0  0  0  0
  1 21  1  0  0  0  0
  3  4  1  1  0  0  0
  3  8  1  0  0  0  0
  3 28  1  0  0  0  0
  5  9  1  0  0  0  0
  5 25  1  0  0  0  0
  5 29  1  6  0  0  0
  6  7  1  1  0  0  0
  6 11  1  0  0  0  0
  8 12  1  0  0  0  0
  9 10  1  6  0  0  0
  9 14  1  0  0  0  0
 11 16  1  0  0  0  0
 12 13  1  6  0  0  0
 12 17  1  0  0  0  0
 14 15  1  1  0  0  0
 14 18  1  0  0  0  0
 15 31  1  0  0  0  0
 16 20  1  0  0  0  0
 17  2  1  6  0  0  0
 17 22  1  0  0  0  0
 18 19  1  1  0  0  0
 18 24  1  0  0  0  0
 18 30  1  0  0  0  0
 20 21  1  0  0  0  0
 20 26  1  6  0  0  0
 22 23  1  6  0  0  0
 22 28  1  0  0  0  0
 24 25  1  0  0  0  0
 26 27  1  0  0  0  0
 28 29  1  1  0  0  0
M  END
>  <CHROM.1>
-152.53131517,177.71686444,-93.18186661,72.81590375,-99.63679990,88.86484951
-2.24845589,12.10248372,9.24723355,-2.72607800,-0.21812543,1.76943926

>  <Name>
ligand

>  <RI>
0

>  <Rbt.Current_Directory>
/home/itssahil/PROJECTS/Mol_Feturizer/New_Systems/rnas/4GPX

>  <Rbt.Executable>
rbdock ($Id: //depot/dev/client3/rdock/2013.1/src/exe/rbdock.cxx#4 $)

>  <Rbt.Library>
libRbt.so (2013.1, Build901 2013/11/27)

>  <Rbt.Parameter_File>
/export/apps/rDock/src/rDock_2013.1_src/data/scripts/dock_solv.prm

>  <Rbt.Receptor>
prm/pocket_docking_3.prm

>  <SCORE>
-11.4348

>  <SCORE.INTER>
-6.58578

>  <SCORE.INTER.CONST>
1

>  <SCORE.INTER.POLAR>
0

>  <SCORE.INTER.ROT>
6

>  <SCORE.INTER.SOLV>
18.9131

>  <SCORE.INTER.VDW>
-18.2949

>  <SCORE.INTER.norm>
-0.212445

>  <SCORE.INTRA>
-4.84903

>  <SCORE.INTRA.DIHEDRAL>
-10.4897

>  <SCORE.INTRA.DIHEDRAL.0>
20.6841

>  <SCORE.INTRA.POLAR>
0

>  <SCORE.INTRA.POLAR.0>
0

>  <SCORE.INTRA.REPUL>
0

>  <SCORE.INTRA.REPUL.0>
0

>  <SCORE.INTRA.SOLV>
0.523585

>  <SCORE.INTRA.SOLV.lig_0>
-64.6797

>  <SCORE.INTRA.VDW>
0.134004

>  <SCORE.INTRA.VDW.0>
-4.11825

>  <SCORE.INTRA.norm>
-0.15642

>  <SCORE.RESTR>
0

>  <SCORE.RESTR.CAVITY>
0

>  <SCORE.RESTR.norm>
0

>  <SCORE.SYSTEM>
0

>  <SCORE.SYSTEM.CONST>
0

>  <SCORE.SYSTEM.DIHEDRAL>
0

>  <SCORE.SYSTEM.SOLV>
0

>  <SCORE.SYSTEM.norm>
0

>  <SCORE.heavy>
31

>  <SCORE.norm>
-0.368865

>  <RMSD>
3.120

$$$$
ligand
 OpenBabel11021811493D
libRbt.so/2013.1/901 2013/11/27
 31 33  0  0  0  0  0  0  0  0999 V2000
   -5.0167   13.8206    8.0325 C   0  0  2  0  0  0  0  0  0  0  0  0
   -5.2498   12.4663    8.4077 O   0  0  0  0  0  0  0  0  0  0  0  0
   -3.2713   12.1235   12.1563 C   0  0  2  0  0  0  0  0  0  0  0  0
   -2.7092   11.5319   13.3314 N   0  0  0  0  0  0  0  0  0  0  0  0
   -0.2200   11.0124   11.6303 C   0  0  2  0  0  0  0  0  0  0  0  0
   -6.2696   14.2732    7.1774 C   0  0  2  0  0  0  0  0  0  0  0  0
   -7.4704   14.1329    7.9945 N   0  0  0  0  0  0  0  0  0  0  0  0
   -4.8129   11.7623   12.1042 C   0  0  0  0  0  0  0  0  0  0  0  0
    1.1541   11.7285   11.4354 C   0  0  2  0  0  0  0  0  0  0  0  0
    1.0556   13.0322   11.9677 O   0  0  0  0  0  0  0  0  0  0  0  0
   -6.3834   13.4013    5.8637 C   0  0  0  0  0  0  0  0  0  0  0  0
   -5.4345   12.4098   10.8104 C   0  0  2  0  0  0  0  0  0  0  0  0
   -6.8672   12.0726   10.7535 N   0  0  0  0  0  0  0  0  0  0  0  0
    1.4430   11.7714    9.8868 C   0  0  1  0  0  0  0  0  0  0  0  0
    2.7471   12.4689    9.6340 N   0  0  0  0  0  0  0  0  0  0  0  0
   -4.9639   13.0663    5.2374 C   0  0  0  0  0  0  0  0  0  0  0  0
   -4.6865   11.8566    9.5180 C   0  0  2  0  0  0  0  0  0  0  0  0
    1.5389   10.2346    9.3506 C   0  0  1  0  0  0  0  0  0  0  0  0
    2.5488    9.4947   10.0154 O   0  0  0  0  0  0  0  0  0  0  0  0
   -3.8170   13.3394    5.9140 C   0  0  2  0  0  0  0  0  0  0  0  0
   -3.8159   13.9384    7.2151 O   0  0  0  0  0  0  0  0  0  0  0  0
   -3.1577   12.2201    9.6004 C   0  0  2  0  0  0  0  0  0  0  0  0
   -2.4859   11.7064    8.4302 O   0  0  0  0  0  0  0  0  0  0  0  0
    0.1857    9.4959    9.6097 C   0  0  0  0  0  0  0  0  0  0  0  0
   -0.1673    9.6036   11.0697 O   0  0  0  0  0  0  0  0  0  0  0  0
   -2.4266   13.0377    5.3517 C   0  0  0  0  0  0  0  0  0  0  0  0
   -2.0471   11.7086    5.7803 O   0  0  0  0  0  0  0  0  0  0  0  0
   -2.5498   11.5465   10.8858 C   0  0  1  0  0  0  0  0  0  0  0  0
   -1.1930   11.8581   10.9351 O   0  0  0  0  0  0  0  0  0  0  0  0
    1.8216   10.0883    7.8359 C   0  0  0  0  0  0  0  0  0  0  0  0
    2.6896   13.9331    9.4468 C   0  0  0  0  0  0  0  0  0  0  0  0
  1  2  1  6  0  0  0
  1  6  1  0  0  0  0
  1 21  1  0  0  0  0
  3  4  1  1  0  0  0
  3  8  1  0  0  0  0
  3 28  1  0  0  0  0
  5  9  1  0  0  0  0
  5 25  1  0  0  0  0
  5 29  1  6  0  0  0
  6  7  1  1  0  0  0
  6 11  1  0  0  0  0
  8 12  1  0  0  0  0
  9 10  1  6  0  0  0
  9 14  1  0  0  0  0
 11 16  1  0  0  0  0
 12 13  1  6  0  0  0
 12 17  1  0  0  0  0
 14 15  1  1  0  0  0
 14 18  1  0  0  0  0
 15 31  1  0  0  0  0
 16 20  1  0  0  0  0
 17  2  1  6  0  0  0
 17 22  1  0  0  0  0
 18 19  1  1  0  0  0
 18 24  1  0  0  0  0
 18 30  1  0  0  0  0
 20 21  1  0  0  0  0
 20 26  1  6  0  0  0
 22 23  1  6  0  0  0
 22 28  1  0  0  0  0
 24 25  1  0  0  0  0
 26 27  1  0  0  0  0
 28 29  1  1  0  0  0
M  END
>  <CHROM.1>
-155.27369305,-179.92148016,-89.52520313,74.37394702,-91.08659040,86.63873133
-2.20299745,12.08890499,9.25375278,-2.73941196,-0.20470962,1.77602015

>  <Name>
ligand

>  <RI>
0

>  <Rbt.Current_Directory>
/home/itssahil/PROJECTS/Mol_Feturizer/New_Systems/rnas/4GPX

>  <Rbt.Executable>
rbdock ($Id: //depot/dev/client3/rdock/2013.1/src/exe/rbdock.cxx#4 $)

>  <Rbt.Library>
libRbt.so (2013.1, Build901 2013/11/27)

>  <Rbt.Parameter_File>
/export/apps/rDock/src/rDock_2013.1_src/data/scripts/dock_solv.prm

>  <Rbt.Receptor>
prm/pocket_docking_3.prm

>  <SCORE>
-11.4421

>  <SCORE.INTER>
-6.45694

>  <SCORE.INTER.CONST>
1

>  <SCORE.INTER.POLAR>
0

>  <SCORE.INTER.ROT>
6

>  <SCORE.INTER.SOLV>
19.3427

>  <SCORE.INTER.VDW>
-18.3522

>  <SCORE.INTER.norm>
-0.208288

>  <SCORE.INTRA>
-4.98518

>  <SCORE.INTRA.DIHEDRAL>
-10.9491

>  <SCORE.INTRA.DIHEDRAL.0>
20.6841

>  <SCORE.INTRA.POLAR>
0

>  <SCORE.INTRA.POLAR.0>
0

>  <SCORE.INTRA.REPUL>
0

>  <SCORE.INTRA.REPUL.0>
0

>  <SCORE.INTRA.SOLV>
0.365855

>  <SCORE.INTRA.SOLV.lig_0>
-64.6797

>  <SCORE.INTRA.VDW>
0.306419

>  <SCORE.INTRA.VDW.0>
-4.11825

>  <SCORE.INTRA.norm>
-0.160812

>  <SCORE.RESTR>
0

>  <SCORE.RESTR.CAVITY>
0

>  <SCORE.RESTR.norm>
0

>  <SCORE.SYSTEM>
0

>  <SCORE.SYSTEM.CONST>
0

>  <SCORE.SYSTEM.DIHEDRAL>
0

>  <SCORE.SYSTEM.SOLV>
0

>  <SCORE.SYSTEM.norm>
0

>  <SCORE.heavy>
31

>  <SCORE.norm>
-0.369101

>  <RMSD>
3.136

$$$$
ligand
 OpenBabel11021811493D
libRbt.so/2013.1/901 2013/11/27
 31 33  0  0  0  0  0  0  0  0999 V2000
   -2.8063   14.6321    4.8076 C   0  0  2  0  0  0  0  0  0  0  0  0
   -2.9521   14.9350    6.1918 O   0  0  0  0  0  0  0  0  0  0  0  0
   -4.9731   13.4908    9.6435 C   0  0  2  0  0  0  0  0  0  0  0  0
   -5.4698   12.5801   10.6288 N   0  0  0  0  0  0  0  0  0  0  0  0
   -3.0884   13.0021   12.0782 C   0  0  2  0  0  0  0  0  0  0  0  0
   -1.8135   15.7119    4.2123 C   0  0  2  0  0  0  0  0  0  0  0  0
   -0.5437   15.6253    4.9260 N   0  0  0  0  0  0  0  0  0  0  0  0
   -5.5284   13.0462    8.2279 C   0  0  0  0  0  0  0  0  0  0  0  0
   -2.4725   13.8401   13.2431 C   0  0  2  0  0  0  0  0  0  0  0  0
   -3.1488   15.0776   13.3067 O   0  0  0  0  0  0  0  0  0  0  0  0
   -2.4314   17.1608    4.3463 C   0  0  0  0  0  0  0  0  0  0  0  0
   -4.9815   14.0451    7.1404 C   0  0  2  0  0  0  0  0  0  0  0  0
   -5.4902   13.6334    5.8207 N   0  0  0  0  0  0  0  0  0  0  0  0
   -0.9456   14.0476   12.9127 C   0  0  1  0  0  0  0  0  0  0  0  0
   -0.3007   14.8670   13.9916 N   0  0  0  0  0  0  0  0  0  0  0  0
   -3.9990   17.1733    4.0974 C   0  0  0  0  0  0  0  0  0  0  0  0
   -3.3892   14.0297    7.1464 C   0  0  2  0  0  0  0  0  0  0  0  0
   -0.2398   12.5790   12.8542 C   0  0  1  0  0  0  0  0  0  0  0  0
   -0.3836   11.8640   14.0698 O   0  0  0  0  0  0  0  0  0  0  0  0
   -4.7026   16.0143    3.9999 C   0  0  2  0  0  0  0  0  0  0  0  0
   -4.0840   14.7274    4.1131 O   0  0  0  0  0  0  0  0  0  0  0  0
   -2.8654   14.4650    8.5649 C   0  0  2  0  0  0  0  0  0  0  0  0
   -1.4218   14.4386    8.5644 O   0  0  0  0  0  0  0  0  0  0  0  0
   -0.9042   11.7142   11.7342 C   0  0  0  0  0  0  0  0  0  0  0  0
   -2.3913   11.6592   11.9656 O   0  0  0  0  0  0  0  0  0  0  0  0
   -6.2127   15.9750    3.7581 C   0  0  0  0  0  0  0  0  0  0  0  0
   -6.5444   17.0215    2.8152 O   0  0  0  0  0  0  0  0  0  0  0  0
   -3.4030   13.4435    9.6341 C   0  0  1  0  0  0  0  0  0  0  0  0
   -2.9149   13.8277   10.8810 O   0  0  0  0  0  0  0  0  0  0  0  0
    1.2753   12.5951   12.5385 C   0  0  0  0  0  0  0  0  0  0  0  0
   -0.5384   14.4337   15.3837 C   0  0  0  0  0  0  0  0  0  0  0  0
  1  2  1  1  0  0  0
  1  6  1  0  0  0  0
  1 21  1  0  0  0  0
  3  4  1  1  0  0  0
  3  8  1  0  0  0  0
  3 28  1  0  0  0  0
  5  9  1  0  0  0  0
  5 25  1  0  0  0  0
  5 29  1  6  0  0  0
  6  7  1  1  0  0  0
  6 11  1  0  0  0  0
  8 12  1  0  0  0  0
  9 10  1  6  0  0  0
  9 14  1  0  0  0  0
 11 16  1  0  0  0  0
 12 13  1  6  0  0  0
 12 17  1  0  0  0  0
 14 15  1  1  0  0  0
 14 18  1  0  0  0  0
 15 31  1  0  0  0  0
 16 20  1  0  0  0  0
 17  2  1  6  0  0  0
 17 22  1  0  0  0  0
 18 19  1  1  0  0  0
 18 24  1  0  0  0  0
 18 30  1  0  0  0  0
 20 21  1  0  0  0  0
 20 26  1  6  0  0  0
 22 23  1  6  0  0  0
 22 28  1  0  0  0  0
 24 25  1  0  0  0  0
 26 27  1  0  0  0  0
 28 29  1  1  0  0  0
M  END
>  <CHROM.1>
-159.42358522,-176.79227401,49.77247310,-84.77740069,38.94137035,68.91629479
-2.88446307,14.24936732,8.84514946,-1.90292319,0.21547866,1.92147672

>  <Name>
ligand

>  <RI>
0

>  <Rbt.Current_Directory>
/home/itssahil/PROJECTS/Mol_Feturizer/New_Systems/rnas/4GPX

>  <Rbt.Executable>
rbdock ($Id: //depot/dev/client3/rdock/2013.1/src/exe/rbdock.cxx#4 $)

>  <Rbt.Library>
libRbt.so (2013.1, Build901 2013/11/27)

>  <Rbt.Parameter_File>
/export/apps/rDock/src/rDock_2013.1_src/data/scripts/dock_solv.prm

>  <Rbt.Receptor>
prm/pocket_docking_5.prm

>  <SCORE>
-15.036

>  <SCORE.INTER>
-13.1661

>  <SCORE.INTER.CONST>
1

>  <SCORE.INTER.POLAR>
0

>  <SCORE.INTER.ROT>
6

>  <SCORE.INTER.SOLV>
10.4009

>  <SCORE.INTER.VDW>
-19.8444

>  <SCORE.INTER.norm>
-0.424713

>  <SCORE.INTRA>
-1.86987

>  <SCORE.INTRA.DIHEDRAL>
-12.5589

>  <SCORE.INTRA.DIHEDRAL.0>
20.6841

>  <SCORE.INTRA.POLAR>
0

>  <SCORE.INTRA.POLAR.0>
0

>  <SCORE.INTRA.REPUL>
0

>  <SCORE.INTRA.REPUL.0>
0

>  <SCORE.INTRA.SOLV>
1.87408

>  <SCORE.INTRA.SOLV.lig_0>
-64.6797

>  <SCORE.INTRA.VDW>
3.47255

>  <SCORE.INTRA.VDW.0>
-4.11825

>  <SCORE.INTRA.norm>
-0.0603184

>  <SCORE.RESTR>
0

>  <SCORE.RESTR.CAVITY>
0

>  <SCORE.RESTR.norm>
0

>  <SCORE.SYSTEM>
0

>  <SCORE.SYSTEM.CONST>
0

>  <SCORE.SYSTEM.DIHEDRAL>
0

>  <SCORE.SYSTEM.SOLV>
0

>  <SCORE.SYSTEM.norm>
0

>  <SCORE.heavy>
31

>  <SCORE.norm>
-0.485031

>  <RMSD>
3.147

$$$$
ligand
 OpenBabel11021811493D
libRbt.so/2013.1/901 2013/11/27
 31 33  0  0  0  0  0  0  0  0999 V2000
   -1.8430   15.8806    6.4878 C   0  0  2  0  0  0  0  0  0  0  0  0
   -2.6923   14.8670    5.9582 O   0  0  0  0  0  0  0  0  0  0  0  0
   -4.0881   12.6635    9.3169 C   0  0  2  0  0  0  0  0  0  0  0  0
   -4.6053   11.5789   10.0934 N   0  0  0  0  0  0  0  0  0  0  0  0
   -1.6785   10.5849   10.2367 C   0  0  2  0  0  0  0  0  0  0  0  0
   -2.7347   17.1792    6.6441 C   0  0  2  0  0  0  0  0  0  0  0  0
   -3.8480   16.8787    7.5383 N   0  0  0  0  0  0  0  0  0  0  0  0
   -5.1334   13.0036    8.1761 C   0  0  0  0  0  0  0  0  0  0  0  0
   -0.7392   10.7465   11.4737 C   0  0  2  0  0  0  0  0  0  0  0  0
   -1.3255   11.6768   12.3588 O   0  0  0  0  0  0  0  0  0  0  0  0
   -3.2649   17.6559    5.2333 C   0  0  0  0  0  0  0  0  0  0  0  0
   -4.5661   14.1955    7.3176 C   0  0  2  0  0  0  0  0  0  0  0  0
   -5.5317   14.5128    6.2514 N   0  0  0  0  0  0  0  0  0  0  0  0
    0.6483   11.2710   10.9412 C   0  0  1  0  0  0  0  0  0  0  0  0
    1.5915   11.4657   12.0917 N   0  0  0  0  0  0  0  0  0  0  0  0
   -2.1852   17.4613    4.0861 C   0  0  0  0  0  0  0  0  0  0  0  0
   -3.1631   13.7852    6.6861 C   0  0  2  0  0  0  0  0  0  0  0  0
    1.2555   10.1468    9.9284 C   0  0  1  0  0  0  0  0  0  0  0  0
    1.4186    8.8872   10.5579 O   0  0  0  0  0  0  0  0  0  0  0  0
   -1.0410   16.7630    4.3114 C   0  0  2  0  0  0  0  0  0  0  0  0
   -0.7404   16.1677    5.5790 O   0  0  0  0  0  0  0  0  0  0  0  0
   -2.1483   13.4435    7.8391 C   0  0  2  0  0  0  0  0  0  0  0  0
   -0.8827   13.0631    7.2576 O   0  0  0  0  0  0  0  0  0  0  0  0
    0.2806    9.9334    8.7251 C   0  0  0  0  0  0  0  0  0  0  0  0
   -1.0895    9.5941    9.2501 O   0  0  0  0  0  0  0  0  0  0  0  0
    0.0297   16.5508    3.2394 C   0  0  0  0  0  0  0  0  0  0  0  0
    1.3065   16.9446    3.7952 O   0  0  0  0  0  0  0  0  0  0  0  0
   -2.7210   12.2372    8.6712 C   0  0  1  0  0  0  0  0  0  0  0  0
   -1.8039   11.9314    9.6742 O   0  0  0  0  0  0  0  0  0  0  0  0
    2.6284   10.5011    9.3076 C   0  0  0  0  0  0  0  0  0  0  0  0
    1.5171   12.7614   12.7971 C   0  0  0  0  0  0  0  0  0  0  0  0
  1  2  1  6  0  0  0
  1  6  1  0  0  0  0
  1 21  1  0  0  0  0
  3  4  1  6  0  0  0
  3  8  1  0  0  0  0
  3 28  1  0  0  0  0
  5  9  1  0  0  0  0
  5 25  1  0  0  0  0
  5 29  1  6  0  0  0
  6  7  1  1  0  0  0
  6 11  1  0  0  0  0
  8 12  1  0  0  0  0
  9 10  1  1  0  0  0
  9 14  1  0  0  0  0
 11 16  1  0  0  0  0
 12 13  1  6  0  0  0
 12 17  1  0  0  0  0
 14 15  1  1  0  0  0
 14 18  1  0  0  0  0
 15 31  1  0  0  0  0
 16 20  1  0  0  0  0
 17  2  1  1  0  0  0
 17 22  1  0  0  0  0
 18 19  1  1  0  0  0
 18 24  1  0  0  0  0
 18 30  1  0  0  0  0
 20 21  1  0  0  0  0
 20 26  1  1  0  0  0
 22 23  1  6  0  0  0
 22 28  1  0  0  0  0
 24 25  1  0  0  0  0
 26 27  1  0  0  0  0
 28 29  1  1  0  0  0
M  END
>  <CHROM.1>
-107.39134634,-170.34151601,-85.56258142,91.61364336,128.60592665,89.00655097
-1.47151853,13.35133390,8.12456606,-1.84941880,-0.10510880,2.34260158

>  <Name>
ligand

>  <RI>
0

>  <Rbt.Current_Directory>
/home/itssahil/PROJECTS/Mol_Feturizer/New_Systems/rnas/4GPX

>  <Rbt.Executable>
rbdock ($Id: //depot/dev/client3/rdock/2013.1/src/exe/rbdock.cxx#4 $)

>  <Rbt.Library>
libRbt.so (2013.1, Build901 2013/11/27)

>  <Rbt.Parameter_File>
/export/apps/rDock/src/rDock_2013.1_src/data/scripts/dock_solv.prm

>  <Rbt.Receptor>
prm/pocket_docking_6.prm

>  <SCORE>
-10.1888

>  <SCORE.INTER>
-10.7381

>  <SCORE.INTER.CONST>
1

>  <SCORE.INTER.POLAR>
0

>  <SCORE.INTER.ROT>
6

>  <SCORE.INTER.SOLV>
14.8994

>  <SCORE.INTER.VDW>
-19.7252

>  <SCORE.INTER.norm>
-0.346391

>  <SCORE.INTRA>
0.549337

>  <SCORE.INTRA.DIHEDRAL>
-4.24038

>  <SCORE.INTRA.DIHEDRAL.0>
20.6841

>  <SCORE.INTRA.POLAR>
0

>  <SCORE.INTRA.POLAR.0>
0

>  <SCORE.INTRA.REPUL>
0

>  <SCORE.INTRA.REPUL.0>
0

>  <SCORE.INTRA.SOLV>
2.25331

>  <SCORE.INTRA.SOLV.lig_0>
-64.6797

>  <SCORE.INTRA.VDW>
1.54287

>  <SCORE.INTRA.VDW.0>
-4.11825

>  <SCORE.INTRA.norm>
0.0177206

>  <SCORE.RESTR>
0

>  <SCORE.RESTR.CAVITY>
0

>  <SCORE.RESTR.norm>
0

>  <SCORE.SYSTEM>
0

>  <SCORE.SYSTEM.CONST>
0

>  <SCORE.SYSTEM.DIHEDRAL>
0

>  <SCORE.SYSTEM.SOLV>
0

>  <SCORE.SYSTEM.norm>
0

>  <SCORE.heavy>
31

>  <SCORE.norm>
-0.328671

>  <RMSD>
3.160

$$$$
ligand
 OpenBabel11021811493D
libRbt.so/2013.1/901 2013/11/27
 31 33  0  0  0  0  0  0  0  0999 V2000
   -4.5127   15.8209    6.4041 C   0  0  2  0  0  0  0  0  0  0  0  0
   -4.2339   14.4483    6.1444 O   0  0  0  0  0  0  0  0  0  0  0  0
   -3.3152   12.8940    9.9946 C   0  0  2  0  0  0  0  0  0  0  0  0
   -3.0798   11.9487   11.0425 N   0  0  0  0  0  0  0  0  0  0  0  0
   -0.3992   11.9724   10.3418 C   0  0  2  0  0  0  0  0  0  0  0  0
   -4.9512   16.4605    5.0240 C   0  0  2  0  0  0  0  0  0  0  0  0
   -6.1258   15.7497    4.5299 N   0  0  0  0  0  0  0  0  0  0  0  0
   -4.7855   12.6755    9.4464 C   0  0  0  0  0  0  0  0  0  0  0  0
    0.9924   12.6033   10.6643 C   0  0  2  0  0  0  0  0  0  0  0  0
    0.7887   13.9296   11.1025 O   0  0  0  0  0  0  0  0  0  0  0  0
   -3.7683   16.3781    3.9787 C   0  0  0  0  0  0  0  0  0  0  0  0
   -5.0472   13.7127    8.2909 C   0  0  2  0  0  0  0  0  0  0  0  0
   -6.4114   13.5107    7.7733 N   0  0  0  0  0  0  0  0  0  0  0  0
    1.8390   12.5715    9.3354 C   0  0  1  0  0  0  0  0  0  0  0  0
    3.1862   13.1855    9.5784 N   0  0  0  0  0  0  0  0  0  0  0  0
   -2.3511   16.6204    4.6513 C   0  0  0  0  0  0  0  0  0  0  0  0
   -3.9800   13.5046    7.1276 C   0  0  2  0  0  0  0  0  0  0  0  0
    2.0265   11.0126    8.8960 C   0  0  1  0  0  0  0  0  0  0  0  0
    2.6656   10.2435    9.9007 O   0  0  0  0  0  0  0  0  0  0  0  0
   -2.2161   16.6715    6.0030 C   0  0  2  0  0  0  0  0  0  0  0  0
   -3.3270   16.5129    6.8932 O   0  0  0  0  0  0  0  0  0  0  0  0
   -2.5302   13.7173    7.7010 C   0  0  2  0  0  0  0  0  0  0  0  0
   -1.5690   13.5170    6.6424 O   0  0  0  0  0  0  0  0  0  0  0  0
    0.6288   10.3604    8.6412 C   0  0  0  0  0  0  0  0  0  0  0  0
   -0.2343   10.5426    9.8618 O   0  0  0  0  0  0  0  0  0  0  0  0
   -0.8731   16.9050    6.6973 C   0  0  0  0  0  0  0  0  0  0  0  0
    0.0817   17.3324    5.6973 O   0  0  0  0  0  0  0  0  0  0  0  0
   -2.2792   12.6587    8.8375 C   0  0  1  0  0  0  0  0  0  0  0  0
   -0.9860   12.8439    9.3213 O   0  0  0  0  0  0  0  0  0  0  0  0
    2.8423   10.7937    7.5990 C   0  0  0  0  0  0  0  0  0  0  0  0
    3.2863   14.6499    9.4120 C   0  0  0  0  0  0  0  0  0  0  0  0
  1  2  1  6  0  0  0
  1  6  1  0  0  0  0
  1 21  1  0  0  0  0
  3  4  1  1  0  0  0
  3  8  1  0  0  0  0
  3 28  1  0  0  0  0
  5  9  1  0  0  0  0
  5 25  1  0  0  0  0
  5 29  1  6  0  0  0
  6  7  1  6  0  0  0
  6 11  1  0  0  0  0
  8 12  1  0  0  0  0
  9 10  1  6  0  0  0
  9 14  1  0  0  0  0
 11 16  1  0  0  0  0
 12 13  1  6  0  0  0
 12 17  1  0  0  0  0
 14 15  1  1  0  0  0
 14 18  1  0  0  0  0
 15 31  1  0  0  0  0
 16 20  1  0  0  0  0
 17  2  1  6  0  0  0
 17 22  1  0  0  0  0
 18 19  1  1  0  0  0
 18 24  1  0  0  0  0
 18 30  1  0  0  0  0
 20 21  1  0  0  0  0
 20 26  1  6  0  0  0
 22 23  1  6  0  0  0
 22 28  1  0  0  0  0
 24 25  1  0  0  0  0
 26 27  1  0  0  0  0
 28 29  1  1  0  0  0
M  END
>  <CHROM.1>
-171.55495272,-175.53539140,-87.28036091,44.36133031,12.15066138,64.71828564
-1.51722147,13.73594719,7.98635867,2.40184526,-0.05598311,-0.71792689

>  <Name>
ligand

>  <RI>
0

>  <Rbt.Current_Directory>
/home/itssahil/PROJECTS/Mol_Feturizer/New_Systems/rnas/4GPX

>  <Rbt.Executable>
rbdock ($Id: //depot/dev/client3/rdock/2013.1/src/exe/rbdock.cxx#4 $)

>  <Rbt.Library>
libRbt.so (2013.1, Build901 2013/11/27)

>  <Rbt.Parameter_File>
/export/apps/rDock/src/rDock_2013.1_src/data/scripts/dock_solv.prm

>  <Rbt.Receptor>
prm/pocket_docking_7.prm

>  <SCORE>
-9.1332

>  <SCORE.INTER>
-2.57797

>  <SCORE.INTER.CONST>
1

>  <SCORE.INTER.POLAR>
0

>  <SCORE.INTER.ROT>
6

>  <SCORE.INTER.SOLV>
12.9174

>  <SCORE.INTER.VDW>
-13.6244

>  <SCORE.INTER.norm>
-0.0831604

>  <SCORE.INTRA>
-6.55523

>  <SCORE.INTRA.DIHEDRAL>
-16.5943

>  <SCORE.INTRA.DIHEDRAL.0>
20.6841

>  <SCORE.INTRA.POLAR>
0

>  <SCORE.INTRA.POLAR.0>
0

>  <SCORE.INTRA.REPUL>
0

>  <SCORE.INTRA.REPUL.0>
0

>  <SCORE.INTRA.SOLV>
-0.336112

>  <SCORE.INTRA.SOLV.lig_0>
-64.6797

>  <SCORE.INTRA.VDW>
1.90997

>  <SCORE.INTRA.VDW.0>
-4.11825

>  <SCORE.INTRA.norm>
-0.211459

>  <SCORE.RESTR>
0

>  <SCORE.RESTR.CAVITY>
0

>  <SCORE.RESTR.norm>
0

>  <SCORE.SYSTEM>
0

>  <SCORE.SYSTEM.CONST>
0

>  <SCORE.SYSTEM.DIHEDRAL>
0

>  <SCORE.SYSTEM.SOLV>
0

>  <SCORE.SYSTEM.norm>
0

>  <SCORE.heavy>
31

>  <SCORE.norm>
-0.294619

>  <RMSD>
3.163

$$$$
ligand
 OpenBabel11021811493D
libRbt.so/2013.1/901 2013/11/27
 31 33  0  0  0  0  0  0  0  0999 V2000
   -1.7375   15.3909    4.3500 C   0  0  2  0  0  0  0  0  0  0  0  0
   -1.8342   15.2224    5.7612 O   0  0  0  0  0  0  0  0  0  0  0  0
   -3.1709   11.9552    8.1323 C   0  0  2  0  0  0  0  0  0  0  0  0
   -3.1815   10.6811    8.7832 N   0  0  0  0  0  0  0  0  0  0  0  0
   -2.2290   11.8926   10.9752 C   0  0  2  0  0  0  0  0  0  0  0  0
   -1.0225   16.7828    4.1104 C   0  0  2  0  0  0  0  0  0  0  0  0
    0.2902   16.7514    4.7468 N   0  0  0  0  0  0  0  0  0  0  0  0
   -3.0213   11.7179    6.5731 C   0  0  0  0  0  0  0  0  0  0  0  0
   -2.3898   12.5684   12.3738 C   0  0  2  0  0  0  0  0  0  0  0  0
   -3.5115   13.4242   12.3280 O   0  0  0  0  0  0  0  0  0  0  0  0
   -1.8992   17.9601    4.6972 C   0  0  0  0  0  0  0  0  0  0  0  0
   -3.0067   13.1185    5.8536 C   0  0  2  0  0  0  0  0  0  0  0  0
   -2.8622   12.9044    4.4034 N   0  0  0  0  0  0  0  0  0  0  0  0
   -1.0697   13.3825   12.6537 C   0  0  1  0  0  0  0  0  0  0  0  0
   -1.1728   14.0737   13.9814 N   0  0  0  0  0  0  0  0  0  0  0  0
   -3.4534   17.7196    4.4826 C   0  0  0  0  0  0  0  0  0  0  0  0
   -1.7968   13.9950    6.4044 C   0  0  2  0  0  0  0  0  0  0  0  0
    0.1734   12.3280   12.6881 C   0  0  1  0  0  0  0  0  0  0  0  0
    0.0005   11.3242   13.6740 O   0  0  0  0  0  0  0  0  0  0  0  0
   -3.9227   16.5245    4.0361 C   0  0  2  0  0  0  0  0  0  0  0  0
   -3.0582   15.4230    3.7347 O   0  0  0  0  0  0  0  0  0  0  0  0
   -1.9650   14.2066    7.9546 C   0  0  2  0  0  0  0  0  0  0  0  0
   -0.8590   14.9934    8.4471 O   0  0  0  0  0  0  0  0  0  0  0  0
    0.2908   11.5995   11.3100 C   0  0  0  0  0  0  0  0  0  0  0  0
   -1.0308   10.9619   10.9711 O   0  0  0  0  0  0  0  0  0  0  0  0
   -5.4101   16.2456    3.8113 C   0  0  0  0  0  0  0  0  0  0  0  0
   -5.8253   15.2320    4.7570 O   0  0  0  0  0  0  0  0  0  0  0  0
   -1.9547   12.7991    8.6577 C   0  0  1  0  0  0  0  0  0  0  0  0
   -2.0826   13.0018   10.0300 O   0  0  0  0  0  0  0  0  0  0  0  0
    1.5599   12.9621   12.9550 C   0  0  0  0  0  0  0  0  0  0  0  0
   -0.7266   15.4810   14.0317 C   0  0  0  0  0  0  0  0  0  0  0  0
  1  2  1  1  0  0  0
  1  6  1  0  0  0  0
  1 21  1  0  0  0  0
  3  4  1  1  0  0  0
  3  8  1  0  0  0  0
  3 28  1  0  0  0  0
  5  9  1  0  0  0  0
  5 25  1  0  0  0  0
  5 29  1  6  0  0  0
  6  7  1  1  0  0  0
  6 11  1  0  0  0  0
  8 12  1  0  0  0  0
  9 10  1  6  0  0  0
  9 14  1  0  0  0  0
 11 16  1  0  0  0  0
 12 13  1  6  0  0  0
 12 17  1  0  0  0  0
 14 15  1  1  0  0  0
 14 18  1  0  0  0  0
 15 31  1  0  0  0  0
 16 20  1  0  0  0  0
 17  2  1  6  0  0  0
 17 22  1  0  0  0  0
 18 19  1  1  0  0  0
 18 24  1  0  0  0  0
 18 30  1  0  0  0  0
 20 21  1  0  0  0  0
 20 26  1  6  0  0  0
 22 23  1  1  0  0  0
 22 28  1  0  0  0  0
 24 25  1  0  0  0  0
 26 27  1  0  0  0  0
 28 29  1  1  0  0  0
M  END
>  <CHROM.1>
-148.59530969,-178.02476824,-135.47144046,-59.58567849,-114.53514128,55.70380821
-1.99977007,13.95715033,8.34365148,-1.98842336,0.93089892,2.28955190

>  <Name>
ligand

>  <RI>
0

>  <Rbt.Current_Directory>
/home/itssahil/PROJECTS/Mol_Feturizer/New_Systems/rnas/4GPX

>  <Rbt.Executable>
rbdock ($Id: //depot/dev/client3/rdock/2013.1/src/exe/rbdock.cxx#4 $)

>  <Rbt.Library>
libRbt.so (2013.1, Build901 2013/11/27)

>  <Rbt.Parameter_File>
/export/apps/rDock/src/rDock_2013.1_src/data/scripts/dock_solv.prm

>  <Rbt.Receptor>
prm/pocket_docking_6.prm

>  <SCORE>
-14.8851

>  <SCORE.INTER>
-10.5518

>  <SCORE.INTER.CONST>
1

>  <SCORE.INTER.POLAR>
0

>  <SCORE.INTER.ROT>
6

>  <SCORE.INTER.SOLV>
13.4964

>  <SCORE.INTER.VDW>
-19.1333

>  <SCORE.INTER.norm>
-0.340379

>  <SCORE.INTRA>
-4.33331

>  <SCORE.INTRA.DIHEDRAL>
-13.9698

>  <SCORE.INTRA.DIHEDRAL.0>
20.6841

>  <SCORE.INTRA.POLAR>
0

>  <SCORE.INTRA.POLAR.0>
0

>  <SCORE.INTRA.REPUL>
0

>  <SCORE.INTRA.REPUL.0>
0

>  <SCORE.INTRA.SOLV>
1.33669

>  <SCORE.INTRA.SOLV.lig_0>
-64.6797

>  <SCORE.INTRA.VDW>
1.98326

>  <SCORE.INTRA.VDW.0>
-4.11825

>  <SCORE.INTRA.norm>
-0.139784

>  <SCORE.RESTR>
0

>  <SCORE.RESTR.CAVITY>
0

>  <SCORE.RESTR.norm>
0

>  <SCORE.SYSTEM>
0

>  <SCORE.SYSTEM.CONST>
0

>  <SCORE.SYSTEM.DIHEDRAL>
0

>  <SCORE.SYSTEM.SOLV>
0

>  <SCORE.SYSTEM.norm>
0

>  <SCORE.heavy>
31

>  <SCORE.norm>
-0.480163

>  <RMSD>
3.302

$$$$
ligand
 OpenBabel11021811493D
libRbt.so/2013.1/901 2013/11/27
 31 33  0  0  0  0  0  0  0  0999 V2000
   -2.3556   15.2238    4.5910 C   0  0  2  0  0  0  0  0  0  0  0  0
   -2.5689   15.0863    5.9927 O   0  0  0  0  0  0  0  0  0  0  0  0
   -1.4532   12.2629    8.9706 C   0  0  2  0  0  0  0  0  0  0  0  0
   -1.4058   11.0437    9.7177 N   0  0  0  0  0  0  0  0  0  0  0  0
    0.6485   10.1874    8.0105 C   0  0  2  0  0  0  0  0  0  0  0  0
   -2.3420   16.7775    4.2878 C   0  0  2  0  0  0  0  0  0  0  0  0
   -1.2742   17.3977    5.0652 N   0  0  0  0  0  0  0  0  0  0  0  0
   -2.9416   12.8051    8.9939 C   0  0  0  0  0  0  0  0  0  0  0  0
    2.1995   10.0921    7.8555 C   0  0  2  0  0  0  0  0  0  0  0  0
    2.7834   11.1709    8.5539 O   0  0  0  0  0  0  0  0  0  0  0  0
   -3.7404   17.4208    4.6477 C   0  0  0  0  0  0  0  0  0  0  0  0
   -2.9981   14.1459    8.1702 C   0  0  2  0  0  0  0  0  0  0  0  0
   -4.3813   14.6521    8.1837 N   0  0  0  0  0  0  0  0  0  0  0  0
    2.5210   10.1767    6.3150 C   0  0  1  0  0  0  0  0  0  0  0  0
    4.0048   10.1100    6.1029 N   0  0  0  0  0  0  0  0  0  0  0  0
   -4.9548   16.4636    4.2889 C   0  0  0  0  0  0  0  0  0  0  0  0
   -2.5234   13.8797    6.6737 C   0  0  2  0  0  0  0  0  0  0  0  0
    1.8124    8.9037    5.5830 C   0  0  1  0  0  0  0  0  0  0  0  0
    2.2582    7.6646    6.1076 O   0  0  0  0  0  0  0  0  0  0  0  0
   -4.7444   15.1722    3.9206 C   0  0  2  0  0  0  0  0  0  0  0  0
   -3.4337   14.6012    3.8334 O   0  0  0  0  0  0  0  0  0  0  0  0
   -1.0477   13.3333    6.6804 C   0  0  2  0  0  0  0  0  0  0  0  0
   -0.6292   13.0853    5.3210 O   0  0  0  0  0  0  0  0  0  0  0  0
    0.2650    8.9607    5.7980 C   0  0  0  0  0  0  0  0  0  0  0  0
   -0.0287    9.0478    7.2724 O   0  0  0  0  0  0  0  0  0  0  0  0
   -5.8811   14.2127    3.5631 C   0  0  0  0  0  0  0  0  0  0  0  0
   -5.8800   13.1349    4.5289 O   0  0  0  0  0  0  0  0  0  0  0  0
   -1.0156   11.9834    7.4880 C   0  0  1  0  0  0  0  0  0  0  0  0
    0.2907   11.5000    7.4680 O   0  0  0  0  0  0  0  0  0  0  0  0
    2.0280    8.8281    4.0521 C   0  0  0  0  0  0  0  0  0  0  0  0
    4.7334   11.3950    6.1119 C   0  0  0  0  0  0  0  0  0  0  0  0
  1  2  1  1  0  0  0
  1  6  1  0  0  0  0
  1 21  1  0  0  0  0
  3  4  1  1  0  0  0
  3  8  1  0  0  0  0
  3 28  1  0  0  0  0
  5  9  1  0  0  0  0
  5 25  1  0  0  0  0
  5 29  1  6  0  0  0
  6  7  1  1  0  0  0
  6 11  1  0  0  0  0
  8 12  1  0  0  0  0
  9 10  1  1  0  0  0
  9 14  1  0  0  0  0
 11 16  1  0  0  0  0
 12 13  1  6  0  0  0
 12 17  1  0  0  0  0
 14 15  1  1  0  0  0
 14 18  1  0  0  0  0
 15 31  1  0  0  0  0
 16 20  1  0  0  0  0
 17  2  1  6  0  0  0
 17 22  1  0  0  0  0
 18 19  1  1  0  0  0
 18 24  1  0  0  0  0
 18 30  1  0  0  0  0
 20 21  1  0  0  0  0
 20 26  1  6  0  0  0
 22 23  1  6  0  0  0
 22 28  1  0  0  0  0
 24 25  1  0  0  0  0
 26 27  1  0  0  0  0
 28 29  1  1  0  0  0
M  END
>  <CHROM.1>
-173.82152547,-176.90560586,-89.32234705,-172.84830358,-116.66299087,67.69373382
-1.01811584,12.57384511,6.24645748,-2.60072538,-0.57889110,2.11143636

>  <Name>
ligand

>  <RI>
0

>  <Rbt.Current_Directory>
/home/itssahil/PROJECTS/Mol_Feturizer/New_Systems/rnas/4GPX

>  <Rbt.Executable>
rbdock ($Id: //depot/dev/client3/rdock/2013.1/src/exe/rbdock.cxx#4 $)

>  <Rbt.Library>
libRbt.so (2013.1, Build901 2013/11/27)

>  <Rbt.Parameter_File>
/export/apps/rDock/src/rDock_2013.1_src/data/scripts/dock_solv.prm

>  <Rbt.Receptor>
prm/pocket_docking_8.prm

>  <SCORE>
-16.569

>  <SCORE.INTER>
-7.93207

>  <SCORE.INTER.CONST>
1

>  <SCORE.INTER.POLAR>
0

>  <SCORE.INTER.ROT>
6

>  <SCORE.INTER.SOLV>
8.88372

>  <SCORE.INTER.VDW>
-15.8493

>  <SCORE.INTER.norm>
-0.255873

>  <SCORE.INTRA>
-8.63697

>  <SCORE.INTRA.DIHEDRAL>
-17.6256

>  <SCORE.INTRA.DIHEDRAL.0>
20.6841

>  <SCORE.INTRA.POLAR>
0

>  <SCORE.INTRA.POLAR.0>
0

>  <SCORE.INTRA.REPUL>
0

>  <SCORE.INTRA.REPUL.0>
0

>  <SCORE.INTRA.SOLV>
-1.48986

>  <SCORE.INTRA.SOLV.lig_0>
-64.6797

>  <SCORE.INTRA.VDW>
0.920784

>  <SCORE.INTRA.VDW.0>
-4.11825

>  <SCORE.INTRA.norm>
-0.278612

>  <SCORE.RESTR>
0

>  <SCORE.RESTR.CAVITY>
0

>  <SCORE.RESTR.norm>
0

>  <SCORE.SYSTEM>
0

>  <SCORE.SYSTEM.CONST>
0

>  <SCORE.SYSTEM.DIHEDRAL>
0

>  <SCORE.SYSTEM.SOLV>
0

>  <SCORE.SYSTEM.norm>
0

>  <SCORE.heavy>
31

>  <SCORE.norm>
-0.534485

>  <RMSD>
3.360

$$$$
ligand
 OpenBabel11021811493D
libRbt.so/2013.1/901 2013/11/27
 31 33  0  0  0  0  0  0  0  0999 V2000
   -3.4477   14.3229    4.2724 C   0  0  2  0  0  0  0  0  0  0  0  0
   -3.5787   14.1694    5.6825 O   0  0  0  0  0  0  0  0  0  0  0  0
   -1.8390   11.6348    8.6207 C   0  0  2  0  0  0  0  0  0  0  0  0
   -1.5421   10.4554    9.3743 N   0  0  0  0  0  0  0  0  0  0  0  0
    0.5468    9.9577    7.6019 C   0  0  2  0  0  0  0  0  0  0  0  0
   -3.3885   15.8798    3.9922 C   0  0  2  0  0  0  0  0  0  0  0  0
   -2.2495   16.4425    4.7099 N   0  0  0  0  0  0  0  0  0  0  0  0
   -3.3961   11.9104    8.7179 C   0  0  0  0  0  0  0  0  0  0  0  0
    2.0841   10.1575    7.4134 C   0  0  2  0  0  0  0  0  0  0  0  0
    2.4618   11.3483    8.0705 O   0  0  0  0  0  0  0  0  0  0  0  0
   -4.7338   16.5728    4.4492 C   0  0  0  0  0  0  0  0  0  0  0  0
   -3.7270   13.2065    7.8872 C   0  0  2  0  0  0  0  0  0  0  0  0
   -5.1749   13.4649    7.9693 N   0  0  0  0  0  0  0  0  0  0  0  0
    2.3556   10.2569    5.8642 C   0  0  1  0  0  0  0  0  0  0  0  0
    3.8205   10.4702    5.6194 N   0  0  0  0  0  0  0  0  0  0  0  0
   -6.0069   15.6721    4.1533 C   0  0  0  0  0  0  0  0  0  0  0  0
   -3.2892   13.0011    6.3701 C   0  0  2  0  0  0  0  0  0  0  0  0
    1.8924    8.8507    5.1813 C   0  0  1  0  0  0  0  0  0  0  0  0
    2.5777    7.7361    5.7266 O   0  0  0  0  0  0  0  0  0  0  0  0
   -5.8738   14.3798    3.7532 C   0  0  2  0  0  0  0  0  0  0  0  0
   -4.5959   13.7578    3.5750 O   0  0  0  0  0  0  0  0  0  0  0  0
   -1.7424   12.7196    6.3036 C   0  0  2  0  0  0  0  0  0  0  0  0
   -1.3561   12.5248    4.9262 O   0  0  0  0  0  0  0  0  0  0  0  0
    0.3671    8.6158    5.4306 C   0  0  0  0  0  0  0  0  0  0  0  0
    0.0885    8.6882    6.9088 O   0  0  0  0  0  0  0  0  0  0  0  0
   -7.0694   13.4736    3.4538 C   0  0  0  0  0  0  0  0  0  0  0  0
   -7.3274   12.6672    4.6275 O   0  0  0  0  0  0  0  0  0  0  0  0
   -1.4347   11.4100    7.1195 C   0  0  1  0  0  0  0  0  0  0  0  0
   -0.0667   11.1607    7.0347 O   0  0  0  0  0  0  0  0  0  0  0  0
    2.0910    8.7730    3.6483 C   0  0  0  0  0  0  0  0  0  0  0  0
    4.1822   11.4850    4.6088 C   0  0  0  0  0  0  0  0  0  0  0  0
  1  2  1  1  0  0  0
  1  6  1  0  0  0  0
  1 21  1  0  0  0  0
  3  4  1  1  0  0  0
  3  8  1  0  0  0  0
  3 28  1  0  0  0  0
  5  9  1  0  0  0  0
  5 25  1  0  0  0  0
  5 29  1  6  0  0  0
  6  7  1  1  0  0  0
  6 11  1  0  0  0  0
  8 12  1  0  0  0  0
  9 10  1  1  0  0  0
  9 14  1  0  0  0  0
 11 16  1  0  0  0  0
 12 13  1  6  0  0  0
 12 17  1  0  0  0  0
 14 15  1  1  0  0  0
 14 18  1  0  0  0  0
 15 31  1  0  0  0  0
 16 20  1  0  0  0  0
 17  2  1  6  0  0  0
 17 22  1  0  0  0  0
 18 19  1  1  0  0  0
 18 24  1  0  0  0  0
 18 30  1  0  0  0  0
 20 21  1  0  0  0  0
 20 26  1  6  0  0  0
 22 23  1  6  0  0  0
 22 28  1  0  0  0  0
 24 25  1  0  0  0  0
 26 27  1  0  0  0  0
 28 29  1  1  0  0  0
M  END
>  <CHROM.1>
-160.87004925,-174.30341519,-136.14707284,-173.66321866,-97.52918889,65.92124031
-1.57763158,12.07776150,5.88752151,-2.70391522,-0.43067984,2.13214149

>  <Name>
ligand

>  <RI>
0

>  <Rbt.Current_Directory>
/home/itssahil/PROJECTS/Mol_Feturizer/New_Systems/rnas/4GPX

>  <Rbt.Executable>
rbdock ($Id: //depot/dev/client3/rdock/2013.1/src/exe/rbdock.cxx#4 $)

>  <Rbt.Library>
libRbt.so (2013.1, Build901 2013/11/27)

>  <Rbt.Parameter_File>
/export/apps/rDock/src/rDock_2013.1_src/data/scripts/dock_solv.prm

>  <Rbt.Receptor>
prm/pocket_docking_6.prm

>  <SCORE>
-16.6855

>  <SCORE.INTER>
-9.39144

>  <SCORE.INTER.CONST>
1

>  <SCORE.INTER.POLAR>
0

>  <SCORE.INTER.ROT>
6

>  <SCORE.INTER.SOLV>
13.6431

>  <SCORE.INTER.VDW>
-18.4086

>  <SCORE.INTER.norm>
-0.30295

>  <SCORE.INTRA>
-7.29411

>  <SCORE.INTRA.DIHEDRAL>
-15.2186

>  <SCORE.INTRA.DIHEDRAL.0>
20.6841

>  <SCORE.INTRA.POLAR>
0

>  <SCORE.INTRA.POLAR.0>
0

>  <SCORE.INTRA.REPUL>
0

>  <SCORE.INTRA.REPUL.0>
0

>  <SCORE.INTRA.SOLV>
-1.34145

>  <SCORE.INTRA.SOLV.lig_0>
-64.6797

>  <SCORE.INTRA.VDW>
0.985934

>  <SCORE.INTRA.VDW.0>
-4.11825

>  <SCORE.INTRA.norm>
-0.235294

>  <SCORE.RESTR>
0

>  <SCORE.RESTR.CAVITY>
0

>  <SCORE.RESTR.norm>
0

>  <SCORE.SYSTEM>
0

>  <SCORE.SYSTEM.CONST>
0

>  <SCORE.SYSTEM.DIHEDRAL>
0

>  <SCORE.SYSTEM.SOLV>
0

>  <SCORE.SYSTEM.norm>
0

>  <SCORE.heavy>
31

>  <SCORE.norm>
-0.538243

>  <RMSD>
3.381

$$$$
ligand
 OpenBabel11021811493D
libRbt.so/2013.1/901 2013/11/27
 31 33  0  0  0  0  0  0  0  0999 V2000
   -4.6228   15.1426    6.8656 C   0  0  2  0  0  0  0  0  0  0  0  0
   -3.3582   14.4944    6.9649 O   0  0  0  0  0  0  0  0  0  0  0  0
   -1.7180   11.8982    9.9066 C   0  0  2  0  0  0  0  0  0  0  0  0
   -1.4868   10.7164   10.6792 N   0  0  0  0  0  0  0  0  0  0  0  0
    0.4267    9.8839    8.5020 C   0  0  2  0  0  0  0  0  0  0  0  0
   -5.5796   14.1474    6.0909 C   0  0  2  0  0  0  0  0  0  0  0  0
   -5.6644   12.8988    6.8412 N   0  0  0  0  0  0  0  0  0  0  0  0
   -3.2449   12.2963   10.0480 C   0  0  0  0  0  0  0  0  0  0  0  0
    1.9835    9.9686    8.4122 C   0  0  2  0  0  0  0  0  0  0  0  0
    2.4355   10.8896    9.3817 O   0  0  0  0  0  0  0  0  0  0  0  0
   -5.0346   13.8850    4.6304 C   0  0  0  0  0  0  0  0  0  0  0  0
   -3.5036   13.5954    9.1966 C   0  0  2  0  0  0  0  0  0  0  0  0
   -4.9235   13.9674    9.3198 N   0  0  0  0  0  0  0  0  0  0  0  0
    2.3414   10.4586    6.9578 C   0  0  1  0  0  0  0  0  0  0  0  0
    3.8302   10.5790    6.8160 N   0  0  0  0  0  0  0  0  0  0  0  0
   -4.4043   15.1879    3.9787 C   0  0  0  0  0  0  0  0  0  0  0  0
   -3.1358   13.3227    7.6715 C   0  0  2  0  0  0  0  0  0  0  0  0
    1.7858    9.3474    5.9019 C   0  0  1  0  0  0  0  0  0  0  0  0
    2.3369    8.0621    6.1336 O   0  0  0  0  0  0  0  0  0  0  0  0
   -4.1911   16.3086    4.7179 C   0  0  2  0  0  0  0  0  0  0  0  0
   -4.5170   16.3846    6.1106 O   0  0  0  0  0  0  0  0  0  0  0  0
   -1.6186   12.9203    7.5613 C   0  0  2  0  0  0  0  0  0  0  0  0
   -1.2965   12.6652    6.1772 O   0  0  0  0  0  0  0  0  0  0  0  0
    0.2346    9.2112    6.0407 C   0  0  0  0  0  0  0  0  0  0  0  0
   -0.1108    8.9057    7.4743 O   0  0  0  0  0  0  0  0  0  0  0  0
   -3.5892   17.5885    4.1348 C   0  0  0  0  0  0  0  0  0  0  0  0
   -2.3079   17.8123    4.7691 O   0  0  0  0  0  0  0  0  0  0  0  0
   -1.3845   11.6092    8.3990 C   0  0  1  0  0  0  0  0  0  0  0  0
   -0.0436   11.2523    8.2755 O   0  0  0  0  0  0  0  0  0  0  0  0
    2.0541    9.6711    4.4123 C   0  0  0  0  0  0  0  0  0  0  0  0
    4.4450   11.8238    7.3207 C   0  0  0  0  0  0  0  0  0  0  0  0
  1  2  1  6  0  0  0
  1  6  1  0  0  0  0
  1 21  1  0  0  0  0
  3  4  1  1  0  0  0
  3  8  1  0  0  0  0
  3 28  1  0  0  0  0
  5  9  1  0  0  0  0
  5 25  1  0  0  0  0
  5 29  1  6  0  0  0
  6  7  1  1  0  0  0
  6 11  1  0  0  0  0
  8 12  1  0  0  0  0
  9 10  1  1  0  0  0
  9 14  1  0  0  0  0
 11 16  1  0  0  0  0
 12 13  1  6  0  0  0
 12 17  1  0  0  0  0
 14 15  1  1  0  0  0
 14 18  1  0  0  0  0
 15 31  1  0  0  0  0
 16 20  1  0  0  0  0
 17  2  1  6  0  0  0
 17 22  1  0  0  0  0
 18 19  1  1  0  0  0
 18 24  1  0  0  0  0
 18 30  1  0  0  0  0
 20 21  1  0  0  0  0
 20 26  1  6  0  0  0
 22 23  1  6  0  0  0
 22 28  1  0  0  0  0
 24 25  1  0  0  0  0
 26 27  1  0  0  0  0
 28 29  1  1  0  0  0
M  END
>  <CHROM.1>
-64.19625321,-174.04417888,-82.48100239,-60.40989273,-114.89443119,83.62940766
-1.37558010,12.48524957,7.06560532,2.61347680,0.52693982,-0.95407306

>  <Name>
ligand

>  <RI>
0

>  <Rbt.Current_Directory>
/home/itssahil/PROJECTS/Mol_Feturizer/New_Systems/rnas/4GPX

>  <Rbt.Executable>
rbdock ($Id: //depot/dev/client3/rdock/2013.1/src/exe/rbdock.cxx#4 $)

>  <Rbt.Library>
libRbt.so (2013.1, Build901 2013/11/27)

>  <Rbt.Parameter_File>
/export/apps/rDock/src/rDock_2013.1_src/data/scripts/dock_solv.prm

>  <Rbt.Receptor>
prm/pocket_docking_5.prm

>  <SCORE>
-10.2938

>  <SCORE.INTER>
-6.07223

>  <SCORE.INTER.CONST>
1

>  <SCORE.INTER.POLAR>
0

>  <SCORE.INTER.ROT>
6

>  <SCORE.INTER.SOLV>
11.7077

>  <SCORE.INTER.VDW>
-15.5507

>  <SCORE.INTER.norm>
-0.195879

>  <SCORE.INTRA>
-4.22158

>  <SCORE.INTRA.DIHEDRAL>
-15.9066

>  <SCORE.INTRA.DIHEDRAL.0>
20.6841

>  <SCORE.INTRA.POLAR>
0

>  <SCORE.INTRA.POLAR.0>
0

>  <SCORE.INTRA.REPUL>
0

>  <SCORE.INTRA.REPUL.0>
0

>  <SCORE.INTRA.SOLV>
3.22815

>  <SCORE.INTRA.SOLV.lig_0>
-64.6797

>  <SCORE.INTRA.VDW>
2.11764

>  <SCORE.INTRA.VDW.0>
-4.11825

>  <SCORE.INTRA.norm>
-0.13618

>  <SCORE.RESTR>
0

>  <SCORE.RESTR.CAVITY>
0

>  <SCORE.RESTR.norm>
0

>  <SCORE.SYSTEM>
0

>  <SCORE.SYSTEM.CONST>
0

>  <SCORE.SYSTEM.DIHEDRAL>
0

>  <SCORE.SYSTEM.SOLV>
0

>  <SCORE.SYSTEM.norm>
0

>  <SCORE.heavy>
31

>  <SCORE.norm>
-0.332059

>  <RMSD>
3.493

$$$$
ligand
 OpenBabel11021811493D
libRbt.so/2013.1/901 2013/11/27
 31 33  0  0  0  0  0  0  0  0999 V2000
   -2.5741   15.0511    4.4943 C   0  0  2  0  0  0  0  0  0  0  0  0
   -2.7472   14.9373    5.9036 O   0  0  0  0  0  0  0  0  0  0  0  0
   -1.3716   12.2385    8.8883 C   0  0  2  0  0  0  0  0  0  0  0  0
   -1.2394   11.0427    9.6625 N   0  0  0  0  0  0  0  0  0  0  0  0
    0.7559   10.2211    7.8827 C   0  0  2  0  0  0  0  0  0  0  0  0
   -2.5590   16.5996    4.1659 C   0  0  2  0  0  0  0  0  0  0  0  0
   -1.4647   17.2244    4.9017 N   0  0  0  0  0  0  0  0  0  0  0  0
   -2.8760   12.7271    8.9775 C   0  0  0  0  0  0  0  0  0  0  0  0
    2.2945   10.1655    7.6214 C   0  0  2  0  0  0  0  0  0  0  0  0
    2.8904   11.2900    8.2322 O   0  0  0  0  0  0  0  0  0  0  0  0
   -3.9418   17.2586    4.5562 C   0  0  0  0  0  0  0  0  0  0  0  0
   -3.0259   14.0420    8.1242 C   0  0  2  0  0  0  0  0  0  0  0  0
   -4.4244   14.4982    8.1988 N   0  0  0  0  0  0  0  0  0  0  0  0
    2.5045   10.1938    6.0597 C   0  0  1  0  0  0  0  0  0  0  0  0
    3.9712   10.1623    5.7452 N   0  0  0  0  0  0  0  0  0  0  0  0
   -5.1727   16.3047    4.2484 C   0  0  0  0  0  0  0  0  0  0  0  0
   -2.6208   13.7522    6.6117 C   0  0  2  0  0  0  0  0  0  0  0  0
    1.7883    8.8703    5.4322 C   0  0  1  0  0  0  0  0  0  0  0  0
    2.3100    7.6685    5.9733 O   0  0  0  0  0  0  0  0  0  0  0  0
   -4.9819   15.0061    3.8949 C   0  0  2  0  0  0  0  0  0  0  0  0
   -3.6782   14.4244    3.7787 O   0  0  0  0  0  0  0  0  0  0  0  0
   -1.1274   13.2598    6.5533 C   0  0  2  0  0  0  0  0  0  0  0  0
   -0.7718   12.9900    5.1802 O   0  0  0  0  0  0  0  0  0  0  0  0
    0.2587    8.8904    5.7545 C   0  0  0  0  0  0  0  0  0  0  0  0
    0.0663    9.0315    7.2414 O   0  0  0  0  0  0  0  0  0  0  0  0
   -6.1351   14.0493    3.5863 C   0  0  0  0  0  0  0  0  0  0  0  0
   -6.1037   12.9787    4.5596 O   0  0  0  0  0  0  0  0  0  0  0  0
   -1.0023   11.9345    7.3920 C   0  0  1  0  0  0  0  0  0  0  0  0
    0.3184   11.4982    7.3144 O   0  0  0  0  0  0  0  0  0  0  0  0
    1.8985    8.7360    3.8942 C   0  0  0  0  0  0  0  0  0  0  0  0
    4.4652   11.1738    4.7887 C   0  0  0  0  0  0  0  0  0  0  0  0
  1  2  1  1  0  0  0
  1  6  1  0  0  0  0
  1 21  1  0  0  0  0
  3  4  1  1  0  0  0
  3  8  1  0  0  0  0
  3 28  1  0  0  0  0
  5  9  1  0  0  0  0
  5 25  1  0  0  0  0
  5 29  1  6  0  0  0
  6  7  1  1  0  0  0
  6 11  1  0  0  0  0
  8 12  1  0  0  0  0
  9 10  1  1  0  0  0
  9 14  1  0  0  0  0
 11 16  1  0  0  0  0
 12 13  1  6  0  0  0
 12 17  1  0  0  0  0
 14 15  1  1  0  0  0
 14 18  1  0  0  0  0
 15 31  1  0  0  0  0
 16 20  1  0  0  0  0
 17  2  1  6  0  0  0
 17 22  1  0  0  0  0
 18 19  1  1  0  0  0
 18 24  1  0  0  0  0
 18 30  1  0  0  0  0
 20 21  1  0  0  0  0
 20 26  1  6  0  0  0
 22 23  1  6  0  0  0
 22 28  1  0  0  0  0
 24 25  1  0  0  0  0
 26 27  1  0  0  0  0
 28 29  1  1  0  0  0
M  END
>  <CHROM.1>
-170.29437625,-177.80527994,-130.56426545,-174.78644403,-117.30421919,67.03084417
-1.09136686,12.49319099,6.09804042,-2.68407551,-0.59902140,2.03193904

>  <Name>
ligand

>  <RI>
0

>  <Rbt.Current_Directory>
/home/itssahil/PROJECTS/Mol_Feturizer/New_Systems/rnas/4GPX

>  <Rbt.Executable>
rbdock ($Id: //depot/dev/client3/rdock/2013.1/src/exe/rbdock.cxx#4 $)

>  <Rbt.Library>
libRbt.so (2013.1, Build901 2013/11/27)

>  <Rbt.Parameter_File>
/export/apps/rDock/src/rDock_2013.1_src/data/scripts/dock_solv.prm

>  <Rbt.Receptor>
prm/pocket_docking_7.prm

>  <SCORE>
-16.5566

>  <SCORE.INTER>
-8.06774

>  <SCORE.INTER.CONST>
1

>  <SCORE.INTER.POLAR>
0

>  <SCORE.INTER.ROT>
6

>  <SCORE.INTER.SOLV>
8.99493

>  <SCORE.INTER.VDW>
-15.9768

>  <SCORE.INTER.norm>
-0.26025

>  <SCORE.INTRA>
-8.48886

>  <SCORE.INTRA.DIHEDRAL>
-17.019

>  <SCORE.INTRA.DIHEDRAL.0>
20.6841

>  <SCORE.INTRA.POLAR>
0

>  <SCORE.INTRA.POLAR.0>
0

>  <SCORE.INTRA.REPUL>
0

>  <SCORE.INTRA.REPUL.0>
0

>  <SCORE.INTRA.SOLV>
-1.66274

>  <SCORE.INTRA.SOLV.lig_0>
-64.6797

>  <SCORE.INTRA.VDW>
0.852032

>  <SCORE.INTRA.VDW.0>
-4.11825

>  <SCORE.INTRA.norm>
-0.273834

>  <SCORE.RESTR>
0

>  <SCORE.RESTR.CAVITY>
0

>  <SCORE.RESTR.norm>
0

>  <SCORE.SYSTEM>
0

>  <SCORE.SYSTEM.CONST>
0

>  <SCORE.SYSTEM.DIHEDRAL>
0

>  <SCORE.SYSTEM.SOLV>
0

>  <SCORE.SYSTEM.norm>
0

>  <SCORE.heavy>
31

>  <SCORE.norm>
-0.534084

>  <RMSD>
3.493

$$$$
ligand
 OpenBabel11021811493D
libRbt.so/2013.1/901 2013/11/27
 31 33  0  0  0  0  0  0  0  0999 V2000
   -2.2273   15.4524    4.4163 C   0  0  2  0  0  0  0  0  0  0  0  0
   -2.1093   14.8191    5.6868 O   0  0  0  0  0  0  0  0  0  0  0  0
   -0.7997   10.9250    6.7844 C   0  0  2  0  0  0  0  0  0  0  0  0
    0.0763    9.8248    7.0470 N   0  0  0  0  0  0  0  0  0  0  0  0
    0.4001   10.9183    9.7650 C   0  0  2  0  0  0  0  0  0  0  0  0
   -2.4829   16.9886    4.7006 C   0  0  2  0  0  0  0  0  0  0  0  0
   -1.3612   17.5160    5.4705 N   0  0  0  0  0  0  0  0  0  0  0  0
   -0.6094   11.3651    5.2744 C   0  0  0  0  0  0  0  0  0  0  0  0
   -0.2828   10.5144   11.1101 C   0  0  2  0  0  0  0  0  0  0  0  0
   -1.4749    9.8194   10.8126 O   0  0  0  0  0  0  0  0  0  0  0  0
   -3.8404   17.1844    5.4865 C   0  0  0  0  0  0  0  0  0  0  0  0
   -1.5704   12.5778    4.9824 C   0  0  2  0  0  0  0  0  0  0  0  0
   -1.3939   12.9952    3.5809 N   0  0  0  0  0  0  0  0  0  0  0  0
   -0.5867   11.8452   11.8977 C   0  0  1  0  0  0  0  0  0  0  0  0
   -1.2643   11.5215   13.1966 N   0  0  0  0  0  0  0  0  0  0  0  0
   -4.9685   16.1785    5.0016 C   0  0  0  0  0  0  0  0  0  0  0  0
   -1.2292   13.7845    5.9638 C   0  0  2  0  0  0  0  0  0  0  0  0
    0.8338   12.5866   12.1989 C   0  0  1  0  0  0  0  0  0  0  0  0
    1.7199   11.7693   12.9448 O   0  0  0  0  0  0  0  0  0  0  0  0
   -4.6773   15.1510    4.1607 C   0  0  2  0  0  0  0  0  0  0  0  0
   -3.3543   14.9141    3.6654 O   0  0  0  0  0  0  0  0  0  0  0  0
   -1.4166   13.3177    7.4548 C   0  0  2  0  0  0  0  0  0  0  0  0
   -1.0956   14.4143    8.3374 O   0  0  0  0  0  0  0  0  0  0  0  0
    1.5512   12.9281   10.8526 C   0  0  0  0  0  0  0  0  0  0  0  0
    1.6888   11.6735   10.0310 O   0  0  0  0  0  0  0  0  0  0  0  0
   -5.7296   14.1580    3.6638 C   0  0  0  0  0  0  0  0  0  0  0  0
   -5.3980   12.8510    4.1894 O   0  0  0  0  0  0  0  0  0  0  0  0
   -0.4333   12.1215    7.7339 C   0  0  1  0  0  0  0  0  0  0  0  0
   -0.5939   11.7324    9.0618 O   0  0  0  0  0  0  0  0  0  0  0  0
    0.7217   13.9220   12.9733 C   0  0  0  0  0  0  0  0  0  0  0  0
   -2.7100   11.8135   13.2801 C   0  0  0  0  0  0  0  0  0  0  0  0
  1  2  1  1  0  0  0
  1  6  1  0  0  0  0
  1 21  1  0  0  0  0
  3  4  1  1  0  0  0
  3  8  1  0  0  0  0
  3 28  1  0  0  0  0
  5  9  1  0  0  0  0
  5 25  1  0  0  0  0
  5 29  1  1  0  0  0
  6  7  1  1  0  0  0
  6 11  1  0  0  0  0
  8 12  1  0  0  0  0
  9 10  1  6  0  0  0
  9 14  1  0  0  0  0
 11 16  1  0  0  0  0
 12 13  1  6  0  0  0
 12 17  1  0  0  0  0
 14 15  1  1  0  0  0
 14 18  1  0  0  0  0
 15 31  1  0  0  0  0
 16 20  1  0  0  0  0
 17  2  1  6  0  0  0
 17 22  1  0  0  0  0
 18 19  1  1  0  0  0
 18 24  1  0  0  0  0
 18 30  1  0  0  0  0
 20 21  1  0  0  0  0
 20 26  1  6  0  0  0
 22 23  1  1  0  0  0
 22 28  1  0  0  0  0
 24 25  1  0  0  0  0
 26 27  1  0  0  0  0
 28 29  1  1  0  0  0
M  END
>  <CHROM.1>
-142.73551395,-170.39067443,-106.04614620,-59.20643473,-115.08057899,78.77877868
-1.44492850,13.13721093,7.82807178,2.81442558,1.12480524,-2.35158105

>  <Name>
ligand

>  <RI>
0

>  <Rbt.Current_Directory>
/home/itssahil/PROJECTS/Mol_Feturizer/New_Systems/rnas/4GPX

>  <Rbt.Executable>
rbdock ($Id: //depot/dev/client3/rdock/2013.1/src/exe/rbdock.cxx#4 $)

>  <Rbt.Library>
libRbt.so (2013.1, Build901 2013/11/27)

>  <Rbt.Parameter_File>
/export/apps/rDock/src/rDock_2013.1_src/data/scripts/dock_solv.prm

>  <Rbt.Receptor>
prm/pocket_docking_5.prm

>  <SCORE>
-13.8273

>  <SCORE.INTER>
-9.40906

>  <SCORE.INTER.CONST>
1

>  <SCORE.INTER.POLAR>
0

>  <SCORE.INTER.ROT>
6

>  <SCORE.INTER.SOLV>
12.6237

>  <SCORE.INTER.VDW>
-18.0806

>  <SCORE.INTER.norm>
-0.303518

>  <SCORE.INTRA>
-4.41827

>  <SCORE.INTRA.DIHEDRAL>
-10.9333

>  <SCORE.INTRA.DIHEDRAL.0>
20.6841

>  <SCORE.INTRA.POLAR>
0

>  <SCORE.INTRA.POLAR.0>
0

>  <SCORE.INTRA.REPUL>
0

>  <SCORE.INTRA.REPUL.0>
0

>  <SCORE.INTRA.SOLV>
0.381436

>  <SCORE.INTRA.SOLV.lig_0>
-64.6797

>  <SCORE.INTRA.VDW>
0.857688

>  <SCORE.INTRA.VDW.0>
-4.11825

>  <SCORE.INTRA.norm>
-0.142525

>  <SCORE.RESTR>
0

>  <SCORE.RESTR.CAVITY>
0

>  <SCORE.RESTR.norm>
0

>  <SCORE.SYSTEM>
0

>  <SCORE.SYSTEM.CONST>
0

>  <SCORE.SYSTEM.DIHEDRAL>
0

>  <SCORE.SYSTEM.SOLV>
0

>  <SCORE.SYSTEM.norm>
0

>  <SCORE.heavy>
31

>  <SCORE.norm>
-0.446043

>  <RMSD>
3.502

$$$$
ligand
 OpenBabel11021811493D
libRbt.so/2013.1/901 2013/11/27
 31 33  0  0  0  0  0  0  0  0999 V2000
   -3.1204   14.7481    4.4088 C   0  0  2  0  0  0  0  0  0  0  0  0
   -3.0951   14.6471    5.8295 O   0  0  0  0  0  0  0  0  0  0  0  0
   -2.0702   11.3713    8.3400 C   0  0  2  0  0  0  0  0  0  0  0  0
   -1.2730   10.4218    9.0541 N   0  0  0  0  0  0  0  0  0  0  0  0
   -1.2363   12.2376   11.2264 C   0  0  2  0  0  0  0  0  0  0  0  0
   -3.3506   16.2772    4.0699 C   0  0  2  0  0  0  0  0  0  0  0  0
   -2.2626   17.0556    4.6525 N   0  0  0  0  0  0  0  0  0  0  0  0
   -1.7307   11.2483    6.7974 C   0  0  0  0  0  0  0  0  0  0  0  0
   -1.9847   12.5173   12.5682 C   0  0  2  0  0  0  0  0  0  0  0  0
   -3.3060   12.0349   12.4494 O   0  0  0  0  0  0  0  0  0  0  0  0
   -4.7465   16.7614    4.6320 C   0  0  0  0  0  0  0  0  0  0  0  0
   -2.6046   12.2939    6.0084 C   0  0  2  0  0  0  0  0  0  0  0  0
   -2.2891   12.1881    4.5736 N   0  0  0  0  0  0  0  0  0  0  0  0
   -1.9714   14.0770   12.7941 C   0  0  1  0  0  0  0  0  0  0  0  0
   -2.6967   14.4109   14.0643 N   0  0  0  0  0  0  0  0  0  0  0  0
   -5.8708   15.6493    4.4939 C   0  0  0  0  0  0  0  0  0  0  0  0
   -2.2920   13.7641    6.5344 C   0  0  2  0  0  0  0  0  0  0  0  0
   -0.4171   14.5537   12.9176 C   0  0  1  0  0  0  0  0  0  0  0  0
    0.2635   13.9011   13.9761 O   0  0  0  0  0  0  0  0  0  0  0  0
   -5.5582   14.3780    4.1281 C   0  0  2  0  0  0  0  0  0  0  0  0
   -4.2151   13.9668    3.8475 O   0  0  0  0  0  0  0  0  0  0  0  0
   -2.6283   13.8552    8.0689 C   0  0  2  0  0  0  0  0  0  0  0  0
   -2.3326   15.1878    8.5394 O   0  0  0  0  0  0  0  0  0  0  0  0
    0.3507   14.2098   11.6000 C   0  0  0  0  0  0  0  0  0  0  0  0
    0.1926   12.7421   11.3017 O   0  0  0  0  0  0  0  0  0  0  0  0
   -6.6058   13.2731    3.9792 C   0  0  0  0  0  0  0  0  0  0  0  0
   -6.5331   12.7642    2.6263 O   0  0  0  0  0  0  0  0  0  0  0  0
   -1.7303   12.8203    8.8423 C   0  0  1  0  0  0  0  0  0  0  0  0
   -2.0223   12.9263   10.2003 O   0  0  0  0  0  0  0  0  0  0  0  0
   -0.2160   16.0715   13.1448 C   0  0  0  0  0  0  0  0  0  0  0  0
   -4.1307   14.7433   13.9403 C   0  0  0  0  0  0  0  0  0  0  0  0
  1  2  1  1  0  0  0
  1  6  1  0  0  0  0
  1 21  1  0  0  0  0
  3  4  1  1  0  0  0
  3  8  1  0  0  0  0
  3 28  1  0  0  0  0
  5  9  1  0  0  0  0
  5 25  1  0  0  0  0
  5 29  1  6  0  0  0
  6  7  1  1  0  0  0
  6 11  1  0  0  0  0
  8 12  1  0  0  0  0
  9 10  1  6  0  0  0
  9 14  1  0  0  0  0
 11 16  1  0  0  0  0
 12 13  1  6  0  0  0
 12 17  1  0  0  0  0
 14 15  1  1  0  0  0
 14 18  1  0  0  0  0
 15 31  1  0  0  0  0
 16 20  1  0  0  0  0
 17  2  1  6  0  0  0
 17 22  1  0  0  0  0
 18 19  1  1  0  0  0
 18 24  1  0  0  0  0
 18 30  1  0  0  0  0
 20 21  1  0  0  0  0
 20 26  1  6  0  0  0
 22 23  1  1  0  0  0
 22 28  1  0  0  0  0
 24 25  1  0  0  0  0
 26 27  1  0  0  0  0
 28 29  1  1  0  0  0
M  END
>  <CHROM.1>
-144.88636058,-174.68014873,-93.47946602,-56.02500013,122.02878849,69.89568894
-2.63757734,13.77946385,8.39714495,2.63514607,1.15738014,-2.52127584

>  <Name>
ligand

>  <RI>
0

>  <Rbt.Current_Directory>
/home/itssahil/PROJECTS/Mol_Feturizer/New_Systems/rnas/4GPX

>  <Rbt.Executable>
rbdock ($Id: //depot/dev/client3/rdock/2013.1/src/exe/rbdock.cxx#4 $)

>  <Rbt.Library>
libRbt.so (2013.1, Build901 2013/11/27)

>  <Rbt.Parameter_File>
/export/apps/rDock/src/rDock_2013.1_src/data/scripts/dock_solv.prm

>  <Rbt.Receptor>
prm/pocket_docking_5.prm

>  <SCORE>
-10.822

>  <SCORE.INTER>
-6.01963

>  <SCORE.INTER.CONST>
1

>  <SCORE.INTER.POLAR>
0

>  <SCORE.INTER.ROT>
6

>  <SCORE.INTER.SOLV>
12.1427

>  <SCORE.INTER.VDW>
-15.6607

>  <SCORE.INTER.norm>
-0.194182

>  <SCORE.INTRA>
-4.80235

>  <SCORE.INTRA.DIHEDRAL>
-13.0432

>  <SCORE.INTRA.DIHEDRAL.0>
20.6841

>  <SCORE.INTRA.POLAR>
0

>  <SCORE.INTRA.POLAR.0>
0

>  <SCORE.INTRA.REPUL>
0

>  <SCORE.INTRA.REPUL.0>
0

>  <SCORE.INTRA.SOLV>
0.164852

>  <SCORE.INTRA.SOLV.lig_0>
-64.6797

>  <SCORE.INTRA.VDW>
1.63682

>  <SCORE.INTRA.VDW.0>
-4.11825

>  <SCORE.INTRA.norm>
-0.154914

>  <SCORE.RESTR>
0

>  <SCORE.RESTR.CAVITY>
0

>  <SCORE.RESTR.norm>
0

>  <SCORE.SYSTEM>
0

>  <SCORE.SYSTEM.CONST>
0

>  <SCORE.SYSTEM.DIHEDRAL>
0

>  <SCORE.SYSTEM.SOLV>
0

>  <SCORE.SYSTEM.norm>
0

>  <SCORE.heavy>
31

>  <SCORE.norm>
-0.349096

>  <RMSD>
3.631

$$$$
ligand
 OpenBabel11021811493D
libRbt.so/2013.1/901 2013/11/27
 31 33  0  0  0  0  0  0  0  0999 V2000
   -2.1828   14.7913    4.0000 C   0  0  2  0  0  0  0  0  0  0  0  0
   -2.1263   14.0908    5.2391 O   0  0  0  0  0  0  0  0  0  0  0  0
    0.0590   10.7110    6.6121 C   0  0  2  0  0  0  0  0  0  0  0  0
    1.1634    9.8998    7.0236 N   0  0  0  0  0  0  0  0  0  0  0  0
    0.7172   10.7899    9.6480 C   0  0  2  0  0  0  0  0  0  0  0  0
   -1.3960   16.1483    4.2135 C   0  0  2  0  0  0  0  0  0  0  0  0
   -0.0242   15.8388    4.6027 N   0  0  0  0  0  0  0  0  0  0  0  0
    0.3289   11.2080    5.1322 C   0  0  0  0  0  0  0  0  0  0  0  0
    0.0039   10.3917   10.9789 C   0  0  2  0  0  0  0  0  0  0  0  0
   -1.1278    9.6104   10.6604 O   0  0  0  0  0  0  0  0  0  0  0  0
   -2.1051   17.0275    5.3194 C   0  0  0  0  0  0  0  0  0  0  0  0
   -0.8836   12.1034    4.6768 C   0  0  2  0  0  0  0  0  0  0  0  0
   -0.6357   12.5732    3.3029 N   0  0  0  0  0  0  0  0  0  0  0  0
   -0.4175   11.7277   11.7008 C   0  0  1  0  0  0  0  0  0  0  0  0
   -1.1288   11.4082   12.9827 N   0  0  0  0  0  0  0  0  0  0  0  0
   -3.6876   16.9289    5.2452 C   0  0  0  0  0  0  0  0  0  0  0  0
   -1.0386   13.3435    5.6636 C   0  0  2  0  0  0  0  0  0  0  0  0
    0.9388   12.5703   12.0305 C   0  0  1  0  0  0  0  0  0  0  0  0
    1.8419   11.8400   12.8432 O   0  0  0  0  0  0  0  0  0  0  0  0
   -4.2962   16.0133    4.4459 C   0  0  2  0  0  0  0  0  0  0  0  0
   -3.5600   15.0934    3.6314 O   0  0  0  0  0  0  0  0  0  0  0  0
   -1.2955   12.8219    7.1258 C   0  0  2  0  0  0  0  0  0  0  0  0
   -1.4247   13.9521    8.0150 O   0  0  0  0  0  0  0  0  0  0  0  0
    1.6906   12.9085   10.7022 C   0  0  0  0  0  0  0  0  0  0  0  0
    1.9428   11.6365    9.9366 O   0  0  0  0  0  0  0  0  0  0  0  0
   -5.8166   15.8816    4.3386 C   0  0  0  0  0  0  0  0  0  0  0  0
   -6.1829   14.5459    4.7583 O   0  0  0  0  0  0  0  0  0  0  0  0
   -0.0647   11.9489    7.5711 C   0  0  1  0  0  0  0  0  0  0  0  0
   -0.2950   11.5117    8.8736 O   0  0  0  0  0  0  0  0  0  0  0  0
    0.7089   13.9229   12.7470 C   0  0  0  0  0  0  0  0  0  0  0  0
   -2.6014   11.5239   12.9695 C   0  0  0  0  0  0  0  0  0  0  0  0
  1  2  1  1  0  0  0
  1  6  1  0  0  0  0
  1 21  1  0  0  0  0
  3  4  1  1  0  0  0
  3  8  1  0  0  0  0
  3 28  1  0  0  0  0
  5  9  1  0  0  0  0
  5 25  1  0  0  0  0
  5 29  1  6  0  0  0
  6  7  1  1  0  0  0
  6 11  1  0  0  0  0
  8 12  1  0  0  0  0
  9 10  1  6  0  0  0
  9 14  1  0  0  0  0
 11 16  1  0  0  0  0
 12 13  1  6  0  0  0
 12 17  1  0  0  0  0
 14 15  1  1  0  0  0
 14 18  1  0  0  0  0
 15 31  1  0  0  0  0
 16 20  1  0  0  0  0
 17  2  1  6  0  0  0
 17 22  1  0  0  0  0
 18 19  1  1  0  0  0
 18 24  1  0  0  0  0
 18 30  1  0  0  0  0
 20 21  1  0  0  0  0
 20 26  1  6  0  0  0
 22 23  1  1  0  0  0
 22 28  1  0  0  0  0
 24 25  1  0  0  0  0
 26 27  1  0  0  0  0
 28 29  1  1  0  0  0
M  END
>  <CHROM.1>
-80.61488646,-175.25870632,-102.18348642,-65.64476370,-119.72462208,67.85970538
-1.08293928,13.05444020,7.67844886,-2.13276090,-0.73474998,1.65100288

>  <Name>
ligand

>  <RI>
0

>  <Rbt.Current_Directory>
/home/itssahil/PROJECTS/Mol_Feturizer/New_Systems/rnas/4GPX

>  <Rbt.Executable>
rbdock ($Id: //depot/dev/client3/rdock/2013.1/src/exe/rbdock.cxx#4 $)

>  <Rbt.Library>
libRbt.so (2013.1, Build901 2013/11/27)

>  <Rbt.Parameter_File>
/export/apps/rDock/src/rDock_2013.1_src/data/scripts/dock_solv.prm

>  <Rbt.Receptor>
prm/pocket_docking_5.prm

>  <SCORE>
-14.7551

>  <SCORE.INTER>
-9.10045

>  <SCORE.INTER.CONST>
1

>  <SCORE.INTER.POLAR>
0

>  <SCORE.INTER.ROT>
6

>  <SCORE.INTER.SOLV>
10.5356

>  <SCORE.INTER.VDW>
-17.1788

>  <SCORE.INTER.norm>
-0.293563

>  <SCORE.INTRA>
-5.65465

>  <SCORE.INTRA.DIHEDRAL>
-15.5687

>  <SCORE.INTRA.DIHEDRAL.0>
20.6841

>  <SCORE.INTRA.POLAR>
0

>  <SCORE.INTRA.POLAR.0>
0

>  <SCORE.INTRA.REPUL>
0

>  <SCORE.INTRA.REPUL.0>
0

>  <SCORE.INTRA.SOLV>
1.6866

>  <SCORE.INTRA.SOLV.lig_0>
-64.6797

>  <SCORE.INTRA.VDW>
1.28638

>  <SCORE.INTRA.VDW.0>
-4.11825

>  <SCORE.INTRA.norm>
-0.182408

>  <SCORE.RESTR>
0

>  <SCORE.RESTR.CAVITY>
0

>  <SCORE.RESTR.norm>
0

>  <SCORE.SYSTEM>
0

>  <SCORE.SYSTEM.CONST>
0

>  <SCORE.SYSTEM.DIHEDRAL>
0

>  <SCORE.SYSTEM.SOLV>
0

>  <SCORE.SYSTEM.norm>
0

>  <SCORE.heavy>
31

>  <SCORE.norm>
-0.475971

>  <RMSD>
3.786

$$$$
ligand
 OpenBabel11021811493D
libRbt.so/2013.1/901 2013/11/27
 31 33  0  0  0  0  0  0  0  0999 V2000
   -2.2305   14.8214    4.0025 C   0  0  2  0  0  0  0  0  0  0  0  0
   -2.1716   14.1539    5.2596 O   0  0  0  0  0  0  0  0  0  0  0  0
    0.1073   10.8659    6.7019 C   0  0  2  0  0  0  0  0  0  0  0  0
    1.2306   10.1008    7.1488 N   0  0  0  0  0  0  0  0  0  0  0  0
    0.6489   10.9285    9.7413 C   0  0  2  0  0  0  0  0  0  0  0  0
   -1.4704   16.1976    4.1873 C   0  0  2  0  0  0  0  0  0  0  0  0
   -0.0964   15.9235    4.5951 N   0  0  0  0  0  0  0  0  0  0  0  0
    0.4039   11.3761    5.2316 C   0  0  0  0  0  0  0  0  0  0  0  0
   -0.1000   10.4795   11.0360 C   0  0  2  0  0  0  0  0  0  0  0  0
   -1.2018    9.6818   10.6587 O   0  0  0  0  0  0  0  0  0  0  0  0
   -2.2045   17.0916    5.2646 C   0  0  0  0  0  0  0  0  0  0  0  0
   -0.8296   12.2209    4.7374 C   0  0  2  0  0  0  0  0  0  0  0  0
   -0.5572   12.7028    3.3724 N   0  0  0  0  0  0  0  0  0  0  0  0
   -0.5765   11.7863   11.7768 C   0  0  1  0  0  0  0  0  0  0  0  0
   -1.3234   11.4174   13.0247 N   0  0  0  0  0  0  0  0  0  0  0  0
   -3.7843   16.9620    5.1805 C   0  0  0  0  0  0  0  0  0  0  0  0
   -1.0680   13.4519    5.7190 C   0  0  2  0  0  0  0  0  0  0  0  0
    0.7479   12.6499   12.1748 C   0  0  1  0  0  0  0  0  0  0  0  0
    1.6395   11.9187   12.9993 O   0  0  0  0  0  0  0  0  0  0  0  0
   -4.3694   16.0152    4.4001 C   0  0  2  0  0  0  0  0  0  0  0  0
   -3.6098   15.0885    3.6154 O   0  0  0  0  0  0  0  0  0  0  0  0
   -1.3501   12.9178    7.1720 C   0  0  2  0  0  0  0  0  0  0  0  0
   -1.5550   14.0402    8.0568 O   0  0  0  0  0  0  0  0  0  0  0  0
    1.5365   13.0397   10.8824 C   0  0  0  0  0  0  0  0  0  0  0  0
    1.8440   11.7942   10.0936 O   0  0  0  0  0  0  0  0  0  0  0  0
   -5.8863   15.8528    4.2843 C   0  0  0  0  0  0  0  0  0  0  0  0
   -6.2321   14.5234    4.7395 O   0  0  0  0  0  0  0  0  0  0  0  0
   -0.0990   12.0961    7.6567 C   0  0  1  0  0  0  0  0  0  0  0  0
   -0.3529   11.6476    8.9510 O   0  0  0  0  0  0  0  0  0  0  0  0
    0.4625   13.9777   12.9172 C   0  0  0  0  0  0  0  0  0  0  0  0
   -2.7981   11.4185   12.9386 C   0  0  0  0  0  0  0  0  0  0  0  0
  1  2  1  1  0  0  0
  1  6  1  0  0  0  0
  1 21  1  0  0  0  0
  3  4  1  1  0  0  0
  3  8  1  0  0  0  0
  3 28  1  0  0  0  0
  5  9  1  0  0  0  0
  5 25  1  0  0  0  0
  5 29  1  6  0  0  0
  6  7  1  1  0  0  0
  6 11  1  0  0  0  0
  8 12  1  0  0  0  0
  9 10  1  6  0  0  0
  9 14  1  0  0  0  0
 11 16  1  0  0  0  0
 12 13  1  6  0  0  0
 12 17  1  0  0  0  0
 14 15  1  1  0  0  0
 14 18  1  0  0  0  0
 15 31  1  0  0  0  0
 16 20  1  0  0  0  0
 17  2  1  6  0  0  0
 17 22  1  0  0  0  0
 18 19  1  1  0  0  0
 18 24  1  0  0  0  0
 18 30  1  0  0  0  0
 20 21  1  0  0  0  0
 20 26  1  6  0  0  0
 22 23  1  1  0  0  0
 22 28  1  0  0  0  0
 24 25  1  0  0  0  0
 26 27  1  0  0  0  0
 28 29  1  1  0  0  0
M  END
>  <CHROM.1>
-79.76768096,-173.69286456,-98.45966967,-63.76475187,-119.53484620,65.79417532
-1.16002851,13.13014858,7.72763446,-2.08075456,-0.67334205,1.70376562

>  <Name>
ligand

>  <RI>
0

>  <Rbt.Current_Directory>
/home/itssahil/PROJECTS/Mol_Feturizer/New_Systems/rnas/4GPX

>  <Rbt.Executable>
rbdock ($Id: //depot/dev/client3/rdock/2013.1/src/exe/rbdock.cxx#4 $)

>  <Rbt.Library>
libRbt.so (2013.1, Build901 2013/11/27)

>  <Rbt.Parameter_File>
/export/apps/rDock/src/rDock_2013.1_src/data/scripts/dock_solv.prm

>  <Rbt.Receptor>
prm/pocket_docking_7.prm

>  <SCORE>
-14.6452

>  <SCORE.INTER>
-9.13615

>  <SCORE.INTER.CONST>
1

>  <SCORE.INTER.POLAR>
0

>  <SCORE.INTER.ROT>
6

>  <SCORE.INTER.SOLV>
10.0539

>  <SCORE.INTER.VDW>
-17.0421

>  <SCORE.INTER.norm>
-0.294715

>  <SCORE.INTRA>
-5.50905

>  <SCORE.INTRA.DIHEDRAL>
-15.9453

>  <SCORE.INTRA.DIHEDRAL.0>
20.6841

>  <SCORE.INTRA.POLAR>
0

>  <SCORE.INTRA.POLAR.0>
0

>  <SCORE.INTRA.REPUL>
0

>  <SCORE.INTRA.REPUL.0>
0

>  <SCORE.INTRA.SOLV>
1.90118

>  <SCORE.INTRA.SOLV.lig_0>
-64.6797

>  <SCORE.INTRA.VDW>
1.51302

>  <SCORE.INTRA.VDW.0>
-4.11825

>  <SCORE.INTRA.norm>
-0.177711

>  <SCORE.RESTR>
0

>  <SCORE.RESTR.CAVITY>
0

>  <SCORE.RESTR.norm>
0

>  <SCORE.SYSTEM>
0

>  <SCORE.SYSTEM.CONST>
0

>  <SCORE.SYSTEM.DIHEDRAL>
0

>  <SCORE.SYSTEM.SOLV>
0

>  <SCORE.SYSTEM.norm>
0

>  <SCORE.heavy>
31

>  <SCORE.norm>
-0.472426

>  <RMSD>
3.806

$$$$
ligand
 OpenBabel11021811493D
libRbt.so/2013.1/901 2013/11/27
 31 33  0  0  0  0  0  0  0  0999 V2000
   -2.1607   14.8381    4.0180 C   0  0  2  0  0  0  0  0  0  0  0  0
   -2.1087   14.1427    5.2601 O   0  0  0  0  0  0  0  0  0  0  0  0
    0.0408   10.7357    6.6225 C   0  0  2  0  0  0  0  0  0  0  0  0
    1.1363    9.9122    7.0332 N   0  0  0  0  0  0  0  0  0  0  0  0
    0.6940   10.8014    9.6641 C   0  0  2  0  0  0  0  0  0  0  0  0
   -1.3539   16.1849    4.2216 C   0  0  2  0  0  0  0  0  0  0  0  0
    0.0151   15.8578    4.6064 N   0  0  0  0  0  0  0  0  0  0  0  0
    0.3197   11.2375    5.1460 C   0  0  0  0  0  0  0  0  0  0  0  0
   -0.0222   10.4148   10.9968 C   0  0  2  0  0  0  0  0  0  0  0  0
   -1.1606    9.6418   10.6821 O   0  0  0  0  0  0  0  0  0  0  0  0
   -2.0457   17.0792    5.3264 C   0  0  0  0  0  0  0  0  0  0  0  0
   -0.8830   12.1466    4.6915 C   0  0  2  0  0  0  0  0  0  0  0  0
   -0.6266   12.6209    3.3208 N   0  0  0  0  0  0  0  0  0  0  0  0
   -0.4319   11.7573   11.7134 C   0  0  1  0  0  0  0  0  0  0  0  0
   -1.1453   11.4492   12.9968 N   0  0  0  0  0  0  0  0  0  0  0  0
   -3.6298   17.0025    5.2595 C   0  0  0  0  0  0  0  0  0  0  0  0
   -1.0293   13.3832    5.6841 C   0  0  2  0  0  0  0  0  0  0  0  0
    0.9317   12.5897   12.0390 C   0  0  1  0  0  0  0  0  0  0  0  0
    1.8289   11.8551   12.8545 O   0  0  0  0  0  0  0  0  0  0  0  0
   -4.2547   16.0919    4.4671 C   0  0  2  0  0  0  0  0  0  0  0  0
   -3.5351   15.1579    3.6539 O   0  0  0  0  0  0  0  0  0  0  0  0
   -1.2954   12.8567    7.1429 C   0  0  2  0  0  0  0  0  0  0  0  0
   -1.4167   13.9836    8.0374 O   0  0  0  0  0  0  0  0  0  0  0  0
    1.6858   12.9160   10.7091 C   0  0  0  0  0  0  0  0  0  0  0  0
    1.9268   11.6387    9.9486 O   0  0  0  0  0  0  0  0  0  0  0  0
   -5.7773   15.9812    4.3670 C   0  0  0  0  0  0  0  0  0  0  0  0
   -6.1789   16.4700    3.0654 O   0  0  0  0  0  0  0  0  0  0  0  0
   -0.0741   11.9699    7.5875 C   0  0  1  0  0  0  0  0  0  0  0  0
   -0.3124   11.5284    8.8871 O   0  0  0  0  0  0  0  0  0  0  0  0
    0.7136   13.9472   12.7499 C   0  0  0  0  0  0  0  0  0  0  0  0
   -2.6174   11.5704   12.9818 C   0  0  0  0  0  0  0  0  0  0  0  0
  1  2  1  1  0  0  0
  1  6  1  0  0  0  0
  1 21  1  0  0  0  0
  3  4  1  1  0  0  0
  3  8  1  0  0  0  0
  3 28  1  0  0  0  0
  5  9  1  0  0  0  0
  5 25  1  0  0  0  0
  5 29  1  6  0  0  0
  6  7  1  1  0  0  0
  6 11  1  0  0  0  0
  8 12  1  0  0  0  0
  9 10  1  6  0  0  0
  9 14  1  0  0  0  0
 11 16  1  0  0  0  0
 12 13  1  6  0  0  0
 12 17  1  0  0  0  0
 14 15  1  1  0  0  0
 14 18  1  0  0  0  0
 15 31  1  0  0  0  0
 16 20  1  0  0  0  0
 17  2  1  6  0  0  0
 17 22  1  0  0  0  0
 18 19  1  1  0  0  0
 18 24  1  0  0  0  0
 18 30  1  0  0  0  0
 20 21  1  0  0  0  0
 20 26  1  6  0  0  0
 22 23  1  1  0  0  0
 22 28  1  0  0  0  0
 24 25  1  0  0  0  0
 26 27  1  0  0  0  0
 28 29  1  1  0  0  0
M  END
>  <CHROM.1>
-80.55154937,-175.91763268,-101.87003120,-64.93483452,108.76520891,68.28626375
-1.07899562,13.15893510,7.63089995,-2.17182470,-0.80219182,1.61638486

>  <Name>
ligand

>  <RI>
0

>  <Rbt.Current_Directory>
/home/itssahil/PROJECTS/Mol_Feturizer/New_Systems/rnas/4GPX

>  <Rbt.Executable>
rbdock ($Id: //depot/dev/client3/rdock/2013.1/src/exe/rbdock.cxx#4 $)

>  <Rbt.Library>
libRbt.so (2013.1, Build901 2013/11/27)

>  <Rbt.Parameter_File>
/export/apps/rDock/src/rDock_2013.1_src/data/scripts/dock_solv.prm

>  <Rbt.Receptor>
prm/pocket_docking_7.prm

>  <SCORE>
-15.3861

>  <SCORE.INTER>
-9.79461

>  <SCORE.INTER.CONST>
1

>  <SCORE.INTER.POLAR>
0

>  <SCORE.INTER.ROT>
6

>  <SCORE.INTER.SOLV>
11.2166

>  <SCORE.INTER.VDW>
-17.8686

>  <SCORE.INTER.norm>
-0.315955

>  <SCORE.INTRA>
-5.59151

>  <SCORE.INTRA.DIHEDRAL>
-15.4574

>  <SCORE.INTRA.DIHEDRAL.0>
20.6841

>  <SCORE.INTRA.POLAR>
0

>  <SCORE.INTRA.POLAR.0>
0

>  <SCORE.INTRA.REPUL>
0

>  <SCORE.INTRA.REPUL.0>
0

>  <SCORE.INTRA.SOLV>
1.62413

>  <SCORE.INTRA.SOLV.lig_0>
-64.6797

>  <SCORE.INTRA.VDW>
1.32514

>  <SCORE.INTRA.VDW.0>
-4.11825

>  <SCORE.INTRA.norm>
-0.180371

>  <SCORE.RESTR>
0

>  <SCORE.RESTR.CAVITY>
0

>  <SCORE.RESTR.norm>
0

>  <SCORE.SYSTEM>
0

>  <SCORE.SYSTEM.CONST>
0

>  <SCORE.SYSTEM.DIHEDRAL>
0

>  <SCORE.SYSTEM.SOLV>
0

>  <SCORE.SYSTEM.norm>
0

>  <SCORE.heavy>
31

>  <SCORE.norm>
-0.496326

>  <RMSD>
3.838

$$$$
ligand
 OpenBabel11021811493D
libRbt.so/2013.1/901 2013/11/27
 31 33  0  0  0  0  0  0  0  0999 V2000
   -4.3684   14.6584    6.4584 C   0  0  2  0  0  0  0  0  0  0  0  0
   -3.6754   13.5916    5.8175 O   0  0  0  0  0  0  0  0  0  0  0  0
   -0.4094   11.0602    6.8223 C   0  0  2  0  0  0  0  0  0  0  0  0
    0.9295   10.6365    7.0954 N   0  0  0  0  0  0  0  0  0  0  0  0
    0.4557   11.1221    9.7287 C   0  0  2  0  0  0  0  0  0  0  0  0
   -5.8611   14.6055    5.9340 C   0  0  2  0  0  0  0  0  0  0  0  0
   -6.4307   13.3051    6.2711 N   0  0  0  0  0  0  0  0  0  0  0  0
   -0.4565   11.6492    5.3523 C   0  0  0  0  0  0  0  0  0  0  0  0
    0.0273   10.5280   11.1078 C   0  0  2  0  0  0  0  0  0  0  0  0
   -0.9629    9.5477   10.8816 O   0  0  0  0  0  0  0  0  0  0  0  0
   -5.9046   14.8459    4.3722 C   0  0  0  0  0  0  0  0  0  0  0  0
   -1.9286   12.1191    5.0492 C   0  0  2  0  0  0  0  0  0  0  0  0
   -1.9774   12.6730    3.6852 N   0  0  0  0  0  0  0  0  0  0  0  0
   -0.5422   11.7166   11.9719 C   0  0  1  0  0  0  0  0  0  0  0  0
   -0.9908   11.2020   13.3079 N   0  0  0  0  0  0  0  0  0  0  0  0
   -4.8420   15.9258    3.8984 C   0  0  0  0  0  0  0  0  0  0  0  0
   -2.3711   13.2228    6.1083 C   0  0  2  0  0  0  0  0  0  0  0  0
    0.6557   12.8020   12.1849 C   0  0  1  0  0  0  0  0  0  0  0  0
    1.7887   12.2352   12.8208 O   0  0  0  0  0  0  0  0  0  0  0  0
   -3.8900   16.3926    4.7489 C   0  0  2  0  0  0  0  0  0  0  0  0
   -3.7864   15.9473    6.1063 O   0  0  0  0  0  0  0  0  0  0  0  0
   -2.3057   12.6150    7.5582 C   0  0  2  0  0  0  0  0  0  0  0  0
   -2.6987   13.6249    8.5123 O   0  0  0  0  0  0  0  0  0  0  0  0
    1.1335   13.3452   10.7991 C   0  0  0  0  0  0  0  0  0  0  0  0
    1.5200   12.1867    9.9180 O   0  0  0  0  0  0  0  0  0  0  0  0
   -2.8468   17.4343    4.3400 C   0  0  0  0  0  0  0  0  0  0  0  0
   -2.9479   18.5536    5.2518 O   0  0  0  0  0  0  0  0  0  0  0  0
   -0.8245   12.1725    7.8510 C   0  0  1  0  0  0  0  0  0  0  0  0
   -0.7763   11.6566    9.1441 O   0  0  0  0  0  0  0  0  0  0  0  0
    0.2681   14.0461   13.0202 C   0  0  0  0  0  0  0  0  0  0  0  0
   -2.3228   11.6398   13.7730 C   0  0  0  0  0  0  0  0  0  0  0  0
  1  2  1  6  0  0  0
  1  6  1  0  0  0  0
  1 21  1  0  0  0  0
  3  4  1  1  0  0  0
  3  8  1  0  0  0  0
  3 28  1  0  0  0  0
  5  9  1  0  0  0  0
  5 25  1  0  0  0  0
  5 29  1  1  0  0  0
  6  7  1  6  0  0  0
  6 11  1  0  0  0  0
  8 12  1  0  0  0  0
  9 10  1  6  0  0  0
  9 14  1  0  0  0  0
 11 16  1  0  0  0  0
 12 13  1  6  0  0  0
 12 17  1  0  0  0  0
 14 15  1  1  0  0  0
 14 18  1  0  0  0  0
 15 31  1  0  0  0  0
 16 20  1  0  0  0  0
 17  2  1  6  0  0  0
 17 22  1  0  0  0  0
 18 19  1  1  0  0  0
 18 24  1  0  0  0  0
 18 30  1  0  0  0  0
 20 21  1  0  0  0  0
 20 26  1  1  0  0  0
 22 23  1  1  0  0  0
 22 28  1  0  0  0  0
 24 25  1  0  0  0  0
 26 27  1  0  0  0  0
 28 29  1  1  0  0  0
M  END
>  <CHROM.1>
-173.62673145,-174.35565469,-132.69904744,-173.03834922,123.64771046,59.88703997
-1.80702211,13.15141932,8.09667586,2.45422681,0.89434616,-1.84067534

>  <Name>
ligand

>  <RI>
0

>  <Rbt.Current_Directory>
/home/itssahil/PROJECTS/Mol_Feturizer/New_Systems/rnas/4GPX

>  <Rbt.Executable>
rbdock ($Id: //depot/dev/client3/rdock/2013.1/src/exe/rbdock.cxx#4 $)

>  <Rbt.Library>
libRbt.so (2013.1, Build901 2013/11/27)

>  <Rbt.Parameter_File>
/export/apps/rDock/src/rDock_2013.1_src/data/scripts/dock_solv.prm

>  <Rbt.Receptor>
prm/pocket_docking_4.prm

>  <SCORE>
-16.3434

>  <SCORE.INTER>
-8.22547

>  <SCORE.INTER.CONST>
1

>  <SCORE.INTER.POLAR>
0

>  <SCORE.INTER.ROT>
6

>  <SCORE.INTER.SOLV>
17.06

>  <SCORE.INTER.VDW>
-18.7703

>  <SCORE.INTER.norm>
-0.265338

>  <SCORE.INTRA>
-8.1179

>  <SCORE.INTRA.DIHEDRAL>
-17.3106

>  <SCORE.INTRA.DIHEDRAL.0>
20.6841

>  <SCORE.INTRA.POLAR>
0

>  <SCORE.INTRA.POLAR.0>
0

>  <SCORE.INTRA.REPUL>
0

>  <SCORE.INTRA.REPUL.0>
0

>  <SCORE.INTRA.SOLV>
-1.56648

>  <SCORE.INTRA.SOLV.lig_0>
-64.6797

>  <SCORE.INTRA.VDW>
1.32065

>  <SCORE.INTRA.VDW.0>
-4.11825

>  <SCORE.INTRA.norm>
-0.261868

>  <SCORE.RESTR>
0

>  <SCORE.RESTR.CAVITY>
0

>  <SCORE.RESTR.norm>
0

>  <SCORE.SYSTEM>
0

>  <SCORE.SYSTEM.CONST>
0

>  <SCORE.SYSTEM.DIHEDRAL>
0

>  <SCORE.SYSTEM.SOLV>
0

>  <SCORE.SYSTEM.norm>
0

>  <SCORE.heavy>
31

>  <SCORE.norm>
-0.527206

>  <RMSD>
3.935

$$$$
ligand
 OpenBabel11021811493D
libRbt.so/2013.1/901 2013/11/27
 31 33  0  0  0  0  0  0  0  0999 V2000
   -4.2752   13.3209    5.5195 C   0  0  2  0  0  0  0  0  0  0  0  0
   -3.0510   13.9815    5.8265 O   0  0  0  0  0  0  0  0  0  0  0  0
   -0.4162   10.7560    6.6853 C   0  0  2  0  0  0  0  0  0  0  0  0
    0.7958   10.0428    6.9488 N   0  0  0  0  0  0  0  0  0  0  0  0
    0.4041   10.5883    9.6924 C   0  0  2  0  0  0  0  0  0  0  0  0
   -5.3597   14.4554    5.3125 C   0  0  2  0  0  0  0  0  0  0  0  0
   -4.9242   15.3281    4.2272 N   0  0  0  0  0  0  0  0  0  0  0  0
   -0.2883   11.4508    5.2672 C   0  0  0  0  0  0  0  0  0  0  0  0
   -0.1127   10.1903   11.1113 C   0  0  2  0  0  0  0  0  0  0  0  0
   -1.2337    9.3466   10.9559 O   0  0  0  0  0  0  0  0  0  0  0  0
   -5.5556   15.2797    6.6471 C   0  0  0  0  0  0  0  0  0  0  0  0
   -1.6198   12.2390    4.9750 C   0  0  2  0  0  0  0  0  0  0  0  0
   -1.5047   12.8919    3.6597 N   0  0  0  0  0  0  0  0  0  0  0  0
   -0.5074   11.5224   11.8552 C   0  0  1  0  0  0  0  0  0  0  0  0
   -1.0324   11.2018   13.2236 N   0  0  0  0  0  0  0  0  0  0  0  0
   -5.4762   14.3620    7.9399 C   0  0  0  0  0  0  0  0  0  0  0  0
   -1.8622   13.3278    6.1113 C   0  0  2  0  0  0  0  0  0  0  0  0
    0.8344   12.4385   11.9917 C   0  0  1  0  0  0  0  0  0  0  0  0
    1.8701   11.7744   12.6959 O   0  0  0  0  0  0  0  0  0  0  0  0
   -5.0700   13.0675    7.8568 C   0  0  2  0  0  0  0  0  0  0  0  0
   -4.6940   12.4577    6.6165 O   0  0  0  0  0  0  0  0  0  0  0  0
   -1.9754   12.6125    7.5083 C   0  0  2  0  0  0  0  0  0  0  0  0
   -2.1849   13.6075    8.5334 O   0  0  0  0  0  0  0  0  0  0  0  0
    1.3927   12.7785   10.5716 C   0  0  0  0  0  0  0  0  0  0  0  0
    1.6110   11.5009    9.8048 O   0  0  0  0  0  0  0  0  0  0  0  0
   -4.9797   12.1435    9.0728 C   0  0  0  0  0  0  0  0  0  0  0  0
   -5.6875   12.7713   10.1679 O   0  0  0  0  0  0  0  0  0  0  0  0
   -0.6289   11.8498    7.7926 C   0  0  1  0  0  0  0  0  0  0  0  0
   -0.7343   11.2394    9.0404 O   0  0  0  0  0  0  0  0  0  0  0  0
    0.6278   13.7963   12.7053 C   0  0  0  0  0  0  0  0  0  0  0  0
   -2.3267   11.8090   13.5954 C   0  0  0  0  0  0  0  0  0  0  0  0
  1  2  1  1  0  0  0
  1  6  1  0  0  0  0
  1 21  1  0  0  0  0
  3  4  1  1  0  0  0
  3  8  1  0  0  0  0
  3 28  1  0  0  0  0
  5  9  1  0  0  0  0
  5 25  1  0  0  0  0
  5 29  1  1  0  0  0
  6  7  1  6  0  0  0
  6 11  1  0  0  0  0
  8 12  1  0  0  0  0
  9 10  1  6  0  0  0
  9 14  1  0  0  0  0
 11 16  1  0  0  0  0
 12 13  1  6  0  0  0
 12 17  1  0  0  0  0
 14 15  1  1  0  0  0
 14 18  1  0  0  0  0
 15 31  1  0  0  0  0
 16 20  1  0  0  0  0
 17  2  1  6  0  0  0
 17 22  1  0  0  0  0
 18 19  1  1  0  0  0
 18 24  1  0  0  0  0
 18 30  1  0  0  0  0
 20 21  1  0  0  0  0
 20 26  1  6  0  0  0
 22 23  1  1  0  0  0
 22 28  1  0  0  0  0
 24 25  1  0  0  0  0
 26 27  1  0  0  0  0
 28 29  1  1  0  0  0
M  END
>  <CHROM.1>
178.26424368,173.89446245,-129.42726610,49.37481833,13.75679193,69.32477854
-1.87179820,12.38746765,8.56487602,2.24206352,0.39529123,-1.50346980

>  <Name>
ligand

>  <RI>
0

>  <Rbt.Current_Directory>
/home/itssahil/PROJECTS/Mol_Feturizer/New_Systems/rnas/4GPX

>  <Rbt.Executable>
rbdock ($Id: //depot/dev/client3/rdock/2013.1/src/exe/rbdock.cxx#4 $)

>  <Rbt.Library>
libRbt.so (2013.1, Build901 2013/11/27)

>  <Rbt.Parameter_File>
/export/apps/rDock/src/rDock_2013.1_src/data/scripts/dock_solv.prm

>  <Rbt.Receptor>
prm/pocket_docking_3.prm

>  <SCORE>
-10.15

>  <SCORE.INTER>
-3.41518

>  <SCORE.INTER.CONST>
1

>  <SCORE.INTER.POLAR>
0

>  <SCORE.INTER.ROT>
6

>  <SCORE.INTER.SOLV>
14.4782

>  <SCORE.INTER.VDW>
-14.7029

>  <SCORE.INTER.norm>
-0.110167

>  <SCORE.INTRA>
-7.2386

>  <SCORE.INTRA.DIHEDRAL>
-16.465

>  <SCORE.INTRA.DIHEDRAL.0>
20.6841

>  <SCORE.INTRA.POLAR>
0

>  <SCORE.INTRA.POLAR.0>
0

>  <SCORE.INTRA.REPUL>
0

>  <SCORE.INTRA.REPUL.0>
0

>  <SCORE.INTRA.SOLV>
-0.741085

>  <SCORE.INTRA.SOLV.lig_0>
-64.6797

>  <SCORE.INTRA.VDW>
1.36444

>  <SCORE.INTRA.VDW.0>
-4.11825

>  <SCORE.INTRA.norm>
-0.233503

>  <SCORE.RESTR>
0.503746

>  <SCORE.RESTR.CAVITY>
0.503746

>  <SCORE.RESTR.norm>
0.0162499

>  <SCORE.SYSTEM>
0

>  <SCORE.SYSTEM.CONST>
0

>  <SCORE.SYSTEM.DIHEDRAL>
0

>  <SCORE.SYSTEM.SOLV>
0

>  <SCORE.SYSTEM.norm>
0

>  <SCORE.heavy>
31

>  <SCORE.norm>
-0.32742

>  <RMSD>
3.936

$$$$
ligand
 OpenBabel11021811493D
libRbt.so/2013.1/901 2013/11/27
 31 33  0  0  0  0  0  0  0  0999 V2000
   -2.5572   15.2791    5.0626 C   0  0  2  0  0  0  0  0  0  0  0  0
   -3.0181   15.5888    6.3745 O   0  0  0  0  0  0  0  0  0  0  0  0
    0.5302   16.2197    8.6318 C   0  0  2  0  0  0  0  0  0  0  0  0
    1.4007   16.3580    9.7587 N   0  0  0  0  0  0  0  0  0  0  0  0
    1.8499   13.5615    9.6264 C   0  0  2  0  0  0  0  0  0  0  0  0
   -2.6564   16.6173    4.2227 C   0  0  2  0  0  0  0  0  0  0  0  0
   -1.8314   17.6357    4.8641 N   0  0  0  0  0  0  0  0  0  0  0  0
   -0.6195   17.3029    8.7532 C   0  0  0  0  0  0  0  0  0  0  0  0
    3.0038   12.7300    8.9817 C   0  0  2  0  0  0  0  0  0  0  0  0
    3.5635   13.4869    7.9297 O   0  0  0  0  0  0  0  0  0  0  0  0
   -4.1597   17.0964    4.1260 C   0  0  0  0  0  0  0  0  0  0  0  0
   -1.5812   17.1519    7.5156 C   0  0  2  0  0  0  0  0  0  0  0  0
   -2.6558   18.1533    7.6259 N   0  0  0  0  0  0  0  0  0  0  0  0
    2.3697   11.3928    8.4398 C   0  0  1  0  0  0  0  0  0  0  0  0
    3.4313   10.5564    7.7884 N   0  0  0  0  0  0  0  0  0  0  0  0
   -5.1708   15.8824    3.9719 C   0  0  0  0  0  0  0  0  0  0  0  0
   -2.1970   15.6837    7.4874 C   0  0  2  0  0  0  0  0  0  0  0  0
    1.7456   10.5820    9.7092 C   0  0  1  0  0  0  0  0  0  0  0  0
    2.7212   10.2947   10.6966 O   0  0  0  0  0  0  0  0  0  0  0  0
   -4.7536   14.5983    4.1293 C   0  0  2  0  0  0  0  0  0  0  0  0
   -3.3959   14.2634    4.4390 O   0  0  0  0  0  0  0  0  0  0  0  0
   -1.0346   14.6289    7.3765 C   0  0  2  0  0  0  0  0  0  0  0  0
   -1.6011   13.3009    7.3617 O   0  0  0  0  0  0  0  0  0  0  0  0
    0.6383   11.4440   10.3983 C   0  0  0  0  0  0  0  0  0  0  0  0
    1.2112   12.7878   10.7645 O   0  0  0  0  0  0  0  0  0  0  0  0
   -5.6889   13.3959    3.9882 C   0  0  0  0  0  0  0  0  0  0  0  0
   -5.1780   12.5507    2.9304 O   0  0  0  0  0  0  0  0  0  0  0  0
   -0.0980   14.7799    8.6317 C   0  0  1  0  0  0  0  0  0  0  0  0
    0.9134   13.8271    8.5319 O   0  0  0  0  0  0  0  0  0  0  0  0
    1.0768    9.2315    9.3561 C   0  0  0  0  0  0  0  0  0  0  0  0
    3.6837   10.8057    6.3544 C   0  0  0  0  0  0  0  0  0  0  0  0
  1  2  1  1  0  0  0
  1  6  1  0  0  0  0
  1 21  1  0  0  0  0
  3  4  1  1  0  0  0
  3  8  1  0  0  0  0
  3 28  1  0  0  0  0
  5  9  1  0  0  0  0
  5 25  1  0  0  0  0
  5 29  1  6  0  0  0
  6  7  1  1  0  0  0
  6 11  1  0  0  0  0
  8 12  1  0  0  0  0
  9 10  1  6  0  0  0
  9 14  1  0  0  0  0
 11 16  1  0  0  0  0
 12 13  1  1  0  0  0
 12 17  1  0  0  0  0
 14 15  1  1  0  0  0
 14 18  1  0  0  0  0
 15 31  1  0  0  0  0
 16 20  1  0  0  0  0
 17  2  1  6  0  0  0
 17 22  1  0  0  0  0
 18 19  1  1  0  0  0
 18 24  1  0  0  0  0
 18 30  1  0  0  0  0
 20 21  1  0  0  0  0
 20 26  1  6  0  0  0
 22 23  1  1  0  0  0
 22 28  1  0  0  0  0
 24 25  1  0  0  0  0
 26 27  1  0  0  0  0
 28 29  1  6  0  0  0
M  END
>  <CHROM.1>
-108.01500723,-165.79764091,-87.99193530,84.11446901,120.63450559,70.20549631
-0.64246291,14.05254015,7.27966334,2.83600254,-0.71410242,0.26341481

>  <Name>
ligand

>  <RI>
0

>  <Rbt.Current_Directory>
/home/itssahil/PROJECTS/Mol_Feturizer/New_Systems/rnas/4GPX

>  <Rbt.Executable>
rbdock ($Id: //depot/dev/client3/rdock/2013.1/src/exe/rbdock.cxx#4 $)

>  <Rbt.Library>
libRbt.so (2013.1, Build901 2013/11/27)

>  <Rbt.Parameter_File>
/export/apps/rDock/src/rDock_2013.1_src/data/scripts/dock_solv.prm

>  <Rbt.Receptor>
prm/pocket_docking_6.prm

>  <SCORE>
-11.0506

>  <SCORE.INTER>
-10.5401

>  <SCORE.INTER.CONST>
1

>  <SCORE.INTER.POLAR>
0

>  <SCORE.INTER.ROT>
6

>  <SCORE.INTER.SOLV>
9.23178

>  <SCORE.INTER.VDW>
-17.704

>  <SCORE.INTER.norm>
-0.340003

>  <SCORE.INTRA>
-0.510513

>  <SCORE.INTRA.DIHEDRAL>
-7.9915

>  <SCORE.INTRA.DIHEDRAL.0>
20.6841

>  <SCORE.INTRA.POLAR>
0

>  <SCORE.INTRA.POLAR.0>
0

>  <SCORE.INTRA.REPUL>
0

>  <SCORE.INTRA.REPUL.0>
0

>  <SCORE.INTRA.SOLV>
2.96495

>  <SCORE.INTRA.SOLV.lig_0>
-64.6797

>  <SCORE.INTRA.VDW>
2.00276

>  <SCORE.INTRA.VDW.0>
-4.11825

>  <SCORE.INTRA.norm>
-0.0164682

>  <SCORE.RESTR>
0

>  <SCORE.RESTR.CAVITY>
0

>  <SCORE.RESTR.norm>
0

>  <SCORE.SYSTEM>
0

>  <SCORE.SYSTEM.CONST>
0

>  <SCORE.SYSTEM.DIHEDRAL>
0

>  <SCORE.SYSTEM.SOLV>
0

>  <SCORE.SYSTEM.norm>
0

>  <SCORE.heavy>
31

>  <SCORE.norm>
-0.356471

>  <RMSD>
3.944

$$$$
ligand
 OpenBabel11021811493D
libRbt.so/2013.1/901 2013/11/27
 31 33  0  0  0  0  0  0  0  0999 V2000
   -3.7313   15.3243    6.6478 C   0  0  2  0  0  0  0  0  0  0  0  0
   -3.3009   14.1614    5.9466 O   0  0  0  0  0  0  0  0  0  0  0  0
   -0.6125   10.9776    6.7946 C   0  0  2  0  0  0  0  0  0  0  0  0
    0.6154   10.2725    7.0001 N   0  0  0  0  0  0  0  0  0  0  0  0
    0.4596   10.9823    9.7111 C   0  0  2  0  0  0  0  0  0  0  0  0
   -5.2761   15.4882    6.3429 C   0  0  2  0  0  0  0  0  0  0  0  0
   -5.9733   14.2891    6.7961 N   0  0  0  0  0  0  0  0  0  0  0  0
   -0.6076   11.5710    5.3257 C   0  0  0  0  0  0  0  0  0  0  0  0
   -0.0165   10.4351   11.0940 C   0  0  2  0  0  0  0  0  0  0  0  0
   -1.0939    9.5497   10.8750 O   0  0  0  0  0  0  0  0  0  0  0  0
   -5.5105   15.7194    4.7968 C   0  0  0  0  0  0  0  0  0  0  0  0
   -1.9568   12.3500    5.0969 C   0  0  2  0  0  0  0  0  0  0  0  0
   -1.9556   12.9090    3.7341 N   0  0  0  0  0  0  0  0  0  0  0  0
   -0.4703   11.6742   11.9556 C   0  0  1  0  0  0  0  0  0  0  0  0
   -0.9593   11.2079   13.2952 N   0  0  0  0  0  0  0  0  0  0  0  0
   -4.3827   16.6264    4.1449 C   0  0  0  0  0  0  0  0  0  0  0  0
   -2.0941   13.5175    6.1711 C   0  0  2  0  0  0  0  0  0  0  0  0
    0.8236   12.6451   12.1601 C   0  0  1  0  0  0  0  0  0  0  0  0
    1.9019   11.9782   12.7941 O   0  0  0  0  0  0  0  0  0  0  0  0
   -3.2597   16.9544    4.8370 C   0  0  2  0  0  0  0  0  0  0  0  0
   -3.0259   16.5101    6.1784 O   0  0  0  0  0  0  0  0  0  0  0  0
   -2.0862   12.9019    7.6193 C   0  0  2  0  0  0  0  0  0  0  0  0
   -2.2010   13.9676    8.5866 O   0  0  0  0  0  0  0  0  0  0  0  0
    1.3441   13.1369   10.7705 C   0  0  0  0  0  0  0  0  0  0  0  0
    1.6185   11.9446    9.8925 O   0  0  0  0  0  0  0  0  0  0  0  0
   -2.1470   17.8271    4.2531 C   0  0  0  0  0  0  0  0  0  0  0  0
   -0.9394   17.0323    4.1888 O   0  0  0  0  0  0  0  0  0  0  0  0
   -0.7228   12.1475    7.8370 C   0  0  1  0  0  0  0  0  0  0  0  0
   -0.7201   11.6262    9.1289 O   0  0  0  0  0  0  0  0  0  0  0  0
    0.5559   13.9225   12.9921 C   0  0  0  0  0  0  0  0  0  0  0  0
   -2.1570   11.8835   13.8348 C   0  0  0  0  0  0  0  0  0  0  0  0
  1  2  1  6  0  0  0
  1  6  1  0  0  0  0
  1 21  1  0  0  0  0
  3  4  1  1  0  0  0
  3  8  1  0  0  0  0
  3 28  1  0  0  0  0
  5  9  1  0  0  0  0
  5 25  1  0  0  0  0
  5 29  1  1  0  0  0
  6  7  1  6  0  0  0
  6 11  1  0  0  0  0
  8 12  1  0  0  0  0
  9 10  1  6  0  0  0
  9 14  1  0  0  0  0
 11 16  1  0  0  0  0
 12 13  1  6  0  0  0
 12 17  1  0  0  0  0
 14 15  1  1  0  0  0
 14 18  1  0  0  0  0
 15 31  1  0  0  0  0
 16 20  1  0  0  0  0
 17  2  1  6  0  0  0
 17 22  1  0  0  0  0
 18 19  1  1  0  0  0
 18 24  1  0  0  0  0
 18 30  1  0  0  0  0
 20 21  1  0  0  0  0
 20 26  1  1  0  0  0
 22 23  1  1  0  0  0
 22 28  1  0  0  0  0
 24 25  1  0  0  0  0
 26 27  1  0  0  0  0
 28 29  1  1  0  0  0
M  END
>  <CHROM.1>
-165.91252368,-174.77637592,-139.66970298,-175.20293337,-117.25550336,67.83637375
-1.52491928,13.28672295,8.12027805,2.28811869,0.88526827,-1.61992188

>  <Name>
ligand

>  <RI>
0

>  <Rbt.Current_Directory>
/home/itssahil/PROJECTS/Mol_Feturizer/New_Systems/rnas/4GPX

>  <Rbt.Executable>
rbdock ($Id: //depot/dev/client3/rdock/2013.1/src/exe/rbdock.cxx#4 $)

>  <Rbt.Library>
libRbt.so (2013.1, Build901 2013/11/27)

>  <Rbt.Parameter_File>
/export/apps/rDock/src/rDock_2013.1_src/data/scripts/dock_solv.prm

>  <Rbt.Receptor>
prm/pocket_docking_6.prm

>  <SCORE>
-16.8655

>  <SCORE.INTER>
-8.72714

>  <SCORE.INTER.CONST>
1

>  <SCORE.INTER.POLAR>
0

>  <SCORE.INTER.ROT>
6

>  <SCORE.INTER.SOLV>
15.9265

>  <SCORE.INTER.VDW>
-18.7269

>  <SCORE.INTER.norm>
-0.281521

>  <SCORE.INTRA>
-8.13837

>  <SCORE.INTRA.DIHEDRAL>
-16.5925

>  <SCORE.INTRA.DIHEDRAL.0>
20.6841

>  <SCORE.INTRA.POLAR>
0

>  <SCORE.INTRA.POLAR.0>
0

>  <SCORE.INTRA.REPUL>
0

>  <SCORE.INTRA.REPUL.0>
0

>  <SCORE.INTRA.SOLV>
-1.63033

>  <SCORE.INTRA.SOLV.lig_0>
-64.6797

>  <SCORE.INTRA.VDW>
0.97304

>  <SCORE.INTRA.VDW.0>
-4.11825

>  <SCORE.INTRA.norm>
-0.262528

>  <SCORE.RESTR>
0

>  <SCORE.RESTR.CAVITY>
0

>  <SCORE.RESTR.norm>
0

>  <SCORE.SYSTEM>
0

>  <SCORE.SYSTEM.CONST>
0

>  <SCORE.SYSTEM.DIHEDRAL>
0

>  <SCORE.SYSTEM.SOLV>
0

>  <SCORE.SYSTEM.norm>
0

>  <SCORE.heavy>
31

>  <SCORE.norm>
-0.544049

>  <RMSD>
3.995

$$$$
ligand
 OpenBabel11021811493D
libRbt.so/2013.1/901 2013/11/27
 31 33  0  0  0  0  0  0  0  0999 V2000
   -3.8474   15.2265    6.5589 C   0  0  2  0  0  0  0  0  0  0  0  0
   -3.3752   14.0561    5.8984 O   0  0  0  0  0  0  0  0  0  0  0  0
   -0.5818   10.9847    6.8191 C   0  0  2  0  0  0  0  0  0  0  0  0
    0.6685   10.3290    7.0509 N   0  0  0  0  0  0  0  0  0  0  0  0
    0.4167   10.9841    9.7247 C   0  0  2  0  0  0  0  0  0  0  0  0
   -5.3699   15.3876    6.1566 C   0  0  2  0  0  0  0  0  0  0  0  0
   -6.0952   14.1936    6.5781 N   0  0  0  0  0  0  0  0  0  0  0  0
   -0.5750   11.5655    5.3451 C   0  0  0  0  0  0  0  0  0  0  0  0
   -0.0623   10.4548   11.1136 C   0  0  2  0  0  0  0  0  0  0  0  0
   -1.1586    9.5902   10.9061 O   0  0  0  0  0  0  0  0  0  0  0  0
   -5.5073   15.6023    4.5965 C   0  0  0  0  0  0  0  0  0  0  0  0
   -1.9489   12.2904    5.0872 C   0  0  2  0  0  0  0  0  0  0  0  0
   -1.9463   12.8375    3.7196 N   0  0  0  0  0  0  0  0  0  0  0  0
   -0.4859   11.7080   11.9702 C   0  0  1  0  0  0  0  0  0  0  0  0
   -0.9765   11.2597   13.3153 N   0  0  0  0  0  0  0  0  0  0  0  0
   -4.3401   16.5020    4.0065 C   0  0  0  0  0  0  0  0  0  0  0  0
   -2.1485   13.4607    6.1485 C   0  0  2  0  0  0  0  0  0  0  0  0
    0.8284   12.6537   12.1616 C   0  0  1  0  0  0  0  0  0  0  0  0
    1.8967   11.9688   12.7934 O   0  0  0  0  0  0  0  0  0  0  0  0
   -3.2622   16.8370    4.7638 C   0  0  2  0  0  0  0  0  0  0  0  0
   -3.1129   16.4070    6.1219 O   0  0  0  0  0  0  0  0  0  0  0  0
   -2.1414   12.8580    7.6020 C   0  0  2  0  0  0  0  0  0  0  0  0
   -2.3129   13.9266    8.5577 O   0  0  0  0  0  0  0  0  0  0  0  0
    1.3507   13.1267   10.7661 C   0  0  0  0  0  0  0  0  0  0  0  0
    1.5959   11.9238    9.8937 O   0  0  0  0  0  0  0  0  0  0  0  0
   -2.1144   17.7031    4.2412 C   0  0  0  0  0  0  0  0  0  0  0  0
   -2.1044   18.9386    4.9947 O   0  0  0  0  0  0  0  0  0  0  0  0
   -0.7540   12.1583    7.8489 C   0  0  1  0  0  0  0  0  0  0  0  0
   -0.7530   11.6484    9.1453 O   0  0  0  0  0  0  0  0  0  0  0  0
    0.5914   13.9412   12.9872 C   0  0  0  0  0  0  0  0  0  0  0  0
   -2.3558   11.6437   13.6789 C   0  0  0  0  0  0  0  0  0  0  0  0
  1  2  1  6  0  0  0
  1  6  1  0  0  0  0
  1 21  1  0  0  0  0
  3  4  1  1  0  0  0
  3  8  1  0  0  0  0
  3 28  1  0  0  0  0
  5  9  1  0  0  0  0
  5 25  1  0  0  0  0
  5 29  1  1  0  0  0
  6  7  1  6  0  0  0
  6 11  1  0  0  0  0
  8 12  1  0  0  0  0
  9 10  1  6  0  0  0
  9 14  1  0  0  0  0
 11 16  1  0  0  0  0
 12 13  1  6  0  0  0
 12 17  1  0  0  0  0
 14 15  1  1  0  0  0
 14 18  1  0  0  0  0
 15 31  1  0  0  0  0
 16 20  1  0  0  0  0
 17  2  1  6  0  0  0
 17 22  1  0  0  0  0
 18 19  1  1  0  0  0
 18 24  1  0  0  0  0
 18 30  1  0  0  0  0
 20 21  1  0  0  0  0
 20 26  1  1  0  0  0
 22 23  1  1  0  0  0
 22 28  1  0  0  0  0
 24 25  1  0  0  0  0
 26 27  1  0  0  0  0
 28 29  1  1  0  0  0
M  END
>  <CHROM.1>
-169.99415625,-174.57472131,-121.54369865,-173.60063353,114.99897888,64.14429216
-1.59840663,13.31492031,8.11588545,2.57025052,1.03905918,-1.93054640

>  <Name>
ligand

>  <RI>
0

>  <Rbt.Current_Directory>
/home/itssahil/PROJECTS/Mol_Feturizer/New_Systems/rnas/4GPX

>  <Rbt.Executable>
rbdock ($Id: //depot/dev/client3/rdock/2013.1/src/exe/rbdock.cxx#4 $)

>  <Rbt.Library>
libRbt.so (2013.1, Build901 2013/11/27)

>  <Rbt.Parameter_File>
/export/apps/rDock/src/rDock_2013.1_src/data/scripts/dock_solv.prm

>  <Rbt.Receptor>
prm/pocket_docking_5.prm

>  <SCORE>
-17.0809

>  <SCORE.INTER>
-8.86625

>  <SCORE.INTER.CONST>
1

>  <SCORE.INTER.POLAR>
0

>  <SCORE.INTER.ROT>
6

>  <SCORE.INTER.SOLV>
16.4646

>  <SCORE.INTER.VDW>
-18.999

>  <SCORE.INTER.norm>
-0.286008

>  <SCORE.INTRA>
-8.21469

>  <SCORE.INTRA.DIHEDRAL>
-16.8495

>  <SCORE.INTRA.DIHEDRAL.0>
20.6841

>  <SCORE.INTRA.POLAR>
0

>  <SCORE.INTRA.POLAR.0>
0

>  <SCORE.INTRA.REPUL>
0

>  <SCORE.INTRA.REPUL.0>
0

>  <SCORE.INTRA.SOLV>
-1.71007

>  <SCORE.INTRA.SOLV.lig_0>
-64.6797

>  <SCORE.INTRA.VDW>
1.06511

>  <SCORE.INTRA.VDW.0>
-4.11825

>  <SCORE.INTRA.norm>
-0.26499

>  <SCORE.RESTR>
0

>  <SCORE.RESTR.CAVITY>
0

>  <SCORE.RESTR.norm>
0

>  <SCORE.SYSTEM>
0

>  <SCORE.SYSTEM.CONST>
0

>  <SCORE.SYSTEM.DIHEDRAL>
0

>  <SCORE.SYSTEM.SOLV>
0

>  <SCORE.SYSTEM.norm>
0

>  <SCORE.heavy>
31

>  <SCORE.norm>
-0.550998

>  <RMSD>
4.005

$$$$
ligand
 OpenBabel11021811493D
libRbt.so/2013.1/901 2013/11/27
 31 33  0  0  0  0  0  0  0  0999 V2000
   -3.7383   15.2707    6.5842 C   0  0  2  0  0  0  0  0  0  0  0  0
   -3.2639   14.1115    5.9057 O   0  0  0  0  0  0  0  0  0  0  0  0
   -0.5546   10.9807    6.8761 C   0  0  2  0  0  0  0  0  0  0  0  0
    0.6770   10.2978    7.1289 N   0  0  0  0  0  0  0  0  0  0  0  0
    0.3725   10.9052    9.7735 C   0  0  2  0  0  0  0  0  0  0  0  0
   -5.2724   15.4101    6.2195 C   0  0  2  0  0  0  0  0  0  0  0  0
   -5.9686   14.2026    6.6512 N   0  0  0  0  0  0  0  0  0  0  0  0
   -0.5115   11.5581    5.4014 C   0  0  0  0  0  0  0  0  0  0  0  0
   -0.1486   10.3882   11.1519 C   0  0  2  0  0  0  0  0  0  0  0  0
   -1.2978    9.6003   10.9258 O   0  0  0  0  0  0  0  0  0  0  0  0
   -5.4505   15.6312    4.6644 C   0  0  0  0  0  0  0  0  0  0  0  0
   -1.8646   12.3128    5.1204 C   0  0  2  0  0  0  0  0  0  0  0  0
   -1.8282   12.8568    3.7521 N   0  0  0  0  0  0  0  0  0  0  0  0
   -0.4947   11.6538   12.0249 C   0  0  1  0  0  0  0  0  0  0  0  0
   -1.0217   11.2190   13.3606 N   0  0  0  0  0  0  0  0  0  0  0  0
   -4.3120   16.5523    4.0519 C   0  0  0  0  0  0  0  0  0  0  0  0
   -2.0550   13.4895    6.1763 C   0  0  2  0  0  0  0  0  0  0  0  0
    0.8775   12.5085   12.2371 C   0  0  1  0  0  0  0  0  0  0  0  0
    1.8948   11.7461   12.8642 O   0  0  0  0  0  0  0  0  0  0  0  0
   -3.2215   16.9001    4.7852 C   0  0  2  0  0  0  0  0  0  0  0  0
   -3.0330   16.4649    6.1367 O   0  0  0  0  0  0  0  0  0  0  0  0
   -2.0843   12.8899    7.6309 C   0  0  2  0  0  0  0  0  0  0  0  0
   -2.2470   13.9641    8.5818 O   0  0  0  0  0  0  0  0  0  0  0  0
    1.4381   12.9666   10.8516 C   0  0  0  0  0  0  0  0  0  0  0  0
    1.6095   11.7631    9.9627 O   0  0  0  0  0  0  0  0  0  0  0  0
   -2.1002   17.7869    4.2404 C   0  0  0  0  0  0  0  0  0  0  0  0
   -2.0710   19.0051    5.0211 O   0  0  0  0  0  0  0  0  0  0  0  0
   -0.7169   12.1600    7.9009 C   0  0  1  0  0  0  0  0  0  0  0  0
   -0.7477   11.6529    9.1981 O   0  0  0  0  0  0  0  0  0  0  0  0
    0.7201   13.7966   13.0807 C   0  0  0  0  0  0  0  0  0  0  0  0
   -2.4325   11.5445   13.6537 C   0  0  0  0  0  0  0  0  0  0  0  0
  1  2  1  6  0  0  0
  1  6  1  0  0  0  0
  1 21  1  0  0  0  0
  3  4  1  1  0  0  0
  3  8  1  0  0  0  0
  3 28  1  0  0  0  0
  5  9  1  0  0  0  0
  5 25  1  0  0  0  0
  5 29  1  1  0  0  0
  6  7  1  6  0  0  0
  6 11  1  0  0  0  0
  8 12  1  0  0  0  0
  9 10  1  6  0  0  0
  9 14  1  0  0  0  0
 11 16  1  0  0  0  0
 12 13  1  6  0  0  0
 12 17  1  0  0  0  0
 14 15  1  1  0  0  0
 14 18  1  0  0  0  0
 15 31  1  0  0  0  0
 16 20  1  0  0  0  0
 17  2  1  6  0  0  0
 17 22  1  0  0  0  0
 18 19  1  1  0  0  0
 18 24  1  0  0  0  0
 18 30  1  0  0  0  0
 20 21  1  0  0  0  0
 20 26  1  1  0  0  0
 22 23  1  1  0  0  0
 22 28  1  0  0  0  0
 24 25  1  0  0  0  0
 26 27  1  0  0  0  0
 28 29  1  1  0  0  0
M  END
>  <CHROM.1>
-166.15599005,-173.39467797,-114.22461745,-175.55082989,116.31584118,60.98492879
-1.56248231,13.29587599,8.15940928,2.53133692,1.04032268,-1.87376276

>  <Name>
ligand

>  <RI>
0

>  <Rbt.Current_Directory>
/home/itssahil/PROJECTS/Mol_Feturizer/New_Systems/rnas/4GPX

>  <Rbt.Executable>
rbdock ($Id: //depot/dev/client3/rdock/2013.1/src/exe/rbdock.cxx#4 $)

>  <Rbt.Library>
libRbt.so (2013.1, Build901 2013/11/27)

>  <Rbt.Parameter_File>
/export/apps/rDock/src/rDock_2013.1_src/data/scripts/dock_solv.prm

>  <Rbt.Receptor>
prm/pocket_docking_5.prm

>  <SCORE>
-17.0322

>  <SCORE.INTER>
-9.23405

>  <SCORE.INTER.CONST>
1

>  <SCORE.INTER.POLAR>
0

>  <SCORE.INTER.ROT>
6

>  <SCORE.INTER.SOLV>
16.2628

>  <SCORE.INTER.VDW>
-19.177

>  <SCORE.INTER.norm>
-0.297873

>  <SCORE.INTRA>
-7.79819

>  <SCORE.INTRA.DIHEDRAL>
-16.5817

>  <SCORE.INTRA.DIHEDRAL.0>
20.6841

>  <SCORE.INTRA.POLAR>
0

>  <SCORE.INTRA.POLAR.0>
0

>  <SCORE.INTRA.REPUL>
0

>  <SCORE.INTRA.REPUL.0>
0

>  <SCORE.INTRA.SOLV>
-1.61465

>  <SCORE.INTRA.SOLV.lig_0>
-64.6797

>  <SCORE.INTRA.VDW>
1.30001

>  <SCORE.INTRA.VDW.0>
-4.11825

>  <SCORE.INTRA.norm>
-0.251554

>  <SCORE.RESTR>
0

>  <SCORE.RESTR.CAVITY>
0

>  <SCORE.RESTR.norm>
0

>  <SCORE.SYSTEM>
0

>  <SCORE.SYSTEM.CONST>
0

>  <SCORE.SYSTEM.DIHEDRAL>
0

>  <SCORE.SYSTEM.SOLV>
0

>  <SCORE.SYSTEM.norm>
0

>  <SCORE.heavy>
31

>  <SCORE.norm>
-0.549427

>  <RMSD>
4.019

$$$$
ligand
 OpenBabel11021811493D
libRbt.so/2013.1/901 2013/11/27
 31 33  0  0  0  0  0  0  0  0999 V2000
   -3.7505   15.2779    6.6182 C   0  0  2  0  0  0  0  0  0  0  0  0
   -3.2818   14.1147    5.9426 O   0  0  0  0  0  0  0  0  0  0  0  0
   -0.5614   10.9814    6.8730 C   0  0  2  0  0  0  0  0  0  0  0  0
    0.6724   10.3001    7.1189 N   0  0  0  0  0  0  0  0  0  0  0  0
    0.3755   10.9062    9.7884 C   0  0  2  0  0  0  0  0  0  0  0  0
   -5.2827   15.4267    6.2490 C   0  0  2  0  0  0  0  0  0  0  0  0
   -5.9879   14.2243    6.6805 N   0  0  0  0  0  0  0  0  0  0  0  0
   -0.5168   11.5812    5.4073 C   0  0  0  0  0  0  0  0  0  0  0  0
   -0.1344   10.3858   11.1697 C   0  0  2  0  0  0  0  0  0  0  0  0
   -1.2604    9.5640   10.9472 O   0  0  0  0  0  0  0  0  0  0  0  0
   -5.4551   15.6468    4.6932 C   0  0  0  0  0  0  0  0  0  0  0  0
   -1.8725   12.3342    5.1341 C   0  0  2  0  0  0  0  0  0  0  0  0
   -1.8348   12.8990    3.7742 N   0  0  0  0  0  0  0  0  0  0  0  0
   -0.5183   11.6481   12.0317 C   0  0  1  0  0  0  0  0  0  0  0  0
   -1.0363   11.2092   13.3696 N   0  0  0  0  0  0  0  0  0  0  0  0
   -4.3090   16.5597    4.0826 C   0  0  0  0  0  0  0  0  0  0  0  0
   -2.0709   13.4939    6.2071 C   0  0  2  0  0  0  0  0  0  0  0  0
    0.8287   12.5428   12.2403 C   0  0  1  0  0  0  0  0  0  0  0  0
    1.8655   11.8144   12.8758 O   0  0  0  0  0  0  0  0  0  0  0  0
   -3.2183   16.9014    4.8183 C   0  0  2  0  0  0  0  0  0  0  0  0
   -3.0363   16.4669    6.1710 O   0  0  0  0  0  0  0  0  0  0  0  0
   -2.1016   12.8723    7.6523 C   0  0  2  0  0  0  0  0  0  0  0  0
   -2.2716   13.9312    8.6189 O   0  0  0  0  0  0  0  0  0  0  0  0
    1.3798   13.0054   10.8524 C   0  0  0  0  0  0  0  0  0  0  0  0
    1.5873   11.8002    9.9736 O   0  0  0  0  0  0  0  0  0  0  0  0
   -2.0899   17.7802    4.2753 C   0  0  0  0  0  0  0  0  0  0  0  0
   -2.0396   18.9889    5.0695 O   0  0  0  0  0  0  0  0  0  0  0  0
   -0.7317   12.1443    7.9152 C   0  0  1  0  0  0  0  0  0  0  0  0
   -0.7639   11.6175    9.2044 O   0  0  0  0  0  0  0  0  0  0  0  0
    0.6330   13.8326   13.0731 C   0  0  0  0  0  0  0  0  0  0  0  0
   -2.3248   11.7873   13.8029 C   0  0  0  0  0  0  0  0  0  0  0  0
  1  2  1  6  0  0  0
  1  6  1  0  0  0  0
  1 21  1  0  0  0  0
  3  4  1  1  0  0  0
  3  8  1  0  0  0  0
  3 28  1  0  0  0  0
  5  9  1  0  0  0  0
  5 25  1  0  0  0  0
  5 29  1  1  0  0  0
  6  7  1  6  0  0  0
  6 11  1  0  0  0  0
  8 12  1  0  0  0  0
  9 10  1  6  0  0  0
  9 14  1  0  0  0  0
 11 16  1  0  0  0  0
 12 13  1  6  0  0  0
 12 17  1  0  0  0  0
 14 15  1  1  0  0  0
 14 18  1  0  0  0  0
 15 31  1  0  0  0  0
 16 20  1  0  0  0  0
 17  2  1  6  0  0  0
 17 22  1  0  0  0  0
 18 19  1  1  0  0  0
 18 24  1  0  0  0  0
 18 30  1  0  0  0  0
 20 21  1  0  0  0  0
 20 26  1  1  0  0  0
 22 23  1  1  0  0  0
 22 28  1  0  0  0  0
 24 25  1  0  0  0  0
 26 27  1  0  0  0  0
 28 29  1  1  0  0  0
M  END
>  <CHROM.1>
-166.90600856,-175.04989005,-129.48047617,-174.18145107,117.30656458,63.16091761
-1.57055250,13.31062002,8.18303306,2.52409419,1.03826485,-1.86864813

>  <Name>
ligand

>  <RI>
0

>  <Rbt.Current_Directory>
/home/itssahil/PROJECTS/Mol_Feturizer/New_Systems/rnas/4GPX

>  <Rbt.Executable>
rbdock ($Id: //depot/dev/client3/rdock/2013.1/src/exe/rbdock.cxx#4 $)

>  <Rbt.Library>
libRbt.so (2013.1, Build901 2013/11/27)

>  <Rbt.Parameter_File>
/export/apps/rDock/src/rDock_2013.1_src/data/scripts/dock_solv.prm

>  <Rbt.Receptor>
prm/pocket_docking_6.prm

>  <SCORE>
-17.1702

>  <SCORE.INTER>
-9.17389

>  <SCORE.INTER.CONST>
1

>  <SCORE.INTER.POLAR>
0

>  <SCORE.INTER.ROT>
6

>  <SCORE.INTER.SOLV>
16.1636

>  <SCORE.INTER.VDW>
-19.1038

>  <SCORE.INTER.norm>
-0.295932

>  <SCORE.INTRA>
-7.99628

>  <SCORE.INTRA.DIHEDRAL>
-16.7067

>  <SCORE.INTRA.DIHEDRAL.0>
20.6841

>  <SCORE.INTRA.POLAR>
0

>  <SCORE.INTRA.POLAR.0>
0

>  <SCORE.INTRA.REPUL>
0

>  <SCORE.INTRA.REPUL.0>
0

>  <SCORE.INTRA.SOLV>
-1.64092

>  <SCORE.INTRA.SOLV.lig_0>
-64.6797

>  <SCORE.INTRA.VDW>
1.17752

>  <SCORE.INTRA.VDW.0>
-4.11825

>  <SCORE.INTRA.norm>
-0.257945

>  <SCORE.RESTR>
0

>  <SCORE.RESTR.CAVITY>
0

>  <SCORE.RESTR.norm>
0

>  <SCORE.SYSTEM>
0

>  <SCORE.SYSTEM.CONST>
0

>  <SCORE.SYSTEM.DIHEDRAL>
0

>  <SCORE.SYSTEM.SOLV>
0

>  <SCORE.SYSTEM.norm>
0

>  <SCORE.heavy>
31

>  <SCORE.norm>
-0.553876

>  <RMSD>
4.022

$$$$
ligand
 OpenBabel11021811493D
libRbt.so/2013.1/901 2013/11/27
 31 33  0  0  0  0  0  0  0  0999 V2000
   -2.8394   16.1349    4.4771 C   0  0  2  0  0  0  0  0  0  0  0  0
   -1.5675   16.0218    5.1085 O   0  0  0  0  0  0  0  0  0  0  0  0
   -0.8363   11.8327    5.1269 C   0  0  2  0  0  0  0  0  0  0  0  0
   -0.1307   10.5908    5.2089 N   0  0  0  0  0  0  0  0  0  0  0  0
   -0.7178   10.5298    7.8611 C   0  0  2  0  0  0  0  0  0  0  0  0
   -3.2913   17.6432    4.6413 C   0  0  2  0  0  0  0  0  0  0  0  0
   -2.2930   18.5028    4.0140 N   0  0  0  0  0  0  0  0  0  0  0  0
   -0.2180   12.6806    3.9400 C   0  0  0  0  0  0  0  0  0  0  0  0
   -1.4361   10.1584    9.1971 C   0  0  2  0  0  0  0  0  0  0  0  0
   -2.8302   10.2116    8.9822 O   0  0  0  0  0  0  0  0  0  0  0  0
   -3.4570   18.0047    6.1712 C   0  0  0  0  0  0  0  0  0  0  0  0
   -0.9907   14.0496    3.8485 C   0  0  2  0  0  0  0  0  0  0  0  0
   -0.4164   14.8450    2.7498 N   0  0  0  0  0  0  0  0  0  0  0  0
   -0.9905   11.2165   10.2767 C   0  0  1  0  0  0  0  0  0  0  0  0
   -1.6667   10.9224   11.5833 N   0  0  0  0  0  0  0  0  0  0  0  0
   -4.0690   16.8051    7.0115 C   0  0  0  0  0  0  0  0  0  0  0  0
   -0.8580   14.8368    5.2263 C   0  0  2  0  0  0  0  0  0  0  0  0
    0.6245   11.0940   10.4640 C   0  0  1  0  0  0  0  0  0  0  0  0
    1.0230    9.7931   10.8617 O   0  0  0  0  0  0  0  0  0  0  0  0
   -4.2100   15.5678    6.4667 C   0  0  2  0  0  0  0  0  0  0  0  0
   -3.8220   15.2718    5.1201 O   0  0  0  0  0  0  0  0  0  0  0  0
   -1.4699   13.9690    6.3877 C   0  0  2  0  0  0  0  0  0  0  0  0
   -1.3364   14.6855    7.6340 O   0  0  0  0  0  0  0  0  0  0  0  0
    1.3414   11.3970    9.1082 C   0  0  0  0  0  0  0  0  0  0  0  0
    0.7883   10.4903    8.0405 O   0  0  0  0  0  0  0  0  0  0  0  0
   -4.7963   14.3817    7.2349 C   0  0  0  0  0  0  0  0  0  0  0  0
   -4.8982   14.7553    8.6293 O   0  0  0  0  0  0  0  0  0  0  0  0
   -0.6714   12.6164    6.4783 C   0  0  1  0  0  0  0  0  0  0  0  0
   -1.2088   11.8677    7.5230 O   0  0  0  0  0  0  0  0  0  0  0  0
    1.2374   12.0692   11.4979 C   0  0  0  0  0  0  0  0  0  0  0  0
   -2.2771   12.0694   12.2861 C   0  0  0  0  0  0  0  0  0  0  0  0
  1  2  1  1  0  0  0
  1  6  1  0  0  0  0
  1 21  1  0  0  0  0
  3  4  1  1  0  0  0
  3  8  1  0  0  0  0
  3 28  1  0  0  0  0
  5  9  1  0  0  0  0
  5 25  1  0  0  0  0
  5 29  1  1  0  0  0
  6  7  1  1  0  0  0
  6 11  1  0  0  0  0
  8 12  1  0  0  0  0
  9 10  1  6  0  0  0
  9 14  1  0  0  0  0
 11 16  1  0  0  0  0
 12 13  1  6  0  0  0
 12 17  1  0  0  0  0
 14 15  1  1  0  0  0
 14 18  1  0  0  0  0
 15 31  1  0  0  0  0
 16 20  1  0  0  0  0
 17  2  1  6  0  0  0
 17 22  1  0  0  0  0
 18 19  1  1  0  0  0
 18 24  1  0  0  0  0
 18 30  1  0  0  0  0
 20 21  1  0  0  0  0
 20 26  1  6  0  0  0
 22 23  1  1  0  0  0
 22 28  1  0  0  0  0
 24 25  1  0  0  0  0
 26 27  1  0  0  0  0
 28 29  1  1  0  0  0
M  END
>  <CHROM.1>
177.29770469,171.78323295,-133.49254416,41.32535455,-10.94990766,59.66832642
-1.56642573,13.37105407,7.24584221,-2.03019032,-0.80203309,2.05321740

>  <Name>
ligand

>  <RI>
0

>  <Rbt.Current_Directory>
/home/itssahil/PROJECTS/Mol_Feturizer/New_Systems/rnas/4GPX

>  <Rbt.Executable>
rbdock ($Id: //depot/dev/client3/rdock/2013.1/src/exe/rbdock.cxx#4 $)

>  <Rbt.Library>
libRbt.so (2013.1, Build901 2013/11/27)

>  <Rbt.Parameter_File>
/export/apps/rDock/src/rDock_2013.1_src/data/scripts/dock_solv.prm

>  <Rbt.Receptor>
prm/pocket_docking_5.prm

>  <SCORE>
-9.93605

>  <SCORE.INTER>
-3.85276

>  <SCORE.INTER.CONST>
1

>  <SCORE.INTER.POLAR>
0

>  <SCORE.INTER.ROT>
6

>  <SCORE.INTER.SOLV>
18.1918

>  <SCORE.INTER.VDW>
-16.2324

>  <SCORE.INTER.norm>
-0.124283

>  <SCORE.INTRA>
-6.08329

>  <SCORE.INTRA.DIHEDRAL>
-15.8289

>  <SCORE.INTRA.DIHEDRAL.0>
20.6841

>  <SCORE.INTRA.POLAR>
0

>  <SCORE.INTRA.POLAR.0>
0

>  <SCORE.INTRA.REPUL>
0

>  <SCORE.INTRA.REPUL.0>
0

>  <SCORE.INTRA.SOLV>
-0.184328

>  <SCORE.INTRA.SOLV.lig_0>
-64.6797

>  <SCORE.INTRA.VDW>
1.92332

>  <SCORE.INTRA.VDW.0>
-4.11825

>  <SCORE.INTRA.norm>
-0.196235

>  <SCORE.RESTR>
0

>  <SCORE.RESTR.CAVITY>
0

>  <SCORE.RESTR.norm>
0

>  <SCORE.SYSTEM>
0

>  <SCORE.SYSTEM.CONST>
0

>  <SCORE.SYSTEM.DIHEDRAL>
0

>  <SCORE.SYSTEM.SOLV>
0

>  <SCORE.SYSTEM.norm>
0

>  <SCORE.heavy>
31

>  <SCORE.norm>
-0.320518

>  <RMSD>
4.067

$$$$
ligand
 OpenBabel11021811493D
libRbt.so/2013.1/901 2013/11/27
 31 33  0  0  0  0  0  0  0  0999 V2000
   -3.8870   15.3532    6.6313 C   0  0  2  0  0  0  0  0  0  0  0  0
   -3.2887   14.2785    5.9128 O   0  0  0  0  0  0  0  0  0  0  0  0
   -0.3067   11.3637    6.7468 C   0  0  2  0  0  0  0  0  0  0  0  0
    0.9787   10.7889    7.0002 N   0  0  0  0  0  0  0  0  0  0  0  0
    0.5259   11.1788    9.6943 C   0  0  2  0  0  0  0  0  0  0  0  0
   -5.4153   15.3750    6.2192 C   0  0  2  0  0  0  0  0  0  0  0  0
   -6.0125   14.0891    6.5646 N   0  0  0  0  0  0  0  0  0  0  0  0
   -0.2670   12.0697    5.3291 C   0  0  0  0  0  0  0  0  0  0  0  0
    0.0327   10.5649   11.0428 C   0  0  2  0  0  0  0  0  0  0  0  0
   -1.0094    9.6548   10.7625 O   0  0  0  0  0  0  0  0  0  0  0  0
   -5.5642   15.6618    4.6718 C   0  0  0  0  0  0  0  0  0  0  0  0
   -1.6797   12.7059    5.0479 C   0  0  2  0  0  0  0  0  0  0  0  0
   -1.6474   13.3687    3.7329 N   0  0  0  0  0  0  0  0  0  0  0  0
   -0.4831   11.7556   11.9371 C   0  0  1  0  0  0  0  0  0  0  0  0
   -0.9907   11.2238   13.2450 N   0  0  0  0  0  0  0  0  0  0  0  0
   -4.4953   16.7117    4.1475 C   0  0  0  0  0  0  0  0  0  0  0  0
   -2.0328   13.7602    6.1879 C   0  0  2  0  0  0  0  0  0  0  0  0
    0.7728   12.7584   12.2120 C   0  0  1  0  0  0  0  0  0  0  0  0
    1.8557   12.1025   12.8495 O   0  0  0  0  0  0  0  0  0  0  0  0
   -3.4641   17.1155    4.9359 C   0  0  2  0  0  0  0  0  0  0  0  0
   -3.2792   16.6275    6.2698 O   0  0  0  0  0  0  0  0  0  0  0  0
   -2.0556   13.0354    7.5844 C   0  0  2  0  0  0  0  0  0  0  0  0
   -2.3665   14.0001    8.6127 O   0  0  0  0  0  0  0  0  0  0  0  0
    1.3123   13.3187   10.8560 C   0  0  0  0  0  0  0  0  0  0  0  0
    1.6477   12.1697    9.9421 O   0  0  0  0  0  0  0  0  0  0  0  0
   -2.4114   18.1262    4.4768 C   0  0  0  0  0  0  0  0  0  0  0  0
   -1.1383   17.4430    4.3940 O   0  0  0  0  0  0  0  0  0  0  0  0
   -0.6310   12.4262    7.8575 C   0  0  1  0  0  0  0  0  0  0  0  0
   -0.6589   11.8067    9.1050 O   0  0  0  0  0  0  0  0  0  0  0  0
    0.4424   13.9944   13.0831 C   0  0  0  0  0  0  0  0  0  0  0  0
   -2.1951   11.8734   13.8014 C   0  0  0  0  0  0  0  0  0  0  0  0
  1  2  1  6  0  0  0
  1  6  1  0  0  0  0
  1 21  1  0  0  0  0
  3  4  1  1  0  0  0
  3  8  1  0  0  0  0
  3 28  1  0  0  0  0
  5  9  1  0  0  0  0
  5 25  1  0  0  0  0
  5 29  1  1  0  0  0
  6  7  1  6  0  0  0
  6 11  1  0  0  0  0
  8 12  1  0  0  0  0
  9 10  1  6  0  0  0
  9 14  1  0  0  0  0
 11 16  1  0  0  0  0
 12 13  1  6  0  0  0
 12 17  1  0  0  0  0
 14 15  1  1  0  0  0
 14 18  1  0  0  0  0
 15 31  1  0  0  0  0
 16 20  1  0  0  0  0
 17  2  1  6  0  0  0
 17 22  1  0  0  0  0
 18 19  1  1  0  0  0
 18 24  1  0  0  0  0
 18 30  1  0  0  0  0
 20 21  1  0  0  0  0
 20 26  1  1  0  0  0
 22 23  1  1  0  0  0
 22 28  1  0  0  0  0
 24 25  1  0  0  0  0
 26 27  1  0  0  0  0
 28 29  1  1  0  0  0
M  END
>  <CHROM.1>
-166.71628171,-177.56775901,-141.83317350,-173.12468718,-114.04049844,63.71266562
-1.52262308,13.45285933,8.12352206,2.19104510,0.74624423,-1.47381189

>  <Name>
ligand

>  <RI>
0

>  <Rbt.Current_Directory>
/home/itssahil/PROJECTS/Mol_Feturizer/New_Systems/rnas/4GPX

>  <Rbt.Executable>
rbdock ($Id: //depot/dev/client3/rdock/2013.1/src/exe/rbdock.cxx#4 $)

>  <Rbt.Library>
libRbt.so (2013.1, Build901 2013/11/27)

>  <Rbt.Parameter_File>
/export/apps/rDock/src/rDock_2013.1_src/data/scripts/dock_solv.prm

>  <Rbt.Receptor>
prm/pocket_docking_7.prm

>  <SCORE>
-17.0363

>  <SCORE.INTER>
-9.02646

>  <SCORE.INTER.CONST>
1

>  <SCORE.INTER.POLAR>
0

>  <SCORE.INTER.ROT>
6

>  <SCORE.INTER.SOLV>
14.7752

>  <SCORE.INTER.VDW>
-18.5427

>  <SCORE.INTER.norm>
-0.291176

>  <SCORE.INTRA>
-8.00986

>  <SCORE.INTRA.DIHEDRAL>
-16.9331

>  <SCORE.INTRA.DIHEDRAL.0>
20.6841

>  <SCORE.INTRA.POLAR>
0

>  <SCORE.INTRA.POLAR.0>
0

>  <SCORE.INTRA.REPUL>
0

>  <SCORE.INTRA.REPUL.0>
0

>  <SCORE.INTRA.SOLV>
-1.34776

>  <SCORE.INTRA.SOLV.lig_0>
-64.6797

>  <SCORE.INTRA.VDW>
1.13054

>  <SCORE.INTRA.VDW.0>
-4.11825

>  <SCORE.INTRA.norm>
-0.258383

>  <SCORE.RESTR>
0

>  <SCORE.RESTR.CAVITY>
0

>  <SCORE.RESTR.norm>
0

>  <SCORE.SYSTEM>
0

>  <SCORE.SYSTEM.CONST>
0

>  <SCORE.SYSTEM.DIHEDRAL>
0

>  <SCORE.SYSTEM.SOLV>
0

>  <SCORE.SYSTEM.norm>
0

>  <SCORE.heavy>
31

>  <SCORE.norm>
-0.549559

>  <RMSD>
4.075

$$$$
ligand
 OpenBabel11021811493D
libRbt.so/2013.1/901 2013/11/27
 31 33  0  0  0  0  0  0  0  0999 V2000
   -3.8877   15.3786    6.5701 C   0  0  2  0  0  0  0  0  0  0  0  0
   -3.2655   14.3141    5.8567 O   0  0  0  0  0  0  0  0  0  0  0  0
   -0.2772   11.4175    6.7307 C   0  0  2  0  0  0  0  0  0  0  0  0
    1.0073   10.8513    7.0069 N   0  0  0  0  0  0  0  0  0  0  0  0
    0.4901   11.2011    9.6863 C   0  0  2  0  0  0  0  0  0  0  0  0
   -5.4172   15.3607    6.1624 C   0  0  2  0  0  0  0  0  0  0  0  0
   -5.9821   14.0630    6.5176 N   0  0  0  0  0  0  0  0  0  0  0  0
   -0.2134   12.1354    5.3199 C   0  0  0  0  0  0  0  0  0  0  0  0
   -0.0244   10.5834   11.0252 C   0  0  2  0  0  0  0  0  0  0  0  0
   -1.0674    9.6803   10.7266 O   0  0  0  0  0  0  0  0  0  0  0  0
   -5.5772   15.6341    4.6137 C   0  0  0  0  0  0  0  0  0  0  0  0
   -1.6252   12.7621    5.0137 C   0  0  2  0  0  0  0  0  0  0  0  0
   -1.5705   13.4360    3.7051 N   0  0  0  0  0  0  0  0  0  0  0  0
   -0.5457   11.7727   11.9183 C   0  0  1  0  0  0  0  0  0  0  0  0
   -1.0736   11.2374   13.2167 N   0  0  0  0  0  0  0  0  0  0  0  0
   -4.5355   16.7062    4.0797 C   0  0  0  0  0  0  0  0  0  0  0  0
   -2.0114   13.8040    6.1543 C   0  0  2  0  0  0  0  0  0  0  0  0
    0.7117   12.7674   12.2148 C   0  0  1  0  0  0  0  0  0  0  0  0
    1.7825   12.1026   12.8634 O   0  0  0  0  0  0  0  0  0  0  0  0
   -3.5123   17.1397    4.8625 C   0  0  2  0  0  0  0  0  0  0  0  0
   -3.3119   16.6649    6.1989 O   0  0  0  0  0  0  0  0  0  0  0  0
   -2.0578   13.0676    7.5442 C   0  0  2  0  0  0  0  0  0  0  0  0
   -2.3986   14.0212    8.5733 O   0  0  0  0  0  0  0  0  0  0  0  0
    1.2723   13.3312   10.8687 C   0  0  0  0  0  0  0  0  0  0  0  0
    1.6138   12.1847    9.9539 O   0  0  0  0  0  0  0  0  0  0  0  0
   -2.4856   18.1727    4.3940 C   0  0  0  0  0  0  0  0  0  0  0  0
   -1.1968   17.5196    4.3107 O   0  0  0  0  0  0  0  0  0  0  0  0
   -0.6341   12.4681    7.8427 C   0  0  1  0  0  0  0  0  0  0  0  0
   -0.6833   11.8382    9.0843 O   0  0  0  0  0  0  0  0  0  0  0  0
    0.3763   14.0010   13.0873 C   0  0  0  0  0  0  0  0  0  0  0  0
   -2.3521   11.8020   13.6949 C   0  0  0  0  0  0  0  0  0  0  0  0
  1  2  1  6  0  0  0
  1  6  1  0  0  0  0
  1 21  1  0  0  0  0
  3  4  1  1  0  0  0
  3  8  1  0  0  0  0
  3 28  1  0  0  0  0
  5  9  1  0  0  0  0
  5 25  1  0  0  0  0
  5 29  1  1  0  0  0
  6  7  1  6  0  0  0
  6 11  1  0  0  0  0
  8 12  1  0  0  0  0
  9 10  1  6  0  0  0
  9 14  1  0  0  0  0
 11 16  1  0  0  0  0
 12 13  1  6  0  0  0
 12 17  1  0  0  0  0
 14 15  1  1  0  0  0
 14 18  1  0  0  0  0
 15 31  1  0  0  0  0
 16 20  1  0  0  0  0
 17  2  1  6  0  0  0
 17 22  1  0  0  0  0
 18 19  1  1  0  0  0
 18 24  1  0  0  0  0
 18 30  1  0  0  0  0
 20 21  1  0  0  0  0
 20 26  1  1  0  0  0
 22 23  1  1  0  0  0
 22 28  1  0  0  0  0
 24 25  1  0  0  0  0
 26 27  1  0  0  0  0
 28 29  1  1  0  0  0
M  END
>  <CHROM.1>
-164.89607568,-177.83155975,-136.15784627,-173.07303451,-113.99084434,62.94872345
-1.54757303,13.47588749,8.08917223,2.15759496,0.71250616,-1.43194225

>  <Name>
ligand

>  <RI>
0

>  <Rbt.Current_Directory>
/home/itssahil/PROJECTS/Mol_Feturizer/New_Systems/rnas/4GPX

>  <Rbt.Executable>
rbdock ($Id: //depot/dev/client3/rdock/2013.1/src/exe/rbdock.cxx#4 $)

>  <Rbt.Library>
libRbt.so (2013.1, Build901 2013/11/27)

>  <Rbt.Parameter_File>
/export/apps/rDock/src/rDock_2013.1_src/data/scripts/dock_solv.prm

>  <Rbt.Receptor>
prm/pocket_docking_7.prm

>  <SCORE>
-17.0307

>  <SCORE.INTER>
-9.18832

>  <SCORE.INTER.CONST>
1

>  <SCORE.INTER.POLAR>
0

>  <SCORE.INTER.ROT>
6

>  <SCORE.INTER.SOLV>
14.5394

>  <SCORE.INTER.VDW>
-18.572

>  <SCORE.INTER.norm>
-0.296397

>  <SCORE.INTRA>
-7.84241

>  <SCORE.INTRA.DIHEDRAL>
-16.5796

>  <SCORE.INTRA.DIHEDRAL.0>
20.6841

>  <SCORE.INTRA.POLAR>
0

>  <SCORE.INTRA.POLAR.0>
0

>  <SCORE.INTRA.REPUL>
0

>  <SCORE.INTRA.REPUL.0>
0

>  <SCORE.INTRA.SOLV>
-1.26811

>  <SCORE.INTRA.SOLV.lig_0>
-64.6797

>  <SCORE.INTRA.VDW>
1.08143

>  <SCORE.INTRA.VDW.0>
-4.11825

>  <SCORE.INTRA.norm>
-0.252981

>  <SCORE.RESTR>
0

>  <SCORE.RESTR.CAVITY>
0

>  <SCORE.RESTR.norm>
0

>  <SCORE.SYSTEM>
0

>  <SCORE.SYSTEM.CONST>
0

>  <SCORE.SYSTEM.DIHEDRAL>
0

>  <SCORE.SYSTEM.SOLV>
0

>  <SCORE.SYSTEM.norm>
0

>  <SCORE.heavy>
31

>  <SCORE.norm>
-0.549379

>  <RMSD>
4.087

$$$$
ligand
 OpenBabel11021811493D
libRbt.so/2013.1/901 2013/11/27
 31 33  0  0  0  0  0  0  0  0999 V2000
   -3.7404   15.4976    6.5468 C   0  0  2  0  0  0  0  0  0  0  0  0
   -3.2174   14.3561    5.8738 O   0  0  0  0  0  0  0  0  0  0  0  0
   -0.4298   11.2770    6.7860 C   0  0  2  0  0  0  0  0  0  0  0  0
    0.8150   10.6283    7.0628 N   0  0  0  0  0  0  0  0  0  0  0  0
    0.3428   11.0448    9.7240 C   0  0  2  0  0  0  0  0  0  0  0  0
   -5.2706   15.5913    6.1521 C   0  0  2  0  0  0  0  0  0  0  0  0
   -5.9378   14.3614    6.5658 N   0  0  0  0  0  0  0  0  0  0  0  0
   -0.3316   11.9568    5.3584 C   0  0  0  0  0  0  0  0  0  0  0  0
   -0.2020   10.4900   11.0783 C   0  0  2  0  0  0  0  0  0  0  0  0
   -1.3263    9.6806   10.8073 O   0  0  0  0  0  0  0  0  0  0  0  0
   -5.4247   15.8131    4.5945 C   0  0  0  0  0  0  0  0  0  0  0  0
   -1.6994   12.6742    5.0513 C   0  0  2  0  0  0  0  0  0  0  0  0
   -1.6122   13.3131    3.7270 N   0  0  0  0  0  0  0  0  0  0  0  0
   -0.6001   11.7305   11.9650 C   0  0  1  0  0  0  0  0  0  0  0  0
   -1.1516   11.2585   13.2780 N   0  0  0  0  0  0  0  0  0  0  0  0
   -4.3032   16.7711    4.0079 C   0  0  0  0  0  0  0  0  0  0  0  0
   -1.9988   13.7660    6.1712 C   0  0  2  0  0  0  0  0  0  0  0  0
    0.7459   12.6120   12.2294 C   0  0  1  0  0  0  0  0  0  0  0  0
    1.7639   11.8611   12.8690 O   0  0  0  0  0  0  0  0  0  0  0  0
   -3.2385   17.1492    4.7638 C   0  0  2  0  0  0  0  0  0  0  0  0
   -3.0635   16.7146    6.1173 O   0  0  0  0  0  0  0  0  0  0  0  0
   -2.0812   13.0660    7.5781 C   0  0  2  0  0  0  0  0  0  0  0  0
   -2.3428   14.0640    8.5881 O   0  0  0  0  0  0  0  0  0  0  0  0
    1.3318   13.1090   10.8679 C   0  0  0  0  0  0  0  0  0  0  0  0
    1.5542   11.9269    9.9618 O   0  0  0  0  0  0  0  0  0  0  0  0
   -2.1345   18.0721    4.2444 C   0  0  0  0  0  0  0  0  0  0  0  0
   -1.9556   19.1422    5.2020 O   0  0  0  0  0  0  0  0  0  0  0  0
   -0.6998   12.3747    7.8768 C   0  0  1  0  0  0  0  0  0  0  0  0
   -0.7791   11.7778    9.1330 O   0  0  0  0  0  0  0  0  0  0  0  0
    0.5367   13.8799   13.0921 C   0  0  0  0  0  0  0  0  0  0  0  0
   -2.6102   11.3915   13.4699 C   0  0  0  0  0  0  0  0  0  0  0  0
  1  2  1  6  0  0  0
  1  6  1  0  0  0  0
  1 21  1  0  0  0  0
  3  4  1  1  0  0  0
  3  8  1  0  0  0  0
  3 28  1  0  0  0  0
  5  9  1  0  0  0  0
  5 25  1  0  0  0  0
  5 29  1  1  0  0  0
  6  7  1  6  0  0  0
  6 11  1  0  0  0  0
  8 12  1  0  0  0  0
  9 10  1  6  0  0  0
  9 14  1  0  0  0  0
 11 16  1  0  0  0  0
 12 13  1  6  0  0  0
 12 17  1  0  0  0  0
 14 15  1  1  0  0  0
 14 18  1  0  0  0  0
 15 31  1  0  0  0  0
 16 20  1  0  0  0  0
 17  2  1  6  0  0  0
 17 22  1  0  0  0  0
 18 19  1  1  0  0  0
 18 24  1  0  0  0  0
 18 30  1  0  0  0  0
 20 21  1  0  0  0  0
 20 26  1  1  0  0  0
 22 23  1  1  0  0  0
 22 28  1  0  0  0  0
 24 25  1  0  0  0  0
 26 27  1  0  0  0  0
 28 29  1  1  0  0  0
M  END
>  <CHROM.1>
-165.78710698,-177.09552230,-106.71815433,-171.45916068,128.96187717,61.38893495
-1.57085764,13.47928785,8.12278212,2.36360360,0.97687498,-1.66532136

>  <Name>
ligand

>  <RI>
0

>  <Rbt.Current_Directory>
/home/itssahil/PROJECTS/Mol_Feturizer/New_Systems/rnas/4GPX

>  <Rbt.Executable>
rbdock ($Id: //depot/dev/client3/rdock/2013.1/src/exe/rbdock.cxx#4 $)

>  <Rbt.Library>
libRbt.so (2013.1, Build901 2013/11/27)

>  <Rbt.Parameter_File>
/export/apps/rDock/src/rDock_2013.1_src/data/scripts/dock_solv.prm

>  <Rbt.Receptor>
prm/pocket_docking_6.prm

>  <SCORE>
-16.7372

>  <SCORE.INTER>
-9.03055

>  <SCORE.INTER.CONST>
1

>  <SCORE.INTER.POLAR>
0

>  <SCORE.INTER.ROT>
6

>  <SCORE.INTER.SOLV>
15.5847

>  <SCORE.INTER.VDW>
-18.8153

>  <SCORE.INTER.norm>
-0.291308

>  <SCORE.INTRA>
-7.70661

>  <SCORE.INTRA.DIHEDRAL>
-16.4719

>  <SCORE.INTRA.DIHEDRAL.0>
20.6841

>  <SCORE.INTRA.POLAR>
0

>  <SCORE.INTRA.POLAR.0>
0

>  <SCORE.INTRA.REPUL>
0

>  <SCORE.INTRA.REPUL.0>
0

>  <SCORE.INTRA.SOLV>
-1.33612

>  <SCORE.INTRA.SOLV.lig_0>
-64.6797

>  <SCORE.INTRA.VDW>
1.1974

>  <SCORE.INTRA.VDW.0>
-4.11825

>  <SCORE.INTRA.norm>
-0.2486

>  <SCORE.RESTR>
0

>  <SCORE.RESTR.CAVITY>
0

>  <SCORE.RESTR.norm>
0

>  <SCORE.SYSTEM>
0

>  <SCORE.SYSTEM.CONST>
0

>  <SCORE.SYSTEM.DIHEDRAL>
0

>  <SCORE.SYSTEM.SOLV>
0

>  <SCORE.SYSTEM.norm>
0

>  <SCORE.heavy>
31

>  <SCORE.norm>
-0.539908

>  <RMSD>
4.102

$$$$
ligand
 OpenBabel11021811493D
libRbt.so/2013.1/901 2013/11/27
 31 33  0  0  0  0  0  0  0  0999 V2000
   -3.8764   15.4233    6.4397 C   0  0  2  0  0  0  0  0  0  0  0  0
   -3.2107   14.3804    5.7337 O   0  0  0  0  0  0  0  0  0  0  0  0
   -0.2004   11.5242    6.6634 C   0  0  2  0  0  0  0  0  0  0  0  0
    1.0840   10.9770    6.9761 N   0  0  0  0  0  0  0  0  0  0  0  0
    0.4544   11.2330    9.6227 C   0  0  2  0  0  0  0  0  0  0  0  0
   -5.3890   15.3882    5.9742 C   0  0  2  0  0  0  0  0  0  0  0  0
   -5.9457   14.0763    6.2873 N   0  0  0  0  0  0  0  0  0  0  0  0
   -0.0993   12.2700    5.2693 C   0  0  0  0  0  0  0  0  0  0  0  0
   -0.0894   10.6138   10.9492 C   0  0  2  0  0  0  0  0  0  0  0  0
   -1.1412    9.7286   10.6284 O   0  0  0  0  0  0  0  0  0  0  0  0
   -5.4952   15.6842    4.4250 C   0  0  0  0  0  0  0  0  0  0  0  0
   -1.5109   12.8759    4.9231 C   0  0  2  0  0  0  0  0  0  0  0  0
   -1.4217   13.5756    3.6300 N   0  0  0  0  0  0  0  0  0  0  0  0
   -0.6064   11.8044   11.8430 C   0  0  1  0  0  0  0  0  0  0  0  0
   -1.1618   11.2680   13.1294 N   0  0  0  0  0  0  0  0  0  0  0  0
   -4.4517   16.7810    3.9477 C   0  0  0  0  0  0  0  0  0  0  0  0
   -1.9585   13.8883    6.0678 C   0  0  2  0  0  0  0  0  0  0  0  0
    0.6612   12.7779   12.1655 C   0  0  1  0  0  0  0  0  0  0  0  0
    1.7120   12.0924   12.8254 O   0  0  0  0  0  0  0  0  0  0  0  0
   -3.4657   17.2177    4.7753 C   0  0  2  0  0  0  0  0  0  0  0  0
   -3.3080   16.7243    6.1107 O   0  0  0  0  0  0  0  0  0  0  0  0
   -2.0412   13.1247    7.4411 C   0  0  2  0  0  0  0  0  0  0  0  0
   -2.4377   14.0519    8.4744 O   0  0  0  0  0  0  0  0  0  0  0  0
    1.2505   13.3427   10.8323 C   0  0  0  0  0  0  0  0  0  0  0  0
    1.5886   12.1977    9.9144 O   0  0  0  0  0  0  0  0  0  0  0  0
   -2.4390   18.2740    4.3623 C   0  0  0  0  0  0  0  0  0  0  0  0
   -1.1351   17.6470    4.3349 O   0  0  0  0  0  0  0  0  0  0  0  0
   -0.6179   12.5464    7.7807 C   0  0  1  0  0  0  0  0  0  0  0  0
   -0.7000   11.8920    9.0078 O   0  0  0  0  0  0  0  0  0  0  0  0
    0.3312   14.0102   13.0420 C   0  0  0  0  0  0  0  0  0  0  0  0
   -2.5008   11.7506   13.5248 C   0  0  0  0  0  0  0  0  0  0  0  0
  1  2  1  6  0  0  0
  1  6  1  0  0  0  0
  1 21  1  0  0  0  0
  3  4  1  1  0  0  0
  3  8  1  0  0  0  0
  3 28  1  0  0  0  0
  5  9  1  0  0  0  0
  5 25  1  0  0  0  0
  5 29  1  1  0  0  0
  6  7  1  6  0  0  0
  6 11  1  0  0  0  0
  8 12  1  0  0  0  0
  9 10  1  6  0  0  0
  9 14  1  0  0  0  0
 11 16  1  0  0  0  0
 12 13  1  6  0  0  0
 12 17  1  0  0  0  0
 14 15  1  1  0  0  0
 14 18  1  0  0  0  0
 15 31  1  0  0  0  0
 16 20  1  0  0  0  0
 17  2  1  6  0  0  0
 17 22  1  0  0  0  0
 18 19  1  1  0  0  0
 18 24  1  0  0  0  0
 18 30  1  0  0  0  0
 20 21  1  0  0  0  0
 20 26  1  1  0  0  0
 22 23  1  1  0  0  0
 22 28  1  0  0  0  0
 24 25  1  0  0  0  0
 26 27  1  0  0  0  0
 28 29  1  1  0  0  0
M  END
>  <CHROM.1>
-165.12779235,-178.77523929,-130.33717638,-172.77864198,-114.74595254,61.18354011
-1.53817495,13.53091217,8.00280649,2.11735406,0.67366669,-1.38033673

>  <Name>
ligand

>  <RI>
0

>  <Rbt.Current_Directory>
/home/itssahil/PROJECTS/Mol_Feturizer/New_Systems/rnas/4GPX

>  <Rbt.Executable>
rbdock ($Id: //depot/dev/client3/rdock/2013.1/src/exe/rbdock.cxx#4 $)

>  <Rbt.Library>
libRbt.so (2013.1, Build901 2013/11/27)

>  <Rbt.Parameter_File>
/export/apps/rDock/src/rDock_2013.1_src/data/scripts/dock_solv.prm

>  <Rbt.Receptor>
prm/pocket_docking_4.prm

>  <SCORE>
-17.0556

>  <SCORE.INTER>
-9.29971

>  <SCORE.INTER.CONST>
1

>  <SCORE.INTER.POLAR>
0

>  <SCORE.INTER.ROT>
6

>  <SCORE.INTER.SOLV>
13.9819

>  <SCORE.INTER.VDW>
-18.4604

>  <SCORE.INTER.norm>
-0.299991

>  <SCORE.INTRA>
-7.75592

>  <SCORE.INTRA.DIHEDRAL>
-16.5368

>  <SCORE.INTRA.DIHEDRAL.0>
20.6841

>  <SCORE.INTRA.POLAR>
0

>  <SCORE.INTRA.POLAR.0>
0

>  <SCORE.INTRA.REPUL>
0

>  <SCORE.INTRA.REPUL.0>
0

>  <SCORE.INTRA.SOLV>
-1.16336

>  <SCORE.INTRA.SOLV.lig_0>
-64.6797

>  <SCORE.INTRA.VDW>
1.09416

>  <SCORE.INTRA.VDW.0>
-4.11825

>  <SCORE.INTRA.norm>
-0.250191

>  <SCORE.RESTR>
0

>  <SCORE.RESTR.CAVITY>
0

>  <SCORE.RESTR.norm>
0

>  <SCORE.SYSTEM>
0

>  <SCORE.SYSTEM.CONST>
0

>  <SCORE.SYSTEM.DIHEDRAL>
0

>  <SCORE.SYSTEM.SOLV>
0

>  <SCORE.SYSTEM.norm>
0

>  <SCORE.heavy>
31

>  <SCORE.norm>
-0.550182

>  <RMSD>
4.125

$$$$
ligand
 OpenBabel11021811493D
libRbt.so/2013.1/901 2013/11/27
 31 33  0  0  0  0  0  0  0  0999 V2000
   -1.6743   15.5737    4.3562 C   0  0  2  0  0  0  0  0  0  0  0  0
   -1.5555   15.7025    5.7699 O   0  0  0  0  0  0  0  0  0  0  0  0
   -0.3057   13.1992    8.9723 C   0  0  2  0  0  0  0  0  0  0  0  0
   -0.3059   12.1294    9.9223 N   0  0  0  0  0  0  0  0  0  0  0  0
    1.1055   10.5862    8.0405 C   0  0  2  0  0  0  0  0  0  0  0  0
   -1.1216   16.9200    3.7332 C   0  0  2  0  0  0  0  0  0  0  0  0
    0.2659   17.0946    4.1500 N   0  0  0  0  0  0  0  0  0  0  0  0
   -1.6271   14.0489    9.1773 C   0  0  0  0  0  0  0  0  0  0  0  0
    2.5694   10.1784    7.6809 C   0  0  2  0  0  0  0  0  0  0  0  0
    3.4341   11.2151    8.0936 O   0  0  0  0  0  0  0  0  0  0  0  0
   -2.0034   18.1457    4.2010 C   0  0  0  0  0  0  0  0  0  0  0  0
   -1.6315   15.2261    8.1315 C   0  0  2  0  0  0  0  0  0  0  0  0
   -2.8609   16.0167    8.3136 N   0  0  0  0  0  0  0  0  0  0  0  0
    2.6292    9.9819    6.1184 C   0  0  1  0  0  0  0  0  0  0  0  0
    4.0227    9.6066    5.7080 N   0  0  0  0  0  0  0  0  0  0  0  0
   -3.5462   17.7817    4.2845 C   0  0  0  0  0  0  0  0  0  0  0  0
   -1.5704   14.6350    6.6541 C   0  0  2  0  0  0  0  0  0  0  0  0
    1.6058    8.7755    5.7240 C   0  0  1  0  0  0  0  0  0  0  0  0
    1.9265    7.5612    6.3814 O   0  0  0  0  0  0  0  0  0  0  0  0
   -3.9705   16.4957    4.1660 C   0  0  2  0  0  0  0  0  0  0  0  0
   -3.0667   15.4037    3.9609 O   0  0  0  0  0  0  0  0  0  0  0  0
   -0.2551   13.7887    6.4814 C   0  0  2  0  0  0  0  0  0  0  0  0
   -0.2128   13.2486    5.1431 O   0  0  0  0  0  0  0  0  0  0  0  0
    0.1495    9.1538    6.1480 C   0  0  0  0  0  0  0  0  0  0  0  0
    0.1335    9.5026    7.6129 O   0  0  0  0  0  0  0  0  0  0  0  0
   -5.4454   16.0958    4.2369 C   0  0  0  0  0  0  0  0  0  0  0  0
   -6.0780   16.4889    2.9961 O   0  0  0  0  0  0  0  0  0  0  0  0
   -0.2792   12.6055    7.5182 C   0  0  1  0  0  0  0  0  0  0  0  0
    0.8793   11.8526    7.3403 O   0  0  0  0  0  0  0  0  0  0  0  0
    1.5381    8.4447    4.2135 C   0  0  0  0  0  0  0  0  0  0  0  0
    4.6149   10.3755    4.5944 C   0  0  0  0  0  0  0  0  0  0  0  0
  1  2  1  1  0  0  0
  1  6  1  0  0  0  0
  1 21  1  0  0  0  0
  3  4  1  1  0  0  0
  3  8  1  0  0  0  0
  3 28  1  0  0  0  0
  5  9  1  0  0  0  0
  5 25  1  0  0  0  0
  5 29  1  6  0  0  0
  6  7  1  1  0  0  0
  6 11  1  0  0  0  0
  8 12  1  0  0  0  0
  9 10  1  6  0  0  0
  9 14  1  0  0  0  0
 11 16  1  0  0  0  0
 12 13  1  6  0  0  0
 12 17  1  0  0  0  0
 14 15  1  1  0  0  0
 14 18  1  0  0  0  0
 15 31  1  0  0  0  0
 16 20  1  0  0  0  0
 17  2  1  6  0  0  0
 17 22  1  0  0  0  0
 18 19  1  1  0  0  0
 18 24  1  0  0  0  0
 18 30  1  0  0  0  0
 20 21  1  0  0  0  0
 20 26  1  6  0  0  0
 22 23  1  6  0  0  0
 22 28  1  0  0  0  0
 24 25  1  0  0  0  0
 26 27  1  0  0  0  0
 28 29  1  1  0  0  0
M  END
>  <CHROM.1>
-161.03914875,-173.63374924,-130.49634461,-171.67362217,74.36727638,68.38681382
-0.40667926,13.12931964,6.09924967,-2.82407514,-0.88255117,1.69882696

>  <Name>
ligand

>  <RI>
0

>  <Rbt.Current_Directory>
/home/itssahil/PROJECTS/Mol_Feturizer/New_Systems/rnas/4GPX

>  <Rbt.Executable>
rbdock ($Id: //depot/dev/client3/rdock/2013.1/src/exe/rbdock.cxx#4 $)

>  <Rbt.Library>
libRbt.so (2013.1, Build901 2013/11/27)

>  <Rbt.Parameter_File>
/export/apps/rDock/src/rDock_2013.1_src/data/scripts/dock_solv.prm

>  <Rbt.Receptor>
prm/pocket_docking_8.prm

>  <SCORE>
-13.993

>  <SCORE.INTER>
-7.29872

>  <SCORE.INTER.CONST>
1

>  <SCORE.INTER.POLAR>
0

>  <SCORE.INTER.ROT>
6

>  <SCORE.INTER.SOLV>
10.4355

>  <SCORE.INTER.VDW>
-15.9443

>  <SCORE.INTER.norm>
-0.235443

>  <SCORE.INTRA>
-6.69427

>  <SCORE.INTRA.DIHEDRAL>
-13.7119

>  <SCORE.INTRA.DIHEDRAL.0>
20.6841

>  <SCORE.INTRA.POLAR>
0

>  <SCORE.INTRA.POLAR.0>
0

>  <SCORE.INTRA.REPUL>
0

>  <SCORE.INTRA.REPUL.0>
0

>  <SCORE.INTRA.SOLV>
-1.56739

>  <SCORE.INTRA.SOLV.lig_0>
-64.6797

>  <SCORE.INTRA.VDW>
0.945373

>  <SCORE.INTRA.VDW.0>
-4.11825

>  <SCORE.INTRA.norm>
-0.215944

>  <SCORE.RESTR>
0

>  <SCORE.RESTR.CAVITY>
0

>  <SCORE.RESTR.norm>
0

>  <SCORE.SYSTEM>
0

>  <SCORE.SYSTEM.CONST>
0

>  <SCORE.SYSTEM.DIHEDRAL>
0

>  <SCORE.SYSTEM.SOLV>
0

>  <SCORE.SYSTEM.norm>
0

>  <SCORE.heavy>
31

>  <SCORE.norm>
-0.451387

>  <RMSD>
4.136

$$$$
ligand
 OpenBabel11021811493D
libRbt.so/2013.1/901 2013/11/27
 31 33  0  0  0  0  0  0  0  0999 V2000
   -3.8384   15.3667    6.4966 C   0  0  2  0  0  0  0  0  0  0  0  0
   -3.1729   14.3266    5.7863 O   0  0  0  0  0  0  0  0  0  0  0  0
   -0.1362   11.4923    6.6970 C   0  0  2  0  0  0  0  0  0  0  0  0
    1.1547   10.9540    6.9984 N   0  0  0  0  0  0  0  0  0  0  0  0
    0.5585   11.2428    9.6632 C   0  0  2  0  0  0  0  0  0  0  0  0
   -5.3495   15.3384    6.0257 C   0  0  2  0  0  0  0  0  0  0  0  0
   -5.9105   14.0259    6.3288 N   0  0  0  0  0  0  0  0  0  0  0  0
   -0.0545   12.2319    5.2984 C   0  0  0  0  0  0  0  0  0  0  0  0
    0.0298   10.6129   10.9908 C   0  0  2  0  0  0  0  0  0  0  0  0
   -0.9972    9.6987   10.6712 O   0  0  0  0  0  0  0  0  0  0  0  0
   -5.4496   15.6443    4.4781 C   0  0  0  0  0  0  0  0  0  0  0  0
   -1.4732   12.8280    4.9646 C   0  0  2  0  0  0  0  0  0  0  0  0
   -1.4021   13.5219    3.6673 N   0  0  0  0  0  0  0  0  0  0  0  0
   -0.5204   11.7917   11.8804 C   0  0  1  0  0  0  0  0  0  0  0  0
   -1.0629   11.2441   13.1677 N   0  0  0  0  0  0  0  0  0  0  0  0
   -4.4018   16.7414    4.0112 C   0  0  0  0  0  0  0  0  0  0  0  0
   -1.9143   13.8434    6.1091 C   0  0  2  0  0  0  0  0  0  0  0  0
    0.7199   12.8000   12.2018 C   0  0  1  0  0  0  0  0  0  0  0  0
    1.7879   12.1452   12.8650 O   0  0  0  0  0  0  0  0  0  0  0  0
   -3.4176   17.1705    4.8449 C   0  0  2  0  0  0  0  0  0  0  0  0
   -3.2656   16.6683    6.1776 O   0  0  0  0  0  0  0  0  0  0  0  0
   -1.9777   13.0859    7.4870 C   0  0  2  0  0  0  0  0  0  0  0  0
   -2.3684   14.0158    8.5201 O   0  0  0  0  0  0  0  0  0  0  0  0
    1.2955   13.3767   10.8676 C   0  0  0  0  0  0  0  0  0  0  0  0
    1.6657   12.2387    9.9535 O   0  0  0  0  0  0  0  0  0  0  0  0
   -2.3868   18.2267    4.4419 C   0  0  0  0  0  0  0  0  0  0  0  0
   -1.0751   17.6175    4.4935 O   0  0  0  0  0  0  0  0  0  0  0  0
   -0.5475   12.5174    7.8139 C   0  0  1  0  0  0  0  0  0  0  0  0
   -0.6126   11.8685    9.0449 O   0  0  0  0  0  0  0  0  0  0  0  0
    0.3554   14.0255   13.0742 C   0  0  0  0  0  0  0  0  0  0  0  0
   -2.3625   11.7810   13.6202 C   0  0  0  0  0  0  0  0  0  0  0  0
  1  2  1  6  0  0  0
  1  6  1  0  0  0  0
  1 21  1  0  0  0  0
  3  4  1  1  0  0  0
  3  8  1  0  0  0  0
  3 28  1  0  0  0  0
  5  9  1  0  0  0  0
  5 25  1  0  0  0  0
  5 29  1  1  0  0  0
  6  7  1  6  0  0  0
  6 11  1  0  0  0  0
  8 12  1  0  0  0  0
  9 10  1  6  0  0  0
  9 14  1  0  0  0  0
 11 16  1  0  0  0  0
 12 13  1  6  0  0  0
 12 17  1  0  0  0  0
 14 15  1  1  0  0  0
 14 18  1  0  0  0  0
 15 31  1  0  0  0  0
 16 20  1  0  0  0  0
 17  2  1  6  0  0  0
 17 22  1  0  0  0  0
 18 19  1  1  0  0  0
 18 24  1  0  0  0  0
 18 30  1  0  0  0  0
 20 21  1  0  0  0  0
 20 26  1  1  0  0  0
 22 23  1  1  0  0  0
 22 28  1  0  0  0  0
 24 25  1  0  0  0  0
 26 27  1  0  0  0  0
 28 29  1  1  0  0  0
M  END
>  <CHROM.1>
-166.16181491,-178.55124709,-135.54649053,-172.94491463,-118.14938402,62.45967937
-1.47346594,13.50881537,8.05308215,2.13945531,0.69608550,-1.41212818

>  <Name>
ligand

>  <RI>
0

>  <Rbt.Current_Directory>
/home/itssahil/PROJECTS/Mol_Feturizer/New_Systems/rnas/4GPX

>  <Rbt.Executable>
rbdock ($Id: //depot/dev/client3/rdock/2013.1/src/exe/rbdock.cxx#4 $)

>  <Rbt.Library>
libRbt.so (2013.1, Build901 2013/11/27)

>  <Rbt.Parameter_File>
/export/apps/rDock/src/rDock_2013.1_src/data/scripts/dock_solv.prm

>  <Rbt.Receptor>
prm/pocket_docking_7.prm

>  <SCORE>
-17.0037

>  <SCORE.INTER>
-9.06769

>  <SCORE.INTER.CONST>
1

>  <SCORE.INTER.POLAR>
0

>  <SCORE.INTER.ROT>
6

>  <SCORE.INTER.SOLV>
13.6445

>  <SCORE.INTER.VDW>
-18.1933

>  <SCORE.INTER.norm>
-0.292506

>  <SCORE.INTRA>
-7.93602

>  <SCORE.INTRA.DIHEDRAL>
-16.7887

>  <SCORE.INTRA.DIHEDRAL.0>
20.6841

>  <SCORE.INTRA.POLAR>
0

>  <SCORE.INTRA.POLAR.0>
0

>  <SCORE.INTRA.REPUL>
0

>  <SCORE.INTRA.REPUL.0>
0

>  <SCORE.INTRA.SOLV>
-1.27228

>  <SCORE.INTRA.SOLV.lig_0>
-64.6797

>  <SCORE.INTRA.VDW>
1.09447

>  <SCORE.INTRA.VDW.0>
-4.11825

>  <SCORE.INTRA.norm>
-0.256001

>  <SCORE.RESTR>
0

>  <SCORE.RESTR.CAVITY>
0

>  <SCORE.RESTR.norm>
0

>  <SCORE.SYSTEM>
0

>  <SCORE.SYSTEM.CONST>
0

>  <SCORE.SYSTEM.DIHEDRAL>
0

>  <SCORE.SYSTEM.SOLV>
0

>  <SCORE.SYSTEM.norm>
0

>  <SCORE.heavy>
31

>  <SCORE.norm>
-0.548507

>  <RMSD>
4.140

$$$$
ligand
 OpenBabel11021811493D
libRbt.so/2013.1/901 2013/11/27
 31 33  0  0  0  0  0  0  0  0999 V2000
   -4.1314   15.9616    4.4027 C   0  0  2  0  0  0  0  0  0  0  0  0
   -4.5504   15.8702    5.7611 O   0  0  0  0  0  0  0  0  0  0  0  0
   -0.9099   16.2967    7.9172 C   0  0  2  0  0  0  0  0  0  0  0  0
   -0.0102   16.4913    9.0124 N   0  0  0  0  0  0  0  0  0  0  0  0
   -0.0023   13.7122    9.3780 C   0  0  2  0  0  0  0  0  0  0  0  0
   -5.3979   15.6200    3.5166 C   0  0  2  0  0  0  0  0  0  0  0  0
   -6.4576   16.5743    3.8255 N   0  0  0  0  0  0  0  0  0  0  0  0
   -1.8573   17.5627    7.8184 C   0  0  0  0  0  0  0  0  0  0  0  0
    0.8047   12.4244    9.0190 C   0  0  2  0  0  0  0  0  0  0  0  0
    1.4371   12.6284    7.7735 O   0  0  0  0  0  0  0  0  0  0  0  0
   -5.8808   14.1405    3.7939 C   0  0  0  0  0  0  0  0  0  0  0  0
   -2.8509   17.3507    6.6154 C   0  0  2  0  0  0  0  0  0  0  0  0
   -3.7383   18.5226    6.5220 N   0  0  0  0  0  0  0  0  0  0  0  0
   -0.2253   11.2342    8.9409 C   0  0  1  0  0  0  0  0  0  0  0  0
    0.4914    9.9670    8.5782 N   0  0  0  0  0  0  0  0  0  0  0  0
   -4.6673   13.1422    4.0185 C   0  0  0  0  0  0  0  0  0  0  0  0
   -3.7070   16.0286    6.8498 C   0  0  2  0  0  0  0  0  0  0  0  0
   -0.9113   11.0659   10.4104 C   0  0  1  0  0  0  0  0  0  0  0  0
    0.0460   10.8173   11.4259 O   0  0  0  0  0  0  0  0  0  0  0  0
   -3.3966   13.6038    4.1594 C   0  0  2  0  0  0  0  0  0  0  0  0
   -3.0759   14.9990    4.1143 O   0  0  0  0  0  0  0  0  0  0  0  0
   -2.7421   14.7900    6.9539 C   0  0  2  0  0  0  0  0  0  0  0  0
   -3.5255   13.5977    7.1762 O   0  0  0  0  0  0  0  0  0  0  0  0
   -1.6607   12.3810   10.8011 C   0  0  0  0  0  0  0  0  0  0  0  0
   -0.7058   13.5421   10.7114 O   0  0  0  0  0  0  0  0  0  0  0  0
   -2.1950   12.6817    4.3749 C   0  0  0  0  0  0  0  0  0  0  0  0
   -1.2214   12.9630    3.3418 O   0  0  0  0  0  0  0  0  0  0  0  0
   -1.7729   15.0094    8.1737 C   0  0  1  0  0  0  0  0  0  0  0  0
   -0.9393   13.8972    8.2676 O   0  0  0  0  0  0  0  0  0  0  0  0
   -1.9583    9.9308   10.5158 C   0  0  0  0  0  0  0  0  0  0  0  0
    0.5285    9.6143    7.1442 C   0  0  0  0  0  0  0  0  0  0  0  0
  1  2  1  1  0  0  0
  1  6  1  0  0  0  0
  1 21  1  0  0  0  0
  3  4  1  1  0  0  0
  3  8  1  0  0  0  0
  3 28  1  0  0  0  0
  5  9  1  0  0  0  0
  5 25  1  0  0  0  0
  5 29  1  6  0  0  0
  6  7  1  1  0  0  0
  6 11  1  0  0  0  0
  8 12  1  0  0  0  0
  9 10  1  6  0  0  0
  9 14  1  0  0  0  0
 11 16  1  0  0  0  0
 12 13  1  1  0  0  0
 12 17  1  0  0  0  0
 14 15  1  1  0  0  0
 14 18  1  0  0  0  0
 15 31  1  0  0  0  0
 16 20  1  0  0  0  0
 17  2  1  6  0  0  0
 17 22  1  0  0  0  0
 18 19  1  1  0  0  0
 18 24  1  0  0  0  0
 18 30  1  0  0  0  0
 20 21  1  0  0  0  0
 20 26  1  6  0  0  0
 22 23  1  1  0  0  0
 22 28  1  0  0  0  0
 24 25  1  0  0  0  0
 26 27  1  0  0  0  0
 28 29  1  6  0  0  0
M  END
>  <CHROM.1>
176.33489364,-175.08563031,-94.13575344,48.24361627,124.51819249,67.53314139
-2.07974102,13.90843666,7.14445436,2.94148985,-0.97857495,0.44962713

>  <Name>
ligand

>  <RI>
0

>  <Rbt.Current_Directory>
/home/itssahil/PROJECTS/Mol_Feturizer/New_Systems/rnas/4GPX

>  <Rbt.Executable>
rbdock ($Id: //depot/dev/client3/rdock/2013.1/src/exe/rbdock.cxx#4 $)

>  <Rbt.Library>
libRbt.so (2013.1, Build901 2013/11/27)

>  <Rbt.Parameter_File>
/export/apps/rDock/src/rDock_2013.1_src/data/scripts/dock_solv.prm

>  <Rbt.Receptor>
prm/pocket_docking_6.prm

>  <SCORE>
-13.0898

>  <SCORE.INTER>
-4.87471

>  <SCORE.INTER.CONST>
1

>  <SCORE.INTER.POLAR>
0

>  <SCORE.INTER.ROT>
6

>  <SCORE.INTER.SOLV>
16.834

>  <SCORE.INTER.VDW>
-16.4611

>  <SCORE.INTER.norm>
-0.157249

>  <SCORE.INTRA>
-8.21506

>  <SCORE.INTRA.DIHEDRAL>
-17.1136

>  <SCORE.INTRA.DIHEDRAL.0>
20.6841

>  <SCORE.INTRA.POLAR>
0

>  <SCORE.INTRA.POLAR.0>
0

>  <SCORE.INTRA.REPUL>
0

>  <SCORE.INTRA.REPUL.0>
0

>  <SCORE.INTRA.SOLV>
-0.858926

>  <SCORE.INTRA.SOLV.lig_0>
-64.6797

>  <SCORE.INTRA.VDW>
0.77119

>  <SCORE.INTRA.VDW.0>
-4.11825

>  <SCORE.INTRA.norm>
-0.265002

>  <SCORE.RESTR>
0

>  <SCORE.RESTR.CAVITY>
0

>  <SCORE.RESTR.norm>
0

>  <SCORE.SYSTEM>
0

>  <SCORE.SYSTEM.CONST>
0

>  <SCORE.SYSTEM.DIHEDRAL>
0

>  <SCORE.SYSTEM.SOLV>
0

>  <SCORE.SYSTEM.norm>
0

>  <SCORE.heavy>
31

>  <SCORE.norm>
-0.422251

>  <RMSD>
4.154

$$$$
ligand
 OpenBabel11021811493D
libRbt.so/2013.1/901 2013/11/27
 31 33  0  0  0  0  0  0  0  0999 V2000
   -3.9410   15.4043    6.4897 C   0  0  2  0  0  0  0  0  0  0  0  0
   -3.2504   14.3585    5.8125 O   0  0  0  0  0  0  0  0  0  0  0  0
   -0.2719   11.5145    6.8728 C   0  0  2  0  0  0  0  0  0  0  0  0
    1.0021   10.9714    7.2317 N   0  0  0  0  0  0  0  0  0  0  0  0
    0.2996   11.2897    9.8674 C   0  0  2  0  0  0  0  0  0  0  0  0
   -5.4344   15.3710    5.9658 C   0  0  2  0  0  0  0  0  0  0  0  0
   -6.0055   14.0609    6.2602 N   0  0  0  0  0  0  0  0  0  0  0  0
   -0.1283   12.2403    5.4719 C   0  0  0  0  0  0  0  0  0  0  0  0
   -0.2844   10.6868   11.1843 C   0  0  2  0  0  0  0  0  0  0  0  0
   -1.3080    9.7772   10.8414 O   0  0  0  0  0  0  0  0  0  0  0  0
   -5.4797   15.6635    4.4130 C   0  0  0  0  0  0  0  0  0  0  0  0
   -1.5284   12.8418    5.0749 C   0  0  2  0  0  0  0  0  0  0  0  0
   -1.3998   13.5229    3.7752 N   0  0  0  0  0  0  0  0  0  0  0  0
   -0.8555   11.8853   12.0336 C   0  0  1  0  0  0  0  0  0  0  0  0
   -1.4510   11.3642   13.3083 N   0  0  0  0  0  0  0  0  0  0  0  0
   -4.4163   16.7572    3.9741 C   0  0  0  0  0  0  0  0  0  0  0  0
   -2.0093   13.8707    6.1910 C   0  0  2  0  0  0  0  0  0  0  0  0
    0.3820   12.8871   12.3847 C   0  0  1  0  0  0  0  0  0  0  0  0
    1.4180   12.2332   13.0979 O   0  0  0  0  0  0  0  0  0  0  0  0
   -3.4623   17.1939    4.8384 C   0  0  2  0  0  0  0  0  0  0  0  0
   -3.3576   16.7034    6.1800 O   0  0  0  0  0  0  0  0  0  0  0  0
   -2.1337   13.1269    7.5720 C   0  0  2  0  0  0  0  0  0  0  0  0
   -2.5603   14.0689    8.5796 O   0  0  0  0  0  0  0  0  0  0  0  0
    1.0127   13.4362   11.0638 C   0  0  0  0  0  0  0  0  0  0  0  0
    1.4052   12.2797   10.1827 O   0  0  0  0  0  0  0  0  0  0  0  0
   -2.4182   18.2473    4.4630 C   0  0  0  0  0  0  0  0  0  0  0  0
   -1.1085   17.6424    4.5766 O   0  0  0  0  0  0  0  0  0  0  0  0
   -0.7218   12.5528    7.9624 C   0  0  1  0  0  0  0  0  0  0  0  0
   -0.8413   11.9161    9.1957 O   0  0  0  0  0  0  0  0  0  0  0  0
   -0.0023   14.1302   13.2229 C   0  0  0  0  0  0  0  0  0  0  0  0
   -2.9192   11.4591   13.4406 C   0  0  0  0  0  0  0  0  0  0  0  0
  1  2  1  6  0  0  0
  1  6  1  0  0  0  0
  1 21  1  0  0  0  0
  3  4  1  1  0  0  0
  3  8  1  0  0  0  0
  3 28  1  0  0  0  0
  5  9  1  0  0  0  0
  5 25  1  0  0  0  0
  5 29  1  1  0  0  0
  6  7  1  6  0  0  0
  6 11  1  0  0  0  0
  8 12  1  0  0  0  0
  9 10  1  6  0  0  0
  9 14  1  0  0  0  0
 11 16  1  0  0  0  0
 12 13  1  6  0  0  0
 12 17  1  0  0  0  0
 14 15  1  1  0  0  0
 14 18  1  0  0  0  0
 15 31  1  0  0  0  0
 16 20  1  0  0  0  0
 17  2  1  6  0  0  0
 17 22  1  0  0  0  0
 18 19  1  1  0  0  0
 18 24  1  0  0  0  0
 18 30  1  0  0  0  0
 20 21  1  0  0  0  0
 20 26  1  1  0  0  0
 22 23  1  1  0  0  0
 22 28  1  0  0  0  0
 24 25  1  0  0  0  0
 26 27  1  0  0  0  0
 28 29  1  1  0  0  0
M  END
>  <CHROM.1>
-165.56430397,-179.05400941,-111.31963705,-173.30888654,-118.59509504,62.48521318
-1.65699105,13.54105664,8.14613593,2.07266609,0.66028243,-1.35710461

>  <Name>
ligand

>  <RI>
0

>  <Rbt.Current_Directory>
/home/itssahil/PROJECTS/Mol_Feturizer/New_Systems/rnas/4GPX

>  <Rbt.Executable>
rbdock ($Id: //depot/dev/client3/rdock/2013.1/src/exe/rbdock.cxx#4 $)

>  <Rbt.Library>
libRbt.so (2013.1, Build901 2013/11/27)

>  <Rbt.Parameter_File>
/export/apps/rDock/src/rDock_2013.1_src/data/scripts/dock_solv.prm

>  <Rbt.Receptor>
prm/pocket_docking_5.prm

>  <SCORE>
-16.8448

>  <SCORE.INTER>
-8.92398

>  <SCORE.INTER.CONST>
1

>  <SCORE.INTER.POLAR>
0

>  <SCORE.INTER.ROT>
6

>  <SCORE.INTER.SOLV>
13.3135

>  <SCORE.INTER.VDW>
-17.9872

>  <SCORE.INTER.norm>
-0.28787

>  <SCORE.INTRA>
-7.92085

>  <SCORE.INTRA.DIHEDRAL>
-16.6174

>  <SCORE.INTRA.DIHEDRAL.0>
20.6841

>  <SCORE.INTRA.POLAR>
0

>  <SCORE.INTRA.POLAR.0>
0

>  <SCORE.INTRA.REPUL>
0

>  <SCORE.INTRA.REPUL.0>
0

>  <SCORE.INTRA.SOLV>
-1.24061

>  <SCORE.INTRA.SOLV.lig_0>
-64.6797

>  <SCORE.INTRA.VDW>
1.00818

>  <SCORE.INTRA.VDW.0>
-4.11825

>  <SCORE.INTRA.norm>
-0.255511

>  <SCORE.RESTR>
0

>  <SCORE.RESTR.CAVITY>
0

>  <SCORE.RESTR.norm>
0

>  <SCORE.SYSTEM>
0

>  <SCORE.SYSTEM.CONST>
0

>  <SCORE.SYSTEM.DIHEDRAL>
0

>  <SCORE.SYSTEM.SOLV>
0

>  <SCORE.SYSTEM.norm>
0

>  <SCORE.heavy>
31

>  <SCORE.norm>
-0.543382

>  <RMSD>
4.159

$$$$
ligand
 OpenBabel11021811493D
libRbt.so/2013.1/901 2013/11/27
 31 33  0  0  0  0  0  0  0  0999 V2000
   -3.9035   15.4230    6.4639 C   0  0  2  0  0  0  0  0  0  0  0  0
   -3.2226   14.3768    5.7777 O   0  0  0  0  0  0  0  0  0  0  0  0
   -0.2941   11.4887    6.8578 C   0  0  2  0  0  0  0  0  0  0  0  0
    0.9710   10.9253    7.2170 N   0  0  0  0  0  0  0  0  0  0  0  0
    0.2884   11.2885    9.8518 C   0  0  2  0  0  0  0  0  0  0  0  0
   -5.4034   15.3916    5.9587 C   0  0  2  0  0  0  0  0  0  0  0  0
   -5.9722   14.0820    6.2595 N   0  0  0  0  0  0  0  0  0  0  0  0
   -0.1438   12.1945    5.4474 C   0  0  0  0  0  0  0  0  0  0  0  0
   -0.3009   10.7108   11.1775 C   0  0  2  0  0  0  0  0  0  0  0  0
   -1.3430    9.8172   10.8489 O   0  0  0  0  0  0  0  0  0  0  0  0
   -5.4677   15.6850    4.4067 C   0  0  0  0  0  0  0  0  0  0  0  0
   -1.5340   12.8181    5.0500 C   0  0  2  0  0  0  0  0  0  0  0  0
   -1.3991   13.4808    3.7415 N   0  0  0  0  0  0  0  0  0  0  0  0
   -0.8452   11.9288   12.0165 C   0  0  1  0  0  0  0  0  0  0  0  0
   -1.4446   11.4327   13.2993 N   0  0  0  0  0  0  0  0  0  0  0  0
   -4.4086   16.7777    3.9551 C   0  0  0  0  0  0  0  0  0  0  0  0
   -1.9891   13.8697    6.1559 C   0  0  2  0  0  0  0  0  0  0  0  0
    0.4126   12.9106   12.3515 C   0  0  1  0  0  0  0  0  0  0  0  0
    1.4393   12.2448   13.0670 O   0  0  0  0  0  0  0  0  0  0  0  0
   -3.4435   17.2130    4.8077 C   0  0  2  0  0  0  0  0  0  0  0  0
   -3.3226   16.7217    6.1477 O   0  0  0  0  0  0  0  0  0  0  0  0
   -2.1207   13.1451    7.5465 C   0  0  2  0  0  0  0  0  0  0  0  0
   -2.5237   14.1074    8.5447 O   0  0  0  0  0  0  0  0  0  0  0  0
    1.0475   13.4336   11.0221 C   0  0  0  0  0  0  0  0  0  0  0  0
    1.4140   12.2606   10.1516 O   0  0  0  0  0  0  0  0  0  0  0  0
   -2.4030   18.2654    4.4199 C   0  0  0  0  0  0  0  0  0  0  0  0
   -1.0900   17.6753    4.5682 O   0  0  0  0  0  0  0  0  0  0  0  0
   -0.7182   12.5486    7.9368 C   0  0  1  0  0  0  0  0  0  0  0  0
   -0.8435   11.9293    9.1784 O   0  0  0  0  0  0  0  0  0  0  0  0
    0.0558   14.1696   13.1781 C   0  0  0  0  0  0  0  0  0  0  0  0
   -2.9189   11.3588   13.3565 C   0  0  0  0  0  0  0  0  0  0  0  0
  1  2  1  6  0  0  0
  1  6  1  0  0  0  0
  1 21  1  0  0  0  0
  3  4  1  1  0  0  0
  3  8  1  0  0  0  0
  3 28  1  0  0  0  0
  5  9  1  0  0  0  0
  5 25  1  0  0  0  0
  5 29  1  1  0  0  0
  6  7  1  6  0  0  0
  6 11  1  0  0  0  0
  8 12  1  0  0  0  0
  9 10  1  6  0  0  0
  9 14  1  0  0  0  0
 11 16  1  0  0  0  0
 12 13  1  6  0  0  0
 12 17  1  0  0  0  0
 14 15  1  1  0  0  0
 14 18  1  0  0  0  0
 15 31  1  0  0  0  0
 16 20  1  0  0  0  0
 17  2  1  6  0  0  0
 17 22  1  0  0  0  0
 18 19  1  1  0  0  0
 18 24  1  0  0  0  0
 18 30  1  0  0  0  0
 20 21  1  0  0  0  0
 20 26  1  1  0  0  0
 22 23  1  1  0  0  0
 22 28  1  0  0  0  0
 24 25  1  0  0  0  0
 26 27  1  0  0  0  0
 28 29  1  1  0  0  0
M  END
>  <CHROM.1>
-164.24431983,-178.94466520,-102.02706762,-174.83398987,-120.84021473,62.45579965
-1.64575059,13.54824260,8.12123581,2.08158290,0.68366728,-1.37093417

>  <Name>
ligand

>  <RI>
0

>  <Rbt.Current_Directory>
/home/itssahil/PROJECTS/Mol_Feturizer/New_Systems/rnas/4GPX

>  <Rbt.Executable>
rbdock ($Id: //depot/dev/client3/rdock/2013.1/src/exe/rbdock.cxx#4 $)

>  <Rbt.Library>
libRbt.so (2013.1, Build901 2013/11/27)

>  <Rbt.Parameter_File>
/export/apps/rDock/src/rDock_2013.1_src/data/scripts/dock_solv.prm

>  <Rbt.Receptor>
prm/pocket_docking_6.prm

>  <SCORE>
-16.7969

>  <SCORE.INTER>
-8.92547

>  <SCORE.INTER.CONST>
1

>  <SCORE.INTER.POLAR>
0

>  <SCORE.INTER.ROT>
6

>  <SCORE.INTER.SOLV>
13.228

>  <SCORE.INTER.VDW>
-17.9596

>  <SCORE.INTER.norm>
-0.287918

>  <SCORE.INTRA>
-7.87146

>  <SCORE.INTRA.DIHEDRAL>
-16.7151

>  <SCORE.INTRA.DIHEDRAL.0>
20.6841

>  <SCORE.INTRA.POLAR>
0

>  <SCORE.INTRA.POLAR.0>
0

>  <SCORE.INTRA.REPUL>
0

>  <SCORE.INTRA.REPUL.0>
0

>  <SCORE.INTRA.SOLV>
-1.31542

>  <SCORE.INTRA.SOLV.lig_0>
-64.6797

>  <SCORE.INTRA.VDW>
1.14381

>  <SCORE.INTRA.VDW.0>
-4.11825

>  <SCORE.INTRA.norm>
-0.253918

>  <SCORE.RESTR>
0

>  <SCORE.RESTR.CAVITY>
0

>  <SCORE.RESTR.norm>
0

>  <SCORE.SYSTEM>
0

>  <SCORE.SYSTEM.CONST>
0

>  <SCORE.SYSTEM.DIHEDRAL>
0

>  <SCORE.SYSTEM.SOLV>
0

>  <SCORE.SYSTEM.norm>
0

>  <SCORE.heavy>
31

>  <SCORE.norm>
-0.541836

>  <RMSD>
4.159

$$$$
ligand
 OpenBabel11021811493D
libRbt.so/2013.1/901 2013/11/27
 31 33  0  0  0  0  0  0  0  0999 V2000
   -3.9688   15.9025    4.4636 C   0  0  2  0  0  0  0  0  0  0  0  0
   -4.3466   15.7770    5.8314 O   0  0  0  0  0  0  0  0  0  0  0  0
   -0.6702   16.3484    7.8908 C   0  0  2  0  0  0  0  0  0  0  0  0
    0.2511   16.5613    8.9645 N   0  0  0  0  0  0  0  0  0  0  0  0
    0.4440   13.7885    9.2272 C   0  0  2  0  0  0  0  0  0  0  0  0
   -5.2661   15.6001    3.6083 C   0  0  2  0  0  0  0  0  0  0  0  0
   -6.3044   16.5568    3.9770 N   0  0  0  0  0  0  0  0  0  0  0  0
   -1.6914   17.5593    7.8620 C   0  0  0  0  0  0  0  0  0  0  0  0
    1.3210   12.5717    8.7927 C   0  0  2  0  0  0  0  0  0  0  0  0
    1.8836   12.8573    7.5299 O   0  0  0  0  0  0  0  0  0  0  0  0
   -5.7577   14.1188    3.8589 C   0  0  0  0  0  0  0  0  0  0  0  0
   -2.7088   17.3270    6.6828 C   0  0  2  0  0  0  0  0  0  0  0  0
   -3.6647   18.4474    6.6545 N   0  0  0  0  0  0  0  0  0  0  0  0
    0.3722   11.3155    8.7170 C   0  0  1  0  0  0  0  0  0  0  0  0
    1.1577   10.1131    8.2831 N   0  0  0  0  0  0  0  0  0  0  0  0
   -4.5498   13.1011    4.0172 C   0  0  0  0  0  0  0  0  0  0  0  0
   -3.4796   15.9505    6.8990 C   0  0  2  0  0  0  0  0  0  0  0  0
   -0.2366   11.0549   10.2069 C   0  0  1  0  0  0  0  0  0  0  0  0
    0.7783   10.8428   11.1735 O   0  0  0  0  0  0  0  0  0  0  0  0
   -3.2699   13.5446    4.1312 C   0  0  2  0  0  0  0  0  0  0  0  0
   -2.9342   14.9369    4.1153 O   0  0  0  0  0  0  0  0  0  0  0  0
   -2.4423   14.7678    6.9336 C   0  0  2  0  0  0  0  0  0  0  0  0
   -3.1484   13.5255    7.1399 O   0  0  0  0  0  0  0  0  0  0  0  0
   -1.0566   12.3021   10.6716 C   0  0  0  0  0  0  0  0  0  0  0  0
   -0.1881   13.5291   10.5819 O   0  0  0  0  0  0  0  0  0  0  0  0
   -2.0732   12.6036    4.2830 C   0  0  0  0  0  0  0  0  0  0  0  0
   -1.1379   12.8902    3.2165 O   0  0  0  0  0  0  0  0  0  0  0  0
   -1.4492   15.0055    8.1305 C   0  0  1  0  0  0  0  0  0  0  0  0
   -0.5505   13.9416    8.1629 O   0  0  0  0  0  0  0  0  0  0  0  0
   -1.1981    9.8470   10.3169 C   0  0  0  0  0  0  0  0  0  0  0  0
    0.5544    9.2735    7.2279 C   0  0  0  0  0  0  0  0  0  0  0  0
  1  2  1  1  0  0  0
  1  6  1  0  0  0  0
  1 21  1  0  0  0  0
  3  4  1  1  0  0  0
  3  8  1  0  0  0  0
  3 28  1  0  0  0  0
  5  9  1  0  0  0  0
  5 25  1  0  0  0  0
  5 29  1  6  0  0  0
  6  7  1  1  0  0  0
  6 11  1  0  0  0  0
  8 12  1  0  0  0  0
  9 10  1  6  0  0  0
  9 14  1  0  0  0  0
 11 16  1  0  0  0  0
 12 13  1  1  0  0  0
 12 17  1  0  0  0  0
 14 15  1  1  0  0  0
 14 18  1  0  0  0  0
 15 31  1  0  0  0  0
 16 20  1  0  0  0  0
 17  2  1  6  0  0  0
 17 22  1  0  0  0  0
 18 19  1  1  0  0  0
 18 24  1  0  0  0  0
 18 30  1  0  0  0  0
 20 21  1  0  0  0  0
 20 26  1  6  0  0  0
 22 23  1  1  0  0  0
 22 28  1  0  0  0  0
 24 25  1  0  0  0  0
 26 27  1  0  0  0  0
 28 29  1  6  0  0  0
M  END
>  <CHROM.1>
179.17181357,-174.17322789,-133.74875628,49.86964331,123.69115350,66.57166483
-1.76097695,13.89257325,7.08622423,2.93307839,-0.91431866,0.44627210

>  <Name>
ligand

>  <RI>
0

>  <Rbt.Current_Directory>
/home/itssahil/PROJECTS/Mol_Feturizer/New_Systems/rnas/4GPX

>  <Rbt.Executable>
rbdock ($Id: //depot/dev/client3/rdock/2013.1/src/exe/rbdock.cxx#4 $)

>  <Rbt.Library>
libRbt.so (2013.1, Build901 2013/11/27)

>  <Rbt.Parameter_File>
/export/apps/rDock/src/rDock_2013.1_src/data/scripts/dock_solv.prm

>  <Rbt.Receptor>
prm/pocket_docking_8.prm

>  <SCORE>
-13.0019

>  <SCORE.INTER>
-4.77963

>  <SCORE.INTER.CONST>
1

>  <SCORE.INTER.POLAR>
0

>  <SCORE.INTER.ROT>
6

>  <SCORE.INTER.SOLV>
15.5196

>  <SCORE.INTER.VDW>
-15.9596

>  <SCORE.INTER.norm>
-0.154182

>  <SCORE.INTRA>
-8.22223

>  <SCORE.INTRA.DIHEDRAL>
-17.0473

>  <SCORE.INTRA.DIHEDRAL.0>
20.6841

>  <SCORE.INTRA.POLAR>
0

>  <SCORE.INTRA.POLAR.0>
0

>  <SCORE.INTRA.REPUL>
0

>  <SCORE.INTRA.REPUL.0>
0

>  <SCORE.INTRA.SOLV>
-0.805378

>  <SCORE.INTRA.SOLV.lig_0>
-64.6797

>  <SCORE.INTRA.VDW>
0.704092

>  <SCORE.INTRA.VDW.0>
-4.11825

>  <SCORE.INTRA.norm>
-0.265233

>  <SCORE.RESTR>
0

>  <SCORE.RESTR.CAVITY>
0

>  <SCORE.RESTR.norm>
0

>  <SCORE.SYSTEM>
0

>  <SCORE.SYSTEM.CONST>
0

>  <SCORE.SYSTEM.DIHEDRAL>
0

>  <SCORE.SYSTEM.SOLV>
0

>  <SCORE.SYSTEM.norm>
0

>  <SCORE.heavy>
31

>  <SCORE.norm>
-0.419415

>  <RMSD>
4.162

$$$$
ligand
 OpenBabel11021811493D
libRbt.so/2013.1/901 2013/11/27
 31 33  0  0  0  0  0  0  0  0999 V2000
   -4.3184   14.9454    6.6530 C   0  0  2  0  0  0  0  0  0  0  0  0
   -3.4331   13.9801    6.0929 O   0  0  0  0  0  0  0  0  0  0  0  0
    0.1761   11.9991    7.1572 C   0  0  2  0  0  0  0  0  0  0  0  0
    1.5480   11.8018    7.5122 N   0  0  0  0  0  0  0  0  0  0  0  0
    0.7990   11.9113   10.1266 C   0  0  2  0  0  0  0  0  0  0  0  0
   -5.7744   14.5559    6.1688 C   0  0  2  0  0  0  0  0  0  0  0  0
   -6.0769   13.2054    6.6314 N   0  0  0  0  0  0  0  0  0  0  0  0
    0.1240   12.7237    5.7494 C   0  0  0  0  0  0  0  0  0  0  0  0
    0.3930   11.1304   11.4166 C   0  0  2  0  0  0  0  0  0  0  0  0
   -0.3791   10.0120   11.0350 O   0  0  0  0  0  0  0  0  0  0  0  0
   -5.8715   14.6409    4.5932 C   0  0  0  0  0  0  0  0  0  0  0  0
   -1.3847   12.9449    5.3566 C   0  0  2  0  0  0  0  0  0  0  0  0
   -1.4395   13.6235    4.0504 N   0  0  0  0  0  0  0  0  0  0  0  0
   -0.4469   12.1164   12.3145 C   0  0  1  0  0  0  0  0  0  0  0  0
   -0.8845   11.4136   13.5658 N   0  0  0  0  0  0  0  0  0  0  0  0
   -5.0432   15.8595    4.0029 C   0  0  0  0  0  0  0  0  0  0  0  0
   -2.1071   13.8283    6.4672 C   0  0  2  0  0  0  0  0  0  0  0  0
    0.5101   13.3763   12.7084 C   0  0  1  0  0  0  0  0  0  0  0  0
    1.6814   12.9684   13.3948 O   0  0  0  0  0  0  0  0  0  0  0  0
   -4.1968   16.5776    4.7876 C   0  0  2  0  0  0  0  0  0  0  0  0
   -4.0017   16.2856    6.1762 O   0  0  0  0  0  0  0  0  0  0  0  0
   -2.0320   13.0908    7.8553 C   0  0  2  0  0  0  0  0  0  0  0  0
   -2.6802   13.9029    8.8577 O   0  0  0  0  0  0  0  0  0  0  0  0
    0.9745   14.1167   11.4122 C   0  0  0  0  0  0  0  0  0  0  0  0
    1.6307   13.1288   10.4841 O   0  0  0  0  0  0  0  0  0  0  0  0
   -3.3797   17.7610    4.2657 C   0  0  0  0  0  0  0  0  0  0  0  0
   -3.0033   18.5812    5.3970 O   0  0  0  0  0  0  0  0  0  0  0  0
   -0.5188   12.8991    8.2410 C   0  0  1  0  0  0  0  0  0  0  0  0
   -0.4668   12.2651    9.4804 O   0  0  0  0  0  0  0  0  0  0  0  0
   -0.1598   14.4518   13.5973 C   0  0  0  0  0  0  0  0  0  0  0  0
   -2.2845   11.6231   13.9879 C   0  0  0  0  0  0  0  0  0  0  0  0
  1  2  1  6  0  0  0
  1  6  1  0  0  0  0
  1 21  1  0  0  0  0
  3  4  1  1  0  0  0
  3  8  1  0  0  0  0
  3 28  1  0  0  0  0
  5  9  1  0  0  0  0
  5 25  1  0  0  0  0
  5 29  1  1  0  0  0
  6  7  1  6  0  0  0
  6 11  1  0  0  0  0
  8 12  1  0  0  0  0
  9 10  1  6  0  0  0
  9 14  1  0  0  0  0
 11 16  1  0  0  0  0
 12 13  1  6  0  0  0
 12 17  1  0  0  0  0
 14 15  1  1  0  0  0
 14 18  1  0  0  0  0
 15 31  1  0  0  0  0
 16 20  1  0  0  0  0
 17  2  1  6  0  0  0
 17 22  1  0  0  0  0
 18 19  1  1  0  0  0
 18 24  1  0  0  0  0
 18 30  1  0  0  0  0
 20 21  1  0  0  0  0
 20 26  1  1  0  0  0
 22 23  1  1  0  0  0
 22 28  1  0  0  0  0
 24 25  1  0  0  0  0
 26 27  1  0  0  0  0
 28 29  1  1  0  0  0
M  END
>  <CHROM.1>
-168.03825232,-175.61105980,-136.00054004,-164.87310115,158.82599803,60.13322183
-1.67221182,13.62118311,8.40771004,2.16495120,0.52663863,-1.46141968

>  <Name>
ligand

>  <RI>
0

>  <Rbt.Current_Directory>
/home/itssahil/PROJECTS/Mol_Feturizer/New_Systems/rnas/4GPX

>  <Rbt.Executable>
rbdock ($Id: //depot/dev/client3/rdock/2013.1/src/exe/rbdock.cxx#4 $)

>  <Rbt.Library>
libRbt.so (2013.1, Build901 2013/11/27)

>  <Rbt.Parameter_File>
/export/apps/rDock/src/rDock_2013.1_src/data/scripts/dock_solv.prm

>  <Rbt.Receptor>
prm/pocket_docking_4.prm

>  <SCORE>
-14.9146

>  <SCORE.INTER>
-8.38991

>  <SCORE.INTER.CONST>
1

>  <SCORE.INTER.POLAR>
0

>  <SCORE.INTER.ROT>
6

>  <SCORE.INTER.SOLV>
14.6759

>  <SCORE.INTER.VDW>
-18.0852

>  <SCORE.INTER.norm>
-0.270642

>  <SCORE.INTRA>
-6.52467

>  <SCORE.INTRA.DIHEDRAL>
-14.7545

>  <SCORE.INTRA.DIHEDRAL.0>
20.6841

>  <SCORE.INTRA.POLAR>
0

>  <SCORE.INTRA.POLAR.0>
0

>  <SCORE.INTRA.REPUL>
0

>  <SCORE.INTRA.REPUL.0>
0

>  <SCORE.INTRA.SOLV>
-0.966166

>  <SCORE.INTRA.SOLV.lig_0>
-64.6797

>  <SCORE.INTRA.VDW>
1.33568

>  <SCORE.INTRA.VDW.0>
-4.11825

>  <SCORE.INTRA.norm>
-0.210473

>  <SCORE.RESTR>
0

>  <SCORE.RESTR.CAVITY>
0

>  <SCORE.RESTR.norm>
0

>  <SCORE.SYSTEM>
0

>  <SCORE.SYSTEM.CONST>
0

>  <SCORE.SYSTEM.DIHEDRAL>
0

>  <SCORE.SYSTEM.SOLV>
0

>  <SCORE.SYSTEM.norm>
0

>  <SCORE.heavy>
31

>  <SCORE.norm>
-0.481115

>  <RMSD>
4.165

$$$$
ligand
 OpenBabel11021811493D
libRbt.so/2013.1/901 2013/11/27
 31 33  0  0  0  0  0  0  0  0999 V2000
   -3.7455   15.4618    6.6232 C   0  0  2  0  0  0  0  0  0  0  0  0
   -3.1152   14.4027    5.9088 O   0  0  0  0  0  0  0  0  0  0  0  0
   -0.1145   11.5225    6.7945 C   0  0  2  0  0  0  0  0  0  0  0  0
    1.1724   10.9630    7.0730 N   0  0  0  0  0  0  0  0  0  0  0  0
    0.6572   11.3356    9.7585 C   0  0  2  0  0  0  0  0  0  0  0  0
   -5.2778   15.4226    6.2277 C   0  0  2  0  0  0  0  0  0  0  0  0
   -5.8230   14.1191    6.5921 N   0  0  0  0  0  0  0  0  0  0  0  0
   -0.0537   12.2351    5.3808 C   0  0  0  0  0  0  0  0  0  0  0  0
    0.1333   10.6646   11.0676 C   0  0  2  0  0  0  0  0  0  0  0  0
   -0.8721    9.7366   10.7202 O   0  0  0  0  0  0  0  0  0  0  0  0
   -5.4535   15.6880    4.6793 C   0  0  0  0  0  0  0  0  0  0  0  0
   -1.4681   12.8546    5.0721 C   0  0  2  0  0  0  0  0  0  0  0  0
   -1.4161   13.5236    3.7608 N   0  0  0  0  0  0  0  0  0  0  0  0
   -0.4475   11.8109   11.9800 C   0  0  1  0  0  0  0  0  0  0  0  0
   -0.9867   11.2228   13.2506 N   0  0  0  0  0  0  0  0  0  0  0  0
   -4.4301   16.7715    4.1332 C   0  0  0  0  0  0  0  0  0  0  0  0
   -1.8589   13.8992    6.2086 C   0  0  2  0  0  0  0  0  0  0  0  0
    0.7691   12.8375   12.3329 C   0  0  1  0  0  0  0  0  0  0  0  0
    1.8464   12.1902   12.9885 O   0  0  0  0  0  0  0  0  0  0  0  0
   -3.4064   17.2212    4.9062 C   0  0  2  0  0  0  0  0  0  0  0  0
   -3.1894   16.7540    6.2427 O   0  0  0  0  0  0  0  0  0  0  0  0
   -1.9023   13.1681    7.6013 C   0  0  2  0  0  0  0  0  0  0  0  0
   -2.2474   14.1242    8.6266 O   0  0  0  0  0  0  0  0  0  0  0  0
    1.3411   13.4565   11.0162 C   0  0  0  0  0  0  0  0  0  0  0  0
    1.7412   12.3476   10.0791 O   0  0  0  0  0  0  0  0  0  0  0  0
   -2.3969   18.2655    4.4258 C   0  0  0  0  0  0  0  0  0  0  0  0
   -1.1026   17.6262    4.3243 O   0  0  0  0  0  0  0  0  0  0  0  0
   -0.4761   12.5758    7.9023 C   0  0  1  0  0  0  0  0  0  0  0  0
   -0.5227   11.9506    9.1463 O   0  0  0  0  0  0  0  0  0  0  0  0
    0.3731   14.0348   13.2303 C   0  0  0  0  0  0  0  0  0  0  0  0
   -2.2690   11.7681   13.7408 C   0  0  0  0  0  0  0  0  0  0  0  0
  1  2  1  6  0  0  0
  1  6  1  0  0  0  0
  1 21  1  0  0  0  0
  3  4  1  1  0  0  0
  3  8  1  0  0  0  0
  3 28  1  0  0  0  0
  5  9  1  0  0  0  0
  5 25  1  0  0  0  0
  5 29  1  1  0  0  0
  6  7  1  6  0  0  0
  6 11  1  0  0  0  0
  8 12  1  0  0  0  0
  9 10  1  6  0  0  0
  9 14  1  0  0  0  0
 11 16  1  0  0  0  0
 12 13  1  6  0  0  0
 12 17  1  0  0  0  0
 14 15  1  1  0  0  0
 14 18  1  0  0  0  0
 15 31  1  0  0  0  0
 16 20  1  0  0  0  0
 17  2  1  6  0  0  0
 17 22  1  0  0  0  0
 18 19  1  1  0  0  0
 18 24  1  0  0  0  0
 18 30  1  0  0  0  0
 20 21  1  0  0  0  0
 20 26  1  1  0  0  0
 22 23  1  1  0  0  0
 22 28  1  0  0  0  0
 24 25  1  0  0  0  0
 26 27  1  0  0  0  0
 28 29  1  1  0  0  0
M  END
>  <CHROM.1>
-164.08226455,-175.56426373,-138.39928408,-173.47925332,-113.53579592,63.73542200
-1.42171545,13.55787061,8.15344056,2.14434975,0.70416556,-1.41853916

>  <Name>
ligand

>  <RI>
0

>  <Rbt.Current_Directory>
/home/itssahil/PROJECTS/Mol_Feturizer/New_Systems/rnas/4GPX

>  <Rbt.Executable>
rbdock ($Id: //depot/dev/client3/rdock/2013.1/src/exe/rbdock.cxx#4 $)

>  <Rbt.Library>
libRbt.so (2013.1, Build901 2013/11/27)

>  <Rbt.Parameter_File>
/export/apps/rDock/src/rDock_2013.1_src/data/scripts/dock_solv.prm

>  <Rbt.Receptor>
prm/pocket_docking_5.prm

>  <SCORE>
-17.0664

>  <SCORE.INTER>
-9.26703

>  <SCORE.INTER.CONST>
1

>  <SCORE.INTER.POLAR>
0

>  <SCORE.INTER.ROT>
6

>  <SCORE.INTER.SOLV>
13.8316

>  <SCORE.INTER.VDW>
-18.3886

>  <SCORE.INTER.norm>
-0.298936

>  <SCORE.INTRA>
-7.79941

>  <SCORE.INTRA.DIHEDRAL>
-16.4434

>  <SCORE.INTRA.DIHEDRAL.0>
20.6841

>  <SCORE.INTRA.POLAR>
0

>  <SCORE.INTRA.POLAR.0>
0

>  <SCORE.INTRA.REPUL>
0

>  <SCORE.INTRA.REPUL.0>
0

>  <SCORE.INTRA.SOLV>
-1.35423

>  <SCORE.INTRA.SOLV.lig_0>
-64.6797

>  <SCORE.INTRA.VDW>
1.09942

>  <SCORE.INTRA.VDW.0>
-4.11825

>  <SCORE.INTRA.norm>
-0.251594

>  <SCORE.RESTR>
0

>  <SCORE.RESTR.CAVITY>
0

>  <SCORE.RESTR.norm>
0

>  <SCORE.SYSTEM>
0

>  <SCORE.SYSTEM.CONST>
0

>  <SCORE.SYSTEM.DIHEDRAL>
0

>  <SCORE.SYSTEM.SOLV>
0

>  <SCORE.SYSTEM.norm>
0

>  <SCORE.heavy>
31

>  <SCORE.norm>
-0.55053

>  <RMSD>
4.167

$$$$
ligand
 OpenBabel11021811493D
libRbt.so/2013.1/901 2013/11/27
 31 33  0  0  0  0  0  0  0  0999 V2000
   -3.8857   15.3479    6.4530 C   0  0  2  0  0  0  0  0  0  0  0  0
   -3.1819   14.3360    5.7389 O   0  0  0  0  0  0  0  0  0  0  0  0
   -0.1991   11.4862    6.7712 C   0  0  2  0  0  0  0  0  0  0  0  0
    1.0774   10.9403    7.1167 N   0  0  0  0  0  0  0  0  0  0  0  0
    0.4114   11.2894    9.7719 C   0  0  2  0  0  0  0  0  0  0  0  0
   -5.3826   15.3029    5.9402 C   0  0  2  0  0  0  0  0  0  0  0  0
   -5.9272   13.9741    6.1990 N   0  0  0  0  0  0  0  0  0  0  0  0
   -0.0697   12.2085    5.3672 C   0  0  0  0  0  0  0  0  0  0  0  0
   -0.1604   10.6834   11.0928 C   0  0  2  0  0  0  0  0  0  0  0  0
   -1.1698    9.7559   10.7562 O   0  0  0  0  0  0  0  0  0  0  0  0
   -5.4464   15.6413    4.3974 C   0  0  0  0  0  0  0  0  0  0  0  0
   -1.4725   12.8130    4.9849 C   0  0  2  0  0  0  0  0  0  0  0  0
   -1.3571   13.4909    3.6823 N   0  0  0  0  0  0  0  0  0  0  0  0
   -0.7489   11.8766   11.9376 C   0  0  1  0  0  0  0  0  0  0  0  0
   -1.3335   11.3520   13.2159 N   0  0  0  0  0  0  0  0  0  0  0  0
   -4.4067   16.7672    3.9836 C   0  0  0  0  0  0  0  0  0  0  0  0
   -1.9378   13.8456    6.1042 C   0  0  2  0  0  0  0  0  0  0  0  0
    0.4730   12.8997   12.2816 C   0  0  1  0  0  0  0  0  0  0  0  0
    1.5207   12.2660   12.9957 O   0  0  0  0  0  0  0  0  0  0  0  0
   -3.4537   17.1952    4.8532 C   0  0  2  0  0  0  0  0  0  0  0  0
   -3.3287   16.6663    6.1784 O   0  0  0  0  0  0  0  0  0  0  0  0
   -2.0485   13.1051    7.4882 C   0  0  2  0  0  0  0  0  0  0  0  0
   -2.4609   14.0504    8.4986 O   0  0  0  0  0  0  0  0  0  0  0  0
    1.0922   13.4527   10.9569 C   0  0  0  0  0  0  0  0  0  0  0  0
    1.5016   12.2985   10.0804 O   0  0  0  0  0  0  0  0  0  0  0  0
   -2.4322   18.2786    4.5019 C   0  0  0  0  0  0  0  0  0  0  0  0
   -1.1103   17.6969    4.5943 O   0  0  0  0  0  0  0  0  0  0  0  0
   -0.6337   12.5280    7.8636 C   0  0  1  0  0  0  0  0  0  0  0  0
   -0.7407   11.8943    9.0996 O   0  0  0  0  0  0  0  0  0  0  0  0
    0.0704   14.1405   13.1148 C   0  0  0  0  0  0  0  0  0  0  0  0
   -2.8002   11.4491   13.3623 C   0  0  0  0  0  0  0  0  0  0  0  0
  1  2  1  6  0  0  0
  1  6  1  0  0  0  0
  1 21  1  0  0  0  0
  3  4  1  1  0  0  0
  3  8  1  0  0  0  0
  3 28  1  0  0  0  0
  5  9  1  0  0  0  0
  5 25  1  0  0  0  0
  5 29  1  1  0  0  0
  6  7  1  6  0  0  0
  6 11  1  0  0  0  0
  8 12  1  0  0  0  0
  9 10  1  6  0  0  0
  9 14  1  0  0  0  0
 11 16  1  0  0  0  0
 12 13  1  6  0  0  0
 12 17  1  0  0  0  0
 14 15  1  1  0  0  0
 14 18  1  0  0  0  0
 15 31  1  0  0  0  0
 16 20  1  0  0  0  0
 17  2  1  6  0  0  0
 17 22  1  0  0  0  0
 18 19  1  1  0  0  0
 18 24  1  0  0  0  0
 18 30  1  0  0  0  0
 20 21  1  0  0  0  0
 20 26  1  1  0  0  0
 22 23  1  1  0  0  0
 22 28  1  0  0  0  0
 24 25  1  0  0  0  0
 26 27  1  0  0  0  0
 28 29  1  1  0  0  0
M  END
>  <CHROM.1>
-164.53894757,-179.10941314,-112.52958079,-175.94655713,-118.92330335,63.72876160
-1.58493868,13.52797704,8.07716109,2.10809311,0.70166293,-1.39584928

>  <Name>
ligand

>  <RI>
0

>  <Rbt.Current_Directory>
/home/itssahil/PROJECTS/Mol_Feturizer/New_Systems/rnas/4GPX

>  <Rbt.Executable>
rbdock ($Id: //depot/dev/client3/rdock/2013.1/src/exe/rbdock.cxx#4 $)

>  <Rbt.Library>
libRbt.so (2013.1, Build901 2013/11/27)

>  <Rbt.Parameter_File>
/export/apps/rDock/src/rDock_2013.1_src/data/scripts/dock_solv.prm

>  <Rbt.Receptor>
prm/pocket_docking_5.prm

>  <SCORE>
-16.8151

>  <SCORE.INTER>
-8.85359

>  <SCORE.INTER.CONST>
1

>  <SCORE.INTER.POLAR>
0

>  <SCORE.INTER.ROT>
6

>  <SCORE.INTER.SOLV>
13.0257

>  <SCORE.INTER.VDW>
-17.8443

>  <SCORE.INTER.norm>
-0.2856

>  <SCORE.INTRA>
-7.96149

>  <SCORE.INTRA.DIHEDRAL>
-16.5673

>  <SCORE.INTRA.DIHEDRAL.0>
20.6841

>  <SCORE.INTRA.POLAR>
0

>  <SCORE.INTRA.POLAR.0>
0

>  <SCORE.INTRA.REPUL>
0

>  <SCORE.INTRA.REPUL.0>
0

>  <SCORE.INTRA.SOLV>
-1.45618

>  <SCORE.INTRA.SOLV.lig_0>
-64.6797

>  <SCORE.INTRA.VDW>
1.05026

>  <SCORE.INTRA.VDW.0>
-4.11825

>  <SCORE.INTRA.norm>
-0.256822

>  <SCORE.RESTR>
0

>  <SCORE.RESTR.CAVITY>
0

>  <SCORE.RESTR.norm>
0

>  <SCORE.SYSTEM>
0

>  <SCORE.SYSTEM.CONST>
0

>  <SCORE.SYSTEM.DIHEDRAL>
0

>  <SCORE.SYSTEM.SOLV>
0

>  <SCORE.SYSTEM.norm>
0

>  <SCORE.heavy>
31

>  <SCORE.norm>
-0.542422

>  <RMSD>
4.169

$$$$
ligand
 OpenBabel11021811493D
libRbt.so/2013.1/901 2013/11/27
 31 33  0  0  0  0  0  0  0  0999 V2000
   -2.0189   16.2306    6.0533 C   0  0  2  0  0  0  0  0  0  0  0  0
   -2.3480   17.1954    7.0483 O   0  0  0  0  0  0  0  0  0  0  0  0
   -3.4178   17.0138   11.1601 C   0  0  2  0  0  0  0  0  0  0  0  0
   -4.1946   16.7814   12.3388 N   0  0  0  0  0  0  0  0  0  0  0  0
   -3.1873   14.0751   12.3253 C   0  0  2  0  0  0  0  0  0  0  0  0
   -1.1594   16.9865    4.9597 C   0  0  2  0  0  0  0  0  0  0  0  0
    0.0307   17.5390    5.5981 N   0  0  0  0  0  0  0  0  0  0  0  0
   -4.1976   18.0441   10.2434 C   0  0  0  0  0  0  0  0  0  0  0  0
   -2.0248   13.3650   13.0888 C   0  0  2  0  0  0  0  0  0  0  0  0
   -1.0840   14.3435   13.4764 O   0  0  0  0  0  0  0  0  0  0  0  0
   -2.0132   18.1325    4.2840 C   0  0  0  0  0  0  0  0  0  0  0  0
   -3.3466   18.3003    8.9436 C   0  0  2  0  0  0  0  0  0  0  0  0
   -4.0695   19.2537    8.0845 N   0  0  0  0  0  0  0  0  0  0  0  0
   -1.3806   12.3246   12.0956 C   0  0  1  0  0  0  0  0  0  0  0  0
   -0.2393   11.6212   12.7691 N   0  0  0  0  0  0  0  0  0  0  0  0
   -3.5299   17.7123    4.0770 C   0  0  0  0  0  0  0  0  0  0  0  0
   -3.1161   16.9273    8.1707 C   0  0  2  0  0  0  0  0  0  0  0  0
   -2.5263   11.2358   11.6954 C   0  0  1  0  0  0  0  0  0  0  0  0
   -3.0528   10.5673   12.8291 O   0  0  0  0  0  0  0  0  0  0  0  0
   -4.0240   16.5741    4.6320 C   0  0  2  0  0  0  0  0  0  0  0  0
   -3.2201   15.6941    5.4263 O   0  0  0  0  0  0  0  0  0  0  0  0
   -2.3496   15.9205    9.1061 C   0  0  2  0  0  0  0  0  0  0  0  0
   -2.1539   14.6757    8.4013 O   0  0  0  0  0  0  0  0  0  0  0  0
   -3.7228   11.9569   10.9936 C   0  0  0  0  0  0  0  0  0  0  0  0
   -4.2270   13.0626   11.8830 O   0  0  0  0  0  0  0  0  0  0  0  0
   -5.4765   16.1260    4.4589 C   0  0  0  0  0  0  0  0  0  0  0  0
   -5.4845   14.9343    3.6377 O   0  0  0  0  0  0  0  0  0  0  0  0
   -3.2246   15.6598   10.3874 C   0  0  1  0  0  0  0  0  0  0  0  0
   -2.5451   14.7514   11.1960 O   0  0  0  0  0  0  0  0  0  0  0  0
   -2.0621   10.1294   10.7176 C   0  0  0  0  0  0  0  0  0  0  0  0
    1.0867   12.2647   12.6695 C   0  0  0  0  0  0  0  0  0  0  0  0
  1  2  1  1  0  0  0
  1  6  1  0  0  0  0
  1 21  1  0  0  0  0
  3  4  1  1  0  0  0
  3  8  1  0  0  0  0
  3 28  1  0  0  0  0
  5  9  1  0  0  0  0
  5 25  1  0  0  0  0
  5 29  1  6  0  0  0
  6  7  1  1  0  0  0
  6 11  1  0  0  0  0
  8 12  1  0  0  0  0
  9 10  1  6  0  0  0
  9 14  1  0  0  0  0
 11 16  1  0  0  0  0
 12 13  1  6  0  0  0
 12 17  1  0  0  0  0
 14 15  1  1  0  0  0
 14 18  1  0  0  0  0
 15 31  1  0  0  0  0
 16 20  1  0  0  0  0
 17  2  1  6  0  0  0
 17 22  1  0  0  0  0
 18 19  1  1  0  0  0
 18 24  1  0  0  0  0
 18 30  1  0  0  0  0
 20 21  1  0  0  0  0
 20 26  1  6  0  0  0
 22 23  1  6  0  0  0
 22 28  1  0  0  0  0
 24 25  1  0  0  0  0
 26 27  1  0  0  0  0
 28 29  1  1  0  0  0
M  END
>  <CHROM.1>
178.94876078,-170.27120694,-87.99241052,-175.08073345,111.39021425,74.31738167
-2.72157627,15.09934840,9.12369177,-2.63999858,-1.40290703,1.08787108

>  <Name>
ligand

>  <RI>
0

>  <Rbt.Current_Directory>
/home/itssahil/PROJECTS/Mol_Feturizer/New_Systems/rnas/4GPX

>  <Rbt.Executable>
rbdock ($Id: //depot/dev/client3/rdock/2013.1/src/exe/rbdock.cxx#4 $)

>  <Rbt.Library>
libRbt.so (2013.1, Build901 2013/11/27)

>  <Rbt.Parameter_File>
/export/apps/rDock/src/rDock_2013.1_src/data/scripts/dock_solv.prm

>  <Rbt.Receptor>
prm/pocket_docking_6.prm

>  <SCORE>
-16.151

>  <SCORE.INTER>
-7.75432

>  <SCORE.INTER.CONST>
1

>  <SCORE.INTER.POLAR>
0

>  <SCORE.INTER.ROT>
6

>  <SCORE.INTER.SOLV>
12.5928

>  <SCORE.INTER.VDW>
-16.9671

>  <SCORE.INTER.norm>
-0.250139

>  <SCORE.INTRA>
-8.39669

>  <SCORE.INTRA.DIHEDRAL>
-16.8112

>  <SCORE.INTRA.DIHEDRAL.0>
20.6841

>  <SCORE.INTRA.POLAR>
0

>  <SCORE.INTRA.POLAR.0>
0

>  <SCORE.INTRA.REPUL>
0

>  <SCORE.INTRA.REPUL.0>
0

>  <SCORE.INTRA.SOLV>
-1.83157

>  <SCORE.INTRA.SOLV.lig_0>
-64.6797

>  <SCORE.INTRA.VDW>
0.924697

>  <SCORE.INTRA.VDW.0>
-4.11825

>  <SCORE.INTRA.norm>
-0.270861

>  <SCORE.RESTR>
0

>  <SCORE.RESTR.CAVITY>
0

>  <SCORE.RESTR.norm>
0

>  <SCORE.SYSTEM>
0

>  <SCORE.SYSTEM.CONST>
0

>  <SCORE.SYSTEM.DIHEDRAL>
0

>  <SCORE.SYSTEM.SOLV>
0

>  <SCORE.SYSTEM.norm>
0

>  <SCORE.heavy>
31

>  <SCORE.norm>
-0.521

>  <RMSD>
4.179

$$$$
ligand
 OpenBabel11021811493D
libRbt.so/2013.1/901 2013/11/27
 31 33  0  0  0  0  0  0  0  0999 V2000
   -3.7663   15.5350    6.6561 C   0  0  2  0  0  0  0  0  0  0  0  0
   -3.1886   14.4009    6.0165 O   0  0  0  0  0  0  0  0  0  0  0  0
   -0.1907   11.5160    6.8965 C   0  0  2  0  0  0  0  0  0  0  0  0
    1.0962   10.9541    7.1702 N   0  0  0  0  0  0  0  0  0  0  0  0
    0.5934   11.3264    9.8512 C   0  0  2  0  0  0  0  0  0  0  0  0
   -5.2853   15.5773    6.2125 C   0  0  2  0  0  0  0  0  0  0  0  0
   -5.9285   14.3335    6.6229 N   0  0  0  0  0  0  0  0  0  0  0  0
   -0.1356   12.2233    5.4800 C   0  0  0  0  0  0  0  0  0  0  0  0
    0.0730   10.6586   11.1634 C   0  0  2  0  0  0  0  0  0  0  0  0
   -0.9440    9.7409   10.8225 O   0  0  0  0  0  0  0  0  0  0  0  0
   -5.3965   15.7732    4.6478 C   0  0  0  0  0  0  0  0  0  0  0  0
   -1.5500   12.8453    5.1766 C   0  0  2  0  0  0  0  0  0  0  0  0
   -1.5034   13.5094    3.8627 N   0  0  0  0  0  0  0  0  0  0  0  0
   -0.4896   11.8092   12.0818 C   0  0  1  0  0  0  0  0  0  0  0  0
   -1.0247   11.2245   13.3557 N   0  0  0  0  0  0  0  0  0  0  0  0
   -4.2858   16.7566    4.0828 C   0  0  0  0  0  0  0  0  0  0  0  0
   -1.9320   13.8952    6.3113 C   0  0  2  0  0  0  0  0  0  0  0  0
    0.7396   12.8234   12.4267 C   0  0  1  0  0  0  0  0  0  0  0  0
    1.8155   12.1646   13.0731 O   0  0  0  0  0  0  0  0  0  0  0  0
   -3.2574   17.1767    4.8660 C   0  0  2  0  0  0  0  0  0  0  0  0
   -3.1125   16.7660    6.2305 O   0  0  0  0  0  0  0  0  0  0  0  0
   -1.9698   13.1692    7.7069 C   0  0  2  0  0  0  0  0  0  0  0  0
   -2.3069   14.1299    8.7306 O   0  0  0  0  0  0  0  0  0  0  0  0
    1.3075   13.4386   11.1066 C   0  0  0  0  0  0  0  0  0  0  0  0
    1.6896   12.3273   10.1649 O   0  0  0  0  0  0  0  0  0  0  0  0
   -2.1653   18.1254    4.3680 C   0  0  0  0  0  0  0  0  0  0  0  0
   -1.9605   19.1435    5.3758 O   0  0  0  0  0  0  0  0  0  0  0  0
   -0.5436   12.5743    8.0025 C   0  0  1  0  0  0  0  0  0  0  0  0
   -0.5852   11.9537    9.2490 O   0  0  0  0  0  0  0  0  0  0  0  0
    0.3622   14.0231   13.3288 C   0  0  0  0  0  0  0  0  0  0  0  0
   -2.2836   11.8004   13.8711 C   0  0  0  0  0  0  0  0  0  0  0  0
  1  2  1  6  0  0  0
  1  6  1  0  0  0  0
  1 21  1  0  0  0  0
  3  4  1  1  0  0  0
  3  8  1  0  0  0  0
  3 28  1  0  0  0  0
  5  9  1  0  0  0  0
  5 25  1  0  0  0  0
  5 29  1  1  0  0  0
  6  7  1  6  0  0  0
  6 11  1  0  0  0  0
  8 12  1  0  0  0  0
  9 10  1  6  0  0  0
  9 14  1  0  0  0  0
 11 16  1  0  0  0  0
 12 13  1  6  0  0  0
 12 17  1  0  0  0  0
 14 15  1  1  0  0  0
 14 18  1  0  0  0  0
 15 31  1  0  0  0  0
 16 20  1  0  0  0  0
 17  2  1  6  0  0  0
 17 22  1  0  0  0  0
 18 19  1  1  0  0  0
 18 24  1  0  0  0  0
 18 30  1  0  0  0  0
 20 21  1  0  0  0  0
 20 26  1  1  0  0  0
 22 23  1  1  0  0  0
 22 28  1  0  0  0  0
 24 25  1  0  0  0  0
 26 27  1  0  0  0  0
 28 29  1  1  0  0  0
M  END
>  <CHROM.1>
-169.40793855,-175.22893939,-139.60378966,-168.00421426,134.28533528,63.12229511
-1.47642031,13.61992724,8.25849490,2.30379755,0.90721253,-1.61182540

>  <Name>
ligand

>  <RI>
0

>  <Rbt.Current_Directory>
/home/itssahil/PROJECTS/Mol_Feturizer/New_Systems/rnas/4GPX

>  <Rbt.Executable>
rbdock ($Id: //depot/dev/client3/rdock/2013.1/src/exe/rbdock.cxx#4 $)

>  <Rbt.Library>
libRbt.so (2013.1, Build901 2013/11/27)

>  <Rbt.Parameter_File>
/export/apps/rDock/src/rDock_2013.1_src/data/scripts/dock_solv.prm

>  <Rbt.Receptor>
prm/pocket_docking_8.prm

>  <SCORE>
-16.9504

>  <SCORE.INTER>
-9.20936

>  <SCORE.INTER.CONST>
1

>  <SCORE.INTER.POLAR>
0

>  <SCORE.INTER.ROT>
6

>  <SCORE.INTER.SOLV>
14.6244

>  <SCORE.INTER.VDW>
-18.6144

>  <SCORE.INTER.norm>
-0.297076

>  <SCORE.INTRA>
-7.74106

>  <SCORE.INTRA.DIHEDRAL>
-16.4391

>  <SCORE.INTRA.DIHEDRAL.0>
20.6841

>  <SCORE.INTRA.POLAR>
0

>  <SCORE.INTRA.POLAR.0>
0

>  <SCORE.INTRA.REPUL>
0

>  <SCORE.INTRA.REPUL.0>
0

>  <SCORE.INTRA.SOLV>
-1.38763

>  <SCORE.INTRA.SOLV.lig_0>
-64.6797

>  <SCORE.INTRA.VDW>
1.1723

>  <SCORE.INTRA.VDW.0>
-4.11825

>  <SCORE.INTRA.norm>
-0.249712

>  <SCORE.RESTR>
0

>  <SCORE.RESTR.CAVITY>
0

>  <SCORE.RESTR.norm>
0

>  <SCORE.SYSTEM>
0

>  <SCORE.SYSTEM.CONST>
0

>  <SCORE.SYSTEM.DIHEDRAL>
0

>  <SCORE.SYSTEM.SOLV>
0

>  <SCORE.SYSTEM.norm>
0

>  <SCORE.heavy>
31

>  <SCORE.norm>
-0.546788

>  <RMSD>
4.182

$$$$
ligand
 OpenBabel11021811493D
libRbt.so/2013.1/901 2013/11/27
 31 33  0  0  0  0  0  0  0  0999 V2000
   -3.6993   15.5501    6.6212 C   0  0  2  0  0  0  0  0  0  0  0  0
   -3.1297   14.4387    5.9359 O   0  0  0  0  0  0  0  0  0  0  0  0
   -0.1923   11.4847    6.7898 C   0  0  2  0  0  0  0  0  0  0  0  0
    1.0837   10.8928    7.0515 N   0  0  0  0  0  0  0  0  0  0  0  0
    0.6221   11.3005    9.7478 C   0  0  2  0  0  0  0  0  0  0  0  0
   -5.2274   15.5977    6.2104 C   0  0  2  0  0  0  0  0  0  0  0  0
   -5.8562   14.3387    6.5962 N   0  0  0  0  0  0  0  0  0  0  0  0
   -0.1343   12.1894    5.3721 C   0  0  0  0  0  0  0  0  0  0  0  0
    0.1006   10.6442   11.0654 C   0  0  2  0  0  0  0  0  0  0  0  0
   -0.9244    9.7324   10.7327 O   0  0  0  0  0  0  0  0  0  0  0  0
   -5.3718   15.8400    4.6549 C   0  0  0  0  0  0  0  0  0  0  0  0
   -1.5365   12.8443    5.0818 C   0  0  2  0  0  0  0  0  0  0  0  0
   -1.4870   13.5061    3.7668 N   0  0  0  0  0  0  0  0  0  0  0  0
   -0.4504   11.8043   11.9788 C   0  0  1  0  0  0  0  0  0  0  0  0
   -0.9861   11.2310   13.2576 N   0  0  0  0  0  0  0  0  0  0  0  0
   -4.2777   16.8457    4.0971 C   0  0  0  0  0  0  0  0  0  0  0  0
   -1.8826   13.9038    6.2191 C   0  0  2  0  0  0  0  0  0  0  0  0
    0.7875   12.8109   12.3143 C   0  0  1  0  0  0  0  0  0  0  0  0
    1.8603   12.1477   12.9613 O   0  0  0  0  0  0  0  0  0  0  0  0
   -3.2353   17.2475    4.8714 C   0  0  2  0  0  0  0  0  0  0  0  0
   -3.0602   16.7967    6.2196 O   0  0  0  0  0  0  0  0  0  0  0  0
   -1.9239   13.1800    7.6157 C   0  0  2  0  0  0  0  0  0  0  0  0
   -2.2283   14.1493    8.6416 O   0  0  0  0  0  0  0  0  0  0  0  0
    1.3562   13.4143   10.9890 C   0  0  0  0  0  0  0  0  0  0  0  0
    1.7270   12.2948   10.0525 O   0  0  0  0  0  0  0  0  0  0  0  0
   -2.1582   18.2165    4.3799 C   0  0  0  0  0  0  0  0  0  0  0  0
   -1.9388   19.2063    5.4126 O   0  0  0  0  0  0  0  0  0  0  0  0
   -0.5093   12.5519    7.8980 C   0  0  1  0  0  0  0  0  0  0  0  0
   -0.5534   11.9334    9.1455 O   0  0  0  0  0  0  0  0  0  0  0  0
    0.4221   14.0187   13.2106 C   0  0  0  0  0  0  0  0  0  0  0  0
   -2.2542   11.7998   13.7583 C   0  0  0  0  0  0  0  0  0  0  0  0
  1  2  1  6  0  0  0
  1  6  1  0  0  0  0
  1 21  1  0  0  0  0
  3  4  1  1  0  0  0
  3  8  1  0  0  0  0
  3 28  1  0  0  0  0
  5  9  1  0  0  0  0
  5 25  1  0  0  0  0
  5 29  1  1  0  0  0
  6  7  1  6  0  0  0
  6 11  1  0  0  0  0
  8 12  1  0  0  0  0
  9 10  1  6  0  0  0
  9 14  1  0  0  0  0
 11 16  1  0  0  0  0
 12 13  1  6  0  0  0
 12 17  1  0  0  0  0
 14 15  1  1  0  0  0
 14 18  1  0  0  0  0
 15 31  1  0  0  0  0
 16 20  1  0  0  0  0
 17  2  1  6  0  0  0
 17 22  1  0  0  0  0
 18 19  1  1  0  0  0
 18 24  1  0  0  0  0
 18 30  1  0  0  0  0
 20 21  1  0  0  0  0
 20 26  1  1  0  0  0
 22 23  1  1  0  0  0
 22 28  1  0  0  0  0
 24 25  1  0  0  0  0
 26 27  1  0  0  0  0
 28 29  1  1  0  0  0
M  END
>  <CHROM.1>
-167.21189151,-175.52578210,-138.34200396,-170.95195725,134.19039274,64.27830545
-1.44158821,13.62715280,8.18568872,2.35307469,0.94226140,-1.65753068

>  <Name>
ligand

>  <RI>
0

>  <Rbt.Current_Directory>
/home/itssahil/PROJECTS/Mol_Feturizer/New_Systems/rnas/4GPX

>  <Rbt.Executable>
rbdock ($Id: //depot/dev/client3/rdock/2013.1/src/exe/rbdock.cxx#4 $)

>  <Rbt.Library>
libRbt.so (2013.1, Build901 2013/11/27)

>  <Rbt.Parameter_File>
/export/apps/rDock/src/rDock_2013.1_src/data/scripts/dock_solv.prm

>  <Rbt.Receptor>
prm/pocket_docking_6.prm

>  <SCORE>
-17.067

>  <SCORE.INTER>
-9.27985

>  <SCORE.INTER.CONST>
1

>  <SCORE.INTER.POLAR>
0

>  <SCORE.INTER.ROT>
6

>  <SCORE.INTER.SOLV>
14.5077

>  <SCORE.INTER.VDW>
-18.6225

>  <SCORE.INTER.norm>
-0.29935

>  <SCORE.INTRA>
-7.78716

>  <SCORE.INTRA.DIHEDRAL>
-16.4338

>  <SCORE.INTRA.DIHEDRAL.0>
20.6841

>  <SCORE.INTRA.POLAR>
0

>  <SCORE.INTRA.POLAR.0>
0

>  <SCORE.INTRA.REPUL>
0

>  <SCORE.INTRA.REPUL.0>
0

>  <SCORE.INTRA.SOLV>
-1.51684

>  <SCORE.INTRA.SOLV.lig_0>
-64.6797

>  <SCORE.INTRA.VDW>
1.18816

>  <SCORE.INTRA.VDW.0>
-4.11825

>  <SCORE.INTRA.norm>
-0.251199

>  <SCORE.RESTR>
0

>  <SCORE.RESTR.CAVITY>
0

>  <SCORE.RESTR.norm>
0

>  <SCORE.SYSTEM>
0

>  <SCORE.SYSTEM.CONST>
0

>  <SCORE.SYSTEM.DIHEDRAL>
0

>  <SCORE.SYSTEM.SOLV>
0

>  <SCORE.SYSTEM.norm>
0

>  <SCORE.heavy>
31

>  <SCORE.norm>
-0.550549

>  <RMSD>
4.190

$$$$
ligand
 OpenBabel11021811493D
libRbt.so/2013.1/901 2013/11/27
 31 33  0  0  0  0  0  0  0  0999 V2000
   -3.6326   15.4796    6.5702 C   0  0  2  0  0  0  0  0  0  0  0  0
   -3.0387   14.3798    5.8870 O   0  0  0  0  0  0  0  0  0  0  0  0
   -0.1021   11.4398    6.7909 C   0  0  2  0  0  0  0  0  0  0  0  0
    1.1717   10.8544    7.0766 N   0  0  0  0  0  0  0  0  0  0  0  0
    0.6447   11.2204    9.7487 C   0  0  2  0  0  0  0  0  0  0  0  0
   -5.1517   15.5184    6.1266 C   0  0  2  0  0  0  0  0  0  0  0  0
   -5.7779   14.2505    6.4868 N   0  0  0  0  0  0  0  0  0  0  0  0
   -0.0195   12.1495    5.3769 C   0  0  0  0  0  0  0  0  0  0  0  0
    0.1041   10.5835   11.0681 C   0  0  2  0  0  0  0  0  0  0  0  0
   -0.9420    9.6954   10.7372 O   0  0  0  0  0  0  0  0  0  0  0  0
   -5.2645   15.7744    4.5708 C   0  0  0  0  0  0  0  0  0  0  0  0
   -1.4193   12.7973    5.0603 C   0  0  2  0  0  0  0  0  0  0  0  0
   -1.3470   13.4637    3.7486 N   0  0  0  0  0  0  0  0  0  0  0  0
   -0.4206   11.7613   11.9743 C   0  0  1  0  0  0  0  0  0  0  0  0
   -0.9734   11.2076   13.2546 N   0  0  0  0  0  0  0  0  0  0  0  0
   -4.1672   16.7946    4.0465 C   0  0  0  0  0  0  0  0  0  0  0  0
   -1.7945   13.8510    6.1937 C   0  0  2  0  0  0  0  0  0  0  0  0
    0.8407   12.7391   12.3081 C   0  0  1  0  0  0  0  0  0  0  0  0
    1.8954   12.0531   12.9611 O   0  0  0  0  0  0  0  0  0  0  0  0
   -3.1453   17.1977    4.8470 C   0  0  2  0  0  0  0  0  0  0  0  0
   -2.9957   16.7354    6.1944 O   0  0  0  0  0  0  0  0  0  0  0  0
   -1.8600   13.1225    7.5869 C   0  0  2  0  0  0  0  0  0  0  0  0
   -2.1907   14.0866    8.6095 O   0  0  0  0  0  0  0  0  0  0  0  0
    1.4271   13.3218   10.9813 C   0  0  0  0  0  0  0  0  0  0  0  0
    1.7728   12.1888   10.0513 O   0  0  0  0  0  0  0  0  0  0  0  0
   -2.0662   18.1804    4.3883 C   0  0  0  0  0  0  0  0  0  0  0  0
   -1.9429   19.2142    5.3935 O   0  0  0  0  0  0  0  0  0  0  0  0
   -0.4477   12.5016    7.8958 C   0  0  1  0  0  0  0  0  0  0  0  0
   -0.5135   11.8787    9.1402 O   0  0  0  0  0  0  0  0  0  0  0  0
    0.5026   13.9598   13.1975 C   0  0  0  0  0  0  0  0  0  0  0  0
   -2.2444   11.7885   13.7331 C   0  0  0  0  0  0  0  0  0  0  0  0
  1  2  1  6  0  0  0
  1  6  1  0  0  0  0
  1 21  1  0  0  0  0
  3  4  1  1  0  0  0
  3  8  1  0  0  0  0
  3 28  1  0  0  0  0
  5  9  1  0  0  0  0
  5 25  1  0  0  0  0
  5 29  1  1  0  0  0
  6  7  1  6  0  0  0
  6 11  1  0  0  0  0
  8 12  1  0  0  0  0
  9 10  1  6  0  0  0
  9 14  1  0  0  0  0
 11 16  1  0  0  0  0
 12 13  1  6  0  0  0
 12 17  1  0  0  0  0
 14 15  1  1  0  0  0
 14 18  1  0  0  0  0
 15 31  1  0  0  0  0
 16 20  1  0  0  0  0
 17  2  1  6  0  0  0
 17 22  1  0  0  0  0
 18 19  1  1  0  0  0
 18 24  1  0  0  0  0
 18 30  1  0  0  0  0
 20 21  1  0  0  0  0
 20 26  1  1  0  0  0
 22 23  1  1  0  0  0
 22 28  1  0  0  0  0
 24 25  1  0  0  0  0
 26 27  1  0  0  0  0
 28 29  1  1  0  0  0
M  END
>  <CHROM.1>
-167.09127239,-176.19478284,-136.99901260,-171.41077856,130.30801897,62.65360832
-1.37941282,13.57170438,8.16505766,2.33891922,0.94153301,-1.64448986

>  <Name>
ligand

>  <RI>
0

>  <Rbt.Current_Directory>
/home/itssahil/PROJECTS/Mol_Feturizer/New_Systems/rnas/4GPX

>  <Rbt.Executable>
rbdock ($Id: //depot/dev/client3/rdock/2013.1/src/exe/rbdock.cxx#4 $)

>  <Rbt.Library>
libRbt.so (2013.1, Build901 2013/11/27)

>  <Rbt.Parameter_File>
/export/apps/rDock/src/rDock_2013.1_src/data/scripts/dock_solv.prm

>  <Rbt.Receptor>
prm/pocket_docking_6.prm

>  <SCORE>
-17.0408

>  <SCORE.INTER>
-9.217

>  <SCORE.INTER.CONST>
1

>  <SCORE.INTER.POLAR>
0

>  <SCORE.INTER.ROT>
6

>  <SCORE.INTER.SOLV>
13.8678

>  <SCORE.INTER.VDW>
-18.3673

>  <SCORE.INTER.norm>
-0.297323

>  <SCORE.INTRA>
-7.82376

>  <SCORE.INTRA.DIHEDRAL>
-16.6233

>  <SCORE.INTRA.DIHEDRAL.0>
20.6841

>  <SCORE.INTRA.POLAR>
0

>  <SCORE.INTRA.POLAR.0>
0

>  <SCORE.INTRA.REPUL>
0

>  <SCORE.INTRA.REPUL.0>
0

>  <SCORE.INTRA.SOLV>
-1.46833

>  <SCORE.INTRA.SOLV.lig_0>
-64.6797

>  <SCORE.INTRA.VDW>
1.22203

>  <SCORE.INTRA.VDW.0>
-4.11825

>  <SCORE.INTRA.norm>
-0.252379

>  <SCORE.RESTR>
0

>  <SCORE.RESTR.CAVITY>
0

>  <SCORE.RESTR.norm>
0

>  <SCORE.SYSTEM>
0

>  <SCORE.SYSTEM.CONST>
0

>  <SCORE.SYSTEM.DIHEDRAL>
0

>  <SCORE.SYSTEM.SOLV>
0

>  <SCORE.SYSTEM.norm>
0

>  <SCORE.heavy>
31

>  <SCORE.norm>
-0.549702

>  <RMSD>
4.200

$$$$
ligand
 OpenBabel11021811493D
libRbt.so/2013.1/901 2013/11/27
 31 33  0  0  0  0  0  0  0  0999 V2000
   -2.0104   15.3395    4.5210 C   0  0  2  0  0  0  0  0  0  0  0  0
   -2.0897   15.2779    5.9419 O   0  0  0  0  0  0  0  0  0  0  0  0
   -1.9910   12.4116    9.0818 C   0  0  2  0  0  0  0  0  0  0  0  0
   -1.5668   11.2982    9.8738 N   0  0  0  0  0  0  0  0  0  0  0  0
    0.6429   14.7324   10.5981 C   0  0  2  0  0  0  0  0  0  0  0  0
   -1.9133   16.8732    4.1412 C   0  0  2  0  0  0  0  0  0  0  0  0
   -0.7293   17.4400    4.7784 N   0  0  0  0  0  0  0  0  0  0  0  0
   -2.3173   11.8902    7.6218 C   0  0  0  0  0  0  0  0  0  0  0  0
    1.0087   14.3883   12.0767 C   0  0  2  0  0  0  0  0  0  0  0  0
    1.2294   12.9970   12.1682 O   0  0  0  0  0  0  0  0  0  0  0  0
   -3.2167   17.6384    4.6044 C   0  0  0  0  0  0  0  0  0  0  0  0
   -2.7821   13.1138    6.7464 C   0  0  2  0  0  0  0  0  0  0  0  0
   -3.0817   12.6359    5.3857 N   0  0  0  0  0  0  0  0  0  0  0  0
   -0.2109   14.8265   12.9737 C   0  0  1  0  0  0  0  0  0  0  0  0
    0.0745   14.5016   14.4104 N   0  0  0  0  0  0  0  0  0  0  0  0
   -4.5285   16.7650    4.4143 C   0  0  0  0  0  0  0  0  0  0  0  0
   -1.6316   14.2138    6.7032 C   0  0  2  0  0  0  0  0  0  0  0  0
   -0.4010   16.4376   12.8111 C   0  0  1  0  0  0  0  0  0  0  0  0
    0.7622   17.1571   13.1833 O   0  0  0  0  0  0  0  0  0  0  0  0
   -4.4523   15.4468    4.0917 C   0  0  2  0  0  0  0  0  0  0  0  0
   -3.2029   14.7719    3.9047 O   0  0  0  0  0  0  0  0  0  0  0  0
   -1.3211   14.7063    8.1651 C   0  0  2  0  0  0  0  0  0  0  0  0
   -0.2705   15.6956    8.1175 O   0  0  0  0  0  0  0  0  0  0  0  0
   -0.6977   16.7898   11.3172 C   0  0  0  0  0  0  0  0  0  0  0  0
    0.3919   16.2210   10.4470 O   0  0  0  0  0  0  0  0  0  0  0  0
   -5.6870   14.5650    3.8955 C   0  0  0  0  0  0  0  0  0  0  0  0
   -5.6857   13.5531    4.9301 O   0  0  0  0  0  0  0  0  0  0  0  0
   -0.8372   13.4756    9.0176 C   0  0  1  0  0  0  0  0  0  0  0  0
   -0.5455   13.9290   10.3021 O   0  0  0  0  0  0  0  0  0  0  0  0
   -1.5653   17.0434   13.6316 C   0  0  0  0  0  0  0  0  0  0  0  0
   -1.0583   13.9967   15.2128 C   0  0  0  0  0  0  0  0  0  0  0  0
  1  2  1  1  0  0  0
  1  6  1  0  0  0  0
  1 21  1  0  0  0  0
  3  4  1  1  0  0  0
  3  8  1  0  0  0  0
  3 28  1  0  0  0  0
  5  9  1  0  0  0  0
  5 25  1  0  0  0  0
  5 29  1  1  0  0  0
  6  7  1  1  0  0  0
  6 11  1  0  0  0  0
  8 12  1  0  0  0  0
  9 10  1  6  0  0  0
  9 14  1  0  0  0  0
 11 16  1  0  0  0  0
 12 13  1  6  0  0  0
 12 17  1  0  0  0  0
 14 15  1  1  0  0  0
 14 18  1  0  0  0  0
 15 31  1  0  0  0  0
 16 20  1  0  0  0  0
 17  2  1  6  0  0  0
 17 22  1  0  0  0  0
 18 19  1  1  0  0  0
 18 24  1  0  0  0  0
 18 30  1  0  0  0  0
 20 21  1  0  0  0  0
 20 26  1  6  0  0  0
 22 23  1  6  0  0  0
 22 28  1  0  0  0  0
 24 25  1  0  0  0  0
 26 27  1  0  0  0  0
 28 29  1  1  0  0  0
M  END
>  <CHROM.1>
-151.28076200,-150.65220271,-141.24894936,-84.51680921,-115.18982469,168.32658273
-1.59651819,14.85137383,8.57423898,-2.63749760,1.11033657,2.60596560

>  <Name>
ligand

>  <RI>
0

>  <Rbt.Current_Directory>
/home/itssahil/PROJECTS/Mol_Feturizer/New_Systems/rnas/4GPX

>  <Rbt.Executable>
rbdock ($Id: //depot/dev/client3/rdock/2013.1/src/exe/rbdock.cxx#4 $)

>  <Rbt.Library>
libRbt.so (2013.1, Build901 2013/11/27)

>  <Rbt.Parameter_File>
/export/apps/rDock/src/rDock_2013.1_src/data/scripts/dock_solv.prm

>  <Rbt.Receptor>
prm/pocket_docking_6.prm

>  <SCORE>
-10.5778

>  <SCORE.INTER>
-8.23366

>  <SCORE.INTER.CONST>
1

>  <SCORE.INTER.POLAR>
0

>  <SCORE.INTER.ROT>
6

>  <SCORE.INTER.SOLV>
8.72773

>  <SCORE.INTER.VDW>
-15.9983

>  <SCORE.INTER.norm>
-0.265602

>  <SCORE.INTRA>
-2.34413

>  <SCORE.INTRA.DIHEDRAL>
-8.03553

>  <SCORE.INTRA.DIHEDRAL.0>
20.6841

>  <SCORE.INTRA.POLAR>
0

>  <SCORE.INTRA.POLAR.0>
0

>  <SCORE.INTRA.REPUL>
0

>  <SCORE.INTRA.REPUL.0>
0

>  <SCORE.INTRA.SOLV>
1.5627

>  <SCORE.INTRA.SOLV.lig_0>
-64.6797

>  <SCORE.INTRA.VDW>
0.892286

>  <SCORE.INTRA.VDW.0>
-4.11825

>  <SCORE.INTRA.norm>
-0.0756171

>  <SCORE.RESTR>
0

>  <SCORE.RESTR.CAVITY>
0

>  <SCORE.RESTR.norm>
0

>  <SCORE.SYSTEM>
0

>  <SCORE.SYSTEM.CONST>
0

>  <SCORE.SYSTEM.DIHEDRAL>
0

>  <SCORE.SYSTEM.SOLV>
0

>  <SCORE.SYSTEM.norm>
0

>  <SCORE.heavy>
31

>  <SCORE.norm>
-0.341219

>  <RMSD>
4.208

$$$$
ligand
 OpenBabel11021811493D
libRbt.so/2013.1/901 2013/11/27
 31 33  0  0  0  0  0  0  0  0999 V2000
   -2.2353   15.3368    4.6031 C   0  0  2  0  0  0  0  0  0  0  0  0
   -2.4564   15.3095    6.0100 O   0  0  0  0  0  0  0  0  0  0  0  0
   -2.6310   12.2643    8.9732 C   0  0  2  0  0  0  0  0  0  0  0  0
   -2.2167   11.1969    9.8310 N   0  0  0  0  0  0  0  0  0  0  0  0
   -3.2747   14.3544   11.1090 C   0  0  2  0  0  0  0  0  0  0  0  0
   -2.1477   16.8626    4.1904 C   0  0  2  0  0  0  0  0  0  0  0  0
   -1.0525   17.4854    4.9266 N   0  0  0  0  0  0  0  0  0  0  0  0
   -2.4026   11.8149    7.4713 C   0  0  0  0  0  0  0  0  0  0  0  0
   -2.9777   15.0432   12.4786 C   0  0  2  0  0  0  0  0  0  0  0  0
   -2.0873   16.1151   12.2536 O   0  0  0  0  0  0  0  0  0  0  0  0
   -3.5144   17.5952    4.4975 C   0  0  0  0  0  0  0  0  0  0  0  0
   -2.8553   12.9886    6.5241 C   0  0  2  0  0  0  0  0  0  0  0  0
   -2.6401   12.5785    5.1258 N   0  0  0  0  0  0  0  0  0  0  0  0
   -2.3274   13.9564   13.4167 C   0  0  1  0  0  0  0  0  0  0  0  0
   -1.9999   14.5667   14.7476 N   0  0  0  0  0  0  0  0  0  0  0  0
   -4.7724   16.6734    4.2021 C   0  0  0  0  0  0  0  0  0  0  0  0
   -2.0125   14.2998    6.8497 C   0  0  2  0  0  0  0  0  0  0  0  0
   -3.4124   12.7572   13.6240 C   0  0  1  0  0  0  0  0  0  0  0  0
   -4.6281   13.2224   14.1853 O   0  0  0  0  0  0  0  0  0  0  0  0
   -4.6231   15.3505    3.9273 C   0  0  2  0  0  0  0  0  0  0  0  0
   -3.3409   14.7135    3.8868 O   0  0  0  0  0  0  0  0  0  0  0  0
   -2.2497   14.7176    8.3482 C   0  0  2  0  0  0  0  0  0  0  0  0
   -1.4745   15.9008    8.6374 O   0  0  0  0  0  0  0  0  0  0  0  0
   -3.7635   12.1135   12.2433 C   0  0  0  0  0  0  0  0  0  0  0  0
   -4.2282   13.1893   11.2975 O   0  0  0  0  0  0  0  0  0  0  0  0
   -5.8036   14.4228    3.6338 C   0  0  0  0  0  0  0  0  0  0  0  0
   -5.8738   13.4364    4.6904 O   0  0  0  0  0  0  0  0  0  0  0  0
   -1.7712   13.5429    9.2790 C   0  0  1  0  0  0  0  0  0  0  0  0
   -1.9666   13.9339   10.6017 O   0  0  0  0  0  0  0  0  0  0  0  0
   -2.9355   11.5947   14.5278 C   0  0  0  0  0  0  0  0  0  0  0  0
   -0.5807   14.5413   15.1565 C   0  0  0  0  0  0  0  0  0  0  0  0
  1  2  1  1  0  0  0
  1  6  1  0  0  0  0
  1 21  1  0  0  0  0
  3  4  1  1  0  0  0
  3  8  1  0  0  0  0
  3 28  1  0  0  0  0
  5  9  1  0  0  0  0
  5 25  1  0  0  0  0
  5 29  1  1  0  0  0
  6  7  1  1  0  0  0
  6 11  1  0  0  0  0
  8 12  1  0  0  0  0
  9 10  1  6  0  0  0
  9 14  1  0  0  0  0
 11 16  1  0  0  0  0
 12 13  1  6  0  0  0
 12 17  1  0  0  0  0
 14 15  1  1  0  0  0
 14 18  1  0  0  0  0
 15 31  1  0  0  0  0
 16 20  1  0  0  0  0
 17  2  1  6  0  0  0
 17 22  1  0  0  0  0
 18 19  1  1  0  0  0
 18 24  1  0  0  0  0
 18 30  1  0  0  0  0
 20 21  1  0  0  0  0
 20 26  1  6  0  0  0
 22 23  1  1  0  0  0
 22 28  1  0  0  0  0
 24 25  1  0  0  0  0
 26 27  1  0  0  0  0
 28 29  1  1  0  0  0
M  END
>  <CHROM.1>
-149.38803346,-165.71092171,-120.07997831,-69.44303293,-115.34292688,-62.47593472
-2.92317123,14.25924141,8.77762296,-1.76008848,1.07326744,1.93769479

>  <Name>
ligand

>  <RI>
0

>  <Rbt.Current_Directory>
/home/itssahil/PROJECTS/Mol_Feturizer/New_Systems/rnas/4GPX

>  <Rbt.Executable>
rbdock ($Id: //depot/dev/client3/rdock/2013.1/src/exe/rbdock.cxx#4 $)

>  <Rbt.Library>
libRbt.so (2013.1, Build901 2013/11/27)

>  <Rbt.Parameter_File>
/export/apps/rDock/src/rDock_2013.1_src/data/scripts/dock_solv.prm

>  <Rbt.Receptor>
prm/pocket_docking_8.prm

>  <SCORE>
-11.6021

>  <SCORE.INTER>
-7.38423

>  <SCORE.INTER.CONST>
1

>  <SCORE.INTER.POLAR>
0

>  <SCORE.INTER.ROT>
6

>  <SCORE.INTER.SOLV>
8.43007

>  <SCORE.INTER.VDW>
-15.3328

>  <SCORE.INTER.norm>
-0.238201

>  <SCORE.INTRA>
-4.21784

>  <SCORE.INTRA.DIHEDRAL>
-12.6318

>  <SCORE.INTRA.DIHEDRAL.0>
20.6841

>  <SCORE.INTRA.POLAR>
0

>  <SCORE.INTRA.POLAR.0>
0

>  <SCORE.INTRA.REPUL>
0

>  <SCORE.INTRA.REPUL.0>
0

>  <SCORE.INTRA.SOLV>
2.60736

>  <SCORE.INTRA.SOLV.lig_0>
-64.6797

>  <SCORE.INTRA.VDW>
0.794395

>  <SCORE.INTRA.VDW.0>
-4.11825

>  <SCORE.INTRA.norm>
-0.136059

>  <SCORE.RESTR>
0

>  <SCORE.RESTR.CAVITY>
0

>  <SCORE.RESTR.norm>
0

>  <SCORE.SYSTEM>
0

>  <SCORE.SYSTEM.CONST>
0

>  <SCORE.SYSTEM.DIHEDRAL>
0

>  <SCORE.SYSTEM.SOLV>
0

>  <SCORE.SYSTEM.norm>
0

>  <SCORE.heavy>
31

>  <SCORE.norm>
-0.37426

>  <RMSD>
4.230

$$$$
ligand
 OpenBabel11021811493D
libRbt.so/2013.1/901 2013/11/27
 31 33  0  0  0  0  0  0  0  0999 V2000
   -3.3618   14.4494    4.1670 C   0  0  2  0  0  0  0  0  0  0  0  0
   -3.2450   14.1870    5.5623 O   0  0  0  0  0  0  0  0  0  0  0  0
   -1.0569   11.3686    7.8759 C   0  0  2  0  0  0  0  0  0  0  0  0
   -0.6750   10.1259    8.4731 N   0  0  0  0  0  0  0  0  0  0  0  0
    0.5580   10.2168    4.6485 C   0  0  2  0  0  0  0  0  0  0  0  0
   -3.5148   16.0177    4.0148 C   0  0  2  0  0  0  0  0  0  0  0  0
   -2.3407   16.6618    4.5942 N   0  0  0  0  0  0  0  0  0  0  0  0
   -2.5314   11.7137    8.3414 C   0  0  0  0  0  0  0  0  0  0  0  0
    1.9676    9.5744    4.8460 C   0  0  2  0  0  0  0  0  0  0  0  0
    1.9152    8.7239    5.9714 O   0  0  0  0  0  0  0  0  0  0  0  0
   -4.8340   16.5140    4.7306 C   0  0  0  0  0  0  0  0  0  0  0  0
   -2.9562   13.0799    7.6838 C   0  0  2  0  0  0  0  0  0  0  0  0
   -4.3290   13.4034    8.1087 N   0  0  0  0  0  0  0  0  0  0  0  0
    2.9895   10.7520    5.0754 C   0  0  1  0  0  0  0  0  0  0  0  0
    4.3652   10.1938    5.2920 N   0  0  0  0  0  0  0  0  0  0  0  0
   -6.0351   15.4907    4.5583 C   0  0  0  0  0  0  0  0  0  0  0  0
   -2.8842   12.9603    6.0976 C   0  0  2  0  0  0  0  0  0  0  0  0
    2.9890   11.6856    3.7387 C   0  0  1  0  0  0  0  0  0  0  0  0
    3.3369   10.9573    2.5735 O   0  0  0  0  0  0  0  0  0  0  0  0
   -5.8321   14.2532    4.0338 C   0  0  2  0  0  0  0  0  0  0  0  0
   -4.5413   13.8005    3.6090 O   0  0  0  0  0  0  0  0  0  0  0  0
   -1.4132   12.6077    5.6640 C   0  0  2  0  0  0  0  0  0  0  0  0
   -1.3593   12.4913    4.2259 O   0  0  0  0  0  0  0  0  0  0  0  0
    1.5598   12.2727    3.5009 C   0  0  0  0  0  0  0  0  0  0  0  0
    0.5623   11.1456    3.4489 O   0  0  0  0  0  0  0  0  0  0  0  0
   -6.9572   13.2338    3.8457 C   0  0  0  0  0  0  0  0  0  0  0  0
   -7.0305   12.8995    2.4395 O   0  0  0  0  0  0  0  0  0  0  0  0
   -1.0151   11.2302    6.3117 C   0  0  1  0  0  0  0  0  0  0  0  0
    0.2800   10.9199    5.9030 O   0  0  0  0  0  0  0  0  0  0  0  0
    3.9461   12.9009    3.7911 C   0  0  0  0  0  0  0  0  0  0  0  0
    5.0257   10.5366    6.5681 C   0  0  0  0  0  0  0  0  0  0  0  0
  1  2  1  1  0  0  0
  1  6  1  0  0  0  0
  1 21  1  0  0  0  0
  3  4  1  1  0  0  0
  3  8  1  0  0  0  0
  3 28  1  0  0  0  0
  5  9  1  0  0  0  0
  5 25  1  0  0  0  0
  5 29  1  1  0  0  0
  6  7  1  1  0  0  0
  6 11  1  0  0  0  0
  8 12  1  0  0  0  0
  9 10  1  1  0  0  0
  9 14  1  0  0  0  0
 11 16  1  0  0  0  0
 12 13  1  6  0  0  0
 12 17  1  0  0  0  0
 14 15  1  6  0  0  0
 14 18  1  0  0  0  0
 15 31  1  0  0  0  0
 16 20  1  0  0  0  0
 17  2  1  6  0  0  0
 17 22  1  0  0  0  0
 18 19  1  6  0  0  0
 18 24  1  0  0  0  0
 18 30  1  0  0  0  0
 20 21  1  0  0  0  0
 20 26  1  6  0  0  0
 22 23  1  6  0  0  0
 22 28  1  0  0  0  0
 24 25  1  0  0  0  0
 26 27  1  0  0  0  0
 28 29  1  1  0  0  0
M  END
>  <CHROM.1>
-169.34191185,-157.62293851,-121.34955402,-176.81275282,120.82327510,154.83428845
-1.16279670,12.44439110,5.11560883,-2.88186594,-0.36811204,2.09678521

>  <Name>
ligand

>  <RI>
0

>  <Rbt.Current_Directory>
/home/itssahil/PROJECTS/Mol_Feturizer/New_Systems/rnas/4GPX

>  <Rbt.Executable>
rbdock ($Id: //depot/dev/client3/rdock/2013.1/src/exe/rbdock.cxx#4 $)

>  <Rbt.Library>
libRbt.so (2013.1, Build901 2013/11/27)

>  <Rbt.Parameter_File>
/export/apps/rDock/src/rDock_2013.1_src/data/scripts/dock_solv.prm

>  <Rbt.Receptor>
prm/pocket_docking_8.prm

>  <SCORE>
-13.2327

>  <SCORE.INTER>
-7.02058

>  <SCORE.INTER.CONST>
1

>  <SCORE.INTER.POLAR>
0

>  <SCORE.INTER.ROT>
6

>  <SCORE.INTER.SOLV>
12.3977

>  <SCORE.INTER.VDW>
-16.413

>  <SCORE.INTER.norm>
-0.22647

>  <SCORE.INTRA>
-6.21214

>  <SCORE.INTRA.DIHEDRAL>
-12.3014

>  <SCORE.INTRA.DIHEDRAL.0>
20.6841

>  <SCORE.INTRA.POLAR>
0

>  <SCORE.INTRA.POLAR.0>
0

>  <SCORE.INTRA.REPUL>
0

>  <SCORE.INTRA.REPUL.0>
0

>  <SCORE.INTRA.SOLV>
-2.53225

>  <SCORE.INTRA.SOLV.lig_0>
-64.6797

>  <SCORE.INTRA.VDW>
1.20468

>  <SCORE.INTRA.VDW.0>
-4.11825

>  <SCORE.INTRA.norm>
-0.200392

>  <SCORE.RESTR>
0

>  <SCORE.RESTR.CAVITY>
0

>  <SCORE.RESTR.norm>
0

>  <SCORE.SYSTEM>
0

>  <SCORE.SYSTEM.CONST>
0

>  <SCORE.SYSTEM.DIHEDRAL>
0

>  <SCORE.SYSTEM.SOLV>
0

>  <SCORE.SYSTEM.norm>
0

>  <SCORE.heavy>
31

>  <SCORE.norm>
-0.426862

>  <RMSD>
4.242

$$$$
ligand
 OpenBabel11021811493D
libRbt.so/2013.1/901 2013/11/27
 31 33  0  0  0  0  0  0  0  0999 V2000
   -1.7663   16.5227    6.1272 C   0  0  2  0  0  0  0  0  0  0  0  0
   -2.2299   17.4430    7.1107 O   0  0  0  0  0  0  0  0  0  0  0  0
   -3.4118   17.0393   11.1757 C   0  0  2  0  0  0  0  0  0  0  0  0
   -4.2116   16.7222   12.3188 N   0  0  0  0  0  0  0  0  0  0  0  0
   -3.0608   14.1211   12.2723 C   0  0  2  0  0  0  0  0  0  0  0  0
   -1.0078   17.3779    5.0320 C   0  0  2  0  0  0  0  0  0  0  0  0
    0.0922   18.0910    5.6728 N   0  0  0  0  0  0  0  0  0  0  0  0
   -4.2114   18.0709   10.2777 C   0  0  0  0  0  0  0  0  0  0  0  0
   -1.8897   13.3810   12.9931 C   0  0  2  0  0  0  0  0  0  0  0  0
   -0.9313   14.3406   13.3849 O   0  0  0  0  0  0  0  0  0  0  0  0
   -2.0028   18.3926    4.3398 C   0  0  0  0  0  0  0  0  0  0  0  0
   -3.3350   18.4202    9.0170 C   0  0  2  0  0  0  0  0  0  0  0  0
   -4.0758   19.3752    8.1751 N   0  0  0  0  0  0  0  0  0  0  0  0
   -1.2768   12.3600   11.9608 C   0  0  1  0  0  0  0  0  0  0  0  0
   -0.1287   11.6291   12.5922 N   0  0  0  0  0  0  0  0  0  0  0  0
   -3.4475   17.7704    4.1270 C   0  0  0  0  0  0  0  0  0  0  0  0
   -3.0177   17.0930    8.1964 C   0  0  2  0  0  0  0  0  0  0  0  0
   -2.4415   11.2924   11.5579 C   0  0  1  0  0  0  0  0  0  0  0  0
   -2.9508   10.6006   12.6854 O   0  0  0  0  0  0  0  0  0  0  0  0
   -3.7883   16.5808    4.6896 C   0  0  2  0  0  0  0  0  0  0  0  0
   -2.8795   15.8240    5.4976 O   0  0  0  0  0  0  0  0  0  0  0  0
   -2.2331   16.0835    9.1137 C   0  0  2  0  0  0  0  0  0  0  0  0
   -1.9585   14.8798    8.3652 O   0  0  0  0  0  0  0  0  0  0  0  0
   -3.6452   12.0421   10.8998 C   0  0  0  0  0  0  0  0  0  0  0  0
   -4.1196   13.1299   11.8270 O   0  0  0  0  0  0  0  0  0  0  0  0
   -5.1659   15.9398    4.5114 C   0  0  0  0  0  0  0  0  0  0  0  0
   -5.6638   15.5730    5.8198 O   0  0  0  0  0  0  0  0  0  0  0  0
   -3.1326   15.7293   10.3550 C   0  0  1  0  0  0  0  0  0  0  0  0
   -2.4357   14.8195   11.1469 O   0  0  0  0  0  0  0  0  0  0  0  0
   -2.0089   10.2067   10.5432 C   0  0  0  0  0  0  0  0  0  0  0  0
    1.1838   12.3063   12.5632 C   0  0  0  0  0  0  0  0  0  0  0  0
  1  2  1  1  0  0  0
  1  6  1  0  0  0  0
  1 21  1  0  0  0  0
  3  4  1  1  0  0  0
  3  8  1  0  0  0  0
  3 28  1  0  0  0  0
  5  9  1  0  0  0  0
  5 25  1  0  0  0  0
  5 29  1  6  0  0  0
  6  7  1  1  0  0  0
  6 11  1  0  0  0  0
  8 12  1  0  0  0  0
  9 10  1  6  0  0  0
  9 14  1  0  0  0  0
 11 16  1  0  0  0  0
 12 13  1  6  0  0  0
 12 17  1  0  0  0  0
 14 15  1  1  0  0  0
 14 18  1  0  0  0  0
 15 31  1  0  0  0  0
 16 20  1  0  0  0  0
 17  2  1  6  0  0  0
 17 22  1  0  0  0  0
 18 19  1  1  0  0  0
 18 24  1  0  0  0  0
 18 30  1  0  0  0  0
 20 21  1  0  0  0  0
 20 26  1  6  0  0  0
 22 23  1  6  0  0  0
 22 28  1  0  0  0  0
 24 25  1  0  0  0  0
 26 27  1  0  0  0  0
 28 29  1  1  0  0  0
M  END
>  <CHROM.1>
175.71533082,-171.92129754,-83.85972395,-178.64805073,-130.05585084,70.95707176
-2.62061298,15.22247099,9.18339576,-2.07115399,-1.28866237,1.73197758

>  <Name>
ligand

>  <RI>
0

>  <Rbt.Current_Directory>
/home/itssahil/PROJECTS/Mol_Feturizer/New_Systems/rnas/4GPX

>  <Rbt.Executable>
rbdock ($Id: //depot/dev/client3/rdock/2013.1/src/exe/rbdock.cxx#4 $)

>  <Rbt.Library>
libRbt.so (2013.1, Build901 2013/11/27)

>  <Rbt.Parameter_File>
/export/apps/rDock/src/rDock_2013.1_src/data/scripts/dock_solv.prm

>  <Rbt.Receptor>
prm/pocket_docking_8.prm

>  <SCORE>
-15.3126

>  <SCORE.INTER>
-6.8729

>  <SCORE.INTER.CONST>
1

>  <SCORE.INTER.POLAR>
0

>  <SCORE.INTER.ROT>
6

>  <SCORE.INTER.SOLV>
13.0393

>  <SCORE.INTER.VDW>
-16.5284

>  <SCORE.INTER.norm>
-0.221706

>  <SCORE.INTRA>
-8.43967

>  <SCORE.INTRA.DIHEDRAL>
-17.4562

>  <SCORE.INTRA.DIHEDRAL.0>
20.6841

>  <SCORE.INTRA.POLAR>
0

>  <SCORE.INTRA.POLAR.0>
0

>  <SCORE.INTRA.REPUL>
0

>  <SCORE.INTRA.REPUL.0>
0

>  <SCORE.INTRA.SOLV>
-1.72293

>  <SCORE.INTRA.SOLV.lig_0>
-64.6797

>  <SCORE.INTRA.VDW>
1.14991

>  <SCORE.INTRA.VDW.0>
-4.11825

>  <SCORE.INTRA.norm>
-0.272247

>  <SCORE.RESTR>
0

>  <SCORE.RESTR.CAVITY>
0

>  <SCORE.RESTR.norm>
0

>  <SCORE.SYSTEM>
0

>  <SCORE.SYSTEM.CONST>
0

>  <SCORE.SYSTEM.DIHEDRAL>
0

>  <SCORE.SYSTEM.SOLV>
0

>  <SCORE.SYSTEM.norm>
0

>  <SCORE.heavy>
31

>  <SCORE.norm>
-0.493954

>  <RMSD>
4.253

$$$$
ligand
 OpenBabel11021811493D
libRbt.so/2013.1/901 2013/11/27
 31 33  0  0  0  0  0  0  0  0999 V2000
   -3.7146   15.6112    6.5404 C   0  0  2  0  0  0  0  0  0  0  0  0
   -3.0305   14.5473    5.8853 O   0  0  0  0  0  0  0  0  0  0  0  0
    0.0975   11.8230    6.8226 C   0  0  2  0  0  0  0  0  0  0  0  0
    1.4026   11.3321    7.1427 N   0  0  0  0  0  0  0  0  0  0  0  0
    0.7403   11.5401    9.7843 C   0  0  2  0  0  0  0  0  0  0  0  0
   -5.2290   15.5186    6.0887 C   0  0  2  0  0  0  0  0  0  0  0  0
   -5.7545   14.2132    6.4747 N   0  0  0  0  0  0  0  0  0  0  0  0
    0.1762   12.5817    5.4340 C   0  0  0  0  0  0  0  0  0  0  0  0
    0.1968   10.7993   11.0469 C   0  0  2  0  0  0  0  0  0  0  0  0
   -0.7743    9.8634   10.6299 O   0  0  0  0  0  0  0  0  0  0  0  0
   -5.3516   15.7300    4.5270 C   0  0  0  0  0  0  0  0  0  0  0  0
   -1.2583   13.1259    5.0798 C   0  0  2  0  0  0  0  0  0  0  0  0
   -1.1902   13.8373    3.7918 N   0  0  0  0  0  0  0  0  0  0  0  0
   -0.4387   11.8896   11.9908 C   0  0  1  0  0  0  0  0  0  0  0  0
   -0.9986   11.2329   13.2182 N   0  0  0  0  0  0  0  0  0  0  0  0
   -4.3357   16.8226    3.9847 C   0  0  0  0  0  0  0  0  0  0  0  0
   -1.7602   14.1097    6.2268 C   0  0  2  0  0  0  0  0  0  0  0  0
    0.7407   12.9288   12.4238 C   0  0  1  0  0  0  0  0  0  0  0  0
    1.8151   12.2794   13.0821 O   0  0  0  0  0  0  0  0  0  0  0  0
   -3.3544   17.3237    4.7808 C   0  0  2  0  0  0  0  0  0  0  0  0
   -3.1773   16.9051    6.1391 O   0  0  0  0  0  0  0  0  0  0  0  0
   -1.8196   13.3343    7.5947 C   0  0  2  0  0  0  0  0  0  0  0  0
   -2.2657   14.2359    8.6304 O   0  0  0  0  0  0  0  0  0  0  0  0
    1.3339   13.6192   11.1528 C   0  0  0  0  0  0  0  0  0  0  0  0
    1.7886   12.5629   10.1805 O   0  0  0  0  0  0  0  0  0  0  0  0
   -2.3540   18.3789    4.3050 C   0  0  0  0  0  0  0  0  0  0  0  0
   -1.0226   17.8268    4.4347 O   0  0  0  0  0  0  0  0  0  0  0  0
   -0.3745   12.8182    7.9427 C   0  0  1  0  0  0  0  0  0  0  0  0
   -0.4371   12.1528    9.1650 O   0  0  0  0  0  0  0  0  0  0  0  0
    0.2890   14.0752   13.3605 C   0  0  0  0  0  0  0  0  0  0  0  0
   -2.1970   11.8572   13.8151 C   0  0  0  0  0  0  0  0  0  0  0  0
  1  2  1  6  0  0  0
  1  6  1  0  0  0  0
  1 21  1  0  0  0  0
  3  4  1  1  0  0  0
  3  8  1  0  0  0  0
  3 28  1  0  0  0  0
  5  9  1  0  0  0  0
  5 25  1  0  0  0  0
  5 29  1  1  0  0  0
  6  7  1  6  0  0  0
  6 11  1  0  0  0  0
  8 12  1  0  0  0  0
  9 10  1  6  0  0  0
  9 14  1  0  0  0  0
 11 16  1  0  0  0  0
 12 13  1  6  0  0  0
 12 17  1  0  0  0  0
 14 15  1  1  0  0  0
 14 18  1  0  0  0  0
 15 31  1  0  0  0  0
 16 20  1  0  0  0  0
 17  2  1  6  0  0  0
 17 22  1  0  0  0  0
 18 19  1  1  0  0  0
 18 24  1  0  0  0  0
 18 30  1  0  0  0  0
 20 21  1  0  0  0  0
 20 26  1  1  0  0  0
 22 23  1  1  0  0  0
 22 28  1  0  0  0  0
 24 25  1  0  0  0  0
 26 27  1  0  0  0  0
 28 29  1  1  0  0  0
M  END
>  <CHROM.1>
-165.80001479,-174.69253020,-147.57101861,-168.70809724,-120.68314686,61.06575952
-1.34940152,13.71589924,8.15075023,2.08385820,0.60832507,-1.34194040

>  <Name>
ligand

>  <RI>
0

>  <Rbt.Current_Directory>
/home/itssahil/PROJECTS/Mol_Feturizer/New_Systems/rnas/4GPX

>  <Rbt.Executable>
rbdock ($Id: //depot/dev/client3/rdock/2013.1/src/exe/rbdock.cxx#4 $)

>  <Rbt.Library>
libRbt.so (2013.1, Build901 2013/11/27)

>  <Rbt.Parameter_File>
/export/apps/rDock/src/rDock_2013.1_src/data/scripts/dock_solv.prm

>  <Rbt.Receptor>
prm/pocket_docking_6.prm

>  <SCORE>
-16.93

>  <SCORE.INTER>
-9.44901

>  <SCORE.INTER.CONST>
1

>  <SCORE.INTER.POLAR>
0

>  <SCORE.INTER.ROT>
6

>  <SCORE.INTER.SOLV>
13.2718

>  <SCORE.INTER.VDW>
-18.3233

>  <SCORE.INTER.norm>
-0.304807

>  <SCORE.INTRA>
-7.48096

>  <SCORE.INTRA.DIHEDRAL>
-16.6102

>  <SCORE.INTRA.DIHEDRAL.0>
20.6841

>  <SCORE.INTRA.POLAR>
0

>  <SCORE.INTRA.POLAR.0>
0

>  <SCORE.INTRA.REPUL>
0

>  <SCORE.INTRA.REPUL.0>
0

>  <SCORE.INTRA.SOLV>
-1.01808

>  <SCORE.INTRA.SOLV.lig_0>
-64.6797

>  <SCORE.INTRA.VDW>
1.33318

>  <SCORE.INTRA.VDW.0>
-4.11825

>  <SCORE.INTRA.norm>
-0.241321

>  <SCORE.RESTR>
0

>  <SCORE.RESTR.CAVITY>
0

>  <SCORE.RESTR.norm>
0

>  <SCORE.SYSTEM>
0

>  <SCORE.SYSTEM.CONST>
0

>  <SCORE.SYSTEM.DIHEDRAL>
0

>  <SCORE.SYSTEM.SOLV>
0

>  <SCORE.SYSTEM.norm>
0

>  <SCORE.heavy>
31

>  <SCORE.norm>
-0.546128

>  <RMSD>
4.254

$$$$
ligand
 OpenBabel11021811493D
libRbt.so/2013.1/901 2013/11/27
 31 33  0  0  0  0  0  0  0  0999 V2000
   -1.9222   16.2598    6.1188 C   0  0  2  0  0  0  0  0  0  0  0  0
   -2.2637   17.2335    7.1009 O   0  0  0  0  0  0  0  0  0  0  0  0
   -3.3655   17.0991   11.2060 C   0  0  2  0  0  0  0  0  0  0  0  0
   -4.1495   16.8753   12.3816 N   0  0  0  0  0  0  0  0  0  0  0  0
   -3.1102   14.1903   12.4232 C   0  0  2  0  0  0  0  0  0  0  0  0
   -1.0673   17.0107    5.0182 C   0  0  2  0  0  0  0  0  0  0  0  0
    0.1154   17.5830    5.6528 N   0  0  0  0  0  0  0  0  0  0  0  0
   -4.1484   18.1079   10.2684 C   0  0  0  0  0  0  0  0  0  0  0  0
   -1.9486   13.4817   13.1895 C   0  0  2  0  0  0  0  0  0  0  0  0
   -0.9985   14.4582   13.5587 O   0  0  0  0  0  0  0  0  0  0  0  0
   -1.9308   18.1395    4.3261 C   0  0  0  0  0  0  0  0  0  0  0  0
   -3.2894   18.3546    8.9720 C   0  0  2  0  0  0  0  0  0  0  0  0
   -4.0151   19.2880    8.0935 N   0  0  0  0  0  0  0  0  0  0  0  0
   -1.3178   12.4235   12.2066 C   0  0  1  0  0  0  0  0  0  0  0  0
   -0.1779   11.7205   12.8829 N   0  0  0  0  0  0  0  0  0  0  0  0
   -3.4426   17.7016    4.1203 C   0  0  0  0  0  0  0  0  0  0  0  0
   -3.0383   16.9732    8.2207 C   0  0  2  0  0  0  0  0  0  0  0  0
   -2.4739   11.3381   11.8273 C   0  0  1  0  0  0  0  0  0  0  0  0
   -2.9988   10.6885   12.9727 O   0  0  0  0  0  0  0  0  0  0  0  0
   -3.9267   16.5654    4.6881 C   0  0  2  0  0  0  0  0  0  0  0  0
   -3.1162   15.7035    5.4954 O   0  0  0  0  0  0  0  0  0  0  0  0
   -2.2690   15.9881    9.1767 C   0  0  2  0  0  0  0  0  0  0  0  0
   -2.0545   14.7355    8.4914 O   0  0  0  0  0  0  0  0  0  0  0  0
   -3.6690   12.0587   11.1228 C   0  0  0  0  0  0  0  0  0  0  0  0
   -4.1599   13.1798   12.0003 O   0  0  0  0  0  0  0  0  0  0  0  0
   -5.3742   16.1006    4.5167 C   0  0  0  0  0  0  0  0  0  0  0  0
   -5.9018   16.7075    3.3136 O   0  0  0  0  0  0  0  0  0  0  0  0
   -3.1518   15.7363   10.4544 C   0  0  1  0  0  0  0  0  0  0  0  0
   -2.4695   14.8468   11.2814 O   0  0  0  0  0  0  0  0  0  0  0  0
   -2.0234   10.2154   10.8617 C   0  0  0  0  0  0  0  0  0  0  0  0
    1.1639   12.3124   12.7057 C   0  0  0  0  0  0  0  0  0  0  0  0
  1  2  1  1  0  0  0
  1  6  1  0  0  0  0
  1 21  1  0  0  0  0
  3  4  1  1  0  0  0
  3  8  1  0  0  0  0
  3 28  1  0  0  0  0
  5  9  1  0  0  0  0
  5 25  1  0  0  0  0
  5 29  1  6  0  0  0
  6  7  1  1  0  0  0
  6 11  1  0  0  0  0
  8 12  1  0  0  0  0
  9 10  1  6  0  0  0
  9 14  1  0  0  0  0
 11 16  1  0  0  0  0
 12 13  1  6  0  0  0
 12 17  1  0  0  0  0
 14 15  1  1  0  0  0
 14 18  1  0  0  0  0
 15 31  1  0  0  0  0
 16 20  1  0  0  0  0
 17  2  1  6  0  0  0
 17 22  1  0  0  0  0
 18 19  1  1  0  0  0
 18 24  1  0  0  0  0
 18 30  1  0  0  0  0
 20 21  1  0  0  0  0
 20 26  1  6  0  0  0
 22 23  1  6  0  0  0
 22 28  1  0  0  0  0
 24 25  1  0  0  0  0
 26 27  1  0  0  0  0
 28 29  1  1  0  0  0
M  END
>  <CHROM.1>
178.58307233,-171.11428949,-91.22777140,-174.73473158,22.45911814,73.68089919
-2.66585480,15.22540039,9.18376838,-2.18173922,-1.29303085,1.55815556

>  <Name>
ligand

>  <RI>
0

>  <Rbt.Current_Directory>
/home/itssahil/PROJECTS/Mol_Feturizer/New_Systems/rnas/4GPX

>  <Rbt.Executable>
rbdock ($Id: //depot/dev/client3/rdock/2013.1/src/exe/rbdock.cxx#4 $)

>  <Rbt.Library>
libRbt.so (2013.1, Build901 2013/11/27)

>  <Rbt.Parameter_File>
/export/apps/rDock/src/rDock_2013.1_src/data/scripts/dock_solv.prm

>  <Rbt.Receptor>
prm/pocket_docking_6.prm

>  <SCORE>
-15.5129

>  <SCORE.INTER>
-8.05457

>  <SCORE.INTER.CONST>
1

>  <SCORE.INTER.POLAR>
0

>  <SCORE.INTER.ROT>
6

>  <SCORE.INTER.SOLV>
12.7638

>  <SCORE.INTER.VDW>
-17.2243

>  <SCORE.INTER.norm>
-0.259825

>  <SCORE.INTRA>
-7.45832

>  <SCORE.INTRA.DIHEDRAL>
-16.3493

>  <SCORE.INTRA.DIHEDRAL.0>
20.6841

>  <SCORE.INTRA.POLAR>
0

>  <SCORE.INTRA.POLAR.0>
0

>  <SCORE.INTRA.REPUL>
0

>  <SCORE.INTRA.REPUL.0>
0

>  <SCORE.INTRA.SOLV>
-1.82871

>  <SCORE.INTRA.SOLV.lig_0>
-64.6797

>  <SCORE.INTRA.VDW>
1.63068

>  <SCORE.INTRA.VDW.0>
-4.11825

>  <SCORE.INTRA.norm>
-0.240591

>  <SCORE.RESTR>
0

>  <SCORE.RESTR.CAVITY>
0

>  <SCORE.RESTR.norm>
0

>  <SCORE.SYSTEM>
0

>  <SCORE.SYSTEM.CONST>
0

>  <SCORE.SYSTEM.DIHEDRAL>
0

>  <SCORE.SYSTEM.SOLV>
0

>  <SCORE.SYSTEM.norm>
0

>  <SCORE.heavy>
31

>  <SCORE.norm>
-0.500416

>  <RMSD>
4.284

$$$$
ligand
 OpenBabel11021811493D
libRbt.so/2013.1/901 2013/11/27
 31 33  0  0  0  0  0  0  0  0999 V2000
   -4.6316   15.0888    6.0767 C   0  0  2  0  0  0  0  0  0  0  0  0
   -3.6473   14.2394    5.4947 O   0  0  0  0  0  0  0  0  0  0  0  0
   -0.2278   12.2180    7.0131 C   0  0  2  0  0  0  0  0  0  0  0  0
    1.0979   12.0004    7.5049 N   0  0  0  0  0  0  0  0  0  0  0  0
   -1.7070   13.3649   10.3589 C   0  0  2  0  0  0  0  0  0  0  0  0
   -5.8678   15.0893    5.0879 C   0  0  2  0  0  0  0  0  0  0  0  0
   -6.3491   13.7199    4.9382 N   0  0  0  0  0  0  0  0  0  0  0  0
   -0.1252   12.8463    5.5624 C   0  0  0  0  0  0  0  0  0  0  0  0
   -0.7561   14.5590   10.6885 C   0  0  2  0  0  0  0  0  0  0  0  0
   -0.6158   15.3495    9.5274 O   0  0  0  0  0  0  0  0  0  0  0  0
   -5.4516   15.6909    3.6866 C   0  0  0  0  0  0  0  0  0  0  0  0
   -1.5829   13.0896    5.0188 C   0  0  2  0  0  0  0  0  0  0  0  0
   -1.4938   13.6791    3.6719 N   0  0  0  0  0  0  0  0  0  0  0  0
    0.6288   13.9466   11.1252 C   0  0  1  0  0  0  0  0  0  0  0  0
    1.5952   15.0510   11.4372 N   0  0  0  0  0  0  0  0  0  0  0  0
   -4.4361   16.9027    3.8282 C   0  0  0  0  0  0  0  0  0  0  0  0
   -2.3670   14.0699    5.9986 C   0  0  2  0  0  0  0  0  0  0  0  0
    0.3819   13.0498   12.4643 C   0  0  1  0  0  0  0  0  0  0  0  0
   -0.1728   13.8085   13.5254 O   0  0  0  0  0  0  0  0  0  0  0  0
   -3.8620   17.2002    5.0239 C   0  0  2  0  0  0  0  0  0  0  0  0
   -4.1327   16.4512    6.2144 O   0  0  0  0  0  0  0  0  0  0  0  0
   -2.4455   13.4267    7.4325 C   0  0  2  0  0  0  0  0  0  0  0  0
   -3.1488   14.3261    8.3162 O   0  0  0  0  0  0  0  0  0  0  0  0
   -0.6253   11.8954   12.1528 C   0  0  0  0  0  0  0  0  0  0  0  0
   -1.8885   12.4801   11.5780 O   0  0  0  0  0  0  0  0  0  0  0  0
   -2.8803   18.3586    5.2108 C   0  0  0  0  0  0  0  0  0  0  0  0
   -1.5404   17.8487    5.0135 O   0  0  0  0  0  0  0  0  0  0  0  0
   -0.9816   13.2122    7.9676 C   0  0  1  0  0  0  0  0  0  0  0  0
   -1.0657   12.6627    9.2450 O   0  0  0  0  0  0  0  0  0  0  0  0
    1.6485   12.3682   13.0360 C   0  0  0  0  0  0  0  0  0  0  0  0
    2.9598   14.9114   10.8889 C   0  0  0  0  0  0  0  0  0  0  0  0
  1  2  1  6  0  0  0
  1  6  1  0  0  0  0
  1 21  1  0  0  0  0
  3  4  1  1  0  0  0
  3  8  1  0  0  0  0
  3 28  1  0  0  0  0
  5  9  1  0  0  0  0
  5 25  1  0  0  0  0
  5 29  1  6  0  0  0
  6  7  1  6  0  0  0
  6 11  1  0  0  0  0
  8 12  1  0  0  0  0
  9 10  1  6  0  0  0
  9 14  1  0  0  0  0
 11 16  1  0  0  0  0
 12 13  1  6  0  0  0
 12 17  1  0  0  0  0
 14 15  1  1  0  0  0
 14 18  1  0  0  0  0
 15 31  1  0  0  0  0
 16 20  1  0  0  0  0
 17  2  1  6  0  0  0
 17 22  1  0  0  0  0
 18 19  1  1  0  0  0
 18 24  1  0  0  0  0
 18 30  1  0  0  0  0
 20 21  1  0  0  0  0
 20 26  1  1  0  0  0
 22 23  1  1  0  0  0
 22 28  1  0  0  0  0
 24 25  1  0  0  0  0
 26 27  1  0  0  0  0
 28 29  1  1  0  0  0
M  END
>  <CHROM.1>
173.98005043,-69.61762351,-134.93557075,-177.72648839,-91.79645236,179.47266310
-1.72290146,14.30731981,7.94127259,3.10924626,1.01222258,-2.77987902

>  <Name>
ligand

>  <RI>
0

>  <Rbt.Current_Directory>
/home/itssahil/PROJECTS/Mol_Feturizer/New_Systems/rnas/4GPX

>  <Rbt.Executable>
rbdock ($Id: //depot/dev/client3/rdock/2013.1/src/exe/rbdock.cxx#4 $)

>  <Rbt.Library>
libRbt.so (2013.1, Build901 2013/11/27)

>  <Rbt.Parameter_File>
/export/apps/rDock/src/rDock_2013.1_src/data/scripts/dock_solv.prm

>  <Rbt.Receptor>
prm/pocket_docking_5.prm

>  <SCORE>
-15.5999

>  <SCORE.INTER>
-8.39896

>  <SCORE.INTER.CONST>
1

>  <SCORE.INTER.POLAR>
0

>  <SCORE.INTER.ROT>
6

>  <SCORE.INTER.SOLV>
11.0502

>  <SCORE.INTER.VDW>
-16.8827

>  <SCORE.INTER.norm>
-0.270934

>  <SCORE.INTRA>
-7.20091

>  <SCORE.INTRA.DIHEDRAL>
-16.4453

>  <SCORE.INTRA.DIHEDRAL.0>
20.6841

>  <SCORE.INTRA.POLAR>
0

>  <SCORE.INTRA.POLAR.0>
0

>  <SCORE.INTRA.REPUL>
0

>  <SCORE.INTRA.REPUL.0>
0

>  <SCORE.INTRA.SOLV>
-2.26344

>  <SCORE.INTRA.SOLV.lig_0>
-64.6797

>  <SCORE.INTRA.VDW>
2.15345

>  <SCORE.INTRA.VDW.0>
-4.11825

>  <SCORE.INTRA.norm>
-0.232288

>  <SCORE.RESTR>
0

>  <SCORE.RESTR.CAVITY>
0

>  <SCORE.RESTR.norm>
0

>  <SCORE.SYSTEM>
0

>  <SCORE.SYSTEM.CONST>
0

>  <SCORE.SYSTEM.DIHEDRAL>
0

>  <SCORE.SYSTEM.SOLV>
0

>  <SCORE.SYSTEM.norm>
0

>  <SCORE.heavy>
31

>  <SCORE.norm>
-0.503222

>  <RMSD>
4.293

$$$$
ligand
 OpenBabel11021811493D
libRbt.so/2013.1/901 2013/11/27
 31 33  0  0  0  0  0  0  0  0999 V2000
   -3.8030   15.4899    6.6811 C   0  0  2  0  0  0  0  0  0  0  0  0
   -3.1172   14.4308    6.0199 O   0  0  0  0  0  0  0  0  0  0  0  0
    0.0749   11.8013    7.0103 C   0  0  2  0  0  0  0  0  0  0  0  0
    1.3988   11.3415    7.2979 N   0  0  0  0  0  0  0  0  0  0  0  0
    0.9048   11.9004   10.0004 C   0  0  2  0  0  0  0  0  0  0  0  0
   -5.3160   15.4014    6.2241 C   0  0  2  0  0  0  0  0  0  0  0  0
   -5.8432   14.0932    6.5982 N   0  0  0  0  0  0  0  0  0  0  0  0
    0.0720   12.4389    5.5599 C   0  0  0  0  0  0  0  0  0  0  0  0
    0.4397   11.1083   11.2633 C   0  0  2  0  0  0  0  0  0  0  0  0
   -0.3768   10.0370   10.8408 O   0  0  0  0  0  0  0  0  0  0  0  0
   -5.4336   15.6250    4.6636 C   0  0  0  0  0  0  0  0  0  0  0  0
   -1.3833   12.9486    5.2410 C   0  0  2  0  0  0  0  0  0  0  0  0
   -1.3910   13.5476    3.8953 N   0  0  0  0  0  0  0  0  0  0  0  0
   -0.3693   12.1105   12.1716 C   0  0  1  0  0  0  0  0  0  0  0  0
   -0.8616   11.3988   13.3972 N   0  0  0  0  0  0  0  0  0  0  0  0
   -4.4156   16.7214    4.1331 C   0  0  0  0  0  0  0  0  0  0  0  0
   -1.8272   14.0260    6.3262 C   0  0  2  0  0  0  0  0  0  0  0  0
    0.6382   13.3140   12.6131 C   0  0  1  0  0  0  0  0  0  0  0  0
    1.7767   12.8349   13.3085 O   0  0  0  0  0  0  0  0  0  0  0  0
   -3.4367   17.2160    4.9361 C   0  0  2  0  0  0  0  0  0  0  0  0
   -3.2640   16.7867    6.2916 O   0  0  0  0  0  0  0  0  0  0  0  0
   -1.8060   13.3700    7.7564 C   0  0  2  0  0  0  0  0  0  0  0  0
   -2.1998   14.3561    8.7347 O   0  0  0  0  0  0  0  0  0  0  0  0
    1.1598   14.0631   11.3439 C   0  0  0  0  0  0  0  0  0  0  0  0
    1.7858   13.0683   10.4023 O   0  0  0  0  0  0  0  0  0  0  0  0
   -2.4345   18.2744    4.4717 C   0  0  0  0  0  0  0  0  0  0  0  0
   -1.1304   17.6527    4.3881 O   0  0  0  0  0  0  0  0  0  0  0  0
   -0.3407   12.8877    8.0661 C   0  0  1  0  0  0  0  0  0  0  0  0
   -0.3314   12.3290    9.3422 O   0  0  0  0  0  0  0  0  0  0  0  0
    0.0033   14.3979   13.5174 C   0  0  0  0  0  0  0  0  0  0  0  0
   -2.2160   11.7524   13.8692 C   0  0  0  0  0  0  0  0  0  0  0  0
  1  2  1  6  0  0  0
  1  6  1  0  0  0  0
  1 21  1  0  0  0  0
  3  4  1  1  0  0  0
  3  8  1  0  0  0  0
  3 28  1  0  0  0  0
  5  9  1  0  0  0  0
  5 25  1  0  0  0  0
  5 29  1  1  0  0  0
  6  7  1  6  0  0  0
  6 11  1  0  0  0  0
  8 12  1  0  0  0  0
  9 10  1  6  0  0  0
  9 14  1  0  0  0  0
 11 16  1  0  0  0  0
 12 13  1  6  0  0  0
 12 17  1  0  0  0  0
 14 15  1  1  0  0  0
 14 18  1  0  0  0  0
 15 31  1  0  0  0  0
 16 20  1  0  0  0  0
 17  2  1  6  0  0  0
 17 22  1  0  0  0  0
 18 19  1  1  0  0  0
 18 24  1  0  0  0  0
 18 30  1  0  0  0  0
 20 21  1  0  0  0  0
 20 26  1  1  0  0  0
 22 23  1  1  0  0  0
 22 28  1  0  0  0  0
 24 25  1  0  0  0  0
 26 27  1  0  0  0  0
 28 29  1  1  0  0  0
M  END
>  <CHROM.1>
-168.53518696,-169.79060998,-141.18783708,-173.06482042,-111.28629908,67.57475031
-1.37372453,13.77779877,8.30125909,2.13136800,0.65618562,-1.44728092

>  <Name>
ligand

>  <RI>
0

>  <Rbt.Current_Directory>
/home/itssahil/PROJECTS/Mol_Feturizer/New_Systems/rnas/4GPX

>  <Rbt.Executable>
rbdock ($Id: //depot/dev/client3/rdock/2013.1/src/exe/rbdock.cxx#4 $)

>  <Rbt.Library>
libRbt.so (2013.1, Build901 2013/11/27)

>  <Rbt.Parameter_File>
/export/apps/rDock/src/rDock_2013.1_src/data/scripts/dock_solv.prm

>  <Rbt.Receptor>
prm/pocket_docking_4.prm

>  <SCORE>
-16.9224

>  <SCORE.INTER>
-8.95501

>  <SCORE.INTER.CONST>
1

>  <SCORE.INTER.POLAR>
0

>  <SCORE.INTER.ROT>
6

>  <SCORE.INTER.SOLV>
13.0966

>  <SCORE.INTER.VDW>
-17.9355

>  <SCORE.INTER.norm>
-0.288871

>  <SCORE.INTRA>
-7.96736

>  <SCORE.INTRA.DIHEDRAL>
-16.3812

>  <SCORE.INTRA.DIHEDRAL.0>
20.6841

>  <SCORE.INTRA.POLAR>
0

>  <SCORE.INTRA.POLAR.0>
0

>  <SCORE.INTRA.REPUL>
0

>  <SCORE.INTRA.REPUL.0>
0

>  <SCORE.INTRA.SOLV>
-1.44289

>  <SCORE.INTRA.SOLV.lig_0>
-64.6797

>  <SCORE.INTRA.VDW>
0.944683

>  <SCORE.INTRA.VDW.0>
-4.11825

>  <SCORE.INTRA.norm>
-0.257012

>  <SCORE.RESTR>
0

>  <SCORE.RESTR.CAVITY>
0

>  <SCORE.RESTR.norm>
0

>  <SCORE.SYSTEM>
0

>  <SCORE.SYSTEM.CONST>
0

>  <SCORE.SYSTEM.DIHEDRAL>
0

>  <SCORE.SYSTEM.SOLV>
0

>  <SCORE.SYSTEM.norm>
0

>  <SCORE.heavy>
31

>  <SCORE.norm>
-0.545883

>  <RMSD>
4.295

$$$$
ligand
 OpenBabel11021811493D
libRbt.so/2013.1/901 2013/11/27
 31 33  0  0  0  0  0  0  0  0999 V2000
   -1.9100   15.2306    3.9309 C   0  0  2  0  0  0  0  0  0  0  0  0
   -1.7221   14.7420    5.2557 O   0  0  0  0  0  0  0  0  0  0  0  0
    0.5450   11.6313    7.0635 C   0  0  2  0  0  0  0  0  0  0  0  0
    1.6741   10.8599    7.4842 N   0  0  0  0  0  0  0  0  0  0  0  0
    1.7671   12.5019    9.8501 C   0  0  2  0  0  0  0  0  0  0  0  0
   -1.1719   16.6292    3.8576 C   0  0  2  0  0  0  0  0  0  0  0  0
    0.2395   16.4315    4.1706 N   0  0  0  0  0  0  0  0  0  0  0  0
    0.5742   11.7378    5.4830 C   0  0  0  0  0  0  0  0  0  0  0  0
    1.3650   12.6933   11.3468 C   0  0  2  0  0  0  0  0  0  0  0  0
    0.1850   11.9571   11.5881 O   0  0  0  0  0  0  0  0  0  0  0  0
   -1.8296   17.6522    4.8675 C   0  0  0  0  0  0  0  0  0  0  0  0
   -0.6659   12.5886    5.0164 C   0  0  2  0  0  0  0  0  0  0  0  0
   -0.6411   12.6957    3.5476 N   0  0  0  0  0  0  0  0  0  0  0  0
    1.1250   14.2345   11.5725 C   0  0  1  0  0  0  0  0  0  0  0  0
    0.7146   14.4802   12.9946 N   0  0  0  0  0  0  0  0  0  0  0  0
   -3.4067   17.4914    4.9473 C   0  0  0  0  0  0  0  0  0  0  0  0
   -0.6049   14.0368    5.6756 C   0  0  2  0  0  0  0  0  0  0  0  0
    2.5270   15.0108   11.2725 C   0  0  1  0  0  0  0  0  0  0  0  0
    3.5828   14.5546   12.1010 O   0  0  0  0  0  0  0  0  0  0  0  0
   -4.0348   16.4392    4.3589 C   0  0  2  0  0  0  0  0  0  0  0  0
   -3.3248   15.4242    3.6398 O   0  0  0  0  0  0  0  0  0  0  0  0
   -0.6252   13.9014    7.2432 C   0  0  2  0  0  0  0  0  0  0  0  0
   -0.5596   15.2179    7.8324 O   0  0  0  0  0  0  0  0  0  0  0  0
    2.9666   14.7614    9.7931 C   0  0  0  0  0  0  0  0  0  0  0  0
    3.0325   13.2787    9.5379 O   0  0  0  0  0  0  0  0  0  0  0  0
   -5.5512   16.2425    4.4060 C   0  0  0  0  0  0  0  0  0  0  0  0
   -6.0784   16.4927    3.0816 O   0  0  0  0  0  0  0  0  0  0  0  0
    0.6319   13.0684    7.6918 C   0  0  1  0  0  0  0  0  0  0  0  0
    0.6133   12.9744    9.0815 O   0  0  0  0  0  0  0  0  0  0  0  0
    2.4725   16.5477   11.4480 C   0  0  0  0  0  0  0  0  0  0  0  0
   -0.7339   14.6126   13.2524 C   0  0  0  0  0  0  0  0  0  0  0  0
  1  2  1  1  0  0  0
  1  6  1  0  0  0  0
  1 21  1  0  0  0  0
  3  4  1  1  0  0  0
  3  8  1  0  0  0  0
  3 28  1  0  0  0  0
  5  9  1  0  0  0  0
  5 25  1  0  0  0  0
  5 29  1  6  0  0  0
  6  7  1  1  0  0  0
  6 11  1  0  0  0  0
  8 12  1  0  0  0  0
  9 10  1  6  0  0  0
  9 14  1  0  0  0  0
 11 16  1  0  0  0  0
 12 13  1  6  0  0  0
 12 17  1  0  0  0  0
 14 15  1  1  0  0  0
 14 18  1  0  0  0  0
 15 31  1  0  0  0  0
 16 20  1  0  0  0  0
 17  2  1  6  0  0  0
 17 22  1  0  0  0  0
 18 19  1  1  0  0  0
 18 24  1  0  0  0  0
 18 30  1  0  0  0  0
 20 21  1  0  0  0  0
 20 26  1  6  0  0  0
 22 23  1  1  0  0  0
 22 28  1  0  0  0  0
 24 25  1  0  0  0  0
 26 27  1  0  0  0  0
 28 29  1  1  0  0  0
M  END
>  <CHROM.1>
-84.75731251,174.47580365,-97.55943989,-71.44721179,109.14669167,73.82713995
-0.30094319,14.40381159,7.55423130,-2.52396052,-0.83227393,1.04055712

>  <Name>
ligand

>  <RI>
0

>  <Rbt.Current_Directory>
/home/itssahil/PROJECTS/Mol_Feturizer/New_Systems/rnas/4GPX

>  <Rbt.Executable>
rbdock ($Id: //depot/dev/client3/rdock/2013.1/src/exe/rbdock.cxx#4 $)

>  <Rbt.Library>
libRbt.so (2013.1, Build901 2013/11/27)

>  <Rbt.Parameter_File>
/export/apps/rDock/src/rDock_2013.1_src/data/scripts/dock_solv.prm

>  <Rbt.Receptor>
prm/pocket_docking_8.prm

>  <SCORE>
-13.4761

>  <SCORE.INTER>
-7.97206

>  <SCORE.INTER.CONST>
1

>  <SCORE.INTER.POLAR>
0

>  <SCORE.INTER.ROT>
6

>  <SCORE.INTER.SOLV>
10.1826

>  <SCORE.INTER.VDW>
-16.3089

>  <SCORE.INTER.norm>
-0.257163

>  <SCORE.INTRA>
-5.50399

>  <SCORE.INTRA.DIHEDRAL>
-13.7097

>  <SCORE.INTRA.DIHEDRAL.0>
20.6841

>  <SCORE.INTRA.POLAR>
0

>  <SCORE.INTRA.POLAR.0>
0

>  <SCORE.INTRA.REPUL>
0

>  <SCORE.INTRA.REPUL.0>
0

>  <SCORE.INTRA.SOLV>
1.07105

>  <SCORE.INTRA.SOLV.lig_0>
-64.6797

>  <SCORE.INTRA.VDW>
0.815341

>  <SCORE.INTRA.VDW.0>
-4.11825

>  <SCORE.INTRA.norm>
-0.177548

>  <SCORE.RESTR>
0

>  <SCORE.RESTR.CAVITY>
0

>  <SCORE.RESTR.norm>
0

>  <SCORE.SYSTEM>
0

>  <SCORE.SYSTEM.CONST>
0

>  <SCORE.SYSTEM.DIHEDRAL>
0

>  <SCORE.SYSTEM.SOLV>
0

>  <SCORE.SYSTEM.norm>
0

>  <SCORE.heavy>
31

>  <SCORE.norm>
-0.434711

>  <RMSD>
4.298

$$$$
ligand
 OpenBabel11021811493D
libRbt.so/2013.1/901 2013/11/27
 31 33  0  0  0  0  0  0  0  0999 V2000
   -2.7105   14.7398    4.4720 C   0  0  2  0  0  0  0  0  0  0  0  0
   -2.9738   14.7424    5.8720 O   0  0  0  0  0  0  0  0  0  0  0  0
   -2.0879   12.0971    9.0816 C   0  0  2  0  0  0  0  0  0  0  0  0
   -1.3321   11.3526   10.0415 N   0  0  0  0  0  0  0  0  0  0  0  0
   -1.6379   13.4645   11.7915 C   0  0  2  0  0  0  0  0  0  0  0  0
   -1.6412   15.8779    4.2126 C   0  0  2  0  0  0  0  0  0  0  0  0
   -0.4440   15.5832    4.9930 N   0  0  0  0  0  0  0  0  0  0  0  0
   -1.6011   11.6818    7.6323 C   0  0  0  0  0  0  0  0  0  0  0  0
   -2.4266   14.1115   12.9738 C   0  0  2  0  0  0  0  0  0  0  0  0
   -3.7888   13.7656   12.8420 O   0  0  0  0  0  0  0  0  0  0  0  0
   -2.2325   17.2893    4.6091 C   0  0  0  0  0  0  0  0  0  0  0  0
   -2.4291   12.5014    6.5730 C   0  0  2  0  0  0  0  0  0  0  0  0
   -1.9769   12.1234    5.2231 N   0  0  0  0  0  0  0  0  0  0  0  0
   -2.2276   15.6714   12.8698 C   0  0  1  0  0  0  0  0  0  0  0  0
   -2.9820   16.3529   13.9733 N   0  0  0  0  0  0  0  0  0  0  0  0
   -3.7703   17.4244    4.2395 C   0  0  0  0  0  0  0  0  0  0  0  0
   -2.2134   14.0612    6.8097 C   0  0  2  0  0  0  0  0  0  0  0  0
   -0.6358   15.9867   13.0281 C   0  0  1  0  0  0  0  0  0  0  0  0
   -0.1118   15.5084   14.2553 O   0  0  0  0  0  0  0  0  0  0  0  0
   -4.4907   16.3461    3.8321 C   0  0  2  0  0  0  0  0  0  0  0  0
   -3.9172   15.0392    3.7115 O   0  0  0  0  0  0  0  0  0  0  0  0
   -2.6952   14.4440    8.2580 C   0  0  2  0  0  0  0  0  0  0  0  0
   -2.4868   15.8572    8.4675 O   0  0  0  0  0  0  0  0  0  0  0  0
    0.1623   15.2805   11.8843 C   0  0  0  0  0  0  0  0  0  0  0  0
   -0.1636   13.8103   11.8859 O   0  0  0  0  0  0  0  0  0  0  0  0
   -5.9731   16.4266    3.4628 C   0  0  0  0  0  0  0  0  0  0  0  0
   -6.6880   15.4508    4.2573 O   0  0  0  0  0  0  0  0  0  0  0  0
   -1.8421   13.6329    9.3019 C   0  0  1  0  0  0  0  0  0  0  0  0
   -2.2637   13.9967   10.5789 O   0  0  0  0  0  0  0  0  0  0  0  0
   -0.2565   17.4853   12.9506 C   0  0  0  0  0  0  0  0  0  0  0  0
   -4.3267   16.8646   13.6384 C   0  0  0  0  0  0  0  0  0  0  0  0
  1  2  1  1  0  0  0
  1  6  1  0  0  0  0
  1 21  1  0  0  0  0
  3  4  1  1  0  0  0
  3  8  1  0  0  0  0
  3 28  1  0  0  0  0
  5  9  1  0  0  0  0
  5 25  1  0  0  0  0
  5 29  1  6  0  0  0
  6  7  1  1  0  0  0
  6 11  1  0  0  0  0
  8 12  1  0  0  0  0
  9 10  1  6  0  0  0
  9 14  1  0  0  0  0
 11 16  1  0  0  0  0
 12 13  1  6  0  0  0
 12 17  1  0  0  0  0
 14 15  1  1  0  0  0
 14 18  1  0  0  0  0
 15 31  1  0  0  0  0
 16 20  1  0  0  0  0
 17  2  1  6  0  0  0
 17 22  1  0  0  0  0
 18 19  1  1  0  0  0
 18 24  1  0  0  0  0
 18 30  1  0  0  0  0
 20 21  1  0  0  0  0
 20 26  1  6  0  0  0
 22 23  1  1  0  0  0
 22 28  1  0  0  0  0
 24 25  1  0  0  0  0
 26 27  1  0  0  0  0
 28 29  1  1  0  0  0
M  END
>  <CHROM.1>
-85.18264960,-179.11935233,-96.24549574,-67.96966482,-125.50305688,63.73010400
-2.41454081,14.82342749,8.66099054,-2.06683118,-1.06723632,1.16318678

>  <Name>
ligand

>  <RI>
0

>  <Rbt.Current_Directory>
/home/itssahil/PROJECTS/Mol_Feturizer/New_Systems/rnas/4GPX

>  <Rbt.Executable>
rbdock ($Id: //depot/dev/client3/rdock/2013.1/src/exe/rbdock.cxx#4 $)

>  <Rbt.Library>
libRbt.so (2013.1, Build901 2013/11/27)

>  <Rbt.Parameter_File>
/export/apps/rDock/src/rDock_2013.1_src/data/scripts/dock_solv.prm

>  <Rbt.Receptor>
prm/pocket_docking_7.prm

>  <SCORE>
-11.667

>  <SCORE.INTER>
-6.29598

>  <SCORE.INTER.CONST>
1

>  <SCORE.INTER.POLAR>
0

>  <SCORE.INTER.ROT>
6

>  <SCORE.INTER.SOLV>
7.00491

>  <SCORE.INTER.VDW>
-14.1323

>  <SCORE.INTER.norm>
-0.203096

>  <SCORE.INTRA>
-5.37098

>  <SCORE.INTRA.DIHEDRAL>
-15.0798

>  <SCORE.INTRA.DIHEDRAL.0>
20.6841

>  <SCORE.INTRA.POLAR>
0

>  <SCORE.INTRA.POLAR.0>
0

>  <SCORE.INTRA.REPUL>
0

>  <SCORE.INTRA.REPUL.0>
0

>  <SCORE.INTRA.SOLV>
1.50575

>  <SCORE.INTRA.SOLV.lig_0>
-64.6797

>  <SCORE.INTRA.VDW>
1.41605

>  <SCORE.INTRA.VDW.0>
-4.11825

>  <SCORE.INTRA.norm>
-0.173258

>  <SCORE.RESTR>
0

>  <SCORE.RESTR.CAVITY>
0

>  <SCORE.RESTR.norm>
0

>  <SCORE.SYSTEM>
0

>  <SCORE.SYSTEM.CONST>
0

>  <SCORE.SYSTEM.DIHEDRAL>
0

>  <SCORE.SYSTEM.SOLV>
0

>  <SCORE.SYSTEM.norm>
0

>  <SCORE.heavy>
31

>  <SCORE.norm>
-0.376354

>  <RMSD>
4.337

$$$$
ligand
 OpenBabel11021811493D
libRbt.so/2013.1/901 2013/11/27
 31 33  0  0  0  0  0  0  0  0999 V2000
   -1.8197   15.2331    4.1279 C   0  0  2  0  0  0  0  0  0  0  0  0
   -1.7652   15.0929    5.5445 O   0  0  0  0  0  0  0  0  0  0  0  0
   -0.3262   12.4304    8.5318 C   0  0  2  0  0  0  0  0  0  0  0  0
    0.5471   11.5386    9.2311 N   0  0  0  0  0  0  0  0  0  0  0  0
    1.5433   13.7394   10.6106 C   0  0  2  0  0  0  0  0  0  0  0  0
   -1.0019   16.5412    3.7729 C   0  0  2  0  0  0  0  0  0  0  0  0
    0.3670   16.3831    4.2528 N   0  0  0  0  0  0  0  0  0  0  0  0
   -0.5918   11.8380    7.0867 C   0  0  0  0  0  0  0  0  0  0  0  0
    1.6780   14.7564   11.7880 C   0  0  2  0  0  0  0  0  0  0  0  0
    0.3967   14.9688   12.3410 O   0  0  0  0  0  0  0  0  0  0  0  0
   -1.6803   17.8094    4.4289 C   0  0  0  0  0  0  0  0  0  0  0  0
   -1.5508   12.8184    6.3131 C   0  0  2  0  0  0  0  0  0  0  0  0
   -1.7971   12.2754    4.9662 N   0  0  0  0  0  0  0  0  0  0  0  0
    2.2620   16.0914   11.1875 C   0  0  1  0  0  0  0  0  0  0  0  0
    2.3963   17.1187   12.2727 N   0  0  0  0  0  0  0  0  0  0  0  0
   -3.2653   17.7270    4.4025 C   0  0  0  0  0  0  0  0  0  0  0  0
   -0.8812   14.2596    6.2122 C   0  0  2  0  0  0  0  0  0  0  0  0
    3.7344   15.7625   10.5691 C   0  0  1  0  0  0  0  0  0  0  0  0
    4.6210   15.2355   11.5415 O   0  0  0  0  0  0  0  0  0  0  0  0
   -3.9017   16.5809    4.0429 C   0  0  2  0  0  0  0  0  0  0  0  0
   -3.1940   15.3929    3.6699 O   0  0  0  0  0  0  0  0  0  0  0  0
   -0.6196   14.8195    7.6594 C   0  0  2  0  0  0  0  0  0  0  0  0
   -0.0036   16.1213    7.5585 O   0  0  0  0  0  0  0  0  0  0  0  0
    3.6085   14.6914    9.4374 C   0  0  0  0  0  0  0  0  0  0  0  0
    2.8976   13.4788    9.9781 O   0  0  0  0  0  0  0  0  0  0  0  0
   -5.4256   16.4534    3.9996 C   0  0  0  0  0  0  0  0  0  0  0  0
   -5.8151   15.4031    4.9159 O   0  0  0  0  0  0  0  0  0  0  0  0
    0.3572   13.8394    8.4081 C   0  0  1  0  0  0  0  0  0  0  0  0
    0.5972   14.3573    9.6789 O   0  0  0  0  0  0  0  0  0  0  0  0
    4.4600   16.9724    9.9326 C   0  0  0  0  0  0  0  0  0  0  0  0
    1.2278   17.9917   12.5063 C   0  0  0  0  0  0  0  0  0  0  0  0
  1  2  1  1  0  0  0
  1  6  1  0  0  0  0
  1 21  1  0  0  0  0
  3  4  1  1  0  0  0
  3  8  1  0  0  0  0
  3 28  1  0  0  0  0
  5  9  1  0  0  0  0
  5 25  1  0  0  0  0
  5 29  1  6  0  0  0
  6  7  1  1  0  0  0
  6 11  1  0  0  0  0
  8 12  1  0  0  0  0
  9 10  1  6  0  0  0
  9 14  1  0  0  0  0
 11 16  1  0  0  0  0
 12 13  1  6  0  0  0
 12 17  1  0  0  0  0
 14 15  1  1  0  0  0
 14 18  1  0  0  0  0
 15 31  1  0  0  0  0
 16 20  1  0  0  0  0
 17  2  1  1  0  0  0
 17 22  1  0  0  0  0
 18 19  1  1  0  0  0
 18 24  1  0  0  0  0
 18 30  1  0  0  0  0
 20 21  1  0  0  0  0
 20 26  1  6  0  0  0
 22 23  1  6  0  0  0
 22 28  1  0  0  0  0
 24 25  1  0  0  0  0
 26 27  1  0  0  0  0
 28 29  1  1  0  0  0
M  END
>  <CHROM.1>
-98.35583427,170.81912730,-89.72294657,-87.35375998,-120.21203660,65.70439112
-0.09855365,15.10404419,7.79638413,-3.03004810,0.85754714,3.04903035

>  <Name>
ligand

>  <RI>
0

>  <Rbt.Current_Directory>
/home/itssahil/PROJECTS/Mol_Feturizer/New_Systems/rnas/4GPX

>  <Rbt.Executable>
rbdock ($Id: //depot/dev/client3/rdock/2013.1/src/exe/rbdock.cxx#4 $)

>  <Rbt.Library>
libRbt.so (2013.1, Build901 2013/11/27)

>  <Rbt.Parameter_File>
/export/apps/rDock/src/rDock_2013.1_src/data/scripts/dock_solv.prm

>  <Rbt.Receptor>
prm/pocket_docking_7.prm

>  <SCORE>
-11.8661

>  <SCORE.INTER>
-8.21831

>  <SCORE.INTER.CONST>
1

>  <SCORE.INTER.POLAR>
0

>  <SCORE.INTER.ROT>
6

>  <SCORE.INTER.SOLV>
10.3295

>  <SCORE.INTER.VDW>
-16.522

>  <SCORE.INTER.norm>
-0.265107

>  <SCORE.INTRA>
-3.64781

>  <SCORE.INTRA.DIHEDRAL>
-9.61422

>  <SCORE.INTRA.DIHEDRAL.0>
20.6841

>  <SCORE.INTRA.POLAR>
0

>  <SCORE.INTRA.POLAR.0>
0

>  <SCORE.INTRA.REPUL>
0

>  <SCORE.INTRA.REPUL.0>
0

>  <SCORE.INTRA.SOLV>
0.825097

>  <SCORE.INTRA.SOLV.lig_0>
-64.6797

>  <SCORE.INTRA.VDW>
0.746755

>  <SCORE.INTRA.VDW.0>
-4.11825

>  <SCORE.INTRA.norm>
-0.117671

>  <SCORE.RESTR>
0

>  <SCORE.RESTR.CAVITY>
0

>  <SCORE.RESTR.norm>
0

>  <SCORE.SYSTEM>
0

>  <SCORE.SYSTEM.CONST>
0

>  <SCORE.SYSTEM.DIHEDRAL>
0

>  <SCORE.SYSTEM.SOLV>
0

>  <SCORE.SYSTEM.norm>
0

>  <SCORE.heavy>
31

>  <SCORE.norm>
-0.382778

>  <RMSD>
4.395

$$$$
ligand
 OpenBabel11021811493D
libRbt.so/2013.1/901 2013/11/27
 31 33  0  0  0  0  0  0  0  0999 V2000
   -2.7054   15.7169    5.2621 C   0  0  2  0  0  0  0  0  0  0  0  0
   -2.9570   16.3281    6.5240 O   0  0  0  0  0  0  0  0  0  0  0  0
    0.9107   16.4872    8.2844 C   0  0  2  0  0  0  0  0  0  0  0  0
    1.9437   16.7409    9.2412 N   0  0  0  0  0  0  0  0  0  0  0  0
    1.6622   14.2196   10.0784 C   0  0  2  0  0  0  0  0  0  0  0  0
   -3.4993   16.5631    4.1853 C   0  0  2  0  0  0  0  0  0  0  0  0
   -3.0228   17.9417    4.2279 N   0  0  0  0  0  0  0  0  0  0  0  0
    0.2068   17.8624    7.9334 C   0  0  0  0  0  0  0  0  0  0  0  0
    2.0677   12.7116   10.0889 C   0  0  2  0  0  0  0  0  0  0  0  0
    2.3113   12.3072    8.7586 O   0  0  0  0  0  0  0  0  0  0  0  0
   -5.0526   16.5004    4.4721 C   0  0  0  0  0  0  0  0  0  0  0  0
   -0.9327   17.5865    6.8821 C   0  0  2  0  0  0  0  0  0  0  0  0
   -1.5947   18.8612    6.5559 N   0  0  0  0  0  0  0  0  0  0  0  0
    0.8631   11.9084   10.7115 C   0  0  1  0  0  0  0  0  0  0  0  0
    1.1870   10.4435   10.7302 N   0  0  0  0  0  0  0  0  0  0  0  0
   -5.5141   15.0704    4.9838 C   0  0  0  0  0  0  0  0  0  0  0  0
   -1.9865   16.5573    7.4869 C   0  0  2  0  0  0  0  0  0  0  0  0
    0.6451   12.4335   12.2395 C   0  0  1  0  0  0  0  0  0  0  0  0
    1.8059   12.2683   13.0362 O   0  0  0  0  0  0  0  0  0  0  0  0
   -4.6036   14.1195    5.3222 C   0  0  2  0  0  0  0  0  0  0  0  0
   -3.1913   14.3431    5.2394 O   0  0  0  0  0  0  0  0  0  0  0  0
   -1.2598   15.2057    7.8353 C   0  0  2  0  0  0  0  0  0  0  0  0
   -2.2201   14.2825    8.3920 O   0  0  0  0  0  0  0  0  0  0  0  0
    0.3083   13.9601   12.2340 C   0  0  0  0  0  0  0  0  0  0  0  0
    1.3856   14.7037   11.4894 O   0  0  0  0  0  0  0  0  0  0  0  0
   -4.9991   12.7271    5.8176 C   0  0  0  0  0  0  0  0  0  0  0  0
   -5.4606   12.8502    7.1837 O   0  0  0  0  0  0  0  0  0  0  0  0
   -0.1411   15.4975    8.9024 C   0  0  1  0  0  0  0  0  0  0  0  0
    0.4794   14.2907    9.2175 O   0  0  0  0  0  0  0  0  0  0  0  0
   -0.5085   11.7448   13.0080 C   0  0  0  0  0  0  0  0  0  0  0  0
    0.7435    9.6523    9.5642 C   0  0  0  0  0  0  0  0  0  0  0  0
  1  2  1  1  0  0  0
  1  6  1  0  0  0  0
  1 21  1  0  0  0  0
  3  4  1  1  0  0  0
  3  8  1  0  0  0  0
  3 28  1  0  0  0  0
  5  9  1  0  0  0  0
  5 25  1  0  0  0  0
  5 29  1  6  0  0  0
  6  7  1  1  0  0  0
  6 11  1  0  0  0  0
  8 12  1  0  0  0  0
  9 10  1  6  0  0  0
  9 14  1  0  0  0  0
 11 16  1  0  0  0  0
 12 13  1  1  0  0  0
 12 17  1  0  0  0  0
 14 15  1  1  0  0  0
 14 18  1  0  0  0  0
 15 31  1  0  0  0  0
 16 20  1  0  0  0  0
 17  2  1  6  0  0  0
 17 22  1  0  0  0  0
 18 19  1  1  0  0  0
 18 24  1  0  0  0  0
 18 30  1  0  0  0  0
 20 21  1  0  0  0  0
 20 26  1  6  0  0  0
 22 23  1  1  0  0  0
 22 28  1  0  0  0  0
 24 25  1  0  0  0  0
 26 27  1  0  0  0  0
 28 29  1  6  0  0  0
M  END
>  <CHROM.1>
-136.52791395,-176.59739355,-92.67512102,63.72938658,-74.94162484,54.78517241
-1.07295767,14.53091668,8.28046857,-2.40259028,0.64691379,2.68567981

>  <Name>
ligand

>  <RI>
0

>  <Rbt.Current_Directory>
/home/itssahil/PROJECTS/Mol_Feturizer/New_Systems/rnas/4GPX

>  <Rbt.Executable>
rbdock ($Id: //depot/dev/client3/rdock/2013.1/src/exe/rbdock.cxx#4 $)

>  <Rbt.Library>
libRbt.so (2013.1, Build901 2013/11/27)

>  <Rbt.Parameter_File>
/export/apps/rDock/src/rDock_2013.1_src/data/scripts/dock_solv.prm

>  <Rbt.Receptor>
prm/pocket_docking_6.prm

>  <SCORE>
-10.8869

>  <SCORE.INTER>
-8.21791

>  <SCORE.INTER.CONST>
1

>  <SCORE.INTER.POLAR>
0

>  <SCORE.INTER.ROT>
6

>  <SCORE.INTER.SOLV>
11.2864

>  <SCORE.INTER.VDW>
-16.8407

>  <SCORE.INTER.norm>
-0.265094

>  <SCORE.INTRA>
-2.66895

>  <SCORE.INTRA.DIHEDRAL>
-10.4837

>  <SCORE.INTRA.DIHEDRAL.0>
20.6841

>  <SCORE.INTRA.POLAR>
0

>  <SCORE.INTRA.POLAR.0>
0

>  <SCORE.INTRA.REPUL>
0

>  <SCORE.INTRA.REPUL.0>
0

>  <SCORE.INTRA.SOLV>
2.01979

>  <SCORE.INTRA.SOLV.lig_0>
-64.6797

>  <SCORE.INTRA.VDW>
1.56301

>  <SCORE.INTRA.VDW.0>
-4.11825

>  <SCORE.INTRA.norm>
-0.086095

>  <SCORE.RESTR>
0

>  <SCORE.RESTR.CAVITY>
0

>  <SCORE.RESTR.norm>
0

>  <SCORE.SYSTEM>
0

>  <SCORE.SYSTEM.CONST>
0

>  <SCORE.SYSTEM.DIHEDRAL>
0

>  <SCORE.SYSTEM.SOLV>
0

>  <SCORE.SYSTEM.norm>
0

>  <SCORE.heavy>
31

>  <SCORE.norm>
-0.351189

>  <RMSD>
4.410

$$$$
ligand
 OpenBabel11021811493D
libRbt.so/2013.1/901 2013/11/27
 31 33  0  0  0  0  0  0  0  0999 V2000
   -2.0239   15.2496    4.7919 C   0  0  2  0  0  0  0  0  0  0  0  0
   -2.0496   15.5375    6.1868 O   0  0  0  0  0  0  0  0  0  0  0  0
   -2.5810   12.9154    9.4923 C   0  0  2  0  0  0  0  0  0  0  0  0
   -2.2817   11.9511   10.5059 N   0  0  0  0  0  0  0  0  0  0  0  0
   -1.1544   15.8739   11.4649 C   0  0  2  0  0  0  0  0  0  0  0  0
   -1.2659   16.4533    4.0973 C   0  0  2  0  0  0  0  0  0  0  0  0
    0.0774   16.5483    4.6592 N   0  0  0  0  0  0  0  0  0  0  0  0
   -2.2804   12.2642    8.0796 C   0  0  0  0  0  0  0  0  0  0  0  0
    0.1906   15.2444   11.9480 C   0  0  2  0  0  0  0  0  0  0  0  0
    0.7991   14.5985   10.8502 O   0  0  0  0  0  0  0  0  0  0  0  0
   -2.0592   17.8030    4.3163 C   0  0  0  0  0  0  0  0  0  0  0  0
   -2.6063   13.3239    6.9614 C   0  0  2  0  0  0  0  0  0  0  0  0
   -2.3234   12.7258    5.6453 N   0  0  0  0  0  0  0  0  0  0  0  0
   -0.1590   14.2129   13.0871 C   0  0  1  0  0  0  0  0  0  0  0  0
    1.0975   13.5578   13.5802 N   0  0  0  0  0  0  0  0  0  0  0  0
   -3.6316   17.5960    4.2497 C   0  0  0  0  0  0  0  0  0  0  0  0
   -1.7165   14.6267    7.1773 C   0  0  2  0  0  0  0  0  0  0  0  0
   -0.8573   15.0332   14.3110 C   0  0  1  0  0  0  0  0  0  0  0  0
   -0.0195   16.0571   14.8198 O   0  0  0  0  0  0  0  0  0  0  0  0
   -4.1741   16.3499    4.2220 C   0  0  2  0  0  0  0  0  0  0  0  0
   -3.3740   15.1622    4.2502 O   0  0  0  0  0  0  0  0  0  0  0  0
   -2.0274   15.2465    8.5898 C   0  0  2  0  0  0  0  0  0  0  0  0
   -1.2095   16.4208    8.7812 O   0  0  0  0  0  0  0  0  0  0  0  0
   -2.1679   15.7223   13.8095 C   0  0  0  0  0  0  0  0  0  0  0  0
   -1.8514   16.5799   12.6128 O   0  0  0  0  0  0  0  0  0  0  0  0
   -5.6818   16.0996    4.1552 C   0  0  0  0  0  0  0  0  0  0  0  0
   -5.9452   15.2408    3.0206 O   0  0  0  0  0  0  0  0  0  0  0  0
   -1.6747   14.1825    9.6939 C   0  0  1  0  0  0  0  0  0  0  0  0
   -1.9340   14.7510   10.9390 O   0  0  0  0  0  0  0  0  0  0  0  0
   -1.2687   14.1672   15.5261 C   0  0  0  0  0  0  0  0  0  0  0  0
    1.4944   12.3007   12.9137 C   0  0  0  0  0  0  0  0  0  0  0  0
  1  2  1  1  0  0  0
  1  6  1  0  0  0  0
  1 21  1  0  0  0  0
  3  4  1  1  0  0  0
  3  8  1  0  0  0  0
  3 28  1  0  0  0  0
  5  9  1  0  0  0  0
  5 25  1  0  0  0  0
  5 29  1  1  0  0  0
  6  7  1  1  0  0  0
  6 11  1  0  0  0  0
  8 12  1  0  0  0  0
  9 10  1  6  0  0  0
  9 14  1  0  0  0  0
 11 16  1  0  0  0  0
 12 13  1  6  0  0  0
 12 17  1  0  0  0  0
 14 15  1  1  0  0  0
 14 18  1  0  0  0  0
 15 31  1  0  0  0  0
 16 20  1  0  0  0  0
 17  2  1  6  0  0  0
 17 22  1  0  0  0  0
 18 19  1  1  0  0  0
 18 24  1  0  0  0  0
 18 30  1  0  0  0  0
 20 21  1  0  0  0  0
 20 26  1  6  0  0  0
 22 23  1  1  0  0  0
 22 28  1  0  0  0  0
 24 25  1  0  0  0  0
 26 27  1  0  0  0  0
 28 29  1  1  0  0  0
M  END
>  <CHROM.1>
-132.74780322,-76.70585988,-91.36088444,-54.19366283,125.53818996,174.18057917
-1.76602822,14.97610025,8.87834305,2.80106938,-1.24510025,-0.22000071

>  <Name>
ligand

>  <RI>
0

>  <Rbt.Current_Directory>
/home/itssahil/PROJECTS/Mol_Feturizer/New_Systems/rnas/4GPX

>  <Rbt.Executable>
rbdock ($Id: //depot/dev/client3/rdock/2013.1/src/exe/rbdock.cxx#4 $)

>  <Rbt.Library>
libRbt.so (2013.1, Build901 2013/11/27)

>  <Rbt.Parameter_File>
/export/apps/rDock/src/rDock_2013.1_src/data/scripts/dock_solv.prm

>  <Rbt.Receptor>
prm/pocket_docking_7.prm

>  <SCORE>
-13.7204

>  <SCORE.INTER>
-10.8398

>  <SCORE.INTER.CONST>
1

>  <SCORE.INTER.POLAR>
0

>  <SCORE.INTER.ROT>
6

>  <SCORE.INTER.SOLV>
9.68528

>  <SCORE.INTER.VDW>
-18.0549

>  <SCORE.INTER.norm>
-0.34967

>  <SCORE.INTRA>
-2.88065

>  <SCORE.INTRA.DIHEDRAL>
-10.2689

>  <SCORE.INTRA.DIHEDRAL.0>
20.6841

>  <SCORE.INTRA.POLAR>
0

>  <SCORE.INTRA.POLAR.0>
0

>  <SCORE.INTRA.REPUL>
0

>  <SCORE.INTRA.REPUL.0>
0

>  <SCORE.INTRA.SOLV>
-0.240305

>  <SCORE.INTRA.SOLV.lig_0>
-64.6797

>  <SCORE.INTRA.VDW>
2.37396

>  <SCORE.INTRA.VDW.0>
-4.11825

>  <SCORE.INTRA.norm>
-0.0929241

>  <SCORE.RESTR>
0

>  <SCORE.RESTR.CAVITY>
0

>  <SCORE.RESTR.norm>
0

>  <SCORE.SYSTEM>
0

>  <SCORE.SYSTEM.CONST>
0

>  <SCORE.SYSTEM.DIHEDRAL>
0

>  <SCORE.SYSTEM.SOLV>
0

>  <SCORE.SYSTEM.norm>
0

>  <SCORE.heavy>
31

>  <SCORE.norm>
-0.442594

>  <RMSD>
4.411

$$$$
ligand
 OpenBabel11021811493D
libRbt.so/2013.1/901 2013/11/27
 31 33  0  0  0  0  0  0  0  0999 V2000
   -3.7203   15.5958    6.5800 C   0  0  2  0  0  0  0  0  0  0  0  0
   -2.8977   14.6007    5.9780 O   0  0  0  0  0  0  0  0  0  0  0  0
    0.4677   12.2413    7.0694 C   0  0  2  0  0  0  0  0  0  0  0  0
    1.8021   11.8989    7.4555 N   0  0  0  0  0  0  0  0  0  0  0  0
    0.9883   12.0471   10.0815 C   0  0  2  0  0  0  0  0  0  0  0  0
   -5.1738   15.3995    5.9844 C   0  0  2  0  0  0  0  0  0  0  0  0
   -5.6315   14.0503    6.2995 N   0  0  0  0  0  0  0  0  0  0  0  0
    0.5307   13.0156    5.6888 C   0  0  0  0  0  0  0  0  0  0  0  0
    0.4730   11.2117   11.2961 C   0  0  2  0  0  0  0  0  0  0  0  0
   -0.3149   10.1492   10.8029 O   0  0  0  0  0  0  0  0  0  0  0  0
   -5.1645   15.6349    4.4213 C   0  0  0  0  0  0  0  0  0  0  0  0
   -0.9364   13.3964    5.2619 C   0  0  2  0  0  0  0  0  0  0  0  0
   -0.8837   14.1218    3.9810 N   0  0  0  0  0  0  0  0  0  0  0  0
   -0.3843   12.1787   12.1981 C   0  0  1  0  0  0  0  0  0  0  0  0
   -0.9257   11.4247   13.3768 N   0  0  0  0  0  0  0  0  0  0  0  0
   -4.1891   16.8121    3.9945 C   0  0  0  0  0  0  0  0  0  0  0  0
   -1.6051   14.3073    6.3839 C   0  0  2  0  0  0  0  0  0  0  0  0
    0.5924   13.3740   12.7231 C   0  0  1  0  0  0  0  0  0  0  0  0
    1.7022   12.8803   13.4539 O   0  0  0  0  0  0  0  0  0  0  0  0
   -3.3286   17.3683    4.8878 C   0  0  2  0  0  0  0  0  0  0  0  0
   -3.2486   16.9348    6.2506 O   0  0  0  0  0  0  0  0  0  0  0  0
   -1.6459   13.5186    7.7449 C   0  0  2  0  0  0  0  0  0  0  0  0
   -2.2442   14.3551    8.7583 O   0  0  0  0  0  0  0  0  0  0  0  0
    1.1648   14.1670   11.5035 C   0  0  0  0  0  0  0  0  0  0  0  0
    1.8408   13.2073   10.5601 O   0  0  0  0  0  0  0  0  0  0  0  0
   -2.3719   18.5056    4.5250 C   0  0  0  0  0  0  0  0  0  0  0  0
   -1.0230   18.0676    4.8131 O   0  0  0  0  0  0  0  0  0  0  0  0
   -0.1713   13.1669    8.1660 C   0  0  1  0  0  0  0  0  0  0  0  0
   -0.2203   12.4885    9.3817 O   0  0  0  0  0  0  0  0  0  0  0  0
   -0.0915   14.4240   13.6317 C   0  0  0  0  0  0  0  0  0  0  0  0
   -2.3366   11.6782   13.7339 C   0  0  0  0  0  0  0  0  0  0  0  0
  1  2  1  6  0  0  0
  1  6  1  0  0  0  0
  1 21  1  0  0  0  0
  3  4  1  1  0  0  0
  3  8  1  0  0  0  0
  3 28  1  0  0  0  0
  5  9  1  0  0  0  0
  5 25  1  0  0  0  0
  5 29  1  1  0  0  0
  6  7  1  6  0  0  0
  6 11  1  0  0  0  0
  8 12  1  0  0  0  0
  9 10  1  6  0  0  0
  9 14  1  0  0  0  0
 11 16  1  0  0  0  0
 12 13  1  6  0  0  0
 12 17  1  0  0  0  0
 14 15  1  1  0  0  0
 14 18  1  0  0  0  0
 15 31  1  0  0  0  0
 16 20  1  0  0  0  0
 17  2  1  6  0  0  0
 17 22  1  0  0  0  0
 18 19  1  1  0  0  0
 18 24  1  0  0  0  0
 18 30  1  0  0  0  0
 20 21  1  0  0  0  0
 20 26  1  1  0  0  0
 22 23  1  1  0  0  0
 22 28  1  0  0  0  0
 24 25  1  0  0  0  0
 26 27  1  0  0  0  0
 28 29  1  1  0  0  0
M  END
>  <CHROM.1>
-169.77962169,-174.12881554,-136.64899346,-167.21215102,-122.45466302,63.13024013
-1.24545712,13.95323040,8.32362756,2.03696972,0.47848043,-1.30276213

>  <Name>
ligand

>  <RI>
0

>  <Rbt.Current_Directory>
/home/itssahil/PROJECTS/Mol_Feturizer/New_Systems/rnas/4GPX

>  <Rbt.Executable>
rbdock ($Id: //depot/dev/client3/rdock/2013.1/src/exe/rbdock.cxx#4 $)

>  <Rbt.Library>
libRbt.so (2013.1, Build901 2013/11/27)

>  <Rbt.Parameter_File>
/export/apps/rDock/src/rDock_2013.1_src/data/scripts/dock_solv.prm

>  <Rbt.Receptor>
prm/pocket_docking_8.prm

>  <SCORE>
-17.0805

>  <SCORE.INTER>
-9.21268

>  <SCORE.INTER.CONST>
1

>  <SCORE.INTER.POLAR>
0

>  <SCORE.INTER.ROT>
6

>  <SCORE.INTER.SOLV>
11.3083

>  <SCORE.INTER.VDW>
-17.5112

>  <SCORE.INTER.norm>
-0.297183

>  <SCORE.INTRA>
-7.86783

>  <SCORE.INTRA.DIHEDRAL>
-16.5004

>  <SCORE.INTRA.DIHEDRAL.0>
20.6841

>  <SCORE.INTRA.POLAR>
0

>  <SCORE.INTRA.POLAR.0>
0

>  <SCORE.INTRA.REPUL>
0

>  <SCORE.INTRA.REPUL.0>
0

>  <SCORE.INTRA.SOLV>
-1.05089

>  <SCORE.INTRA.SOLV.lig_0>
-64.6797

>  <SCORE.INTRA.VDW>
0.907806

>  <SCORE.INTRA.VDW.0>
-4.11825

>  <SCORE.INTRA.norm>
-0.253801

>  <SCORE.RESTR>
0

>  <SCORE.RESTR.CAVITY>
0

>  <SCORE.RESTR.norm>
0

>  <SCORE.SYSTEM>
0

>  <SCORE.SYSTEM.CONST>
0

>  <SCORE.SYSTEM.DIHEDRAL>
0

>  <SCORE.SYSTEM.SOLV>
0

>  <SCORE.SYSTEM.norm>
0

>  <SCORE.heavy>
31

>  <SCORE.norm>
-0.550984

>  <RMSD>
4.448

$$$$
ligand
 OpenBabel11021811493D
libRbt.so/2013.1/901 2013/11/27
 31 33  0  0  0  0  0  0  0  0999 V2000
   -3.7237   15.6408    6.5060 C   0  0  2  0  0  0  0  0  0  0  0  0
   -3.0816   14.5705    5.8195 O   0  0  0  0  0  0  0  0  0  0  0  0
    0.3882   12.2189    6.5369 C   0  0  2  0  0  0  0  0  0  0  0  0
    1.7675   11.8539    6.6421 N   0  0  0  0  0  0  0  0  0  0  0  0
    1.6988   12.7427    9.3144 C   0  0  2  0  0  0  0  0  0  0  0  0
   -5.2594   15.5601    6.1303 C   0  0  2  0  0  0  0  0  0  0  0  0
   -5.7757   14.2596    6.5440 N   0  0  0  0  0  0  0  0  0  0  0  0
    0.1043   12.6727    5.0458 C   0  0  0  0  0  0  0  0  0  0  0  0
    1.5407   12.5044   10.8496 C   0  0  2  0  0  0  0  0  0  0  0  0
    0.6468   11.4292   11.0431 O   0  0  0  0  0  0  0  0  0  0  0  0
   -5.4576   15.7706    4.5762 C   0  0  0  0  0  0  0  0  0  0  0  0
   -1.4127   13.0778    4.9269 C   0  0  2  0  0  0  0  0  0  0  0  0
   -1.6815   13.5061    3.5435 N   0  0  0  0  0  0  0  0  0  0  0  0
    0.9676   13.8340   11.4720 C   0  0  1  0  0  0  0  0  0  0  0  0
    0.7745   13.6594   12.9496 N   0  0  0  0  0  0  0  0  0  0  0  0
   -4.4610   16.8541    3.9824 C   0  0  0  0  0  0  0  0  0  0  0  0
   -1.7360   14.2608    5.9426 C   0  0  2  0  0  0  0  0  0  0  0  0
    2.0519   15.0221   11.2051 C   0  0  1  0  0  0  0  0  0  0  0  0
    3.3208   14.7283   11.7645 O   0  0  0  0  0  0  0  0  0  0  0  0
   -3.4374   17.3481    4.7279 C   0  0  2  0  0  0  0  0  0  0  0  0
   -3.1965   16.9298    6.0764 O   0  0  0  0  0  0  0  0  0  0  0  0
   -1.4363   13.7870    7.4129 C   0  0  2  0  0  0  0  0  0  0  0  0
   -1.7224   14.8685    8.3257 O   0  0  0  0  0  0  0  0  0  0  0  0
    2.2634   15.2132    9.6680 C   0  0  0  0  0  0  0  0  0  0  0  0
    2.6508   13.8946    9.0523 O   0  0  0  0  0  0  0  0  0  0  0  0
   -2.4533   18.3944    4.2012 C   0  0  0  0  0  0  0  0  0  0  0  0
   -1.1317   17.8048    4.1934 O   0  0  0  0  0  0  0  0  0  0  0  0
    0.0873   13.4084    7.5178 C   0  0  1  0  0  0  0  0  0  0  0  0
    0.3436   13.0116    8.8284 O   0  0  0  0  0  0  0  0  0  0  0  0
    1.6472   16.4108   11.7560 C   0  0  0  0  0  0  0  0  0  0  0  0
   -0.4811   13.0119   13.3814 C   0  0  0  0  0  0  0  0  0  0  0  0
  1  2  1  6  0  0  0
  1  6  1  0  0  0  0
  1 21  1  0  0  0  0
  3  4  1  6  0  0  0
  3  8  1  0  0  0  0
  3 28  1  0  0  0  0
  5  9  1  0  0  0  0
  5 25  1  0  0  0  0
  5 29  1  1  0  0  0
  6  7  1  6  0  0  0
  6 11  1  0  0  0  0
  8 12  1  0  0  0  0
  9 10  1  6  0  0  0
  9 14  1  0  0  0  0
 11 16  1  0  0  0  0
 12 13  1  6  0  0  0
 12 17  1  0  0  0  0
 14 15  1  1  0  0  0
 14 18  1  0  0  0  0
 15 31  1  0  0  0  0
 16 20  1  0  0  0  0
 17  2  1  1  0  0  0
 17 22  1  0  0  0  0
 18 19  1  1  0  0  0
 18 24  1  0  0  0  0
 18 30  1  0  0  0  0
 20 21  1  0  0  0  0
 20 26  1  1  0  0  0
 22 23  1  1  0  0  0
 22 28  1  0  0  0  0
 24 25  1  0  0  0  0
 26 27  1  0  0  0  0
 28 29  1  1  0  0  0
M  END
>  <CHROM.1>
-176.68511337,173.35120294,-83.40805529,-175.69136442,-117.44869416,68.70143617
-0.82410053,14.47614910,7.76918899,2.52890648,0.72729728,-1.97363739

>  <Name>
ligand

>  <RI>
0

>  <Rbt.Current_Directory>
/home/itssahil/PROJECTS/Mol_Feturizer/New_Systems/rnas/4GPX

>  <Rbt.Executable>
rbdock ($Id: //depot/dev/client3/rdock/2013.1/src/exe/rbdock.cxx#4 $)

>  <Rbt.Library>
libRbt.so (2013.1, Build901 2013/11/27)

>  <Rbt.Parameter_File>
/export/apps/rDock/src/rDock_2013.1_src/data/scripts/dock_solv.prm

>  <Rbt.Receptor>
prm/pocket_docking_5.prm

>  <SCORE>
-15.5304

>  <SCORE.INTER>
-6.95297

>  <SCORE.INTER.CONST>
1

>  <SCORE.INTER.POLAR>
0

>  <SCORE.INTER.ROT>
6

>  <SCORE.INTER.SOLV>
13.0167

>  <SCORE.INTER.VDW>
-16.5742

>  <SCORE.INTER.norm>
-0.224289

>  <SCORE.INTRA>
-8.57746

>  <SCORE.INTRA.DIHEDRAL>
-17.8557

>  <SCORE.INTRA.DIHEDRAL.0>
20.6841

>  <SCORE.INTRA.POLAR>
0

>  <SCORE.INTRA.POLAR.0>
0

>  <SCORE.INTRA.REPUL>
0

>  <SCORE.INTRA.REPUL.0>
0

>  <SCORE.INTRA.SOLV>
-1.48456

>  <SCORE.INTRA.SOLV.lig_0>
-64.6797

>  <SCORE.INTRA.VDW>
1.09268

>  <SCORE.INTRA.VDW.0>
-4.11825

>  <SCORE.INTRA.norm>
-0.276692

>  <SCORE.RESTR>
0

>  <SCORE.RESTR.CAVITY>
0

>  <SCORE.RESTR.norm>
0

>  <SCORE.SYSTEM>
0

>  <SCORE.SYSTEM.CONST>
0

>  <SCORE.SYSTEM.DIHEDRAL>
0

>  <SCORE.SYSTEM.SOLV>
0

>  <SCORE.SYSTEM.norm>
0

>  <SCORE.heavy>
31

>  <SCORE.norm>
-0.500982

>  <RMSD>
4.510

$$$$
ligand
 OpenBabel11021811493D
libRbt.so/2013.1/901 2013/11/27
 31 33  0  0  0  0  0  0  0  0999 V2000
   -1.6769   15.4179    4.5487 C   0  0  2  0  0  0  0  0  0  0  0  0
   -1.6518   15.5864    5.9630 O   0  0  0  0  0  0  0  0  0  0  0  0
   -2.5469   13.2075    9.3723 C   0  0  2  0  0  0  0  0  0  0  0  0
   -2.4940   12.1301   10.3122 N   0  0  0  0  0  0  0  0  0  0  0  0
    0.4877   14.9810   10.8869 C   0  0  2  0  0  0  0  0  0  0  0  0
   -1.0077   16.7118    3.9290 C   0  0  2  0  0  0  0  0  0  0  0  0
    0.3542   16.8261    4.4402 N   0  0  0  0  0  0  0  0  0  0  0  0
   -2.8983   12.6103    7.9477 C   0  0  0  0  0  0  0  0  0  0  0  0
    0.6806   14.7188   12.4143 C   0  0  2  0  0  0  0  0  0  0  0  0
    0.5681   13.3307   12.6449 O   0  0  0  0  0  0  0  0  0  0  0  0
   -1.8513   17.9973    4.2960 C   0  0  0  0  0  0  0  0  0  0  0  0
   -2.9548   13.7932    6.9099 C   0  0  2  0  0  0  0  0  0  0  0  0
   -3.2759   13.2431    5.5818 N   0  0  0  0  0  0  0  0  0  0  0  0
   -0.4527   15.5104   13.1709 C   0  0  1  0  0  0  0  0  0  0  0  0
   -0.3311   15.2804   14.6486 N   0  0  0  0  0  0  0  0  0  0  0  0
   -3.4139   17.7187    4.2775 C   0  0  0  0  0  0  0  0  0  0  0  0
   -1.5509   14.5436    6.8708 C   0  0  2  0  0  0  0  0  0  0  0  0
   -0.2557   17.0973   12.8527 C   0  0  1  0  0  0  0  0  0  0  0  0
    1.0198   17.5716   13.2498 O   0  0  0  0  0  0  0  0  0  0  0  0
   -3.8992   16.4539    4.1657 C   0  0  2  0  0  0  0  0  0  0  0  0
   -3.0450   15.3092    4.0583 O   0  0  0  0  0  0  0  0  0  0  0  0
   -1.2225   15.1175    8.2987 C   0  0  2  0  0  0  0  0  0  0  0  0
    0.0560   15.7871    8.2565 O   0  0  0  0  0  0  0  0  0  0  0  0
   -0.3788   17.3503   11.3149 C   0  0  0  0  0  0  0  0  0  0  0  0
    0.5967   16.4641   10.5862 O   0  0  0  0  0  0  0  0  0  0  0  0
   -5.3954   16.1355    4.1407 C   0  0  0  0  0  0  0  0  0  0  0  0
   -5.7117   15.3691    5.3269 O   0  0  0  0  0  0  0  0  0  0  0  0
   -1.1480   13.9199    9.3164 C   0  0  1  0  0  0  0  0  0  0  0  0
   -0.8358   14.4391   10.5709 O   0  0  0  0  0  0  0  0  0  0  0  0
   -1.2923   18.0310   13.5230 C   0  0  0  0  0  0  0  0  0  0  0  0
   -1.0496   14.1127   15.1984 C   0  0  0  0  0  0  0  0  0  0  0  0
  1  2  1  1  0  0  0
  1  6  1  0  0  0  0
  1 21  1  0  0  0  0
  3  4  1  1  0  0  0
  3  8  1  0  0  0  0
  3 28  1  0  0  0  0
  5  9  1  0  0  0  0
  5 25  1  0  0  0  0
  5 29  1  1  0  0  0
  6  7  1  1  0  0  0
  6 11  1  0  0  0  0
  8 12  1  0  0  0  0
  9 10  1  6  0  0  0
  9 14  1  0  0  0  0
 11 16  1  0  0  0  0
 12 13  1  6  0  0  0
 12 17  1  0  0  0  0
 14 15  1  1  0  0  0
 14 18  1  0  0  0  0
 15 31  1  0  0  0  0
 16 20  1  0  0  0  0
 17  2  1  6  0  0  0
 17 22  1  0  0  0  0
 18 19  1  1  0  0  0
 18 24  1  0  0  0  0
 18 30  1  0  0  0  0
 20 21  1  0  0  0  0
 20 26  1  6  0  0  0
 22 23  1  6  0  0  0
 22 28  1  0  0  0  0
 24 25  1  0  0  0  0
 26 27  1  0  0  0  0
 28 29  1  1  0  0  0
M  END
>  <CHROM.1>
-149.13369831,-149.99544154,-88.64376504,-73.82494588,-114.78530706,170.52416038
-1.49599094,15.38971142,8.70500144,-2.17623051,0.97565081,2.13650349

>  <Name>
ligand

>  <RI>
0

>  <Rbt.Current_Directory>
/home/itssahil/PROJECTS/Mol_Feturizer/New_Systems/rnas/4GPX

>  <Rbt.Executable>
rbdock ($Id: //depot/dev/client3/rdock/2013.1/src/exe/rbdock.cxx#4 $)

>  <Rbt.Library>
libRbt.so (2013.1, Build901 2013/11/27)

>  <Rbt.Parameter_File>
/export/apps/rDock/src/rDock_2013.1_src/data/scripts/dock_solv.prm

>  <Rbt.Receptor>
prm/pocket_docking_8.prm

>  <SCORE>
-11.6531

>  <SCORE.INTER>
-8.59228

>  <SCORE.INTER.CONST>
1

>  <SCORE.INTER.POLAR>
0

>  <SCORE.INTER.ROT>
6

>  <SCORE.INTER.SOLV>
8.80514

>  <SCORE.INTER.VDW>
-16.2632

>  <SCORE.INTER.norm>
-0.27717

>  <SCORE.INTRA>
-3.06086

>  <SCORE.INTRA.DIHEDRAL>
-9.70388

>  <SCORE.INTRA.DIHEDRAL.0>
20.6841

>  <SCORE.INTRA.POLAR>
0

>  <SCORE.INTRA.POLAR.0>
0

>  <SCORE.INTRA.REPUL>
0

>  <SCORE.INTRA.REPUL.0>
0

>  <SCORE.INTRA.SOLV>
0.939019

>  <SCORE.INTRA.SOLV.lig_0>
-64.6797

>  <SCORE.INTRA.VDW>
1.32157

>  <SCORE.INTRA.VDW.0>
-4.11825

>  <SCORE.INTRA.norm>
-0.0987373

>  <SCORE.RESTR>
0

>  <SCORE.RESTR.CAVITY>
0

>  <SCORE.RESTR.norm>
0

>  <SCORE.SYSTEM>
0

>  <SCORE.SYSTEM.CONST>
0

>  <SCORE.SYSTEM.DIHEDRAL>
0

>  <SCORE.SYSTEM.SOLV>
0

>  <SCORE.SYSTEM.norm>
0

>  <SCORE.heavy>
31

>  <SCORE.norm>
-0.375908

>  <RMSD>
4.534

$$$$
ligand
 OpenBabel11021811493D
libRbt.so/2013.1/901 2013/11/27
 31 33  0  0  0  0  0  0  0  0999 V2000
   -1.8657   16.9485    6.8121 C   0  0  2  0  0  0  0  0  0  0  0  0
   -3.2440   16.6077    6.6963 O   0  0  0  0  0  0  0  0  0  0  0  0
   -5.9057   13.9607    8.6945 C   0  0  2  0  0  0  0  0  0  0  0  0
   -6.5152   12.7421    9.1308 N   0  0  0  0  0  0  0  0  0  0  0  0
   -4.7204   12.7367   11.3050 C   0  0  2  0  0  0  0  0  0  0  0  0
   -1.7400   18.4679    6.3857 C   0  0  2  0  0  0  0  0  0  0  0  0
   -2.5769   19.2735    7.2688 N   0  0  0  0  0  0  0  0  0  0  0  0
   -5.9737   14.0143    7.1126 C   0  0  0  0  0  0  0  0  0  0  0  0
   -4.5949   13.1452   12.8071 C   0  0  2  0  0  0  0  0  0  0  0  0
   -5.4439   14.2485   13.0405 O   0  0  0  0  0  0  0  0  0  0  0  0
   -2.1779   18.6546    4.8783 C   0  0  0  0  0  0  0  0  0  0  0  0
   -5.3012   15.3533    6.6285 C   0  0  2  0  0  0  0  0  0  0  0  0
   -5.3565   15.4063    5.1576 N   0  0  0  0  0  0  0  0  0  0  0  0
   -3.0877   13.5286   13.0625 C   0  0  1  0  0  0  0  0  0  0  0  0
   -2.9076   13.9509   14.4908 N   0  0  0  0  0  0  0  0  0  0  0  0
   -1.7196   17.4417    3.9626 C   0  0  0  0  0  0  0  0  0  0  0  0
   -3.7892   15.4076    7.1254 C   0  0  2  0  0  0  0  0  0  0  0  0
   -2.1767   12.2085   12.7698 C   0  0  1  0  0  0  0  0  0  0  0  0
   -2.5456   11.1086   13.5846 O   0  0  0  0  0  0  0  0  0  0  0  0
   -1.2065   16.3069    4.5072 C   0  0  2  0  0  0  0  0  0  0  0  0
   -1.0484   16.1356    5.9204 O   0  0  0  0  0  0  0  0  0  0  0  0
   -3.7505   15.3428    8.6972 C   0  0  2  0  0  0  0  0  0  0  0  0
   -2.3763   15.3824    9.1382 O   0  0  0  0  0  0  0  0  0  0  0  0
   -2.3567   11.7570   11.2840 C   0  0  0  0  0  0  0  0  0  0  0  0
   -3.8217   11.5528   11.0011 O   0  0  0  0  0  0  0  0  0  0  0  0
   -0.7489   15.1132    3.6668 C   0  0  0  0  0  0  0  0  0  0  0  0
   -1.6174   13.9945    3.9645 O   0  0  0  0  0  0  0  0  0  0  0  0
   -4.4058   13.9895    9.1604 C   0  0  1  0  0  0  0  0  0  0  0  0
   -4.3457   13.9352   10.5511 O   0  0  0  0  0  0  0  0  0  0  0  0
   -0.6553   12.4070   12.9741 C   0  0  0  0  0  0  0  0  0  0  0  0
   -3.1017   15.3850   14.7869 C   0  0  0  0  0  0  0  0  0  0  0  0
  1  2  1  6  0  0  0
  1  6  1  0  0  0  0
  1 21  1  0  0  0  0
  3  4  1  6  0  0  0
  3  8  1  0  0  0  0
  3 28  1  0  0  0  0
  5  9  1  0  0  0  0
  5 25  1  0  0  0  0
  5 29  1  6  0  0  0
  6  7  1  1  0  0  0
  6 11  1  0  0  0  0
  8 12  1  0  0  0  0
  9 10  1  6  0  0  0
  9 14  1  0  0  0  0
 11 16  1  0  0  0  0
 12 13  1  6  0  0  0
 12 17  1  0  0  0  0
 14 15  1  1  0  0  0
 14 18  1  0  0  0  0
 15 31  1  0  0  0  0
 16 20  1  0  0  0  0
 17  2  1  1  0  0  0
 17 22  1  0  0  0  0
 18 19  1  1  0  0  0
 18 24  1  0  0  0  0
 18 30  1  0  0  0  0
 20 21  1  0  0  0  0
 20 26  1  6  0  0  0
 22 23  1  6  0  0  0
 22 28  1  0  0  0  0
 24 25  1  0  0  0  0
 26 27  1  0  0  0  0
 28 29  1  1  0  0  0
M  END
>  <CHROM.1>
-172.28354551,-176.34285012,-89.43312091,-172.24909467,-114.61792161,68.89264101
-3.24130262,14.70457314,8.94464718,-1.41612883,0.56343165,1.93482916

>  <Name>
ligand

>  <RI>
0

>  <Rbt.Current_Directory>
/home/itssahil/PROJECTS/Mol_Feturizer/New_Systems/rnas/4GPX

>  <Rbt.Executable>
rbdock ($Id: //depot/dev/client3/rdock/2013.1/src/exe/rbdock.cxx#4 $)

>  <Rbt.Library>
libRbt.so (2013.1, Build901 2013/11/27)

>  <Rbt.Parameter_File>
/export/apps/rDock/src/rDock_2013.1_src/data/scripts/dock_solv.prm

>  <Rbt.Receptor>
prm/pocket_docking_7.prm

>  <SCORE>
-11.158

>  <SCORE.INTER>
-2.60553

>  <SCORE.INTER.CONST>
1

>  <SCORE.INTER.POLAR>
0

>  <SCORE.INTER.ROT>
6

>  <SCORE.INTER.SOLV>
12.4458

>  <SCORE.INTER.VDW>
-13.4856

>  <SCORE.INTER.norm>
-0.0840492

>  <SCORE.INTRA>
-8.55245

>  <SCORE.INTRA.DIHEDRAL>
-17.3396

>  <SCORE.INTRA.DIHEDRAL.0>
20.6841

>  <SCORE.INTRA.POLAR>
0

>  <SCORE.INTRA.POLAR.0>
0

>  <SCORE.INTRA.REPUL>
0

>  <SCORE.INTRA.REPUL.0>
0

>  <SCORE.INTRA.SOLV>
-1.46544

>  <SCORE.INTRA.SOLV.lig_0>
-64.6797

>  <SCORE.INTRA.VDW>
0.850061

>  <SCORE.INTRA.VDW.0>
-4.11825

>  <SCORE.INTRA.norm>
-0.275886

>  <SCORE.RESTR>
0

>  <SCORE.RESTR.CAVITY>
0

>  <SCORE.RESTR.norm>
0

>  <SCORE.SYSTEM>
0

>  <SCORE.SYSTEM.CONST>
0

>  <SCORE.SYSTEM.DIHEDRAL>
0

>  <SCORE.SYSTEM.SOLV>
0

>  <SCORE.SYSTEM.norm>
0

>  <SCORE.heavy>
31

>  <SCORE.norm>
-0.359935

>  <RMSD>
4.558

$$$$
ligand
 OpenBabel11021811493D
libRbt.so/2013.1/901 2013/11/27
 31 33  0  0  0  0  0  0  0  0999 V2000
   -5.5480   12.7658    9.3217 C   0  0  2  0  0  0  0  0  0  0  0  0
   -5.1991   13.7904   10.2478 O   0  0  0  0  0  0  0  0  0  0  0  0
   -1.9520   14.4693   12.9085 C   0  0  2  0  0  0  0  0  0  0  0  0
   -1.0882   14.3278   14.0402 N   0  0  0  0  0  0  0  0  0  0  0  0
    0.1492   11.8052   12.2654 C   0  0  2  0  0  0  0  0  0  0  0  0
   -6.2185   13.4878    8.0827 C   0  0  2  0  0  0  0  0  0  0  0  0
   -5.2614   14.4321    7.5158 N   0  0  0  0  0  0  0  0  0  0  0  0
   -3.4109   14.7971   13.4320 C   0  0  0  0  0  0  0  0  0  0  0  0
    1.5270   11.9050   11.5372 C   0  0  2  0  0  0  0  0  0  0  0  0
    2.0238   13.2159   11.7031 O   0  0  0  0  0  0  0  0  0  0  0  0
   -7.5400   14.2322    8.5283 C   0  0  0  0  0  0  0  0  0  0  0  0
   -4.3651   14.9509   12.1888 C   0  0  2  0  0  0  0  0  0  0  0  0
   -5.7248   15.2505   12.6697 N   0  0  0  0  0  0  0  0  0  0  0  0
    1.2749   11.5853   10.0147 C   0  0  1  0  0  0  0  0  0  0  0  0
    2.5652   11.6854    9.2558 N   0  0  0  0  0  0  0  0  0  0  0  0
   -8.3543   13.4146    9.6183 C   0  0  0  0  0  0  0  0  0  0  0  0
   -4.3654   13.6040   11.3395 C   0  0  2  0  0  0  0  0  0  0  0  0
    0.7021   10.0624    9.9091 C   0  0  1  0  0  0  0  0  0  0  0  0
    1.5941    9.1121   10.4664 O   0  0  0  0  0  0  0  0  0  0  0  0
   -7.8190   12.3176   10.2164 C   0  0  2  0  0  0  0  0  0  0  0  0
   -6.5063   11.8360    9.9057 O   0  0  0  0  0  0  0  0  0  0  0  0
   -2.9046   13.2974   10.8411 C   0  0  2  0  0  0  0  0  0  0  0  0
   -2.9124   12.0700   10.0809 O   0  0  0  0  0  0  0  0  0  0  0  0
   -0.6425    9.9443   10.6977 C   0  0  0  0  0  0  0  0  0  0  0  0
   -0.4305   10.4113   12.1137 O   0  0  0  0  0  0  0  0  0  0  0  0
   -8.5649   11.4962   11.2696 C   0  0  0  0  0  0  0  0  0  0  0  0
   -7.8641   11.6359   12.5280 O   0  0  0  0  0  0  0  0  0  0  0  0
   -1.9716   13.1249   12.0962 C   0  0  1  0  0  0  0  0  0  0  0  0
   -0.6874   12.8330   11.6418 O   0  0  0  0  0  0  0  0  0  0  0  0
    0.3973    9.5781    8.4710 C   0  0  0  0  0  0  0  0  0  0  0  0
    2.8184   12.9552    8.5446 C   0  0  0  0  0  0  0  0  0  0  0  0
  1  2  1  1  0  0  0
  1  6  1  0  0  0  0
  1 21  1  0  0  0  0
  3  4  1  1  0  0  0
  3  8  1  0  0  0  0
  3 28  1  0  0  0  0
  5  9  1  0  0  0  0
  5 25  1  0  0  0  0
  5 29  1  6  0  0  0
  6  7  1  1  0  0  0
  6 11  1  0  0  0  0
  8 12  1  0  0  0  0
  9 10  1  6  0  0  0
  9 14  1  0  0  0  0
 11 16  1  0  0  0  0
 12 13  1  1  0  0  0
 12 17  1  0  0  0  0
 14 15  1  6  0  0  0
 14 18  1  0  0  0  0
 15 31  1  0  0  0  0
 16 20  1  0  0  0  0
 17  2  1  6  0  0  0
 17 22  1  0  0  0  0
 18 19  1  1  0  0  0
 18 24  1  0  0  0  0
 18 30  1  0  0  0  0
 20 21  1  0  0  0  0
 20 26  1  6  0  0  0
 22 23  1  1  0  0  0
 22 28  1  0  0  0  0
 24 25  1  0  0  0  0
 26 27  1  0  0  0  0
 28 29  1  6  0  0  0
M  END
>  <CHROM.1>
-167.03688557,-174.94808652,-97.64513826,-174.12137783,-114.15284786,104.05958087
-2.76524336,12.56141751,10.75617461,3.03857708,-0.18723525,0.95122257

>  <Name>
ligand

>  <RI>
0

>  <Rbt.Current_Directory>
/home/itssahil/PROJECTS/Mol_Feturizer/New_Systems/rnas/4GPX

>  <Rbt.Executable>
rbdock ($Id: //depot/dev/client3/rdock/2013.1/src/exe/rbdock.cxx#4 $)

>  <Rbt.Library>
libRbt.so (2013.1, Build901 2013/11/27)

>  <Rbt.Parameter_File>
/export/apps/rDock/src/rDock_2013.1_src/data/scripts/dock_solv.prm

>  <Rbt.Receptor>
prm/pocket_docking_8.prm

>  <SCORE>
-14.3567

>  <SCORE.INTER>
-8.01881

>  <SCORE.INTER.CONST>
1

>  <SCORE.INTER.POLAR>
0

>  <SCORE.INTER.ROT>
6

>  <SCORE.INTER.SOLV>
10.86

>  <SCORE.INTER.VDW>
-16.5659

>  <SCORE.INTER.norm>
-0.258671

>  <SCORE.INTRA>
-6.33785

>  <SCORE.INTRA.DIHEDRAL>
-11.013

>  <SCORE.INTRA.DIHEDRAL.0>
20.6841

>  <SCORE.INTRA.POLAR>
0

>  <SCORE.INTRA.POLAR.0>
0

>  <SCORE.INTRA.REPUL>
0

>  <SCORE.INTRA.REPUL.0>
0

>  <SCORE.INTRA.SOLV>
-1.93889

>  <SCORE.INTRA.SOLV.lig_0>
-64.6797

>  <SCORE.INTRA.VDW>
0.138103

>  <SCORE.INTRA.VDW.0>
-4.11825

>  <SCORE.INTRA.norm>
-0.204447

>  <SCORE.RESTR>
0

>  <SCORE.RESTR.CAVITY>
0

>  <SCORE.RESTR.norm>
0

>  <SCORE.SYSTEM>
0

>  <SCORE.SYSTEM.CONST>
0

>  <SCORE.SYSTEM.DIHEDRAL>
0

>  <SCORE.SYSTEM.SOLV>
0

>  <SCORE.SYSTEM.norm>
0

>  <SCORE.heavy>
31

>  <SCORE.norm>
-0.463118

>  <RMSD>
4.594

$$$$
ligand
 OpenBabel11021811493D
libRbt.so/2013.1/901 2013/11/27
 31 33  0  0  0  0  0  0  0  0999 V2000
   -2.8474   15.5657    4.9336 C   0  0  2  0  0  0  0  0  0  0  0  0
   -3.0986   15.7687    6.3210 O   0  0  0  0  0  0  0  0  0  0  0  0
    0.7929   16.2115    7.9776 C   0  0  2  0  0  0  0  0  0  0  0  0
    1.8307   16.5538    8.9009 N   0  0  0  0  0  0  0  0  0  0  0  0
    1.6934   14.0373    9.8545 C   0  0  2  0  0  0  0  0  0  0  0  0
   -4.2612   15.4209    4.2363 C   0  0  2  0  0  0  0  0  0  0  0  0
   -5.0304   16.6370    4.4788 N   0  0  0  0  0  0  0  0  0  0  0  0
   -0.0027   17.5311    7.6092 C   0  0  0  0  0  0  0  0  0  0  0  0
    2.1473   12.5467    9.9575 C   0  0  2  0  0  0  0  0  0  0  0  0
    2.4214   12.0742    8.6559 O   0  0  0  0  0  0  0  0  0  0  0  0
   -5.0250   14.1560    4.7980 C   0  0  0  0  0  0  0  0  0  0  0  0
   -1.1477   17.1576    6.5949 C   0  0  2  0  0  0  0  0  0  0  0  0
   -1.8948   18.3802    6.2528 N   0  0  0  0  0  0  0  0  0  0  0  0
    0.9614   11.7414   10.6123 C   0  0  1  0  0  0  0  0  0  0  0  0
    1.3323   10.2916   10.7201 N   0  0  0  0  0  0  0  0  0  0  0  0
   -4.0488   12.9348    5.0725 C   0  0  0  0  0  0  0  0  0  0  0  0
   -2.1214   16.0829    7.2526 C   0  0  2  0  0  0  0  0  0  0  0  0
    0.7064   12.3467   12.1046 C   0  0  1  0  0  0  0  0  0  0  0  0
    1.8614   12.2664   12.9226 O   0  0  0  0  0  0  0  0  0  0  0  0
   -2.6995   13.0899    5.0178 C   0  0  2  0  0  0  0  0  0  0  0  0
   -2.0816   14.3456    4.7129 O   0  0  0  0  0  0  0  0  0  0  0  0
   -1.3045   14.7882    7.6171 C   0  0  2  0  0  0  0  0  0  0  0  0
   -2.1925   13.8236    8.2218 O   0  0  0  0  0  0  0  0  0  0  0  0
    0.3203   13.8584   12.0063 C   0  0  0  0  0  0  0  0  0  0  0  0
    1.3826   14.5929   11.2317 O   0  0  0  0  0  0  0  0  0  0  0  0
   -1.7188   11.9436    5.2718 C   0  0  0  0  0  0  0  0  0  0  0  0
   -0.3749   12.4711    5.1713 O   0  0  0  0  0  0  0  0  0  0  0  0
   -0.1808   15.1768    8.6475 C   0  0  1  0  0  0  0  0  0  0  0  0
    0.5203   14.0192    8.9778 O   0  0  0  0  0  0  0  0  0  0  0  0
   -0.4343   11.6658   12.8989 C   0  0  0  0  0  0  0  0  0  0  0  0
    1.0739    9.4519    9.5325 C   0  0  0  0  0  0  0  0  0  0  0  0
  1  2  1  1  0  0  0
  1  6  1  0  0  0  0
  1 21  1  0  0  0  0
  3  4  1  1  0  0  0
  3  8  1  0  0  0  0
  3 28  1  0  0  0  0
  5  9  1  0  0  0  0
  5 25  1  0  0  0  0
  5 29  1  6  0  0  0
  6  7  1  1  0  0  0
  6 11  1  0  0  0  0
  8 12  1  0  0  0  0
  9 10  1  6  0  0  0
  9 14  1  0  0  0  0
 11 16  1  0  0  0  0
 12 13  1  1  0  0  0
 12 17  1  0  0  0  0
 14 15  1  1  0  0  0
 14 18  1  0  0  0  0
 15 31  1  0  0  0  0
 16 20  1  0  0  0  0
 17  2  1  6  0  0  0
 17 22  1  0  0  0  0
 18 19  1  1  0  0  0
 18 24  1  0  0  0  0
 18 30  1  0  0  0  0
 20 21  1  0  0  0  0
 20 26  1  6  0  0  0
 22 23  1  1  0  0  0
 22 28  1  0  0  0  0
 24 25  1  0  0  0  0
 26 27  1  0  0  0  0
 28 29  1  6  0  0  0
M  END
>  <CHROM.1>
-172.76403467,179.63730830,-85.68596114,41.84154418,-178.33246543,57.35443444
-0.73561850,14.05532664,8.03607755,-2.70813828,0.90622187,3.07844877

>  <Name>
ligand

>  <RI>
0

>  <Rbt.Current_Directory>
/home/itssahil/PROJECTS/Mol_Feturizer/New_Systems/rnas/4GPX

>  <Rbt.Executable>
rbdock ($Id: //depot/dev/client3/rdock/2013.1/src/exe/rbdock.cxx#4 $)

>  <Rbt.Library>
libRbt.so (2013.1, Build901 2013/11/27)

>  <Rbt.Parameter_File>
/export/apps/rDock/src/rDock_2013.1_src/data/scripts/dock_solv.prm

>  <Rbt.Receptor>
prm/pocket_docking_6.prm

>  <SCORE>
-9.90563

>  <SCORE.INTER>
-4.21185

>  <SCORE.INTER.CONST>
1

>  <SCORE.INTER.POLAR>
0

>  <SCORE.INTER.ROT>
6

>  <SCORE.INTER.SOLV>
9.35377

>  <SCORE.INTER.VDW>
-13.5258

>  <SCORE.INTER.norm>
-0.135866

>  <SCORE.INTRA>
-5.69378

>  <SCORE.INTRA.DIHEDRAL>
-14.8101

>  <SCORE.INTRA.DIHEDRAL.0>
20.6841

>  <SCORE.INTRA.POLAR>
0

>  <SCORE.INTRA.POLAR.0>
0

>  <SCORE.INTRA.REPUL>
0

>  <SCORE.INTRA.REPUL.0>
0

>  <SCORE.INTRA.SOLV>
0.341817

>  <SCORE.INTRA.SOLV.lig_0>
-64.6797

>  <SCORE.INTRA.VDW>
1.54036

>  <SCORE.INTRA.VDW.0>
-4.11825

>  <SCORE.INTRA.norm>
-0.18367

>  <SCORE.RESTR>
0

>  <SCORE.RESTR.CAVITY>
0

>  <SCORE.RESTR.norm>
0

>  <SCORE.SYSTEM>
0

>  <SCORE.SYSTEM.CONST>
0

>  <SCORE.SYSTEM.DIHEDRAL>
0

>  <SCORE.SYSTEM.SOLV>
0

>  <SCORE.SYSTEM.norm>
0

>  <SCORE.heavy>
31

>  <SCORE.norm>
-0.319537

>  <RMSD>
4.615

$$$$
ligand
 OpenBabel11021811493D
libRbt.so/2013.1/901 2013/11/27
 31 33  0  0  0  0  0  0  0  0999 V2000
   -2.1534   15.9572    5.0193 C   0  0  2  0  0  0  0  0  0  0  0  0
   -2.1867   16.5200    6.3275 O   0  0  0  0  0  0  0  0  0  0  0  0
    1.8000   15.9564    7.6960 C   0  0  2  0  0  0  0  0  0  0  0  0
    2.9611   16.0401    8.5277 N   0  0  0  0  0  0  0  0  0  0  0  0
    2.1658   13.6980    9.7267 C   0  0  2  0  0  0  0  0  0  0  0  0
   -3.3893   16.5625    4.2369 C   0  0  2  0  0  0  0  0  0  0  0  0
   -3.2603   18.0157    4.2086 N   0  0  0  0  0  0  0  0  0  0  0  0
    1.3590   17.4270    7.3051 C   0  0  0  0  0  0  0  0  0  0  0  0
    2.2664   12.1419    9.8114 C   0  0  2  0  0  0  0  0  0  0  0  0
    2.4438   11.6359    8.5055 O   0  0  0  0  0  0  0  0  0  0  0  0
   -4.7434   16.1358    4.9321 C   0  0  0  0  0  0  0  0  0  0  0  0
    0.0794   17.3389    6.3916 C   0  0  2  0  0  0  0  0  0  0  0  0
   -0.3388   18.7040    6.0293 N   0  0  0  0  0  0  0  0  0  0  0  0
    0.9190   11.6203   10.4408 C   0  0  1  0  0  0  0  0  0  0  0  0
    0.9480   10.1228   10.5299 N   0  0  0  0  0  0  0  0  0  0  0  0
   -4.6941   14.6494    5.4870 C   0  0  0  0  0  0  0  0  0  0  0  0
   -1.0907   16.5933    7.1731 C   0  0  2  0  0  0  0  0  0  0  0  0
    0.7878   12.2488   11.9395 C   0  0  1  0  0  0  0  0  0  0  0  0
    1.8825   11.8967   12.7684 O   0  0  0  0  0  0  0  0  0  0  0  0
   -3.5273   13.9530    5.5233 C   0  0  2  0  0  0  0  0  0  0  0  0
   -2.2868   14.5068    5.0695 O   0  0  0  0  0  0  0  0  0  0  0  0
   -0.6230   15.1408    7.5574 C   0  0  2  0  0  0  0  0  0  0  0  0
   -1.6856   14.4760    8.2739 O   0  0  0  0  0  0  0  0  0  0  0  0
    0.7581   13.8098   11.8605 C   0  0  0  0  0  0  0  0  0  0  0  0
    1.9706   14.2923   11.1089 O   0  0  0  0  0  0  0  0  0  0  0  0
   -3.4299   12.5185    6.0461 C   0  0  0  0  0  0  0  0  0  0  0  0
   -3.9379   12.4985    7.4011 O   0  0  0  0  0  0  0  0  0  0  0  0
    0.6414   15.2498    8.4873 C   0  0  1  0  0  0  0  0  0  0  0  0
    1.0319   13.9592    8.8372 O   0  0  0  0  0  0  0  0  0  0  0  0
   -0.4891   11.8362   12.7107 C   0  0  0  0  0  0  0  0  0  0  0  0
    0.6159    9.3795    9.2973 C   0  0  0  0  0  0  0  0  0  0  0  0
  1  2  1  1  0  0  0
  1  6  1  0  0  0  0
  1 21  1  0  0  0  0
  3  4  1  1  0  0  0
  3  8  1  0  0  0  0
  3 28  1  0  0  0  0
  5  9  1  0  0  0  0
  5 25  1  0  0  0  0
  5 29  1  6  0  0  0
  6  7  1  1  0  0  0
  6 11  1  0  0  0  0
  8 12  1  0  0  0  0
  9 10  1  6  0  0  0
  9 14  1  0  0  0  0
 11 16  1  0  0  0  0
 12 13  1  1  0  0  0
 12 17  1  0  0  0  0
 14 15  1  1  0  0  0
 14 18  1  0  0  0  0
 15 31  1  0  0  0  0
 16 20  1  0  0  0  0
 17  2  1  6  0  0  0
 17 22  1  0  0  0  0
 18 19  1  1  0  0  0
 18 24  1  0  0  0  0
 18 30  1  0  0  0  0
 20 21  1  0  0  0  0
 20 26  1  6  0  0  0
 22 23  1  1  0  0  0
 22 28  1  0  0  0  0
 24 25  1  0  0  0  0
 26 27  1  0  0  0  0
 28 29  1  6  0  0  0
M  END
>  <CHROM.1>
-158.70233937,-178.50457391,-81.40062783,54.65477549,-56.66001266,62.71663318
-0.49444259,14.30622946,8.06797073,-2.23976396,0.56927149,2.60268408

>  <Name>
ligand

>  <RI>
0

>  <Rbt.Current_Directory>
/home/itssahil/PROJECTS/Mol_Feturizer/New_Systems/rnas/4GPX

>  <Rbt.Executable>
rbdock ($Id: //depot/dev/client3/rdock/2013.1/src/exe/rbdock.cxx#4 $)

>  <Rbt.Library>
libRbt.so (2013.1, Build901 2013/11/27)

>  <Rbt.Parameter_File>
/export/apps/rDock/src/rDock_2013.1_src/data/scripts/dock_solv.prm

>  <Rbt.Receptor>
prm/pocket_docking_5.prm

>  <SCORE>
-10.4014

>  <SCORE.INTER>
-4.9677

>  <SCORE.INTER.CONST>
1

>  <SCORE.INTER.POLAR>
0

>  <SCORE.INTER.ROT>
6

>  <SCORE.INTER.SOLV>
11.3447

>  <SCORE.INTER.VDW>
-14.6934

>  <SCORE.INTER.norm>
-0.160249

>  <SCORE.INTRA>
-5.43369

>  <SCORE.INTRA.DIHEDRAL>
-14.5449

>  <SCORE.INTRA.DIHEDRAL.0>
20.6841

>  <SCORE.INTRA.POLAR>
0

>  <SCORE.INTRA.POLAR.0>
0

>  <SCORE.INTRA.REPUL>
0

>  <SCORE.INTRA.REPUL.0>
0

>  <SCORE.INTRA.SOLV>
0.838082

>  <SCORE.INTRA.SOLV.lig_0>
-64.6797

>  <SCORE.INTRA.VDW>
1.41971

>  <SCORE.INTRA.VDW.0>
-4.11825

>  <SCORE.INTRA.norm>
-0.17528

>  <SCORE.RESTR>
0

>  <SCORE.RESTR.CAVITY>
0

>  <SCORE.RESTR.norm>
0

>  <SCORE.SYSTEM>
0

>  <SCORE.SYSTEM.CONST>
0

>  <SCORE.SYSTEM.DIHEDRAL>
0

>  <SCORE.SYSTEM.SOLV>
0

>  <SCORE.SYSTEM.norm>
0

>  <SCORE.heavy>
31

>  <SCORE.norm>
-0.335529

>  <RMSD>
4.773

$$$$
ligand
 OpenBabel11021811493D
libRbt.so/2013.1/901 2013/11/27
 31 33  0  0  0  0  0  0  0  0999 V2000
   -3.2818   15.9344    6.5898 C   0  0  2  0  0  0  0  0  0  0  0  0
   -2.4222   15.0167    5.9203 O   0  0  0  0  0  0  0  0  0  0  0  0
    0.9502   12.6212    6.9061 C   0  0  2  0  0  0  0  0  0  0  0  0
    2.2795   12.2663    7.2983 N   0  0  0  0  0  0  0  0  0  0  0  0
    1.3951   12.2715    9.9594 C   0  0  2  0  0  0  0  0  0  0  0  0
   -4.6418   15.9507    5.7799 C   0  0  2  0  0  0  0  0  0  0  0  0
   -5.1937   14.6000    5.7628 N   0  0  0  0  0  0  0  0  0  0  0  0
    1.0361   13.5055    5.5944 C   0  0  0  0  0  0  0  0  0  0  0  0
    0.8689   11.3475   11.1031 C   0  0  2  0  0  0  0  0  0  0  0  0
    0.1789   10.2640   10.5176 O   0  0  0  0  0  0  0  0  0  0  0  0
   -4.3996   16.4732    4.3078 C   0  0  0  0  0  0  0  0  0  0  0  0
   -0.4254   13.9002    5.1612 C   0  0  2  0  0  0  0  0  0  0  0  0
   -0.3516   14.7275    3.9448 N   0  0  0  0  0  0  0  0  0  0  0  0
   -0.0966   12.2147   11.9972 C   0  0  1  0  0  0  0  0  0  0  0  0
   -0.6521   11.3720   13.1074 N   0  0  0  0  0  0  0  0  0  0  0  0
   -3.3266   17.6416    4.2515 C   0  0  0  0  0  0  0  0  0  0  0  0
   -1.1359   14.7085    6.3350 C   0  0  2  0  0  0  0  0  0  0  0  0
    0.7713   13.4406   12.6313 C   0  0  1  0  0  0  0  0  0  0  0  0
    1.8689   12.9809   13.4016 O   0  0  0  0  0  0  0  0  0  0  0  0
   -2.5811   17.9619    5.3421 C   0  0  2  0  0  0  0  0  0  0  0  0
   -2.7144   17.2768    6.5928 O   0  0  0  0  0  0  0  0  0  0  0  0
   -1.1989   13.8118    7.6265 C   0  0  2  0  0  0  0  0  0  0  0  0
   -1.8351   14.5556    8.6879 O   0  0  0  0  0  0  0  0  0  0  0  0
    1.3574   14.3261   11.4840 C   0  0  0  0  0  0  0  0  0  0  0  0
    2.1440   13.4571   10.5385 O   0  0  0  0  0  0  0  0  0  0  0  0
   -1.5374   19.0805    5.3378 C   0  0  0  0  0  0  0  0  0  0  0  0
   -1.7701   19.9169    6.4957 O   0  0  0  0  0  0  0  0  0  0  0  0
    0.2699   13.4466    8.0565 C   0  0  1  0  0  0  0  0  0  0  0  0
    0.2007   12.6715    9.2120 O   0  0  0  0  0  0  0  0  0  0  0  0
   -0.0270   14.4008   13.5459 C   0  0  0  0  0  0  0  0  0  0  0  0
   -2.0610   11.6130   13.4803 C   0  0  0  0  0  0  0  0  0  0  0  0
  1  2  1  6  0  0  0
  1  6  1  0  0  0  0
  1 21  1  0  0  0  0
  3  4  1  1  0  0  0
  3  8  1  0  0  0  0
  3 28  1  0  0  0  0
  5  9  1  0  0  0  0
  5 25  1  0  0  0  0
  5 29  1  1  0  0  0
  6  7  1  6  0  0  0
  6 11  1  0  0  0  0
  8 12  1  0  0  0  0
  9 10  1  6  0  0  0
  9 14  1  0  0  0  0
 11 16  1  0  0  0  0
 12 13  1  6  0  0  0
 12 17  1  0  0  0  0
 14 15  1  1  0  0  0
 14 18  1  0  0  0  0
 15 31  1  0  0  0  0
 16 20  1  0  0  0  0
 17  2  1  6  0  0  0
 17 22  1  0  0  0  0
 18 19  1  1  0  0  0
 18 24  1  0  0  0  0
 18 30  1  0  0  0  0
 20 21  1  0  0  0  0
 20 26  1  1  0  0  0
 22 23  1  1  0  0  0
 22 28  1  0  0  0  0
 24 25  1  0  0  0  0
 26 27  1  0  0  0  0
 28 29  1  1  0  0  0
M  END
>  <CHROM.1>
-179.14435828,-176.23382957,-142.32277498,-168.17024840,130.78474045,67.62469182
-0.84550319,14.32773508,8.33071289,2.17496166,0.82677032,-1.44640481

>  <Name>
ligand

>  <RI>
0

>  <Rbt.Current_Directory>
/home/itssahil/PROJECTS/Mol_Feturizer/New_Systems/rnas/4GPX

>  <Rbt.Executable>
rbdock ($Id: //depot/dev/client3/rdock/2013.1/src/exe/rbdock.cxx#4 $)

>  <Rbt.Library>
libRbt.so (2013.1, Build901 2013/11/27)

>  <Rbt.Parameter_File>
/export/apps/rDock/src/rDock_2013.1_src/data/scripts/dock_solv.prm

>  <Rbt.Receptor>
prm/pocket_docking_8.prm

>  <SCORE>
-16.5689

>  <SCORE.INTER>
-8.21498

>  <SCORE.INTER.CONST>
1

>  <SCORE.INTER.POLAR>
0

>  <SCORE.INTER.ROT>
6

>  <SCORE.INTER.SOLV>
8.83458

>  <SCORE.INTER.VDW>
-16.0215

>  <SCORE.INTER.norm>
-0.264999

>  <SCORE.INTRA>
-8.35389

>  <SCORE.INTRA.DIHEDRAL>
-16.9825

>  <SCORE.INTRA.DIHEDRAL.0>
20.6841

>  <SCORE.INTRA.POLAR>
0

>  <SCORE.INTRA.POLAR.0>
0

>  <SCORE.INTRA.REPUL>
0

>  <SCORE.INTRA.REPUL.0>
0

>  <SCORE.INTRA.SOLV>
-1.57422

>  <SCORE.INTRA.SOLV.lig_0>
-64.6797

>  <SCORE.INTRA.VDW>
0.924454

>  <SCORE.INTRA.VDW.0>
-4.11825

>  <SCORE.INTRA.norm>
-0.26948

>  <SCORE.RESTR>
0

>  <SCORE.RESTR.CAVITY>
0

>  <SCORE.RESTR.norm>
0

>  <SCORE.SYSTEM>
0

>  <SCORE.SYSTEM.CONST>
0

>  <SCORE.SYSTEM.DIHEDRAL>
0

>  <SCORE.SYSTEM.SOLV>
0

>  <SCORE.SYSTEM.norm>
0

>  <SCORE.heavy>
31

>  <SCORE.norm>
-0.53448

>  <RMSD>
4.808

$$$$
ligand
 OpenBabel11021811493D
libRbt.so/2013.1/901 2013/11/27
 31 33  0  0  0  0  0  0  0  0999 V2000
   -1.5391   16.6016    5.2876 C   0  0  2  0  0  0  0  0  0  0  0  0
   -2.0894   16.3639    6.5798 O   0  0  0  0  0  0  0  0  0  0  0  0
    1.3398   16.3434    9.0946 C   0  0  2  0  0  0  0  0  0  0  0  0
    2.1454   16.2113   10.2695 N   0  0  0  0  0  0  0  0  0  0  0  0
    2.5026   13.5035    9.6042 C   0  0  2  0  0  0  0  0  0  0  0  0
   -2.6809   17.2858    4.4307 C   0  0  2  0  0  0  0  0  0  0  0  0
   -3.0823   18.5248    5.0886 N   0  0  0  0  0  0  0  0  0  0  0  0
    0.2355   17.4460    9.3680 C   0  0  0  0  0  0  0  0  0  0  0  0
    3.5276   12.5757    8.8781 C   0  0  2  0  0  0  0  0  0  0  0  0
    4.1948   13.3351    7.8929 O   0  0  0  0  0  0  0  0  0  0  0  0
   -3.9148   16.3095    4.2784 C   0  0  0  0  0  0  0  0  0  0  0  0
   -0.6549   17.5923    8.0775 C   0  0  2  0  0  0  0  0  0  0  0  0
   -1.6874   18.6126    8.3277 N   0  0  0  0  0  0  0  0  0  0  0  0
    2.7098   11.3974    8.2249 C   0  0  1  0  0  0  0  0  0  0  0  0
    3.6427   10.4786    7.4924 N   0  0  0  0  0  0  0  0  0  0  0  0
   -3.4685   14.7963    4.1033 C   0  0  0  0  0  0  0  0  0  0  0  0
   -1.3342   16.1947    7.7299 C   0  0  2  0  0  0  0  0  0  0  0  0
    1.9700   10.5746    9.4225 C   0  0  1  0  0  0  0  0  0  0  0  0
    2.8900   10.0630   10.3719 O   0  0  0  0  0  0  0  0  0  0  0  0
   -2.1752   14.4209    4.2882 C   0  0  2  0  0  0  0  0  0  0  0  0
   -1.1480   15.3524    4.6469 O   0  0  0  0  0  0  0  0  0  0  0  0
   -0.2165   15.1172    7.4731 C   0  0  2  0  0  0  0  0  0  0  0  0
   -0.8410   13.8515    7.1687 O   0  0  0  0  0  0  0  0  0  0  0  0
    0.9955   11.5219   10.1951 C   0  0  0  0  0  0  0  0  0  0  0  0
    1.7544   12.7311   10.6745 O   0  0  0  0  0  0  0  0  0  0  0  0
   -1.6965   12.9767    4.1285 C   0  0  0  0  0  0  0  0  0  0  0  0
   -0.6711   12.9533    3.1075 O   0  0  0  0  0  0  0  0  0  0  0  0
    0.6478   14.9689    8.7795 C   0  0  1  0  0  0  0  0  0  0  0  0
    1.6189   13.9977    8.5459 O   0  0  0  0  0  0  0  0  0  0  0  0
    1.1153    9.3714    8.9563 C   0  0  0  0  0  0  0  0  0  0  0  0
    3.8186   10.7281    6.0471 C   0  0  0  0  0  0  0  0  0  0  0  0
  1  2  1  1  0  0  0
  1  6  1  0  0  0  0
  1 21  1  0  0  0  0
  3  4  1  1  0  0  0
  3  8  1  0  0  0  0
  3 28  1  0  0  0  0
  5  9  1  0  0  0  0
  5 25  1  0  0  0  0
  5 29  1  6  0  0  0
  6  7  1  1  0  0  0
  6 11  1  0  0  0  0
  8 12  1  0  0  0  0
  9 10  1  6  0  0  0
  9 14  1  0  0  0  0
 11 16  1  0  0  0  0
 12 13  1  1  0  0  0
 12 17  1  0  0  0  0
 14 15  1  1  0  0  0
 14 18  1  0  0  0  0
 15 31  1  0  0  0  0
 16 20  1  0  0  0  0
 17  2  1  6  0  0  0
 17 22  1  0  0  0  0
 18 19  1  1  0  0  0
 18 24  1  0  0  0  0
 18 30  1  0  0  0  0
 20 21  1  0  0  0  0
 20 26  1  6  0  0  0
 22 23  1  1  0  0  0
 22 28  1  0  0  0  0
 24 25  1  0  0  0  0
 26 27  1  0  0  0  0
 28 29  1  6  0  0  0
M  END
>  <CHROM.1>
-157.96301089,-173.34285849,-94.50854482,68.72149645,121.23960704,68.20204257
0.27543021,14.21643646,7.36143722,2.92216279,-0.86997834,0.65019181

>  <Name>
ligand

>  <RI>
0

>  <Rbt.Current_Directory>
/home/itssahil/PROJECTS/Mol_Feturizer/New_Systems/rnas/4GPX

>  <Rbt.Executable>
rbdock ($Id: //depot/dev/client3/rdock/2013.1/src/exe/rbdock.cxx#4 $)

>  <Rbt.Library>
libRbt.so (2013.1, Build901 2013/11/27)

>  <Rbt.Parameter_File>
/export/apps/rDock/src/rDock_2013.1_src/data/scripts/dock_solv.prm

>  <Rbt.Receptor>
prm/pocket_docking_7.prm

>  <SCORE>
-11.5507

>  <SCORE.INTER>
-4.8715

>  <SCORE.INTER.CONST>
1

>  <SCORE.INTER.POLAR>
0

>  <SCORE.INTER.ROT>
6

>  <SCORE.INTER.SOLV>
9.60246

>  <SCORE.INTER.VDW>
-14.0485

>  <SCORE.INTER.norm>
-0.157145

>  <SCORE.INTRA>
-6.67919

>  <SCORE.INTRA.DIHEDRAL>
-15.1977

>  <SCORE.INTRA.DIHEDRAL.0>
20.6841

>  <SCORE.INTRA.POLAR>
0

>  <SCORE.INTRA.POLAR.0>
0

>  <SCORE.INTRA.REPUL>
0

>  <SCORE.INTRA.REPUL.0>
0

>  <SCORE.INTRA.SOLV>
0.299215

>  <SCORE.INTRA.SOLV.lig_0>
-64.6797

>  <SCORE.INTRA.VDW>
0.770067

>  <SCORE.INTRA.VDW.0>
-4.11825

>  <SCORE.INTRA.norm>
-0.215458

>  <SCORE.RESTR>
0

>  <SCORE.RESTR.CAVITY>
0

>  <SCORE.RESTR.norm>
0

>  <SCORE.SYSTEM>
0

>  <SCORE.SYSTEM.CONST>
0

>  <SCORE.SYSTEM.DIHEDRAL>
0

>  <SCORE.SYSTEM.SOLV>
0

>  <SCORE.SYSTEM.norm>
0

>  <SCORE.heavy>
31

>  <SCORE.norm>
-0.372603

>  <RMSD>
4.812

$$$$
ligand
 OpenBabel11021811493D
libRbt.so/2013.1/901 2013/11/27
 31 33  0  0  0  0  0  0  0  0999 V2000
    1.6005   15.5340    5.5355 C   0  0  2  0  0  0  0  0  0  0  0  0
    0.5169   16.3563    5.9586 O   0  0  0  0  0  0  0  0  0  0  0  0
   -2.6954   15.8608    8.7007 C   0  0  2  0  0  0  0  0  0  0  0  0
   -3.9352   15.4075    9.2523 N   0  0  0  0  0  0  0  0  0  0  0  0
   -2.4766   13.0587   10.2410 C   0  0  2  0  0  0  0  0  0  0  0  0
    2.6619   16.4976    4.8642 C   0  0  2  0  0  0  0  0  0  0  0  0
    3.0824   17.4901    5.8478 N   0  0  0  0  0  0  0  0  0  0  0  0
   -3.0002   16.6157    7.3416 C   0  0  0  0  0  0  0  0  0  0  0  0
   -1.8217   12.6247   11.5906 C   0  0  2  0  0  0  0  0  0  0  0  0
   -1.5556   13.7850   12.3493 O   0  0  0  0  0  0  0  0  0  0  0  0
    2.0399   17.2010    3.5925 C   0  0  0  0  0  0  0  0  0  0  0  0
   -1.6373   17.1139    6.7301 C   0  0  2  0  0  0  0  0  0  0  0  0
   -1.9139   17.8120    5.4629 N   0  0  0  0  0  0  0  0  0  0  0  0
   -0.4882   11.8621   11.2388 C   0  0  1  0  0  0  0  0  0  0  0  0
    0.1996   11.4354   12.5021 N   0  0  0  0  0  0  0  0  0  0  0  0
    1.0875   16.2314    2.7724 C   0  0  0  0  0  0  0  0  0  0  0  0
   -0.6743   15.8715    6.4759 C   0  0  2  0  0  0  0  0  0  0  0  0
   -0.8794   10.5429   10.3641 C   0  0  1  0  0  0  0  0  0  0  0  0
   -1.7664    9.6813   11.0570 O   0  0  0  0  0  0  0  0  0  0  0  0
    0.7191   15.0224    3.2727 C   0  0  2  0  0  0  0  0  0  0  0  0
    1.1604   14.5528    4.5519 O   0  0  0  0  0  0  0  0  0  0  0  0
   -0.3965   15.1351    7.8385 C   0  0  2  0  0  0  0  0  0  0  0  0
    0.4688   14.0048    7.5973 O   0  0  0  0  0  0  0  0  0  0  0  0
   -1.5987   10.9740    9.0447 C   0  0  0  0  0  0  0  0  0  0  0  0
   -2.7803   11.8436    9.3847 O   0  0  0  0  0  0  0  0  0  0  0  0
   -0.1939   14.0529    2.5197 C   0  0  0  0  0  0  0  0  0  0  0  0
    0.5341   12.8197    2.3115 O   0  0  0  0  0  0  0  0  0  0  0  0
   -1.7658   14.6255    8.4223 C   0  0  1  0  0  0  0  0  0  0  0  0
   -1.5035   13.9577    9.6164 O   0  0  0  0  0  0  0  0  0  0  0  0
    0.3215    9.6685    9.9292 C   0  0  0  0  0  0  0  0  0  0  0  0
    1.3004   12.2968   12.9802 C   0  0  0  0  0  0  0  0  0  0  0  0
  1  2  1  6  0  0  0
  1  6  1  0  0  0  0
  1 21  1  0  0  0  0
  3  4  1  6  0  0  0
  3  8  1  0  0  0  0
  3 28  1  0  0  0  0
  5  9  1  0  0  0  0
  5 25  1  0  0  0  0
  5 29  1  6  0  0  0
  6  7  1  1  0  0  0
  6 11  1  0  0  0  0
  8 12  1  0  0  0  0
  9 10  1  1  0  0  0
  9 14  1  0  0  0  0
 11 16  1  0  0  0  0
 12 13  1  6  0  0  0
 12 17  1  0  0  0  0
 14 15  1  1  0  0  0
 14 18  1  0  0  0  0
 15 31  1  0  0  0  0
 16 20  1  0  0  0  0
 17  2  1  1  0  0  0
 17 22  1  0  0  0  0
 18 19  1  1  0  0  0
 18 24  1  0  0  0  0
 18 30  1  0  0  0  0
 20 21  1  0  0  0  0
 20 26  1  6  0  0  0
 22 23  1  6  0  0  0
 22 28  1  0  0  0  0
 24 25  1  0  0  0  0
 26 27  1  0  0  0  0
 28 29  1  1  0  0  0
M  END
>  <CHROM.1>
173.35997154,-175.80389397,-98.52628895,-176.42450479,120.07587022,77.95807960
-0.48946802,14.14763687,7.73056062,-1.17847774,-0.89908251,2.42092898

>  <Name>
ligand

>  <RI>
0

>  <Rbt.Current_Directory>
/home/itssahil/PROJECTS/Mol_Feturizer/New_Systems/rnas/4GPX

>  <Rbt.Executable>
rbdock ($Id: //depot/dev/client3/rdock/2013.1/src/exe/rbdock.cxx#4 $)

>  <Rbt.Library>
libRbt.so (2013.1, Build901 2013/11/27)

>  <Rbt.Parameter_File>
/export/apps/rDock/src/rDock_2013.1_src/data/scripts/dock_solv.prm

>  <Rbt.Receptor>
prm/pocket_docking_6.prm

>  <SCORE>
-13.0532

>  <SCORE.INTER>
-4.5574

>  <SCORE.INTER.CONST>
1

>  <SCORE.INTER.POLAR>
0

>  <SCORE.INTER.ROT>
6

>  <SCORE.INTER.SOLV>
7.94792

>  <SCORE.INTER.VDW>
-13.2876

>  <SCORE.INTER.norm>
-0.147013

>  <SCORE.INTRA>
-8.49582

>  <SCORE.INTRA.DIHEDRAL>
-16.2914

>  <SCORE.INTRA.DIHEDRAL.0>
20.6841

>  <SCORE.INTRA.POLAR>
0

>  <SCORE.INTRA.POLAR.0>
0

>  <SCORE.INTRA.REPUL>
0

>  <SCORE.INTRA.REPUL.0>
0

>  <SCORE.INTRA.SOLV>
-1.99298

>  <SCORE.INTRA.SOLV.lig_0>
-64.6797

>  <SCORE.INTRA.VDW>
0.646354

>  <SCORE.INTRA.VDW.0>
-4.11825

>  <SCORE.INTRA.norm>
-0.274059

>  <SCORE.RESTR>
0

>  <SCORE.RESTR.CAVITY>
0

>  <SCORE.RESTR.norm>
0

>  <SCORE.SYSTEM>
0

>  <SCORE.SYSTEM.CONST>
0

>  <SCORE.SYSTEM.DIHEDRAL>
0

>  <SCORE.SYSTEM.SOLV>
0

>  <SCORE.SYSTEM.norm>
0

>  <SCORE.heavy>
31

>  <SCORE.norm>
-0.421072

>  <RMSD>
4.831

$$$$
ligand
 OpenBabel11021811493D
libRbt.so/2013.1/901 2013/11/27
 31 33  0  0  0  0  0  0  0  0999 V2000
   -1.3272   16.3907    4.7070 C   0  0  2  0  0  0  0  0  0  0  0  0
   -1.4527   16.4481    6.1248 O   0  0  0  0  0  0  0  0  0  0  0  0
    2.3825   15.1849    7.4589 C   0  0  2  0  0  0  0  0  0  0  0  0
    3.4582   14.8568    8.3432 N   0  0  0  0  0  0  0  0  0  0  0  0
    2.5179   12.2521    8.3789 C   0  0  2  0  0  0  0  0  0  0  0  0
   -2.2351   17.5505    4.1270 C   0  0  2  0  0  0  0  0  0  0  0  0
   -1.7687   18.8245    4.6644 N   0  0  0  0  0  0  0  0  0  0  0  0
    1.9842   16.6995    7.6979 C   0  0  0  0  0  0  0  0  0  0  0  0
    2.5530   10.7835    7.8491 C   0  0  2  0  0  0  0  0  0  0  0  0
    2.8615   10.8147    6.4720 O   0  0  0  0  0  0  0  0  0  0  0  0
   -3.7500   17.3057    4.5067 C   0  0  0  0  0  0  0  0  0  0  0  0
    0.7984   17.0636    6.7279 C   0  0  2  0  0  0  0  0  0  0  0  0
    0.4199   18.4697    6.9495 N   0  0  0  0  0  0  0  0  0  0  0  0
    1.1245   10.1645    8.0938 C   0  0  1  0  0  0  0  0  0  0  0  0
    1.0900    8.7535    7.5847 N   0  0  0  0  0  0  0  0  0  0  0  0
   -4.1439   15.7689    4.4549 C   0  0  0  0  0  0  0  0  0  0  0  0
   -0.4431   16.1075    7.0115 C   0  0  2  0  0  0  0  0  0  0  0  0
    0.8440   10.1669    9.6999 C   0  0  1  0  0  0  0  0  0  0  0  0
    1.8228    9.4353   10.4183 O   0  0  0  0  0  0  0  0  0  0  0  0
   -3.1952   14.8066    4.3074 C   0  0  2  0  0  0  0  0  0  0  0  0
   -1.8009   15.1130    4.1905 O   0  0  0  0  0  0  0  0  0  0  0  0
   -0.0175   14.6109    6.7765 C   0  0  2  0  0  0  0  0  0  0  0  0
   -1.1456   13.7508    7.0455 O   0  0  0  0  0  0  0  0  0  0  0  0
    0.8788   11.6323   10.2434 C   0  0  0  0  0  0  0  0  0  0  0  0
    2.1861   12.2735    9.8592 O   0  0  0  0  0  0  0  0  0  0  0  0
   -3.5254   13.3139    4.2494 C   0  0  0  0  0  0  0  0  0  0  0  0
   -3.2359   12.7388    5.5454 O   0  0  0  0  0  0  0  0  0  0  0  0
    1.1516   14.2594    7.7690 C   0  0  1  0  0  0  0  0  0  0  0  0
    1.5039   12.9270    7.5656 O   0  0  0  0  0  0  0  0  0  0  0  0
   -0.5271    9.5871   10.1238 C   0  0  0  0  0  0  0  0  0  0  0  0
    0.7940    8.5747    6.1486 C   0  0  0  0  0  0  0  0  0  0  0  0
  1  2  1  1  0  0  0
  1  6  1  0  0  0  0
  1 21  1  0  0  0  0
  3  4  1  1  0  0  0
  3  8  1  0  0  0  0
  3 28  1  0  0  0  0
  5  9  1  0  0  0  0
  5 25  1  0  0  0  0
  5 29  1  6  0  0  0
  6  7  1  1  0  0  0
  6 11  1  0  0  0  0
  8 12  1  0  0  0  0
  9 10  1  6  0  0  0
  9 14  1  0  0  0  0
 11 16  1  0  0  0  0
 12 13  1  1  0  0  0
 12 17  1  0  0  0  0
 14 15  1  1  0  0  0
 14 18  1  0  0  0  0
 15 31  1  0  0  0  0
 16 20  1  0  0  0  0
 17  2  1  6  0  0  0
 17 22  1  0  0  0  0
 18 19  1  1  0  0  0
 18 24  1  0  0  0  0
 18 30  1  0  0  0  0
 20 21  1  0  0  0  0
 20 26  1  6  0  0  0
 22 23  1  1  0  0  0
 22 28  1  0  0  0  0
 24 25  1  0  0  0  0
 26 27  1  0  0  0  0
 28 29  1  6  0  0  0
M  END
>  <CHROM.1>
-147.98435685,177.99149798,-85.01634395,59.94770619,-101.19382392,64.60325588
-0.01397524,13.70949104,6.94620842,2.14476306,-0.60264784,-0.18571109

>  <Name>
ligand

>  <RI>
0

>  <Rbt.Current_Directory>
/home/itssahil/PROJECTS/Mol_Feturizer/New_Systems/rnas/4GPX

>  <Rbt.Executable>
rbdock ($Id: //depot/dev/client3/rdock/2013.1/src/exe/rbdock.cxx#4 $)

>  <Rbt.Library>
libRbt.so (2013.1, Build901 2013/11/27)

>  <Rbt.Parameter_File>
/export/apps/rDock/src/rDock_2013.1_src/data/scripts/dock_solv.prm

>  <Rbt.Receptor>
prm/pocket_docking_8.prm

>  <SCORE>
-13.2634

>  <SCORE.INTER>
-8.01435

>  <SCORE.INTER.CONST>
1

>  <SCORE.INTER.POLAR>
0

>  <SCORE.INTER.ROT>
6

>  <SCORE.INTER.SOLV>
10.3983

>  <SCORE.INTER.VDW>
-16.409

>  <SCORE.INTER.norm>
-0.258528

>  <SCORE.INTRA>
-5.24906

>  <SCORE.INTRA.DIHEDRAL>
-14.0196

>  <SCORE.INTRA.DIHEDRAL.0>
20.6841

>  <SCORE.INTRA.POLAR>
0

>  <SCORE.INTRA.POLAR.0>
0

>  <SCORE.INTRA.REPUL>
0

>  <SCORE.INTRA.REPUL.0>
0

>  <SCORE.INTRA.SOLV>
1.58868

>  <SCORE.INTRA.SOLV.lig_0>
-64.6797

>  <SCORE.INTRA.VDW>
0.966384

>  <SCORE.INTRA.VDW.0>
-4.11825

>  <SCORE.INTRA.norm>
-0.169324

>  <SCORE.RESTR>
0

>  <SCORE.RESTR.CAVITY>
0

>  <SCORE.RESTR.norm>
0

>  <SCORE.SYSTEM>
0

>  <SCORE.SYSTEM.CONST>
0

>  <SCORE.SYSTEM.DIHEDRAL>
0

>  <SCORE.SYSTEM.SOLV>
0

>  <SCORE.SYSTEM.norm>
0

>  <SCORE.heavy>
31

>  <SCORE.norm>
-0.427852

>  <RMSD>
4.929

$$$$
ligand
 OpenBabel11021811493D
libRbt.so/2013.1/901 2013/11/27
 31 33  0  0  0  0  0  0  0  0999 V2000
   -1.4298   16.4063    4.6091 C   0  0  2  0  0  0  0  0  0  0  0  0
   -1.4807   16.4511    6.0320 O   0  0  0  0  0  0  0  0  0  0  0  0
    2.4218   15.1857    7.1519 C   0  0  2  0  0  0  0  0  0  0  0  0
    3.5530   14.8806    7.9730 N   0  0  0  0  0  0  0  0  0  0  0  0
    2.5933   12.3013    8.1861 C   0  0  2  0  0  0  0  0  0  0  0  0
   -2.5041   17.4452    4.0870 C   0  0  2  0  0  0  0  0  0  0  0  0
   -2.1669   18.7677    4.6032 N   0  0  0  0  0  0  0  0  0  0  0  0
    2.0624   16.7164    7.3459 C   0  0  0  0  0  0  0  0  0  0  0  0
    2.6146   10.8249    7.6777 C   0  0  2  0  0  0  0  0  0  0  0  0
    2.8364   10.8376    6.2837 O   0  0  0  0  0  0  0  0  0  0  0  0
   -3.9537   17.0180    4.5508 C   0  0  0  0  0  0  0  0  0  0  0  0
    0.8159   17.0552    6.4454 C   0  0  2  0  0  0  0  0  0  0  0  0
    0.4736   18.4764    6.6259 N   0  0  0  0  0  0  0  0  0  0  0  0
    1.2123   10.1925    8.0204 C   0  0  1  0  0  0  0  0  0  0  0  0
    1.1648    8.7733    7.5362 N   0  0  0  0  0  0  0  0  0  0  0  0
   -4.1593   15.4444    4.5141 C   0  0  0  0  0  0  0  0  0  0  0  0
   -0.4154   16.1348    6.8608 C   0  0  2  0  0  0  0  0  0  0  0  0
    1.0323   10.2174    9.6407 C   0  0  1  0  0  0  0  0  0  0  0  0
    2.0634    9.5093   10.3077 O   0  0  0  0  0  0  0  0  0  0  0  0
   -3.1101   14.6049    4.3086 C   0  0  2  0  0  0  0  0  0  0  0  0
   -1.7726   15.0790    4.1143 O   0  0  0  0  0  0  0  0  0  0  0  0
   -0.0283   14.6218    6.6680 C   0  0  2  0  0  0  0  0  0  0  0  0
   -1.1462   13.7947    7.0562 O   0  0  0  0  0  0  0  0  0  0  0  0
    1.0815   11.6916   10.1585 C   0  0  0  0  0  0  0  0  0  0  0  0
    2.3539   12.3425    9.6838 O   0  0  0  0  0  0  0  0  0  0  0  0
   -3.2584   13.0829    4.2624 C   0  0  0  0  0  0  0  0  0  0  0  0
   -3.2331   12.5873    5.6218 O   0  0  0  0  0  0  0  0  0  0  0  0
    1.2034   14.2969    7.5914 C   0  0  1  0  0  0  0  0  0  0  0  0
    1.5219   12.9506    7.4274 O   0  0  0  0  0  0  0  0  0  0  0  0
   -0.3020    9.6278   10.1582 C   0  0  0  0  0  0  0  0  0  0  0  0
    0.8587    8.5717    6.1052 C   0  0  0  0  0  0  0  0  0  0  0  0
  1  2  1  1  0  0  0
  1  6  1  0  0  0  0
  1 21  1  0  0  0  0
  3  4  1  1  0  0  0
  3  8  1  0  0  0  0
  3 28  1  0  0  0  0
  5  9  1  0  0  0  0
  5 25  1  0  0  0  0
  5 29  1  6  0  0  0
  6  7  1  1  0  0  0
  6 11  1  0  0  0  0
  8 12  1  0  0  0  0
  9 10  1  6  0  0  0
  9 14  1  0  0  0  0
 11 16  1  0  0  0  0
 12 13  1  1  0  0  0
 12 17  1  0  0  0  0
 14 15  1  1  0  0  0
 14 18  1  0  0  0  0
 15 31  1  0  0  0  0
 16 20  1  0  0  0  0
 17  2  1  6  0  0  0
 17 22  1  0  0  0  0
 18 19  1  1  0  0  0
 18 24  1  0  0  0  0
 18 30  1  0  0  0  0
 20 21  1  0  0  0  0
 20 26  1  6  0  0  0
 22 23  1  1  0  0  0
 22 28  1  0  0  0  0
 24 25  1  0  0  0  0
 26 27  1  0  0  0  0
 28 29  1  6  0  0  0
M  END
>  <CHROM.1>
-153.33967510,-179.20507245,-81.60063604,55.80384703,-83.80530449,63.78781029
0.02260369,13.68622985,6.83574975,2.15831158,-0.56285377,-0.19683282

>  <Name>
ligand

>  <RI>
0

>  <Rbt.Current_Directory>
/home/itssahil/PROJECTS/Mol_Feturizer/New_Systems/rnas/4GPX

>  <Rbt.Executable>
rbdock ($Id: //depot/dev/client3/rdock/2013.1/src/exe/rbdock.cxx#4 $)

>  <Rbt.Library>
libRbt.so (2013.1, Build901 2013/11/27)

>  <Rbt.Parameter_File>
/export/apps/rDock/src/rDock_2013.1_src/data/scripts/dock_solv.prm

>  <Rbt.Receptor>
prm/pocket_docking_8.prm

>  <SCORE>
-13.0551

>  <SCORE.INTER>
-7.71658

>  <SCORE.INTER.CONST>
1

>  <SCORE.INTER.POLAR>
0

>  <SCORE.INTER.ROT>
6

>  <SCORE.INTER.SOLV>
10.8454

>  <SCORE.INTER.VDW>
-16.3595

>  <SCORE.INTER.norm>
-0.248922

>  <SCORE.INTRA>
-5.33848

>  <SCORE.INTRA.DIHEDRAL>
-14.2506

>  <SCORE.INTRA.DIHEDRAL.0>
20.6841

>  <SCORE.INTRA.POLAR>
0

>  <SCORE.INTRA.POLAR.0>
0

>  <SCORE.INTRA.REPUL>
0

>  <SCORE.INTRA.REPUL.0>
0

>  <SCORE.INTRA.SOLV>
1.24659

>  <SCORE.INTRA.SOLV.lig_0>
-64.6797

>  <SCORE.INTRA.VDW>
1.16354

>  <SCORE.INTRA.VDW.0>
-4.11825

>  <SCORE.INTRA.norm>
-0.172209

>  <SCORE.RESTR>
0

>  <SCORE.RESTR.CAVITY>
0

>  <SCORE.RESTR.norm>
0

>  <SCORE.SYSTEM>
0

>  <SCORE.SYSTEM.CONST>
0

>  <SCORE.SYSTEM.DIHEDRAL>
0

>  <SCORE.SYSTEM.SOLV>
0

>  <SCORE.SYSTEM.norm>
0

>  <SCORE.heavy>
31

>  <SCORE.norm>
-0.421131

>  <RMSD>
4.990

$$$$
ligand
 OpenBabel11021811493D
libRbt.so/2013.1/901 2013/11/27
 31 33  0  0  0  0  0  0  0  0999 V2000
   -1.5423   17.1511    4.5810 C   0  0  2  0  0  0  0  0  0  0  0  0
   -1.1864   16.0004    5.3415 O   0  0  0  0  0  0  0  0  0  0  0  0
    2.4592   14.1539    6.5182 C   0  0  2  0  0  0  0  0  0  0  0  0
    3.7307   13.9672    7.1469 N   0  0  0  0  0  0  0  0  0  0  0  0
    2.3730   12.9049    9.3625 C   0  0  2  0  0  0  0  0  0  0  0  0
   -1.6663   18.3493    5.6082 C   0  0  2  0  0  0  0  0  0  0  0  0
   -0.3860   18.5192    6.2873 N   0  0  0  0  0  0  0  0  0  0  0  0
    2.5503   15.4238    5.5753 C   0  0  0  0  0  0  0  0  0  0  0  0
    1.9688   11.5066    9.9282 C   0  0  2  0  0  0  0  0  0  0  0  0
    1.8112   10.6167    8.8439 O   0  0  0  0  0  0  0  0  0  0  0  0
   -2.8180   18.0622    6.6522 C   0  0  0  0  0  0  0  0  0  0  0  0
    1.1515   15.6340    4.8834 C   0  0  2  0  0  0  0  0  0  0  0  0
    1.2285   16.8170    4.0093 N   0  0  0  0  0  0  0  0  0  0  0  0
    0.6117   11.6926   10.7077 C   0  0  1  0  0  0  0  0  0  0  0  0
    0.1601   10.3728   11.2603 N   0  0  0  0  0  0  0  0  0  0  0  0
   -4.0650   17.3366    5.9902 C   0  0  0  0  0  0  0  0  0  0  0  0
    0.0273   15.8403    5.9920 C   0  0  2  0  0  0  0  0  0  0  0  0
    0.8761   12.7313   11.9364 C   0  0  1  0  0  0  0  0  0  0  0  0
    1.8875   12.2751   12.8186 O   0  0  0  0  0  0  0  0  0  0  0  0
   -4.0017   16.8512    4.7220 C   0  0  2  0  0  0  0  0  0  0  0  0
   -2.8242   16.9623    3.9141 O   0  0  0  0  0  0  0  0  0  0  0  0
   -0.0349   14.5704    6.9193 C   0  0  2  0  0  0  0  0  0  0  0  0
   -1.0493   14.7701    7.9271 O   0  0  0  0  0  0  0  0  0  0  0  0
    1.3491   14.1110   11.3736 C   0  0  0  0  0  0  0  0  0  0  0  0
    2.5521   13.9018   10.4922 O   0  0  0  0  0  0  0  0  0  0  0  0
   -5.1766   16.1473    4.0404 C   0  0  0  0  0  0  0  0  0  0  0  0
   -5.7479   17.0601    3.0736 O   0  0  0  0  0  0  0  0  0  0  0  0
    1.3631   14.3900    7.6183 C   0  0  1  0  0  0  0  0  0  0  0  0
    1.2878   13.2762    8.4517 O   0  0  0  0  0  0  0  0  0  0  0  0
   -0.3620   13.0309   12.8155 C   0  0  0  0  0  0  0  0  0  0  0  0
   -0.9150    9.6788   10.5223 C   0  0  0  0  0  0  0  0  0  0  0  0
  1  2  1  1  0  0  0
  1  6  1  0  0  0  0
  1 21  1  0  0  0  0
  3  4  1  1  0  0  0
  3  8  1  0  0  0  0
  3 28  1  0  0  0  0
  5  9  1  0  0  0  0
  5 25  1  0  0  0  0
  5 29  1  6  0  0  0
  6  7  1  1  0  0  0
  6 11  1  0  0  0  0
  8 12  1  0  0  0  0
  9 10  1  6  0  0  0
  9 14  1  0  0  0  0
 11 16  1  0  0  0  0
 12 13  1  6  0  0  0
 12 17  1  0  0  0  0
 14 15  1  1  0  0  0
 14 18  1  0  0  0  0
 15 31  1  0  0  0  0
 16 20  1  0  0  0  0
 17  2  1  6  0  0  0
 17 22  1  0  0  0  0
 18 19  1  1  0  0  0
 18 24  1  0  0  0  0
 18 30  1  0  0  0  0
 20 21  1  0  0  0  0
 20 26  1  6  0  0  0
 22 23  1  1  0  0  0
 22 28  1  0  0  0  0
 24 25  1  0  0  0  0
 26 27  1  0  0  0  0
 28 29  1  1  0  0  0
M  END
>  <CHROM.1>
-67.08967065,-171.68344067,-101.84798328,-70.47615836,105.31439218,67.88674295
-0.16810531,14.62737044,7.60547619,-2.05125913,-0.07779390,2.21727063

>  <Name>
ligand

>  <RI>
0

>  <Rbt.Current_Directory>
/home/itssahil/PROJECTS/Mol_Feturizer/New_Systems/rnas/4GPX

>  <Rbt.Executable>
rbdock ($Id: //depot/dev/client3/rdock/2013.1/src/exe/rbdock.cxx#4 $)

>  <Rbt.Library>
libRbt.so (2013.1, Build901 2013/11/27)

>  <Rbt.Parameter_File>
/export/apps/rDock/src/rDock_2013.1_src/data/scripts/dock_solv.prm

>  <Rbt.Receptor>
prm/pocket_docking_6.prm

>  <SCORE>
-15.5642

>  <SCORE.INTER>
-10.1451

>  <SCORE.INTER.CONST>
1

>  <SCORE.INTER.POLAR>
0

>  <SCORE.INTER.ROT>
6

>  <SCORE.INTER.SOLV>
9.7604

>  <SCORE.INTER.VDW>
-17.6169

>  <SCORE.INTER.norm>
-0.327261

>  <SCORE.INTRA>
-5.41908

>  <SCORE.INTRA.DIHEDRAL>
-16.3603

>  <SCORE.INTRA.DIHEDRAL.0>
20.6841

>  <SCORE.INTRA.POLAR>
0

>  <SCORE.INTRA.POLAR.0>
0

>  <SCORE.INTRA.REPUL>
0

>  <SCORE.INTRA.REPUL.0>
0

>  <SCORE.INTRA.SOLV>
2.47171

>  <SCORE.INTRA.SOLV.lig_0>
-64.6797

>  <SCORE.INTRA.VDW>
1.52524

>  <SCORE.INTRA.VDW.0>
-4.11825

>  <SCORE.INTRA.norm>
-0.174809

>  <SCORE.RESTR>
0

>  <SCORE.RESTR.CAVITY>
0

>  <SCORE.RESTR.norm>
0

>  <SCORE.SYSTEM>
0

>  <SCORE.SYSTEM.CONST>
0

>  <SCORE.SYSTEM.DIHEDRAL>
0

>  <SCORE.SYSTEM.SOLV>
0

>  <SCORE.SYSTEM.norm>
0

>  <SCORE.heavy>
31

>  <SCORE.norm>
-0.50207

>  <RMSD>
5.071

$$$$
ligand
 OpenBabel11021811493D
libRbt.so/2013.1/901 2013/11/27
 31 33  0  0  0  0  0  0  0  0999 V2000
   -3.5146   13.6901    6.9530 C   0  0  2  0  0  0  0  0  0  0  0  0
   -3.6257   12.2902    6.7138 O   0  0  0  0  0  0  0  0  0  0  0  0
   -0.1841   10.7044    8.6438 C   0  0  2  0  0  0  0  0  0  0  0  0
    0.7163    9.7543    9.2214 N   0  0  0  0  0  0  0  0  0  0  0  0
    1.9360    9.5467    6.7666 C   0  0  2  0  0  0  0  0  0  0  0  0
   -4.9443   14.3097    6.6735 C   0  0  2  0  0  0  0  0  0  0  0  0
   -5.9113   13.6792    7.5660 N   0  0  0  0  0  0  0  0  0  0  0  0
   -1.5645   10.6176    9.4164 C   0  0  0  0  0  0  0  0  0  0  0  0
    3.0460    9.9153    5.7318 C   0  0  2  0  0  0  0  0  0  0  0  0
    3.3461   11.2876    5.8713 O   0  0  0  0  0  0  0  0  0  0  0  0
   -5.3535   14.0900    5.1625 C   0  0  0  0  0  0  0  0  0  0  0  0
   -2.5590   11.6603    8.7815 C   0  0  2  0  0  0  0  0  0  0  0  0
   -3.8466   11.5803    9.4925 N   0  0  0  0  0  0  0  0  0  0  0  0
    2.4692    9.6064    4.2981 C   0  0  1  0  0  0  0  0  0  0  0  0
    3.4879    9.9607    3.2552 N   0  0  0  0  0  0  0  0  0  0  0  0
   -4.1196   14.2409    4.1754 C   0  0  0  0  0  0  0  0  0  0  0  0
   -2.7625   11.3390    7.2352 C   0  0  2  0  0  0  0  0  0  0  0  0
    2.1470    8.0101    4.2191 C   0  0  1  0  0  0  0  0  0  0  0  0
    3.2955    7.2165    4.4647 O   0  0  0  0  0  0  0  0  0  0  0  0
   -2.8492   14.3328    4.6502 C   0  0  2  0  0  0  0  0  0  0  0  0
   -2.5473   14.3006    6.0500 O   0  0  0  0  0  0  0  0  0  0  0  0
   -1.3764   11.4225    6.4949 C   0  0  2  0  0  0  0  0  0  0  0  0
   -1.5686   11.1201    5.0963 O   0  0  0  0  0  0  0  0  0  0  0  0
    1.0870    7.6275    5.3026 C   0  0  0  0  0  0  0  0  0  0  0  0
    1.5742    8.0775    6.6547 O   0  0  0  0  0  0  0  0  0  0  0  0
   -1.6289   14.4819    3.7397 C   0  0  0  0  0  0  0  0  0  0  0  0
   -1.0453   13.1710    3.5519 O   0  0  0  0  0  0  0  0  0  0  0  0
   -0.4044   10.3591    7.1273 C   0  0  1  0  0  0  0  0  0  0  0  0
    0.8105   10.4286    6.4493 O   0  0  0  0  0  0  0  0  0  0  0  0
    1.5685    7.5272    2.8671 C   0  0  0  0  0  0  0  0  0  0  0  0
    3.4135   11.3247    2.6931 C   0  0  0  0  0  0  0  0  0  0  0  0
  1  2  1  6  0  0  0
  1  6  1  0  0  0  0
  1 21  1  0  0  0  0
  3  4  1  1  0  0  0
  3  8  1  0  0  0  0
  3 28  1  0  0  0  0
  5  9  1  0  0  0  0
  5 25  1  0  0  0  0
  5 29  1  6  0  0  0
  6  7  1  1  0  0  0
  6 11  1  0  0  0  0
  8 12  1  0  0  0  0
  9 10  1  6  0  0  0
  9 14  1  0  0  0  0
 11 16  1  0  0  0  0
 12 13  1  1  0  0  0
 12 17  1  0  0  0  0
 14 15  1  6  0  0  0
 14 18  1  0  0  0  0
 15 31  1  0  0  0  0
 16 20  1  0  0  0  0
 17  2  1  6  0  0  0
 17 22  1  0  0  0  0
 18 19  1  1  0  0  0
 18 24  1  0  0  0  0
 18 30  1  0  0  0  0
 20 21  1  0  0  0  0
 20 26  1  1  0  0  0
 22 23  1  6  0  0  0
 22 28  1  0  0  0  0
 24 25  1  0  0  0  0
 26 27  1  0  0  0  0
 28 29  1  6  0  0  0
M  END
>  <CHROM.1>
-158.46362216,177.19622568,-92.20383473,46.30671460,-97.29383340,62.73995324
-0.63889304,11.20544820,5.94040594,3.05302219,0.63217034,-1.05840348

>  <Name>
ligand

>  <RI>
0

>  <Rbt.Current_Directory>
/home/itssahil/PROJECTS/Mol_Feturizer/New_Systems/rnas/4GPX

>  <Rbt.Executable>
rbdock ($Id: //depot/dev/client3/rdock/2013.1/src/exe/rbdock.cxx#4 $)

>  <Rbt.Library>
libRbt.so (2013.1, Build901 2013/11/27)

>  <Rbt.Parameter_File>
/export/apps/rDock/src/rDock_2013.1_src/data/scripts/dock_solv.prm

>  <Rbt.Receptor>
prm/pocket_docking_7.prm

>  <SCORE>
-9.22769

>  <SCORE.INTER>
-3.4686

>  <SCORE.INTER.CONST>
1

>  <SCORE.INTER.POLAR>
0

>  <SCORE.INTER.ROT>
6

>  <SCORE.INTER.SOLV>
11.7655

>  <SCORE.INTER.VDW>
-13.8342

>  <SCORE.INTER.norm>
-0.11189

>  <SCORE.INTRA>
-5.75909

>  <SCORE.INTRA.DIHEDRAL>
-14.7051

>  <SCORE.INTRA.DIHEDRAL.0>
20.6841

>  <SCORE.INTRA.POLAR>
0

>  <SCORE.INTRA.POLAR.0>
0

>  <SCORE.INTRA.REPUL>
2.37493e-06

>  <SCORE.INTRA.REPUL.0>
0

>  <SCORE.INTRA.SOLV>
1.19251

>  <SCORE.INTRA.SOLV.lig_0>
-64.6797

>  <SCORE.INTRA.VDW>
0.997208

>  <SCORE.INTRA.VDW.0>
-4.11825

>  <SCORE.INTRA.norm>
-0.185777

>  <SCORE.RESTR>
0

>  <SCORE.RESTR.CAVITY>
0

>  <SCORE.RESTR.norm>
0

>  <SCORE.SYSTEM>
0

>  <SCORE.SYSTEM.CONST>
0

>  <SCORE.SYSTEM.DIHEDRAL>
0

>  <SCORE.SYSTEM.SOLV>
0

>  <SCORE.SYSTEM.norm>
0

>  <SCORE.heavy>
31

>  <SCORE.norm>
-0.297667

>  <RMSD>
5.073

$$$$
ligand
 OpenBabel11021811493D
libRbt.so/2013.1/901 2013/11/27
 31 33  0  0  0  0  0  0  0  0999 V2000
   -4.4119   15.5189    6.4633 C   0  0  2  0  0  0  0  0  0  0  0  0
   -3.4365   14.6074    5.9665 O   0  0  0  0  0  0  0  0  0  0  0  0
    0.2583   14.8475    3.8749 C   0  0  2  0  0  0  0  0  0  0  0  0
    1.6113   15.1992    3.5706 N   0  0  0  0  0  0  0  0  0  0  0  0
    2.4273   12.8507    5.1069 C   0  0  2  0  0  0  0  0  0  0  0  0
   -5.4571   14.6577    7.2830 C   0  0  2  0  0  0  0  0  0  0  0  0
   -4.7548   13.9697    8.3612 N   0  0  0  0  0  0  0  0  0  0  0  0
   -0.5790   16.1820    4.0416 C   0  0  0  0  0  0  0  0  0  0  0  0
    2.8297   11.3502    4.9481 C   0  0  2  0  0  0  0  0  0  0  0  0
    2.2912   10.8714    3.7343 O   0  0  0  0  0  0  0  0  0  0  0  0
   -6.1785   13.6189    6.3347 C   0  0  0  0  0  0  0  0  0  0  0  0
   -2.0684   15.7987    4.3792 C   0  0  2  0  0  0  0  0  0  0  0  0
   -2.8510   17.0361    4.5409 N   0  0  0  0  0  0  0  0  0  0  0  0
    2.2270   10.5722    6.1790 C   0  0  1  0  0  0  0  0  0  0  0  0
    2.5651    9.1144    6.0716 N   0  0  0  0  0  0  0  0  0  0  0  0
   -6.4679   14.2178    4.8935 C   0  0  0  0  0  0  0  0  0  0  0  0
   -2.1135   14.9392    5.7190 C   0  0  2  0  0  0  0  0  0  0  0  0
    2.8938   11.1834    7.5355 C   0  0  1  0  0  0  0  0  0  0  0  0
    4.3074   11.0772    7.5353 O   0  0  0  0  0  0  0  0  0  0  0  0
   -5.9406   15.4110    4.5113 C   0  0  2  0  0  0  0  0  0  0  0  0
   -5.1034   16.1925    5.3715 O   0  0  0  0  0  0  0  0  0  0  0  0
   -1.2671   13.6264    5.5293 C   0  0  2  0  0  0  0  0  0  0  0  0
   -1.3051   12.8585    6.7514 O   0  0  0  0  0  0  0  0  0  0  0  0
    2.5499   12.7035    7.6585 C   0  0  0  0  0  0  0  0  0  0  0  0
    2.9813   13.4135    6.4025 O   0  0  0  0  0  0  0  0  0  0  0  0
   -6.1926   16.0301    3.1352 C   0  0  0  0  0  0  0  0  0  0  0  0
   -7.2500   17.0090    3.2695 O   0  0  0  0  0  0  0  0  0  0  0  0
    0.2211   14.0292    5.2152 C   0  0  1  0  0  0  0  0  0  0  0  0
    0.9631   12.8590    5.0709 O   0  0  0  0  0  0  0  0  0  0  0  0
    2.4110   10.5288    8.8523 C   0  0  0  0  0  0  0  0  0  0  0  0
    1.4324    8.1833    5.8925 C   0  0  0  0  0  0  0  0  0  0  0  0
  1  2  1  6  0  0  0
  1  6  1  0  0  0  0
  1 21  1  0  0  0  0
  3  4  1  1  0  0  0
  3  8  1  0  0  0  0
  3 28  1  0  0  0  0
  5  9  1  0  0  0  0
  5 25  1  0  0  0  0
  5 29  1  1  0  0  0
  6  7  1  1  0  0  0
  6 11  1  0  0  0  0
  8 12  1  0  0  0  0
  9 10  1  6  0  0  0
  9 14  1  0  0  0  0
 11 16  1  0  0  0  0
 12 13  1  1  0  0  0
 12 17  1  0  0  0  0
 14 15  1  6  0  0  0
 14 18  1  0  0  0  0
 15 31  1  0  0  0  0
 16 20  1  0  0  0  0
 17  2  1  6  0  0  0
 17 22  1  0  0  0  0
 18 19  1  6  0  0  0
 18 24  1  0  0  0  0
 18 30  1  0  0  0  0
 20 21  1  0  0  0  0
 20 26  1  1  0  0  0
 22 23  1  1  0  0  0
 22 28  1  0  0  0  0
 24 25  1  0  0  0  0
 26 27  1  0  0  0  0
 28 29  1  6  0  0  0
M  END
>  <CHROM.1>
-150.92280769,178.48769366,-115.21334188,-74.90934186,98.30467750,76.94723425
-1.06955888,13.54632872,5.62072110,2.66721932,0.22838441,-0.69802418

>  <Name>
ligand

>  <RI>
0

>  <Rbt.Current_Directory>
/home/itssahil/PROJECTS/Mol_Feturizer/New_Systems/rnas/4GPX

>  <Rbt.Executable>
rbdock ($Id: //depot/dev/client3/rdock/2013.1/src/exe/rbdock.cxx#4 $)

>  <Rbt.Library>
libRbt.so (2013.1, Build901 2013/11/27)

>  <Rbt.Parameter_File>
/export/apps/rDock/src/rDock_2013.1_src/data/scripts/dock_solv.prm

>  <Rbt.Receptor>
prm/pocket_docking_7.prm

>  <SCORE>
-13.4179

>  <SCORE.INTER>
-8.58119

>  <SCORE.INTER.CONST>
1

>  <SCORE.INTER.POLAR>
0

>  <SCORE.INTER.ROT>
6

>  <SCORE.INTER.SOLV>
11.6376

>  <SCORE.INTER.VDW>
-17.2

>  <SCORE.INTER.norm>
-0.276812

>  <SCORE.INTRA>
-4.83671

>  <SCORE.INTRA.DIHEDRAL>
-11.4558

>  <SCORE.INTRA.DIHEDRAL.0>
20.6841

>  <SCORE.INTRA.POLAR>
0

>  <SCORE.INTRA.POLAR.0>
0

>  <SCORE.INTRA.REPUL>
0

>  <SCORE.INTRA.REPUL.0>
0

>  <SCORE.INTRA.SOLV>
0.790997

>  <SCORE.INTRA.SOLV.lig_0>
-64.6797

>  <SCORE.INTRA.VDW>
0.495703

>  <SCORE.INTRA.VDW.0>
-4.11825

>  <SCORE.INTRA.norm>
-0.156023

>  <SCORE.RESTR>
0

>  <SCORE.RESTR.CAVITY>
0

>  <SCORE.RESTR.norm>
0

>  <SCORE.SYSTEM>
0

>  <SCORE.SYSTEM.CONST>
0

>  <SCORE.SYSTEM.DIHEDRAL>
0

>  <SCORE.SYSTEM.SOLV>
0

>  <SCORE.SYSTEM.norm>
0

>  <SCORE.heavy>
31

>  <SCORE.norm>
-0.432835

>  <RMSD>
5.143

$$$$
ligand
 OpenBabel11021811493D
libRbt.so/2013.1/901 2013/11/27
 31 33  0  0  0  0  0  0  0  0999 V2000
   -1.1533   18.1739    5.1135 C   0  0  2  0  0  0  0  0  0  0  0  0
   -0.6685   17.1846    6.0166 O   0  0  0  0  0  0  0  0  0  0  0  0
    0.7385   13.2357    5.3022 C   0  0  2  0  0  0  0  0  0  0  0  0
    1.6077   12.1666    4.9171 N   0  0  0  0  0  0  0  0  0  0  0  0
    2.4882   13.6095    8.6749 C   0  0  2  0  0  0  0  0  0  0  0  0
   -1.4989   19.4492    5.9854 C   0  0  2  0  0  0  0  0  0  0  0  0
   -0.2901   19.8868    6.6758 N   0  0  0  0  0  0  0  0  0  0  0  0
    0.5134   14.1734    4.0453 C   0  0  0  0  0  0  0  0  0  0  0  0
    2.9483   12.2580    9.3078 C   0  0  2  0  0  0  0  0  0  0  0  0
    3.5937   11.4964    8.3098 O   0  0  0  0  0  0  0  0  0  0  0  0
   -2.6434   19.1131    7.0227 C   0  0  0  0  0  0  0  0  0  0  0  0
   -0.4410   15.3530    4.4663 C   0  0  2  0  0  0  0  0  0  0  0  0
   -0.6497   16.2317    3.3027 N   0  0  0  0  0  0  0  0  0  0  0  0
    1.6560   11.5235    9.8313 C   0  0  1  0  0  0  0  0  0  0  0  0
    2.0336   10.2031   10.4355 N   0  0  0  0  0  0  0  0  0  0  0  0
   -3.7386   18.1368    6.4169 C   0  0  0  0  0  0  0  0  0  0  0  0
    0.2114   16.1725    5.6657 C   0  0  2  0  0  0  0  0  0  0  0  0
    0.9706   12.4643   10.9729 C   0  0  1  0  0  0  0  0  0  0  0  0
    1.8516   12.7304   12.0511 O   0  0  0  0  0  0  0  0  0  0  0  0
   -3.5462   17.5247    5.2186 C   0  0  2  0  0  0  0  0  0  0  0  0
   -2.3615   17.7188    4.4374 O   0  0  0  0  0  0  0  0  0  0  0  0
    0.4328   15.2163    6.8956 C   0  0  2  0  0  0  0  0  0  0  0  0
    1.0335   15.9648    7.9742 O   0  0  0  0  0  0  0  0  0  0  0  0
    0.5736   13.8448   10.3560 C   0  0  0  0  0  0  0  0  0  0  0  0
    1.7835   14.4664    9.7098 O   0  0  0  0  0  0  0  0  0  0  0  0
   -4.5726   16.5783    4.5929 C   0  0  0  0  0  0  0  0  0  0  0  0
   -4.9948   17.1447    3.3298 O   0  0  0  0  0  0  0  0  0  0  0  0
    1.4056   14.0580    6.4625 C   0  0  1  0  0  0  0  0  0  0  0  0
    1.6100   13.2317    7.5653 O   0  0  0  0  0  0  0  0  0  0  0  0
   -0.3220   11.8905   11.6019 C   0  0  0  0  0  0  0  0  0  0  0  0
    1.5065    8.9948    9.7689 C   0  0  0  0  0  0  0  0  0  0  0  0
  1  2  1  1  0  0  0
  1  6  1  0  0  0  0
  1 21  1  0  0  0  0
  3  4  1  6  0  0  0
  3  8  1  0  0  0  0
  3 28  1  0  0  0  0
  5  9  1  0  0  0  0
  5 25  1  0  0  0  0
  5 29  1  6  0  0  0
  6  7  1  1  0  0  0
  6 11  1  0  0  0  0
  8 12  1  0  0  0  0
  9 10  1  6  0  0  0
  9 14  1  0  0  0  0
 11 16  1  0  0  0  0
 12 13  1  6  0  0  0
 12 17  1  0  0  0  0
 14 15  1  1  0  0  0
 14 18  1  0  0  0  0
 15 31  1  0  0  0  0
 16 20  1  0  0  0  0
 17  2  1  1  0  0  0
 17 22  1  0  0  0  0
 18 19  1  1  0  0  0
 18 24  1  0  0  0  0
 18 30  1  0  0  0  0
 20 21  1  0  0  0  0
 20 26  1  6  0  0  0
 22 23  1  1  0  0  0
 22 28  1  0  0  0  0
 24 25  1  0  0  0  0
 26 27  1  0  0  0  0
 28 29  1  1  0  0  0
M  END
>  <CHROM.1>
-152.98012607,-154.77529878,-116.28727648,-56.71822396,118.69365450,165.18697753
0.00149053,14.83356373,7.19659972,2.69092565,0.99496758,-1.72830747

>  <Name>
ligand

>  <RI>
0

>  <Rbt.Current_Directory>
/home/itssahil/PROJECTS/Mol_Feturizer/New_Systems/rnas/4GPX

>  <Rbt.Executable>
rbdock ($Id: //depot/dev/client3/rdock/2013.1/src/exe/rbdock.cxx#4 $)

>  <Rbt.Library>
libRbt.so (2013.1, Build901 2013/11/27)

>  <Rbt.Parameter_File>
/export/apps/rDock/src/rDock_2013.1_src/data/scripts/dock_solv.prm

>  <Rbt.Receptor>
prm/pocket_docking_6.prm

>  <SCORE>
-11.4276

>  <SCORE.INTER>
-8.31602

>  <SCORE.INTER.CONST>
1

>  <SCORE.INTER.POLAR>
0

>  <SCORE.INTER.ROT>
6

>  <SCORE.INTER.SOLV>
11.9068

>  <SCORE.INTER.VDW>
-17.113

>  <SCORE.INTER.norm>
-0.268259

>  <SCORE.INTRA>
-3.11162

>  <SCORE.INTRA.DIHEDRAL>
-10.9749

>  <SCORE.INTRA.DIHEDRAL.0>
20.6841

>  <SCORE.INTRA.POLAR>
0

>  <SCORE.INTRA.POLAR.0>
0

>  <SCORE.INTRA.REPUL>
0

>  <SCORE.INTRA.REPUL.0>
0

>  <SCORE.INTRA.SOLV>
-0.240258

>  <SCORE.INTRA.SOLV.lig_0>
-64.6797

>  <SCORE.INTRA.VDW>
2.49593

>  <SCORE.INTRA.VDW.0>
-4.11825

>  <SCORE.INTRA.norm>
-0.100375

>  <SCORE.RESTR>
0

>  <SCORE.RESTR.CAVITY>
0

>  <SCORE.RESTR.norm>
0

>  <SCORE.SYSTEM>
0

>  <SCORE.SYSTEM.CONST>
0

>  <SCORE.SYSTEM.DIHEDRAL>
0

>  <SCORE.SYSTEM.SOLV>
0

>  <SCORE.SYSTEM.norm>
0

>  <SCORE.heavy>
31

>  <SCORE.norm>
-0.368634

>  <RMSD>
5.204

$$$$
ligand
 OpenBabel11021811493D
libRbt.so/2013.1/901 2013/11/27
 31 33  0  0  0  0  0  0  0  0999 V2000
   -1.1479   17.5789    4.8822 C   0  0  2  0  0  0  0  0  0  0  0  0
   -0.8975   16.3999    5.6416 O   0  0  0  0  0  0  0  0  0  0  0  0
    2.5739   14.1719    6.6755 C   0  0  2  0  0  0  0  0  0  0  0  0
    3.8386   13.8463    7.2597 N   0  0  0  0  0  0  0  0  0  0  0  0
    2.4483   12.8976    9.5089 C   0  0  2  0  0  0  0  0  0  0  0  0
   -1.3106   18.7596    5.9240 C   0  0  2  0  0  0  0  0  0  0  0  0
   -0.0843   18.8660    6.7076 N   0  0  0  0  0  0  0  0  0  0  0  0
    2.7654   15.4398    5.7451 C   0  0  0  0  0  0  0  0  0  0  0  0
    1.9368   11.5218   10.0418 C   0  0  2  0  0  0  0  0  0  0  0  0
    1.6794   10.6840    8.9353 O   0  0  0  0  0  0  0  0  0  0  0  0
   -2.5532   18.4960    6.8650 C   0  0  0  0  0  0  0  0  0  0  0  0
    1.3745   15.8027    5.1022 C   0  0  2  0  0  0  0  0  0  0  0  0
    1.5453   16.9846    4.2400 N   0  0  0  0  0  0  0  0  0  0  0  0
    0.6180   11.7985   10.8591 C   0  0  1  0  0  0  0  0  0  0  0  0
    0.0657   10.5054   11.3825 N   0  0  0  0  0  0  0  0  0  0  0  0
   -3.7681   17.8328    6.0881 C   0  0  0  0  0  0  0  0  0  0  0  0
    0.3131   16.1064    6.2497 C   0  0  2  0  0  0  0  0  0  0  0  0
    0.9976   12.7707   12.1117 C   0  0  1  0  0  0  0  0  0  0  0  0
    1.9844   12.2013   12.9552 O   0  0  0  0  0  0  0  0  0  0  0  0
   -3.6200   17.3714    4.8180 C   0  0  2  0  0  0  0  0  0  0  0  0
   -2.3775   17.4535    4.1102 O   0  0  0  0  0  0  0  0  0  0  0  0
    0.1499   14.8358    7.1635 C   0  0  2  0  0  0  0  0  0  0  0  0
   -0.8062   15.1233    8.2065 O   0  0  0  0  0  0  0  0  0  0  0  0
    1.5761   14.1220   11.5795 C   0  0  0  0  0  0  0  0  0  0  0  0
    2.7373   13.8387   10.6634 O   0  0  0  0  0  0  0  0  0  0  0  0
   -4.7608   16.7276    4.0278 C   0  0  0  0  0  0  0  0  0  0  0  0
   -4.4185   15.3412    3.7929 O   0  0  0  0  0  0  0  0  0  0  0  0
    1.5432   14.5025    7.8139 C   0  0  1  0  0  0  0  0  0  0  0  0
    1.3800   13.3899    8.6362 O   0  0  0  0  0  0  0  0  0  0  0  0
   -0.1907   13.1472   13.0292 C   0  0  0  0  0  0  0  0  0  0  0  0
   -0.8575    9.7714   10.4931 C   0  0  0  0  0  0  0  0  0  0  0  0
  1  2  1  1  0  0  0
  1  6  1  0  0  0  0
  1 21  1  0  0  0  0
  3  4  1  1  0  0  0
  3  8  1  0  0  0  0
  3 28  1  0  0  0  0
  5  9  1  0  0  0  0
  5 25  1  0  0  0  0
  5 29  1  6  0  0  0
  6  7  1  1  0  0  0
  6 11  1  0  0  0  0
  8 12  1  0  0  0  0
  9 10  1  6  0  0  0
  9 14  1  0  0  0  0
 11 16  1  0  0  0  0
 12 13  1  6  0  0  0
 12 17  1  0  0  0  0
 14 15  1  1  0  0  0
 14 18  1  0  0  0  0
 15 31  1  0  0  0  0
 16 20  1  0  0  0  0
 17  2  1  6  0  0  0
 17 22  1  0  0  0  0
 18 19  1  1  0  0  0
 18 24  1  0  0  0  0
 18 30  1  0  0  0  0
 20 21  1  0  0  0  0
 20 26  1  6  0  0  0
 22 23  1  1  0  0  0
 22 28  1  0  0  0  0
 24 25  1  0  0  0  0
 26 27  1  0  0  0  0
 28 29  1  1  0  0  0
M  END
>  <CHROM.1>
-75.30325631,-170.28537180,-88.10245326,-69.04316326,-114.72152763,68.05305754
0.06564115,14.75395998,7.80713215,-1.99098686,-0.06685623,2.25788848

>  <Name>
ligand

>  <RI>
0

>  <Rbt.Current_Directory>
/home/itssahil/PROJECTS/Mol_Feturizer/New_Systems/rnas/4GPX

>  <Rbt.Executable>
rbdock ($Id: //depot/dev/client3/rdock/2013.1/src/exe/rbdock.cxx#4 $)

>  <Rbt.Library>
libRbt.so (2013.1, Build901 2013/11/27)

>  <Rbt.Parameter_File>
/export/apps/rDock/src/rDock_2013.1_src/data/scripts/dock_solv.prm

>  <Rbt.Receptor>
prm/pocket_docking_7.prm

>  <SCORE>
-15.7153

>  <SCORE.INTER>
-10.1378

>  <SCORE.INTER.CONST>
1

>  <SCORE.INTER.POLAR>
0

>  <SCORE.INTER.ROT>
6

>  <SCORE.INTER.SOLV>
9.15474

>  <SCORE.INTER.VDW>
-17.4101

>  <SCORE.INTER.norm>
-0.327026

>  <SCORE.INTRA>
-5.57746

>  <SCORE.INTRA.DIHEDRAL>
-16.153

>  <SCORE.INTRA.DIHEDRAL.0>
20.6841

>  <SCORE.INTRA.POLAR>
0

>  <SCORE.INTRA.POLAR.0>
0

>  <SCORE.INTRA.REPUL>
0

>  <SCORE.INTRA.REPUL.0>
0

>  <SCORE.INTRA.SOLV>
2.0283

>  <SCORE.INTRA.SOLV.lig_0>
-64.6797

>  <SCORE.INTRA.VDW>
1.48491

>  <SCORE.INTRA.VDW.0>
-4.11825

>  <SCORE.INTRA.norm>
-0.179918

>  <SCORE.RESTR>
0

>  <SCORE.RESTR.CAVITY>
0

>  <SCORE.RESTR.norm>
0

>  <SCORE.SYSTEM>
0

>  <SCORE.SYSTEM.CONST>
0

>  <SCORE.SYSTEM.DIHEDRAL>
0

>  <SCORE.SYSTEM.SOLV>
0

>  <SCORE.SYSTEM.norm>
0

>  <SCORE.heavy>
31

>  <SCORE.norm>
-0.506944

>  <RMSD>
5.260

$$$$
ligand
 OpenBabel11021811493D
libRbt.so/2013.1/901 2013/11/27
 31 33  0  0  0  0  0  0  0  0999 V2000
   -2.1183   17.0605    4.6559 C   0  0  2  0  0  0  0  0  0  0  0  0
   -1.5460   16.7504    5.9230 O   0  0  0  0  0  0  0  0  0  0  0  0
   -2.6138   17.5944    9.9518 C   0  0  2  0  0  0  0  0  0  0  0  0
   -3.3466   17.5794   11.1805 N   0  0  0  0  0  0  0  0  0  0  0  0
   -0.8237   14.2723   10.6171 C   0  0  2  0  0  0  0  0  0  0  0  0
   -2.9803   15.8025    4.2310 C   0  0  2  0  0  0  0  0  0  0  0  0
   -4.0006   15.5682    5.2474 N   0  0  0  0  0  0  0  0  0  0  0  0
   -3.5653   18.1427    8.8098 C   0  0  0  0  0  0  0  0  0  0  0  0
   -1.9845   13.4226   11.2248 C   0  0  2  0  0  0  0  0  0  0  0  0
   -3.1335   13.6025   10.4248 O   0  0  0  0  0  0  0  0  0  0  0  0
   -2.0548   14.5316    4.0657 C   0  0  0  0  0  0  0  0  0  0  0  0
   -2.7627   18.1582    7.4552 C   0  0  2  0  0  0  0  0  0  0  0  0
   -3.6442   18.6621    6.3882 N   0  0  0  0  0  0  0  0  0  0  0  0
   -2.2294   13.9471   12.6906 C   0  0  1  0  0  0  0  0  0  0  0  0
   -3.3523   13.1784   13.3226 N   0  0  0  0  0  0  0  0  0  0  0  0
   -0.6459   14.8903    3.4285 C   0  0  0  0  0  0  0  0  0  0  0  0
   -2.2626   16.6868    7.1079 C   0  0  2  0  0  0  0  0  0  0  0  0
   -0.8618   13.7074   13.5453 C   0  0  1  0  0  0  0  0  0  0  0  0
   -0.4763   12.3435   13.5727 O   0  0  0  0  0  0  0  0  0  0  0  0
   -0.2582   16.1831    3.2671 C   0  0  2  0  0  0  0  0  0  0  0  0
   -1.0835   17.2875    3.6551 O   0  0  0  0  0  0  0  0  0  0  0  0
   -1.3290   16.1637    8.2615 C   0  0  2  0  0  0  0  0  0  0  0  0
   -0.8886   14.8260    7.9433 O   0  0  0  0  0  0  0  0  0  0  0  0
    0.3172   14.5024   12.8958 C   0  0  0  0  0  0  0  0  0  0  0  0
    0.4377   14.1154   11.4454 O   0  0  0  0  0  0  0  0  0  0  0  0
    1.0875   16.5786    2.6562 C   0  0  0  0  0  0  0  0  0  0  0  0
    1.8960   15.3841    2.5382 O   0  0  0  0  0  0  0  0  0  0  0  0
   -2.1540   16.1340    9.6008 C   0  0  1  0  0  0  0  0  0  0  0  0
   -1.3230   15.6493   10.6084 O   0  0  0  0  0  0  0  0  0  0  0  0
   -0.9254   14.1687   15.0214 C   0  0  0  0  0  0  0  0  0  0  0  0
   -4.7063   13.7538   13.1888 C   0  0  0  0  0  0  0  0  0  0  0  0
  1  2  1  1  0  0  0
  1  6  1  0  0  0  0
  1 21  1  0  0  0  0
  3  4  1  1  0  0  0
  3  8  1  0  0  0  0
  3 28  1  0  0  0  0
  5  9  1  0  0  0  0
  5 25  1  0  0  0  0
  5 29  1  1  0  0  0
  6  7  1  1  0  0  0
  6 11  1  0  0  0  0
  8 12  1  0  0  0  0
  9 10  1  6  0  0  0
  9 14  1  0  0  0  0
 11 16  1  0  0  0  0
 12 13  1  6  0  0  0
 12 17  1  0  0  0  0
 14 15  1  1  0  0  0
 14 18  1  0  0  0  0
 15 31  1  0  0  0  0
 16 20  1  0  0  0  0
 17  2  1  6  0  0  0
 17 22  1  0  0  0  0
 18 19  1  6  0  0  0
 18 24  1  0  0  0  0
 18 30  1  0  0  0  0
 20 21  1  0  0  0  0
 20 26  1  6  0  0  0
 22 23  1  6  0  0  0
 22 28  1  0  0  0  0
 24 25  1  0  0  0  0
 26 27  1  0  0  0  0
 28 29  1  1  0  0  0
M  END
>  <CHROM.1>
-71.72039258,-82.11605439,-92.48607467,-67.14669751,-10.16234171,174.85823094
-1.68874486,15.47629484,8.54964521,1.47330003,0.63655836,-1.25665030

>  <Name>
ligand

>  <RI>
0

>  <Rbt.Current_Directory>
/home/itssahil/PROJECTS/Mol_Feturizer/New_Systems/rnas/4GPX

>  <Rbt.Executable>
rbdock ($Id: //depot/dev/client3/rdock/2013.1/src/exe/rbdock.cxx#4 $)

>  <Rbt.Library>
libRbt.so (2013.1, Build901 2013/11/27)

>  <Rbt.Parameter_File>
/export/apps/rDock/src/rDock_2013.1_src/data/scripts/dock_solv.prm

>  <Rbt.Receptor>
prm/pocket_docking_7.prm

>  <SCORE>
-8.24395

>  <SCORE.INTER>
-4.67669

>  <SCORE.INTER.CONST>
1

>  <SCORE.INTER.POLAR>
0

>  <SCORE.INTER.ROT>
6

>  <SCORE.INTER.SOLV>
8.58279

>  <SCORE.INTER.VDW>
-13.5787

>  <SCORE.INTER.norm>
-0.150861

>  <SCORE.INTRA>
-3.56726

>  <SCORE.INTRA.DIHEDRAL>
-14.9889

>  <SCORE.INTRA.DIHEDRAL.0>
20.6841

>  <SCORE.INTRA.POLAR>
0

>  <SCORE.INTRA.POLAR.0>
0

>  <SCORE.INTRA.REPUL>
0

>  <SCORE.INTRA.REPUL.0>
0

>  <SCORE.INTRA.SOLV>
2.05738

>  <SCORE.INTRA.SOLV.lig_0>
-64.6797

>  <SCORE.INTRA.VDW>
2.89849

>  <SCORE.INTRA.VDW.0>
-4.11825

>  <SCORE.INTRA.norm>
-0.115073

>  <SCORE.RESTR>
0

>  <SCORE.RESTR.CAVITY>
0

>  <SCORE.RESTR.norm>
0

>  <SCORE.SYSTEM>
0

>  <SCORE.SYSTEM.CONST>
0

>  <SCORE.SYSTEM.DIHEDRAL>
0

>  <SCORE.SYSTEM.SOLV>
0

>  <SCORE.SYSTEM.norm>
0

>  <SCORE.heavy>
31

>  <SCORE.norm>
-0.265934

>  <RMSD>
5.332

$$$$
ligand
 OpenBabel11021811493D
libRbt.so/2013.1/901 2013/11/27
 31 33  0  0  0  0  0  0  0  0999 V2000
   -4.4680   13.0736   11.7116 C   0  0  2  0  0  0  0  0  0  0  0  0
   -4.0479   11.8146   12.2290 O   0  0  0  0  0  0  0  0  0  0  0  0
    0.1683   12.2486   12.5745 C   0  0  2  0  0  0  0  0  0  0  0  0
    1.5172   12.0000   12.9812 N   0  0  0  0  0  0  0  0  0  0  0  0
    0.3773    9.4836    9.9601 C   0  0  2  0  0  0  0  0  0  0  0  0
   -6.0504   13.0411   11.6768 C   0  0  2  0  0  0  0  0  0  0  0  0
   -6.5446   12.8159   13.0312 N   0  0  0  0  0  0  0  0  0  0  0  0
   -0.7049   12.5052   13.8713 C   0  0  0  0  0  0  0  0  0  0  0  0
    1.7858    9.3745    9.2946 C   0  0  2  0  0  0  0  0  0  0  0  0
    2.7643    9.4519   10.3091 O   0  0  0  0  0  0  0  0  0  0  0  0
   -6.5562   11.9042   10.7019 C   0  0  0  0  0  0  0  0  0  0  0  0
   -2.1911   12.7767   13.4275 C   0  0  2  0  0  0  0  0  0  0  0  0
   -3.0091   13.0106   14.6299 N   0  0  0  0  0  0  0  0  0  0  0  0
    1.9209   10.5787    8.2869 C   0  0  1  0  0  0  0  0  0  0  0  0
    3.2681   10.5388    7.6277 N   0  0  0  0  0  0  0  0  0  0  0  0
   -5.6435   11.7671    9.4104 C   0  0  0  0  0  0  0  0  0  0  0  0
   -2.7488   11.5250   12.6164 C   0  0  2  0  0  0  0  0  0  0  0  0
    0.7595   10.4185    7.1539 C   0  0  1  0  0  0  0  0  0  0  0  0
    0.8524    9.1869    6.4583 O   0  0  0  0  0  0  0  0  0  0  0  0
   -4.4594   12.4278    9.3155 C   0  0  2  0  0  0  0  0  0  0  0  0
   -3.9671   13.2773   10.3583 O   0  0  0  0  0  0  0  0  0  0  0  0
   -1.8587   11.2871   11.3409 C   0  0  2  0  0  0  0  0  0  0  0  0
   -2.3652   10.1449   10.6173 O   0  0  0  0  0  0  0  0  0  0  0  0
   -0.6503   10.4570    7.8285 C   0  0  0  0  0  0  0  0  0  0  0  0
   -0.7131    9.4087    8.9079 O   0  0  0  0  0  0  0  0  0  0  0  0
   -3.5471   12.3297    8.0913 C   0  0  0  0  0  0  0  0  0  0  0  0
   -4.0867   13.1879    7.0586 O   0  0  0  0  0  0  0  0  0  0  0  0
   -0.3838   10.9955   11.8048 C   0  0  1  0  0  0  0  0  0  0  0  0
    0.3882   10.7657   10.6682 O   0  0  0  0  0  0  0  0  0  0  0  0
    0.7454   11.5260    6.0727 C   0  0  0  0  0  0  0  0  0  0  0  0
    4.3130   11.4100    8.2032 C   0  0  0  0  0  0  0  0  0  0  0  0
  1  2  1  6  0  0  0
  1  6  1  0  0  0  0
  1 21  1  0  0  0  0
  3  4  1  1  0  0  0
  3  8  1  0  0  0  0
  3 28  1  0  0  0  0
  5  9  1  0  0  0  0
  5 25  1  0  0  0  0
  5 29  1  6  0  0  0
  6  7  1  1  0  0  0
  6 11  1  0  0  0  0
  8 12  1  0  0  0  0
  9 10  1  1  0  0  0
  9 14  1  0  0  0  0
 11 16  1  0  0  0  0
 12 13  1  1  0  0  0
 12 17  1  0  0  0  0
 14 15  1  6  0  0  0
 14 18  1  0  0  0  0
 15 31  1  0  0  0  0
 16 20  1  0  0  0  0
 17  2  1  6  0  0  0
 17 22  1  0  0  0  0
 18 19  1  6  0  0  0
 18 24  1  0  0  0  0
 18 30  1  0  0  0  0
 20 21  1  0  0  0  0
 20 26  1  6  0  0  0
 22 23  1  1  0  0  0
 22 28  1  0  0  0  0
 24 25  1  0  0  0  0
 26 27  1  0  0  0  0
 28 29  1  6  0  0  0
M  END
>  <CHROM.1>
-169.16919819,-151.91305882,-97.56963555,42.65516131,78.73513970,162.24334647
-1.44144998,11.42621403,10.21912257,-2.65571651,0.24817645,-1.72750406

>  <Name>
ligand

>  <RI>
0

>  <Rbt.Current_Directory>
/home/itssahil/PROJECTS/Mol_Feturizer/New_Systems/rnas/4GPX

>  <Rbt.Executable>
rbdock ($Id: //depot/dev/client3/rdock/2013.1/src/exe/rbdock.cxx#4 $)

>  <Rbt.Library>
libRbt.so (2013.1, Build901 2013/11/27)

>  <Rbt.Parameter_File>
/export/apps/rDock/src/rDock_2013.1_src/data/scripts/dock_solv.prm

>  <Rbt.Receptor>
prm/pocket_docking_4.prm

>  <SCORE>
-11.6074

>  <SCORE.INTER>
-6.76114

>  <SCORE.INTER.CONST>
1

>  <SCORE.INTER.POLAR>
0

>  <SCORE.INTER.ROT>
6

>  <SCORE.INTER.SOLV>
13.1464

>  <SCORE.INTER.VDW>
-16.4896

>  <SCORE.INTER.norm>
-0.218101

>  <SCORE.INTRA>
-4.89276

>  <SCORE.INTRA.DIHEDRAL>
-10.0324

>  <SCORE.INTRA.DIHEDRAL.0>
20.6841

>  <SCORE.INTRA.POLAR>
0

>  <SCORE.INTRA.POLAR.0>
0

>  <SCORE.INTRA.REPUL>
0

>  <SCORE.INTRA.REPUL.0>
0

>  <SCORE.INTRA.SOLV>
-1.04091

>  <SCORE.INTRA.SOLV.lig_0>
-64.6797

>  <SCORE.INTRA.VDW>
0.643879

>  <SCORE.INTRA.VDW.0>
-4.11825

>  <SCORE.INTRA.norm>
-0.157831

>  <SCORE.RESTR>
0.0464881

>  <SCORE.RESTR.CAVITY>
0.0464881

>  <SCORE.RESTR.norm>
0.00149962

>  <SCORE.SYSTEM>
0

>  <SCORE.SYSTEM.CONST>
0

>  <SCORE.SYSTEM.DIHEDRAL>
0

>  <SCORE.SYSTEM.SOLV>
0

>  <SCORE.SYSTEM.norm>
0

>  <SCORE.heavy>
31

>  <SCORE.norm>
-0.374432

>  <RMSD>
5.426

$$$$
ligand
 OpenBabel11021811493D
libRbt.so/2013.1/901 2013/11/27
 31 33  0  0  0  0  0  0  0  0999 V2000
   -2.4254   15.6183    4.2431 C   0  0  2  0  0  0  0  0  0  0  0  0
   -2.1980   14.9779    5.4950 O   0  0  0  0  0  0  0  0  0  0  0  0
    0.0978   11.7023    6.9387 C   0  0  2  0  0  0  0  0  0  0  0  0
    0.5514   10.3593    7.1322 N   0  0  0  0  0  0  0  0  0  0  0  0
    2.1875   10.7452    4.6179 C   0  0  2  0  0  0  0  0  0  0  0  0
   -2.7580   17.1321    4.5654 C   0  0  2  0  0  0  0  0  0  0  0  0
   -1.6292   17.7183    5.2805 N   0  0  0  0  0  0  0  0  0  0  0  0
   -1.4220   11.7841    7.3787 C   0  0  0  0  0  0  0  0  0  0  0  0
    3.6829   11.1011    4.3429 C   0  0  2  0  0  0  0  0  0  0  0  0
    4.2353   11.6437    5.5232 O   0  0  0  0  0  0  0  0  0  0  0  0
   -4.0788   17.2339    5.4280 C   0  0  0  0  0  0  0  0  0  0  0  0
   -1.9255   13.2607    7.1644 C   0  0  2  0  0  0  0  0  0  0  0  0
   -3.3401   13.3417    7.5668 N   0  0  0  0  0  0  0  0  0  0  0  0
    3.7042   12.1565    3.1727 C   0  0  1  0  0  0  0  0  0  0  0  0
    5.1200   12.5540    2.8750 N   0  0  0  0  0  0  0  0  0  0  0  0
   -5.1688   16.1662    4.9901 C   0  0  0  0  0  0  0  0  0  0  0  0
   -1.7638   13.6687    5.6338 C   0  0  2  0  0  0  0  0  0  0  0  0
    3.0501   11.4570    1.8531 C   0  0  1  0  0  0  0  0  0  0  0  0
    3.7451   10.2839    1.4655 O   0  0  0  0  0  0  0  0  0  0  0  0
   -4.8629   15.1692    4.1183 C   0  0  2  0  0  0  0  0  0  0  0  0
   -3.5578   15.0207    3.5471 O   0  0  0  0  0  0  0  0  0  0  0  0
   -0.2485   13.5692    5.2212 C   0  0  2  0  0  0  0  0  0  0  0  0
   -0.1125   13.9310    3.8301 O   0  0  0  0  0  0  0  0  0  0  0  0
    1.5742   11.0364    2.1509 C   0  0  0  0  0  0  0  0  0  0  0  0
    1.5451   10.1592    3.3746 O   0  0  0  0  0  0  0  0  0  0  0  0
   -5.8788   14.1192    3.6646 C   0  0  0  0  0  0  0  0  0  0  0  0
   -7.2057   14.6569    3.8754 O   0  0  0  0  0  0  0  0  0  0  0  0
    0.2298   12.0836    5.4205 C   0  0  1  0  0  0  0  0  0  0  0  0
    1.5653   12.0048    5.0318 O   0  0  0  0  0  0  0  0  0  0  0  0
    2.9914   12.3599    0.5973 C   0  0  0  0  0  0  0  0  0  0  0  0
    5.6170   13.7782    3.5356 C   0  0  0  0  0  0  0  0  0  0  0  0
  1  2  1  1  0  0  0
  1  6  1  0  0  0  0
  1 21  1  0  0  0  0
  3  4  1  6  0  0  0
  3  8  1  0  0  0  0
  3 28  1  0  0  0  0
  5  9  1  0  0  0  0
  5 25  1  0  0  0  0
  5 29  1  6  0  0  0
  6  7  1  1  0  0  0
  6 11  1  0  0  0  0
  8 12  1  0  0  0  0
  9 10  1  1  0  0  0
  9 14  1  0  0  0  0
 11 16  1  0  0  0  0
 12 13  1  6  0  0  0
 12 17  1  0  0  0  0
 14 15  1  6  0  0  0
 14 18  1  0  0  0  0
 15 31  1  0  0  0  0
 16 20  1  0  0  0  0
 17  2  1  1  0  0  0
 17 22  1  0  0  0  0
 18 19  1  6  0  0  0
 18 24  1  0  0  0  0
 18 30  1  0  0  0  0
 20 21  1  0  0  0  0
 20 26  1  6  0  0  0
 22 23  1  6  0  0  0
 22 28  1  0  0  0  0
 24 25  1  0  0  0  0
 26 27  1  0  0  0  0
 28 29  1  1  0  0  0
M  END
>  <CHROM.1>
-174.13185987,-177.27150445,-95.18581994,-168.58892728,21.62210099,84.23498474
-0.27084587,13.24276372,4.48687145,-3.04629634,-0.47605155,2.17248190

>  <Name>
ligand

>  <RI>
0

>  <Rbt.Current_Directory>
/home/itssahil/PROJECTS/Mol_Feturizer/New_Systems/rnas/4GPX

>  <Rbt.Executable>
rbdock ($Id: //depot/dev/client3/rdock/2013.1/src/exe/rbdock.cxx#4 $)

>  <Rbt.Library>
libRbt.so (2013.1, Build901 2013/11/27)

>  <Rbt.Parameter_File>
/export/apps/rDock/src/rDock_2013.1_src/data/scripts/dock_solv.prm

>  <Rbt.Receptor>
prm/pocket_docking_8.prm

>  <SCORE>
-14.1341

>  <SCORE.INTER>
-7.14942

>  <SCORE.INTER.CONST>
1

>  <SCORE.INTER.POLAR>
0

>  <SCORE.INTER.ROT>
6

>  <SCORE.INTER.SOLV>
9.33059

>  <SCORE.INTER.VDW>
-15.4765

>  <SCORE.INTER.norm>
-0.230626

>  <SCORE.INTRA>
-6.98464

>  <SCORE.INTRA.DIHEDRAL>
-14.3234

>  <SCORE.INTRA.DIHEDRAL.0>
20.6841

>  <SCORE.INTRA.POLAR>
0

>  <SCORE.INTRA.POLAR.0>
0

>  <SCORE.INTRA.REPUL>
0

>  <SCORE.INTRA.REPUL.0>
0

>  <SCORE.INTRA.SOLV>
-1.85782

>  <SCORE.INTRA.SOLV.lig_0>
-64.6797

>  <SCORE.INTRA.VDW>
1.10597

>  <SCORE.INTRA.VDW.0>
-4.11825

>  <SCORE.INTRA.norm>
-0.225311

>  <SCORE.RESTR>
0

>  <SCORE.RESTR.CAVITY>
0

>  <SCORE.RESTR.norm>
0

>  <SCORE.SYSTEM>
0

>  <SCORE.SYSTEM.CONST>
0

>  <SCORE.SYSTEM.DIHEDRAL>
0

>  <SCORE.SYSTEM.SOLV>
0

>  <SCORE.SYSTEM.norm>
0

>  <SCORE.heavy>
31

>  <SCORE.norm>
-0.455937

>  <RMSD>
5.527

$$$$
ligand
 OpenBabel11021811493D
libRbt.so/2013.1/901 2013/11/27
 31 33  0  0  0  0  0  0  0  0999 V2000
   -2.6521   14.7682    5.0545 C   0  0  2  0  0  0  0  0  0  0  0  0
   -2.6922   15.3304    6.3628 O   0  0  0  0  0  0  0  0  0  0  0  0
   -3.3724   11.9508    8.8526 C   0  0  2  0  0  0  0  0  0  0  0  0
   -3.4597   11.1439   10.0308 N   0  0  0  0  0  0  0  0  0  0  0  0
   -6.7692   13.6001    9.4706 C   0  0  2  0  0  0  0  0  0  0  0  0
   -2.4026   15.9703    4.0551 C   0  0  2  0  0  0  0  0  0  0  0  0
   -1.1446   16.6201    4.4079 N   0  0  0  0  0  0  0  0  0  0  0  0
   -1.8830   12.4729    8.7143 C   0  0  0  0  0  0  0  0  0  0  0  0
   -6.4306   14.1160   10.9052 C   0  0  2  0  0  0  0  0  0  0  0  0
   -5.1786   14.7666   10.8599 O   0  0  0  0  0  0  0  0  0  0  0  0
   -3.6005   16.9996    4.1222 C   0  0  0  0  0  0  0  0  0  0  0  0
   -1.7839   13.3637    7.4197 C   0  0  2  0  0  0  0  0  0  0  0  0
   -0.4021   13.8567    7.2888 N   0  0  0  0  0  0  0  0  0  0  0  0
   -6.3794   12.8586   11.8538 C   0  0  1  0  0  0  0  0  0  0  0  0
   -6.0371   13.2905   13.2493 N   0  0  0  0  0  0  0  0  0  0  0  0
   -5.0041   16.2805    4.3025 C   0  0  0  0  0  0  0  0  0  0  0  0
   -2.7975   14.5871    7.5281 C   0  0  2  0  0  0  0  0  0  0  0  0
   -7.8549   12.1649   11.8490 C   0  0  1  0  0  0  0  0  0  0  0  0
   -8.8705   13.0573   12.2754 O   0  0  0  0  0  0  0  0  0  0  0  0
   -5.0807   14.9517    4.5781 C   0  0  2  0  0  0  0  0  0  0  0  0
   -3.9179   14.1276    4.7207 O   0  0  0  0  0  0  0  0  0  0  0  0
   -4.2659   14.0408    7.6743 C   0  0  2  0  0  0  0  0  0  0  0  0
   -5.1766   15.1559    7.7819 O   0  0  0  0  0  0  0  0  0  0  0  0
   -8.2244   11.7114   10.3993 C   0  0  0  0  0  0  0  0  0  0  0  0
   -8.1088   12.8878    9.4663 O   0  0  0  0  0  0  0  0  0  0  0  0
   -6.4089   14.2139    4.7578 C   0  0  0  0  0  0  0  0  0  0  0  0
   -6.3134   13.4005    5.9509 O   0  0  0  0  0  0  0  0  0  0  0  0
   -4.3509   13.1727    8.9837 C   0  0  1  0  0  0  0  0  0  0  0  0
   -5.6598   12.7134    9.1123 O   0  0  0  0  0  0  0  0  0  0  0  0
   -7.9862   10.9040   12.7371 C   0  0  0  0  0  0  0  0  0  0  0  0
   -5.0057   12.5009   13.9527 C   0  0  0  0  0  0  0  0  0  0  0  0
  1  2  1  1  0  0  0
  1  6  1  0  0  0  0
  1 21  1  0  0  0  0
  3  4  1  1  0  0  0
  3  8  1  0  0  0  0
  3 28  1  0  0  0  0
  5  9  1  0  0  0  0
  5 25  1  0  0  0  0
  5 29  1  1  0  0  0
  6  7  1  1  0  0  0
  6 11  1  0  0  0  0
  8 12  1  0  0  0  0
  9 10  1  6  0  0  0
  9 14  1  0  0  0  0
 11 16  1  0  0  0  0
 12 13  1  1  0  0  0
 12 17  1  0  0  0  0
 14 15  1  1  0  0  0
 14 18  1  0  0  0  0
 15 31  1  0  0  0  0
 16 20  1  0  0  0  0
 17  2  1  6  0  0  0
 17 22  1  0  0  0  0
 18 19  1  1  0  0  0
 18 24  1  0  0  0  0
 18 30  1  0  0  0  0
 20 21  1  0  0  0  0
 20 26  1  6  0  0  0
 22 23  1  1  0  0  0
 22 28  1  0  0  0  0
 24 25  1  0  0  0  0
 26 27  1  0  0  0  0
 28 29  1  6  0  0  0
M  END
>  <CHROM.1>
-175.19213714,-63.25817770,-133.99945341,45.05603510,-133.00538551,169.78290922
-4.85605385,13.77272489,8.36391426,-1.08558148,-0.01043563,1.96775162

>  <Name>
ligand

>  <RI>
0

>  <Rbt.Current_Directory>
/home/itssahil/PROJECTS/Mol_Feturizer/New_Systems/rnas/4GPX

>  <Rbt.Executable>
rbdock ($Id: //depot/dev/client3/rdock/2013.1/src/exe/rbdock.cxx#4 $)

>  <Rbt.Library>
libRbt.so (2013.1, Build901 2013/11/27)

>  <Rbt.Parameter_File>
/export/apps/rDock/src/rDock_2013.1_src/data/scripts/dock_solv.prm

>  <Rbt.Receptor>
prm/pocket_docking_8.prm

>  <SCORE>
-14.1474

>  <SCORE.INTER>
-8.11109

>  <SCORE.INTER.CONST>
1

>  <SCORE.INTER.POLAR>
0

>  <SCORE.INTER.ROT>
6

>  <SCORE.INTER.SOLV>
9.99204

>  <SCORE.INTER.VDW>
-16.3381

>  <SCORE.INTER.norm>
-0.261648

>  <SCORE.INTRA>
-6.0363

>  <SCORE.INTRA.DIHEDRAL>
-16.0162

>  <SCORE.INTRA.DIHEDRAL.0>
20.6841

>  <SCORE.INTRA.POLAR>
0

>  <SCORE.INTRA.POLAR.0>
0

>  <SCORE.INTRA.REPUL>
0

>  <SCORE.INTRA.REPUL.0>
0

>  <SCORE.INTRA.SOLV>
0.753377

>  <SCORE.INTRA.SOLV.lig_0>
-64.6797

>  <SCORE.INTRA.VDW>
1.59513

>  <SCORE.INTRA.VDW.0>
-4.11825

>  <SCORE.INTRA.norm>
-0.194719

>  <SCORE.RESTR>
0

>  <SCORE.RESTR.CAVITY>
0

>  <SCORE.RESTR.norm>
0

>  <SCORE.SYSTEM>
0

>  <SCORE.SYSTEM.CONST>
0

>  <SCORE.SYSTEM.DIHEDRAL>
0

>  <SCORE.SYSTEM.SOLV>
0

>  <SCORE.SYSTEM.norm>
0

>  <SCORE.heavy>
31

>  <SCORE.norm>
-0.456368

>  <RMSD>
5.546

$$$$
ligand
 OpenBabel11021811493D
libRbt.so/2013.1/901 2013/11/27
 31 33  0  0  0  0  0  0  0  0999 V2000
   -2.8607   14.7088    5.0434 C   0  0  2  0  0  0  0  0  0  0  0  0
   -2.9207   15.3348    6.3216 O   0  0  0  0  0  0  0  0  0  0  0  0
   -3.4914   12.0611    8.9750 C   0  0  2  0  0  0  0  0  0  0  0  0
   -3.5617   11.3129   10.1925 N   0  0  0  0  0  0  0  0  0  0  0  0
   -6.9663   13.5874    9.4606 C   0  0  2  0  0  0  0  0  0  0  0  0
   -2.7346   15.8722    3.9774 C   0  0  2  0  0  0  0  0  0  0  0  0
   -1.5290   16.6425    4.2642 N   0  0  0  0  0  0  0  0  0  0  0  0
   -2.0243   12.6411    8.8296 C   0  0  0  0  0  0  0  0  0  0  0  0
   -6.6657   14.2038   10.8636 C   0  0  2  0  0  0  0  0  0  0  0  0
   -5.4448   14.9082   10.7878 O   0  0  0  0  0  0  0  0  0  0  0  0
   -4.0135   16.8003    4.0217 C   0  0  0  0  0  0  0  0  0  0  0  0
   -1.9440   13.4675    7.4917 C   0  0  2  0  0  0  0  0  0  0  0  0
   -0.5831   14.0141    7.3537 N   0  0  0  0  0  0  0  0  0  0  0  0
   -6.5656   13.0092   11.8868 C   0  0  1  0  0  0  0  0  0  0  0  0
   -6.2571   13.5396   13.2560 N   0  0  0  0  0  0  0  0  0  0  0  0
   -5.3473   15.9775    4.2744 C   0  0  0  0  0  0  0  0  0  0  0  0
   -3.0116   14.6486    7.5226 C   0  0  2  0  0  0  0  0  0  0  0  0
   -8.0074   12.2484   11.9138 C   0  0  1  0  0  0  0  0  0  0  0  0
   -9.0672   13.1163   12.2786 O   0  0  0  0  0  0  0  0  0  0  0  0
   -5.3055   14.6636    4.6200 C   0  0  2  0  0  0  0  0  0  0  0  0
   -4.0745   13.9480    4.7753 O   0  0  0  0  0  0  0  0  0  0  0  0
   -4.4569   14.0458    7.6774 C   0  0  2  0  0  0  0  0  0  0  0  0
   -5.4170   15.1234    7.7146 O   0  0  0  0  0  0  0  0  0  0  0  0
   -8.3416   11.6919   10.4916 C   0  0  0  0  0  0  0  0  0  0  0  0
   -8.2714   12.8144    9.4901 O   0  0  0  0  0  0  0  0  0  0  0  0
   -6.5625   13.8284    4.8711 C   0  0  0  0  0  0  0  0  0  0  0  0
   -6.7631   12.9632    3.7285 O   0  0  0  0  0  0  0  0  0  0  0  0
   -4.5243   13.2434    9.0291 C   0  0  1  0  0  0  0  0  0  0  0  0
   -5.8137   12.7337    9.1640 O   0  0  0  0  0  0  0  0  0  0  0  0
   -8.0888   11.0383   12.8754 C   0  0  0  0  0  0  0  0  0  0  0  0
   -4.8301   13.6197   13.6291 C   0  0  0  0  0  0  0  0  0  0  0  0
  1  2  1  1  0  0  0
  1  6  1  0  0  0  0
  1 21  1  0  0  0  0
  3  4  1  1  0  0  0
  3  8  1  0  0  0  0
  3 28  1  0  0  0  0
  5  9  1  0  0  0  0
  5 25  1  0  0  0  0
  5 29  1  1  0  0  0
  6  7  1  1  0  0  0
  6 11  1  0  0  0  0
  8 12  1  0  0  0  0
  9 10  1  6  0  0  0
  9 14  1  0  0  0  0
 11 16  1  0  0  0  0
 12 13  1  1  0  0  0
 12 17  1  0  0  0  0
 14 15  1  1  0  0  0
 14 18  1  0  0  0  0
 15 31  1  0  0  0  0
 16 20  1  0  0  0  0
 17  2  1  6  0  0  0
 17 22  1  0  0  0  0
 18 19  1  1  0  0  0
 18 24  1  0  0  0  0
 18 30  1  0  0  0  0
 20 21  1  0  0  0  0
 20 26  1  6  0  0  0
 22 23  1  1  0  0  0
 22 28  1  0  0  0  0
 24 25  1  0  0  0  0
 26 27  1  0  0  0  0
 28 29  1  6  0  0  0
M  END
>  <CHROM.1>
-178.85889660,-62.64967299,-92.24227140,46.27688346,104.81235773,169.79052385
-5.05724083,13.79913101,8.29078737,-1.11099158,0.12868419,1.84042755

>  <Name>
ligand

>  <RI>
0

>  <Rbt.Current_Directory>
/home/itssahil/PROJECTS/Mol_Feturizer/New_Systems/rnas/4GPX

>  <Rbt.Executable>
rbdock ($Id: //depot/dev/client3/rdock/2013.1/src/exe/rbdock.cxx#4 $)

>  <Rbt.Library>
libRbt.so (2013.1, Build901 2013/11/27)

>  <Rbt.Parameter_File>
/export/apps/rDock/src/rDock_2013.1_src/data/scripts/dock_solv.prm

>  <Rbt.Receptor>
prm/pocket_docking_6.prm

>  <SCORE>
-14.6455

>  <SCORE.INTER>
-7.85206

>  <SCORE.INTER.CONST>
1

>  <SCORE.INTER.POLAR>
0

>  <SCORE.INTER.ROT>
6

>  <SCORE.INTER.SOLV>
11.3073

>  <SCORE.INTER.VDW>
-16.6038

>  <SCORE.INTER.norm>
-0.253292

>  <SCORE.INTRA>
-6.79342

>  <SCORE.INTRA.DIHEDRAL>
-16.599

>  <SCORE.INTRA.DIHEDRAL.0>
20.6841

>  <SCORE.INTRA.POLAR>
0

>  <SCORE.INTRA.POLAR.0>
0

>  <SCORE.INTRA.REPUL>
0

>  <SCORE.INTRA.REPUL.0>
0

>  <SCORE.INTRA.SOLV>
-0.4731

>  <SCORE.INTRA.SOLV.lig_0>
-64.6797

>  <SCORE.INTRA.VDW>
1.74264

>  <SCORE.INTRA.VDW.0>
-4.11825

>  <SCORE.INTRA.norm>
-0.219143

>  <SCORE.RESTR>
0

>  <SCORE.RESTR.CAVITY>
0

>  <SCORE.RESTR.norm>
0

>  <SCORE.SYSTEM>
0

>  <SCORE.SYSTEM.CONST>
0

>  <SCORE.SYSTEM.DIHEDRAL>
0

>  <SCORE.SYSTEM.SOLV>
0

>  <SCORE.SYSTEM.norm>
0

>  <SCORE.heavy>
31

>  <SCORE.norm>
-0.472435

>  <RMSD>
5.598

$$$$
ligand
 OpenBabel11021811493D
libRbt.so/2013.1/901 2013/11/27
 31 33  0  0  0  0  0  0  0  0999 V2000
   -2.1520   12.4615    5.1719 C   0  0  2  0  0  0  0  0  0  0  0  0
   -1.4951   13.1191    6.2514 O   0  0  0  0  0  0  0  0  0  0  0  0
   -2.5458   10.7119    9.5959 C   0  0  2  0  0  0  0  0  0  0  0  0
   -2.5853   10.2175   10.9379 N   0  0  0  0  0  0  0  0  0  0  0  0
   -4.7059   12.0506   11.4391 C   0  0  2  0  0  0  0  0  0  0  0  0
   -1.5331   13.0532    3.8404 C   0  0  2  0  0  0  0  0  0  0  0  0
   -0.0958   12.8010    3.8389 N   0  0  0  0  0  0  0  0  0  0  0  0
   -1.0489   10.6412    9.0818 C   0  0  0  0  0  0  0  0  0  0  0  0
   -6.2582   12.2095   11.5009 C   0  0  2  0  0  0  0  0  0  0  0  0
   -6.8371   11.2670   10.6239 O   0  0  0  0  0  0  0  0  0  0  0  0
   -1.8279   14.6028    3.7376 C   0  0  0  0  0  0  0  0  0  0  0  0
   -1.0012   11.1872    7.6056 C   0  0  2  0  0  0  0  0  0  0  0  0
    0.3896   11.1290    7.1239 N   0  0  0  0  0  0  0  0  0  0  0  0
   -6.5954   13.6815   11.0502 C   0  0  1  0  0  0  0  0  0  0  0  0
   -8.0811   13.8896   11.0703 N   0  0  0  0  0  0  0  0  0  0  0  0
   -3.2706   14.9796    4.2820 C   0  0  0  0  0  0  0  0  0  0  0  0
   -1.5350   12.6869    7.5680 C   0  0  2  0  0  0  0  0  0  0  0  0
   -5.8918   14.7044   12.1071 C   0  0  1  0  0  0  0  0  0  0  0  0
   -6.3299   14.4887   13.4378 O   0  0  0  0  0  0  0  0  0  0  0  0
   -4.0301   14.0676    4.9445 C   0  0  2  0  0  0  0  0  0  0  0  0
   -3.5845   12.7286    5.1897 O   0  0  0  0  0  0  0  0  0  0  0  0
   -3.0181   12.7296    8.0923 C   0  0  2  0  0  0  0  0  0  0  0  0
   -3.4904   14.0936    8.0642 O   0  0  0  0  0  0  0  0  0  0  0  0
   -4.3424   14.4965   12.0969 C   0  0  0  0  0  0  0  0  0  0  0  0
   -4.0340   13.0470   12.3651 O   0  0  0  0  0  0  0  0  0  0  0  0
   -5.4262   14.3822    5.4852 C   0  0  0  0  0  0  0  0  0  0  0  0
   -5.9899   15.4463    4.6825 O   0  0  0  0  0  0  0  0  0  0  0  0
   -3.0422   12.2021    9.5744 C   0  0  1  0  0  0  0  0  0  0  0  0
   -4.3561   12.2652   10.0331 O   0  0  0  0  0  0  0  0  0  0  0  0
   -6.1226   16.2065   11.8138 C   0  0  0  0  0  0  0  0  0  0  0  0
   -8.8522   13.2638    9.9767 C   0  0  0  0  0  0  0  0  0  0  0  0
  1  2  1  1  0  0  0
  1  6  1  0  0  0  0
  1 21  1  0  0  0  0
  3  4  1  1  0  0  0
  3  8  1  0  0  0  0
  3 28  1  0  0  0  0
  5  9  1  0  0  0  0
  5 25  1  0  0  0  0
  5 29  1  6  0  0  0
  6  7  1  1  0  0  0
  6 11  1  0  0  0  0
  8 12  1  0  0  0  0
  9 10  1  6  0  0  0
  9 14  1  0  0  0  0
 11 16  1  0  0  0  0
 12 13  1  1  0  0  0
 12 17  1  0  0  0  0
 14 15  1  1  0  0  0
 14 18  1  0  0  0  0
 15 31  1  0  0  0  0
 16 20  1  0  0  0  0
 17  2  1  6  0  0  0
 17 22  1  0  0  0  0
 18 19  1  1  0  0  0
 18 24  1  0  0  0  0
 18 30  1  0  0  0  0
 20 21  1  0  0  0  0
 20 26  1  6  0  0  0
 22 23  1  1  0  0  0
 22 28  1  0  0  0  0
 24 25  1  0  0  0  0
 26 27  1  0  0  0  0
 28 29  1  6  0  0  0
M  END
>  <CHROM.1>
-165.26175299,-179.91671494,-74.58972461,56.47871001,26.26324770,71.18270827
-3.90585161,13.08282347,8.48425501,-0.89512668,-0.54605058,1.91278779

>  <Name>
ligand

>  <RI>
0

>  <Rbt.Current_Directory>
/home/itssahil/PROJECTS/Mol_Feturizer/New_Systems/rnas/4GPX

>  <Rbt.Executable>
rbdock ($Id: //depot/dev/client3/rdock/2013.1/src/exe/rbdock.cxx#4 $)

>  <Rbt.Library>
libRbt.so (2013.1, Build901 2013/11/27)

>  <Rbt.Parameter_File>
/export/apps/rDock/src/rDock_2013.1_src/data/scripts/dock_solv.prm

>  <Rbt.Receptor>
prm/pocket_docking_6.prm

>  <SCORE>
-8.61503

>  <SCORE.INTER>
-2.35716

>  <SCORE.INTER.CONST>
1

>  <SCORE.INTER.POLAR>
0

>  <SCORE.INTER.ROT>
6

>  <SCORE.INTER.SOLV>
9.56459

>  <SCORE.INTER.VDW>
-12.3596

>  <SCORE.INTER.norm>
-0.0760375

>  <SCORE.INTRA>
-6.25787

>  <SCORE.INTRA.DIHEDRAL>
-16.3713

>  <SCORE.INTRA.DIHEDRAL.0>
20.6841

>  <SCORE.INTRA.POLAR>
0

>  <SCORE.INTRA.POLAR.0>
0

>  <SCORE.INTRA.REPUL>
0

>  <SCORE.INTRA.REPUL.0>
0

>  <SCORE.INTRA.SOLV>
-0.0408372

>  <SCORE.INTRA.SOLV.lig_0>
-64.6797

>  <SCORE.INTRA.VDW>
1.9482

>  <SCORE.INTRA.VDW.0>
-4.11825

>  <SCORE.INTRA.norm>
-0.201867

>  <SCORE.RESTR>
0

>  <SCORE.RESTR.CAVITY>
0

>  <SCORE.RESTR.norm>
0

>  <SCORE.SYSTEM>
0

>  <SCORE.SYSTEM.CONST>
0

>  <SCORE.SYSTEM.DIHEDRAL>
0

>  <SCORE.SYSTEM.SOLV>
0

>  <SCORE.SYSTEM.norm>
0

>  <SCORE.heavy>
31

>  <SCORE.norm>
-0.277904

>  <RMSD>
5.623

$$$$
ligand
 OpenBabel11021811493D
libRbt.so/2013.1/901 2013/11/27
 31 33  0  0  0  0  0  0  0  0999 V2000
   -4.7611   12.6615   12.0075 C   0  0  2  0  0  0  0  0  0  0  0  0
   -4.2429   11.3362   12.0730 O   0  0  0  0  0  0  0  0  0  0  0  0
   -0.0372   11.9650   12.0844 C   0  0  2  0  0  0  0  0  0  0  0  0
    1.3635   11.6914   12.1853 N   0  0  0  0  0  0  0  0  0  0  0  0
    1.3766   11.2119    9.4545 C   0  0  2  0  0  0  0  0  0  0  0  0
   -6.3296   12.5412   12.1839 C   0  0  2  0  0  0  0  0  0  0  0  0
   -6.6099   11.9091   13.4689 N   0  0  0  0  0  0  0  0  0  0  0  0
   -0.7236   11.5665   13.4555 C   0  0  0  0  0  0  0  0  0  0  0  0
    1.6749   11.9342    8.1025 C   0  0  2  0  0  0  0  0  0  0  0  0
    1.3547   13.3013    8.2484 O   0  0  0  0  0  0  0  0  0  0  0  0
   -6.9537   11.6996   11.0001 C   0  0  0  0  0  0  0  0  0  0  0  0
   -2.2661   11.8639   13.3472 C   0  0  2  0  0  0  0  0  0  0  0  0
   -2.9108   11.4900   14.6177 N   0  0  0  0  0  0  0  0  0  0  0  0
    0.7721   11.2573    7.0022 C   0  0  1  0  0  0  0  0  0  0  0  0
    1.0009   11.9251    5.6783 N   0  0  0  0  0  0  0  0  0  0  0  0
   -6.2432   11.9935    9.6114 C   0  0  0  0  0  0  0  0  0  0  0  0
   -2.8930   11.0293   12.1447 C   0  0  2  0  0  0  0  0  0  0  0  0
    1.1998    9.6875    6.8972 C   0  0  1  0  0  0  0  0  0  0  0  0
    2.5700    9.5235    6.5732 O   0  0  0  0  0  0  0  0  0  0  0  0
   -5.1002   12.7266    9.5500 C   0  0  2  0  0  0  0  0  0  0  0  0
   -4.4736   13.2731   10.7163 O   0  0  0  0  0  0  0  0  0  0  0  0
   -2.1873   11.4371   10.7986 C   0  0  2  0  0  0  0  0  0  0  0  0
   -2.7545   10.6688    9.7158 O   0  0  0  0  0  0  0  0  0  0  0  0
    0.9674    8.9801    8.2718 C   0  0  0  0  0  0  0  0  0  0  0  0
    1.7023    9.7339    9.3487 O   0  0  0  0  0  0  0  0  0  0  0  0
   -4.3807   13.0384    8.2364 C   0  0  0  0  0  0  0  0  0  0  0  0
   -5.2957   12.7696    7.1478 O   0  0  0  0  0  0  0  0  0  0  0  0
   -0.6525   11.1121   10.9176 C   0  0  1  0  0  0  0  0  0  0  0  0
   -0.0440   11.4575    9.7130 O   0  0  0  0  0  0  0  0  0  0  0  0
    0.4070    8.8635    5.8539 C   0  0  0  0  0  0  0  0  0  0  0  0
   -0.0344   12.8786    5.2298 C   0  0  0  0  0  0  0  0  0  0  0  0
  1  2  1  6  0  0  0
  1  6  1  0  0  0  0
  1 21  1  0  0  0  0
  3  4  1  1  0  0  0
  3  8  1  0  0  0  0
  3 28  1  0  0  0  0
  5  9  1  0  0  0  0
  5 25  1  0  0  0  0
  5 29  1  6  0  0  0
  6  7  1  1  0  0  0
  6 11  1  0  0  0  0
  8 12  1  0  0  0  0
  9 10  1  1  0  0  0
  9 14  1  0  0  0  0
 11 16  1  0  0  0  0
 12 13  1  1  0  0  0
 12 17  1  0  0  0  0
 14 15  1  6  0  0  0
 14 18  1  0  0  0  0
 15 31  1  0  0  0  0
 16 20  1  0  0  0  0
 17  2  1  6  0  0  0
 17 22  1  0  0  0  0
 18 19  1  6  0  0  0
 18 24  1  0  0  0  0
 18 30  1  0  0  0  0
 20 21  1  0  0  0  0
 20 26  1  6  0  0  0
 22 23  1  6  0  0  0
 22 28  1  0  0  0  0
 24 25  1  0  0  0  0
 26 27  1  0  0  0  0
 28 29  1  6  0  0  0
M  END
>  <CHROM.1>
-170.73810859,-171.78030795,-102.69075502,52.22834705,15.91588789,64.88908473
-1.74747732,11.53102815,9.80776832,-2.55243344,0.23368010,-1.53428391

>  <Name>
ligand

>  <RI>
0

>  <Rbt.Current_Directory>
/home/itssahil/PROJECTS/Mol_Feturizer/New_Systems/rnas/4GPX

>  <Rbt.Executable>
rbdock ($Id: //depot/dev/client3/rdock/2013.1/src/exe/rbdock.cxx#4 $)

>  <Rbt.Library>
libRbt.so (2013.1, Build901 2013/11/27)

>  <Rbt.Parameter_File>
/export/apps/rDock/src/rDock_2013.1_src/data/scripts/dock_solv.prm

>  <Rbt.Receptor>
prm/pocket_docking_5.prm

>  <SCORE>
-10.2988

>  <SCORE.INTER>
-3.46954

>  <SCORE.INTER.CONST>
1

>  <SCORE.INTER.POLAR>
0

>  <SCORE.INTER.ROT>
6

>  <SCORE.INTER.SOLV>
10.0159

>  <SCORE.INTER.VDW>
-13.2517

>  <SCORE.INTER.norm>
-0.111921

>  <SCORE.INTRA>
-6.8293

>  <SCORE.INTRA.DIHEDRAL>
-16.5532

>  <SCORE.INTRA.DIHEDRAL.0>
20.6841

>  <SCORE.INTRA.POLAR>
0

>  <SCORE.INTRA.POLAR.0>
0

>  <SCORE.INTRA.REPUL>
0

>  <SCORE.INTRA.REPUL.0>
0

>  <SCORE.INTRA.SOLV>
-0.25339

>  <SCORE.INTRA.SOLV.lig_0>
-64.6797

>  <SCORE.INTRA.VDW>
1.57397

>  <SCORE.INTRA.VDW.0>
-4.11825

>  <SCORE.INTRA.norm>
-0.2203

>  <SCORE.RESTR>
0

>  <SCORE.RESTR.CAVITY>
0

>  <SCORE.RESTR.norm>
0

>  <SCORE.SYSTEM>
0

>  <SCORE.SYSTEM.CONST>
0

>  <SCORE.SYSTEM.DIHEDRAL>
0

>  <SCORE.SYSTEM.SOLV>
0

>  <SCORE.SYSTEM.norm>
0

>  <SCORE.heavy>
31

>  <SCORE.norm>
-0.332221

>  <RMSD>
5.644

$$$$
ligand
 OpenBabel11021811493D
libRbt.so/2013.1/901 2013/11/27
 31 33  0  0  0  0  0  0  0  0999 V2000
   -5.5396   13.3610    9.9557 C   0  0  2  0  0  0  0  0  0  0  0  0
   -5.5975   14.6459   10.5680 O   0  0  0  0  0  0  0  0  0  0  0  0
   -2.9503   17.0514   12.8681 C   0  0  2  0  0  0  0  0  0  0  0  0
   -2.1540   17.5007   13.9685 N   0  0  0  0  0  0  0  0  0  0  0  0
   -0.0041   15.7834   12.9313 C   0  0  2  0  0  0  0  0  0  0  0  0
   -6.1962   13.5146    8.5235 C   0  0  2  0  0  0  0  0  0  0  0  0
   -5.4461   14.5126    7.7682 N   0  0  0  0  0  0  0  0  0  0  0  0
   -4.4559   16.9490   13.3506 C   0  0  0  0  0  0  0  0  0  0  0  0
    1.2815   15.7348   12.0461 C   0  0  2  0  0  0  0  0  0  0  0  0
    1.2448   16.8235   11.1483 O   0  0  0  0  0  0  0  0  0  0  0  0
   -7.7132   13.9390    8.6561 C   0  0  0  0  0  0  0  0  0  0  0  0
   -5.3351   16.4521   12.1425 C   0  0  2  0  0  0  0  0  0  0  0  0
   -6.7358   16.3497   12.5867 N   0  0  0  0  0  0  0  0  0  0  0  0
    1.2633   14.3629   11.2708 C   0  0  1  0  0  0  0  0  0  0  0  0
    2.4698   14.2661   10.3842 N   0  0  0  0  0  0  0  0  0  0  0  0
   -8.4315   13.2344    9.8837 C   0  0  0  0  0  0  0  0  0  0  0  0
   -4.8109   15.0344   11.6414 C   0  0  2  0  0  0  0  0  0  0  0  0
    1.3045   13.1621   12.3730 C   0  0  1  0  0  0  0  0  0  0  0  0
    2.4482   13.2364   13.2073 O   0  0  0  0  0  0  0  0  0  0  0  0
   -7.7192   12.5301   10.8027 C   0  0  2  0  0  0  0  0  0  0  0  0
   -6.2970   12.3805   10.7231 O   0  0  0  0  0  0  0  0  0  0  0  0
   -3.3126   15.1625   11.1781 C   0  0  2  0  0  0  0  0  0  0  0  0
   -2.8426   13.8712   10.7351 O   0  0  0  0  0  0  0  0  0  0  0  0
    0.0526   13.2526   13.3048 C   0  0  0  0  0  0  0  0  0  0  0  0
   -0.0143   14.6280   13.9146 O   0  0  0  0  0  0  0  0  0  0  0  0
   -8.3661   11.8318   12.0004 C   0  0  0  0  0  0  0  0  0  0  0  0
   -7.8307   12.4225   13.2081 O   0  0  0  0  0  0  0  0  0  0  0  0
   -2.4470   15.6379   12.4030 C   0  0  1  0  0  0  0  0  0  0  0  0
   -1.1210   15.7265   11.9854 O   0  0  0  0  0  0  0  0  0  0  0  0
    1.2932   11.7321   11.7809 C   0  0  0  0  0  0  0  0  0  0  0  0
    2.2211   13.9803    8.9564 C   0  0  0  0  0  0  0  0  0  0  0  0
  1  2  1  1  0  0  0
  1  6  1  0  0  0  0
  1 21  1  0  0  0  0
  3  4  1  1  0  0  0
  3  8  1  0  0  0  0
  3 28  1  0  0  0  0
  5  9  1  0  0  0  0
  5 25  1  0  0  0  0
  5 29  1  6  0  0  0
  6  7  1  6  0  0  0
  6 11  1  0  0  0  0
  8 12  1  0  0  0  0
  9 10  1  6  0  0  0
  9 14  1  0  0  0  0
 11 16  1  0  0  0  0
 12 13  1  1  0  0  0
 12 17  1  0  0  0  0
 14 15  1  6  0  0  0
 14 18  1  0  0  0  0
 15 31  1  0  0  0  0
 16 20  1  0  0  0  0
 17  2  1  6  0  0  0
 17 22  1  0  0  0  0
 18 19  1  1  0  0  0
 18 24  1  0  0  0  0
 18 30  1  0  0  0  0
 20 21  1  0  0  0  0
 20 26  1  6  0  0  0
 22 23  1  1  0  0  0
 22 28  1  0  0  0  0
 24 25  1  0  0  0  0
 26 27  1  0  0  0  0
 28 29  1  6  0  0  0
M  END
>  <CHROM.1>
-160.82870251,174.64716183,-126.00069404,-171.98234698,-118.26062910,78.26799642
-2.93349758,14.46273423,11.50077000,-2.96461625,-0.03532111,0.74680022

>  <Name>
ligand

>  <RI>
0

>  <Rbt.Current_Directory>
/home/itssahil/PROJECTS/Mol_Feturizer/New_Systems/rnas/4GPX

>  <Rbt.Executable>
rbdock ($Id: //depot/dev/client3/rdock/2013.1/src/exe/rbdock.cxx#4 $)

>  <Rbt.Library>
libRbt.so (2013.1, Build901 2013/11/27)

>  <Rbt.Parameter_File>
/export/apps/rDock/src/rDock_2013.1_src/data/scripts/dock_solv.prm

>  <Rbt.Receptor>
prm/pocket_docking_8.prm

>  <SCORE>
-11.6239

>  <SCORE.INTER>
-4.12632

>  <SCORE.INTER.CONST>
1

>  <SCORE.INTER.POLAR>
0

>  <SCORE.INTER.ROT>
6

>  <SCORE.INTER.SOLV>
9.68979

>  <SCORE.INTER.VDW>
-13.5808

>  <SCORE.INTER.norm>
-0.133107

>  <SCORE.INTRA>
-7.49754

>  <SCORE.INTRA.DIHEDRAL>
-14.1775

>  <SCORE.INTRA.DIHEDRAL.0>
20.6841

>  <SCORE.INTRA.POLAR>
0

>  <SCORE.INTRA.POLAR.0>
0

>  <SCORE.INTRA.REPUL>
0

>  <SCORE.INTRA.REPUL.0>
0

>  <SCORE.INTRA.SOLV>
-1.46501

>  <SCORE.INTRA.SOLV.lig_0>
-64.6797

>  <SCORE.INTRA.VDW>
0.323688

>  <SCORE.INTRA.VDW.0>
-4.11825

>  <SCORE.INTRA.norm>
-0.241856

>  <SCORE.RESTR>
0

>  <SCORE.RESTR.CAVITY>
0

>  <SCORE.RESTR.norm>
0

>  <SCORE.SYSTEM>
0

>  <SCORE.SYSTEM.CONST>
0

>  <SCORE.SYSTEM.DIHEDRAL>
0

>  <SCORE.SYSTEM.SOLV>
0

>  <SCORE.SYSTEM.norm>
0

>  <SCORE.heavy>
31

>  <SCORE.norm>
-0.374963

>  <RMSD>
5.692

$$$$
ligand
 OpenBabel11021811493D
libRbt.so/2013.1/901 2013/11/27
 31 33  0  0  0  0  0  0  0  0999 V2000
   -6.6680   13.3116   13.0145 C   0  0  2  0  0  0  0  0  0  0  0  0
   -5.4768   12.7735   12.4483 O   0  0  0  0  0  0  0  0  0  0  0  0
   -2.1404   14.5416   10.4922 C   0  0  2  0  0  0  0  0  0  0  0  0
   -0.9385   15.2927   10.2970 N   0  0  0  0  0  0  0  0  0  0  0  0
   -0.3079   11.4348   11.7793 C   0  0  2  0  0  0  0  0  0  0  0  0
   -7.3192   12.1550   13.8772 C   0  0  2  0  0  0  0  0  0  0  0  0
   -6.3667   11.7416   14.9024 N   0  0  0  0  0  0  0  0  0  0  0  0
   -3.2456   15.5123   11.0806 C   0  0  0  0  0  0  0  0  0  0  0  0
    1.2066   11.4228   11.3988 C   0  0  2  0  0  0  0  0  0  0  0  0
    1.7509   12.6901   11.6996 O   0  0  0  0  0  0  0  0  0  0  0  0
   -7.7104   10.9331   12.9536 C   0  0  0  0  0  0  0  0  0  0  0  0
   -4.5695   14.6882   11.2992 C   0  0  2  0  0  0  0  0  0  0  0  0
   -5.5996   15.5846   11.8515 N   0  0  0  0  0  0  0  0  0  0  0  0
    1.2979   11.1213    9.8546 C   0  0  1  0  0  0  0  0  0  0  0  0
    2.7350   11.1164    9.4236 N   0  0  0  0  0  0  0  0  0  0  0  0
   -8.2658   11.3983   11.5413 C   0  0  0  0  0  0  0  0  0  0  0  0
   -4.2942   13.4817   12.3012 C   0  0  2  0  0  0  0  0  0  0  0  0
    0.6493    9.6488    9.5908 C   0  0  1  0  0  0  0  0  0  0  0  0
    1.3069    8.6313   10.3267 O   0  0  0  0  0  0  0  0  0  0  0  0
   -8.1865   12.6977   11.1502 C   0  0  2  0  0  0  0  0  0  0  0  0
   -7.6063   13.7149   11.9749 O   0  0  0  0  0  0  0  0  0  0  0  0
   -3.1872   12.5401   11.6977 C   0  0  2  0  0  0  0  0  0  0  0  0
   -2.9369   11.4551   12.6168 O   0  0  0  0  0  0  0  0  0  0  0  0
   -0.8488    9.6401   10.0375 C   0  0  0  0  0  0  0  0  0  0  0  0
   -0.9422   10.0914   11.4712 O   0  0  0  0  0  0  0  0  0  0  0  0
   -8.7096   13.1945    9.8010 C   0  0  0  0  0  0  0  0  0  0  0  0
   -7.5725   13.5739    8.9902 O   0  0  0  0  0  0  0  0  0  0  0  0
   -1.8670   13.3747   11.5076 C   0  0  1  0  0  0  0  0  0  0  0  0
   -0.8902   12.5250   10.9934 O   0  0  0  0  0  0  0  0  0  0  0  0
    0.6566    9.1877    8.1133 C   0  0  0  0  0  0  0  0  0  0  0  0
    3.2075   12.3026    8.6806 C   0  0  0  0  0  0  0  0  0  0  0  0
  1  2  1  6  0  0  0
  1  6  1  0  0  0  0
  1 21  1  0  0  0  0
  3  4  1  1  0  0  0
  3  8  1  0  0  0  0
  3 28  1  0  0  0  0
  5  9  1  0  0  0  0
  5 25  1  0  0  0  0
  5 29  1  6  0  0  0
  6  7  1  1  0  0  0
  6 11  1  0  0  0  0
  8 12  1  0  0  0  0
  9 10  1  6  0  0  0
  9 14  1  0  0  0  0
 11 16  1  0  0  0  0
 12 13  1  1  0  0  0
 12 17  1  0  0  0  0
 14 15  1  1  0  0  0
 14 18  1  0  0  0  0
 15 31  1  0  0  0  0
 16 20  1  0  0  0  0
 17  2  1  6  0  0  0
 17 22  1  0  0  0  0
 18 19  1  1  0  0  0
 18 24  1  0  0  0  0
 18 30  1  0  0  0  0
 20 21  1  0  0  0  0
 20 26  1  1  0  0  0
 22 23  1  1  0  0  0
 22 28  1  0  0  0  0
 24 25  1  0  0  0  0
 26 27  1  0  0  0  0
 28 29  1  6  0  0  0
M  END
>  <CHROM.1>
-141.69006430,-141.15157015,-104.19724733,-63.34786896,-111.21913390,172.55455848
-2.97476659,12.29428637,11.18565663,-2.93592651,-0.23907125,3.05021791

>  <Name>
ligand

>  <RI>
0

>  <Rbt.Current_Directory>
/home/itssahil/PROJECTS/Mol_Feturizer/New_Systems/rnas/4GPX

>  <Rbt.Executable>
rbdock ($Id: //depot/dev/client3/rdock/2013.1/src/exe/rbdock.cxx#4 $)

>  <Rbt.Library>
libRbt.so (2013.1, Build901 2013/11/27)

>  <Rbt.Parameter_File>
/export/apps/rDock/src/rDock_2013.1_src/data/scripts/dock_solv.prm

>  <Rbt.Receptor>
prm/pocket_docking_5.prm

>  <SCORE>
-9.21793

>  <SCORE.INTER>
-6.64896

>  <SCORE.INTER.CONST>
1

>  <SCORE.INTER.POLAR>
0

>  <SCORE.INTER.ROT>
6

>  <SCORE.INTER.SOLV>
8.13316

>  <SCORE.INTER.VDW>
-14.7437

>  <SCORE.INTER.norm>
-0.214482

>  <SCORE.INTRA>
-2.56897

>  <SCORE.INTRA.DIHEDRAL>
-7.24349

>  <SCORE.INTRA.DIHEDRAL.0>
20.6841

>  <SCORE.INTRA.POLAR>
0

>  <SCORE.INTRA.POLAR.0>
0

>  <SCORE.INTRA.REPUL>
0

>  <SCORE.INTRA.REPUL.0>
0

>  <SCORE.INTRA.SOLV>
-0.298127

>  <SCORE.INTRA.SOLV.lig_0>
-64.6797

>  <SCORE.INTRA.VDW>
1.20184

>  <SCORE.INTRA.VDW.0>
-4.11825

>  <SCORE.INTRA.norm>
-0.08287

>  <SCORE.RESTR>
0

>  <SCORE.RESTR.CAVITY>
0

>  <SCORE.RESTR.norm>
0

>  <SCORE.SYSTEM>
0

>  <SCORE.SYSTEM.CONST>
0

>  <SCORE.SYSTEM.DIHEDRAL>
0

>  <SCORE.SYSTEM.SOLV>
0

>  <SCORE.SYSTEM.norm>
0

>  <SCORE.heavy>
31

>  <SCORE.norm>
-0.297352

>  <RMSD>
5.703

$$$$
ligand
 OpenBabel11021811493D
libRbt.so/2013.1/901 2013/11/27
 31 33  0  0  0  0  0  0  0  0999 V2000
   -0.7977   14.5459    6.0608 C   0  0  2  0  0  0  0  0  0  0  0  0
   -0.4211   13.1839    6.2407 O   0  0  0  0  0  0  0  0  0  0  0  0
    1.4920   10.9828    9.3357 C   0  0  2  0  0  0  0  0  0  0  0  0
    2.5220   10.4977   10.2021 N   0  0  0  0  0  0  0  0  0  0  0  0
    1.7612   13.7546   11.6641 C   0  0  2  0  0  0  0  0  0  0  0  0
   -2.1751   14.5333    5.2807 C   0  0  2  0  0  0  0  0  0  0  0  0
   -3.1553   13.7966    6.0718 N   0  0  0  0  0  0  0  0  0  0  0  0
    1.9022   10.6556    7.8408 C   0  0  0  0  0  0  0  0  0  0  0  0
    1.1989   13.5673   13.1089 C   0  0  2  0  0  0  0  0  0  0  0  0
    1.3603   12.2141   13.4771 O   0  0  0  0  0  0  0  0  0  0  0  0
   -1.9952   13.8705    3.8569 C   0  0  0  0  0  0  0  0  0  0  0  0
    0.7718   11.1906    6.8839 C   0  0  2  0  0  0  0  0  0  0  0  0
    1.1503   10.8941    5.4916 N   0  0  0  0  0  0  0  0  0  0  0  0
   -0.3258   13.9643   13.0718 C   0  0  1  0  0  0  0  0  0  0  0  0
   -0.9290   13.7853   14.4339 N   0  0  0  0  0  0  0  0  0  0  0  0
   -0.6067   14.2482    3.1869 C   0  0  0  0  0  0  0  0  0  0  0  0
    0.5941   12.7603    7.0842 C   0  0  2  0  0  0  0  0  0  0  0  0
   -0.4264   15.5327   12.6377 C   0  0  1  0  0  0  0  0  0  0  0  0
    0.2782   16.3833   13.5262 O   0  0  0  0  0  0  0  0  0  0  0  0
    0.3609   14.8905    3.8934 C   0  0  2  0  0  0  0  0  0  0  0  0
    0.1919   15.2624    5.2662 O   0  0  0  0  0  0  0  0  0  0  0  0
    0.1972   13.0573    8.5777 C   0  0  2  0  0  0  0  0  0  0  0  0
    0.0480   14.4827    8.7527 O   0  0  0  0  0  0  0  0  0  0  0  0
    0.2006   15.7330   11.2197 C   0  0  0  0  0  0  0  0  0  0  0  0
    1.6078   15.1968   11.2187 O   0  0  0  0  0  0  0  0  0  0  0  0
    1.7130   15.2777    3.2915 C   0  0  0  0  0  0  0  0  0  0  0  0
    1.8146   16.7212    3.3057 O   0  0  0  0  0  0  0  0  0  0  0  0
    1.3476   12.5365    9.5162 C   0  0  1  0  0  0  0  0  0  0  0  0
    0.9938   12.8247   10.8325 O   0  0  0  0  0  0  0  0  0  0  0  0
   -1.8659   16.0948   12.5510 C   0  0  0  0  0  0  0  0  0  0  0  0
   -0.2995   14.5344   15.5405 C   0  0  0  0  0  0  0  0  0  0  0  0
  1  2  1  6  0  0  0
  1  6  1  0  0  0  0
  1 21  1  0  0  0  0
  3  4  1  1  0  0  0
  3  8  1  0  0  0  0
  3 28  1  0  0  0  0
  5  9  1  0  0  0  0
  5 25  1  0  0  0  0
  5 29  1  6  0  0  0
  6  7  1  1  0  0  0
  6 11  1  0  0  0  0
  8 12  1  0  0  0  0
  9 10  1  6  0  0  0
  9 14  1  0  0  0  0
 11 16  1  0  0  0  0
 12 13  1  6  0  0  0
 12 17  1  0  0  0  0
 14 15  1  1  0  0  0
 14 18  1  0  0  0  0
 15 31  1  0  0  0  0
 16 20  1  0  0  0  0
 17  2  1  6  0  0  0
 17 22  1  0  0  0  0
 18 19  1  1  0  0  0
 18 24  1  0  0  0  0
 18 30  1  0  0  0  0
 20 21  1  0  0  0  0
 20 26  1  6  0  0  0
 22 23  1  6  0  0  0
 22 28  1  0  0  0  0
 24 25  1  0  0  0  0
 26 27  1  0  0  0  0
 28 29  1  1  0  0  0
M  END
>  <CHROM.1>
-167.76417149,-169.23431347,57.39109410,-174.81277566,116.62096336,125.76662045
0.28481339,13.81303854,8.84154893,1.65105225,1.09764878,-1.64251273

>  <Name>
ligand

>  <RI>
0

>  <Rbt.Current_Directory>
/home/itssahil/PROJECTS/Mol_Feturizer/New_Systems/rnas/4GPX

>  <Rbt.Executable>
rbdock ($Id: //depot/dev/client3/rdock/2013.1/src/exe/rbdock.cxx#4 $)

>  <Rbt.Library>
libRbt.so (2013.1, Build901 2013/11/27)

>  <Rbt.Parameter_File>
/export/apps/rDock/src/rDock_2013.1_src/data/scripts/dock_solv.prm

>  <Rbt.Receptor>
prm/pocket_docking_7.prm

>  <SCORE>
-7.26044

>  <SCORE.INTER>
-4.03834

>  <SCORE.INTER.CONST>
1

>  <SCORE.INTER.POLAR>
0

>  <SCORE.INTER.ROT>
6

>  <SCORE.INTER.SOLV>
8.65378

>  <SCORE.INTER.VDW>
-13.1768

>  <SCORE.INTER.norm>
-0.130269

>  <SCORE.INTRA>
-3.2221

>  <SCORE.INTRA.DIHEDRAL>
-10.5391

>  <SCORE.INTRA.DIHEDRAL.0>
20.6841

>  <SCORE.INTRA.POLAR>
0

>  <SCORE.INTRA.POLAR.0>
0

>  <SCORE.INTRA.REPUL>
0

>  <SCORE.INTRA.REPUL.0>
0

>  <SCORE.INTRA.SOLV>
-1.97635

>  <SCORE.INTRA.SOLV.lig_0>
-64.6797

>  <SCORE.INTRA.VDW>
3.03562

>  <SCORE.INTRA.VDW.0>
-4.11825

>  <SCORE.INTRA.norm>
-0.103939

>  <SCORE.RESTR>
0

>  <SCORE.RESTR.CAVITY>
0

>  <SCORE.RESTR.norm>
0

>  <SCORE.SYSTEM>
0

>  <SCORE.SYSTEM.CONST>
0

>  <SCORE.SYSTEM.DIHEDRAL>
0

>  <SCORE.SYSTEM.SOLV>
0

>  <SCORE.SYSTEM.norm>
0

>  <SCORE.heavy>
31

>  <SCORE.norm>
-0.234208

>  <RMSD>
5.754

$$$$
ligand
 OpenBabel11021811493D
libRbt.so/2013.1/901 2013/11/27
 31 33  0  0  0  0  0  0  0  0999 V2000
   -6.4015   12.6827   10.4183 C   0  0  2  0  0  0  0  0  0  0  0  0
   -6.1384   13.7759   11.2930 O   0  0  0  0  0  0  0  0  0  0  0  0
   -2.6464   15.2673   13.2077 C   0  0  2  0  0  0  0  0  0  0  0  0
   -1.5573   15.3686   14.1298 N   0  0  0  0  0  0  0  0  0  0  0  0
   -0.0467   13.6284   12.3305 C   0  0  2  0  0  0  0  0  0  0  0  0
   -7.6714   13.0855    9.5633 C   0  0  2  0  0  0  0  0  0  0  0  0
   -7.3733   14.3111    8.8296 N   0  0  0  0  0  0  0  0  0  0  0  0
   -4.0004   15.2882   14.0301 C   0  0  0  0  0  0  0  0  0  0  0  0
    0.9997   13.7012   11.1736 C   0  0  2  0  0  0  0  0  0  0  0  0
    0.9167   14.9785   10.5784 O   0  0  0  0  0  0  0  0  0  0  0  0
   -8.9260   13.2889   10.5033 C   0  0  0  0  0  0  0  0  0  0  0  0
   -5.2015   15.1743   13.0183 C   0  0  2  0  0  0  0  0  0  0  0  0
   -6.4635   15.1876   13.7779 N   0  0  0  0  0  0  0  0  0  0  0  0
    0.6312   12.5711   10.1387 C   0  0  1  0  0  0  0  0  0  0  0  0
    1.5942   12.6039    8.9887 N   0  0  0  0  0  0  0  0  0  0  0  0
   -8.9625   12.2413   11.6953 C   0  0  0  0  0  0  0  0  0  0  0  0
   -5.0760   13.8249   12.1821 C   0  0  2  0  0  0  0  0  0  0  0  0
    0.7475   11.1344   10.9007 C   0  0  1  0  0  0  0  0  0  0  0  0
    2.0433   10.9088   11.4292 O   0  0  0  0  0  0  0  0  0  0  0  0
   -7.9008   11.4315   11.9497 C   0  0  2  0  0  0  0  0  0  0  0  0
   -6.6999   11.4704   11.1701 O   0  0  0  0  0  0  0  0  0  0  0  0
   -3.7199   13.8262   11.3839 C   0  0  2  0  0  0  0  0  0  0  0  0
   -3.6098   12.5955   10.6370 O   0  0  0  0  0  0  0  0  0  0  0  0
   -0.2507   11.0880   12.1030 C   0  0  0  0  0  0  0  0  0  0  0  0
    0.0004   12.2691   13.0028 O   0  0  0  0  0  0  0  0  0  0  0  0
   -7.8895   10.4053   13.0843 C   0  0  0  0  0  0  0  0  0  0  0  0
   -6.8453   10.7758   14.0152 O   0  0  0  0  0  0  0  0  0  0  0  0
   -2.5322   13.9178   12.4118 C   0  0  1  0  0  0  0  0  0  0  0  0
   -1.3384   13.8964   11.6941 O   0  0  0  0  0  0  0  0  0  0  0  0
    0.4173    9.9022   10.0242 C   0  0  0  0  0  0  0  0  0  0  0  0
    1.1469   13.3092    7.7703 C   0  0  0  0  0  0  0  0  0  0  0  0
  1  2  1  1  0  0  0
  1  6  1  0  0  0  0
  1 21  1  0  0  0  0
  3  4  1  1  0  0  0
  3  8  1  0  0  0  0
  3 28  1  0  0  0  0
  5  9  1  0  0  0  0
  5 25  1  0  0  0  0
  5 29  1  6  0  0  0
  6  7  1  1  0  0  0
  6 11  1  0  0  0  0
  8 12  1  0  0  0  0
  9 10  1  6  0  0  0
  9 14  1  0  0  0  0
 11 16  1  0  0  0  0
 12 13  1  1  0  0  0
 12 17  1  0  0  0  0
 14 15  1  6  0  0  0
 14 18  1  0  0  0  0
 15 31  1  0  0  0  0
 16 20  1  0  0  0  0
 17  2  1  6  0  0  0
 17 22  1  0  0  0  0
 18 19  1  1  0  0  0
 18 24  1  0  0  0  0
 18 30  1  0  0  0  0
 20 21  1  0  0  0  0
 20 26  1  6  0  0  0
 22 23  1  1  0  0  0
 22 28  1  0  0  0  0
 24 25  1  0  0  0  0
 26 27  1  0  0  0  0
 28 29  1  6  0  0  0
M  END
>  <CHROM.1>
-178.10099478,-179.99994651,-98.11212609,-176.78393809,-117.02829439,77.01886065
-3.28558993,13.00199124,11.52590779,3.05255251,0.06873425,0.74606094

>  <Name>
ligand

>  <RI>
0

>  <Rbt.Current_Directory>
/home/itssahil/PROJECTS/Mol_Feturizer/New_Systems/rnas/4GPX

>  <Rbt.Executable>
rbdock ($Id: //depot/dev/client3/rdock/2013.1/src/exe/rbdock.cxx#4 $)

>  <Rbt.Library>
libRbt.so (2013.1, Build901 2013/11/27)

>  <Rbt.Parameter_File>
/export/apps/rDock/src/rDock_2013.1_src/data/scripts/dock_solv.prm

>  <Rbt.Receptor>
prm/pocket_docking_6.prm

>  <SCORE>
-11.71

>  <SCORE.INTER>
-2.93847

>  <SCORE.INTER.CONST>
1

>  <SCORE.INTER.POLAR>
0

>  <SCORE.INTER.ROT>
6

>  <SCORE.INTER.SOLV>
9.70436

>  <SCORE.INTER.VDW>
-12.7938

>  <SCORE.INTER.norm>
-0.0947895

>  <SCORE.INTRA>
-8.77149

>  <SCORE.INTRA.DIHEDRAL>
-16.7276

>  <SCORE.INTRA.DIHEDRAL.0>
20.6841

>  <SCORE.INTRA.POLAR>
0

>  <SCORE.INTRA.POLAR.0>
0

>  <SCORE.INTRA.REPUL>
0

>  <SCORE.INTRA.REPUL.0>
0

>  <SCORE.INTRA.SOLV>
-1.91078

>  <SCORE.INTRA.SOLV.lig_0>
-64.6797

>  <SCORE.INTRA.VDW>
0.547706

>  <SCORE.INTRA.VDW.0>
-4.11825

>  <SCORE.INTRA.norm>
-0.282951

>  <SCORE.RESTR>
0

>  <SCORE.RESTR.CAVITY>
0

>  <SCORE.RESTR.norm>
0

>  <SCORE.SYSTEM>
0

>  <SCORE.SYSTEM.CONST>
0

>  <SCORE.SYSTEM.DIHEDRAL>
0

>  <SCORE.SYSTEM.SOLV>
0

>  <SCORE.SYSTEM.norm>
0

>  <SCORE.heavy>
31

>  <SCORE.norm>
-0.377741

>  <RMSD>
5.772

$$$$
ligand
 OpenBabel11021811493D
libRbt.so/2013.1/901 2013/11/27
 31 33  0  0  0  0  0  0  0  0999 V2000
   -0.6508   18.1638    6.3603 C   0  0  2  0  0  0  0  0  0  0  0  0
   -0.8530   17.0049    7.1635 O   0  0  0  0  0  0  0  0  0  0  0  0
    1.6940   14.1389    9.0028 C   0  0  2  0  0  0  0  0  0  0  0  0
    2.6845   13.5807    9.8713 N   0  0  0  0  0  0  0  0  0  0  0  0
    0.6174   13.1366   11.7726 C   0  0  2  0  0  0  0  0  0  0  0  0
   -2.0794   18.8042    6.1256 C   0  0  2  0  0  0  0  0  0  0  0  0
   -2.6640   19.1341    7.4212 N   0  0  0  0  0  0  0  0  0  0  0  0
    2.3747   15.2764    8.1353 C   0  0  0  0  0  0  0  0  0  0  0  0
   -0.3836   12.0650   12.3095 C   0  0  2  0  0  0  0  0  0  0  0  0
   -0.6703   11.1608   11.2641 O   0  0  0  0  0  0  0  0  0  0  0  0
   -3.0088   17.8007    5.3331 C   0  0  0  0  0  0  0  0  0  0  0  0
    1.2866   15.8950    7.1799 C   0  0  2  0  0  0  0  0  0  0  0  0
    1.9126   16.9574    6.3743 N   0  0  0  0  0  0  0  0  0  0  0  0
   -1.6839   12.8286   12.7678 C   0  0  1  0  0  0  0  0  0  0  0  0
   -2.6956   11.8450   13.2777 N   0  0  0  0  0  0  0  0  0  0  0  0
   -2.2137   16.9901    4.2240 C   0  0  0  0  0  0  0  0  0  0  0  0
    0.0880   16.4912    8.0423 C   0  0  2  0  0  0  0  0  0  0  0  0
   -1.2697   13.8501   13.9692 C   0  0  1  0  0  0  0  0  0  0  0  0
   -0.6851   13.1764   15.0709 O   0  0  0  0  0  0  0  0  0  0  0  0
   -0.8568   17.0385    4.1581 C   0  0  2  0  0  0  0  0  0  0  0  0
   -0.0698   17.8125    5.0707 O   0  0  0  0  0  0  0  0  0  0  0  0
   -0.5627   15.3438    8.9003 C   0  0  2  0  0  0  0  0  0  0  0  0
   -1.6413   15.8949    9.6862 O   0  0  0  0  0  0  0  0  0  0  0  0
   -0.2140   14.8800   13.4509 C   0  0  0  0  0  0  0  0  0  0  0  0
    0.9561   14.1377   12.8613 O   0  0  0  0  0  0  0  0  0  0  0  0
   -0.0467   16.2776    3.1068 C   0  0  0  0  0  0  0  0  0  0  0  0
    0.7446   15.2753    3.7877 O   0  0  0  0  0  0  0  0  0  0  0  0
    0.5327   14.7540    9.8635 C   0  0  1  0  0  0  0  0  0  0  0  0
   -0.0613   13.7550   10.6316 O   0  0  0  0  0  0  0  0  0  0  0  0
   -2.4368   14.6884   14.5445 C   0  0  0  0  0  0  0  0  0  0  0  0
   -3.6787   11.3384   12.2983 C   0  0  0  0  0  0  0  0  0  0  0  0
  1  2  1  1  0  0  0
  1  6  1  0  0  0  0
  1 21  1  0  0  0  0
  3  4  1  1  0  0  0
  3  8  1  0  0  0  0
  3 28  1  0  0  0  0
  5  9  1  0  0  0  0
  5 25  1  0  0  0  0
  5 29  1  6  0  0  0
  6  7  1  1  0  0  0
  6 11  1  0  0  0  0
  8 12  1  0  0  0  0
  9 10  1  6  0  0  0
  9 14  1  0  0  0  0
 11 16  1  0  0  0  0
 12 13  1  1  0  0  0
 12 17  1  0  0  0  0
 14 15  1  1  0  0  0
 14 18  1  0  0  0  0
 15 31  1  0  0  0  0
 16 20  1  0  0  0  0
 17  2  1  6  0  0  0
 17 22  1  0  0  0  0
 18 19  1  1  0  0  0
 18 24  1  0  0  0  0
 18 30  1  0  0  0  0
 20 21  1  0  0  0  0
 20 26  1  6  0  0  0
 22 23  1  1  0  0  0
 22 28  1  0  0  0  0
 24 25  1  0  0  0  0
 26 27  1  0  0  0  0
 28 29  1  6  0  0  0
M  END
>  <CHROM.1>
-151.48225405,-178.71603732,-92.64128024,-69.15978773,-114.38863476,70.85207735
-0.50967987,15.12320647,9.17949787,1.51834412,0.43819475,-1.05992749

>  <Name>
ligand

>  <RI>
0

>  <Rbt.Current_Directory>
/home/itssahil/PROJECTS/Mol_Feturizer/New_Systems/rnas/4GPX

>  <Rbt.Executable>
rbdock ($Id: //depot/dev/client3/rdock/2013.1/src/exe/rbdock.cxx#4 $)

>  <Rbt.Library>
libRbt.so (2013.1, Build901 2013/11/27)

>  <Rbt.Parameter_File>
/export/apps/rDock/src/rDock_2013.1_src/data/scripts/dock_solv.prm

>  <Rbt.Receptor>
prm/pocket_docking_6.prm

>  <SCORE>
-8.1204

>  <SCORE.INTER>
-2.85952

>  <SCORE.INTER.CONST>
1

>  <SCORE.INTER.POLAR>
0

>  <SCORE.INTER.ROT>
6

>  <SCORE.INTER.SOLV>
6.1078

>  <SCORE.INTER.VDW>
-11.5423

>  <SCORE.INTER.norm>
-0.0922424

>  <SCORE.INTRA>
-5.26088

>  <SCORE.INTRA.DIHEDRAL>
-13.9723

>  <SCORE.INTRA.DIHEDRAL.0>
20.6841

>  <SCORE.INTRA.POLAR>
0

>  <SCORE.INTRA.POLAR.0>
0

>  <SCORE.INTRA.REPUL>
0

>  <SCORE.INTRA.REPUL.0>
0

>  <SCORE.INTRA.SOLV>
1.68834

>  <SCORE.INTRA.SOLV.lig_0>
-64.6797

>  <SCORE.INTRA.VDW>
0.881076

>  <SCORE.INTRA.VDW.0>
-4.11825

>  <SCORE.INTRA.norm>
-0.169706

>  <SCORE.RESTR>
0

>  <SCORE.RESTR.CAVITY>
0

>  <SCORE.RESTR.norm>
0

>  <SCORE.SYSTEM>
0

>  <SCORE.SYSTEM.CONST>
0

>  <SCORE.SYSTEM.DIHEDRAL>
0

>  <SCORE.SYSTEM.SOLV>
0

>  <SCORE.SYSTEM.norm>
0

>  <SCORE.heavy>
31

>  <SCORE.norm>
-0.261948

>  <RMSD>
5.860

$$$$
ligand
 OpenBabel11021811493D
libRbt.so/2013.1/901 2013/11/27
 31 33  0  0  0  0  0  0  0  0999 V2000
   -2.1380   15.9253    5.3684 C   0  0  2  0  0  0  0  0  0  0  0  0
   -2.3421   16.7912    6.4810 O   0  0  0  0  0  0  0  0  0  0  0  0
   -1.4437   14.2998    9.8081 C   0  0  2  0  0  0  0  0  0  0  0  0
   -1.1585   13.9022   11.1525 N   0  0  0  0  0  0  0  0  0  0  0  0
   -3.9713   13.6428   11.5589 C   0  0  2  0  0  0  0  0  0  0  0  0
   -2.4521   16.7767    4.0713 C   0  0  2  0  0  0  0  0  0  0  0  0
   -1.5560   17.9278    4.0377 N   0  0  0  0  0  0  0  0  0  0  0  0
   -0.3395   15.3395    9.3502 C   0  0  0  0  0  0  0  0  0  0  0  0
   -5.2617   12.7638   11.5914 C   0  0  2  0  0  0  0  0  0  0  0  0
   -5.0908   11.6896   10.6917 O   0  0  0  0  0  0  0  0  0  0  0  0
   -3.9620   17.2445    4.0723 C   0  0  0  0  0  0  0  0  0  0  0  0
   -0.6518   15.7815    7.8715 C   0  0  2  0  0  0  0  0  0  0  0  0
    0.3688   16.7528    7.4419 N   0  0  0  0  0  0  0  0  0  0  0  0
   -6.4640   13.6828   11.1514 C   0  0  1  0  0  0  0  0  0  0  0  0
   -7.7348   12.8852   11.1441 N   0  0  0  0  0  0  0  0  0  0  0  0
   -4.9366   16.1357    4.6557 C   0  0  0  0  0  0  0  0  0  0  0  0
   -2.1012   16.4370    7.7994 C   0  0  2  0  0  0  0  0  0  0  0  0
   -6.5927   14.8949   12.2343 C   0  0  1  0  0  0  0  0  0  0  0  0
   -6.7993   14.4185   13.5533 O   0  0  0  0  0  0  0  0  0  0  0  0
   -4.4479   15.0238    5.2662 C   0  0  2  0  0  0  0  0  0  0  0  0
   -3.0440   14.7848    5.4192 O   0  0  0  0  0  0  0  0  0  0  0  0
   -3.1759   15.3875    8.2682 C   0  0  2  0  0  0  0  0  0  0  0  0
   -4.4852   15.9931    8.2093 O   0  0  0  0  0  0  0  0  0  0  0  0
   -5.2734   15.7334   12.2529 C   0  0  0  0  0  0  0  0  0  0  0  0
   -4.1062   14.8172   12.5101 O   0  0  0  0  0  0  0  0  0  0  0  0
   -5.3461   13.9271    5.8414 C   0  0  0  0  0  0  0  0  0  0  0  0
   -6.5930   13.9360    5.1070 O   0  0  0  0  0  0  0  0  0  0  0  0
   -2.8608   14.9753    9.7536 C   0  0  1  0  0  0  0  0  0  0  0  0
   -3.8310   14.0632   10.1629 O   0  0  0  0  0  0  0  0  0  0  0  0
   -7.7343   15.9019   11.9543 C   0  0  0  0  0  0  0  0  0  0  0  0
   -8.6814   13.1578   10.0432 C   0  0  0  0  0  0  0  0  0  0  0  0
  1  2  1  1  0  0  0
  1  6  1  0  0  0  0
  1 21  1  0  0  0  0
  3  4  1  1  0  0  0
  3  8  1  0  0  0  0
  3 28  1  0  0  0  0
  5  9  1  0  0  0  0
  5 25  1  0  0  0  0
  5 29  1  6  0  0  0
  6  7  1  1  0  0  0
  6 11  1  0  0  0  0
  8 12  1  0  0  0  0
  9 10  1  6  0  0  0
  9 14  1  0  0  0  0
 11 16  1  0  0  0  0
 12 13  1  1  0  0  0
 12 17  1  0  0  0  0
 14 15  1  1  0  0  0
 14 18  1  0  0  0  0
 15 31  1  0  0  0  0
 16 20  1  0  0  0  0
 17  2  1  6  0  0  0
 17 22  1  0  0  0  0
 18 19  1  1  0  0  0
 18 24  1  0  0  0  0
 18 30  1  0  0  0  0
 20 21  1  0  0  0  0
 20 26  1  6  0  0  0
 22 23  1  1  0  0  0
 22 28  1  0  0  0  0
 24 25  1  0  0  0  0
 26 27  1  0  0  0  0
 28 29  1  6  0  0  0
M  END
>  <CHROM.1>
-176.49158652,173.59604310,-140.92173337,48.87346612,26.80469057,71.68675142
-4.05424994,14.98298218,8.68509243,-1.06999202,0.24960520,1.78901060

>  <Name>
ligand

>  <RI>
0

>  <Rbt.Current_Directory>
/home/itssahil/PROJECTS/Mol_Feturizer/New_Systems/rnas/4GPX

>  <Rbt.Executable>
rbdock ($Id: //depot/dev/client3/rdock/2013.1/src/exe/rbdock.cxx#4 $)

>  <Rbt.Library>
libRbt.so (2013.1, Build901 2013/11/27)

>  <Rbt.Parameter_File>
/export/apps/rDock/src/rDock_2013.1_src/data/scripts/dock_solv.prm

>  <Rbt.Receptor>
prm/pocket_docking_8.prm

>  <SCORE>
-9.72596

>  <SCORE.INTER>
-2.7139

>  <SCORE.INTER.CONST>
1

>  <SCORE.INTER.POLAR>
0

>  <SCORE.INTER.ROT>
6

>  <SCORE.INTER.SOLV>
9.173

>  <SCORE.INTER.VDW>
-12.4669

>  <SCORE.INTER.norm>
-0.0875453

>  <SCORE.INTRA>
-7.01205

>  <SCORE.INTRA.DIHEDRAL>
-15.8098

>  <SCORE.INTRA.DIHEDRAL.0>
20.6841

>  <SCORE.INTRA.POLAR>
0

>  <SCORE.INTRA.POLAR.0>
0

>  <SCORE.INTRA.REPUL>
0

>  <SCORE.INTRA.REPUL.0>
0

>  <SCORE.INTRA.SOLV>
-0.687887

>  <SCORE.INTRA.SOLV.lig_0>
-64.6797

>  <SCORE.INTRA.VDW>
1.2368

>  <SCORE.INTRA.VDW.0>
-4.11825

>  <SCORE.INTRA.norm>
-0.226195

>  <SCORE.RESTR>
0

>  <SCORE.RESTR.CAVITY>
0

>  <SCORE.RESTR.norm>
0

>  <SCORE.SYSTEM>
0

>  <SCORE.SYSTEM.CONST>
0

>  <SCORE.SYSTEM.DIHEDRAL>
0

>  <SCORE.SYSTEM.SOLV>
0

>  <SCORE.SYSTEM.norm>
0

>  <SCORE.heavy>
31

>  <SCORE.norm>
-0.31374

>  <RMSD>
5.923

$$$$
ligand
 OpenBabel11021811493D
libRbt.so/2013.1/901 2013/11/27
 31 33  0  0  0  0  0  0  0  0999 V2000
   -7.2231   14.8902   11.6813 C   0  0  2  0  0  0  0  0  0  0  0  0
   -6.9355   13.6925   12.3969 O   0  0  0  0  0  0  0  0  0  0  0  0
   -4.0498   14.9704   15.2470 C   0  0  2  0  0  0  0  0  0  0  0  0
   -3.1204   14.9240   16.3338 N   0  0  0  0  0  0  0  0  0  0  0  0
   -1.1160   14.2164   14.4555 C   0  0  2  0  0  0  0  0  0  0  0  0
   -8.5386   14.6112   10.8461 C   0  0  2  0  0  0  0  0  0  0  0  0
   -9.6126   14.2556   11.7677 N   0  0  0  0  0  0  0  0  0  0  0  0
   -5.4733   14.5341   15.7886 C   0  0  0  0  0  0  0  0  0  0  0  0
    0.0145   14.8804   13.6071 C   0  0  2  0  0  0  0  0  0  0  0  0
   -0.3460   16.2223   13.3582 O   0  0  0  0  0  0  0  0  0  0  0  0
   -8.2918   13.4502    9.8020 C   0  0  0  0  0  0  0  0  0  0  0  0
   -6.4984   14.5815   14.5942 C   0  0  2  0  0  0  0  0  0  0  0  0
   -7.8231   14.1714   15.0907 N   0  0  0  0  0  0  0  0  0  0  0  0
    0.1275   14.0674   12.2617 C   0  0  1  0  0  0  0  0  0  0  0  0
    1.1893   14.6730   11.3917 N   0  0  0  0  0  0  0  0  0  0  0  0
   -6.8396   13.5114    9.1641 C   0  0  0  0  0  0  0  0  0  0  0  0
   -6.0184   13.6040   13.4325 C   0  0  2  0  0  0  0  0  0  0  0  0
    0.5422   12.5350   12.6337 C   0  0  1  0  0  0  0  0  0  0  0  0
    1.7638   12.4668   13.3496 O   0  0  0  0  0  0  0  0  0  0  0  0
   -5.8925   14.3531    9.6565 C   0  0  2  0  0  0  0  0  0  0  0  0
   -6.1406   15.2256   10.7650 O   0  0  0  0  0  0  0  0  0  0  0  0
   -4.5999   14.0536   12.9207 C   0  0  2  0  0  0  0  0  0  0  0  0
   -4.1683   13.1564   11.8751 O   0  0  0  0  0  0  0  0  0  0  0  0
   -0.5562   11.8927   13.5420 C   0  0  0  0  0  0  0  0  0  0  0  0
   -0.7767   12.7668   14.7483 O   0  0  0  0  0  0  0  0  0  0  0  0
   -4.4810   14.4498    9.0745 C   0  0  0  0  0  0  0  0  0  0  0  0
   -4.2295   15.8335    8.7330 O   0  0  0  0  0  0  0  0  0  0  0  0
   -3.5856   13.9782   14.1211 C   0  0  1  0  0  0  0  0  0  0  0  0
   -2.3309   14.3578   13.6498 O   0  0  0  0  0  0  0  0  0  0  0  0
    0.6989   11.5882   11.4193 C   0  0  0  0  0  0  0  0  0  0  0  0
    0.7484   15.7019   10.4278 C   0  0  0  0  0  0  0  0  0  0  0  0
  1  2  1  6  0  0  0
  1  6  1  0  0  0  0
  1 21  1  0  0  0  0
  3  4  1  1  0  0  0
  3  8  1  0  0  0  0
  3 28  1  0  0  0  0
  5  9  1  0  0  0  0
  5 25  1  0  0  0  0
  5 29  1  6  0  0  0
  6  7  1  1  0  0  0
  6 11  1  0  0  0  0
  8 12  1  0  0  0  0
  9 10  1  6  0  0  0
  9 14  1  0  0  0  0
 11 16  1  0  0  0  0
 12 13  1  1  0  0  0
 12 17  1  0  0  0  0
 14 15  1  6  0  0  0
 14 18  1  0  0  0  0
 15 31  1  0  0  0  0
 16 20  1  0  0  0  0
 17  2  1  6  0  0  0
 17 22  1  0  0  0  0
 18 19  1  1  0  0  0
 18 24  1  0  0  0  0
 18 30  1  0  0  0  0
 20 21  1  0  0  0  0
 20 26  1  6  0  0  0
 22 23  1  6  0  0  0
 22 28  1  0  0  0  0
 24 25  1  0  0  0  0
 26 27  1  0  0  0  0
 28 29  1  6  0  0  0
M  END
>  <CHROM.1>
-167.12232228,-174.71724404,-91.70254851,60.88691822,125.10107142,70.30674731
-3.61845835,14.11847412,12.49496713,-2.95708151,-0.06776623,1.61262152

>  <Name>
ligand

>  <RI>
0

>  <Rbt.Current_Directory>
/home/itssahil/PROJECTS/Mol_Feturizer/New_Systems/rnas/4GPX

>  <Rbt.Executable>
rbdock ($Id: //depot/dev/client3/rdock/2013.1/src/exe/rbdock.cxx#4 $)

>  <Rbt.Library>
libRbt.so (2013.1, Build901 2013/11/27)

>  <Rbt.Parameter_File>
/export/apps/rDock/src/rDock_2013.1_src/data/scripts/dock_solv.prm

>  <Rbt.Receptor>
prm/pocket_docking_7.prm

>  <SCORE>
-10.9354

>  <SCORE.INTER>
-3.09956

>  <SCORE.INTER.CONST>
1

>  <SCORE.INTER.POLAR>
0

>  <SCORE.INTER.ROT>
6

>  <SCORE.INTER.SOLV>
6.8339

>  <SCORE.INTER.VDW>
-11.9443

>  <SCORE.INTER.norm>
-0.0999857

>  <SCORE.INTRA>
-7.83584

>  <SCORE.INTRA.DIHEDRAL>
-16.8644

>  <SCORE.INTRA.DIHEDRAL.0>
20.6841

>  <SCORE.INTRA.POLAR>
0

>  <SCORE.INTRA.POLAR.0>
0

>  <SCORE.INTRA.REPUL>
0

>  <SCORE.INTRA.REPUL.0>
0

>  <SCORE.INTRA.SOLV>
-0.119411

>  <SCORE.INTRA.SOLV.lig_0>
-64.6797

>  <SCORE.INTRA.VDW>
0.656065

>  <SCORE.INTRA.VDW.0>
-4.11825

>  <SCORE.INTRA.norm>
-0.252769

>  <SCORE.RESTR>
0

>  <SCORE.RESTR.CAVITY>
0

>  <SCORE.RESTR.norm>
0

>  <SCORE.SYSTEM>
0

>  <SCORE.SYSTEM.CONST>
0

>  <SCORE.SYSTEM.DIHEDRAL>
0

>  <SCORE.SYSTEM.SOLV>
0

>  <SCORE.SYSTEM.norm>
0

>  <SCORE.heavy>
31

>  <SCORE.norm>
-0.352755

>  <RMSD>
6.103

$$$$
ligand
 OpenBabel11021811493D
libRbt.so/2013.1/901 2013/11/27
 31 33  0  0  0  0  0  0  0  0999 V2000
   -5.1937   15.7914    4.5999 C   0  0  2  0  0  0  0  0  0  0  0  0
   -3.9823   15.2304    4.1028 O   0  0  0  0  0  0  0  0  0  0  0  0
    0.0163   16.6674    3.9290 C   0  0  2  0  0  0  0  0  0  0  0  0
    1.3195   17.0734    4.3576 N   0  0  0  0  0  0  0  0  0  0  0  0
    2.1233   14.2701    4.1222 C   0  0  2  0  0  0  0  0  0  0  0  0
   -5.3075   15.3469    6.1150 C   0  0  2  0  0  0  0  0  0  0  0  0
   -4.1406   15.8419    6.8378 N   0  0  0  0  0  0  0  0  0  0  0  0
   -1.0559   17.5681    4.6699 C   0  0  0  0  0  0  0  0  0  0  0  0
    2.8614   13.4394    3.0250 C   0  0  2  0  0  0  0  0  0  0  0  0
    2.7234   14.1106    1.7908 O   0  0  0  0  0  0  0  0  0  0  0  0
   -5.4032   13.7726    6.2211 C   0  0  0  0  0  0  0  0  0  0  0  0
   -2.4919   17.1222    4.2024 C   0  0  2  0  0  0  0  0  0  0  0  0
   -3.4938   17.9528    4.8923 N   0  0  0  0  0  0  0  0  0  0  0  0
    2.1780   12.0201    2.9752 C   0  0  1  0  0  0  0  0  0  0  0  0
    2.8343   11.1787    1.9204 N   0  0  0  0  0  0  0  0  0  0  0  0
   -6.2689   13.1408    5.0501 C   0  0  0  0  0  0  0  0  0  0  0  0
   -2.7183   15.5845    4.5486 C   0  0  2  0  0  0  0  0  0  0  0  0
    2.3779   11.3147    4.4315 C   0  0  1  0  0  0  0  0  0  0  0  0
    3.7448   11.1864    4.7843 O   0  0  0  0  0  0  0  0  0  0  0  0
   -6.6716   13.8928    3.9917 C   0  0  2  0  0  0  0  0  0  0  0  0
   -6.3461   15.2821    3.8674 O   0  0  0  0  0  0  0  0  0  0  0  0
   -1.6354   14.7149    3.8088 C   0  0  2  0  0  0  0  0  0  0  0  0
   -1.8419   13.3239    4.1361 O   0  0  0  0  0  0  0  0  0  0  0  0
    1.6993   12.1829    5.5403 C   0  0  0  0  0  0  0  0  0  0  0  0
    2.2397   13.5869    5.4718 O   0  0  0  0  0  0  0  0  0  0  0  0
   -7.5086   13.3303    2.8413 C   0  0  0  0  0  0  0  0  0  0  0  0
   -8.7284   14.1039    2.7528 O   0  0  0  0  0  0  0  0  0  0  0  0
   -0.2100   15.1591    4.3050 C   0  0  1  0  0  0  0  0  0  0  0  0
    0.7373   14.3677    3.6591 O   0  0  0  0  0  0  0  0  0  0  0  0
    1.7630    9.9002    4.5613 C   0  0  0  0  0  0  0  0  0  0  0  0
    2.3471   11.3524    0.5367 C   0  0  0  0  0  0  0  0  0  0  0  0
  1  2  1  6  0  0  0
  1  6  1  0  0  0  0
  1 21  1  0  0  0  0
  3  4  1  1  0  0  0
  3  8  1  0  0  0  0
  3 28  1  0  0  0  0
  5  9  1  0  0  0  0
  5 25  1  0  0  0  0
  5 29  1  6  0  0  0
  6  7  1  1  0  0  0
  6 11  1  0  0  0  0
  8 12  1  0  0  0  0
  9 10  1  6  0  0  0
  9 14  1  0  0  0  0
 11 16  1  0  0  0  0
 12 13  1  1  0  0  0
 12 17  1  0  0  0  0
 14 15  1  6  0  0  0
 14 18  1  0  0  0  0
 15 31  1  0  0  0  0
 16 20  1  0  0  0  0
 17  2  1  6  0  0  0
 17 22  1  0  0  0  0
 18 19  1  1  0  0  0
 18 24  1  0  0  0  0
 18 30  1  0  0  0  0
 20 21  1  0  0  0  0
 20 26  1  1  0  0  0
 22 23  1  1  0  0  0
 22 28  1  0  0  0  0
 24 25  1  0  0  0  0
 26 27  1  0  0  0  0
 28 29  1  6  0  0  0
M  END
>  <CHROM.1>
-65.34682038,-173.13199678,-84.23026374,-63.11715283,122.11661011,77.17551663
-1.41912712,14.15541140,4.11031888,-2.84648530,-0.03181816,-2.88511442

>  <Name>
ligand

>  <RI>
0

>  <Rbt.Current_Directory>
/home/itssahil/PROJECTS/Mol_Feturizer/New_Systems/rnas/4GPX

>  <Rbt.Executable>
rbdock ($Id: //depot/dev/client3/rdock/2013.1/src/exe/rbdock.cxx#4 $)

>  <Rbt.Library>
libRbt.so (2013.1, Build901 2013/11/27)

>  <Rbt.Parameter_File>
/export/apps/rDock/src/rDock_2013.1_src/data/scripts/dock_solv.prm

>  <Rbt.Receptor>
prm/pocket_docking_8.prm

>  <SCORE>
-17.5787

>  <SCORE.INTER>
-12.6784

>  <SCORE.INTER.CONST>
1

>  <SCORE.INTER.POLAR>
0

>  <SCORE.INTER.ROT>
6

>  <SCORE.INTER.SOLV>
16.0056

>  <SCORE.INTER.VDW>
-21.3875

>  <SCORE.INTER.norm>
-0.408982

>  <SCORE.INTRA>
-4.90028

>  <SCORE.INTRA.DIHEDRAL>
-16.7855

>  <SCORE.INTRA.DIHEDRAL.0>
20.6841

>  <SCORE.INTRA.POLAR>
0

>  <SCORE.INTRA.POLAR.0>
0

>  <SCORE.INTRA.REPUL>
0

>  <SCORE.INTRA.REPUL.0>
0

>  <SCORE.INTRA.SOLV>
2.96782

>  <SCORE.INTRA.SOLV.lig_0>
-64.6797

>  <SCORE.INTRA.VDW>
2.00856

>  <SCORE.INTRA.VDW.0>
-4.11825

>  <SCORE.INTRA.norm>
-0.158074

>  <SCORE.RESTR>
0

>  <SCORE.RESTR.CAVITY>
0

>  <SCORE.RESTR.norm>
0

>  <SCORE.SYSTEM>
0

>  <SCORE.SYSTEM.CONST>
0

>  <SCORE.SYSTEM.DIHEDRAL>
0

>  <SCORE.SYSTEM.SOLV>
0

>  <SCORE.SYSTEM.norm>
0

>  <SCORE.heavy>
31

>  <SCORE.norm>
-0.567056

>  <RMSD>
6.216

$$$$
ligand
 OpenBabel11021811493D
libRbt.so/2013.1/901 2013/11/27
 31 33  0  0  0  0  0  0  0  0999 V2000
   -2.8632   14.9148    4.8055 C   0  0  2  0  0  0  0  0  0  0  0  0
   -3.1120   15.2325    6.1717 O   0  0  0  0  0  0  0  0  0  0  0  0
   -1.0510   14.7079    9.8542 C   0  0  2  0  0  0  0  0  0  0  0  0
   -0.0331   14.8182   10.8536 N   0  0  0  0  0  0  0  0  0  0  0  0
   -2.1766   18.1487   10.8967 C   0  0  2  0  0  0  0  0  0  0  0  0
   -2.4047   16.2592    4.1066 C   0  0  2  0  0  0  0  0  0  0  0  0
   -1.2069   16.7522    4.7785 N   0  0  0  0  0  0  0  0  0  0  0  0
   -0.4081   14.0677    8.5555 C   0  0  0  0  0  0  0  0  0  0  0  0
   -2.3844   18.3097   12.4360 C   0  0  2  0  0  0  0  0  0  0  0  0
   -1.3366   17.6352   13.0992 O   0  0  0  0  0  0  0  0  0  0  0  0
   -3.5620   17.3342    4.1688 C   0  0  0  0  0  0  0  0  0  0  0  0
   -1.5252   13.9471    7.4523 C   0  0  2  0  0  0  0  0  0  0  0  0
   -0.9319   13.3574    6.2399 N   0  0  0  0  0  0  0  0  0  0  0  0
   -3.7804   17.6691   12.7885 C   0  0  1  0  0  0  0  0  0  0  0  0
   -4.0287   17.7762   14.2643 N   0  0  0  0  0  0  0  0  0  0  0  0
   -4.9981   16.6862    3.9758 C   0  0  0  0  0  0  0  0  0  0  0  0
   -2.1216   15.3878    7.1291 C   0  0  2  0  0  0  0  0  0  0  0  0
   -4.9314   18.4986   11.9849 C   0  0  1  0  0  0  0  0  0  0  0  0
   -4.9298   19.8774   12.3140 O   0  0  0  0  0  0  0  0  0  0  0  0
   -5.1646   15.3371    3.9786 C   0  0  2  0  0  0  0  0  0  0  0  0
   -4.0717   14.4279    4.1525 O   0  0  0  0  0  0  0  0  0  0  0  0
   -2.7439   16.0037    8.4365 C   0  0  2  0  0  0  0  0  0  0  0  0
   -3.2729   17.3133    8.1368 O   0  0  0  0  0  0  0  0  0  0  0  0
   -4.6830   18.3961   10.4449 C   0  0  0  0  0  0  0  0  0  0  0  0
   -3.2826   18.8558   10.1360 O   0  0  0  0  0  0  0  0  0  0  0  0
   -6.5270   14.6660    3.7940 C   0  0  0  0  0  0  0  0  0  0  0  0
   -6.3367   13.4749    2.9944 O   0  0  0  0  0  0  0  0  0  0  0  0
   -1.6092   16.1372    9.5182 C   0  0  1  0  0  0  0  0  0  0  0  0
   -2.1683   16.7030   10.6619 O   0  0  0  0  0  0  0  0  0  0  0  0
   -6.3780   17.9999   12.2180 C   0  0  0  0  0  0  0  0  0  0  0  0
   -4.4835   16.5494   14.9501 C   0  0  0  0  0  0  0  0  0  0  0  0
  1  2  1  1  0  0  0
  1  6  1  0  0  0  0
  1 21  1  0  0  0  0
  3  4  1  1  0  0  0
  3  8  1  0  0  0  0
  3 28  1  0  0  0  0
  5  9  1  0  0  0  0
  5 25  1  0  0  0  0
  5 29  1  1  0  0  0
  6  7  1  1  0  0  0
  6 11  1  0  0  0  0
  8 12  1  0  0  0  0
  9 10  1  1  0  0  0
  9 14  1  0  0  0  0
 11 16  1  0  0  0  0
 12 13  1  6  0  0  0
 12 17  1  0  0  0  0
 14 15  1  1  0  0  0
 14 18  1  0  0  0  0
 15 31  1  0  0  0  0
 16 20  1  0  0  0  0
 17  2  1  6  0  0  0
 17 22  1  0  0  0  0
 18 19  1  1  0  0  0
 18 24  1  0  0  0  0
 18 30  1  0  0  0  0
 20 21  1  0  0  0  0
 20 26  1  6  0  0  0
 22 23  1  6  0  0  0
 22 28  1  0  0  0  0
 24 25  1  0  0  0  0
 26 27  1  0  0  0  0
 28 29  1  1  0  0  0
M  END
>  <CHROM.1>
-78.55651068,-159.71020724,-131.98263363,-71.86998132,142.25728963,149.54877995
-3.21046145,16.37625308,8.56791373,-1.61789380,-0.46786468,1.22731489

>  <Name>
ligand

>  <RI>
0

>  <Rbt.Current_Directory>
/home/itssahil/PROJECTS/Mol_Feturizer/New_Systems/rnas/4GPX

>  <Rbt.Executable>
rbdock ($Id: //depot/dev/client3/rdock/2013.1/src/exe/rbdock.cxx#4 $)

>  <Rbt.Library>
libRbt.so (2013.1, Build901 2013/11/27)

>  <Rbt.Parameter_File>
/export/apps/rDock/src/rDock_2013.1_src/data/scripts/dock_solv.prm

>  <Rbt.Receptor>
prm/pocket_docking_8.prm

>  <SCORE>
-9.32666

>  <SCORE.INTER>
-6.30479

>  <SCORE.INTER.CONST>
1

>  <SCORE.INTER.POLAR>
0

>  <SCORE.INTER.ROT>
6

>  <SCORE.INTER.SOLV>
6.91411

>  <SCORE.INTER.VDW>
-14.1079

>  <SCORE.INTER.norm>
-0.20338

>  <SCORE.INTRA>
-3.02187

>  <SCORE.INTRA.DIHEDRAL>
-9.55799

>  <SCORE.INTRA.DIHEDRAL.0>
20.6841

>  <SCORE.INTRA.POLAR>
0

>  <SCORE.INTRA.POLAR.0>
0

>  <SCORE.INTRA.REPUL>
0

>  <SCORE.INTRA.REPUL.0>
0

>  <SCORE.INTRA.SOLV>
0.94667

>  <SCORE.INTRA.SOLV.lig_0>
-64.6797

>  <SCORE.INTRA.VDW>
1.28379

>  <SCORE.INTRA.VDW.0>
-4.11825

>  <SCORE.INTRA.norm>
-0.0974798

>  <SCORE.RESTR>
0

>  <SCORE.RESTR.CAVITY>
0

>  <SCORE.RESTR.norm>
0

>  <SCORE.SYSTEM>
0

>  <SCORE.SYSTEM.CONST>
0

>  <SCORE.SYSTEM.DIHEDRAL>
0

>  <SCORE.SYSTEM.SOLV>
0

>  <SCORE.SYSTEM.norm>
0

>  <SCORE.heavy>
31

>  <SCORE.norm>
-0.30086

>  <RMSD>
6.243

$$$$
ligand
 OpenBabel11021811493D
libRbt.so/2013.1/901 2013/11/27
 31 33  0  0  0  0  0  0  0  0999 V2000
   -4.1064   13.7340    6.4448 C   0  0  2  0  0  0  0  0  0  0  0  0
   -3.4017   14.6934    7.2272 O   0  0  0  0  0  0  0  0  0  0  0  0
   -4.0184   16.4300   11.0597 C   0  0  2  0  0  0  0  0  0  0  0  0
   -4.5738   17.2527   12.0900 N   0  0  0  0  0  0  0  0  0  0  0  0
   -6.7968   14.9999   12.2999 C   0  0  2  0  0  0  0  0  0  0  0  0
   -3.0304   13.0235    5.5265 C   0  0  2  0  0  0  0  0  0  0  0  0
   -2.0250   12.3987    6.3796 N   0  0  0  0  0  0  0  0  0  0  0  0
   -3.4797   17.3716    9.9051 C   0  0  0  0  0  0  0  0  0  0  0  0
   -7.0125   13.7828   13.2542 C   0  0  2  0  0  0  0  0  0  0  0  0
   -5.8444   13.6119   14.0281 O   0  0  0  0  0  0  0  0  0  0  0  0
   -2.3610   14.0719    4.5509 C   0  0  0  0  0  0  0  0  0  0  0  0
   -2.8699   16.4692    8.7679 C   0  0  2  0  0  0  0  0  0  0  0  0
   -2.3721   17.3393    7.6886 N   0  0  0  0  0  0  0  0  0  0  0  0
   -7.2796   12.5208   12.3488 C   0  0  1  0  0  0  0  0  0  0  0  0
   -7.4758   11.3100   13.2127 N   0  0  0  0  0  0  0  0  0  0  0  0
   -3.3985   15.1498    4.0202 C   0  0  0  0  0  0  0  0  0  0  0  0
   -3.9853   15.4802    8.2081 C   0  0  2  0  0  0  0  0  0  0  0  0
   -8.6369   12.7973   11.4889 C   0  0  1  0  0  0  0  0  0  0  0  0
   -9.7581   13.0487   12.3191 O   0  0  0  0  0  0  0  0  0  0  0  0
   -4.6483   15.2386    4.5472 C   0  0  2  0  0  0  0  0  0  0  0  0
   -5.1026   14.3783    5.5984 O   0  0  0  0  0  0  0  0  0  0  0  0
   -4.5091   14.5648    9.3759 C   0  0  2  0  0  0  0  0  0  0  0  0
   -5.5266   13.6786    8.8619 O   0  0  0  0  0  0  0  0  0  0  0  0
   -8.4459   14.0583   10.5849 C   0  0  0  0  0  0  0  0  0  0  0  0
   -8.0272   15.2244   11.4410 O   0  0  0  0  0  0  0  0  0  0  0  0
   -5.6834   16.2581    4.0677 C   0  0  0  0  0  0  0  0  0  0  0  0
   -6.8029   15.5323    3.5071 O   0  0  0  0  0  0  0  0  0  0  0  0
   -5.1343   15.4818   10.4910 C   0  0  1  0  0  0  0  0  0  0  0  0
   -5.6130   14.6586   11.5078 O   0  0  0  0  0  0  0  0  0  0  0  0
   -9.0520   11.6492   10.5374 C   0  0  0  0  0  0  0  0  0  0  0  0
   -6.2759   10.4954   13.4936 C   0  0  0  0  0  0  0  0  0  0  0  0
  1  2  1  6  0  0  0
  1  6  1  0  0  0  0
  1 21  1  0  0  0  0
  3  4  1  1  0  0  0
  3  8  1  0  0  0  0
  3 28  1  0  0  0  0
  5  9  1  0  0  0  0
  5 25  1  0  0  0  0
  5 29  1  6  0  0  0
  6  7  1  1  0  0  0
  6 11  1  0  0  0  0
  8 12  1  0  0  0  0
  9 10  1  6  0  0  0
  9 14  1  0  0  0  0
 11 16  1  0  0  0  0
 12 13  1  6  0  0  0
 12 17  1  0  0  0  0
 14 15  1  1  0  0  0
 14 18  1  0  0  0  0
 15 31  1  0  0  0  0
 16 20  1  0  0  0  0
 17  2  1  6  0  0  0
 17 22  1  0  0  0  0
 18 19  1  1  0  0  0
 18 24  1  0  0  0  0
 18 30  1  0  0  0  0
 20 21  1  0  0  0  0
 20 26  1  6  0  0  0
 22 23  1  6  0  0  0
 22 28  1  0  0  0  0
 24 25  1  0  0  0  0
 26 27  1  0  0  0  0
 28 29  1  1  0  0  0
M  END
>  <CHROM.1>
-176.70222617,177.06206479,-92.95517479,-176.56497436,116.77912852,94.16780277
-5.43557051,14.39245695,9.19203874,0.96462392,-0.71074510,-1.74373627

>  <Name>
ligand

>  <RI>
0

>  <Rbt.Current_Directory>
/home/itssahil/PROJECTS/Mol_Feturizer/New_Systems/rnas/4GPX

>  <Rbt.Executable>
rbdock ($Id: //depot/dev/client3/rdock/2013.1/src/exe/rbdock.cxx#4 $)

>  <Rbt.Library>
libRbt.so (2013.1, Build901 2013/11/27)

>  <Rbt.Parameter_File>
/export/apps/rDock/src/rDock_2013.1_src/data/scripts/dock_solv.prm

>  <Rbt.Receptor>
prm/pocket_docking_7.prm

>  <SCORE>
-13.9428

>  <SCORE.INTER>
-6.33196

>  <SCORE.INTER.CONST>
1

>  <SCORE.INTER.POLAR>
0

>  <SCORE.INTER.ROT>
6

>  <SCORE.INTER.SOLV>
6.9056

>  <SCORE.INTER.VDW>
-14.1232

>  <SCORE.INTER.norm>
-0.204257

>  <SCORE.INTRA>
-7.61083

>  <SCORE.INTRA.DIHEDRAL>
-13.7567

>  <SCORE.INTRA.DIHEDRAL.0>
20.6841

>  <SCORE.INTRA.POLAR>
0

>  <SCORE.INTRA.POLAR.0>
0

>  <SCORE.INTRA.REPUL>
0

>  <SCORE.INTRA.REPUL.0>
0

>  <SCORE.INTRA.SOLV>
-2.32156

>  <SCORE.INTRA.SOLV.lig_0>
-64.6797

>  <SCORE.INTRA.VDW>
0.428307

>  <SCORE.INTRA.VDW.0>
-4.11825

>  <SCORE.INTRA.norm>
-0.245511

>  <SCORE.RESTR>
0

>  <SCORE.RESTR.CAVITY>
0

>  <SCORE.RESTR.norm>
0

>  <SCORE.SYSTEM>
0

>  <SCORE.SYSTEM.CONST>
0

>  <SCORE.SYSTEM.DIHEDRAL>
0

>  <SCORE.SYSTEM.SOLV>
0

>  <SCORE.SYSTEM.norm>
0

>  <SCORE.heavy>
31

>  <SCORE.norm>
-0.449768

>  <RMSD>
6.347

$$$$
ligand
 OpenBabel11021811493D
libRbt.so/2013.1/901 2013/11/27
 31 33  0  0  0  0  0  0  0  0999 V2000
   -5.8497   10.9255   13.5337 C   0  0  2  0  0  0  0  0  0  0  0  0
   -6.1835   11.1783   12.1721 O   0  0  0  0  0  0  0  0  0  0  0  0
   -4.0471   12.6567    8.8055 C   0  0  2  0  0  0  0  0  0  0  0  0
   -3.3852   13.5737    7.9292 N   0  0  0  0  0  0  0  0  0  0  0  0
   -0.9501   13.1202    9.5297 C   0  0  2  0  0  0  0  0  0  0  0  0
   -7.0764   10.1458   14.1609 C   0  0  2  0  0  0  0  0  0  0  0  0
   -7.2799    8.9106   13.4112 N   0  0  0  0  0  0  0  0  0  0  0  0
   -5.5441   13.1394    8.9948 C   0  0  0  0  0  0  0  0  0  0  0  0
    0.2851   12.1987    9.2771 C   0  0  2  0  0  0  0  0  0  0  0  0
   -0.0887   11.1964    8.3560 O   0  0  0  0  0  0  0  0  0  0  0  0
   -8.3772   11.0432   14.1217 C   0  0  0  0  0  0  0  0  0  0  0  0
   -6.2751   12.1337    9.9611 C   0  0  2  0  0  0  0  0  0  0  0  0
   -7.6665   12.5805   10.1453 N   0  0  0  0  0  0  0  0  0  0  0  0
    0.6891   11.5686   10.6640 C   0  0  1  0  0  0  0  0  0  0  0  0
    1.8639   10.6533   10.4814 N   0  0  0  0  0  0  0  0  0  0  0  0
   -8.0639   12.5722   14.4112 C   0  0  0  0  0  0  0  0  0  0  0  0
   -5.5208   12.0879   11.3627 C   0  0  2  0  0  0  0  0  0  0  0  0
    1.1024   12.7853   11.6675 C   0  0  1  0  0  0  0  0  0  0  0  0
    2.1696   13.5656   11.1563 O   0  0  0  0  0  0  0  0  0  0  0  0
   -6.7843   13.0279   14.4637 C   0  0  2  0  0  0  0  0  0  0  0  0
   -5.6541   12.1708   14.2650 O   0  0  0  0  0  0  0  0  0  0  0  0
   -4.0357   11.6157   11.1446 C   0  0  2  0  0  0  0  0  0  0  0  0
   -3.3569   11.5868   12.4185 O   0  0  0  0  0  0  0  0  0  0  0  0
   -0.1136   13.7477   11.8650 C   0  0  0  0  0  0  0  0  0  0  0  0
   -0.6000   14.2160   10.5189 O   0  0  0  0  0  0  0  0  0  0  0  0
   -6.4322   14.4905   14.7419 C   0  0  0  0  0  0  0  0  0  0  0  0
   -5.7937   15.0315   13.5613 O   0  0  0  0  0  0  0  0  0  0  0  0
   -3.3160   12.6439   10.1958 C   0  0  1  0  0  0  0  0  0  0  0  0
   -1.9976   12.2262   10.0284 O   0  0  0  0  0  0  0  0  0  0  0  0
    1.5314   12.3430   13.0874 C   0  0  0  0  0  0  0  0  0  0  0  0
    1.5645    9.2635   10.0802 C   0  0  0  0  0  0  0  0  0  0  0  0
  1  2  1  6  0  0  0
  1  6  1  0  0  0  0
  1 21  1  0  0  0  0
  3  4  1  6  0  0  0
  3  8  1  0  0  0  0
  3 28  1  0  0  0  0
  5  9  1  0  0  0  0
  5 25  1  0  0  0  0
  5 29  1  1  0  0  0
  6  7  1  6  0  0  0
  6 11  1  0  0  0  0
  8 12  1  0  0  0  0
  9 10  1  6  0  0  0
  9 14  1  0  0  0  0
 11 16  1  0  0  0  0
 12 13  1  1  0  0  0
 12 17  1  0  0  0  0
 14 15  1  6  0  0  0
 14 18  1  0  0  0  0
 15 31  1  0  0  0  0
 16 20  1  0  0  0  0
 17  2  1  1  0  0  0
 17 22  1  0  0  0  0
 18 19  1  6  0  0  0
 18 24  1  0  0  0  0
 18 30  1  0  0  0  0
 20 21  1  0  0  0  0
 20 26  1  1  0  0  0
 22 23  1  1  0  0  0
 22 28  1  0  0  0  0
 24 25  1  0  0  0  0
 26 27  1  0  0  0  0
 28 29  1  6  0  0  0
M  END
>  <CHROM.1>
164.79464425,-170.91842497,-85.49080111,-175.98665510,-115.24391032,78.88460034
-3.35286308,12.21819982,11.51012572,-2.78114690,0.00533127,-1.50689578

>  <Name>
ligand

>  <RI>
0

>  <Rbt.Current_Directory>
/home/itssahil/PROJECTS/Mol_Feturizer/New_Systems/rnas/4GPX

>  <Rbt.Executable>
rbdock ($Id: //depot/dev/client3/rdock/2013.1/src/exe/rbdock.cxx#4 $)

>  <Rbt.Library>
libRbt.so (2013.1, Build901 2013/11/27)

>  <Rbt.Parameter_File>
/export/apps/rDock/src/rDock_2013.1_src/data/scripts/dock_solv.prm

>  <Rbt.Receptor>
prm/pocket_docking_6.prm

>  <SCORE>
-10.5372

>  <SCORE.INTER>
-2.67551

>  <SCORE.INTER.CONST>
1

>  <SCORE.INTER.POLAR>
0

>  <SCORE.INTER.ROT>
6

>  <SCORE.INTER.SOLV>
12.634

>  <SCORE.INTER.VDW>
-13.595

>  <SCORE.INTER.norm>
-0.0863067

>  <SCORE.INTRA>
-7.86169

>  <SCORE.INTRA.DIHEDRAL>
-15.3229

>  <SCORE.INTRA.DIHEDRAL.0>
20.6841

>  <SCORE.INTRA.POLAR>
0

>  <SCORE.INTRA.POLAR.0>
0

>  <SCORE.INTRA.REPUL>
0

>  <SCORE.INTRA.REPUL.0>
0

>  <SCORE.INTRA.SOLV>
-1.57788

>  <SCORE.INTRA.SOLV.lig_0>
-64.6797

>  <SCORE.INTRA.VDW>
0.588673

>  <SCORE.INTRA.VDW.0>
-4.11825

>  <SCORE.INTRA.norm>
-0.253603

>  <SCORE.RESTR>
0

>  <SCORE.RESTR.CAVITY>
0

>  <SCORE.RESTR.norm>
0

>  <SCORE.SYSTEM>
0

>  <SCORE.SYSTEM.CONST>
0

>  <SCORE.SYSTEM.DIHEDRAL>
0

>  <SCORE.SYSTEM.SOLV>
0

>  <SCORE.SYSTEM.norm>
0

>  <SCORE.heavy>
31

>  <SCORE.norm>
-0.33991

>  <RMSD>
6.643

$$$$
ligand
 OpenBabel11021811493D
libRbt.so/2013.1/901 2013/11/27
 31 33  0  0  0  0  0  0  0  0999 V2000
    0.0787   13.3321    5.5084 C   0  0  2  0  0  0  0  0  0  0  0  0
    1.4615   13.1691    5.8097 O   0  0  0  0  0  0  0  0  0  0  0  0
    3.9237   13.7917    9.2206 C   0  0  2  0  0  0  0  0  0  0  0  0
    4.6512   14.4707   10.2485 N   0  0  0  0  0  0  0  0  0  0  0  0
    2.3146   14.3781   11.8274 C   0  0  2  0  0  0  0  0  0  0  0  0
   -0.3142   12.1437    4.5393 C   0  0  2  0  0  0  0  0  0  0  0  0
   -0.0493   10.8788    5.2169 N   0  0  0  0  0  0  0  0  0  0  0  0
    4.4802   14.2694    7.8163 C   0  0  0  0  0  0  0  0  0  0  0  0
    1.5456   13.6039   12.9444 C   0  0  2  0  0  0  0  0  0  0  0  0
    1.9007   12.2400   12.8655 O   0  0  0  0  0  0  0  0  0  0  0  0
    0.5071   12.2378    3.1919 C   0  0  0  0  0  0  0  0  0  0  0  0
    3.6799   13.5259    6.6823 C   0  0  2  0  0  0  0  0  0  0  0  0
    4.1894   13.9704    5.3737 N   0  0  0  0  0  0  0  0  0  0  0  0
    0.0056   13.8028   12.6750 C   0  0  1  0  0  0  0  0  0  0  0  0
   -0.7894   13.0620   13.7096 N   0  0  0  0  0  0  0  0  0  0  0  0
    0.7074   13.7372    2.7111 C   0  0  0  0  0  0  0  0  0  0  0  0
    2.1279   13.8582    6.8111 C   0  0  2  0  0  0  0  0  0  0  0  0
   -0.3215   15.3966   12.7807 C   0  0  1  0  0  0  0  0  0  0  0  0
    0.0265   15.9347   14.0452 O   0  0  0  0  0  0  0  0  0  0  0  0
    0.3777   14.7815    3.5164 C   0  0  2  0  0  0  0  0  0  0  0  0
   -0.1638   14.5988    4.8298 O   0  0  0  0  0  0  0  0  0  0  0  0
    1.6042   13.3828    8.2168 C   0  0  2  0  0  0  0  0  0  0  0  0
    0.1994   13.6969    8.3288 O   0  0  0  0  0  0  0  0  0  0  0  0
    0.5024   16.1806   11.7082 C   0  0  0  0  0  0  0  0  0  0  0  0
    1.9637   15.8537   11.8678 O   0  0  0  0  0  0  0  0  0  0  0  0
    0.5497   16.2428    3.0972 C   0  0  0  0  0  0  0  0  0  0  0  0
    1.5218   16.8521    3.9793 O   0  0  0  0  0  0  0  0  0  0  0  0
    2.3991   14.1523    9.3354 C   0  0  1  0  0  0  0  0  0  0  0  0
    1.9114   13.7385   10.5730 O   0  0  0  0  0  0  0  0  0  0  0  0
   -1.8029   15.7760   12.5420 C   0  0  0  0  0  0  0  0  0  0  0  0
   -1.1105   11.6510   13.4128 C   0  0  0  0  0  0  0  0  0  0  0  0
  1  2  1  6  0  0  0
  1  6  1  0  0  0  0
  1 21  1  0  0  0  0
  3  4  1  1  0  0  0
  3  8  1  0  0  0  0
  3 28  1  0  0  0  0
  5  9  1  0  0  0  0
  5 25  1  0  0  0  0
  5 29  1  6  0  0  0
  6  7  1  1  0  0  0
  6 11  1  0  0  0  0
  8 12  1  0  0  0  0
  9 10  1  6  0  0  0
  9 14  1  0  0  0  0
 11 16  1  0  0  0  0
 12 13  1  6  0  0  0
 12 17  1  0  0  0  0
 14 15  1  1  0  0  0
 14 18  1  0  0  0  0
 15 31  1  0  0  0  0
 16 20  1  0  0  0  0
 17  2  1  6  0  0  0
 17 22  1  0  0  0  0
 18 19  1  1  0  0  0
 18 24  1  0  0  0  0
 18 30  1  0  0  0  0
 20 21  1  0  0  0  0
 20 26  1  6  0  0  0
 22 23  1  6  0  0  0
 22 28  1  0  0  0  0
 24 25  1  0  0  0  0
 26 27  1  0  0  0  0
 28 29  1  1  0  0  0
M  END
>  <CHROM.1>
-167.79133675,-179.68917698,-88.29179856,-172.60054994,-116.24214344,69.07051368
1.20875046,14.04088420,8.58543616,1.50987897,-0.20137281,-1.61627365

>  <Name>
ligand

>  <RI>
0

>  <Rbt.Current_Directory>
/home/itssahil/PROJECTS/Mol_Feturizer/New_Systems/rnas/4GPX

>  <Rbt.Executable>
rbdock ($Id: //depot/dev/client3/rdock/2013.1/src/exe/rbdock.cxx#4 $)

>  <Rbt.Library>
libRbt.so (2013.1, Build901 2013/11/27)

>  <Rbt.Parameter_File>
/export/apps/rDock/src/rDock_2013.1_src/data/scripts/dock_solv.prm

>  <Rbt.Receptor>
prm/pocket_docking_6.prm

>  <SCORE>
-10.9778

>  <SCORE.INTER>
-2.65218

>  <SCORE.INTER.CONST>
1

>  <SCORE.INTER.POLAR>
0

>  <SCORE.INTER.ROT>
6

>  <SCORE.INTER.SOLV>
7.72525

>  <SCORE.INTER.VDW>
-11.9432

>  <SCORE.INTER.norm>
-0.0855541

>  <SCORE.INTRA>
-8.32564

>  <SCORE.INTRA.DIHEDRAL>
-17.05

>  <SCORE.INTRA.DIHEDRAL.0>
20.6841

>  <SCORE.INTRA.POLAR>
0

>  <SCORE.INTRA.POLAR.0>
0

>  <SCORE.INTRA.REPUL>
0

>  <SCORE.INTRA.REPUL.0>
0

>  <SCORE.INTRA.SOLV>
-1.38695

>  <SCORE.INTRA.SOLV.lig_0>
-64.6797

>  <SCORE.INTRA.VDW>
0.892859

>  <SCORE.INTRA.VDW.0>
-4.11825

>  <SCORE.INTRA.norm>
-0.268569

>  <SCORE.RESTR>
0

>  <SCORE.RESTR.CAVITY>
0

>  <SCORE.RESTR.norm>
0

>  <SCORE.SYSTEM>
0

>  <SCORE.SYSTEM.CONST>
0

>  <SCORE.SYSTEM.DIHEDRAL>
0

>  <SCORE.SYSTEM.SOLV>
0

>  <SCORE.SYSTEM.norm>
0

>  <SCORE.heavy>
31

>  <SCORE.norm>
-0.354123

>  <RMSD>
6.645

$$$$
ligand
 OpenBabel11021811493D
libRbt.so/2013.1/901 2013/11/27
 31 33  0  0  0  0  0  0  0  0999 V2000
    2.0733   10.8955    7.6794 C   0  0  2  0  0  0  0  0  0  0  0  0
    1.2569   11.7333    6.8664 O   0  0  0  0  0  0  0  0  0  0  0  0
   -2.4692   13.7376    7.2939 C   0  0  2  0  0  0  0  0  0  0  0  0
   -3.8780   13.9419    7.4367 N   0  0  0  0  0  0  0  0  0  0  0  0
   -3.5122   13.7811   10.2483 C   0  0  2  0  0  0  0  0  0  0  0  0
    3.5702   11.1586    7.2366 C   0  0  2  0  0  0  0  0  0  0  0  0
    3.8754   12.5721    7.4315 N   0  0  0  0  0  0  0  0  0  0  0  0
   -2.2142   12.9411    5.9484 C   0  0  0  0  0  0  0  0  0  0  0  0
   -3.3137   14.6715   11.5158 C   0  0  2  0  0  0  0  0  0  0  0  0
   -2.6961   15.8775   11.1200 O   0  0  0  0  0  0  0  0  0  0  0  0
    3.7775   10.7462    5.7246 C   0  0  0  0  0  0  0  0  0  0  0  0
   -0.6644   12.7120    5.7892 C   0  0  2  0  0  0  0  0  0  0  0  0
   -0.4215   11.9667    4.5422 N   0  0  0  0  0  0  0  0  0  0  0  0
   -2.3951   13.8673   12.5123 C   0  0  1  0  0  0  0  0  0  0  0  0
   -2.1512   14.6837   13.7473 N   0  0  0  0  0  0  0  0  0  0  0  0
    2.9608    9.4412    5.3381 C   0  0  0  0  0  0  0  0  0  0  0  0
   -0.1094   11.8936    7.0373 C   0  0  2  0  0  0  0  0  0  0  0  0
   -3.1746   12.4937   12.9173 C   0  0  1  0  0  0  0  0  0  0  0  0
   -4.4363   12.7462   13.5120 O   0  0  0  0  0  0  0  0  0  0  0  0
    2.0413    8.9122    6.1880 C   0  0  2  0  0  0  0  0  0  0  0  0
    1.7552    9.4892    7.4674 O   0  0  0  0  0  0  0  0  0  0  0  0
   -0.3843   12.7018    8.3592 C   0  0  2  0  0  0  0  0  0  0  0  0
    0.1129   11.9483    9.4860 O   0  0  0  0  0  0  0  0  0  0  0  0
   -3.4363   11.6340   11.6381 C   0  0  0  0  0  0  0  0  0  0  0  0
   -4.1721   12.4670   10.6219 O   0  0  0  0  0  0  0  0  0  0  0  0
    1.2318    7.6557    5.8617 C   0  0  0  0  0  0  0  0  0  0  0  0
    1.4909    6.6737    6.8926 O   0  0  0  0  0  0  0  0  0  0  0  0
   -1.9374   12.9010    8.5124 C   0  0  1  0  0  0  0  0  0  0  0  0
   -2.1680   13.5983    9.6962 O   0  0  0  0  0  0  0  0  0  0  0  0
   -2.4095   11.5745   13.8999 C   0  0  0  0  0  0  0  0  0  0  0  0
   -0.8036   14.5932   14.3455 C   0  0  0  0  0  0  0  0  0  0  0  0
  1  2  1  6  0  0  0
  1  6  1  0  0  0  0
  1 21  1  0  0  0  0
  3  4  1  1  0  0  0
  3  8  1  0  0  0  0
  3 28  1  0  0  0  0
  5  9  1  0  0  0  0
  5 25  1  0  0  0  0
  5 29  1  1  0  0  0
  6  7  1  6  0  0  0
  6 11  1  0  0  0  0
  8 12  1  0  0  0  0
  9 10  1  6  0  0  0
  9 14  1  0  0  0  0
 11 16  1  0  0  0  0
 12 13  1  6  0  0  0
 12 17  1  0  0  0  0
 14 15  1  1  0  0  0
 14 18  1  0  0  0  0
 15 31  1  0  0  0  0
 16 20  1  0  0  0  0
 17  2  1  6  0  0  0
 17 22  1  0  0  0  0
 18 19  1  1  0  0  0
 18 24  1  0  0  0  0
 18 30  1  0  0  0  0
 20 21  1  0  0  0  0
 20 26  1  1  0  0  0
 22 23  1  1  0  0  0
 22 28  1  0  0  0  0
 24 25  1  0  0  0  0
 26 27  1  0  0  0  0
 28 29  1  1  0  0  0
M  END
>  <CHROM.1>
-173.28965353,-177.01514613,-142.52418405,-170.84431726,121.72354746,70.56895875
-0.73756659,12.11187667,8.96919148,-0.70522782,-0.70370954,1.67442824

>  <Name>
ligand

>  <RI>
0

>  <Rbt.Current_Directory>
/home/itssahil/PROJECTS/Mol_Feturizer/New_Systems/rnas/4GPX

>  <Rbt.Executable>
rbdock ($Id: //depot/dev/client3/rdock/2013.1/src/exe/rbdock.cxx#4 $)

>  <Rbt.Library>
libRbt.so (2013.1, Build901 2013/11/27)

>  <Rbt.Parameter_File>
/export/apps/rDock/src/rDock_2013.1_src/data/scripts/dock_solv.prm

>  <Rbt.Receptor>
prm/pocket_docking_5.prm

>  <SCORE>
-7.21589

>  <SCORE.INTER>
1.26816

>  <SCORE.INTER.CONST>
1

>  <SCORE.INTER.POLAR>
0

>  <SCORE.INTER.ROT>
6

>  <SCORE.INTER.SOLV>
3.78083

>  <SCORE.INTER.VDW>
-8.01484

>  <SCORE.INTER.norm>
0.0409084

>  <SCORE.INTRA>
-8.48405

>  <SCORE.INTRA.DIHEDRAL>
-16.952

>  <SCORE.INTRA.DIHEDRAL.0>
20.6841

>  <SCORE.INTRA.POLAR>
0

>  <SCORE.INTRA.POLAR.0>
0

>  <SCORE.INTRA.REPUL>
0

>  <SCORE.INTRA.REPUL.0>
0

>  <SCORE.INTRA.SOLV>
-1.77329

>  <SCORE.INTRA.SOLV.lig_0>
-64.6797

>  <SCORE.INTRA.VDW>
0.878569

>  <SCORE.INTRA.VDW.0>
-4.11825

>  <SCORE.INTRA.norm>
-0.273679

>  <SCORE.RESTR>
0

>  <SCORE.RESTR.CAVITY>
0

>  <SCORE.RESTR.norm>
0

>  <SCORE.SYSTEM>
0

>  <SCORE.SYSTEM.CONST>
0

>  <SCORE.SYSTEM.DIHEDRAL>
0

>  <SCORE.SYSTEM.SOLV>
0

>  <SCORE.SYSTEM.norm>
0

>  <SCORE.heavy>
31

>  <SCORE.norm>
-0.232771

>  <RMSD>
6.711

$$$$
ligand
 OpenBabel11021811493D
libRbt.so/2013.1/901 2013/11/27
 31 33  0  0  0  0  0  0  0  0999 V2000
   -1.3515   16.7107    7.9939 C   0  0  2  0  0  0  0  0  0  0  0  0
   -1.9791   15.7964    7.0999 O   0  0  0  0  0  0  0  0  0  0  0  0
   -0.5392   12.9524    4.2852 C   0  0  2  0  0  0  0  0  0  0  0  0
    0.0313   12.4143    3.0886 N   0  0  0  0  0  0  0  0  0  0  0  0
    2.8945   13.8032    5.7312 C   0  0  2  0  0  0  0  0  0  0  0  0
   -2.4527   17.1381    9.0478 C   0  0  2  0  0  0  0  0  0  0  0  0
   -2.9313   15.9440    9.7364 N   0  0  0  0  0  0  0  0  0  0  0  0
   -1.8278   13.7863    3.8926 C   0  0  0  0  0  0  0  0  0  0  0  0
    3.5587   14.2816    4.4013 C   0  0  2  0  0  0  0  0  0  0  0  0
    2.6635   15.1543    3.7458 O   0  0  0  0  0  0  0  0  0  0  0  0
   -3.6461   17.8820    8.3257 C   0  0  0  0  0  0  0  0  0  0  0  0
   -2.4570   14.3824    5.2073 C   0  0  2  0  0  0  0  0  0  0  0  0
   -3.6529   15.1636    4.8479 N   0  0  0  0  0  0  0  0  0  0  0  0
    3.8360   12.9982    3.5296 C   0  0  1  0  0  0  0  0  0  0  0  0
    4.4589   13.3974    2.2244 N   0  0  0  0  0  0  0  0  0  0  0  0
   -3.1471   18.8174    7.1443 C   0  0  0  0  0  0  0  0  0  0  0  0
   -1.3922   15.3112    5.9415 C   0  0  2  0  0  0  0  0  0  0  0  0
    4.8709   12.0451    4.3535 C   0  0  1  0  0  0  0  0  0  0  0  0
    6.0893   12.7053    4.6520 O   0  0  0  0  0  0  0  0  0  0  0  0
   -1.8589   18.7745    6.7126 C   0  0  2  0  0  0  0  0  0  0  0  0
   -0.8841   17.8967    7.2876 O   0  0  0  0  0  0  0  0  0  0  0  0
   -0.1204   14.4613    6.3108 C   0  0  2  0  0  0  0  0  0  0  0  0
    0.8433   15.3132    6.9667 O   0  0  0  0  0  0  0  0  0  0  0  0
    4.2339   11.6231    5.7174 C   0  0  0  0  0  0  0  0  0  0  0  0
    3.8186   12.8569    6.4744 O   0  0  0  0  0  0  0  0  0  0  0  0
   -1.3305   19.6573    5.5803 C   0  0  0  0  0  0  0  0  0  0  0  0
   -0.1948   20.4006    6.0824 O   0  0  0  0  0  0  0  0  0  0  0  0
    0.5066   13.8934    4.9842 C   0  0  1  0  0  0  0  0  0  0  0  0
    1.6426   13.1617    5.3232 O   0  0  0  0  0  0  0  0  0  0  0  0
    5.2566   10.7283    3.6372 C   0  0  0  0  0  0  0  0  0  0  0  0
    3.5738   13.4005    1.0417 C   0  0  0  0  0  0  0  0  0  0  0  0
  1  2  1  6  0  0  0
  1  6  1  0  0  0  0
  1 21  1  0  0  0  0
  3  4  1  6  0  0  0
  3  8  1  0  0  0  0
  3 28  1  0  0  0  0
  5  9  1  0  0  0  0
  5 25  1  0  0  0  0
  5 29  1  6  0  0  0
  6  7  1  6  0  0  0
  6 11  1  0  0  0  0
  8 12  1  0  0  0  0
  9 10  1  6  0  0  0
  9 14  1  0  0  0  0
 11 16  1  0  0  0  0
 12 13  1  6  0  0  0
 12 17  1  0  0  0  0
 14 15  1  6  0  0  0
 14 18  1  0  0  0  0
 15 31  1  0  0  0  0
 16 20  1  0  0  0  0
 17  2  1  1  0  0  0
 17 22  1  0  0  0  0
 18 19  1  1  0  0  0
 18 24  1  0  0  0  0
 18 30  1  0  0  0  0
 20 21  1  0  0  0  0
 20 26  1  1  0  0  0
 22 23  1  6  0  0  0
 22 28  1  0  0  0  0
 24 25  1  0  0  0  0
 26 27  1  0  0  0  0
 28 29  1  1  0  0  0
M  END
>  <CHROM.1>
172.17614143,-78.65159227,-102.65195002,-177.20193767,124.20602911,167.01164799
0.64135495,14.94707058,5.52649643,-2.39939084,-0.14098598,-2.70194742

>  <Name>
ligand

>  <RI>
0

>  <Rbt.Current_Directory>
/home/itssahil/PROJECTS/Mol_Feturizer/New_Systems/rnas/4GPX

>  <Rbt.Executable>
rbdock ($Id: //depot/dev/client3/rdock/2013.1/src/exe/rbdock.cxx#4 $)

>  <Rbt.Library>
libRbt.so (2013.1, Build901 2013/11/27)

>  <Rbt.Parameter_File>
/export/apps/rDock/src/rDock_2013.1_src/data/scripts/dock_solv.prm

>  <Rbt.Receptor>
prm/pocket_docking_8.prm

>  <SCORE>
-8.19716

>  <SCORE.INTER>
-0.872007

>  <SCORE.INTER.CONST>
1

>  <SCORE.INTER.POLAR>
0

>  <SCORE.INTER.ROT>
6

>  <SCORE.INTER.SOLV>
6.88385

>  <SCORE.INTER.VDW>
-10.476

>  <SCORE.INTER.norm>
-0.0281293

>  <SCORE.INTRA>
-7.32515

>  <SCORE.INTRA.DIHEDRAL>
-15.2785

>  <SCORE.INTRA.DIHEDRAL.0>
20.6841

>  <SCORE.INTRA.POLAR>
0

>  <SCORE.INTRA.POLAR.0>
0

>  <SCORE.INTRA.REPUL>
0

>  <SCORE.INTRA.REPUL.0>
0

>  <SCORE.INTRA.SOLV>
-1.52006

>  <SCORE.INTRA.SOLV.lig_0>
-64.6797

>  <SCORE.INTRA.VDW>
1.0741

>  <SCORE.INTRA.VDW.0>
-4.11825

>  <SCORE.INTRA.norm>
-0.236295

>  <SCORE.RESTR>
0

>  <SCORE.RESTR.CAVITY>
0

>  <SCORE.RESTR.norm>
0

>  <SCORE.SYSTEM>
0

>  <SCORE.SYSTEM.CONST>
0

>  <SCORE.SYSTEM.DIHEDRAL>
0

>  <SCORE.SYSTEM.SOLV>
0

>  <SCORE.SYSTEM.norm>
0

>  <SCORE.heavy>
31

>  <SCORE.norm>
-0.264425

>  <RMSD>
6.814

$$$$
ligand
 OpenBabel11021811493D
libRbt.so/2013.1/901 2013/11/27
 31 33  0  0  0  0  0  0  0  0999 V2000
   -3.4999   14.3810    5.0582 C   0  0  2  0  0  0  0  0  0  0  0  0
   -2.5944   14.3763    3.9585 O   0  0  0  0  0  0  0  0  0  0  0  0
    1.1264   12.7414    2.7067 C   0  0  2  0  0  0  0  0  0  0  0  0
    2.4989   12.3392    2.7422 N   0  0  0  0  0  0  0  0  0  0  0  0
   -0.1250    9.6473    4.5867 C   0  0  2  0  0  0  0  0  0  0  0  0
   -4.9577   14.3576    4.4415 C   0  0  2  0  0  0  0  0  0  0  0  0
   -5.1012   13.1586    3.6223 N   0  0  0  0  0  0  0  0  0  0  0  0
    1.0577   14.3046    2.9550 C   0  0  0  0  0  0  0  0  0  0  0  0
    0.7914    8.3912    4.4412 C   0  0  2  0  0  0  0  0  0  0  0  0
    2.1237    8.7805    4.6987 O   0  0  0  0  0  0  0  0  0  0  0  0
   -5.2108   15.6572    3.5779 C   0  0  0  0  0  0  0  0  0  0  0  0
   -0.4521   14.7505    2.9191 C   0  0  2  0  0  0  0  0  0  0  0  0
   -0.5227   16.2027    3.1549 N   0  0  0  0  0  0  0  0  0  0  0  0
    0.6323    7.8656    2.9640 C   0  0  1  0  0  0  0  0  0  0  0  0
    1.5083    6.6653    2.7565 N   0  0  0  0  0  0  0  0  0  0  0  0
   -4.5469   16.9476    4.2212 C   0  0  0  0  0  0  0  0  0  0  0  0
   -1.2715   13.9699    4.0393 C   0  0  2  0  0  0  0  0  0  0  0  0
   -0.9268    7.4412    2.7467 C   0  0  1  0  0  0  0  0  0  0  0  0
   -1.3475    6.4480    3.6665 O   0  0  0  0  0  0  0  0  0  0  0  0
   -3.6926   16.8457    5.2736 C   0  0  2  0  0  0  0  0  0  0  0  0
   -3.3428   15.5871    5.8610 O   0  0  0  0  0  0  0  0  0  0  0  0
   -1.1784   12.4215    3.7746 C   0  0  2  0  0  0  0  0  0  0  0  0
   -1.9154   11.7215    4.8000 O   0  0  0  0  0  0  0  0  0  0  0  0
   -1.8509    8.6837    2.9618 C   0  0  0  0  0  0  0  0  0  0  0  0
   -1.5723    9.2814    4.3158 O   0  0  0  0  0  0  0  0  0  0  0  0
   -3.0304   18.0592    5.9288 C   0  0  0  0  0  0  0  0  0  0  0  0
   -1.6084   17.9904    5.6687 O   0  0  0  0  0  0  0  0  0  0  0  0
    0.3337   11.9914    3.8366 C   0  0  1  0  0  0  0  0  0  0  0  0
    0.4000   10.6165    3.6222 O   0  0  0  0  0  0  0  0  0  0  0  0
   -1.2648    6.8970    1.3377 C   0  0  0  0  0  0  0  0  0  0  0  0
    2.8073    6.9001    2.0935 C   0  0  0  0  0  0  0  0  0  0  0  0
  1  2  1  6  0  0  0
  1  6  1  0  0  0  0
  1 21  1  0  0  0  0
  3  4  1  1  0  0  0
  3  8  1  0  0  0  0
  3 28  1  0  0  0  0
  5  9  1  0  0  0  0
  5 25  1  0  0  0  0
  5 29  1  6  0  0  0
  6  7  1  6  0  0  0
  6 11  1  0  0  0  0
  8 12  1  0  0  0  0
  9 10  1  6  0  0  0
  9 14  1  0  0  0  0
 11 16  1  0  0  0  0
 12 13  1  1  0  0  0
 12 17  1  0  0  0  0
 14 15  1  1  0  0  0
 14 18  1  0  0  0  0
 15 31  1  0  0  0  0
 16 20  1  0  0  0  0
 17  2  1  6  0  0  0
 17 22  1  0  0  0  0
 18 19  1  1  0  0  0
 18 24  1  0  0  0  0
 18 30  1  0  0  0  0
 20 21  1  0  0  0  0
 20 26  1  1  0  0  0
 22 23  1  1  0  0  0
 22 28  1  0  0  0  0
 24 25  1  0  0  0  0
 26 27  1  0  0  0  0
 28 29  1  6  0  0  0
M  END
>  <CHROM.1>
-158.42966045,-148.65072681,-98.72042775,-152.20698231,-113.09804210,173.44348239
-1.18067328,12.08900881,3.84778927,1.98090744,0.12000664,0.13585947

>  <Name>
ligand

>  <RI>
0

>  <Rbt.Current_Directory>
/home/itssahil/PROJECTS/Mol_Feturizer/New_Systems/rnas/4GPX

>  <Rbt.Executable>
rbdock ($Id: //depot/dev/client3/rdock/2013.1/src/exe/rbdock.cxx#4 $)

>  <Rbt.Library>
libRbt.so (2013.1, Build901 2013/11/27)

>  <Rbt.Parameter_File>
/export/apps/rDock/src/rDock_2013.1_src/data/scripts/dock_solv.prm

>  <Rbt.Receptor>
prm/pocket_docking_8.prm

>  <SCORE>
-15.4534

>  <SCORE.INTER>
-11.7492

>  <SCORE.INTER.CONST>
1

>  <SCORE.INTER.POLAR>
0

>  <SCORE.INTER.ROT>
6

>  <SCORE.INTER.SOLV>
15.2877

>  <SCORE.INTER.VDW>
-20.5287

>  <SCORE.INTER.norm>
-0.379007

>  <SCORE.INTRA>
-3.70414

>  <SCORE.INTRA.DIHEDRAL>
-8.75925

>  <SCORE.INTRA.DIHEDRAL.0>
20.6841

>  <SCORE.INTRA.POLAR>
0

>  <SCORE.INTRA.POLAR.0>
0

>  <SCORE.INTRA.REPUL>
0

>  <SCORE.INTRA.REPUL.0>
0

>  <SCORE.INTRA.SOLV>
-0.326627

>  <SCORE.INTRA.SOLV.lig_0>
-64.6797

>  <SCORE.INTRA.VDW>
0.8388

>  <SCORE.INTRA.VDW.0>
-4.11825

>  <SCORE.INTRA.norm>
-0.119488

>  <SCORE.RESTR>
0

>  <SCORE.RESTR.CAVITY>
0

>  <SCORE.RESTR.norm>
0

>  <SCORE.SYSTEM>
0

>  <SCORE.SYSTEM.CONST>
0

>  <SCORE.SYSTEM.DIHEDRAL>
0

>  <SCORE.SYSTEM.SOLV>
0

>  <SCORE.SYSTEM.norm>
0

>  <SCORE.heavy>
31

>  <SCORE.norm>
-0.498496

>  <RMSD>
6.823

$$$$
ligand
 OpenBabel11021811493D
libRbt.so/2013.1/901 2013/11/27
 31 33  0  0  0  0  0  0  0  0999 V2000
   -3.4434   14.3341    5.0520 C   0  0  2  0  0  0  0  0  0  0  0  0
   -2.5449   14.3090    3.9470 O   0  0  0  0  0  0  0  0  0  0  0  0
    1.1609   12.6451    2.6890 C   0  0  2  0  0  0  0  0  0  0  0  0
    2.5309   12.2341    2.7215 N   0  0  0  0  0  0  0  0  0  0  0  0
   -0.1256    9.5673    4.5741 C   0  0  2  0  0  0  0  0  0  0  0  0
   -4.9044   14.3739    4.4438 C   0  0  2  0  0  0  0  0  0  0  0  0
   -5.0979   13.1917    3.6107 N   0  0  0  0  0  0  0  0  0  0  0  0
    1.1033   14.2096    2.9314 C   0  0  0  0  0  0  0  0  0  0  0  0
    0.7556    8.2876    4.4177 C   0  0  2  0  0  0  0  0  0  0  0  0
    2.0986    8.6381    4.6749 O   0  0  0  0  0  0  0  0  0  0  0  0
   -5.1128   15.6930    3.5980 C   0  0  0  0  0  0  0  0  0  0  0  0
   -0.4037   14.6652    2.8989 C   0  0  2  0  0  0  0  0  0  0  0  0
   -0.4641   16.1188    3.1293 N   0  0  0  0  0  0  0  0  0  0  0  0
    0.5790    7.7770    2.9372 C   0  0  1  0  0  0  0  0  0  0  0  0
    1.4212    6.5545    2.7192 N   0  0  0  0  0  0  0  0  0  0  0  0
   -4.3966   16.9490    4.2532 C   0  0  0  0  0  0  0  0  0  0  0  0
   -1.2244   13.8943    4.0249 C   0  0  2  0  0  0  0  0  0  0  0  0
   -0.9917    7.3972    2.7204 C   0  0  1  0  0  0  0  0  0  0  0  0
   -1.4376    6.4094    3.6340 O   0  0  0  0  0  0  0  0  0  0  0  0
   -3.5411   16.8015    5.2992 C   0  0  2  0  0  0  0  0  0  0  0  0
   -3.2362   15.5232    5.8688 O   0  0  0  0  0  0  0  0  0  0  0  0
   -1.1423   12.3443    3.7659 C   0  0  2  0  0  0  0  0  0  0  0  0
   -1.8803   11.6531    4.7965 O   0  0  0  0  0  0  0  0  0  0  0  0
   -1.8807    8.6632    2.9463 C   0  0  0  0  0  0  0  0  0  0  0  0
   -1.5830    9.2433    4.3038 O   0  0  0  0  0  0  0  0  0  0  0  0
   -2.8296   17.9806    5.9654 C   0  0  0  0  0  0  0  0  0  0  0  0
   -3.2917   18.0695    7.3340 O   0  0  0  0  0  0  0  0  0  0  0  0
    0.3673   11.9046    3.8245 C   0  0  1  0  0  0  0  0  0  0  0  0
    0.4239   10.5285    3.6153 O   0  0  0  0  0  0  0  0  0  0  0  0
   -1.3474    6.8725    1.3083 C   0  0  0  0  0  0  0  0  0  0  0  0
    2.7298    6.7598    2.0655 C   0  0  0  0  0  0  0  0  0  0  0  0
  1  2  1  6  0  0  0
  1  6  1  0  0  0  0
  1 21  1  0  0  0  0
  3  4  1  1  0  0  0
  3  8  1  0  0  0  0
  3 28  1  0  0  0  0
  5  9  1  0  0  0  0
  5 25  1  0  0  0  0
  5 29  1  6  0  0  0
  6  7  1  6  0  0  0
  6 11  1  0  0  0  0
  8 12  1  0  0  0  0
  9 10  1  6  0  0  0
  9 14  1  0  0  0  0
 11 16  1  0  0  0  0
 12 13  1  1  0  0  0
 12 17  1  0  0  0  0
 14 15  1  1  0  0  0
 14 18  1  0  0  0  0
 15 31  1  0  0  0  0
 16 20  1  0  0  0  0
 17  2  1  6  0  0  0
 17 22  1  0  0  0  0
 18 19  1  1  0  0  0
 18 24  1  0  0  0  0
 18 30  1  0  0  0  0
 20 21  1  0  0  0  0
 20 26  1  1  0  0  0
 22 23  1  1  0  0  0
 22 28  1  0  0  0  0
 24 25  1  0  0  0  0
 26 27  1  0  0  0  0
 28 29  1  6  0  0  0
M  END
>  <CHROM.1>
-160.72316661,-150.22665874,-98.20752333,-151.66980152,116.11254917,174.56759860
-1.21991355,12.03032644,3.89790053,1.98806341,0.14500127,0.15843885

>  <Name>
ligand

>  <RI>
0

>  <Rbt.Current_Directory>
/home/itssahil/PROJECTS/Mol_Feturizer/New_Systems/rnas/4GPX

>  <Rbt.Executable>
rbdock ($Id: //depot/dev/client3/rdock/2013.1/src/exe/rbdock.cxx#4 $)

>  <Rbt.Library>
libRbt.so (2013.1, Build901 2013/11/27)

>  <Rbt.Parameter_File>
/export/apps/rDock/src/rDock_2013.1_src/data/scripts/dock_solv.prm

>  <Rbt.Receptor>
prm/pocket_docking_8.prm

>  <SCORE>
-15.8481

>  <SCORE.INTER>
-11.7639

>  <SCORE.INTER.CONST>
1

>  <SCORE.INTER.POLAR>
0

>  <SCORE.INTER.ROT>
6

>  <SCORE.INTER.SOLV>
15.7143

>  <SCORE.INTER.VDW>
-20.6807

>  <SCORE.INTER.norm>
-0.37948

>  <SCORE.INTRA>
-4.08423

>  <SCORE.INTRA.DIHEDRAL>
-9.45515

>  <SCORE.INTRA.DIHEDRAL.0>
20.6841

>  <SCORE.INTRA.POLAR>
0

>  <SCORE.INTRA.POLAR.0>
0

>  <SCORE.INTRA.REPUL>
0

>  <SCORE.INTRA.REPUL.0>
0

>  <SCORE.INTRA.SOLV>
-1.1589

>  <SCORE.INTRA.SOLV.lig_0>
-64.6797

>  <SCORE.INTRA.VDW>
1.2228

>  <SCORE.INTRA.VDW.0>
-4.11825

>  <SCORE.INTRA.norm>
-0.131749

>  <SCORE.RESTR>
0

>  <SCORE.RESTR.CAVITY>
0

>  <SCORE.RESTR.norm>
0

>  <SCORE.SYSTEM>
0

>  <SCORE.SYSTEM.CONST>
0

>  <SCORE.SYSTEM.DIHEDRAL>
0

>  <SCORE.SYSTEM.SOLV>
0

>  <SCORE.SYSTEM.norm>
0

>  <SCORE.heavy>
31

>  <SCORE.norm>
-0.511229

>  <RMSD>
6.842

$$$$
ligand
 OpenBabel11021811493D
libRbt.so/2013.1/901 2013/11/27
 31 33  0  0  0  0  0  0  0  0999 V2000
   -1.6555   18.9961    7.7378 C   0  0  2  0  0  0  0  0  0  0  0  0
   -2.4586   18.8334    6.5726 O   0  0  0  0  0  0  0  0  0  0  0  0
   -5.1614   15.9310    5.0379 C   0  0  2  0  0  0  0  0  0  0  0  0
   -5.6505   14.6932    4.5131 N   0  0  0  0  0  0  0  0  0  0  0  0
   -6.0828   13.8477    7.1908 C   0  0  2  0  0  0  0  0  0  0  0  0
   -1.4017   20.5506    7.8966 C   0  0  2  0  0  0  0  0  0  0  0  0
   -2.6892   21.2254    8.0233 N   0  0  0  0  0  0  0  0  0  0  0  0
   -4.0403   16.4789    4.0617 C   0  0  0  0  0  0  0  0  0  0  0  0
   -6.9856   13.6542    8.4502 C   0  0  2  0  0  0  0  0  0  0  0  0
   -7.9684   14.6676    8.4529 O   0  0  0  0  0  0  0  0  0  0  0  0
   -0.5999   21.1072    6.6531 C   0  0  0  0  0  0  0  0  0  0  0  0
   -3.4978   17.8403    4.6377 C   0  0  2  0  0  0  0  0  0  0  0  0
   -2.4508   18.3519    3.7368 N   0  0  0  0  0  0  0  0  0  0  0  0
   -6.0531   13.7688    9.7155 C   0  0  1  0  0  0  0  0  0  0  0  0
   -6.8709   13.6103   10.9633 N   0  0  0  0  0  0  0  0  0  0  0  0
    0.4976   20.0835    6.1359 C   0  0  0  0  0  0  0  0  0  0  0  0
   -2.9044   17.6099    6.0973 C   0  0  2  0  0  0  0  0  0  0  0  0
   -4.9493   12.5714    9.6365 C   0  0  1  0  0  0  0  0  0  0  0  0
   -5.5498   11.2883    9.5871 O   0  0  0  0  0  0  0  0  0  0  0  0
    0.5467   18.8101    6.6089 C   0  0  2  0  0  0  0  0  0  0  0  0
   -0.3740   18.3181    7.5896 O   0  0  0  0  0  0  0  0  0  0  0  0
   -4.0347   17.0571    7.0423 C   0  0  2  0  0  0  0  0  0  0  0  0
   -3.4858   16.8417    8.3602 O   0  0  0  0  0  0  0  0  0  0  0  0
   -4.0910   12.7244    8.3389 C   0  0  0  0  0  0  0  0  0  0  0  0
   -5.0045   12.7815    7.1430 O   0  0  0  0  0  0  0  0  0  0  0  0
    1.5862   17.7887    6.1436 C   0  0  0  0  0  0  0  0  0  0  0  0
    0.9003   16.7594    5.3924 O   0  0  0  0  0  0  0  0  0  0  0  0
   -4.5480   15.6871    6.4634 C   0  0  1  0  0  0  0  0  0  0  0  0
   -5.5321   15.1988    7.3199 O   0  0  0  0  0  0  0  0  0  0  0  0
   -3.9429   12.5330   10.8118 C   0  0  0  0  0  0  0  0  0  0  0  0
   -7.8124   12.4725   10.9980 C   0  0  0  0  0  0  0  0  0  0  0  0
  1  2  1  6  0  0  0
  1  6  1  0  0  0  0
  1 21  1  0  0  0  0
  3  4  1  6  0  0  0
  3  8  1  0  0  0  0
  3 28  1  0  0  0  0
  5  9  1  0  0  0  0
  5 25  1  0  0  0  0
  5 29  1  1  0  0  0
  6  7  1  6  0  0  0
  6 11  1  0  0  0  0
  8 12  1  0  0  0  0
  9 10  1  1  0  0  0
  9 14  1  0  0  0  0
 11 16  1  0  0  0  0
 12 13  1  6  0  0  0
 12 17  1  0  0  0  0
 14 15  1  1  0  0  0
 14 18  1  0  0  0  0
 15 31  1  0  0  0  0
 16 20  1  0  0  0  0
 17  2  1  1  0  0  0
 17 22  1  0  0  0  0
 18 19  1  6  0  0  0
 18 24  1  0  0  0  0
 18 30  1  0  0  0  0
 20 21  1  0  0  0  0
 20 26  1  1  0  0  0
 22 23  1  1  0  0  0
 22 28  1  0  0  0  0
 24 25  1  0  0  0  0
 26 27  1  0  0  0  0
 28 29  1  1  0  0  0
M  END
>  <CHROM.1>
-179.62167737,172.26530484,47.75910189,-168.42573422,-112.05819280,70.65823179
-3.62335315,16.16100441,7.35512194,-0.60387110,0.70418025,1.95248166

>  <Name>
ligand

>  <RI>
0

>  <Rbt.Current_Directory>
/home/itssahil/PROJECTS/Mol_Feturizer/New_Systems/rnas/4GPX

>  <Rbt.Executable>
rbdock ($Id: //depot/dev/client3/rdock/2013.1/src/exe/rbdock.cxx#4 $)

>  <Rbt.Library>
libRbt.so (2013.1, Build901 2013/11/27)

>  <Rbt.Parameter_File>
/export/apps/rDock/src/rDock_2013.1_src/data/scripts/dock_solv.prm

>  <Rbt.Receptor>
prm/pocket_docking_7.prm

>  <SCORE>
-14.9428

>  <SCORE.INTER>
-8.24671

>  <SCORE.INTER.CONST>
1

>  <SCORE.INTER.POLAR>
0

>  <SCORE.INTER.ROT>
6

>  <SCORE.INTER.SOLV>
19.6653

>  <SCORE.INTER.VDW>
-19.6529

>  <SCORE.INTER.norm>
-0.266023

>  <SCORE.INTRA>
-6.7033

>  <SCORE.INTRA.DIHEDRAL>
-17.3097

>  <SCORE.INTRA.DIHEDRAL.0>
20.6841

>  <SCORE.INTRA.POLAR>
0

>  <SCORE.INTRA.POLAR.0>
0

>  <SCORE.INTRA.REPUL>
0

>  <SCORE.INTRA.REPUL.0>
0

>  <SCORE.INTRA.SOLV>
-0.923575

>  <SCORE.INTRA.SOLV.lig_0>
-64.6797

>  <SCORE.INTRA.VDW>
2.41333

>  <SCORE.INTRA.VDW.0>
-4.11825

>  <SCORE.INTRA.norm>
-0.216236

>  <SCORE.RESTR>
0.00716355

>  <SCORE.RESTR.CAVITY>
0.00716355

>  <SCORE.RESTR.norm>
0.000231082

>  <SCORE.SYSTEM>
0

>  <SCORE.SYSTEM.CONST>
0

>  <SCORE.SYSTEM.DIHEDRAL>
0

>  <SCORE.SYSTEM.SOLV>
0

>  <SCORE.SYSTEM.norm>
0

>  <SCORE.heavy>
31

>  <SCORE.norm>
-0.482027

>  <RMSD>
7.113

$$$$
ligand
 OpenBabel11021811493D
libRbt.so/2013.1/901 2013/11/27
 31 33  0  0  0  0  0  0  0  0999 V2000
   -1.6209   10.7472   10.8001 C   0  0  2  0  0  0  0  0  0  0  0  0
   -1.8730   12.1460   10.8940 O   0  0  0  0  0  0  0  0  0  0  0  0
   -5.7004   12.6742    9.1174 C   0  0  2  0  0  0  0  0  0  0  0  0
   -6.9825   13.2393    8.8278 N   0  0  0  0  0  0  0  0  0  0  0  0
   -4.6070   13.0220    6.3790 C   0  0  2  0  0  0  0  0  0  0  0  0
   -0.1847   10.5057   11.4206 C   0  0  2  0  0  0  0  0  0  0  0  0
   -0.1882   10.9673   12.8048 N   0  0  0  0  0  0  0  0  0  0  0  0
   -5.6502   12.3150   10.6596 C   0  0  0  0  0  0  0  0  0  0  0  0
   -3.5858   13.5467    5.3205 C   0  0  2  0  0  0  0  0  0  0  0  0
   -2.3395   13.7303    5.9576 O   0  0  0  0  0  0  0  0  0  0  0  0
    0.9138   11.2708   10.5799 C   0  0  0  0  0  0  0  0  0  0  0  0
   -4.2392   11.6950   10.9826 C   0  0  2  0  0  0  0  0  0  0  0  0
   -4.1845   11.3639   12.4169 N   0  0  0  0  0  0  0  0  0  0  0  0
   -4.1448   14.9133    4.7695 C   0  0  1  0  0  0  0  0  0  0  0  0
   -3.1922   15.4791    3.7578 N   0  0  0  0  0  0  0  0  0  0  0  0
    0.6106   11.2404    9.0221 C   0  0  0  0  0  0  0  0  0  0  0  0
   -3.0945   12.7388   10.6140 C   0  0  2  0  0  0  0  0  0  0  0  0
   -5.5801   14.6176    4.0547 C   0  0  1  0  0  0  0  0  0  0  0  0
   -5.4729   13.6740    3.0023 O   0  0  0  0  0  0  0  0  0  0  0  0
   -0.5788   10.7838    8.5482 C   0  0  2  0  0  0  0  0  0  0  0  0
   -1.6184   10.3074    9.4107 O   0  0  0  0  0  0  0  0  0  0  0  0
   -3.1736   13.0850    9.0811 C   0  0  2  0  0  0  0  0  0  0  0  0
   -2.1392   14.0390    8.7579 O   0  0  0  0  0  0  0  0  0  0  0  0
   -6.5820   14.0259    5.0987 C   0  0  0  0  0  0  0  0  0  0  0  0
   -5.9681   12.8109    5.7428 O   0  0  0  0  0  0  0  0  0  0  0  0
   -0.9164   10.7325    7.0569 C   0  0  0  0  0  0  0  0  0  0  0  0
   -2.2768   11.1964    6.8878 O   0  0  0  0  0  0  0  0  0  0  0  0
   -4.5803   13.7233    8.7822 C   0  0  1  0  0  0  0  0  0  0  0  0
   -4.6290   14.0444    7.4275 O   0  0  0  0  0  0  0  0  0  0  0  0
   -6.2772   15.8610    3.4515 C   0  0  0  0  0  0  0  0  0  0  0  0
   -1.9607   16.1026    4.2839 C   0  0  0  0  0  0  0  0  0  0  0  0
  1  2  1  6  0  0  0
  1  6  1  0  0  0  0
  1 21  1  0  0  0  0
  3  4  1  1  0  0  0
  3  8  1  0  0  0  0
  3 28  1  0  0  0  0
  5  9  1  0  0  0  0
  5 25  1  0  0  0  0
  5 29  1  1  0  0  0
  6  7  1  1  0  0  0
  6 11  1  0  0  0  0
  8 12  1  0  0  0  0
  9 10  1  1  0  0  0
  9 14  1  0  0  0  0
 11 16  1  0  0  0  0
 12 13  1  1  0  0  0
 12 17  1  0  0  0  0
 14 15  1  6  0  0  0
 14 18  1  0  0  0  0
 15 31  1  0  0  0  0
 16 20  1  0  0  0  0
 17  2  1  6  0  0  0
 17 22  1  0  0  0  0
 18 19  1  6  0  0  0
 18 24  1  0  0  0  0
 18 30  1  0  0  0  0
 20 21  1  0  0  0  0
 20 26  1  6  0  0  0
 22 23  1  1  0  0  0
 22 28  1  0  0  0  0
 24 25  1  0  0  0  0
 26 27  1  0  0  0  0
 28 29  1  6  0  0  0
M  END
>  <CHROM.1>
-171.41722975,-134.75494014,-75.85866860,31.14835800,-137.34346946,-52.65912044
-3.27924253,12.80553621,7.88767651,1.08873715,-0.21844012,1.94674976

>  <Name>
ligand

>  <RI>
0

>  <Rbt.Current_Directory>
/home/itssahil/PROJECTS/Mol_Feturizer/New_Systems/rnas/4GPX

>  <Rbt.Executable>
rbdock ($Id: //depot/dev/client3/rdock/2013.1/src/exe/rbdock.cxx#4 $)

>  <Rbt.Library>
libRbt.so (2013.1, Build901 2013/11/27)

>  <Rbt.Parameter_File>
/export/apps/rDock/src/rDock_2013.1_src/data/scripts/dock_solv.prm

>  <Rbt.Receptor>
prm/pocket_docking_2.prm

>  <SCORE>
-3.94383

>  <SCORE.INTER>
-3.19125

>  <SCORE.INTER.CONST>
1

>  <SCORE.INTER.POLAR>
0

>  <SCORE.INTER.ROT>
6

>  <SCORE.INTER.SOLV>
20.5481

>  <SCORE.INTER.VDW>
-16.5769

>  <SCORE.INTER.norm>
-0.102944

>  <SCORE.INTRA>
-2.33756

>  <SCORE.INTRA.DIHEDRAL>
-8.24511

>  <SCORE.INTRA.DIHEDRAL.0>
20.6841

>  <SCORE.INTRA.POLAR>
0

>  <SCORE.INTRA.POLAR.0>
0

>  <SCORE.INTRA.REPUL>
0

>  <SCORE.INTRA.REPUL.0>
0

>  <SCORE.INTRA.SOLV>
1.87189

>  <SCORE.INTRA.SOLV.lig_0>
-64.6797

>  <SCORE.INTRA.VDW>
0.849046

>  <SCORE.INTRA.VDW.0>
-4.11825

>  <SCORE.INTRA.norm>
-0.0754053

>  <SCORE.RESTR>
1.58498

>  <SCORE.RESTR.CAVITY>
1.58498

>  <SCORE.RESTR.norm>
0.0511285

>  <SCORE.SYSTEM>
0

>  <SCORE.SYSTEM.CONST>
0

>  <SCORE.SYSTEM.DIHEDRAL>
0

>  <SCORE.SYSTEM.SOLV>
0

>  <SCORE.SYSTEM.norm>
0

>  <SCORE.heavy>
31

>  <SCORE.norm>
-0.12722

>  <RMSD>
7.239

$$$$
ligand
 OpenBabel11021811493D
libRbt.so/2013.1/901 2013/11/27
 31 33  0  0  0  0  0  0  0  0999 V2000
   -2.9423   11.2600   10.8846 C   0  0  2  0  0  0  0  0  0  0  0  0
   -3.0909   12.6768   10.8853 O   0  0  0  0  0  0  0  0  0  0  0  0
   -5.7786   13.3814    7.6661 C   0  0  2  0  0  0  0  0  0  0  0  0
   -6.7136   14.0536    6.8170 N   0  0  0  0  0  0  0  0  0  0  0  0
   -4.5469   14.9757    5.3149 C   0  0  2  0  0  0  0  0  0  0  0  0
   -1.8262   10.9236   11.9557 C   0  0  2  0  0  0  0  0  0  0  0  0
   -2.2577   11.4258   13.2561 N   0  0  0  0  0  0  0  0  0  0  0  0
   -6.3842   13.3246    9.1289 C   0  0  0  0  0  0  0  0  0  0  0  0
   -3.5276   14.9474    4.1321 C   0  0  2  0  0  0  0  0  0  0  0  0
   -3.2562   13.5998    3.8110 O   0  0  0  0  0  0  0  0  0  0  0  0
   -0.4473   11.5727   11.5363 C   0  0  0  0  0  0  0  0  0  0  0  0
   -5.3564   12.5875   10.0670 C   0  0  2  0  0  0  0  0  0  0  0  0
   -5.9117   12.5364   11.4303 N   0  0  0  0  0  0  0  0  0  0  0  0
   -2.2236   15.6848    4.6215 C   0  0  1  0  0  0  0  0  0  0  0  0
   -1.1948   15.6726    3.5295 N   0  0  0  0  0  0  0  0  0  0  0  0
   -0.2079   11.5194    9.9680 C   0  0  0  0  0  0  0  0  0  0  0  0
   -3.9690   13.3692   10.0661 C   0  0  2  0  0  0  0  0  0  0  0  0
   -2.6202   17.2266    4.9736 C   0  0  1  0  0  0  0  0  0  0  0  0
   -3.1774   17.9064    3.8614 O   0  0  0  0  0  0  0  0  0  0  0  0
   -1.2017   11.1450    9.1195 C   0  0  2  0  0  0  0  0  0  0  0  0
   -2.5081   10.7795    9.5790 O   0  0  0  0  0  0  0  0  0  0  0  0
   -3.3957   13.4193    8.6015 C   0  0  2  0  0  0  0  0  0  0  0  0
   -2.1435   14.1380    8.6084 O   0  0  0  0  0  0  0  0  0  0  0  0
   -3.6935   17.2532    6.1099 C   0  0  0  0  0  0  0  0  0  0  0  0
   -4.8702   16.4068    5.7015 O   0  0  0  0  0  0  0  0  0  0  0  0
   -1.0188   11.0756    7.6022 C   0  0  0  0  0  0  0  0  0  0  0  0
    0.2680   11.6528    7.2776 O   0  0  0  0  0  0  0  0  0  0  0  0
   -4.4250   14.1782    7.6849 C   0  0  1  0  0  0  0  0  0  0  0  0
   -3.8960   14.2342    6.3974 O   0  0  0  0  0  0  0  0  0  0  0  0
   -1.4474   18.1042    5.4738 C   0  0  0  0  0  0  0  0  0  0  0  0
   -0.2680   14.5225    3.5058 C   0  0  0  0  0  0  0  0  0  0  0  0
  1  2  1  6  0  0  0
  1  6  1  0  0  0  0
  1 21  1  0  0  0  0
  3  4  1  6  0  0  0
  3  8  1  0  0  0  0
  3 28  1  0  0  0  0
  5  9  1  0  0  0  0
  5 25  1  0  0  0  0
  5 29  1  1  0  0  0
  6  7  1  1  0  0  0
  6 11  1  0  0  0  0
  8 12  1  0  0  0  0
  9 10  1  1  0  0  0
  9 14  1  0  0  0  0
 11 16  1  0  0  0  0
 12 13  1  1  0  0  0
 12 17  1  0  0  0  0
 14 15  1  6  0  0  0
 14 18  1  0  0  0  0
 15 31  1  0  0  0  0
 16 20  1  0  0  0  0
 17  2  1  1  0  0  0
 17 22  1  0  0  0  0
 18 19  1  6  0  0  0
 18 24  1  0  0  0  0
 18 30  1  0  0  0  0
 20 21  1  0  0  0  0
 20 26  1  1  0  0  0
 22 23  1  1  0  0  0
 22 28  1  0  0  0  0
 24 25  1  0  0  0  0
 26 27  1  0  0  0  0
 28 29  1  6  0  0  0
M  END
>  <CHROM.1>
179.25241332,171.94599801,-89.89951777,43.62910910,-8.36267161,66.68058749
-3.00452170,13.74224560,7.68824716,1.52663046,-0.32010834,2.17672563

>  <Name>
ligand

>  <RI>
0

>  <Rbt.Current_Directory>
/home/itssahil/PROJECTS/Mol_Feturizer/New_Systems/rnas/4GPX

>  <Rbt.Executable>
rbdock ($Id: //depot/dev/client3/rdock/2013.1/src/exe/rbdock.cxx#4 $)

>  <Rbt.Library>
libRbt.so (2013.1, Build901 2013/11/27)

>  <Rbt.Parameter_File>
/export/apps/rDock/src/rDock_2013.1_src/data/scripts/dock_solv.prm

>  <Rbt.Receptor>
prm/pocket_docking_4.prm

>  <SCORE>
-12.1387

>  <SCORE.INTER>
-5.31609

>  <SCORE.INTER.CONST>
1

>  <SCORE.INTER.POLAR>
0

>  <SCORE.INTER.ROT>
6

>  <SCORE.INTER.SOLV>
15.8699

>  <SCORE.INTER.VDW>
-16.434

>  <SCORE.INTER.norm>
-0.171487

>  <SCORE.INTRA>
-6.82261

>  <SCORE.INTRA.DIHEDRAL>
-16.5233

>  <SCORE.INTRA.DIHEDRAL.0>
20.6841

>  <SCORE.INTRA.POLAR>
0

>  <SCORE.INTRA.POLAR.0>
0

>  <SCORE.INTRA.REPUL>
0

>  <SCORE.INTRA.REPUL.0>
0

>  <SCORE.INTRA.SOLV>
-0.373438

>  <SCORE.INTRA.SOLV.lig_0>
-64.6797

>  <SCORE.INTRA.VDW>
1.62573

>  <SCORE.INTRA.VDW.0>
-4.11825

>  <SCORE.INTRA.norm>
-0.220084

>  <SCORE.RESTR>
0

>  <SCORE.RESTR.CAVITY>
0

>  <SCORE.RESTR.norm>
0

>  <SCORE.SYSTEM>
0

>  <SCORE.SYSTEM.CONST>
0

>  <SCORE.SYSTEM.DIHEDRAL>
0

>  <SCORE.SYSTEM.SOLV>
0

>  <SCORE.SYSTEM.norm>
0

>  <SCORE.heavy>
31

>  <SCORE.norm>
-0.391571

>  <RMSD>
7.275

$$$$
ligand
 OpenBabel11021811493D
libRbt.so/2013.1/901 2013/11/27
 31 33  0  0  0  0  0  0  0  0999 V2000
   -3.1400   11.4185   11.3846 C   0  0  2  0  0  0  0  0  0  0  0  0
   -3.2493   12.8385   11.3550 O   0  0  0  0  0  0  0  0  0  0  0  0
   -6.3301   13.4941    8.4979 C   0  0  2  0  0  0  0  0  0  0  0  0
   -7.3212   14.1722    7.7202 N   0  0  0  0  0  0  0  0  0  0  0  0
   -5.3735   14.6562    5.8197 C   0  0  2  0  0  0  0  0  0  0  0  0
   -1.9931   11.0764   12.4207 C   0  0  2  0  0  0  0  0  0  0  0  0
   -2.3599   11.6222   13.7233 N   0  0  0  0  0  0  0  0  0  0  0  0
   -6.7035   13.6515   10.0295 C   0  0  0  0  0  0  0  0  0  0  0  0
   -4.6071   14.3314    4.4983 C   0  0  2  0  0  0  0  0  0  0  0  0
   -4.5281   12.9285    4.3633 O   0  0  0  0  0  0  0  0  0  0  0  0
   -0.6140   11.6754   11.9329 C   0  0  0  0  0  0  0  0  0  0  0  0
   -5.6131   12.9085   10.8887 C   0  0  2  0  0  0  0  0  0  0  0  0
   -5.9521   13.0561   12.3145 N   0  0  0  0  0  0  0  0  0  0  0  0
   -3.1710   14.9684    4.6227 C   0  0  1  0  0  0  0  0  0  0  0  0
   -2.3764   14.6716    3.3851 N   0  0  0  0  0  0  0  0  0  0  0  0
   -0.4370   11.5772   10.3585 C   0  0  0  0  0  0  0  0  0  0  0  0
   -4.1780   13.5335   10.5960 C   0  0  2  0  0  0  0  0  0  0  0  0
   -3.3484   16.5818    4.7774 C   0  0  1  0  0  0  0  0  0  0  0  0
   -4.0434   17.1542    3.6825 O   0  0  0  0  0  0  0  0  0  0  0  0
   -1.4728   11.2108    9.5581 C   0  0  2  0  0  0  0  0  0  0  0  0
   -2.7701   10.8942   10.0761 O   0  0  0  0  0  0  0  0  0  0  0  0
   -3.8371   13.3727    9.0683 C   0  0  2  0  0  0  0  0  0  0  0  0
   -2.5394   13.9506    8.8101 O   0  0  0  0  0  0  0  0  0  0  0  0
   -4.1766   16.9046    6.0634 C   0  0  0  0  0  0  0  0  0  0  0  0
   -5.4829   16.1570    6.0135 O   0  0  0  0  0  0  0  0  0  0  0  0
   -1.3508   11.0994    8.0372 C   0  0  0  0  0  0  0  0  0  0  0  0
   -0.0059   11.4828    7.6648 O   0  0  0  0  0  0  0  0  0  0  0  0
   -4.9237   14.1396    8.2277 C   0  0  1  0  0  0  0  0  0  0  0  0
   -4.5984   14.0074    6.8796 O   0  0  0  0  0  0  0  0  0  0  0  0
   -2.0255   17.3739    4.9119 C   0  0  0  0  0  0  0  0  0  0  0  0
   -0.9206   14.4920    3.5601 C   0  0  0  0  0  0  0  0  0  0  0  0
  1  2  1  6  0  0  0
  1  6  1  0  0  0  0
  1 21  1  0  0  0  0
  3  4  1  6  0  0  0
  3  8  1  0  0  0  0
  3 28  1  0  0  0  0
  5  9  1  0  0  0  0
  5 25  1  0  0  0  0
  5 29  1  1  0  0  0
  6  7  1  1  0  0  0
  6 11  1  0  0  0  0
  8 12  1  0  0  0  0
  9 10  1  1  0  0  0
  9 14  1  0  0  0  0
 11 16  1  0  0  0  0
 12 13  1  1  0  0  0
 12 17  1  0  0  0  0
 14 15  1  6  0  0  0
 14 18  1  0  0  0  0
 15 31  1  0  0  0  0
 16 20  1  0  0  0  0
 17  2  1  1  0  0  0
 17 22  1  0  0  0  0
 18 19  1  6  0  0  0
 18 24  1  0  0  0  0
 18 30  1  0  0  0  0
 20 21  1  0  0  0  0
 20 26  1  1  0  0  0
 22 23  1  1  0  0  0
 22 28  1  0  0  0  0
 24 25  1  0  0  0  0
 26 27  1  0  0  0  0
 28 29  1  6  0  0  0
M  END
>  <CHROM.1>
-177.81729118,175.96753186,-147.15486247,50.71665241,-1.70860749,64.12616851
-3.50371391,13.60378187,8.06020570,1.43854269,-0.37854571,2.02583575

>  <Name>
ligand

>  <RI>
0

>  <Rbt.Current_Directory>
/home/itssahil/PROJECTS/Mol_Feturizer/New_Systems/rnas/4GPX

>  <Rbt.Executable>
rbdock ($Id: //depot/dev/client3/rdock/2013.1/src/exe/rbdock.cxx#4 $)

>  <Rbt.Library>
libRbt.so (2013.1, Build901 2013/11/27)

>  <Rbt.Parameter_File>
/export/apps/rDock/src/rDock_2013.1_src/data/scripts/dock_solv.prm

>  <Rbt.Receptor>
prm/pocket_docking_3.prm

>  <SCORE>
-11.3243

>  <SCORE.INTER>
-4.31739

>  <SCORE.INTER.CONST>
1

>  <SCORE.INTER.POLAR>
0

>  <SCORE.INTER.ROT>
6

>  <SCORE.INTER.SOLV>
18.0818

>  <SCORE.INTER.VDW>
-16.5055

>  <SCORE.INTER.norm>
-0.139271

>  <SCORE.INTRA>
-7.00874

>  <SCORE.INTRA.DIHEDRAL>
-17.6931

>  <SCORE.INTRA.DIHEDRAL.0>
20.6841

>  <SCORE.INTRA.POLAR>
0

>  <SCORE.INTRA.POLAR.0>
0

>  <SCORE.INTRA.REPUL>
0

>  <SCORE.INTRA.REPUL.0>
0

>  <SCORE.INTRA.SOLV>
-0.364142

>  <SCORE.INTRA.SOLV.lig_0>
-64.6797

>  <SCORE.INTRA.VDW>
2.0199

>  <SCORE.INTRA.VDW.0>
-4.11825

>  <SCORE.INTRA.norm>
-0.226088

>  <SCORE.RESTR>
0.0018681

>  <SCORE.RESTR.CAVITY>
0.0018681

>  <SCORE.RESTR.norm>
6.02613e-05

>  <SCORE.SYSTEM>
0

>  <SCORE.SYSTEM.CONST>
0

>  <SCORE.SYSTEM.DIHEDRAL>
0

>  <SCORE.SYSTEM.SOLV>
0

>  <SCORE.SYSTEM.norm>
0

>  <SCORE.heavy>
31

>  <SCORE.norm>
-0.365299

>  <RMSD>
7.368

$$$$
ligand
 OpenBabel11021811493D
libRbt.so/2013.1/901 2013/11/27
 31 33  0  0  0  0  0  0  0  0999 V2000
   -2.8761   11.3256   10.4912 C   0  0  2  0  0  0  0  0  0  0  0  0
   -3.0629   12.7338   10.5971 O   0  0  0  0  0  0  0  0  0  0  0  0
   -5.5478   13.6517    7.2704 C   0  0  2  0  0  0  0  0  0  0  0  0
   -6.4477   14.3703    6.4214 N   0  0  0  0  0  0  0  0  0  0  0  0
   -4.2641   15.4177    5.1365 C   0  0  2  0  0  0  0  0  0  0  0  0
   -1.8364   10.9233   11.6152 C   0  0  2  0  0  0  0  0  0  0  0  0
   -2.3794   11.3051   12.9146 N   0  0  0  0  0  0  0  0  0  0  0  0
   -6.2501   13.4369    8.6741 C   0  0  0  0  0  0  0  0  0  0  0  0
   -3.1870   15.5068    4.0093 C   0  0  2  0  0  0  0  0  0  0  0  0
   -2.8036   14.1950    3.6557 O   0  0  0  0  0  0  0  0  0  0  0  0
   -0.4476   11.6340   11.3600 C   0  0  0  0  0  0  0  0  0  0  0  0
   -5.2613   12.6484    9.6122 C   0  0  2  0  0  0  0  0  0  0  0  0
   -5.9069   12.4503   10.9212 N   0  0  0  0  0  0  0  0  0  0  0  0
   -1.9657   16.3139    4.5930 C   0  0  1  0  0  0  0  0  0  0  0  0
   -0.8848   16.4161    3.5575 N   0  0  0  0  0  0  0  0  0  0  0  0
   -0.0878   11.7181    9.8163 C   0  0  0  0  0  0  0  0  0  0  0  0
   -3.9090   13.4715    9.7837 C   0  0  2  0  0  0  0  0  0  0  0  0
   -2.4892   17.8093    4.9777 C   0  0  1  0  0  0  0  0  0  0  0  0
   -3.0368   18.4913    3.8622 O   0  0  0  0  0  0  0  0  0  0  0  0
   -1.0033   11.3959    8.8645 C   0  0  2  0  0  0  0  0  0  0  0  0
   -2.3306   10.9660    9.1886 O   0  0  0  0  0  0  0  0  0  0  0  0
   -3.2384   13.6788    8.3753 C   0  0  2  0  0  0  0  0  0  0  0  0
   -2.0189   14.4342    8.5390 O   0  0  0  0  0  0  0  0  0  0  0  0
   -3.6176   17.7165    6.0556 C   0  0  0  0  0  0  0  0  0  0  0  0
   -4.7084   16.8065    5.5557 O   0  0  0  0  0  0  0  0  0  0  0  0
   -0.7032   11.4586    7.3657 C   0  0  0  0  0  0  0  0  0  0  0  0
    0.7337   11.4511    7.1942 O   0  0  0  0  0  0  0  0  0  0  0  0
   -4.2310   14.4869    7.4604 C   0  0  1  0  0  0  0  0  0  0  0  0
   -3.6171   14.6819    6.2252 O   0  0  0  0  0  0  0  0  0  0  0  0
   -1.4092   18.7465    5.5702 C   0  0  0  0  0  0  0  0  0  0  0  0
    0.0986   15.3146    3.5156 C   0  0  0  0  0  0  0  0  0  0  0  0
  1  2  1  6  0  0  0
  1  6  1  0  0  0  0
  1 21  1  0  0  0  0
  3  4  1  6  0  0  0
  3  8  1  0  0  0  0
  3 28  1  0  0  0  0
  5  9  1  0  0  0  0
  5 25  1  0  0  0  0
  5 29  1  1  0  0  0
  6  7  1  1  0  0  0
  6 11  1  0  0  0  0
  8 12  1  0  0  0  0
  9 10  1  1  0  0  0
  9 14  1  0  0  0  0
 11 16  1  0  0  0  0
 12 13  1  1  0  0  0
 12 17  1  0  0  0  0
 14 15  1  6  0  0  0
 14 18  1  0  0  0  0
 15 31  1  0  0  0  0
 16 20  1  0  0  0  0
 17  2  1  1  0  0  0
 17 22  1  0  0  0  0
 18 19  1  6  0  0  0
 18 24  1  0  0  0  0
 18 30  1  0  0  0  0
 20 21  1  0  0  0  0
 20 26  1  1  0  0  0
 22 23  1  1  0  0  0
 22 28  1  0  0  0  0
 24 25  1  0  0  0  0
 26 27  1  0  0  0  0
 28 29  1  6  0  0  0
M  END
>  <CHROM.1>
-179.78626425,174.92936798,-88.10584419,42.52306316,19.09803398,62.04481224
-2.82976107,14.04680616,7.48544307,1.53766895,-0.29424229,2.26557750

>  <Name>
ligand

>  <RI>
0

>  <Rbt.Current_Directory>
/home/itssahil/PROJECTS/Mol_Feturizer/New_Systems/rnas/4GPX

>  <Rbt.Executable>
rbdock ($Id: //depot/dev/client3/rdock/2013.1/src/exe/rbdock.cxx#4 $)

>  <Rbt.Library>
libRbt.so (2013.1, Build901 2013/11/27)

>  <Rbt.Parameter_File>
/export/apps/rDock/src/rDock_2013.1_src/data/scripts/dock_solv.prm

>  <Rbt.Receptor>
prm/pocket_docking_5.prm

>  <SCORE>
-13.2586

>  <SCORE.INTER>
-6.70636

>  <SCORE.INTER.CONST>
1

>  <SCORE.INTER.POLAR>
0

>  <SCORE.INTER.ROT>
6

>  <SCORE.INTER.SOLV>
16.1167

>  <SCORE.INTER.VDW>
-17.4431

>  <SCORE.INTER.norm>
-0.216334

>  <SCORE.INTRA>
-6.55222

>  <SCORE.INTRA.DIHEDRAL>
-16.4572

>  <SCORE.INTRA.DIHEDRAL.0>
20.6841

>  <SCORE.INTRA.POLAR>
0

>  <SCORE.INTRA.POLAR.0>
0

>  <SCORE.INTRA.REPUL>
0

>  <SCORE.INTRA.REPUL.0>
0

>  <SCORE.INTRA.SOLV>
-0.384511

>  <SCORE.INTRA.SOLV.lig_0>
-64.6797

>  <SCORE.INTRA.VDW>
1.86866

>  <SCORE.INTRA.VDW.0>
-4.11825

>  <SCORE.INTRA.norm>
-0.211362

>  <SCORE.RESTR>
0

>  <SCORE.RESTR.CAVITY>
0

>  <SCORE.RESTR.norm>
0

>  <SCORE.SYSTEM>
0

>  <SCORE.SYSTEM.CONST>
0

>  <SCORE.SYSTEM.DIHEDRAL>
0

>  <SCORE.SYSTEM.SOLV>
0

>  <SCORE.SYSTEM.norm>
0

>  <SCORE.heavy>
31

>  <SCORE.norm>
-0.427696

>  <RMSD>
7.371

$$$$
ligand
 OpenBabel11021811493D
libRbt.so/2013.1/901 2013/11/27
 31 33  0  0  0  0  0  0  0  0999 V2000
   -2.8915   11.5769   11.4354 C   0  0  2  0  0  0  0  0  0  0  0  0
   -3.1345   12.9803   11.4123 O   0  0  0  0  0  0  0  0  0  0  0  0
   -6.0229   13.3906    8.3183 C   0  0  2  0  0  0  0  0  0  0  0  0
   -7.0049   13.9864    7.4654 N   0  0  0  0  0  0  0  0  0  0  0  0
   -4.9839   14.6212    5.7245 C   0  0  2  0  0  0  0  0  0  0  0  0
   -1.9175   11.3084   12.6541 C   0  0  2  0  0  0  0  0  0  0  0  0
   -2.5611   11.7704   13.8795 N   0  0  0  0  0  0  0  0  0  0  0  0
   -6.5302   13.4991    9.8153 C   0  0  0  0  0  0  0  0  0  0  0  0
   -4.1121   14.3374    4.4603 C   0  0  2  0  0  0  0  0  0  0  0  0
   -3.8991   12.9449    4.3703 O   0  0  0  0  0  0  0  0  0  0  0  0
   -0.5404   12.0522   12.4323 C   0  0  0  0  0  0  0  0  0  0  0  0
   -5.4503   12.8464   10.7574 C   0  0  2  0  0  0  0  0  0  0  0  0
   -5.9141   12.9492   12.1517 N   0  0  0  0  0  0  0  0  0  0  0  0
   -2.7494   15.1059    4.6505 C   0  0  1  0  0  0  0  0  0  0  0  0
   -1.8573   14.8545    3.4707 N   0  0  0  0  0  0  0  0  0  0  0  0
   -0.0791   12.0271   10.9137 C   0  0  0  0  0  0  0  0  0  0  0  0
   -4.0576   13.5984   10.5831 C   0  0  2  0  0  0  0  0  0  0  0  0
   -3.0804   16.6994    4.7483 C   0  0  1  0  0  0  0  0  0  0  0  0
   -3.7559   17.1803    3.5985 O   0  0  0  0  0  0  0  0  0  0  0  0
   -0.9156   11.5930    9.9341 C   0  0  2  0  0  0  0  0  0  0  0  0
   -2.2459   11.1368   10.2052 O   0  0  0  0  0  0  0  0  0  0  0  0
   -3.5826   13.4836    9.0873 C   0  0  2  0  0  0  0  0  0  0  0  0
   -2.3249   14.1763    8.9362 O   0  0  0  0  0  0  0  0  0  0  0  0
   -4.0113   16.9748    5.9736 C   0  0  0  0  0  0  0  0  0  0  0  0
   -5.2395   16.1097    5.8685 O   0  0  0  0  0  0  0  0  0  0  0  0
   -0.5162   11.5477    8.4579 C   0  0  0  0  0  0  0  0  0  0  0  0
   -0.6274   10.1781    8.0040 O   0  0  0  0  0  0  0  0  0  0  0  0
   -4.6622   14.1603    8.1642 C   0  0  1  0  0  0  0  0  0  0  0  0
   -4.2197   14.0708    6.8463 O   0  0  0  0  0  0  0  0  0  0  0  0
   -1.8448   17.6122    4.9375 C   0  0  0  0  0  0  0  0  0  0  0  0
   -0.8558   13.7782    3.6152 C   0  0  0  0  0  0  0  0  0  0  0  0
  1  2  1  6  0  0  0
  1  6  1  0  0  0  0
  1 21  1  0  0  0  0
  3  4  1  6  0  0  0
  3  8  1  0  0  0  0
  3 28  1  0  0  0  0
  5  9  1  0  0  0  0
  5 25  1  0  0  0  0
  5 29  1  1  0  0  0
  6  7  1  1  0  0  0
  6 11  1  0  0  0  0
  8 12  1  0  0  0  0
  9 10  1  1  0  0  0
  9 14  1  0  0  0  0
 11 16  1  0  0  0  0
 12 13  1  1  0  0  0
 12 17  1  0  0  0  0
 14 15  1  6  0  0  0
 14 18  1  0  0  0  0
 15 31  1  0  0  0  0
 16 20  1  0  0  0  0
 17  2  1  1  0  0  0
 17 22  1  0  0  0  0
 18 19  1  6  0  0  0
 18 24  1  0  0  0  0
 18 30  1  0  0  0  0
 20 21  1  0  0  0  0
 20 26  1  1  0  0  0
 22 23  1  1  0  0  0
 22 28  1  0  0  0  0
 24 25  1  0  0  0  0
 26 27  1  0  0  0  0
 28 29  1  6  0  0  0
M  END
>  <CHROM.1>
-172.47562442,178.42259424,-96.23698054,51.47716498,120.65412253,62.07808700
-3.25329506,13.63388347,8.11392143,-1.44368459,0.38090611,-1.13200603

>  <Name>
ligand

>  <RI>
0

>  <Rbt.Current_Directory>
/home/itssahil/PROJECTS/Mol_Feturizer/New_Systems/rnas/4GPX

>  <Rbt.Executable>
rbdock ($Id: //depot/dev/client3/rdock/2013.1/src/exe/rbdock.cxx#4 $)

>  <Rbt.Library>
libRbt.so (2013.1, Build901 2013/11/27)

>  <Rbt.Parameter_File>
/export/apps/rDock/src/rDock_2013.1_src/data/scripts/dock_solv.prm

>  <Rbt.Receptor>
prm/pocket_docking_4.prm

>  <SCORE>
-12.4784

>  <SCORE.INTER>
-4.57167

>  <SCORE.INTER.CONST>
1

>  <SCORE.INTER.POLAR>
0

>  <SCORE.INTER.ROT>
6

>  <SCORE.INTER.SOLV>
15.8976

>  <SCORE.INTER.VDW>
-15.947

>  <SCORE.INTER.norm>
-0.147473

>  <SCORE.INTRA>
-7.90673

>  <SCORE.INTRA.DIHEDRAL>
-17.5359

>  <SCORE.INTRA.DIHEDRAL.0>
20.6841

>  <SCORE.INTRA.POLAR>
0

>  <SCORE.INTRA.POLAR.0>
0

>  <SCORE.INTRA.REPUL>
0

>  <SCORE.INTRA.REPUL.0>
0

>  <SCORE.INTRA.SOLV>
-0.117376

>  <SCORE.INTRA.SOLV.lig_0>
-64.6797

>  <SCORE.INTRA.VDW>
0.919892

>  <SCORE.INTRA.VDW.0>
-4.11825

>  <SCORE.INTRA.norm>
-0.255056

>  <SCORE.RESTR>
0

>  <SCORE.RESTR.CAVITY>
0

>  <SCORE.RESTR.norm>
0

>  <SCORE.SYSTEM>
0

>  <SCORE.SYSTEM.CONST>
0

>  <SCORE.SYSTEM.DIHEDRAL>
0

>  <SCORE.SYSTEM.SOLV>
0

>  <SCORE.SYSTEM.norm>
0

>  <SCORE.heavy>
31

>  <SCORE.norm>
-0.402529

>  <RMSD>
7.392

$$$$
ligand
 OpenBabel11021811493D
libRbt.so/2013.1/901 2013/11/27
 31 33  0  0  0  0  0  0  0  0999 V2000
   -1.5815   11.4320   10.1877 C   0  0  2  0  0  0  0  0  0  0  0  0
   -2.0269   12.7068   10.6412 O   0  0  0  0  0  0  0  0  0  0  0  0
   -5.6604   13.2705    8.5048 C   0  0  2  0  0  0  0  0  0  0  0  0
   -6.9223   13.8236    8.1197 N   0  0  0  0  0  0  0  0  0  0  0  0
   -3.7546   14.0141    6.0190 C   0  0  2  0  0  0  0  0  0  0  0  0
   -0.1765   11.1765   10.8706 C   0  0  2  0  0  0  0  0  0  0  0  0
   -0.3461   11.2109   12.3195 N   0  0  0  0  0  0  0  0  0  0  0  0
   -5.7616   12.7993   10.0140 C   0  0  0  0  0  0  0  0  0  0  0  0
   -3.8903   14.8522    4.7083 C   0  0  2  0  0  0  0  0  0  0  0  0
   -3.3330   16.1288    4.9370 O   0  0  0  0  0  0  0  0  0  0  0  0
    0.8684   12.2676   10.4050 C   0  0  0  0  0  0  0  0  0  0  0  0
   -4.3733   12.1922   10.4423 C   0  0  2  0  0  0  0  0  0  0  0  0
   -4.4596   11.7572   11.8469 N   0  0  0  0  0  0  0  0  0  0  0  0
   -5.4277   14.9582    4.3787 C   0  0  1  0  0  0  0  0  0  0  0  0
   -5.6239   15.7731    3.1343 N   0  0  0  0  0  0  0  0  0  0  0  0
    0.6897   12.6606    8.8775 C   0  0  0  0  0  0  0  0  0  0  0  0
   -3.2305   13.2883   10.2742 C   0  0  2  0  0  0  0  0  0  0  0  0
   -5.9941   13.4493    4.1318 C   0  0  1  0  0  0  0  0  0  0  0  0
   -5.3140   12.7845    3.0807 O   0  0  0  0  0  0  0  0  0  0  0  0
   -0.3881   12.2365    8.1660 C   0  0  2  0  0  0  0  0  0  0  0  0
   -1.4154   11.4199    8.7399 O   0  0  0  0  0  0  0  0  0  0  0  0
   -3.1585   13.7452    8.7701 C   0  0  2  0  0  0  0  0  0  0  0  0
   -2.1273   14.7457    8.6288 O   0  0  0  0  0  0  0  0  0  0  0  0
   -5.7941   12.5888    5.4216 C   0  0  0  0  0  0  0  0  0  0  0  0
   -4.3439   12.6294    5.8257 O   0  0  0  0  0  0  0  0  0  0  0  0
   -0.6029   12.5865    6.6923 C   0  0  0  0  0  0  0  0  0  0  0  0
   -0.6110   11.3539    5.9340 O   0  0  0  0  0  0  0  0  0  0  0  0
   -4.5458   14.3688    8.3676 C   0  0  1  0  0  0  0  0  0  0  0  0
   -4.4615   14.7882    7.0418 O   0  0  0  0  0  0  0  0  0  0  0  0
   -7.5019   13.3655    3.7926 C   0  0  0  0  0  0  0  0  0  0  0  0
   -6.8556   16.5854    3.0620 C   0  0  0  0  0  0  0  0  0  0  0  0
  1  2  1  1  0  0  0
  1  6  1  0  0  0  0
  1 21  1  0  0  0  0
  3  4  1  1  0  0  0
  3  8  1  0  0  0  0
  3 28  1  0  0  0  0
  5  9  1  0  0  0  0
  5 25  1  0  0  0  0
  5 29  1  1  0  0  0
  6  7  1  1  0  0  0
  6 11  1  0  0  0  0
  8 12  1  0  0  0  0
  9 10  1  1  0  0  0
  9 14  1  0  0  0  0
 11 16  1  0  0  0  0
 12 13  1  1  0  0  0
 12 17  1  0  0  0  0
 14 15  1  6  0  0  0
 14 18  1  0  0  0  0
 15 31  1  0  0  0  0
 16 20  1  0  0  0  0
 17  2  1  6  0  0  0
 17 22  1  0  0  0  0
 18 19  1  6  0  0  0
 18 24  1  0  0  0  0
 18 30  1  0  0  0  0
 20 21  1  0  0  0  0
 20 26  1  6  0  0  0
 22 23  1  1  0  0  0
 22 28  1  0  0  0  0
 24 25  1  0  0  0  0
 26 27  1  0  0  0  0
 28 29  1  6  0  0  0
M  END
>  <CHROM.1>
-179.43831578,-179.07629077,-147.45567305,47.62395508,118.08234339,-79.42387903
-3.47898549,13.26669948,7.48119288,0.94544061,-0.18945484,1.83408855

>  <Name>
ligand

>  <RI>
0

>  <Rbt.Current_Directory>
/home/itssahil/PROJECTS/Mol_Feturizer/New_Systems/rnas/4GPX

>  <Rbt.Executable>
rbdock ($Id: //depot/dev/client3/rdock/2013.1/src/exe/rbdock.cxx#4 $)

>  <Rbt.Library>
libRbt.so (2013.1, Build901 2013/11/27)

>  <Rbt.Parameter_File>
/export/apps/rDock/src/rDock_2013.1_src/data/scripts/dock_solv.prm

>  <Rbt.Receptor>
prm/pocket_docking_3.prm

>  <SCORE>
-12.9091

>  <SCORE.INTER>
-5.96718

>  <SCORE.INTER.CONST>
1

>  <SCORE.INTER.POLAR>
0

>  <SCORE.INTER.ROT>
6

>  <SCORE.INTER.SOLV>
20.0537

>  <SCORE.INTER.VDW>
-18.2627

>  <SCORE.INTER.norm>
-0.19249

>  <SCORE.INTRA>
-6.94194

>  <SCORE.INTRA.DIHEDRAL>
-15.8659

>  <SCORE.INTRA.DIHEDRAL.0>
20.6841

>  <SCORE.INTRA.POLAR>
0

>  <SCORE.INTRA.POLAR.0>
0

>  <SCORE.INTRA.REPUL>
0.016063

>  <SCORE.INTRA.REPUL.0>
0

>  <SCORE.INTRA.SOLV>
0.369985

>  <SCORE.INTRA.SOLV.lig_0>
-64.6797

>  <SCORE.INTRA.VDW>
0.725687

>  <SCORE.INTRA.VDW.0>
-4.11825

>  <SCORE.INTRA.norm>
-0.223933

>  <SCORE.RESTR>
0

>  <SCORE.RESTR.CAVITY>
0

>  <SCORE.RESTR.norm>
0

>  <SCORE.SYSTEM>
0

>  <SCORE.SYSTEM.CONST>
0

>  <SCORE.SYSTEM.DIHEDRAL>
0

>  <SCORE.SYSTEM.SOLV>
0

>  <SCORE.SYSTEM.norm>
0

>  <SCORE.heavy>
31

>  <SCORE.norm>
-0.416423

>  <RMSD>
7.430

$$$$
ligand
 OpenBabel11021811493D
libRbt.so/2013.1/901 2013/11/27
 31 33  0  0  0  0  0  0  0  0999 V2000
   -5.0806   12.5823   12.0831 C   0  0  2  0  0  0  0  0  0  0  0  0
   -4.5379   11.5872   11.2203 O   0  0  0  0  0  0  0  0  0  0  0  0
   -1.8046   13.8024    8.8315 C   0  0  2  0  0  0  0  0  0  0  0  0
   -0.8154   14.0950    7.8402 N   0  0  0  0  0  0  0  0  0  0  0  0
   -4.1403   15.4361    7.6900 C   0  0  2  0  0  0  0  0  0  0  0  0
   -5.8786   11.8124   13.2129 C   0  0  2  0  0  0  0  0  0  0  0  0
   -4.9578   10.9250   13.9156 N   0  0  0  0  0  0  0  0  0  0  0  0
   -1.2036   12.7355    9.8367 C   0  0  0  0  0  0  0  0  0  0  0  0
   -5.0845   15.9046    6.5378 C   0  0  2  0  0  0  0  0  0  0  0  0
   -6.0759   14.9182    6.3462 O   0  0  0  0  0  0  0  0  0  0  0  0
   -7.0725   10.9912   12.5812 C   0  0  0  0  0  0  0  0  0  0  0  0
   -2.2909   12.4091   10.9280 C   0  0  2  0  0  0  0  0  0  0  0  0
   -1.7396   11.4132   11.8627 N   0  0  0  0  0  0  0  0  0  0  0  0
   -4.1975   16.0720    5.2459 C   0  0  1  0  0  0  0  0  0  0  0  0
   -5.0565   16.5038    4.0941 N   0  0  0  0  0  0  0  0  0  0  0  0
   -7.7682   11.7642   11.3820 C   0  0  0  0  0  0  0  0  0  0  0  0
   -3.6034   11.8407   10.2282 C   0  0  2  0  0  0  0  0  0  0  0  0
   -3.0809   17.2209    5.5483 C   0  0  1  0  0  0  0  0  0  0  0  0
   -3.6677   18.4619    5.9017 O   0  0  0  0  0  0  0  0  0  0  0  0
   -7.2203   12.8960   10.8657 C   0  0  2  0  0  0  0  0  0  0  0  0
   -5.9992   13.4553   11.3633 O   0  0  0  0  0  0  0  0  0  0  0  0
   -4.1730   12.9149    9.2293 C   0  0  2  0  0  0  0  0  0  0  0  0
   -5.3565   12.3876    8.5922 O   0  0  0  0  0  0  0  0  0  0  0  0
   -2.1795   16.7835    6.7483 C   0  0  0  0  0  0  0  0  0  0  0  0
   -3.0515   16.4641    7.9338 O   0  0  0  0  0  0  0  0  0  0  0  0
   -7.8542   13.6769    9.7129 C   0  0  0  0  0  0  0  0  0  0  0  0
   -8.1411   15.0158   10.1812 O   0  0  0  0  0  0  0  0  0  0  0  0
   -3.0823   13.2111    8.1347 C   0  0  1  0  0  0  0  0  0  0  0  0
   -3.6067   14.1466    7.2456 O   0  0  0  0  0  0  0  0  0  0  0  0
   -2.1154   17.5174    4.3754 C   0  0  0  0  0  0  0  0  0  0  0  0
   -5.9139   15.4679    3.4826 C   0  0  0  0  0  0  0  0  0  0  0  0
  1  2  1  6  0  0  0
  1  6  1  0  0  0  0
  1 21  1  0  0  0  0
  3  4  1  6  0  0  0
  3  8  1  0  0  0  0
  3 28  1  0  0  0  0
  5  9  1  0  0  0  0
  5 25  1  0  0  0  0
  5 29  1  6  0  0  0
  6  7  1  6  0  0  0
  6 11  1  0  0  0  0
  8 12  1  0  0  0  0
  9 10  1  6  0  0  0
  9 14  1  0  0  0  0
 11 16  1  0  0  0  0
 12 13  1  1  0  0  0
 12 17  1  0  0  0  0
 14 15  1  6  0  0  0
 14 18  1  0  0  0  0
 15 31  1  0  0  0  0
 16 20  1  0  0  0  0
 17  2  1  1  0  0  0
 17 22  1  0  0  0  0
 18 19  1  1  0  0  0
 18 24  1  0  0  0  0
 18 30  1  0  0  0  0
 20 21  1  0  0  0  0
 20 26  1  1  0  0  0
 22 23  1  6  0  0  0
 22 28  1  0  0  0  0
 24 25  1  0  0  0  0
 26 27  1  0  0  0  0
 28 29  1  6  0  0  0
M  END
>  <CHROM.1>
-169.53829795,-158.81320581,-75.32860077,61.63476930,119.97856684,-63.93349398
-4.44341901,14.04163310,8.78222648,-1.78508353,0.04216508,-0.93818007

>  <Name>
ligand

>  <RI>
0

>  <Rbt.Current_Directory>
/home/itssahil/PROJECTS/Mol_Feturizer/New_Systems/rnas/4GPX

>  <Rbt.Executable>
rbdock ($Id: //depot/dev/client3/rdock/2013.1/src/exe/rbdock.cxx#4 $)

>  <Rbt.Library>
libRbt.so (2013.1, Build901 2013/11/27)

>  <Rbt.Parameter_File>
/export/apps/rDock/src/rDock_2013.1_src/data/scripts/dock_solv.prm

>  <Rbt.Receptor>
prm/pocket_docking_4.prm

>  <SCORE>
-13.7414

>  <SCORE.INTER>
-7.13132

>  <SCORE.INTER.CONST>
1

>  <SCORE.INTER.POLAR>
0

>  <SCORE.INTER.ROT>
6

>  <SCORE.INTER.SOLV>
12.7934

>  <SCORE.INTER.VDW>
-16.6187

>  <SCORE.INTER.norm>
-0.230042

>  <SCORE.INTRA>
-6.61008

>  <SCORE.INTRA.DIHEDRAL>
-16.1933

>  <SCORE.INTRA.DIHEDRAL.0>
20.6841

>  <SCORE.INTRA.POLAR>
0

>  <SCORE.INTRA.POLAR.0>
0

>  <SCORE.INTRA.REPUL>
0

>  <SCORE.INTRA.REPUL.0>
0

>  <SCORE.INTRA.SOLV>
0.656046

>  <SCORE.INTRA.SOLV.lig_0>
-64.6797

>  <SCORE.INTRA.VDW>
1.15854

>  <SCORE.INTRA.VDW.0>
-4.11825

>  <SCORE.INTRA.norm>
-0.213228

>  <SCORE.RESTR>
0

>  <SCORE.RESTR.CAVITY>
0

>  <SCORE.RESTR.norm>
0

>  <SCORE.SYSTEM>
0

>  <SCORE.SYSTEM.CONST>
0

>  <SCORE.SYSTEM.DIHEDRAL>
0

>  <SCORE.SYSTEM.SOLV>
0

>  <SCORE.SYSTEM.norm>
0

>  <SCORE.heavy>
31

>  <SCORE.norm>
-0.443271

>  <RMSD>
7.487

$$$$
ligand
 OpenBabel11021811493D
libRbt.so/2013.1/901 2013/11/27
 31 33  0  0  0  0  0  0  0  0999 V2000
   -3.1930   11.5076   11.6533 C   0  0  2  0  0  0  0  0  0  0  0  0
   -3.6295   12.8459   11.8714 O   0  0  0  0  0  0  0  0  0  0  0  0
   -6.6245   13.3746    8.8991 C   0  0  2  0  0  0  0  0  0  0  0  0
   -7.7175   13.9519    8.1787 N   0  0  0  0  0  0  0  0  0  0  0  0
   -4.4120   13.6272    6.7656 C   0  0  2  0  0  0  0  0  0  0  0  0
   -1.9957   11.2550   12.6576 C   0  0  2  0  0  0  0  0  0  0  0  0
   -2.4764   11.4562   14.0205 N   0  0  0  0  0  0  0  0  0  0  0  0
   -7.1038   13.0774   10.3796 C   0  0  0  0  0  0  0  0  0  0  0  0
   -3.6774   14.4162    5.6357 C   0  0  2  0  0  0  0  0  0  0  0  0
   -2.7282   15.2717    6.2354 O   0  0  0  0  0  0  0  0  0  0  0  0
   -0.7947   12.2324   12.3393 C   0  0  0  0  0  0  0  0  0  0  0  0
   -5.9023   12.4442   11.1763 C   0  0  2  0  0  0  0  0  0  0  0  0
   -6.3405   12.1706   12.5557 N   0  0  0  0  0  0  0  0  0  0  0  0
   -4.7701   15.2428    4.8570 C   0  0  1  0  0  0  0  0  0  0  0  0
   -4.1193   16.0410    3.7660 N   0  0  0  0  0  0  0  0  0  0  0  0
   -0.6033   12.4650   10.7808 C   0  0  0  0  0  0  0  0  0  0  0  0
   -4.6678   13.4500   11.1796 C   0  0  2  0  0  0  0  0  0  0  0  0
   -5.8248   14.1876    4.1994 C   0  0  1  0  0  0  0  0  0  0  0  0
   -5.1922   13.2689    3.3247 O   0  0  0  0  0  0  0  0  0  0  0  0
   -1.5273   12.0228    9.8873 C   0  0  2  0  0  0  0  0  0  0  0  0
   -2.7142   11.3287   10.2885 O   0  0  0  0  0  0  0  0  0  0  0  0
   -4.2191   13.7353    9.6986 C   0  0  2  0  0  0  0  0  0  0  0  0
   -3.1066   14.6554    9.7106 O   0  0  0  0  0  0  0  0  0  0  0  0
   -6.5093   13.3480    5.3266 C   0  0  0  0  0  0  0  0  0  0  0  0
   -5.4487   12.6924    6.1711 O   0  0  0  0  0  0  0  0  0  0  0  0
   -1.3861   12.2205    8.3768 C   0  0  0  0  0  0  0  0  0  0  0  0
   -0.6652   13.4548    8.1505 O   0  0  0  0  0  0  0  0  0  0  0  0
   -5.4242   14.3876    8.9255 C   0  0  1  0  0  0  0  0  0  0  0  0
   -5.0072   14.6544    7.6233 O   0  0  0  0  0  0  0  0  0  0  0  0
   -6.9753   14.8334    3.3901 C   0  0  0  0  0  0  0  0  0  0  0  0
   -3.6151   17.3795    4.1353 C   0  0  0  0  0  0  0  0  0  0  0  0
  1  2  1  6  0  0  0
  1  6  1  0  0  0  0
  1 21  1  0  0  0  0
  3  4  1  6  0  0  0
  3  8  1  0  0  0  0
  3 28  1  0  0  0  0
  5  9  1  0  0  0  0
  5 25  1  0  0  0  0
  5 29  1  1  0  0  0
  6  7  1  1  0  0  0
  6 11  1  0  0  0  0
  8 12  1  0  0  0  0
  9 10  1  1  0  0  0
  9 14  1  0  0  0  0
 11 16  1  0  0  0  0
 12 13  1  1  0  0  0
 12 17  1  0  0  0  0
 14 15  1  6  0  0  0
 14 18  1  0  0  0  0
 15 31  1  0  0  0  0
 16 20  1  0  0  0  0
 17  2  1  1  0  0  0
 17 22  1  0  0  0  0
 18 19  1  6  0  0  0
 18 24  1  0  0  0  0
 18 30  1  0  0  0  0
 20 21  1  0  0  0  0
 20 26  1  6  0  0  0
 22 23  1  1  0  0  0
 22 28  1  0  0  0  0
 24 25  1  0  0  0  0
 26 27  1  0  0  0  0
 28 29  1  6  0  0  0
M  END
>  <CHROM.1>
179.94962769,-161.69142052,-87.53565073,47.80858920,-31.17284411,-65.37829326
-4.11560457,13.46863817,8.41628546,1.28029075,-0.00073906,1.92699092

>  <Name>
ligand

>  <RI>
0

>  <Rbt.Current_Directory>
/home/itssahil/PROJECTS/Mol_Feturizer/New_Systems/rnas/4GPX

>  <Rbt.Executable>
rbdock ($Id: //depot/dev/client3/rdock/2013.1/src/exe/rbdock.cxx#4 $)

>  <Rbt.Library>
libRbt.so (2013.1, Build901 2013/11/27)

>  <Rbt.Parameter_File>
/export/apps/rDock/src/rDock_2013.1_src/data/scripts/dock_solv.prm

>  <Rbt.Receptor>
prm/pocket_docking_3.prm

>  <SCORE>
-13.0538

>  <SCORE.INTER>
-6.58589

>  <SCORE.INTER.CONST>
1

>  <SCORE.INTER.POLAR>
0

>  <SCORE.INTER.ROT>
6

>  <SCORE.INTER.SOLV>
18.6167

>  <SCORE.INTER.VDW>
-18.1962

>  <SCORE.INTER.norm>
-0.212448

>  <SCORE.INTRA>
-6.46791

>  <SCORE.INTRA.DIHEDRAL>
-15.0655

>  <SCORE.INTRA.DIHEDRAL.0>
20.6841

>  <SCORE.INTRA.POLAR>
0

>  <SCORE.INTRA.POLAR.0>
0

>  <SCORE.INTRA.REPUL>
0

>  <SCORE.INTRA.REPUL.0>
0

>  <SCORE.INTRA.SOLV>
0.815192

>  <SCORE.INTRA.SOLV.lig_0>
-64.6797

>  <SCORE.INTRA.VDW>
0.657258

>  <SCORE.INTRA.VDW.0>
-4.11825

>  <SCORE.INTRA.norm>
-0.208642

>  <SCORE.RESTR>
0

>  <SCORE.RESTR.CAVITY>
0

>  <SCORE.RESTR.norm>
0

>  <SCORE.SYSTEM>
0

>  <SCORE.SYSTEM.CONST>
0

>  <SCORE.SYSTEM.DIHEDRAL>
0

>  <SCORE.SYSTEM.SOLV>
0

>  <SCORE.SYSTEM.norm>
0

>  <SCORE.heavy>
31

>  <SCORE.norm>
-0.421091

>  <RMSD>
7.489

$$$$
ligand
 OpenBabel11021811493D
libRbt.so/2013.1/901 2013/11/27
 31 33  0  0  0  0  0  0  0  0999 V2000
    0.1046   11.0389    8.3116 C   0  0  2  0  0  0  0  0  0  0  0  0
   -1.0892   10.8419    9.0633 O   0  0  0  0  0  0  0  0  0  0  0  0
   -5.1054   12.2266    8.8710 C   0  0  2  0  0  0  0  0  0  0  0  0
   -6.2264   13.1139    8.9265 N   0  0  0  0  0  0  0  0  0  0  0  0
   -5.5122   13.8672    6.0492 C   0  0  2  0  0  0  0  0  0  0  0  0
    0.9511    9.7087    8.4538 C   0  0  2  0  0  0  0  0  0  0  0  0
    0.1619    8.5936    7.9411 N   0  0  0  0  0  0  0  0  0  0  0  0
   -4.3941   12.2318   10.2865 C   0  0  0  0  0  0  0  0  0  0  0  0
   -4.8510   14.2760    4.6949 C   0  0  2  0  0  0  0  0  0  0  0  0
   -4.8853   13.1617    3.8289 O   0  0  0  0  0  0  0  0  0  0  0  0
    1.3446    9.4656    9.9654 C   0  0  0  0  0  0  0  0  0  0  0  0
   -3.1579   11.2581   10.2283 C   0  0  2  0  0  0  0  0  0  0  0  0
   -2.4890   11.2630   11.5406 N   0  0  0  0  0  0  0  0  0  0  0  0
   -3.3663   14.7010    5.0095 C   0  0  1  0  0  0  0  0  0  0  0  0
   -2.6700   15.0876    3.7380 N   0  0  0  0  0  0  0  0  0  0  0  0
    1.6925   10.8166   10.7227 C   0  0  0  0  0  0  0  0  0  0  0  0
   -2.1483   11.7359    9.0934 C   0  0  2  0  0  0  0  0  0  0  0  0
   -3.4130   15.9855    6.0125 C   0  0  1  0  0  0  0  0  0  0  0  0
   -4.1260   17.0771    5.4562 O   0  0  0  0  0  0  0  0  0  0  0  0
    1.4523   12.0245   10.1476 C   0  0  2  0  0  0  0  0  0  0  0  0
    0.8792   12.1539    8.8414 O   0  0  0  0  0  0  0  0  0  0  0  0
   -2.8824   11.7308    7.7016 C   0  0  2  0  0  0  0  0  0  0  0  0
   -1.9631   12.1746    6.6806 O   0  0  0  0  0  0  0  0  0  0  0  0
   -4.1381   15.5960    7.3416 C   0  0  0  0  0  0  0  0  0  0  0  0
   -5.4974   15.0336    7.0194 O   0  0  0  0  0  0  0  0  0  0  0  0
    1.7725   13.3528   10.8360 C   0  0  0  0  0  0  0  0  0  0  0  0
    0.5272   14.0562   11.0571 O   0  0  0  0  0  0  0  0  0  0  0  0
   -4.0996   12.7252    7.7721 C   0  0  1  0  0  0  0  0  0  0  0  0
   -4.7273   12.7273    6.5284 O   0  0  0  0  0  0  0  0  0  0  0  0
   -2.0289   16.5396    6.4282 C   0  0  0  0  0  0  0  0  0  0  0  0
   -1.2833   14.6068    3.5698 C   0  0  0  0  0  0  0  0  0  0  0  0
  1  2  1  1  0  0  0
  1  6  1  0  0  0  0
  1 21  1  0  0  0  0
  3  4  1  1  0  0  0
  3  8  1  0  0  0  0
  3 28  1  0  0  0  0
  5  9  1  0  0  0  0
  5 25  1  0  0  0  0
  5 29  1  1  0  0  0
  6  7  1  1  0  0  0
  6 11  1  0  0  0  0
  8 12  1  0  0  0  0
  9 10  1  6  0  0  0
  9 14  1  0  0  0  0
 11 16  1  0  0  0  0
 12 13  1  1  0  0  0
 12 17  1  0  0  0  0
 14 15  1  6  0  0  0
 14 18  1  0  0  0  0
 15 31  1  0  0  0  0
 16 20  1  0  0  0  0
 17  2  1  6  0  0  0
 17 22  1  0  0  0  0
 18 19  1  6  0  0  0
 18 24  1  0  0  0  0
 18 30  1  0  0  0  0
 20 21  1  0  0  0  0
 20 26  1  6  0  0  0
 22 23  1  6  0  0  0
 22 28  1  0  0  0  0
 24 25  1  0  0  0  0
 26 27  1  0  0  0  0
 28 29  1  6  0  0  0
M  END
>  <CHROM.1>
-174.07160115,123.02069571,-137.71334566,-170.68790978,-116.06217091,86.59740989
-2.29118854,12.90825214,7.78659320,-0.87955828,0.08477645,-0.92698581

>  <Name>
ligand

>  <RI>
0

>  <Rbt.Current_Directory>
/home/itssahil/PROJECTS/Mol_Feturizer/New_Systems/rnas/4GPX

>  <Rbt.Executable>
rbdock ($Id: //depot/dev/client3/rdock/2013.1/src/exe/rbdock.cxx#4 $)

>  <Rbt.Library>
libRbt.so (2013.1, Build901 2013/11/27)

>  <Rbt.Parameter_File>
/export/apps/rDock/src/rDock_2013.1_src/data/scripts/dock_solv.prm

>  <Rbt.Receptor>
prm/pocket_docking_3.prm

>  <SCORE>
-8.76675

>  <SCORE.INTER>
-5.73725

>  <SCORE.INTER.CONST>
1

>  <SCORE.INTER.POLAR>
0

>  <SCORE.INTER.ROT>
6

>  <SCORE.INTER.SOLV>
16.7801

>  <SCORE.INTER.VDW>
-17.0182

>  <SCORE.INTER.norm>
-0.185072

>  <SCORE.INTRA>
-3.0295

>  <SCORE.INTRA.DIHEDRAL>
-7.30727

>  <SCORE.INTRA.DIHEDRAL.0>
20.6841

>  <SCORE.INTRA.POLAR>
0

>  <SCORE.INTRA.POLAR.0>
0

>  <SCORE.INTRA.REPUL>
0

>  <SCORE.INTRA.REPUL.0>
0

>  <SCORE.INTRA.SOLV>
-0.232623

>  <SCORE.INTRA.SOLV.lig_0>
-64.6797

>  <SCORE.INTRA.VDW>
0.740442

>  <SCORE.INTRA.VDW.0>
-4.11825

>  <SCORE.INTRA.norm>
-0.0977259

>  <SCORE.RESTR>
0

>  <SCORE.RESTR.CAVITY>
0

>  <SCORE.RESTR.norm>
0

>  <SCORE.SYSTEM>
0

>  <SCORE.SYSTEM.CONST>
0

>  <SCORE.SYSTEM.DIHEDRAL>
0

>  <SCORE.SYSTEM.SOLV>
0

>  <SCORE.SYSTEM.norm>
0

>  <SCORE.heavy>
31

>  <SCORE.norm>
-0.282798

>  <RMSD>
7.497

$$$$
ligand
 OpenBabel11021811493D
libRbt.so/2013.1/901 2013/11/27
 31 33  0  0  0  0  0  0  0  0999 V2000
   -0.9046   10.3280    9.2008 C   0  0  2  0  0  0  0  0  0  0  0  0
   -0.8965   11.7525    9.1999 O   0  0  0  0  0  0  0  0  0  0  0  0
   -2.9550   12.7393    5.6121 C   0  0  2  0  0  0  0  0  0  0  0  0
   -3.6645   13.5086    4.6365 N   0  0  0  0  0  0  0  0  0  0  0  0
   -1.2112   14.1528    3.4917 C   0  0  2  0  0  0  0  0  0  0  0  0
   -0.1173    9.8738   10.4969 C   0  0  2  0  0  0  0  0  0  0  0  0
   -0.7887   10.4235   11.6701 N   0  0  0  0  0  0  0  0  0  0  0  0
   -3.7824   12.7613    6.9630 C   0  0  0  0  0  0  0  0  0  0  0  0
   -0.0523   13.9670    2.4617 C   0  0  2  0  0  0  0  0  0  0  0  0
    0.0863   12.5884    2.1918 O   0  0  0  0  0  0  0  0  0  0  0  0
    1.3832   10.3667   10.4305 C   0  0  0  0  0  0  0  0  0  0  0  0
   -3.0030   11.9176    8.0402 C   0  0  2  0  0  0  0  0  0  0  0  0
   -3.7650   11.9390    9.3005 N   0  0  0  0  0  0  0  0  0  0  0  0
    1.2562   14.5475    3.1211 C   0  0  1  0  0  0  0  0  0  0  0  0
    2.4142   14.3788    2.1821 N   0  0  0  0  0  0  0  0  0  0  0  0
    1.9808   10.2836    8.9623 C   0  0  0  0  0  0  0  0  0  0  0  0
   -1.5524   12.5355    8.2628 C   0  0  2  0  0  0  0  0  0  0  0  0
    1.0153   16.1352    3.4028 C   0  0  1  0  0  0  0  0  0  0  0  0
    0.7062   16.8510    2.2189 O   0  0  0  0  0  0  0  0  0  0  0  0
    1.1826   10.0184    7.8945 C   0  0  2  0  0  0  0  0  0  0  0  0
   -0.2270    9.7996    8.0237 O   0  0  0  0  0  0  0  0  0  0  0  0
   -0.7572   12.5105    6.9051 C   0  0  2  0  0  0  0  0  0  0  0  0
    0.5524   13.0814    7.1138 O   0  0  0  0  0  0  0  0  0  0  0  0
   -0.1906   16.3248    4.3794 C   0  0  0  0  0  0  0  0  0  0  0  0
   -1.3990   15.6224    3.8187 O   0  0  0  0  0  0  0  0  0  0  0  0
    1.7118    9.9257    6.4620 C   0  0  0  0  0  0  0  0  0  0  0  0
    0.5845   10.0187    5.5594 O   0  0  0  0  0  0  0  0  0  0  0  0
   -1.5388   13.3762    5.8492 C   0  0  1  0  0  0  0  0  0  0  0  0
   -0.8139   13.3633    4.6596 O   0  0  0  0  0  0  0  0  0  0  0  0
    2.2112   16.8714    4.0536 C   0  0  0  0  0  0  0  0  0  0  0  0
    3.2309   13.1594    2.3503 C   0  0  0  0  0  0  0  0  0  0  0  0
  1  2  1  6  0  0  0
  1  6  1  0  0  0  0
  1 21  1  0  0  0  0
  3  4  1  6  0  0  0
  3  8  1  0  0  0  0
  3 28  1  0  0  0  0
  5  9  1  0  0  0  0
  5 25  1  0  0  0  0
  5 29  1  1  0  0  0
  6  7  1  1  0  0  0
  6 11  1  0  0  0  0
  8 12  1  0  0  0  0
  9 10  1  1  0  0  0
  9 14  1  0  0  0  0
 11 16  1  0  0  0  0
 12 13  1  1  0  0  0
 12 17  1  0  0  0  0
 14 15  1  6  0  0  0
 14 18  1  0  0  0  0
 15 31  1  0  0  0  0
 16 20  1  0  0  0  0
 17  2  1  1  0  0  0
 17 22  1  0  0  0  0
 18 19  1  6  0  0  0
 18 24  1  0  0  0  0
 18 30  1  0  0  0  0
 20 21  1  0  0  0  0
 20 26  1  1  0  0  0
 22 23  1  1  0  0  0
 22 28  1  0  0  0  0
 24 25  1  0  0  0  0
 26 27  1  0  0  0  0
 28 29  1  6  0  0  0
M  END
>  <CHROM.1>
-176.17669595,173.89149051,-93.49636460,44.06338578,-163.81047202,65.78937968
-0.27305447,12.75546240,6.05629028,-1.73809485,0.32392434,-0.90653758

>  <Name>
ligand

>  <RI>
0

>  <Rbt.Current_Directory>
/home/itssahil/PROJECTS/Mol_Feturizer/New_Systems/rnas/4GPX

>  <Rbt.Executable>
rbdock ($Id: //depot/dev/client3/rdock/2013.1/src/exe/rbdock.cxx#4 $)

>  <Rbt.Library>
libRbt.so (2013.1, Build901 2013/11/27)

>  <Rbt.Parameter_File>
/export/apps/rDock/src/rDock_2013.1_src/data/scripts/dock_solv.prm

>  <Rbt.Receptor>
prm/pocket_docking_8.prm

>  <SCORE>
-14.7927

>  <SCORE.INTER>
-7.98605

>  <SCORE.INTER.CONST>
1

>  <SCORE.INTER.POLAR>
0

>  <SCORE.INTER.ROT>
6

>  <SCORE.INTER.SOLV>
13.9088

>  <SCORE.INTER.VDW>
-17.5603

>  <SCORE.INTER.norm>
-0.257615

>  <SCORE.INTRA>
-6.80664

>  <SCORE.INTRA.DIHEDRAL>
-15.0851

>  <SCORE.INTRA.DIHEDRAL.0>
20.6841

>  <SCORE.INTRA.POLAR>
0

>  <SCORE.INTRA.POLAR.0>
0

>  <SCORE.INTRA.REPUL>
0

>  <SCORE.INTRA.REPUL.0>
0

>  <SCORE.INTRA.SOLV>
0.307479

>  <SCORE.INTRA.SOLV.lig_0>
-64.6797

>  <SCORE.INTRA.VDW>
0.582173

>  <SCORE.INTRA.VDW.0>
-4.11825

>  <SCORE.INTRA.norm>
-0.219569

>  <SCORE.RESTR>
0

>  <SCORE.RESTR.CAVITY>
0

>  <SCORE.RESTR.norm>
0

>  <SCORE.SYSTEM>
0

>  <SCORE.SYSTEM.CONST>
0

>  <SCORE.SYSTEM.DIHEDRAL>
0

>  <SCORE.SYSTEM.SOLV>
0

>  <SCORE.SYSTEM.norm>
0

>  <SCORE.heavy>
31

>  <SCORE.norm>
-0.477184

>  <RMSD>
7.576

$$$$
ligand
 OpenBabel11021811493D
libRbt.so/2013.1/901 2013/11/27
 31 33  0  0  0  0  0  0  0  0999 V2000
   -3.4433   15.5627   11.4505 C   0  0  2  0  0  0  0  0  0  0  0  0
   -4.3631   14.6500   10.8587 O   0  0  0  0  0  0  0  0  0  0  0  0
   -5.6957   13.8952    6.8916 C   0  0  2  0  0  0  0  0  0  0  0  0
   -6.3761   14.0696    5.6451 N   0  0  0  0  0  0  0  0  0  0  0  0
   -4.0409   15.7659    4.8066 C   0  0  2  0  0  0  0  0  0  0  0  0
   -3.2628   15.1078   12.9560 C   0  0  2  0  0  0  0  0  0  0  0  0
   -2.7601   13.7381   12.9750 N   0  0  0  0  0  0  0  0  0  0  0  0
   -6.7767   13.8562    8.0491 C   0  0  0  0  0  0  0  0  0  0  0  0
   -2.6906   15.6879    4.0261 C   0  0  2  0  0  0  0  0  0  0  0  0
   -2.3101   14.3319    3.9299 O   0  0  0  0  0  0  0  0  0  0  0  0
   -4.6374   15.2086   13.7300 C   0  0  0  0  0  0  0  0  0  0  0  0
   -6.0311   13.6670    9.4230 C   0  0  2  0  0  0  0  0  0  0  0  0
   -7.0311   13.6354   10.5041 N   0  0  0  0  0  0  0  0  0  0  0  0
   -1.6289   16.5154    4.8457 C   0  0  1  0  0  0  0  0  0  0  0  0
   -0.2994   16.4609    4.1524 N   0  0  0  0  0  0  0  0  0  0  0  0
   -5.4870   16.4745   13.2878 C   0  0  0  0  0  0  0  0  0  0  0  0
   -5.0099   14.8671    9.6520 C   0  0  2  0  0  0  0  0  0  0  0  0
   -2.1404   18.0620    4.9134 C   0  0  1  0  0  0  0  0  0  0  0  0
   -2.3128   18.6287    3.6256 O   0  0  0  0  0  0  0  0  0  0  0  0
   -5.1221   17.2233   12.2137 C   0  0  2  0  0  0  0  0  0  0  0  0
   -3.9652   16.9231   11.4244 O   0  0  0  0  0  0  0  0  0  0  0  0
   -3.9549   14.8886    8.4846 C   0  0  2  0  0  0  0  0  0  0  0  0
   -3.0396   15.9852    8.6948 O   0  0  0  0  0  0  0  0  0  0  0  0
   -3.5266   18.1324    5.6328 C   0  0  0  0  0  0  0  0  0  0  0  0
   -4.4930   17.2080    4.9403 O   0  0  0  0  0  0  0  0  0  0  0  0
   -5.9064   18.4525   11.7506 C   0  0  0  0  0  0  0  0  0  0  0  0
   -4.9694   19.5394   11.5637 O   0  0  0  0  0  0  0  0  0  0  0  0
   -4.7158   15.1008    7.1239 C   0  0  1  0  0  0  0  0  0  0  0  0
   -3.7695   15.1393    6.1023 O   0  0  0  0  0  0  0  0  0  0  0  0
   -1.2083   19.0244    5.6884 C   0  0  0  0  0  0  0  0  0  0  0  0
    0.5330   15.2679    4.4093 C   0  0  0  0  0  0  0  0  0  0  0  0
  1  2  1  1  0  0  0
  1  6  1  0  0  0  0
  1 21  1  0  0  0  0
  3  4  1  6  0  0  0
  3  8  1  0  0  0  0
  3 28  1  0  0  0  0
  5  9  1  0  0  0  0
  5 25  1  0  0  0  0
  5 29  1  1  0  0  0
  6  7  1  6  0  0  0
  6 11  1  0  0  0  0
  8 12  1  0  0  0  0
  9 10  1  1  0  0  0
  9 14  1  0  0  0  0
 11 16  1  0  0  0  0
 12 13  1  1  0  0  0
 12 17  1  0  0  0  0
 14 15  1  6  0  0  0
 14 18  1  0  0  0  0
 15 31  1  0  0  0  0
 16 20  1  0  0  0  0
 17  2  1  1  0  0  0
 17 22  1  0  0  0  0
 18 19  1  6  0  0  0
 18 24  1  0  0  0  0
 18 30  1  0  0  0  0
 20 21  1  0  0  0  0
 20 26  1  1  0  0  0
 22 23  1  1  0  0  0
 22 28  1  0  0  0  0
 24 25  1  0  0  0  0
 26 27  1  0  0  0  0
 28 29  1  6  0  0  0
M  END
>  <CHROM.1>
165.11144521,175.39553396,-82.81076866,-175.30948392,130.75071153,82.91909899
-3.86179637,15.94002960,8.16241164,-2.14993378,-0.93227221,-1.95441019

>  <Name>
ligand

>  <RI>
0

>  <Rbt.Current_Directory>
/home/itssahil/PROJECTS/Mol_Feturizer/New_Systems/rnas/4GPX

>  <Rbt.Executable>
rbdock ($Id: //depot/dev/client3/rdock/2013.1/src/exe/rbdock.cxx#4 $)

>  <Rbt.Library>
libRbt.so (2013.1, Build901 2013/11/27)

>  <Rbt.Parameter_File>
/export/apps/rDock/src/rDock_2013.1_src/data/scripts/dock_solv.prm

>  <Rbt.Receptor>
prm/pocket_docking_7.prm

>  <SCORE>
-13.1235

>  <SCORE.INTER>
-5.49885

>  <SCORE.INTER.CONST>
1

>  <SCORE.INTER.POLAR>
0

>  <SCORE.INTER.ROT>
6

>  <SCORE.INTER.SOLV>
13.1646

>  <SCORE.INTER.VDW>
-15.6541

>  <SCORE.INTER.norm>
-0.177382

>  <SCORE.INTRA>
-7.62489

>  <SCORE.INTRA.DIHEDRAL>
-14.9197

>  <SCORE.INTRA.DIHEDRAL.0>
20.6841

>  <SCORE.INTRA.POLAR>
0

>  <SCORE.INTRA.POLAR.0>
0

>  <SCORE.INTRA.REPUL>
0

>  <SCORE.INTRA.REPUL.0>
0

>  <SCORE.INTRA.SOLV>
-1.87864

>  <SCORE.INTRA.SOLV.lig_0>
-64.6797

>  <SCORE.INTRA.VDW>
0.774296

>  <SCORE.INTRA.VDW.0>
-4.11825

>  <SCORE.INTRA.norm>
-0.245964

>  <SCORE.RESTR>
0.000194494

>  <SCORE.RESTR.CAVITY>
0.000194494

>  <SCORE.RESTR.norm>
6.274e-06

>  <SCORE.SYSTEM>
0

>  <SCORE.SYSTEM.CONST>
0

>  <SCORE.SYSTEM.DIHEDRAL>
0

>  <SCORE.SYSTEM.SOLV>
0

>  <SCORE.SYSTEM.norm>
0

>  <SCORE.heavy>
31

>  <SCORE.norm>
-0.42334

>  <RMSD>
7.637

$$$$
ligand
 OpenBabel11021811493D
libRbt.so/2013.1/901 2013/11/27
 31 33  0  0  0  0  0  0  0  0999 V2000
   -1.5949   11.7119   11.5202 C   0  0  2  0  0  0  0  0  0  0  0  0
   -1.9917   13.0800   11.5199 O   0  0  0  0  0  0  0  0  0  0  0  0
   -5.2469   13.1207    8.7838 C   0  0  2  0  0  0  0  0  0  0  0  0
   -6.3795   13.5922    8.0477 N   0  0  0  0  0  0  0  0  0  0  0  0
   -4.6872   14.3157    6.0740 C   0  0  2  0  0  0  0  0  0  0  0  0
   -0.9007   11.4444   12.9176 C   0  0  2  0  0  0  0  0  0  0  0  0
   -1.8580   11.7346   13.9799 N   0  0  0  0  0  0  0  0  0  0  0  0
   -5.5857   13.2046   10.3291 C   0  0  0  0  0  0  0  0  0  0  0  0
   -3.9509   14.0806    4.7170 C   0  0  2  0  0  0  0  0  0  0  0  0
   -3.5388   12.7316    4.6624 O   0  0  0  0  0  0  0  0  0  0  0  0
    0.3918   12.3415   13.0707 C   0  0  0  0  0  0  0  0  0  0  0  0
   -4.3400   12.6888   11.1426 C   0  0  2  0  0  0  0  0  0  0  0  0
   -4.6472   12.7697   12.5809 N   0  0  0  0  0  0  0  0  0  0  0  0
   -2.7101   15.0517    4.6845 C   0  0  1  0  0  0  0  0  0  0  0  0
   -1.9481   14.8572    3.4068 N   0  0  0  0  0  0  0  0  0  0  0  0
    1.1879   12.4901   11.7055 C   0  0  0  0  0  0  0  0  0  0  0  0
   -3.0658   13.5803   10.8003 C   0  0  2  0  0  0  0  0  0  0  0  0
   -3.2678   16.5823    4.7538 C   0  0  1  0  0  0  0  0  0  0  0  0
   -4.1507   16.8822    3.6861 O   0  0  0  0  0  0  0  0  0  0  0  0
    0.6558   12.0553   10.5327 C   0  0  2  0  0  0  0  0  0  0  0  0
   -0.6372   11.4440   10.4548 O   0  0  0  0  0  0  0  0  0  0  0  0
   -2.7580   13.4866    9.2600 C   0  0  2  0  0  0  0  0  0  0  0  0
   -1.6080   14.3053    8.9570 O   0  0  0  0  0  0  0  0  0  0  0  0
   -4.0656   16.7978    6.0807 C   0  0  0  0  0  0  0  0  0  0  0  0
   -5.1489   15.7567    6.1836 O   0  0  0  0  0  0  0  0  0  0  0  0
    1.3848   12.1740    9.1929 C   0  0  0  0  0  0  0  0  0  0  0  0
    0.5238   12.8876    8.2743 O   0  0  0  0  0  0  0  0  0  0  0  0
   -4.0038   14.0267    8.4651 C   0  0  1  0  0  0  0  0  0  0  0  0
   -3.7102   13.9584    7.1051 O   0  0  0  0  0  0  0  0  0  0  0  0
   -2.1739   17.6771    4.7310 C   0  0  0  0  0  0  0  0  0  0  0  0
   -0.7607   13.9806    3.4709 C   0  0  0  0  0  0  0  0  0  0  0  0
  1  2  1  1  0  0  0
  1  6  1  0  0  0  0
  1 21  1  0  0  0  0
  3  4  1  6  0  0  0
  3  8  1  0  0  0  0
  3 28  1  0  0  0  0
  5  9  1  0  0  0  0
  5 25  1  0  0  0  0
  5 29  1  1  0  0  0
  6  7  1  1  0  0  0
  6 11  1  0  0  0  0
  8 12  1  0  0  0  0
  9 10  1  1  0  0  0
  9 14  1  0  0  0  0
 11 16  1  0  0  0  0
 12 13  1  1  0  0  0
 12 17  1  0  0  0  0
 14 15  1  6  0  0  0
 14 18  1  0  0  0  0
 15 31  1  0  0  0  0
 16 20  1  0  0  0  0
 17  2  1  1  0  0  0
 17 22  1  0  0  0  0
 18 19  1  6  0  0  0
 18 24  1  0  0  0  0
 18 30  1  0  0  0  0
 20 21  1  0  0  0  0
 20 26  1  1  0  0  0
 22 23  1  1  0  0  0
 22 28  1  0  0  0  0
 24 25  1  0  0  0  0
 26 27  1  0  0  0  0
 28 29  1  6  0  0  0
M  END
>  <CHROM.1>
-151.85078685,-179.43518993,-97.85404098,51.75627832,-124.68121834,57.77834990
-2.57950789,13.71842912,8.37541320,-1.28641757,0.18177708,-1.19784911

>  <Name>
ligand

>  <RI>
0

>  <Rbt.Current_Directory>
/home/itssahil/PROJECTS/Mol_Feturizer/New_Systems/rnas/4GPX

>  <Rbt.Executable>
rbdock ($Id: //depot/dev/client3/rdock/2013.1/src/exe/rbdock.cxx#4 $)

>  <Rbt.Library>
libRbt.so (2013.1, Build901 2013/11/27)

>  <Rbt.Parameter_File>
/export/apps/rDock/src/rDock_2013.1_src/data/scripts/dock_solv.prm

>  <Rbt.Receptor>
prm/pocket_docking_4.prm

>  <SCORE>
-11.0304

>  <SCORE.INTER>
-5.8041

>  <SCORE.INTER.CONST>
1

>  <SCORE.INTER.POLAR>
0

>  <SCORE.INTER.ROT>
6

>  <SCORE.INTER.SOLV>
13.3334

>  <SCORE.INTER.VDW>
-15.9139

>  <SCORE.INTER.norm>
-0.187229

>  <SCORE.INTRA>
-5.22633

>  <SCORE.INTRA.DIHEDRAL>
-14.5197

>  <SCORE.INTRA.DIHEDRAL.0>
20.6841

>  <SCORE.INTRA.POLAR>
0

>  <SCORE.INTRA.POLAR.0>
0

>  <SCORE.INTRA.REPUL>
0

>  <SCORE.INTRA.REPUL.0>
0

>  <SCORE.INTRA.SOLV>
1.73824

>  <SCORE.INTRA.SOLV.lig_0>
-64.6797

>  <SCORE.INTRA.VDW>
1.16438

>  <SCORE.INTRA.VDW.0>
-4.11825

>  <SCORE.INTRA.norm>
-0.168591

>  <SCORE.RESTR>
0

>  <SCORE.RESTR.CAVITY>
0

>  <SCORE.RESTR.norm>
0

>  <SCORE.SYSTEM>
0

>  <SCORE.SYSTEM.CONST>
0

>  <SCORE.SYSTEM.DIHEDRAL>
0

>  <SCORE.SYSTEM.SOLV>
0

>  <SCORE.SYSTEM.norm>
0

>  <SCORE.heavy>
31

>  <SCORE.norm>
-0.35582

>  <RMSD>
7.651

$$$$
ligand
 OpenBabel11021811493D
libRbt.so/2013.1/901 2013/11/27
 31 33  0  0  0  0  0  0  0  0999 V2000
    1.6650   11.9854    9.3152 C   0  0  2  0  0  0  0  0  0  0  0  0
    0.7781   11.8474    8.2090 O   0  0  0  0  0  0  0  0  0  0  0  0
   -1.3207   15.5458    8.2207 C   0  0  2  0  0  0  0  0  0  0  0  0
   -2.2075   16.5905    7.8094 N   0  0  0  0  0  0  0  0  0  0  0  0
   -4.2524   15.2984    9.2889 C   0  0  2  0  0  0  0  0  0  0  0  0
    2.5670   10.6847    9.3345 C   0  0  2  0  0  0  0  0  0  0  0  0
    3.2856   10.5935    8.0677 N   0  0  0  0  0  0  0  0  0  0  0  0
   -0.2626   15.3059    7.0663 C   0  0  0  0  0  0  0  0  0  0  0  0
   -4.9323   15.3693   10.6929 C   0  0  2  0  0  0  0  0  0  0  0  0
   -3.9968   15.8870   11.6145 O   0  0  0  0  0  0  0  0  0  0  0  0
    1.6753    9.3998    9.5639 C   0  0  0  0  0  0  0  0  0  0  0  0
    0.7138   14.1547    7.5147 C   0  0  2  0  0  0  0  0  0  0  0  0
    1.6970   13.9232    6.4426 N   0  0  0  0  0  0  0  0  0  0  0  0
   -5.3551   13.9017   11.0817 C   0  0  1  0  0  0  0  0  0  0  0  0
   -5.9994   13.9024   12.4367 N   0  0  0  0  0  0  0  0  0  0  0  0
    0.4882    9.6639   10.5841 C   0  0  0  0  0  0  0  0  0  0  0  0
   -0.1150   12.8250    7.7988 C   0  0  2  0  0  0  0  0  0  0  0  0
   -6.4289   13.3773    9.9726 C   0  0  1  0  0  0  0  0  0  0  0  0
   -7.5730   14.2107    9.8951 O   0  0  0  0  0  0  0  0  0  0  0  0
    0.1954   10.9216   11.0085 C   0  0  2  0  0  0  0  0  0  0  0  0
    0.9282   12.0713   10.5697 O   0  0  0  0  0  0  0  0  0  0  0  0
   -1.1637   13.0939    8.9408 C   0  0  2  0  0  0  0  0  0  0  0  0
   -1.9170   11.8867    9.1848 O   0  0  0  0  0  0  0  0  0  0  0  0
   -5.7698   13.3733    8.5550 C   0  0  0  0  0  0  0  0  0  0  0  0
   -5.2190   14.7434    8.2595 O   0  0  0  0  0  0  0  0  0  0  0  0
   -0.9362   11.2260   11.9921 C   0  0  0  0  0  0  0  0  0  0  0  0
   -0.3475   11.7458   13.2077 O   0  0  0  0  0  0  0  0  0  0  0  0
   -2.1430   14.2301    8.4659 C   0  0  1  0  0  0  0  0  0  0  0  0
   -3.0783   14.4431    9.4762 O   0  0  0  0  0  0  0  0  0  0  0  0
   -6.9554   11.9401   10.2024 C   0  0  0  0  0  0  0  0  0  0  0  0
   -5.1244   13.5940   13.5862 C   0  0  0  0  0  0  0  0  0  0  0  0
  1  2  1  6  0  0  0
  1  6  1  0  0  0  0
  1 21  1  0  0  0  0
  3  4  1  6  0  0  0
  3  8  1  0  0  0  0
  3 28  1  0  0  0  0
  5  9  1  0  0  0  0
  5 25  1  0  0  0  0
  5 29  1  1  0  0  0
  6  7  1  6  0  0  0
  6 11  1  0  0  0  0
  8 12  1  0  0  0  0
  9 10  1  1  0  0  0
  9 14  1  0  0  0  0
 11 16  1  0  0  0  0
 12 13  1  6  0  0  0
 12 17  1  0  0  0  0
 14 15  1  1  0  0  0
 14 18  1  0  0  0  0
 15 31  1  0  0  0  0
 16 20  1  0  0  0  0
 17  2  1  1  0  0  0
 17 22  1  0  0  0  0
 18 19  1  6  0  0  0
 18 24  1  0  0  0  0
 18 30  1  0  0  0  0
 20 21  1  0  0  0  0
 20 26  1  1  0  0  0
 22 23  1  6  0  0  0
 22 28  1  0  0  0  0
 24 25  1  0  0  0  0
 26 27  1  0  0  0  0
 28 29  1  1  0  0  0
M  END
>  <CHROM.1>
-175.46955452,-174.40082157,-95.19687864,56.11747417,115.07179349,70.21292497
-2.00774498,13.14946926,9.65845493,0.09115352,-0.39025419,2.29379022

>  <Name>
ligand

>  <RI>
0

>  <Rbt.Current_Directory>
/home/itssahil/PROJECTS/Mol_Feturizer/New_Systems/rnas/4GPX

>  <Rbt.Executable>
rbdock ($Id: //depot/dev/client3/rdock/2013.1/src/exe/rbdock.cxx#4 $)

>  <Rbt.Library>
libRbt.so (2013.1, Build901 2013/11/27)

>  <Rbt.Parameter_File>
/export/apps/rDock/src/rDock_2013.1_src/data/scripts/dock_solv.prm

>  <Rbt.Receptor>
prm/pocket_docking_6.prm

>  <SCORE>
-11.3249

>  <SCORE.INTER>
-3.05987

>  <SCORE.INTER.CONST>
1

>  <SCORE.INTER.POLAR>
0

>  <SCORE.INTER.ROT>
6

>  <SCORE.INTER.SOLV>
6.38787

>  <SCORE.INTER.VDW>
-11.7692

>  <SCORE.INTER.norm>
-0.0987056

>  <SCORE.INTRA>
-8.26501

>  <SCORE.INTRA.DIHEDRAL>
-17.3665

>  <SCORE.INTRA.DIHEDRAL.0>
20.6841

>  <SCORE.INTRA.POLAR>
0

>  <SCORE.INTRA.POLAR.0>
0

>  <SCORE.INTRA.REPUL>
0

>  <SCORE.INTRA.REPUL.0>
0

>  <SCORE.INTRA.SOLV>
-0.570843

>  <SCORE.INTRA.SOLV.lig_0>
-64.6797

>  <SCORE.INTRA.VDW>
0.703679

>  <SCORE.INTRA.VDW.0>
-4.11825

>  <SCORE.INTRA.norm>
-0.266613

>  <SCORE.RESTR>
0

>  <SCORE.RESTR.CAVITY>
0

>  <SCORE.RESTR.norm>
0

>  <SCORE.SYSTEM>
0

>  <SCORE.SYSTEM.CONST>
0

>  <SCORE.SYSTEM.DIHEDRAL>
0

>  <SCORE.SYSTEM.SOLV>
0

>  <SCORE.SYSTEM.norm>
0

>  <SCORE.heavy>
31

>  <SCORE.norm>
-0.365319

>  <RMSD>
7.661

$$$$
ligand
 OpenBabel11021811493D
libRbt.so/2013.1/901 2013/11/27
 31 33  0  0  0  0  0  0  0  0999 V2000
    2.8159   13.4636    4.2389 C   0  0  2  0  0  0  0  0  0  0  0  0
    3.2372   12.4551    5.1525 O   0  0  0  0  0  0  0  0  0  0  0  0
    1.6468   10.9190    8.7850 C   0  0  2  0  0  0  0  0  0  0  0  0
    1.2951   10.8325   10.1691 N   0  0  0  0  0  0  0  0  0  0  0  0
   -1.1470   12.2306    9.5127 C   0  0  2  0  0  0  0  0  0  0  0  0
    3.5759   13.1849    2.8784 C   0  0  2  0  0  0  0  0  0  0  0  0
    3.2273   11.8469    2.4121 N   0  0  0  0  0  0  0  0  0  0  0  0
    3.2203   11.0700    8.6783 C   0  0  0  0  0  0  0  0  0  0  0  0
   -2.6431   11.9270    9.1833 C   0  0  2  0  0  0  0  0  0  0  0  0
   -2.7285   10.6137    8.6728 O   0  0  0  0  0  0  0  0  0  0  0  0
    5.1378   13.3151    3.0838 C   0  0  0  0  0  0  0  0  0  0  0  0
    3.6109   11.1681    7.1560 C   0  0  2  0  0  0  0  0  0  0  0  0
    5.0728   11.3143    7.0507 N   0  0  0  0  0  0  0  0  0  0  0  0
   -3.1081   12.9818    8.1087 C   0  0  1  0  0  0  0  0  0  0  0  0
   -4.5389   12.7278    7.7357 N   0  0  0  0  0  0  0  0  0  0  0  0
    5.5191   14.4894    4.0815 C   0  0  0  0  0  0  0  0  0  0  0  0
    2.8828   12.4191    6.4922 C   0  0  2  0  0  0  0  0  0  0  0  0
   -2.9773   14.4657    8.7715 C   0  0  1  0  0  0  0  0  0  0  0  0
   -3.7508   14.5979    9.9520 O   0  0  0  0  0  0  0  0  0  0  0  0
    4.5652   15.1293    4.8082 C   0  0  2  0  0  0  0  0  0  0  0  0
    3.1762   14.7908    4.7212 O   0  0  0  0  0  0  0  0  0  0  0  0
    1.3238   12.2482    6.6208 C   0  0  2  0  0  0  0  0  0  0  0  0
    0.6723   13.3909    6.0256 O   0  0  0  0  0  0  0  0  0  0  0  0
   -1.4902   14.7425    9.1663 C   0  0  0  0  0  0  0  0  0  0  0  0
   -1.0006   13.6366   10.0637 O   0  0  0  0  0  0  0  0  0  0  0  0
    4.8827   16.2676    5.7798 C   0  0  0  0  0  0  0  0  0  0  0  0
    4.1164   17.4279    5.3787 O   0  0  0  0  0  0  0  0  0  0  0  0
    0.9508   12.1747    8.1475 C   0  0  1  0  0  0  0  0  0  0  0  0
   -0.4326   12.0452    8.2476 O   0  0  0  0  0  0  0  0  0  0  0  0
   -3.3974   15.6332    7.8462 C   0  0  0  0  0  0  0  0  0  0  0  0
   -4.8890   12.8835    6.3090 C   0  0  0  0  0  0  0  0  0  0  0  0
  1  2  1  1  0  0  0
  1  6  1  0  0  0  0
  1 21  1  0  0  0  0
  3  4  1  1  0  0  0
  3  8  1  0  0  0  0
  3 28  1  0  0  0  0
  5  9  1  0  0  0  0
  5 25  1  0  0  0  0
  5 29  1  6  0  0  0
  6  7  1  1  0  0  0
  6 11  1  0  0  0  0
  8 12  1  0  0  0  0
  9 10  1  6  0  0  0
  9 14  1  0  0  0  0
 11 16  1  0  0  0  0
 12 13  1  1  0  0  0
 12 17  1  0  0  0  0
 14 15  1  1  0  0  0
 14 18  1  0  0  0  0
 15 31  1  0  0  0  0
 16 20  1  0  0  0  0
 17  2  1  6  0  0  0
 17 22  1  0  0  0  0
 18 19  1  1  0  0  0
 18 24  1  0  0  0  0
 18 30  1  0  0  0  0
 20 21  1  0  0  0  0
 20 26  1  6  0  0  0
 22 23  1  1  0  0  0
 22 28  1  0  0  0  0
 24 25  1  0  0  0  0
 26 27  1  0  0  0  0
 28 29  1  6  0  0  0
M  END
>  <CHROM.1>
174.27250645,-177.31540552,-140.33217335,-177.77567593,122.78842316,74.46250482
0.89608426,13.14166051,6.94814046,0.37746993,0.37449701,-0.65032962

>  <Name>
ligand

>  <RI>
0

>  <Rbt.Current_Directory>
/home/itssahil/PROJECTS/Mol_Feturizer/New_Systems/rnas/4GPX

>  <Rbt.Executable>
rbdock ($Id: //depot/dev/client3/rdock/2013.1/src/exe/rbdock.cxx#4 $)

>  <Rbt.Library>
libRbt.so (2013.1, Build901 2013/11/27)

>  <Rbt.Parameter_File>
/export/apps/rDock/src/rDock_2013.1_src/data/scripts/dock_solv.prm

>  <Rbt.Receptor>
prm/pocket_docking_7.prm

>  <SCORE>
-7.67637

>  <SCORE.INTER>
0.901056

>  <SCORE.INTER.CONST>
1

>  <SCORE.INTER.POLAR>
0

>  <SCORE.INTER.ROT>
6

>  <SCORE.INTER.SOLV>
6.35914

>  <SCORE.INTER.VDW>
-9.11901

>  <SCORE.INTER.norm>
0.0290663

>  <SCORE.INTRA>
-8.58115

>  <SCORE.INTRA.DIHEDRAL>
-16.8867

>  <SCORE.INTRA.DIHEDRAL.0>
20.6841

>  <SCORE.INTRA.POLAR>
0

>  <SCORE.INTRA.POLAR.0>
0

>  <SCORE.INTRA.REPUL>
0

>  <SCORE.INTRA.REPUL.0>
0

>  <SCORE.INTRA.SOLV>
-2.08179

>  <SCORE.INTRA.SOLV.lig_0>
-64.6797

>  <SCORE.INTRA.VDW>
0.9031

>  <SCORE.INTRA.VDW.0>
-4.11825

>  <SCORE.INTRA.norm>
-0.276811

>  <SCORE.RESTR>
0.00372571

>  <SCORE.RESTR.CAVITY>
0.00372571

>  <SCORE.RESTR.norm>
0.000120184

>  <SCORE.SYSTEM>
0

>  <SCORE.SYSTEM.CONST>
0

>  <SCORE.SYSTEM.DIHEDRAL>
0

>  <SCORE.SYSTEM.SOLV>
0

>  <SCORE.SYSTEM.norm>
0

>  <SCORE.heavy>
31

>  <SCORE.norm>
-0.247625

>  <RMSD>
7.673

$$$$
ligand
 OpenBabel11021811493D
libRbt.so/2013.1/901 2013/11/27
 31 33  0  0  0  0  0  0  0  0999 V2000
    2.4397   10.6090    4.8242 C   0  0  2  0  0  0  0  0  0  0  0  0
    2.3342   10.7590    6.2368 O   0  0  0  0  0  0  0  0  0  0  0  0
    2.7826   14.1115    8.8144 C   0  0  2  0  0  0  0  0  0  0  0  0
    2.5027   15.3539    9.4663 N   0  0  0  0  0  0  0  0  0  0  0  0
    0.6354   11.9043   11.0970 C   0  0  2  0  0  0  0  0  0  0  0  0
    1.3781    9.5112    4.4073 C   0  0  2  0  0  0  0  0  0  0  0  0
    0.0511    9.9654    4.8097 N   0  0  0  0  0  0  0  0  0  0  0  0
    2.8516   14.3715    7.2531 C   0  0  0  0  0  0  0  0  0  0  0  0
   -0.7719   12.5669   10.9586 C   0  0  2  0  0  0  0  0  0  0  0  0
   -1.0128   12.8177    9.5905 O   0  0  0  0  0  0  0  0  0  0  0  0
    1.7234    8.1259    5.0859 C   0  0  0  0  0  0  0  0  0  0  0  0
    3.1570   13.0054    6.5320 C   0  0  2  0  0  0  0  0  0  0  0  0
    3.2169   13.2398    5.0791 N   0  0  0  0  0  0  0  0  0  0  0  0
   -0.7384   13.9106   11.7814 C   0  0  1  0  0  0  0  0  0  0  0  0
   -2.0631   14.6061   11.6697 N   0  0  0  0  0  0  0  0  0  0  0  0
    3.2869    7.8596    5.1514 C   0  0  0  0  0  0  0  0  0  0  0  0
    2.0156   11.9487    6.8731 C   0  0  2  0  0  0  0  0  0  0  0  0
   -0.4538   13.5370   13.3427 C   0  0  1  0  0  0  0  0  0  0  0  0
   -1.4351   12.6631   13.8745 O   0  0  0  0  0  0  0  0  0  0  0  0
    4.1783    8.8383    4.8426 C   0  0  2  0  0  0  0  0  0  0  0  0
    3.7702   10.1520    4.4438 O   0  0  0  0  0  0  0  0  0  0  0  0
    1.9624   11.7171    8.4286 C   0  0  2  0  0  0  0  0  0  0  0  0
    0.9187   10.7659    8.7295 O   0  0  0  0  0  0  0  0  0  0  0  0
    0.9240   12.8099   13.4727 C   0  0  0  0  0  0  0  0  0  0  0  0
    0.9444   11.6166   12.5543 O   0  0  0  0  0  0  0  0  0  0  0  0
    5.6931    8.6293    4.8884 C   0  0  0  0  0  0  0  0  0  0  0  0
    6.2513    9.5879    5.8178 O   0  0  0  0  0  0  0  0  0  0  0  0
    1.6343   13.0870    9.1295 C   0  0  1  0  0  0  0  0  0  0  0  0
    1.5691   12.8637   10.5030 O   0  0  0  0  0  0  0  0  0  0  0  0
   -0.3886   14.7495   14.3026 C   0  0  0  0  0  0  0  0  0  0  0  0
   -2.1301   15.7594   10.7491 C   0  0  0  0  0  0  0  0  0  0  0  0
  1  2  1  1  0  0  0
  1  6  1  0  0  0  0
  1 21  1  0  0  0  0
  3  4  1  1  0  0  0
  3  8  1  0  0  0  0
  3 28  1  0  0  0  0
  5  9  1  0  0  0  0
  5 25  1  0  0  0  0
  5 29  1  1  0  0  0
  6  7  1  1  0  0  0
  6 11  1  0  0  0  0
  8 12  1  0  0  0  0
  9 10  1  6  0  0  0
  9 14  1  0  0  0  0
 11 16  1  0  0  0  0
 12 13  1  6  0  0  0
 12 17  1  0  0  0  0
 14 15  1  1  0  0  0
 14 18  1  0  0  0  0
 15 31  1  0  0  0  0
 16 20  1  0  0  0  0
 17  2  1  6  0  0  0
 17 22  1  0  0  0  0
 18 19  1  1  0  0  0
 18 24  1  0  0  0  0
 18 30  1  0  0  0  0
 20 21  1  0  0  0  0
 20 26  1  6  0  0  0
 22 23  1  6  0  0  0
 22 28  1  0  0  0  0
 24 25  1  0  0  0  0
 26 27  1  0  0  0  0
 28 29  1  1  0  0  0
M  END
>  <CHROM.1>
-120.46031480,-71.97186491,-102.90783104,-62.12808483,-121.34982512,-177.01619320
1.52065923,11.97024633,8.56515688,-0.78390695,0.91342553,0.39771532

>  <Name>
ligand

>  <RI>
0

>  <Rbt.Current_Directory>
/home/itssahil/PROJECTS/Mol_Feturizer/New_Systems/rnas/4GPX

>  <Rbt.Executable>
rbdock ($Id: //depot/dev/client3/rdock/2013.1/src/exe/rbdock.cxx#4 $)

>  <Rbt.Library>
libRbt.so (2013.1, Build901 2013/11/27)

>  <Rbt.Parameter_File>
/export/apps/rDock/src/rDock_2013.1_src/data/scripts/dock_solv.prm

>  <Rbt.Receptor>
prm/pocket_docking_6.prm

>  <SCORE>
-2.45427

>  <SCORE.INTER>
0.291912

>  <SCORE.INTER.CONST>
1

>  <SCORE.INTER.POLAR>
0

>  <SCORE.INTER.ROT>
6

>  <SCORE.INTER.SOLV>
3.67484

>  <SCORE.INTER.VDW>
-8.63034

>  <SCORE.INTER.norm>
0.00941652

>  <SCORE.INTRA>
-2.75782

>  <SCORE.INTRA.DIHEDRAL>
-10.076

>  <SCORE.INTRA.DIHEDRAL.0>
20.6841

>  <SCORE.INTRA.POLAR>
0

>  <SCORE.INTRA.POLAR.0>
0

>  <SCORE.INTRA.REPUL>
0

>  <SCORE.INTRA.REPUL.0>
0

>  <SCORE.INTRA.SOLV>
-0.594811

>  <SCORE.INTRA.SOLV.lig_0>
-64.6797

>  <SCORE.INTRA.VDW>
2.5776

>  <SCORE.INTRA.VDW.0>
-4.11825

>  <SCORE.INTRA.norm>
-0.088962

>  <SCORE.RESTR>
0.0116401

>  <SCORE.RESTR.CAVITY>
0.0116401

>  <SCORE.RESTR.norm>
0.000375489

>  <SCORE.SYSTEM>
0

>  <SCORE.SYSTEM.CONST>
0

>  <SCORE.SYSTEM.DIHEDRAL>
0

>  <SCORE.SYSTEM.SOLV>
0

>  <SCORE.SYSTEM.norm>
0

>  <SCORE.heavy>
31

>  <SCORE.norm>
-0.07917

>  <RMSD>
7.702

$$$$
ligand
 OpenBabel11021811493D
libRbt.so/2013.1/901 2013/11/27
 31 33  0  0  0  0  0  0  0  0999 V2000
    1.0024   12.1982    7.1654 C   0  0  2  0  0  0  0  0  0  0  0  0
    0.2066   11.4659    8.0926 O   0  0  0  0  0  0  0  0  0  0  0  0
   -3.7833   11.8255    9.5192 C   0  0  2  0  0  0  0  0  0  0  0  0
   -4.9141   12.3233   10.2405 N   0  0  0  0  0  0  0  0  0  0  0  0
   -4.9708   14.5646    7.7624 C   0  0  2  0  0  0  0  0  0  0  0  0
    2.0437   11.1728    6.5571 C   0  0  2  0  0  0  0  0  0  0  0  0
    1.3115   10.0890    5.9102 N   0  0  0  0  0  0  0  0  0  0  0  0
   -2.6637   11.4202   10.5643 C   0  0  0  0  0  0  0  0  0  0  0  0
   -5.8345   14.6383    6.4634 C   0  0  2  0  0  0  0  0  0  0  0  0
   -6.6570   13.4923    6.4106 O   0  0  0  0  0  0  0  0  0  0  0  0
    2.9881   10.6086    7.6923 C   0  0  0  0  0  0  0  0  0  0  0  0
   -1.4162   10.8741    9.7737 C   0  0  2  0  0  0  0  0  0  0  0  0
   -0.3693   10.5007   10.7403 N   0  0  0  0  0  0  0  0  0  0  0  0
   -4.8390   14.6755    5.2422 C   0  0  1  0  0  0  0  0  0  0  0  0
   -5.6140   14.7269    3.9585 N   0  0  0  0  0  0  0  0  0  0  0  0
    3.3650   11.7137    8.7677 C   0  0  0  0  0  0  0  0  0  0  0  0
   -0.8746   11.9946    8.7804 C   0  0  2  0  0  0  0  0  0  0  0  0
   -3.9273   16.0204    5.3777 C   0  0  1  0  0  0  0  0  0  0  0  0
   -4.7110   17.2013    5.4051 O   0  0  0  0  0  0  0  0  0  0  0  0
    2.7447   12.9232    8.7770 C   0  0  2  0  0  0  0  0  0  0  0  0
    1.7273   13.2728    7.8315 O   0  0  0  0  0  0  0  0  0  0  0  0
   -2.0082   12.3849    7.7611 C   0  0  2  0  0  0  0  0  0  0  0  0
   -1.5121   13.4080    6.8713 O   0  0  0  0  0  0  0  0  0  0  0  0
   -3.1153   15.9799    6.7129 C   0  0  0  0  0  0  0  0  0  0  0  0
   -4.0637   15.7764    7.8649 O   0  0  0  0  0  0  0  0  0  0  0  0
    3.0750   14.0204    9.7907 C   0  0  0  0  0  0  0  0  0  0  0  0
    1.9511   14.1521   10.6928 O   0  0  0  0  0  0  0  0  0  0  0  0
   -3.2361   12.9488    8.5672 C   0  0  1  0  0  0  0  0  0  0  0  0
   -4.2229   13.3101    7.6527 O   0  0  0  0  0  0  0  0  0  0  0  0
   -2.8853   16.2188    4.2505 C   0  0  0  0  0  0  0  0  0  0  0  0
   -6.1187   13.4400    3.4376 C   0  0  0  0  0  0  0  0  0  0  0  0
  1  2  1  1  0  0  0
  1  6  1  0  0  0  0
  1 21  1  0  0  0  0
  3  4  1  1  0  0  0
  3  8  1  0  0  0  0
  3 28  1  0  0  0  0
  5  9  1  0  0  0  0
  5 25  1  0  0  0  0
  5 29  1  6  0  0  0
  6  7  1  1  0  0  0
  6 11  1  0  0  0  0
  8 12  1  0  0  0  0
  9 10  1  6  0  0  0
  9 14  1  0  0  0  0
 11 16  1  0  0  0  0
 12 13  1  1  0  0  0
 12 17  1  0  0  0  0
 14 15  1  6  0  0  0
 14 18  1  0  0  0  0
 15 31  1  0  0  0  0
 16 20  1  0  0  0  0
 17  2  1  6  0  0  0
 17 22  1  0  0  0  0
 18 19  1  1  0  0  0
 18 24  1  0  0  0  0
 18 30  1  0  0  0  0
 20 21  1  0  0  0  0
 20 26  1  6  0  0  0
 22 23  1  6  0  0  0
 22 28  1  0  0  0  0
 24 25  1  0  0  0  0
 26 27  1  0  0  0  0
 28 29  1  6  0  0  0
M  END
>  <CHROM.1>
-176.07715977,173.58401108,-82.18079037,-176.38468101,-109.84212077,105.25007222
-1.86088304,13.23983569,7.55585196,-0.52840420,0.10812613,-0.96874847

>  <Name>
ligand

>  <RI>
0

>  <Rbt.Current_Directory>
/home/itssahil/PROJECTS/Mol_Feturizer/New_Systems/rnas/4GPX

>  <Rbt.Executable>
rbdock ($Id: //depot/dev/client3/rdock/2013.1/src/exe/rbdock.cxx#4 $)

>  <Rbt.Library>
libRbt.so (2013.1, Build901 2013/11/27)

>  <Rbt.Parameter_File>
/export/apps/rDock/src/rDock_2013.1_src/data/scripts/dock_solv.prm

>  <Rbt.Receptor>
prm/pocket_docking_3.prm

>  <SCORE>
-10.272

>  <SCORE.INTER>
-3.69408

>  <SCORE.INTER.CONST>
1

>  <SCORE.INTER.POLAR>
0

>  <SCORE.INTER.ROT>
6

>  <SCORE.INTER.SOLV>
12.3898

>  <SCORE.INTER.VDW>
-14.1926

>  <SCORE.INTER.norm>
-0.119164

>  <SCORE.INTRA>
-6.57789

>  <SCORE.INTRA.DIHEDRAL>
-11.985

>  <SCORE.INTRA.DIHEDRAL.0>
20.6841

>  <SCORE.INTRA.POLAR>
0

>  <SCORE.INTRA.POLAR.0>
0

>  <SCORE.INTRA.REPUL>
0

>  <SCORE.INTRA.REPUL.0>
0

>  <SCORE.INTRA.SOLV>
-2.29552

>  <SCORE.INTRA.SOLV.lig_0>
-64.6797

>  <SCORE.INTRA.VDW>
0.5624

>  <SCORE.INTRA.VDW.0>
-4.11825

>  <SCORE.INTRA.norm>
-0.21219

>  <SCORE.RESTR>
0

>  <SCORE.RESTR.CAVITY>
0

>  <SCORE.RESTR.norm>
0

>  <SCORE.SYSTEM>
0

>  <SCORE.SYSTEM.CONST>
0

>  <SCORE.SYSTEM.DIHEDRAL>
0

>  <SCORE.SYSTEM.SOLV>
0

>  <SCORE.SYSTEM.norm>
0

>  <SCORE.heavy>
31

>  <SCORE.norm>
-0.331354

>  <RMSD>
7.718

$$$$
ligand
 OpenBabel11021811493D
libRbt.so/2013.1/901 2013/11/27
 31 33  0  0  0  0  0  0  0  0999 V2000
   -8.4412   13.2800   11.0096 C   0  0  2  0  0  0  0  0  0  0  0  0
   -7.1895   13.8652   11.3560 O   0  0  0  0  0  0  0  0  0  0  0  0
   -3.2676   14.1462    9.7362 C   0  0  2  0  0  0  0  0  0  0  0  0
   -1.9832   13.7500    9.2461 N   0  0  0  0  0  0  0  0  0  0  0  0
   -3.7611   13.0707    6.4614 C   0  0  2  0  0  0  0  0  0  0  0  0
   -9.5503   14.0885   11.7984 C   0  0  2  0  0  0  0  0  0  0  0  0
   -9.4769   15.4916   11.4045 N   0  0  0  0  0  0  0  0  0  0  0  0
   -3.4103   13.6384   11.2301 C   0  0  0  0  0  0  0  0  0  0  0  0
   -3.2661   14.0456    5.3464 C   0  0  2  0  0  0  0  0  0  0  0  0
   -2.2764   14.8871    5.8986 O   0  0  0  0  0  0  0  0  0  0  0  0
   -9.3391   13.9348   13.3575 C   0  0  0  0  0  0  0  0  0  0  0  0
   -4.8242   14.0705   11.7720 C   0  0  2  0  0  0  0  0  0  0  0  0
   -4.9648   13.5961   13.1593 N   0  0  0  0  0  0  0  0  0  0  0  0
   -4.5143   14.8806    4.8682 C   0  0  1  0  0  0  0  0  0  0  0  0
   -4.0957   15.8536    3.8056 N   0  0  0  0  0  0  0  0  0  0  0  0
   -8.8583   12.4766   13.7601 C   0  0  0  0  0  0  0  0  0  0  0  0
   -5.9668   13.4439   10.8569 C   0  0  2  0  0  0  0  0  0  0  0  0
   -5.6072   13.8410    4.2492 C   0  0  1  0  0  0  0  0  0  0  0  0
   -5.0816   13.0869    3.1701 O   0  0  0  0  0  0  0  0  0  0  0  0
   -8.4818   11.5764   12.8137 C   0  0  2  0  0  0  0  0  0  0  0  0
   -8.4951   11.8810   11.4142 O   0  0  0  0  0  0  0  0  0  0  0  0
   -5.7957   13.9562    9.3789 C   0  0  2  0  0  0  0  0  0  0  0  0
   -6.8292   13.3755    8.5547 O   0  0  0  0  0  0  0  0  0  0  0  0
   -6.0507   12.8200    5.3468 C   0  0  0  0  0  0  0  0  0  0  0  0
   -4.8321   12.1438    5.9175 O   0  0  0  0  0  0  0  0  0  0  0  0
   -8.0140   10.1596   13.1517 C   0  0  0  0  0  0  0  0  0  0  0  0
   -6.5881   10.0885   12.9148 O   0  0  0  0  0  0  0  0  0  0  0  0
   -4.3881   13.4960    8.8476 C   0  0  1  0  0  0  0  0  0  0  0  0
   -4.2584   13.9371    7.5326 O   0  0  0  0  0  0  0  0  0  0  0  0
   -6.9080   14.4965    3.7257 C   0  0  0  0  0  0  0  0  0  0  0  0
   -3.7233   17.2094    4.2588 C   0  0  0  0  0  0  0  0  0  0  0  0
  1  2  1  1  0  0  0
  1  6  1  0  0  0  0
  1 21  1  0  0  0  0
  3  4  1  6  0  0  0
  3  8  1  0  0  0  0
  3 28  1  0  0  0  0
  5  9  1  0  0  0  0
  5 25  1  0  0  0  0
  5 29  1  1  0  0  0
  6  7  1  6  0  0  0
  6 11  1  0  0  0  0
  8 12  1  0  0  0  0
  9 10  1  1  0  0  0
  9 14  1  0  0  0  0
 11 16  1  0  0  0  0
 12 13  1  1  0  0  0
 12 17  1  0  0  0  0
 14 15  1  6  0  0  0
 14 18  1  0  0  0  0
 15 31  1  0  0  0  0
 16 20  1  0  0  0  0
 17  2  1  1  0  0  0
 17 22  1  0  0  0  0
 18 19  1  6  0  0  0
 18 24  1  0  0  0  0
 18 30  1  0  0  0  0
 20 21  1  0  0  0  0
 20 26  1  6  0  0  0
 22 23  1  6  0  0  0
 22 28  1  0  0  0  0
 24 25  1  0  0  0  0
 26 27  1  0  0  0  0
 28 29  1  6  0  0  0
M  END
>  <CHROM.1>
-179.32403969,-159.03546913,-92.87058062,-164.83089424,-108.29889235,107.27970703
-5.81252682,13.55081382,8.88149448,1.99579946,0.08819324,1.76486035

>  <Name>
ligand

>  <RI>
0

>  <Rbt.Current_Directory>
/home/itssahil/PROJECTS/Mol_Feturizer/New_Systems/rnas/4GPX

>  <Rbt.Executable>
rbdock ($Id: //depot/dev/client3/rdock/2013.1/src/exe/rbdock.cxx#4 $)

>  <Rbt.Library>
libRbt.so (2013.1, Build901 2013/11/27)

>  <Rbt.Parameter_File>
/export/apps/rDock/src/rDock_2013.1_src/data/scripts/dock_solv.prm

>  <Rbt.Receptor>
prm/pocket_docking_7.prm

>  <SCORE>
-12.8702

>  <SCORE.INTER>
-7.93174

>  <SCORE.INTER.CONST>
1

>  <SCORE.INTER.POLAR>
0

>  <SCORE.INTER.ROT>
6

>  <SCORE.INTER.SOLV>
13.7873

>  <SCORE.INTER.VDW>
-17.4836

>  <SCORE.INTER.norm>
-0.255863

>  <SCORE.INTRA>
-4.93845

>  <SCORE.INTRA.DIHEDRAL>
-8.66677

>  <SCORE.INTRA.DIHEDRAL.0>
20.6841

>  <SCORE.INTRA.POLAR>
0

>  <SCORE.INTRA.POLAR.0>
0

>  <SCORE.INTRA.REPUL>
0

>  <SCORE.INTRA.REPUL.0>
0

>  <SCORE.INTRA.SOLV>
-0.916219

>  <SCORE.INTRA.SOLV.lig_0>
-64.6797

>  <SCORE.INTRA.VDW>
-0.146961

>  <SCORE.INTRA.VDW.0>
-4.11825

>  <SCORE.INTRA.norm>
-0.159305

>  <SCORE.RESTR>
0

>  <SCORE.RESTR.CAVITY>
0

>  <SCORE.RESTR.norm>
0

>  <SCORE.SYSTEM>
0

>  <SCORE.SYSTEM.CONST>
0

>  <SCORE.SYSTEM.DIHEDRAL>
0

>  <SCORE.SYSTEM.SOLV>
0

>  <SCORE.SYSTEM.norm>
0

>  <SCORE.heavy>
31

>  <SCORE.norm>
-0.415168

>  <RMSD>
7.761

$$$$
ligand
 OpenBabel11021811493D
libRbt.so/2013.1/901 2013/11/27
 31 33  0  0  0  0  0  0  0  0999 V2000
    0.4887   11.3311    8.1816 C   0  0  2  0  0  0  0  0  0  0  0  0
   -0.8098   10.9434    8.6205 O   0  0  0  0  0  0  0  0  0  0  0  0
   -4.6925   12.6033    8.1168 C   0  0  2  0  0  0  0  0  0  0  0  0
   -5.8185   13.4685    8.2913 N   0  0  0  0  0  0  0  0  0  0  0  0
   -4.7158   15.1397    6.2739 C   0  0  2  0  0  0  0  0  0  0  0  0
    1.3839   10.0259    8.2151 C   0  0  2  0  0  0  0  0  0  0  0  0
    0.7875    9.0255    7.3361 N   0  0  0  0  0  0  0  0  0  0  0  0
   -4.3552   11.9351    9.5131 C   0  0  0  0  0  0  0  0  0  0  0  0
   -4.2538   15.9395    5.0148 C   0  0  2  0  0  0  0  0  0  0  0  0
   -4.2543   15.0645    3.9071 O   0  0  0  0  0  0  0  0  0  0  0  0
    1.4977    9.4743    9.6922 C   0  0  0  0  0  0  0  0  0  0  0  0
   -3.1145   10.9839    9.3253 C   0  0  2  0  0  0  0  0  0  0  0  0
   -2.7927   10.3637   10.6219 N   0  0  0  0  0  0  0  0  0  0  0  0
   -2.8017   16.4765    5.3094 C   0  0  1  0  0  0  0  0  0  0  0  0
   -2.2937   17.2404    4.1222 N   0  0  0  0  0  0  0  0  0  0  0  0
    1.5987   10.6398   10.7650 C   0  0  0  0  0  0  0  0  0  0  0  0
   -1.8697   11.8206    8.7905 C   0  0  2  0  0  0  0  0  0  0  0  0
   -2.8858   17.4724    6.5976 C   0  0  1  0  0  0  0  0  0  0  0  0
   -3.7732   18.5568    6.3825 O   0  0  0  0  0  0  0  0  0  0  0  0
    1.3883   11.9360   10.4139 C   0  0  2  0  0  0  0  0  0  0  0  0
    1.0675   12.3273    9.0740 O   0  0  0  0  0  0  0  0  0  0  0  0
   -2.2349   12.4805    7.4095 C   0  0  2  0  0  0  0  0  0  0  0  0
   -1.1048   13.2449    6.9372 O   0  0  0  0  0  0  0  0  0  0  0  0
   -3.4157   16.6883    7.8419 C   0  0  0  0  0  0  0  0  0  0  0  0
   -4.7293   16.0378    7.4966 O   0  0  0  0  0  0  0  0  0  0  0  0
    1.4770   13.0934   11.4105 C   0  0  0  0  0  0  0  0  0  0  0  0
    2.4517   14.0407   10.9136 O   0  0  0  0  0  0  0  0  0  0  0  0
   -3.4610   13.4434    7.6215 C   0  0  1  0  0  0  0  0  0  0  0  0
   -3.7601   14.0366    6.3971 O   0  0  0  0  0  0  0  0  0  0  0  0
   -1.5368   18.0965    7.0293 C   0  0  0  0  0  0  0  0  0  0  0  0
   -0.9016   16.9712    3.7078 C   0  0  0  0  0  0  0  0  0  0  0  0
  1  2  1  1  0  0  0
  1  6  1  0  0  0  0
  1 21  1  0  0  0  0
  3  4  1  1  0  0  0
  3  8  1  0  0  0  0
  3 28  1  0  0  0  0
  5  9  1  0  0  0  0
  5 25  1  0  0  0  0
  5 29  1  1  0  0  0
  6  7  1  6  0  0  0
  6 11  1  0  0  0  0
  8 12  1  0  0  0  0
  9 10  1  6  0  0  0
  9 14  1  0  0  0  0
 11 16  1  0  0  0  0
 12 13  1  1  0  0  0
 12 17  1  0  0  0  0
 14 15  1  6  0  0  0
 14 18  1  0  0  0  0
 15 31  1  0  0  0  0
 16 20  1  0  0  0  0
 17  2  1  6  0  0  0
 17 22  1  0  0  0  0
 18 19  1  6  0  0  0
 18 24  1  0  0  0  0
 18 30  1  0  0  0  0
 20 21  1  0  0  0  0
 20 26  1  6  0  0  0
 22 23  1  1  0  0  0
 22 28  1  0  0  0  0
 24 25  1  0  0  0  0
 26 27  1  0  0  0  0
 28 29  1  6  0  0  0
M  END
>  <CHROM.1>
176.83607659,152.55103701,-135.71945131,-178.54028438,123.45433529,70.76141391
-1.83732641,13.61967449,7.76998844,-1.01060730,-0.18977339,-0.49263425

>  <Name>
ligand

>  <RI>
0

>  <Rbt.Current_Directory>
/home/itssahil/PROJECTS/Mol_Feturizer/New_Systems/rnas/4GPX

>  <Rbt.Executable>
rbdock ($Id: //depot/dev/client3/rdock/2013.1/src/exe/rbdock.cxx#4 $)

>  <Rbt.Library>
libRbt.so (2013.1, Build901 2013/11/27)

>  <Rbt.Parameter_File>
/export/apps/rDock/src/rDock_2013.1_src/data/scripts/dock_solv.prm

>  <Rbt.Receptor>
prm/pocket_docking_4.prm

>  <SCORE>
-12.2032

>  <SCORE.INTER>
-5.3962

>  <SCORE.INTER.CONST>
1

>  <SCORE.INTER.POLAR>
0

>  <SCORE.INTER.ROT>
6

>  <SCORE.INTER.SOLV>
14.6871

>  <SCORE.INTER.VDW>
-16.0932

>  <SCORE.INTER.norm>
-0.174071

>  <SCORE.INTRA>
-6.80703

>  <SCORE.INTRA.DIHEDRAL>
-14.2314

>  <SCORE.INTRA.DIHEDRAL.0>
20.6841

>  <SCORE.INTRA.POLAR>
0

>  <SCORE.INTRA.POLAR.0>
0

>  <SCORE.INTRA.REPUL>
0

>  <SCORE.INTRA.REPUL.0>
0

>  <SCORE.INTRA.SOLV>
-1.32441

>  <SCORE.INTRA.SOLV.lig_0>
-64.6797

>  <SCORE.INTRA.VDW>
0.970852

>  <SCORE.INTRA.VDW.0>
-4.11825

>  <SCORE.INTRA.norm>
-0.219582

>  <SCORE.RESTR>
0

>  <SCORE.RESTR.CAVITY>
0

>  <SCORE.RESTR.norm>
0

>  <SCORE.SYSTEM>
0

>  <SCORE.SYSTEM.CONST>
0

>  <SCORE.SYSTEM.DIHEDRAL>
0

>  <SCORE.SYSTEM.SOLV>
0

>  <SCORE.SYSTEM.norm>
0

>  <SCORE.heavy>
31

>  <SCORE.norm>
-0.393653

>  <RMSD>
7.768

$$$$
ligand
 OpenBabel11021811493D
libRbt.so/2013.1/901 2013/11/27
 31 33  0  0  0  0  0  0  0  0999 V2000
    0.2819   10.8141    8.1958 C   0  0  2  0  0  0  0  0  0  0  0  0
   -0.8912   10.4711    8.9275 O   0  0  0  0  0  0  0  0  0  0  0  0
   -4.7199   12.1192    9.7697 C   0  0  2  0  0  0  0  0  0  0  0  0
   -5.7187   13.0278   10.2426 N   0  0  0  0  0  0  0  0  0  0  0  0
   -5.1988   14.5726    7.5217 C   0  0  2  0  0  0  0  0  0  0  0  0
    1.2174    9.5373    8.2203 C   0  0  2  0  0  0  0  0  0  0  0  0
    0.5024    8.4203    7.6117 N   0  0  0  0  0  0  0  0  0  0  0  0
   -3.8236   11.6784   10.9996 C   0  0  0  0  0  0  0  0  0  0  0  0
   -5.9436   14.5954    6.1494 C   0  0  2  0  0  0  0  0  0  0  0  0
   -6.9033   13.5602    6.1469 O   0  0  0  0  0  0  0  0  0  0  0  0
    1.6358    9.1898    9.7046 C   0  0  0  0  0  0  0  0  0  0  0  0
   -2.7213   10.6801   10.4822 C   0  0  2  0  0  0  0  0  0  0  0  0
   -1.8811   10.2709   11.6207 N   0  0  0  0  0  0  0  0  0  0  0  0
   -4.8616   14.3647    5.0269 C   0  0  1  0  0  0  0  0  0  0  0  0
   -5.5228   14.3565    3.6801 N   0  0  0  0  0  0  0  0  0  0  0  0
    1.8961   10.4896   10.5777 C   0  0  0  0  0  0  0  0  0  0  0  0
   -1.8319   11.3892    9.3679 C   0  0  2  0  0  0  0  0  0  0  0  0
   -3.7939   15.5949    5.0976 C   0  0  1  0  0  0  0  0  0  0  0  0
   -4.4151   16.8573    4.9250 O   0  0  0  0  0  0  0  0  0  0  0  0
    1.5710   11.7243   10.1112 C   0  0  2  0  0  0  0  0  0  0  0  0
    0.9824   11.9285    8.8214 O   0  0  0  0  0  0  0  0  0  0  0  0
   -2.7472   11.8250    8.1644 C   0  0  2  0  0  0  0  0  0  0  0  0
   -1.9347   12.4756    7.1639 O   0  0  0  0  0  0  0  0  0  0  0  0
   -3.0985   15.6155    6.4976 C   0  0  0  0  0  0  0  0  0  0  0  0
   -4.1506   15.6683    7.5739 O   0  0  0  0  0  0  0  0  0  0  0  0
    1.8047   13.0057   10.9136 C   0  0  0  0  0  0  0  0  0  0  0  0
    0.5225   13.4774   11.3909 O   0  0  0  0  0  0  0  0  0  0  0  0
   -3.8270   12.8384    8.6959 C   0  0  1  0  0  0  0  0  0  0  0  0
   -4.6163   13.2322    7.6176 O   0  0  0  0  0  0  0  0  0  0  0  0
   -2.6519   15.5286    4.0549 C   0  0  0  0  0  0  0  0  0  0  0  0
   -6.2499   13.1260    3.3068 C   0  0  0  0  0  0  0  0  0  0  0  0
  1  2  1  1  0  0  0
  1  6  1  0  0  0  0
  1 21  1  0  0  0  0
  3  4  1  1  0  0  0
  3  8  1  0  0  0  0
  3 28  1  0  0  0  0
  5  9  1  0  0  0  0
  5 25  1  0  0  0  0
  5 29  1  6  0  0  0
  6  7  1  1  0  0  0
  6 11  1  0  0  0  0
  8 12  1  0  0  0  0
  9 10  1  1  0  0  0
  9 14  1  0  0  0  0
 11 16  1  0  0  0  0
 12 13  1  1  0  0  0
 12 17  1  0  0  0  0
 14 15  1  6  0  0  0
 14 18  1  0  0  0  0
 15 31  1  0  0  0  0
 16 20  1  0  0  0  0
 17  2  1  6  0  0  0
 17 22  1  0  0  0  0
 18 19  1  6  0  0  0
 18 24  1  0  0  0  0
 18 30  1  0  0  0  0
 20 21  1  0  0  0  0
 20 26  1  6  0  0  0
 22 23  1  6  0  0  0
 22 28  1  0  0  0  0
 24 25  1  0  0  0  0
 26 27  1  0  0  0  0
 28 29  1  6  0  0  0
M  END
>  <CHROM.1>
166.34606800,177.76662887,-77.13456002,-163.42005497,-106.44147343,94.16278223
-2.49313648,12.69329359,7.99703435,-0.77715226,0.26071304,-1.10011946

>  <Name>
ligand

>  <RI>
0

>  <Rbt.Current_Directory>
/home/itssahil/PROJECTS/Mol_Feturizer/New_Systems/rnas/4GPX

>  <Rbt.Executable>
rbdock ($Id: //depot/dev/client3/rdock/2013.1/src/exe/rbdock.cxx#4 $)

>  <Rbt.Library>
libRbt.so (2013.1, Build901 2013/11/27)

>  <Rbt.Parameter_File>
/export/apps/rDock/src/rDock_2013.1_src/data/scripts/dock_solv.prm

>  <Rbt.Receptor>
prm/pocket_docking_2.prm

>  <SCORE>
-11.671

>  <SCORE.INTER>
-6.83088

>  <SCORE.INTER.CONST>
1

>  <SCORE.INTER.POLAR>
0

>  <SCORE.INTER.ROT>
6

>  <SCORE.INTER.SOLV>
18.0294

>  <SCORE.INTER.VDW>
-18.1637

>  <SCORE.INTER.norm>
-0.220351

>  <SCORE.INTRA>
-6.29504

>  <SCORE.INTRA.DIHEDRAL>
-11.9824

>  <SCORE.INTRA.DIHEDRAL.0>
20.6841

>  <SCORE.INTRA.POLAR>
0

>  <SCORE.INTRA.POLAR.0>
0

>  <SCORE.INTRA.REPUL>
0

>  <SCORE.INTRA.REPUL.0>
0

>  <SCORE.INTRA.SOLV>
-1.1358

>  <SCORE.INTRA.SOLV.lig_0>
-64.6797

>  <SCORE.INTRA.VDW>
0.264086

>  <SCORE.INTRA.VDW.0>
-4.11825

>  <SCORE.INTRA.norm>
-0.203066

>  <SCORE.RESTR>
1.45494

>  <SCORE.RESTR.CAVITY>
1.45494

>  <SCORE.RESTR.norm>
0.0469336

>  <SCORE.SYSTEM>
0

>  <SCORE.SYSTEM.CONST>
0

>  <SCORE.SYSTEM.DIHEDRAL>
0

>  <SCORE.SYSTEM.SOLV>
0

>  <SCORE.SYSTEM.norm>
0

>  <SCORE.heavy>
31

>  <SCORE.norm>
-0.376483

>  <RMSD>
7.773

$$$$
ligand
 OpenBabel11021811493D
libRbt.so/2013.1/901 2013/11/27
 31 33  0  0  0  0  0  0  0  0999 V2000
    0.3766   11.0666    8.5005 C   0  0  2  0  0  0  0  0  0  0  0  0
   -0.8259   10.6934    9.1668 O   0  0  0  0  0  0  0  0  0  0  0  0
   -4.7428   12.3476    9.2357 C   0  0  2  0  0  0  0  0  0  0  0  0
   -5.8302   13.2169    9.5656 N   0  0  0  0  0  0  0  0  0  0  0  0
   -4.7529   12.9591    6.3289 C   0  0  2  0  0  0  0  0  0  0  0  0
    1.3576    9.8295    8.6146 C   0  0  2  0  0  0  0  0  0  0  0  0
    0.7259    8.6711    7.9914 N   0  0  0  0  0  0  0  0  0  0  0  0
   -4.1939   11.7043   10.5754 C   0  0  0  0  0  0  0  0  0  0  0  0
   -3.7794   12.9912    5.1082 C   0  0  2  0  0  0  0  0  0  0  0  0
   -2.5373   12.4585    5.5157 O   0  0  0  0  0  0  0  0  0  0  0  0
    1.6954    9.5329   10.1301 C   0  0  0  0  0  0  0  0  0  0  0  0
   -2.9951   10.7487   10.2163 C   0  0  2  0  0  0  0  0  0  0  0  0
   -2.4768   10.1516   11.4591 N   0  0  0  0  0  0  0  0  0  0  0  0
   -3.6309   14.4974    4.6687 C   0  0  1  0  0  0  0  0  0  0  0  0
   -2.6873   14.5951    3.5063 N   0  0  0  0  0  0  0  0  0  0  0  0
    1.8499   10.8616   10.9847 C   0  0  0  0  0  0  0  0  0  0  0  0
   -1.8486   11.5745    9.4819 C   0  0  2  0  0  0  0  0  0  0  0  0
   -5.1020   15.0368    4.2178 C   0  0  1  0  0  0  0  0  0  0  0  0
   -5.6549   14.2718    3.1603 O   0  0  0  0  0  0  0  0  0  0  0  0
    1.5069   12.0712   10.4681 C   0  0  2  0  0  0  0  0  0  0  0  0
    0.9927   12.2222    9.1399 O   0  0  0  0  0  0  0  0  0  0  0  0
   -2.4228   12.2098    8.1618 C   0  0  2  0  0  0  0  0  0  0  0  0
   -1.3800   12.9645    7.5079 O   0  0  0  0  0  0  0  0  0  0  0  0
   -6.0958   14.9388    5.4207 C   0  0  0  0  0  0  0  0  0  0  0  0
   -6.1060   13.5261    5.9425 O   0  0  0  0  0  0  0  0  0  0  0  0
    1.6401   13.3789   11.2510 C   0  0  0  0  0  0  0  0  0  0  0  0
    1.7118   13.0542   12.6595 O   0  0  0  0  0  0  0  0  0  0  0  0
   -3.6035   13.1775    8.5423 C   0  0  1  0  0  0  0  0  0  0  0  0
   -4.0882   13.7490    7.3679 O   0  0  0  0  0  0  0  0  0  0  0  0
   -5.1413   16.5120    3.7511 C   0  0  0  0  0  0  0  0  0  0  0  0
   -1.2947   14.9796    3.8144 C   0  0  0  0  0  0  0  0  0  0  0  0
  1  2  1  1  0  0  0
  1  6  1  0  0  0  0
  1 21  1  0  0  0  0
  3  4  1  1  0  0  0
  3  8  1  0  0  0  0
  3 28  1  0  0  0  0
  5  9  1  0  0  0  0
  5 25  1  0  0  0  0
  5 29  1  1  0  0  0
  6  7  1  1  0  0  0
  6 11  1  0  0  0  0
  8 12  1  0  0  0  0
  9 10  1  1  0  0  0
  9 14  1  0  0  0  0
 11 16  1  0  0  0  0
 12 13  1  1  0  0  0
 12 17  1  0  0  0  0
 14 15  1  6  0  0  0
 14 18  1  0  0  0  0
 15 31  1  0  0  0  0
 16 20  1  0  0  0  0
 17  2  1  6  0  0  0
 17 22  1  0  0  0  0
 18 19  1  6  0  0  0
 18 24  1  0  0  0  0
 18 30  1  0  0  0  0
 20 21  1  0  0  0  0
 20 26  1  6  0  0  0
 22 23  1  1  0  0  0
 22 28  1  0  0  0  0
 24 25  1  0  0  0  0
 26 27  1  0  0  0  0
 28 29  1  6  0  0  0
M  END
>  <CHROM.1>
168.79643152,-112.42806239,-98.75898903,-179.98778870,-19.64555530,-52.82023498
-2.22799436,12.60539867,7.80205821,-0.86540581,0.16252428,-1.16949676

>  <Name>
ligand

>  <RI>
0

>  <Rbt.Current_Directory>
/home/itssahil/PROJECTS/Mol_Feturizer/New_Systems/rnas/4GPX

>  <Rbt.Executable>
rbdock ($Id: //depot/dev/client3/rdock/2013.1/src/exe/rbdock.cxx#4 $)

>  <Rbt.Library>
libRbt.so (2013.1, Build901 2013/11/27)

>  <Rbt.Parameter_File>
/export/apps/rDock/src/rDock_2013.1_src/data/scripts/dock_solv.prm

>  <Rbt.Receptor>
prm/pocket_docking_2.prm

>  <SCORE>
-8.60704

>  <SCORE.INTER>
-7.13905

>  <SCORE.INTER.CONST>
1

>  <SCORE.INTER.POLAR>
0

>  <SCORE.INTER.ROT>
6

>  <SCORE.INTER.SOLV>
18.7404

>  <SCORE.INTER.VDW>
-18.6062

>  <SCORE.INTER.norm>
-0.230292

>  <SCORE.INTRA>
-1.75366

>  <SCORE.INTRA.DIHEDRAL>
-9.88707

>  <SCORE.INTRA.DIHEDRAL.0>
20.6841

>  <SCORE.INTRA.POLAR>
0

>  <SCORE.INTRA.POLAR.0>
0

>  <SCORE.INTRA.REPUL>
0

>  <SCORE.INTRA.REPUL.0>
0

>  <SCORE.INTRA.SOLV>
-1.48124

>  <SCORE.INTRA.SOLV.lig_0>
-64.6797

>  <SCORE.INTRA.VDW>
3.9305

>  <SCORE.INTRA.VDW.0>
-4.11825

>  <SCORE.INTRA.norm>
-0.0565696

>  <SCORE.RESTR>
0.285671

>  <SCORE.RESTR.CAVITY>
0.285671

>  <SCORE.RESTR.norm>
0.0092152

>  <SCORE.SYSTEM>
0

>  <SCORE.SYSTEM.CONST>
0

>  <SCORE.SYSTEM.DIHEDRAL>
0

>  <SCORE.SYSTEM.SOLV>
0

>  <SCORE.SYSTEM.norm>
0

>  <SCORE.heavy>
31

>  <SCORE.norm>
-0.277646

>  <RMSD>
7.787

$$$$
ligand
 OpenBabel11021811493D
libRbt.so/2013.1/901 2013/11/27
 31 33  0  0  0  0  0  0  0  0999 V2000
   -0.1550   11.5540    1.9637 C   0  0  2  0  0  0  0  0  0  0  0  0
   -0.1119   10.8943    3.2255 O   0  0  0  0  0  0  0  0  0  0  0  0
   -1.9438   11.7920    6.9568 C   0  0  2  0  0  0  0  0  0  0  0  0
   -2.1696   12.3975    8.2333 N   0  0  0  0  0  0  0  0  0  0  0  0
   -3.6208   14.4567    6.8775 C   0  0  2  0  0  0  0  0  0  0  0  0
    0.1792   10.4585    0.8710 C   0  0  2  0  0  0  0  0  0  0  0  0
   -0.8097    9.3893    0.9612 N   0  0  0  0  0  0  0  0  0  0  0  0
   -0.5297   11.0783    6.9861 C   0  0  0  0  0  0  0  0  0  0  0  0
   -4.9465   15.0917    6.3502 C   0  0  2  0  0  0  0  0  0  0  0  0
   -5.8690   14.0527    6.1011 O   0  0  0  0  0  0  0  0  0  0  0  0
    1.6377    9.8896    1.0899 C   0  0  0  0  0  0  0  0  0  0  0  0
   -0.2766   10.4128    5.5816 C   0  0  2  0  0  0  0  0  0  0  0  0
    1.0397    9.7520    5.6010 N   0  0  0  0  0  0  0  0  0  0  0  0
   -4.5976   15.8670    5.0233 C   0  0  1  0  0  0  0  0  0  0  0  0
   -5.8413   16.4853    4.4559 N   0  0  0  0  0  0  0  0  0  0  0  0
    2.6597   11.0124    1.5532 C   0  0  0  0  0  0  0  0  0  0  0  0
   -0.3181   11.5249    4.4427 C   0  0  2  0  0  0  0  0  0  0  0  0
   -3.5300   17.0424    5.3938 C   0  0  1  0  0  0  0  0  0  0  0  0
   -4.0355   17.9415    6.3661 O   0  0  0  0  0  0  0  0  0  0  0  0
    2.2264   12.2501    1.9112 C   0  0  2  0  0  0  0  0  0  0  0  0
    0.8415   12.6151    1.8931 O   0  0  0  0  0  0  0  0  0  0  0  0
   -1.7281   12.2236    4.4424 C   0  0  2  0  0  0  0  0  0  0  0  0
   -1.7535   13.2367    3.4141 O   0  0  0  0  0  0  0  0  0  0  0  0
   -2.2291   16.4109    5.9878 C   0  0  0  0  0  0  0  0  0  0  0  0
   -2.5917   15.5356    7.1583 O   0  0  0  0  0  0  0  0  0  0  0  0
    3.1721   13.3652    2.3616 C   0  0  0  0  0  0  0  0  0  0  0  0
    2.7936   13.7619    3.7009 O   0  0  0  0  0  0  0  0  0  0  0  0
   -1.9531   12.9012    5.8445 C   0  0  1  0  0  0  0  0  0  0  0  0
   -3.1942   13.5336    5.8234 O   0  0  0  0  0  0  0  0  0  0  0  0
   -3.0744   17.9112    4.1966 C   0  0  0  0  0  0  0  0  0  0  0  0
   -6.5247   15.7336    3.3835 C   0  0  0  0  0  0  0  0  0  0  0  0
  1  2  1  1  0  0  0
  1  6  1  0  0  0  0
  1 21  1  0  0  0  0
  3  4  1  1  0  0  0
  3  8  1  0  0  0  0
  3 28  1  0  0  0  0
  5  9  1  0  0  0  0
  5 25  1  0  0  0  0
  5 29  1  6  0  0  0
  6  7  1  1  0  0  0
  6 11  1  0  0  0  0
  8 12  1  0  0  0  0
  9 10  1  6  0  0  0
  9 14  1  0  0  0  0
 11 16  1  0  0  0  0
 12 13  1  1  0  0  0
 12 17  1  0  0  0  0
 14 15  1  1  0  0  0
 14 18  1  0  0  0  0
 15 31  1  0  0  0  0
 16 20  1  0  0  0  0
 17  2  1  6  0  0  0
 17 22  1  0  0  0  0
 18 19  1  1  0  0  0
 18 24  1  0  0  0  0
 18 30  1  0  0  0  0
 20 21  1  0  0  0  0
 20 26  1  6  0  0  0
 22 23  1  6  0  0  0
 22 28  1  0  0  0  0
 24 25  1  0  0  0  0
 26 27  1  0  0  0  0
 28 29  1  6  0  0  0
M  END
>  <CHROM.1>
178.31663253,171.39749771,-97.31889272,176.35699316,-120.74585597,72.23725889
-1.53697668,13.28509382,4.45533588,-0.08291215,0.79645557,-0.85701832

>  <Name>
ligand

>  <RI>
0

>  <Rbt.Current_Directory>
/home/itssahil/PROJECTS/Mol_Feturizer/New_Systems/rnas/4GPX

>  <Rbt.Executable>
rbdock ($Id: //depot/dev/client3/rdock/2013.1/src/exe/rbdock.cxx#4 $)

>  <Rbt.Library>
libRbt.so (2013.1, Build901 2013/11/27)

>  <Rbt.Parameter_File>
/export/apps/rDock/src/rDock_2013.1_src/data/scripts/dock_solv.prm

>  <Rbt.Receptor>
prm/pocket_docking_8.prm

>  <SCORE>
-16.1087

>  <SCORE.INTER>
-7.63058

>  <SCORE.INTER.CONST>
1

>  <SCORE.INTER.POLAR>
0

>  <SCORE.INTER.ROT>
6

>  <SCORE.INTER.SOLV>
11.9268

>  <SCORE.INTER.VDW>
-16.6626

>  <SCORE.INTER.norm>
-0.246148

>  <SCORE.INTRA>
-8.47814

>  <SCORE.INTRA.DIHEDRAL>
-17.0138

>  <SCORE.INTRA.DIHEDRAL.0>
20.6841

>  <SCORE.INTRA.POLAR>
0

>  <SCORE.INTRA.POLAR.0>
0

>  <SCORE.INTRA.REPUL>
0

>  <SCORE.INTRA.REPUL.0>
0

>  <SCORE.INTRA.SOLV>
-1.89872

>  <SCORE.INTRA.SOLV.lig_0>
-64.6797

>  <SCORE.INTRA.VDW>
0.978117

>  <SCORE.INTRA.VDW.0>
-4.11825

>  <SCORE.INTRA.norm>
-0.273488

>  <SCORE.RESTR>
0

>  <SCORE.RESTR.CAVITY>
0

>  <SCORE.RESTR.norm>
0

>  <SCORE.SYSTEM>
0

>  <SCORE.SYSTEM.CONST>
0

>  <SCORE.SYSTEM.DIHEDRAL>
0

>  <SCORE.SYSTEM.SOLV>
0

>  <SCORE.SYSTEM.norm>
0

>  <SCORE.heavy>
31

>  <SCORE.norm>
-0.519636

>  <RMSD>
7.793

$$$$
ligand
 OpenBabel11021811493D
libRbt.so/2013.1/901 2013/11/27
 31 33  0  0  0  0  0  0  0  0999 V2000
    0.0884   10.6844    8.8189 C   0  0  2  0  0  0  0  0  0  0  0  0
    0.0204   11.7984    9.7042 O   0  0  0  0  0  0  0  0  0  0  0  0
   -4.1478   12.6055    9.9461 C   0  0  2  0  0  0  0  0  0  0  0  0
   -5.3723   13.2721   10.2669 N   0  0  0  0  0  0  0  0  0  0  0  0
   -4.8702   14.9482    7.7329 C   0  0  2  0  0  0  0  0  0  0  0  0
    0.6147    9.4607    9.6742 C   0  0  2  0  0  0  0  0  0  0  0  0
   -0.3124    9.2255   10.7762 N   0  0  0  0  0  0  0  0  0  0  0  0
   -3.3809   12.2930   11.2967 C   0  0  0  0  0  0  0  0  0  0  0  0
   -5.5880   14.7357    6.3624 C   0  0  2  0  0  0  0  0  0  0  0  0
   -6.2282   13.4778    6.3858 O   0  0  0  0  0  0  0  0  0  0  0  0
    2.0682    9.7561   10.2211 C   0  0  0  0  0  0  0  0  0  0  0  0
   -2.0310   11.5614   10.9473 C   0  0  2  0  0  0  0  0  0  0  0  0
   -1.3107   11.2731   12.1993 N   0  0  0  0  0  0  0  0  0  0  0  0
   -4.4803   14.7846    5.2424 C   0  0  1  0  0  0  0  0  0  0  0  0
   -5.1093   14.5659    3.8980 N   0  0  0  0  0  0  0  0  0  0  0  0
    2.9591   10.5446    9.1704 C   0  0  0  0  0  0  0  0  0  0  0  0
   -1.1448   12.4875   10.0024 C   0  0  2  0  0  0  0  0  0  0  0  0
   -3.7898   16.2611    5.2825 C   0  0  1  0  0  0  0  0  0  0  0  0
   -4.7319   17.3014    5.0833 O   0  0  0  0  0  0  0  0  0  0  0  0
    2.4135   11.0657    8.0397 C   0  0  2  0  0  0  0  0  0  0  0  0
    1.0212   10.9381    7.7284 O   0  0  0  0  0  0  0  0  0  0  0  0
   -1.9332   12.7899    8.6746 C   0  0  2  0  0  0  0  0  0  0  0  0
   -1.1269   13.6378    7.8287 O   0  0  0  0  0  0  0  0  0  0  0  0
   -3.1315   16.5023    6.6798 C   0  0  0  0  0  0  0  0  0  0  0  0
   -4.1616   16.2895    7.7575 O   0  0  0  0  0  0  0  0  0  0  0  0
    3.2308   11.8307    6.9970 C   0  0  0  0  0  0  0  0  0  0  0  0
    2.7802   13.2059    6.9931 O   0  0  0  0  0  0  0  0  0  0  0  0
   -3.2665   13.5401    9.0419 C   0  0  1  0  0  0  0  0  0  0  0  0
   -3.9438   13.8205    7.8573 O   0  0  0  0  0  0  0  0  0  0  0  0
   -2.6695   16.4862    4.2385 C   0  0  0  0  0  0  0  0  0  0  0  0
   -5.4604   13.1739    3.5497 C   0  0  0  0  0  0  0  0  0  0  0  0
  1  2  1  1  0  0  0
  1  6  1  0  0  0  0
  1 21  1  0  0  0  0
  3  4  1  1  0  0  0
  3  8  1  0  0  0  0
  3 28  1  0  0  0  0
  5  9  1  0  0  0  0
  5 25  1  0  0  0  0
  5 29  1  6  0  0  0
  6  7  1  1  0  0  0
  6 11  1  0  0  0  0
  8 12  1  0  0  0  0
  9 10  1  1  0  0  0
  9 14  1  0  0  0  0
 11 16  1  0  0  0  0
 12 13  1  1  0  0  0
 12 17  1  0  0  0  0
 14 15  1  6  0  0  0
 14 18  1  0  0  0  0
 15 31  1  0  0  0  0
 16 20  1  0  0  0  0
 17  2  1  6  0  0  0
 17 22  1  0  0  0  0
 18 19  1  6  0  0  0
 18 24  1  0  0  0  0
 18 30  1  0  0  0  0
 20 21  1  0  0  0  0
 20 26  1  6  0  0  0
 22 23  1  6  0  0  0
 22 28  1  0  0  0  0
 24 25  1  0  0  0  0
 26 27  1  0  0  0  0
 28 29  1  6  0  0  0
M  END
>  <CHROM.1>
-119.26069305,-169.84088323,-77.64458912,72.86627874,-113.85314745,87.99486449
-2.02910763,13.07464954,7.97028195,-0.72472416,0.31358291,-1.02440774

>  <Name>
ligand

>  <RI>
0

>  <Rbt.Current_Directory>
/home/itssahil/PROJECTS/Mol_Feturizer/New_Systems/rnas/4GPX

>  <Rbt.Executable>
rbdock ($Id: //depot/dev/client3/rdock/2013.1/src/exe/rbdock.cxx#4 $)

>  <Rbt.Library>
libRbt.so (2013.1, Build901 2013/11/27)

>  <Rbt.Parameter_File>
/export/apps/rDock/src/rDock_2013.1_src/data/scripts/dock_solv.prm

>  <Rbt.Receptor>
prm/pocket_docking_4.prm

>  <SCORE>
-7.54315

>  <SCORE.INTER>
-6.53866

>  <SCORE.INTER.CONST>
1

>  <SCORE.INTER.POLAR>
0

>  <SCORE.INTER.ROT>
6

>  <SCORE.INTER.SOLV>
15.2028

>  <SCORE.INTER.VDW>
-17.0267

>  <SCORE.INTER.norm>
-0.210924

>  <SCORE.INTRA>
-1.0045

>  <SCORE.INTRA.DIHEDRAL>
-7.01532

>  <SCORE.INTRA.DIHEDRAL.0>
20.6841

>  <SCORE.INTRA.POLAR>
0

>  <SCORE.INTRA.POLAR.0>
0

>  <SCORE.INTRA.REPUL>
0

>  <SCORE.INTRA.REPUL.0>
0

>  <SCORE.INTRA.SOLV>
2.46153

>  <SCORE.INTRA.SOLV.lig_0>
-64.6797

>  <SCORE.INTRA.VDW>
1.2724

>  <SCORE.INTRA.VDW.0>
-4.11825

>  <SCORE.INTRA.norm>
-0.0324032

>  <SCORE.RESTR>
0

>  <SCORE.RESTR.CAVITY>
0

>  <SCORE.RESTR.norm>
0

>  <SCORE.SYSTEM>
0

>  <SCORE.SYSTEM.CONST>
0

>  <SCORE.SYSTEM.DIHEDRAL>
0

>  <SCORE.SYSTEM.SOLV>
0

>  <SCORE.SYSTEM.norm>
0

>  <SCORE.heavy>
31

>  <SCORE.norm>
-0.243328

>  <RMSD>
7.816

$$$$
ligand
 OpenBabel11021811493D
libRbt.so/2013.1/901 2013/11/27
 31 33  0  0  0  0  0  0  0  0999 V2000
    0.2514   10.8577    9.6547 C   0  0  2  0  0  0  0  0  0  0  0  0
   -0.8836   11.5572    9.1529 O   0  0  0  0  0  0  0  0  0  0  0  0
   -2.4979   12.3428    5.2979 C   0  0  2  0  0  0  0  0  0  0  0  0
   -2.6388   12.8952    3.9857 N   0  0  0  0  0  0  0  0  0  0  0  0
   -0.9603   10.7144    3.0280 C   0  0  2  0  0  0  0  0  0  0  0  0
   -0.1889   10.2144   11.0325 C   0  0  2  0  0  0  0  0  0  0  0  0
   -1.3179    9.3213   10.7935 N   0  0  0  0  0  0  0  0  0  0  0  0
   -2.4758   13.5347    6.3414 C   0  0  0  0  0  0  0  0  0  0  0  0
   -1.0404    9.2939    2.3844 C   0  0  2  0  0  0  0  0  0  0  0  0
   -2.2986    8.7348    2.6956 O   0  0  0  0  0  0  0  0  0  0  0  0
   -0.5800   11.3437   12.0672 C   0  0  0  0  0  0  0  0  0  0  0  0
   -2.3183   12.9305    7.7870 C   0  0  2  0  0  0  0  0  0  0  0  0
   -2.2915   14.0347    8.7615 N   0  0  0  0  0  0  0  0  0  0  0  0
    0.1275    8.4347    3.0023 C   0  0  1  0  0  0  0  0  0  0  0  0
    0.0901    7.0465    2.4343 N   0  0  0  0  0  0  0  0  0  0  0  0
    0.3569   12.6196   11.9502 C   0  0  0  0  0  0  0  0  0  0  0  0
   -0.9712   12.0858    7.8743 C   0  0  2  0  0  0  0  0  0  0  0  0
    1.5397    9.1447    2.6024 C   0  0  1  0  0  0  0  0  0  0  0  0
    1.7066    9.2583    1.1993 O   0  0  0  0  0  0  0  0  0  0  0  0
    1.2331   12.7537   10.9196 C   0  0  2  0  0  0  0  0  0  0  0  0
    1.3655   11.7674    9.8896 O   0  0  0  0  0  0  0  0  0  0  0  0
   -1.0157   10.9165    6.8222 C   0  0  2  0  0  0  0  0  0  0  0  0
    0.2130   10.1624    6.9013 O   0  0  0  0  0  0  0  0  0  0  0  0
    1.5906   10.5935    3.1874 C   0  0  0  0  0  0  0  0  0  0  0  0
    0.3792   11.3589    2.7243 O   0  0  0  0  0  0  0  0  0  0  0  0
    2.1579   13.9626   10.7652 C   0  0  0  0  0  0  0  0  0  0  0  0
    1.8815   14.8814   11.8486 O   0  0  0  0  0  0  0  0  0  0  0  0
   -1.1505   11.5399    5.3839 C   0  0  1  0  0  0  0  0  0  0  0  0
   -1.1671   10.4961    4.4615 O   0  0  0  0  0  0  0  0  0  0  0  0
    2.8043    8.4261    3.1317 C   0  0  0  0  0  0  0  0  0  0  0  0
   -0.7135    6.0505    3.1722 C   0  0  0  0  0  0  0  0  0  0  0  0
  1  2  1  1  0  0  0
  1  6  1  0  0  0  0
  1 21  1  0  0  0  0
  3  4  1  6  0  0  0
  3  8  1  0  0  0  0
  3 28  1  0  0  0  0
  5  9  1  0  0  0  0
  5 25  1  0  0  0  0
  5 29  1  1  0  0  0
  6  7  1  6  0  0  0
  6 11  1  0  0  0  0
  8 12  1  0  0  0  0
  9 10  1  1  0  0  0
  9 14  1  0  0  0  0
 11 16  1  0  0  0  0
 12 13  1  1  0  0  0
 12 17  1  0  0  0  0
 14 15  1  6  0  0  0
 14 18  1  0  0  0  0
 15 31  1  0  0  0  0
 16 20  1  0  0  0  0
 17  2  1  1  0  0  0
 17 22  1  0  0  0  0
 18 19  1  6  0  0  0
 18 24  1  0  0  0  0
 18 30  1  0  0  0  0
 20 21  1  0  0  0  0
 20 26  1  1  0  0  0
 22 23  1  6  0  0  0
 22 28  1  0  0  0  0
 24 25  1  0  0  0  0
 26 27  1  0  0  0  0
 28 29  1  6  0  0  0
M  END
>  <CHROM.1>
-169.76740781,179.28975541,-90.61144664,-173.16959867,-1.83057401,76.28923987
-0.25833772,10.93467356,6.47671180,-1.54451986,0.80858547,-2.00077123

>  <Name>
ligand

>  <RI>
0

>  <Rbt.Current_Directory>
/home/itssahil/PROJECTS/Mol_Feturizer/New_Systems/rnas/4GPX

>  <Rbt.Executable>
rbdock ($Id: //depot/dev/client3/rdock/2013.1/src/exe/rbdock.cxx#4 $)

>  <Rbt.Library>
libRbt.so (2013.1, Build901 2013/11/27)

>  <Rbt.Parameter_File>
/export/apps/rDock/src/rDock_2013.1_src/data/scripts/dock_solv.prm

>  <Rbt.Receptor>
prm/pocket_docking_8.prm

>  <SCORE>
-8.4562

>  <SCORE.INTER>
-1.03937

>  <SCORE.INTER.CONST>
1

>  <SCORE.INTER.POLAR>
0

>  <SCORE.INTER.ROT>
6

>  <SCORE.INTER.SOLV>
13.4357

>  <SCORE.INTER.VDW>
-12.7715

>  <SCORE.INTER.norm>
-0.0335281

>  <SCORE.INTRA>
-7.41683

>  <SCORE.INTRA.DIHEDRAL>
-16.4021

>  <SCORE.INTRA.DIHEDRAL.0>
20.6841

>  <SCORE.INTRA.POLAR>
0

>  <SCORE.INTRA.POLAR.0>
0

>  <SCORE.INTRA.REPUL>
0

>  <SCORE.INTRA.REPUL.0>
0

>  <SCORE.INTRA.SOLV>
-1.8549

>  <SCORE.INTRA.SOLV.lig_0>
-64.6797

>  <SCORE.INTRA.VDW>
1.71167

>  <SCORE.INTRA.VDW.0>
-4.11825

>  <SCORE.INTRA.norm>
-0.239252

>  <SCORE.RESTR>
0

>  <SCORE.RESTR.CAVITY>
0

>  <SCORE.RESTR.norm>
0

>  <SCORE.SYSTEM>
0

>  <SCORE.SYSTEM.CONST>
0

>  <SCORE.SYSTEM.DIHEDRAL>
0

>  <SCORE.SYSTEM.SOLV>
0

>  <SCORE.SYSTEM.norm>
0

>  <SCORE.heavy>
31

>  <SCORE.norm>
-0.272781

>  <RMSD>
7.816

$$$$
ligand
 OpenBabel11021811493D
libRbt.so/2013.1/901 2013/11/27
 31 33  0  0  0  0  0  0  0  0999 V2000
    0.2176   10.7892    8.2642 C   0  0  2  0  0  0  0  0  0  0  0  0
   -0.9097   10.5261    9.0943 O   0  0  0  0  0  0  0  0  0  0  0  0
   -4.7272   12.2743    9.7688 C   0  0  2  0  0  0  0  0  0  0  0  0
   -5.7204   13.2217   10.1723 N   0  0  0  0  0  0  0  0  0  0  0  0
   -5.3629   14.4959    7.5143 C   0  0  2  0  0  0  0  0  0  0  0  0
    1.1510    9.5138    8.3546 C   0  0  2  0  0  0  0  0  0  0  0  0
    0.3990    8.3491    7.8996 N   0  0  0  0  0  0  0  0  0  0  0  0
   -3.8631   11.8855   11.0384 C   0  0  0  0  0  0  0  0  0  0  0  0
   -6.0423   14.4817    6.1083 C   0  0  2  0  0  0  0  0  0  0  0  0
   -6.8081   13.3012    5.9962 O   0  0  0  0  0  0  0  0  0  0  0  0
    1.6577    9.3066    9.8376 C   0  0  0  0  0  0  0  0  0  0  0  0
   -2.7670   10.8447   10.5974 C   0  0  2  0  0  0  0  0  0  0  0  0
   -1.9565   10.4835   11.7731 N   0  0  0  0  0  0  0  0  0  0  0  0
   -4.8907   14.5118    5.0328 C   0  0  1  0  0  0  0  0  0  0  0  0
   -5.4835   14.4796    3.6549 N   0  0  0  0  0  0  0  0  0  0  0  0
    1.9721   10.6819   10.5652 C   0  0  0  0  0  0  0  0  0  0  0  0
   -1.8440   11.4804    9.4661 C   0  0  2  0  0  0  0  0  0  0  0  0
   -4.0551   15.8979    5.2298 C   0  0  1  0  0  0  0  0  0  0  0  0
   -4.8770   17.0452    5.0974 O   0  0  0  0  0  0  0  0  0  0  0  0
    1.6212   11.8687   10.0029 C   0  0  2  0  0  0  0  0  0  0  0  0
    0.9562   11.9531    8.7372 O   0  0  0  0  0  0  0  0  0  0  0  0
   -2.7278   11.8658    8.2226 C   0  0  2  0  0  0  0  0  0  0  0  0
   -1.8850   12.4502    7.2065 O   0  0  0  0  0  0  0  0  0  0  0  0
   -3.4330   15.9445    6.6632 C   0  0  0  0  0  0  0  0  0  0  0  0
   -4.5225   15.7477    7.6841 O   0  0  0  0  0  0  0  0  0  0  0  0
    1.9048   13.2191   10.6636 C   0  0  0  0  0  0  0  0  0  0  0  0
    0.6366   13.8567   10.9457 O   0  0  0  0  0  0  0  0  0  0  0  0
   -3.8015   12.9221    8.6775 C   0  0  1  0  0  0  0  0  0  0  0  0
   -4.5625   13.2703    7.5638 O   0  0  0  0  0  0  0  0  0  0  0  0
   -2.8760   16.0946    4.2464 C   0  0  0  0  0  0  0  0  0  0  0  0
   -6.1216   13.2143    3.2379 C   0  0  0  0  0  0  0  0  0  0  0  0
  1  2  1  1  0  0  0
  1  6  1  0  0  0  0
  1 21  1  0  0  0  0
  3  4  1  1  0  0  0
  3  8  1  0  0  0  0
  3 28  1  0  0  0  0
  5  9  1  0  0  0  0
  5 25  1  0  0  0  0
  5 29  1  6  0  0  0
  6  7  1  1  0  0  0
  6 11  1  0  0  0  0
  8 12  1  0  0  0  0
  9 10  1  6  0  0  0
  9 14  1  0  0  0  0
 11 16  1  0  0  0  0
 12 13  1  1  0  0  0
 12 17  1  0  0  0  0
 14 15  1  6  0  0  0
 14 18  1  0  0  0  0
 15 31  1  0  0  0  0
 16 20  1  0  0  0  0
 17  2  1  6  0  0  0
 17 22  1  0  0  0  0
 18 19  1  6  0  0  0
 18 24  1  0  0  0  0
 18 30  1  0  0  0  0
 20 21  1  0  0  0  0
 20 26  1  6  0  0  0
 22 23  1  6  0  0  0
 22 28  1  0  0  0  0
 24 25  1  0  0  0  0
 26 27  1  0  0  0  0
 28 29  1  6  0  0  0
M  END
>  <CHROM.1>
168.45676477,-179.81826916,-69.78874561,-169.59295106,-116.92941408,80.34409869
-2.54590348,12.80724730,8.01841782,-0.78412167,0.19424204,-1.01649897

>  <Name>
ligand

>  <RI>
0

>  <Rbt.Current_Directory>
/home/itssahil/PROJECTS/Mol_Feturizer/New_Systems/rnas/4GPX

>  <Rbt.Executable>
rbdock ($Id: //depot/dev/client3/rdock/2013.1/src/exe/rbdock.cxx#4 $)

>  <Rbt.Library>
libRbt.so (2013.1, Build901 2013/11/27)

>  <Rbt.Parameter_File>
/export/apps/rDock/src/rDock_2013.1_src/data/scripts/dock_solv.prm

>  <Rbt.Receptor>
prm/pocket_docking_3.prm

>  <SCORE>
-15.1601

>  <SCORE.INTER>
-7.72575

>  <SCORE.INTER.CONST>
1

>  <SCORE.INTER.POLAR>
0

>  <SCORE.INTER.ROT>
6

>  <SCORE.INTER.SOLV>
18.7019

>  <SCORE.INTER.VDW>
-18.9845

>  <SCORE.INTER.norm>
-0.249218

>  <SCORE.INTRA>
-7.43431

>  <SCORE.INTRA.DIHEDRAL>
-15.8872

>  <SCORE.INTRA.DIHEDRAL.0>
20.6841

>  <SCORE.INTRA.POLAR>
0

>  <SCORE.INTRA.POLAR.0>
0

>  <SCORE.INTRA.REPUL>
0

>  <SCORE.INTRA.REPUL.0>
0

>  <SCORE.INTRA.SOLV>
-1.47231

>  <SCORE.INTRA.SOLV.lig_0>
-64.6797

>  <SCORE.INTRA.VDW>
1.24544

>  <SCORE.INTRA.VDW.0>
-4.11825

>  <SCORE.INTRA.norm>
-0.239816

>  <SCORE.RESTR>
0

>  <SCORE.RESTR.CAVITY>
0

>  <SCORE.RESTR.norm>
0

>  <SCORE.SYSTEM>
0

>  <SCORE.SYSTEM.CONST>
0

>  <SCORE.SYSTEM.DIHEDRAL>
0

>  <SCORE.SYSTEM.SOLV>
0

>  <SCORE.SYSTEM.norm>
0

>  <SCORE.heavy>
31

>  <SCORE.norm>
-0.489034

>  <RMSD>
7.820

$$$$
ligand
 OpenBabel11021811493D
libRbt.so/2013.1/901 2013/11/27
 31 33  0  0  0  0  0  0  0  0999 V2000
   -8.6639   15.2694   10.9837 C   0  0  2  0  0  0  0  0  0  0  0  0
   -7.4423   14.6979   11.4423 O   0  0  0  0  0  0  0  0  0  0  0  0
   -4.2043   12.6931    9.5502 C   0  0  2  0  0  0  0  0  0  0  0  0
   -3.4571   11.6612    8.8993 N   0  0  0  0  0  0  0  0  0  0  0  0
   -4.6365   12.6310    6.3498 C   0  0  2  0  0  0  0  0  0  0  0  0
   -8.8647   16.6140   11.7947 C   0  0  2  0  0  0  0  0  0  0  0  0
   -7.7247   17.4889   11.5417 N   0  0  0  0  0  0  0  0  0  0  0  0
   -4.6799   12.1509   10.9608 C   0  0  0  0  0  0  0  0  0  0  0  0
   -3.8233   13.5236    5.3595 C   0  0  2  0  0  0  0  0  0  0  0  0
   -2.7348   14.0871    6.0597 O   0  0  0  0  0  0  0  0  0  0  0  0
   -9.0025   16.3095   13.3397 C   0  0  0  0  0  0  0  0  0  0  0  0
   -5.5050   13.2834   11.6792 C   0  0  2  0  0  0  0  0  0  0  0  0
   -5.9547   12.7830   12.9896 N   0  0  0  0  0  0  0  0  0  0  0  0
   -4.7977   14.6450    4.8336 C   0  0  1  0  0  0  0  0  0  0  0  0
   -4.0646   15.5506    3.8884 N   0  0  0  0  0  0  0  0  0  0  0  0
   -9.8223   14.9798   13.6216 C   0  0  0  0  0  0  0  0  0  0  0  0
   -6.7584   13.6877   10.7840 C   0  0  2  0  0  0  0  0  0  0  0  0
   -6.0232   13.9159    4.0430 C   0  0  1  0  0  0  0  0  0  0  0  0
   -5.5680   13.1188    2.9628 O   0  0  0  0  0  0  0  0  0  0  0  0
  -10.1531   14.1327   12.6112 C   0  0  2  0  0  0  0  0  0  0  0  0
   -9.7893   14.3821   11.2485 O   0  0  0  0  0  0  0  0  0  0  0  0
   -6.2586   14.2125    9.3873 C   0  0  2  0  0  0  0  0  0  0  0  0
   -7.4011   14.5671    8.5790 O   0  0  0  0  0  0  0  0  0  0  0  0
   -6.7948   12.9677    5.0173 C   0  0  0  0  0  0  0  0  0  0  0  0
   -5.8235   12.0025    5.6441 O   0  0  0  0  0  0  0  0  0  0  0  0
  -10.9436   12.8417   12.8323 C   0  0  0  0  0  0  0  0  0  0  0  0
  -10.1013   11.9181   13.5615 O   0  0  0  0  0  0  0  0  0  0  0  0
   -5.4564   13.0611    8.6759 C   0  0  1  0  0  0  0  0  0  0  0  0
   -5.0384   13.5312    7.4329 O   0  0  0  0  0  0  0  0  0  0  0  0
   -7.0837   14.8774    3.4542 C   0  0  0  0  0  0  0  0  0  0  0  0
   -4.1485   17.0000    4.1607 C   0  0  0  0  0  0  0  0  0  0  0  0
  1  2  1  1  0  0  0
  1  6  1  0  0  0  0
  1 21  1  0  0  0  0
  3  4  1  6  0  0  0
  3  8  1  0  0  0  0
  3 28  1  0  0  0  0
  5  9  1  0  0  0  0
  5 25  1  0  0  0  0
  5 29  1  1  0  0  0
  6  7  1  1  0  0  0
  6 11  1  0  0  0  0
  8 12  1  0  0  0  0
  9 10  1  1  0  0  0
  9 14  1  0  0  0  0
 11 16  1  0  0  0  0
 12 13  1  1  0  0  0
 12 17  1  0  0  0  0
 14 15  1  6  0  0  0
 14 18  1  0  0  0  0
 15 31  1  0  0  0  0
 16 20  1  0  0  0  0
 17  2  1  1  0  0  0
 17 22  1  0  0  0  0
 18 19  1  6  0  0  0
 18 24  1  0  0  0  0
 18 30  1  0  0  0  0
 20 21  1  0  0  0  0
 20 26  1  6  0  0  0
 22 23  1  6  0  0  0
 22 28  1  0  0  0  0
 24 25  1  0  0  0  0
 26 27  1  0  0  0  0
 28 29  1  6  0  0  0
M  END
>  <CHROM.1>
-164.77683468,-161.93579623,-128.21906449,-176.42417805,-68.87065100,80.52157298
-6.55128194,14.01185968,8.79965928,2.18844910,-0.64240473,1.93946888

>  <Name>
ligand

>  <RI>
0

>  <Rbt.Current_Directory>
/home/itssahil/PROJECTS/Mol_Feturizer/New_Systems/rnas/4GPX

>  <Rbt.Executable>
rbdock ($Id: //depot/dev/client3/rdock/2013.1/src/exe/rbdock.cxx#4 $)

>  <Rbt.Library>
libRbt.so (2013.1, Build901 2013/11/27)

>  <Rbt.Parameter_File>
/export/apps/rDock/src/rDock_2013.1_src/data/scripts/dock_solv.prm

>  <Rbt.Receptor>
prm/pocket_docking_7.prm

>  <SCORE>
-15.2121

>  <SCORE.INTER>
-9.29798

>  <SCORE.INTER.CONST>
1

>  <SCORE.INTER.POLAR>
0

>  <SCORE.INTER.ROT>
6

>  <SCORE.INTER.SOLV>
19.2185

>  <SCORE.INTER.VDW>
-20.2048

>  <SCORE.INTER.norm>
-0.299935

>  <SCORE.INTRA>
-5.91411

>  <SCORE.INTRA.DIHEDRAL>
-11.506

>  <SCORE.INTRA.DIHEDRAL.0>
20.6841

>  <SCORE.INTRA.POLAR>
0

>  <SCORE.INTRA.POLAR.0>
0

>  <SCORE.INTRA.REPUL>
0

>  <SCORE.INTRA.REPUL.0>
0

>  <SCORE.INTRA.SOLV>
-1.77511

>  <SCORE.INTRA.SOLV.lig_0>
-64.6797

>  <SCORE.INTRA.VDW>
0.726419

>  <SCORE.INTRA.VDW.0>
-4.11825

>  <SCORE.INTRA.norm>
-0.190778

>  <SCORE.RESTR>
0

>  <SCORE.RESTR.CAVITY>
0

>  <SCORE.RESTR.norm>
0

>  <SCORE.SYSTEM>
0

>  <SCORE.SYSTEM.CONST>
0

>  <SCORE.SYSTEM.DIHEDRAL>
0

>  <SCORE.SYSTEM.SOLV>
0

>  <SCORE.SYSTEM.norm>
0

>  <SCORE.heavy>
31

>  <SCORE.norm>
-0.490713

>  <RMSD>
7.821

$$$$
ligand
 OpenBabel11021811493D
libRbt.so/2013.1/901 2013/11/27
 31 33  0  0  0  0  0  0  0  0999 V2000
   -0.5089   11.0840   11.5672 C   0  0  2  0  0  0  0  0  0  0  0  0
   -1.2774   11.4207   10.4160 O   0  0  0  0  0  0  0  0  0  0  0  0
   -5.3484   12.5691    9.9774 C   0  0  2  0  0  0  0  0  0  0  0  0
   -6.5307   13.3738   10.0170 N   0  0  0  0  0  0  0  0  0  0  0  0
   -5.2688   14.6262    7.1977 C   0  0  2  0  0  0  0  0  0  0  0  0
    0.4411   12.3181   11.8513 C   0  0  2  0  0  0  0  0  0  0  0  0
   -0.3821   13.5024   12.0726 N   0  0  0  0  0  0  0  0  0  0  0  0
   -4.7717   12.4566   11.4487 C   0  0  0  0  0  0  0  0  0  0  0  0
   -5.9287   14.2538    5.8322 C   0  0  2  0  0  0  0  0  0  0  0  0
   -6.9612   13.3226    6.0764 O   0  0  0  0  0  0  0  0  0  0  0  0
    1.4284   12.5435   10.6375 C   0  0  0  0  0  0  0  0  0  0  0  0
   -3.4686   11.5736   11.4086 C   0  0  2  0  0  0  0  0  0  0  0  0
   -2.9246   11.4699   12.7735 N   0  0  0  0  0  0  0  0  0  0  0  0
   -4.8034   13.6242    4.9260 C   0  0  1  0  0  0  0  0  0  0  0  0
   -5.3838   13.2262    3.6010 N   0  0  0  0  0  0  0  0  0  0  0  0
    1.9261   11.1762   10.0030 C   0  0  0  0  0  0  0  0  0  0  0  0
   -2.3964   12.2387   10.4372 C   0  0  2  0  0  0  0  0  0  0  0  0
   -3.6528   14.7559    4.6943 C   0  0  1  0  0  0  0  0  0  0  0  0
   -4.1671   15.9302    4.0892 O   0  0  0  0  0  0  0  0  0  0  0  0
    1.3660    9.9913   10.3634 C   0  0  2  0  0  0  0  0  0  0  0  0
    0.3078    9.9017   11.3245 O   0  0  0  0  0  0  0  0  0  0  0  0
   -2.9978   12.3472    8.9872 C   0  0  2  0  0  0  0  0  0  0  0  0
   -2.0233   12.9601    8.1158 O   0  0  0  0  0  0  0  0  0  0  0  0
   -3.0406   15.1807    6.0686 C   0  0  0  0  0  0  0  0  0  0  0  0
   -4.1466   15.6256    6.9887 O   0  0  0  0  0  0  0  0  0  0  0  0
    1.8128    8.6484    9.7824 C   0  0  0  0  0  0  0  0  0  0  0  0
    1.1521    8.4680    8.5075 O   0  0  0  0  0  0  0  0  0  0  0  0
   -4.2848   13.2505    9.0436 C   0  0  1  0  0  0  0  0  0  0  0  0
   -4.7945   13.3559    7.7513 O   0  0  0  0  0  0  0  0  0  0  0  0
   -2.4602   14.3041    3.8173 C   0  0  0  0  0  0  0  0  0  0  0  0
   -6.5657   13.9839    3.1412 C   0  0  0  0  0  0  0  0  0  0  0  0
  1  2  1  6  0  0  0
  1  6  1  0  0  0  0
  1 21  1  0  0  0  0
  3  4  1  1  0  0  0
  3  8  1  0  0  0  0
  3 28  1  0  0  0  0
  5  9  1  0  0  0  0
  5 25  1  0  0  0  0
  5 29  1  6  0  0  0
  6  7  1  6  0  0  0
  6 11  1  0  0  0  0
  8 12  1  0  0  0  0
  9 10  1  1  0  0  0
  9 14  1  0  0  0  0
 11 16  1  0  0  0  0
 12 13  1  1  0  0  0
 12 17  1  0  0  0  0
 14 15  1  6  0  0  0
 14 18  1  0  0  0  0
 15 31  1  0  0  0  0
 16 20  1  0  0  0  0
 17  2  1  6  0  0  0
 17 22  1  0  0  0  0
 18 19  1  6  0  0  0
 18 24  1  0  0  0  0
 18 30  1  0  0  0  0
 20 21  1  0  0  0  0
 20 26  1  1  0  0  0
 22 23  1  6  0  0  0
 22 28  1  0  0  0  0
 24 25  1  0  0  0  0
 26 27  1  0  0  0  0
 28 29  1  6  0  0  0
M  END
>  <CHROM.1>
-79.94034678,-172.22045784,27.18139738,-59.38566404,-82.36793858,104.68639313
-2.75947181,12.69164617,8.43585802,0.83258073,-0.37956663,1.79939091

>  <Name>
ligand

>  <RI>
0

>  <Rbt.Current_Directory>
/home/itssahil/PROJECTS/Mol_Feturizer/New_Systems/rnas/4GPX

>  <Rbt.Executable>
rbdock ($Id: //depot/dev/client3/rdock/2013.1/src/exe/rbdock.cxx#4 $)

>  <Rbt.Library>
libRbt.so (2013.1, Build901 2013/11/27)

>  <Rbt.Parameter_File>
/export/apps/rDock/src/rDock_2013.1_src/data/scripts/dock_solv.prm

>  <Rbt.Receptor>
prm/pocket_docking_2.prm

>  <SCORE>
-4.41309

>  <SCORE.INTER>
-6.8647

>  <SCORE.INTER.CONST>
1

>  <SCORE.INTER.POLAR>
0

>  <SCORE.INTER.ROT>
6

>  <SCORE.INTER.SOLV>
14.3855

>  <SCORE.INTER.VDW>
-16.9717

>  <SCORE.INTER.norm>
-0.221442

>  <SCORE.INTRA>
0.866933

>  <SCORE.INTRA.DIHEDRAL>
-8.79109

>  <SCORE.INTRA.DIHEDRAL.0>
20.6841

>  <SCORE.INTRA.POLAR>
0

>  <SCORE.INTRA.POLAR.0>
0

>  <SCORE.INTRA.REPUL>
0

>  <SCORE.INTRA.REPUL.0>
0

>  <SCORE.INTRA.SOLV>
1.80975

>  <SCORE.INTRA.SOLV.lig_0>
-64.6797

>  <SCORE.INTRA.VDW>
4.35761

>  <SCORE.INTRA.VDW.0>
-4.11825

>  <SCORE.INTRA.norm>
0.0279656

>  <SCORE.RESTR>
1.58468

>  <SCORE.RESTR.CAVITY>
1.58468

>  <SCORE.RESTR.norm>
0.0511188

>  <SCORE.SYSTEM>
0

>  <SCORE.SYSTEM.CONST>
0

>  <SCORE.SYSTEM.DIHEDRAL>
0

>  <SCORE.SYSTEM.SOLV>
0

>  <SCORE.SYSTEM.norm>
0

>  <SCORE.heavy>
31

>  <SCORE.norm>
-0.142358

>  <RMSD>
7.830

$$$$
ligand
 OpenBabel11021811493D
libRbt.so/2013.1/901 2013/11/27
 31 33  0  0  0  0  0  0  0  0999 V2000
    0.2519   10.7952    8.0763 C   0  0  2  0  0  0  0  0  0  0  0  0
   -0.9021   10.5016    8.8581 O   0  0  0  0  0  0  0  0  0  0  0  0
   -4.7095   12.2629    9.5550 C   0  0  2  0  0  0  0  0  0  0  0  0
   -5.6982   13.2011    9.9899 N   0  0  0  0  0  0  0  0  0  0  0  0
   -5.2912   14.5977    7.4161 C   0  0  2  0  0  0  0  0  0  0  0  0
    1.1924    9.5250    8.1667 C   0  0  2  0  0  0  0  0  0  0  0  0
    0.4672    8.3670    7.6546 N   0  0  0  0  0  0  0  0  0  0  0  0
   -3.8741   11.7967   10.8178 C   0  0  0  0  0  0  0  0  0  0  0  0
   -5.9467   14.6645    6.0003 C   0  0  2  0  0  0  0  0  0  0  0  0
   -6.7101   13.4928    5.8078 O   0  0  0  0  0  0  0  0  0  0  0  0
    1.6475    9.2824    9.6610 C   0  0  0  0  0  0  0  0  0  0  0  0
   -2.7829   10.7658   10.3423 C   0  0  2  0  0  0  0  0  0  0  0  0
   -1.9991   10.3327   11.5118 N   0  0  0  0  0  0  0  0  0  0  0  0
   -4.7771   14.7555    4.9480 C   0  0  1  0  0  0  0  0  0  0  0  0
   -5.3466   14.8028    3.5607 N   0  0  0  0  0  0  0  0  0  0  0  0
    1.9238   10.6403   10.4353 C   0  0  0  0  0  0  0  0  0  0  0  0
   -1.8312   11.4474    9.2628 C   0  0  2  0  0  0  0  0  0  0  0  0
   -3.9455   16.1275    5.2382 C   0  0  1  0  0  0  0  0  0  0  0  0
   -4.7654   17.2811    5.1579 O   0  0  0  0  0  0  0  0  0  0  0  0
    1.5831   11.8389    9.8921 C   0  0  2  0  0  0  0  0  0  0  0  0
    0.9631   11.9517    8.6059 O   0  0  0  0  0  0  0  0  0  0  0  0
   -2.6869   11.9092    8.0256 C   0  0  2  0  0  0  0  0  0  0  0  0
   -1.8180   12.5348    7.0569 O   0  0  0  0  0  0  0  0  0  0  0  0
   -3.3477   16.0915    6.6822 C   0  0  0  0  0  0  0  0  0  0  0  0
   -4.4543   15.8371    7.6715 O   0  0  0  0  0  0  0  0  0  0  0  0
    1.8313   13.1734   10.5977 C   0  0  0  0  0  0  0  0  0  0  0  0
    0.5472   13.7771   10.8823 O   0  0  0  0  0  0  0  0  0  0  0  0
   -3.7556   12.9546    8.5161 C   0  0  1  0  0  0  0  0  0  0  0  0
   -4.4913   13.3708    7.4088 O   0  0  0  0  0  0  0  0  0  0  0  0
   -2.7501   16.3795    4.2878 C   0  0  0  0  0  0  0  0  0  0  0  0
   -6.4294   15.7789    3.3223 C   0  0  0  0  0  0  0  0  0  0  0  0
  1  2  1  1  0  0  0
  1  6  1  0  0  0  0
  1 21  1  0  0  0  0
  3  4  1  1  0  0  0
  3  8  1  0  0  0  0
  3 28  1  0  0  0  0
  5  9  1  0  0  0  0
  5 25  1  0  0  0  0
  5 29  1  6  0  0  0
  6  7  1  1  0  0  0
  6 11  1  0  0  0  0
  8 12  1  0  0  0  0
  9 10  1  6  0  0  0
  9 14  1  0  0  0  0
 11 16  1  0  0  0  0
 12 13  1  1  0  0  0
 12 17  1  0  0  0  0
 14 15  1  6  0  0  0
 14 18  1  0  0  0  0
 15 31  1  0  0  0  0
 16 20  1  0  0  0  0
 17  2  1  6  0  0  0
 17 22  1  0  0  0  0
 18 19  1  6  0  0  0
 18 24  1  0  0  0  0
 18 30  1  0  0  0  0
 20 21  1  0  0  0  0
 20 26  1  6  0  0  0
 22 23  1  6  0  0  0
 22 28  1  0  0  0  0
 24 25  1  0  0  0  0
 26 27  1  0  0  0  0
 28 29  1  6  0  0  0
M  END
>  <CHROM.1>
165.95481241,-179.41885643,49.23583708,-168.83955023,-115.44087121,79.41893036
-2.52023251,12.95031263,7.89421172,-0.82555960,0.16393866,-0.89915114

>  <Name>
ligand

>  <RI>
0

>  <Rbt.Current_Directory>
/home/itssahil/PROJECTS/Mol_Feturizer/New_Systems/rnas/4GPX

>  <Rbt.Executable>
rbdock ($Id: //depot/dev/client3/rdock/2013.1/src/exe/rbdock.cxx#4 $)

>  <Rbt.Library>
libRbt.so (2013.1, Build901 2013/11/27)

>  <Rbt.Parameter_File>
/export/apps/rDock/src/rDock_2013.1_src/data/scripts/dock_solv.prm

>  <Rbt.Receptor>
prm/pocket_docking_3.prm

>  <SCORE>
-15.7281

>  <SCORE.INTER>
-9.32437

>  <SCORE.INTER.CONST>
1

>  <SCORE.INTER.POLAR>
0

>  <SCORE.INTER.ROT>
6

>  <SCORE.INTER.SOLV>
18.5993

>  <SCORE.INTER.VDW>
-20.016

>  <SCORE.INTER.norm>
-0.300786

>  <SCORE.INTRA>
-6.41032

>  <SCORE.INTRA.DIHEDRAL>
-15.6375

>  <SCORE.INTRA.DIHEDRAL.0>
20.6841

>  <SCORE.INTRA.POLAR>
0

>  <SCORE.INTRA.POLAR.0>
0

>  <SCORE.INTRA.REPUL>
0

>  <SCORE.INTRA.REPUL.0>
0

>  <SCORE.INTRA.SOLV>
-1.27477

>  <SCORE.INTRA.SOLV.lig_0>
-64.6797

>  <SCORE.INTRA.VDW>
2.04579

>  <SCORE.INTRA.VDW.0>
-4.11825

>  <SCORE.INTRA.norm>
-0.206785

>  <SCORE.RESTR>
0.00655491

>  <SCORE.RESTR.CAVITY>
0.00655491

>  <SCORE.RESTR.norm>
0.000211449

>  <SCORE.SYSTEM>
0

>  <SCORE.SYSTEM.CONST>
0

>  <SCORE.SYSTEM.DIHEDRAL>
0

>  <SCORE.SYSTEM.SOLV>
0

>  <SCORE.SYSTEM.norm>
0

>  <SCORE.heavy>
31

>  <SCORE.norm>
-0.507359

>  <RMSD>
7.830

$$$$
ligand
 OpenBabel11021811493D
libRbt.so/2013.1/901 2013/11/27
 31 33  0  0  0  0  0  0  0  0999 V2000
    0.3045   10.9091    8.2160 C   0  0  2  0  0  0  0  0  0  0  0  0
   -0.8959   10.5680    8.9028 O   0  0  0  0  0  0  0  0  0  0  0  0
   -4.6724   12.4843    9.2901 C   0  0  2  0  0  0  0  0  0  0  0  0
   -5.6771   13.3984    9.7395 N   0  0  0  0  0  0  0  0  0  0  0  0
   -3.3670   13.9042    6.1885 C   0  0  2  0  0  0  0  0  0  0  0  0
    1.2411    9.6348    8.2858 C   0  0  2  0  0  0  0  0  0  0  0  0
    0.5532    8.5122    7.6565 N   0  0  0  0  0  0  0  0  0  0  0  0
   -4.1170   11.6957   10.5469 C   0  0  0  0  0  0  0  0  0  0  0  0
   -3.8610   15.1741    5.4256 C   0  0  2  0  0  0  0  0  0  0  0  0
   -3.4783   16.3141    6.1649 O   0  0  0  0  0  0  0  0  0  0  0  0
    1.6011    9.2978    9.7877 C   0  0  0  0  0  0  0  0  0  0  0  0
   -3.0088   10.6903   10.0564 C   0  0  2  0  0  0  0  0  0  0  0  0
   -2.4846    9.9578   11.2218 N   0  0  0  0  0  0  0  0  0  0  0  0
   -5.4299   15.0726    5.3163 C   0  0  1  0  0  0  0  0  0  0  0  0
   -5.9673   16.2803    4.6065 N   0  0  0  0  0  0  0  0  0  0  0  0
    1.8237   10.6037   10.6621 C   0  0  0  0  0  0  0  0  0  0  0  0
   -1.8360   11.4904    9.3353 C   0  0  2  0  0  0  0  0  0  0  0  0
   -5.7883   13.7353    4.4551 C   0  0  1  0  0  0  0  0  0  0  0  0
   -5.2090   13.7569    3.1615 O   0  0  0  0  0  0  0  0  0  0  0  0
    1.5147   11.8346   10.1750 C   0  0  2  0  0  0  0  0  0  0  0  0
    0.9772   12.0291    8.8617 O   0  0  0  0  0  0  0  0  0  0  0  0
   -2.4164   12.2713    8.0985 C   0  0  2  0  0  0  0  0  0  0  0  0
   -1.3488   13.0014    7.4570 O   0  0  0  0  0  0  0  0  0  0  0  0
   -5.2320   12.4690    5.1838 C   0  0  0  0  0  0  0  0  0  0  0  0
   -3.7576   12.6474    5.4337 O   0  0  0  0  0  0  0  0  0  0  0  0
    1.7136   13.1216   10.9778 C   0  0  0  0  0  0  0  0  0  0  0  0
    0.4135   13.5866   11.4113 O   0  0  0  0  0  0  0  0  0  0  0  0
   -3.5047   13.2856    8.6105 C   0  0  1  0  0  0  0  0  0  0  0  0
   -3.9944   13.9846    7.5095 O   0  0  0  0  0  0  0  0  0  0  0  0
   -7.3004   13.4784    4.2478 C   0  0  0  0  0  0  0  0  0  0  0  0
   -5.1526   16.8124    3.4951 C   0  0  0  0  0  0  0  0  0  0  0  0
  1  2  1  1  0  0  0
  1  6  1  0  0  0  0
  1 21  1  0  0  0  0
  3  4  1  1  0  0  0
  3  8  1  0  0  0  0
  3 28  1  0  0  0  0
  5  9  1  0  0  0  0
  5 25  1  0  0  0  0
  5 29  1  1  0  0  0
  6  7  1  1  0  0  0
  6 11  1  0  0  0  0
  8 12  1  0  0  0  0
  9 10  1  1  0  0  0
  9 14  1  0  0  0  0
 11 16  1  0  0  0  0
 12 13  1  1  0  0  0
 12 17  1  0  0  0  0
 14 15  1  6  0  0  0
 14 18  1  0  0  0  0
 15 31  1  0  0  0  0
 16 20  1  0  0  0  0
 17  2  1  6  0  0  0
 17 22  1  0  0  0  0
 18 19  1  6  0  0  0
 18 24  1  0  0  0  0
 18 30  1  0  0  0  0
 20 21  1  0  0  0  0
 20 26  1  6  0  0  0
 22 23  1  1  0  0  0
 22 28  1  0  0  0  0
 24 25  1  0  0  0  0
 26 27  1  0  0  0  0
 28 29  1  6  0  0  0
M  END
>  <CHROM.1>
164.31475877,-159.87401674,37.06711989,-179.71145947,-105.92570084,-128.99163379
-2.52270225,12.67841185,7.73209320,-0.79187298,0.24552477,-1.15732235

>  <Name>
ligand

>  <RI>
0

>  <Rbt.Current_Directory>
/home/itssahil/PROJECTS/Mol_Feturizer/New_Systems/rnas/4GPX

>  <Rbt.Executable>
rbdock ($Id: //depot/dev/client3/rdock/2013.1/src/exe/rbdock.cxx#4 $)

>  <Rbt.Library>
libRbt.so (2013.1, Build901 2013/11/27)

>  <Rbt.Parameter_File>
/export/apps/rDock/src/rDock_2013.1_src/data/scripts/dock_solv.prm

>  <Rbt.Receptor>
prm/pocket_docking_2.prm

>  <SCORE>
-2.66638

>  <SCORE.INTER>
-4.2376

>  <SCORE.INTER.CONST>
1

>  <SCORE.INTER.POLAR>
0

>  <SCORE.INTER.ROT>
6

>  <SCORE.INTER.SOLV>
19.5012

>  <SCORE.INTER.VDW>
-16.9255

>  <SCORE.INTER.norm>
-0.136697

>  <SCORE.INTRA>
1.04941

>  <SCORE.INTRA.DIHEDRAL>
-8.59302

>  <SCORE.INTRA.DIHEDRAL.0>
20.6841

>  <SCORE.INTRA.POLAR>
0

>  <SCORE.INTRA.POLAR.0>
0

>  <SCORE.INTRA.REPUL>
0

>  <SCORE.INTRA.REPUL.0>
0

>  <SCORE.INTRA.SOLV>
-2.66659

>  <SCORE.INTRA.SOLV.lig_0>
-64.6797

>  <SCORE.INTRA.VDW>
6.67921

>  <SCORE.INTRA.VDW.0>
-4.11825

>  <SCORE.INTRA.norm>
0.0338518

>  <SCORE.RESTR>
0.521821

>  <SCORE.RESTR.CAVITY>
0.521821

>  <SCORE.RESTR.norm>
0.016833

>  <SCORE.SYSTEM>
0

>  <SCORE.SYSTEM.CONST>
0

>  <SCORE.SYSTEM.DIHEDRAL>
0

>  <SCORE.SYSTEM.SOLV>
0

>  <SCORE.SYSTEM.norm>
0

>  <SCORE.heavy>
31

>  <SCORE.norm>
-0.0860121

>  <RMSD>
7.833

$$$$
ligand
 OpenBabel11021811493D
libRbt.so/2013.1/901 2013/11/27
 31 33  0  0  0  0  0  0  0  0999 V2000
    0.0917   10.3709    4.8424 C   0  0  2  0  0  0  0  0  0  0  0  0
   -0.5039   10.2181    6.1273 O   0  0  0  0  0  0  0  0  0  0  0  0
   -2.6950   12.6826    8.8124 C   0  0  2  0  0  0  0  0  0  0  0  0
   -2.9897   13.7324    9.7387 N   0  0  0  0  0  0  0  0  0  0  0  0
   -3.7781   15.2718    7.6119 C   0  0  2  0  0  0  0  0  0  0  0  0
    0.0255    8.9520    4.1435 C   0  0  2  0  0  0  0  0  0  0  0  0
   -1.3711    8.5394    4.0514 N   0  0  0  0  0  0  0  0  0  0  0  0
   -1.5258   11.7992    9.4146 C   0  0  0  0  0  0  0  0  0  0  0  0
   -4.9409   15.7953    6.7105 C   0  0  2  0  0  0  0  0  0  0  0  0
   -5.8928   14.7628    6.5683 O   0  0  0  0  0  0  0  0  0  0  0  0
    0.8669    7.8946    4.9638 C   0  0  0  0  0  0  0  0  0  0  0  0
   -1.1969   10.6440    8.3963 C   0  0  2  0  0  0  0  0  0  0  0  0
   -0.1063    9.8223    8.9485 N   0  0  0  0  0  0  0  0  0  0  0  0
   -4.3142   16.1813    5.3169 C   0  0  1  0  0  0  0  0  0  0  0  0
   -5.3913   16.6751    4.3966 N   0  0  0  0  0  0  0  0  0  0  0  0
    2.1961    8.5186    5.5668 C   0  0  0  0  0  0  0  0  0  0  0  0
   -0.7632   11.2666    6.9963 C   0  0  2  0  0  0  0  0  0  0  0  0
   -3.2284   17.3717    5.5665 C   0  0  1  0  0  0  0  0  0  0  0  0
   -3.8109   18.5130    6.1728 O   0  0  0  0  0  0  0  0  0  0  0  0
    2.4201    9.8588    5.5317 C   0  0  2  0  0  0  0  0  0  0  0  0
    1.4859   10.7797    4.9566 O   0  0  0  0  0  0  0  0  0  0  0  0
   -1.9373   12.1458    6.4265 C   0  0  2  0  0  0  0  0  0  0  0  0
   -1.5320   12.7141    5.1626 O   0  0  0  0  0  0  0  0  0  0  0  0
   -2.1007   16.8701    6.5259 C   0  0  0  0  0  0  0  0  0  0  0  0
   -2.7232   16.3471    7.7935 O   0  0  0  0  0  0  0  0  0  0  0  0
    3.6856   10.5065    6.0969 C   0  0  0  0  0  0  0  0  0  0  0  0
    4.7719    9.5591    5.9670 O   0  0  0  0  0  0  0  0  0  0  0  0
   -2.2361   13.3065    7.4458 C   0  0  1  0  0  0  0  0  0  0  0  0
   -3.2616   14.0889    6.9197 O   0  0  0  0  0  0  0  0  0  0  0  0
   -2.5105   17.8779    4.2921 C   0  0  0  0  0  0  0  0  0  0  0  0
   -6.1102   15.6523    3.6096 C   0  0  0  0  0  0  0  0  0  0  0  0
  1  2  1  1  0  0  0
  1  6  1  0  0  0  0
  1 21  1  0  0  0  0
  3  4  1  1  0  0  0
  3  8  1  0  0  0  0
  3 28  1  0  0  0  0
  5  9  1  0  0  0  0
  5 25  1  0  0  0  0
  5 29  1  6  0  0  0
  6  7  1  1  0  0  0
  6 11  1  0  0  0  0
  8 12  1  0  0  0  0
  9 10  1  6  0  0  0
  9 14  1  0  0  0  0
 11 16  1  0  0  0  0
 12 13  1  1  0  0  0
 12 17  1  0  0  0  0
 14 15  1  6  0  0  0
 14 18  1  0  0  0  0
 15 31  1  0  0  0  0
 16 20  1  0  0  0  0
 17  2  1  6  0  0  0
 17 22  1  0  0  0  0
 18 19  1  1  0  0  0
 18 24  1  0  0  0  0
 18 30  1  0  0  0  0
 20 21  1  0  0  0  0
 20 26  1  6  0  0  0
 22 23  1  6  0  0  0
 22 28  1  0  0  0  0
 24 25  1  0  0  0  0
 26 27  1  0  0  0  0
 28 29  1  6  0  0  0
M  END
>  <CHROM.1>
-173.03207534,-177.56961591,-87.04583672,-170.63471872,30.30787279,62.01877562
-1.58772056,12.88905606,6.27524445,-0.21090039,0.86209786,-1.26662746

>  <Name>
ligand

>  <RI>
0

>  <Rbt.Current_Directory>
/home/itssahil/PROJECTS/Mol_Feturizer/New_Systems/rnas/4GPX

>  <Rbt.Executable>
rbdock ($Id: //depot/dev/client3/rdock/2013.1/src/exe/rbdock.cxx#4 $)

>  <Rbt.Library>
libRbt.so (2013.1, Build901 2013/11/27)

>  <Rbt.Parameter_File>
/export/apps/rDock/src/rDock_2013.1_src/data/scripts/dock_solv.prm

>  <Rbt.Receptor>
prm/pocket_docking_7.prm

>  <SCORE>
-13.4903

>  <SCORE.INTER>
-6.38237

>  <SCORE.INTER.CONST>
1

>  <SCORE.INTER.POLAR>
0

>  <SCORE.INTER.ROT>
6

>  <SCORE.INTER.SOLV>
15.959

>  <SCORE.INTER.VDW>
-17.1746

>  <SCORE.INTER.norm>
-0.205883

>  <SCORE.INTRA>
-7.10796

>  <SCORE.INTRA.DIHEDRAL>
-16.7975

>  <SCORE.INTRA.DIHEDRAL.0>
20.6841

>  <SCORE.INTRA.POLAR>
0

>  <SCORE.INTRA.POLAR.0>
0

>  <SCORE.INTRA.REPUL>
0

>  <SCORE.INTRA.REPUL.0>
0

>  <SCORE.INTRA.SOLV>
-1.42485

>  <SCORE.INTRA.SOLV.lig_0>
-64.6797

>  <SCORE.INTRA.VDW>
2.0032

>  <SCORE.INTRA.VDW.0>
-4.11825

>  <SCORE.INTRA.norm>
-0.229289

>  <SCORE.RESTR>
0

>  <SCORE.RESTR.CAVITY>
0

>  <SCORE.RESTR.norm>
0

>  <SCORE.SYSTEM>
0

>  <SCORE.SYSTEM.CONST>
0

>  <SCORE.SYSTEM.DIHEDRAL>
0

>  <SCORE.SYSTEM.SOLV>
0

>  <SCORE.SYSTEM.norm>
0

>  <SCORE.heavy>
31

>  <SCORE.norm>
-0.435172

>  <RMSD>
7.860

$$$$
ligand
 OpenBabel11021811493D
libRbt.so/2013.1/901 2013/11/27
 31 33  0  0  0  0  0  0  0  0999 V2000
    0.4707   11.1800    9.0046 C   0  0  2  0  0  0  0  0  0  0  0  0
    0.0668   10.4173    7.8712 O   0  0  0  0  0  0  0  0  0  0  0  0
   -0.3770   13.3783    4.8513 C   0  0  2  0  0  0  0  0  0  0  0  0
   -0.5816   13.9651    3.5626 N   0  0  0  0  0  0  0  0  0  0  0  0
   -3.1210   14.0987    6.5155 C   0  0  2  0  0  0  0  0  0  0  0  0
    0.6264   10.1578   10.2032 C   0  0  2  0  0  0  0  0  0  0  0  0
    1.6216    9.1551    9.8381 N   0  0  0  0  0  0  0  0  0  0  0  0
    0.8946   12.4365    4.7749 C   0  0  0  0  0  0  0  0  0  0  0  0
   -4.5470   14.6688    6.2325 C   0  0  2  0  0  0  0  0  0  0  0  0
   -5.4105   13.5879    5.9520 O   0  0  0  0  0  0  0  0  0  0  0  0
   -0.7616    9.4742   10.5275 C   0  0  0  0  0  0  0  0  0  0  0  0
    1.1213   11.7868    6.1912 C   0  0  2  0  0  0  0  0  0  0  0  0
    2.2996   10.9054    6.1248 N   0  0  0  0  0  0  0  0  0  0  0  0
   -4.4270   15.6323    4.9911 C   0  0  1  0  0  0  0  0  0  0  0  0
   -5.7757   16.1984    4.6571 N   0  0  0  0  0  0  0  0  0  0  0  0
   -1.9790   10.4824   10.3819 C   0  0  0  0  0  0  0  0  0  0  0  0
   -0.1676   10.9528    6.6142 C   0  0  2  0  0  0  0  0  0  0  0  0
   -3.4154   16.8462    5.3929 C   0  0  1  0  0  0  0  0  0  0  0  0
   -3.8635   17.5665    6.5286 O   0  0  0  0  0  0  0  0  0  0  0  0
   -1.8078   11.7132    9.8309 C   0  0  2  0  0  0  0  0  0  0  0  0
   -0.5376   12.1725    9.3544 O   0  0  0  0  0  0  0  0  0  0  0  0
   -1.4158   11.9091    6.6727 C   0  0  2  0  0  0  0  0  0  0  0  0
   -2.5811   11.1431    7.0470 O   0  0  0  0  0  0  0  0  0  0  0  0
   -2.0058   16.2690    5.7449 C   0  0  0  0  0  0  0  0  0  0  0  0
   -2.1511   15.2249    6.8204 O   0  0  0  0  0  0  0  0  0  0  0  0
   -2.9487   12.7200    9.6716 C   0  0  0  0  0  0  0  0  0  0  0  0
   -2.5265   13.9742   10.2574 O   0  0  0  0  0  0  0  0  0  0  0  0
   -1.6397   12.5306    5.2447 C   0  0  1  0  0  0  0  0  0  0  0  0
   -2.7592   13.3575    5.3052 O   0  0  0  0  0  0  0  0  0  0  0  0
   -3.1809   17.8958    4.2798 C   0  0  0  0  0  0  0  0  0  0  0  0
   -6.4288   15.6785    3.4384 C   0  0  0  0  0  0  0  0  0  0  0  0
  1  2  1  6  0  0  0
  1  6  1  0  0  0  0
  1 21  1  0  0  0  0
  3  4  1  6  0  0  0
  3  8  1  0  0  0  0
  3 28  1  0  0  0  0
  5  9  1  0  0  0  0
  5 25  1  0  0  0  0
  5 29  1  6  0  0  0
  6  7  1  6  0  0  0
  6 11  1  0  0  0  0
  8 12  1  0  0  0  0
  9 10  1  6  0  0  0
  9 14  1  0  0  0  0
 11 16  1  0  0  0  0
 12 13  1  6  0  0  0
 12 17  1  0  0  0  0
 14 15  1  1  0  0  0
 14 18  1  0  0  0  0
 15 31  1  0  0  0  0
 16 20  1  0  0  0  0
 17  2  1  1  0  0  0
 17 22  1  0  0  0  0
 18 19  1  1  0  0  0
 18 24  1  0  0  0  0
 18 30  1  0  0  0  0
 20 21  1  0  0  0  0
 20 26  1  1  0  0  0
 22 23  1  6  0  0  0
 22 28  1  0  0  0  0
 24 25  1  0  0  0  0
 26 27  1  0  0  0  0
 28 29  1  1  0  0  0
M  END
>  <CHROM.1>
-179.58640729,-169.96174146,-107.26278532,53.24757179,127.75647188,-86.57279007
-1.88918718,13.16969368,6.90920536,0.86971540,-0.58115461,2.08166091

>  <Name>
ligand

>  <RI>
0

>  <Rbt.Current_Directory>
/home/itssahil/PROJECTS/Mol_Feturizer/New_Systems/rnas/4GPX

>  <Rbt.Executable>
rbdock ($Id: //depot/dev/client3/rdock/2013.1/src/exe/rbdock.cxx#4 $)

>  <Rbt.Library>
libRbt.so (2013.1, Build901 2013/11/27)

>  <Rbt.Parameter_File>
/export/apps/rDock/src/rDock_2013.1_src/data/scripts/dock_solv.prm

>  <Rbt.Receptor>
prm/pocket_docking_6.prm

>  <SCORE>
-12.7766

>  <SCORE.INTER>
-6.30824

>  <SCORE.INTER.CONST>
1

>  <SCORE.INTER.POLAR>
0

>  <SCORE.INTER.ROT>
6

>  <SCORE.INTER.SOLV>
14.2614

>  <SCORE.INTER.VDW>
-16.5593

>  <SCORE.INTER.norm>
-0.203492

>  <SCORE.INTRA>
-6.4684

>  <SCORE.INTRA.DIHEDRAL>
-14.1794

>  <SCORE.INTRA.DIHEDRAL.0>
20.6841

>  <SCORE.INTRA.POLAR>
0

>  <SCORE.INTRA.POLAR.0>
0

>  <SCORE.INTRA.REPUL>
0.0232207

>  <SCORE.INTRA.REPUL.0>
0

>  <SCORE.INTRA.SOLV>
-0.199173

>  <SCORE.INTRA.SOLV.lig_0>
-64.6797

>  <SCORE.INTRA.VDW>
0.60477

>  <SCORE.INTRA.VDW.0>
-4.11825

>  <SCORE.INTRA.norm>
-0.208658

>  <SCORE.RESTR>
0

>  <SCORE.RESTR.CAVITY>
0

>  <SCORE.RESTR.norm>
0

>  <SCORE.SYSTEM>
0

>  <SCORE.SYSTEM.CONST>
0

>  <SCORE.SYSTEM.DIHEDRAL>
0

>  <SCORE.SYSTEM.SOLV>
0

>  <SCORE.SYSTEM.norm>
0

>  <SCORE.heavy>
31

>  <SCORE.norm>
-0.41215

>  <RMSD>
7.869

$$$$
ligand
 OpenBabel11021811493D
libRbt.so/2013.1/901 2013/11/27
 31 33  0  0  0  0  0  0  0  0999 V2000
   -8.2344   12.0944   11.5861 C   0  0  2  0  0  0  0  0  0  0  0  0
   -6.8904   12.5341   11.7576 O   0  0  0  0  0  0  0  0  0  0  0  0
   -3.2231   13.0818    9.6755 C   0  0  2  0  0  0  0  0  0  0  0  0
   -2.1312   12.8313    8.7855 N   0  0  0  0  0  0  0  0  0  0  0  0
   -5.4835   14.4120    6.8886 C   0  0  2  0  0  0  0  0  0  0  0  0
   -9.1263   12.9893   12.5400 C   0  0  2  0  0  0  0  0  0  0  0  0
   -8.9582   14.3888   12.1626 N   0  0  0  0  0  0  0  0  0  0  0  0
   -3.3082   11.8852   10.7103 C   0  0  0  0  0  0  0  0  0  0  0  0
   -5.0064   13.5246    5.6955 C   0  0  2  0  0  0  0  0  0  0  0  0
   -4.9147   12.1891    6.1433 O   0  0  0  0  0  0  0  0  0  0  0  0
   -8.7139   12.7649   14.0495 C   0  0  0  0  0  0  0  0  0  0  0  0
   -4.5107   12.1563   11.6900 C   0  0  2  0  0  0  0  0  0  0  0  0
   -4.5983   11.0439   12.6515 N   0  0  0  0  0  0  0  0  0  0  0  0
   -3.5971   14.0668    5.2444 C   0  0  1  0  0  0  0  0  0  0  0  0
   -3.0754   13.2377    4.1081 N   0  0  0  0  0  0  0  0  0  0  0  0
   -8.3415   11.2523   14.3545 C   0  0  0  0  0  0  0  0  0  0  0  0
   -5.8650   12.2760   10.8611 C   0  0  2  0  0  0  0  0  0  0  0  0
   -3.7871   15.6078    4.7467 C   0  0  1  0  0  0  0  0  0  0  0  0
   -4.7165   15.7188    3.6822 O   0  0  0  0  0  0  0  0  0  0  0  0
   -8.2027   10.3481   13.3490 C   0  0  2  0  0  0  0  0  0  0  0  0
   -8.3815   10.6966   11.9713 O   0  0  0  0  0  0  0  0  0  0  0  0
   -5.7496   13.4639    9.8356 C   0  0  2  0  0  0  0  0  0  0  0  0
   -6.9774   13.5587    9.0818 O   0  0  0  0  0  0  0  0  0  0  0  0
   -4.3321   16.4827    5.9221 C   0  0  0  0  0  0  0  0  0  0  0  0
   -5.5954   15.8627    6.4584 O   0  0  0  0  0  0  0  0  0  0  0  0
   -7.8477    8.8801   13.5928 C   0  0  0  0  0  0  0  0  0  0  0  0
   -8.9630    8.0690   13.1537 O   0  0  0  0  0  0  0  0  0  0  0  0
   -4.5584   13.1646    8.8523 C   0  0  1  0  0  0  0  0  0  0  0  0
   -4.4809   14.2124    7.9375 O   0  0  0  0  0  0  0  0  0  0  0  0
   -2.4909   16.3021    4.2635 C   0  0  0  0  0  0  0  0  0  0  0  0
   -1.6257   12.9539    4.1063 C   0  0  0  0  0  0  0  0  0  0  0  0
  1  2  1  1  0  0  0
  1  6  1  0  0  0  0
  1 21  1  0  0  0  0
  3  4  1  6  0  0  0
  3  8  1  0  0  0  0
  3 28  1  0  0  0  0
  5  9  1  0  0  0  0
  5 25  1  0  0  0  0
  5 29  1  1  0  0  0
  6  7  1  6  0  0  0
  6 11  1  0  0  0  0
  8 12  1  0  0  0  0
  9 10  1  1  0  0  0
  9 14  1  0  0  0  0
 11 16  1  0  0  0  0
 12 13  1  1  0  0  0
 12 17  1  0  0  0  0
 14 15  1  6  0  0  0
 14 18  1  0  0  0  0
 15 31  1  0  0  0  0
 16 20  1  0  0  0  0
 17  2  1  1  0  0  0
 17 22  1  0  0  0  0
 18 19  1  6  0  0  0
 18 24  1  0  0  0  0
 18 30  1  0  0  0  0
 20 21  1  0  0  0  0
 20 26  1  1  0  0  0
 22 23  1  6  0  0  0
 22 28  1  0  0  0  0
 24 25  1  0  0  0  0
 26 27  1  0  0  0  0
 28 29  1  6  0  0  0
M  END
>  <CHROM.1>
-161.48742616,-86.62807835,-141.72475191,-148.29815171,115.99108499,170.32191403
-5.61801108,12.96326057,9.19152065,2.12307501,-0.54958048,2.31590372

>  <Name>
ligand

>  <RI>
0

>  <Rbt.Current_Directory>
/home/itssahil/PROJECTS/Mol_Feturizer/New_Systems/rnas/4GPX

>  <Rbt.Executable>
rbdock ($Id: //depot/dev/client3/rdock/2013.1/src/exe/rbdock.cxx#4 $)

>  <Rbt.Library>
libRbt.so (2013.1, Build901 2013/11/27)

>  <Rbt.Parameter_File>
/export/apps/rDock/src/rDock_2013.1_src/data/scripts/dock_solv.prm

>  <Rbt.Receptor>
prm/pocket_docking_8.prm

>  <SCORE>
-12.1517

>  <SCORE.INTER>
-8.03076

>  <SCORE.INTER.CONST>
1

>  <SCORE.INTER.POLAR>
0

>  <SCORE.INTER.ROT>
6

>  <SCORE.INTER.SOLV>
13.143

>  <SCORE.INTER.VDW>
-17.3348

>  <SCORE.INTER.norm>
-0.259057

>  <SCORE.INTRA>
-4.1209

>  <SCORE.INTRA.DIHEDRAL>
-9.22011

>  <SCORE.INTRA.DIHEDRAL.0>
20.6841

>  <SCORE.INTRA.POLAR>
0

>  <SCORE.INTRA.POLAR.0>
0

>  <SCORE.INTRA.REPUL>
0

>  <SCORE.INTRA.REPUL.0>
0

>  <SCORE.INTRA.SOLV>
-0.244227

>  <SCORE.INTRA.SOLV.lig_0>
-64.6797

>  <SCORE.INTRA.VDW>
0.611273

>  <SCORE.INTRA.VDW.0>
-4.11825

>  <SCORE.INTRA.norm>
-0.132932

>  <SCORE.RESTR>
0

>  <SCORE.RESTR.CAVITY>
0

>  <SCORE.RESTR.norm>
0

>  <SCORE.SYSTEM>
0

>  <SCORE.SYSTEM.CONST>
0

>  <SCORE.SYSTEM.DIHEDRAL>
0

>  <SCORE.SYSTEM.SOLV>
0

>  <SCORE.SYSTEM.norm>
0

>  <SCORE.heavy>
31

>  <SCORE.norm>
-0.391989

>  <RMSD>
7.880

$$$$
ligand
 OpenBabel11021811493D
libRbt.so/2013.1/901 2013/11/27
 31 33  0  0  0  0  0  0  0  0999 V2000
    0.2633   10.6992    8.0631 C   0  0  2  0  0  0  0  0  0  0  0  0
   -0.8979   10.4131    8.8370 O   0  0  0  0  0  0  0  0  0  0  0  0
   -4.6889   12.1850    9.5939 C   0  0  2  0  0  0  0  0  0  0  0  0
   -5.6675   13.1314   10.0337 N   0  0  0  0  0  0  0  0  0  0  0  0
   -5.3410   14.4639    7.4248 C   0  0  2  0  0  0  0  0  0  0  0  0
    1.1947    9.4228    8.1594 C   0  0  2  0  0  0  0  0  0  0  0  0
    0.4651    8.2699    7.6418 N   0  0  0  0  0  0  0  0  0  0  0  0
   -3.8199   11.7479   10.8445 C   0  0  0  0  0  0  0  0  0  0  0  0
   -5.9838   14.5315    6.0032 C   0  0  2  0  0  0  0  0  0  0  0  0
   -6.7336   13.3532    5.7976 O   0  0  0  0  0  0  0  0  0  0  0  0
    1.6379    9.1765    9.6566 C   0  0  0  0  0  0  0  0  0  0  0  0
   -2.7398   10.7079   10.3636 C   0  0  2  0  0  0  0  0  0  0  0  0
   -1.9249   10.3019   11.5215 N   0  0  0  0  0  0  0  0  0  0  0  0
   -4.8054   14.6396    4.9623 C   0  0  1  0  0  0  0  0  0  0  0  0
   -5.3623   14.6883    3.5700 N   0  0  0  0  0  0  0  0  0  0  0  0
    1.9181   10.5322   10.4334 C   0  0  0  0  0  0  0  0  0  0  0  0
   -1.8178   11.3666    9.2448 C   0  0  2  0  0  0  0  0  0  0  0  0
   -3.9904   16.0184    5.2673 C   0  0  1  0  0  0  0  0  0  0  0  0
   -4.8211   17.1640    5.1851 O   0  0  0  0  0  0  0  0  0  0  0  0
    1.5891   11.7332    9.8884 C   0  0  2  0  0  0  0  0  0  0  0  0
    0.9786   11.8508    8.5981 O   0  0  0  0  0  0  0  0  0  0  0  0
   -2.7063   11.7998    8.0204 C   0  0  2  0  0  0  0  0  0  0  0  0
   -1.8641   12.4047    7.0157 O   0  0  0  0  0  0  0  0  0  0  0  0
   -3.4059   15.9809    6.7167 C   0  0  0  0  0  0  0  0  0  0  0  0
   -4.5190   15.7104    7.6943 O   0  0  0  0  0  0  0  0  0  0  0  0
    1.8415   13.0658   10.5963 C   0  0  0  0  0  0  0  0  0  0  0  0
    2.7208   13.8579    9.7634 O   0  0  0  0  0  0  0  0  0  0  0  0
   -3.7636   12.8545    8.5154 C   0  0  1  0  0  0  0  0  0  0  0  0
   -4.5287   13.2452    7.4187 O   0  0  0  0  0  0  0  0  0  0  0  0
   -2.7887   16.2872    4.3295 C   0  0  0  0  0  0  0  0  0  0  0  0
   -6.4166   15.6906    3.3132 C   0  0  0  0  0  0  0  0  0  0  0  0
  1  2  1  1  0  0  0
  1  6  1  0  0  0  0
  1 21  1  0  0  0  0
  3  4  1  1  0  0  0
  3  8  1  0  0  0  0
  3 28  1  0  0  0  0
  5  9  1  0  0  0  0
  5 25  1  0  0  0  0
  5 29  1  6  0  0  0
  6  7  1  1  0  0  0
  6 11  1  0  0  0  0
  8 12  1  0  0  0  0
  9 10  1  6  0  0  0
  9 14  1  0  0  0  0
 11 16  1  0  0  0  0
 12 13  1  1  0  0  0
 12 17  1  0  0  0  0
 14 15  1  6  0  0  0
 14 18  1  0  0  0  0
 15 31  1  0  0  0  0
 16 20  1  0  0  0  0
 17  2  1  6  0  0  0
 17 22  1  0  0  0  0
 18 19  1  6  0  0  0
 18 24  1  0  0  0  0
 18 30  1  0  0  0  0
 20 21  1  0  0  0  0
 20 26  1  6  0  0  0
 22 23  1  6  0  0  0
 22 28  1  0  0  0  0
 24 25  1  0  0  0  0
 26 27  1  0  0  0  0
 28 29  1  6  0  0  0
M  END
>  <CHROM.1>
165.42021402,178.36272036,51.51523997,-166.24484156,119.95884682,78.78512453
-2.44962985,12.85567059,7.85906977,-0.79675532,0.04852366,-0.79504950

>  <Name>
ligand

>  <RI>
0

>  <Rbt.Current_Directory>
/home/itssahil/PROJECTS/Mol_Feturizer/New_Systems/rnas/4GPX

>  <Rbt.Executable>
rbdock ($Id: //depot/dev/client3/rdock/2013.1/src/exe/rbdock.cxx#4 $)

>  <Rbt.Library>
libRbt.so (2013.1, Build901 2013/11/27)

>  <Rbt.Parameter_File>
/export/apps/rDock/src/rDock_2013.1_src/data/scripts/dock_solv.prm

>  <Rbt.Receptor>
prm/pocket_docking_4.prm

>  <SCORE>
-15.8475

>  <SCORE.INTER>
-9.71945

>  <SCORE.INTER.CONST>
1

>  <SCORE.INTER.POLAR>
0

>  <SCORE.INTER.ROT>
6

>  <SCORE.INTER.SOLV>
19.2941

>  <SCORE.INTER.VDW>
-20.511

>  <SCORE.INTER.norm>
-0.313531

>  <SCORE.INTRA>
-6.12806

>  <SCORE.INTRA.DIHEDRAL>
-15.4228

>  <SCORE.INTRA.DIHEDRAL.0>
20.6841

>  <SCORE.INTRA.POLAR>
0

>  <SCORE.INTRA.POLAR.0>
0

>  <SCORE.INTRA.REPUL>
0

>  <SCORE.INTRA.REPUL.0>
0

>  <SCORE.INTRA.SOLV>
-1.31882

>  <SCORE.INTRA.SOLV.lig_0>
-64.6797

>  <SCORE.INTRA.VDW>
2.24276

>  <SCORE.INTRA.VDW.0>
-4.11825

>  <SCORE.INTRA.norm>
-0.197679

>  <SCORE.RESTR>
0

>  <SCORE.RESTR.CAVITY>
0

>  <SCORE.RESTR.norm>
0

>  <SCORE.SYSTEM>
0

>  <SCORE.SYSTEM.CONST>
0

>  <SCORE.SYSTEM.DIHEDRAL>
0

>  <SCORE.SYSTEM.SOLV>
0

>  <SCORE.SYSTEM.norm>
0

>  <SCORE.heavy>
31

>  <SCORE.norm>
-0.51121

>  <RMSD>
7.888

$$$$
ligand
 OpenBabel11021811493D
libRbt.so/2013.1/901 2013/11/27
 31 33  0  0  0  0  0  0  0  0999 V2000
   -8.3233   12.6072   10.8649 C   0  0  2  0  0  0  0  0  0  0  0  0
   -7.6007   13.7382   11.3424 O   0  0  0  0  0  0  0  0  0  0  0  0
   -4.1227   15.8478   10.1023 C   0  0  2  0  0  0  0  0  0  0  0  0
   -2.7450   16.1394    9.8497 N   0  0  0  0  0  0  0  0  0  0  0  0
   -4.1088   13.7500    6.9605 C   0  0  2  0  0  0  0  0  0  0  0  0
   -9.7951   12.7407   11.4322 C   0  0  2  0  0  0  0  0  0  0  0  0
  -10.3692   13.9950   10.9564 N   0  0  0  0  0  0  0  0  0  0  0  0
   -4.2975   15.5667   11.6517 C   0  0  0  0  0  0  0  0  0  0  0  0
   -3.2437   14.4178    5.8450 C   0  0  2  0  0  0  0  0  0  0  0  0
   -2.0830   14.9539    6.4434 O   0  0  0  0  0  0  0  0  0  0  0  0
   -9.7820   12.6968   13.0124 C   0  0  0  0  0  0  0  0  0  0  0  0
   -5.8125   15.2427   11.9330 C   0  0  2  0  0  0  0  0  0  0  0  0
   -5.9803   14.9750   13.3717 N   0  0  0  0  0  0  0  0  0  0  0  0
   -4.1190   15.5545    5.1928 C   0  0  1  0  0  0  0  0  0  0  0  0
   -3.3308   16.2491    4.1217 N   0  0  0  0  0  0  0  0  0  0  0  0
   -8.7090   11.6731   13.5783 C   0  0  0  0  0  0  0  0  0  0  0  0
   -6.2600   13.9743   11.0807 C   0  0  2  0  0  0  0  0  0  0  0  0
   -5.4352   14.8572    4.5295 C   0  0  1  0  0  0  0  0  0  0  0  0
   -5.0958   13.8834    3.5568 O   0  0  0  0  0  0  0  0  0  0  0  0
   -7.7920   11.0942   12.7588 C   0  0  2  0  0  0  0  0  0  0  0  0
   -7.7363   11.3661   11.3536 O   0  0  0  0  0  0  0  0  0  0  0  0
   -6.0670   14.2768    9.5486 C   0  0  2  0  0  0  0  0  0  0  0  0
   -6.4654   13.1185    8.7842 O   0  0  0  0  0  0  0  0  0  0  0  0
   -6.2650   14.1282    5.6357 C   0  0  0  0  0  0  0  0  0  0  0  0
   -5.3740   13.1591    6.3672 O   0  0  0  0  0  0  0  0  0  0  0  0
   -6.7406   10.1005   13.2564 C   0  0  0  0  0  0  0  0  0  0  0  0
   -5.4347   10.6936   13.0637 O   0  0  0  0  0  0  0  0  0  0  0  0
   -4.5452   14.5757    9.2834 C   0  0  1  0  0  0  0  0  0  0  0  0
   -4.3849   14.8204    7.9213 O   0  0  0  0  0  0  0  0  0  0  0  0
   -6.4139   15.8366    3.8378 C   0  0  0  0  0  0  0  0  0  0  0  0
   -3.0580   17.6863    4.3269 C   0  0  0  0  0  0  0  0  0  0  0  0
  1  2  1  1  0  0  0
  1  6  1  0  0  0  0
  1 21  1  0  0  0  0
  3  4  1  1  0  0  0
  3  8  1  0  0  0  0
  3 28  1  0  0  0  0
  5  9  1  0  0  0  0
  5 25  1  0  0  0  0
  5 29  1  1  0  0  0
  6  7  1  1  0  0  0
  6 11  1  0  0  0  0
  8 12  1  0  0  0  0
  9 10  1  1  0  0  0
  9 14  1  0  0  0  0
 11 16  1  0  0  0  0
 12 13  1  1  0  0  0
 12 17  1  0  0  0  0
 14 15  1  6  0  0  0
 14 18  1  0  0  0  0
 15 31  1  0  0  0  0
 16 20  1  0  0  0  0
 17  2  1  6  0  0  0
 17 22  1  0  0  0  0
 18 19  1  6  0  0  0
 18 24  1  0  0  0  0
 18 30  1  0  0  0  0
 20 21  1  0  0  0  0
 20 26  1  6  0  0  0
 22 23  1  6  0  0  0
 22 28  1  0  0  0  0
 24 25  1  0  0  0  0
 26 27  1  0  0  0  0
 28 29  1  6  0  0  0
M  END
>  <CHROM.1>
178.81399199,-148.81189984,-117.63738673,-173.55060285,-115.66690540,152.09220041
-5.83990780,13.97119833,9.06443555,2.07677383,0.51527776,1.69442872

>  <Name>
ligand

>  <RI>
0

>  <Rbt.Current_Directory>
/home/itssahil/PROJECTS/Mol_Feturizer/New_Systems/rnas/4GPX

>  <Rbt.Executable>
rbdock ($Id: //depot/dev/client3/rdock/2013.1/src/exe/rbdock.cxx#4 $)

>  <Rbt.Library>
libRbt.so (2013.1, Build901 2013/11/27)

>  <Rbt.Parameter_File>
/export/apps/rDock/src/rDock_2013.1_src/data/scripts/dock_solv.prm

>  <Rbt.Receptor>
prm/pocket_docking_7.prm

>  <SCORE>
-15.4018

>  <SCORE.INTER>
-9.29398

>  <SCORE.INTER.CONST>
1

>  <SCORE.INTER.POLAR>
0

>  <SCORE.INTER.ROT>
6

>  <SCORE.INTER.SOLV>
13.6285

>  <SCORE.INTER.VDW>
-18.3388

>  <SCORE.INTER.norm>
-0.299806

>  <SCORE.INTRA>
-6.10781

>  <SCORE.INTRA.DIHEDRAL>
-10.5361

>  <SCORE.INTRA.DIHEDRAL.0>
20.6841

>  <SCORE.INTRA.POLAR>
0

>  <SCORE.INTRA.POLAR.0>
0

>  <SCORE.INTRA.REPUL>
0

>  <SCORE.INTRA.REPUL.0>
0

>  <SCORE.INTRA.SOLV>
-2.09203

>  <SCORE.INTRA.SOLV.lig_0>
-64.6797

>  <SCORE.INTRA.VDW>
0.206235

>  <SCORE.INTRA.VDW.0>
-4.11825

>  <SCORE.INTRA.norm>
-0.197026

>  <SCORE.RESTR>
0

>  <SCORE.RESTR.CAVITY>
0

>  <SCORE.RESTR.norm>
0

>  <SCORE.SYSTEM>
0

>  <SCORE.SYSTEM.CONST>
0

>  <SCORE.SYSTEM.DIHEDRAL>
0

>  <SCORE.SYSTEM.SOLV>
0

>  <SCORE.SYSTEM.norm>
0

>  <SCORE.heavy>
31

>  <SCORE.norm>
-0.496832

>  <RMSD>
7.891

$$$$
ligand
 OpenBabel11021811493D
libRbt.so/2013.1/901 2013/11/27
 31 33  0  0  0  0  0  0  0  0999 V2000
    0.9999   13.0428    2.7682 C   0  0  2  0  0  0  0  0  0  0  0  0
    0.7597   12.1461    3.8487 O   0  0  0  0  0  0  0  0  0  0  0  0
   -1.7313   12.2230    7.2944 C   0  0  2  0  0  0  0  0  0  0  0  0
   -2.2228   12.5743    8.5913 N   0  0  0  0  0  0  0  0  0  0  0  0
   -3.5073   15.0320    7.1737 C   0  0  2  0  0  0  0  0  0  0  0  0
    1.6508   12.1856    1.6075 C   0  0  2  0  0  0  0  0  0  0  0  0
    0.7256   11.1201    1.2361 N   0  0  0  0  0  0  0  0  0  0  0  0
   -0.2707   11.6315    7.4575 C   0  0  0  0  0  0  0  0  0  0  0  0
   -4.7849   15.5875    6.4682 C   0  0  2  0  0  0  0  0  0  0  0  0
   -5.6638   14.5097    6.2264 O   0  0  0  0  0  0  0  0  0  0  0  0
    3.0351   11.5841    2.0773 C   0  0  0  0  0  0  0  0  0  0  0  0
    0.2745   11.2460    6.0314 C   0  0  2  0  0  0  0  0  0  0  0  0
    1.6350   10.7003    6.1762 N   0  0  0  0  0  0  0  0  0  0  0  0
   -4.3207   16.2516    5.1165 C   0  0  1  0  0  0  0  0  0  0  0  0
   -5.5127   16.7889    4.3806 N   0  0  0  0  0  0  0  0  0  0  0  0
    3.8515   12.5924    2.9919 C   0  0  0  0  0  0  0  0  0  0  0  0
    0.2942   12.5341    5.0954 C   0  0  2  0  0  0  0  0  0  0  0  0
   -3.3113   17.4792    5.4802 C   0  0  1  0  0  0  0  0  0  0  0  0
   -3.9214   18.4481    6.3159 O   0  0  0  0  0  0  0  0  0  0  0  0
    3.2811   13.7347    3.4583 C   0  0  2  0  0  0  0  0  0  0  0  0
    1.9280   14.0965    3.1586 O   0  0  0  0  0  0  0  0  0  0  0  0
   -1.1654   13.1061    4.9588 C   0  0  2  0  0  0  0  0  0  0  0  0
   -1.1367   14.2788    4.1172 O   0  0  0  0  0  0  0  0  0  0  0  0
   -2.0648   16.9325    6.2492 C   0  0  0  0  0  0  0  0  0  0  0  0
   -2.5260   16.1548    7.4535 O   0  0  0  0  0  0  0  0  0  0  0  0
    4.0272   14.7379    4.3400 C   0  0  0  0  0  0  0  0  0  0  0  0
    3.3219   14.8413    5.5994 O   0  0  0  0  0  0  0  0  0  0  0  0
   -1.6841   13.5061    6.3894 C   0  0  1  0  0  0  0  0  0  0  0  0
   -2.9674   14.0302    6.2517 O   0  0  0  0  0  0  0  0  0  0  0  0
   -2.7547   18.2502    4.2589 C   0  0  0  0  0  0  0  0  0  0  0  0
   -6.2304   15.8427    3.5021 C   0  0  0  0  0  0  0  0  0  0  0  0
  1  2  1  1  0  0  0
  1  6  1  0  0  0  0
  1 21  1  0  0  0  0
  3  4  1  1  0  0  0
  3  8  1  0  0  0  0
  3 28  1  0  0  0  0
  5  9  1  0  0  0  0
  5 25  1  0  0  0  0
  5 29  1  6  0  0  0
  6  7  1  1  0  0  0
  6 11  1  0  0  0  0
  8 12  1  0  0  0  0
  9 10  1  6  0  0  0
  9 14  1  0  0  0  0
 11 16  1  0  0  0  0
 12 13  1  1  0  0  0
 12 17  1  0  0  0  0
 14 15  1  1  0  0  0
 14 18  1  0  0  0  0
 15 31  1  0  0  0  0
 16 20  1  0  0  0  0
 17  2  1  6  0  0  0
 17 22  1  0  0  0  0
 18 19  1  1  0  0  0
 18 24  1  0  0  0  0
 18 30  1  0  0  0  0
 20 21  1  0  0  0  0
 20 26  1  6  0  0  0
 22 23  1  6  0  0  0
 22 28  1  0  0  0  0
 24 25  1  0  0  0  0
 26 27  1  0  0  0  0
 28 29  1  6  0  0  0
M  END
>  <CHROM.1>
174.59323581,166.37564857,-86.30066119,-175.69281385,-119.61965390,90.35662423
-0.98378996,14.14196297,5.03714590,-0.15931768,0.55740201,-0.72875758

>  <Name>
ligand

>  <RI>
0

>  <Rbt.Current_Directory>
/home/itssahil/PROJECTS/Mol_Feturizer/New_Systems/rnas/4GPX

>  <Rbt.Executable>
rbdock ($Id: //depot/dev/client3/rdock/2013.1/src/exe/rbdock.cxx#4 $)

>  <Rbt.Library>
libRbt.so (2013.1, Build901 2013/11/27)

>  <Rbt.Parameter_File>
/export/apps/rDock/src/rDock_2013.1_src/data/scripts/dock_solv.prm

>  <Rbt.Receptor>
prm/pocket_docking_7.prm

>  <SCORE>
-13.4697

>  <SCORE.INTER>
-6.00082

>  <SCORE.INTER.CONST>
1

>  <SCORE.INTER.POLAR>
0

>  <SCORE.INTER.ROT>
6

>  <SCORE.INTER.SOLV>
10.5331

>  <SCORE.INTER.VDW>
-15.1116

>  <SCORE.INTER.norm>
-0.193575

>  <SCORE.INTRA>
-7.46893

>  <SCORE.INTRA.DIHEDRAL>
-13.7309

>  <SCORE.INTRA.DIHEDRAL.0>
20.6841

>  <SCORE.INTRA.POLAR>
0

>  <SCORE.INTRA.POLAR.0>
0

>  <SCORE.INTRA.REPUL>
0

>  <SCORE.INTRA.REPUL.0>
0

>  <SCORE.INTRA.SOLV>
-1.89903

>  <SCORE.INTRA.SOLV.lig_0>
-64.6797

>  <SCORE.INTRA.VDW>
0.346014

>  <SCORE.INTRA.VDW.0>
-4.11825

>  <SCORE.INTRA.norm>
-0.240933

>  <SCORE.RESTR>
0

>  <SCORE.RESTR.CAVITY>
0

>  <SCORE.RESTR.norm>
0

>  <SCORE.SYSTEM>
0

>  <SCORE.SYSTEM.CONST>
0

>  <SCORE.SYSTEM.DIHEDRAL>
0

>  <SCORE.SYSTEM.SOLV>
0

>  <SCORE.SYSTEM.norm>
0

>  <SCORE.heavy>
31

>  <SCORE.norm>
-0.434508

>  <RMSD>
7.899

$$$$
ligand
 OpenBabel11021811493D
libRbt.so/2013.1/901 2013/11/27
 31 33  0  0  0  0  0  0  0  0999 V2000
    0.4052   11.1765    8.8830 C   0  0  2  0  0  0  0  0  0  0  0  0
   -0.2957   10.3805    7.9321 O   0  0  0  0  0  0  0  0  0  0  0  0
    0.0898   12.6356    4.3474 C   0  0  2  0  0  0  0  0  0  0  0  0
   -0.0471   13.0123    2.9740 N   0  0  0  0  0  0  0  0  0  0  0  0
   -2.9747   14.0846    3.9262 C   0  0  2  0  0  0  0  0  0  0  0  0
    0.8640   10.1974   10.0393 C   0  0  2  0  0  0  0  0  0  0  0  0
    1.7138    9.1594    9.4651 N   0  0  0  0  0  0  0  0  0  0  0  0
    0.8099   11.2257    4.4089 C   0  0  0  0  0  0  0  0  0  0  0  0
   -3.4712   15.5230    4.2769 C   0  0  2  0  0  0  0  0  0  0  0  0
   -2.3597   16.3931    4.2625 O   0  0  0  0  0  0  0  0  0  0  0  0
   -0.3944    9.5581   10.7509 C   0  0  0  0  0  0  0  0  0  0  0  0
    0.9600   10.8066    5.9193 C   0  0  2  0  0  0  0  0  0  0  0  0
    1.6242    9.4934    5.9826 N   0  0  0  0  0  0  0  0  0  0  0  0
   -4.1177   15.4569    5.7127 C   0  0  1  0  0  0  0  0  0  0  0  0
   -4.5981   16.8201    6.1151 N   0  0  0  0  0  0  0  0  0  0  0  0
   -1.5948   10.5871   10.8922 C   0  0  0  0  0  0  0  0  0  0  0  0
   -0.4761   10.7313    6.6032 C   0  0  2  0  0  0  0  0  0  0  0  0
   -5.3860   14.4344    5.6462 C   0  0  1  0  0  0  0  0  0  0  0  0
   -6.3540   14.8389    4.6930 O   0  0  0  0  0  0  0  0  0  0  0  0
   -1.5630   11.7919   10.2636 C   0  0  2  0  0  0  0  0  0  0  0  0
   -0.4613   12.2040    9.4463 O   0  0  0  0  0  0  0  0  0  0  0  0
   -1.1719   12.1402    6.5194 C   0  0  2  0  0  0  0  0  0  0  0  0
   -2.4767   12.0602    7.1325 O   0  0  0  0  0  0  0  0  0  0  0  0
   -4.8987   13.0096    5.2262 C   0  0  0  0  0  0  0  0  0  0  0  0
   -4.1353   13.1074    3.9318 O   0  0  0  0  0  0  0  0  0  0  0  0
   -2.6933   12.8172   10.3714 C   0  0  0  0  0  0  0  0  0  0  0  0
   -2.6682   13.6409    9.1817 O   0  0  0  0  0  0  0  0  0  0  0  0
   -1.3334   12.5313    5.0040 C   0  0  1  0  0  0  0  0  0  0  0  0
   -1.9694   13.7693    4.9437 O   0  0  0  0  0  0  0  0  0  0  0  0
   -6.1455   14.2490    6.9821 C   0  0  0  0  0  0  0  0  0  0  0  0
   -3.6378   17.6713    6.8468 C   0  0  0  0  0  0  0  0  0  0  0  0
  1  2  1  6  0  0  0
  1  6  1  0  0  0  0
  1 21  1  0  0  0  0
  3  4  1  6  0  0  0
  3  8  1  0  0  0  0
  3 28  1  0  0  0  0
  5  9  1  0  0  0  0
  5 25  1  0  0  0  0
  5 29  1  1  0  0  0
  6  7  1  6  0  0  0
  6 11  1  0  0  0  0
  8 12  1  0  0  0  0
  9 10  1  1  0  0  0
  9 14  1  0  0  0  0
 11 16  1  0  0  0  0
 12 13  1  6  0  0  0
 12 17  1  0  0  0  0
 14 15  1  6  0  0  0
 14 18  1  0  0  0  0
 15 31  1  0  0  0  0
 16 20  1  0  0  0  0
 17  2  1  1  0  0  0
 17 22  1  0  0  0  0
 18 19  1  6  0  0  0
 18 24  1  0  0  0  0
 18 30  1  0  0  0  0
 20 21  1  0  0  0  0
 20 26  1  1  0  0  0
 22 23  1  6  0  0  0
 22 28  1  0  0  0  0
 24 25  1  0  0  0  0
 26 27  1  0  0  0  0
 28 29  1  1  0  0  0
M  END
>  <CHROM.1>
-157.89663860,176.94497667,-90.61594664,63.11780255,-153.87562267,99.93269821
-1.93684730,12.79233683,6.73293772,0.70736403,-0.67282467,1.84712936

>  <Name>
ligand

>  <RI>
0

>  <Rbt.Current_Directory>
/home/itssahil/PROJECTS/Mol_Feturizer/New_Systems/rnas/4GPX

>  <Rbt.Executable>
rbdock ($Id: //depot/dev/client3/rdock/2013.1/src/exe/rbdock.cxx#4 $)

>  <Rbt.Library>
libRbt.so (2013.1, Build901 2013/11/27)

>  <Rbt.Parameter_File>
/export/apps/rDock/src/rDock_2013.1_src/data/scripts/dock_solv.prm

>  <Rbt.Receptor>
prm/pocket_docking_4.prm

>  <SCORE>
-9.72402

>  <SCORE.INTER>
-5.25277

>  <SCORE.INTER.CONST>
1

>  <SCORE.INTER.POLAR>
0

>  <SCORE.INTER.ROT>
6

>  <SCORE.INTER.SOLV>
14.9291

>  <SCORE.INTER.VDW>
-16.0782

>  <SCORE.INTER.norm>
-0.169444

>  <SCORE.INTRA>
-4.47126

>  <SCORE.INTRA.DIHEDRAL>
-9.59147

>  <SCORE.INTRA.DIHEDRAL.0>
20.6841

>  <SCORE.INTRA.POLAR>
0

>  <SCORE.INTRA.POLAR.0>
0

>  <SCORE.INTRA.REPUL>
0.0294069

>  <SCORE.INTRA.REPUL.0>
0

>  <SCORE.INTRA.SOLV>
0.505925

>  <SCORE.INTRA.SOLV.lig_0>
-64.6797

>  <SCORE.INTRA.VDW>
-0.0755175

>  <SCORE.INTRA.VDW.0>
-4.11825

>  <SCORE.INTRA.norm>
-0.144234

>  <SCORE.RESTR>
0

>  <SCORE.RESTR.CAVITY>
0

>  <SCORE.RESTR.norm>
0

>  <SCORE.SYSTEM>
0

>  <SCORE.SYSTEM.CONST>
0

>  <SCORE.SYSTEM.DIHEDRAL>
0

>  <SCORE.SYSTEM.SOLV>
0

>  <SCORE.SYSTEM.norm>
0

>  <SCORE.heavy>
31

>  <SCORE.norm>
-0.313678

>  <RMSD>
7.906

$$$$
ligand
 OpenBabel11021811493D
libRbt.so/2013.1/901 2013/11/27
 31 33  0  0  0  0  0  0  0  0999 V2000
    0.3075   10.7850    8.1911 C   0  0  2  0  0  0  0  0  0  0  0  0
   -0.8873   10.4518    8.8915 O   0  0  0  0  0  0  0  0  0  0  0  0
   -4.7294   12.1172    9.6322 C   0  0  2  0  0  0  0  0  0  0  0  0
   -5.7361   13.0334   10.0729 N   0  0  0  0  0  0  0  0  0  0  0  0
   -5.3862   14.4257    7.4654 C   0  0  2  0  0  0  0  0  0  0  0  0
    1.3064    9.5754    8.4035 C   0  0  2  0  0  0  0  0  0  0  0  0
    0.6894    8.3605    7.8816 N   0  0  0  0  0  0  0  0  0  0  0  0
   -3.8606   11.6892   10.8860 C   0  0  0  0  0  0  0  0  0  0  0  0
   -6.1005   14.4354    6.0767 C   0  0  2  0  0  0  0  0  0  0  0  0
   -6.8618   13.2524    5.9598 O   0  0  0  0  0  0  0  0  0  0  0  0
    1.6533    9.4108    9.9370 C   0  0  0  0  0  0  0  0  0  0  0  0
   -2.7497   10.6827   10.4041 C   0  0  2  0  0  0  0  0  0  0  0  0
   -1.9350   10.2853   11.5651 N   0  0  0  0  0  0  0  0  0  0  0  0
   -4.9765   14.4947    4.9737 C   0  0  1  0  0  0  0  0  0  0  0  0
   -5.6035   14.4865    3.6106 N   0  0  0  0  0  0  0  0  0  0  0  0
    1.7915   10.8081   10.6774 C   0  0  0  0  0  0  0  0  0  0  0  0
   -1.8351   11.3769    9.3008 C   0  0  2  0  0  0  0  0  0  0  0  0
   -4.1445   15.8819    5.1778 C   0  0  1  0  0  0  0  0  0  0  0  0
   -4.9763   17.0263    5.0893 O   0  0  0  0  0  0  0  0  0  0  0  0
    1.4297   11.9656   10.0634 C   0  0  2  0  0  0  0  0  0  0  0  0
    0.9092   11.9983    8.7294 O   0  0  0  0  0  0  0  0  0  0  0  0
   -2.7236   11.8002    8.0730 C   0  0  2  0  0  0  0  0  0  0  0  0
   -1.8885   12.4373    7.0825 O   0  0  0  0  0  0  0  0  0  0  0  0
   -3.4869   15.9036    6.5959 C   0  0  0  0  0  0  0  0  0  0  0  0
   -4.5493   15.6792    7.6395 O   0  0  0  0  0  0  0  0  0  0  0  0
    1.5466   13.3356   10.7342 C   0  0  0  0  0  0  0  0  0  0  0  0
    2.0184   13.1347   12.0875 O   0  0  0  0  0  0  0  0  0  0  0  0
   -3.8122   12.8219    8.5693 C   0  0  1  0  0  0  0  0  0  0  0  0
   -4.5774   13.2046    7.4699 O   0  0  0  0  0  0  0  0  0  0  0  0
   -2.9918   16.1061    4.1695 C   0  0  0  0  0  0  0  0  0  0  0  0
   -6.2728   13.2362    3.1971 C   0  0  0  0  0  0  0  0  0  0  0  0
  1  2  1  1  0  0  0
  1  6  1  0  0  0  0
  1 21  1  0  0  0  0
  3  4  1  1  0  0  0
  3  8  1  0  0  0  0
  3 28  1  0  0  0  0
  5  9  1  0  0  0  0
  5 25  1  0  0  0  0
  5 29  1  6  0  0  0
  6  7  1  1  0  0  0
  6 11  1  0  0  0  0
  8 12  1  0  0  0  0
  9 10  1  6  0  0  0
  9 14  1  0  0  0  0
 11 16  1  0  0  0  0
 12 13  1  1  0  0  0
 12 17  1  0  0  0  0
 14 15  1  6  0  0  0
 14 18  1  0  0  0  0
 15 31  1  0  0  0  0
 16 20  1  0  0  0  0
 17  2  1  6  0  0  0
 17 22  1  0  0  0  0
 18 19  1  6  0  0  0
 18 24  1  0  0  0  0
 18 30  1  0  0  0  0
 20 21  1  0  0  0  0
 20 26  1  6  0  0  0
 22 23  1  6  0  0  0
 22 28  1  0  0  0  0
 24 25  1  0  0  0  0
 26 27  1  0  0  0  0
 28 29  1  6  0  0  0
M  END
>  <CHROM.1>
159.34191137,-178.20554659,-68.35658890,-162.85629892,-2.98997221,80.86981838
-2.53150090,12.74773772,8.00054740,-0.78778591,0.08983969,-0.95224962

>  <Name>
ligand

>  <RI>
0

>  <Rbt.Current_Directory>
/home/itssahil/PROJECTS/Mol_Feturizer/New_Systems/rnas/4GPX

>  <Rbt.Executable>
rbdock ($Id: //depot/dev/client3/rdock/2013.1/src/exe/rbdock.cxx#4 $)

>  <Rbt.Library>
libRbt.so (2013.1, Build901 2013/11/27)

>  <Rbt.Parameter_File>
/export/apps/rDock/src/rDock_2013.1_src/data/scripts/dock_solv.prm

>  <Rbt.Receptor>
prm/pocket_docking_3.prm

>  <SCORE>
-13.2632

>  <SCORE.INTER>
-8.1429

>  <SCORE.INTER.CONST>
1

>  <SCORE.INTER.POLAR>
0

>  <SCORE.INTER.ROT>
6

>  <SCORE.INTER.SOLV>
19.512

>  <SCORE.INTER.VDW>
-19.5326

>  <SCORE.INTER.norm>
-0.262674

>  <SCORE.INTRA>
-5.12025

>  <SCORE.INTRA.DIHEDRAL>
-13.7031

>  <SCORE.INTRA.DIHEDRAL.0>
20.6841

>  <SCORE.INTRA.POLAR>
0

>  <SCORE.INTRA.POLAR.0>
0

>  <SCORE.INTRA.REPUL>
0

>  <SCORE.INTRA.REPUL.0>
0

>  <SCORE.INTRA.SOLV>
-1.20157

>  <SCORE.INTRA.SOLV.lig_0>
-64.6797

>  <SCORE.INTRA.VDW>
2.33209

>  <SCORE.INTRA.VDW.0>
-4.11825

>  <SCORE.INTRA.norm>
-0.165169

>  <SCORE.RESTR>
0

>  <SCORE.RESTR.CAVITY>
0

>  <SCORE.RESTR.norm>
0

>  <SCORE.SYSTEM>
0

>  <SCORE.SYSTEM.CONST>
0

>  <SCORE.SYSTEM.DIHEDRAL>
0

>  <SCORE.SYSTEM.SOLV>
0

>  <SCORE.SYSTEM.norm>
0

>  <SCORE.heavy>
31

>  <SCORE.norm>
-0.427844

>  <RMSD>
7.912

$$$$
ligand
 OpenBabel11021811493D
libRbt.so/2013.1/901 2013/11/27
 31 33  0  0  0  0  0  0  0  0999 V2000
   -0.9848   11.4884   12.3486 C   0  0  2  0  0  0  0  0  0  0  0  0
   -1.2400   12.6207   11.5228 O   0  0  0  0  0  0  0  0  0  0  0  0
   -4.7698   12.5257    9.1530 C   0  0  2  0  0  0  0  0  0  0  0  0
   -6.0783   12.8521    8.6752 N   0  0  0  0  0  0  0  0  0  0  0  0
   -3.1965   13.3230    6.6789 C   0  0  2  0  0  0  0  0  0  0  0  0
    0.2286   11.8796   13.2870 C   0  0  2  0  0  0  0  0  0  0  0  0
   -0.1438   13.0529   14.0705 N   0  0  0  0  0  0  0  0  0  0  0  0
   -4.8895   12.0742   10.6669 C   0  0  0  0  0  0  0  0  0  0  0  0
   -2.8764   14.2732    5.4816 C   0  0  2  0  0  0  0  0  0  0  0  0
   -1.9730   15.2619    5.9276 O   0  0  0  0  0  0  0  0  0  0  0  0
    1.5201   12.1719   12.4237 C   0  0  0  0  0  0  0  0  0  0  0  0
   -3.4506   11.7166   11.1970 C   0  0  2  0  0  0  0  0  0  0  0  0
   -3.5548   11.3012   12.6064 N   0  0  0  0  0  0  0  0  0  0  0  0
   -4.2381   14.9191    5.0209 C   0  0  1  0  0  0  0  0  0  0  0  0
   -3.9911   15.8618    3.8802 N   0  0  0  0  0  0  0  0  0  0  0  0
    1.6479   11.1942   11.1796 C   0  0  0  0  0  0  0  0  0  0  0  0
   -2.4970   12.9851   11.0656 C   0  0  2  0  0  0  0  0  0  0  0  0
   -5.2225   13.7173    4.5259 C   0  0  1  0  0  0  0  0  0  0  0  0
   -4.6583   12.9608    3.4681 O   0  0  0  0  0  0  0  0  0  0  0  0
    0.6262   10.3693   10.8285 C   0  0  2  0  0  0  0  0  0  0  0  0
   -0.6118   10.3294   11.5478 O   0  0  0  0  0  0  0  0  0  0  0  0
   -2.4040   13.4177    9.5556 C   0  0  2  0  0  0  0  0  0  0  0  0
   -1.5460   14.5739    9.4470 O   0  0  0  0  0  0  0  0  0  0  0  0
   -5.4866   12.7265    5.7059 C   0  0  0  0  0  0  0  0  0  0  0  0
   -4.1695   12.2405    6.2506 O   0  0  0  0  0  0  0  0  0  0  0  0
    0.7027    9.4083    9.6405 C   0  0  0  0  0  0  0  0  0  0  0  0
    1.6958    8.3996    9.9416 O   0  0  0  0  0  0  0  0  0  0  0  0
   -3.8463   13.7923    9.0507 C   0  0  1  0  0  0  0  0  0  0  0  0
   -3.7467   14.1935    7.7203 O   0  0  0  0  0  0  0  0  0  0  0  0
   -6.6164   14.1763    4.0340 C   0  0  0  0  0  0  0  0  0  0  0  0
   -3.6781   17.2615    4.2337 C   0  0  0  0  0  0  0  0  0  0  0  0
  1  2  1  6  0  0  0
  1  6  1  0  0  0  0
  1 21  1  0  0  0  0
  3  4  1  1  0  0  0
  3  8  1  0  0  0  0
  3 28  1  0  0  0  0
  5  9  1  0  0  0  0
  5 25  1  0  0  0  0
  5 29  1  1  0  0  0
  6  7  1  6  0  0  0
  6 11  1  0  0  0  0
  8 12  1  0  0  0  0
  9 10  1  1  0  0  0
  9 14  1  0  0  0  0
 11 16  1  0  0  0  0
 12 13  1  1  0  0  0
 12 17  1  0  0  0  0
 14 15  1  6  0  0  0
 14 18  1  0  0  0  0
 15 31  1  0  0  0  0
 16 20  1  0  0  0  0
 17  2  1  6  0  0  0
 17 22  1  0  0  0  0
 18 19  1  6  0  0  0
 18 24  1  0  0  0  0
 18 30  1  0  0  0  0
 20 21  1  0  0  0  0
 20 26  1  1  0  0  0
 22 23  1  1  0  0  0
 22 28  1  0  0  0  0
 24 25  1  0  0  0  0
 26 27  1  0  0  0  0
 28 29  1  6  0  0  0
M  END
>  <CHROM.1>
-147.09842524,-163.61837930,-88.90976734,-18.55233757,66.69266788,-60.48884290
-2.54505363,12.80974237,8.70860198,1.01372783,-0.28098879,1.83666507

>  <Name>
ligand

>  <RI>
0

>  <Rbt.Current_Directory>
/home/itssahil/PROJECTS/Mol_Feturizer/New_Systems/rnas/4GPX

>  <Rbt.Executable>
rbdock ($Id: //depot/dev/client3/rdock/2013.1/src/exe/rbdock.cxx#4 $)

>  <Rbt.Library>
libRbt.so (2013.1, Build901 2013/11/27)

>  <Rbt.Parameter_File>
/export/apps/rDock/src/rDock_2013.1_src/data/scripts/dock_solv.prm

>  <Rbt.Receptor>
prm/pocket_docking_3.prm

>  <SCORE>
-10.0936

>  <SCORE.INTER>
-11.8244

>  <SCORE.INTER.CONST>
1

>  <SCORE.INTER.POLAR>
0

>  <SCORE.INTER.ROT>
6

>  <SCORE.INTER.SOLV>
18.3836

>  <SCORE.INTER.VDW>
-21.6108

>  <SCORE.INTER.norm>
-0.381431

>  <SCORE.INTRA>
1.67417

>  <SCORE.INTRA.DIHEDRAL>
-5.55124

>  <SCORE.INTRA.DIHEDRAL.0>
20.6841

>  <SCORE.INTRA.POLAR>
0

>  <SCORE.INTRA.POLAR.0>
0

>  <SCORE.INTRA.REPUL>
0

>  <SCORE.INTRA.REPUL.0>
0

>  <SCORE.INTRA.SOLV>
1.04741

>  <SCORE.INTRA.SOLV.lig_0>
-64.6797

>  <SCORE.INTRA.VDW>
3.92609

>  <SCORE.INTRA.VDW.0>
-4.11825

>  <SCORE.INTRA.norm>
0.0540056

>  <SCORE.RESTR>
0.0565659

>  <SCORE.RESTR.CAVITY>
0.0565659

>  <SCORE.RESTR.norm>
0.00182471

>  <SCORE.SYSTEM>
0

>  <SCORE.SYSTEM.CONST>
0

>  <SCORE.SYSTEM.DIHEDRAL>
0

>  <SCORE.SYSTEM.SOLV>
0

>  <SCORE.SYSTEM.norm>
0

>  <SCORE.heavy>
31

>  <SCORE.norm>
-0.325601

>  <RMSD>
7.918

$$$$
ligand
 OpenBabel11021811493D
libRbt.so/2013.1/901 2013/11/27
 31 33  0  0  0  0  0  0  0  0999 V2000
    1.1651   10.0357    4.6746 C   0  0  2  0  0  0  0  0  0  0  0  0
    0.6616    9.6115    5.9379 O   0  0  0  0  0  0  0  0  0  0  0  0
   -2.2053   11.1256    8.6896 C   0  0  2  0  0  0  0  0  0  0  0  0
   -2.8039   11.9610    9.6849 N   0  0  0  0  0  0  0  0  0  0  0  0
   -3.8339   13.5396    7.6052 C   0  0  2  0  0  0  0  0  0  0  0  0
    1.5609    8.7228    3.8836 C   0  0  2  0  0  0  0  0  0  0  0  0
    0.3751    7.8840    3.7440 N   0  0  0  0  0  0  0  0  0  0  0  0
   -0.8644   10.5253    9.2825 C   0  0  0  0  0  0  0  0  0  0  0  0
   -5.0671   13.8230    6.6901 C   0  0  2  0  0  0  0  0  0  0  0  0
   -5.7684   12.6125    6.5013 O   0  0  0  0  0  0  0  0  0  0  0  0
    2.7077    7.9459    4.6453 C   0  0  0  0  0  0  0  0  0  0  0  0
   -0.2013    9.6071    8.1885 C   0  0  2  0  0  0  0  0  0  0  0  0
    1.0492    9.0502    8.7322 N   0  0  0  0  0  0  0  0  0  0  0  0
   -4.5157   14.3754    5.3209 C   0  0  1  0  0  0  0  0  0  0  0  0
   -5.6585   14.6489    4.3880 N   0  0  0  0  0  0  0  0  0  0  0  0
    3.7645    8.9279    5.3074 C   0  0  0  0  0  0  0  0  0  0  0  0
    0.0995   10.4607    6.8783 C   0  0  2  0  0  0  0  0  0  0  0  0
   -3.7201   15.7659    5.6238 C   0  0  1  0  0  0  0  0  0  0  0  0
   -4.5479   16.7355    6.2437 O   0  0  0  0  0  0  0  0  0  0  0  0
    3.5381   10.2671    5.3633 C   0  0  2  0  0  0  0  0  0  0  0  0
    2.3500   10.8687    4.8359 O   0  0  0  0  0  0  0  0  0  0  0  0
   -1.2461   11.0526    6.3169 C   0  0  2  0  0  0  0  0  0  0  0  0
   -0.9630   11.8328    5.1356 O   0  0  0  0  0  0  0  0  0  0  0  0
   -2.5269   15.4946    6.5967 C   0  0  0  0  0  0  0  0  0  0  0  0
   -3.0423   14.8131    7.8368 O   0  0  0  0  0  0  0  0  0  0  0  0
    4.5267   11.2532    5.9883 C   0  0  0  0  0  0  0  0  0  0  0  0
    3.9182   11.8056    7.1795 O   0  0  0  0  0  0  0  0  0  0  0  0
   -1.8818   11.9838    7.4143 C   0  0  1  0  0  0  0  0  0  0  0  0
   -3.0600   12.5175    6.8970 O   0  0  0  0  0  0  0  0  0  0  0  0
   -3.1080   16.4521    4.3788 C   0  0  0  0  0  0  0  0  0  0  0  0
   -6.1261   13.5159    3.5636 C   0  0  0  0  0  0  0  0  0  0  0  0
  1  2  1  1  0  0  0
  1  6  1  0  0  0  0
  1 21  1  0  0  0  0
  3  4  1  1  0  0  0
  3  8  1  0  0  0  0
  3 28  1  0  0  0  0
  5  9  1  0  0  0  0
  5 25  1  0  0  0  0
  5 29  1  6  0  0  0
  6  7  1  1  0  0  0
  6 11  1  0  0  0  0
  8 12  1  0  0  0  0
  9 10  1  6  0  0  0
  9 14  1  0  0  0  0
 11 16  1  0  0  0  0
 12 13  1  1  0  0  0
 12 17  1  0  0  0  0
 14 15  1  6  0  0  0
 14 18  1  0  0  0  0
 15 31  1  0  0  0  0
 16 20  1  0  0  0  0
 17  2  1  6  0  0  0
 17 22  1  0  0  0  0
 18 19  1  1  0  0  0
 18 24  1  0  0  0  0
 18 30  1  0  0  0  0
 20 21  1  0  0  0  0
 20 26  1  6  0  0  0
 22 23  1  6  0  0  0
 22 28  1  0  0  0  0
 24 25  1  0  0  0  0
 26 27  1  0  0  0  0
 28 29  1  6  0  0  0
M  END
>  <CHROM.1>
-174.09180780,-179.02896428,-86.86169160,-174.71651966,-112.94513922,67.84686077
-1.15255166,11.94534969,6.23260223,-0.15582472,0.61073129,-1.25195756

>  <Name>
ligand

>  <RI>
0

>  <Rbt.Current_Directory>
/home/itssahil/PROJECTS/Mol_Feturizer/New_Systems/rnas/4GPX

>  <Rbt.Executable>
rbdock ($Id: //depot/dev/client3/rdock/2013.1/src/exe/rbdock.cxx#4 $)

>  <Rbt.Library>
libRbt.so (2013.1, Build901 2013/11/27)

>  <Rbt.Parameter_File>
/export/apps/rDock/src/rDock_2013.1_src/data/scripts/dock_solv.prm

>  <Rbt.Receptor>
prm/pocket_docking_6.prm

>  <SCORE>
-13.0472

>  <SCORE.INTER>
-4.37687

>  <SCORE.INTER.CONST>
1

>  <SCORE.INTER.POLAR>
0

>  <SCORE.INTER.ROT>
6

>  <SCORE.INTER.SOLV>
11.327

>  <SCORE.INTER.VDW>
-14.2936

>  <SCORE.INTER.norm>
-0.141189

>  <SCORE.INTRA>
-8.67036

>  <SCORE.INTRA.DIHEDRAL>
-17.8117

>  <SCORE.INTRA.DIHEDRAL.0>
20.6841

>  <SCORE.INTRA.POLAR>
0

>  <SCORE.INTRA.POLAR.0>
0

>  <SCORE.INTRA.REPUL>
0

>  <SCORE.INTRA.REPUL.0>
0

>  <SCORE.INTRA.SOLV>
-1.57805

>  <SCORE.INTRA.SOLV.lig_0>
-64.6797

>  <SCORE.INTRA.VDW>
1.02453

>  <SCORE.INTRA.VDW.0>
-4.11825

>  <SCORE.INTRA.norm>
-0.279689

>  <SCORE.RESTR>
0

>  <SCORE.RESTR.CAVITY>
0

>  <SCORE.RESTR.norm>
0

>  <SCORE.SYSTEM>
0

>  <SCORE.SYSTEM.CONST>
0

>  <SCORE.SYSTEM.DIHEDRAL>
0

>  <SCORE.SYSTEM.SOLV>
0

>  <SCORE.SYSTEM.norm>
0

>  <SCORE.heavy>
31

>  <SCORE.norm>
-0.420878

>  <RMSD>
7.926

$$$$
ligand
 OpenBabel11021811493D
libRbt.so/2013.1/901 2013/11/27
 31 33  0  0  0  0  0  0  0  0999 V2000
    1.8473   13.2532    3.1377 C   0  0  2  0  0  0  0  0  0  0  0  0
    1.7363   12.2379    4.1307 O   0  0  0  0  0  0  0  0  0  0  0  0
   -1.0876   11.3472    7.1829 C   0  0  2  0  0  0  0  0  0  0  0  0
   -1.8158   11.4417    8.4108 N   0  0  0  0  0  0  0  0  0  0  0  0
   -3.5671   13.4904    6.9829 C   0  0  2  0  0  0  0  0  0  0  0  0
    2.9797   12.7825    2.1367 C   0  0  2  0  0  0  0  0  0  0  0  0
    2.5933   11.4980    1.5622 N   0  0  0  0  0  0  0  0  0  0  0  0
    0.4477   11.1607    7.5262 C   0  0  0  0  0  0  0  0  0  0  0  0
   -4.9366   13.5167    6.2328 C   0  0  2  0  0  0  0  0  0  0  0  0
   -5.2963   12.1887    5.9170 O   0  0  0  0  0  0  0  0  0  0  0  0
    4.3648   12.6634    2.8891 C   0  0  0  0  0  0  0  0  0  0  0  0
    1.2528   11.0589    6.1767 C   0  0  2  0  0  0  0  0  0  0  0  0
    2.6823   10.8909    6.4896 N   0  0  0  0  0  0  0  0  0  0  0  0
   -4.7365   14.3735    4.9252 C   0  0  1  0  0  0  0  0  0  0  0  0
   -6.0193   14.4189    4.1484 N   0  0  0  0  0  0  0  0  0  0  0  0
    4.5645   13.8088    3.9697 C   0  0  0  0  0  0  0  0  0  0  0  0
    1.0289   12.3788    5.3145 C   0  0  2  0  0  0  0  0  0  0  0  0
   -4.3219   15.8853    5.3734 C   0  0  1  0  0  0  0  0  0  0  0  0
   -5.2985   16.4865    6.2066 O   0  0  0  0  0  0  0  0  0  0  0  0
    3.5409   14.6345    4.3134 C   0  0  2  0  0  0  0  0  0  0  0  0
    2.2368   14.5260    3.7312 O   0  0  0  0  0  0  0  0  0  0  0  0
   -0.5033   12.5446    4.9967 C   0  0  2  0  0  0  0  0  0  0  0  0
   -0.6982   13.7484    4.2237 O   0  0  0  0  0  0  0  0  0  0  0  0
   -2.9866   15.8515    6.1857 C   0  0  0  0  0  0  0  0  0  0  0  0
   -3.1331   14.8990    7.3429 O   0  0  0  0  0  0  0  0  0  0  0  0
    3.6850   15.7537    5.3465 C   0  0  0  0  0  0  0  0  0  0  0  0
    2.8118   15.4524    6.4605 O   0  0  0  0  0  0  0  0  0  0  0  0
   -1.2877   12.6671    6.3551 C   0  0  1  0  0  0  0  0  0  0  0  0
   -2.6386   12.8348    6.0592 O   0  0  0  0  0  0  0  0  0  0  0  0
   -4.0850   16.8709    4.2038 C   0  0  0  0  0  0  0  0  0  0  0  0
   -6.3446   13.2282    3.3368 C   0  0  0  0  0  0  0  0  0  0  0  0
  1  2  1  1  0  0  0
  1  6  1  0  0  0  0
  1 21  1  0  0  0  0
  3  4  1  1  0  0  0
  3  8  1  0  0  0  0
  3 28  1  0  0  0  0
  5  9  1  0  0  0  0
  5 25  1  0  0  0  0
  5 29  1  6  0  0  0
  6  7  1  1  0  0  0
  6 11  1  0  0  0  0
  8 12  1  0  0  0  0
  9 10  1  6  0  0  0
  9 14  1  0  0  0  0
 11 16  1  0  0  0  0
 12 13  1  1  0  0  0
 12 17  1  0  0  0  0
 14 15  1  1  0  0  0
 14 18  1  0  0  0  0
 15 31  1  0  0  0  0
 16 20  1  0  0  0  0
 17  2  1  6  0  0  0
 17 22  1  0  0  0  0
 18 19  1  1  0  0  0
 18 24  1  0  0  0  0
 18 30  1  0  0  0  0
 20 21  1  0  0  0  0
 20 26  1  6  0  0  0
 22 23  1  6  0  0  0
 22 28  1  0  0  0  0
 24 25  1  0  0  0  0
 26 27  1  0  0  0  0
 28 29  1  6  0  0  0
M  END
>  <CHROM.1>
167.98156252,177.57650083,-78.92151215,-175.84339297,-116.31991580,86.00467390
-0.77124684,13.51148536,5.20466522,-0.01508205,0.23562761,-0.65904807

>  <Name>
ligand

>  <RI>
0

>  <Rbt.Current_Directory>
/home/itssahil/PROJECTS/Mol_Feturizer/New_Systems/rnas/4GPX

>  <Rbt.Executable>
rbdock ($Id: //depot/dev/client3/rdock/2013.1/src/exe/rbdock.cxx#4 $)

>  <Rbt.Library>
libRbt.so (2013.1, Build901 2013/11/27)

>  <Rbt.Parameter_File>
/export/apps/rDock/src/rDock_2013.1_src/data/scripts/dock_solv.prm

>  <Rbt.Receptor>
prm/pocket_docking_7.prm

>  <SCORE>
-12.4226

>  <SCORE.INTER>
-4.6344

>  <SCORE.INTER.CONST>
1

>  <SCORE.INTER.POLAR>
0

>  <SCORE.INTER.ROT>
6

>  <SCORE.INTER.SOLV>
9.28501

>  <SCORE.INTER.VDW>
-13.7846

>  <SCORE.INTER.norm>
-0.149497

>  <SCORE.INTRA>
-7.7991

>  <SCORE.INTRA.DIHEDRAL>
-15.0495

>  <SCORE.INTRA.DIHEDRAL.0>
20.6841

>  <SCORE.INTRA.POLAR>
0

>  <SCORE.INTRA.POLAR.0>
0

>  <SCORE.INTRA.REPUL>
0

>  <SCORE.INTRA.REPUL.0>
0

>  <SCORE.INTRA.SOLV>
-1.83381

>  <SCORE.INTRA.SOLV.lig_0>
-64.6797

>  <SCORE.INTRA.VDW>
0.642579

>  <SCORE.INTRA.VDW.0>
-4.11825

>  <SCORE.INTRA.norm>
-0.251584

>  <SCORE.RESTR>
0.0108982

>  <SCORE.RESTR.CAVITY>
0.0108982

>  <SCORE.RESTR.norm>
0.000351555

>  <SCORE.SYSTEM>
0

>  <SCORE.SYSTEM.CONST>
0

>  <SCORE.SYSTEM.DIHEDRAL>
0

>  <SCORE.SYSTEM.SOLV>
0

>  <SCORE.SYSTEM.norm>
0

>  <SCORE.heavy>
31

>  <SCORE.norm>
-0.400729

>  <RMSD>
7.927

$$$$
ligand
 OpenBabel11021811493D
libRbt.so/2013.1/901 2013/11/27
 31 33  0  0  0  0  0  0  0  0999 V2000
   -0.7438   14.5454   11.4205 C   0  0  2  0  0  0  0  0  0  0  0  0
   -2.0471   13.9927   11.5787 O   0  0  0  0  0  0  0  0  0  0  0  0
   -5.4341   13.6842    9.0258 C   0  0  2  0  0  0  0  0  0  0  0  0
   -6.6048   14.0580    8.2932 N   0  0  0  0  0  0  0  0  0  0  0  0
   -4.9367   14.7114    6.1416 C   0  0  2  0  0  0  0  0  0  0  0  0
    0.2223   13.6914   12.3388 C   0  0  2  0  0  0  0  0  0  0  0  0
    0.1656   12.2976   11.9106 N   0  0  0  0  0  0  0  0  0  0  0  0
   -5.6964   13.9643   10.5628 C   0  0  0  0  0  0  0  0  0  0  0  0
   -4.2721   14.2890    4.7931 C   0  0  2  0  0  0  0  0  0  0  0  0
   -4.0394   12.8971    4.8287 O   0  0  0  0  0  0  0  0  0  0  0  0
   -0.1990   13.8266   13.8564 C   0  0  0  0  0  0  0  0  0  0  0  0
   -4.4086   13.5564   11.3721 C   0  0  2  0  0  0  0  0  0  0  0  0
   -4.6446   13.8198   12.8019 N   0  0  0  0  0  0  0  0  0  0  0  0
   -2.9174   15.0849    4.6705 C   0  0  1  0  0  0  0  0  0  0  0  0
   -2.2199   14.7045    3.3977 N   0  0  0  0  0  0  0  0  0  0  0  0
   -0.6906   15.2920   14.2176 C   0  0  0  0  0  0  0  0  0  0  0  0
   -3.1587   14.3971   10.8559 C   0  0  2  0  0  0  0  0  0  0  0  0
   -3.2705   16.6763    4.6388 C   0  0  1  0  0  0  0  0  0  0  0  0
   -4.1344   17.0147    3.5671 O   0  0  0  0  0  0  0  0  0  0  0  0
   -0.9070   16.2181   13.2464 C   0  0  2  0  0  0  0  0  0  0  0  0
   -0.7079   15.9356   11.8564 O   0  0  0  0  0  0  0  0  0  0  0  0
   -2.9271   14.1081    9.3265 C   0  0  2  0  0  0  0  0  0  0  0  0
   -1.7988   14.8817    8.8648 O   0  0  0  0  0  0  0  0  0  0  0  0
   -3.9995   17.0854    5.9599 C   0  0  0  0  0  0  0  0  0  0  0  0
   -5.2053   16.2046    6.1550 O   0  0  0  0  0  0  0  0  0  0  0  0
   -1.3780   17.6428   13.5447 C   0  0  0  0  0  0  0  0  0  0  0  0
   -2.7287   17.7837   13.0447 O   0  0  0  0  0  0  0  0  0  0  0  0
   -4.2142   14.5424    8.5327 C   0  0  1  0  0  0  0  0  0  0  0  0
   -3.9879   14.3015    7.1794 O   0  0  0  0  0  0  0  0  0  0  0  0
   -2.0452   17.6144    4.5195 C   0  0  0  0  0  0  0  0  0  0  0  0
   -0.8185   14.2538    3.5197 C   0  0  0  0  0  0  0  0  0  0  0  0
  1  2  1  1  0  0  0
  1  6  1  0  0  0  0
  1 21  1  0  0  0  0
  3  4  1  6  0  0  0
  3  8  1  0  0  0  0
  3 28  1  0  0  0  0
  5  9  1  0  0  0  0
  5 25  1  0  0  0  0
  5 29  1  1  0  0  0
  6  7  1  6  0  0  0
  6 11  1  0  0  0  0
  8 12  1  0  0  0  0
  9 10  1  1  0  0  0
  9 14  1  0  0  0  0
 11 16  1  0  0  0  0
 12 13  1  1  0  0  0
 12 17  1  0  0  0  0
 14 15  1  6  0  0  0
 14 18  1  0  0  0  0
 15 31  1  0  0  0  0
 16 20  1  0  0  0  0
 17  2  1  1  0  0  0
 17 22  1  0  0  0  0
 18 19  1  6  0  0  0
 18 24  1  0  0  0  0
 18 30  1  0  0  0  0
 20 21  1  0  0  0  0
 20 26  1  1  0  0  0
 22 23  1  6  0  0  0
 22 28  1  0  0  0  0
 24 25  1  0  0  0  0
 26 27  1  0  0  0  0
 28 29  1  6  0  0  0
M  END
>  <CHROM.1>
-174.66328857,178.31367149,-126.76895546,-178.40549478,-111.53833292,67.25728360
-2.88902801,14.96307515,8.87371336,-1.30552377,-0.30075310,-1.44122539

>  <Name>
ligand

>  <RI>
0

>  <Rbt.Current_Directory>
/home/itssahil/PROJECTS/Mol_Feturizer/New_Systems/rnas/4GPX

>  <Rbt.Executable>
rbdock ($Id: //depot/dev/client3/rdock/2013.1/src/exe/rbdock.cxx#4 $)

>  <Rbt.Library>
libRbt.so (2013.1, Build901 2013/11/27)

>  <Rbt.Parameter_File>
/export/apps/rDock/src/rDock_2013.1_src/data/scripts/dock_solv.prm

>  <Rbt.Receptor>
prm/pocket_docking_8.prm

>  <SCORE>
-13.4852

>  <SCORE.INTER>
-4.84724

>  <SCORE.INTER.CONST>
1

>  <SCORE.INTER.POLAR>
0

>  <SCORE.INTER.ROT>
6

>  <SCORE.INTER.SOLV>
12.8755

>  <SCORE.INTER.VDW>
-15.1233

>  <SCORE.INTER.norm>
-0.156363

>  <SCORE.INTRA>
-8.63801

>  <SCORE.INTRA.DIHEDRAL>
-17.3137

>  <SCORE.INTRA.DIHEDRAL.0>
20.6841

>  <SCORE.INTRA.POLAR>
0

>  <SCORE.INTRA.POLAR.0>
0

>  <SCORE.INTRA.REPUL>
0

>  <SCORE.INTRA.REPUL.0>
0

>  <SCORE.INTRA.SOLV>
-1.77077

>  <SCORE.INTRA.SOLV.lig_0>
-64.6797

>  <SCORE.INTRA.VDW>
0.904217

>  <SCORE.INTRA.VDW.0>
-4.11825

>  <SCORE.INTRA.norm>
-0.278645

>  <SCORE.RESTR>
0

>  <SCORE.RESTR.CAVITY>
0

>  <SCORE.RESTR.norm>
0

>  <SCORE.SYSTEM>
0

>  <SCORE.SYSTEM.CONST>
0

>  <SCORE.SYSTEM.DIHEDRAL>
0

>  <SCORE.SYSTEM.SOLV>
0

>  <SCORE.SYSTEM.norm>
0

>  <SCORE.heavy>
31

>  <SCORE.norm>
-0.435008

>  <RMSD>
7.938

$$$$
ligand
 OpenBabel11021811493D
libRbt.so/2013.1/901 2013/11/27
 31 33  0  0  0  0  0  0  0  0999 V2000
   -0.0716   11.4586   12.2883 C   0  0  2  0  0  0  0  0  0  0  0  0
   -0.8305   11.8041   11.1333 O   0  0  0  0  0  0  0  0  0  0  0  0
   -0.1442   10.6492    7.0986 C   0  0  2  0  0  0  0  0  0  0  0  0
   -0.1624    9.8645    5.9024 N   0  0  0  0  0  0  0  0  0  0  0  0
   -1.5085   12.4814    5.5384 C   0  0  2  0  0  0  0  0  0  0  0  0
   -0.9062   11.9519   13.5398 C   0  0  2  0  0  0  0  0  0  0  0  0
   -2.2076   11.2921   13.5252 N   0  0  0  0  0  0  0  0  0  0  0  0
    0.5746    9.8109    8.2346 C   0  0  0  0  0  0  0  0  0  0  0  0
   -1.4344   13.9263    6.1262 C   0  0  2  0  0  0  0  0  0  0  0  0
   -0.8005   13.8621    7.3858 O   0  0  0  0  0  0  0  0  0  0  0  0
   -1.0766   13.5230   13.5031 C   0  0  0  0  0  0  0  0  0  0  0  0
    0.5942   10.6707    9.5536 C   0  0  2  0  0  0  0  0  0  0  0  0
    1.2568    9.8939   10.6154 N   0  0  0  0  0  0  0  0  0  0  0  0
   -2.9142   14.4506    6.2649 C   0  0  1  0  0  0  0  0  0  0  0  0
   -2.9090   15.8338    6.8460 N   0  0  0  0  0  0  0  0  0  0  0  0
    0.2236   14.2583   12.9659 C   0  0  0  0  0  0  0  0  0  0  0  0
   -0.8957   11.0324    9.9836 C   0  0  2  0  0  0  0  0  0  0  0  0
   -3.5744   14.4925    4.7747 C   0  0  1  0  0  0  0  0  0  0  0  0
   -2.8442   15.3207    3.8857 O   0  0  0  0  0  0  0  0  0  0  0  0
    1.2486   13.5562   12.4144 C   0  0  2  0  0  0  0  0  0  0  0  0
    1.2219   12.1299   12.2853 O   0  0  0  0  0  0  0  0  0  0  0  0
   -1.5885   11.8550    8.8349 C   0  0  2  0  0  0  0  0  0  0  0  0
   -2.9414   12.1699    9.2287 O   0  0  0  0  0  0  0  0  0  0  0  0
   -3.5843   13.0564    4.1571 C   0  0  0  0  0  0  0  0  0  0  0  0
   -2.1868   12.4957    4.1813 O   0  0  0  0  0  0  0  0  0  0  0  0
    2.5220   14.2189   11.8855 C   0  0  0  0  0  0  0  0  0  0  0  0
    2.4821   14.1792   10.4394 O   0  0  0  0  0  0  0  0  0  0  0  0
   -1.6188   10.9723    7.5329 C   0  0  1  0  0  0  0  0  0  0  0  0
   -2.2532   11.7034    6.5310 O   0  0  0  0  0  0  0  0  0  0  0  0
   -5.0395   14.9890    4.7237 C   0  0  0  0  0  0  0  0  0  0  0  0
   -3.6972   16.0372    8.0787 C   0  0  0  0  0  0  0  0  0  0  0  0
  1  2  1  6  0  0  0
  1  6  1  0  0  0  0
  1 21  1  0  0  0  0
  3  4  1  6  0  0  0
  3  8  1  0  0  0  0
  3 28  1  0  0  0  0
  5  9  1  0  0  0  0
  5 25  1  0  0  0  0
  5 29  1  1  0  0  0
  6  7  1  6  0  0  0
  6 11  1  0  0  0  0
  8 12  1  0  0  0  0
  9 10  1  1  0  0  0
  9 14  1  0  0  0  0
 11 16  1  0  0  0  0
 12 13  1  1  0  0  0
 12 17  1  0  0  0  0
 14 15  1  6  0  0  0
 14 18  1  0  0  0  0
 15 31  1  0  0  0  0
 16 20  1  0  0  0  0
 17  2  1  1  0  0  0
 17 22  1  0  0  0  0
 18 19  1  6  0  0  0
 18 24  1  0  0  0  0
 18 30  1  0  0  0  0
 20 21  1  0  0  0  0
 20 26  1  1  0  0  0
 22 23  1  1  0  0  0
 22 28  1  0  0  0  0
 24 25  1  0  0  0  0
 26 27  1  0  0  0  0
 28 29  1  6  0  0  0
M  END
>  <CHROM.1>
-144.37521175,-93.79351987,-123.86975871,-49.89545259,-106.74353015,-22.46421773
-1.13815099,12.73714274,8.67135398,-0.69207268,0.99774577,-2.15104889

>  <Name>
ligand

>  <RI>
0

>  <Rbt.Current_Directory>
/home/itssahil/PROJECTS/Mol_Feturizer/New_Systems/rnas/4GPX

>  <Rbt.Executable>
rbdock ($Id: //depot/dev/client3/rdock/2013.1/src/exe/rbdock.cxx#4 $)

>  <Rbt.Library>
libRbt.so (2013.1, Build901 2013/11/27)

>  <Rbt.Parameter_File>
/export/apps/rDock/src/rDock_2013.1_src/data/scripts/dock_solv.prm

>  <Rbt.Receptor>
prm/pocket_docking_3.prm

>  <SCORE>
-0.838144

>  <SCORE.INTER>
-3.15248

>  <SCORE.INTER.CONST>
1

>  <SCORE.INTER.POLAR>
0

>  <SCORE.INTER.ROT>
6

>  <SCORE.INTER.SOLV>
12.9816

>  <SCORE.INTER.VDW>
-14.0288

>  <SCORE.INTER.norm>
-0.101693

>  <SCORE.INTRA>
2.31397

>  <SCORE.INTRA.DIHEDRAL>
-3.16672

>  <SCORE.INTRA.DIHEDRAL.0>
20.6841

>  <SCORE.INTRA.POLAR>
0

>  <SCORE.INTRA.POLAR.0>
0

>  <SCORE.INTRA.REPUL>
0

>  <SCORE.INTRA.REPUL.0>
0

>  <SCORE.INTRA.SOLV>
0.914896

>  <SCORE.INTRA.SOLV.lig_0>
-64.6797

>  <SCORE.INTRA.VDW>
3.43988

>  <SCORE.INTRA.VDW.0>
-4.11825

>  <SCORE.INTRA.norm>
0.0746442

>  <SCORE.RESTR>
0.00036372

>  <SCORE.RESTR.CAVITY>
0.00036372

>  <SCORE.RESTR.norm>
1.17329e-05

>  <SCORE.SYSTEM>
0

>  <SCORE.SYSTEM.CONST>
0

>  <SCORE.SYSTEM.DIHEDRAL>
0

>  <SCORE.SYSTEM.SOLV>
0

>  <SCORE.SYSTEM.norm>
0

>  <SCORE.heavy>
31

>  <SCORE.norm>
-0.0270369

>  <RMSD>
7.949

$$$$
ligand
 OpenBabel11021811493D
libRbt.so/2013.1/901 2013/11/27
 31 33  0  0  0  0  0  0  0  0999 V2000
   -1.0789   10.9308   11.4858 C   0  0  2  0  0  0  0  0  0  0  0  0
   -1.4956   11.5819   10.2893 O   0  0  0  0  0  0  0  0  0  0  0  0
   -5.2996   12.9391    8.9583 C   0  0  2  0  0  0  0  0  0  0  0  0
   -6.4826   13.7372    8.8556 N   0  0  0  0  0  0  0  0  0  0  0  0
   -4.0300   13.4357    6.1546 C   0  0  2  0  0  0  0  0  0  0  0  0
   -0.3076   12.0148   12.3435 C   0  0  2  0  0  0  0  0  0  0  0  0
   -1.2112   13.1279   12.6149 N   0  0  0  0  0  0  0  0  0  0  0  0
   -5.1925   12.3941   10.4420 C   0  0  0  0  0  0  0  0  0  0  0  0
   -3.3063   14.2979    5.0722 C   0  0  2  0  0  0  0  0  0  0  0  0
   -2.0598   14.7093    5.5915 O   0  0  0  0  0  0  0  0  0  0  0  0
    0.9778   12.5151   11.5711 C   0  0  0  0  0  0  0  0  0  0  0  0
   -3.8899   11.5172   10.5595 C   0  0  2  0  0  0  0  0  0  0  0  0
   -3.7820   11.0119   11.9388 N   0  0  0  0  0  0  0  0  0  0  0  0
   -4.2293   15.5390    4.7699 C   0  0  1  0  0  0  0  0  0  0  0  0
   -3.5749   16.4195    3.7464 N   0  0  0  0  0  0  0  0  0  0  0  0
    1.6979   11.3444   10.7770 C   0  0  0  0  0  0  0  0  0  0  0  0
   -2.6135   12.3960   10.1931 C   0  0  2  0  0  0  0  0  0  0  0  0
   -5.6432   14.9820    4.1793 C   0  0  1  0  0  0  0  0  0  0  0  0
   -5.4681   14.2064    3.0058 O   0  0  0  0  0  0  0  0  0  0  0  0
    1.1107   10.1263   10.6390 C   0  0  2  0  0  0  0  0  0  0  0  0
   -0.1754    9.8254   11.1932 O   0  0  0  0  0  0  0  0  0  0  0  0
   -2.7505   12.9320    8.7200 C   0  0  2  0  0  0  0  0  0  0  0  0
   -1.5944   13.7355    8.3999 O   0  0  0  0  0  0  0  0  0  0  0  0
   -6.3350   14.0612    5.2365 C   0  0  0  0  0  0  0  0  0  0  0  0
   -5.3809   12.9699    5.6447 O   0  0  0  0  0  0  0  0  0  0  0  0
    1.7656    8.9669    9.8857 C   0  0  0  0  0  0  0  0  0  0  0  0
    0.9984    8.7215    8.6834 O   0  0  0  0  0  0  0  0  0  0  0  0
   -4.0438   13.8232    8.6280 C   0  0  1  0  0  0  0  0  0  0  0  0
   -4.1414   14.3082    7.3257 O   0  0  0  0  0  0  0  0  0  0  0  0
   -6.6786   16.0763    3.8241 C   0  0  0  0  0  0  0  0  0  0  0  0
   -2.9069   17.6370    4.2501 C   0  0  0  0  0  0  0  0  0  0  0  0
  1  2  1  6  0  0  0
  1  6  1  0  0  0  0
  1 21  1  0  0  0  0
  3  4  1  1  0  0  0
  3  8  1  0  0  0  0
  3 28  1  0  0  0  0
  5  9  1  0  0  0  0
  5 25  1  0  0  0  0
  5 29  1  1  0  0  0
  6  7  1  6  0  0  0
  6 11  1  0  0  0  0
  8 12  1  0  0  0  0
  9 10  1  1  0  0  0
  9 14  1  0  0  0  0
 11 16  1  0  0  0  0
 12 13  1  1  0  0  0
 12 17  1  0  0  0  0
 14 15  1  6  0  0  0
 14 18  1  0  0  0  0
 15 31  1  0  0  0  0
 16 20  1  0  0  0  0
 17  2  1  6  0  0  0
 17 22  1  0  0  0  0
 18 19  1  6  0  0  0
 18 24  1  0  0  0  0
 18 30  1  0  0  0  0
 20 21  1  0  0  0  0
 20 26  1  1  0  0  0
 22 23  1  1  0  0  0
 22 28  1  0  0  0  0
 24 25  1  0  0  0  0
 26 27  1  0  0  0  0
 28 29  1  6  0  0  0
M  END
>  <CHROM.1>
-80.43624686,-145.01212770,-101.48421201,-60.84256553,-111.81173857,-68.91539955
-2.79317275,12.97491543,8.18266265,0.99305350,-0.23101360,2.01927947

>  <Name>
ligand

>  <RI>
0

>  <Rbt.Current_Directory>
/home/itssahil/PROJECTS/Mol_Feturizer/New_Systems/rnas/4GPX

>  <Rbt.Executable>
rbdock ($Id: //depot/dev/client3/rdock/2013.1/src/exe/rbdock.cxx#4 $)

>  <Rbt.Library>
libRbt.so (2013.1, Build901 2013/11/27)

>  <Rbt.Parameter_File>
/export/apps/rDock/src/rDock_2013.1_src/data/scripts/dock_solv.prm

>  <Rbt.Receptor>
prm/pocket_docking_3.prm

>  <SCORE>
-14.5036

>  <SCORE.INTER>
-11.5834

>  <SCORE.INTER.CONST>
1

>  <SCORE.INTER.POLAR>
0

>  <SCORE.INTER.ROT>
6

>  <SCORE.INTER.SOLV>
16.2733

>  <SCORE.INTER.VDW>
-20.7467

>  <SCORE.INTER.norm>
-0.373657

>  <SCORE.INTRA>
-2.92026

>  <SCORE.INTRA.DIHEDRAL>
-11.1787

>  <SCORE.INTRA.DIHEDRAL.0>
20.6841

>  <SCORE.INTRA.POLAR>
0

>  <SCORE.INTRA.POLAR.0>
0

>  <SCORE.INTRA.REPUL>
0

>  <SCORE.INTRA.REPUL.0>
0

>  <SCORE.INTRA.SOLV>
2.42472

>  <SCORE.INTRA.SOLV.lig_0>
-64.6797

>  <SCORE.INTRA.VDW>
1.45675

>  <SCORE.INTRA.VDW.0>
-4.11825

>  <SCORE.INTRA.norm>
-0.0942021

>  <SCORE.RESTR>
0

>  <SCORE.RESTR.CAVITY>
0

>  <SCORE.RESTR.norm>
0

>  <SCORE.SYSTEM>
0

>  <SCORE.SYSTEM.CONST>
0

>  <SCORE.SYSTEM.DIHEDRAL>
0

>  <SCORE.SYSTEM.SOLV>
0

>  <SCORE.SYSTEM.norm>
0

>  <SCORE.heavy>
31

>  <SCORE.norm>
-0.467859

>  <RMSD>
7.950

$$$$
ligand
 OpenBabel11021811493D
libRbt.so/2013.1/901 2013/11/27
 31 33  0  0  0  0  0  0  0  0999 V2000
   -0.1322   13.6976   11.2545 C   0  0  2  0  0  0  0  0  0  0  0  0
   -1.3604   12.9973   11.4285 O   0  0  0  0  0  0  0  0  0  0  0  0
   -5.0290   12.8132    9.2856 C   0  0  2  0  0  0  0  0  0  0  0  0
   -6.3043   13.2015    8.7664 N   0  0  0  0  0  0  0  0  0  0  0  0
   -4.9433   14.3442    6.5571 C   0  0  2  0  0  0  0  0  0  0  0  0
    1.0061   12.7605   11.8308 C   0  0  2  0  0  0  0  0  0  0  0  0
    0.9898   11.4983   11.0988 N   0  0  0  0  0  0  0  0  0  0  0  0
   -5.1037   12.8444   10.8678 C   0  0  0  0  0  0  0  0  0  0  0  0
   -4.4485   14.1472    5.0891 C   0  0  2  0  0  0  0  0  0  0  0  0
   -4.2092   12.7717    4.8811 O   0  0  0  0  0  0  0  0  0  0  0  0
    0.7849   12.5123   13.3762 C   0  0  0  0  0  0  0  0  0  0  0  0
   -3.7006   12.4201   11.4429 C   0  0  2  0  0  0  0  0  0  0  0  0
   -3.7624   12.4525   12.9142 N   0  0  0  0  0  0  0  0  0  0  0  0
   -3.1214   14.9818    4.9275 C   0  0  1  0  0  0  0  0  0  0  0  0
   -2.5848   14.8156    3.5363 N   0  0  0  0  0  0  0  0  0  0  0  0
    0.2453   13.8047   14.1234 C   0  0  0  0  0  0  0  0  0  0  0  0
   -2.5777   13.4188   10.9164 C   0  0  2  0  0  0  0  0  0  0  0  0
   -3.4803   16.5514    5.1848 C   0  0  1  0  0  0  0  0  0  0  0  0
   -4.4704   17.0306    4.2907 O   0  0  0  0  0  0  0  0  0  0  0  0
   -0.1643   14.8976   13.4265 C   0  0  2  0  0  0  0  0  0  0  0  0
   -0.1351   14.9525   11.9956 O   0  0  0  0  0  0  0  0  0  0  0  0
   -2.5319   13.3754    9.3441 C   0  0  2  0  0  0  0  0  0  0  0  0
   -1.5186   14.2908    8.8752 O   0  0  0  0  0  0  0  0  0  0  0  0
   -4.0424   16.7379    6.6315 C   0  0  0  0  0  0  0  0  0  0  0  0
   -5.2125   15.8116    6.8330 O   0  0  0  0  0  0  0  0  0  0  0  0
   -0.6892   16.1664   14.1011 C   0  0  0  0  0  0  0  0  0  0  0  0
   -2.0322   16.4089   13.6195 O   0  0  0  0  0  0  0  0  0  0  0  0
   -3.9338   13.8236    8.7882 C   0  0  1  0  0  0  0  0  0  0  0  0
   -3.8730   13.8013    7.3966 O   0  0  0  0  0  0  0  0  0  0  0  0
   -2.2817   17.5232    5.0641 C   0  0  0  0  0  0  0  0  0  0  0  0
   -1.2012   14.3122    3.4160 C   0  0  0  0  0  0  0  0  0  0  0  0
  1  2  1  1  0  0  0
  1  6  1  0  0  0  0
  1 21  1  0  0  0  0
  3  4  1  6  0  0  0
  3  8  1  0  0  0  0
  3 28  1  0  0  0  0
  5  9  1  0  0  0  0
  5 25  1  0  0  0  0
  5 29  1  1  0  0  0
  6  7  1  6  0  0  0
  6 11  1  0  0  0  0
  8 12  1  0  0  0  0
  9 10  1  1  0  0  0
  9 14  1  0  0  0  0
 11 16  1  0  0  0  0
 12 13  1  1  0  0  0
 12 17  1  0  0  0  0
 14 15  1  6  0  0  0
 14 18  1  0  0  0  0
 15 31  1  0  0  0  0
 16 20  1  0  0  0  0
 17  2  1  1  0  0  0
 17 22  1  0  0  0  0
 18 19  1  6  0  0  0
 18 24  1  0  0  0  0
 18 30  1  0  0  0  0
 20 21  1  0  0  0  0
 20 26  1  1  0  0  0
 22 23  1  6  0  0  0
 22 28  1  0  0  0  0
 24 25  1  0  0  0  0
 26 27  1  0  0  0  0
 28 29  1  6  0  0  0
M  END
>  <CHROM.1>
-172.50821505,178.54274004,-123.56287410,-175.31879839,-121.43339164,70.20277104
-2.57379676,14.26082287,9.04701151,-1.18082516,-0.29361192,-1.26949689

>  <Name>
ligand

>  <RI>
0

>  <Rbt.Current_Directory>
/home/itssahil/PROJECTS/Mol_Feturizer/New_Systems/rnas/4GPX

>  <Rbt.Executable>
rbdock ($Id: //depot/dev/client3/rdock/2013.1/src/exe/rbdock.cxx#4 $)

>  <Rbt.Library>
libRbt.so (2013.1, Build901 2013/11/27)

>  <Rbt.Parameter_File>
/export/apps/rDock/src/rDock_2013.1_src/data/scripts/dock_solv.prm

>  <Rbt.Receptor>
prm/pocket_docking_6.prm

>  <SCORE>
-13.8255

>  <SCORE.INTER>
-5.16691

>  <SCORE.INTER.CONST>
1

>  <SCORE.INTER.POLAR>
0

>  <SCORE.INTER.ROT>
6

>  <SCORE.INTER.SOLV>
12.105

>  <SCORE.INTER.VDW>
-15.0796

>  <SCORE.INTER.norm>
-0.166674

>  <SCORE.INTRA>
-8.65861

>  <SCORE.INTRA.DIHEDRAL>
-16.907

>  <SCORE.INTRA.DIHEDRAL.0>
20.6841

>  <SCORE.INTRA.POLAR>
0

>  <SCORE.INTRA.POLAR.0>
0

>  <SCORE.INTRA.REPUL>
0

>  <SCORE.INTRA.REPUL.0>
0

>  <SCORE.INTRA.SOLV>
-1.74183

>  <SCORE.INTRA.SOLV.lig_0>
-64.6797

>  <SCORE.INTRA.VDW>
0.665792

>  <SCORE.INTRA.VDW.0>
-4.11825

>  <SCORE.INTRA.norm>
-0.27931

>  <SCORE.RESTR>
0

>  <SCORE.RESTR.CAVITY>
0

>  <SCORE.RESTR.norm>
0

>  <SCORE.SYSTEM>
0

>  <SCORE.SYSTEM.CONST>
0

>  <SCORE.SYSTEM.DIHEDRAL>
0

>  <SCORE.SYSTEM.SOLV>
0

>  <SCORE.SYSTEM.norm>
0

>  <SCORE.heavy>
31

>  <SCORE.norm>
-0.445984

>  <RMSD>
7.970

$$$$
ligand
 OpenBabel11021811493D
libRbt.so/2013.1/901 2013/11/27
 31 33  0  0  0  0  0  0  0  0999 V2000
    1.3644   11.7950    9.6612 C   0  0  2  0  0  0  0  0  0  0  0  0
    1.3999   11.8249    8.2374 O   0  0  0  0  0  0  0  0  0  0  0  0
    0.1859   15.8011    7.3430 C   0  0  2  0  0  0  0  0  0  0  0  0
   -0.0782   16.9902    6.5925 N   0  0  0  0  0  0  0  0  0  0  0  0
   -2.6464   16.0350    6.1515 C   0  0  2  0  0  0  0  0  0  0  0  0
    2.0130   10.4190   10.0992 C   0  0  2  0  0  0  0  0  0  0  0  0
    3.3778   10.3596    9.5865 N   0  0  0  0  0  0  0  0  0  0  0  0
    1.7256   15.4547    7.2039 C   0  0  0  0  0  0  0  0  0  0  0  0
   -4.1381   16.0478    6.6134 C   0  0  2  0  0  0  0  0  0  0  0  0
   -4.1682   16.2111    8.0152 O   0  0  0  0  0  0  0  0  0  0  0  0
    1.1576    9.2080    9.5508 C   0  0  0  0  0  0  0  0  0  0  0  0
    2.0194   14.1447    8.0267 C   0  0  2  0  0  0  0  0  0  0  0  0
    3.4490   13.8145    7.8966 N   0  0  0  0  0  0  0  0  0  0  0  0
   -4.7694   14.6666    6.1922 C   0  0  1  0  0  0  0  0  0  0  0  0
   -6.2037   14.6111    6.6290 N   0  0  0  0  0  0  0  0  0  0  0  0
   -0.4017    9.5014    9.5969 C   0  0  0  0  0  0  0  0  0  0  0  0
    1.1251   12.9488    7.4739 C   0  0  2  0  0  0  0  0  0  0  0  0
   -4.6941   14.5541    4.5674 C   0  0  1  0  0  0  0  0  0  0  0  0
   -5.3730   15.6183    3.9223 O   0  0  0  0  0  0  0  0  0  0  0  0
   -0.8731   10.7444    9.8805 C   0  0  2  0  0  0  0  0  0  0  0  0
   -0.0065   11.8519   10.1523 O   0  0  0  0  0  0  0  0  0  0  0  0
   -0.3968   13.3229    7.6147 C   0  0  2  0  0  0  0  0  0  0  0  0
   -1.1997   12.2378    7.1022 O   0  0  0  0  0  0  0  0  0  0  0  0
   -3.2038   14.6123    4.0990 C   0  0  0  0  0  0  0  0  0  0  0  0
   -2.5592   15.8581    4.6471 O   0  0  0  0  0  0  0  0  0  0  0  0
   -2.3656   11.0754    9.9391 C   0  0  0  0  0  0  0  0  0  0  0  0
   -2.6743   11.5238   11.2800 O   0  0  0  0  0  0  0  0  0  0  0  0
   -0.6757   14.6198    6.7687 C   0  0  1  0  0  0  0  0  0  0  0  0
   -2.0294   14.9273    6.8846 O   0  0  0  0  0  0  0  0  0  0  0  0
   -5.2766   13.2478    3.9760 C   0  0  0  0  0  0  0  0  0  0  0  0
   -6.4720   13.9947    7.9444 C   0  0  0  0  0  0  0  0  0  0  0  0
  1  2  1  6  0  0  0
  1  6  1  0  0  0  0
  1 21  1  0  0  0  0
  3  4  1  6  0  0  0
  3  8  1  0  0  0  0
  3 28  1  0  0  0  0
  5  9  1  0  0  0  0
  5 25  1  0  0  0  0
  5 29  1  1  0  0  0
  6  7  1  6  0  0  0
  6 11  1  0  0  0  0
  8 12  1  0  0  0  0
  9 10  1  1  0  0  0
  9 14  1  0  0  0  0
 11 16  1  0  0  0  0
 12 13  1  6  0  0  0
 12 17  1  0  0  0  0
 14 15  1  6  0  0  0
 14 18  1  0  0  0  0
 15 31  1  0  0  0  0
 16 20  1  0  0  0  0
 17  2  1  1  0  0  0
 17 22  1  0  0  0  0
 18 19  1  6  0  0  0
 18 24  1  0  0  0  0
 18 30  1  0  0  0  0
 20 21  1  0  0  0  0
 20 26  1  1  0  0  0
 22 23  1  6  0  0  0
 22 28  1  0  0  0  0
 24 25  1  0  0  0  0
 26 27  1  0  0  0  0
 28 29  1  1  0  0  0
M  END
>  <CHROM.1>
-169.09875613,-177.99616771,-93.34764950,51.52696148,118.58618996,65.13116594
-1.41743302,13.48491098,7.53645684,0.74320725,0.10063048,2.47137139

>  <Name>
ligand

>  <RI>
0

>  <Rbt.Current_Directory>
/home/itssahil/PROJECTS/Mol_Feturizer/New_Systems/rnas/4GPX

>  <Rbt.Executable>
rbdock ($Id: //depot/dev/client3/rdock/2013.1/src/exe/rbdock.cxx#4 $)

>  <Rbt.Library>
libRbt.so (2013.1, Build901 2013/11/27)

>  <Rbt.Parameter_File>
/export/apps/rDock/src/rDock_2013.1_src/data/scripts/dock_solv.prm

>  <Rbt.Receptor>
prm/pocket_docking_6.prm

>  <SCORE>
-14.3311

>  <SCORE.INTER>
-6.4233

>  <SCORE.INTER.CONST>
1

>  <SCORE.INTER.POLAR>
0

>  <SCORE.INTER.ROT>
6

>  <SCORE.INTER.SOLV>
13.5972

>  <SCORE.INTER.VDW>
-16.4146

>  <SCORE.INTER.norm>
-0.207203

>  <SCORE.INTRA>
-7.90784

>  <SCORE.INTRA.DIHEDRAL>
-17.2158

>  <SCORE.INTRA.DIHEDRAL.0>
20.6841

>  <SCORE.INTRA.POLAR>
0

>  <SCORE.INTRA.POLAR.0>
0

>  <SCORE.INTRA.REPUL>
0

>  <SCORE.INTRA.REPUL.0>
0

>  <SCORE.INTRA.SOLV>
-0.136065

>  <SCORE.INTRA.SOLV.lig_0>
-64.6797

>  <SCORE.INTRA.VDW>
0.768072

>  <SCORE.INTRA.VDW.0>
-4.11825

>  <SCORE.INTRA.norm>
-0.255092

>  <SCORE.RESTR>
0

>  <SCORE.RESTR.CAVITY>
0

>  <SCORE.RESTR.norm>
0

>  <SCORE.SYSTEM>
0

>  <SCORE.SYSTEM.CONST>
0

>  <SCORE.SYSTEM.DIHEDRAL>
0

>  <SCORE.SYSTEM.SOLV>
0

>  <SCORE.SYSTEM.norm>
0

>  <SCORE.heavy>
31

>  <SCORE.norm>
-0.462295

>  <RMSD>
7.981

$$$$
ligand
 OpenBabel11021811493D
libRbt.so/2013.1/901 2013/11/27
 31 33  0  0  0  0  0  0  0  0999 V2000
    1.5467   12.0076    5.6790 C   0  0  2  0  0  0  0  0  0  0  0  0
    0.6326   11.3308    6.5367 O   0  0  0  0  0  0  0  0  0  0  0  0
   -2.9340   12.4204    8.5802 C   0  0  2  0  0  0  0  0  0  0  0  0
   -3.8007   13.0298    9.5416 N   0  0  0  0  0  0  0  0  0  0  0  0
   -3.7560   15.4734    7.7595 C   0  0  2  0  0  0  0  0  0  0  0  0
    2.2805   10.8902    4.8311 C   0  0  2  0  0  0  0  0  0  0  0  0
    1.2803   10.1401    4.0786 N   0  0  0  0  0  0  0  0  0  0  0  0
   -1.8950   11.5075    9.3528 C   0  0  0  0  0  0  0  0  0  0  0  0
   -4.8532   15.9273    6.7451 C   0  0  2  0  0  0  0  0  0  0  0  0
   -5.7042   14.8303    6.4900 O   0  0  0  0  0  0  0  0  0  0  0  0
    3.1013    9.9291    5.7804 C   0  0  0  0  0  0  0  0  0  0  0  0
   -0.9375   10.8371    8.2976 C   0  0  2  0  0  0  0  0  0  0  0  0
    0.0347    9.9910    9.0107 N   0  0  0  0  0  0  0  0  0  0  0  0
   -4.1136   16.3856    5.4311 C   0  0  1  0  0  0  0  0  0  0  0  0
   -5.1215   16.8165    4.4066 N   0  0  0  0  0  0  0  0  0  0  0  0
    3.7793   10.7074    6.9863 C   0  0  0  0  0  0  0  0  0  0  0  0
   -0.1808   11.9632    7.4640 C   0  0  2  0  0  0  0  0  0  0  0  0
   -3.1531   17.6477    5.8090 C   0  0  1  0  0  0  0  0  0  0  0  0
   -3.8808   18.7308    6.3628 O   0  0  0  0  0  0  0  0  0  0  0  0
    3.4751   12.0075    7.2410 C   0  0  2  0  0  0  0  0  0  0  0  0
    2.5382   12.7473    6.4495 O   0  0  0  0  0  0  0  0  0  0  0  0
   -1.2353   12.8602    6.7158 C   0  0  2  0  0  0  0  0  0  0  0  0
   -0.5414   13.8841    5.9711 O   0  0  0  0  0  0  0  0  0  0  0  0
   -2.0985   17.2119    6.8776 C   0  0  0  0  0  0  0  0  0  0  0  0
   -2.8104   16.6198    8.0653 O   0  0  0  0  0  0  0  0  0  0  0  0
    4.1035   12.8001    8.3888 C   0  0  0  0  0  0  0  0  0  0  0  0
    4.8471   13.9032    7.8191 O   0  0  0  0  0  0  0  0  0  0  0  0
   -2.1675   13.5385    7.7865 C   0  0  1  0  0  0  0  0  0  0  0  0
   -3.0816   14.3455    7.1127 O   0  0  0  0  0  0  0  0  0  0  0  0
   -2.3447   18.2303    4.6246 C   0  0  0  0  0  0  0  0  0  0  0  0
   -5.7788   15.7439    3.6323 C   0  0  0  0  0  0  0  0  0  0  0  0
  1  2  1  1  0  0  0
  1  6  1  0  0  0  0
  1 21  1  0  0  0  0
  3  4  1  1  0  0  0
  3  8  1  0  0  0  0
  3 28  1  0  0  0  0
  5  9  1  0  0  0  0
  5 25  1  0  0  0  0
  5 29  1  6  0  0  0
  6  7  1  1  0  0  0
  6 11  1  0  0  0  0
  8 12  1  0  0  0  0
  9 10  1  6  0  0  0
  9 14  1  0  0  0  0
 11 16  1  0  0  0  0
 12 13  1  1  0  0  0
 12 17  1  0  0  0  0
 14 15  1  6  0  0  0
 14 18  1  0  0  0  0
 15 31  1  0  0  0  0
 16 20  1  0  0  0  0
 17  2  1  6  0  0  0
 17 22  1  0  0  0  0
 18 19  1  1  0  0  0
 18 24  1  0  0  0  0
 18 30  1  0  0  0  0
 20 21  1  0  0  0  0
 20 26  1  6  0  0  0
 22 23  1  1  0  0  0
 22 28  1  0  0  0  0
 24 25  1  0  0  0  0
 26 27  1  0  0  0  0
 28 29  1  6  0  0  0
M  END
>  <CHROM.1>
178.39751937,-170.29635588,-80.82234331,-174.79565680,117.73997402,84.25587441
-1.05618126,13.73461934,6.75910878,-0.61510211,0.23249966,-0.47171141

>  <Name>
ligand

>  <RI>
0

>  <Rbt.Current_Directory>
/home/itssahil/PROJECTS/Mol_Feturizer/New_Systems/rnas/4GPX

>  <Rbt.Executable>
rbdock ($Id: //depot/dev/client3/rdock/2013.1/src/exe/rbdock.cxx#4 $)

>  <Rbt.Library>
libRbt.so (2013.1, Build901 2013/11/27)

>  <Rbt.Parameter_File>
/export/apps/rDock/src/rDock_2013.1_src/data/scripts/dock_solv.prm

>  <Rbt.Receptor>
prm/pocket_docking_8.prm

>  <SCORE>
-12.5454

>  <SCORE.INTER>
-4.73673

>  <SCORE.INTER.CONST>
1

>  <SCORE.INTER.POLAR>
0

>  <SCORE.INTER.ROT>
6

>  <SCORE.INTER.SOLV>
10.0725

>  <SCORE.INTER.VDW>
-14.1153

>  <SCORE.INTER.norm>
-0.152798

>  <SCORE.INTRA>
-7.80867

>  <SCORE.INTRA.DIHEDRAL>
-15.5294

>  <SCORE.INTRA.DIHEDRAL.0>
20.6841

>  <SCORE.INTRA.POLAR>
0

>  <SCORE.INTRA.POLAR.0>
0

>  <SCORE.INTRA.REPUL>
0

>  <SCORE.INTRA.REPUL.0>
0

>  <SCORE.INTRA.SOLV>
-1.93061

>  <SCORE.INTRA.SOLV.lig_0>
-64.6797

>  <SCORE.INTRA.VDW>
0.921345

>  <SCORE.INTRA.VDW.0>
-4.11825

>  <SCORE.INTRA.norm>
-0.251893

>  <SCORE.RESTR>
0

>  <SCORE.RESTR.CAVITY>
0

>  <SCORE.RESTR.norm>
0

>  <SCORE.SYSTEM>
0

>  <SCORE.SYSTEM.CONST>
0

>  <SCORE.SYSTEM.DIHEDRAL>
0

>  <SCORE.SYSTEM.SOLV>
0

>  <SCORE.SYSTEM.norm>
0

>  <SCORE.heavy>
31

>  <SCORE.norm>
-0.40469

>  <RMSD>
7.992

$$$$
ligand
 OpenBabel11021811493D
libRbt.so/2013.1/901 2013/11/27
 31 33  0  0  0  0  0  0  0  0999 V2000
    1.4265   11.6730    9.9394 C   0  0  2  0  0  0  0  0  0  0  0  0
    1.4296   11.7194    8.5157 O   0  0  0  0  0  0  0  0  0  0  0  0
   -1.0901   11.8709    5.0934 C   0  0  2  0  0  0  0  0  0  0  0  0
   -2.2123   11.6352    4.2378 N   0  0  0  0  0  0  0  0  0  0  0  0
   -2.8404   14.6588    7.0494 C   0  0  2  0  0  0  0  0  0  0  0  0
    2.1492   10.3251   10.3478 C   0  0  2  0  0  0  0  0  0  0  0  0
    3.5039   10.3365    9.8058 N   0  0  0  0  0  0  0  0  0  0  0  0
   -0.4479   10.4727    5.4709 C   0  0  0  0  0  0  0  0  0  0  0  0
   -4.2722   14.8702    6.4630 C   0  0  2  0  0  0  0  0  0  0  0  0
   -4.8661   13.6039    6.2720 O   0  0  0  0  0  0  0  0  0  0  0  0
    1.3408    9.0803    9.8037 C   0  0  0  0  0  0  0  0  0  0  0  0
    0.7863   10.7281    6.4149 C   0  0  2  0  0  0  0  0  0  0  0  0
    1.3845    9.4308    6.7738 N   0  0  0  0  0  0  0  0  0  0  0  0
   -4.1080   15.6293    5.0917 C   0  0  1  0  0  0  0  0  0  0  0  0
   -5.4552   15.8448    4.4676 N   0  0  0  0  0  0  0  0  0  0  0  0
   -0.2293    9.2982    9.8861 C   0  0  0  0  0  0  0  0  0  0  0  0
    0.3122   11.4979    7.7258 C   0  0  2  0  0  0  0  0  0  0  0  0
   -3.4160   17.0738    5.3966 C   0  0  1  0  0  0  0  0  0  0  0  0
   -4.1789   17.8562    6.2995 O   0  0  0  0  0  0  0  0  0  0  0  0
   -0.7532   10.5141   10.1939 C   0  0  2  0  0  0  0  0  0  0  0  0
    0.0654   11.6590   10.4601 O   0  0  0  0  0  0  0  0  0  0  0  0
   -0.3297   12.8766    7.3217 C   0  0  2  0  0  0  0  0  0  0  0  0
   -0.7655   13.5629    8.5148 O   0  0  0  0  0  0  0  0  0  0  0  0
   -2.0110   16.8631    6.0490 C   0  0  0  0  0  0  0  0  0  0  0  0
   -2.1561   15.9947    7.2708 O   0  0  0  0  0  0  0  0  0  0  0  0
   -2.2581   10.7727   10.2879 C   0  0  0  0  0  0  0  0  0  0  0  0
   -2.7758   10.9081    8.9432 O   0  0  0  0  0  0  0  0  0  0  0  0
   -1.5731   12.6003    6.3981 C   0  0  1  0  0  0  0  0  0  0  0  0
   -2.1442   13.8266    6.0656 O   0  0  0  0  0  0  0  0  0  0  0  0
   -3.1789   17.9600    4.1499 C   0  0  0  0  0  0  0  0  0  0  0  0
   -6.0140   14.7180    3.6929 C   0  0  0  0  0  0  0  0  0  0  0  0
  1  2  1  6  0  0  0
  1  6  1  0  0  0  0
  1 21  1  0  0  0  0
  3  4  1  6  0  0  0
  3  8  1  0  0  0  0
  3 28  1  0  0  0  0
  5  9  1  0  0  0  0
  5 25  1  0  0  0  0
  5 29  1  6  0  0  0
  6  7  1  6  0  0  0
  6 11  1  0  0  0  0
  8 12  1  0  0  0  0
  9 10  1  6  0  0  0
  9 14  1  0  0  0  0
 11 16  1  0  0  0  0
 12 13  1  1  0  0  0
 12 17  1  0  0  0  0
 14 15  1  1  0  0  0
 14 18  1  0  0  0  0
 15 31  1  0  0  0  0
 16 20  1  0  0  0  0
 17  2  1  1  0  0  0
 17 22  1  0  0  0  0
 18 19  1  1  0  0  0
 18 24  1  0  0  0  0
 18 30  1  0  0  0  0
 20 21  1  0  0  0  0
 20 26  1  1  0  0  0
 22 23  1  1  0  0  0
 22 28  1  0  0  0  0
 24 25  1  0  0  0  0
 26 27  1  0  0  0  0
 28 29  1  6  0  0  0
M  END
>  <CHROM.1>
106.03098481,-123.08146211,-83.04711502,-143.83187077,-78.58306635,171.97197132
-1.47685468,12.93288903,7.24656206,-0.32331821,-0.90533800,0.55105537

>  <Name>
ligand

>  <RI>
0

>  <Rbt.Current_Directory>
/home/itssahil/PROJECTS/Mol_Feturizer/New_Systems/rnas/4GPX

>  <Rbt.Executable>
rbdock ($Id: //depot/dev/client3/rdock/2013.1/src/exe/rbdock.cxx#4 $)

>  <Rbt.Library>
libRbt.so (2013.1, Build901 2013/11/27)

>  <Rbt.Parameter_File>
/export/apps/rDock/src/rDock_2013.1_src/data/scripts/dock_solv.prm

>  <Rbt.Receptor>
prm/pocket_docking_3.prm

>  <SCORE>
-2.41008

>  <SCORE.INTER>
-5.17085

>  <SCORE.INTER.CONST>
1

>  <SCORE.INTER.POLAR>
0

>  <SCORE.INTER.ROT>
6

>  <SCORE.INTER.SOLV>
17.388

>  <SCORE.INTER.VDW>
-16.8432

>  <SCORE.INTER.norm>
-0.166802

>  <SCORE.INTRA>
2.25819

>  <SCORE.INTRA.DIHEDRAL>
1.36997

>  <SCORE.INTRA.DIHEDRAL.0>
20.6841

>  <SCORE.INTRA.POLAR>
0

>  <SCORE.INTRA.POLAR.0>
0

>  <SCORE.INTRA.REPUL>
0

>  <SCORE.INTRA.REPUL.0>
0

>  <SCORE.INTRA.SOLV>
1.80168

>  <SCORE.INTRA.SOLV.lig_0>
-64.6797

>  <SCORE.INTRA.VDW>
0.672357

>  <SCORE.INTRA.VDW.0>
-4.11825

>  <SCORE.INTRA.norm>
0.0728447

>  <SCORE.RESTR>
0.502581

>  <SCORE.RESTR.CAVITY>
0.502581

>  <SCORE.RESTR.norm>
0.0162123

>  <SCORE.SYSTEM>
0

>  <SCORE.SYSTEM.CONST>
0

>  <SCORE.SYSTEM.DIHEDRAL>
0

>  <SCORE.SYSTEM.SOLV>
0

>  <SCORE.SYSTEM.norm>
0

>  <SCORE.heavy>
31

>  <SCORE.norm>
-0.0777446

>  <RMSD>
8.023

$$$$
ligand
 OpenBabel11021811493D
libRbt.so/2013.1/901 2013/11/27
 31 33  0  0  0  0  0  0  0  0999 V2000
   -0.1499   13.6354   10.7535 C   0  0  2  0  0  0  0  0  0  0  0  0
   -1.2640   12.7571   10.8826 O   0  0  0  0  0  0  0  0  0  0  0  0
   -5.2217   12.5895    9.3357 C   0  0  2  0  0  0  0  0  0  0  0  0
   -6.5944   12.9260    9.1136 N   0  0  0  0  0  0  0  0  0  0  0  0
   -4.1274   13.0977    6.5112 C   0  0  2  0  0  0  0  0  0  0  0  0
    1.1480   12.7369   10.8717 C   0  0  2  0  0  0  0  0  0  0  0  0
    1.1207   11.7320    9.8140 N   0  0  0  0  0  0  0  0  0  0  0  0
   -5.0238   12.2940   10.8796 C   0  0  0  0  0  0  0  0  0  0  0  0
   -3.4324   13.9443    5.3981 C   0  0  2  0  0  0  0  0  0  0  0  0
   -2.3242   14.6061    5.9694 O   0  0  0  0  0  0  0  0  0  0  0  0
    1.2137   12.0491   12.2935 C   0  0  0  0  0  0  0  0  0  0  0  0
   -3.5131   11.9257   11.1283 C   0  0  2  0  0  0  0  0  0  0  0  0
   -3.3217   11.6552   12.5635 N   0  0  0  0  0  0  0  0  0  0  0  0
   -4.4954   14.9792    4.8663 C   0  0  1  0  0  0  0  0  0  0  0  0
   -3.8774   15.8388    3.8031 N   0  0  0  0  0  0  0  0  0  0  0  0
    0.6952   13.0045   13.4502 C   0  0  0  0  0  0  0  0  0  0  0  0
   -2.5811   13.1312   10.6657 C   0  0  2  0  0  0  0  0  0  0  0  0
   -5.7387   14.1395    4.2279 C   0  0  1  0  0  0  0  0  0  0  0  0
   -5.3256   13.2808    3.1784 O   0  0  0  0  0  0  0  0  0  0  0  0
    0.0784   14.1814   13.1636 C   0  0  2  0  0  0  0  0  0  0  0  0
   -0.1393   14.6283   11.8203 O   0  0  0  0  0  0  0  0  0  0  0  0
   -2.8048   13.4094    9.1331 C   0  0  2  0  0  0  0  0  0  0  0  0
   -1.9638   14.5097    8.7248 O   0  0  0  0  0  0  0  0  0  0  0  0
   -6.3908   13.2380    5.3260 C   0  0  0  0  0  0  0  0  0  0  0  0
   -5.3310   12.3665    5.9468 O   0  0  0  0  0  0  0  0  0  0  0  0
   -0.4358   15.1363   14.2426 C   0  0  0  0  0  0  0  0  0  0  0  0
   -0.1139   14.5696   15.5348 O   0  0  0  0  0  0  0  0  0  0  0  0
   -4.3129   13.7972    8.9079 C   0  0  1  0  0  0  0  0  0  0  0  0
   -4.4921   14.0615    7.5519 O   0  0  0  0  0  0  0  0  0  0  0  0
   -6.8843   15.0065    3.6519 C   0  0  0  0  0  0  0  0  0  0  0  0
   -3.6068   17.2456    4.1633 C   0  0  0  0  0  0  0  0  0  0  0  0
  1  2  1  1  0  0  0
  1  6  1  0  0  0  0
  1 21  1  0  0  0  0
  3  4  1  1  0  0  0
  3  8  1  0  0  0  0
  3 28  1  0  0  0  0
  5  9  1  0  0  0  0
  5 25  1  0  0  0  0
  5 29  1  1  0  0  0
  6  7  1  6  0  0  0
  6 11  1  0  0  0  0
  8 12  1  0  0  0  0
  9 10  1  1  0  0  0
  9 14  1  0  0  0  0
 11 16  1  0  0  0  0
 12 13  1  1  0  0  0
 12 17  1  0  0  0  0
 14 15  1  6  0  0  0
 14 18  1  0  0  0  0
 15 31  1  0  0  0  0
 16 20  1  0  0  0  0
 17  2  1  6  0  0  0
 17 22  1  0  0  0  0
 18 19  1  6  0  0  0
 18 24  1  0  0  0  0
 18 30  1  0  0  0  0
 20 21  1  0  0  0  0
 20 26  1  1  0  0  0
 22 23  1  1  0  0  0
 22 28  1  0  0  0  0
 24 25  1  0  0  0  0
 26 27  1  0  0  0  0
 28 29  1  6  0  0  0
M  END
>  <CHROM.1>
-171.44723676,-137.35135131,-108.58676688,-171.53640801,1.36034843,-64.04359280
-2.87129376,13.65094149,8.82020416,-0.98907710,-0.34274758,-1.23515568

>  <Name>
ligand

>  <RI>
0

>  <Rbt.Current_Directory>
/home/itssahil/PROJECTS/Mol_Feturizer/New_Systems/rnas/4GPX

>  <Rbt.Executable>
rbdock ($Id: //depot/dev/client3/rdock/2013.1/src/exe/rbdock.cxx#4 $)

>  <Rbt.Library>
libRbt.so (2013.1, Build901 2013/11/27)

>  <Rbt.Parameter_File>
/export/apps/rDock/src/rDock_2013.1_src/data/scripts/dock_solv.prm

>  <Rbt.Receptor>
prm/pocket_docking_5.prm

>  <SCORE>
-15.6516

>  <SCORE.INTER>
-11.0969

>  <SCORE.INTER.CONST>
1

>  <SCORE.INTER.POLAR>
0

>  <SCORE.INTER.ROT>
6

>  <SCORE.INTER.SOLV>
14.1532

>  <SCORE.INTER.VDW>
-19.7157

>  <SCORE.INTER.norm>
-0.357965

>  <SCORE.INTRA>
-4.55469

>  <SCORE.INTRA.DIHEDRAL>
-11.297

>  <SCORE.INTRA.DIHEDRAL.0>
20.6841

>  <SCORE.INTRA.POLAR>
0

>  <SCORE.INTRA.POLAR.0>
0

>  <SCORE.INTRA.REPUL>
0

>  <SCORE.INTRA.REPUL.0>
0

>  <SCORE.INTRA.SOLV>
-1.19255

>  <SCORE.INTRA.SOLV.lig_0>
-64.6797

>  <SCORE.INTRA.VDW>
1.69009

>  <SCORE.INTRA.VDW.0>
-4.11825

>  <SCORE.INTRA.norm>
-0.146925

>  <SCORE.RESTR>
0

>  <SCORE.RESTR.CAVITY>
0

>  <SCORE.RESTR.norm>
0

>  <SCORE.SYSTEM>
0

>  <SCORE.SYSTEM.CONST>
0

>  <SCORE.SYSTEM.DIHEDRAL>
0

>  <SCORE.SYSTEM.SOLV>
0

>  <SCORE.SYSTEM.norm>
0

>  <SCORE.heavy>
31

>  <SCORE.norm>
-0.50489

>  <RMSD>
8.080

$$$$
ligand
 OpenBabel11021811493D
libRbt.so/2013.1/901 2013/11/27
 31 33  0  0  0  0  0  0  0  0999 V2000
   -0.2253    9.8210    5.7131 C   0  0  2  0  0  0  0  0  0  0  0  0
    0.6721   10.6479    4.9782 O   0  0  0  0  0  0  0  0  0  0  0  0
    0.4705   14.6176    3.4665 C   0  0  2  0  0  0  0  0  0  0  0  0
    0.1102   15.7224    2.6319 N   0  0  0  0  0  0  0  0  0  0  0  0
   -2.3197   16.0045    4.3222 C   0  0  2  0  0  0  0  0  0  0  0  0
    0.6696    8.8436    6.5792 C   0  0  2  0  0  0  0  0  0  0  0  0
    1.5198    9.6407    7.4574 N   0  0  0  0  0  0  0  0  0  0  0  0
    1.1842   13.5252    2.5680 C   0  0  0  0  0  0  0  0  0  0  0  0
   -2.8131   16.8453    5.5422 C   0  0  2  0  0  0  0  0  0  0  0  0
   -1.6832   17.3598    6.2139 O   0  0  0  0  0  0  0  0  0  0  0  0
    1.5458    7.9221    5.6400 C   0  0  0  0  0  0  0  0  0  0  0  0
    1.5799   12.3063    3.4830 C   0  0  2  0  0  0  0  0  0  0  0  0
    2.2393   11.2846    2.6518 N   0  0  0  0  0  0  0  0  0  0  0  0
   -3.6326   15.8762    6.4766 C   0  0  1  0  0  0  0  0  0  0  0  0
   -4.1184   16.6258    7.6820 N   0  0  0  0  0  0  0  0  0  0  0  0
    0.7629    7.4748    4.3336 C   0  0  0  0  0  0  0  0  0  0  0  0
    0.2762   11.7014    4.1688 C   0  0  2  0  0  0  0  0  0  0  0  0
   -4.9126   15.3252    5.6302 C   0  0  1  0  0  0  0  0  0  0  0  0
   -5.7440   16.3757    5.1669 O   0  0  0  0  0  0  0  0  0  0  0  0
   -0.4368    8.0268    4.0117 C   0  0  2  0  0  0  0  0  0  0  0  0
   -1.0621    9.0316    4.8185 O   0  0  0  0  0  0  0  0  0  0  0  0
   -0.4173   12.8086    5.0459 C   0  0  2  0  0  0  0  0  0  0  0  0
   -1.6031   12.2547    5.6555 O   0  0  0  0  0  0  0  0  0  0  0  0
   -4.4195   14.5430    4.3697 C   0  0  0  0  0  0  0  0  0  0  0  0
   -3.5004   15.4248    3.5661 O   0  0  0  0  0  0  0  0  0  0  0  0
   -1.2297    7.6271    2.7659 C   0  0  0  0  0  0  0  0  0  0  0  0
   -1.4144    8.8094    1.9520 O   0  0  0  0  0  0  0  0  0  0  0  0
   -0.8252   14.0070    4.1116 C   0  0  1  0  0  0  0  0  0  0  0  0
   -1.4566   14.9697    4.8961 O   0  0  0  0  0  0  0  0  0  0  0  0
   -5.8354   14.3517    6.4025 C   0  0  0  0  0  0  0  0  0  0  0  0
   -3.2098   16.6685    8.8459 C   0  0  0  0  0  0  0  0  0  0  0  0
  1  2  1  6  0  0  0
  1  6  1  0  0  0  0
  1 21  1  0  0  0  0
  3  4  1  6  0  0  0
  3  8  1  0  0  0  0
  3 28  1  0  0  0  0
  5  9  1  0  0  0  0
  5 25  1  0  0  0  0
  5 29  1  1  0  0  0
  6  7  1  1  0  0  0
  6 11  1  0  0  0  0
  8 12  1  0  0  0  0
  9 10  1  1  0  0  0
  9 14  1  0  0  0  0
 11 16  1  0  0  0  0
 12 13  1  6  0  0  0
 12 17  1  0  0  0  0
 14 15  1  1  0  0  0
 14 18  1  0  0  0  0
 15 31  1  0  0  0  0
 16 20  1  0  0  0  0
 17  2  1  1  0  0  0
 17 22  1  0  0  0  0
 18 19  1  6  0  0  0
 18 24  1  0  0  0  0
 18 30  1  0  0  0  0
 20 21  1  0  0  0  0
 20 26  1  1  0  0  0
 22 23  1  6  0  0  0
 22 28  1  0  0  0  0
 24 25  1  0  0  0  0
 26 27  1  0  0  0  0
 28 29  1  1  0  0  0
M  END
>  <CHROM.1>
-175.32498360,179.65719628,-88.51266362,-177.20534960,-120.81946691,80.64193090
-1.32279491,12.80033443,4.87854824,0.92712848,-0.61180230,2.93733008

>  <Name>
ligand

>  <RI>
0

>  <Rbt.Current_Directory>
/home/itssahil/PROJECTS/Mol_Feturizer/New_Systems/rnas/4GPX

>  <Rbt.Executable>
rbdock ($Id: //depot/dev/client3/rdock/2013.1/src/exe/rbdock.cxx#4 $)

>  <Rbt.Library>
libRbt.so (2013.1, Build901 2013/11/27)

>  <Rbt.Parameter_File>
/export/apps/rDock/src/rDock_2013.1_src/data/scripts/dock_solv.prm

>  <Rbt.Receptor>
prm/pocket_docking_7.prm

>  <SCORE>
-15.6842

>  <SCORE.INTER>
-7.18333

>  <SCORE.INTER.CONST>
1

>  <SCORE.INTER.POLAR>
0

>  <SCORE.INTER.ROT>
6

>  <SCORE.INTER.SOLV>
13.4882

>  <SCORE.INTER.VDW>
-16.885

>  <SCORE.INTER.norm>
-0.23172

>  <SCORE.INTRA>
-8.50088

>  <SCORE.INTRA.DIHEDRAL>
-16.386

>  <SCORE.INTRA.DIHEDRAL.0>
20.6841

>  <SCORE.INTRA.POLAR>
0

>  <SCORE.INTRA.POLAR.0>
0

>  <SCORE.INTRA.REPUL>
0

>  <SCORE.INTRA.REPUL.0>
0

>  <SCORE.INTRA.SOLV>
-1.98079

>  <SCORE.INTRA.SOLV.lig_0>
-64.6797

>  <SCORE.INTRA.VDW>
0.682533

>  <SCORE.INTRA.VDW.0>
-4.11825

>  <SCORE.INTRA.norm>
-0.274222

>  <SCORE.RESTR>
0

>  <SCORE.RESTR.CAVITY>
0

>  <SCORE.RESTR.norm>
0

>  <SCORE.SYSTEM>
0

>  <SCORE.SYSTEM.CONST>
0

>  <SCORE.SYSTEM.DIHEDRAL>
0

>  <SCORE.SYSTEM.SOLV>
0

>  <SCORE.SYSTEM.norm>
0

>  <SCORE.heavy>
31

>  <SCORE.norm>
-0.505942

>  <RMSD>
8.085

$$$$
ligand
 OpenBabel11021811493D
libRbt.so/2013.1/901 2013/11/27
 31 33  0  0  0  0  0  0  0  0999 V2000
    0.2369   13.8394   10.7734 C   0  0  2  0  0  0  0  0  0  0  0  0
   -0.8713   12.9989   10.4657 O   0  0  0  0  0  0  0  0  0  0  0  0
   -3.9591   13.0794    7.5429 C   0  0  2  0  0  0  0  0  0  0  0  0
   -5.1522   13.4708    6.8570 N   0  0  0  0  0  0  0  0  0  0  0  0
   -3.5954   15.3183    5.4055 C   0  0  2  0  0  0  0  0  0  0  0  0
    1.4272   12.8817   11.1881 C   0  0  2  0  0  0  0  0  0  0  0  0
    1.7165   11.9839   10.0747 N   0  0  0  0  0  0  0  0  0  0  0  0
   -4.3508   12.6363    9.0126 C   0  0  0  0  0  0  0  0  0  0  0  0
   -2.7861   15.6418    4.1097 C   0  0  2  0  0  0  0  0  0  0  0  0
   -2.2429   14.4375    3.6123 O   0  0  0  0  0  0  0  0  0  0  0  0
    1.0464   12.0595   12.4834 C   0  0  0  0  0  0  0  0  0  0  0  0
   -3.0395   12.2072    9.7715 C   0  0  2  0  0  0  0  0  0  0  0  0
   -3.3968   11.7993   11.1410 N   0  0  0  0  0  0  0  0  0  0  0  0
   -1.6454   16.6522    4.5114 C   0  0  1  0  0  0  0  0  0  0  0  0
   -0.8175   16.9869    3.3057 N   0  0  0  0  0  0  0  0  0  0  0  0
    0.2068   12.9209   13.5192 C   0  0  0  0  0  0  0  0  0  0  0  0
   -2.0151   13.4258    9.8091 C   0  0  2  0  0  0  0  0  0  0  0  0
   -2.3516   18.0090    5.0760 C   0  0  1  0  0  0  0  0  0  0  0  0
   -3.2161   18.6026    4.1223 O   0  0  0  0  0  0  0  0  0  0  0  0
   -0.2809   14.1438   13.1812 C   0  0  2  0  0  0  0  0  0  0  0  0
   -0.0712   14.7250   11.8890 O   0  0  0  0  0  0  0  0  0  0  0  0
   -1.6513   13.8513    8.3385 C   0  0  2  0  0  0  0  0  0  0  0  0
   -0.7305   14.9625    8.3820 O   0  0  0  0  0  0  0  0  0  0  0  0
   -3.2190   17.6734    6.3325 C   0  0  0  0  0  0  0  0  0  0  0  0
   -4.1992   16.5848    5.9830 O   0  0  0  0  0  0  0  0  0  0  0  0
   -1.0926   15.0118   14.1448 C   0  0  0  0  0  0  0  0  0  0  0  0
   -2.4409   15.1153   13.6294 O   0  0  0  0  0  0  0  0  0  0  0  0
   -2.9693   14.2976    7.6041 C   0  0  1  0  0  0  0  0  0  0  0  0
   -2.6303   14.6917    6.3116 O   0  0  0  0  0  0  0  0  0  0  0  0
   -1.3693   19.1198    5.5199 C   0  0  0  0  0  0  0  0  0  0  0  0
    0.3623   16.1340    3.0550 C   0  0  0  0  0  0  0  0  0  0  0  0
  1  2  1  1  0  0  0
  1  6  1  0  0  0  0
  1 21  1  0  0  0  0
  3  4  1  6  0  0  0
  3  8  1  0  0  0  0
  3 28  1  0  0  0  0
  5  9  1  0  0  0  0
  5 25  1  0  0  0  0
  5 29  1  1  0  0  0
  6  7  1  6  0  0  0
  6 11  1  0  0  0  0
  8 12  1  0  0  0  0
  9 10  1  1  0  0  0
  9 14  1  0  0  0  0
 11 16  1  0  0  0  0
 12 13  1  1  0  0  0
 12 17  1  0  0  0  0
 14 15  1  6  0  0  0
 14 18  1  0  0  0  0
 15 31  1  0  0  0  0
 16 20  1  0  0  0  0
 17  2  1  1  0  0  0
 17 22  1  0  0  0  0
 18 19  1  6  0  0  0
 18 24  1  0  0  0  0
 18 30  1  0  0  0  0
 20 21  1  0  0  0  0
 20 26  1  1  0  0  0
 22 23  1  1  0  0  0
 22 28  1  0  0  0  0
 24 25  1  0  0  0  0
 26 27  1  0  0  0  0
 28 29  1  6  0  0  0
M  END
>  <CHROM.1>
-166.50671797,177.77053670,-90.90799064,-175.64034255,-113.51285605,68.82229935
-1.77699987,14.71935852,8.28060947,-1.33705940,-0.42685256,-1.06036724

>  <Name>
ligand

>  <RI>
0

>  <Rbt.Current_Directory>
/home/itssahil/PROJECTS/Mol_Feturizer/New_Systems/rnas/4GPX

>  <Rbt.Executable>
rbdock ($Id: //depot/dev/client3/rdock/2013.1/src/exe/rbdock.cxx#4 $)

>  <Rbt.Library>
libRbt.so (2013.1, Build901 2013/11/27)

>  <Rbt.Parameter_File>
/export/apps/rDock/src/rDock_2013.1_src/data/scripts/dock_solv.prm

>  <Rbt.Receptor>
prm/pocket_docking_6.prm

>  <SCORE>
-16.448

>  <SCORE.INTER>
-8.16493

>  <SCORE.INTER.CONST>
1

>  <SCORE.INTER.POLAR>
0

>  <SCORE.INTER.ROT>
6

>  <SCORE.INTER.SOLV>
10.4544

>  <SCORE.INTER.VDW>
-16.5281

>  <SCORE.INTER.norm>
-0.263385

>  <SCORE.INTRA>
-8.28303

>  <SCORE.INTRA.DIHEDRAL>
-16.9517

>  <SCORE.INTRA.DIHEDRAL.0>
20.6841

>  <SCORE.INTRA.POLAR>
0

>  <SCORE.INTRA.POLAR.0>
0

>  <SCORE.INTRA.REPUL>
0

>  <SCORE.INTRA.REPUL.0>
0

>  <SCORE.INTRA.SOLV>
-1.52325

>  <SCORE.INTRA.SOLV.lig_0>
-64.6797

>  <SCORE.INTRA.VDW>
0.954459

>  <SCORE.INTRA.VDW.0>
-4.11825

>  <SCORE.INTRA.norm>
-0.267194

>  <SCORE.RESTR>
0

>  <SCORE.RESTR.CAVITY>
0

>  <SCORE.RESTR.norm>
0

>  <SCORE.SYSTEM>
0

>  <SCORE.SYSTEM.CONST>
0

>  <SCORE.SYSTEM.DIHEDRAL>
0

>  <SCORE.SYSTEM.SOLV>
0

>  <SCORE.SYSTEM.norm>
0

>  <SCORE.heavy>
31

>  <SCORE.norm>
-0.530579

>  <RMSD>
8.087

$$$$
ligand
 OpenBabel11021811493D
libRbt.so/2013.1/901 2013/11/27
 31 33  0  0  0  0  0  0  0  0999 V2000
    0.2599   13.8667   10.7835 C   0  0  2  0  0  0  0  0  0  0  0  0
   -0.8324   13.0051   10.4775 O   0  0  0  0  0  0  0  0  0  0  0  0
   -3.9161   13.0340    7.5493 C   0  0  2  0  0  0  0  0  0  0  0  0
   -5.1167   13.4022    6.8639 N   0  0  0  0  0  0  0  0  0  0  0  0
   -3.5974   15.3102    5.4341 C   0  0  2  0  0  0  0  0  0  0  0  0
    1.4707   12.9318   11.1908 C   0  0  2  0  0  0  0  0  0  0  0  0
    1.7736   12.0433   10.0737 N   0  0  0  0  0  0  0  0  0  0  0  0
   -4.2999   12.5713    9.0150 C   0  0  0  0  0  0  0  0  0  0  0  0
   -2.8061   15.6119    4.1220 C   0  0  2  0  0  0  0  0  0  0  0  0
   -2.2808   14.3975    3.6302 O   0  0  0  0  0  0  0  0  0  0  0  0
    1.1114   12.0985   12.4852 C   0  0  0  0  0  0  0  0  0  0  0  0
   -2.9802   12.1677    9.7734 C   0  0  2  0  0  0  0  0  0  0  0  0
   -3.3303   11.7416   11.1392 N   0  0  0  0  0  0  0  0  0  0  0  0
   -1.6508   16.6172    4.4940 C   0  0  1  0  0  0  0  0  0  0  0  0
   -0.8394   16.9310    3.2716 N   0  0  0  0  0  0  0  0  0  0  0  0
    0.2587   12.9399   13.5267 C   0  0  0  0  0  0  0  0  0  0  0  0
   -1.9848   13.4097    9.8217 C   0  0  2  0  0  0  0  0  0  0  0  0
   -2.3368   17.9863    5.0538 C   0  0  1  0  0  0  0  0  0  0  0  0
   -3.2114   18.5762    4.1070 O   0  0  0  0  0  0  0  0  0  0  0  0
   -0.2546   14.1538   13.1941 C   0  0  2  0  0  0  0  0  0  0  0  0
   -0.0616   14.7428   11.9029 O   0  0  0  0  0  0  0  0  0  0  0  0
   -1.6285   13.8542    8.3549 C   0  0  2  0  0  0  0  0  0  0  0  0
   -0.7341   14.9864    8.4081 O   0  0  0  0  0  0  0  0  0  0  0  0
   -3.1870   17.6725    6.3276 C   0  0  0  0  0  0  0  0  0  0  0  0
   -4.1815   16.5883    6.0063 O   0  0  0  0  0  0  0  0  0  0  0  0
   -1.0798   15.0025   14.1633 C   0  0  0  0  0  0  0  0  0  0  0  0
   -2.4215   15.1145   13.6325 O   0  0  0  0  0  0  0  0  0  0  0  0
   -2.9552   14.2746    7.6211 C   0  0  1  0  0  0  0  0  0  0  0  0
   -2.6233   14.6859    6.3322 O   0  0  0  0  0  0  0  0  0  0  0  0
   -1.3385   19.0938    5.4693 C   0  0  0  0  0  0  0  0  0  0  0  0
    0.3741   16.1168    3.0553 C   0  0  0  0  0  0  0  0  0  0  0  0
  1  2  1  1  0  0  0
  1  6  1  0  0  0  0
  1 21  1  0  0  0  0
  3  4  1  6  0  0  0
  3  8  1  0  0  0  0
  3 28  1  0  0  0  0
  5  9  1  0  0  0  0
  5 25  1  0  0  0  0
  5 29  1  1  0  0  0
  6  7  1  6  0  0  0
  6 11  1  0  0  0  0
  8 12  1  0  0  0  0
  9 10  1  1  0  0  0
  9 14  1  0  0  0  0
 11 16  1  0  0  0  0
 12 13  1  1  0  0  0
 12 17  1  0  0  0  0
 14 15  1  6  0  0  0
 14 18  1  0  0  0  0
 15 31  1  0  0  0  0
 16 20  1  0  0  0  0
 17  2  1  1  0  0  0
 17 22  1  0  0  0  0
 18 19  1  6  0  0  0
 18 24  1  0  0  0  0
 18 30  1  0  0  0  0
 20 21  1  0  0  0  0
 20 26  1  1  0  0  0
 22 23  1  1  0  0  0
 22 28  1  0  0  0  0
 24 25  1  0  0  0  0
 26 27  1  0  0  0  0
 28 29  1  6  0  0  0
M  END
>  <CHROM.1>
-166.23498742,179.65220274,-94.41301446,-176.18688090,-115.23103339,69.54197755
-1.75498009,14.70884756,8.28489388,-1.33016405,-0.45274931,-1.05627695

>  <Name>
ligand

>  <RI>
0

>  <Rbt.Current_Directory>
/home/itssahil/PROJECTS/Mol_Feturizer/New_Systems/rnas/4GPX

>  <Rbt.Executable>
rbdock ($Id: //depot/dev/client3/rdock/2013.1/src/exe/rbdock.cxx#4 $)

>  <Rbt.Library>
libRbt.so (2013.1, Build901 2013/11/27)

>  <Rbt.Parameter_File>
/export/apps/rDock/src/rDock_2013.1_src/data/scripts/dock_solv.prm

>  <Rbt.Receptor>
prm/pocket_docking_5.prm

>  <SCORE>
-16.4193

>  <SCORE.INTER>
-8.10079

>  <SCORE.INTER.CONST>
1

>  <SCORE.INTER.POLAR>
0

>  <SCORE.INTER.ROT>
6

>  <SCORE.INTER.SOLV>
10.5325

>  <SCORE.INTER.VDW>
-16.5114

>  <SCORE.INTER.norm>
-0.261316

>  <SCORE.INTRA>
-8.31855

>  <SCORE.INTRA.DIHEDRAL>
-16.8178

>  <SCORE.INTRA.DIHEDRAL.0>
20.6841

>  <SCORE.INTRA.POLAR>
0

>  <SCORE.INTRA.POLAR.0>
0

>  <SCORE.INTRA.REPUL>
0

>  <SCORE.INTRA.REPUL.0>
0

>  <SCORE.INTRA.SOLV>
-1.63085

>  <SCORE.INTRA.SOLV.lig_0>
-64.6797

>  <SCORE.INTRA.VDW>
0.905771

>  <SCORE.INTRA.VDW.0>
-4.11825

>  <SCORE.INTRA.norm>
-0.26834

>  <SCORE.RESTR>
0

>  <SCORE.RESTR.CAVITY>
0

>  <SCORE.RESTR.norm>
0

>  <SCORE.SYSTEM>
0

>  <SCORE.SYSTEM.CONST>
0

>  <SCORE.SYSTEM.DIHEDRAL>
0

>  <SCORE.SYSTEM.SOLV>
0

>  <SCORE.SYSTEM.norm>
0

>  <SCORE.heavy>
31

>  <SCORE.norm>
-0.529656

>  <RMSD>
8.091

$$$$
ligand
 OpenBabel11021811493D
libRbt.so/2013.1/901 2013/11/27
 31 33  0  0  0  0  0  0  0  0999 V2000
    0.2781   13.8195   10.7699 C   0  0  2  0  0  0  0  0  0  0  0  0
   -0.8084   12.9568   10.4467 O   0  0  0  0  0  0  0  0  0  0  0  0
   -3.9028   13.0097    7.5301 C   0  0  2  0  0  0  0  0  0  0  0  0
   -5.1062   13.3832    6.8525 N   0  0  0  0  0  0  0  0  0  0  0  0
   -3.5982   15.2861    5.4266 C   0  0  2  0  0  0  0  0  0  0  0  0
    1.4900   12.8852   11.1751 C   0  0  2  0  0  0  0  0  0  0  0  0
    1.8044   12.0106   10.0502 N   0  0  0  0  0  0  0  0  0  0  0  0
   -4.2810   12.5338    8.9932 C   0  0  0  0  0  0  0  0  0  0  0  0
   -2.8066   15.6208    4.1228 C   0  0  2  0  0  0  0  0  0  0  0  0
   -2.2515   14.4244    3.6199 O   0  0  0  0  0  0  0  0  0  0  0  0
    1.1254   12.0359   12.4575 C   0  0  0  0  0  0  0  0  0  0  0  0
   -2.9583   12.1243    9.7431 C   0  0  2  0  0  0  0  0  0  0  0  0
   -3.3031   11.6860   11.1064 N   0  0  0  0  0  0  0  0  0  0  0  0
   -1.6762   16.6472    4.5133 C   0  0  1  0  0  0  0  0  0  0  0  0
   -0.8652   16.9935    3.2994 N   0  0  0  0  0  0  0  0  0  0  0  0
    0.2620   12.8618   13.5024 C   0  0  0  0  0  0  0  0  0  0  0  0
   -1.9634   13.3664    9.7987 C   0  0  2  0  0  0  0  0  0  0  0  0
   -2.3957   17.9939    5.0851 C   0  0  1  0  0  0  0  0  0  0  0  0
   -3.2780   18.5753    4.1401 O   0  0  0  0  0  0  0  0  0  0  0  0
   -0.2543   14.0772   13.1800 C   0  0  2  0  0  0  0  0  0  0  0  0
   -0.0549   14.6815   11.8968 O   0  0  0  0  0  0  0  0  0  0  0  0
   -1.6127   13.8241    8.3346 C   0  0  2  0  0  0  0  0  0  0  0  0
   -0.7188   14.9563    8.3946 O   0  0  0  0  0  0  0  0  0  0  0  0
   -3.2458   17.6462    6.3502 C   0  0  0  0  0  0  0  0  0  0  0  0
   -4.2140   16.5439    6.0103 O   0  0  0  0  0  0  0  0  0  0  0  0
   -1.0898   14.9115   14.1529 C   0  0  0  0  0  0  0  0  0  0  0  0
   -2.4142   15.0657   13.5903 O   0  0  0  0  0  0  0  0  0  0  0  0
   -2.9424   14.2502    7.6095 C   0  0  1  0  0  0  0  0  0  0  0  0
   -2.6154   14.6730    6.3230 O   0  0  0  0  0  0  0  0  0  0  0  0
   -1.4248   19.1184    5.5194 C   0  0  0  0  0  0  0  0  0  0  0  0
    0.3452   16.1818    3.0580 C   0  0  0  0  0  0  0  0  0  0  0  0
  1  2  1  1  0  0  0
  1  6  1  0  0  0  0
  1 21  1  0  0  0  0
  3  4  1  6  0  0  0
  3  8  1  0  0  0  0
  3 28  1  0  0  0  0
  5  9  1  0  0  0  0
  5 25  1  0  0  0  0
  5 29  1  1  0  0  0
  6  7  1  6  0  0  0
  6 11  1  0  0  0  0
  8 12  1  0  0  0  0
  9 10  1  1  0  0  0
  9 14  1  0  0  0  0
 11 16  1  0  0  0  0
 12 13  1  1  0  0  0
 12 17  1  0  0  0  0
 14 15  1  6  0  0  0
 14 18  1  0  0  0  0
 15 31  1  0  0  0  0
 16 20  1  0  0  0  0
 17  2  1  6  0  0  0
 17 22  1  0  0  0  0
 18 19  1  6  0  0  0
 18 24  1  0  0  0  0
 18 30  1  0  0  0  0
 20 21  1  0  0  0  0
 20 26  1  1  0  0  0
 22 23  1  1  0  0  0
 22 28  1  0  0  0  0
 24 25  1  0  0  0  0
 26 27  1  0  0  0  0
 28 29  1  6  0  0  0
M  END
>  <CHROM.1>
-166.87219309,179.06027999,-92.59125062,-175.43616262,-117.32194200,68.58368476
-1.75767215,14.68376210,8.27757652,-1.32444781,-0.44628343,-1.04418277

>  <Name>
ligand

>  <RI>
0

>  <Rbt.Current_Directory>
/home/itssahil/PROJECTS/Mol_Feturizer/New_Systems/rnas/4GPX

>  <Rbt.Executable>
rbdock ($Id: //depot/dev/client3/rdock/2013.1/src/exe/rbdock.cxx#4 $)

>  <Rbt.Library>
libRbt.so (2013.1, Build901 2013/11/27)

>  <Rbt.Parameter_File>
/export/apps/rDock/src/rDock_2013.1_src/data/scripts/dock_solv.prm

>  <Rbt.Receptor>
prm/pocket_docking_6.prm

>  <SCORE>
-16.5185

>  <SCORE.INTER>
-8.15721

>  <SCORE.INTER.CONST>
1

>  <SCORE.INTER.POLAR>
0

>  <SCORE.INTER.ROT>
6

>  <SCORE.INTER.SOLV>
10.6645

>  <SCORE.INTER.VDW>
-16.593

>  <SCORE.INTER.norm>
-0.263136

>  <SCORE.INTRA>
-8.36126

>  <SCORE.INTRA.DIHEDRAL>
-17.0196

>  <SCORE.INTRA.DIHEDRAL.0>
20.6841

>  <SCORE.INTRA.POLAR>
0

>  <SCORE.INTRA.POLAR.0>
0

>  <SCORE.INTRA.REPUL>
0

>  <SCORE.INTRA.REPUL.0>
0

>  <SCORE.INTRA.SOLV>
-1.55734

>  <SCORE.INTRA.SOLV.lig_0>
-64.6797

>  <SCORE.INTRA.VDW>
0.927224

>  <SCORE.INTRA.VDW.0>
-4.11825

>  <SCORE.INTRA.norm>
-0.269718

>  <SCORE.RESTR>
0

>  <SCORE.RESTR.CAVITY>
0

>  <SCORE.RESTR.norm>
0

>  <SCORE.SYSTEM>
0

>  <SCORE.SYSTEM.CONST>
0

>  <SCORE.SYSTEM.DIHEDRAL>
0

>  <SCORE.SYSTEM.SOLV>
0

>  <SCORE.SYSTEM.norm>
0

>  <SCORE.heavy>
31

>  <SCORE.norm>
-0.532854

>  <RMSD>
8.094

$$$$
ligand
 OpenBabel11021811493D
libRbt.so/2013.1/901 2013/11/27
 31 33  0  0  0  0  0  0  0  0999 V2000
    0.2786   13.8992   10.7894 C   0  0  2  0  0  0  0  0  0  0  0  0
   -0.7930   13.0203   10.4602 O   0  0  0  0  0  0  0  0  0  0  0  0
   -3.8864   13.0156    7.5421 C   0  0  2  0  0  0  0  0  0  0  0  0
   -5.0926   13.3715    6.8601 N   0  0  0  0  0  0  0  0  0  0  0  0
   -3.5919   15.3054    5.4278 C   0  0  2  0  0  0  0  0  0  0  0  0
    1.5025   12.9831   11.2004 C   0  0  2  0  0  0  0  0  0  0  0  0
    1.8359   12.1140   10.0767 N   0  0  0  0  0  0  0  0  0  0  0  0
   -4.2610   12.5518    9.0099 C   0  0  0  0  0  0  0  0  0  0  0  0
   -2.8003   15.6394    4.1238 C   0  0  2  0  0  0  0  0  0  0  0  0
   -2.2586   14.4402    3.6128 O   0  0  0  0  0  0  0  0  0  0  0  0
    1.1443   12.1277   12.4805 C   0  0  0  0  0  0  0  0  0  0  0  0
   -2.9352   12.1617    9.7646 C   0  0  2  0  0  0  0  0  0  0  0  0
   -3.2768   11.7347   11.1322 N   0  0  0  0  0  0  0  0  0  0  0  0
   -1.6585   16.6521    4.5170 C   0  0  1  0  0  0  0  0  0  0  0  0
   -0.8472   16.9970    3.3029 N   0  0  0  0  0  0  0  0  0  0  0  0
    0.2631   12.9399   13.5214 C   0  0  0  0  0  0  0  0  0  0  0  0
   -1.9513   13.4130    9.8076 C   0  0  2  0  0  0  0  0  0  0  0  0
   -2.3629   18.0028    5.0982 C   0  0  1  0  0  0  0  0  0  0  0  0
   -3.2417   18.5984    4.1588 O   0  0  0  0  0  0  0  0  0  0  0  0
   -0.2699   14.1475   13.1969 C   0  0  2  0  0  0  0  0  0  0  0  0
   -0.0731   14.7555   11.9150 O   0  0  0  0  0  0  0  0  0  0  0  0
   -1.6039   13.8584    8.3389 C   0  0  2  0  0  0  0  0  0  0  0  0
   -0.7199   14.9990    8.3874 O   0  0  0  0  0  0  0  0  0  0  0  0
   -3.2132   17.6566    6.3635 C   0  0  0  0  0  0  0  0  0  0  0  0
   -4.1933   16.5661    6.0201 O   0  0  0  0  0  0  0  0  0  0  0  0
   -1.1228   14.9685   14.1659 C   0  0  0  0  0  0  0  0  0  0  0  0
   -2.4330   15.1412   13.5761 O   0  0  0  0  0  0  0  0  0  0  0  0
   -2.9369   14.2653    7.6089 C   0  0  1  0  0  0  0  0  0  0  0  0
   -2.6130   14.6774    6.3181 O   0  0  0  0  0  0  0  0  0  0  0  0
   -1.3796   19.1150    5.5361 C   0  0  0  0  0  0  0  0  0  0  0  0
    0.3555   16.1758    3.0551 C   0  0  0  0  0  0  0  0  0  0  0  0
  1  2  1  1  0  0  0
  1  6  1  0  0  0  0
  1 21  1  0  0  0  0
  3  4  1  6  0  0  0
  3  8  1  0  0  0  0
  3 28  1  0  0  0  0
  5  9  1  0  0  0  0
  5 25  1  0  0  0  0
  5 29  1  1  0  0  0
  6  7  1  6  0  0  0
  6 11  1  0  0  0  0
  8 12  1  0  0  0  0
  9 10  1  1  0  0  0
  9 14  1  0  0  0  0
 11 16  1  0  0  0  0
 12 13  1  1  0  0  0
 12 17  1  0  0  0  0
 14 15  1  6  0  0  0
 14 18  1  0  0  0  0
 15 31  1  0  0  0  0
 16 20  1  0  0  0  0
 17  2  1  6  0  0  0
 17 22  1  0  0  0  0
 18 19  1  6  0  0  0
 18 24  1  0  0  0  0
 18 30  1  0  0  0  0
 20 21  1  0  0  0  0
 20 26  1  1  0  0  0
 22 23  1  1  0  0  0
 22 28  1  0  0  0  0
 24 25  1  0  0  0  0
 26 27  1  0  0  0  0
 28 29  1  6  0  0  0
M  END
>  <CHROM.1>
-166.92929730,178.27625749,-92.68741550,-174.62997903,-119.21602333,70.27002421
-1.74690856,14.72084592,8.28748352,-1.32522767,-0.46066122,-1.05014954

>  <Name>
ligand

>  <RI>
0

>  <Rbt.Current_Directory>
/home/itssahil/PROJECTS/Mol_Feturizer/New_Systems/rnas/4GPX

>  <Rbt.Executable>
rbdock ($Id: //depot/dev/client3/rdock/2013.1/src/exe/rbdock.cxx#4 $)

>  <Rbt.Library>
libRbt.so (2013.1, Build901 2013/11/27)

>  <Rbt.Parameter_File>
/export/apps/rDock/src/rDock_2013.1_src/data/scripts/dock_solv.prm

>  <Rbt.Receptor>
prm/pocket_docking_8.prm

>  <SCORE>
-16.5366

>  <SCORE.INTER>
-8.17242

>  <SCORE.INTER.CONST>
1

>  <SCORE.INTER.POLAR>
0

>  <SCORE.INTER.ROT>
6

>  <SCORE.INTER.SOLV>
10.5538

>  <SCORE.INTER.VDW>
-16.5662

>  <SCORE.INTER.norm>
-0.263627

>  <SCORE.INTRA>
-8.36417

>  <SCORE.INTRA.DIHEDRAL>
-16.8323

>  <SCORE.INTRA.DIHEDRAL.0>
20.6841

>  <SCORE.INTRA.POLAR>
0

>  <SCORE.INTRA.POLAR.0>
0

>  <SCORE.INTRA.REPUL>
0

>  <SCORE.INTRA.REPUL.0>
0

>  <SCORE.INTRA.SOLV>
-1.55716

>  <SCORE.INTRA.SOLV.lig_0>
-64.6797

>  <SCORE.INTRA.VDW>
0.83057

>  <SCORE.INTRA.VDW.0>
-4.11825

>  <SCORE.INTRA.norm>
-0.269812

>  <SCORE.RESTR>
0

>  <SCORE.RESTR.CAVITY>
0

>  <SCORE.RESTR.norm>
0

>  <SCORE.SYSTEM>
0

>  <SCORE.SYSTEM.CONST>
0

>  <SCORE.SYSTEM.DIHEDRAL>
0

>  <SCORE.SYSTEM.SOLV>
0

>  <SCORE.SYSTEM.norm>
0

>  <SCORE.heavy>
31

>  <SCORE.norm>
-0.533438

>  <RMSD>
8.094

$$$$
ligand
 OpenBabel11021811493D
libRbt.so/2013.1/901 2013/11/27
 31 33  0  0  0  0  0  0  0  0999 V2000
    0.5382   11.9633    8.6775 C   0  0  2  0  0  0  0  0  0  0  0  0
   -0.7915   11.5925    9.0292 O   0  0  0  0  0  0  0  0  0  0  0  0
   -4.6139   13.2079    8.0997 C   0  0  2  0  0  0  0  0  0  0  0  0
   -5.7519   14.0745    8.1316 N   0  0  0  0  0  0  0  0  0  0  0  0
   -3.1739   13.8342    5.1901 C   0  0  2  0  0  0  0  0  0  0  0  0
    1.3516   10.6158    8.5078 C   0  0  2  0  0  0  0  0  0  0  0  0
    0.7166    9.8126    7.4681 N   0  0  0  0  0  0  0  0  0  0  0  0
   -4.4043   12.6059    9.5501 C   0  0  0  0  0  0  0  0  0  0  0  0
   -3.6535   14.7429    4.0141 C   0  0  2  0  0  0  0  0  0  0  0  0
   -3.0123   15.9952    4.1296 O   0  0  0  0  0  0  0  0  0  0  0  0
    1.3967    9.8241    9.8753 C   0  0  0  0  0  0  0  0  0  0  0  0
   -3.1507   11.6534    9.5194 C   0  0  2  0  0  0  0  0  0  0  0  0
   -2.9474   11.0947   10.8671 N   0  0  0  0  0  0  0  0  0  0  0  0
   -5.2164   14.8945    4.1484 C   0  0  1  0  0  0  0  0  0  0  0  0
   -5.7357   15.7776    3.0522 N   0  0  0  0  0  0  0  0  0  0  0  0
    1.5427   10.7898   11.1266 C   0  0  0  0  0  0  0  0  0  0  0  0
   -1.8632   12.4712    9.0620 C   0  0  2  0  0  0  0  0  0  0  0  0
   -5.8792   13.4115    4.0077 C   0  0  1  0  0  0  0  0  0  0  0  0
   -5.5528   12.7908    2.7757 O   0  0  0  0  0  0  0  0  0  0  0  0
    1.4197   12.1367   10.9909 C   0  0  2  0  0  0  0  0  0  0  0  0
    1.1550   12.7614    9.7294 O   0  0  0  0  0  0  0  0  0  0  0  0
   -2.1022   13.0654    7.6246 C   0  0  2  0  0  0  0  0  0  0  0  0
   -0.9345   13.8132    7.2222 O   0  0  0  0  0  0  0  0  0  0  0  0
   -5.3447   12.4804    5.1440 C   0  0  0  0  0  0  0  0  0  0  0  0
   -3.8391   12.4728    5.1129 O   0  0  0  0  0  0  0  0  0  0  0  0
    1.5547   13.1076   12.1654 C   0  0  0  0  0  0  0  0  0  0  0  0
    0.2267   13.5343   12.5509 O   0  0  0  0  0  0  0  0  0  0  0  0
   -3.3433   14.0308    7.6802 C   0  0  1  0  0  0  0  0  0  0  0  0
   -3.5305   14.5660    6.4077 O   0  0  0  0  0  0  0  0  0  0  0  0
   -7.4227   13.3735    4.1156 C   0  0  0  0  0  0  0  0  0  0  0  0
   -6.9673   16.5396    3.3432 C   0  0  0  0  0  0  0  0  0  0  0  0
  1  2  1  1  0  0  0
  1  6  1  0  0  0  0
  1 21  1  0  0  0  0
  3  4  1  1  0  0  0
  3  8  1  0  0  0  0
  3 28  1  0  0  0  0
  5  9  1  0  0  0  0
  5 25  1  0  0  0  0
  5 29  1  1  0  0  0
  6  7  1  6  0  0  0
  6 11  1  0  0  0  0
  8 12  1  0  0  0  0
  9 10  1  1  0  0  0
  9 14  1  0  0  0  0
 11 16  1  0  0  0  0
 12 13  1  1  0  0  0
 12 17  1  0  0  0  0
 14 15  1  6  0  0  0
 14 18  1  0  0  0  0
 15 31  1  0  0  0  0
 16 20  1  0  0  0  0
 17  2  1  6  0  0  0
 17 22  1  0  0  0  0
 18 19  1  6  0  0  0
 18 24  1  0  0  0  0
 18 30  1  0  0  0  0
 20 21  1  0  0  0  0
 20 26  1  6  0  0  0
 22 23  1  1  0  0  0
 22 28  1  0  0  0  0
 24 25  1  0  0  0  0
 26 27  1  0  0  0  0
 28 29  1  6  0  0  0
M  END
>  <CHROM.1>
-169.45062212,175.52038512,-151.84748957,-179.29803636,-103.01794666,-88.36574587
-2.55601769,13.02495188,7.38123394,-0.78847191,0.32750207,-1.46996121

>  <Name>
ligand

>  <RI>
0

>  <Rbt.Current_Directory>
/home/itssahil/PROJECTS/Mol_Feturizer/New_Systems/rnas/4GPX

>  <Rbt.Executable>
rbdock ($Id: //depot/dev/client3/rdock/2013.1/src/exe/rbdock.cxx#4 $)

>  <Rbt.Library>
libRbt.so (2013.1, Build901 2013/11/27)

>  <Rbt.Parameter_File>
/export/apps/rDock/src/rDock_2013.1_src/data/scripts/dock_solv.prm

>  <Rbt.Receptor>
prm/pocket_docking_2.prm

>  <SCORE>
-10.451

>  <SCORE.INTER>
-6.3692

>  <SCORE.INTER.CONST>
1

>  <SCORE.INTER.POLAR>
0

>  <SCORE.INTER.ROT>
6

>  <SCORE.INTER.SOLV>
16.8233

>  <SCORE.INTER.VDW>
-17.4539

>  <SCORE.INTER.norm>
-0.205458

>  <SCORE.INTRA>
-5.43625

>  <SCORE.INTRA.DIHEDRAL>
-14.17

>  <SCORE.INTRA.DIHEDRAL.0>
20.6841

>  <SCORE.INTRA.POLAR>
0

>  <SCORE.INTRA.POLAR.0>
0

>  <SCORE.INTRA.REPUL>
0

>  <SCORE.INTRA.REPUL.0>
0

>  <SCORE.INTRA.SOLV>
-1.23943

>  <SCORE.INTRA.SOLV.lig_0>
-64.6797

>  <SCORE.INTRA.VDW>
2.26847

>  <SCORE.INTRA.VDW.0>
-4.11825

>  <SCORE.INTRA.norm>
-0.175363

>  <SCORE.RESTR>
1.3545

>  <SCORE.RESTR.CAVITY>
1.3545

>  <SCORE.RESTR.norm>
0.0436934

>  <SCORE.SYSTEM>
0

>  <SCORE.SYSTEM.CONST>
0

>  <SCORE.SYSTEM.DIHEDRAL>
0

>  <SCORE.SYSTEM.SOLV>
0

>  <SCORE.SYSTEM.norm>
0

>  <SCORE.heavy>
31

>  <SCORE.norm>
-0.337127

>  <RMSD>
8.099

$$$$
ligand
 OpenBabel11021811493D
libRbt.so/2013.1/901 2013/11/27
 31 33  0  0  0  0  0  0  0  0999 V2000
    0.2460   13.8622   10.7774 C   0  0  2  0  0  0  0  0  0  0  0  0
   -0.8474   13.0015   10.4727 O   0  0  0  0  0  0  0  0  0  0  0  0
   -3.9155   13.0371    7.5283 C   0  0  2  0  0  0  0  0  0  0  0  0
   -5.1139   13.4050    6.8389 N   0  0  0  0  0  0  0  0  0  0  0  0
   -3.6047   15.2883    5.4137 C   0  0  2  0  0  0  0  0  0  0  0  0
    1.4577   12.9262   11.1795 C   0  0  2  0  0  0  0  0  0  0  0  0
    1.7573   12.0400   10.0597 N   0  0  0  0  0  0  0  0  0  0  0  0
   -4.3052   12.5635    8.9890 C   0  0  0  0  0  0  0  0  0  0  0  0
   -2.8039   15.6173    4.1141 C   0  0  2  0  0  0  0  0  0  0  0  0
   -2.2259   14.4226    3.6332 O   0  0  0  0  0  0  0  0  0  0  0  0
    1.1018   12.0903   12.4731 C   0  0  0  0  0  0  0  0  0  0  0  0
   -2.9880   12.1602    9.7517 C   0  0  2  0  0  0  0  0  0  0  0  0
   -3.3437   11.7240   11.1129 N   0  0  0  0  0  0  0  0  0  0  0  0
   -1.6929   16.6654    4.5027 C   0  0  1  0  0  0  0  0  0  0  0  0
   -0.8740   17.0074    3.2929 N   0  0  0  0  0  0  0  0  0  0  0  0
    0.2522   12.9297   13.5187 C   0  0  0  0  0  0  0  0  0  0  0  0
   -1.9978   13.4058    9.8133 C   0  0  2  0  0  0  0  0  0  0  0  0
   -2.4382   18.0088    5.0486 C   0  0  1  0  0  0  0  0  0  0  0  0
   -3.3186   18.5645    4.0865 O   0  0  0  0  0  0  0  0  0  0  0  0
   -0.2618   14.1444   13.1901 C   0  0  2  0  0  0  0  0  0  0  0  0
   -0.0722   14.7360   11.8996 O   0  0  0  0  0  0  0  0  0  0  0  0
   -1.6354   13.8611    8.3513 C   0  0  2  0  0  0  0  0  0  0  0  0
   -0.7458   14.9964    8.4166 O   0  0  0  0  0  0  0  0  0  0  0  0
   -3.2968   17.6655    6.3091 C   0  0  0  0  0  0  0  0  0  0  0  0
   -4.2450   16.5446    5.9738 O   0  0  0  0  0  0  0  0  0  0  0  0
   -1.0841   14.9913   14.1633 C   0  0  0  0  0  0  0  0  0  0  0  0
   -2.4467   15.0380   13.6781 O   0  0  0  0  0  0  0  0  0  0  0  0
   -2.9599   14.2810    7.6132 C   0  0  1  0  0  0  0  0  0  0  0  0
   -2.6228   14.7018    6.3287 O   0  0  0  0  0  0  0  0  0  0  0  0
   -1.4886   19.1532    5.4779 C   0  0  0  0  0  0  0  0  0  0  0  0
    0.3344   16.1906    3.0588 C   0  0  0  0  0  0  0  0  0  0  0  0
  1  2  1  1  0  0  0
  1  6  1  0  0  0  0
  1 21  1  0  0  0  0
  3  4  1  6  0  0  0
  3  8  1  0  0  0  0
  3 28  1  0  0  0  0
  5  9  1  0  0  0  0
  5 25  1  0  0  0  0
  5 29  1  1  0  0  0
  6  7  1  6  0  0  0
  6 11  1  0  0  0  0
  8 12  1  0  0  0  0
  9 10  1  1  0  0  0
  9 14  1  0  0  0  0
 11 16  1  0  0  0  0
 12 13  1  1  0  0  0
 12 17  1  0  0  0  0
 14 15  1  6  0  0  0
 14 18  1  0  0  0  0
 15 31  1  0  0  0  0
 16 20  1  0  0  0  0
 17  2  1  1  0  0  0
 17 22  1  0  0  0  0
 18 19  1  6  0  0  0
 18 24  1  0  0  0  0
 18 30  1  0  0  0  0
 20 21  1  0  0  0  0
 20 26  1  1  0  0  0
 22 23  1  1  0  0  0
 22 28  1  0  0  0  0
 24 25  1  0  0  0  0
 26 27  1  0  0  0  0
 28 29  1  6  0  0  0
M  END
>  <CHROM.1>
-165.80443185,179.61516927,-91.26285547,-176.88270866,-111.85590686,67.50590420
-1.78035432,14.71164807,8.27836185,-1.32566185,-0.44651674,-1.05098331

>  <Name>
ligand

>  <RI>
0

>  <Rbt.Current_Directory>
/home/itssahil/PROJECTS/Mol_Feturizer/New_Systems/rnas/4GPX

>  <Rbt.Executable>
rbdock ($Id: //depot/dev/client3/rdock/2013.1/src/exe/rbdock.cxx#4 $)

>  <Rbt.Library>
libRbt.so (2013.1, Build901 2013/11/27)

>  <Rbt.Parameter_File>
/export/apps/rDock/src/rDock_2013.1_src/data/scripts/dock_solv.prm

>  <Rbt.Receptor>
prm/pocket_docking_7.prm

>  <SCORE>
-16.4256

>  <SCORE.INTER>
-8.21163

>  <SCORE.INTER.CONST>
1

>  <SCORE.INTER.POLAR>
0

>  <SCORE.INTER.ROT>
6

>  <SCORE.INTER.SOLV>
10.7358

>  <SCORE.INTER.VDW>
-16.653

>  <SCORE.INTER.norm>
-0.264891

>  <SCORE.INTRA>
-8.21399

>  <SCORE.INTRA.DIHEDRAL>
-16.9939

>  <SCORE.INTRA.DIHEDRAL.0>
20.6841

>  <SCORE.INTRA.POLAR>
0

>  <SCORE.INTRA.POLAR.0>
0

>  <SCORE.INTRA.REPUL>
0

>  <SCORE.INTRA.REPUL.0>
0

>  <SCORE.INTRA.SOLV>
-1.58023

>  <SCORE.INTRA.SOLV.lig_0>
-64.6797

>  <SCORE.INTRA.VDW>
1.07309

>  <SCORE.INTRA.VDW.0>
-4.11825

>  <SCORE.INTRA.norm>
-0.264967

>  <SCORE.RESTR>
0

>  <SCORE.RESTR.CAVITY>
0

>  <SCORE.RESTR.norm>
0

>  <SCORE.SYSTEM>
0

>  <SCORE.SYSTEM.CONST>
0

>  <SCORE.SYSTEM.DIHEDRAL>
0

>  <SCORE.SYSTEM.SOLV>
0

>  <SCORE.SYSTEM.norm>
0

>  <SCORE.heavy>
31

>  <SCORE.norm>
-0.529859

>  <RMSD>
8.104

$$$$
ligand
 OpenBabel11021811493D
libRbt.so/2013.1/901 2013/11/27
 31 33  0  0  0  0  0  0  0  0999 V2000
    1.6972   11.8510    5.6870 C   0  0  2  0  0  0  0  0  0  0  0  0
    0.8054   11.8050    4.5772 O   0  0  0  0  0  0  0  0  0  0  0  0
   -0.5213   15.8325    4.2558 C   0  0  2  0  0  0  0  0  0  0  0  0
   -1.1467   17.0042    3.7242 N   0  0  0  0  0  0  0  0  0  0  0  0
   -3.5253   16.2107    5.0450 C   0  0  2  0  0  0  0  0  0  0  0  0
    2.2966   10.3943    5.8440 C   0  0  2  0  0  0  0  0  0  0  0  0
    2.9829   10.0338    4.6078 N   0  0  0  0  0  0  0  0  0  0  0  0
    0.5666   15.3328    3.2181 C   0  0  0  0  0  0  0  0  0  0  0  0
   -4.5935   16.1570    6.1828 C   0  0  2  0  0  0  0  0  0  0  0  0
   -3.9384   16.3539    7.4176 O   0  0  0  0  0  0  0  0  0  0  0  0
    1.1473    9.3581    6.1669 C   0  0  0  0  0  0  0  0  0  0  0  0
    1.2554   14.0414    3.7989 C   0  0  2  0  0  0  0  0  0  0  0  0
    2.2644   13.5689    2.8355 N   0  0  0  0  0  0  0  0  0  0  0  0
   -5.2690   14.7344    6.1225 C   0  0  1  0  0  0  0  0  0  0  0  0
   -6.2959   14.6149    7.2098 N   0  0  0  0  0  0  0  0  0  0  0  0
    0.0419    9.9646    7.1312 C   0  0  0  0  0  0  0  0  0  0  0  0
    0.1606   12.9124    4.0485 C   0  0  2  0  0  0  0  0  0  0  0  0
   -5.9977   14.5850    4.6717 C   0  0  1  0  0  0  0  0  0  0  0  0
   -6.9668   15.5955    4.4496 O   0  0  0  0  0  0  0  0  0  0  0  0
    0.0265   11.2897    7.4340 C   0  0  2  0  0  0  0  0  0  0  0  0
    0.9922   12.2092    6.9111 O   0  0  0  0  0  0  0  0  0  0  0  0
   -0.9113   13.4379    5.0737 C   0  0  2  0  0  0  0  0  0  0  0  0
   -1.9049   12.4122    5.2863 O   0  0  0  0  0  0  0  0  0  0  0  0
   -4.9379   14.7093    3.5292 C   0  0  0  0  0  0  0  0  0  0  0  0
   -4.1805   16.0006    3.6928 O   0  0  0  0  0  0  0  0  0  0  0  0
   -1.0159   11.9201    8.3595 C   0  0  0  0  0  0  0  0  0  0  0  0
   -0.3421   12.3581    9.5631 O   0  0  0  0  0  0  0  0  0  0  0  0
   -1.6036   14.7137    4.4668 C   0  0  1  0  0  0  0  0  0  0  0  0
   -2.5640   15.1557    5.3740 O   0  0  0  0  0  0  0  0  0  0  0  0
   -6.7191   13.2354    4.4395 C   0  0  0  0  0  0  0  0  0  0  0  0
   -5.9396   13.7689    8.3672 C   0  0  0  0  0  0  0  0  0  0  0  0
  1  2  1  6  0  0  0
  1  6  1  0  0  0  0
  1 21  1  0  0  0  0
  3  4  1  6  0  0  0
  3  8  1  0  0  0  0
  3 28  1  0  0  0  0
  5  9  1  0  0  0  0
  5 25  1  0  0  0  0
  5 29  1  1  0  0  0
  6  7  1  6  0  0  0
  6 11  1  0  0  0  0
  8 12  1  0  0  0  0
  9 10  1  1  0  0  0
  9 14  1  0  0  0  0
 11 16  1  0  0  0  0
 12 13  1  6  0  0  0
 12 17  1  0  0  0  0
 14 15  1  1  0  0  0
 14 18  1  0  0  0  0
 15 31  1  0  0  0  0
 16 20  1  0  0  0  0
 17  2  1  1  0  0  0
 17 22  1  0  0  0  0
 18 19  1  6  0  0  0
 18 24  1  0  0  0  0
 18 30  1  0  0  0  0
 20 21  1  0  0  0  0
 20 26  1  1  0  0  0
 22 23  1  6  0  0  0
 22 28  1  0  0  0  0
 24 25  1  0  0  0  0
 26 27  1  0  0  0  0
 28 29  1  1  0  0  0
M  END
>  <CHROM.1>
-174.53615113,167.28772566,-106.02469899,50.21291043,112.56668505,70.09743439
-1.78547310,13.60310028,5.49642949,-0.35357864,0.37673709,-0.83761393

>  <Name>
ligand

>  <RI>
0

>  <Rbt.Current_Directory>
/home/itssahil/PROJECTS/Mol_Feturizer/New_Systems/rnas/4GPX

>  <Rbt.Executable>
rbdock ($Id: //depot/dev/client3/rdock/2013.1/src/exe/rbdock.cxx#4 $)

>  <Rbt.Library>
libRbt.so (2013.1, Build901 2013/11/27)

>  <Rbt.Parameter_File>
/export/apps/rDock/src/rDock_2013.1_src/data/scripts/dock_solv.prm

>  <Rbt.Receptor>
prm/pocket_docking_7.prm

>  <SCORE>
-12.4691

>  <SCORE.INTER>
-4.66518

>  <SCORE.INTER.CONST>
1

>  <SCORE.INTER.POLAR>
0

>  <SCORE.INTER.ROT>
6

>  <SCORE.INTER.SOLV>
14.3309

>  <SCORE.INTER.VDW>
-15.4871

>  <SCORE.INTER.norm>
-0.15049

>  <SCORE.INTRA>
-7.8039

>  <SCORE.INTRA.DIHEDRAL>
-16.0048

>  <SCORE.INTRA.DIHEDRAL.0>
20.6841

>  <SCORE.INTRA.POLAR>
0

>  <SCORE.INTRA.POLAR.0>
0

>  <SCORE.INTRA.REPUL>
0

>  <SCORE.INTRA.REPUL.0>
0

>  <SCORE.INTRA.SOLV>
-0.300822

>  <SCORE.INTRA.SOLV.lig_0>
-64.6797

>  <SCORE.INTRA.VDW>
0.34892

>  <SCORE.INTRA.VDW.0>
-4.11825

>  <SCORE.INTRA.norm>
-0.251739

>  <SCORE.RESTR>
0

>  <SCORE.RESTR.CAVITY>
0

>  <SCORE.RESTR.norm>
0

>  <SCORE.SYSTEM>
0

>  <SCORE.SYSTEM.CONST>
0

>  <SCORE.SYSTEM.DIHEDRAL>
0

>  <SCORE.SYSTEM.SOLV>
0

>  <SCORE.SYSTEM.norm>
0

>  <SCORE.heavy>
31

>  <SCORE.norm>
-0.402228

>  <RMSD>
8.119

$$$$
ligand
 OpenBabel11021811493D
libRbt.so/2013.1/901 2013/11/27
 31 33  0  0  0  0  0  0  0  0999 V2000
   -0.8737   12.1112   11.3587 C   0  0  2  0  0  0  0  0  0  0  0  0
   -1.3631   12.4601   10.0672 O   0  0  0  0  0  0  0  0  0  0  0  0
   -5.1616   13.1912    8.3007 C   0  0  2  0  0  0  0  0  0  0  0  0
   -6.4390   13.7874    8.0561 N   0  0  0  0  0  0  0  0  0  0  0  0
   -3.4903   13.9861    5.6769 C   0  0  2  0  0  0  0  0  0  0  0  0
    0.1438   13.2493   11.7775 C   0  0  2  0  0  0  0  0  0  0  0  0
   -0.5604   14.5272   11.7884 N   0  0  0  0  0  0  0  0  0  0  0  0
   -5.1360   12.6605    9.7932 C   0  0  0  0  0  0  0  0  0  0  0  0
   -3.7918   14.8443    4.4076 C   0  0  2  0  0  0  0  0  0  0  0  0
   -3.2121   16.1192    4.5847 O   0  0  0  0  0  0  0  0  0  0  0  0
    1.3642   13.2931   10.7737 C   0  0  0  0  0  0  0  0  0  0  0  0
   -3.7303   12.0058   10.0667 C   0  0  2  0  0  0  0  0  0  0  0  0
   -3.6985   11.5152   11.4552 N   0  0  0  0  0  0  0  0  0  0  0  0
   -5.3587   14.9500    4.2765 C   0  0  1  0  0  0  0  0  0  0  0  0
   -5.7118   15.7837    3.0802 N   0  0  0  0  0  0  0  0  0  0  0  0
    1.8085   11.8444   10.3008 C   0  0  0  0  0  0  0  0  0  0  0  0
   -2.5800   13.0826    9.8364 C   0  0  2  0  0  0  0  0  0  0  0  0
   -5.9493   13.4431    4.0789 C   0  0  1  0  0  0  0  0  0  0  0  0
   -5.4064   12.7975    2.9397 O   0  0  0  0  0  0  0  0  0  0  0  0
    1.0537   10.7510   10.5883 C   0  0  2  0  0  0  0  0  0  0  0  0
   -0.1715   10.8346   11.3254 O   0  0  0  0  0  0  0  0  0  0  0  0
   -2.6346   13.5995    8.3511 C   0  0  2  0  0  0  0  0  0  0  0  0
   -1.5954   14.5821    8.1540 O   0  0  0  0  0  0  0  0  0  0  0  0
   -5.5866   12.5631    5.3190 C   0  0  0  0  0  0  0  0  0  0  0  0
   -4.0971   12.6025    5.5373 O   0  0  0  0  0  0  0  0  0  0  0  0
    1.4411    9.3352   10.1569 C   0  0  0  0  0  0  0  0  0  0  0  0
    2.8787    9.2097   10.2656 O   0  0  0  0  0  0  0  0  0  0  0  0
   -4.0365   14.2696    8.1037 C   0  0  1  0  0  0  0  0  0  0  0  0
   -4.0636   14.7414    6.7932 O   0  0  0  0  0  0  0  0  0  0  0  0
   -7.4878   13.3593    3.9315 C   0  0  0  0  0  0  0  0  0  0  0  0
   -6.9671   16.5583    3.1600 C   0  0  0  0  0  0  0  0  0  0  0  0
  1  2  1  6  0  0  0
  1  6  1  0  0  0  0
  1 21  1  0  0  0  0
  3  4  1  1  0  0  0
  3  8  1  0  0  0  0
  3 28  1  0  0  0  0
  5  9  1  0  0  0  0
  5 25  1  0  0  0  0
  5 29  1  1  0  0  0
  6  7  1  6  0  0  0
  6 11  1  0  0  0  0
  8 12  1  0  0  0  0
  9 10  1  1  0  0  0
  9 14  1  0  0  0  0
 11 16  1  0  0  0  0
 12 13  1  1  0  0  0
 12 17  1  0  0  0  0
 14 15  1  6  0  0  0
 14 18  1  0  0  0  0
 15 31  1  0  0  0  0
 16 20  1  0  0  0  0
 17  2  1  6  0  0  0
 17 22  1  0  0  0  0
 18 19  1  6  0  0  0
 18 24  1  0  0  0  0
 18 30  1  0  0  0  0
 20 21  1  0  0  0  0
 20 26  1  1  0  0  0
 22 23  1  1  0  0  0
 22 28  1  0  0  0  0
 24 25  1  0  0  0  0
 26 27  1  0  0  0  0
 28 29  1  6  0  0  0
M  END
>  <CHROM.1>
-99.10409090,177.71101152,-149.40159465,-73.69087237,37.23334437,-78.54288586
-2.89763264,13.15834078,7.84916713,0.84403720,-0.22774973,1.79905638

>  <Name>
ligand

>  <RI>
0

>  <Rbt.Current_Directory>
/home/itssahil/PROJECTS/Mol_Feturizer/New_Systems/rnas/4GPX

>  <Rbt.Executable>
rbdock ($Id: //depot/dev/client3/rdock/2013.1/src/exe/rbdock.cxx#4 $)

>  <Rbt.Library>
libRbt.so (2013.1, Build901 2013/11/27)

>  <Rbt.Parameter_File>
/export/apps/rDock/src/rDock_2013.1_src/data/scripts/dock_solv.prm

>  <Rbt.Receptor>
prm/pocket_docking_3.prm

>  <SCORE>
-13.0637

>  <SCORE.INTER>
-11.4044

>  <SCORE.INTER.CONST>
1

>  <SCORE.INTER.POLAR>
0

>  <SCORE.INTER.ROT>
6

>  <SCORE.INTER.SOLV>
19.078

>  <SCORE.INTER.VDW>
-21.5623

>  <SCORE.INTER.norm>
-0.367885

>  <SCORE.INTRA>
-1.65932

>  <SCORE.INTRA.DIHEDRAL>
-9.33763

>  <SCORE.INTRA.DIHEDRAL.0>
20.6841

>  <SCORE.INTRA.POLAR>
0

>  <SCORE.INTRA.POLAR.0>
0

>  <SCORE.INTRA.REPUL>
0

>  <SCORE.INTRA.REPUL.0>
0

>  <SCORE.INTRA.SOLV>
1.42559

>  <SCORE.INTRA.SOLV.lig_0>
-64.6797

>  <SCORE.INTRA.VDW>
2.2967

>  <SCORE.INTRA.VDW.0>
-4.11825

>  <SCORE.INTRA.norm>
-0.0535264

>  <SCORE.RESTR>
0

>  <SCORE.RESTR.CAVITY>
0

>  <SCORE.RESTR.norm>
0

>  <SCORE.SYSTEM>
0

>  <SCORE.SYSTEM.CONST>
0

>  <SCORE.SYSTEM.DIHEDRAL>
0

>  <SCORE.SYSTEM.SOLV>
0

>  <SCORE.SYSTEM.norm>
0

>  <SCORE.heavy>
31

>  <SCORE.norm>
-0.421411

>  <RMSD>
8.129

$$$$
ligand
 OpenBabel11021811493D
libRbt.so/2013.1/901 2013/11/27
 31 33  0  0  0  0  0  0  0  0999 V2000
    1.6453   12.6461    3.2760 C   0  0  2  0  0  0  0  0  0  0  0  0
    1.0728   12.6075    4.5798 O   0  0  0  0  0  0  0  0  0  0  0  0
   -2.7983   14.2601    3.9735 C   0  0  2  0  0  0  0  0  0  0  0  0
   -4.1553   14.6355    4.2271 N   0  0  0  0  0  0  0  0  0  0  0  0
   -3.2421   17.0326    5.0834 C   0  0  2  0  0  0  0  0  0  0  0  0
    3.1842   12.3180    3.4498 C   0  0  2  0  0  0  0  0  0  0  0  0
    3.3164   11.0013    4.0644 N   0  0  0  0  0  0  0  0  0  0  0  0
   -2.6841   12.6850    4.1004 C   0  0  0  0  0  0  0  0  0  0  0  0
   -2.8900   18.5486    4.9553 C   0  0  2  0  0  0  0  0  0  0  0  0
   -2.2804   18.7592    3.6997 O   0  0  0  0  0  0  0  0  0  0  0  0
    3.8854   13.4216    4.3382 C   0  0  0  0  0  0  0  0  0  0  0  0
   -1.1908   12.2684    3.8243 C   0  0  2  0  0  0  0  0  0  0  0  0
   -1.0772   10.8049    3.9464 N   0  0  0  0  0  0  0  0  0  0  0  0
   -1.8991   18.8988    6.1297 C   0  0  1  0  0  0  0  0  0  0  0  0
   -1.5073   20.3448    6.0477 N   0  0  0  0  0  0  0  0  0  0  0  0
    3.3221   14.8770    4.0479 C   0  0  0  0  0  0  0  0  0  0  0  0
   -0.2288   12.9849    4.8715 C   0  0  2  0  0  0  0  0  0  0  0  0
   -2.6736   18.6275    7.5386 C   0  0  1  0  0  0  0  0  0  0  0  0
   -3.8605   19.3935    7.6564 O   0  0  0  0  0  0  0  0  0  0  0  0
    2.2191   15.0606    3.2750 C   0  0  2  0  0  0  0  0  0  0  0  0
    1.5057   13.9694    2.6816 O   0  0  0  0  0  0  0  0  0  0  0  0
   -0.3693   14.5459    4.7308 C   0  0  2  0  0  0  0  0  0  0  0  0
    0.4984   15.1871    5.6902 O   0  0  0  0  0  0  0  0  0  0  0  0
   -3.0889   17.1236    7.6359 C   0  0  0  0  0  0  0  0  0  0  0  0
   -3.8992   16.7525    6.4219 O   0  0  0  0  0  0  0  0  0  0  0  0
    1.6404   16.4424    2.9649 C   0  0  0  0  0  0  0  0  0  0  0  0
    2.4201   17.4278    3.6828 O   0  0  0  0  0  0  0  0  0  0  0  0
   -1.8611   14.9450    5.0319 C   0  0  1  0  0  0  0  0  0  0  0  0
   -1.9668   16.3300    4.9250 O   0  0  0  0  0  0  0  0  0  0  0  0
   -1.8401   18.9231    8.8089 C   0  0  0  0  0  0  0  0  0  0  0  0
   -0.0624   20.6443    6.1167 C   0  0  0  0  0  0  0  0  0  0  0  0
  1  2  1  1  0  0  0
  1  6  1  0  0  0  0
  1 21  1  0  0  0  0
  3  4  1  1  0  0  0
  3  8  1  0  0  0  0
  3 28  1  0  0  0  0
  5  9  1  0  0  0  0
  5 25  1  0  0  0  0
  5 29  1  1  0  0  0
  6  7  1  1  0  0  0
  6 11  1  0  0  0  0
  8 12  1  0  0  0  0
  9 10  1  6  0  0  0
  9 14  1  0  0  0  0
 11 16  1  0  0  0  0
 12 13  1  1  0  0  0
 12 17  1  0  0  0  0
 14 15  1  6  0  0  0
 14 18  1  0  0  0  0
 15 31  1  0  0  0  0
 16 20  1  0  0  0  0
 17  2  1  6  0  0  0
 17 22  1  0  0  0  0
 18 19  1  1  0  0  0
 18 24  1  0  0  0  0
 18 30  1  0  0  0  0
 20 21  1  0  0  0  0
 20 26  1  6  0  0  0
 22 23  1  1  0  0  0
 22 28  1  0  0  0  0
 24 25  1  0  0  0  0
 26 27  1  0  0  0  0
 28 29  1  6  0  0  0
M  END
>  <CHROM.1>
172.60494475,177.37554453,-130.23922839,48.71461538,-3.00919561,58.36515799
-0.60629780,15.64514240,4.90851766,-0.95926203,0.23369294,0.27315550

>  <Name>
ligand

>  <RI>
0

>  <Rbt.Current_Directory>
/home/itssahil/PROJECTS/Mol_Feturizer/New_Systems/rnas/4GPX

>  <Rbt.Executable>
rbdock ($Id: //depot/dev/client3/rdock/2013.1/src/exe/rbdock.cxx#4 $)

>  <Rbt.Library>
libRbt.so (2013.1, Build901 2013/11/27)

>  <Rbt.Parameter_File>
/export/apps/rDock/src/rDock_2013.1_src/data/scripts/dock_solv.prm

>  <Rbt.Receptor>
prm/pocket_docking_8.prm

>  <SCORE>
-12.3481

>  <SCORE.INTER>
-5.91486

>  <SCORE.INTER.CONST>
1

>  <SCORE.INTER.POLAR>
0

>  <SCORE.INTER.ROT>
6

>  <SCORE.INTER.SOLV>
12.8447

>  <SCORE.INTER.VDW>
-15.8248

>  <SCORE.INTER.norm>
-0.190802

>  <SCORE.INTRA>
-6.43328

>  <SCORE.INTRA.DIHEDRAL>
-16.94

>  <SCORE.INTRA.DIHEDRAL.0>
20.6841

>  <SCORE.INTRA.POLAR>
0

>  <SCORE.INTRA.POLAR.0>
0

>  <SCORE.INTRA.REPUL>
0

>  <SCORE.INTRA.REPUL.0>
0

>  <SCORE.INTRA.SOLV>
-0.398452

>  <SCORE.INTRA.SOLV.lig_0>
-64.6797

>  <SCORE.INTRA.VDW>
2.23593

>  <SCORE.INTRA.VDW.0>
-4.11825

>  <SCORE.INTRA.norm>
-0.207525

>  <SCORE.RESTR>
0

>  <SCORE.RESTR.CAVITY>
0

>  <SCORE.RESTR.norm>
0

>  <SCORE.SYSTEM>
0

>  <SCORE.SYSTEM.CONST>
0

>  <SCORE.SYSTEM.DIHEDRAL>
0

>  <SCORE.SYSTEM.SOLV>
0

>  <SCORE.SYSTEM.norm>
0

>  <SCORE.heavy>
31

>  <SCORE.norm>
-0.398327

>  <RMSD>
8.148

$$$$
ligand
 OpenBabel11021811493D
libRbt.so/2013.1/901 2013/11/27
 31 33  0  0  0  0  0  0  0  0999 V2000
   -1.7613   15.2929   12.0745 C   0  0  2  0  0  0  0  0  0  0  0  0
   -0.5473   14.9181   11.4303 O   0  0  0  0  0  0  0  0  0  0  0  0
    0.6045   13.2003    7.7146 C   0  0  2  0  0  0  0  0  0  0  0  0
    0.7429   12.2424    6.6609 N   0  0  0  0  0  0  0  0  0  0  0  0
   -1.6573   13.2435    5.5680 C   0  0  2  0  0  0  0  0  0  0  0  0
   -1.3753   16.3624   13.1759 C   0  0  2  0  0  0  0  0  0  0  0  0
   -0.7321   17.4974   12.5223 N   0  0  0  0  0  0  0  0  0  0  0  0
    1.2317   12.5858    9.0333 C   0  0  0  0  0  0  0  0  0  0  0  0
   -2.1403   14.2612    4.4864 C   0  0  2  0  0  0  0  0  0  0  0  0
   -1.1628   15.2715    4.3584 O   0  0  0  0  0  0  0  0  0  0  0  0
   -0.4133   15.7202   14.2534 C   0  0  0  0  0  0  0  0  0  0  0  0
    1.0789   13.6366   10.1961 C   0  0  2  0  0  0  0  0  0  0  0  0
    1.6555   13.0685   11.4266 N   0  0  0  0  0  0  0  0  0  0  0  0
   -3.5093   14.8603    4.9871 C   0  0  1  0  0  0  0  0  0  0  0  0
   -4.0160   15.8644    3.9940 N   0  0  0  0  0  0  0  0  0  0  0  0
   -0.7957   14.2152   14.5826 C   0  0  0  0  0  0  0  0  0  0  0  0
   -0.4610   13.9776   10.4156 C   0  0  2  0  0  0  0  0  0  0  0  0
   -4.5784   13.6356    5.1113 C   0  0  1  0  0  0  0  0  0  0  0  0
   -4.7636   12.9560    3.8812 O   0  0  0  0  0  0  0  0  0  0  0  0
   -1.7140   13.5460   13.8365 C   0  0  2  0  0  0  0  0  0  0  0  0
   -2.3855   14.1468   12.7232 O   0  0  0  0  0  0  0  0  0  0  0  0
   -1.0604   14.5761    9.0894 C   0  0  2  0  0  0  0  0  0  0  0  0
   -2.4584   14.8728    9.2943 O   0  0  0  0  0  0  0  0  0  0  0  0
   -4.0611   12.5809    6.1427 C   0  0  0  0  0  0  0  0  0  0  0  0
   -2.6782   12.1354    5.7462 O   0  0  0  0  0  0  0  0  0  0  0  0
   -2.1173   12.0969   14.1159 C   0  0  0  0  0  0  0  0  0  0  0  0
   -3.5496   12.0601   14.3191 O   0  0  0  0  0  0  0  0  0  0  0  0
   -0.9191   13.5046    7.9460 C   0  0  1  0  0  0  0  0  0  0  0  0
   -1.4723   14.0384    6.7842 O   0  0  0  0  0  0  0  0  0  0  0  0
   -5.9899   14.0481    5.5944 C   0  0  0  0  0  0  0  0  0  0  0  0
   -3.6642   17.2774    4.2428 C   0  0  0  0  0  0  0  0  0  0  0  0
  1  2  1  1  0  0  0
  1  6  1  0  0  0  0
  1 21  1  0  0  0  0
  3  4  1  6  0  0  0
  3  8  1  0  0  0  0
  3 28  1  0  0  0  0
  5  9  1  0  0  0  0
  5 25  1  0  0  0  0
  5 29  1  1  0  0  0
  6  7  1  6  0  0  0
  6 11  1  0  0  0  0
  8 12  1  0  0  0  0
  9 10  1  1  0  0  0
  9 14  1  0  0  0  0
 11 16  1  0  0  0  0
 12 13  1  1  0  0  0
 12 17  1  0  0  0  0
 14 15  1  6  0  0  0
 14 18  1  0  0  0  0
 15 31  1  0  0  0  0
 16 20  1  0  0  0  0
 17  2  1  1  0  0  0
 17 22  1  0  0  0  0
 18 19  1  6  0  0  0
 18 24  1  0  0  0  0
 18 30  1  0  0  0  0
 20 21  1  0  0  0  0
 20 26  1  1  0  0  0
 22 23  1  1  0  0  0
 22 28  1  0  0  0  0
 24 25  1  0  0  0  0
 26 27  1  0  0  0  0
 28 29  1  6  0  0  0
M  END
>  <CHROM.1>
178.82165659,-173.62241063,-94.01886876,-168.22684310,123.06303336,69.02461812
-1.80182329,14.11424352,8.87740345,1.30911897,-0.20966288,1.51300957

>  <Name>
ligand

>  <RI>
0

>  <Rbt.Current_Directory>
/home/itssahil/PROJECTS/Mol_Feturizer/New_Systems/rnas/4GPX

>  <Rbt.Executable>
rbdock ($Id: //depot/dev/client3/rdock/2013.1/src/exe/rbdock.cxx#4 $)

>  <Rbt.Library>
libRbt.so (2013.1, Build901 2013/11/27)

>  <Rbt.Parameter_File>
/export/apps/rDock/src/rDock_2013.1_src/data/scripts/dock_solv.prm

>  <Rbt.Receptor>
prm/pocket_docking_7.prm

>  <SCORE>
-12.0127

>  <SCORE.INTER>
-3.53201

>  <SCORE.INTER.CONST>
1

>  <SCORE.INTER.POLAR>
0

>  <SCORE.INTER.ROT>
6

>  <SCORE.INTER.SOLV>
7.99407

>  <SCORE.INTER.VDW>
-12.6194

>  <SCORE.INTER.norm>
-0.113936

>  <SCORE.INTRA>
-8.48068

>  <SCORE.INTRA.DIHEDRAL>
-16.9906

>  <SCORE.INTRA.DIHEDRAL.0>
20.6841

>  <SCORE.INTRA.POLAR>
0

>  <SCORE.INTRA.POLAR.0>
0

>  <SCORE.INTRA.REPUL>
0

>  <SCORE.INTRA.REPUL.0>
0

>  <SCORE.INTRA.SOLV>
-1.50242

>  <SCORE.INTRA.SOLV.lig_0>
-64.6797

>  <SCORE.INTRA.VDW>
0.765835

>  <SCORE.INTRA.VDW.0>
-4.11825

>  <SCORE.INTRA.norm>
-0.27357

>  <SCORE.RESTR>
0

>  <SCORE.RESTR.CAVITY>
0

>  <SCORE.RESTR.norm>
0

>  <SCORE.SYSTEM>
0

>  <SCORE.SYSTEM.CONST>
0

>  <SCORE.SYSTEM.DIHEDRAL>
0

>  <SCORE.SYSTEM.SOLV>
0

>  <SCORE.SYSTEM.norm>
0

>  <SCORE.heavy>
31

>  <SCORE.norm>
-0.387506

>  <RMSD>
8.151

$$$$
ligand
 OpenBabel11021811493D
libRbt.so/2013.1/901 2013/11/27
 31 33  0  0  0  0  0  0  0  0999 V2000
   -1.7273   15.4261   12.0684 C   0  0  2  0  0  0  0  0  0  0  0  0
   -0.5213   15.0366   11.4181 O   0  0  0  0  0  0  0  0  0  0  0  0
    0.5510   13.2921    7.6911 C   0  0  2  0  0  0  0  0  0  0  0  0
    0.6738   12.3240    6.6448 N   0  0  0  0  0  0  0  0  0  0  0  0
   -1.7291   13.2916    5.5933 C   0  0  2  0  0  0  0  0  0  0  0  0
   -1.3267   16.5134   13.1470 C   0  0  2  0  0  0  0  0  0  0  0  0
   -0.6873   17.6350   12.4671 N   0  0  0  0  0  0  0  0  0  0  0  0
    1.2237   12.7020    8.9985 C   0  0  0  0  0  0  0  0  0  0  0  0
   -2.2838   14.2875    4.5260 C   0  0  2  0  0  0  0  0  0  0  0  0
   -1.3623   15.3476    4.3855 O   0  0  0  0  0  0  0  0  0  0  0  0
   -0.3552   15.8871   14.2253 C   0  0  0  0  0  0  0  0  0  0  0  0
    1.0882   13.7640   10.1531 C   0  0  2  0  0  0  0  0  0  0  0  0
    1.7072   13.2185   11.3733 N   0  0  0  0  0  0  0  0  0  0  0  0
   -3.6724   14.8130    5.0546 C   0  0  1  0  0  0  0  0  0  0  0  0
   -4.2485   15.7938    4.0762 N   0  0  0  0  0  0  0  0  0  0  0  0
   -0.7383   14.3892   14.5845 C   0  0  0  0  0  0  0  0  0  0  0  0
   -0.4498   14.0857   10.4120 C   0  0  2  0  0  0  0  0  0  0  0  0
   -4.6745   13.5341    5.1919 C   0  0  1  0  0  0  0  0  0  0  0  0
   -4.8469   12.8511    3.9618 O   0  0  0  0  0  0  0  0  0  0  0  0
   -1.6663   13.7099   13.8599 C   0  0  2  0  0  0  0  0  0  0  0  0
   -2.3479   14.2933   12.7434 O   0  0  0  0  0  0  0  0  0  0  0  0
   -1.0946   14.6601    9.0966 C   0  0  2  0  0  0  0  0  0  0  0  0
   -2.4905   14.9394    9.3373 O   0  0  0  0  0  0  0  0  0  0  0  0
   -4.0844   12.5032    6.2082 C   0  0  0  0  0  0  0  0  0  0  0  0
   -2.6880   12.1314    5.7843 O   0  0  0  0  0  0  0  0  0  0  0  0
   -2.0707   12.2671   14.1686 C   0  0  0  0  0  0  0  0  0  0  0  0
   -1.6637   11.4380   13.0544 O   0  0  0  0  0  0  0  0  0  0  0  0
   -0.9698   13.5775    7.9618 C   0  0  1  0  0  0  0  0  0  0  0  0
   -1.5629   14.0898    6.8101 O   0  0  0  0  0  0  0  0  0  0  0  0
   -6.0962   13.8710    5.7027 C   0  0  0  0  0  0  0  0  0  0  0  0
   -3.8645   17.2091    4.2535 C   0  0  0  0  0  0  0  0  0  0  0  0
  1  2  1  1  0  0  0
  1  6  1  0  0  0  0
  1 21  1  0  0  0  0
  3  4  1  6  0  0  0
  3  8  1  0  0  0  0
  3 28  1  0  0  0  0
  5  9  1  0  0  0  0
  5 25  1  0  0  0  0
  5 29  1  1  0  0  0
  6  7  1  6  0  0  0
  6 11  1  0  0  0  0
  8 12  1  0  0  0  0
  9 10  1  1  0  0  0
  9 14  1  0  0  0  0
 11 16  1  0  0  0  0
 12 13  1  1  0  0  0
 12 17  1  0  0  0  0
 14 15  1  6  0  0  0
 14 18  1  0  0  0  0
 15 31  1  0  0  0  0
 16 20  1  0  0  0  0
 17  2  1  1  0  0  0
 17 22  1  0  0  0  0
 18 19  1  6  0  0  0
 18 24  1  0  0  0  0
 18 30  1  0  0  0  0
 20 21  1  0  0  0  0
 20 26  1  1  0  0  0
 22 23  1  1  0  0  0
 22 28  1  0  0  0  0
 24 25  1  0  0  0  0
 26 27  1  0  0  0  0
 28 29  1  6  0  0  0
M  END
>  <CHROM.1>
179.32871759,-174.06994016,-88.59357974,-169.89729408,-114.89370093,66.89564873
-1.77228767,14.14864534,8.84839186,1.20130304,-0.55170365,1.34777537

>  <Name>
ligand

>  <RI>
0

>  <Rbt.Current_Directory>
/home/itssahil/PROJECTS/Mol_Feturizer/New_Systems/rnas/4GPX

>  <Rbt.Executable>
rbdock ($Id: //depot/dev/client3/rdock/2013.1/src/exe/rbdock.cxx#4 $)

>  <Rbt.Library>
libRbt.so (2013.1, Build901 2013/11/27)

>  <Rbt.Parameter_File>
/export/apps/rDock/src/rDock_2013.1_src/data/scripts/dock_solv.prm

>  <Rbt.Receptor>
prm/pocket_docking_7.prm

>  <SCORE>
-12.0125

>  <SCORE.INTER>
-3.46958

>  <SCORE.INTER.CONST>
1

>  <SCORE.INTER.POLAR>
0

>  <SCORE.INTER.ROT>
6

>  <SCORE.INTER.SOLV>
8.583

>  <SCORE.INTER.VDW>
-12.7741

>  <SCORE.INTER.norm>
-0.111922

>  <SCORE.INTRA>
-8.5429

>  <SCORE.INTRA.DIHEDRAL>
-17.5018

>  <SCORE.INTRA.DIHEDRAL.0>
20.6841

>  <SCORE.INTRA.POLAR>
0

>  <SCORE.INTRA.POLAR.0>
0

>  <SCORE.INTRA.REPUL>
0

>  <SCORE.INTRA.REPUL.0>
0

>  <SCORE.INTRA.SOLV>
-1.27894

>  <SCORE.INTRA.SOLV.lig_0>
-64.6797

>  <SCORE.INTRA.VDW>
0.847479

>  <SCORE.INTRA.VDW.0>
-4.11825

>  <SCORE.INTRA.norm>
-0.275577

>  <SCORE.RESTR>
0

>  <SCORE.RESTR.CAVITY>
0

>  <SCORE.RESTR.norm>
0

>  <SCORE.SYSTEM>
0

>  <SCORE.SYSTEM.CONST>
0

>  <SCORE.SYSTEM.DIHEDRAL>
0

>  <SCORE.SYSTEM.SOLV>
0

>  <SCORE.SYSTEM.norm>
0

>  <SCORE.heavy>
31

>  <SCORE.norm>
-0.387499

>  <RMSD>
8.158

$$$$
ligand
 OpenBabel11021811493D
libRbt.so/2013.1/901 2013/11/27
 31 33  0  0  0  0  0  0  0  0999 V2000
    0.2222   13.6143   10.8479 C   0  0  2  0  0  0  0  0  0  0  0  0
    0.8385   12.5968   10.0642 O   0  0  0  0  0  0  0  0  0  0  0  0
    0.4043   11.4687    5.9871 C   0  0  2  0  0  0  0  0  0  0  0  0
   -0.1390   10.8659    4.8088 N   0  0  0  0  0  0  0  0  0  0  0  0
   -1.6356   13.2103    4.4145 C   0  0  2  0  0  0  0  0  0  0  0  0
    1.2127   13.9241   12.0433 C   0  0  2  0  0  0  0  0  0  0  0  0
    2.4914   14.3602   11.4919 N   0  0  0  0  0  0  0  0  0  0  0  0
    0.7130   10.3231    7.0369 C   0  0  0  0  0  0  0  0  0  0  0  0
   -1.7083   14.5909    3.6883 C   0  0  2  0  0  0  0  0  0  0  0  0
   -0.3918   15.0635    3.4984 O   0  0  0  0  0  0  0  0  0  0  0  0
    1.4030   12.6412   12.9470 C   0  0  0  0  0  0  0  0  0  0  0  0
    1.3088   10.9833    8.3364 C   0  0  2  0  0  0  0  0  0  0  0  0
    1.5928    9.9231    9.3187 N   0  0  0  0  0  0  0  0  0  0  0  0
   -2.5291   15.5644    4.6170 C   0  0  1  0  0  0  0  0  0  0  0  0
   -2.6166   16.9194    3.9787 N   0  0  0  0  0  0  0  0  0  0  0  0
    0.0588   11.8127   13.1088 C   0  0  0  0  0  0  0  0  0  0  0  0
    0.2667   12.0266    8.9375 C   0  0  2  0  0  0  0  0  0  0  0  0
   -4.0294   14.9496    4.7885 C   0  0  1  0  0  0  0  0  0  0  0  0
   -4.6903   14.7882    3.5449 O   0  0  0  0  0  0  0  0  0  0  0  0
   -1.0378   12.1024   12.3596 C   0  0  2  0  0  0  0  0  0  0  0  0
   -1.0506   13.1580   11.3915 O   0  0  0  0  0  0  0  0  0  0  0  0
   -0.0291   13.1462    7.8721 C   0  0  2  0  0  0  0  0  0  0  0  0
   -0.9819   14.0816    8.4214 O   0  0  0  0  0  0  0  0  0  0  0  0
   -3.9520   13.5360    5.4516 C   0  0  0  0  0  0  0  0  0  0  0  0
   -3.0302   12.6592    4.6457 O   0  0  0  0  0  0  0  0  0  0  0  0
   -2.3557   11.3350   12.4812 C   0  0  0  0  0  0  0  0  0  0  0  0
   -3.3742   12.2591   12.9315 O   0  0  0  0  0  0  0  0  0  0  0  0
   -0.6440   12.4707    6.5911 C   0  0  1  0  0  0  0  0  0  0  0  0
   -0.9208   13.4742    5.6653 O   0  0  0  0  0  0  0  0  0  0  0  0
   -4.9800   15.7867    5.6781 C   0  0  0  0  0  0  0  0  0  0  0  0
   -2.4111   18.0833    4.8648 C   0  0  0  0  0  0  0  0  0  0  0  0
  1  2  1  6  0  0  0
  1  6  1  0  0  0  0
  1 21  1  0  0  0  0
  3  4  1  6  0  0  0
  3  8  1  0  0  0  0
  3 28  1  0  0  0  0
  5  9  1  0  0  0  0
  5 25  1  0  0  0  0
  5 29  1  1  0  0  0
  6  7  1  6  0  0  0
  6 11  1  0  0  0  0
  8 12  1  0  0  0  0
  9 10  1  1  0  0  0
  9 14  1  0  0  0  0
 11 16  1  0  0  0  0
 12 13  1  1  0  0  0
 12 17  1  0  0  0  0
 14 15  1  6  0  0  0
 14 18  1  0  0  0  0
 15 31  1  0  0  0  0
 16 20  1  0  0  0  0
 17  2  1  1  0  0  0
 17 22  1  0  0  0  0
 18 19  1  6  0  0  0
 18 24  1  0  0  0  0
 18 30  1  0  0  0  0
 20 21  1  0  0  0  0
 20 26  1  1  0  0  0
 22 23  1  1  0  0  0
 22 28  1  0  0  0  0
 24 25  1  0  0  0  0
 26 27  1  0  0  0  0
 28 29  1  6  0  0  0
M  END
>  <CHROM.1>
178.40975402,-179.35892775,-137.10221050,177.73097000,117.10319811,68.04573382
-1.07129911,13.30549088,7.79289547,1.08799607,-0.73177907,1.57693649

>  <Name>
ligand

>  <RI>
0

>  <Rbt.Current_Directory>
/home/itssahil/PROJECTS/Mol_Feturizer/New_Systems/rnas/4GPX

>  <Rbt.Executable>
rbdock ($Id: //depot/dev/client3/rdock/2013.1/src/exe/rbdock.cxx#4 $)

>  <Rbt.Library>
libRbt.so (2013.1, Build901 2013/11/27)

>  <Rbt.Parameter_File>
/export/apps/rDock/src/rDock_2013.1_src/data/scripts/dock_solv.prm

>  <Rbt.Receptor>
prm/pocket_docking_4.prm

>  <SCORE>
-15.076

>  <SCORE.INTER>
-6.4399

>  <SCORE.INTER.CONST>
1

>  <SCORE.INTER.POLAR>
0

>  <SCORE.INTER.ROT>
6

>  <SCORE.INTER.SOLV>
10.9329

>  <SCORE.INTER.VDW>
-15.5376

>  <SCORE.INTER.norm>
-0.207739

>  <SCORE.INTRA>
-8.63611

>  <SCORE.INTRA.DIHEDRAL>
-17.6502

>  <SCORE.INTRA.DIHEDRAL.0>
20.6841

>  <SCORE.INTRA.POLAR>
0

>  <SCORE.INTRA.POLAR.0>
0

>  <SCORE.INTRA.REPUL>
0

>  <SCORE.INTRA.REPUL.0>
0

>  <SCORE.INTRA.SOLV>
-2.14682

>  <SCORE.INTRA.SOLV.lig_0>
-64.6797

>  <SCORE.INTRA.VDW>
1.26239

>  <SCORE.INTRA.VDW.0>
-4.11825

>  <SCORE.INTRA.norm>
-0.278584

>  <SCORE.RESTR>
0

>  <SCORE.RESTR.CAVITY>
0

>  <SCORE.RESTR.norm>
0

>  <SCORE.SYSTEM>
0

>  <SCORE.SYSTEM.CONST>
0

>  <SCORE.SYSTEM.DIHEDRAL>
0

>  <SCORE.SYSTEM.SOLV>
0

>  <SCORE.SYSTEM.norm>
0

>  <SCORE.heavy>
31

>  <SCORE.norm>
-0.486323

>  <RMSD>
8.161

$$$$
ligand
 OpenBabel11021811493D
libRbt.so/2013.1/901 2013/11/27
 31 33  0  0  0  0  0  0  0  0999 V2000
    1.2251   11.5556   10.6334 C   0  0  2  0  0  0  0  0  0  0  0  0
   -0.0608   11.8645   10.1041 O   0  0  0  0  0  0  0  0  0  0  0  0
   -0.0683   11.1454    5.9128 C   0  0  2  0  0  0  0  0  0  0  0  0
   -0.4957   10.6826    4.6282 N   0  0  0  0  0  0  0  0  0  0  0  0
   -1.9110   13.1375    4.3321 C   0  0  2  0  0  0  0  0  0  0  0  0
    1.3055   12.2480   12.0547 C   0  0  2  0  0  0  0  0  0  0  0  0
    0.2312   11.7253   12.8924 N   0  0  0  0  0  0  0  0  0  0  0  0
    0.0749    9.8929    6.8723 C   0  0  0  0  0  0  0  0  0  0  0  0
   -1.7992   14.5694    3.7188 C   0  0  2  0  0  0  0  0  0  0  0  0
   -0.4337   14.9220    3.6583 O   0  0  0  0  0  0  0  0  0  0  0  0
    1.1867   13.8177   11.9097 C   0  0  0  0  0  0  0  0  0  0  0  0
    0.5427   10.3988    8.2881 C   0  0  2  0  0  0  0  0  0  0  0  0
    0.6723    9.2388    9.1866 N   0  0  0  0  0  0  0  0  0  0  0  0
   -2.5932   15.5467    4.6666 C   0  0  1  0  0  0  0  0  0  0  0  0
   -2.5052   16.9479    4.1376 N   0  0  0  0  0  0  0  0  0  0  0  0
    1.9355   14.3626   10.6206 C   0  0  0  0  0  0  0  0  0  0  0  0
   -0.5212   11.4307    8.8706 C   0  0  2  0  0  0  0  0  0  0  0  0
   -4.1531   15.0725    4.6846 C   0  0  1  0  0  0  0  0  0  0  0  0
   -4.7303   15.0716    3.3899 O   0  0  0  0  0  0  0  0  0  0  0  0
    2.4173   13.5108    9.6772 C   0  0  2  0  0  0  0  0  0  0  0  0
    2.2829   12.0888    9.7845 O   0  0  0  0  0  0  0  0  0  0  0  0
   -0.6507   12.6581    7.8945 C   0  0  2  0  0  0  0  0  0  0  0  0
   -1.6241   13.5832    8.4250 O   0  0  0  0  0  0  0  0  0  0  0  0
   -4.2585   13.6122    5.2327 C   0  0  0  0  0  0  0  0  0  0  0  0
   -3.3644   12.7116    4.4219 O   0  0  0  0  0  0  0  0  0  0  0  0
    3.1476   13.9874    8.4202 C   0  0  0  0  0  0  0  0  0  0  0  0
    2.4685   13.4337    7.2685 O   0  0  0  0  0  0  0  0  0  0  0  0
   -1.1402   12.1362    6.4933 C   0  0  1  0  0  0  0  0  0  0  0  0
   -1.2712   13.2342    5.6460 O   0  0  0  0  0  0  0  0  0  0  0  0
   -5.0858   15.9302    5.5734 C   0  0  0  0  0  0  0  0  0  0  0  0
   -2.3008   18.0200    5.1331 C   0  0  0  0  0  0  0  0  0  0  0  0
  1  2  1  6  0  0  0
  1  6  1  0  0  0  0
  1 21  1  0  0  0  0
  3  4  1  6  0  0  0
  3  8  1  0  0  0  0
  3 28  1  0  0  0  0
  5  9  1  0  0  0  0
  5 25  1  0  0  0  0
  5 29  1  1  0  0  0
  6  7  1  1  0  0  0
  6 11  1  0  0  0  0
  8 12  1  0  0  0  0
  9 10  1  1  0  0  0
  9 14  1  0  0  0  0
 11 16  1  0  0  0  0
 12 13  1  1  0  0  0
 12 17  1  0  0  0  0
 14 15  1  6  0  0  0
 14 18  1  0  0  0  0
 15 31  1  0  0  0  0
 16 20  1  0  0  0  0
 17  2  1  1  0  0  0
 17 22  1  0  0  0  0
 18 19  1  6  0  0  0
 18 24  1  0  0  0  0
 18 30  1  0  0  0  0
 20 21  1  0  0  0  0
 20 26  1  1  0  0  0
 22 23  1  1  0  0  0
 22 28  1  0  0  0  0
 24 25  1  0  0  0  0
 26 27  1  0  0  0  0
 28 29  1  6  0  0  0
M  END
>  <CHROM.1>
-179.62259027,-178.25482521,-138.92170232,7.61214008,-124.93964182,71.30790372
-0.70623483,13.20937981,7.21581062,0.13717005,0.97575427,-2.84905277

>  <Name>
ligand

>  <RI>
0

>  <Rbt.Current_Directory>
/home/itssahil/PROJECTS/Mol_Feturizer/New_Systems/rnas/4GPX

>  <Rbt.Executable>
rbdock ($Id: //depot/dev/client3/rdock/2013.1/src/exe/rbdock.cxx#4 $)

>  <Rbt.Library>
libRbt.so (2013.1, Build901 2013/11/27)

>  <Rbt.Parameter_File>
/export/apps/rDock/src/rDock_2013.1_src/data/scripts/dock_solv.prm

>  <Rbt.Receptor>
prm/pocket_docking_4.prm

>  <SCORE>
-8.22525

>  <SCORE.INTER>
-4.99112

>  <SCORE.INTER.CONST>
1

>  <SCORE.INTER.POLAR>
0

>  <SCORE.INTER.ROT>
6

>  <SCORE.INTER.SOLV>
13.3742

>  <SCORE.INTER.VDW>
-15.3855

>  <SCORE.INTER.norm>
-0.161004

>  <SCORE.INTRA>
-3.23414

>  <SCORE.INTRA.DIHEDRAL>
-10.489

>  <SCORE.INTRA.DIHEDRAL.0>
20.6841

>  <SCORE.INTRA.POLAR>
0

>  <SCORE.INTRA.POLAR.0>
0

>  <SCORE.INTRA.REPUL>
0.00808513

>  <SCORE.INTRA.REPUL.0>
0

>  <SCORE.INTRA.SOLV>
0.055535

>  <SCORE.INTRA.SOLV.lig_0>
-64.6797

>  <SCORE.INTRA.VDW>
1.94218

>  <SCORE.INTRA.VDW.0>
-4.11825

>  <SCORE.INTRA.norm>
-0.104327

>  <SCORE.RESTR>
0

>  <SCORE.RESTR.CAVITY>
0

>  <SCORE.RESTR.norm>
0

>  <SCORE.SYSTEM>
0

>  <SCORE.SYSTEM.CONST>
0

>  <SCORE.SYSTEM.DIHEDRAL>
0

>  <SCORE.SYSTEM.SOLV>
0

>  <SCORE.SYSTEM.norm>
0

>  <SCORE.heavy>
31

>  <SCORE.norm>
-0.265331

>  <RMSD>
8.172

$$$$
ligand
 OpenBabel11021811493D
libRbt.so/2013.1/901 2013/11/27
 31 33  0  0  0  0  0  0  0  0999 V2000
   -0.9254   11.5575    8.8544 C   0  0  2  0  0  0  0  0  0  0  0  0
   -0.5143   12.5267    9.8141 O   0  0  0  0  0  0  0  0  0  0  0  0
    1.2195   16.4069    9.6655 C   0  0  2  0  0  0  0  0  0  0  0  0
    2.1872   17.4408    9.4623 N   0  0  0  0  0  0  0  0  0  0  0  0
    1.3300   17.3587    6.5028 C   0  0  2  0  0  0  0  0  0  0  0  0
   -2.2520   10.9016    9.4165 C   0  0  2  0  0  0  0  0  0  0  0  0
   -3.2525   11.9483    9.5973 N   0  0  0  0  0  0  0  0  0  0  0  0
    1.7966   15.3852   10.7299 C   0  0  0  0  0  0  0  0  0  0  0  0
    0.3637   18.1278    5.5471 C   0  0  2  0  0  0  0  0  0  0  0  0
   -0.5139   18.9053    6.3332 O   0  0  0  0  0  0  0  0  0  0  0  0
   -1.9640   10.1625   10.7839 C   0  0  0  0  0  0  0  0  0  0  0  0
    0.7349   14.2442   10.9542 C   0  0  2  0  0  0  0  0  0  0  0  0
    1.2684   13.2878   11.9393 N   0  0  0  0  0  0  0  0  0  0  0  0
   -0.4288   17.0482    4.7163 C   0  0  1  0  0  0  0  0  0  0  0  0
   -1.3922   17.7293    3.7895 N   0  0  0  0  0  0  0  0  0  0  0  0
   -0.5513    9.4389   10.7924 C   0  0  0  0  0  0  0  0  0  0  0  0
    0.4372   13.5061    9.5750 C   0  0  2  0  0  0  0  0  0  0  0  0
    0.6509   16.1946    3.8422 C   0  0  1  0  0  0  0  0  0  0  0  0
    1.4112   17.0175    2.9738 O   0  0  0  0  0  0  0  0  0  0  0  0
    0.3494    9.6479    9.7960 C   0  0  2  0  0  0  0  0  0  0  0  0
    0.0853   10.5204    8.6913 O   0  0  0  0  0  0  0  0  0  0  0  0
   -0.1247   14.5443    8.5345 C   0  0  2  0  0  0  0  0  0  0  0  0
   -0.3822   13.8690    7.2847 O   0  0  0  0  0  0  0  0  0  0  0  0
    1.6622   15.4807    4.7969 C   0  0  0  0  0  0  0  0  0  0  0  0
    2.2950   16.5028    5.7040 O   0  0  0  0  0  0  0  0  0  0  0  0
    1.7215    8.9721    9.7588 C   0  0  0  0  0  0  0  0  0  0  0  0
    2.7325   10.0005    9.8796 O   0  0  0  0  0  0  0  0  0  0  0  0
    0.9578   15.6632    8.3068 C   0  0  1  0  0  0  0  0  0  0  0  0
    0.4569   16.5630    7.3687 O   0  0  0  0  0  0  0  0  0  0  0  0
    0.0399   15.0808    2.9580 C   0  0  0  0  0  0  0  0  0  0  0  0
   -2.7193   18.0658    4.3442 C   0  0  0  0  0  0  0  0  0  0  0  0
  1  2  1  1  0  0  0
  1  6  1  0  0  0  0
  1 21  1  0  0  0  0
  3  4  1  6  0  0  0
  3  8  1  0  0  0  0
  3 28  1  0  0  0  0
  5  9  1  0  0  0  0
  5 25  1  0  0  0  0
  5 29  1  1  0  0  0
  6  7  1  1  0  0  0
  6 11  1  0  0  0  0
  8 12  1  0  0  0  0
  9 10  1  1  0  0  0
  9 14  1  0  0  0  0
 11 16  1  0  0  0  0
 12 13  1  1  0  0  0
 12 17  1  0  0  0  0
 14 15  1  6  0  0  0
 14 18  1  0  0  0  0
 15 31  1  0  0  0  0
 16 20  1  0  0  0  0
 17  2  1  1  0  0  0
 17 22  1  0  0  0  0
 18 19  1  6  0  0  0
 18 24  1  0  0  0  0
 18 30  1  0  0  0  0
 20 21  1  0  0  0  0
 20 26  1  6  0  0  0
 22 23  1  6  0  0  0
 22 28  1  0  0  0  0
 24 25  1  0  0  0  0
 26 27  1  0  0  0  0
 28 29  1  6  0  0  0
M  END
>  <CHROM.1>
-166.00965320,175.59078094,-86.34975228,-172.60243710,-115.39003155,88.18815262
0.22532847,14.32991378,7.79466023,1.61715816,1.04662781,2.41686553

>  <Name>
ligand

>  <RI>
0

>  <Rbt.Current_Directory>
/home/itssahil/PROJECTS/Mol_Feturizer/New_Systems/rnas/4GPX

>  <Rbt.Executable>
rbdock ($Id: //depot/dev/client3/rdock/2013.1/src/exe/rbdock.cxx#4 $)

>  <Rbt.Library>
libRbt.so (2013.1, Build901 2013/11/27)

>  <Rbt.Parameter_File>
/export/apps/rDock/src/rDock_2013.1_src/data/scripts/dock_solv.prm

>  <Rbt.Receptor>
prm/pocket_docking_7.prm

>  <SCORE>
-14.4727

>  <SCORE.INTER>
-7.06568

>  <SCORE.INTER.CONST>
1

>  <SCORE.INTER.POLAR>
0

>  <SCORE.INTER.ROT>
6

>  <SCORE.INTER.SOLV>
9.91727

>  <SCORE.INTER.VDW>
-15.6162

>  <SCORE.INTER.norm>
-0.227925

>  <SCORE.INTRA>
-7.407

>  <SCORE.INTRA.DIHEDRAL>
-13.9376

>  <SCORE.INTRA.DIHEDRAL.0>
20.6841

>  <SCORE.INTRA.POLAR>
0

>  <SCORE.INTRA.POLAR.0>
0

>  <SCORE.INTRA.REPUL>
0

>  <SCORE.INTRA.REPUL.0>
0

>  <SCORE.INTRA.SOLV>
-1.70214

>  <SCORE.INTRA.SOLV.lig_0>
-64.6797

>  <SCORE.INTRA.VDW>
0.412857

>  <SCORE.INTRA.VDW.0>
-4.11825

>  <SCORE.INTRA.norm>
-0.238936

>  <SCORE.RESTR>
0

>  <SCORE.RESTR.CAVITY>
0

>  <SCORE.RESTR.norm>
0

>  <SCORE.SYSTEM>
0

>  <SCORE.SYSTEM.CONST>
0

>  <SCORE.SYSTEM.DIHEDRAL>
0

>  <SCORE.SYSTEM.SOLV>
0

>  <SCORE.SYSTEM.norm>
0

>  <SCORE.heavy>
31

>  <SCORE.norm>
-0.466861

>  <RMSD>
8.172

$$$$
ligand
 OpenBabel11021811493D
libRbt.so/2013.1/901 2013/11/27
 31 33  0  0  0  0  0  0  0  0999 V2000
   -0.2553    9.8393    5.7798 C   0  0  2  0  0  0  0  0  0  0  0  0
    0.6406   10.7090    5.0941 O   0  0  0  0  0  0  0  0  0  0  0  0
    0.3880   14.6293    3.4657 C   0  0  2  0  0  0  0  0  0  0  0  0
    0.0228   15.7021    2.5924 N   0  0  0  0  0  0  0  0  0  0  0  0
   -2.4744   15.9582    4.2254 C   0  0  2  0  0  0  0  0  0  0  0  0
    0.6242    8.9847    6.7808 C   0  0  2  0  0  0  0  0  0  0  0  0
    1.3096    9.8924    7.6950 N   0  0  0  0  0  0  0  0  0  0  0  0
    1.1443   13.5280    2.6142 C   0  0  0  0  0  0  0  0  0  0  0  0
   -2.9728   16.8535    5.4038 C   0  0  2  0  0  0  0  0  0  0  0  0
   -1.8477   17.4332    6.0288 O   0  0  0  0  0  0  0  0  0  0  0  0
    1.6666    8.1036    5.9833 C   0  0  0  0  0  0  0  0  0  0  0  0
    1.5456   12.3442    3.5718 C   0  0  2  0  0  0  0  0  0  0  0  0
    2.2446   11.3142    2.7844 N   0  0  0  0  0  0  0  0  0  0  0  0
   -3.7542   15.9182    6.4030 C   0  0  1  0  0  0  0  0  0  0  0  0
   -4.2430   16.7218    7.5719 N   0  0  0  0  0  0  0  0  0  0  0  0
    1.0628    7.5309    4.6316 C   0  0  0  0  0  0  0  0  0  0  0  0
    0.2403   11.7305    4.2466 C   0  0  2  0  0  0  0  0  0  0  0  0
   -5.0308   15.2884    5.6080 C   0  0  1  0  0  0  0  0  0  0  0  0
   -5.8954   16.2899    5.0993 O   0  0  0  0  0  0  0  0  0  0  0  0
   -0.1394    7.9595    4.1638 C   0  0  2  0  0  0  0  0  0  0  0  0
   -0.9265    8.9398    4.8501 O   0  0  0  0  0  0  0  0  0  0  0  0
   -0.4957   12.8464    5.0767 C   0  0  2  0  0  0  0  0  0  0  0  0
   -1.6825   12.2841    5.6765 O   0  0  0  0  0  0  0  0  0  0  0  0
   -4.5347   14.4493    4.3859 C   0  0  0  0  0  0  0  0  0  0  0  0
   -3.6498   15.3073    3.5206 O   0  0  0  0  0  0  0  0  0  0  0  0
   -0.7634    7.4359    2.8688 C   0  0  0  0  0  0  0  0  0  0  0  0
   -1.6448    6.3387    3.2061 O   0  0  0  0  0  0  0  0  0  0  0  0
   -0.9082   14.0090    4.1001 C   0  0  1  0  0  0  0  0  0  0  0  0
   -1.5770   14.9792    4.8431 O   0  0  0  0  0  0  0  0  0  0  0  0
   -5.9175   14.3369    6.4472 C   0  0  0  0  0  0  0  0  0  0  0  0
   -3.3506   16.7916    8.7470 C   0  0  0  0  0  0  0  0  0  0  0  0
  1  2  1  6  0  0  0
  1  6  1  0  0  0  0
  1 21  1  0  0  0  0
  3  4  1  6  0  0  0
  3  8  1  0  0  0  0
  3 28  1  0  0  0  0
  5  9  1  0  0  0  0
  5 25  1  0  0  0  0
  5 29  1  1  0  0  0
  6  7  1  1  0  0  0
  6 11  1  0  0  0  0
  8 12  1  0  0  0  0
  9 10  1  1  0  0  0
  9 14  1  0  0  0  0
 11 16  1  0  0  0  0
 12 13  1  6  0  0  0
 12 17  1  0  0  0  0
 14 15  1  1  0  0  0
 14 18  1  0  0  0  0
 15 31  1  0  0  0  0
 16 20  1  0  0  0  0
 17  2  1  1  0  0  0
 17 22  1  0  0  0  0
 18 19  1  6  0  0  0
 18 24  1  0  0  0  0
 18 30  1  0  0  0  0
 20 21  1  0  0  0  0
 20 26  1  1  0  0  0
 22 23  1  6  0  0  0
 22 28  1  0  0  0  0
 24 25  1  0  0  0  0
 26 27  1  0  0  0  0
 28 29  1  1  0  0  0
M  END
>  <CHROM.1>
-171.89996686,-178.87515437,-91.73607786,-173.83399123,93.61618444,82.15332843
-1.36803902,12.72495782,4.95666324,0.99432218,-0.49097028,2.99804445

>  <Name>
ligand

>  <RI>
0

>  <Rbt.Current_Directory>
/home/itssahil/PROJECTS/Mol_Feturizer/New_Systems/rnas/4GPX

>  <Rbt.Executable>
rbdock ($Id: //depot/dev/client3/rdock/2013.1/src/exe/rbdock.cxx#4 $)

>  <Rbt.Library>
libRbt.so (2013.1, Build901 2013/11/27)

>  <Rbt.Parameter_File>
/export/apps/rDock/src/rDock_2013.1_src/data/scripts/dock_solv.prm

>  <Rbt.Receptor>
prm/pocket_docking_8.prm

>  <SCORE>
-15.5568

>  <SCORE.INTER>
-7.71022

>  <SCORE.INTER.CONST>
1

>  <SCORE.INTER.POLAR>
0

>  <SCORE.INTER.ROT>
6

>  <SCORE.INTER.SOLV>
14.3083

>  <SCORE.INTER.VDW>
-17.5096

>  <SCORE.INTER.norm>
-0.248717

>  <SCORE.INTRA>
-7.84661

>  <SCORE.INTRA.DIHEDRAL>
-14.8856

>  <SCORE.INTRA.DIHEDRAL.0>
20.6841

>  <SCORE.INTRA.POLAR>
0

>  <SCORE.INTRA.POLAR.0>
0

>  <SCORE.INTRA.REPUL>
0

>  <SCORE.INTRA.REPUL.0>
0

>  <SCORE.INTRA.SOLV>
-2.06447

>  <SCORE.INTRA.SOLV.lig_0>
-64.6797

>  <SCORE.INTRA.VDW>
0.628427

>  <SCORE.INTRA.VDW.0>
-4.11825

>  <SCORE.INTRA.norm>
-0.253116

>  <SCORE.RESTR>
0

>  <SCORE.RESTR.CAVITY>
0

>  <SCORE.RESTR.norm>
0

>  <SCORE.SYSTEM>
0

>  <SCORE.SYSTEM.CONST>
0

>  <SCORE.SYSTEM.DIHEDRAL>
0

>  <SCORE.SYSTEM.SOLV>
0

>  <SCORE.SYSTEM.norm>
0

>  <SCORE.heavy>
31

>  <SCORE.norm>
-0.501833

>  <RMSD>
8.176

$$$$
ligand
 OpenBabel11021811493D
libRbt.so/2013.1/901 2013/11/27
 31 33  0  0  0  0  0  0  0  0999 V2000
    0.2457   13.8354   10.7548 C   0  0  2  0  0  0  0  0  0  0  0  0
   -0.8733   12.9976   10.4805 O   0  0  0  0  0  0  0  0  0  0  0  0
   -3.9658   13.0706    7.5624 C   0  0  2  0  0  0  0  0  0  0  0  0
   -5.1631   13.4562    6.8807 N   0  0  0  0  0  0  0  0  0  0  0  0
   -3.6263   15.3174    5.4355 C   0  0  2  0  0  0  0  0  0  0  0  0
    1.4404   12.8757   11.1516 C   0  0  2  0  0  0  0  0  0  0  0  0
    1.7000   11.9660   10.0406 N   0  0  0  0  0  0  0  0  0  0  0  0
   -4.3517   12.6149    9.0299 C   0  0  0  0  0  0  0  0  0  0  0  0
   -2.8250   15.6437    4.1355 C   0  0  2  0  0  0  0  0  0  0  0  0
   -2.2735   14.4426    3.6396 O   0  0  0  0  0  0  0  0  0  0  0  0
    1.0853   12.0678   12.4631 C   0  0  0  0  0  0  0  0  0  0  0  0
   -3.0358   12.1921    9.7842 C   0  0  2  0  0  0  0  0  0  0  0  0
   -3.3877   11.7724   11.1516 N   0  0  0  0  0  0  0  0  0  0  0  0
   -1.6913   16.6651    4.5296 C   0  0  1  0  0  0  0  0  0  0  0  0
   -0.8712   17.0031    3.3195 N   0  0  0  0  0  0  0  0  0  0  0  0
    0.2736   12.9432   13.5094 C   0  0  0  0  0  0  0  0  0  0  0  0
   -2.0216   13.4189    9.8282 C   0  0  2  0  0  0  0  0  0  0  0  0
   -2.4068   18.0175    5.0928 C   0  0  1  0  0  0  0  0  0  0  0  0
   -3.2802   18.6008    4.1408 O   0  0  0  0  0  0  0  0  0  0  0  0
   -0.2157   14.1653   13.1708 C   0  0  2  0  0  0  0  0  0  0  0  0
   -0.0327   14.7331   11.8686 O   0  0  0  0  0  0  0  0  0  0  0  0
   -1.6635   13.8569    8.3598 C   0  0  2  0  0  0  0  0  0  0  0  0
   -0.7520   14.9755    8.4092 O   0  0  0  0  0  0  0  0  0  0  0  0
   -3.2664   17.6785    6.3538 C   0  0  0  0  0  0  0  0  0  0  0  0
   -4.2386   16.5805    6.0116 O   0  0  0  0  0  0  0  0  0  0  0  0
   -1.0011   15.0464   14.1441 C   0  0  0  0  0  0  0  0  0  0  0  0
   -0.3482   16.3363   14.2098 O   0  0  0  0  0  0  0  0  0  0  0  0
   -2.9862   14.2966    7.6301 C   0  0  1  0  0  0  0  0  0  0  0  0
   -2.6523   14.7018    6.3397 O   0  0  0  0  0  0  0  0  0  0  0  0
   -1.4323   19.1380    5.5295 C   0  0  0  0  0  0  0  0  0  0  0  0
    0.3320   16.1791    3.0838 C   0  0  0  0  0  0  0  0  0  0  0  0
  1  2  1  1  0  0  0
  1  6  1  0  0  0  0
  1 21  1  0  0  0  0
  3  4  1  6  0  0  0
  3  8  1  0  0  0  0
  3 28  1  0  0  0  0
  5  9  1  0  0  0  0
  5 25  1  0  0  0  0
  5 29  1  1  0  0  0
  6  7  1  6  0  0  0
  6 11  1  0  0  0  0
  8 12  1  0  0  0  0
  9 10  1  1  0  0  0
  9 14  1  0  0  0  0
 11 16  1  0  0  0  0
 12 13  1  1  0  0  0
 12 17  1  0  0  0  0
 14 15  1  6  0  0  0
 14 18  1  0  0  0  0
 15 31  1  0  0  0  0
 16 20  1  0  0  0  0
 17  2  1  6  0  0  0
 17 22  1  0  0  0  0
 18 19  1  6  0  0  0
 18 24  1  0  0  0  0
 18 30  1  0  0  0  0
 20 21  1  0  0  0  0
 20 26  1  1  0  0  0
 22 23  1  1  0  0  0
 22 28  1  0  0  0  0
 24 25  1  0  0  0  0
 26 27  1  0  0  0  0
 28 29  1  6  0  0  0
M  END
>  <CHROM.1>
-165.49662640,178.42377757,-92.26034844,-177.69800069,125.10518918,68.38143204
-1.71016847,14.76742702,8.31189924,-1.22663673,-0.73396113,-0.94789454

>  <Name>
ligand

>  <RI>
0

>  <Rbt.Current_Directory>
/home/itssahil/PROJECTS/Mol_Feturizer/New_Systems/rnas/4GPX

>  <Rbt.Executable>
rbdock ($Id: //depot/dev/client3/rdock/2013.1/src/exe/rbdock.cxx#4 $)

>  <Rbt.Library>
libRbt.so (2013.1, Build901 2013/11/27)

>  <Rbt.Parameter_File>
/export/apps/rDock/src/rDock_2013.1_src/data/scripts/dock_solv.prm

>  <Rbt.Receptor>
prm/pocket_docking_6.prm

>  <SCORE>
-16.7862

>  <SCORE.INTER>
-8.65587

>  <SCORE.INTER.CONST>
1

>  <SCORE.INTER.POLAR>
0

>  <SCORE.INTER.ROT>
6

>  <SCORE.INTER.SOLV>
11.5346

>  <SCORE.INTER.VDW>
-17.2154

>  <SCORE.INTER.norm>
-0.279221

>  <SCORE.INTRA>
-8.13034

>  <SCORE.INTRA.DIHEDRAL>
-16.9186

>  <SCORE.INTRA.DIHEDRAL.0>
20.6841

>  <SCORE.INTRA.POLAR>
0

>  <SCORE.INTRA.POLAR.0>
0

>  <SCORE.INTRA.REPUL>
0

>  <SCORE.INTRA.REPUL.0>
0

>  <SCORE.INTRA.SOLV>
-1.73157

>  <SCORE.INTRA.SOLV.lig_0>
-64.6797

>  <SCORE.INTRA.VDW>
1.19477

>  <SCORE.INTRA.VDW.0>
-4.11825

>  <SCORE.INTRA.norm>
-0.262269

>  <SCORE.RESTR>
0

>  <SCORE.RESTR.CAVITY>
0

>  <SCORE.RESTR.norm>
0

>  <SCORE.SYSTEM>
0

>  <SCORE.SYSTEM.CONST>
0

>  <SCORE.SYSTEM.DIHEDRAL>
0

>  <SCORE.SYSTEM.SOLV>
0

>  <SCORE.SYSTEM.norm>
0

>  <SCORE.heavy>
31

>  <SCORE.norm>
-0.54149

>  <RMSD>
8.184

$$$$
ligand
 OpenBabel11021811493D
libRbt.so/2013.1/901 2013/11/27
 31 33  0  0  0  0  0  0  0  0999 V2000
    0.2262   13.8017   10.7974 C   0  0  2  0  0  0  0  0  0  0  0  0
   -0.8923   12.9685   10.5075 O   0  0  0  0  0  0  0  0  0  0  0  0
   -3.9742   13.0689    7.5790 C   0  0  2  0  0  0  0  0  0  0  0  0
   -5.1670   13.4635    6.8946 N   0  0  0  0  0  0  0  0  0  0  0  0
   -3.6175   15.3140    5.4587 C   0  0  2  0  0  0  0  0  0  0  0  0
    1.4098   12.8374   11.2158 C   0  0  2  0  0  0  0  0  0  0  0  0
    1.6827   11.9234   10.1116 N   0  0  0  0  0  0  0  0  0  0  0  0
   -4.3676   12.6098    9.0434 C   0  0  0  0  0  0  0  0  0  0  0  0
   -2.8141   15.6255    4.1563 C   0  0  2  0  0  0  0  0  0  0  0  0
   -2.2715   14.4170    3.6687 O   0  0  0  0  0  0  0  0  0  0  0  0
    1.0299   12.0349   12.5237 C   0  0  0  0  0  0  0  0  0  0  0  0
   -3.0566   12.1772    9.8007 C   0  0  2  0  0  0  0  0  0  0  0  0
   -3.4155   11.7543   11.1652 N   0  0  0  0  0  0  0  0  0  0  0  0
   -1.6729   16.6412    4.5430 C   0  0  1  0  0  0  0  0  0  0  0  0
   -0.8505   16.9648    3.3306 N   0  0  0  0  0  0  0  0  0  0  0  0
    0.2058   12.9171   13.5545 C   0  0  0  0  0  0  0  0  0  0  0  0
   -2.0361   13.3984    9.8528 C   0  0  2  0  0  0  0  0  0  0  0  0
   -2.3783   18.0027    5.0971 C   0  0  1  0  0  0  0  0  0  0  0  0
   -3.2476   18.5858    4.1412 O   0  0  0  0  0  0  0  0  0  0  0  0
   -0.2722   14.1406   13.2048 C   0  0  2  0  0  0  0  0  0  0  0  0
   -0.0657   14.7039   11.9042 O   0  0  0  0  0  0  0  0  0  0  0  0
   -1.6705   13.8399    8.3873 C   0  0  2  0  0  0  0  0  0  0  0  0
   -0.7532   14.9534    8.4440 O   0  0  0  0  0  0  0  0  0  0  0  0
   -3.2400   17.6787    6.3606 C   0  0  0  0  0  0  0  0  0  0  0  0
   -4.2203   16.5855    6.0261 O   0  0  0  0  0  0  0  0  0  0  0  0
   -1.0688   15.0282   14.1630 C   0  0  0  0  0  0  0  0  0  0  0  0
   -0.3049   16.2347   14.3981 O   0  0  0  0  0  0  0  0  0  0  0  0
   -2.9882   14.2894    7.6546 C   0  0  1  0  0  0  0  0  0  0  0  0
   -2.6478   14.6976    6.3669 O   0  0  0  0  0  0  0  0  0  0  0  0
   -1.3955   19.1190    5.5257 C   0  0  0  0  0  0  0  0  0  0  0  0
    0.3427   16.1259    3.0965 C   0  0  0  0  0  0  0  0  0  0  0  0
  1  2  1  1  0  0  0
  1  6  1  0  0  0  0
  1 21  1  0  0  0  0
  3  4  1  6  0  0  0
  3  8  1  0  0  0  0
  3 28  1  0  0  0  0
  5  9  1  0  0  0  0
  5 25  1  0  0  0  0
  5 29  1  1  0  0  0
  6  7  1  6  0  0  0
  6 11  1  0  0  0  0
  8 12  1  0  0  0  0
  9 10  1  1  0  0  0
  9 14  1  0  0  0  0
 11 16  1  0  0  0  0
 12 13  1  1  0  0  0
 12 17  1  0  0  0  0
 14 15  1  6  0  0  0
 14 18  1  0  0  0  0
 15 31  1  0  0  0  0
 16 20  1  0  0  0  0
 17  2  1  6  0  0  0
 17 22  1  0  0  0  0
 18 19  1  6  0  0  0
 18 24  1  0  0  0  0
 18 30  1  0  0  0  0
 20 21  1  0  0  0  0
 20 26  1  1  0  0  0
 22 23  1  1  0  0  0
 22 28  1  0  0  0  0
 24 25  1  0  0  0  0
 26 27  1  0  0  0  0
 28 29  1  6  0  0  0
M  END
>  <CHROM.1>
-166.47144613,179.19959067,-91.95697354,-177.22109686,116.34913625,67.98455985
-1.71628621,14.74490660,8.34255384,-1.23618041,-0.73474685,-0.95599646

>  <Name>
ligand

>  <RI>
0

>  <Rbt.Current_Directory>
/home/itssahil/PROJECTS/Mol_Feturizer/New_Systems/rnas/4GPX

>  <Rbt.Executable>
rbdock ($Id: //depot/dev/client3/rdock/2013.1/src/exe/rbdock.cxx#4 $)

>  <Rbt.Library>
libRbt.so (2013.1, Build901 2013/11/27)

>  <Rbt.Parameter_File>
/export/apps/rDock/src/rDock_2013.1_src/data/scripts/dock_solv.prm

>  <Rbt.Receptor>
prm/pocket_docking_7.prm

>  <SCORE>
-16.7367

>  <SCORE.INTER>
-8.49377

>  <SCORE.INTER.CONST>
1

>  <SCORE.INTER.POLAR>
0

>  <SCORE.INTER.ROT>
6

>  <SCORE.INTER.SOLV>
11.6684

>  <SCORE.INTER.VDW>
-17.152

>  <SCORE.INTER.norm>
-0.273993

>  <SCORE.INTRA>
-8.24297

>  <SCORE.INTRA.DIHEDRAL>
-17.0954

>  <SCORE.INTRA.DIHEDRAL.0>
20.6841

>  <SCORE.INTRA.POLAR>
0

>  <SCORE.INTRA.POLAR.0>
0

>  <SCORE.INTRA.REPUL>
0

>  <SCORE.INTRA.REPUL.0>
0

>  <SCORE.INTRA.SOLV>
-1.75008

>  <SCORE.INTRA.SOLV.lig_0>
-64.6797

>  <SCORE.INTRA.VDW>
1.17975

>  <SCORE.INTRA.VDW.0>
-4.11825

>  <SCORE.INTRA.norm>
-0.265902

>  <SCORE.RESTR>
0

>  <SCORE.RESTR.CAVITY>
0

>  <SCORE.RESTR.norm>
0

>  <SCORE.SYSTEM>
0

>  <SCORE.SYSTEM.CONST>
0

>  <SCORE.SYSTEM.DIHEDRAL>
0

>  <SCORE.SYSTEM.SOLV>
0

>  <SCORE.SYSTEM.norm>
0

>  <SCORE.heavy>
31

>  <SCORE.norm>
-0.539895

>  <RMSD>
8.185

$$$$
ligand
 OpenBabel11021811493D
libRbt.so/2013.1/901 2013/11/27
 31 33  0  0  0  0  0  0  0  0999 V2000
    0.2529   13.8177   10.7701 C   0  0  2  0  0  0  0  0  0  0  0  0
   -0.8501   12.9663   10.4738 O   0  0  0  0  0  0  0  0  0  0  0  0
   -3.9322   13.0257    7.5444 C   0  0  2  0  0  0  0  0  0  0  0  0
   -5.1311   13.4028    6.8609 N   0  0  0  0  0  0  0  0  0  0  0  0
   -3.6111   15.2867    5.4331 C   0  0  2  0  0  0  0  0  0  0  0  0
    1.4564   12.8718   11.1737 C   0  0  2  0  0  0  0  0  0  0  0  0
    1.7434   11.9761   10.0581 N   0  0  0  0  0  0  0  0  0  0  0  0
   -4.3185   12.5551    9.0071 C   0  0  0  0  0  0  0  0  0  0  0  0
   -2.8117   15.6191    4.1335 C   0  0  2  0  0  0  0  0  0  0  0  0
   -2.2493   14.4226    3.6389 O   0  0  0  0  0  0  0  0  0  0  0  0
    1.0963   12.0470   12.4733 C   0  0  0  0  0  0  0  0  0  0  0  0
   -3.0007   12.1416    9.7634 C   0  0  2  0  0  0  0  0  0  0  0  0
   -3.3531   11.7083   11.1264 N   0  0  0  0  0  0  0  0  0  0  0  0
   -1.6873   16.6506    4.5277 C   0  0  1  0  0  0  0  0  0  0  0  0
   -0.8692   16.9950    3.3181 N   0  0  0  0  0  0  0  0  0  0  0  0
    0.2586   12.9009   13.5167 C   0  0  0  0  0  0  0  0  0  0  0  0
   -2.0006   13.3794    9.8201 C   0  0  2  0  0  0  0  0  0  0  0  0
   -2.4150   17.9972    5.0895 C   0  0  1  0  0  0  0  0  0  0  0  0
   -3.2927   18.5721    4.1364 O   0  0  0  0  0  0  0  0  0  0  0  0
   -0.2442   14.1188   13.1827 C   0  0  2  0  0  0  0  0  0  0  0  0
   -0.0529   14.7011   11.8881 O   0  0  0  0  0  0  0  0  0  0  0  0
   -1.6418   13.8319    8.3563 C   0  0  2  0  0  0  0  0  0  0  0  0
   -0.7431   14.9603    8.4171 O   0  0  0  0  0  0  0  0  0  0  0  0
   -3.2726   17.6514    6.3501 C   0  0  0  0  0  0  0  0  0  0  0  0
   -4.2348   16.5447    6.0079 O   0  0  0  0  0  0  0  0  0  0  0  0
   -1.0548   14.9796   14.1536 C   0  0  0  0  0  0  0  0  0  0  0  0
   -0.3759   16.2488   14.3036 O   0  0  0  0  0  0  0  0  0  0  0  0
   -2.9666   14.2621    7.6246 C   0  0  1  0  0  0  0  0  0  0  0  0
   -2.6325   14.6802    6.3385 O   0  0  0  0  0  0  0  0  0  0  0  0
   -1.4507   19.1264    5.5261 C   0  0  0  0  0  0  0  0  0  0  0  0
    0.3385   16.1780    3.0809 C   0  0  0  0  0  0  0  0  0  0  0  0
  1  2  1  1  0  0  0
  1  6  1  0  0  0  0
  1 21  1  0  0  0  0
  3  4  1  6  0  0  0
  3  8  1  0  0  0  0
  3 28  1  0  0  0  0
  5  9  1  0  0  0  0
  5 25  1  0  0  0  0
  5 29  1  1  0  0  0
  6  7  1  6  0  0  0
  6 11  1  0  0  0  0
  8 12  1  0  0  0  0
  9 10  1  1  0  0  0
  9 14  1  0  0  0  0
 11 16  1  0  0  0  0
 12 13  1  1  0  0  0
 12 17  1  0  0  0  0
 14 15  1  6  0  0  0
 14 18  1  0  0  0  0
 15 31  1  0  0  0  0
 16 20  1  0  0  0  0
 17  2  1  6  0  0  0
 17 22  1  0  0  0  0
 18 19  1  6  0  0  0
 18 24  1  0  0  0  0
 18 30  1  0  0  0  0
 20 21  1  0  0  0  0
 20 26  1  1  0  0  0
 22 23  1  1  0  0  0
 22 28  1  0  0  0  0
 24 25  1  0  0  0  0
 26 27  1  0  0  0  0
 28 29  1  6  0  0  0
M  END
>  <CHROM.1>
-166.04716688,179.01269309,-92.02873901,-177.05322142,121.59209446,68.13921177
-1.70281323,14.73608281,8.31411023,-1.22587482,-0.74393017,-0.94419530

>  <Name>
ligand

>  <RI>
0

>  <Rbt.Current_Directory>
/home/itssahil/PROJECTS/Mol_Feturizer/New_Systems/rnas/4GPX

>  <Rbt.Executable>
rbdock ($Id: //depot/dev/client3/rdock/2013.1/src/exe/rbdock.cxx#4 $)

>  <Rbt.Library>
libRbt.so (2013.1, Build901 2013/11/27)

>  <Rbt.Parameter_File>
/export/apps/rDock/src/rDock_2013.1_src/data/scripts/dock_solv.prm

>  <Rbt.Receptor>
prm/pocket_docking_7.prm

>  <SCORE>
-16.8029

>  <SCORE.INTER>
-8.59614

>  <SCORE.INTER.CONST>
1

>  <SCORE.INTER.POLAR>
0

>  <SCORE.INTER.ROT>
6

>  <SCORE.INTER.SOLV>
11.613

>  <SCORE.INTER.VDW>
-17.2018

>  <SCORE.INTER.norm>
-0.277295

>  <SCORE.INTRA>
-8.2068

>  <SCORE.INTRA.DIHEDRAL>
-17.0366

>  <SCORE.INTRA.DIHEDRAL.0>
20.6841

>  <SCORE.INTRA.POLAR>
0

>  <SCORE.INTRA.POLAR.0>
0

>  <SCORE.INTRA.REPUL>
0

>  <SCORE.INTRA.REPUL.0>
0

>  <SCORE.INTRA.SOLV>
-1.72546

>  <SCORE.INTRA.SOLV.lig_0>
-64.6797

>  <SCORE.INTRA.VDW>
1.17423

>  <SCORE.INTRA.VDW.0>
-4.11825

>  <SCORE.INTRA.norm>
-0.264735

>  <SCORE.RESTR>
0

>  <SCORE.RESTR.CAVITY>
0

>  <SCORE.RESTR.norm>
0

>  <SCORE.SYSTEM>
0

>  <SCORE.SYSTEM.CONST>
0

>  <SCORE.SYSTEM.DIHEDRAL>
0

>  <SCORE.SYSTEM.SOLV>
0

>  <SCORE.SYSTEM.norm>
0

>  <SCORE.heavy>
31

>  <SCORE.norm>
-0.54203

>  <RMSD>
8.185

$$$$
ligand
 OpenBabel11021811493D
libRbt.so/2013.1/901 2013/11/27
 31 33  0  0  0  0  0  0  0  0999 V2000
    0.2695   13.8417   10.7873 C   0  0  2  0  0  0  0  0  0  0  0  0
   -0.8048   12.9725   10.4412 O   0  0  0  0  0  0  0  0  0  0  0  0
   -3.9190   13.0090    7.5457 C   0  0  2  0  0  0  0  0  0  0  0  0
   -5.1248   13.3815    6.8718 N   0  0  0  0  0  0  0  0  0  0  0  0
   -3.6097   15.2790    5.4208 C   0  0  2  0  0  0  0  0  0  0  0  0
    1.4964   12.9143   11.1623 C   0  0  2  0  0  0  0  0  0  0  0  0
    1.8209   12.0779   10.0115 N   0  0  0  0  0  0  0  0  0  0  0  0
   -4.2898   12.5530    9.0169 C   0  0  0  0  0  0  0  0  0  0  0  0
   -2.8203   15.6098    4.1147 C   0  0  2  0  0  0  0  0  0  0  0  0
   -2.2823   14.4088    3.6038 O   0  0  0  0  0  0  0  0  0  0  0  0
    1.1479   12.0223   12.4200 C   0  0  0  0  0  0  0  0  0  0  0  0
   -2.9644   12.1446    9.7625 C   0  0  2  0  0  0  0  0  0  0  0  0
   -3.3023   11.7247   11.1334 N   0  0  0  0  0  0  0  0  0  0  0  0
   -1.6755   16.6205    4.5041 C   0  0  1  0  0  0  0  0  0  0  0  0
   -0.8662   16.9622    3.2879 N   0  0  0  0  0  0  0  0  0  0  0  0
    0.2749   12.8041   13.4906 C   0  0  0  0  0  0  0  0  0  0  0  0
   -1.9618   13.3813    9.7964 C   0  0  2  0  0  0  0  0  0  0  0  0
   -2.3757   17.9734    5.0853 C   0  0  1  0  0  0  0  0  0  0  0  0
   -3.2553   18.5697    4.1472 O   0  0  0  0  0  0  0  0  0  0  0  0
   -0.2604   14.0206   13.2051 C   0  0  2  0  0  0  0  0  0  0  0  0
   -0.0734   14.6652   11.9398 O   0  0  0  0  0  0  0  0  0  0  0  0
   -1.6186   13.8193    8.3245 C   0  0  2  0  0  0  0  0  0  0  0  0
   -0.7176   14.9467    8.3647 O   0  0  0  0  0  0  0  0  0  0  0  0
   -3.2239   17.6305    6.3530 C   0  0  0  0  0  0  0  0  0  0  0  0
   -4.2071   16.5417    6.0130 O   0  0  0  0  0  0  0  0  0  0  0  0
   -1.1058   14.8133   14.2039 C   0  0  0  0  0  0  0  0  0  0  0  0
   -0.4236   16.0592   14.4810 O   0  0  0  0  0  0  0  0  0  0  0  0
   -2.9507   14.2446    7.6034 C   0  0  1  0  0  0  0  0  0  0  0  0
   -2.6302   14.6499    6.3097 O   0  0  0  0  0  0  0  0  0  0  0  0
   -1.3890   19.0839    5.5198 C   0  0  0  0  0  0  0  0  0  0  0  0
    0.3500   16.1570    3.0541 C   0  0  0  0  0  0  0  0  0  0  0  0
  1  2  1  1  0  0  0
  1  6  1  0  0  0  0
  1 21  1  0  0  0  0
  3  4  1  6  0  0  0
  3  8  1  0  0  0  0
  3 28  1  0  0  0  0
  5  9  1  0  0  0  0
  5 25  1  0  0  0  0
  5 29  1  1  0  0  0
  6  7  1  6  0  0  0
  6 11  1  0  0  0  0
  8 12  1  0  0  0  0
  9 10  1  1  0  0  0
  9 14  1  0  0  0  0
 11 16  1  0  0  0  0
 12 13  1  1  0  0  0
 12 17  1  0  0  0  0
 14 15  1  6  0  0  0
 14 18  1  0  0  0  0
 15 31  1  0  0  0  0
 16 20  1  0  0  0  0
 17  2  1  6  0  0  0
 17 22  1  0  0  0  0
 18 19  1  6  0  0  0
 18 24  1  0  0  0  0
 18 30  1  0  0  0  0
 20 21  1  0  0  0  0
 20 26  1  1  0  0  0
 22 23  1  1  0  0  0
 22 28  1  0  0  0  0
 24 25  1  0  0  0  0
 26 27  1  0  0  0  0
 28 29  1  6  0  0  0
M  END
>  <CHROM.1>
-166.21071236,178.02629187,-93.95604534,-173.19376896,118.09326852,69.65659760
-1.68538358,14.71151891,8.31092363,-1.24400800,-0.70107031,-0.96944784

>  <Name>
ligand

>  <RI>
0

>  <Rbt.Current_Directory>
/home/itssahil/PROJECTS/Mol_Feturizer/New_Systems/rnas/4GPX

>  <Rbt.Executable>
rbdock ($Id: //depot/dev/client3/rdock/2013.1/src/exe/rbdock.cxx#4 $)

>  <Rbt.Library>
libRbt.so (2013.1, Build901 2013/11/27)

>  <Rbt.Parameter_File>
/export/apps/rDock/src/rDock_2013.1_src/data/scripts/dock_solv.prm

>  <Rbt.Receptor>
prm/pocket_docking_5.prm

>  <SCORE>
-16.6908

>  <SCORE.INTER>
-8.45395

>  <SCORE.INTER.CONST>
1

>  <SCORE.INTER.POLAR>
0

>  <SCORE.INTER.ROT>
6

>  <SCORE.INTER.SOLV>
11.5573

>  <SCORE.INTER.VDW>
-17.0884

>  <SCORE.INTER.norm>
-0.272708

>  <SCORE.INTRA>
-8.23681

>  <SCORE.INTRA.DIHEDRAL>
-16.6699

>  <SCORE.INTRA.DIHEDRAL.0>
20.6841

>  <SCORE.INTRA.POLAR>
0

>  <SCORE.INTRA.POLAR.0>
0

>  <SCORE.INTRA.REPUL>
0

>  <SCORE.INTRA.REPUL.0>
0

>  <SCORE.INTRA.SOLV>
-1.61581

>  <SCORE.INTRA.SOLV.lig_0>
-64.6797

>  <SCORE.INTRA.VDW>
0.906035

>  <SCORE.INTRA.VDW.0>
-4.11825

>  <SCORE.INTRA.norm>
-0.265703

>  <SCORE.RESTR>
0

>  <SCORE.RESTR.CAVITY>
0

>  <SCORE.RESTR.norm>
0

>  <SCORE.SYSTEM>
0

>  <SCORE.SYSTEM.CONST>
0

>  <SCORE.SYSTEM.DIHEDRAL>
0

>  <SCORE.SYSTEM.SOLV>
0

>  <SCORE.SYSTEM.norm>
0

>  <SCORE.heavy>
31

>  <SCORE.norm>
-0.538411

>  <RMSD>
8.186

$$$$
ligand
 OpenBabel11021811493D
libRbt.so/2013.1/901 2013/11/27
 31 33  0  0  0  0  0  0  0  0999 V2000
    0.2208   13.8599   10.7994 C   0  0  2  0  0  0  0  0  0  0  0  0
   -0.8590   12.9897   10.4741 O   0  0  0  0  0  0  0  0  0  0  0  0
   -3.9186   13.0063    7.5207 C   0  0  2  0  0  0  0  0  0  0  0  0
   -5.1163   13.3681    6.8268 N   0  0  0  0  0  0  0  0  0  0  0  0
   -3.5970   15.3008    5.4195 C   0  0  2  0  0  0  0  0  0  0  0  0
    1.4443   12.9338   11.1885 C   0  0  2  0  0  0  0  0  0  0  0  0
    1.7607   12.0732   10.0534 N   0  0  0  0  0  0  0  0  0  0  0  0
   -4.3111   12.5357    8.9817 C   0  0  0  0  0  0  0  0  0  0  0  0
   -2.7914   15.6344    4.1240 C   0  0  2  0  0  0  0  0  0  0  0  0
   -2.2453   14.4349    3.6185 O   0  0  0  0  0  0  0  0  0  0  0  0
    1.0956   12.0686   12.4647 C   0  0  0  0  0  0  0  0  0  0  0  0
   -2.9947   12.1391    9.7494 C   0  0  2  0  0  0  0  0  0  0  0  0
   -3.3529   11.7057   11.1109 N   0  0  0  0  0  0  0  0  0  0  0  0
   -1.6530   16.6461    4.5295 C   0  0  1  0  0  0  0  0  0  0  0  0
   -0.8287   16.9905    3.3241 N   0  0  0  0  0  0  0  0  0  0  0  0
    0.2302   12.8759   13.5226 C   0  0  0  0  0  0  0  0  0  0  0  0
   -2.0089   13.3881    9.8103 C   0  0  2  0  0  0  0  0  0  0  0  0
   -2.3624   17.9973    5.1035 C   0  0  1  0  0  0  0  0  0  0  0  0
   -3.2307   18.5937    4.1550 O   0  0  0  0  0  0  0  0  0  0  0  0
   -0.2999   14.0891   13.2149 C   0  0  2  0  0  0  0  0  0  0  0  0
   -0.1140   14.7077   11.9365 O   0  0  0  0  0  0  0  0  0  0  0  0
   -1.6438   13.8404    8.3480 C   0  0  2  0  0  0  0  0  0  0  0  0
   -0.7582   14.9788    8.4125 O   0  0  0  0  0  0  0  0  0  0  0  0
   -3.2263   17.6515    6.3597 C   0  0  0  0  0  0  0  0  0  0  0  0
   -4.2036   16.5618    6.0057 O   0  0  0  0  0  0  0  0  0  0  0  0
   -1.1378   14.9057   14.2006 C   0  0  0  0  0  0  0  0  0  0  0  0
   -0.3656   16.0645   14.5948 O   0  0  0  0  0  0  0  0  0  0  0  0
   -2.9675   14.2537    7.6048 C   0  0  1  0  0  0  0  0  0  0  0  0
   -2.6281   14.6718    6.3200 O   0  0  0  0  0  0  0  0  0  0  0  0
   -1.3828   19.1086    5.5520 C   0  0  0  0  0  0  0  0  0  0  0  0
    0.3585   16.1486    3.0711 C   0  0  0  0  0  0  0  0  0  0  0  0
  1  2  1  1  0  0  0
  1  6  1  0  0  0  0
  1 21  1  0  0  0  0
  3  4  1  6  0  0  0
  3  8  1  0  0  0  0
  3 28  1  0  0  0  0
  5  9  1  0  0  0  0
  5 25  1  0  0  0  0
  5 29  1  1  0  0  0
  6  7  1  6  0  0  0
  6 11  1  0  0  0  0
  8 12  1  0  0  0  0
  9 10  1  1  0  0  0
  9 14  1  0  0  0  0
 11 16  1  0  0  0  0
 12 13  1  1  0  0  0
 12 17  1  0  0  0  0
 14 15  1  6  0  0  0
 14 18  1  0  0  0  0
 15 31  1  0  0  0  0
 16 20  1  0  0  0  0
 17  2  1  1  0  0  0
 17 22  1  0  0  0  0
 18 19  1  6  0  0  0
 18 24  1  0  0  0  0
 18 30  1  0  0  0  0
 20 21  1  0  0  0  0
 20 26  1  1  0  0  0
 22 23  1  1  0  0  0
 22 28  1  0  0  0  0
 24 25  1  0  0  0  0
 26 27  1  0  0  0  0
 28 29  1  6  0  0  0
M  END
>  <CHROM.1>
-165.36616313,178.60093216,-91.30805056,-175.77914837,110.24450799,69.98123472
-1.69760830,14.73231696,8.32519088,-1.23999216,-0.73889423,-0.96147789

>  <Name>
ligand

>  <RI>
0

>  <Rbt.Current_Directory>
/home/itssahil/PROJECTS/Mol_Feturizer/New_Systems/rnas/4GPX

>  <Rbt.Executable>
rbdock ($Id: //depot/dev/client3/rdock/2013.1/src/exe/rbdock.cxx#4 $)

>  <Rbt.Library>
libRbt.so (2013.1, Build901 2013/11/27)

>  <Rbt.Parameter_File>
/export/apps/rDock/src/rDock_2013.1_src/data/scripts/dock_solv.prm

>  <Rbt.Receptor>
prm/pocket_docking_5.prm

>  <SCORE>
-16.7277

>  <SCORE.INTER>
-8.58944

>  <SCORE.INTER.CONST>
1

>  <SCORE.INTER.POLAR>
0

>  <SCORE.INTER.ROT>
6

>  <SCORE.INTER.SOLV>
11.6986

>  <SCORE.INTER.VDW>
-17.2258

>  <SCORE.INTER.norm>
-0.277079

>  <SCORE.INTRA>
-8.13825

>  <SCORE.INTRA.DIHEDRAL>
-16.6443

>  <SCORE.INTRA.DIHEDRAL.0>
20.6841

>  <SCORE.INTRA.POLAR>
0

>  <SCORE.INTRA.POLAR.0>
0

>  <SCORE.INTRA.REPUL>
0

>  <SCORE.INTRA.REPUL.0>
0

>  <SCORE.INTRA.SOLV>
-1.73889

>  <SCORE.INTRA.SOLV.lig_0>
-64.6797

>  <SCORE.INTRA.VDW>
1.05335

>  <SCORE.INTRA.VDW.0>
-4.11825

>  <SCORE.INTRA.norm>
-0.262524

>  <SCORE.RESTR>
0

>  <SCORE.RESTR.CAVITY>
0

>  <SCORE.RESTR.norm>
0

>  <SCORE.SYSTEM>
0

>  <SCORE.SYSTEM.CONST>
0

>  <SCORE.SYSTEM.DIHEDRAL>
0

>  <SCORE.SYSTEM.SOLV>
0

>  <SCORE.SYSTEM.norm>
0

>  <SCORE.heavy>
31

>  <SCORE.norm>
-0.539603

>  <RMSD>
8.188

$$$$
ligand
 OpenBabel11021811493D
libRbt.so/2013.1/901 2013/11/27
 31 33  0  0  0  0  0  0  0  0999 V2000
  -10.4764   12.5101    1.6732 C   0  0  2  0  0  0  0  0  0  0  0  0
  -10.5121   13.9318    1.5919 O   0  0  0  0  0  0  0  0  0  0  0  0
   -7.1123   16.3471    2.4239 C   0  0  2  0  0  0  0  0  0  0  0  0
   -6.2345   17.2424    3.1130 N   0  0  0  0  0  0  0  0  0  0  0  0
   -5.6340   14.0597    4.8383 C   0  0  2  0  0  0  0  0  0  0  0  0
  -11.4735   11.9706    0.5684 C   0  0  2  0  0  0  0  0  0  0  0  0
  -11.0335   12.4532   -0.7365 N   0  0  0  0  0  0  0  0  0  0  0  0
   -8.4972   17.0822    2.1967 C   0  0  0  0  0  0  0  0  0  0  0  0
   -4.9074   15.3380    5.3644 C   0  0  2  0  0  0  0  0  0  0  0  0
   -5.8298   16.4065    5.3625 O   0  0  0  0  0  0  0  0  0  0  0  0
  -12.9474   12.4535    0.8741 C   0  0  0  0  0  0  0  0  0  0  0  0
   -9.4670   16.0986    1.4406 C   0  0  2  0  0  0  0  0  0  0  0  0
  -10.7587   16.7748    1.2313 N   0  0  0  0  0  0  0  0  0  0  0  0
   -3.7057   15.6278    4.3868 C   0  0  1  0  0  0  0  0  0  0  0  0
   -2.9776   16.8621    4.8313 N   0  0  0  0  0  0  0  0  0  0  0  0
  -13.2713   12.4552    2.4280 C   0  0  0  0  0  0  0  0  0  0  0  0
   -9.6712   14.7748    2.3018 C   0  0  2  0  0  0  0  0  0  0  0  0
   -2.6922   14.3520    4.4440 C   0  0  1  0  0  0  0  0  0  0  0  0
   -2.2082   14.1075    5.7538 O   0  0  0  0  0  0  0  0  0  0  0  0
  -12.2901   12.2628    3.3489 C   0  0  2  0  0  0  0  0  0  0  0  0
  -10.9222   12.0488    2.9817 O   0  0  0  0  0  0  0  0  0  0  0  0
   -8.2809   14.0711    2.5205 C   0  0  2  0  0  0  0  0  0  0  0  0
   -8.4740   12.8780    3.3103 O   0  0  0  0  0  0  0  0  0  0  0  0
   -3.4397   13.0582    3.9843 C   0  0  0  0  0  0  0  0  0  0  0  0
   -4.6812   12.8793    4.8178 O   0  0  0  0  0  0  0  0  0  0  0  0
  -12.5530   12.2534    4.8560 C   0  0  0  0  0  0  0  0  0  0  0  0
  -11.5421   13.0692    5.4937 O   0  0  0  0  0  0  0  0  0  0  0  0
   -7.3341   15.0597    3.2962 C   0  0  1  0  0  0  0  0  0  0  0  0
   -6.1153   14.4171    3.5019 O   0  0  0  0  0  0  0  0  0  0  0  0
   -1.4439   14.4688    3.5364 C   0  0  0  0  0  0  0  0  0  0  0  0
   -3.1819   18.0797    4.0202 C   0  0  0  0  0  0  0  0  0  0  0  0
  1  2  1  1  0  0  0
  1  6  1  0  0  0  0
  1 21  1  0  0  0  0
  3  4  1  1  0  0  0
  3  8  1  0  0  0  0
  3 28  1  0  0  0  0
  5  9  1  0  0  0  0
  5 25  1  0  0  0  0
  5 29  1  6  0  0  0
  6  7  1  6  0  0  0
  6 11  1  0  0  0  0
  8 12  1  0  0  0  0
  9 10  1  6  0  0  0
  9 14  1  0  0  0  0
 11 16  1  0  0  0  0
 12 13  1  1  0  0  0
 12 17  1  0  0  0  0
 14 15  1  1  0  0  0
 14 18  1  0  0  0  0
 15 31  1  0  0  0  0
 16 20  1  0  0  0  0
 17  2  1  6  0  0  0
 17 22  1  0  0  0  0
 18 19  1  1  0  0  0
 18 24  1  0  0  0  0
 18 30  1  0  0  0  0
 20 21  1  0  0  0  0
 20 26  1  6  0  0  0
 22 23  1  1  0  0  0
 22 28  1  0  0  0  0
 24 25  1  0  0  0  0
 26 27  1  0  0  0  0
 28 29  1  6  0  0  0
M  END
>  <CHROM.1>
-172.98849343,-85.77867869,-106.24504033,150.49802468,-133.99516448,127.13048110
-7.71028688,14.35257433,3.25422549,-3.01752264,-0.36967954,-0.45311241

>  <Name>
ligand

>  <RI>
0

>  <Rbt.Current_Directory>
/home/itssahil/PROJECTS/Mol_Feturizer/New_Systems/rnas/4GPX

>  <Rbt.Executable>
rbdock ($Id: //depot/dev/client3/rdock/2013.1/src/exe/rbdock.cxx#4 $)

>  <Rbt.Library>
libRbt.so (2013.1, Build901 2013/11/27)

>  <Rbt.Parameter_File>
/export/apps/rDock/src/rDock_2013.1_src/data/scripts/dock_solv.prm

>  <Rbt.Receptor>
prm/blind_docking_60.prm

>  <SCORE>
4.72503

>  <SCORE.INTER>
-7.92698

>  <SCORE.INTER.CONST>
1

>  <SCORE.INTER.POLAR>
0

>  <SCORE.INTER.ROT>
6

>  <SCORE.INTER.SOLV>
27.8041

>  <SCORE.INTER.VDW>
-22.1527

>  <SCORE.INTER.norm>
-0.255709

>  <SCORE.INTRA>
1.36431

>  <SCORE.INTRA.DIHEDRAL>
-4.19758

>  <SCORE.INTRA.DIHEDRAL.0>
20.6841

>  <SCORE.INTRA.POLAR>
0

>  <SCORE.INTRA.POLAR.0>
0

>  <SCORE.INTRA.REPUL>
0

>  <SCORE.INTRA.REPUL.0>
0

>  <SCORE.INTRA.SOLV>
1.28854

>  <SCORE.INTRA.SOLV.lig_0>
-64.6797

>  <SCORE.INTRA.VDW>
2.81883

>  <SCORE.INTRA.VDW.0>
-4.11825

>  <SCORE.INTRA.norm>
0.04401

>  <SCORE.RESTR>
11.2877

>  <SCORE.RESTR.CAVITY>
11.2877

>  <SCORE.RESTR.norm>
0.36412

>  <SCORE.SYSTEM>
0

>  <SCORE.SYSTEM.CONST>
0

>  <SCORE.SYSTEM.DIHEDRAL>
0

>  <SCORE.SYSTEM.SOLV>
0

>  <SCORE.SYSTEM.norm>
0

>  <SCORE.heavy>
31

>  <SCORE.norm>
0.15242

>  <RMSD>
8.189

$$$$
ligand
 OpenBabel11021811493D
libRbt.so/2013.1/901 2013/11/27
 31 33  0  0  0  0  0  0  0  0999 V2000
    0.3642   11.1056    8.6519 C   0  0  2  0  0  0  0  0  0  0  0  0
    0.1166   11.9147    9.7979 O   0  0  0  0  0  0  0  0  0  0  0  0
   -2.1201   15.4791   10.4116 C   0  0  2  0  0  0  0  0  0  0  0  0
   -2.4671   16.8671   10.4063 N   0  0  0  0  0  0  0  0  0  0  0  0
   -3.6275   16.4719    7.8894 C   0  0  2  0  0  0  0  0  0  0  0  0
    0.2809    9.6008    9.1364 C   0  0  2  0  0  0  0  0  0  0  0  0
   -1.0449    9.3613    9.6967 N   0  0  0  0  0  0  0  0  0  0  0  0
   -0.7788   15.3030   11.2360 C   0  0  0  0  0  0  0  0  0  0  0  0
   -4.5206   16.2474    6.6282 C   0  0  2  0  0  0  0  0  0  0  0  0
   -5.5052   15.2870    6.9457 O   0  0  0  0  0  0  0  0  0  0  0  0
    1.4025    9.3056   10.2106 C   0  0  0  0  0  0  0  0  0  0  0  0
   -0.3924   13.7765   11.2417 C   0  0  2  0  0  0  0  0  0  0  0  0
    0.8575   13.6072   12.0025 N   0  0  0  0  0  0  0  0  0  0  0  0
   -3.5790   15.7307    5.4750 C   0  0  1  0  0  0  0  0  0  0  0  0
   -4.3872   15.4769    4.2367 N   0  0  0  0  0  0  0  0  0  0  0  0
    2.7646   10.0509    9.8807 C   0  0  0  0  0  0  0  0  0  0  0  0
   -0.2013   13.2631    9.7466 C   0  0  2  0  0  0  0  0  0  0  0  0
   -2.4736   16.8900    5.1711 C   0  0  1  0  0  0  0  0  0  0  0  0
   -3.0721   18.1199    4.7986 O   0  0  0  0  0  0  0  0  0  0  0  0
    2.8307   10.9883    8.8986 C   0  0  2  0  0  0  0  0  0  0  0  0
    1.6934   11.3575    8.1101 O   0  0  0  0  0  0  0  0  0  0  0  0
   -1.5435   13.4585    8.9488 C   0  0  2  0  0  0  0  0  0  0  0  0
   -1.3583   12.9999    7.5924 O   0  0  0  0  0  0  0  0  0  0  0  0
   -1.6252   17.1652    6.4550 C   0  0  0  0  0  0  0  0  0  0  0  0
   -2.5476   17.4971    7.5982 O   0  0  0  0  0  0  0  0  0  0  0  0
    4.1198   11.7312    8.5422 C   0  0  0  0  0  0  0  0  0  0  0  0
    4.5589   11.2714    7.2421 O   0  0  0  0  0  0  0  0  0  0  0  0
   -1.9010   14.9906    8.9348 C   0  0  1  0  0  0  0  0  0  0  0  0
   -3.0784   15.1520    8.2080 O   0  0  0  0  0  0  0  0  0  0  0  0
   -1.4584   16.5472    4.0542 C   0  0  0  0  0  0  0  0  0  0  0  0
   -5.2938   16.5600    3.8041 C   0  0  0  0  0  0  0  0  0  0  0  0
  1  2  1  1  0  0  0
  1  6  1  0  0  0  0
  1 21  1  0  0  0  0
  3  4  1  6  0  0  0
  3  8  1  0  0  0  0
  3 28  1  0  0  0  0
  5  9  1  0  0  0  0
  5 25  1  0  0  0  0
  5 29  1  6  0  0  0
  6  7  1  1  0  0  0
  6 11  1  0  0  0  0
  8 12  1  0  0  0  0
  9 10  1  1  0  0  0
  9 14  1  0  0  0  0
 11 16  1  0  0  0  0
 12 13  1  1  0  0  0
 12 17  1  0  0  0  0
 14 15  1  6  0  0  0
 14 18  1  0  0  0  0
 15 31  1  0  0  0  0
 16 20  1  0  0  0  0
 17  2  1  1  0  0  0
 17 22  1  0  0  0  0
 18 19  1  6  0  0  0
 18 24  1  0  0  0  0
 18 30  1  0  0  0  0
 20 21  1  0  0  0  0
 20 26  1  6  0  0  0
 22 23  1  6  0  0  0
 22 28  1  0  0  0  0
 24 25  1  0  0  0  0
 26 27  1  0  0  0  0
 28 29  1  6  0  0  0
M  END
>  <CHROM.1>
-164.49789877,156.60827148,49.70436485,-179.88640112,110.22581288,67.23054223
-1.09688272,13.99880326,8.08533616,-0.47656741,0.77418721,-1.49207251

>  <Name>
ligand

>  <RI>
0

>  <Rbt.Current_Directory>
/home/itssahil/PROJECTS/Mol_Feturizer/New_Systems/rnas/4GPX

>  <Rbt.Executable>
rbdock ($Id: //depot/dev/client3/rdock/2013.1/src/exe/rbdock.cxx#4 $)

>  <Rbt.Library>
libRbt.so (2013.1, Build901 2013/11/27)

>  <Rbt.Parameter_File>
/export/apps/rDock/src/rDock_2013.1_src/data/scripts/dock_solv.prm

>  <Rbt.Receptor>
prm/pocket_docking_6.prm

>  <SCORE>
-12.7229

>  <SCORE.INTER>
-7.97478

>  <SCORE.INTER.CONST>
1

>  <SCORE.INTER.POLAR>
0

>  <SCORE.INTER.ROT>
6

>  <SCORE.INTER.SOLV>
12.0059

>  <SCORE.INTER.VDW>
-16.9185

>  <SCORE.INTER.norm>
-0.257251

>  <SCORE.INTRA>
-4.74809

>  <SCORE.INTRA.DIHEDRAL>
-15.0257

>  <SCORE.INTRA.DIHEDRAL.0>
20.6841

>  <SCORE.INTRA.POLAR>
0

>  <SCORE.INTRA.POLAR.0>
0

>  <SCORE.INTRA.REPUL>
0

>  <SCORE.INTRA.REPUL.0>
0

>  <SCORE.INTRA.SOLV>
-1.01312

>  <SCORE.INTRA.SOLV.lig_0>
-64.6797

>  <SCORE.INTRA.VDW>
3.27134

>  <SCORE.INTRA.VDW.0>
-4.11825

>  <SCORE.INTRA.norm>
-0.153164

>  <SCORE.RESTR>
0

>  <SCORE.RESTR.CAVITY>
0

>  <SCORE.RESTR.norm>
0

>  <SCORE.SYSTEM>
0

>  <SCORE.SYSTEM.CONST>
0

>  <SCORE.SYSTEM.DIHEDRAL>
0

>  <SCORE.SYSTEM.SOLV>
0

>  <SCORE.SYSTEM.norm>
0

>  <SCORE.heavy>
31

>  <SCORE.norm>
-0.410415

>  <RMSD>
8.201

$$$$
ligand
 OpenBabel11021811493D
libRbt.so/2013.1/901 2013/11/27
 31 33  0  0  0  0  0  0  0  0999 V2000
   -1.0050   12.9451   10.9418 C   0  0  2  0  0  0  0  0  0  0  0  0
   -0.2675   13.7617   10.0371 O   0  0  0  0  0  0  0  0  0  0  0  0
   -0.5106   14.6069    5.8765 C   0  0  2  0  0  0  0  0  0  0  0  0
   -0.4175   14.4285    4.4601 N   0  0  0  0  0  0  0  0  0  0  0  0
   -3.3020   15.0412    5.5908 C   0  0  2  0  0  0  0  0  0  0  0  0
   -0.5903   13.4003   12.4002 C   0  0  2  0  0  0  0  0  0  0  0  0
   -0.9099   14.8152   12.5584 N   0  0  0  0  0  0  0  0  0  0  0  0
    0.9309   14.4026    6.5012 C   0  0  0  0  0  0  0  0  0  0  0  0
   -4.5113   15.2412    6.5583 C   0  0  2  0  0  0  0  0  0  0  0  0
   -4.0420   15.1331    7.8852 O   0  0  0  0  0  0  0  0  0  0  0  0
    0.9517   13.1464   12.6384 C   0  0  0  0  0  0  0  0  0  0  0  0
    0.8317   14.5957    8.0608 C   0  0  2  0  0  0  0  0  0  0  0  0
    2.1686   14.4015    8.6480 N   0  0  0  0  0  0  0  0  0  0  0  0
   -5.5593   14.1091    6.2362 C   0  0  1  0  0  0  0  0  0  0  0  0
   -6.7410   14.2375    7.1518 N   0  0  0  0  0  0  0  0  0  0  0  0
    1.4536   11.8026   11.9587 C   0  0  0  0  0  0  0  0  0  0  0  0
   -0.1960   13.5430    8.6701 C   0  0  2  0  0  0  0  0  0  0  0  0
   -6.0479   14.3008    4.6926 C   0  0  1  0  0  0  0  0  0  0  0  0
   -6.6218   15.5767    4.4642 O   0  0  0  0  0  0  0  0  0  0  0  0
    0.6556   11.1082   11.1050 C   0  0  2  0  0  0  0  0  0  0  0  0
   -0.6691   11.5374   10.7698 O   0  0  0  0  0  0  0  0  0  0  0  0
   -1.6150   13.7616    8.0261 C   0  0  2  0  0  0  0  0  0  0  0  0
   -2.5376   12.7970    8.5766 O   0  0  0  0  0  0  0  0  0  0  0  0
   -4.8247   14.1707    3.7278 C   0  0  0  0  0  0  0  0  0  0  0  0
   -3.7559   15.1452    4.1468 O   0  0  0  0  0  0  0  0  0  0  0  0
    1.0932    9.8080   10.4280 C   0  0  0  0  0  0  0  0  0  0  0  0
    1.2901   10.0785    9.0200 O   0  0  0  0  0  0  0  0  0  0  0  0
   -1.5005   13.5426    6.4723 C   0  0  1  0  0  0  0  0  0  0  0  0
   -2.7665   13.7177    5.9178 O   0  0  0  0  0  0  0  0  0  0  0  0
   -7.0888   13.2647    4.2040 C   0  0  0  0  0  0  0  0  0  0  0  0
   -6.5601   13.7591    8.5376 C   0  0  0  0  0  0  0  0  0  0  0  0
  1  2  1  6  0  0  0
  1  6  1  0  0  0  0
  1 21  1  0  0  0  0
  3  4  1  6  0  0  0
  3  8  1  0  0  0  0
  3 28  1  0  0  0  0
  5  9  1  0  0  0  0
  5 25  1  0  0  0  0
  5 29  1  6  0  0  0
  6  7  1  6  0  0  0
  6 11  1  0  0  0  0
  8 12  1  0  0  0  0
  9 10  1  1  0  0  0
  9 14  1  0  0  0  0
 11 16  1  0  0  0  0
 12 13  1  1  0  0  0
 12 17  1  0  0  0  0
 14 15  1  1  0  0  0
 14 18  1  0  0  0  0
 15 31  1  0  0  0  0
 16 20  1  0  0  0  0
 17  2  1  1  0  0  0
 17 22  1  0  0  0  0
 18 19  1  6  0  0  0
 18 24  1  0  0  0  0
 18 30  1  0  0  0  0
 20 21  1  0  0  0  0
 20 26  1  1  0  0  0
 22 23  1  1  0  0  0
 22 28  1  0  0  0  0
 24 25  1  0  0  0  0
 26 27  1  0  0  0  0
 28 29  1  6  0  0  0
M  END
>  <CHROM.1>
169.86676361,-114.16213124,-76.81811965,-174.81766598,-109.53096379,-35.67176968
-2.05079417,13.60473586,7.93345855,0.78182296,-0.10425609,1.82721029

>  <Name>
ligand

>  <RI>
0

>  <Rbt.Current_Directory>
/home/itssahil/PROJECTS/Mol_Feturizer/New_Systems/rnas/4GPX

>  <Rbt.Executable>
rbdock ($Id: //depot/dev/client3/rdock/2013.1/src/exe/rbdock.cxx#4 $)

>  <Rbt.Library>
libRbt.so (2013.1, Build901 2013/11/27)

>  <Rbt.Parameter_File>
/export/apps/rDock/src/rDock_2013.1_src/data/scripts/dock_solv.prm

>  <Rbt.Receptor>
prm/pocket_docking_4.prm

>  <SCORE>
-9.28061

>  <SCORE.INTER>
-6.32942

>  <SCORE.INTER.CONST>
1

>  <SCORE.INTER.POLAR>
0

>  <SCORE.INTER.ROT>
6

>  <SCORE.INTER.SOLV>
10.5309

>  <SCORE.INTER.VDW>
-15.3299

>  <SCORE.INTER.norm>
-0.204175

>  <SCORE.INTRA>
-2.9512

>  <SCORE.INTRA.DIHEDRAL>
-8.42911

>  <SCORE.INTRA.DIHEDRAL.0>
20.6841

>  <SCORE.INTRA.POLAR>
0

>  <SCORE.INTRA.POLAR.0>
0

>  <SCORE.INTRA.REPUL>
0

>  <SCORE.INTRA.REPUL.0>
0

>  <SCORE.INTRA.SOLV>
-0.921211

>  <SCORE.INTRA.SOLV.lig_0>
-64.6797

>  <SCORE.INTRA.VDW>
1.72397

>  <SCORE.INTRA.VDW.0>
-4.11825

>  <SCORE.INTRA.norm>
-0.0951998

>  <SCORE.RESTR>
0

>  <SCORE.RESTR.CAVITY>
0

>  <SCORE.RESTR.norm>
0

>  <SCORE.SYSTEM>
0

>  <SCORE.SYSTEM.CONST>
0

>  <SCORE.SYSTEM.DIHEDRAL>
0

>  <SCORE.SYSTEM.SOLV>
0

>  <SCORE.SYSTEM.norm>
0

>  <SCORE.heavy>
31

>  <SCORE.norm>
-0.299375

>  <RMSD>
8.207

$$$$
ligand
 OpenBabel11021811493D
libRbt.so/2013.1/901 2013/11/27
 31 33  0  0  0  0  0  0  0  0999 V2000
    0.2719   13.8019   10.8556 C   0  0  2  0  0  0  0  0  0  0  0  0
    0.8564   12.7818   10.0513 O   0  0  0  0  0  0  0  0  0  0  0  0
    0.3063   11.6263    5.9959 C   0  0  2  0  0  0  0  0  0  0  0  0
   -0.2781   11.0277    4.8353 N   0  0  0  0  0  0  0  0  0  0  0  0
   -1.6785   13.4017    4.4271 C   0  0  2  0  0  0  0  0  0  0  0  0
    1.3561   14.1980   11.9390 C   0  0  2  0  0  0  0  0  0  0  0  0
    2.5559   14.6654   11.2526 N   0  0  0  0  0  0  0  0  0  0  0  0
    0.6037   10.4827    7.0512 C   0  0  0  0  0  0  0  0  0  0  0  0
   -1.7178   14.7748    3.6844 C   0  0  2  0  0  0  0  0  0  0  0  0
   -0.3905   15.2181    3.4985 O   0  0  0  0  0  0  0  0  0  0  0  0
    1.6885   12.9595   12.8633 C   0  0  0  0  0  0  0  0  0  0  0  0
    1.2448   11.1384    8.3313 C   0  0  2  0  0  0  0  0  0  0  0  0
    1.5186   10.0802    9.3187 N   0  0  0  0  0  0  0  0  0  0  0  0
   -2.5250   15.7758    4.5955 C   0  0  1  0  0  0  0  0  0  0  0  0
   -2.5802   17.1246    3.9408 N   0  0  0  0  0  0  0  0  0  0  0  0
    0.4042   12.0826   13.1817 C   0  0  0  0  0  0  0  0  0  0  0  0
    0.2455   12.2171    8.9424 C   0  0  2  0  0  0  0  0  0  0  0  0
   -4.0387   15.1937    4.7633 C   0  0  1  0  0  0  0  0  0  0  0  0
   -4.6940   15.0311    3.5169 O   0  0  0  0  0  0  0  0  0  0  0  0
   -0.7702   12.2978   12.5320 C   0  0  2  0  0  0  0  0  0  0  0  0
   -0.9220   13.3143   11.5343 O   0  0  0  0  0  0  0  0  0  0  0  0
   -0.0401   13.3341    7.8716 C   0  0  2  0  0  0  0  0  0  0  0  0
   -0.9543   14.3020    8.4303 O   0  0  0  0  0  0  0  0  0  0  0  0
   -3.9949   13.7869    5.4435 C   0  0  0  0  0  0  0  0  0  0  0  0
   -3.0856   12.8820    4.6547 O   0  0  0  0  0  0  0  0  0  0  0  0
   -2.0348   11.4815   12.8057 C   0  0  0  0  0  0  0  0  0  0  0  0
   -2.3748   10.7607   11.5978 O   0  0  0  0  0  0  0  0  0  0  0  0
   -0.7002   12.6640    6.6104 C   0  0  1  0  0  0  0  0  0  0  0  0
   -0.9672   13.6658    5.6800 O   0  0  0  0  0  0  0  0  0  0  0  0
   -4.9782   16.0606    5.6361 C   0  0  0  0  0  0  0  0  0  0  0  0
   -2.3214   18.2925    4.8075 C   0  0  0  0  0  0  0  0  0  0  0  0
  1  2  1  6  0  0  0
  1  6  1  0  0  0  0
  1 21  1  0  0  0  0
  3  4  1  6  0  0  0
  3  8  1  0  0  0  0
  3 28  1  0  0  0  0
  5  9  1  0  0  0  0
  5 25  1  0  0  0  0
  5 29  1  1  0  0  0
  6  7  1  6  0  0  0
  6 11  1  0  0  0  0
  8 12  1  0  0  0  0
  9 10  1  1  0  0  0
  9 14  1  0  0  0  0
 11 16  1  0  0  0  0
 12 13  1  1  0  0  0
 12 17  1  0  0  0  0
 14 15  1  6  0  0  0
 14 18  1  0  0  0  0
 15 31  1  0  0  0  0
 16 20  1  0  0  0  0
 17  2  1  1  0  0  0
 17 22  1  0  0  0  0
 18 19  1  6  0  0  0
 18 24  1  0  0  0  0
 18 30  1  0  0  0  0
 20 21  1  0  0  0  0
 20 26  1  1  0  0  0
 22 23  1  1  0  0  0
 22 28  1  0  0  0  0
 24 25  1  0  0  0  0
 26 27  1  0  0  0  0
 28 29  1  6  0  0  0
M  END
>  <CHROM.1>
-176.47067869,-178.38750313,-135.51799588,179.30585049,-116.35871971,66.09092529
-1.00274729,13.45016514,7.75003868,0.86149681,-0.95758666,1.33058457

>  <Name>
ligand

>  <RI>
0

>  <Rbt.Current_Directory>
/home/itssahil/PROJECTS/Mol_Feturizer/New_Systems/rnas/4GPX

>  <Rbt.Executable>
rbdock ($Id: //depot/dev/client3/rdock/2013.1/src/exe/rbdock.cxx#4 $)

>  <Rbt.Library>
libRbt.so (2013.1, Build901 2013/11/27)

>  <Rbt.Parameter_File>
/export/apps/rDock/src/rDock_2013.1_src/data/scripts/dock_solv.prm

>  <Rbt.Receptor>
prm/pocket_docking_6.prm

>  <SCORE>
-15.4682

>  <SCORE.INTER>
-6.87046

>  <SCORE.INTER.CONST>
1

>  <SCORE.INTER.POLAR>
0

>  <SCORE.INTER.ROT>
6

>  <SCORE.INTER.SOLV>
11.139

>  <SCORE.INTER.VDW>
-15.8933

>  <SCORE.INTER.norm>
-0.221628

>  <SCORE.INTRA>
-8.59771

>  <SCORE.INTRA.DIHEDRAL>
-17.7032

>  <SCORE.INTRA.DIHEDRAL.0>
20.6841

>  <SCORE.INTRA.POLAR>
0

>  <SCORE.INTRA.POLAR.0>
0

>  <SCORE.INTRA.REPUL>
0

>  <SCORE.INTRA.REPUL.0>
0

>  <SCORE.INTRA.SOLV>
-1.88067

>  <SCORE.INTRA.SOLV.lig_0>
-64.6797

>  <SCORE.INTRA.VDW>
1.1942

>  <SCORE.INTRA.VDW.0>
-4.11825

>  <SCORE.INTRA.norm>
-0.277345

>  <SCORE.RESTR>
0

>  <SCORE.RESTR.CAVITY>
0

>  <SCORE.RESTR.norm>
0

>  <SCORE.SYSTEM>
0

>  <SCORE.SYSTEM.CONST>
0

>  <SCORE.SYSTEM.DIHEDRAL>
0

>  <SCORE.SYSTEM.SOLV>
0

>  <SCORE.SYSTEM.norm>
0

>  <SCORE.heavy>
31

>  <SCORE.norm>
-0.498973

>  <RMSD>
8.208

$$$$
ligand
 OpenBabel11021811493D
libRbt.so/2013.1/901 2013/11/27
 31 33  0  0  0  0  0  0  0  0999 V2000
    1.1663   11.4802    8.3613 C   0  0  2  0  0  0  0  0  0  0  0  0
    0.8872   10.5946    7.2809 O   0  0  0  0  0  0  0  0  0  0  0  0
    0.1082   13.1324    3.9587 C   0  0  2  0  0  0  0  0  0  0  0  0
   -0.3730   13.5708    2.6847 N   0  0  0  0  0  0  0  0  0  0  0  0
   -2.9140   14.2156    4.0263 C   0  0  2  0  0  0  0  0  0  0  0  0
    2.3551   10.8308    9.1805 C   0  0  2  0  0  0  0  0  0  0  0  0
    3.5037   10.6727    8.2945 N   0  0  0  0  0  0  0  0  0  0  0  0
    1.0757   11.8990    3.7294 C   0  0  0  0  0  0  0  0  0  0  0  0
   -3.4223   15.6080    4.5177 C   0  0  2  0  0  0  0  0  0  0  0  0
   -2.3085   16.4637    4.6587 O   0  0  0  0  0  0  0  0  0  0  0  0
    1.9143    9.4349    9.7772 C   0  0  0  0  0  0  0  0  0  0  0  0
    1.6053   11.4121    5.1301 C   0  0  2  0  0  0  0  0  0  0  0  0
    2.5014   10.2614    4.9236 N   0  0  0  0  0  0  0  0  0  0  0  0
   -4.1390   15.3814    5.9029 C   0  0  1  0  0  0  0  0  0  0  0  0
   -4.6340   16.6929    6.4376 N   0  0  0  0  0  0  0  0  0  0  0  0
    0.4047    9.4385   10.2681 C   0  0  0  0  0  0  0  0  0  0  0  0
    0.3782   10.9956    6.0555 C   0  0  2  0  0  0  0  0  0  0  0  0
   -5.4059   14.3852    5.6562 C   0  0  1  0  0  0  0  0  0  0  0  0
   -6.3244   14.9065    4.7107 O   0  0  0  0  0  0  0  0  0  0  0  0
   -0.4224   10.4790    9.9837 C   0  0  2  0  0  0  0  0  0  0  0  0
    0.0086   11.6215    9.2351 O   0  0  0  0  0  0  0  0  0  0  0  0
   -0.5704   12.2347    6.2584 C   0  0  2  0  0  0  0  0  0  0  0  0
   -1.6849   11.8457    7.0898 O   0  0  0  0  0  0  0  0  0  0  0  0
   -4.9034   13.0145    5.0972 C   0  0  0  0  0  0  0  0  0  0  0  0
   -4.0768   13.2550    3.8616 O   0  0  0  0  0  0  0  0  0  0  0  0
   -1.8828   10.5294   10.4367 C   0  0  0  0  0  0  0  0  0  0  0  0
   -2.0556   11.7018   11.2674 O   0  0  0  0  0  0  0  0  0  0  0  0
   -1.1068   12.6923    4.8519 C   0  0  1  0  0  0  0  0  0  0  0  0
   -1.9611   13.7751    5.0477 O   0  0  0  0  0  0  0  0  0  0  0  0
   -6.2310   14.0527    6.9229 C   0  0  0  0  0  0  0  0  0  0  0  0
   -3.7008   17.4539    7.2933 C   0  0  0  0  0  0  0  0  0  0  0  0
  1  2  1  6  0  0  0
  1  6  1  0  0  0  0
  1 21  1  0  0  0  0
  3  4  1  6  0  0  0
  3  8  1  0  0  0  0
  3 28  1  0  0  0  0
  5  9  1  0  0  0  0
  5 25  1  0  0  0  0
  5 29  1  1  0  0  0
  6  7  1  6  0  0  0
  6 11  1  0  0  0  0
  8 12  1  0  0  0  0
  9 10  1  1  0  0  0
  9 14  1  0  0  0  0
 11 16  1  0  0  0  0
 12 13  1  6  0  0  0
 12 17  1  0  0  0  0
 14 15  1  6  0  0  0
 14 18  1  0  0  0  0
 15 31  1  0  0  0  0
 16 20  1  0  0  0  0
 17  2  1  1  0  0  0
 17 22  1  0  0  0  0
 18 19  1  6  0  0  0
 18 24  1  0  0  0  0
 18 30  1  0  0  0  0
 20 21  1  0  0  0  0
 20 26  1  1  0  0  0
 22 23  1  1  0  0  0
 22 28  1  0  0  0  0
 24 25  1  0  0  0  0
 26 27  1  0  0  0  0
 28 29  1  1  0  0  0
M  END
>  <CHROM.1>
-150.79186425,-167.85594395,-89.75659889,86.71223145,120.41115429,78.58148350
-1.40796578,12.73119779,6.56421072,0.63825350,-0.51665514,1.92303825

>  <Name>
ligand

>  <RI>
0

>  <Rbt.Current_Directory>
/home/itssahil/PROJECTS/Mol_Feturizer/New_Systems/rnas/4GPX

>  <Rbt.Executable>
rbdock ($Id: //depot/dev/client3/rdock/2013.1/src/exe/rbdock.cxx#4 $)

>  <Rbt.Library>
libRbt.so (2013.1, Build901 2013/11/27)

>  <Rbt.Parameter_File>
/export/apps/rDock/src/rDock_2013.1_src/data/scripts/dock_solv.prm

>  <Rbt.Receptor>
prm/pocket_docking_5.prm

>  <SCORE>
-11.7543

>  <SCORE.INTER>
-8.06499

>  <SCORE.INTER.CONST>
1

>  <SCORE.INTER.POLAR>
0

>  <SCORE.INTER.ROT>
6

>  <SCORE.INTER.SOLV>
14.7762

>  <SCORE.INTER.VDW>
-17.9021

>  <SCORE.INTER.norm>
-0.260161

>  <SCORE.INTRA>
-3.68933

>  <SCORE.INTRA.DIHEDRAL>
-9.69627

>  <SCORE.INTRA.DIHEDRAL.0>
20.6841

>  <SCORE.INTRA.POLAR>
0

>  <SCORE.INTRA.POLAR.0>
0

>  <SCORE.INTRA.REPUL>
0

>  <SCORE.INTRA.REPUL.0>
0

>  <SCORE.INTRA.SOLV>
0.0888849

>  <SCORE.INTRA.SOLV.lig_0>
-64.6797

>  <SCORE.INTRA.VDW>
1.11437

>  <SCORE.INTRA.VDW.0>
-4.11825

>  <SCORE.INTRA.norm>
-0.119011

>  <SCORE.RESTR>
0

>  <SCORE.RESTR.CAVITY>
0

>  <SCORE.RESTR.norm>
0

>  <SCORE.SYSTEM>
0

>  <SCORE.SYSTEM.CONST>
0

>  <SCORE.SYSTEM.DIHEDRAL>
0

>  <SCORE.SYSTEM.SOLV>
0

>  <SCORE.SYSTEM.norm>
0

>  <SCORE.heavy>
31

>  <SCORE.norm>
-0.379172

>  <RMSD>
8.210

$$$$
ligand
 OpenBabel11021811493D
libRbt.so/2013.1/901 2013/11/27
 31 33  0  0  0  0  0  0  0  0999 V2000
    0.3435   13.8680   10.8526 C   0  0  2  0  0  0  0  0  0  0  0  0
    1.0129   12.9088   10.0395 O   0  0  0  0  0  0  0  0  0  0  0  0
    0.5476   11.7093    5.9863 C   0  0  2  0  0  0  0  0  0  0  0  0
    0.0114   11.0632    4.8278 N   0  0  0  0  0  0  0  0  0  0  0  0
   -1.5912   13.3118    4.4276 C   0  0  2  0  0  0  0  0  0  0  0  0
    1.3507   14.2592   12.0095 C   0  0  2  0  0  0  0  0  0  0  0  0
    2.5643   14.8045   11.4103 N   0  0  0  0  0  0  0  0  0  0  0  0
    0.9437   10.5952    7.0407 C   0  0  0  0  0  0  0  0  0  0  0  0
   -1.7578   14.6779    3.6894 C   0  0  2  0  0  0  0  0  0  0  0  0
   -0.4763   15.2362    3.4925 O   0  0  0  0  0  0  0  0  0  0  0  0
    1.6862   12.9954   12.8979 C   0  0  0  0  0  0  0  0  0  0  0  0
    1.5319   11.3030    8.3184 C   0  0  2  0  0  0  0  0  0  0  0  0
    1.8970   10.2721    9.3051 N   0  0  0  0  0  0  0  0  0  0  0  0
   -2.6408   15.6022    4.6111 C   0  0  1  0  0  0  0  0  0  0  0  0
   -2.8203   16.9425    3.9610 N   0  0  0  0  0  0  0  0  0  0  0  0
    0.4254   12.0542   13.1082 C   0  0  0  0  0  0  0  0  0  0  0  0
    0.4477   12.2943    8.9329 C   0  0  2  0  0  0  0  0  0  0  0  0
   -4.0961   14.8894    4.7912 C   0  0  1  0  0  0  0  0  0  0  0  0
   -4.7465   14.6727    3.5505 O   0  0  0  0  0  0  0  0  0  0  0  0
   -0.7210   12.2504   12.4046 C   0  0  2  0  0  0  0  0  0  0  0  0
   -0.8628   13.3030   11.4436 O   0  0  0  0  0  0  0  0  0  0  0  0
    0.0656   13.3829    7.8628 C   0  0  2  0  0  0  0  0  0  0  0  0
   -0.9247   14.2708    8.4246 O   0  0  0  0  0  0  0  0  0  0  0  0
   -3.9227   13.4902    5.4667 C   0  0  0  0  0  0  0  0  0  0  0  0
   -2.9451   12.6703    4.6667 O   0  0  0  0  0  0  0  0  0  0  0  0
   -1.9623   11.3723   12.5740 C   0  0  0  0  0  0  0  0  0  0  0  0
   -2.1682   10.6424   11.3414 O   0  0  0  0  0  0  0  0  0  0  0  0
   -0.5404   12.6591    6.6042 C   0  0  1  0  0  0  0  0  0  0  0  0
   -0.8938   13.6345    5.6745 O   0  0  0  0  0  0  0  0  0  0  0  0
   -5.0995   15.6686    5.6754 C   0  0  0  0  0  0  0  0  0  0  0  0
   -2.0478   18.0644    4.5325 C   0  0  0  0  0  0  0  0  0  0  0  0
  1  2  1  6  0  0  0
  1  6  1  0  0  0  0
  1 21  1  0  0  0  0
  3  4  1  6  0  0  0
  3  8  1  0  0  0  0
  3 28  1  0  0  0  0
  5  9  1  0  0  0  0
  5 25  1  0  0  0  0
  5 29  1  1  0  0  0
  6  7  1  6  0  0  0
  6 11  1  0  0  0  0
  8 12  1  0  0  0  0
  9 10  1  1  0  0  0
  9 14  1  0  0  0  0
 11 16  1  0  0  0  0
 12 13  1  1  0  0  0
 12 17  1  0  0  0  0
 14 15  1  6  0  0  0
 14 18  1  0  0  0  0
 15 31  1  0  0  0  0
 16 20  1  0  0  0  0
 17  2  1  1  0  0  0
 17 22  1  0  0  0  0
 18 19  1  6  0  0  0
 18 24  1  0  0  0  0
 18 30  1  0  0  0  0
 20 21  1  0  0  0  0
 20 26  1  1  0  0  0
 22 23  1  1  0  0  0
 22 28  1  0  0  0  0
 24 25  1  0  0  0  0
 26 27  1  0  0  0  0
 28 29  1  6  0  0  0
M  END
>  <CHROM.1>
178.42977663,-178.89746239,-105.67875961,179.88409701,-113.57763719,66.42679640
-0.91903425,13.39753670,7.72493355,0.93236279,-0.84642883,1.40595265

>  <Name>
ligand

>  <RI>
0

>  <Rbt.Current_Directory>
/home/itssahil/PROJECTS/Mol_Feturizer/New_Systems/rnas/4GPX

>  <Rbt.Executable>
rbdock ($Id: //depot/dev/client3/rdock/2013.1/src/exe/rbdock.cxx#4 $)

>  <Rbt.Library>
libRbt.so (2013.1, Build901 2013/11/27)

>  <Rbt.Parameter_File>
/export/apps/rDock/src/rDock_2013.1_src/data/scripts/dock_solv.prm

>  <Rbt.Receptor>
prm/pocket_docking_8.prm

>  <SCORE>
-15.5917

>  <SCORE.INTER>
-6.86103

>  <SCORE.INTER.CONST>
1

>  <SCORE.INTER.POLAR>
0

>  <SCORE.INTER.ROT>
6

>  <SCORE.INTER.SOLV>
11.2784

>  <SCORE.INTER.VDW>
-15.9335

>  <SCORE.INTER.norm>
-0.221324

>  <SCORE.INTRA>
-8.73071

>  <SCORE.INTRA.DIHEDRAL>
-17.6783

>  <SCORE.INTRA.DIHEDRAL.0>
20.6841

>  <SCORE.INTRA.POLAR>
0

>  <SCORE.INTRA.POLAR.0>
0

>  <SCORE.INTRA.REPUL>
0

>  <SCORE.INTRA.REPUL.0>
0

>  <SCORE.INTRA.SOLV>
-1.80786

>  <SCORE.INTRA.SOLV.lig_0>
-64.6797

>  <SCORE.INTRA.VDW>
1.01239

>  <SCORE.INTRA.VDW.0>
-4.11825

>  <SCORE.INTRA.norm>
-0.281636

>  <SCORE.RESTR>
0

>  <SCORE.RESTR.CAVITY>
0

>  <SCORE.RESTR.norm>
0

>  <SCORE.SYSTEM>
0

>  <SCORE.SYSTEM.CONST>
0

>  <SCORE.SYSTEM.DIHEDRAL>
0

>  <SCORE.SYSTEM.SOLV>
0

>  <SCORE.SYSTEM.norm>
0

>  <SCORE.heavy>
31

>  <SCORE.norm>
-0.502959

>  <RMSD>
8.214

$$$$
ligand
 OpenBabel11021811493D
libRbt.so/2013.1/901 2013/11/27
 31 33  0  0  0  0  0  0  0  0999 V2000
    0.3967   13.8076   10.9112 C   0  0  2  0  0  0  0  0  0  0  0  0
    1.0060   12.8017   10.1073 O   0  0  0  0  0  0  0  0  0  0  0  0
    0.4195   11.4779    6.1088 C   0  0  2  0  0  0  0  0  0  0  0  0
   -0.1711   10.8250    4.9811 N   0  0  0  0  0  0  0  0  0  0  0  0
   -1.6511   13.1689    4.5197 C   0  0  2  0  0  0  0  0  0  0  0  0
    1.4427   14.1764   12.0408 C   0  0  2  0  0  0  0  0  0  0  0  0
    2.6681   14.6525   11.4078 N   0  0  0  0  0  0  0  0  0  0  0  0
    0.7486   10.3817    7.2043 C   0  0  0  0  0  0  0  0  0  0  0  0
   -1.7381   14.5145    3.7320 C   0  0  2  0  0  0  0  0  0  0  0  0
   -0.4252   14.9640    3.4732 O   0  0  0  0  0  0  0  0  0  0  0  0
    1.7371   12.9175   12.9504 C   0  0  0  0  0  0  0  0  0  0  0  0
    1.3966   11.0972    8.4484 C   0  0  2  0  0  0  0  0  0  0  0  0
    1.6998   10.0833    9.4729 N   0  0  0  0  0  0  0  0  0  0  0  0
   -2.5165   15.5390    4.6420 C   0  0  1  0  0  0  0  0  0  0  0  0
   -2.6153   16.8633    3.9437 N   0  0  0  0  0  0  0  0  0  0  0  0
    0.4389   12.0400   13.2042 C   0  0  0  0  0  0  0  0  0  0  0  0
    0.3890   12.1844    9.0303 C   0  0  2  0  0  0  0  0  0  0  0  0
   -4.0149   14.9483    4.8957 C   0  0  1  0  0  0  0  0  0  0  0  0
   -4.7215   14.7354    3.6854 O   0  0  0  0  0  0  0  0  0  0  0  0
   -0.7106   12.2738   12.5173 C   0  0  2  0  0  0  0  0  0  0  0  0
   -0.8226   13.3113   11.5363 O   0  0  0  0  0  0  0  0  0  0  0  0
    0.0720   13.2536    7.9202 C   0  0  2  0  0  0  0  0  0  0  0  0
   -0.8495   14.2292    8.4529 O   0  0  0  0  0  0  0  0  0  0  0  0
   -3.9258   13.5668    5.6219 C   0  0  0  0  0  0  0  0  0  0  0  0
   -3.0411   12.6437    4.8263 O   0  0  0  0  0  0  0  0  0  0  0  0
   -1.9872   11.4575   12.7284 C   0  0  0  0  0  0  0  0  0  0  0  0
   -3.0266   12.3575   13.1802 O   0  0  0  0  0  0  0  0  0  0  0  0
   -0.5946   12.5241    6.6959 C   0  0  1  0  0  0  0  0  0  0  0  0
   -0.8895   13.4840    5.7304 O   0  0  0  0  0  0  0  0  0  0  0  0
   -4.9256   15.8361    5.7779 C   0  0  0  0  0  0  0  0  0  0  0  0
   -2.3166   18.0625    4.7529 C   0  0  0  0  0  0  0  0  0  0  0  0
  1  2  1  6  0  0  0
  1  6  1  0  0  0  0
  1 21  1  0  0  0  0
  3  4  1  6  0  0  0
  3  8  1  0  0  0  0
  3 28  1  0  0  0  0
  5  9  1  0  0  0  0
  5 25  1  0  0  0  0
  5 29  1  1  0  0  0
  6  7  1  6  0  0  0
  6 11  1  0  0  0  0
  8 12  1  0  0  0  0
  9 10  1  1  0  0  0
  9 14  1  0  0  0  0
 11 16  1  0  0  0  0
 12 13  1  1  0  0  0
 12 17  1  0  0  0  0
 14 15  1  6  0  0  0
 14 18  1  0  0  0  0
 15 31  1  0  0  0  0
 16 20  1  0  0  0  0
 17  2  1  1  0  0  0
 17 22  1  0  0  0  0
 18 19  1  6  0  0  0
 18 24  1  0  0  0  0
 18 30  1  0  0  0  0
 20 21  1  0  0  0  0
 20 26  1  1  0  0  0
 22 23  1  1  0  0  0
 22 28  1  0  0  0  0
 24 25  1  0  0  0  0
 26 27  1  0  0  0  0
 28 29  1  6  0  0  0
M  END
>  <CHROM.1>
177.98591949,-179.72799241,-134.79727539,-178.12169194,119.07577324,68.12885177
-0.95909898,13.38395644,7.87984989,1.03862329,-0.75189835,1.50329229

>  <Name>
ligand

>  <RI>
0

>  <Rbt.Current_Directory>
/home/itssahil/PROJECTS/Mol_Feturizer/New_Systems/rnas/4GPX

>  <Rbt.Executable>
rbdock ($Id: //depot/dev/client3/rdock/2013.1/src/exe/rbdock.cxx#4 $)

>  <Rbt.Library>
libRbt.so (2013.1, Build901 2013/11/27)

>  <Rbt.Parameter_File>
/export/apps/rDock/src/rDock_2013.1_src/data/scripts/dock_solv.prm

>  <Rbt.Receptor>
prm/pocket_docking_5.prm

>  <SCORE>
-15.3817

>  <SCORE.INTER>
-6.62382

>  <SCORE.INTER.CONST>
1

>  <SCORE.INTER.POLAR>
0

>  <SCORE.INTER.ROT>
6

>  <SCORE.INTER.SOLV>
11.2871

>  <SCORE.INTER.VDW>
-15.7783

>  <SCORE.INTER.norm>
-0.213672

>  <SCORE.INTRA>
-8.75785

>  <SCORE.INTRA.DIHEDRAL>
-17.6023

>  <SCORE.INTRA.DIHEDRAL.0>
20.6841

>  <SCORE.INTRA.POLAR>
0

>  <SCORE.INTRA.POLAR.0>
0

>  <SCORE.INTRA.REPUL>
0

>  <SCORE.INTRA.REPUL.0>
0

>  <SCORE.INTRA.SOLV>
-1.97907

>  <SCORE.INTRA.SOLV.lig_0>
-64.6797

>  <SCORE.INTRA.VDW>
1.03286

>  <SCORE.INTRA.VDW.0>
-4.11825

>  <SCORE.INTRA.norm>
-0.282511

>  <SCORE.RESTR>
0

>  <SCORE.RESTR.CAVITY>
0

>  <SCORE.RESTR.norm>
0

>  <SCORE.SYSTEM>
0

>  <SCORE.SYSTEM.CONST>
0

>  <SCORE.SYSTEM.DIHEDRAL>
0

>  <SCORE.SYSTEM.SOLV>
0

>  <SCORE.SYSTEM.norm>
0

>  <SCORE.heavy>
31

>  <SCORE.norm>
-0.496183

>  <RMSD>
8.217

$$$$
ligand
 OpenBabel11021811493D
libRbt.so/2013.1/901 2013/11/27
 31 33  0  0  0  0  0  0  0  0999 V2000
   -0.8973   13.0606   11.0211 C   0  0  2  0  0  0  0  0  0  0  0  0
   -0.1219   13.8348   10.1110 O   0  0  0  0  0  0  0  0  0  0  0  0
   -0.2882   14.6398    5.9386 C   0  0  2  0  0  0  0  0  0  0  0  0
   -0.1935   14.4393    4.5252 N   0  0  0  0  0  0  0  0  0  0  0  0
   -3.0970   15.2214    5.7287 C   0  0  2  0  0  0  0  0  0  0  0  0
   -0.4251   13.4690   12.4759 C   0  0  2  0  0  0  0  0  0  0  0  0
   -0.6430   14.9006   12.6550 N   0  0  0  0  0  0  0  0  0  0  0  0
    1.1359   14.3686    6.5778 C   0  0  0  0  0  0  0  0  0  0  0  0
   -4.3188   15.3743    6.6892 C   0  0  2  0  0  0  0  0  0  0  0  0
   -3.8730   15.1672    8.0125 O   0  0  0  0  0  0  0  0  0  0  0  0
    1.0997   13.1064   12.6817 C   0  0  0  0  0  0  0  0  0  0  0  0
    1.0347   14.5860    8.1341 C   0  0  2  0  0  0  0  0  0  0  0  0
    2.3550   14.3297    8.7348 N   0  0  0  0  0  0  0  0  0  0  0  0
   -5.3788   14.2846    6.2737 C   0  0  1  0  0  0  0  0  0  0  0  0
   -6.5732   14.3692    7.1778 N   0  0  0  0  0  0  0  0  0  0  0  0
    1.4947   11.7392   11.9785 C   0  0  0  0  0  0  0  0  0  0  0  0
   -0.0512   13.5958    8.7473 C   0  0  2  0  0  0  0  0  0  0  0  0
   -5.8391   14.5904    4.7397 C   0  0  1  0  0  0  0  0  0  0  0  0
   -6.3892   15.8884    4.5915 O   0  0  0  0  0  0  0  0  0  0  0  0
    0.6348   11.1116   11.1332 C   0  0  2  0  0  0  0  0  0  0  0  0
   -0.6630   11.6352   10.8281 O   0  0  0  0  0  0  0  0  0  0  0  0
   -1.4518   13.8799    8.0888 C   0  0  2  0  0  0  0  0  0  0  0  0
   -2.4277   12.9715    8.6430 O   0  0  0  0  0  0  0  0  0  0  0  0
   -4.6024   14.5068    3.7870 C   0  0  0  0  0  0  0  0  0  0  0  0
   -3.5256   15.4323    4.2887 O   0  0  0  0  0  0  0  0  0  0  0  0
    0.9686    9.7922   10.4344 C   0  0  0  0  0  0  0  0  0  0  0  0
    1.0347   10.0420    9.0104 O   0  0  0  0  0  0  0  0  0  0  0  0
   -1.3368   13.6360    6.5387 C   0  0  1  0  0  0  0  0  0  0  0  0
   -2.5875   13.8698    5.9716 O   0  0  0  0  0  0  0  0  0  0  0  0
   -6.8878   13.6078    4.1648 C   0  0  0  0  0  0  0  0  0  0  0  0
   -6.4577   13.7038    8.4916 C   0  0  0  0  0  0  0  0  0  0  0  0
  1  2  1  6  0  0  0
  1  6  1  0  0  0  0
  1 21  1  0  0  0  0
  3  4  1  6  0  0  0
  3  8  1  0  0  0  0
  3 28  1  0  0  0  0
  5  9  1  0  0  0  0
  5 25  1  0  0  0  0
  5 29  1  6  0  0  0
  6  7  1  6  0  0  0
  6 11  1  0  0  0  0
  8 12  1  0  0  0  0
  9 10  1  1  0  0  0
  9 14  1  0  0  0  0
 11 16  1  0  0  0  0
 12 13  1  1  0  0  0
 12 17  1  0  0  0  0
 14 15  1  1  0  0  0
 14 18  1  0  0  0  0
 15 31  1  0  0  0  0
 16 20  1  0  0  0  0
 17  2  1  1  0  0  0
 17 22  1  0  0  0  0
 18 19  1  6  0  0  0
 18 24  1  0  0  0  0
 18 30  1  0  0  0  0
 20 21  1  0  0  0  0
 20 26  1  1  0  0  0
 22 23  1  1  0  0  0
 22 28  1  0  0  0  0
 24 25  1  0  0  0  0
 26 27  1  0  0  0  0
 28 29  1  6  0  0  0
M  END
>  <CHROM.1>
167.29321294,-113.79319640,-81.32042478,-174.15138758,-114.77927716,-40.97464445
-1.91114552,13.70169591,7.99503618,0.79877255,-0.10682668,1.85547852

>  <Name>
ligand

>  <RI>
0

>  <Rbt.Current_Directory>
/home/itssahil/PROJECTS/Mol_Feturizer/New_Systems/rnas/4GPX

>  <Rbt.Executable>
rbdock ($Id: //depot/dev/client3/rdock/2013.1/src/exe/rbdock.cxx#4 $)

>  <Rbt.Library>
libRbt.so (2013.1, Build901 2013/11/27)

>  <Rbt.Parameter_File>
/export/apps/rDock/src/rDock_2013.1_src/data/scripts/dock_solv.prm

>  <Rbt.Receptor>
prm/pocket_docking_4.prm

>  <SCORE>
-9.32854

>  <SCORE.INTER>
-5.86223

>  <SCORE.INTER.CONST>
1

>  <SCORE.INTER.POLAR>
0

>  <SCORE.INTER.ROT>
6

>  <SCORE.INTER.SOLV>
10.0996

>  <SCORE.INTER.VDW>
-14.8747

>  <SCORE.INTER.norm>
-0.189104

>  <SCORE.INTRA>
-3.46631

>  <SCORE.INTRA.DIHEDRAL>
-9.0309

>  <SCORE.INTRA.DIHEDRAL.0>
20.6841

>  <SCORE.INTRA.POLAR>
0

>  <SCORE.INTRA.POLAR.0>
0

>  <SCORE.INTRA.REPUL>
0

>  <SCORE.INTRA.REPUL.0>
0

>  <SCORE.INTRA.SOLV>
-0.872012

>  <SCORE.INTRA.SOLV.lig_0>
-64.6797

>  <SCORE.INTRA.VDW>
1.48515

>  <SCORE.INTRA.VDW.0>
-4.11825

>  <SCORE.INTRA.norm>
-0.111816

>  <SCORE.RESTR>
0

>  <SCORE.RESTR.CAVITY>
0

>  <SCORE.RESTR.norm>
0

>  <SCORE.SYSTEM>
0

>  <SCORE.SYSTEM.CONST>
0

>  <SCORE.SYSTEM.DIHEDRAL>
0

>  <SCORE.SYSTEM.SOLV>
0

>  <SCORE.SYSTEM.norm>
0

>  <SCORE.heavy>
31

>  <SCORE.norm>
-0.300921

>  <RMSD>
8.218

$$$$
ligand
 OpenBabel11021811493D
libRbt.so/2013.1/901 2013/11/27
 31 33  0  0  0  0  0  0  0  0999 V2000
    0.3887   13.8581   10.8891 C   0  0  2  0  0  0  0  0  0  0  0  0
    1.0213   12.8937   10.0531 O   0  0  0  0  0  0  0  0  0  0  0  0
    0.4974   11.7386    5.9941 C   0  0  2  0  0  0  0  0  0  0  0  0
   -0.0700   11.1255    4.8326 N   0  0  0  0  0  0  0  0  0  0  0  0
   -1.5702   13.4547    4.4495 C   0  0  2  0  0  0  0  0  0  0  0  0
    1.4141   14.1916   12.0480 C   0  0  2  0  0  0  0  0  0  0  0  0
    2.6425   14.7079   11.4531 N   0  0  0  0  0  0  0  0  0  0  0  0
    0.8378   10.6011    7.0431 C   0  0  0  0  0  0  0  0  0  0  0  0
   -1.6390   14.8240    3.7019 C   0  0  2  0  0  0  0  0  0  0  0  0
   -0.3208   15.2858    3.4974 O   0  0  0  0  0  0  0  0  0  0  0  0
    1.7111   12.8995   12.9089 C   0  0  0  0  0  0  0  0  0  0  0  0
    1.4602   11.2726    8.3241 C   0  0  2  0  0  0  0  0  0  0  0  0
    1.7739   10.2200    9.3056 N   0  0  0  0  0  0  0  0  0  0  0  0
   -2.4491   15.8168    4.6194 C   0  0  1  0  0  0  0  0  0  0  0  0
   -2.5323   17.1620    3.9601 N   0  0  0  0  0  0  0  0  0  0  0  0
    0.4203   11.9972   13.1072 C   0  0  0  0  0  0  0  0  0  0  0  0
    0.4264   12.3133    8.9436 C   0  0  2  0  0  0  0  0  0  0  0  0
   -3.9519   15.2135    4.8087 C   0  0  1  0  0  0  0  0  0  0  0  0
   -4.6205   15.0362    3.5714 O   0  0  0  0  0  0  0  0  0  0  0  0
   -0.7222   12.2461   12.4141 C   0  0  2  0  0  0  0  0  0  0  0  0
   -0.8332   13.3222   11.4753 O   0  0  0  0  0  0  0  0  0  0  0  0
    0.0987   13.4248    7.8790 C   0  0  2  0  0  0  0  0  0  0  0  0
   -0.8464   14.3579    8.4453 O   0  0  0  0  0  0  0  0  0  0  0  0
   -3.8789   13.8102    5.4938 C   0  0  0  0  0  0  0  0  0  0  0  0
   -2.9665   12.9154    4.6970 O   0  0  0  0  0  0  0  0  0  0  0  0
   -1.9917   11.4071   12.5726 C   0  0  0  0  0  0  0  0  0  0  0  0
   -2.2380   10.7235   11.3211 O   0  0  0  0  0  0  0  0  0  0  0  0
   -0.5423   12.7380    6.6169 C   0  0  1  0  0  0  0  0  0  0  0  0
   -0.8469   13.7342    5.6920 O   0  0  0  0  0  0  0  0  0  0  0  0
   -4.8928   16.0701    5.6900 C   0  0  0  0  0  0  0  0  0  0  0  0
   -2.2422   18.3350    4.8098 C   0  0  0  0  0  0  0  0  0  0  0  0
  1  2  1  6  0  0  0
  1  6  1  0  0  0  0
  1 21  1  0  0  0  0
  3  4  1  6  0  0  0
  3  8  1  0  0  0  0
  3 28  1  0  0  0  0
  5  9  1  0  0  0  0
  5 25  1  0  0  0  0
  5 29  1  1  0  0  0
  6  7  1  6  0  0  0
  6 11  1  0  0  0  0
  8 12  1  0  0  0  0
  9 10  1  1  0  0  0
  9 14  1  0  0  0  0
 11 16  1  0  0  0  0
 12 13  1  1  0  0  0
 12 17  1  0  0  0  0
 14 15  1  6  0  0  0
 14 18  1  0  0  0  0
 15 31  1  0  0  0  0
 16 20  1  0  0  0  0
 17  2  1  1  0  0  0
 17 22  1  0  0  0  0
 18 19  1  6  0  0  0
 18 24  1  0  0  0  0
 18 30  1  0  0  0  0
 20 21  1  0  0  0  0
 20 26  1  1  0  0  0
 22 23  1  1  0  0  0
 22 28  1  0  0  0  0
 24 25  1  0  0  0  0
 26 27  1  0  0  0  0
 28 29  1  6  0  0  0
M  END
>  <CHROM.1>
177.89826895,-177.75610726,-133.84276710,-178.59818234,-114.32544183,67.00076554
-0.88924434,13.49073104,7.74780508,0.88922244,-0.91809358,1.37740285

>  <Name>
ligand

>  <RI>
0

>  <Rbt.Current_Directory>
/home/itssahil/PROJECTS/Mol_Feturizer/New_Systems/rnas/4GPX

>  <Rbt.Executable>
rbdock ($Id: //depot/dev/client3/rdock/2013.1/src/exe/rbdock.cxx#4 $)

>  <Rbt.Library>
libRbt.so (2013.1, Build901 2013/11/27)

>  <Rbt.Parameter_File>
/export/apps/rDock/src/rDock_2013.1_src/data/scripts/dock_solv.prm

>  <Rbt.Receptor>
prm/pocket_docking_5.prm

>  <SCORE>
-15.7085

>  <SCORE.INTER>
-6.93038

>  <SCORE.INTER.CONST>
1

>  <SCORE.INTER.POLAR>
0

>  <SCORE.INTER.ROT>
6

>  <SCORE.INTER.SOLV>
11.2634

>  <SCORE.INTER.VDW>
-15.9747

>  <SCORE.INTER.norm>
-0.223561

>  <SCORE.INTRA>
-8.77815

>  <SCORE.INTRA.DIHEDRAL>
-17.6047

>  <SCORE.INTRA.DIHEDRAL.0>
20.6841

>  <SCORE.INTRA.POLAR>
0

>  <SCORE.INTRA.POLAR.0>
0

>  <SCORE.INTRA.REPUL>
0

>  <SCORE.INTRA.REPUL.0>
0

>  <SCORE.INTRA.SOLV>
-1.83519

>  <SCORE.INTRA.SOLV.lig_0>
-64.6797

>  <SCORE.INTRA.VDW>
0.941801

>  <SCORE.INTRA.VDW.0>
-4.11825

>  <SCORE.INTRA.norm>
-0.283166

>  <SCORE.RESTR>
0

>  <SCORE.RESTR.CAVITY>
0

>  <SCORE.RESTR.norm>
0

>  <SCORE.SYSTEM>
0

>  <SCORE.SYSTEM.CONST>
0

>  <SCORE.SYSTEM.DIHEDRAL>
0

>  <SCORE.SYSTEM.SOLV>
0

>  <SCORE.SYSTEM.norm>
0

>  <SCORE.heavy>
31

>  <SCORE.norm>
-0.506727

>  <RMSD>
8.229

$$$$
ligand
 OpenBabel11021811493D
libRbt.so/2013.1/901 2013/11/27
 31 33  0  0  0  0  0  0  0  0999 V2000
    0.3524   13.9418   10.9146 C   0  0  2  0  0  0  0  0  0  0  0  0
   -0.7921   13.1394   10.6398 O   0  0  0  0  0  0  0  0  0  0  0  0
   -3.9499   13.2613    7.7942 C   0  0  2  0  0  0  0  0  0  0  0  0
   -5.1392   13.6865    7.1220 N   0  0  0  0  0  0  0  0  0  0  0  0
   -3.5493   15.3217    5.5328 C   0  0  2  0  0  0  0  0  0  0  0  0
    1.5166   12.9452   11.3110 C   0  0  2  0  0  0  0  0  0  0  0  0
    1.7478   12.0282   10.1997 N   0  0  0  0  0  0  0  0  0  0  0  0
   -4.3240   12.9015    9.2910 C   0  0  0  0  0  0  0  0  0  0  0  0
   -2.7488   15.5979    4.2207 C   0  0  2  0  0  0  0  0  0  0  0  0
   -2.1917   14.3800    3.7747 O   0  0  0  0  0  0  0  0  0  0  0  0
    1.1364   12.1483   12.6222 C   0  0  0  0  0  0  0  0  0  0  0  0
   -3.0166   12.4355   10.0347 C   0  0  2  0  0  0  0  0  0  0  0  0
   -3.3573   12.1048   11.4290 N   0  0  0  0  0  0  0  0  0  0  0  0
   -1.6198   16.6396    4.5729 C   0  0  1  0  0  0  0  0  0  0  0  0
   -0.8006   16.9313    3.3503 N   0  0  0  0  0  0  0  0  0  0  0  0
    0.3523   13.0482   13.6688 C   0  0  0  0  0  0  0  0  0  0  0  0
   -1.9297   13.5985    9.9941 C   0  0  2  0  0  0  0  0  0  0  0  0
   -2.3415   18.0108    5.0800 C   0  0  1  0  0  0  0  0  0  0  0  0
   -3.2170   18.5507    4.1046 O   0  0  0  0  0  0  0  0  0  0  0  0
   -0.0987   14.2851   13.3306 C   0  0  2  0  0  0  0  0  0  0  0  0
    0.1020   14.8473   12.0286 O   0  0  0  0  0  0  0  0  0  0  0  0
   -1.5843   13.9423    8.4979 C   0  0  2  0  0  0  0  0  0  0  0  0
   -0.6061   15.0039    8.4704 O   0  0  0  0  0  0  0  0  0  0  0  0
   -3.2002   17.7199    6.3536 C   0  0  0  0  0  0  0  0  0  0  0  0
   -4.1674   16.6045    6.0564 O   0  0  0  0  0  0  0  0  0  0  0  0
   -0.8563   15.1899   14.3042 C   0  0  0  0  0  0  0  0  0  0  0  0
   -1.1216   14.4322   15.5083 O   0  0  0  0  0  0  0  0  0  0  0  0
   -2.8968   14.4268    7.7781 C   0  0  1  0  0  0  0  0  0  0  0  0
   -2.5730   14.7479    6.4617 O   0  0  0  0  0  0  0  0  0  0  0  0
   -1.3722   19.1526    5.4706 C   0  0  0  0  0  0  0  0  0  0  0  0
    0.4061   16.1034    3.1487 C   0  0  0  0  0  0  0  0  0  0  0  0
  1  2  1  1  0  0  0
  1  6  1  0  0  0  0
  1 21  1  0  0  0  0
  3  4  1  6  0  0  0
  3  8  1  0  0  0  0
  3 28  1  0  0  0  0
  5  9  1  0  0  0  0
  5 25  1  0  0  0  0
  5 29  1  1  0  0  0
  6  7  1  6  0  0  0
  6 11  1  0  0  0  0
  8 12  1  0  0  0  0
  9 10  1  1  0  0  0
  9 14  1  0  0  0  0
 11 16  1  0  0  0  0
 12 13  1  1  0  0  0
 12 17  1  0  0  0  0
 14 15  1  6  0  0  0
 14 18  1  0  0  0  0
 15 31  1  0  0  0  0
 16 20  1  0  0  0  0
 17  2  1  1  0  0  0
 17 22  1  0  0  0  0
 18 19  1  6  0  0  0
 18 24  1  0  0  0  0
 18 30  1  0  0  0  0
 20 21  1  0  0  0  0
 20 26  1  1  0  0  0
 22 23  1  1  0  0  0
 22 28  1  0  0  0  0
 24 25  1  0  0  0  0
 26 27  1  0  0  0  0
 28 29  1  6  0  0  0
M  END
>  <CHROM.1>
-165.86939207,176.71859855,-92.23984631,-173.90676094,-6.95242449,65.52471111
-1.66645841,14.77458151,8.47731518,-1.32473780,-0.38531903,-1.09853195

>  <Name>
ligand

>  <RI>
0

>  <Rbt.Current_Directory>
/home/itssahil/PROJECTS/Mol_Feturizer/New_Systems/rnas/4GPX

>  <Rbt.Executable>
rbdock ($Id: //depot/dev/client3/rdock/2013.1/src/exe/rbdock.cxx#4 $)

>  <Rbt.Library>
libRbt.so (2013.1, Build901 2013/11/27)

>  <Rbt.Parameter_File>
/export/apps/rDock/src/rDock_2013.1_src/data/scripts/dock_solv.prm

>  <Rbt.Receptor>
prm/pocket_docking_8.prm

>  <SCORE>
-15.7665

>  <SCORE.INTER>
-8.70006

>  <SCORE.INTER.CONST>
1

>  <SCORE.INTER.POLAR>
0

>  <SCORE.INTER.ROT>
6

>  <SCORE.INTER.SOLV>
10.3639

>  <SCORE.INTER.VDW>
-16.8547

>  <SCORE.INTER.norm>
-0.280647

>  <SCORE.INTRA>
-7.06639

>  <SCORE.INTRA.DIHEDRAL>
-16.9328

>  <SCORE.INTRA.DIHEDRAL.0>
20.6841

>  <SCORE.INTRA.POLAR>
0

>  <SCORE.INTRA.POLAR.0>
0

>  <SCORE.INTRA.REPUL>
0

>  <SCORE.INTRA.REPUL.0>
0

>  <SCORE.INTRA.SOLV>
-1.45802

>  <SCORE.INTRA.SOLV.lig_0>
-64.6797

>  <SCORE.INTRA.VDW>
2.12903

>  <SCORE.INTRA.VDW.0>
-4.11825

>  <SCORE.INTRA.norm>
-0.227948

>  <SCORE.RESTR>
0

>  <SCORE.RESTR.CAVITY>
0

>  <SCORE.RESTR.norm>
0

>  <SCORE.SYSTEM>
0

>  <SCORE.SYSTEM.CONST>
0

>  <SCORE.SYSTEM.DIHEDRAL>
0

>  <SCORE.SYSTEM.SOLV>
0

>  <SCORE.SYSTEM.norm>
0

>  <SCORE.heavy>
31

>  <SCORE.norm>
-0.508595

>  <RMSD>
8.235

$$$$
ligand
 OpenBabel11021811493D
libRbt.so/2013.1/901 2013/11/27
 31 33  0  0  0  0  0  0  0  0999 V2000
   -3.7386   14.0530   11.7266 C   0  0  2  0  0  0  0  0  0  0  0  0
   -4.0881   15.4240   11.5606 O   0  0  0  0  0  0  0  0  0  0  0  0
   -4.0209   18.2595    8.3921 C   0  0  2  0  0  0  0  0  0  0  0  0
   -3.5122   19.1473    7.3922 N   0  0  0  0  0  0  0  0  0  0  0  0
   -3.4196   16.8265    5.5823 C   0  0  2  0  0  0  0  0  0  0  0  0
   -4.6707   13.4863   12.8738 C   0  0  2  0  0  0  0  0  0  0  0  0
   -6.0634   13.6487   12.4697 N   0  0  0  0  0  0  0  0  0  0  0  0
   -3.4580   18.7185    9.8001 C   0  0  0  0  0  0  0  0  0  0  0  0
   -4.2385   16.1060    4.4648 C   0  0  2  0  0  0  0  0  0  0  0  0
   -5.5932   16.4813    4.5939 O   0  0  0  0  0  0  0  0  0  0  0  0
   -4.3922   14.2431   14.2335 C   0  0  0  0  0  0  0  0  0  0  0  0
   -4.0139   17.7418   10.9031 C   0  0  2  0  0  0  0  0  0  0  0  0
   -3.4893   18.1603   12.2142 N   0  0  0  0  0  0  0  0  0  0  0  0
   -4.0594   14.5551    4.6807 C   0  0  1  0  0  0  0  0  0  0  0  0
   -4.8431   13.8056    3.6438 N   0  0  0  0  0  0  0  0  0  0  0  0
   -2.8535   14.5777   14.4332 C   0  0  0  0  0  0  0  0  0  0  0  0
   -3.5616   16.2497   10.5794 C   0  0  2  0  0  0  0  0  0  0  0  0
   -2.4753   14.2048    4.5191 C   0  0  1  0  0  0  0  0  0  0  0  0
   -1.9670   14.5832    3.2511 O   0  0  0  0  0  0  0  0  0  0  0  0
   -1.9612   14.4031   13.4227 C   0  0  2  0  0  0  0  0  0  0  0  0
   -2.3461   13.9130   12.1331 O   0  0  0  0  0  0  0  0  0  0  0  0
   -4.1250   15.8236    9.1733 C   0  0  2  0  0  0  0  0  0  0  0  0
   -3.7020   14.4739    8.8838 O   0  0  0  0  0  0  0  0  0  0  0  0
   -1.6468   14.9813    5.5936 C   0  0  0  0  0  0  0  0  0  0  0  0
   -1.9522   16.4522    5.4886 O   0  0  0  0  0  0  0  0  0  0  0  0
   -0.4692   14.7087   13.5675 C   0  0  0  0  0  0  0  0  0  0  0  0
    0.2672   13.4931   13.2949 O   0  0  0  0  0  0  0  0  0  0  0  0
   -3.5415   16.7959    8.0827 C   0  0  1  0  0  0  0  0  0  0  0  0
   -4.0306   16.3949    6.8415 O   0  0  0  0  0  0  0  0  0  0  0  0
   -2.1155   12.7104    4.7010 C   0  0  0  0  0  0  0  0  0  0  0  0
   -6.2388   13.4645    3.9871 C   0  0  0  0  0  0  0  0  0  0  0  0
  1  2  1  1  0  0  0
  1  6  1  0  0  0  0
  1 21  1  0  0  0  0
  3  4  1  6  0  0  0
  3  8  1  0  0  0  0
  3 28  1  0  0  0  0
  5  9  1  0  0  0  0
  5 25  1  0  0  0  0
  5 29  1  1  0  0  0
  6  7  1  6  0  0  0
  6 11  1  0  0  0  0
  8 12  1  0  0  0  0
  9 10  1  1  0  0  0
  9 14  1  0  0  0  0
 11 16  1  0  0  0  0
 12 13  1  1  0  0  0
 12 17  1  0  0  0  0
 14 15  1  6  0  0  0
 14 18  1  0  0  0  0
 15 31  1  0  0  0  0
 16 20  1  0  0  0  0
 17  2  1  1  0  0  0
 17 22  1  0  0  0  0
 18 19  1  6  0  0  0
 18 24  1  0  0  0  0
 18 30  1  0  0  0  0
 20 21  1  0  0  0  0
 20 26  1  1  0  0  0
 22 23  1  6  0  0  0
 22 28  1  0  0  0  0
 24 25  1  0  0  0  0
 26 27  1  0  0  0  0
 28 29  1  6  0  0  0
M  END
>  <CHROM.1>
-175.12334662,177.79403441,-90.02229156,-170.16401986,121.18328809,78.55948810
-3.41091631,15.39012209,8.76248502,-1.25022928,1.27651974,-1.83343096

>  <Name>
ligand

>  <RI>
0

>  <Rbt.Current_Directory>
/home/itssahil/PROJECTS/Mol_Feturizer/New_Systems/rnas/4GPX

>  <Rbt.Executable>
rbdock ($Id: //depot/dev/client3/rdock/2013.1/src/exe/rbdock.cxx#4 $)

>  <Rbt.Library>
libRbt.so (2013.1, Build901 2013/11/27)

>  <Rbt.Parameter_File>
/export/apps/rDock/src/rDock_2013.1_src/data/scripts/dock_solv.prm

>  <Rbt.Receptor>
prm/pocket_docking_7.prm

>  <SCORE>
-12.3438

>  <SCORE.INTER>
-3.91389

>  <SCORE.INTER.CONST>
1

>  <SCORE.INTER.POLAR>
0

>  <SCORE.INTER.ROT>
6

>  <SCORE.INTER.SOLV>
10.8781

>  <SCORE.INTER.VDW>
-13.8353

>  <SCORE.INTER.norm>
-0.126254

>  <SCORE.INTRA>
-8.42994

>  <SCORE.INTRA.DIHEDRAL>
-16.212

>  <SCORE.INTRA.DIHEDRAL.0>
20.6841

>  <SCORE.INTRA.POLAR>
0

>  <SCORE.INTRA.POLAR.0>
0

>  <SCORE.INTRA.REPUL>
0

>  <SCORE.INTRA.REPUL.0>
0

>  <SCORE.INTRA.SOLV>
-1.79841

>  <SCORE.INTRA.SOLV.lig_0>
-64.6797

>  <SCORE.INTRA.VDW>
0.575276

>  <SCORE.INTRA.VDW.0>
-4.11825

>  <SCORE.INTRA.norm>
-0.271934

>  <SCORE.RESTR>
0

>  <SCORE.RESTR.CAVITY>
0

>  <SCORE.RESTR.norm>
0

>  <SCORE.SYSTEM>
0

>  <SCORE.SYSTEM.CONST>
0

>  <SCORE.SYSTEM.DIHEDRAL>
0

>  <SCORE.SYSTEM.SOLV>
0

>  <SCORE.SYSTEM.norm>
0

>  <SCORE.heavy>
31

>  <SCORE.norm>
-0.398188

>  <RMSD>
8.239

$$$$
ligand
 OpenBabel11021811493D
libRbt.so/2013.1/901 2013/11/27
 31 33  0  0  0  0  0  0  0  0999 V2000
    1.3252   12.7521    8.9556 C   0  0  2  0  0  0  0  0  0  0  0  0
    0.9216   12.4081    7.6335 O   0  0  0  0  0  0  0  0  0  0  0  0
   -1.8952   13.8259    4.7805 C   0  0  2  0  0  0  0  0  0  0  0  0
   -3.1513   14.1380    4.1708 N   0  0  0  0  0  0  0  0  0  0  0  0
   -3.0704   16.6674    5.5884 C   0  0  2  0  0  0  0  0  0  0  0  0
    2.8616   12.3873    9.0669 C   0  0  2  0  0  0  0  0  0  0  0  0
    3.5972   13.1429    8.0584 N   0  0  0  0  0  0  0  0  0  0  0  0
   -1.8449   12.2655    5.0496 C   0  0  0  0  0  0  0  0  0  0  0  0
   -2.6394   18.1041    5.1537 C   0  0  2  0  0  0  0  0  0  0  0  0
   -1.7612   17.9914    4.0543 O   0  0  0  0  0  0  0  0  0  0  0  0
    3.0744   10.8339    8.8659 C   0  0  0  0  0  0  0  0  0  0  0  0
   -0.4644   11.9187    5.7231 C   0  0  2  0  0  0  0  0  0  0  0  0
   -0.4141   10.4694    5.9809 N   0  0  0  0  0  0  0  0  0  0  0  0
   -1.9175   18.7684    6.3871 C   0  0  1  0  0  0  0  0  0  0  0  0
   -1.4607   20.1503    6.0225 N   0  0  0  0  0  0  0  0  0  0  0  0
    1.9148    9.9756    9.5280 C   0  0  0  0  0  0  0  0  0  0  0  0
   -0.3119   12.7266    7.0869 C   0  0  2  0  0  0  0  0  0  0  0  0
   -2.9925   18.8592    7.6096 C   0  0  1  0  0  0  0  0  0  0  0  0
   -4.1452   19.6056    7.2583 O   0  0  0  0  0  0  0  0  0  0  0  0
    0.7896   10.5690   10.0071 C   0  0  2  0  0  0  0  0  0  0  0  0
    0.5815   11.9848    9.9466 O   0  0  0  0  0  0  0  0  0  0  0  0
   -0.3752   14.2710    6.7921 C   0  0  2  0  0  0  0  0  0  0  0  0
   -0.2462   14.9951    8.0345 O   0  0  0  0  0  0  0  0  0  0  0  0
   -3.4778   17.4249    7.9983 C   0  0  0  0  0  0  0  0  0  0  0  0
   -4.0157   16.7336    6.7733 O   0  0  0  0  0  0  0  0  0  0  0  0
   -0.3532    9.7854   10.6555 C   0  0  0  0  0  0  0  0  0  0  0  0
   -1.5434    9.9818    9.8559 O   0  0  0  0  0  0  0  0  0  0  0  0
   -1.7688   14.6013    6.1408 C   0  0  1  0  0  0  0  0  0  0  0  0
   -1.8200   15.9733    5.9049 O   0  0  0  0  0  0  0  0  0  0  0  0
   -2.4473   19.4928    8.9123 C   0  0  0  0  0  0  0  0  0  0  0  0
   -0.0115   20.4175    6.1258 C   0  0  0  0  0  0  0  0  0  0  0  0
  1  2  1  6  0  0  0
  1  6  1  0  0  0  0
  1 21  1  0  0  0  0
  3  4  1  1  0  0  0
  3  8  1  0  0  0  0
  3 28  1  0  0  0  0
  5  9  1  0  0  0  0
  5 25  1  0  0  0  0
  5 29  1  1  0  0  0
  6  7  1  6  0  0  0
  6 11  1  0  0  0  0
  8 12  1  0  0  0  0
  9 10  1  6  0  0  0
  9 14  1  0  0  0  0
 11 16  1  0  0  0  0
 12 13  1  1  0  0  0
 12 17  1  0  0  0  0
 14 15  1  6  0  0  0
 14 18  1  0  0  0  0
 15 31  1  0  0  0  0
 16 20  1  0  0  0  0
 17  2  1  6  0  0  0
 17 22  1  0  0  0  0
 18 19  1  6  0  0  0
 18 24  1  0  0  0  0
 18 30  1  0  0  0  0
 20 21  1  0  0  0  0
 20 26  1  1  0  0  0
 22 23  1  1  0  0  0
 22 28  1  0  0  0  0
 24 25  1  0  0  0  0
 26 27  1  0  0  0  0
 28 29  1  6  0  0  0
M  END
>  <CHROM.1>
-171.64922602,-170.11268068,-120.65499229,-168.85968876,-118.15341691,75.30948652
-0.89251886,14.64697476,7.24561280,-0.93362715,-0.82701699,0.17702990

>  <Name>
ligand

>  <RI>
0

>  <Rbt.Current_Directory>
/home/itssahil/PROJECTS/Mol_Feturizer/New_Systems/rnas/4GPX

>  <Rbt.Executable>
rbdock ($Id: //depot/dev/client3/rdock/2013.1/src/exe/rbdock.cxx#4 $)

>  <Rbt.Library>
libRbt.so (2013.1, Build901 2013/11/27)

>  <Rbt.Parameter_File>
/export/apps/rDock/src/rDock_2013.1_src/data/scripts/dock_solv.prm

>  <Rbt.Receptor>
prm/pocket_docking_8.prm

>  <SCORE>
-14.4779

>  <SCORE.INTER>
-6.48891

>  <SCORE.INTER.CONST>
1

>  <SCORE.INTER.POLAR>
0

>  <SCORE.INTER.ROT>
6

>  <SCORE.INTER.SOLV>
12.0318

>  <SCORE.INTER.VDW>
-15.9365

>  <SCORE.INTER.norm>
-0.20932

>  <SCORE.INTRA>
-7.98903

>  <SCORE.INTRA.DIHEDRAL>
-15.2881

>  <SCORE.INTRA.DIHEDRAL.0>
20.6841

>  <SCORE.INTRA.POLAR>
0

>  <SCORE.INTRA.POLAR.0>
0

>  <SCORE.INTRA.REPUL>
0

>  <SCORE.INTRA.REPUL.0>
0

>  <SCORE.INTRA.SOLV>
-1.32421

>  <SCORE.INTRA.SOLV.lig_0>
-64.6797

>  <SCORE.INTRA.VDW>
0.317133

>  <SCORE.INTRA.VDW.0>
-4.11825

>  <SCORE.INTRA.norm>
-0.257711

>  <SCORE.RESTR>
0

>  <SCORE.RESTR.CAVITY>
0

>  <SCORE.RESTR.norm>
0

>  <SCORE.SYSTEM>
0

>  <SCORE.SYSTEM.CONST>
0

>  <SCORE.SYSTEM.DIHEDRAL>
0

>  <SCORE.SYSTEM.SOLV>
0

>  <SCORE.SYSTEM.norm>
0

>  <SCORE.heavy>
31

>  <SCORE.norm>
-0.467031

>  <RMSD>
8.285

$$$$
ligand
 OpenBabel11021811493D
libRbt.so/2013.1/901 2013/11/27
 31 33  0  0  0  0  0  0  0  0999 V2000
    1.5942   12.8542    8.8175 C   0  0  2  0  0  0  0  0  0  0  0  0
    1.0792   12.3640    7.5832 O   0  0  0  0  0  0  0  0  0  0  0  0
   -1.8870   13.6226    4.8079 C   0  0  2  0  0  0  0  0  0  0  0  0
   -3.1736   13.9125    4.2534 N   0  0  0  0  0  0  0  0  0  0  0  0
   -2.9648   16.5232    5.4211 C   0  0  2  0  0  0  0  0  0  0  0  0
    3.0927   12.3526    8.9114 C   0  0  2  0  0  0  0  0  0  0  0  0
    3.8337   12.8722    7.7668 N   0  0  0  0  0  0  0  0  0  0  0  0
   -1.8418   12.0851    5.1873 C   0  0  0  0  0  0  0  0  0  0  0  0
   -2.5422   17.9671    5.0024 C   0  0  2  0  0  0  0  0  0  0  0  0
   -1.6363   17.8703    3.9241 O   0  0  0  0  0  0  0  0  0  0  0  0
    3.1436   10.7728    8.9387 C   0  0  0  0  0  0  0  0  0  0  0  0
   -0.4277   11.7629    5.8005 C   0  0  2  0  0  0  0  0  0  0  0  0
   -0.3817   10.3354    6.1604 N   0  0  0  0  0  0  0  0  0  0  0  0
   -1.8590   18.6357    6.2554 C   0  0  1  0  0  0  0  0  0  0  0  0
   -1.4115   20.0248    5.9072 N   0  0  0  0  0  0  0  0  0  0  0  0
    1.9503   10.1454    9.7766 C   0  0  0  0  0  0  0  0  0  0  0  0
   -0.1809   12.6645    7.0896 C   0  0  2  0  0  0  0  0  0  0  0  0
   -2.9643   18.7075    7.4518 C   0  0  1  0  0  0  0  0  0  0  0  0
   -4.1179   19.4404    7.0756 O   0  0  0  0  0  0  0  0  0  0  0  0
    0.9184   10.9157   10.2119 C   0  0  2  0  0  0  0  0  0  0  0  0
    0.8431   12.3213    9.9470 O   0  0  0  0  0  0  0  0  0  0  0  0
   -0.2408   14.1844    6.6866 C   0  0  2  0  0  0  0  0  0  0  0  0
   -0.0261   14.9941    7.8625 O   0  0  0  0  0  0  0  0  0  0  0  0
   -3.4402   17.2655    7.8232 C   0  0  0  0  0  0  0  0  0  0  0  0
   -3.9393   16.5724    6.5829 O   0  0  0  0  0  0  0  0  0  0  0  0
   -0.2519   10.3580   11.0241 C   0  0  0  0  0  0  0  0  0  0  0  0
   -1.4669   10.5731   10.2679 O   0  0  0  0  0  0  0  0  0  0  0  0
   -1.6669   14.4920    6.0975 C   0  0  1  0  0  0  0  0  0  0  0  0
   -1.7136   15.8440    5.7651 O   0  0  0  0  0  0  0  0  0  0  0  0
   -2.4591   19.3428    8.7698 C   0  0  0  0  0  0  0  0  0  0  0  0
    0.0079   20.3462    6.1602 C   0  0  0  0  0  0  0  0  0  0  0  0
  1  2  1  6  0  0  0
  1  6  1  0  0  0  0
  1 21  1  0  0  0  0
  3  4  1  1  0  0  0
  3  8  1  0  0  0  0
  3 28  1  0  0  0  0
  5  9  1  0  0  0  0
  5 25  1  0  0  0  0
  5 29  1  1  0  0  0
  6  7  1  6  0  0  0
  6 11  1  0  0  0  0
  8 12  1  0  0  0  0
  9 10  1  6  0  0  0
  9 14  1  0  0  0  0
 11 16  1  0  0  0  0
 12 13  1  1  0  0  0
 12 17  1  0  0  0  0
 14 15  1  6  0  0  0
 14 18  1  0  0  0  0
 15 31  1  0  0  0  0
 16 20  1  0  0  0  0
 17  2  1  6  0  0  0
 17 22  1  0  0  0  0
 18 19  1  6  0  0  0
 18 24  1  0  0  0  0
 18 30  1  0  0  0  0
 20 21  1  0  0  0  0
 20 26  1  1  0  0  0
 22 23  1  1  0  0  0
 22 28  1  0  0  0  0
 24 25  1  0  0  0  0
 26 27  1  0  0  0  0
 28 29  1  6  0  0  0
M  END
>  <CHROM.1>
-175.53065488,-175.17415424,-125.92290087,-172.36855744,-118.88660390,72.76625774
-0.79735187,14.61492110,7.22013588,-0.87393240,-0.84203223,0.19754432

>  <Name>
ligand

>  <RI>
0

>  <Rbt.Current_Directory>
/home/itssahil/PROJECTS/Mol_Feturizer/New_Systems/rnas/4GPX

>  <Rbt.Executable>
rbdock ($Id: //depot/dev/client3/rdock/2013.1/src/exe/rbdock.cxx#4 $)

>  <Rbt.Library>
libRbt.so (2013.1, Build901 2013/11/27)

>  <Rbt.Parameter_File>
/export/apps/rDock/src/rDock_2013.1_src/data/scripts/dock_solv.prm

>  <Rbt.Receptor>
prm/pocket_docking_7.prm

>  <SCORE>
-14.5213

>  <SCORE.INTER>
-5.93042

>  <SCORE.INTER.CONST>
1

>  <SCORE.INTER.POLAR>
0

>  <SCORE.INTER.ROT>
6

>  <SCORE.INTER.SOLV>
11.7105

>  <SCORE.INTER.VDW>
-15.4571

>  <SCORE.INTER.norm>
-0.191304

>  <SCORE.INTRA>
-8.59085

>  <SCORE.INTRA.DIHEDRAL>
-16.5489

>  <SCORE.INTRA.DIHEDRAL.0>
20.6841

>  <SCORE.INTRA.POLAR>
0

>  <SCORE.INTRA.POLAR.0>
0

>  <SCORE.INTRA.REPUL>
0

>  <SCORE.INTRA.REPUL.0>
0

>  <SCORE.INTRA.SOLV>
-1.6411

>  <SCORE.INTRA.SOLV.lig_0>
-64.6797

>  <SCORE.INTRA.VDW>
0.50414

>  <SCORE.INTRA.VDW.0>
-4.11825

>  <SCORE.INTRA.norm>
-0.277124

>  <SCORE.RESTR>
0

>  <SCORE.RESTR.CAVITY>
0

>  <SCORE.RESTR.norm>
0

>  <SCORE.SYSTEM>
0

>  <SCORE.SYSTEM.CONST>
0

>  <SCORE.SYSTEM.DIHEDRAL>
0

>  <SCORE.SYSTEM.SOLV>
0

>  <SCORE.SYSTEM.norm>
0

>  <SCORE.heavy>
31

>  <SCORE.norm>
-0.468428

>  <RMSD>
8.292

$$$$
ligand
 OpenBabel11021811493D
libRbt.so/2013.1/901 2013/11/27
 31 33  0  0  0  0  0  0  0  0999 V2000
    1.2630   11.8500    9.3243 C   0  0  2  0  0  0  0  0  0  0  0  0
    1.0272   11.4240    7.9855 O   0  0  0  0  0  0  0  0  0  0  0  0
    1.8145   14.9335    5.7166 C   0  0  2  0  0  0  0  0  0  0  0  0
    1.9322   15.8097    4.5918 N   0  0  0  0  0  0  0  0  0  0  0  0
   -0.7101   16.5984    5.0461 C   0  0  2  0  0  0  0  0  0  0  0  0
    2.0521   10.6777   10.0377 C   0  0  2  0  0  0  0  0  0  0  0  0
    3.2967   10.4415    9.3135 N   0  0  0  0  0  0  0  0  0  0  0  0
    2.7441   13.6749    5.4684 C   0  0  0  0  0  0  0  0  0  0  0  0
   -1.5748   17.6974    5.7412 C   0  0  2  0  0  0  0  0  0  0  0  0
   -0.8721   18.1673    6.8717 O   0  0  0  0  0  0  0  0  0  0  0  0
    1.1715    9.3655   10.0767 C   0  0  0  0  0  0  0  0  0  0  0  0
    2.6150   12.7068    6.7036 C   0  0  2  0  0  0  0  0  0  0  0  0
    3.4733   11.5316    6.4760 N   0  0  0  0  0  0  0  0  0  0  0  0
   -2.9359   17.0237    6.1623 C   0  0  1  0  0  0  0  0  0  0  0  0
   -3.8057   18.0301    6.8564 N   0  0  0  0  0  0  0  0  0  0  0  0
   -0.3640    9.6770   10.3318 C   0  0  0  0  0  0  0  0  0  0  0  0
    1.0979   12.2556    6.8787 C   0  0  2  0  0  0  0  0  0  0  0  0
   -3.6816   16.5075    4.8074 C   0  0  1  0  0  0  0  0  0  0  0  0
   -3.9216   17.5614    3.8904 O   0  0  0  0  0  0  0  0  0  0  0  0
   -0.8362   10.9511   10.2960 C   0  0  2  0  0  0  0  0  0  0  0  0
    0.0085   12.0770   10.0304 O   0  0  0  0  0  0  0  0  0  0  0  0
    0.1967   13.5239    7.1135 C   0  0  2  0  0  0  0  0  0  0  0  0
   -1.1776   13.1067    7.2610 O   0  0  0  0  0  0  0  0  0  0  0  0
   -2.7843   15.4587    4.0735 C   0  0  0  0  0  0  0  0  0  0  0  0
   -1.4252   16.0568    3.8225 O   0  0  0  0  0  0  0  0  0  0  0  0
   -2.3056   11.3015   10.5378 C   0  0  0  0  0  0  0  0  0  0  0  0
   -2.8796   11.7261    9.2789 O   0  0  0  0  0  0  0  0  0  0  0  0
    0.3212   14.4675    5.8606 C   0  0  1  0  0  0  0  0  0  0  0  0
   -0.4972   15.5749    6.0718 O   0  0  0  0  0  0  0  0  0  0  0  0
   -5.0466   15.8148    5.0372 C   0  0  0  0  0  0  0  0  0  0  0  0
   -3.6533   18.1385    8.3217 C   0  0  0  0  0  0  0  0  0  0  0  0
  1  2  1  6  0  0  0
  1  6  1  0  0  0  0
  1 21  1  0  0  0  0
  3  4  1  6  0  0  0
  3  8  1  0  0  0  0
  3 28  1  0  0  0  0
  5  9  1  0  0  0  0
  5 25  1  0  0  0  0
  5 29  1  1  0  0  0
  6  7  1  6  0  0  0
  6 11  1  0  0  0  0
  8 12  1  0  0  0  0
  9 10  1  1  0  0  0
  9 14  1  0  0  0  0
 11 16  1  0  0  0  0
 12 13  1  6  0  0  0
 12 17  1  0  0  0  0
 14 15  1  6  0  0  0
 14 18  1  0  0  0  0
 15 31  1  0  0  0  0
 16 20  1  0  0  0  0
 17  2  1  1  0  0  0
 17 22  1  0  0  0  0
 18 19  1  6  0  0  0
 18 24  1  0  0  0  0
 18 30  1  0  0  0  0
 20 21  1  0  0  0  0
 20 26  1  1  0  0  0
 22 23  1  6  0  0  0
 22 28  1  0  0  0  0
 24 25  1  0  0  0  0
 26 27  1  0  0  0  0
 28 29  1  1  0  0  0
M  END
>  <CHROM.1>
-141.29950702,-175.11935565,-89.54271656,66.68395576,-109.53647281,66.81682366
-0.54796378,14.02593256,7.09605551,1.04701937,-0.36746681,2.37967027

>  <Name>
ligand

>  <RI>
0

>  <Rbt.Current_Directory>
/home/itssahil/PROJECTS/Mol_Feturizer/New_Systems/rnas/4GPX

>  <Rbt.Executable>
rbdock ($Id: //depot/dev/client3/rdock/2013.1/src/exe/rbdock.cxx#4 $)

>  <Rbt.Library>
libRbt.so (2013.1, Build901 2013/11/27)

>  <Rbt.Parameter_File>
/export/apps/rDock/src/rDock_2013.1_src/data/scripts/dock_solv.prm

>  <Rbt.Receptor>
prm/pocket_docking_7.prm

>  <SCORE>
-12.2931

>  <SCORE.INTER>
-7.51601

>  <SCORE.INTER.CONST>
1

>  <SCORE.INTER.POLAR>
0

>  <SCORE.INTER.ROT>
6

>  <SCORE.INTER.SOLV>
10.9753

>  <SCORE.INTER.VDW>
-16.2691

>  <SCORE.INTER.norm>
-0.242452

>  <SCORE.INTRA>
-4.77707

>  <SCORE.INTRA.DIHEDRAL>
-12.5275

>  <SCORE.INTRA.DIHEDRAL.0>
20.6841

>  <SCORE.INTRA.POLAR>
0

>  <SCORE.INTRA.POLAR.0>
0

>  <SCORE.INTRA.REPUL>
0

>  <SCORE.INTRA.REPUL.0>
0

>  <SCORE.INTRA.SOLV>
1.56657

>  <SCORE.INTRA.SOLV.lig_0>
-64.6797

>  <SCORE.INTRA.VDW>
0.703403

>  <SCORE.INTRA.VDW.0>
-4.11825

>  <SCORE.INTRA.norm>
-0.154099

>  <SCORE.RESTR>
0

>  <SCORE.RESTR.CAVITY>
0

>  <SCORE.RESTR.norm>
0

>  <SCORE.SYSTEM>
0

>  <SCORE.SYSTEM.CONST>
0

>  <SCORE.SYSTEM.DIHEDRAL>
0

>  <SCORE.SYSTEM.SOLV>
0

>  <SCORE.SYSTEM.norm>
0

>  <SCORE.heavy>
31

>  <SCORE.norm>
-0.396551

>  <RMSD>
8.318

$$$$
ligand
 OpenBabel11021811493D
libRbt.so/2013.1/901 2013/11/27
 31 33  0  0  0  0  0  0  0  0999 V2000
    0.2833   11.3021    8.6971 C   0  0  2  0  0  0  0  0  0  0  0  0
    0.1408   12.0747    9.8853 O   0  0  0  0  0  0  0  0  0  0  0  0
   -0.9606   16.1041   10.6819 C   0  0  2  0  0  0  0  0  0  0  0  0
   -0.8716   17.5287   10.7794 N   0  0  0  0  0  0  0  0  0  0  0  0
   -1.8523   17.6703    8.1244 C   0  0  2  0  0  0  0  0  0  0  0  0
    0.0616    9.7909    9.1130 C   0  0  2  0  0  0  0  0  0  0  0  0
   -1.2696    9.6552    9.6951 N   0  0  0  0  0  0  0  0  0  0  0  0
    0.1932   15.4705   11.5634 C   0  0  0  0  0  0  0  0  0  0  0  0
   -3.0682   17.8423    7.1597 C   0  0  2  0  0  0  0  0  0  0  0  0
   -4.2205   17.3411    7.8027 O   0  0  0  0  0  0  0  0  0  0  0  0
    1.1704    9.3352   10.1434 C   0  0  0  0  0  0  0  0  0  0  0  0
    0.0999   13.9022   11.4564 C   0  0  2  0  0  0  0  0  0  0  0  0
    1.1740   13.3073   12.2700 N   0  0  0  0  0  0  0  0  0  0  0  0
   -2.7480   17.0206    5.8535 C   0  0  1  0  0  0  0  0  0  0  0  0
   -3.8940   17.1318    4.8916 N   0  0  0  0  0  0  0  0  0  0  0  0
    2.5925    9.9588    9.8141 C   0  0  0  0  0  0  0  0  0  0  0  0
    0.2492   13.4558    9.9352 C   0  0  2  0  0  0  0  0  0  0  0  0
   -1.4089   17.6568    5.1751 C   0  0  1  0  0  0  0  0  0  0  0  0
   -1.5649   19.0304    4.8618 O   0  0  0  0  0  0  0  0  0  0  0  0
    2.7307   10.9321    8.8752 C   0  0  2  0  0  0  0  0  0  0  0  0
    1.6195   11.4488    8.1340 O   0  0  0  0  0  0  0  0  0  0  0  0
   -0.9017   14.1063    9.0818 C   0  0  2  0  0  0  0  0  0  0  0  0
   -0.7529   13.7045    7.7031 O   0  0  0  0  0  0  0  0  0  0  0  0
   -0.2068   17.5485    6.1686 C   0  0  0  0  0  0  0  0  0  0  0  0
   -0.5838   18.1930    7.4765 O   0  0  0  0  0  0  0  0  0  0  0  0
    4.0794   11.5617    8.5212 C   0  0  0  0  0  0  0  0  0  0  0  0
    4.0526   12.9467    8.9399 O   0  0  0  0  0  0  0  0  0  0  0  0
   -0.7786   15.6716    9.1828 C   0  0  1  0  0  0  0  0  0  0  0  0
   -1.7891   16.2345    8.4064 O   0  0  0  0  0  0  0  0  0  0  0  0
   -0.9471   16.9651    3.8697 C   0  0  0  0  0  0  0  0  0  0  0  0
   -4.8908   16.0419    4.9202 C   0  0  0  0  0  0  0  0  0  0  0  0
  1  2  1  1  0  0  0
  1  6  1  0  0  0  0
  1 21  1  0  0  0  0
  3  4  1  6  0  0  0
  3  8  1  0  0  0  0
  3 28  1  0  0  0  0
  5  9  1  0  0  0  0
  5 25  1  0  0  0  0
  5 29  1  6  0  0  0
  6  7  1  1  0  0  0
  6 11  1  0  0  0  0
  8 12  1  0  0  0  0
  9 10  1  1  0  0  0
  9 14  1  0  0  0  0
 11 16  1  0  0  0  0
 12 13  1  1  0  0  0
 12 17  1  0  0  0  0
 14 15  1  6  0  0  0
 14 18  1  0  0  0  0
 15 31  1  0  0  0  0
 16 20  1  0  0  0  0
 17  2  1  1  0  0  0
 17 22  1  0  0  0  0
 18 19  1  6  0  0  0
 18 24  1  0  0  0  0
 18 30  1  0  0  0  0
 20 21  1  0  0  0  0
 20 26  1  6  0  0  0
 22 23  1  6  0  0  0
 22 28  1  0  0  0  0
 24 25  1  0  0  0  0
 26 27  1  0  0  0  0
 28 29  1  6  0  0  0
M  END
>  <CHROM.1>
-179.23121621,176.41665284,-95.47206685,-177.06173710,-113.22464547,70.07941497
-0.46007088,14.56671931,8.32624127,-0.02610906,1.06850395,-2.04636454

>  <Name>
ligand

>  <RI>
0

>  <Rbt.Current_Directory>
/home/itssahil/PROJECTS/Mol_Feturizer/New_Systems/rnas/4GPX

>  <Rbt.Executable>
rbdock ($Id: //depot/dev/client3/rdock/2013.1/src/exe/rbdock.cxx#4 $)

>  <Rbt.Library>
libRbt.so (2013.1, Build901 2013/11/27)

>  <Rbt.Parameter_File>
/export/apps/rDock/src/rDock_2013.1_src/data/scripts/dock_solv.prm

>  <Rbt.Receptor>
prm/pocket_docking_8.prm

>  <SCORE>
-15.7566

>  <SCORE.INTER>
-6.92324

>  <SCORE.INTER.CONST>
1

>  <SCORE.INTER.POLAR>
0

>  <SCORE.INTER.ROT>
6

>  <SCORE.INTER.SOLV>
11.6849

>  <SCORE.INTER.VDW>
-16.1105

>  <SCORE.INTER.norm>
-0.22333

>  <SCORE.INTRA>
-8.83336

>  <SCORE.INTRA.DIHEDRAL>
-17.5632

>  <SCORE.INTRA.DIHEDRAL.0>
20.6841

>  <SCORE.INTRA.POLAR>
0

>  <SCORE.INTRA.POLAR.0>
0

>  <SCORE.INTRA.REPUL>
0

>  <SCORE.INTRA.REPUL.0>
0

>  <SCORE.INTRA.SOLV>
-1.70937

>  <SCORE.INTRA.SOLV.lig_0>
-64.6797

>  <SCORE.INTRA.VDW>
0.802948

>  <SCORE.INTRA.VDW.0>
-4.11825

>  <SCORE.INTRA.norm>
-0.284947

>  <SCORE.RESTR>
0

>  <SCORE.RESTR.CAVITY>
0

>  <SCORE.RESTR.norm>
0

>  <SCORE.SYSTEM>
0

>  <SCORE.SYSTEM.CONST>
0

>  <SCORE.SYSTEM.DIHEDRAL>
0

>  <SCORE.SYSTEM.SOLV>
0

>  <SCORE.SYSTEM.norm>
0

>  <SCORE.heavy>
31

>  <SCORE.norm>
-0.508277

>  <RMSD>
8.334

$$$$
ligand
 OpenBabel11021811493D
libRbt.so/2013.1/901 2013/11/27
 31 33  0  0  0  0  0  0  0  0999 V2000
   -1.3998   14.9884   13.3814 C   0  0  2  0  0  0  0  0  0  0  0  0
   -0.3078   14.2372   12.8594 O   0  0  0  0  0  0  0  0  0  0  0  0
    0.4899   12.3563    9.1298 C   0  0  2  0  0  0  0  0  0  0  0  0
    0.4282   11.4057    8.0623 N   0  0  0  0  0  0  0  0  0  0  0  0
   -1.6606   12.9299    6.9541 C   0  0  2  0  0  0  0  0  0  0  0  0
   -0.7976   15.9519   14.4837 C   0  0  2  0  0  0  0  0  0  0  0  0
    0.2052   16.8091   13.8602 N   0  0  0  0  0  0  0  0  0  0  0  0
    0.9455   11.6004   10.4455 C   0  0  0  0  0  0  0  0  0  0  0  0
   -2.0344   14.0427    5.9242 C   0  0  2  0  0  0  0  0  0  0  0  0
   -0.9347   14.9184    5.7969 O   0  0  0  0  0  0  0  0  0  0  0  0
   -0.1594   15.1111   15.6604 C   0  0  0  0  0  0  0  0  0  0  0  0
    1.0120   12.6433   11.6234 C   0  0  2  0  0  0  0  0  0  0  0  0
    1.4299   11.9450   12.8512 N   0  0  0  0  0  0  0  0  0  0  0  0
   -3.2956   14.7990    6.4910 C   0  0  1  0  0  0  0  0  0  0  0  0
   -3.6922   15.8982    5.5500 N   0  0  0  0  0  0  0  0  0  0  0  0
   -0.9999   13.8066   15.9944 C   0  0  0  0  0  0  0  0  0  0  0  0
   -0.4170   13.3146   11.8306 C   0  0  2  0  0  0  0  0  0  0  0  0
   -4.5150   13.7233    6.6105 C   0  0  1  0  0  0  0  0  0  0  0  0
   -4.8255   13.1212    5.3654 O   0  0  0  0  0  0  0  0  0  0  0  0
   -2.0157   13.4015   15.1871 C   0  0  2  0  0  0  0  0  0  0  0  0
   -2.3874   14.1148   14.0020 O   0  0  0  0  0  0  0  0  0  0  0  0
   -0.8489   14.0488   10.5075 C   0  0  2  0  0  0  0  0  0  0  0  0
   -2.1493   14.6456   10.7009 O   0  0  0  0  0  0  0  0  0  0  0  0
   -4.1136   12.5711    7.5878 C   0  0  0  0  0  0  0  0  0  0  0  0
   -2.8151   11.9612    7.1297 O   0  0  0  0  0  0  0  0  0  0  0  0
   -2.8555   12.1539   15.4682 C   0  0  0  0  0  0  0  0  0  0  0  0
   -4.2172   12.5756   15.7179 O   0  0  0  0  0  0  0  0  0  0  0  0
   -0.9316   12.9880    9.3484 C   0  0  1  0  0  0  0  0  0  0  0  0
   -1.3352   13.6467    8.1892 O   0  0  0  0  0  0  0  0  0  0  0  0
   -5.8438   14.3010    7.1549 C   0  0  0  0  0  0  0  0  0  0  0  0
   -3.6521   17.2746    6.0850 C   0  0  0  0  0  0  0  0  0  0  0  0
  1  2  1  1  0  0  0
  1  6  1  0  0  0  0
  1 21  1  0  0  0  0
  3  4  1  6  0  0  0
  3  8  1  0  0  0  0
  3 28  1  0  0  0  0
  5  9  1  0  0  0  0
  5 25  1  0  0  0  0
  5 29  1  1  0  0  0
  6  7  1  6  0  0  0
  6 11  1  0  0  0  0
  8 12  1  0  0  0  0
  9 10  1  1  0  0  0
  9 14  1  0  0  0  0
 11 16  1  0  0  0  0
 12 13  1  1  0  0  0
 12 17  1  0  0  0  0
 14 15  1  6  0  0  0
 14 18  1  0  0  0  0
 15 31  1  0  0  0  0
 16 20  1  0  0  0  0
 17  2  1  1  0  0  0
 17 22  1  0  0  0  0
 18 19  1  6  0  0  0
 18 24  1  0  0  0  0
 18 30  1  0  0  0  0
 20 21  1  0  0  0  0
 20 26  1  1  0  0  0
 22 23  1  1  0  0  0
 22 28  1  0  0  0  0
 24 25  1  0  0  0  0
 26 27  1  0  0  0  0
 28 29  1  6  0  0  0
M  END
>  <CHROM.1>
-177.41350741,-179.14157571,-118.71948736,-176.51722073,115.61474542,68.38843715
-1.77276842,13.78846361,10.30550387,1.30037588,-0.41481791,1.48483107

>  <Name>
ligand

>  <RI>
0

>  <Rbt.Current_Directory>
/home/itssahil/PROJECTS/Mol_Feturizer/New_Systems/rnas/4GPX

>  <Rbt.Executable>
rbdock ($Id: //depot/dev/client3/rdock/2013.1/src/exe/rbdock.cxx#4 $)

>  <Rbt.Library>
libRbt.so (2013.1, Build901 2013/11/27)

>  <Rbt.Parameter_File>
/export/apps/rDock/src/rDock_2013.1_src/data/scripts/dock_solv.prm

>  <Rbt.Receptor>
prm/pocket_docking_6.prm

>  <SCORE>
-11.1541

>  <SCORE.INTER>
-2.42425

>  <SCORE.INTER.CONST>
1

>  <SCORE.INTER.POLAR>
0

>  <SCORE.INTER.ROT>
6

>  <SCORE.INTER.SOLV>
12.7367

>  <SCORE.INTER.VDW>
-13.4617

>  <SCORE.INTER.norm>
-0.0782015

>  <SCORE.INTRA>
-8.72985

>  <SCORE.INTRA.DIHEDRAL>
-17.3297

>  <SCORE.INTRA.DIHEDRAL.0>
20.6841

>  <SCORE.INTRA.POLAR>
0

>  <SCORE.INTRA.POLAR.0>
0

>  <SCORE.INTRA.REPUL>
0

>  <SCORE.INTRA.REPUL.0>
0

>  <SCORE.INTRA.SOLV>
-1.90761

>  <SCORE.INTRA.SOLV.lig_0>
-64.6797

>  <SCORE.INTRA.VDW>
0.88883

>  <SCORE.INTRA.VDW.0>
-4.11825

>  <SCORE.INTRA.norm>
-0.281608

>  <SCORE.RESTR>
0

>  <SCORE.RESTR.CAVITY>
0

>  <SCORE.RESTR.norm>
0

>  <SCORE.SYSTEM>
0

>  <SCORE.SYSTEM.CONST>
0

>  <SCORE.SYSTEM.DIHEDRAL>
0

>  <SCORE.SYSTEM.SOLV>
0

>  <SCORE.SYSTEM.norm>
0

>  <SCORE.heavy>
31

>  <SCORE.norm>
-0.35981

>  <RMSD>
8.346

$$$$
ligand
 OpenBabel11021811493D
libRbt.so/2013.1/901 2013/11/27
 31 33  0  0  0  0  0  0  0  0999 V2000
  -10.6667   12.4218    1.6076 C   0  0  2  0  0  0  0  0  0  0  0  0
  -10.7344   13.8377    1.4667 O   0  0  0  0  0  0  0  0  0  0  0  0
   -7.4255   16.3871    2.2638 C   0  0  2  0  0  0  0  0  0  0  0  0
   -6.5864   17.3319    2.9348 N   0  0  0  0  0  0  0  0  0  0  0  0
   -5.9360   14.1678    4.7646 C   0  0  2  0  0  0  0  0  0  0  0  0
  -11.7265   11.8175    0.5988 C   0  0  2  0  0  0  0  0  0  0  0  0
  -11.3854   12.2477   -0.7531 N   0  0  0  0  0  0  0  0  0  0  0  0
   -8.8299   17.0694    1.9953 C   0  0  0  0  0  0  0  0  0  0  0  0
   -5.0802   15.3821    5.2457 C   0  0  2  0  0  0  0  0  0  0  0  0
   -5.8879   16.5391    5.2060 O   0  0  0  0  0  0  0  0  0  0  0  0
  -13.1848   12.2906    0.9838 C   0  0  0  0  0  0  0  0  0  0  0  0
   -9.7571   16.0313    1.2590 C   0  0  2  0  0  0  0  0  0  0  0  0
  -11.0668   16.6584    1.0114 N   0  0  0  0  0  0  0  0  0  0  0  0
   -3.8582   15.5125    4.2590 C   0  0  1  0  0  0  0  0  0  0  0  0
   -3.0057   16.6801    4.6602 N   0  0  0  0  0  0  0  0  0  0  0  0
  -13.4022   12.3573    2.5548 C   0  0  0  0  0  0  0  0  0  0  0  0
   -9.9309   14.7298    2.1598 C   0  0  2  0  0  0  0  0  0  0  0  0
   -2.9810   14.1420    4.3615 C   0  0  1  0  0  0  0  0  0  0  0  0
   -2.5205   13.8950    5.6791 O   0  0  0  0  0  0  0  0  0  0  0  0
  -12.3571   12.2219    3.4135 C   0  0  2  0  0  0  0  0  0  0  0  0
  -11.0137   12.0131    2.9628 O   0  0  0  0  0  0  0  0  0  0  0  0
   -8.5219   14.0787    2.4189 C   0  0  2  0  0  0  0  0  0  0  0  0
   -8.6877   12.9057    3.2442 O   0  0  0  0  0  0  0  0  0  0  0  0
   -3.8591   12.9167    3.9472 C   0  0  0  0  0  0  0  0  0  0  0  0
   -5.1096   12.8956    4.7860 O   0  0  0  0  0  0  0  0  0  0  0  0
  -12.5166   12.2763    4.9340 C   0  0  0  0  0  0  0  0  0  0  0  0
  -11.4394   13.0801    5.4705 O   0  0  0  0  0  0  0  0  0  0  0  0
   -7.6180   15.1217    3.1744 C   0  0  1  0  0  0  0  0  0  0  0  0
   -6.3823   14.5258    3.4163 O   0  0  0  0  0  0  0  0  0  0  0  0
   -1.7303   14.0980    3.4507 C   0  0  0  0  0  0  0  0  0  0  0  0
   -3.2892   17.9673    3.9932 C   0  0  0  0  0  0  0  0  0  0  0  0
  1  2  1  1  0  0  0
  1  6  1  0  0  0  0
  1 21  1  0  0  0  0
  3  4  1  1  0  0  0
  3  8  1  0  0  0  0
  3 28  1  0  0  0  0
  5  9  1  0  0  0  0
  5 25  1  0  0  0  0
  5 29  1  6  0  0  0
  6  7  1  6  0  0  0
  6 11  1  0  0  0  0
  8 12  1  0  0  0  0
  9 10  1  6  0  0  0
  9 14  1  0  0  0  0
 11 16  1  0  0  0  0
 12 13  1  1  0  0  0
 12 17  1  0  0  0  0
 14 15  1  1  0  0  0
 14 18  1  0  0  0  0
 15 31  1  0  0  0  0
 16 20  1  0  0  0  0
 17  2  1  6  0  0  0
 17 22  1  0  0  0  0
 18 19  1  1  0  0  0
 18 24  1  0  0  0  0
 18 30  1  0  0  0  0
 20 21  1  0  0  0  0
 20 26  1  1  0  0  0
 22 23  1  1  0  0  0
 22 28  1  0  0  0  0
 24 25  1  0  0  0  0
 26 27  1  0  0  0  0
 28 29  1  6  0  0  0
M  END
>  <CHROM.1>
-178.25104839,-94.76155184,-93.72360215,151.37822257,-136.88300473,130.16240948
-7.92849616,14.29553616,3.18111731,-3.01622915,-0.36930431,-0.44764332

>  <Name>
ligand

>  <RI>
0

>  <Rbt.Current_Directory>
/home/itssahil/PROJECTS/Mol_Feturizer/New_Systems/rnas/4GPX

>  <Rbt.Executable>
rbdock ($Id: //depot/dev/client3/rdock/2013.1/src/exe/rbdock.cxx#4 $)

>  <Rbt.Library>
libRbt.so (2013.1, Build901 2013/11/27)

>  <Rbt.Parameter_File>
/export/apps/rDock/src/rDock_2013.1_src/data/scripts/dock_solv.prm

>  <Rbt.Receptor>
prm/blind_docking_60.prm

>  <SCORE>
7.29347

>  <SCORE.INTER>
-4.70273

>  <SCORE.INTER.CONST>
1

>  <SCORE.INTER.POLAR>
0

>  <SCORE.INTER.ROT>
6

>  <SCORE.INTER.SOLV>
27.541

>  <SCORE.INTER.VDW>
-19.9155

>  <SCORE.INTER.norm>
-0.151701

>  <SCORE.INTRA>
1.39151

>  <SCORE.INTRA.DIHEDRAL>
-3.38837

>  <SCORE.INTRA.DIHEDRAL.0>
20.6841

>  <SCORE.INTRA.POLAR>
0

>  <SCORE.INTRA.POLAR.0>
0

>  <SCORE.INTRA.REPUL>
0

>  <SCORE.INTRA.REPUL.0>
0

>  <SCORE.INTRA.SOLV>
0.707581

>  <SCORE.INTRA.SOLV.lig_0>
-64.6797

>  <SCORE.INTRA.VDW>
2.7319

>  <SCORE.INTRA.VDW.0>
-4.11825

>  <SCORE.INTRA.norm>
0.0448873

>  <SCORE.RESTR>
10.6047

>  <SCORE.RESTR.CAVITY>
10.6047

>  <SCORE.RESTR.norm>
0.342087

>  <SCORE.SYSTEM>
0

>  <SCORE.SYSTEM.CONST>
0

>  <SCORE.SYSTEM.DIHEDRAL>
0

>  <SCORE.SYSTEM.SOLV>
0

>  <SCORE.SYSTEM.norm>
0

>  <SCORE.heavy>
31

>  <SCORE.norm>
0.235273

>  <RMSD>
8.383

$$$$
ligand
 OpenBabel11021811493D
libRbt.so/2013.1/901 2013/11/27
 31 33  0  0  0  0  0  0  0  0999 V2000
    2.3270   11.4495    6.6653 C   0  0  2  0  0  0  0  0  0  0  0  0
    1.3255   12.4045    7.0030 O   0  0  0  0  0  0  0  0  0  0  0  0
    0.0290   16.1840    5.5473 C   0  0  2  0  0  0  0  0  0  0  0  0
   -0.4711   17.1806    4.6509 N   0  0  0  0  0  0  0  0  0  0  0  0
   -3.1096   16.4497    5.4853 C   0  0  2  0  0  0  0  0  0  0  0  0
    1.6316   10.3797    5.7283 C   0  0  2  0  0  0  0  0  0  0  0  0
    1.1070   11.0598    4.5488 N   0  0  0  0  0  0  0  0  0  0  0  0
    1.3518   15.5723    4.9259 C   0  0  0  0  0  0  0  0  0  0  0  0
   -4.4516   16.4615    6.2839 C   0  0  2  0  0  0  0  0  0  0  0  0
   -4.1909   16.9441    7.5846 O   0  0  0  0  0  0  0  0  0  0  0  0
    0.4728    9.6373    6.5061 C   0  0  0  0  0  0  0  0  0  0  0  0
    1.9038   14.4729    5.9088 C   0  0  2  0  0  0  0  0  0  0  0  0
    3.1311   13.8965    5.3335 N   0  0  0  0  0  0  0  0  0  0  0  0
   -4.9819   14.9781    6.3279 C   0  0  1  0  0  0  0  0  0  0  0  0
   -6.2654   14.9218    7.1029 N   0  0  0  0  0  0  0  0  0  0  0  0
    0.8422    9.3695    8.0265 C   0  0  0  0  0  0  0  0  0  0  0  0
    0.8073   13.3373    6.1181 C   0  0  2  0  0  0  0  0  0  0  0  0
   -5.2547   14.4961    4.7944 C   0  0  1  0  0  0  0  0  0  0  0  0
   -6.1875   15.3286    4.1265 O   0  0  0  0  0  0  0  0  0  0  0  0
    1.9469    9.9278    8.5884 C   0  0  2  0  0  0  0  0  0  0  0  0
    2.8350   10.7799    7.8558 O   0  0  0  0  0  0  0  0  0  0  0  0
   -0.4974   13.9731    6.7262 C   0  0  2  0  0  0  0  0  0  0  0  0
   -1.4891   12.9388    6.9032 O   0  0  0  0  0  0  0  0  0  0  0  0
   -3.9244   14.5516    3.9752 C   0  0  0  0  0  0  0  0  0  0  0  0
   -3.3360   15.9342    4.0765 O   0  0  0  0  0  0  0  0  0  0  0  0
    2.3457    9.6975   10.0473 C   0  0  0  0  0  0  0  0  0  0  0  0
    1.9256    8.3646   10.4231 O   0  0  0  0  0  0  0  0  0  0  0  0
   -1.0460   15.0519    5.7208 C   0  0  1  0  0  0  0  0  0  0  0  0
   -2.2116   15.5910    6.2607 O   0  0  0  0  0  0  0  0  0  0  0  0
   -5.7849   13.0492    4.6496 C   0  0  0  0  0  0  0  0  0  0  0  0
   -6.3400   13.9231    8.1888 C   0  0  0  0  0  0  0  0  0  0  0  0
  1  2  1  1  0  0  0
  1  6  1  0  0  0  0
  1 21  1  0  0  0  0
  3  4  1  6  0  0  0
  3  8  1  0  0  0  0
  3 28  1  0  0  0  0
  5  9  1  0  0  0  0
  5 25  1  0  0  0  0
  5 29  1  1  0  0  0
  6  7  1  6  0  0  0
  6 11  1  0  0  0  0
  8 12  1  0  0  0  0
  9 10  1  1  0  0  0
  9 14  1  0  0  0  0
 11 16  1  0  0  0  0
 12 13  1  6  0  0  0
 12 17  1  0  0  0  0
 14 15  1  1  0  0  0
 14 18  1  0  0  0  0
 15 31  1  0  0  0  0
 16 20  1  0  0  0  0
 17  2  1  1  0  0  0
 17 22  1  0  0  0  0
 18 19  1  6  0  0  0
 18 24  1  0  0  0  0
 18 30  1  0  0  0  0
 20 21  1  0  0  0  0
 20 26  1  6  0  0  0
 22 23  1  6  0  0  0
 22 28  1  0  0  0  0
 24 25  1  0  0  0  0
 26 27  1  0  0  0  0
 28 29  1  1  0  0  0
M  END
>  <CHROM.1>
-71.81695926,163.13506938,-128.39459276,-74.55575716,32.05460649,72.34346989
-1.17701852,13.48076743,6.35029447,-0.66974196,0.11580477,-0.55456671

>  <Name>
ligand

>  <RI>
0

>  <Rbt.Current_Directory>
/home/itssahil/PROJECTS/Mol_Feturizer/New_Systems/rnas/4GPX

>  <Rbt.Executable>
rbdock ($Id: //depot/dev/client3/rdock/2013.1/src/exe/rbdock.cxx#4 $)

>  <Rbt.Library>
libRbt.so (2013.1, Build901 2013/11/27)

>  <Rbt.Parameter_File>
/export/apps/rDock/src/rDock_2013.1_src/data/scripts/dock_solv.prm

>  <Rbt.Receptor>
prm/pocket_docking_6.prm

>  <SCORE>
-10.6411

>  <SCORE.INTER>
-6.67124

>  <SCORE.INTER.CONST>
1

>  <SCORE.INTER.POLAR>
0

>  <SCORE.INTER.ROT>
6

>  <SCORE.INTER.SOLV>
13.0657

>  <SCORE.INTER.VDW>
-16.4027

>  <SCORE.INTER.norm>
-0.215201

>  <SCORE.INTRA>
-3.96989

>  <SCORE.INTRA.DIHEDRAL>
-13.0849

>  <SCORE.INTRA.DIHEDRAL.0>
20.6841

>  <SCORE.INTRA.POLAR>
0

>  <SCORE.INTRA.POLAR.0>
0

>  <SCORE.INTRA.REPUL>
0

>  <SCORE.INTRA.REPUL.0>
0

>  <SCORE.INTRA.SOLV>
2.10116

>  <SCORE.INTRA.SOLV.lig_0>
-64.6797

>  <SCORE.INTRA.VDW>
1.52196

>  <SCORE.INTRA.VDW.0>
-4.11825

>  <SCORE.INTRA.norm>
-0.128061

>  <SCORE.RESTR>
0

>  <SCORE.RESTR.CAVITY>
0

>  <SCORE.RESTR.norm>
0

>  <SCORE.SYSTEM>
0

>  <SCORE.SYSTEM.CONST>
0

>  <SCORE.SYSTEM.DIHEDRAL>
0

>  <SCORE.SYSTEM.SOLV>
0

>  <SCORE.SYSTEM.norm>
0

>  <SCORE.heavy>
31

>  <SCORE.norm>
-0.343262

>  <RMSD>
8.387

$$$$
ligand
 OpenBabel11021811493D
libRbt.so/2013.1/901 2013/11/27
 31 33  0  0  0  0  0  0  0  0999 V2000
   -8.7058   17.9728    1.0830 C   0  0  2  0  0  0  0  0  0  0  0  0
   -9.8447   17.1204    1.1575 O   0  0  0  0  0  0  0  0  0  0  0  0
  -10.0651   13.6286    3.5746 C   0  0  2  0  0  0  0  0  0  0  0  0
  -10.0512   12.2472    3.9468 N   0  0  0  0  0  0  0  0  0  0  0  0
   -6.3179   13.4016    3.5648 C   0  0  2  0  0  0  0  0  0  0  0  0
   -9.2547   19.4378    0.8411 C   0  0  2  0  0  0  0  0  0  0  0  0
  -10.1337   19.7980    1.9488 N   0  0  0  0  0  0  0  0  0  0  0  0
  -11.1972   13.8411    2.4869 C   0  0  0  0  0  0  0  0  0  0  0  0
   -5.6428   13.0121    4.9180 C   0  0  2  0  0  0  0  0  0  0  0  0
   -6.4126   11.9951    5.5227 O   0  0  0  0  0  0  0  0  0  0  0  0
  -10.0298   19.5151   -0.5344 C   0  0  0  0  0  0  0  0  0  0  0  0
  -11.2136   15.3603    2.0730 C   0  0  2  0  0  0  0  0  0  0  0  0
  -12.2610   15.5631    1.0574 N   0  0  0  0  0  0  0  0  0  0  0  0
   -5.6139   14.3074    5.8154 C   0  0  1  0  0  0  0  0  0  0  0  0
   -4.9913   13.9899    7.1431 N   0  0  0  0  0  0  0  0  0  0  0  0
   -9.3452   18.6333   -1.6628 C   0  0  0  0  0  0  0  0  0  0  0  0
   -9.7917   15.7753    1.4886 C   0  0  2  0  0  0  0  0  0  0  0  0
   -4.7121   15.4294    5.0497 C   0  0  1  0  0  0  0  0  0  0  0  0
   -3.3915   14.9792    4.7995 O   0  0  0  0  0  0  0  0  0  0  0  0
   -8.3409   17.7676   -1.3631 C   0  0  2  0  0  0  0  0  0  0  0  0
   -7.8434   17.5986   -0.0307 O   0  0  0  0  0  0  0  0  0  0  0  0
   -8.6862   15.5452    2.5845 C   0  0  2  0  0  0  0  0  0  0  0  0
   -7.3997   15.9143    2.0431 O   0  0  0  0  0  0  0  0  0  0  0  0
   -5.3498   15.7681    3.6632 C   0  0  0  0  0  0  0  0  0  0  0  0
   -5.5277   14.4975    2.8746 O   0  0  0  0  0  0  0  0  0  0  0  0
   -7.6487   16.8992   -2.4153 C   0  0  0  0  0  0  0  0  0  0  0  0
   -6.4210   17.5586   -2.8056 O   0  0  0  0  0  0  0  0  0  0  0  0
   -8.6696   14.0195    2.9686 C   0  0  1  0  0  0  0  0  0  0  0  0
   -7.6732   13.8259    3.9228 O   0  0  0  0  0  0  0  0  0  0  0  0
   -4.5752   16.7778    5.7972 C   0  0  0  0  0  0  0  0  0  0  0  0
   -5.8884   13.4423    8.1812 C   0  0  0  0  0  0  0  0  0  0  0  0
  1  2  1  6  0  0  0
  1  6  1  0  0  0  0
  1 21  1  0  0  0  0
  3  4  1  6  0  0  0
  3  8  1  0  0  0  0
  3 28  1  0  0  0  0
  5  9  1  0  0  0  0
  5 25  1  0  0  0  0
  5 29  1  1  0  0  0
  6  7  1  1  0  0  0
  6 11  1  0  0  0  0
  8 12  1  0  0  0  0
  9 10  1  1  0  0  0
  9 14  1  0  0  0  0
 11 16  1  0  0  0  0
 12 13  1  6  0  0  0
 12 17  1  0  0  0  0
 14 15  1  1  0  0  0
 14 18  1  0  0  0  0
 15 31  1  0  0  0  0
 16 20  1  0  0  0  0
 17  2  1  1  0  0  0
 17 22  1  0  0  0  0
 18 19  1  6  0  0  0
 18 24  1  0  0  0  0
 18 30  1  0  0  0  0
 20 21  1  0  0  0  0
 20 26  1  6  0  0  0
 22 23  1  6  0  0  0
 22 28  1  0  0  0  0
 24 25  1  0  0  0  0
 26 27  1  0  0  0  0
 28 29  1  1  0  0  0
M  END
>  <CHROM.1>
-173.58634590,-168.02051364,-85.43742519,155.60078431,97.78632754,146.60229364
-7.79006622,15.66038749,2.56733734,-2.04424527,0.28081563,2.29397618

>  <Name>
ligand

>  <RI>
0

>  <Rbt.Current_Directory>
/home/itssahil/PROJECTS/Mol_Feturizer/New_Systems/rnas/4GPX

>  <Rbt.Executable>
rbdock ($Id: //depot/dev/client3/rdock/2013.1/src/exe/rbdock.cxx#4 $)

>  <Rbt.Library>
libRbt.so (2013.1, Build901 2013/11/27)

>  <Rbt.Parameter_File>
/export/apps/rDock/src/rDock_2013.1_src/data/scripts/dock_solv.prm

>  <Rbt.Receptor>
prm/blind_docking_60.prm

>  <SCORE>
10.3184

>  <SCORE.INTER>
-1.008

>  <SCORE.INTER.CONST>
1

>  <SCORE.INTER.POLAR>
0

>  <SCORE.INTER.ROT>
6

>  <SCORE.INTER.SOLV>
22.6281

>  <SCORE.INTER.VDW>
-15.8147

>  <SCORE.INTER.norm>
-0.0325163

>  <SCORE.INTRA>
-2.18787

>  <SCORE.INTRA.DIHEDRAL>
-10.2768

>  <SCORE.INTRA.DIHEDRAL.0>
20.6841

>  <SCORE.INTRA.POLAR>
0

>  <SCORE.INTRA.POLAR.0>
0

>  <SCORE.INTRA.REPUL>
0

>  <SCORE.INTRA.REPUL.0>
0

>  <SCORE.INTRA.SOLV>
-2.80313

>  <SCORE.INTRA.SOLV.lig_0>
-64.6797

>  <SCORE.INTRA.VDW>
4.35208

>  <SCORE.INTRA.VDW.0>
-4.11825

>  <SCORE.INTRA.norm>
-0.0705763

>  <SCORE.RESTR>
13.5143

>  <SCORE.RESTR.CAVITY>
13.5143

>  <SCORE.RESTR.norm>
0.435945

>  <SCORE.SYSTEM>
0

>  <SCORE.SYSTEM.CONST>
0

>  <SCORE.SYSTEM.DIHEDRAL>
0

>  <SCORE.SYSTEM.SOLV>
0

>  <SCORE.SYSTEM.norm>
0

>  <SCORE.heavy>
31

>  <SCORE.norm>
0.332852

>  <RMSD>
8.404

$$$$
ligand
 OpenBabel11021811493D
libRbt.so/2013.1/901 2013/11/27
 31 33  0  0  0  0  0  0  0  0999 V2000
    1.9166   10.9096    8.4137 C   0  0  2  0  0  0  0  0  0  0  0  0
    0.5284   10.7508    8.1364 O   0  0  0  0  0  0  0  0  0  0  0  0
    0.2381   11.9298    4.0609 C   0  0  2  0  0  0  0  0  0  0  0  0
   -0.3158   12.1476    2.7598 N   0  0  0  0  0  0  0  0  0  0  0  0
   -1.1563   14.6757    3.6445 C   0  0  2  0  0  0  0  0  0  0  0  0
    2.1557   10.3252    9.8654 C   0  0  2  0  0  0  0  0  0  0  0  0
    1.7541    8.9224    9.8782 N   0  0  0  0  0  0  0  0  0  0  0  0
    0.1580   10.3810    4.3846 C   0  0  0  0  0  0  0  0  0  0  0  0
   -0.8510   16.2050    3.7267 C   0  0  2  0  0  0  0  0  0  0  0  0
    0.5494   16.3774    3.7675 O   0  0  0  0  0  0  0  0  0  0  0  0
    1.3333   11.1510   10.9334 C   0  0  0  0  0  0  0  0  0  0  0  0
    0.7645   10.1379    5.8172 C   0  0  2  0  0  0  0  0  0  0  0  0
    0.6878    8.6997    6.1262 N   0  0  0  0  0  0  0  0  0  0  0  0
   -1.5251   16.7457    5.0446 C   0  0  1  0  0  0  0  0  0  0  0  0
   -1.2485   18.2132    5.1897 N   0  0  0  0  0  0  0  0  0  0  0  0
    1.3027   12.7031   10.6025 C   0  0  0  0  0  0  0  0  0  0  0  0
   -0.0503   10.9777    6.8973 C   0  0  2  0  0  0  0  0  0  0  0  0
   -3.1334   16.5082    4.9206 C   0  0  1  0  0  0  0  0  0  0  0  0
   -3.6872   17.1558    3.7877 O   0  0  0  0  0  0  0  0  0  0  0  0
    1.7624   13.1756    9.4137 C   0  0  2  0  0  0  0  0  0  0  0  0
    2.2960   12.3166    8.3994 O   0  0  0  0  0  0  0  0  0  0  0  0
    0.0375   12.5092    6.5466 C   0  0  2  0  0  0  0  0  0  0  0  0
   -0.7119   13.2618    7.5247 O   0  0  0  0  0  0  0  0  0  0  0  0
   -3.4351   14.9820    4.7673 C   0  0  0  0  0  0  0  0  0  0  0  0
   -2.6538   14.4359    3.6014 O   0  0  0  0  0  0  0  0  0  0  0  0
    1.7562   14.6616    9.0500 C   0  0  0  0  0  0  0  0  0  0  0  0
    3.1212   15.0667    8.7911 O   0  0  0  0  0  0  0  0  0  0  0  0
   -0.5929   12.7354    5.1230 C   0  0  1  0  0  0  0  0  0  0  0  0
   -0.5282   14.0967    4.8343 O   0  0  0  0  0  0  0  0  0  0  0  0
   -3.9596   16.9862    6.1390 C   0  0  0  0  0  0  0  0  0  0  0  0
   -0.8805   18.6874    6.5394 C   0  0  0  0  0  0  0  0  0  0  0  0
  1  2  1  1  0  0  0
  1  6  1  0  0  0  0
  1 21  1  0  0  0  0
  3  4  1  6  0  0  0
  3  8  1  0  0  0  0
  3 28  1  0  0  0  0
  5  9  1  0  0  0  0
  5 25  1  0  0  0  0
  5 29  1  1  0  0  0
  6  7  1  6  0  0  0
  6 11  1  0  0  0  0
  8 12  1  0  0  0  0
  9 10  1  1  0  0  0
  9 14  1  0  0  0  0
 11 16  1  0  0  0  0
 12 13  1  1  0  0  0
 12 17  1  0  0  0  0
 14 15  1  6  0  0  0
 14 18  1  0  0  0  0
 15 31  1  0  0  0  0
 16 20  1  0  0  0  0
 17  2  1  1  0  0  0
 17 22  1  0  0  0  0
 18 19  1  6  0  0  0
 18 24  1  0  0  0  0
 18 30  1  0  0  0  0
 20 21  1  0  0  0  0
 20 26  1  1  0  0  0
 22 23  1  1  0  0  0
 22 28  1  0  0  0  0
 24 25  1  0  0  0  0
 26 27  1  0  0  0  0
 28 29  1  6  0  0  0
M  END
>  <CHROM.1>
-171.10734243,179.45468888,-137.10267200,52.39827959,120.40785182,67.88040807
-0.14724103,13.52830400,6.40938374,-0.41911166,-1.04258253,0.43881875

>  <Name>
ligand

>  <RI>
0

>  <Rbt.Current_Directory>
/home/itssahil/PROJECTS/Mol_Feturizer/New_Systems/rnas/4GPX

>  <Rbt.Executable>
rbdock ($Id: //depot/dev/client3/rdock/2013.1/src/exe/rbdock.cxx#4 $)

>  <Rbt.Library>
libRbt.so (2013.1, Build901 2013/11/27)

>  <Rbt.Parameter_File>
/export/apps/rDock/src/rDock_2013.1_src/data/scripts/dock_solv.prm

>  <Rbt.Receptor>
prm/pocket_docking_6.prm

>  <SCORE>
-12.6741

>  <SCORE.INTER>
-4.56224

>  <SCORE.INTER.CONST>
1

>  <SCORE.INTER.POLAR>
0

>  <SCORE.INTER.ROT>
6

>  <SCORE.INTER.SOLV>
13.5037

>  <SCORE.INTER.VDW>
-15.1427

>  <SCORE.INTER.norm>
-0.147169

>  <SCORE.INTRA>
-8.11185

>  <SCORE.INTRA.DIHEDRAL>
-17.0483

>  <SCORE.INTRA.DIHEDRAL.0>
20.6841

>  <SCORE.INTRA.POLAR>
0

>  <SCORE.INTRA.POLAR.0>
0

>  <SCORE.INTRA.REPUL>
0

>  <SCORE.INTRA.REPUL.0>
0

>  <SCORE.INTRA.SOLV>
-0.368469

>  <SCORE.INTRA.SOLV.lig_0>
-64.6797

>  <SCORE.INTRA.VDW>
0.596544

>  <SCORE.INTRA.VDW.0>
-4.11825

>  <SCORE.INTRA.norm>
-0.261673

>  <SCORE.RESTR>
0

>  <SCORE.RESTR.CAVITY>
0

>  <SCORE.RESTR.norm>
0

>  <SCORE.SYSTEM>
0

>  <SCORE.SYSTEM.CONST>
0

>  <SCORE.SYSTEM.DIHEDRAL>
0

>  <SCORE.SYSTEM.SOLV>
0

>  <SCORE.SYSTEM.norm>
0

>  <SCORE.heavy>
31

>  <SCORE.norm>
-0.408842

>  <RMSD>
8.416

$$$$
ligand
 OpenBabel11021811493D
libRbt.so/2013.1/901 2013/11/27
 31 33  0  0  0  0  0  0  0  0999 V2000
    0.6251    9.7250    2.4317 C   0  0  2  0  0  0  0  0  0  0  0  0
   -0.1380   10.6903    3.1493 O   0  0  0  0  0  0  0  0  0  0  0  0
    0.2785   14.8776    3.7635 C   0  0  2  0  0  0  0  0  0  0  0  0
    0.3030   16.2815    3.4889 N   0  0  0  0  0  0  0  0  0  0  0  0
   -3.5182   14.9697    3.9904 C   0  0  2  0  0  0  0  0  0  0  0  0
   -0.3304    8.4869    2.1867 C   0  0  2  0  0  0  0  0  0  0  0  0
   -1.4938    8.9353    1.4285 N   0  0  0  0  0  0  0  0  0  0  0  0
    1.3325   14.1657    2.8190 C   0  0  0  0  0  0  0  0  0  0  0  0
   -4.0644   16.2488    4.7006 C   0  0  2  0  0  0  0  0  0  0  0  0
   -3.3606   17.3676    4.2050 O   0  0  0  0  0  0  0  0  0  0  0  0
   -0.7733    7.8522    3.5650 C   0  0  0  0  0  0  0  0  0  0  0  0
    1.3064   12.6197    3.1167 C   0  0  2  0  0  0  0  0  0  0  0  0
    2.2809   11.9515    2.2372 N   0  0  0  0  0  0  0  0  0  0  0  0
   -3.8177   16.0660    6.2464 C   0  0  1  0  0  0  0  0  0  0  0  0
   -4.3063   17.2778    6.9839 N   0  0  0  0  0  0  0  0  0  0  0  0
    0.3966    7.8635    4.6378 C   0  0  0  0  0  0  0  0  0  0  0  0
   -0.1556   12.0451    2.8561 C   0  0  2  0  0  0  0  0  0  0  0  0
   -4.6581   14.7583    6.7383 C   0  0  1  0  0  0  0  0  0  0  0  0
   -6.0458   14.8805    6.4764 O   0  0  0  0  0  0  0  0  0  0  0  0
    1.5495    8.5467    4.4105 C   0  0  2  0  0  0  0  0  0  0  0  0
    1.7794    9.2883    3.2069 O   0  0  0  0  0  0  0  0  0  0  0  0
   -1.1824   12.7754    3.7988 C   0  0  2  0  0  0  0  0  0  0  0  0
   -2.5060   12.2556    3.5488 O   0  0  0  0  0  0  0  0  0  0  0  0
   -4.1593   13.4881    5.9756 C   0  0  0  0  0  0  0  0  0  0  0  0
   -4.2427   13.7348    4.4923 O   0  0  0  0  0  0  0  0  0  0  0  0
    2.7056    8.5853    5.4118 C   0  0  0  0  0  0  0  0  0  0  0  0
    3.7991    7.8102    4.8660 O   0  0  0  0  0  0  0  0  0  0  0  0
   -1.1584   14.3141    3.4714 C   0  0  1  0  0  0  0  0  0  0  0  0
   -2.0862   14.9451    4.2970 O   0  0  0  0  0  0  0  0  0  0  0  0
   -4.5297   14.4290    8.2452 C   0  0  0  0  0  0  0  0  0  0  0  0
   -3.3120   18.3379    7.2481 C   0  0  0  0  0  0  0  0  0  0  0  0
  1  2  1  1  0  0  0
  1  6  1  0  0  0  0
  1 21  1  0  0  0  0
  3  4  1  6  0  0  0
  3  8  1  0  0  0  0
  3 28  1  0  0  0  0
  5  9  1  0  0  0  0
  5 25  1  0  0  0  0
  5 29  1  1  0  0  0
  6  7  1  1  0  0  0
  6 11  1  0  0  0  0
  8 12  1  0  0  0  0
  9 10  1  6  0  0  0
  9 14  1  0  0  0  0
 11 16  1  0  0  0  0
 12 13  1  6  0  0  0
 12 17  1  0  0  0  0
 14 15  1  1  0  0  0
 14 18  1  0  0  0  0
 15 31  1  0  0  0  0
 16 20  1  0  0  0  0
 17  2  1  1  0  0  0
 17 22  1  0  0  0  0
 18 19  1  6  0  0  0
 18 24  1  0  0  0  0
 18 30  1  0  0  0  0
 20 21  1  0  0  0  0
 20 26  1  6  0  0  0
 22 23  1  6  0  0  0
 22 28  1  0  0  0  0
 24 25  1  0  0  0  0
 26 27  1  0  0  0  0
 28 29  1  1  0  0  0
M  END
>  <CHROM.1>
-135.35021885,-154.13871403,-93.14614991,-64.62372423,109.45856802,159.89720589
-1.29017623,12.76204766,4.34070702,-0.85417768,0.48572179,-0.05454609

>  <Name>
ligand

>  <RI>
0

>  <Rbt.Current_Directory>
/home/itssahil/PROJECTS/Mol_Feturizer/New_Systems/rnas/4GPX

>  <Rbt.Executable>
rbdock ($Id: //depot/dev/client3/rdock/2013.1/src/exe/rbdock.cxx#4 $)

>  <Rbt.Library>
libRbt.so (2013.1, Build901 2013/11/27)

>  <Rbt.Parameter_File>
/export/apps/rDock/src/rDock_2013.1_src/data/scripts/dock_solv.prm

>  <Rbt.Receptor>
prm/pocket_docking_8.prm

>  <SCORE>
-9.71524

>  <SCORE.INTER>
-7.20662

>  <SCORE.INTER.CONST>
1

>  <SCORE.INTER.POLAR>
0

>  <SCORE.INTER.ROT>
6

>  <SCORE.INTER.SOLV>
14.6385

>  <SCORE.INTER.VDW>
-17.2839

>  <SCORE.INTER.norm>
-0.232472

>  <SCORE.INTRA>
-2.50861

>  <SCORE.INTRA.DIHEDRAL>
-7.31588

>  <SCORE.INTRA.DIHEDRAL.0>
20.6841

>  <SCORE.INTRA.POLAR>
0

>  <SCORE.INTRA.POLAR.0>
0

>  <SCORE.INTRA.REPUL>
0

>  <SCORE.INTRA.REPUL.0>
0

>  <SCORE.INTRA.SOLV>
-0.581966

>  <SCORE.INTRA.SOLV.lig_0>
-64.6797

>  <SCORE.INTRA.VDW>
1.44031

>  <SCORE.INTRA.VDW.0>
-4.11825

>  <SCORE.INTRA.norm>
-0.080923

>  <SCORE.RESTR>
0

>  <SCORE.RESTR.CAVITY>
0

>  <SCORE.RESTR.norm>
0

>  <SCORE.SYSTEM>
0

>  <SCORE.SYSTEM.CONST>
0

>  <SCORE.SYSTEM.DIHEDRAL>
0

>  <SCORE.SYSTEM.SOLV>
0

>  <SCORE.SYSTEM.norm>
0

>  <SCORE.heavy>
31

>  <SCORE.norm>
-0.313395

>  <RMSD>
8.482

$$$$
ligand
 OpenBabel11021811493D
libRbt.so/2013.1/901 2013/11/27
 31 33  0  0  0  0  0  0  0  0999 V2000
   -8.6823   18.2386    1.0723 C   0  0  2  0  0  0  0  0  0  0  0  0
   -9.8360   17.4144    1.2098 O   0  0  0  0  0  0  0  0  0  0  0  0
  -10.1198   13.7790    3.3979 C   0  0  2  0  0  0  0  0  0  0  0  0
  -10.1193   12.3769    3.6827 N   0  0  0  0  0  0  0  0  0  0  0  0
   -6.3863   13.4926    3.4498 C   0  0  2  0  0  0  0  0  0  0  0  0
   -9.2067   19.7219    0.8970 C   0  0  2  0  0  0  0  0  0  0  0  0
   -9.9970   20.0816    2.0697 N   0  0  0  0  0  0  0  0  0  0  0  0
  -11.2288   14.0656    2.3034 C   0  0  0  0  0  0  0  0  0  0  0  0
   -5.7325   13.0597    4.8003 C   0  0  2  0  0  0  0  0  0  0  0  0
   -6.5311   12.0487    5.3772 O   0  0  0  0  0  0  0  0  0  0  0  0
  -10.0726   19.8476   -0.4196 C   0  0  0  0  0  0  0  0  0  0  0  0
  -11.2305   15.6078    1.9855 C   0  0  2  0  0  0  0  0  0  0  0  0
  -12.2563   15.8797    0.9641 N   0  0  0  0  0  0  0  0  0  0  0  0
   -5.6816   14.3351    5.7246 C   0  0  1  0  0  0  0  0  0  0  0  0
   -5.0784   13.9760    7.0506 N   0  0  0  0  0  0  0  0  0  0  0  0
   -9.4916   18.9721   -1.6093 C   0  0  0  0  0  0  0  0  0  0  0  0
   -9.7953   16.0509    1.4567 C   0  0  2  0  0  0  0  0  0  0  0  0
   -4.7473   15.4513    4.9900 C   0  0  1  0  0  0  0  0  0  0  0  0
   -3.4353   14.9756    4.7416 O   0  0  0  0  0  0  0  0  0  0  0  0
   -8.4929   18.0748   -1.3967 C   0  0  2  0  0  0  0  0  0  0  0  0
   -7.9093   17.8655   -0.1055 O   0  0  0  0  0  0  0  0  0  0  0  0
   -8.7132   15.7464    2.5578 C   0  0  2  0  0  0  0  0  0  0  0  0
   -7.4144   16.1417    2.0662 O   0  0  0  0  0  0  0  0  0  0  0  0
   -5.3646   15.8333    3.6055 C   0  0  0  0  0  0  0  0  0  0  0  0
   -5.5648   14.5837    2.7892 O   0  0  0  0  0  0  0  0  0  0  0  0
   -7.8988   17.2109   -2.5107 C   0  0  0  0  0  0  0  0  0  0  0  0
   -8.3141   15.8425   -2.2884 O   0  0  0  0  0  0  0  0  0  0  0  0
   -8.7107   14.1995    2.8454 C   0  0  1  0  0  0  0  0  0  0  0  0
   -7.7346   13.9410    3.8051 O   0  0  0  0  0  0  0  0  0  0  0  0
   -4.5857   16.7805    5.7665 C   0  0  0  0  0  0  0  0  0  0  0  0
   -6.0071   13.4862    8.0897 C   0  0  0  0  0  0  0  0  0  0  0  0
  1  2  1  6  0  0  0
  1  6  1  0  0  0  0
  1 21  1  0  0  0  0
  3  4  1  6  0  0  0
  3  8  1  0  0  0  0
  3 28  1  0  0  0  0
  5  9  1  0  0  0  0
  5 25  1  0  0  0  0
  5 29  1  1  0  0  0
  6  7  1  1  0  0  0
  6 11  1  0  0  0  0
  8 12  1  0  0  0  0
  9 10  1  1  0  0  0
  9 14  1  0  0  0  0
 11 16  1  0  0  0  0
 12 13  1  6  0  0  0
 12 17  1  0  0  0  0
 14 15  1  1  0  0  0
 14 18  1  0  0  0  0
 15 31  1  0  0  0  0
 16 20  1  0  0  0  0
 17  2  1  1  0  0  0
 17 22  1  0  0  0  0
 18 19  1  6  0  0  0
 18 24  1  0  0  0  0
 18 30  1  0  0  0  0
 20 21  1  0  0  0  0
 20 26  1  6  0  0  0
 22 23  1  6  0  0  0
 22 28  1  0  0  0  0
 24 25  1  0  0  0  0
 26 27  1  0  0  0  0
 28 29  1  1  0  0  0
M  END
>  <CHROM.1>
-176.35325836,-169.15204304,-88.13699402,162.50538250,-109.65404256,144.66561572
-7.90575652,15.76295577,2.52726907,-2.11932006,0.41416036,2.40913926

>  <Name>
ligand

>  <RI>
0

>  <Rbt.Current_Directory>
/home/itssahil/PROJECTS/Mol_Feturizer/New_Systems/rnas/4GPX

>  <Rbt.Executable>
rbdock ($Id: //depot/dev/client3/rdock/2013.1/src/exe/rbdock.cxx#4 $)

>  <Rbt.Library>
libRbt.so (2013.1, Build901 2013/11/27)

>  <Rbt.Parameter_File>
/export/apps/rDock/src/rDock_2013.1_src/data/scripts/dock_solv.prm

>  <Rbt.Receptor>
prm/blind_docking_100.prm

>  <SCORE>
-1.73307

>  <SCORE.INTER>
-2.74839

>  <SCORE.INTER.CONST>
1

>  <SCORE.INTER.POLAR>
0

>  <SCORE.INTER.ROT>
6

>  <SCORE.INTER.SOLV>
21.9547

>  <SCORE.INTER.VDW>
-16.7505

>  <SCORE.INTER.norm>
-0.0886576

>  <SCORE.INTRA>
-3.28312

>  <SCORE.INTRA.DIHEDRAL>
-11.688

>  <SCORE.INTRA.DIHEDRAL.0>
20.6841

>  <SCORE.INTRA.POLAR>
0

>  <SCORE.INTRA.POLAR.0>
0

>  <SCORE.INTRA.REPUL>
0

>  <SCORE.INTRA.REPUL.0>
0

>  <SCORE.INTRA.SOLV>
-2.70823

>  <SCORE.INTRA.SOLV.lig_0>
-64.6797

>  <SCORE.INTRA.VDW>
3.91499

>  <SCORE.INTRA.VDW.0>
-4.11825

>  <SCORE.INTRA.norm>
-0.105907

>  <SCORE.RESTR>
4.29844

>  <SCORE.RESTR.CAVITY>
4.29844

>  <SCORE.RESTR.norm>
0.138659

>  <SCORE.SYSTEM>
0

>  <SCORE.SYSTEM.CONST>
0

>  <SCORE.SYSTEM.DIHEDRAL>
0

>  <SCORE.SYSTEM.SOLV>
0

>  <SCORE.SYSTEM.norm>
0

>  <SCORE.heavy>
31

>  <SCORE.norm>
-0.0559053

>  <RMSD>
8.490

$$$$
ligand
 OpenBabel11021811493D
libRbt.so/2013.1/901 2013/11/27
 31 33  0  0  0  0  0  0  0  0999 V2000
    1.4736   11.4016   10.7014 C   0  0  2  0  0  0  0  0  0  0  0  0
    0.9617   12.2985    9.7202 O   0  0  0  0  0  0  0  0  0  0  0  0
    1.0247   16.5449    9.5015 C   0  0  2  0  0  0  0  0  0  0  0  0
    1.5153   17.8746    9.3063 N   0  0  0  0  0  0  0  0  0  0  0  0
    1.0037   17.2546    6.1800 C   0  0  2  0  0  0  0  0  0  0  0  0
    1.2869    9.9417   10.1184 C   0  0  2  0  0  0  0  0  0  0  0  0
    2.0147    9.8436    8.8575 N   0  0  0  0  0  0  0  0  0  0  0  0
    1.8893   15.8553   10.6359 C   0  0  0  0  0  0  0  0  0  0  0  0
   -0.2026   17.7984    5.3506 C   0  0  2  0  0  0  0  0  0  0  0  0
   -1.1019   18.4309    6.2359 O   0  0  0  0  0  0  0  0  0  0  0  0
   -0.2473    9.6271    9.9032 C   0  0  0  0  0  0  0  0  0  0  0  0
    1.3536   14.3904   10.8517 C   0  0  2  0  0  0  0  0  0  0  0  0
    2.1576   13.7421   11.9018 N   0  0  0  0  0  0  0  0  0  0  0  0
   -0.8799   16.5621    4.6458 C   0  0  1  0  0  0  0  0  0  0  0  0
   -2.0633   17.0210    3.8458 N   0  0  0  0  0  0  0  0  0  0  0  0
   -1.1555   10.2401   11.0517 C   0  0  0  0  0  0  0  0  0  0  0  0
    1.4613   13.5710    9.4905 C   0  0  2  0  0  0  0  0  0  0  0  0
    0.2192   15.8884    3.6476 C   0  0  1  0  0  0  0  0  0  0  0  0
    0.6962   16.8036    2.6759 O   0  0  0  0  0  0  0  0  0  0  0  0
   -0.6414   11.1054   11.9653 C   0  0  2  0  0  0  0  0  0  0  0  0
    0.7316   11.5129   11.9508 O   0  0  0  0  0  0  0  0  0  0  0  0
    0.6025   14.2823    8.3803 C   0  0  2  0  0  0  0  0  0  0  0  0
    0.7138   13.5387    7.1477 O   0  0  0  0  0  0  0  0  0  0  0  0
    1.4590   15.4071    4.4693 C   0  0  0  0  0  0  0  0  0  0  0  0
    2.0011   16.5604    5.2717 O   0  0  0  0  0  0  0  0  0  0  0  0
   -1.4753   11.7200   13.0911 C   0  0  0  0  0  0  0  0  0  0  0  0
   -0.5756   12.1104   14.1553 O   0  0  0  0  0  0  0  0  0  0  0  0
    1.1662   15.7350    8.1630 C   0  0  1  0  0  0  0  0  0  0  0  0
    0.4115   16.3454    7.1637 O   0  0  0  0  0  0  0  0  0  0  0  0
   -0.2817   14.6498    2.8661 C   0  0  0  0  0  0  0  0  0  0  0  0
   -3.3570   17.0877    4.5558 C   0  0  0  0  0  0  0  0  0  0  0  0
  1  2  1  6  0  0  0
  1  6  1  0  0  0  0
  1 21  1  0  0  0  0
  3  4  1  6  0  0  0
  3  8  1  0  0  0  0
  3 28  1  0  0  0  0
  5  9  1  0  0  0  0
  5 25  1  0  0  0  0
  5 29  1  1  0  0  0
  6  7  1  6  0  0  0
  6 11  1  0  0  0  0
  8 12  1  0  0  0  0
  9 10  1  1  0  0  0
  9 14  1  0  0  0  0
 11 16  1  0  0  0  0
 12 13  1  1  0  0  0
 12 17  1  0  0  0  0
 14 15  1  6  0  0  0
 14 18  1  0  0  0  0
 15 31  1  0  0  0  0
 16 20  1  0  0  0  0
 17  2  1  1  0  0  0
 17 22  1  0  0  0  0
 18 19  1  6  0  0  0
 18 24  1  0  0  0  0
 18 30  1  0  0  0  0
 20 21  1  0  0  0  0
 20 26  1  1  0  0  0
 22 23  1  6  0  0  0
 22 28  1  0  0  0  0
 24 25  1  0  0  0  0
 26 27  1  0  0  0  0
 28 29  1  6  0  0  0
M  END
>  <CHROM.1>
-147.43638891,-174.96022347,-88.27037675,-58.36030841,156.62089185,97.85286392
0.37836994,14.37016823,8.16997212,1.13908746,1.40968279,2.64928805

>  <Name>
ligand

>  <RI>
0

>  <Rbt.Current_Directory>
/home/itssahil/PROJECTS/Mol_Feturizer/New_Systems/rnas/4GPX

>  <Rbt.Executable>
rbdock ($Id: //depot/dev/client3/rdock/2013.1/src/exe/rbdock.cxx#4 $)

>  <Rbt.Library>
libRbt.so (2013.1, Build901 2013/11/27)

>  <Rbt.Parameter_File>
/export/apps/rDock/src/rDock_2013.1_src/data/scripts/dock_solv.prm

>  <Rbt.Receptor>
prm/pocket_docking_6.prm

>  <SCORE>
-10.5561

>  <SCORE.INTER>
-7.92411

>  <SCORE.INTER.CONST>
1

>  <SCORE.INTER.POLAR>
0

>  <SCORE.INTER.ROT>
6

>  <SCORE.INTER.SOLV>
10.415

>  <SCORE.INTER.VDW>
-16.3544

>  <SCORE.INTER.norm>
-0.255617

>  <SCORE.INTRA>
-2.63203

>  <SCORE.INTRA.DIHEDRAL>
-7.91457

>  <SCORE.INTRA.DIHEDRAL.0>
20.6841

>  <SCORE.INTRA.POLAR>
0

>  <SCORE.INTRA.POLAR.0>
0

>  <SCORE.INTRA.REPUL>
0

>  <SCORE.INTRA.REPUL.0>
0

>  <SCORE.INTRA.SOLV>
0.331705

>  <SCORE.INTRA.SOLV.lig_0>
-64.6797

>  <SCORE.INTRA.VDW>
1.15941

>  <SCORE.INTRA.VDW.0>
-4.11825

>  <SCORE.INTRA.norm>
-0.0849041

>  <SCORE.RESTR>
0

>  <SCORE.RESTR.CAVITY>
0

>  <SCORE.RESTR.norm>
0

>  <SCORE.SYSTEM>
0

>  <SCORE.SYSTEM.CONST>
0

>  <SCORE.SYSTEM.DIHEDRAL>
0

>  <SCORE.SYSTEM.SOLV>
0

>  <SCORE.SYSTEM.norm>
0

>  <SCORE.heavy>
31

>  <SCORE.norm>
-0.340521

>  <RMSD>
8.510

$$$$
ligand
 OpenBabel11021811493D
libRbt.so/2013.1/901 2013/11/27
 31 33  0  0  0  0  0  0  0  0999 V2000
   -8.7064   18.2352    1.0257 C   0  0  2  0  0  0  0  0  0  0  0  0
   -9.8580   17.4077    1.1611 O   0  0  0  0  0  0  0  0  0  0  0  0
  -10.1260   13.7956    3.3892 C   0  0  2  0  0  0  0  0  0  0  0  0
  -10.1220   12.3966    3.6889 N   0  0  0  0  0  0  0  0  0  0  0  0
   -6.3923   13.5136    3.4265 C   0  0  2  0  0  0  0  0  0  0  0  0
   -9.2344   19.7183    0.8595 C   0  0  2  0  0  0  0  0  0  0  0  0
  -10.0231   20.0699    2.0358 N   0  0  0  0  0  0  0  0  0  0  0  0
  -11.2406   14.0689    2.2970 C   0  0  0  0  0  0  0  0  0  0  0  0
   -5.7419   13.0686    4.7747 C   0  0  2  0  0  0  0  0  0  0  0  0
   -6.5455   12.0571    5.3436 O   0  0  0  0  0  0  0  0  0  0  0  0
  -10.1034   19.8492   -0.4546 C   0  0  0  0  0  0  0  0  0  0  0  0
  -11.2461   15.6076    1.9627 C   0  0  2  0  0  0  0  0  0  0  0  0
  -12.2772   15.8670    0.9433 N   0  0  0  0  0  0  0  0  0  0  0  0
   -5.6867   14.3374    5.7078 C   0  0  1  0  0  0  0  0  0  0  0  0
   -5.0866   13.9665    7.0320 N   0  0  0  0  0  0  0  0  0  0  0  0
   -9.5229   18.9815   -1.6503 C   0  0  0  0  0  0  0  0  0  0  0  0
   -9.8141   16.0470    1.4223 C   0  0  2  0  0  0  0  0  0  0  0  0
   -4.7468   15.4546    4.9821 C   0  0  1  0  0  0  0  0  0  0  0  0
   -3.4365   14.9751    4.7319 O   0  0  0  0  0  0  0  0  0  0  0  0
   -8.5218   18.0853   -1.4446 C   0  0  2  0  0  0  0  0  0  0  0  0
   -7.9351   17.8703   -0.1557 O   0  0  0  0  0  0  0  0  0  0  0  0
   -8.7262   15.7558    2.5214 C   0  0  2  0  0  0  0  0  0  0  0  0
   -7.4305   16.1477    2.0195 O   0  0  0  0  0  0  0  0  0  0  0  0
   -5.3608   15.8488    3.5995 C   0  0  0  0  0  0  0  0  0  0  0  0
   -5.5654   14.6058    2.7744 O   0  0  0  0  0  0  0  0  0  0  0  0
   -7.9281   17.2287   -2.5645 C   0  0  0  0  0  0  0  0  0  0  0  0
   -8.3185   15.8543   -2.3344 O   0  0  0  0  0  0  0  0  0  0  0  0
   -8.7202   14.2122    2.8255 C   0  0  1  0  0  0  0  0  0  0  0  0
   -7.7391   13.9653    3.7833 O   0  0  0  0  0  0  0  0  0  0  0  0
   -4.5805   16.7777    5.7679 C   0  0  0  0  0  0  0  0  0  0  0  0
   -6.0223   13.5009    8.0760 C   0  0  0  0  0  0  0  0  0  0  0  0
  1  2  1  6  0  0  0
  1  6  1  0  0  0  0
  1 21  1  0  0  0  0
  3  4  1  6  0  0  0
  3  8  1  0  0  0  0
  3 28  1  0  0  0  0
  5  9  1  0  0  0  0
  5 25  1  0  0  0  0
  5 29  1  1  0  0  0
  6  7  1  1  0  0  0
  6 11  1  0  0  0  0
  8 12  1  0  0  0  0
  9 10  1  1  0  0  0
  9 14  1  0  0  0  0
 11 16  1  0  0  0  0
 12 13  1  6  0  0  0
 12 17  1  0  0  0  0
 14 15  1  1  0  0  0
 14 18  1  0  0  0  0
 15 31  1  0  0  0  0
 16 20  1  0  0  0  0
 17  2  1  1  0  0  0
 17 22  1  0  0  0  0
 18 19  1  6  0  0  0
 18 24  1  0  0  0  0
 18 30  1  0  0  0  0
 20 21  1  0  0  0  0
 20 26  1  6  0  0  0
 22 23  1  6  0  0  0
 22 28  1  0  0  0  0
 24 25  1  0  0  0  0
 26 27  1  0  0  0  0
 28 29  1  1  0  0  0
M  END
>  <CHROM.1>
-175.24212945,-168.00114487,-89.39921667,161.69300186,-110.74053282,144.59422771
-7.91919479,15.76916535,2.50058401,-2.11872571,0.40847681,2.40226843

>  <Name>
ligand

>  <RI>
0

>  <Rbt.Current_Directory>
/home/itssahil/PROJECTS/Mol_Feturizer/New_Systems/rnas/4GPX

>  <Rbt.Executable>
rbdock ($Id: //depot/dev/client3/rdock/2013.1/src/exe/rbdock.cxx#4 $)

>  <Rbt.Library>
libRbt.so (2013.1, Build901 2013/11/27)

>  <Rbt.Parameter_File>
/export/apps/rDock/src/rDock_2013.1_src/data/scripts/dock_solv.prm

>  <Rbt.Receptor>
prm/blind_docking_100.prm

>  <SCORE>
-2.01458

>  <SCORE.INTER>
-2.82871

>  <SCORE.INTER.CONST>
1

>  <SCORE.INTER.POLAR>
0

>  <SCORE.INTER.ROT>
6

>  <SCORE.INTER.SOLV>
21.8344

>  <SCORE.INTER.VDW>
-16.764

>  <SCORE.INTER.norm>
-0.0912488

>  <SCORE.INTRA>
-3.56152

>  <SCORE.INTRA.DIHEDRAL>
-11.3713

>  <SCORE.INTRA.DIHEDRAL.0>
20.6841

>  <SCORE.INTRA.POLAR>
0

>  <SCORE.INTRA.POLAR.0>
0

>  <SCORE.INTRA.REPUL>
0

>  <SCORE.INTRA.REPUL.0>
0

>  <SCORE.INTRA.SOLV>
-2.68624

>  <SCORE.INTRA.SOLV.lig_0>
-64.6797

>  <SCORE.INTRA.VDW>
3.46726

>  <SCORE.INTRA.VDW.0>
-4.11825

>  <SCORE.INTRA.norm>
-0.114888

>  <SCORE.RESTR>
4.37566

>  <SCORE.RESTR.CAVITY>
4.37566

>  <SCORE.RESTR.norm>
0.14115

>  <SCORE.SYSTEM>
0

>  <SCORE.SYSTEM.CONST>
0

>  <SCORE.SYSTEM.DIHEDRAL>
0

>  <SCORE.SYSTEM.SOLV>
0

>  <SCORE.SYSTEM.norm>
0

>  <SCORE.heavy>
31

>  <SCORE.norm>
-0.0649863

>  <RMSD>
8.516

$$$$
ligand
 OpenBabel11021811493D
libRbt.so/2013.1/901 2013/11/27
 31 33  0  0  0  0  0  0  0  0999 V2000
   -8.6768   18.2281    1.0457 C   0  0  2  0  0  0  0  0  0  0  0  0
   -9.8294   17.4071    1.2086 O   0  0  0  0  0  0  0  0  0  0  0  0
  -10.1043   13.7823    3.4153 C   0  0  2  0  0  0  0  0  0  0  0  0
  -10.1019   12.3817    3.7070 N   0  0  0  0  0  0  0  0  0  0  0  0
   -6.3690   13.5036    3.4576 C   0  0  2  0  0  0  0  0  0  0  0  0
   -9.2027   19.7063    0.8351 C   0  0  2  0  0  0  0  0  0  0  0  0
   -9.9885   20.0951    2.0016 N   0  0  0  0  0  0  0  0  0  0  0  0
  -11.2167   14.0628    2.3227 C   0  0  0  0  0  0  0  0  0  0  0  0
   -5.7159   13.0618    4.8056 C   0  0  2  0  0  0  0  0  0  0  0  0
   -6.5139   12.0458    5.3745 O   0  0  0  0  0  0  0  0  0  0  0  0
  -10.0740   19.7983   -0.4806 C   0  0  0  0  0  0  0  0  0  0  0  0
  -11.2204   15.6034    1.9972 C   0  0  2  0  0  0  0  0  0  0  0  0
  -12.2494   15.8695    0.9774 N   0  0  0  0  0  0  0  0  0  0  0  0
   -5.6672   14.3307    5.7390 C   0  0  1  0  0  0  0  0  0  0  0  0
   -5.0648   13.9627    7.0629 N   0  0  0  0  0  0  0  0  0  0  0  0
   -9.4974   18.8934   -1.6503 C   0  0  0  0  0  0  0  0  0  0  0  0
   -9.7871   16.0449    1.4621 C   0  0  2  0  0  0  0  0  0  0  0  0
   -4.7334   15.4530    5.0132 C   0  0  1  0  0  0  0  0  0  0  0  0
   -3.4206   14.9805    4.7626 O   0  0  0  0  0  0  0  0  0  0  0  0
   -8.4973   18.0022   -1.4191 C   0  0  2  0  0  0  0  0  0  0  0  0
   -7.9084   17.8258   -0.1255 O   0  0  0  0  0  0  0  0  0  0  0  0
   -8.7015   15.7465    2.5615 C   0  0  2  0  0  0  0  0  0  0  0  0
   -7.4045   16.1404    2.0643 O   0  0  0  0  0  0  0  0  0  0  0  0
   -5.3498   15.8443    3.6309 C   0  0  0  0  0  0  0  0  0  0  0  0
   -5.5480   14.6003    2.8055 O   0  0  0  0  0  0  0  0  0  0  0  0
   -7.9072   17.1107   -2.5134 C   0  0  0  0  0  0  0  0  0  0  0  0
   -8.9965   16.6226   -3.3317 O   0  0  0  0  0  0  0  0  0  0  0  0
   -8.6971   14.2011    2.8567 C   0  0  1  0  0  0  0  0  0  0  0  0
   -7.7181   13.9481    3.8149 O   0  0  0  0  0  0  0  0  0  0  0  0
   -4.5740   16.7768    5.7993 C   0  0  0  0  0  0  0  0  0  0  0  0
   -5.9900   13.4402    8.0891 C   0  0  0  0  0  0  0  0  0  0  0  0
  1  2  1  6  0  0  0
  1  6  1  0  0  0  0
  1 21  1  0  0  0  0
  3  4  1  6  0  0  0
  3  8  1  0  0  0  0
  3 28  1  0  0  0  0
  5  9  1  0  0  0  0
  5 25  1  0  0  0  0
  5 29  1  1  0  0  0
  6  7  1  1  0  0  0
  6 11  1  0  0  0  0
  8 12  1  0  0  0  0
  9 10  1  1  0  0  0
  9 14  1  0  0  0  0
 11 16  1  0  0  0  0
 12 13  1  6  0  0  0
 12 17  1  0  0  0  0
 14 15  1  1  0  0  0
 14 18  1  0  0  0  0
 15 31  1  0  0  0  0
 16 20  1  0  0  0  0
 17  2  1  1  0  0  0
 17 22  1  0  0  0  0
 18 19  1  6  0  0  0
 18 24  1  0  0  0  0
 18 30  1  0  0  0  0
 20 21  1  0  0  0  0
 20 26  1  6  0  0  0
 22 23  1  6  0  0  0
 22 28  1  0  0  0  0
 24 25  1  0  0  0  0
 26 27  1  0  0  0  0
 28 29  1  1  0  0  0
M  END
>  <CHROM.1>
-177.75697888,-168.57725843,-87.00304959,163.39778649,-41.43784901,144.89603724
-7.92104503,15.77886403,2.48829377,-2.11179086,0.41694639,2.38656104

>  <Name>
ligand

>  <RI>
0

>  <Rbt.Current_Directory>
/home/itssahil/PROJECTS/Mol_Feturizer/New_Systems/rnas/4GPX

>  <Rbt.Executable>
rbdock ($Id: //depot/dev/client3/rdock/2013.1/src/exe/rbdock.cxx#4 $)

>  <Rbt.Library>
libRbt.so (2013.1, Build901 2013/11/27)

>  <Rbt.Parameter_File>
/export/apps/rDock/src/rDock_2013.1_src/data/scripts/dock_solv.prm

>  <Rbt.Receptor>
prm/blind_docking_100.prm

>  <SCORE>
-0.557174

>  <SCORE.INTER>
-2.45928

>  <SCORE.INTER.CONST>
1

>  <SCORE.INTER.POLAR>
0

>  <SCORE.INTER.ROT>
6

>  <SCORE.INTER.SOLV>
21.1001

>  <SCORE.INTER.VDW>
-16.2729

>  <SCORE.INTER.norm>
-0.0793316

>  <SCORE.INTRA>
-2.44617

>  <SCORE.INTRA.DIHEDRAL>
-10.512

>  <SCORE.INTRA.DIHEDRAL.0>
20.6841

>  <SCORE.INTRA.POLAR>
0

>  <SCORE.INTRA.POLAR.0>
0

>  <SCORE.INTRA.REPUL>
0

>  <SCORE.INTRA.REPUL.0>
0

>  <SCORE.INTRA.SOLV>
-2.86754

>  <SCORE.INTRA.SOLV.lig_0>
-64.6797

>  <SCORE.INTRA.VDW>
4.24358

>  <SCORE.INTRA.VDW.0>
-4.11825

>  <SCORE.INTRA.norm>
-0.0789087

>  <SCORE.RESTR>
4.34827

>  <SCORE.RESTR.CAVITY>
4.34827

>  <SCORE.RESTR.norm>
0.140267

>  <SCORE.SYSTEM>
0

>  <SCORE.SYSTEM.CONST>
0

>  <SCORE.SYSTEM.DIHEDRAL>
0

>  <SCORE.SYSTEM.SOLV>
0

>  <SCORE.SYSTEM.norm>
0

>  <SCORE.heavy>
31

>  <SCORE.norm>
-0.0179734

>  <RMSD>
8.517

$$$$
ligand
 OpenBabel11021811493D
libRbt.so/2013.1/901 2013/11/27
 31 33  0  0  0  0  0  0  0  0999 V2000
    0.9368   10.5332   10.4286 C   0  0  2  0  0  0  0  0  0  0  0  0
    0.6163   11.5019    9.4345 O   0  0  0  0  0  0  0  0  0  0  0  0
    0.0933   11.3214    5.2181 C   0  0  2  0  0  0  0  0  0  0  0  0
   -0.4795   11.0036    3.9462 N   0  0  0  0  0  0  0  0  0  0  0  0
   -1.9050   13.3876    4.0930 C   0  0  2  0  0  0  0  0  0  0  0  0
   -0.4394    9.9447   10.9443 C   0  0  2  0  0  0  0  0  0  0  0  0
   -1.1488    9.3527    9.8149 N   0  0  0  0  0  0  0  0  0  0  0  0
    0.4044    9.9665    5.9780 C   0  0  0  0  0  0  0  0  0  0  0  0
   -1.8807   14.8844    3.6483 C   0  0  2  0  0  0  0  0  0  0  0  0
   -0.5351   15.3041    3.5725 O   0  0  0  0  0  0  0  0  0  0  0  0
   -1.3080   11.0827   11.6145 C   0  0  0  0  0  0  0  0  0  0  0  0
    1.0327   10.3125    7.3798 C   0  0  2  0  0  0  0  0  0  0  0  0
    1.3191    9.0562    8.0935 N   0  0  0  0  0  0  0  0  0  0  0  0
   -2.6685   15.7079    4.7369 C   0  0  1  0  0  0  0  0  0  0  0  0
   -2.6626   17.1635    4.3732 N   0  0  0  0  0  0  0  0  0  0  0  0
   -0.4232   12.1085   12.4418 C   0  0  0  0  0  0  0  0  0  0  0  0
    0.0164   11.2045    8.2207 C   0  0  2  0  0  0  0  0  0  0  0  0
   -4.2051   15.1635    4.7644 C   0  0  1  0  0  0  0  0  0  0  0  0
   -4.8421   15.2859    3.5040 O   0  0  0  0  0  0  0  0  0  0  0  0
    0.9337   12.0839   12.3661 C   0  0  2  0  0  0  0  0  0  0  0  0
    1.6413   11.1449   11.5481 O   0  0  0  0  0  0  0  0  0  0  0  0
   -0.2824   12.5375    7.4396 C   0  0  2  0  0  0  0  0  0  0  0  0
   -1.2119   13.3352    8.2040 O   0  0  0  0  0  0  0  0  0  0  0  0
   -4.2250   13.6464    5.1409 C   0  0  0  0  0  0  0  0  0  0  0  0
   -3.3341   12.8877    4.1930 O   0  0  0  0  0  0  0  0  0  0  0  0
    1.8287   13.0493   13.1455 C   0  0  0  0  0  0  0  0  0  0  0  0
    2.3586   14.0222   12.2144 O   0  0  0  0  0  0  0  0  0  0  0  0
   -0.9297   12.1726    6.0527 C   0  0  1  0  0  0  0  0  0  0  0  0
   -1.2086   13.3609    5.3812 O   0  0  0  0  0  0  0  0  0  0  0  0
   -5.1292   15.8689    5.7863 C   0  0  0  0  0  0  0  0  0  0  0  0
   -1.8447   18.0546    5.2211 C   0  0  0  0  0  0  0  0  0  0  0  0
  1  2  1  6  0  0  0
  1  6  1  0  0  0  0
  1 21  1  0  0  0  0
  3  4  1  6  0  0  0
  3  8  1  0  0  0  0
  3 28  1  0  0  0  0
  5  9  1  0  0  0  0
  5 25  1  0  0  0  0
  5 29  1  1  0  0  0
  6  7  1  6  0  0  0
  6 11  1  0  0  0  0
  8 12  1  0  0  0  0
  9 10  1  1  0  0  0
  9 14  1  0  0  0  0
 11 16  1  0  0  0  0
 12 13  1  1  0  0  0
 12 17  1  0  0  0  0
 14 15  1  6  0  0  0
 14 18  1  0  0  0  0
 15 31  1  0  0  0  0
 16 20  1  0  0  0  0
 17  2  1  1  0  0  0
 17 22  1  0  0  0  0
 18 19  1  6  0  0  0
 18 24  1  0  0  0  0
 18 30  1  0  0  0  0
 20 21  1  0  0  0  0
 20 26  1  1  0  0  0
 22 23  1  1  0  0  0
 22 28  1  0  0  0  0
 24 25  1  0  0  0  0
 26 27  1  0  0  0  0
 28 29  1  6  0  0  0
M  END
>  <CHROM.1>
-65.33287054,-174.71788736,-109.69920019,-65.34142526,-106.02861929,65.68055072
-0.95519224,12.83260801,7.38442877,-0.35276209,1.09174099,-2.24023604

>  <Name>
ligand

>  <RI>
0

>  <Rbt.Current_Directory>
/home/itssahil/PROJECTS/Mol_Feturizer/New_Systems/rnas/4GPX

>  <Rbt.Executable>
rbdock ($Id: //depot/dev/client3/rdock/2013.1/src/exe/rbdock.cxx#4 $)

>  <Rbt.Library>
libRbt.so (2013.1, Build901 2013/11/27)

>  <Rbt.Parameter_File>
/export/apps/rDock/src/rDock_2013.1_src/data/scripts/dock_solv.prm

>  <Rbt.Receptor>
prm/pocket_docking_4.prm

>  <SCORE>
-15.0782

>  <SCORE.INTER>
-9.8479

>  <SCORE.INTER.CONST>
1

>  <SCORE.INTER.POLAR>
0

>  <SCORE.INTER.ROT>
6

>  <SCORE.INTER.SOLV>
15.0336

>  <SCORE.INTER.VDW>
-19.1765

>  <SCORE.INTER.norm>
-0.317674

>  <SCORE.INTRA>
-5.23029

>  <SCORE.INTRA.DIHEDRAL>
-17.0575

>  <SCORE.INTRA.DIHEDRAL.0>
20.6841

>  <SCORE.INTRA.POLAR>
0

>  <SCORE.INTRA.POLAR.0>
0

>  <SCORE.INTRA.REPUL>
0

>  <SCORE.INTRA.REPUL.0>
0

>  <SCORE.INTRA.SOLV>
2.94496

>  <SCORE.INTRA.SOLV.lig_0>
-64.6797

>  <SCORE.INTRA.VDW>
1.82596

>  <SCORE.INTRA.VDW.0>
-4.11825

>  <SCORE.INTRA.norm>
-0.168719

>  <SCORE.RESTR>
0

>  <SCORE.RESTR.CAVITY>
0

>  <SCORE.RESTR.norm>
0

>  <SCORE.SYSTEM>
0

>  <SCORE.SYSTEM.CONST>
0

>  <SCORE.SYSTEM.DIHEDRAL>
0

>  <SCORE.SYSTEM.SOLV>
0

>  <SCORE.SYSTEM.norm>
0

>  <SCORE.heavy>
31

>  <SCORE.norm>
-0.486393

>  <RMSD>
8.527

$$$$
ligand
 OpenBabel11021811493D
libRbt.so/2013.1/901 2013/11/27
 31 33  0  0  0  0  0  0  0  0999 V2000
    0.8713   10.5182   10.2242 C   0  0  2  0  0  0  0  0  0  0  0  0
    0.4856   11.5385    9.3081 O   0  0  0  0  0  0  0  0  0  0  0  0
    0.2748   11.7797    5.0676 C   0  0  2  0  0  0  0  0  0  0  0  0
   -0.1553   11.5310    3.7259 N   0  0  0  0  0  0  0  0  0  0  0  0
   -1.9739   13.6335    4.0170 C   0  0  2  0  0  0  0  0  0  0  0  0
   -0.4648    9.8276   10.7181 C   0  0  2  0  0  0  0  0  0  0  0  0
   -1.1673    9.2838    9.5605 N   0  0  0  0  0  0  0  0  0  0  0  0
    0.7488   10.4077    5.7023 C   0  0  0  0  0  0  0  0  0  0  0  0
   -2.3987   15.1265    3.8466 C   0  0  2  0  0  0  0  0  0  0  0  0
   -1.2467   15.9333    3.9676 O   0  0  0  0  0  0  0  0  0  0  0  0
   -1.3734   10.8709   11.4829 C   0  0  0  0  0  0  0  0  0  0  0  0
    1.2206   10.6772    7.1802 C   0  0  2  0  0  0  0  0  0  0  0  0
    1.6575    9.4036    7.7776 N   0  0  0  0  0  0  0  0  0  0  0  0
   -3.4368   15.4499    4.9874 C   0  0  1  0  0  0  0  0  0  0  0  0
   -3.8690   16.8832    4.8874 N   0  0  0  0  0  0  0  0  0  0  0  0
   -0.5224   11.8771   12.3678 C   0  0  0  0  0  0  0  0  0  0  0  0
    0.0217   11.2989    8.0239 C   0  0  2  0  0  0  0  0  0  0  0  0
   -4.7303   14.4793    4.7799 C   0  0  1  0  0  0  0  0  0  0  0  0
   -5.3331   14.6504    3.5084 O   0  0  0  0  0  0  0  0  0  0  0  0
    0.8324   11.9245   12.2685 C   0  0  2  0  0  0  0  0  0  0  0  0
    1.5678   11.0821   11.3735 O   0  0  0  0  0  0  0  0  0  0  0  0
   -0.4353   12.6538    7.3669 C   0  0  2  0  0  0  0  0  0  0  0  0
   -1.5285   13.2051    8.1320 O   0  0  0  0  0  0  0  0  0  0  0  0
   -4.2928   12.9818    4.8804 C   0  0  0  0  0  0  0  0  0  0  0  0
   -3.1812   12.7222    3.8982 O   0  0  0  0  0  0  0  0  0  0  0  0
    1.6955   12.8744   13.1012 C   0  0  0  0  0  0  0  0  0  0  0  0
    2.2564   13.8685   12.2117 O   0  0  0  0  0  0  0  0  0  0  0  0
   -0.9237   12.3611    5.9002 C   0  0  1  0  0  0  0  0  0  0  0  0
   -1.3450   13.5641    5.3380 O   0  0  0  0  0  0  0  0  0  0  0  0
   -5.8593   14.6648    5.8223 C   0  0  0  0  0  0  0  0  0  0  0  0
   -3.0438   17.8754    5.6061 C   0  0  0  0  0  0  0  0  0  0  0  0
  1  2  1  6  0  0  0
  1  6  1  0  0  0  0
  1 21  1  0  0  0  0
  3  4  1  6  0  0  0
  3  8  1  0  0  0  0
  3 28  1  0  0  0  0
  5  9  1  0  0  0  0
  5 25  1  0  0  0  0
  5 29  1  1  0  0  0
  6  7  1  6  0  0  0
  6 11  1  0  0  0  0
  8 12  1  0  0  0  0
  9 10  1  1  0  0  0
  9 14  1  0  0  0  0
 11 16  1  0  0  0  0
 12 13  1  1  0  0  0
 12 17  1  0  0  0  0
 14 15  1  6  0  0  0
 14 18  1  0  0  0  0
 15 31  1  0  0  0  0
 16 20  1  0  0  0  0
 17  2  1  1  0  0  0
 17 22  1  0  0  0  0
 18 19  1  6  0  0  0
 18 24  1  0  0  0  0
 18 30  1  0  0  0  0
 20 21  1  0  0  0  0
 20 26  1  1  0  0  0
 22 23  1  1  0  0  0
 22 28  1  0  0  0  0
 24 25  1  0  0  0  0
 26 27  1  0  0  0  0
 28 29  1  6  0  0  0
M  END
>  <CHROM.1>
-73.21490723,174.89570196,-88.00580156,-66.39326254,-111.02507262,66.85132642
-1.15911721,12.78071221,7.32643888,-0.60128078,0.92977752,-1.94000537

>  <Name>
ligand

>  <RI>
0

>  <Rbt.Current_Directory>
/home/itssahil/PROJECTS/Mol_Feturizer/New_Systems/rnas/4GPX

>  <Rbt.Executable>
rbdock ($Id: //depot/dev/client3/rdock/2013.1/src/exe/rbdock.cxx#4 $)

>  <Rbt.Library>
libRbt.so (2013.1, Build901 2013/11/27)

>  <Rbt.Parameter_File>
/export/apps/rDock/src/rDock_2013.1_src/data/scripts/dock_solv.prm

>  <Rbt.Receptor>
prm/pocket_docking_4.prm

>  <SCORE>
-15.0103

>  <SCORE.INTER>
-9.4191

>  <SCORE.INTER.CONST>
1

>  <SCORE.INTER.POLAR>
0

>  <SCORE.INTER.ROT>
6

>  <SCORE.INTER.SOLV>
14.4777

>  <SCORE.INTER.VDW>
-18.7053

>  <SCORE.INTER.norm>
-0.303842

>  <SCORE.INTRA>
-5.59119

>  <SCORE.INTRA.DIHEDRAL>
-16.9654

>  <SCORE.INTRA.DIHEDRAL.0>
20.6841

>  <SCORE.INTRA.POLAR>
0

>  <SCORE.INTRA.POLAR.0>
0

>  <SCORE.INTRA.REPUL>
0

>  <SCORE.INTRA.REPUL.0>
0

>  <SCORE.INTRA.SOLV>
2.45962

>  <SCORE.INTRA.SOLV.lig_0>
-64.6797

>  <SCORE.INTRA.VDW>
1.66169

>  <SCORE.INTRA.VDW.0>
-4.11825

>  <SCORE.INTRA.norm>
-0.180361

>  <SCORE.RESTR>
0

>  <SCORE.RESTR.CAVITY>
0

>  <SCORE.RESTR.norm>
0

>  <SCORE.SYSTEM>
0

>  <SCORE.SYSTEM.CONST>
0

>  <SCORE.SYSTEM.DIHEDRAL>
0

>  <SCORE.SYSTEM.SOLV>
0

>  <SCORE.SYSTEM.norm>
0

>  <SCORE.heavy>
31

>  <SCORE.norm>
-0.484203

>  <RMSD>
8.530

$$$$
ligand
 OpenBabel11021811493D
libRbt.so/2013.1/901 2013/11/27
 31 33  0  0  0  0  0  0  0  0999 V2000
    0.8715   10.5376   10.4607 C   0  0  2  0  0  0  0  0  0  0  0  0
    0.5230   11.4966    9.4666 O   0  0  0  0  0  0  0  0  0  0  0  0
    0.0628   11.2457    5.2465 C   0  0  2  0  0  0  0  0  0  0  0  0
   -0.4923   10.9086    3.9717 N   0  0  0  0  0  0  0  0  0  0  0  0
   -1.8899   13.3000    4.0465 C   0  0  2  0  0  0  0  0  0  0  0  0
   -0.4895    9.9578   11.0241 C   0  0  2  0  0  0  0  0  0  0  0  0
   -1.2342    9.3557    9.9231 N   0  0  0  0  0  0  0  0  0  0  0  0
    0.3557    9.9026    6.0342 C   0  0  0  0  0  0  0  0  0  0  0  0
   -1.8774   14.7939    3.5918 C   0  0  2  0  0  0  0  0  0  0  0  0
   -0.5373   15.2357    3.5524 O   0  0  0  0  0  0  0  0  0  0  0  0
   -1.3350   11.1048   11.7085 C   0  0  0  0  0  0  0  0  0  0  0  0
    0.9644   10.2699    7.4392 C   0  0  2  0  0  0  0  0  0  0  0  0
    1.2338    9.0248    8.1787 N   0  0  0  0  0  0  0  0  0  0  0  0
   -2.7104   15.6114    4.6508 C   0  0  1  0  0  0  0  0  0  0  0  0
   -2.7180   17.0644    4.2769 N   0  0  0  0  0  0  0  0  0  0  0  0
   -0.4233   12.1371   12.4976 C   0  0  0  0  0  0  0  0  0  0  0  0
   -0.0600   11.1811    8.2491 C   0  0  2  0  0  0  0  0  0  0  0  0
   -4.2379   15.0416    4.6373 C   0  0  1  0  0  0  0  0  0  0  0  0
   -4.8395   15.1447    3.3578 O   0  0  0  0  0  0  0  0  0  0  0  0
    0.9307   12.1084   12.3809 C   0  0  2  0  0  0  0  0  0  0  0  0
    1.6111   11.1592   11.5517 O   0  0  0  0  0  0  0  0  0  0  0  0
   -0.3404   12.5017    7.4408 C   0  0  2  0  0  0  0  0  0  0  0  0
   -1.2773   13.3169    8.1772 O   0  0  0  0  0  0  0  0  0  0  0  0
   -4.2437   13.5269    5.0241 C   0  0  0  0  0  0  0  0  0  0  0  0
   -3.3127   12.7769    4.1082 O   0  0  0  0  0  0  0  0  0  0  0  0
    1.8510   13.0798   13.1226 C   0  0  0  0  0  0  0  0  0  0  0  0
    2.3750   14.0257   12.1609 O   0  0  0  0  0  0  0  0  0  0  0  0
   -0.9684   12.1160    6.0507 C   0  0  1  0  0  0  0  0  0  0  0  0
   -1.2313   13.2938    5.3547 O   0  0  0  0  0  0  0  0  0  0  0  0
   -5.2032   15.7382    5.6265 C   0  0  0  0  0  0  0  0  0  0  0  0
   -2.6365   18.0346    5.3878 C   0  0  0  0  0  0  0  0  0  0  0  0
  1  2  1  6  0  0  0
  1  6  1  0  0  0  0
  1 21  1  0  0  0  0
  3  4  1  6  0  0  0
  3  8  1  0  0  0  0
  3 28  1  0  0  0  0
  5  9  1  0  0  0  0
  5 25  1  0  0  0  0
  5 29  1  1  0  0  0
  6  7  1  6  0  0  0
  6 11  1  0  0  0  0
  8 12  1  0  0  0  0
  9 10  1  1  0  0  0
  9 14  1  0  0  0  0
 11 16  1  0  0  0  0
 12 13  1  1  0  0  0
 12 17  1  0  0  0  0
 14 15  1  6  0  0  0
 14 18  1  0  0  0  0
 15 31  1  0  0  0  0
 16 20  1  0  0  0  0
 17  2  1  1  0  0  0
 17 22  1  0  0  0  0
 18 19  1  6  0  0  0
 18 24  1  0  0  0  0
 18 30  1  0  0  0  0
 20 21  1  0  0  0  0
 20 26  1  1  0  0  0
 22 23  1  1  0  0  0
 22 28  1  0  0  0  0
 24 25  1  0  0  0  0
 26 27  1  0  0  0  0
 28 29  1  6  0  0  0
M  END
>  <CHROM.1>
-68.35119273,-175.58361310,-142.27819563,-62.77093001,-107.13288410,64.73153505
-1.01420079,12.78561279,7.37706881,-0.38654561,1.07927744,-2.21817074

>  <Name>
ligand

>  <RI>
0

>  <Rbt.Current_Directory>
/home/itssahil/PROJECTS/Mol_Feturizer/New_Systems/rnas/4GPX

>  <Rbt.Executable>
rbdock ($Id: //depot/dev/client3/rdock/2013.1/src/exe/rbdock.cxx#4 $)

>  <Rbt.Library>
libRbt.so (2013.1, Build901 2013/11/27)

>  <Rbt.Parameter_File>
/export/apps/rDock/src/rDock_2013.1_src/data/scripts/dock_solv.prm

>  <Rbt.Receptor>
prm/pocket_docking_8.prm

>  <SCORE>
-15.2835

>  <SCORE.INTER>
-10.1093

>  <SCORE.INTER.CONST>
1

>  <SCORE.INTER.POLAR>
0

>  <SCORE.INTER.ROT>
6

>  <SCORE.INTER.SOLV>
15.7921

>  <SCORE.INTER.VDW>
-19.6036

>  <SCORE.INTER.norm>
-0.326107

>  <SCORE.INTRA>
-5.1742

>  <SCORE.INTRA.DIHEDRAL>
-17.3634

>  <SCORE.INTRA.DIHEDRAL.0>
20.6841

>  <SCORE.INTRA.POLAR>
0

>  <SCORE.INTRA.POLAR.0>
0

>  <SCORE.INTRA.REPUL>
0

>  <SCORE.INTRA.REPUL.0>
0

>  <SCORE.INTRA.SOLV>
2.82487

>  <SCORE.INTRA.SOLV.lig_0>
-64.6797

>  <SCORE.INTRA.VDW>
2.09507

>  <SCORE.INTRA.VDW.0>
-4.11825

>  <SCORE.INTRA.norm>
-0.16691

>  <SCORE.RESTR>
0

>  <SCORE.RESTR.CAVITY>
0

>  <SCORE.RESTR.norm>
0

>  <SCORE.SYSTEM>
0

>  <SCORE.SYSTEM.CONST>
0

>  <SCORE.SYSTEM.DIHEDRAL>
0

>  <SCORE.SYSTEM.SOLV>
0

>  <SCORE.SYSTEM.norm>
0

>  <SCORE.heavy>
31

>  <SCORE.norm>
-0.493017

>  <RMSD>
8.533

$$$$
ligand
 OpenBabel11021811493D
libRbt.so/2013.1/901 2013/11/27
 31 33  0  0  0  0  0  0  0  0999 V2000
  -10.2285   18.7135    0.8581 C   0  0  2  0  0  0  0  0  0  0  0  0
   -8.9496   18.0863    0.8724 O   0  0  0  0  0  0  0  0  0  0  0  0
   -9.3347   14.1526    2.4414 C   0  0  2  0  0  0  0  0  0  0  0  0
   -9.1811   12.7364    2.5740 N   0  0  0  0  0  0  0  0  0  0  0  0
   -6.1016   13.7790    3.8600 C   0  0  2  0  0  0  0  0  0  0  0  0
  -10.0130   20.1626    0.2585 C   0  0  2  0  0  0  0  0  0  0  0  0
   -9.4527   20.0365   -1.0829 N   0  0  0  0  0  0  0  0  0  0  0  0
  -10.0072   14.4526    1.0386 C   0  0  0  0  0  0  0  0  0  0  0  0
   -5.8203   13.6961    5.3938 C   0  0  2  0  0  0  0  0  0  0  0  0
   -6.9383   13.1036    6.0197 O   0  0  0  0  0  0  0  0  0  0  0  0
   -9.0515   21.0055    1.1880 C   0  0  0  0  0  0  0  0  0  0  0  0
  -10.1754   16.0110    0.8881 C   0  0  2  0  0  0  0  0  0  0  0  0
  -10.7954   16.2965   -0.4171 N   0  0  0  0  0  0  0  0  0  0  0  0
   -5.6001   15.1693    5.9085 C   0  0  1  0  0  0  0  0  0  0  0  0
   -5.3438   15.1562    7.3868 N   0  0  0  0  0  0  0  0  0  0  0  0
   -9.2977   20.7175    2.7295 C   0  0  0  0  0  0  0  0  0  0  0  0
   -8.7527   16.7191    0.9890 C   0  0  2  0  0  0  0  0  0  0  0  0
   -4.2991   15.7812    5.1395 C   0  0  1  0  0  0  0  0  0  0  0  0
   -3.1315   15.0078    5.3584 O   0  0  0  0  0  0  0  0  0  0  0  0
  -10.1017   19.6982    3.1325 C   0  0  2  0  0  0  0  0  0  0  0  0
  -10.7686   18.8326    2.2065 O   0  0  0  0  0  0  0  0  0  0  0  0
   -8.1039   16.3970    2.3859 C   0  0  2  0  0  0  0  0  0  0  0  0
   -6.8107   17.0342    2.4648 O   0  0  0  0  0  0  0  0  0  0  0  0
   -4.5530   15.7988    3.5971 C   0  0  0  0  0  0  0  0  0  0  0  0
   -4.9270   14.4137    3.1394 O   0  0  0  0  0  0  0  0  0  0  0  0
  -10.3716   19.3831    4.6051 C   0  0  0  0  0  0  0  0  0  0  0  0
  -11.6213   18.6582    4.6879 O   0  0  0  0  0  0  0  0  0  0  0  0
   -7.9232   14.8388    2.5085 C   0  0  1  0  0  0  0  0  0  0  0  0
   -7.3289   14.5692    3.7392 O   0  0  0  0  0  0  0  0  0  0  0  0
   -3.9347   17.2343    5.5286 C   0  0  0  0  0  0  0  0  0  0  0  0
   -4.5510   14.0256    7.9115 C   0  0  0  0  0  0  0  0  0  0  0  0
  1  2  1  1  0  0  0
  1  6  1  0  0  0  0
  1 21  1  0  0  0  0
  3  4  1  6  0  0  0
  3  8  1  0  0  0  0
  3 28  1  0  0  0  0
  5  9  1  0  0  0  0
  5 25  1  0  0  0  0
  5 29  1  1  0  0  0
  6  7  1  6  0  0  0
  6 11  1  0  0  0  0
  8 12  1  0  0  0  0
  9 10  1  1  0  0  0
  9 14  1  0  0  0  0
 11 16  1  0  0  0  0
 12 13  1  6  0  0  0
 12 17  1  0  0  0  0
 14 15  1  1  0  0  0
 14 18  1  0  0  0  0
 15 31  1  0  0  0  0
 16 20  1  0  0  0  0
 17  2  1  1  0  0  0
 17 22  1  0  0  0  0
 18 19  1  1  0  0  0
 18 24  1  0  0  0  0
 18 30  1  0  0  0  0
 20 21  1  0  0  0  0
 20 26  1  6  0  0  0
 22 23  1  6  0  0  0
 22 28  1  0  0  0  0
 24 25  1  0  0  0  0
 26 27  1  0  0  0  0
 28 29  1  1  0  0  0
M  END
>  <CHROM.1>
-162.35706202,-178.50764797,36.56832342,7.98684381,157.05414649,115.35627197
-7.82965681,16.49937333,3.17521429,2.66004121,-0.77383021,0.14849493

>  <Name>
ligand

>  <RI>
0

>  <Rbt.Current_Directory>
/home/itssahil/PROJECTS/Mol_Feturizer/New_Systems/rnas/4GPX

>  <Rbt.Executable>
rbdock ($Id: //depot/dev/client3/rdock/2013.1/src/exe/rbdock.cxx#4 $)

>  <Rbt.Library>
libRbt.so (2013.1, Build901 2013/11/27)

>  <Rbt.Parameter_File>
/export/apps/rDock/src/rDock_2013.1_src/data/scripts/dock_solv.prm

>  <Rbt.Receptor>
prm/blind_docking_100.prm

>  <SCORE>
4.89888

>  <SCORE.INTER>
-5.33747

>  <SCORE.INTER.CONST>
1

>  <SCORE.INTER.POLAR>
0

>  <SCORE.INTER.ROT>
6

>  <SCORE.INTER.SOLV>
21.6194

>  <SCORE.INTER.VDW>
-18.3648

>  <SCORE.INTER.norm>
-0.172176

>  <SCORE.INTRA>
3.89519

>  <SCORE.INTRA.DIHEDRAL>
-1.87896

>  <SCORE.INTRA.DIHEDRAL.0>
20.6841

>  <SCORE.INTRA.POLAR>
0

>  <SCORE.INTRA.POLAR.0>
0

>  <SCORE.INTRA.REPUL>
0

>  <SCORE.INTRA.REPUL.0>
0

>  <SCORE.INTRA.SOLV>
-0.457855

>  <SCORE.INTRA.SOLV.lig_0>
-64.6797

>  <SCORE.INTRA.VDW>
5.06359

>  <SCORE.INTRA.VDW.0>
-4.11825

>  <SCORE.INTRA.norm>
0.125651

>  <SCORE.RESTR>
6.34117

>  <SCORE.RESTR.CAVITY>
6.34117

>  <SCORE.RESTR.norm>
0.204554

>  <SCORE.SYSTEM>
0

>  <SCORE.SYSTEM.CONST>
0

>  <SCORE.SYSTEM.DIHEDRAL>
0

>  <SCORE.SYSTEM.SOLV>
0

>  <SCORE.SYSTEM.norm>
0

>  <SCORE.heavy>
31

>  <SCORE.norm>
0.158029

>  <RMSD>
8.548

$$$$
ligand
 OpenBabel11021811493D
libRbt.so/2013.1/901 2013/11/27
 31 33  0  0  0  0  0  0  0  0999 V2000
  -10.3136   18.6581    0.8768 C   0  0  2  0  0  0  0  0  0  0  0  0
   -9.0497   18.0056    0.9546 O   0  0  0  0  0  0  0  0  0  0  0  0
   -9.4006   14.0904    2.5771 C   0  0  2  0  0  0  0  0  0  0  0  0
   -9.2797   12.6703    2.7018 N   0  0  0  0  0  0  0  0  0  0  0  0
   -5.9440   13.8074    3.6461 C   0  0  2  0  0  0  0  0  0  0  0  0
  -10.0290   20.1335    0.3787 C   0  0  2  0  0  0  0  0  0  0  0  0
   -9.3672   20.0705   -0.9202 N   0  0  0  0  0  0  0  0  0  0  0  0
  -10.2006   14.4084    1.2471 C   0  0  0  0  0  0  0  0  0  0  0  0
   -5.6574   13.4220    5.1321 C   0  0  2  0  0  0  0  0  0  0  0  0
   -6.6913   12.5708    5.5782 O   0  0  0  0  0  0  0  0  0  0  0  0
   -9.1302   20.9043    1.4261 C   0  0  0  0  0  0  0  0  0  0  0  0
  -10.3333   15.9710    1.1052 C   0  0  2  0  0  0  0  0  0  0  0  0
  -11.0718   16.2730   -0.1329 N   0  0  0  0  0  0  0  0  0  0  0  0
   -5.6291   14.7600    5.9645 C   0  0  1  0  0  0  0  0  0  0  0  0
   -5.3761   14.4513    7.4108 N   0  0  0  0  0  0  0  0  0  0  0  0
   -9.5011   20.5366    2.9251 C   0  0  0  0  0  0  0  0  0  0  0  0
   -8.8858   16.6330    1.0588 C   0  0  2  0  0  0  0  0  0  0  0  0
   -4.4159   15.6846    5.3887 C   0  0  1  0  0  0  0  0  0  0  0  0
   -3.1591   15.0337    5.4675 O   0  0  0  0  0  0  0  0  0  0  0  0
  -10.3502   19.5131    3.2063 C   0  0  2  0  0  0  0  0  0  0  0  0
  -10.9559   18.7135    2.1839 O   0  0  0  0  0  0  0  0  0  0  0  0
   -8.1106   16.2937    2.3855 C   0  0  2  0  0  0  0  0  0  0  0  0
   -6.7965   16.8891    2.3306 O   0  0  0  0  0  0  0  0  0  0  0  0
   -4.6670   16.0123    3.8808 C   0  0  0  0  0  0  0  0  0  0  0  0
   -4.8591   14.7277    3.1188 O   0  0  0  0  0  0  0  0  0  0  0  0
  -10.7397   19.1226    4.6333 C   0  0  0  0  0  0  0  0  0  0  0  0
  -12.0040   18.4206    4.5781 O   0  0  0  0  0  0  0  0  0  0  0  0
   -7.9683   14.7309    2.4983 C   0  0  1  0  0  0  0  0  0  0  0  0
   -7.2623   14.4454    3.6648 O   0  0  0  0  0  0  0  0  0  0  0  0
   -4.2418   17.0490    6.0985 C   0  0  0  0  0  0  0  0  0  0  0  0
   -6.5086   13.8913    8.1763 C   0  0  0  0  0  0  0  0  0  0  0  0
  1  2  1  1  0  0  0
  1  6  1  0  0  0  0
  1 21  1  0  0  0  0
  3  4  1  6  0  0  0
  3  8  1  0  0  0  0
  3 28  1  0  0  0  0
  5  9  1  0  0  0  0
  5 25  1  0  0  0  0
  5 29  1  1  0  0  0
  6  7  1  6  0  0  0
  6 11  1  0  0  0  0
  8 12  1  0  0  0  0
  9 10  1  1  0  0  0
  9 14  1  0  0  0  0
 11 16  1  0  0  0  0
 12 13  1  6  0  0  0
 12 17  1  0  0  0  0
 14 15  1  1  0  0  0
 14 18  1  0  0  0  0
 15 31  1  0  0  0  0
 16 20  1  0  0  0  0
 17  2  1  1  0  0  0
 17 22  1  0  0  0  0
 18 19  1  1  0  0  0
 18 24  1  0  0  0  0
 18 30  1  0  0  0  0
 20 21  1  0  0  0  0
 20 26  1  6  0  0  0
 22 23  1  6  0  0  0
 22 28  1  0  0  0  0
 24 25  1  0  0  0  0
 26 27  1  0  0  0  0
 28 29  1  1  0  0  0
M  END
>  <CHROM.1>
-164.87720044,-169.06907490,-75.31910928,-1.22368933,156.99845125,125.64818264
-7.97599624,16.37767823,3.24392188,2.58360304,-0.73726859,0.07240297

>  <Name>
ligand

>  <RI>
0

>  <Rbt.Current_Directory>
/home/itssahil/PROJECTS/Mol_Feturizer/New_Systems/rnas/4GPX

>  <Rbt.Executable>
rbdock ($Id: //depot/dev/client3/rdock/2013.1/src/exe/rbdock.cxx#4 $)

>  <Rbt.Library>
libRbt.so (2013.1, Build901 2013/11/27)

>  <Rbt.Parameter_File>
/export/apps/rDock/src/rDock_2013.1_src/data/scripts/dock_solv.prm

>  <Rbt.Receptor>
prm/blind_docking_100.prm

>  <SCORE>
2.55191

>  <SCORE.INTER>
-6.52073

>  <SCORE.INTER.CONST>
1

>  <SCORE.INTER.POLAR>
0

>  <SCORE.INTER.ROT>
6

>  <SCORE.INTER.SOLV>
20.9973

>  <SCORE.INTER.VDW>
-18.9463

>  <SCORE.INTER.norm>
-0.210346

>  <SCORE.INTRA>
2.73572

>  <SCORE.INTRA.DIHEDRAL>
-1.6392

>  <SCORE.INTRA.DIHEDRAL.0>
20.6841

>  <SCORE.INTRA.POLAR>
0

>  <SCORE.INTRA.POLAR.0>
0

>  <SCORE.INTRA.REPUL>
0

>  <SCORE.INTRA.REPUL.0>
0

>  <SCORE.INTRA.SOLV>
-0.582739

>  <SCORE.INTRA.SOLV.lig_0>
-64.6797

>  <SCORE.INTRA.VDW>
3.8467

>  <SCORE.INTRA.VDW.0>
-4.11825

>  <SCORE.INTRA.norm>
0.0882492

>  <SCORE.RESTR>
6.33691

>  <SCORE.RESTR.CAVITY>
6.33691

>  <SCORE.RESTR.norm>
0.204416

>  <SCORE.SYSTEM>
0

>  <SCORE.SYSTEM.CONST>
0

>  <SCORE.SYSTEM.DIHEDRAL>
0

>  <SCORE.SYSTEM.SOLV>
0

>  <SCORE.SYSTEM.norm>
0

>  <SCORE.heavy>
31

>  <SCORE.norm>
0.0823196

>  <RMSD>
8.553

$$$$
ligand
 OpenBabel11021811493D
libRbt.so/2013.1/901 2013/11/27
 31 33  0  0  0  0  0  0  0  0999 V2000
   -0.8715   13.0523   10.5178 C   0  0  2  0  0  0  0  0  0  0  0  0
   -0.0682   14.0848    9.9540 O   0  0  0  0  0  0  0  0  0  0  0  0
    0.3035   16.0596    6.2063 C   0  0  2  0  0  0  0  0  0  0  0  0
    0.5626   16.2659    4.8144 N   0  0  0  0  0  0  0  0  0  0  0  0
   -2.3010   15.2499    4.3502 C   0  0  2  0  0  0  0  0  0  0  0  0
   -0.9001   13.3060   12.0801 C   0  0  2  0  0  0  0  0  0  0  0  0
   -1.4600   14.6302   12.3300 N   0  0  0  0  0  0  0  0  0  0  0  0
    1.6286   15.5193    6.8859 C   0  0  0  0  0  0  0  0  0  0  0  0
   -3.6024   16.0663    4.0700 C   0  0  2  0  0  0  0  0  0  0  0  0
   -3.3567   17.4189    4.3907 O   0  0  0  0  0  0  0  0  0  0  0  0
    0.5569   13.1934   12.6828 C   0  0  0  0  0  0  0  0  0  0  0  0
    1.3463   15.2886    8.4178 C   0  0  2  0  0  0  0  0  0  0  0  0
    2.5737   14.7807    9.0543 N   0  0  0  0  0  0  0  0  0  0  0  0
   -4.7364   15.4662    4.9851 C   0  0  1  0  0  0  0  0  0  0  0  0
   -6.0128   16.2260    4.7740 N   0  0  0  0  0  0  0  0  0  0  0  0
    1.4081   12.0453   11.9920 C   0  0  0  0  0  0  0  0  0  0  0  0
    0.1596   14.2417    8.5957 C   0  0  2  0  0  0  0  0  0  0  0  0
   -4.9570   13.9087    4.5561 C   0  0  1  0  0  0  0  0  0  0  0  0
   -5.3084   13.7715    3.1897 O   0  0  0  0  0  0  0  0  0  0  0  0
    0.9582   11.4143   10.8753 C   0  0  2  0  0  0  0  0  0  0  0  0
   -0.2938   11.7394   10.2601 O   0  0  0  0  0  0  0  0  0  0  0  0
   -1.1395   14.7983    7.9038 C   0  0  2  0  0  0  0  0  0  0  0  0
   -2.2069   13.8389    8.0612 O   0  0  0  0  0  0  0  0  0  0  0  0
   -3.6328   13.1058    4.7701 C   0  0  0  0  0  0  0  0  0  0  0  0
   -2.5146   13.7838    4.0232 O   0  0  0  0  0  0  0  0  0  0  0  0
    1.7405   10.3012   10.1757 C   0  0  0  0  0  0  0  0  0  0  0  0
    0.9632    9.0834   10.2612 O   0  0  0  0  0  0  0  0  0  0  0  0
   -0.8451   15.0009    6.3716 C   0  0  1  0  0  0  0  0  0  0  0  0
   -2.0084   15.4730    5.7678 O   0  0  0  0  0  0  0  0  0  0  0  0
   -6.0458   13.1582    5.3603 C   0  0  0  0  0  0  0  0  0  0  0  0
   -6.4803   16.3607    3.3792 C   0  0  0  0  0  0  0  0  0  0  0  0
  1  2  1  6  0  0  0
  1  6  1  0  0  0  0
  1 21  1  0  0  0  0
  3  4  1  6  0  0  0
  3  8  1  0  0  0  0
  3 28  1  0  0  0  0
  5  9  1  0  0  0  0
  5 25  1  0  0  0  0
  5 29  1  1  0  0  0
  6  7  1  6  0  0  0
  6 11  1  0  0  0  0
  8 12  1  0  0  0  0
  9 10  1  1  0  0  0
  9 14  1  0  0  0  0
 11 16  1  0  0  0  0
 12 13  1  1  0  0  0
 12 17  1  0  0  0  0
 14 15  1  6  0  0  0
 14 18  1  0  0  0  0
 15 31  1  0  0  0  0
 16 20  1  0  0  0  0
 17  2  1  1  0  0  0
 17 22  1  0  0  0  0
 18 19  1  6  0  0  0
 18 24  1  0  0  0  0
 18 30  1  0  0  0  0
 20 21  1  0  0  0  0
 20 26  1  1  0  0  0
 22 23  1  6  0  0  0
 22 28  1  0  0  0  0
 24 25  1  0  0  0  0
 26 27  1  0  0  0  0
 28 29  1  6  0  0  0
M  END
>  <CHROM.1>
-177.42823422,-174.09704380,52.98155553,-167.58403531,116.09974503,87.61552173
-1.53107821,14.12528429,7.43035932,0.87297369,0.43757367,2.31514505

>  <Name>
ligand

>  <RI>
0

>  <Rbt.Current_Directory>
/home/itssahil/PROJECTS/Mol_Feturizer/New_Systems/rnas/4GPX

>  <Rbt.Executable>
rbdock ($Id: //depot/dev/client3/rdock/2013.1/src/exe/rbdock.cxx#4 $)

>  <Rbt.Library>
libRbt.so (2013.1, Build901 2013/11/27)

>  <Rbt.Parameter_File>
/export/apps/rDock/src/rDock_2013.1_src/data/scripts/dock_solv.prm

>  <Rbt.Receptor>
prm/pocket_docking_6.prm

>  <SCORE>
-15.7255

>  <SCORE.INTER>
-9.72224

>  <SCORE.INTER.CONST>
1

>  <SCORE.INTER.POLAR>
0

>  <SCORE.INTER.ROT>
6

>  <SCORE.INTER.SOLV>
11.0034

>  <SCORE.INTER.VDW>
-17.7493

>  <SCORE.INTER.norm>
-0.313621

>  <SCORE.INTRA>
-6.00322

>  <SCORE.INTRA.DIHEDRAL>
-14.8439

>  <SCORE.INTRA.DIHEDRAL.0>
20.6841

>  <SCORE.INTRA.POLAR>
0

>  <SCORE.INTRA.POLAR.0>
0

>  <SCORE.INTRA.REPUL>
0

>  <SCORE.INTRA.REPUL.0>
0

>  <SCORE.INTRA.SOLV>
-1.62304

>  <SCORE.INTRA.SOLV.lig_0>
-64.6797

>  <SCORE.INTRA.VDW>
2.23023

>  <SCORE.INTRA.VDW.0>
-4.11825

>  <SCORE.INTRA.norm>
-0.193652

>  <SCORE.RESTR>
0

>  <SCORE.RESTR.CAVITY>
0

>  <SCORE.RESTR.norm>
0

>  <SCORE.SYSTEM>
0

>  <SCORE.SYSTEM.CONST>
0

>  <SCORE.SYSTEM.DIHEDRAL>
0

>  <SCORE.SYSTEM.SOLV>
0

>  <SCORE.SYSTEM.norm>
0

>  <SCORE.heavy>
31

>  <SCORE.norm>
-0.507273

>  <RMSD>
8.575

$$$$
ligand
 OpenBabel11021811493D
libRbt.so/2013.1/901 2013/11/27
 31 33  0  0  0  0  0  0  0  0999 V2000
   -0.2356   12.9803   10.8396 C   0  0  2  0  0  0  0  0  0  0  0  0
   -1.0805   13.8873   11.5415 O   0  0  0  0  0  0  0  0  0  0  0  0
   -3.4890   17.1724   10.3203 C   0  0  2  0  0  0  0  0  0  0  0  0
   -3.8521   18.4894    9.8954 N   0  0  0  0  0  0  0  0  0  0  0  0
   -3.6593   17.6164    7.3097 C   0  0  2  0  0  0  0  0  0  0  0  0
   -0.1065   11.6902   11.7478 C   0  0  2  0  0  0  0  0  0  0  0  0
   -1.4384   11.1359   11.9671 N   0  0  0  0  0  0  0  0  0  0  0  0
   -2.7466   17.2850   11.7154 C   0  0  0  0  0  0  0  0  0  0  0  0
   -4.3390   17.0551    6.0207 C   0  0  2  0  0  0  0  0  0  0  0  0
   -5.3671   16.1694    6.4095 O   0  0  0  0  0  0  0  0  0  0  0  0
    0.5807   12.0527   13.1245 C   0  0  0  0  0  0  0  0  0  0  0  0
   -2.3431   15.8372   12.1850 C   0  0  2  0  0  0  0  0  0  0  0  0
   -1.6473   15.9359   13.4795 N   0  0  0  0  0  0  0  0  0  0  0  0
   -3.2268   16.3019    5.1964 C   0  0  1  0  0  0  0  0  0  0  0  0
   -3.8265   15.7209    3.9498 N   0  0  0  0  0  0  0  0  0  0  0  0
    1.7330   13.1316   12.9576 C   0  0  0  0  0  0  0  0  0  0  0  0
   -1.3933   15.1632   11.0989 C   0  0  2  0  0  0  0  0  0  0  0  0
   -2.0806   17.3878    4.7897 C   0  0  1  0  0  0  0  0  0  0  0  0
   -2.6045   18.4651    4.0319 O   0  0  0  0  0  0  0  0  0  0  0  0
    1.9139   13.7879   11.7810 C   0  0  2  0  0  0  0  0  0  0  0  0
    1.0894   13.5512   10.6339 O   0  0  0  0  0  0  0  0  0  0  0  0
   -2.1509   15.0731    9.7227 C   0  0  2  0  0  0  0  0  0  0  0  0
   -1.2795   14.4703    8.7419 O   0  0  0  0  0  0  0  0  0  0  0  0
   -1.4484   18.0021    6.0808 C   0  0  0  0  0  0  0  0  0  0  0  0
   -2.5411   18.5745    6.9447 O   0  0  0  0  0  0  0  0  0  0  0  0
    3.0110   14.8331   11.5709 C   0  0  0  0  0  0  0  0  0  0  0  0
    2.3748   16.1066   11.3108 O   0  0  0  0  0  0  0  0  0  0  0  0
   -2.5256   16.5292    9.2593 C   0  0  1  0  0  0  0  0  0  0  0  0
   -3.1760   16.4367    8.0308 O   0  0  0  0  0  0  0  0  0  0  0  0
   -0.9007   16.8145    3.9681 C   0  0  0  0  0  0  0  0  0  0  0  0
   -4.4916   14.4088    4.0843 C   0  0  0  0  0  0  0  0  0  0  0  0
  1  2  1  1  0  0  0
  1  6  1  0  0  0  0
  1 21  1  0  0  0  0
  3  4  1  6  0  0  0
  3  8  1  0  0  0  0
  3 28  1  0  0  0  0
  5  9  1  0  0  0  0
  5 25  1  0  0  0  0
  5 29  1  6  0  0  0
  6  7  1  1  0  0  0
  6 11  1  0  0  0  0
  8 12  1  0  0  0  0
  9 10  1  1  0  0  0
  9 14  1  0  0  0  0
 11 16  1  0  0  0  0
 12 13  1  1  0  0  0
 12 17  1  0  0  0  0
 14 15  1  6  0  0  0
 14 18  1  0  0  0  0
 15 31  1  0  0  0  0
 16 20  1  0  0  0  0
 17  2  1  1  0  0  0
 17 22  1  0  0  0  0
 18 19  1  6  0  0  0
 18 24  1  0  0  0  0
 18 30  1  0  0  0  0
 20 21  1  0  0  0  0
 20 26  1  6  0  0  0
 22 23  1  6  0  0  0
 22 28  1  0  0  0  0
 24 25  1  0  0  0  0
 26 27  1  0  0  0  0
 28 29  1  6  0  0  0
M  END
>  <CHROM.1>
177.15261856,-178.81677275,-83.71007874,-179.28566978,-116.26542808,61.50743981
-1.64516491,15.56126083,9.01649746,-0.90979430,0.75910608,-1.59954308

>  <Name>
ligand

>  <RI>
0

>  <Rbt.Current_Directory>
/home/itssahil/PROJECTS/Mol_Feturizer/New_Systems/rnas/4GPX

>  <Rbt.Executable>
rbdock ($Id: //depot/dev/client3/rdock/2013.1/src/exe/rbdock.cxx#4 $)

>  <Rbt.Library>
libRbt.so (2013.1, Build901 2013/11/27)

>  <Rbt.Parameter_File>
/export/apps/rDock/src/rDock_2013.1_src/data/scripts/dock_solv.prm

>  <Rbt.Receptor>
prm/pocket_docking_7.prm

>  <SCORE>
-16.4481

>  <SCORE.INTER>
-8.05006

>  <SCORE.INTER.CONST>
1

>  <SCORE.INTER.POLAR>
0

>  <SCORE.INTER.ROT>
6

>  <SCORE.INTER.SOLV>
13.0024

>  <SCORE.INTER.VDW>
-17.3008

>  <SCORE.INTER.norm>
-0.25968

>  <SCORE.INTRA>
-8.39802

>  <SCORE.INTRA.DIHEDRAL>
-18.5044

>  <SCORE.INTRA.DIHEDRAL.0>
20.6841

>  <SCORE.INTRA.POLAR>
0

>  <SCORE.INTRA.POLAR.0>
0

>  <SCORE.INTRA.REPUL>
0

>  <SCORE.INTRA.REPUL.0>
0

>  <SCORE.INTRA.SOLV>
-1.52316

>  <SCORE.INTRA.SOLV.lig_0>
-64.6797

>  <SCORE.INTRA.VDW>
1.61575

>  <SCORE.INTRA.VDW.0>
-4.11825

>  <SCORE.INTRA.norm>
-0.270904

>  <SCORE.RESTR>
0

>  <SCORE.RESTR.CAVITY>
0

>  <SCORE.RESTR.norm>
0

>  <SCORE.SYSTEM>
0

>  <SCORE.SYSTEM.CONST>
0

>  <SCORE.SYSTEM.DIHEDRAL>
0

>  <SCORE.SYSTEM.SOLV>
0

>  <SCORE.SYSTEM.norm>
0

>  <SCORE.heavy>
31

>  <SCORE.norm>
-0.530583

>  <RMSD>
8.584

$$$$
ligand
 OpenBabel11021811493D
libRbt.so/2013.1/901 2013/11/27
 31 33  0  0  0  0  0  0  0  0999 V2000
    0.1777   11.7855    9.1993 C   0  0  2  0  0  0  0  0  0  0  0  0
    1.2733   12.4298    8.5559 O   0  0  0  0  0  0  0  0  0  0  0  0
    1.8320   15.1431    5.3295 C   0  0  2  0  0  0  0  0  0  0  0  0
    1.8435   15.6648    3.9973 N   0  0  0  0  0  0  0  0  0  0  0  0
   -0.8509   16.5291    4.4304 C   0  0  2  0  0  0  0  0  0  0  0  0
    0.6291   11.5125   10.6918 C   0  0  2  0  0  0  0  0  0  0  0  0
    0.9592   12.7863   11.3225 N   0  0  0  0  0  0  0  0  0  0  0  0
    2.7445   13.8485    5.3664 C   0  0  0  0  0  0  0  0  0  0  0  0
   -1.6614   17.7959    4.8512 C   0  0  2  0  0  0  0  0  0  0  0  0
   -0.8289   18.6125    5.6468 O   0  0  0  0  0  0  0  0  0  0  0  0
    1.8723   10.5365   10.7211 C   0  0  0  0  0  0  0  0  0  0  0  0
    2.7322   13.2700    6.8309 C   0  0  2  0  0  0  0  0  0  0  0  0
    3.5748   12.0625    6.8702 N   0  0  0  0  0  0  0  0  0  0  0  0
   -2.9132   17.2990    5.6695 C   0  0  1  0  0  0  0  0  0  0  0  0
   -3.7242   18.4780    6.1203 N   0  0  0  0  0  0  0  0  0  0  0  0
    1.7797    9.4084    9.6082 C   0  0  0  0  0  0  0  0  0  0  0  0
    1.2398   12.9146    7.2576 C   0  0  2  0  0  0  0  0  0  0  0  0
   -3.8179   16.3646    4.6862 C   0  0  1  0  0  0  0  0  0  0  0  0
   -4.2384   17.0569    3.5229 O   0  0  0  0  0  0  0  0  0  0  0  0
    0.8301    9.4582    8.6369 C   0  0  2  0  0  0  0  0  0  0  0  0
   -0.1334   10.5150    8.5569 O   0  0  0  0  0  0  0  0  0  0  0  0
    0.3544   14.2143    7.2027 C   0  0  2  0  0  0  0  0  0  0  0  0
   -0.9985   13.8810    7.5811 O   0  0  0  0  0  0  0  0  0  0  0  0
   -2.9832   15.1323    4.2079 C   0  0  0  0  0  0  0  0  0  0  0  0
   -1.7053   15.6141    3.5733 O   0  0  0  0  0  0  0  0  0  0  0  0
    0.6992    8.3943    7.5453 C   0  0  0  0  0  0  0  0  0  0  0  0
    1.0155    9.0119    6.2754 O   0  0  0  0  0  0  0  0  0  0  0  0
    0.3607   14.7643    5.7286 C   0  0  1  0  0  0  0  0  0  0  0  0
   -0.4432   15.9014    5.6893 O   0  0  0  0  0  0  0  0  0  0  0  0
   -5.0999   15.7866    5.3328 C   0  0  0  0  0  0  0  0  0  0  0  0
   -3.5202   18.9289    7.5122 C   0  0  0  0  0  0  0  0  0  0  0  0
  1  2  1  6  0  0  0
  1  6  1  0  0  0  0
  1 21  1  0  0  0  0
  3  4  1  6  0  0  0
  3  8  1  0  0  0  0
  3 28  1  0  0  0  0
  5  9  1  0  0  0  0
  5 25  1  0  0  0  0
  5 29  1  1  0  0  0
  6  7  1  6  0  0  0
  6 11  1  0  0  0  0
  8 12  1  0  0  0  0
  9 10  1  1  0  0  0
  9 14  1  0  0  0  0
 11 16  1  0  0  0  0
 12 13  1  6  0  0  0
 12 17  1  0  0  0  0
 14 15  1  6  0  0  0
 14 18  1  0  0  0  0
 15 31  1  0  0  0  0
 16 20  1  0  0  0  0
 17  2  1  1  0  0  0
 17 22  1  0  0  0  0
 18 19  1  6  0  0  0
 18 24  1  0  0  0  0
 18 30  1  0  0  0  0
 20 21  1  0  0  0  0
 20 26  1  1  0  0  0
 22 23  1  6  0  0  0
 22 28  1  0  0  0  0
 24 25  1  0  0  0  0
 26 27  1  0  0  0  0
 28 29  1  1  0  0  0
M  END
>  <CHROM.1>
-175.51393304,-176.93763481,-99.02265433,-168.21406996,-113.73043992,72.37496399
-0.32312814,14.04256981,6.71035479,1.00454296,-0.47363138,2.34759596

>  <Name>
ligand

>  <RI>
0

>  <Rbt.Current_Directory>
/home/itssahil/PROJECTS/Mol_Feturizer/New_Systems/rnas/4GPX

>  <Rbt.Executable>
rbdock ($Id: //depot/dev/client3/rdock/2013.1/src/exe/rbdock.cxx#4 $)

>  <Rbt.Library>
libRbt.so (2013.1, Build901 2013/11/27)

>  <Rbt.Parameter_File>
/export/apps/rDock/src/rDock_2013.1_src/data/scripts/dock_solv.prm

>  <Rbt.Receptor>
prm/pocket_docking_8.prm

>  <SCORE>
-17.9383

>  <SCORE.INTER>
-9.45569

>  <SCORE.INTER.CONST>
1

>  <SCORE.INTER.POLAR>
0

>  <SCORE.INTER.ROT>
6

>  <SCORE.INTER.SOLV>
9.83797

>  <SCORE.INTER.VDW>
-17.1831

>  <SCORE.INTER.norm>
-0.305022

>  <SCORE.INTRA>
-8.4826

>  <SCORE.INTRA.DIHEDRAL>
-16.5293

>  <SCORE.INTRA.DIHEDRAL.0>
20.6841

>  <SCORE.INTRA.POLAR>
0

>  <SCORE.INTRA.POLAR.0>
0

>  <SCORE.INTRA.REPUL>
0

>  <SCORE.INTRA.REPUL.0>
0

>  <SCORE.INTRA.SOLV>
-1.29021

>  <SCORE.INTRA.SOLV.lig_0>
-64.6797

>  <SCORE.INTRA.VDW>
0.427158

>  <SCORE.INTRA.VDW.0>
-4.11825

>  <SCORE.INTRA.norm>
-0.273632

>  <SCORE.RESTR>
0

>  <SCORE.RESTR.CAVITY>
0

>  <SCORE.RESTR.norm>
0

>  <SCORE.SYSTEM>
0

>  <SCORE.SYSTEM.CONST>
0

>  <SCORE.SYSTEM.DIHEDRAL>
0

>  <SCORE.SYSTEM.SOLV>
0

>  <SCORE.SYSTEM.norm>
0

>  <SCORE.heavy>
31

>  <SCORE.norm>
-0.578655

>  <RMSD>
8.620

$$$$
ligand
 OpenBabel11021811493D
libRbt.so/2013.1/901 2013/11/27
 31 33  0  0  0  0  0  0  0  0999 V2000
  -10.7273   18.4968    1.1683 C   0  0  2  0  0  0  0  0  0  0  0  0
   -9.5578   17.6961    1.0259 O   0  0  0  0  0  0  0  0  0  0  0  0
   -9.9267   14.0477    3.1792 C   0  0  2  0  0  0  0  0  0  0  0  0
   -9.9226   12.6446    3.4590 N   0  0  0  0  0  0  0  0  0  0  0  0
   -6.2256   13.7433    3.4788 C   0  0  2  0  0  0  0  0  0  0  0  0
  -10.4195   19.8751    0.4531 C   0  0  2  0  0  0  0  0  0  0  0  0
  -10.1033   19.6163   -0.9477 N   0  0  0  0  0  0  0  0  0  0  0  0
  -10.9661   14.3215    2.0153 C   0  0  0  0  0  0  0  0  0  0  0  0
   -5.6921   13.2634    4.8658 C   0  0  2  0  0  0  0  0  0  0  0  0
   -6.5733   12.2801    5.3653 O   0  0  0  0  0  0  0  0  0  0  0  0
   -9.2177   20.6107    1.1698 C   0  0  0  0  0  0  0  0  0  0  0  0
  -10.9714   15.8648    1.7029 C   0  0  2  0  0  0  0  0  0  0  0  0
  -11.9323   16.1249    0.6172 N   0  0  0  0  0  0  0  0  0  0  0  0
   -5.6554   14.5222    5.8132 C   0  0  1  0  0  0  0  0  0  0  0  0
   -5.1673   14.1184    7.1733 N   0  0  0  0  0  0  0  0  0  0  0  0
   -9.2498   20.4237    2.7458 C   0  0  0  0  0  0  0  0  0  0  0  0
   -9.5118   16.3324    1.2706 C   0  0  2  0  0  0  0  0  0  0  0  0
   -4.6229   15.6068    5.1682 C   0  0  1  0  0  0  0  0  0  0  0  0
   -3.3175   15.0779    5.0081 O   0  0  0  0  0  0  0  0  0  0  0  0
  -10.1074   19.5459    3.3302 C   0  0  2  0  0  0  0  0  0  0  0  0
  -11.0235   18.7462    2.5733 O   0  0  0  0  0  0  0  0  0  0  0  0
   -8.4994   16.0402    2.4392 C   0  0  2  0  0  0  0  0  0  0  0  0
   -7.1777   16.4578    2.0352 O   0  0  0  0  0  0  0  0  0  0  0  0
   -5.1196   16.0349    3.7491 C   0  0  0  0  0  0  0  0  0  0  0  0
   -5.3120   14.8068    2.8989 O   0  0  0  0  0  0  0  0  0  0  0  0
  -10.1774   19.3326    4.8435 C   0  0  0  0  0  0  0  0  0  0  0  0
   -9.5692   20.4771    5.4874 O   0  0  0  0  0  0  0  0  0  0  0  0
   -8.4913   14.4924    2.7215 C   0  0  1  0  0  0  0  0  0  0  0  0
   -7.5762   14.2451    3.7424 O   0  0  0  0  0  0  0  0  0  0  0  0
   -4.4627   16.9165    5.9773 C   0  0  0  0  0  0  0  0  0  0  0  0
   -6.1706   13.5451    8.0936 C   0  0  0  0  0  0  0  0  0  0  0  0
  1  2  1  1  0  0  0
  1  6  1  0  0  0  0
  1 21  1  0  0  0  0
  3  4  1  6  0  0  0
  3  8  1  0  0  0  0
  3 28  1  0  0  0  0
  5  9  1  0  0  0  0
  5 25  1  0  0  0  0
  5 29  1  1  0  0  0
  6  7  1  6  0  0  0
  6 11  1  0  0  0  0
  8 12  1  0  0  0  0
  9 10  1  1  0  0  0
  9 14  1  0  0  0  0
 11 16  1  0  0  0  0
 12 13  1  6  0  0  0
 12 17  1  0  0  0  0
 14 15  1  1  0  0  0
 14 18  1  0  0  0  0
 15 31  1  0  0  0  0
 16 20  1  0  0  0  0
 17  2  1  1  0  0  0
 17 22  1  0  0  0  0
 18 19  1  6  0  0  0
 18 24  1  0  0  0  0
 18 30  1  0  0  0  0
 20 21  1  0  0  0  0
 20 26  1  1  0  0  0
 22 23  1  6  0  0  0
 22 28  1  0  0  0  0
 24 25  1  0  0  0  0
 26 27  1  0  0  0  0
 28 29  1  1  0  0  0
M  END
>  <CHROM.1>
-166.20954300,-165.67440126,-82.99398927,0.76274893,19.08790294,140.95853104
-8.14046745,16.30293332,3.34030863,2.51330835,-0.68608055,0.02086323

>  <Name>
ligand

>  <RI>
0

>  <Rbt.Current_Directory>
/home/itssahil/PROJECTS/Mol_Feturizer/New_Systems/rnas/4GPX

>  <Rbt.Executable>
rbdock ($Id: //depot/dev/client3/rdock/2013.1/src/exe/rbdock.cxx#4 $)

>  <Rbt.Library>
libRbt.so (2013.1, Build901 2013/11/27)

>  <Rbt.Parameter_File>
/export/apps/rDock/src/rDock_2013.1_src/data/scripts/dock_solv.prm

>  <Rbt.Receptor>
prm/blind_docking_100.prm

>  <SCORE>
5.34097

>  <SCORE.INTER>
-3.33649

>  <SCORE.INTER.CONST>
1

>  <SCORE.INTER.POLAR>
0

>  <SCORE.INTER.ROT>
6

>  <SCORE.INTER.SOLV>
20.6267

>  <SCORE.INTER.VDW>
-16.6999

>  <SCORE.INTER.norm>
-0.107629

>  <SCORE.INTRA>
2.21091

>  <SCORE.INTRA.DIHEDRAL>
-3.87572

>  <SCORE.INTRA.DIHEDRAL.0>
20.6841

>  <SCORE.INTRA.POLAR>
0

>  <SCORE.INTRA.POLAR.0>
0

>  <SCORE.INTRA.REPUL>
0

>  <SCORE.INTRA.REPUL.0>
0

>  <SCORE.INTRA.SOLV>
-0.825801

>  <SCORE.INTRA.SOLV.lig_0>
-64.6797

>  <SCORE.INTRA.VDW>
4.56167

>  <SCORE.INTRA.VDW.0>
-4.11825

>  <SCORE.INTRA.norm>
0.0713196

>  <SCORE.RESTR>
6.46654

>  <SCORE.RESTR.CAVITY>
6.46654

>  <SCORE.RESTR.norm>
0.208598

>  <SCORE.SYSTEM>
0

>  <SCORE.SYSTEM.CONST>
0

>  <SCORE.SYSTEM.DIHEDRAL>
0

>  <SCORE.SYSTEM.SOLV>
0

>  <SCORE.SYSTEM.norm>
0

>  <SCORE.heavy>
31

>  <SCORE.norm>
0.172289

>  <RMSD>
8.623

$$$$
ligand
 OpenBabel11021811493D
libRbt.so/2013.1/901 2013/11/27
 31 33  0  0  0  0  0  0  0  0999 V2000
    2.4920   10.4393    6.4350 C   0  0  2  0  0  0  0  0  0  0  0  0
    1.5145   11.4332    6.1422 O   0  0  0  0  0  0  0  0  0  0  0  0
    1.6692   15.6395    6.7483 C   0  0  2  0  0  0  0  0  0  0  0  0
    1.9822   17.0188    6.5331 N   0  0  0  0  0  0  0  0  0  0  0  0
   -0.9546   16.1631    4.1391 C   0  0  2  0  0  0  0  0  0  0  0  0
    1.9176    9.0683    5.8905 C   0  0  2  0  0  0  0  0  0  0  0  0
    1.6819    9.1953    4.4561 N   0  0  0  0  0  0  0  0  0  0  0  0
    3.0271   14.8312    6.8607 C   0  0  0  0  0  0  0  0  0  0  0  0
   -1.8648   17.3982    4.4300 C   0  0  2  0  0  0  0  0  0  0  0  0
   -1.0629   18.4226    4.9778 O   0  0  0  0  0  0  0  0  0  0  0  0
    0.5799    8.6936    6.6449 C   0  0  0  0  0  0  0  0  0  0  0  0
    2.6864   13.3118    7.0950 C   0  0  2  0  0  0  0  0  0  0  0  0
    3.9455   12.5540    7.1948 N   0  0  0  0  0  0  0  0  0  0  0  0
   -2.9673   16.9345    5.4563 C   0  0  1  0  0  0  0  0  0  0  0  0
   -3.8650   18.0890    5.7914 N   0  0  0  0  0  0  0  0  0  0  0  0
    0.6268    9.0802    8.1838 C   0  0  0  0  0  0  0  0  0  0  0  0
    1.8077   12.7635    5.8854 C   0  0  2  0  0  0  0  0  0  0  0  0
   -3.8445   15.7540    4.7525 C   0  0  1  0  0  0  0  0  0  0  0  0
   -4.4508   16.1813    3.5446 O   0  0  0  0  0  0  0  0  0  0  0  0
    1.6381    9.8370    8.6860 C   0  0  2  0  0  0  0  0  0  0  0  0
    2.7100   10.3261    7.8715 O   0  0  0  0  0  0  0  0  0  0  0  0
    0.4715   13.5892    5.7907 C   0  0  2  0  0  0  0  0  0  0  0  0
   -0.3140   13.0924    4.6859 O   0  0  0  0  0  0  0  0  0  0  0  0
   -2.9198   14.5447    4.3968 C   0  0  0  0  0  0  0  0  0  0  0  0
   -1.7726   15.0291    3.5499 O   0  0  0  0  0  0  0  0  0  0  0  0
    1.7283   10.2329   10.1610 C   0  0  0  0  0  0  0  0  0  0  0  0
    0.5000    9.8290   10.8108 O   0  0  0  0  0  0  0  0  0  0  0  0
    0.8313   15.0993    5.5343 C   0  0  1  0  0  0  0  0  0  0  0  0
   -0.3596   15.8147    5.4313 O   0  0  0  0  0  0  0  0  0  0  0  0
   -4.9834   15.1771    5.6277 C   0  0  0  0  0  0  0  0  0  0  0  0
   -3.5987   18.7867    7.0659 C   0  0  0  0  0  0  0  0  0  0  0  0
  1  2  1  1  0  0  0
  1  6  1  0  0  0  0
  1 21  1  0  0  0  0
  3  4  1  6  0  0  0
  3  8  1  0  0  0  0
  3 28  1  0  0  0  0
  5  9  1  0  0  0  0
  5 25  1  0  0  0  0
  5 29  1  1  0  0  0
  6  7  1  6  0  0  0
  6 11  1  0  0  0  0
  8 12  1  0  0  0  0
  9 10  1  1  0  0  0
  9 14  1  0  0  0  0
 11 16  1  0  0  0  0
 12 13  1  6  0  0  0
 12 17  1  0  0  0  0
 14 15  1  6  0  0  0
 14 18  1  0  0  0  0
 15 31  1  0  0  0  0
 16 20  1  0  0  0  0
 17  2  1  1  0  0  0
 17 22  1  0  0  0  0
 18 19  1  6  0  0  0
 18 24  1  0  0  0  0
 18 30  1  0  0  0  0
 20 21  1  0  0  0  0
 20 26  1  1  0  0  0
 22 23  1  6  0  0  0
 22 28  1  0  0  0  0
 24 25  1  0  0  0  0
 26 27  1  0  0  0  0
 28 29  1  1  0  0  0
M  END
>  <CHROM.1>
-149.66045847,-157.06817357,-99.95454786,-53.61097267,-7.82538701,143.15403946
-0.07110007,13.69713707,6.15503904,-0.96678553,-0.30697831,-0.16206421

>  <Name>
ligand

>  <RI>
0

>  <Rbt.Current_Directory>
/home/itssahil/PROJECTS/Mol_Feturizer/New_Systems/rnas/4GPX

>  <Rbt.Executable>
rbdock ($Id: //depot/dev/client3/rdock/2013.1/src/exe/rbdock.cxx#4 $)

>  <Rbt.Library>
libRbt.so (2013.1, Build901 2013/11/27)

>  <Rbt.Parameter_File>
/export/apps/rDock/src/rDock_2013.1_src/data/scripts/dock_solv.prm

>  <Rbt.Receptor>
prm/pocket_docking_5.prm

>  <SCORE>
-9.57774

>  <SCORE.INTER>
-8.42092

>  <SCORE.INTER.CONST>
1

>  <SCORE.INTER.POLAR>
0

>  <SCORE.INTER.ROT>
6

>  <SCORE.INTER.SOLV>
9.00566

>  <SCORE.INTER.VDW>
-16.2158

>  <SCORE.INTER.norm>
-0.271643

>  <SCORE.INTRA>
-1.15682

>  <SCORE.INTRA.DIHEDRAL>
-7.0014

>  <SCORE.INTRA.DIHEDRAL.0>
20.6841

>  <SCORE.INTRA.POLAR>
0

>  <SCORE.INTRA.POLAR.0>
0

>  <SCORE.INTRA.REPUL>
0

>  <SCORE.INTRA.REPUL.0>
0

>  <SCORE.INTRA.SOLV>
-0.040797

>  <SCORE.INTRA.SOLV.lig_0>
-64.6797

>  <SCORE.INTRA.VDW>
2.36428

>  <SCORE.INTRA.VDW.0>
-4.11825

>  <SCORE.INTRA.norm>
-0.0373167

>  <SCORE.RESTR>
0

>  <SCORE.RESTR.CAVITY>
0

>  <SCORE.RESTR.norm>
0

>  <SCORE.SYSTEM>
0

>  <SCORE.SYSTEM.CONST>
0

>  <SCORE.SYSTEM.DIHEDRAL>
0

>  <SCORE.SYSTEM.SOLV>
0

>  <SCORE.SYSTEM.norm>
0

>  <SCORE.heavy>
31

>  <SCORE.norm>
-0.308959

>  <RMSD>
8.667

$$$$
ligand
 OpenBabel11021811493D
libRbt.so/2013.1/901 2013/11/27
 31 33  0  0  0  0  0  0  0  0999 V2000
    1.9466   11.0847    4.6517 C   0  0  2  0  0  0  0  0  0  0  0  0
    2.0018   11.4651    3.2801 O   0  0  0  0  0  0  0  0  0  0  0  0
    0.5321   15.4552    3.3372 C   0  0  2  0  0  0  0  0  0  0  0  0
    0.0960   16.7348    2.8689 N   0  0  0  0  0  0  0  0  0  0  0  0
   -2.0583   14.7347    4.5621 C   0  0  2  0  0  0  0  0  0  0  0  0
    3.0533    9.9713    4.8553 C   0  0  2  0  0  0  0  0  0  0  0  0
    4.3526   10.5303    4.4965 N   0  0  0  0  0  0  0  0  0  0  0  0
    2.0243   15.2293    2.8552 C   0  0  0  0  0  0  0  0  0  0  0  0
   -3.3188   13.8424    4.7935 C   0  0  2  0  0  0  0  0  0  0  0  0
   -2.9846   12.5087    4.4739 O   0  0  0  0  0  0  0  0  0  0  0  0
    2.7276    8.7030    3.9697 C   0  0  0  0  0  0  0  0  0  0  0  0
    2.5068   13.8204    3.3667 C   0  0  2  0  0  0  0  0  0  0  0  0
    3.8924   13.6023    2.9168 N   0  0  0  0  0  0  0  0  0  0  0  0
   -4.4545   14.3829    3.8438 C   0  0  1  0  0  0  0  0  0  0  0  0
   -5.6910   13.5491    4.0075 N   0  0  0  0  0  0  0  0  0  0  0  0
    1.1714    8.3969    3.9039 C   0  0  0  0  0  0  0  0  0  0  0  0
    1.5545   12.6821    2.7897 C   0  0  2  0  0  0  0  0  0  0  0  0
   -4.7791   15.9218    4.2738 C   0  0  1  0  0  0  0  0  0  0  0  0
   -5.1835   16.0283    5.6282 O   0  0  0  0  0  0  0  0  0  0  0  0
    0.2618    9.2812    4.3921 C   0  0  2  0  0  0  0  0  0  0  0  0
    0.6433   10.5264    4.9884 O   0  0  0  0  0  0  0  0  0  0  0  0
    0.0793   12.9361    3.2749 C   0  0  2  0  0  0  0  0  0  0  0  0
   -0.7785   11.9057    2.7391 O   0  0  0  0  0  0  0  0  0  0  0  0
   -3.4973   16.8014    4.1091 C   0  0  0  0  0  0  0  0  0  0  0  0
   -2.3673   16.1835    4.8897 O   0  0  0  0  0  0  0  0  0  0  0  0
   -1.2468    9.0301    4.3540 C   0  0  0  0  0  0  0  0  0  0  0  0
   -1.7138    9.3005    3.0112 O   0  0  0  0  0  0  0  0  0  0  0  0
   -0.3927   14.3368    2.7358 C   0  0  1  0  0  0  0  0  0  0  0  0
   -1.7060   14.5395    3.1539 O   0  0  0  0  0  0  0  0  0  0  0  0
   -5.8821   16.6143    3.4373 C   0  0  0  0  0  0  0  0  0  0  0  0
   -6.1752   13.3466    5.3883 C   0  0  0  0  0  0  0  0  0  0  0  0
  1  2  1  6  0  0  0
  1  6  1  0  0  0  0
  1 21  1  0  0  0  0
  3  4  1  6  0  0  0
  3  8  1  0  0  0  0
  3 28  1  0  0  0  0
  5  9  1  0  0  0  0
  5 25  1  0  0  0  0
  5 29  1  6  0  0  0
  6  7  1  6  0  0  0
  6 11  1  0  0  0  0
  8 12  1  0  0  0  0
  9 10  1  6  0  0  0
  9 14  1  0  0  0  0
 11 16  1  0  0  0  0
 12 13  1  6  0  0  0
 12 17  1  0  0  0  0
 14 15  1  1  0  0  0
 14 18  1  0  0  0  0
 15 31  1  0  0  0  0
 16 20  1  0  0  0  0
 17  2  1  1  0  0  0
 17 22  1  0  0  0  0
 18 19  1  1  0  0  0
 18 24  1  0  0  0  0
 18 30  1  0  0  0  0
 20 21  1  0  0  0  0
 20 26  1  1  0  0  0
 22 23  1  6  0  0  0
 22 28  1  0  0  0  0
 24 25  1  0  0  0  0
 26 27  1  0  0  0  0
 28 29  1  1  0  0  0
M  END
>  <CHROM.1>
-156.80187200,-135.61436383,51.35743445,67.02194503,-78.07451316,-50.95171966
-0.86975540,13.00394456,3.92001384,0.61371497,-0.15484161,3.01659226

>  <Name>
ligand

>  <RI>
0

>  <Rbt.Current_Directory>
/home/itssahil/PROJECTS/Mol_Feturizer/New_Systems/rnas/4GPX

>  <Rbt.Executable>
rbdock ($Id: //depot/dev/client3/rdock/2013.1/src/exe/rbdock.cxx#4 $)

>  <Rbt.Library>
libRbt.so (2013.1, Build901 2013/11/27)

>  <Rbt.Parameter_File>
/export/apps/rDock/src/rDock_2013.1_src/data/scripts/dock_solv.prm

>  <Rbt.Receptor>
prm/pocket_docking_8.prm

>  <SCORE>
-12.8493

>  <SCORE.INTER>
-12.0014

>  <SCORE.INTER.CONST>
1

>  <SCORE.INTER.POLAR>
0

>  <SCORE.INTER.ROT>
6

>  <SCORE.INTER.SOLV>
14.9396

>  <SCORE.INTER.VDW>
-20.5808

>  <SCORE.INTER.norm>
-0.38714

>  <SCORE.INTRA>
-0.847968

>  <SCORE.INTRA.DIHEDRAL>
-8.36806

>  <SCORE.INTRA.DIHEDRAL.0>
20.6841

>  <SCORE.INTRA.POLAR>
0

>  <SCORE.INTRA.POLAR.0>
0

>  <SCORE.INTRA.REPUL>
0.0360147

>  <SCORE.INTRA.REPUL.0>
0

>  <SCORE.INTRA.SOLV>
1.76132

>  <SCORE.INTRA.SOLV.lig_0>
-64.6797

>  <SCORE.INTRA.VDW>
2.27533

>  <SCORE.INTRA.VDW.0>
-4.11825

>  <SCORE.INTRA.norm>
-0.0273538

>  <SCORE.RESTR>
0

>  <SCORE.RESTR.CAVITY>
0

>  <SCORE.RESTR.norm>
0

>  <SCORE.SYSTEM>
0

>  <SCORE.SYSTEM.CONST>
0

>  <SCORE.SYSTEM.DIHEDRAL>
0

>  <SCORE.SYSTEM.SOLV>
0

>  <SCORE.SYSTEM.norm>
0

>  <SCORE.heavy>
31

>  <SCORE.norm>
-0.414494

>  <RMSD>
8.685

$$$$
ligand
 OpenBabel11021811493D
libRbt.so/2013.1/901 2013/11/27
 31 33  0  0  0  0  0  0  0  0999 V2000
    2.4782   10.4909    6.4325 C   0  0  2  0  0  0  0  0  0  0  0  0
    1.5061   11.5146    6.2424 O   0  0  0  0  0  0  0  0  0  0  0  0
    1.7231   15.7274    6.7801 C   0  0  2  0  0  0  0  0  0  0  0  0
    2.0494   17.0993    6.5382 N   0  0  0  0  0  0  0  0  0  0  0  0
   -0.8984   16.3089    4.2081 C   0  0  2  0  0  0  0  0  0  0  0  0
    1.7892    9.1307    6.0068 C   0  0  2  0  0  0  0  0  0  0  0  0
    1.3709    9.2331    4.6127 N   0  0  0  0  0  0  0  0  0  0  0  0
    3.0726   14.9038    6.8820 C   0  0  0  0  0  0  0  0  0  0  0  0
   -1.8080   17.5362    4.5322 C   0  0  2  0  0  0  0  0  0  0  0  0
   -1.0106   18.5348    5.1319 O   0  0  0  0  0  0  0  0  0  0  0  0
    0.5504    8.8256    6.9402 C   0  0  0  0  0  0  0  0  0  0  0  0
    2.7172   13.3927    7.1457 C   0  0  2  0  0  0  0  0  0  0  0  0
    3.9684   12.6207    7.2359 N   0  0  0  0  0  0  0  0  0  0  0  0
   -2.9287   17.0385    5.5222 C   0  0  1  0  0  0  0  0  0  0  0  0
   -3.8267   18.1836    5.8875 N   0  0  0  0  0  0  0  0  0  0  0  0
    0.8135    9.2458    8.4481 C   0  0  0  0  0  0  0  0  0  0  0  0
    1.8112   12.8370    5.9599 C   0  0  2  0  0  0  0  0  0  0  0  0
   -3.7995   15.8904    4.7594 C   0  0  1  0  0  0  0  0  0  0  0  0
   -4.3845   16.3671    3.5594 O   0  0  0  0  0  0  0  0  0  0  0  0
    1.9081    9.9747    8.7920 C   0  0  2  0  0  0  0  0  0  0  0  0
    2.8797   10.4030    7.8307 O   0  0  0  0  0  0  0  0  0  0  0  0
    0.4839   13.6780    5.8750 C   0  0  2  0  0  0  0  0  0  0  0  0
   -0.3265   13.1742    4.7915 O   0  0  0  0  0  0  0  0  0  0  0  0
   -2.8743   14.6914    4.3717 C   0  0  0  0  0  0  0  0  0  0  0  0
   -1.7116   15.2026    3.5626 O   0  0  0  0  0  0  0  0  0  0  0  0
    2.2060   10.4012   10.2307 C   0  0  0  0  0  0  0  0  0  0  0  0
    0.9480   10.5051   10.9384 O   0  0  0  0  0  0  0  0  0  0  0  0
    0.8579   15.1793    5.5891 C   0  0  1  0  0  0  0  0  0  0  0  0
   -0.3256   15.9080    5.4951 O   0  0  0  0  0  0  0  0  0  0  0  0
   -4.9547   15.2857    5.5933 C   0  0  0  0  0  0  0  0  0  0  0  0
   -3.6110   18.7975    7.2136 C   0  0  0  0  0  0  0  0  0  0  0  0
  1  2  1  1  0  0  0
  1  6  1  0  0  0  0
  1 21  1  0  0  0  0
  3  4  1  6  0  0  0
  3  8  1  0  0  0  0
  3 28  1  0  0  0  0
  5  9  1  0  0  0  0
  5 25  1  0  0  0  0
  5 29  1  1  0  0  0
  6  7  1  6  0  0  0
  6 11  1  0  0  0  0
  8 12  1  0  0  0  0
  9 10  1  1  0  0  0
  9 14  1  0  0  0  0
 11 16  1  0  0  0  0
 12 13  1  6  0  0  0
 12 17  1  0  0  0  0
 14 15  1  6  0  0  0
 14 18  1  0  0  0  0
 15 31  1  0  0  0  0
 16 20  1  0  0  0  0
 17  2  1  1  0  0  0
 17 22  1  0  0  0  0
 18 19  1  6  0  0  0
 18 24  1  0  0  0  0
 18 30  1  0  0  0  0
 20 21  1  0  0  0  0
 20 26  1  1  0  0  0
 22 23  1  6  0  0  0
 22 28  1  0  0  0  0
 24 25  1  0  0  0  0
 26 27  1  0  0  0  0
 28 29  1  1  0  0  0
M  END
>  <CHROM.1>
-152.12144746,-157.30321645,-102.17805433,-58.66628592,-27.57395553,139.62116407
-0.01041051,13.82077157,6.23049807,0.92394605,0.40971664,3.05264497

>  <Name>
ligand

>  <RI>
0

>  <Rbt.Current_Directory>
/home/itssahil/PROJECTS/Mol_Feturizer/New_Systems/rnas/4GPX

>  <Rbt.Executable>
rbdock ($Id: //depot/dev/client3/rdock/2013.1/src/exe/rbdock.cxx#4 $)

>  <Rbt.Library>
libRbt.so (2013.1, Build901 2013/11/27)

>  <Rbt.Parameter_File>
/export/apps/rDock/src/rDock_2013.1_src/data/scripts/dock_solv.prm

>  <Rbt.Receptor>
prm/pocket_docking_7.prm

>  <SCORE>
-10.057

>  <SCORE.INTER>
-8.88628

>  <SCORE.INTER.CONST>
1

>  <SCORE.INTER.POLAR>
0

>  <SCORE.INTER.ROT>
6

>  <SCORE.INTER.SOLV>
8.75877

>  <SCORE.INTER.VDW>
-16.4438

>  <SCORE.INTER.norm>
-0.286654

>  <SCORE.INTRA>
-1.17073

>  <SCORE.INTRA.DIHEDRAL>
-6.28024

>  <SCORE.INTRA.DIHEDRAL.0>
20.6841

>  <SCORE.INTRA.POLAR>
0

>  <SCORE.INTRA.POLAR.0>
0

>  <SCORE.INTRA.REPUL>
0

>  <SCORE.INTRA.REPUL.0>
0

>  <SCORE.INTRA.SOLV>
0.236231

>  <SCORE.INTRA.SOLV.lig_0>
-64.6797

>  <SCORE.INTRA.VDW>
1.85127

>  <SCORE.INTRA.VDW.0>
-4.11825

>  <SCORE.INTRA.norm>
-0.0377656

>  <SCORE.RESTR>
0

>  <SCORE.RESTR.CAVITY>
0

>  <SCORE.RESTR.norm>
0

>  <SCORE.SYSTEM>
0

>  <SCORE.SYSTEM.CONST>
0

>  <SCORE.SYSTEM.DIHEDRAL>
0

>  <SCORE.SYSTEM.SOLV>
0

>  <SCORE.SYSTEM.norm>
0

>  <SCORE.heavy>
31

>  <SCORE.norm>
-0.32442

>  <RMSD>
8.715

$$$$
ligand
 OpenBabel11021811493D
libRbt.so/2013.1/901 2013/11/27
 31 33  0  0  0  0  0  0  0  0999 V2000
  -11.8183   12.5251    2.8703 C   0  0  2  0  0  0  0  0  0  0  0  0
  -10.4736   12.9056    2.5944 O   0  0  0  0  0  0  0  0  0  0  0  0
   -8.1735   16.3311    1.5649 C   0  0  2  0  0  0  0  0  0  0  0  0
   -7.6882   17.6770    1.5712 N   0  0  0  0  0  0  0  0  0  0  0  0
   -6.0556   16.1176    4.5634 C   0  0  2  0  0  0  0  0  0  0  0  0
  -11.7644   11.0365    3.4062 C   0  0  2  0  0  0  0  0  0  0  0  0
  -10.9307   10.9990    4.6032 N   0  0  0  0  0  0  0  0  0  0  0  0
   -9.7227   16.3607    1.2346 C   0  0  0  0  0  0  0  0  0  0  0  0
   -4.5665   16.4951    4.2824 C   0  0  2  0  0  0  0  0  0  0  0  0
   -4.5413   17.4917    3.2830 O   0  0  0  0  0  0  0  0  0  0  0  0
  -11.1882   10.0718    2.2944 C   0  0  0  0  0  0  0  0  0  0  0  0
  -10.2609   14.8809    1.2294 C   0  0  2  0  0  0  0  0  0  0  0  0
  -11.7026   14.9023    0.9282 N   0  0  0  0  0  0  0  0  0  0  0  0
   -3.8372   15.1865    3.7933 C   0  0  1  0  0  0  0  0  0  0  0  0
   -2.4005   15.4917    3.4872 N   0  0  0  0  0  0  0  0  0  0  0  0
  -11.6821   10.4666    0.8384 C   0  0  0  0  0  0  0  0  0  0  0  0
  -10.0049   14.2090    2.6502 C   0  0  2  0  0  0  0  0  0  0  0  0
   -3.9123   14.0894    4.9971 C   0  0  1  0  0  0  0  0  0  0  0  0
   -3.3173   14.5618    6.1937 O   0  0  0  0  0  0  0  0  0  0  0  0
  -12.3432   11.6331    0.6147 C   0  0  2  0  0  0  0  0  0  0  0  0
  -12.6326   12.5660    1.6623 O   0  0  0  0  0  0  0  0  0  0  0  0
   -8.4615   14.2017    2.9570 C   0  0  2  0  0  0  0  0  0  0  0  0
   -8.2394   13.6003    4.2506 O   0  0  0  0  0  0  0  0  0  0  0  0
   -5.4053   13.7636    5.3269 C   0  0  0  0  0  0  0  0  0  0  0  0
   -6.1373   15.0438    5.6321 O   0  0  0  0  0  0  0  0  0  0  0  0
  -12.8407   12.0560   -0.7688 C   0  0  0  0  0  0  0  0  0  0  0  0
  -11.9130   13.0304   -1.3017 O   0  0  0  0  0  0  0  0  0  0  0  0
   -7.9470   15.6884    2.9803 C   0  0  1  0  0  0  0  0  0  0  0  0
   -6.5853   15.6688    3.2737 O   0  0  0  0  0  0  0  0  0  0  0  0
   -3.2381   12.7314    4.6855 C   0  0  0  0  0  0  0  0  0  0  0  0
   -1.7353   16.4855    4.3544 C   0  0  0  0  0  0  0  0  0  0  0  0
  1  2  1  6  0  0  0
  1  6  1  0  0  0  0
  1 21  1  0  0  0  0
  3  4  1  1  0  0  0
  3  8  1  0  0  0  0
  3 28  1  0  0  0  0
  5  9  1  0  0  0  0
  5 25  1  0  0  0  0
  5 29  1  6  0  0  0
  6  7  1  1  0  0  0
  6 11  1  0  0  0  0
  8 12  1  0  0  0  0
  9 10  1  6  0  0  0
  9 14  1  0  0  0  0
 11 16  1  0  0  0  0
 12 13  1  1  0  0  0
 12 17  1  0  0  0  0
 14 15  1  1  0  0  0
 14 18  1  0  0  0  0
 15 31  1  0  0  0  0
 16 20  1  0  0  0  0
 17  2  1  6  0  0  0
 17 22  1  0  0  0  0
 18 19  1  1  0  0  0
 18 24  1  0  0  0  0
 18 30  1  0  0  0  0
 20 21  1  0  0  0  0
 20 26  1  1  0  0  0
 22 23  1  1  0  0  0
 22 28  1  0  0  0  0
 24 25  1  0  0  0  0
 26 27  1  0  0  0  0
 28 29  1  6  0  0  0
M  END
>  <CHROM.1>
-151.85842045,-157.07444600,35.64694306,-87.18436329,-101.39881538,132.75291361
-8.08845240,14.14148672,2.91571517,-3.02213640,-0.50712364,-0.54286982

>  <Name>
ligand

>  <RI>
0

>  <Rbt.Current_Directory>
/home/itssahil/PROJECTS/Mol_Feturizer/New_Systems/rnas/4GPX

>  <Rbt.Executable>
rbdock ($Id: //depot/dev/client3/rdock/2013.1/src/exe/rbdock.cxx#4 $)

>  <Rbt.Library>
libRbt.so (2013.1, Build901 2013/11/27)

>  <Rbt.Parameter_File>
/export/apps/rDock/src/rDock_2013.1_src/data/scripts/dock_solv.prm

>  <Rbt.Receptor>
prm/blind_docking_60.prm

>  <SCORE>
18.7187

>  <SCORE.INTER>
7.95467

>  <SCORE.INTER.CONST>
1

>  <SCORE.INTER.POLAR>
0

>  <SCORE.INTER.ROT>
6

>  <SCORE.INTER.SOLV>
28.5507

>  <SCORE.INTER.VDW>
-11.8138

>  <SCORE.INTER.norm>
0.256602

>  <SCORE.INTRA>
1.77444

>  <SCORE.INTRA.DIHEDRAL>
-3.11687

>  <SCORE.INTRA.DIHEDRAL.0>
20.6841

>  <SCORE.INTRA.POLAR>
0

>  <SCORE.INTRA.POLAR.0>
0

>  <SCORE.INTRA.REPUL>
0

>  <SCORE.INTRA.REPUL.0>
0

>  <SCORE.INTRA.SOLV>
2.38518

>  <SCORE.INTRA.SOLV.lig_0>
-64.6797

>  <SCORE.INTRA.VDW>
2.14029

>  <SCORE.INTRA.VDW.0>
-4.11825

>  <SCORE.INTRA.norm>
0.0572401

>  <SCORE.RESTR>
8.98956

>  <SCORE.RESTR.CAVITY>
8.98956

>  <SCORE.RESTR.norm>
0.289986

>  <SCORE.SYSTEM>
0

>  <SCORE.SYSTEM.CONST>
0

>  <SCORE.SYSTEM.DIHEDRAL>
0

>  <SCORE.SYSTEM.SOLV>
0

>  <SCORE.SYSTEM.norm>
0

>  <SCORE.heavy>
31

>  <SCORE.norm>
0.603828

>  <RMSD>
8.725

$$$$
ligand
 OpenBabel11021811493D
libRbt.so/2013.1/901 2013/11/27
 31 33  0  0  0  0  0  0  0  0999 V2000
    1.6776   10.9275    9.2244 C   0  0  2  0  0  0  0  0  0  0  0  0
    1.1279   12.1229    8.6783 O   0  0  0  0  0  0  0  0  0  0  0  0
    1.3471   13.9699    4.8541 C   0  0  2  0  0  0  0  0  0  0  0  0
    1.1492   14.1931    3.4549 N   0  0  0  0  0  0  0  0  0  0  0  0
   -1.1707   15.6208    4.1058 C   0  0  2  0  0  0  0  0  0  0  0  0
    0.5347    9.8343    9.1569 C   0  0  2  0  0  0  0  0  0  0  0  0
    0.1316    9.6627    7.7651 N   0  0  0  0  0  0  0  0  0  0  0  0
    2.0763   12.5755    5.0388 C   0  0  0  0  0  0  0  0  0  0  0  0
   -1.7984   17.0253    4.3744 C   0  0  2  0  0  0  0  0  0  0  0  0
   -0.8051   17.8565    4.9355 O   0  0  0  0  0  0  0  0  0  0  0  0
   -0.6978   10.2710   10.0452 C   0  0  0  0  0  0  0  0  0  0  0  0
    2.2935   12.3252    6.5782 C   0  0  2  0  0  0  0  0  0  0  0  0
    2.9664   11.0271    6.7566 N   0  0  0  0  0  0  0  0  0  0  0  0
   -2.9947   16.8178    5.3792 C   0  0  1  0  0  0  0  0  0  0  0  0
   -3.6284   18.1413    5.6923 N   0  0  0  0  0  0  0  0  0  0  0  0
   -0.2494   10.9953   11.3846 C   0  0  0  0  0  0  0  0  0  0  0  0
    0.8887   12.3253    7.3280 C   0  0  2  0  0  0  0  0  0  0  0  0
   -4.0922   15.8492    4.6611 C   0  0  1  0  0  0  0  0  0  0  0  0
   -4.5683   16.3885    3.4396 O   0  0  0  0  0  0  0  0  0  0  0  0
    1.0445   11.3608   11.5845 C   0  0  2  0  0  0  0  0  0  0  0  0
    2.0704   11.1191   10.6147 O   0  0  0  0  0  0  0  0  0  0  0  0
    0.1828   13.7162    7.1201 C   0  0  2  0  0  0  0  0  0  0  0  0
   -1.0939   13.7039    7.7944 O   0  0  0  0  0  0  0  0  0  0  0  0
   -3.4435   14.4664    4.3279 C   0  0  0  0  0  0  0  0  0  0  0  0
   -2.2025   14.6857    3.5034 O   0  0  0  0  0  0  0  0  0  0  0  0
    1.5252   12.0581   12.8586 C   0  0  0  0  0  0  0  0  0  0  0  0
    0.3629   12.3994   13.6502 O   0  0  0  0  0  0  0  0  0  0  0  0
   -0.0459   13.9381    5.5794 C   0  0  1  0  0  0  0  0  0  0  0  0
   -0.6901   15.1618    5.4110 O   0  0  0  0  0  0  0  0  0  0  0  0
   -5.3455   15.5381    5.5143 C   0  0  0  0  0  0  0  0  0  0  0  0
   -3.2862   18.7476    6.9952 C   0  0  0  0  0  0  0  0  0  0  0  0
  1  2  1  1  0  0  0
  1  6  1  0  0  0  0
  1 21  1  0  0  0  0
  3  4  1  6  0  0  0
  3  8  1  0  0  0  0
  3 28  1  0  0  0  0
  5  9  1  0  0  0  0
  5 25  1  0  0  0  0
  5 29  1  1  0  0  0
  6  7  1  6  0  0  0
  6 11  1  0  0  0  0
  8 12  1  0  0  0  0
  9 10  1  1  0  0  0
  9 14  1  0  0  0  0
 11 16  1  0  0  0  0
 12 13  1  6  0  0  0
 12 17  1  0  0  0  0
 14 15  1  6  0  0  0
 14 18  1  0  0  0  0
 15 31  1  0  0  0  0
 16 20  1  0  0  0  0
 17  2  1  1  0  0  0
 17 22  1  0  0  0  0
 18 19  1  6  0  0  0
 18 24  1  0  0  0  0
 18 30  1  0  0  0  0
 20 21  1  0  0  0  0
 20 26  1  1  0  0  0
 22 23  1  1  0  0  0
 22 28  1  0  0  0  0
 24 25  1  0  0  0  0
 26 27  1  0  0  0  0
 28 29  1  1  0  0  0
M  END
>  <CHROM.1>
-73.47680850,-179.23598536,-102.43178899,-65.02490483,-7.99714397,67.33007709
-0.56570991,13.73373001,7.04630452,-0.92871384,0.71631744,-1.28438751

>  <Name>
ligand

>  <RI>
0

>  <Rbt.Current_Directory>
/home/itssahil/PROJECTS/Mol_Feturizer/New_Systems/rnas/4GPX

>  <Rbt.Executable>
rbdock ($Id: //depot/dev/client3/rdock/2013.1/src/exe/rbdock.cxx#4 $)

>  <Rbt.Library>
libRbt.so (2013.1, Build901 2013/11/27)

>  <Rbt.Parameter_File>
/export/apps/rDock/src/rDock_2013.1_src/data/scripts/dock_solv.prm

>  <Rbt.Receptor>
prm/pocket_docking_6.prm

>  <SCORE>
-14.5274

>  <SCORE.INTER>
-9.76111

>  <SCORE.INTER.CONST>
1

>  <SCORE.INTER.POLAR>
0

>  <SCORE.INTER.ROT>
6

>  <SCORE.INTER.SOLV>
11.9446

>  <SCORE.INTER.VDW>
-18.0889

>  <SCORE.INTER.norm>
-0.314875

>  <SCORE.INTRA>
-4.7663

>  <SCORE.INTRA.DIHEDRAL>
-16.6973

>  <SCORE.INTRA.DIHEDRAL.0>
20.6841

>  <SCORE.INTRA.POLAR>
0

>  <SCORE.INTRA.POLAR.0>
0

>  <SCORE.INTRA.REPUL>
0

>  <SCORE.INTRA.REPUL.0>
0

>  <SCORE.INTRA.SOLV>
2.25266

>  <SCORE.INTRA.SOLV.lig_0>
-64.6797

>  <SCORE.INTRA.VDW>
2.45601

>  <SCORE.INTRA.VDW.0>
-4.11825

>  <SCORE.INTRA.norm>
-0.153751

>  <SCORE.RESTR>
0

>  <SCORE.RESTR.CAVITY>
0

>  <SCORE.RESTR.norm>
0

>  <SCORE.SYSTEM>
0

>  <SCORE.SYSTEM.CONST>
0

>  <SCORE.SYSTEM.DIHEDRAL>
0

>  <SCORE.SYSTEM.SOLV>
0

>  <SCORE.SYSTEM.norm>
0

>  <SCORE.heavy>
31

>  <SCORE.norm>
-0.468626

>  <RMSD>
8.747

$$$$
ligand
 OpenBabel11021811493D
libRbt.so/2013.1/901 2013/11/27
 31 33  0  0  0  0  0  0  0  0999 V2000
    1.7290   10.9319    9.2426 C   0  0  2  0  0  0  0  0  0  0  0  0
    1.1950   12.1283    8.6835 O   0  0  0  0  0  0  0  0  0  0  0  0
    1.3381   13.9117    4.8256 C   0  0  2  0  0  0  0  0  0  0  0  0
    1.1129   14.1115    3.4270 N   0  0  0  0  0  0  0  0  0  0  0  0
   -1.1715   15.5600    4.0939 C   0  0  2  0  0  0  0  0  0  0  0  0
    0.5691    9.8556    9.1950 C   0  0  2  0  0  0  0  0  0  0  0  0
    0.1564    9.6721    7.8074 N   0  0  0  0  0  0  0  0  0  0  0  0
    2.0722   12.5212    5.0193 C   0  0  0  0  0  0  0  0  0  0  0  0
   -1.7838   16.9737    4.3493 C   0  0  2  0  0  0  0  0  0  0  0  0
   -0.7795   17.8012    4.8963 O   0  0  0  0  0  0  0  0  0  0  0  0
   -0.6521   10.3228   10.0833 C   0  0  0  0  0  0  0  0  0  0  0  0
    2.3195   12.2967    6.5581 C   0  0  2  0  0  0  0  0  0  0  0  0
    2.9972   11.0023    6.7450 N   0  0  0  0  0  0  0  0  0  0  0  0
   -2.9773   16.7898    5.3619 C   0  0  1  0  0  0  0  0  0  0  0  0
   -3.5962   18.1230    5.6628 N   0  0  0  0  0  0  0  0  0  0  0  0
   -0.1859   11.0575   11.4109 C   0  0  0  0  0  0  0  0  0  0  0  0
    0.9295   12.3081    7.3349 C   0  0  2  0  0  0  0  0  0  0  0  0
   -4.0878   15.8242    4.6599 C   0  0  1  0  0  0  0  0  0  0  0  0
   -4.5643   16.3543    3.4346 O   0  0  0  0  0  0  0  0  0  0  0  0
    1.1144   11.4057   11.5998 C   0  0  2  0  0  0  0  0  0  0  0  0
    2.1316   11.1355   10.6284 O   0  0  0  0  0  0  0  0  0  0  0  0
    0.2181   13.6947    7.1177 C   0  0  2  0  0  0  0  0  0  0  0  0
   -1.0452   13.6926    7.8166 O   0  0  0  0  0  0  0  0  0  0  0  0
   -3.4546   14.4312    4.3396 C   0  0  0  0  0  0  0  0  0  0  0  0
   -2.2154   14.6286    3.5069 O   0  0  0  0  0  0  0  0  0  0  0  0
    1.6121   12.1120   12.8623 C   0  0  0  0  0  0  0  0  0  0  0  0
    0.4577   12.5319   13.6273 O   0  0  0  0  0  0  0  0  0  0  0  0
   -0.0406   13.8909    5.5782 C   0  0  1  0  0  0  0  0  0  0  0  0
   -0.6893   15.1110    5.4020 O   0  0  0  0  0  0  0  0  0  0  0  0
   -5.3402   15.5354    5.5224 C   0  0  0  0  0  0  0  0  0  0  0  0
   -3.3206   18.6951    6.9966 C   0  0  0  0  0  0  0  0  0  0  0  0
  1  2  1  1  0  0  0
  1  6  1  0  0  0  0
  1 21  1  0  0  0  0
  3  4  1  6  0  0  0
  3  8  1  0  0  0  0
  3 28  1  0  0  0  0
  5  9  1  0  0  0  0
  5 25  1  0  0  0  0
  5 29  1  1  0  0  0
  6  7  1  6  0  0  0
  6 11  1  0  0  0  0
  8 12  1  0  0  0  0
  9 10  1  1  0  0  0
  9 14  1  0  0  0  0
 11 16  1  0  0  0  0
 12 13  1  6  0  0  0
 12 17  1  0  0  0  0
 14 15  1  6  0  0  0
 14 18  1  0  0  0  0
 15 31  1  0  0  0  0
 16 20  1  0  0  0  0
 17  2  1  1  0  0  0
 17 22  1  0  0  0  0
 18 19  1  6  0  0  0
 18 24  1  0  0  0  0
 18 30  1  0  0  0  0
 20 21  1  0  0  0  0
 20 26  1  1  0  0  0
 22 23  1  1  0  0  0
 22 28  1  0  0  0  0
 24 25  1  0  0  0  0
 26 27  1  0  0  0  0
 28 29  1  1  0  0  0
M  END
>  <CHROM.1>
-72.25118139,-178.35127244,-106.73442700,-66.47634739,-10.39322058,66.05670839
-0.54019214,13.72082826,7.04569043,-0.91066622,0.72265770,-1.31166134

>  <Name>
ligand

>  <RI>
0

>  <Rbt.Current_Directory>
/home/itssahil/PROJECTS/Mol_Feturizer/New_Systems/rnas/4GPX

>  <Rbt.Executable>
rbdock ($Id: //depot/dev/client3/rdock/2013.1/src/exe/rbdock.cxx#4 $)

>  <Rbt.Library>
libRbt.so (2013.1, Build901 2013/11/27)

>  <Rbt.Parameter_File>
/export/apps/rDock/src/rDock_2013.1_src/data/scripts/dock_solv.prm

>  <Rbt.Receptor>
prm/pocket_docking_5.prm

>  <SCORE>
-14.5086

>  <SCORE.INTER>
-9.77768

>  <SCORE.INTER.CONST>
1

>  <SCORE.INTER.POLAR>
0

>  <SCORE.INTER.ROT>
6

>  <SCORE.INTER.SOLV>
11.9168

>  <SCORE.INTER.VDW>
-18.0907

>  <SCORE.INTER.norm>
-0.315409

>  <SCORE.INTRA>
-4.7309

>  <SCORE.INTRA.DIHEDRAL>
-16.6788

>  <SCORE.INTRA.DIHEDRAL.0>
20.6841

>  <SCORE.INTRA.POLAR>
0

>  <SCORE.INTRA.POLAR.0>
0

>  <SCORE.INTRA.REPUL>
0

>  <SCORE.INTRA.REPUL.0>
0

>  <SCORE.INTRA.SOLV>
2.29662

>  <SCORE.INTRA.SOLV.lig_0>
-64.6797

>  <SCORE.INTRA.VDW>
2.4602

>  <SCORE.INTRA.VDW.0>
-4.11825

>  <SCORE.INTRA.norm>
-0.15261

>  <SCORE.RESTR>
0

>  <SCORE.RESTR.CAVITY>
0

>  <SCORE.RESTR.norm>
0

>  <SCORE.SYSTEM>
0

>  <SCORE.SYSTEM.CONST>
0

>  <SCORE.SYSTEM.DIHEDRAL>
0

>  <SCORE.SYSTEM.SOLV>
0

>  <SCORE.SYSTEM.norm>
0

>  <SCORE.heavy>
31

>  <SCORE.norm>
-0.468019

>  <RMSD>
8.756

$$$$
ligand
 OpenBabel11021811493D
libRbt.so/2013.1/901 2013/11/27
 31 33  0  0  0  0  0  0  0  0999 V2000
    1.7239   10.9642    9.2110 C   0  0  2  0  0  0  0  0  0  0  0  0
    1.1672   12.1557    8.6633 O   0  0  0  0  0  0  0  0  0  0  0  0
    1.4211   14.0443    4.8617 C   0  0  2  0  0  0  0  0  0  0  0  0
    1.2470   14.2762    3.4607 N   0  0  0  0  0  0  0  0  0  0  0  0
   -1.1411   15.6297    4.0792 C   0  0  2  0  0  0  0  0  0  0  0  0
    0.5926    9.8599    9.1301 C   0  0  2  0  0  0  0  0  0  0  0  0
    0.2036    9.6883    7.7342 N   0  0  0  0  0  0  0  0  0  0  0  0
    2.1801   12.6664    5.0490 C   0  0  0  0  0  0  0  0  0  0  0  0
   -1.7740   17.0333    4.3402 C   0  0  2  0  0  0  0  0  0  0  0  0
   -0.7830   17.8721    4.8941 O   0  0  0  0  0  0  0  0  0  0  0  0
   -0.6522   10.2817   10.0085 C   0  0  0  0  0  0  0  0  0  0  0  0
    2.3711   12.4065    6.5903 C   0  0  2  0  0  0  0  0  0  0  0  0
    3.0717   11.1235    6.7710 N   0  0  0  0  0  0  0  0  0  0  0  0
   -2.9674   16.8273    5.3487 C   0  0  1  0  0  0  0  0  0  0  0  0
   -3.6059   18.1500    5.6548 N   0  0  0  0  0  0  0  0  0  0  0  0
   -0.2230   11.0065   11.3539 C   0  0  0  0  0  0  0  0  0  0  0  0
    0.9514   12.3652    7.3101 C   0  0  2  0  0  0  0  0  0  0  0  0
   -4.0623   15.8497    4.6389 C   0  0  1  0  0  0  0  0  0  0  0  0
   -4.5431   16.3792    3.4150 O   0  0  0  0  0  0  0  0  0  0  0  0
    1.0653   11.3843   11.5665 C   0  0  2  0  0  0  0  0  0  0  0  0
    2.1023   11.1556   10.6053 O   0  0  0  0  0  0  0  0  0  0  0  0
    0.2161   13.7405    7.1002 C   0  0  2  0  0  0  0  0  0  0  0  0
   -1.0737   13.6907    7.7472 O   0  0  0  0  0  0  0  0  0  0  0  0
   -3.4086   14.4675    4.3131 C   0  0  0  0  0  0  0  0  0  0  0  0
   -2.1702   14.6867    3.4847 O   0  0  0  0  0  0  0  0  0  0  0  0
    1.5277   12.0826   12.8468 C   0  0  0  0  0  0  0  0  0  0  0  0
    1.9476   13.4236   12.5009 O   0  0  0  0  0  0  0  0  0  0  0  0
    0.0143   13.9717    5.5570 C   0  0  1  0  0  0  0  0  0  0  0  0
   -0.6560   15.1809    5.3863 O   0  0  0  0  0  0  0  0  0  0  0  0
   -5.3127   15.5388    5.4966 C   0  0  0  0  0  0  0  0  0  0  0  0
   -3.4066   18.6819    7.0184 C   0  0  0  0  0  0  0  0  0  0  0  0
  1  2  1  1  0  0  0
  1  6  1  0  0  0  0
  1 21  1  0  0  0  0
  3  4  1  6  0  0  0
  3  8  1  0  0  0  0
  3 28  1  0  0  0  0
  5  9  1  0  0  0  0
  5 25  1  0  0  0  0
  5 29  1  1  0  0  0
  6  7  1  6  0  0  0
  6 11  1  0  0  0  0
  8 12  1  0  0  0  0
  9 10  1  1  0  0  0
  9 14  1  0  0  0  0
 11 16  1  0  0  0  0
 12 13  1  6  0  0  0
 12 17  1  0  0  0  0
 14 15  1  6  0  0  0
 14 18  1  0  0  0  0
 15 31  1  0  0  0  0
 16 20  1  0  0  0  0
 17  2  1  1  0  0  0
 17 22  1  0  0  0  0
 18 19  1  6  0  0  0
 18 24  1  0  0  0  0
 18 30  1  0  0  0  0
 20 21  1  0  0  0  0
 20 26  1  1  0  0  0
 22 23  1  1  0  0  0
 22 28  1  0  0  0  0
 24 25  1  0  0  0  0
 26 27  1  0  0  0  0
 28 29  1  1  0  0  0
M  END
>  <CHROM.1>
-74.20189260,-178.08305963,-110.17265805,-65.58814915,-114.14059979,68.43189895
-0.47119905,13.79388293,6.98759373,-0.87051989,0.71349283,-1.32344717

>  <Name>
ligand

>  <RI>
0

>  <Rbt.Current_Directory>
/home/itssahil/PROJECTS/Mol_Feturizer/New_Systems/rnas/4GPX

>  <Rbt.Executable>
rbdock ($Id: //depot/dev/client3/rdock/2013.1/src/exe/rbdock.cxx#4 $)

>  <Rbt.Library>
libRbt.so (2013.1, Build901 2013/11/27)

>  <Rbt.Parameter_File>
/export/apps/rDock/src/rDock_2013.1_src/data/scripts/dock_solv.prm

>  <Rbt.Receptor>
prm/pocket_docking_7.prm

>  <SCORE>
-15.7634

>  <SCORE.INTER>
-9.99029

>  <SCORE.INTER.CONST>
1

>  <SCORE.INTER.POLAR>
0

>  <SCORE.INTER.ROT>
6

>  <SCORE.INTER.SOLV>
11.8287

>  <SCORE.INTER.VDW>
-18.2031

>  <SCORE.INTER.norm>
-0.322267

>  <SCORE.INTRA>
-5.7731

>  <SCORE.INTRA.DIHEDRAL>
-16.3598

>  <SCORE.INTRA.DIHEDRAL.0>
20.6841

>  <SCORE.INTRA.POLAR>
0

>  <SCORE.INTRA.POLAR.0>
0

>  <SCORE.INTRA.REPUL>
0

>  <SCORE.INTRA.REPUL.0>
0

>  <SCORE.INTRA.SOLV>
2.17685

>  <SCORE.INTRA.SOLV.lig_0>
-64.6797

>  <SCORE.INTRA.VDW>
1.31837

>  <SCORE.INTRA.VDW.0>
-4.11825

>  <SCORE.INTRA.norm>
-0.186229

>  <SCORE.RESTR>
0

>  <SCORE.RESTR.CAVITY>
0

>  <SCORE.RESTR.norm>
0

>  <SCORE.SYSTEM>
0

>  <SCORE.SYSTEM.CONST>
0

>  <SCORE.SYSTEM.DIHEDRAL>
0

>  <SCORE.SYSTEM.SOLV>
0

>  <SCORE.SYSTEM.norm>
0

>  <SCORE.heavy>
31

>  <SCORE.norm>
-0.508496

>  <RMSD>
8.779

$$$$
ligand
 OpenBabel11021811493D
libRbt.so/2013.1/901 2013/11/27
 31 33  0  0  0  0  0  0  0  0999 V2000
  -10.5338   13.0917    0.1032 C   0  0  2  0  0  0  0  0  0  0  0  0
  -11.0846   14.1558    0.8735 O   0  0  0  0  0  0  0  0  0  0  0  0
   -7.7714   16.6059    1.9240 C   0  0  2  0  0  0  0  0  0  0  0  0
   -6.9763   17.5618    2.6318 N   0  0  0  0  0  0  0  0  0  0  0  0
   -6.7258   14.5814    4.7646 C   0  0  2  0  0  0  0  0  0  0  0  0
  -11.4822   12.9052   -1.1505 C   0  0  2  0  0  0  0  0  0  0  0  0
  -11.5211   14.1569   -1.8994 N   0  0  0  0  0  0  0  0  0  0  0  0
   -9.0872   17.3283    1.4174 C   0  0  0  0  0  0  0  0  0  0  0  0
   -5.5470   15.5472    5.1055 C   0  0  2  0  0  0  0  0  0  0  0  0
   -5.9491   16.8653    4.7997 O   0  0  0  0  0  0  0  0  0  0  0  0
  -12.9341   12.4879   -0.6850 C   0  0  0  0  0  0  0  0  0  0  0  0
   -9.9661   16.2782    0.6401 C   0  0  2  0  0  0  0  0  0  0  0  0
  -11.1941   16.9430    0.1712 N   0  0  0  0  0  0  0  0  0  0  0  0
   -4.3167   15.1129    4.2214 C   0  0  1  0  0  0  0  0  0  0  0  0
   -3.1533   16.0209    4.4915 N   0  0  0  0  0  0  0  0  0  0  0  0
  -12.9085   11.4979    0.5555 C   0  0  0  0  0  0  0  0  0  0  0  0
  -10.3306   15.0627    1.6020 C   0  0  2  0  0  0  0  0  0  0  0  0
   -3.9175   13.5861    4.6310 C   0  0  1  0  0  0  0  0  0  0  0  0
   -3.5976   13.4641    6.0066 O   0  0  0  0  0  0  0  0  0  0  0  0
  -11.7546   11.2475    1.2289 C   0  0  2  0  0  0  0  0  0  0  0  0
  -10.5070   11.8511    0.8675 O   0  0  0  0  0  0  0  0  0  0  0  0
   -9.0073   14.3704    2.0976 C   0  0  2  0  0  0  0  0  0  0  0  0
   -9.3466   13.2764    2.9766 O   0  0  0  0  0  0  0  0  0  0  0  0
   -5.1228   12.6294    4.3557 C   0  0  0  0  0  0  0  0  0  0  0  0
   -6.3415   13.1466    5.0735 O   0  0  0  0  0  0  0  0  0  0  0  0
  -11.6790   10.3000    2.4276 C   0  0  0  0  0  0  0  0  0  0  0  0
  -11.6162   11.1015    3.6309 O   0  0  0  0  0  0  0  0  0  0  0  0
   -8.1537   15.4279    2.8904 C   0  0  1  0  0  0  0  0  0  0  0  0
   -6.9964   14.7971    3.3414 O   0  0  0  0  0  0  0  0  0  0  0  0
   -2.7170   12.9945    3.8536 C   0  0  0  0  0  0  0  0  0  0  0  0
   -3.4089   17.4724    4.3913 C   0  0  0  0  0  0  0  0  0  0  0  0
  1  2  1  1  0  0  0
  1  6  1  0  0  0  0
  1 21  1  0  0  0  0
  3  4  1  1  0  0  0
  3  8  1  0  0  0  0
  3 28  1  0  0  0  0
  5  9  1  0  0  0  0
  5 25  1  0  0  0  0
  5 29  1  6  0  0  0
  6  7  1  1  0  0  0
  6 11  1  0  0  0  0
  8 12  1  0  0  0  0
  9 10  1  6  0  0  0
  9 14  1  0  0  0  0
 11 16  1  0  0  0  0
 12 13  1  1  0  0  0
 12 17  1  0  0  0  0
 14 15  1  1  0  0  0
 14 18  1  0  0  0  0
 15 31  1  0  0  0  0
 16 20  1  0  0  0  0
 17  2  1  6  0  0  0
 17 22  1  0  0  0  0
 18 19  1  1  0  0  0
 18 24  1  0  0  0  0
 18 30  1  0  0  0  0
 20 21  1  0  0  0  0
 20 26  1  6  0  0  0
 22 23  1  1  0  0  0
 22 28  1  0  0  0  0
 24 25  1  0  0  0  0
 26 27  1  0  0  0  0
 28 29  1  6  0  0  0
M  END
>  <CHROM.1>
-146.25745067,-109.95544392,-51.90430767,88.74192379,-102.87562394,127.39487124
-8.22920862,14.22900216,2.53607246,-3.06394462,-0.56970251,-0.33768464

>  <Name>
ligand

>  <RI>
0

>  <Rbt.Current_Directory>
/home/itssahil/PROJECTS/Mol_Feturizer/New_Systems/rnas/4GPX

>  <Rbt.Executable>
rbdock ($Id: //depot/dev/client3/rdock/2013.1/src/exe/rbdock.cxx#4 $)

>  <Rbt.Library>
libRbt.so (2013.1, Build901 2013/11/27)

>  <Rbt.Parameter_File>
/export/apps/rDock/src/rDock_2013.1_src/data/scripts/dock_solv.prm

>  <Rbt.Receptor>
prm/blind_docking_60.prm

>  <SCORE>
15.0816

>  <SCORE.INTER>
-0.639334

>  <SCORE.INTER.CONST>
1

>  <SCORE.INTER.POLAR>
0

>  <SCORE.INTER.ROT>
6

>  <SCORE.INTER.SOLV>
23.6574

>  <SCORE.INTER.VDW>
-15.912

>  <SCORE.INTER.norm>
-0.0206237

>  <SCORE.INTRA>
6.89072

>  <SCORE.INTRA.DIHEDRAL>
2.71527

>  <SCORE.INTRA.DIHEDRAL.0>
20.6841

>  <SCORE.INTRA.POLAR>
0

>  <SCORE.INTRA.POLAR.0>
0

>  <SCORE.INTRA.REPUL>
0

>  <SCORE.INTRA.REPUL.0>
0

>  <SCORE.INTRA.SOLV>
2.22849

>  <SCORE.INTRA.SOLV.lig_0>
-64.6797

>  <SCORE.INTRA.VDW>
4.41884

>  <SCORE.INTRA.VDW.0>
-4.11825

>  <SCORE.INTRA.norm>
0.222281

>  <SCORE.RESTR>
8.83025

>  <SCORE.RESTR.CAVITY>
8.83025

>  <SCORE.RESTR.norm>
0.284847

>  <SCORE.SYSTEM>
0

>  <SCORE.SYSTEM.CONST>
0

>  <SCORE.SYSTEM.DIHEDRAL>
0

>  <SCORE.SYSTEM.SOLV>
0

>  <SCORE.SYSTEM.norm>
0

>  <SCORE.heavy>
31

>  <SCORE.norm>
0.486505

>  <RMSD>
8.805

$$$$
ligand
 OpenBabel11021811493D
libRbt.so/2013.1/901 2013/11/27
 31 33  0  0  0  0  0  0  0  0999 V2000
  -10.2557   12.7431    1.3075 C   0  0  2  0  0  0  0  0  0  0  0  0
  -10.6175   14.0910    1.0220 O   0  0  0  0  0  0  0  0  0  0  0  0
   -8.1370   17.4370    1.8795 C   0  0  2  0  0  0  0  0  0  0  0  0
   -7.6245   18.5967    2.5423 N   0  0  0  0  0  0  0  0  0  0  0  0
   -6.2804   16.2082    4.5934 C   0  0  2  0  0  0  0  0  0  0  0  0
  -10.9432   11.8474    0.1979 C   0  0  2  0  0  0  0  0  0  0  0  0
  -10.4643   12.2745   -1.1126 N   0  0  0  0  0  0  0  0  0  0  0  0
   -9.6377   17.7238    1.4605 C   0  0  0  0  0  0  0  0  0  0  0  0
   -4.7710   16.5715    4.4244 C   0  0  2  0  0  0  0  0  0  0  0  0
   -4.6765   17.6972    3.5780 O   0  0  0  0  0  0  0  0  0  0  0  0
  -12.5165   11.9737    0.2855 C   0  0  0  0  0  0  0  0  0  0  0  0
  -10.2060   16.4483    0.7328 C   0  0  2  0  0  0  0  0  0  0  0  0
  -11.6033   16.7071    0.3456 N   0  0  0  0  0  0  0  0  0  0  0  0
   -4.0587   15.3209    3.7822 C   0  0  1  0  0  0  0  0  0  0  0  0
   -2.6025   15.6179    3.5762 N   0  0  0  0  0  0  0  0  0  0  0  0
  -13.0313   12.0697    1.7840 C   0  0  0  0  0  0  0  0  0  0  0  0
  -10.1281   15.1918    1.7079 C   0  0  2  0  0  0  0  0  0  0  0  0
   -4.2144   14.0686    4.8147 C   0  0  1  0  0  0  0  0  0  0  0  0
   -3.6566   14.3480    6.0875 O   0  0  0  0  0  0  0  0  0  0  0  0
  -12.1612   12.2371    2.8148 C   0  0  2  0  0  0  0  0  0  0  0  0
  -10.7458   12.3355    2.6181 O   0  0  0  0  0  0  0  0  0  0  0  0
   -8.6300   14.9357    2.1156 C   0  0  2  0  0  0  0  0  0  0  0  0
   -8.5699   13.8016    3.0071 O   0  0  0  0  0  0  0  0  0  0  0  0
   -5.7282   13.7498    5.0392 C   0  0  0  0  0  0  0  0  0  0  0  0
   -6.4363   14.9982    5.4953 O   0  0  0  0  0  0  0  0  0  0  0  0
  -12.6084   12.3324    4.2748 C   0  0  0  0  0  0  0  0  0  0  0  0
  -12.5982   10.9986    4.8361 O   0  0  0  0  0  0  0  0  0  0  0  0
   -8.0872   16.2110    2.8603 C   0  0  1  0  0  0  0  0  0  0  0  0
   -6.7683   15.9631    3.2343 O   0  0  0  0  0  0  0  0  0  0  0  0
   -3.5658   12.7462    4.3390 C   0  0  0  0  0  0  0  0  0  0  0  0
   -1.9151   16.3463    4.6620 C   0  0  0  0  0  0  0  0  0  0  0  0
  1  2  1  6  0  0  0
  1  6  1  0  0  0  0
  1 21  1  0  0  0  0
  3  4  1  1  0  0  0
  3  8  1  0  0  0  0
  3 28  1  0  0  0  0
  5  9  1  0  0  0  0
  5 25  1  0  0  0  0
  5 29  1  6  0  0  0
  6  7  1  6  0  0  0
  6 11  1  0  0  0  0
  8 12  1  0  0  0  0
  9 10  1  6  0  0  0
  9 14  1  0  0  0  0
 11 16  1  0  0  0  0
 12 13  1  1  0  0  0
 12 17  1  0  0  0  0
 14 15  1  1  0  0  0
 14 18  1  0  0  0  0
 15 31  1  0  0  0  0
 16 20  1  0  0  0  0
 17  2  1  6  0  0  0
 17 22  1  0  0  0  0
 18 19  1  1  0  0  0
 18 24  1  0  0  0  0
 18 30  1  0  0  0  0
 20 21  1  0  0  0  0
 20 26  1  1  0  0  0
 22 23  1  1  0  0  0
 22 28  1  0  0  0  0
 24 25  1  0  0  0  0
 26 27  1  0  0  0  0
 28 29  1  6  0  0  0
M  END
>  <CHROM.1>
-174.78446961,-149.82347667,41.32999189,154.34709949,91.15557745,110.55395580
-8.14780599,14.61166541,2.89052711,-2.99940539,-0.45735150,-0.47103605

>  <Name>
ligand

>  <RI>
0

>  <Rbt.Current_Directory>
/home/itssahil/PROJECTS/Mol_Feturizer/New_Systems/rnas/4GPX

>  <Rbt.Executable>
rbdock ($Id: //depot/dev/client3/rdock/2013.1/src/exe/rbdock.cxx#4 $)

>  <Rbt.Library>
libRbt.so (2013.1, Build901 2013/11/27)

>  <Rbt.Parameter_File>
/export/apps/rDock/src/rDock_2013.1_src/data/scripts/dock_solv.prm

>  <Rbt.Receptor>
prm/blind_docking_60.prm

>  <SCORE>
22.8142

>  <SCORE.INTER>
11.4368

>  <SCORE.INTER.CONST>
1

>  <SCORE.INTER.POLAR>
0

>  <SCORE.INTER.ROT>
6

>  <SCORE.INTER.SOLV>
30.1998

>  <SCORE.INTER.VDW>
-10.0421

>  <SCORE.INTER.norm>
0.368928

>  <SCORE.INTRA>
1.08798

>  <SCORE.INTRA.DIHEDRAL>
-4.51095

>  <SCORE.INTRA.DIHEDRAL.0>
20.6841

>  <SCORE.INTRA.POLAR>
0

>  <SCORE.INTRA.POLAR.0>
0

>  <SCORE.INTRA.REPUL>
0

>  <SCORE.INTRA.REPUL.0>
0

>  <SCORE.INTRA.SOLV>
-1.80657

>  <SCORE.INTRA.SOLV.lig_0>
-64.6797

>  <SCORE.INTRA.VDW>
4.24674

>  <SCORE.INTRA.VDW.0>
-4.11825

>  <SCORE.INTRA.norm>
0.0350962

>  <SCORE.RESTR>
10.2894

>  <SCORE.RESTR.CAVITY>
10.2894

>  <SCORE.RESTR.norm>
0.331917

>  <SCORE.SYSTEM>
0

>  <SCORE.SYSTEM.CONST>
0

>  <SCORE.SYSTEM.DIHEDRAL>
0

>  <SCORE.SYSTEM.SOLV>
0

>  <SCORE.SYSTEM.norm>
0

>  <SCORE.heavy>
31

>  <SCORE.norm>
0.735941

>  <RMSD>
8.844

$$$$
ligand
 OpenBabel11021811493D
libRbt.so/2013.1/901 2013/11/27
 31 33  0  0  0  0  0  0  0  0999 V2000
  -10.6727   12.5585    0.7913 C   0  0  2  0  0  0  0  0  0  0  0  0
  -11.2343   13.7302    1.3751 O   0  0  0  0  0  0  0  0  0  0  0  0
   -8.0151   16.4871    1.7223 C   0  0  2  0  0  0  0  0  0  0  0  0
   -7.2331   17.5898    2.1908 N   0  0  0  0  0  0  0  0  0  0  0  0
   -6.5958   15.1424    4.7492 C   0  0  2  0  0  0  0  0  0  0  0  0
  -11.6437   12.1308   -0.3835 C   0  0  2  0  0  0  0  0  0  0  0  0
  -11.7326   13.2281   -1.3413 N   0  0  0  0  0  0  0  0  0  0  0  0
   -9.4066   17.0442    1.2094 C   0  0  0  0  0  0  0  0  0  0  0  0
   -5.2665   15.9586    4.6766 C   0  0  2  0  0  0  0  0  0  0  0  0
   -5.5327   17.1860    4.0322 O   0  0  0  0  0  0  0  0  0  0  0  0
  -13.0732   11.7710    0.1873 C   0  0  0  0  0  0  0  0  0  0  0  0
  -10.2712   15.8327    0.6953 C   0  0  2  0  0  0  0  0  0  0  0  0
  -11.5689   16.3440    0.2220 N   0  0  0  0  0  0  0  0  0  0  0  0
   -4.2354   15.0993    3.8506 C   0  0  1  0  0  0  0  0  0  0  0  0
   -2.9383   15.8436    3.7292 N   0  0  0  0  0  0  0  0  0  0  0  0
  -12.9935   11.0183    1.5825 C   0  0  0  0  0  0  0  0  0  0  0  0
  -10.4886   14.7862    1.8757 C   0  0  2  0  0  0  0  0  0  0  0  0
   -3.9848   13.7039    4.6558 C   0  0  1  0  0  0  0  0  0  0  0  0
   -3.4983   13.9206    5.9695 O   0  0  0  0  0  0  0  0  0  0  0  0
  -11.8185   10.9174    2.2585 C   0  0  2  0  0  0  0  0  0  0  0  0
  -10.5958   11.4746    1.7625 O   0  0  0  0  0  0  0  0  0  0  0  0
   -9.0922   14.2572    2.3721 C   0  0  2  0  0  0  0  0  0  0  0  0
   -9.2983   13.3172    3.4484 O   0  0  0  0  0  0  0  0  0  0  0  0
   -5.3301   12.9190    4.7905 C   0  0  0  0  0  0  0  0  0  0  0  0
   -6.3618   13.8083    5.4329 O   0  0  0  0  0  0  0  0  0  0  0  0
  -11.6909   10.2003    3.6038 C   0  0  0  0  0  0  0  0  0  0  0  0
  -12.4018   10.9772    4.5966 O   0  0  0  0  0  0  0  0  0  0  0  0
   -8.2524   15.4775    2.9022 C   0  0  1  0  0  0  0  0  0  0  0  0
   -7.0283   14.9930    3.3579 O   0  0  0  0  0  0  0  0  0  0  0  0
   -2.9887   12.7306    3.9806 C   0  0  0  0  0  0  0  0  0  0  0  0
   -2.5025   16.6121    4.9131 C   0  0  0  0  0  0  0  0  0  0  0  0
  1  2  1  1  0  0  0
  1  6  1  0  0  0  0
  1 21  1  0  0  0  0
  3  4  1  1  0  0  0
  3  8  1  0  0  0  0
  3 28  1  0  0  0  0
  5  9  1  0  0  0  0
  5 25  1  0  0  0  0
  5 29  1  6  0  0  0
  6  7  1  6  0  0  0
  6 11  1  0  0  0  0
  8 12  1  0  0  0  0
  9 10  1  6  0  0  0
  9 14  1  0  0  0  0
 11 16  1  0  0  0  0
 12 13  1  1  0  0  0
 12 17  1  0  0  0  0
 14 15  1  1  0  0  0
 14 18  1  0  0  0  0
 15 31  1  0  0  0  0
 16 20  1  0  0  0  0
 17  2  1  6  0  0  0
 17 22  1  0  0  0  0
 18 19  1  1  0  0  0
 18 24  1  0  0  0  0
 18 30  1  0  0  0  0
 20 21  1  0  0  0  0
 20 26  1  6  0  0  0
 22 23  1  1  0  0  0
 22 28  1  0  0  0  0
 24 25  1  0  0  0  0
 26 27  1  0  0  0  0
 28 29  1  6  0  0  0
M  END
>  <CHROM.1>
-144.29611124,-120.30331120,38.11749225,90.76950695,-68.49354790,122.14170581
-8.29495153,14.07948108,2.79469701,-3.03250530,-0.49964829,-0.48336791

>  <Name>
ligand

>  <RI>
0

>  <Rbt.Current_Directory>
/home/itssahil/PROJECTS/Mol_Feturizer/New_Systems/rnas/4GPX

>  <Rbt.Executable>
rbdock ($Id: //depot/dev/client3/rdock/2013.1/src/exe/rbdock.cxx#4 $)

>  <Rbt.Library>
libRbt.so (2013.1, Build901 2013/11/27)

>  <Rbt.Parameter_File>
/export/apps/rDock/src/rDock_2013.1_src/data/scripts/dock_solv.prm

>  <Rbt.Receptor>
prm/blind_docking_60.prm

>  <SCORE>
16.0572

>  <SCORE.INTER>
-0.904645

>  <SCORE.INTER.CONST>
1

>  <SCORE.INTER.POLAR>
0

>  <SCORE.INTER.ROT>
6

>  <SCORE.INTER.SOLV>
24.084

>  <SCORE.INTER.VDW>
-16.2311

>  <SCORE.INTER.norm>
-0.0291821

>  <SCORE.INTRA>
7.3759

>  <SCORE.INTRA.DIHEDRAL>
5.94897

>  <SCORE.INTRA.DIHEDRAL.0>
20.6841

>  <SCORE.INTRA.POLAR>
0

>  <SCORE.INTRA.POLAR.0>
0

>  <SCORE.INTRA.REPUL>
0

>  <SCORE.INTRA.REPUL.0>
0

>  <SCORE.INTRA.SOLV>
1.40782

>  <SCORE.INTRA.SOLV.lig_0>
-64.6797

>  <SCORE.INTRA.VDW>
3.6975

>  <SCORE.INTRA.VDW.0>
-4.11825

>  <SCORE.INTRA.norm>
0.237932

>  <SCORE.RESTR>
9.58592

>  <SCORE.RESTR.CAVITY>
9.58592

>  <SCORE.RESTR.norm>
0.309223

>  <SCORE.SYSTEM>
0

>  <SCORE.SYSTEM.CONST>
0

>  <SCORE.SYSTEM.DIHEDRAL>
0

>  <SCORE.SYSTEM.SOLV>
0

>  <SCORE.SYSTEM.norm>
0

>  <SCORE.heavy>
31

>  <SCORE.norm>
0.517973

>  <RMSD>
8.852

$$$$
ligand
 OpenBabel11021811493D
libRbt.so/2013.1/901 2013/11/27
 31 33  0  0  0  0  0  0  0  0999 V2000
    1.7679   13.1957   11.6453 C   0  0  2  0  0  0  0  0  0  0  0  0
    0.9230   12.8215   10.5612 O   0  0  0  0  0  0  0  0  0  0  0  0
    3.6648   12.2635    7.3588 C   0  0  2  0  0  0  0  0  0  0  0  0
    4.1812   11.8742    6.0826 N   0  0  0  0  0  0  0  0  0  0  0  0
    3.4672   14.3856    5.1274 C   0  0  2  0  0  0  0  0  0  0  0  0
    0.8152   13.5294   12.8646 C   0  0  2  0  0  0  0  0  0  0  0  0
    0.0203   12.3461   13.1763 N   0  0  0  0  0  0  0  0  0  0  0  0
    3.1200   10.9695    8.0927 C   0  0  0  0  0  0  0  0  0  0  0  0
    3.7326   15.8772    4.7487 C   0  0  2  0  0  0  0  0  0  0  0  0
    4.6591   16.4119    5.6697 O   0  0  0  0  0  0  0  0  0  0  0  0
   -0.1209   14.7537   12.5127 C   0  0  0  0  0  0  0  0  0  0  0  0
    2.5483   11.3947    9.4970 C   0  0  2  0  0  0  0  0  0  0  0  0
    2.0351   10.1961   10.1821 N   0  0  0  0  0  0  0  0  0  0  0  0
    2.3524   16.6332    4.8331 C   0  0  1  0  0  0  0  0  0  0  0  0
    2.5474   18.0825    4.4974 N   0  0  0  0  0  0  0  0  0  0  0  0
    0.6278   15.8573   11.6518 C   0  0  0  0  0  0  0  0  0  0  0  0
    1.3815   12.4609    9.3036 C   0  0  2  0  0  0  0  0  0  0  0  0
    1.3419   15.9576    3.7463 C   0  0  1  0  0  0  0  0  0  0  0  0
    1.8527   16.0196    2.4255 O   0  0  0  0  0  0  0  0  0  0  0  0
    1.8594   15.6209   11.1272 C   0  0  2  0  0  0  0  0  0  0  0  0
    2.5500   14.3803   11.3152 O   0  0  0  0  0  0  0  0  0  0  0  0
    1.9469   13.7298    8.5646 C   0  0  2  0  0  0  0  0  0  0  0  0
    0.8806   14.6865    8.3846 O   0  0  0  0  0  0  0  0  0  0  0  0
    1.1315   14.4459    4.0843 C   0  0  0  0  0  0  0  0  0  0  0  0
    2.4717   13.7640    4.1659 O   0  0  0  0  0  0  0  0  0  0  0  0
    2.6214   16.6530   10.2938 C   0  0  0  0  0  0  0  0  0  0  0  0
    3.8686   16.9430   10.9681 O   0  0  0  0  0  0  0  0  0  0  0  0
    2.4924   13.2893    7.1561 C   0  0  1  0  0  0  0  0  0  0  0  0
    2.9699   14.4242    6.5045 O   0  0  0  0  0  0  0  0  0  0  0  0
   -0.0725   16.5838    3.6930 C   0  0  0  0  0  0  0  0  0  0  0  0
    2.7186   19.0086    5.6354 C   0  0  0  0  0  0  0  0  0  0  0  0
  1  2  1  6  0  0  0
  1  6  1  0  0  0  0
  1 21  1  0  0  0  0
  3  4  1  6  0  0  0
  3  8  1  0  0  0  0
  3 28  1  0  0  0  0
  5  9  1  0  0  0  0
  5 25  1  0  0  0  0
  5 29  1  1  0  0  0
  6  7  1  6  0  0  0
  6 11  1  0  0  0  0
  8 12  1  0  0  0  0
  9 10  1  1  0  0  0
  9 14  1  0  0  0  0
 11 16  1  0  0  0  0
 12 13  1  6  0  0  0
 12 17  1  0  0  0  0
 14 15  1  6  0  0  0
 14 18  1  0  0  0  0
 15 31  1  0  0  0  0
 16 20  1  0  0  0  0
 17  2  1  1  0  0  0
 17 22  1  0  0  0  0
 18 19  1  6  0  0  0
 18 24  1  0  0  0  0
 18 30  1  0  0  0  0
 20 21  1  0  0  0  0
 20 26  1  1  0  0  0
 22 23  1  6  0  0  0
 22 28  1  0  0  0  0
 24 25  1  0  0  0  0
 26 27  1  0  0  0  0
 28 29  1  1  0  0  0
M  END
>  <CHROM.1>
179.63855238,173.44506653,-96.08159239,48.29825018,119.86719097,65.56164954
2.14842610,14.51048173,7.90844675,2.38112220,-1.39184900,2.71722436

>  <Name>
ligand

>  <RI>
0

>  <Rbt.Current_Directory>
/home/itssahil/PROJECTS/Mol_Feturizer/New_Systems/rnas/4GPX

>  <Rbt.Executable>
rbdock ($Id: //depot/dev/client3/rdock/2013.1/src/exe/rbdock.cxx#4 $)

>  <Rbt.Library>
libRbt.so (2013.1, Build901 2013/11/27)

>  <Rbt.Parameter_File>
/export/apps/rDock/src/rDock_2013.1_src/data/scripts/dock_solv.prm

>  <Rbt.Receptor>
prm/pocket_docking_8.prm

>  <SCORE>
-10.467

>  <SCORE.INTER>
-2.33819

>  <SCORE.INTER.CONST>
1

>  <SCORE.INTER.POLAR>
0

>  <SCORE.INTER.ROT>
6

>  <SCORE.INTER.SOLV>
9.96146

>  <SCORE.INTER.VDW>
-12.4793

>  <SCORE.INTER.norm>
-0.0754256

>  <SCORE.INTRA>
-8.12881

>  <SCORE.INTRA.DIHEDRAL>
-17.1858

>  <SCORE.INTRA.DIHEDRAL.0>
20.6841

>  <SCORE.INTRA.POLAR>
0

>  <SCORE.INTRA.POLAR.0>
0

>  <SCORE.INTRA.REPUL>
0

>  <SCORE.INTRA.REPUL.0>
0

>  <SCORE.INTRA.SOLV>
-0.499733

>  <SCORE.INTRA.SOLV.lig_0>
-64.6797

>  <SCORE.INTRA.VDW>
0.713962

>  <SCORE.INTRA.VDW.0>
-4.11825

>  <SCORE.INTRA.norm>
-0.26222

>  <SCORE.RESTR>
0

>  <SCORE.RESTR.CAVITY>
0

>  <SCORE.RESTR.norm>
0

>  <SCORE.SYSTEM>
0

>  <SCORE.SYSTEM.CONST>
0

>  <SCORE.SYSTEM.DIHEDRAL>
0

>  <SCORE.SYSTEM.SOLV>
0

>  <SCORE.SYSTEM.norm>
0

>  <SCORE.heavy>
31

>  <SCORE.norm>
-0.337645

>  <RMSD>
8.855

$$$$
ligand
 OpenBabel11021811493D
libRbt.so/2013.1/901 2013/11/27
 31 33  0  0  0  0  0  0  0  0999 V2000
  -10.5650   12.9004    0.3617 C   0  0  2  0  0  0  0  0  0  0  0  0
  -11.1184   14.1454    0.7776 O   0  0  0  0  0  0  0  0  0  0  0  0
   -7.8108   16.5928    1.8517 C   0  0  2  0  0  0  0  0  0  0  0  0
   -7.0516   17.6234    2.4906 N   0  0  0  0  0  0  0  0  0  0  0  0
   -6.0380   14.7970    3.0605 C   0  0  2  0  0  0  0  0  0  0  0  0
  -11.5667   12.2957   -0.7045 C   0  0  2  0  0  0  0  0  0  0  0  0
  -11.6927   13.2343   -1.8147 N   0  0  0  0  0  0  0  0  0  0  0  0
   -8.9953   17.2710    1.0475 C   0  0  0  0  0  0  0  0  0  0  0  0
   -5.3658   13.7271    3.9782 C   0  0  2  0  0  0  0  0  0  0  0  0
   -6.1897   12.5811    4.0026 O   0  0  0  0  0  0  0  0  0  0  0  0
  -12.9759   12.0220   -0.0425 C   0  0  0  0  0  0  0  0  0  0  0  0
   -9.8348   16.1392    0.3449 C   0  0  2  0  0  0  0  0  0  0  0  0
  -10.9414   16.7636   -0.4002 N   0  0  0  0  0  0  0  0  0  0  0  0
   -5.2363   14.3599    5.4158 C   0  0  1  0  0  0  0  0  0  0  0  0
   -4.6122   13.3672    6.3518 N   0  0  0  0  0  0  0  0  0  0  0  0
  -12.8490   11.4905    1.4479 C   0  0  0  0  0  0  0  0  0  0  0  0
  -10.4059   15.1333    1.4394 C   0  0  2  0  0  0  0  0  0  0  0  0
   -4.2768   15.6733    5.3022 C   0  0  1  0  0  0  0  0  0  0  0  0
   -2.9931   15.3592    4.7894 O   0  0  0  0  0  0  0  0  0  0  0  0
  -11.6538   11.4976    2.0953 C   0  0  2  0  0  0  0  0  0  0  0  0
  -10.4507   11.9771    1.4836 O   0  0  0  0  0  0  0  0  0  0  0  0
   -9.2104   14.4824    2.2288 C   0  0  2  0  0  0  0  0  0  0  0  0
   -9.7374   13.5800    3.2251 O   0  0  0  0  0  0  0  0  0  0  0  0
   -4.9155   16.7156    4.3278 C   0  0  0  0  0  0  0  0  0  0  0  0
   -5.1902   16.0539    3.0032 O   0  0  0  0  0  0  0  0  0  0  0  0
  -11.4808   10.9939    3.5295 C   0  0  0  0  0  0  0  0  0  0  0  0
  -11.5254   12.1369    4.4159 O   0  0  0  0  0  0  0  0  0  0  0  0
   -8.3975   15.6255    2.9415 C   0  0  1  0  0  0  0  0  0  0  0  0
   -7.3561   15.0344    3.6533 O   0  0  0  0  0  0  0  0  0  0  0  0
   -4.0385   16.4246    6.6343 C   0  0  0  0  0  0  0  0  0  0  0  0
   -5.4138   12.9712    7.5277 C   0  0  0  0  0  0  0  0  0  0  0  0
  1  2  1  1  0  0  0
  1  6  1  0  0  0  0
  1 21  1  0  0  0  0
  3  4  1  1  0  0  0
  3  8  1  0  0  0  0
  3 28  1  0  0  0  0
  5  9  1  0  0  0  0
  5 25  1  0  0  0  0
  5 29  1  1  0  0  0
  6  7  1  6  0  0  0
  6 11  1  0  0  0  0
  8 12  1  0  0  0  0
  9 10  1  1  0  0  0
  9 14  1  0  0  0  0
 11 16  1  0  0  0  0
 12 13  1  1  0  0  0
 12 17  1  0  0  0  0
 14 15  1  1  0  0  0
 14 18  1  0  0  0  0
 15 31  1  0  0  0  0
 16 20  1  0  0  0  0
 17  2  1  6  0  0  0
 17 22  1  0  0  0  0
 18 19  1  6  0  0  0
 18 24  1  0  0  0  0
 18 30  1  0  0  0  0
 20 21  1  0  0  0  0
 20 26  1  6  0  0  0
 22 23  1  1  0  0  0
 22 28  1  0  0  0  0
 24 25  1  0  0  0  0
 26 27  1  0  0  0  0
 28 29  1  6  0  0  0
M  END
>  <CHROM.1>
-163.24384444,-161.44801106,-120.14382305,92.89212994,-97.18528640,-28.83311786
-8.36543775,14.26836425,2.77454749,3.02079456,-0.61480120,-0.66410307

>  <Name>
ligand

>  <RI>
0

>  <Rbt.Current_Directory>
/home/itssahil/PROJECTS/Mol_Feturizer/New_Systems/rnas/4GPX

>  <Rbt.Executable>
rbdock ($Id: //depot/dev/client3/rdock/2013.1/src/exe/rbdock.cxx#4 $)

>  <Rbt.Library>
libRbt.so (2013.1, Build901 2013/11/27)

>  <Rbt.Parameter_File>
/export/apps/rDock/src/rDock_2013.1_src/data/scripts/dock_solv.prm

>  <Rbt.Receptor>
prm/blind_docking_60.prm

>  <SCORE>
11.0206

>  <SCORE.INTER>
1.06877

>  <SCORE.INTER.CONST>
1

>  <SCORE.INTER.POLAR>
0

>  <SCORE.INTER.ROT>
6

>  <SCORE.INTER.SOLV>
23.2391

>  <SCORE.INTER.VDW>
-14.6339

>  <SCORE.INTER.norm>
0.0344766

>  <SCORE.INTRA>
1.48274

>  <SCORE.INTRA.DIHEDRAL>
-6.36505

>  <SCORE.INTRA.DIHEDRAL.0>
20.6841

>  <SCORE.INTRA.POLAR>
0

>  <SCORE.INTRA.POLAR.0>
0

>  <SCORE.INTRA.REPUL>
0

>  <SCORE.INTRA.REPUL.0>
0

>  <SCORE.INTRA.SOLV>
1.51787

>  <SCORE.INTRA.SOLV.lig_0>
-64.6797

>  <SCORE.INTRA.VDW>
3.90633

>  <SCORE.INTRA.VDW.0>
-4.11825

>  <SCORE.INTRA.norm>
0.0478302

>  <SCORE.RESTR>
8.46904

>  <SCORE.RESTR.CAVITY>
8.46904

>  <SCORE.RESTR.norm>
0.273195

>  <SCORE.SYSTEM>
0

>  <SCORE.SYSTEM.CONST>
0

>  <SCORE.SYSTEM.DIHEDRAL>
0

>  <SCORE.SYSTEM.SOLV>
0

>  <SCORE.SYSTEM.norm>
0

>  <SCORE.heavy>
31

>  <SCORE.norm>
0.355502

>  <RMSD>
8.898

$$$$
ligand
 OpenBabel11021811493D
libRbt.so/2013.1/901 2013/11/27
 31 33  0  0  0  0  0  0  0  0999 V2000
    2.2634   13.3458    7.8552 C   0  0  2  0  0  0  0  0  0  0  0  0
    2.7686   13.8634    6.6279 O   0  0  0  0  0  0  0  0  0  0  0  0
    1.0587   16.2219    3.5299 C   0  0  2  0  0  0  0  0  0  0  0  0
    0.2844   16.5751    2.3798 N   0  0  0  0  0  0  0  0  0  0  0  0
   -1.8857   17.0989    4.1278 C   0  0  2  0  0  0  0  0  0  0  0  0
    3.5018   13.2147    8.8325 C   0  0  2  0  0  0  0  0  0  0  0  0
    4.1056   14.5320    9.0038 N   0  0  0  0  0  0  0  0  0  0  0  0
    2.0899   15.0947    3.1104 C   0  0  0  0  0  0  0  0  0  0  0  0
   -2.6925   18.1510    4.9529 C   0  0  2  0  0  0  0  0  0  0  0  0
   -1.8144   19.1910    5.3272 O   0  0  0  0  0  0  0  0  0  0  0  0
    4.5552   12.1891    8.2516 C   0  0  0  0  0  0  0  0  0  0  0  0
    2.9423   14.7015    4.3746 C   0  0  2  0  0  0  0  0  0  0  0  0
    3.8996   13.6495    3.9919 N   0  0  0  0  0  0  0  0  0  0  0  0
   -3.2643   17.4110    6.2215 C   0  0  1  0  0  0  0  0  0  0  0  0
   -4.0364   18.3798    7.0678 N   0  0  0  0  0  0  0  0  0  0  0  0
    3.8623   10.9529    7.5365 C   0  0  0  0  0  0  0  0  0  0  0  0
    1.9812   14.1776    5.5312 C   0  0  2  0  0  0  0  0  0  0  0  0
   -4.2617   16.2285    5.7065 C   0  0  1  0  0  0  0  0  0  0  0  0
   -5.3243   16.7285    4.9126 O   0  0  0  0  0  0  0  0  0  0  0  0
    2.5249   10.9426    7.2940 C   0  0  2  0  0  0  0  0  0  0  0  0
    1.6681   12.0295    7.6631 O   0  0  0  0  0  0  0  0  0  0  0  0
    0.9624   15.3117    5.9210 C   0  0  2  0  0  0  0  0  0  0  0  0
    0.0889   14.8250    6.9625 O   0  0  0  0  0  0  0  0  0  0  0  0
   -3.4691   15.2124    4.8215 C   0  0  0  0  0  0  0  0  0  0  0  0
   -2.7870   15.9547    3.7028 O   0  0  0  0  0  0  0  0  0  0  0  0
    1.8116    9.7743    6.6108 C   0  0  0  0  0  0  0  0  0  0  0  0
    0.8933    9.1890    7.5639 O   0  0  0  0  0  0  0  0  0  0  0  0
    0.1055   15.6750    4.6524 C   0  0  1  0  0  0  0  0  0  0  0  0
   -0.8058   16.6638    5.0164 O   0  0  0  0  0  0  0  0  0  0  0  0
   -4.9185   15.3927    6.8316 C   0  0  0  0  0  0  0  0  0  0  0  0
   -3.2602   19.1703    8.0450 C   0  0  0  0  0  0  0  0  0  0  0  0
  1  2  1  6  0  0  0
  1  6  1  0  0  0  0
  1 21  1  0  0  0  0
  3  4  1  6  0  0  0
  3  8  1  0  0  0  0
  3 28  1  0  0  0  0
  5  9  1  0  0  0  0
  5 25  1  0  0  0  0
  5 29  1  1  0  0  0
  6  7  1  6  0  0  0
  6 11  1  0  0  0  0
  8 12  1  0  0  0  0
  9 10  1  1  0  0  0
  9 14  1  0  0  0  0
 11 16  1  0  0  0  0
 12 13  1  6  0  0  0
 12 17  1  0  0  0  0
 14 15  1  1  0  0  0
 14 18  1  0  0  0  0
 15 31  1  0  0  0  0
 16 20  1  0  0  0  0
 17  2  1  1  0  0  0
 17 22  1  0  0  0  0
 18 19  1  6  0  0  0
 18 24  1  0  0  0  0
 18 30  1  0  0  0  0
 20 21  1  0  0  0  0
 20 26  1  1  0  0  0
 22 23  1  1  0  0  0
 22 28  1  0  0  0  0
 24 25  1  0  0  0  0
 26 27  1  0  0  0  0
 28 29  1  1  0  0  0
M  END
>  <CHROM.1>
-177.02263073,177.24533796,-85.85697598,-179.23026248,115.30729897,70.20358935
0.05043757,14.89423465,5.96300701,0.64437097,-0.35191117,2.39544597

>  <Name>
ligand

>  <RI>
0

>  <Rbt.Current_Directory>
/home/itssahil/PROJECTS/Mol_Feturizer/New_Systems/rnas/4GPX

>  <Rbt.Executable>
rbdock ($Id: //depot/dev/client3/rdock/2013.1/src/exe/rbdock.cxx#4 $)

>  <Rbt.Library>
libRbt.so (2013.1, Build901 2013/11/27)

>  <Rbt.Parameter_File>
/export/apps/rDock/src/rDock_2013.1_src/data/scripts/dock_solv.prm

>  <Rbt.Receptor>
prm/pocket_docking_7.prm

>  <SCORE>
-15.9601

>  <SCORE.INTER>
-7.29181

>  <SCORE.INTER.CONST>
1

>  <SCORE.INTER.POLAR>
0

>  <SCORE.INTER.ROT>
6

>  <SCORE.INTER.SOLV>
14.866

>  <SCORE.INTER.VDW>
-17.4165

>  <SCORE.INTER.norm>
-0.23522

>  <SCORE.INTRA>
-8.66831

>  <SCORE.INTRA.DIHEDRAL>
-17.9044

>  <SCORE.INTRA.DIHEDRAL.0>
20.6841

>  <SCORE.INTRA.POLAR>
0

>  <SCORE.INTRA.POLAR.0>
0

>  <SCORE.INTRA.REPUL>
0

>  <SCORE.INTRA.REPUL.0>
0

>  <SCORE.INTRA.SOLV>
-1.93809

>  <SCORE.INTRA.SOLV.lig_0>
-64.6797

>  <SCORE.INTRA.VDW>
1.25294

>  <SCORE.INTRA.VDW.0>
-4.11825

>  <SCORE.INTRA.norm>
-0.279623

>  <SCORE.RESTR>
0

>  <SCORE.RESTR.CAVITY>
0

>  <SCORE.RESTR.norm>
0

>  <SCORE.SYSTEM>
0

>  <SCORE.SYSTEM.CONST>
0

>  <SCORE.SYSTEM.DIHEDRAL>
0

>  <SCORE.SYSTEM.SOLV>
0

>  <SCORE.SYSTEM.norm>
0

>  <SCORE.heavy>
31

>  <SCORE.norm>
-0.514842

>  <RMSD>
8.955

$$$$
ligand
 OpenBabel11021811493D
libRbt.so/2013.1/901 2013/11/27
 31 33  0  0  0  0  0  0  0  0999 V2000
    2.3727   13.4604    7.8282 C   0  0  2  0  0  0  0  0  0  0  0  0
    2.8455   14.0074    6.6009 O   0  0  0  0  0  0  0  0  0  0  0  0
    1.0260   16.2997    3.5157 C   0  0  2  0  0  0  0  0  0  0  0  0
    0.2289   16.6240    2.3727 N   0  0  0  0  0  0  0  0  0  0  0  0
   -1.9266   17.0946    4.1315 C   0  0  2  0  0  0  0  0  0  0  0  0
    3.6287   13.3494    8.7854 C   0  0  2  0  0  0  0  0  0  0  0  0
    4.1999   14.6799    8.9658 N   0  0  0  0  0  0  0  0  0  0  0  0
    2.0909   15.2075    3.0880 C   0  0  0  0  0  0  0  0  0  0  0  0
   -2.7480   18.1378    4.9535 C   0  0  2  0  0  0  0  0  0  0  0  0
   -1.8857   19.1934    5.3206 O   0  0  0  0  0  0  0  0  0  0  0  0
    4.7000   12.3600    8.1752 C   0  0  0  0  0  0  0  0  0  0  0  0
    2.9685   14.8463    4.3445 C   0  0  2  0  0  0  0  0  0  0  0  0
    3.9573   13.8267    3.9542 N   0  0  0  0  0  0  0  0  0  0  0  0
   -3.3051   17.3951    6.2270 C   0  0  1  0  0  0  0  0  0  0  0  0
   -4.0905   18.3556    7.0705 N   0  0  0  0  0  0  0  0  0  0  0  0
    4.0294   11.1154    7.4536 C   0  0  0  0  0  0  0  0  0  0  0  0
    2.0372   14.2924    5.5113 C   0  0  2  0  0  0  0  0  0  0  0  0
   -4.2849   16.1944    5.7201 C   0  0  1  0  0  0  0  0  0  0  0  0
   -5.3571   16.6737    4.9263 O   0  0  0  0  0  0  0  0  0  0  0  0
    2.6892   11.0727    7.2306 C   0  0  2  0  0  0  0  0  0  0  0  0
    1.8096   12.1314    7.6269 O   0  0  0  0  0  0  0  0  0  0  0  0
    0.9841   15.3919    5.9092 C   0  0  2  0  0  0  0  0  0  0  0  0
    0.1381   14.8779    6.9601 O   0  0  0  0  0  0  0  0  0  0  0  0
   -3.4783   15.1867    4.8382 C   0  0  0  0  0  0  0  0  0  0  0  0
   -2.8106   15.9343    3.7143 O   0  0  0  0  0  0  0  0  0  0  0  0
    1.9968    9.8949    6.5421 C   0  0  0  0  0  0  0  0  0  0  0  0
    1.0780    9.2983    7.4877 O   0  0  0  0  0  0  0  0  0  0  0  0
    0.1030   15.7230    4.6485 C   0  0  1  0  0  0  0  0  0  0  0  0
   -0.8379   16.6810    5.0196 O   0  0  0  0  0  0  0  0  0  0  0  0
   -4.9258   15.3539    6.8508 C   0  0  0  0  0  0  0  0  0  0  0  0
   -3.3367   19.1061    8.0955 C   0  0  0  0  0  0  0  0  0  0  0  0
  1  2  1  6  0  0  0
  1  6  1  0  0  0  0
  1 21  1  0  0  0  0
  3  4  1  6  0  0  0
  3  8  1  0  0  0  0
  3 28  1  0  0  0  0
  5  9  1  0  0  0  0
  5 25  1  0  0  0  0
  5 29  1  1  0  0  0
  6  7  1  6  0  0  0
  6 11  1  0  0  0  0
  8 12  1  0  0  0  0
  9 10  1  1  0  0  0
  9 14  1  0  0  0  0
 11 16  1  0  0  0  0
 12 13  1  6  0  0  0
 12 17  1  0  0  0  0
 14 15  1  1  0  0  0
 14 18  1  0  0  0  0
 15 31  1  0  0  0  0
 16 20  1  0  0  0  0
 17  2  1  1  0  0  0
 17 22  1  0  0  0  0
 18 19  1  6  0  0  0
 18 24  1  0  0  0  0
 18 30  1  0  0  0  0
 20 21  1  0  0  0  0
 20 26  1  1  0  0  0
 22 23  1  1  0  0  0
 22 28  1  0  0  0  0
 24 25  1  0  0  0  0
 26 27  1  0  0  0  0
 28 29  1  1  0  0  0
M  END
>  <CHROM.1>
-178.25386601,178.48104300,-89.28908941,-178.43457861,117.05271552,69.07790935
0.08438860,14.95506059,5.94522125,0.61243656,-0.33989849,2.38460020

>  <Name>
ligand

>  <RI>
0

>  <Rbt.Current_Directory>
/home/itssahil/PROJECTS/Mol_Feturizer/New_Systems/rnas/4GPX

>  <Rbt.Executable>
rbdock ($Id: //depot/dev/client3/rdock/2013.1/src/exe/rbdock.cxx#4 $)

>  <Rbt.Library>
libRbt.so (2013.1, Build901 2013/11/27)

>  <Rbt.Parameter_File>
/export/apps/rDock/src/rDock_2013.1_src/data/scripts/dock_solv.prm

>  <Rbt.Receptor>
prm/pocket_docking_8.prm

>  <SCORE>
-15.9458

>  <SCORE.INTER>
-7.18275

>  <SCORE.INTER.CONST>
1

>  <SCORE.INTER.POLAR>
0

>  <SCORE.INTER.ROT>
6

>  <SCORE.INTER.SOLV>
14.9068

>  <SCORE.INTER.VDW>
-17.3574

>  <SCORE.INTER.norm>
-0.231701

>  <SCORE.INTRA>
-8.76306

>  <SCORE.INTRA.DIHEDRAL>
-17.9633

>  <SCORE.INTRA.DIHEDRAL.0>
20.6841

>  <SCORE.INTRA.POLAR>
0

>  <SCORE.INTRA.POLAR.0>
0

>  <SCORE.INTRA.REPUL>
0

>  <SCORE.INTRA.REPUL.0>
0

>  <SCORE.INTRA.SOLV>
-1.89766

>  <SCORE.INTRA.SOLV.lig_0>
-64.6797

>  <SCORE.INTRA.VDW>
1.1674

>  <SCORE.INTRA.VDW.0>
-4.11825

>  <SCORE.INTRA.norm>
-0.282679

>  <SCORE.RESTR>
0

>  <SCORE.RESTR.CAVITY>
0

>  <SCORE.RESTR.norm>
0

>  <SCORE.SYSTEM>
0

>  <SCORE.SYSTEM.CONST>
0

>  <SCORE.SYSTEM.DIHEDRAL>
0

>  <SCORE.SYSTEM.SOLV>
0

>  <SCORE.SYSTEM.norm>
0

>  <SCORE.heavy>
31

>  <SCORE.norm>
-0.514381

>  <RMSD>
8.987

$$$$
ligand
 OpenBabel11021811493D
libRbt.so/2013.1/901 2013/11/27
 31 33  0  0  0  0  0  0  0  0999 V2000
  -10.6213   12.9952    0.2107 C   0  0  2  0  0  0  0  0  0  0  0  0
  -11.0600   14.3373    0.3988 O   0  0  0  0  0  0  0  0  0  0  0  0
   -7.7495   16.5915    1.8282 C   0  0  2  0  0  0  0  0  0  0  0  0
   -7.0049   17.5824    2.5427 N   0  0  0  0  0  0  0  0  0  0  0  0
   -6.3719   14.4256    3.1691 C   0  0  2  0  0  0  0  0  0  0  0  0
  -11.5112   12.3888   -0.9497 C   0  0  2  0  0  0  0  0  0  0  0  0
  -11.3280   13.1958   -2.1516 N   0  0  0  0  0  0  0  0  0  0  0  0
   -8.7896   17.3299    0.8886 C   0  0  0  0  0  0  0  0  0  0  0  0
   -5.8494   13.5238    4.3321 C   0  0  2  0  0  0  0  0  0  0  0  0
   -6.8535   12.5849    4.6525 O   0  0  0  0  0  0  0  0  0  0  0  0
  -13.0325   12.3637   -0.5207 C   0  0  0  0  0  0  0  0  0  0  0  0
   -9.6128   16.2420    0.1023 C   0  0  2  0  0  0  0  0  0  0  0  0
  -10.5858   16.9227   -0.7693 N   0  0  0  0  0  0  0  0  0  0  0  0
   -5.5486   14.4689    5.5569 C   0  0  1  0  0  0  0  0  0  0  0  0
   -5.0595   13.6536    6.7176 N   0  0  0  0  0  0  0  0  0  0  0  0
  -13.2205   12.0035    1.0137 C   0  0  0  0  0  0  0  0  0  0  0  0
  -10.3671   15.2888    1.1311 C   0  0  2  0  0  0  0  0  0  0  0  0
   -4.3866   15.5204    5.1070 C   0  0  1  0  0  0  0  0  0  0  0  0
   -3.1996   14.8658    4.6923 O   0  0  0  0  0  0  0  0  0  0  0  0
  -12.1554   11.9478    1.8564 C   0  0  2  0  0  0  0  0  0  0  0  0
  -10.8157   12.2061    1.4204 O   0  0  0  0  0  0  0  0  0  0  0  0
   -9.3127   14.5768    2.0570 C   0  0  2  0  0  0  0  0  0  0  0  0
  -10.0055   13.7228    2.9926 O   0  0  0  0  0  0  0  0  0  0  0  0
   -4.8834   16.3757    3.8964 C   0  0  0  0  0  0  0  0  0  0  0  0
   -5.3268   15.4574    2.7882 O   0  0  0  0  0  0  0  0  0  0  0  0
  -12.2856   11.6029    3.3412 C   0  0  0  0  0  0  0  0  0  0  0  0
  -11.0348   11.0213    3.7789 O   0  0  0  0  0  0  0  0  0  0  0  0
   -8.5163   15.6777    2.8502 C   0  0  1  0  0  0  0  0  0  0  0  0
   -7.6020   15.0338    3.6810 O   0  0  0  0  0  0  0  0  0  0  0  0
   -3.9636   16.5322    6.1992 C   0  0  0  0  0  0  0  0  0  0  0  0
   -6.0101   13.4476    7.8294 C   0  0  0  0  0  0  0  0  0  0  0  0
  1  2  1  1  0  0  0
  1  6  1  0  0  0  0
  1 21  1  0  0  0  0
  3  4  1  1  0  0  0
  3  8  1  0  0  0  0
  3 28  1  0  0  0  0
  5  9  1  0  0  0  0
  5 25  1  0  0  0  0
  5 29  1  1  0  0  0
  6  7  1  6  0  0  0
  6 11  1  0  0  0  0
  8 12  1  0  0  0  0
  9 10  1  1  0  0  0
  9 14  1  0  0  0  0
 11 16  1  0  0  0  0
 12 13  1  6  0  0  0
 12 17  1  0  0  0  0
 14 15  1  1  0  0  0
 14 18  1  0  0  0  0
 15 31  1  0  0  0  0
 16 20  1  0  0  0  0
 17  2  1  6  0  0  0
 17 22  1  0  0  0  0
 18 19  1  6  0  0  0
 18 24  1  0  0  0  0
 18 30  1  0  0  0  0
 20 21  1  0  0  0  0
 20 26  1  6  0  0  0
 22 23  1  1  0  0  0
 22 28  1  0  0  0  0
 24 25  1  0  0  0  0
 26 27  1  0  0  0  0
 28 29  1  1  0  0  0
M  END
>  <CHROM.1>
-166.59316264,-165.91019115,-105.66619883,101.75861420,153.25899011,-43.65084789
-8.50187948,14.29098471,2.64131324,2.91237295,-0.62155440,-0.76894224

>  <Name>
ligand

>  <RI>
0

>  <Rbt.Current_Directory>
/home/itssahil/PROJECTS/Mol_Feturizer/New_Systems/rnas/4GPX

>  <Rbt.Executable>
rbdock ($Id: //depot/dev/client3/rdock/2013.1/src/exe/rbdock.cxx#4 $)

>  <Rbt.Library>
libRbt.so (2013.1, Build901 2013/11/27)

>  <Rbt.Parameter_File>
/export/apps/rDock/src/rDock_2013.1_src/data/scripts/dock_solv.prm

>  <Rbt.Receptor>
prm/blind_docking_60.prm

>  <SCORE>
12.6852

>  <SCORE.INTER>
3.04852

>  <SCORE.INTER.CONST>
1

>  <SCORE.INTER.POLAR>
0

>  <SCORE.INTER.ROT>
6

>  <SCORE.INTER.SOLV>
25.1697

>  <SCORE.INTER.VDW>
-13.9576

>  <SCORE.INTER.norm>
0.0983394

>  <SCORE.INTRA>
1.31731

>  <SCORE.INTRA.DIHEDRAL>
-8.13066

>  <SCORE.INTRA.DIHEDRAL.0>
20.6841

>  <SCORE.INTRA.POLAR>
0

>  <SCORE.INTRA.POLAR.0>
0

>  <SCORE.INTRA.REPUL>
0

>  <SCORE.INTRA.REPUL.0>
0

>  <SCORE.INTRA.SOLV>
1.0483

>  <SCORE.INTRA.SOLV.lig_0>
-64.6797

>  <SCORE.INTRA.VDW>
4.85849

>  <SCORE.INTRA.VDW.0>
-4.11825

>  <SCORE.INTRA.norm>
0.042494

>  <SCORE.RESTR>
8.31935

>  <SCORE.RESTR.CAVITY>
8.31935

>  <SCORE.RESTR.norm>
0.268366

>  <SCORE.SYSTEM>
0

>  <SCORE.SYSTEM.CONST>
0

>  <SCORE.SYSTEM.DIHEDRAL>
0

>  <SCORE.SYSTEM.SOLV>
0

>  <SCORE.SYSTEM.norm>
0

>  <SCORE.heavy>
31

>  <SCORE.norm>
0.409199

>  <RMSD>
8.992

$$$$
ligand
 OpenBabel11021811493D
libRbt.so/2013.1/901 2013/11/27
 31 33  0  0  0  0  0  0  0  0999 V2000
    2.4088   13.7776    8.0702 C   0  0  2  0  0  0  0  0  0  0  0  0
    2.8968   14.2121    6.8044 O   0  0  0  0  0  0  0  0  0  0  0  0
    1.1222   16.2830    3.5415 C   0  0  2  0  0  0  0  0  0  0  0  0
    0.3356   16.5282    2.3719 N   0  0  0  0  0  0  0  0  0  0  0  0
   -1.8177   17.1635    4.0708 C   0  0  2  0  0  0  0  0  0  0  0  0
    3.6671   13.6673    9.0244 C   0  0  2  0  0  0  0  0  0  0  0  0
    4.3088   14.9752    9.1073 N   0  0  0  0  0  0  0  0  0  0  0  0
    2.1766   15.1493    3.2053 C   0  0  0  0  0  0  0  0  0  0  0  0
   -2.6612   18.2396    4.8253 C   0  0  2  0  0  0  0  0  0  0  0  0
   -1.8120   19.3166    5.1593 O   0  0  0  0  0  0  0  0  0  0  0  0
    4.6790   12.5828    8.4779 C   0  0  0  0  0  0  0  0  0  0  0  0
    3.0426   14.8750    4.4915 C   0  0  2  0  0  0  0  0  0  0  0  0
    4.0216   13.8175    4.1866 N   0  0  0  0  0  0  0  0  0  0  0  0
   -3.2408   17.5548    6.1210 C   0  0  1  0  0  0  0  0  0  0  0  0
   -4.0483   18.5496    6.9016 N   0  0  0  0  0  0  0  0  0  0  0  0
    3.9370   11.3280    7.8497 C   0  0  0  0  0  0  0  0  0  0  0  0
    2.0982   14.4223    5.6910 C   0  0  2  0  0  0  0  0  0  0  0  0
   -4.2038   16.3256    5.6519 C   0  0  1  0  0  0  0  0  0  0  0  0
   -5.2618   16.7601    4.8144 O   0  0  0  0  0  0  0  0  0  0  0  0
    2.5941   11.3407    7.6392 C   0  0  2  0  0  0  0  0  0  0  0  0
    1.7751   12.4693    7.9662 O   0  0  0  0  0  0  0  0  0  0  0  0
    1.0559   15.5609    5.9969 C   0  0  2  0  0  0  0  0  0  0  0  0
    0.1978   15.1381    7.0784 O   0  0  0  0  0  0  0  0  0  0  0  0
   -3.3741   15.2820    4.8356 C   0  0  0  0  0  0  0  0  0  0  0  0
   -2.6870   15.9794    3.6913 O   0  0  0  0  0  0  0  0  0  0  0  0
    1.8342   10.1560    7.0394 C   0  0  0  0  0  0  0  0  0  0  0  0
    1.2176   10.5954    5.8061 O   0  0  0  0  0  0  0  0  0  0  0  0
    0.1861   15.8049    4.7088 C   0  0  1  0  0  0  0  0  0  0  0  0
   -0.7455   16.7990    4.9997 O   0  0  0  0  0  0  0  0  0  0  0  0
   -4.8638   15.5358    6.8079 C   0  0  0  0  0  0  0  0  0  0  0  0
   -3.4001   19.1426    8.0892 C   0  0  0  0  0  0  0  0  0  0  0  0
  1  2  1  6  0  0  0
  1  6  1  0  0  0  0
  1 21  1  0  0  0  0
  3  4  1  6  0  0  0
  3  8  1  0  0  0  0
  3 28  1  0  0  0  0
  5  9  1  0  0  0  0
  5 25  1  0  0  0  0
  5 29  1  1  0  0  0
  6  7  1  6  0  0  0
  6 11  1  0  0  0  0
  8 12  1  0  0  0  0
  9 10  1  1  0  0  0
  9 14  1  0  0  0  0
 11 16  1  0  0  0  0
 12 13  1  6  0  0  0
 12 17  1  0  0  0  0
 14 15  1  6  0  0  0
 14 18  1  0  0  0  0
 15 31  1  0  0  0  0
 16 20  1  0  0  0  0
 17  2  1  1  0  0  0
 17 22  1  0  0  0  0
 18 19  1  6  0  0  0
 18 24  1  0  0  0  0
 18 30  1  0  0  0  0
 20 21  1  0  0  0  0
 20 26  1  1  0  0  0
 22 23  1  1  0  0  0
 22 28  1  0  0  0  0
 24 25  1  0  0  0  0
 26 27  1  0  0  0  0
 28 29  1  1  0  0  0
M  END
>  <CHROM.1>
179.62170101,176.70693984,-101.92239212,-179.04129208,-119.00572235,68.57408480
0.13449226,15.13999071,5.97380357,0.50694500,-0.44708823,2.11394960

>  <Name>
ligand

>  <RI>
0

>  <Rbt.Current_Directory>
/home/itssahil/PROJECTS/Mol_Feturizer/New_Systems/rnas/4GPX

>  <Rbt.Executable>
rbdock ($Id: //depot/dev/client3/rdock/2013.1/src/exe/rbdock.cxx#4 $)

>  <Rbt.Library>
libRbt.so (2013.1, Build901 2013/11/27)

>  <Rbt.Parameter_File>
/export/apps/rDock/src/rDock_2013.1_src/data/scripts/dock_solv.prm

>  <Rbt.Receptor>
prm/pocket_docking_8.prm

>  <SCORE>
-15.5896

>  <SCORE.INTER>
-6.76314

>  <SCORE.INTER.CONST>
1

>  <SCORE.INTER.POLAR>
0

>  <SCORE.INTER.ROT>
6

>  <SCORE.INTER.SOLV>
14.5997

>  <SCORE.INTER.VDW>
-16.9753

>  <SCORE.INTER.norm>
-0.218166

>  <SCORE.INTRA>
-8.82647

>  <SCORE.INTRA.DIHEDRAL>
-17.6237

>  <SCORE.INTRA.DIHEDRAL.0>
20.6841

>  <SCORE.INTRA.POLAR>
0

>  <SCORE.INTRA.POLAR.0>
0

>  <SCORE.INTRA.REPUL>
0

>  <SCORE.INTRA.REPUL.0>
0

>  <SCORE.INTRA.SOLV>
-1.73956

>  <SCORE.INTRA.SOLV.lig_0>
-64.6797

>  <SCORE.INTRA.VDW>
0.855157

>  <SCORE.INTRA.VDW.0>
-4.11825

>  <SCORE.INTRA.norm>
-0.284725

>  <SCORE.RESTR>
0

>  <SCORE.RESTR.CAVITY>
0

>  <SCORE.RESTR.norm>
0

>  <SCORE.SYSTEM>
0

>  <SCORE.SYSTEM.CONST>
0

>  <SCORE.SYSTEM.DIHEDRAL>
0

>  <SCORE.SYSTEM.SOLV>
0

>  <SCORE.SYSTEM.norm>
0

>  <SCORE.heavy>
31

>  <SCORE.norm>
-0.502891

>  <RMSD>
9.017

$$$$
ligand
 OpenBabel11021811493D
libRbt.so/2013.1/901 2013/11/27
 31 33  0  0  0  0  0  0  0  0999 V2000
  -12.2505   11.8894    1.5532 C   0  0  2  0  0  0  0  0  0  0  0  0
  -10.9189   12.3843    1.4478 O   0  0  0  0  0  0  0  0  0  0  0  0
   -8.4923   15.8725    1.6163 C   0  0  2  0  0  0  0  0  0  0  0  0
   -8.0801   17.2115    1.9058 N   0  0  0  0  0  0  0  0  0  0  0  0
   -6.3775   14.5193    3.2367 C   0  0  2  0  0  0  0  0  0  0  0  0
  -12.5990   11.8589    3.0971 C   0  0  2  0  0  0  0  0  0  0  0  0
  -12.4759   13.2108    3.6324 N   0  0  0  0  0  0  0  0  0  0  0  0
   -9.8068   15.9345    0.7342 C   0  0  0  0  0  0  0  0  0  0  0  0
   -5.7613   13.7446    4.4445 C   0  0  2  0  0  0  0  0  0  0  0  0
   -6.6831   12.7584    4.8573 O   0  0  0  0  0  0  0  0  0  0  0  0
  -11.6333   10.8666    3.8598 C   0  0  0  0  0  0  0  0  0  0  0  0
  -10.2649   14.4621    0.4157 C   0  0  2  0  0  0  0  0  0  0  0  0
  -11.4904   14.5133   -0.4000 N   0  0  0  0  0  0  0  0  0  0  0  0
   -5.5064   14.7946    5.5918 C   0  0  1  0  0  0  0  0  0  0  0  0
   -4.9303   14.1031    6.7923 N   0  0  0  0  0  0  0  0  0  0  0  0
  -11.3033    9.5702    3.0053 C   0  0  0  0  0  0  0  0  0  0  0  0
  -10.5394   13.6772    1.7737 C   0  0  2  0  0  0  0  0  0  0  0  0
   -4.4388   15.8953    5.0377 C   0  0  1  0  0  0  0  0  0  0  0  0
   -3.2148   15.3034    4.6366 O   0  0  0  0  0  0  0  0  0  0  0  0
  -11.6623    9.4828    1.6971 C   0  0  2  0  0  0  0  0  0  0  0  0
  -12.3511   10.5382    1.0166 O   0  0  0  0  0  0  0  0  0  0  0  0
   -9.2221   13.6392    2.6336 C   0  0  2  0  0  0  0  0  0  0  0  0
   -9.4826   12.9349    3.8667 O   0  0  0  0  0  0  0  0  0  0  0  0
   -5.0269   16.6223    3.7849 C   0  0  0  0  0  0  0  0  0  0  0  0
   -5.4234   15.5966    2.7560 O   0  0  0  0  0  0  0  0  0  0  0  0
  -11.3690    8.2544    0.8337 C   0  0  0  0  0  0  0  0  0  0  0  0
  -10.5322    8.6709   -0.2711 O   0  0  0  0  0  0  0  0  0  0  0  0
   -8.7929   15.1172    2.9604 C   0  0  1  0  0  0  0  0  0  0  0  0
   -7.6388   15.0687    3.7392 O   0  0  0  0  0  0  0  0  0  0  0  0
   -4.0701   17.0114    6.0447 C   0  0  0  0  0  0  0  0  0  0  0  0
   -5.8916   13.4567    7.7089 C   0  0  0  0  0  0  0  0  0  0  0  0
  1  2  1  1  0  0  0
  1  6  1  0  0  0  0
  1 21  1  0  0  0  0
  3  4  1  1  0  0  0
  3  8  1  0  0  0  0
  3 28  1  0  0  0  0
  5  9  1  0  0  0  0
  5 25  1  0  0  0  0
  5 29  1  1  0  0  0
  6  7  1  1  0  0  0
  6 11  1  0  0  0  0
  8 12  1  0  0  0  0
  9 10  1  1  0  0  0
  9 14  1  0  0  0  0
 11 16  1  0  0  0  0
 12 13  1  6  0  0  0
 12 17  1  0  0  0  0
 14 15  1  1  0  0  0
 14 18  1  0  0  0  0
 15 31  1  0  0  0  0
 16 20  1  0  0  0  0
 17  2  1  6  0  0  0
 17 22  1  0  0  0  0
 18 19  1  6  0  0  0
 18 24  1  0  0  0  0
 18 30  1  0  0  0  0
 20 21  1  0  0  0  0
 20 26  1  1  0  0  0
 22 23  1  1  0  0  0
 22 28  1  0  0  0  0
 24 25  1  0  0  0  0
 26 27  1  0  0  0  0
 28 29  1  1  0  0  0
M  END
>  <CHROM.1>
-66.88421145,-141.35076507,-83.41835500,-106.46990171,-119.64524729,-54.86745197
-8.62717400,13.48894249,3.04102515,2.88964957,0.67762964,2.61544282

>  <Name>
ligand

>  <RI>
0

>  <Rbt.Current_Directory>
/home/itssahil/PROJECTS/Mol_Feturizer/New_Systems/rnas/4GPX

>  <Rbt.Executable>
rbdock ($Id: //depot/dev/client3/rdock/2013.1/src/exe/rbdock.cxx#4 $)

>  <Rbt.Library>
libRbt.so (2013.1, Build901 2013/11/27)

>  <Rbt.Parameter_File>
/export/apps/rDock/src/rDock_2013.1_src/data/scripts/dock_solv.prm

>  <Rbt.Receptor>
prm/blind_docking_60.prm

>  <SCORE>
3.83684

>  <SCORE.INTER>
-5.21615

>  <SCORE.INTER.CONST>
1

>  <SCORE.INTER.POLAR>
0

>  <SCORE.INTER.ROT>
6

>  <SCORE.INTER.SOLV>
19.9144

>  <SCORE.INTER.VDW>
-17.7156

>  <SCORE.INTER.norm>
-0.168263

>  <SCORE.INTRA>
-1.06421

>  <SCORE.INTRA.DIHEDRAL>
-6.72745

>  <SCORE.INTRA.DIHEDRAL.0>
20.6841

>  <SCORE.INTRA.POLAR>
0

>  <SCORE.INTRA.POLAR.0>
0

>  <SCORE.INTRA.REPUL>
0

>  <SCORE.INTRA.REPUL.0>
0

>  <SCORE.INTRA.SOLV>
2.12568

>  <SCORE.INTRA.SOLV.lig_0>
-64.6797

>  <SCORE.INTRA.VDW>
1.23667

>  <SCORE.INTRA.VDW.0>
-4.11825

>  <SCORE.INTRA.norm>
-0.0343293

>  <SCORE.RESTR>
10.1172

>  <SCORE.RESTR.CAVITY>
10.1172

>  <SCORE.RESTR.norm>
0.326362

>  <SCORE.SYSTEM>
0

>  <SCORE.SYSTEM.CONST>
0

>  <SCORE.SYSTEM.DIHEDRAL>
0

>  <SCORE.SYSTEM.SOLV>
0

>  <SCORE.SYSTEM.norm>
0

>  <SCORE.heavy>
31

>  <SCORE.norm>
0.123769

>  <RMSD>
9.028

$$$$
ligand
 OpenBabel11021811493D
libRbt.so/2013.1/901 2013/11/27
 31 33  0  0  0  0  0  0  0  0999 V2000
  -12.1973   14.4029   -0.2390 C   0  0  2  0  0  0  0  0  0  0  0  0
  -11.5974   13.1440    0.0519 O   0  0  0  0  0  0  0  0  0  0  0  0
  -11.0261   13.2218    4.2652 C   0  0  2  0  0  0  0  0  0  0  0  0
  -10.8335   12.7591    5.6052 N   0  0  0  0  0  0  0  0  0  0  0  0
   -7.3376   12.9050    3.2735 C   0  0  2  0  0  0  0  0  0  0  0  0
  -12.1123   14.5904   -1.8086 C   0  0  2  0  0  0  0  0  0  0  0  0
  -12.8196   13.4879   -2.4516 N   0  0  0  0  0  0  0  0  0  0  0  0
  -12.3861   12.6193    3.7197 C   0  0  0  0  0  0  0  0  0  0  0  0
   -6.3644   12.8052    4.4906 C   0  0  2  0  0  0  0  0  0  0  0  0
   -6.8669   11.8343    5.3836 O   0  0  0  0  0  0  0  0  0  0  0  0
  -10.6030   14.6339   -2.2768 C   0  0  0  0  0  0  0  0  0  0  0  0
  -12.6001   13.1245    2.2438 C   0  0  2  0  0  0  0  0  0  0  0  0
  -13.8608   12.5630    1.7291 N   0  0  0  0  0  0  0  0  0  0  0  0
   -6.3183   14.2266    5.1697 C   0  0  1  0  0  0  0  0  0  0  0  0
   -5.4101   14.1886    6.3633 N   0  0  0  0  0  0  0  0  0  0  0  0
   -9.6737   15.4040   -1.2458 C   0  0  0  0  0  0  0  0  0  0  0  0
  -11.3785   12.6619    1.3331 C   0  0  2  0  0  0  0  0  0  0  0  0
   -5.7324   15.2864    4.0779 C   0  0  1  0  0  0  0  0  0  0  0  0
   -4.4424   14.9244    3.6150 O   0  0  0  0  0  0  0  0  0  0  0  0
  -10.1378   15.7703   -0.0218 C   0  0  2  0  0  0  0  0  0  0  0  0
  -11.4746   15.4897    0.4093 O   0  0  0  0  0  0  0  0  0  0  0  0
  -10.0414   13.2653    1.9023 C   0  0  2  0  0  0  0  0  0  0  0  0
   -8.9385   12.8329    1.0769 O   0  0  0  0  0  0  0  0  0  0  0  0
   -6.6696   15.3345    2.8276 C   0  0  0  0  0  0  0  0  0  0  0  0
   -6.8420   13.9413    2.2824 O   0  0  0  0  0  0  0  0  0  0  0  0
   -9.2820   16.5157    1.0042 C   0  0  0  0  0  0  0  0  0  0  0  0
   -8.6430   17.6277    0.3337 O   0  0  0  0  0  0  0  0  0  0  0  0
   -9.8334   12.7320    3.3678 C   0  0  1  0  0  0  0  0  0  0  0  0
   -8.6368   13.2561    3.8516 O   0  0  0  0  0  0  0  0  0  0  0  0
   -5.6175   16.7456    4.5814 C   0  0  0  0  0  0  0  0  0  0  0  0
   -5.9666   13.6041    7.6005 C   0  0  0  0  0  0  0  0  0  0  0  0
  1  2  1  6  0  0  0
  1  6  1  0  0  0  0
  1 21  1  0  0  0  0
  3  4  1  1  0  0  0
  3  8  1  0  0  0  0
  3 28  1  0  0  0  0
  5  9  1  0  0  0  0
  5 25  1  0  0  0  0
  5 29  1  1  0  0  0
  6  7  1  6  0  0  0
  6 11  1  0  0  0  0
  8 12  1  0  0  0  0
  9 10  1  1  0  0  0
  9 14  1  0  0  0  0
 11 16  1  0  0  0  0
 12 13  1  6  0  0  0
 12 17  1  0  0  0  0
 14 15  1  1  0  0  0
 14 18  1  0  0  0  0
 15 31  1  0  0  0  0
 16 20  1  0  0  0  0
 17  2  1  6  0  0  0
 17 22  1  0  0  0  0
 18 19  1  6  0  0  0
 18 24  1  0  0  0  0
 18 30  1  0  0  0  0
 20 21  1  0  0  0  0
 20 26  1  6  0  0  0
 22 23  1  6  0  0  0
 22 28  1  0  0  0  0
 24 25  1  0  0  0  0
 26 27  1  0  0  0  0
 28 29  1  1  0  0  0
M  END
>  <CHROM.1>
174.53343380,-141.97503179,-79.15378174,36.16682101,48.35622261,175.89409742
-9.16782248,14.07478083,2.34471155,2.49699012,-0.45231836,-1.03471367

>  <Name>
ligand

>  <RI>
0

>  <Rbt.Current_Directory>
/home/itssahil/PROJECTS/Mol_Feturizer/New_Systems/rnas/4GPX

>  <Rbt.Executable>
rbdock ($Id: //depot/dev/client3/rdock/2013.1/src/exe/rbdock.cxx#4 $)

>  <Rbt.Library>
libRbt.so (2013.1, Build901 2013/11/27)

>  <Rbt.Parameter_File>
/export/apps/rDock/src/rDock_2013.1_src/data/scripts/dock_solv.prm

>  <Rbt.Receptor>
prm/blind_docking_60.prm

>  <SCORE>
44.1074

>  <SCORE.INTER>
39.5713

>  <SCORE.INTER.CONST>
1

>  <SCORE.INTER.POLAR>
0

>  <SCORE.INTER.ROT>
6

>  <SCORE.INTER.SOLV>
29.3393

>  <SCORE.INTER.VDW>
9.0011

>  <SCORE.INTER.norm>
1.27649

>  <SCORE.INTRA>
-3.81342

>  <SCORE.INTRA.DIHEDRAL>
-9.21173

>  <SCORE.INTRA.DIHEDRAL.0>
20.6841

>  <SCORE.INTRA.POLAR>
0

>  <SCORE.INTRA.POLAR.0>
0

>  <SCORE.INTRA.REPUL>
0

>  <SCORE.INTRA.REPUL.0>
0

>  <SCORE.INTRA.SOLV>
-1.68502

>  <SCORE.INTRA.SOLV.lig_0>
-64.6797

>  <SCORE.INTRA.VDW>
1.63495

>  <SCORE.INTRA.VDW.0>
-4.11825

>  <SCORE.INTRA.norm>
-0.123014

>  <SCORE.RESTR>
8.34957

>  <SCORE.RESTR.CAVITY>
8.34957

>  <SCORE.RESTR.norm>
0.269341

>  <SCORE.SYSTEM>
0

>  <SCORE.SYSTEM.CONST>
0

>  <SCORE.SYSTEM.DIHEDRAL>
0

>  <SCORE.SYSTEM.SOLV>
0

>  <SCORE.SYSTEM.norm>
0

>  <SCORE.heavy>
31

>  <SCORE.norm>
1.42282

>  <RMSD>
9.144

$$$$
ligand
 OpenBabel11021811493D
libRbt.so/2013.1/901 2013/11/27
 31 33  0  0  0  0  0  0  0  0999 V2000
  -12.1700   14.4586   -0.2003 C   0  0  2  0  0  0  0  0  0  0  0  0
  -11.5978   13.1846    0.0804 O   0  0  0  0  0  0  0  0  0  0  0  0
  -11.0214   13.2287    4.2935 C   0  0  2  0  0  0  0  0  0  0  0  0
  -10.8294   12.7552    5.6298 N   0  0  0  0  0  0  0  0  0  0  0  0
   -7.3365   12.9122    3.2873 C   0  0  2  0  0  0  0  0  0  0  0  0
  -12.1954   14.6035   -1.7765 C   0  0  2  0  0  0  0  0  0  0  0  0
  -12.9896   13.5142   -2.3349 N   0  0  0  0  0  0  0  0  0  0  0  0
  -12.3847   12.6365    3.7452 C   0  0  0  0  0  0  0  0  0  0  0  0
   -6.3528   12.8122    4.4960 C   0  0  2  0  0  0  0  0  0  0  0  0
   -6.8436   11.8357    5.3895 O   0  0  0  0  0  0  0  0  0  0  0  0
  -10.7248   14.5758   -2.3556 C   0  0  0  0  0  0  0  0  0  0  0  0
  -12.5981   13.1535    2.2732 C   0  0  2  0  0  0  0  0  0  0  0  0
  -13.8619   12.6015    1.7559 N   0  0  0  0  0  0  0  0  0  0  0  0
   -6.3076   14.2314    5.1800 C   0  0  1  0  0  0  0  0  0  0  0  0
   -5.3894   14.1930    6.3660 N   0  0  0  0  0  0  0  0  0  0  0  0
   -9.6929   15.3341   -1.4176 C   0  0  0  0  0  0  0  0  0  0  0  0
  -11.3796   12.6921    1.3577 C   0  0  2  0  0  0  0  0  0  0  0  0
   -5.7355   15.2979    4.0875 C   0  0  1  0  0  0  0  0  0  0  0  0
   -4.4477   14.9435    3.6127 O   0  0  0  0  0  0  0  0  0  0  0  0
  -10.0503   15.7487   -0.1734 C   0  0  2  0  0  0  0  0  0  0  0  0
  -11.3607   15.5319    0.3626 O   0  0  0  0  0  0  0  0  0  0  0  0
  -10.0391   13.2852    1.9298 C   0  0  2  0  0  0  0  0  0  0  0  0
   -8.9392   12.8539    1.1000 O   0  0  0  0  0  0  0  0  0  0  0  0
   -6.6832   15.3463    2.8452 C   0  0  0  0  0  0  0  0  0  0  0  0
   -6.8537   13.9544    2.2961 O   0  0  0  0  0  0  0  0  0  0  0  0
   -9.0929   16.4850    0.7658 C   0  0  0  0  0  0  0  0  0  0  0  0
   -9.1609   17.8978    0.4597 O   0  0  0  0  0  0  0  0  0  0  0  0
   -9.8320   12.7401    3.3911 C   0  0  1  0  0  0  0  0  0  0  0  0
   -8.6324   13.2551    3.8774 O   0  0  0  0  0  0  0  0  0  0  0  0
   -5.6231   16.7556    4.5955 C   0  0  0  0  0  0  0  0  0  0  0  0
   -5.9416   13.6251    7.6129 C   0  0  0  0  0  0  0  0  0  0  0  0
  1  2  1  6  0  0  0
  1  6  1  0  0  0  0
  1 21  1  0  0  0  0
  3  4  1  1  0  0  0
  3  8  1  0  0  0  0
  3 28  1  0  0  0  0
  5  9  1  0  0  0  0
  5 25  1  0  0  0  0
  5 29  1  1  0  0  0
  6  7  1  6  0  0  0
  6 11  1  0  0  0  0
  8 12  1  0  0  0  0
  9 10  1  1  0  0  0
  9 14  1  0  0  0  0
 11 16  1  0  0  0  0
 12 13  1  6  0  0  0
 12 17  1  0  0  0  0
 14 15  1  1  0  0  0
 14 18  1  0  0  0  0
 15 31  1  0  0  0  0
 16 20  1  0  0  0  0
 17  2  1  6  0  0  0
 17 22  1  0  0  0  0
 18 19  1  6  0  0  0
 18 24  1  0  0  0  0
 18 30  1  0  0  0  0
 20 21  1  0  0  0  0
 20 26  1  6  0  0  0
 22 23  1  6  0  0  0
 22 28  1  0  0  0  0
 24 25  1  0  0  0  0
 26 27  1  0  0  0  0
 28 29  1  1  0  0  0
M  END
>  <CHROM.1>
178.77360546,-142.77488230,-80.29584268,37.35526118,86.22821083,176.47559492
-9.18320620,14.09364941,2.34585253,2.49421450,-0.45490958,-1.02259666

>  <Name>
ligand

>  <RI>
0

>  <Rbt.Current_Directory>
/home/itssahil/PROJECTS/Mol_Feturizer/New_Systems/rnas/4GPX

>  <Rbt.Executable>
rbdock ($Id: //depot/dev/client3/rdock/2013.1/src/exe/rbdock.cxx#4 $)

>  <Rbt.Library>
libRbt.so (2013.1, Build901 2013/11/27)

>  <Rbt.Parameter_File>
/export/apps/rDock/src/rDock_2013.1_src/data/scripts/dock_solv.prm

>  <Rbt.Receptor>
prm/blind_docking_60.prm

>  <SCORE>
42.9356

>  <SCORE.INTER>
38.8641

>  <SCORE.INTER.CONST>
1

>  <SCORE.INTER.POLAR>
0

>  <SCORE.INTER.ROT>
6

>  <SCORE.INTER.SOLV>
28.6355

>  <SCORE.INTER.VDW>
8.76425

>  <SCORE.INTER.norm>
1.25368

>  <SCORE.INTRA>
-4.63223

>  <SCORE.INTRA.DIHEDRAL>
-10.2877

>  <SCORE.INTRA.DIHEDRAL.0>
20.6841

>  <SCORE.INTRA.POLAR>
0

>  <SCORE.INTRA.POLAR.0>
0

>  <SCORE.INTRA.REPUL>
0

>  <SCORE.INTRA.REPUL.0>
0

>  <SCORE.INTRA.SOLV>
-1.70096

>  <SCORE.INTRA.SOLV.lig_0>
-64.6797

>  <SCORE.INTRA.VDW>
1.36208

>  <SCORE.INTRA.VDW.0>
-4.11825

>  <SCORE.INTRA.norm>
-0.149427

>  <SCORE.RESTR>
8.70369

>  <SCORE.RESTR.CAVITY>
8.70369

>  <SCORE.RESTR.norm>
0.280764

>  <SCORE.SYSTEM>
0

>  <SCORE.SYSTEM.CONST>
0

>  <SCORE.SYSTEM.DIHEDRAL>
0

>  <SCORE.SYSTEM.SOLV>
0

>  <SCORE.SYSTEM.norm>
0

>  <SCORE.heavy>
31

>  <SCORE.norm>
1.38502

>  <RMSD>
9.152

$$$$
ligand
 OpenBabel11021811493D
libRbt.so/2013.1/901 2013/11/27
 31 33  0  0  0  0  0  0  0  0999 V2000
  -10.4420   13.2284   -0.2847 C   0  0  2  0  0  0  0  0  0  0  0  0
  -11.0740   14.4168    0.1815 O   0  0  0  0  0  0  0  0  0  0  0  0
   -7.9157   16.8273    1.6974 C   0  0  2  0  0  0  0  0  0  0  0  0
   -7.2369   17.8399    2.4463 N   0  0  0  0  0  0  0  0  0  0  0  0
   -6.4022   14.7265    2.9808 C   0  0  2  0  0  0  0  0  0  0  0  0
  -11.2366   12.7721   -1.5755 C   0  0  2  0  0  0  0  0  0  0  0  0
  -11.1798   13.8437   -2.5643 N   0  0  0  0  0  0  0  0  0  0  0  0
   -8.9968   17.5284    0.7758 C   0  0  0  0  0  0  0  0  0  0  0  0
   -5.9327   13.6526    4.0128 C   0  0  2  0  0  0  0  0  0  0  0  0
   -6.9317   12.6598    4.1073 O   0  0  0  0  0  0  0  0  0  0  0  0
  -12.7357   12.4315   -1.2073 C   0  0  0  0  0  0  0  0  0  0  0  0
   -9.7479   16.4164   -0.0482 C   0  0  2  0  0  0  0  0  0  0  0  0
  -10.7586   17.0620   -0.9033 N   0  0  0  0  0  0  0  0  0  0  0  0
   -5.7341   14.3868    5.3931 C   0  0  1  0  0  0  0  0  0  0  0  0
   -5.3000   13.3981    6.4348 N   0  0  0  0  0  0  0  0  0  0  0  0
  -12.8624   11.7160    0.2040 C   0  0  0  0  0  0  0  0  0  0  0  0
  -10.4444   15.3863    0.9465 C   0  0  2  0  0  0  0  0  0  0  0  0
   -4.5722   15.5142    5.2002 C   0  0  1  0  0  0  0  0  0  0  0  0
   -3.3454   14.9536    4.7643 O   0  0  0  0  0  0  0  0  0  0  0  0
  -11.7975   11.6301    1.0445 C   0  0  2  0  0  0  0  0  0  0  0  0
  -10.5126   12.1706    0.7154 O   0  0  0  0  0  0  0  0  0  0  0  0
   -9.3506   14.7129    1.8554 C   0  0  2  0  0  0  0  0  0  0  0  0
   -9.9917   13.7885    2.7605 O   0  0  0  0  0  0  0  0  0  0  0  0
   -5.0119   16.5505    4.1154 C   0  0  0  0  0  0  0  0  0  0  0  0
   -5.3609   15.8215    2.8447 O   0  0  0  0  0  0  0  0  0  0  0  0
  -11.8694   10.9488    2.4124 C   0  0  0  0  0  0  0  0  0  0  0  0
  -11.4933   11.9190    3.4182 O   0  0  0  0  0  0  0  0  0  0  0  0
   -8.6272   15.8359    2.6866 C   0  0  1  0  0  0  0  0  0  0  0  0
   -7.6772   15.2246    3.5018 O   0  0  0  0  0  0  0  0  0  0  0  0
   -4.2449   16.3378    6.4691 C   0  0  0  0  0  0  0  0  0  0  0  0
   -5.9978   13.4571    7.7355 C   0  0  0  0  0  0  0  0  0  0  0  0
  1  2  1  1  0  0  0
  1  6  1  0  0  0  0
  1 21  1  0  0  0  0
  3  4  1  1  0  0  0
  3  8  1  0  0  0  0
  3 28  1  0  0  0  0
  5  9  1  0  0  0  0
  5 25  1  0  0  0  0
  5 29  1  1  0  0  0
  6  7  1  6  0  0  0
  6 11  1  0  0  0  0
  8 12  1  0  0  0  0
  9 10  1  1  0  0  0
  9 14  1  0  0  0  0
 11 16  1  0  0  0  0
 12 13  1  6  0  0  0
 12 17  1  0  0  0  0
 14 15  1  1  0  0  0
 14 18  1  0  0  0  0
 15 31  1  0  0  0  0
 16 20  1  0  0  0  0
 17  2  1  6  0  0  0
 17 22  1  0  0  0  0
 18 19  1  6  0  0  0
 18 24  1  0  0  0  0
 18 30  1  0  0  0  0
 20 21  1  0  0  0  0
 20 26  1  6  0  0  0
 22 23  1  1  0  0  0
 22 28  1  0  0  0  0
 24 25  1  0  0  0  0
 26 27  1  0  0  0  0
 28 29  1  1  0  0  0
M  END
>  <CHROM.1>
-155.20093064,-157.57868511,-133.47662904,87.72596418,-121.94143063,-42.83095863
-8.52675711,14.39938812,2.36770600,2.92070283,-0.69588060,-0.67104086

>  <Name>
ligand

>  <RI>
0

>  <Rbt.Current_Directory>
/home/itssahil/PROJECTS/Mol_Feturizer/New_Systems/rnas/4GPX

>  <Rbt.Executable>
rbdock ($Id: //depot/dev/client3/rdock/2013.1/src/exe/rbdock.cxx#4 $)

>  <Rbt.Library>
libRbt.so (2013.1, Build901 2013/11/27)

>  <Rbt.Parameter_File>
/export/apps/rDock/src/rDock_2013.1_src/data/scripts/dock_solv.prm

>  <Rbt.Receptor>
prm/blind_docking_60.prm

>  <SCORE>
6.8135

>  <SCORE.INTER>
0.0924484

>  <SCORE.INTER.CONST>
1

>  <SCORE.INTER.POLAR>
0

>  <SCORE.INTER.ROT>
6

>  <SCORE.INTER.SOLV>
25.2714

>  <SCORE.INTER.VDW>
-15.9622

>  <SCORE.INTER.norm>
0.00298221

>  <SCORE.INTRA>
-1.36616

>  <SCORE.INTRA.DIHEDRAL>
-8.5661

>  <SCORE.INTRA.DIHEDRAL.0>
20.6841

>  <SCORE.INTRA.POLAR>
0

>  <SCORE.INTRA.POLAR.0>
0

>  <SCORE.INTRA.REPUL>
0

>  <SCORE.INTRA.REPUL.0>
0

>  <SCORE.INTRA.SOLV>
1.68811

>  <SCORE.INTRA.SOLV.lig_0>
-64.6797

>  <SCORE.INTRA.VDW>
2.07284

>  <SCORE.INTRA.VDW.0>
-4.11825

>  <SCORE.INTRA.norm>
-0.0440695

>  <SCORE.RESTR>
8.0872

>  <SCORE.RESTR.CAVITY>
8.0872

>  <SCORE.RESTR.norm>
0.260878

>  <SCORE.SYSTEM>
0

>  <SCORE.SYSTEM.CONST>
0

>  <SCORE.SYSTEM.DIHEDRAL>
0

>  <SCORE.SYSTEM.SOLV>
0

>  <SCORE.SYSTEM.norm>
0

>  <SCORE.heavy>
31

>  <SCORE.norm>
0.21979

>  <RMSD>
9.165

$$$$
ligand
 OpenBabel11021811493D
libRbt.so/2013.1/901 2013/11/27
 31 33  0  0  0  0  0  0  0  0999 V2000
  -12.2369   12.9466    1.2038 C   0  0  2  0  0  0  0  0  0  0  0  0
  -10.8763   13.3634    1.1395 O   0  0  0  0  0  0  0  0  0  0  0  0
   -8.2931   16.7411    1.1888 C   0  0  2  0  0  0  0  0  0  0  0  0
   -7.8228   18.0715    1.4253 N   0  0  0  0  0  0  0  0  0  0  0  0
   -6.2323   15.4592    2.8606 C   0  0  2  0  0  0  0  0  0  0  0  0
  -12.8737   13.6786    2.4546 C   0  0  2  0  0  0  0  0  0  0  0  0
  -12.7537   15.1205    2.2653 N   0  0  0  0  0  0  0  0  0  0  0  0
   -9.5929   16.8241    0.2869 C   0  0  0  0  0  0  0  0  0  0  0  0
   -5.9244   14.2301    3.7733 C   0  0  2  0  0  0  0  0  0  0  0  0
   -6.9990   13.3203    3.6717 O   0  0  0  0  0  0  0  0  0  0  0  0
  -12.1478   13.2280    3.7845 C   0  0  0  0  0  0  0  0  0  0  0  0
  -10.1148   15.3614    0.0267 C   0  0  2  0  0  0  0  0  0  0  0  0
  -11.3269   15.4325   -0.8072 N   0  0  0  0  0  0  0  0  0  0  0  0
   -5.7776   14.7680    5.2474 C   0  0  1  0  0  0  0  0  0  0  0  0
   -5.4993   13.6247    6.1783 N   0  0  0  0  0  0  0  0  0  0  0  0
  -11.7595   11.6889    3.7679 C   0  0  0  0  0  0  0  0  0  0  0  0
  -10.4412   14.6507    1.4138 C   0  0  2  0  0  0  0  0  0  0  0  0
   -4.5235   15.8094    5.2798 C   0  0  1  0  0  0  0  0  0  0  0  0
   -3.3122   15.2064    4.8571 O   0  0  0  0  0  0  0  0  0  0  0  0
  -11.8688   10.9506    2.6318 C   0  0  2  0  0  0  0  0  0  0  0  0
  -12.3346   11.5053    1.3961 O   0  0  0  0  0  0  0  0  0  0  0  0
   -9.1372   14.5907    2.2925 C   0  0  2  0  0  0  0  0  0  0  0  0
   -9.4444   13.9542    3.5515 O   0  0  0  0  0  0  0  0  0  0  0  0
   -4.8005   17.0054    4.3121 C   0  0  0  0  0  0  0  0  0  0  0  0
   -5.1048   16.4716    2.9372 O   0  0  0  0  0  0  0  0  0  0  0  0
  -11.5097    9.4649    2.5667 C   0  0  0  0  0  0  0  0  0  0  0  0
  -11.0793    9.0483    3.8841 O   0  0  0  0  0  0  0  0  0  0  0  0
   -8.6440   16.0605    2.5604 C   0  0  1  0  0  0  0  0  0  0  0  0
   -7.5026   15.9939    3.3563 O   0  0  0  0  0  0  0  0  0  0  0  0
   -4.2334   16.4387    6.6638 C   0  0  0  0  0  0  0  0  0  0  0  0
   -6.1733   13.6615    7.4923 C   0  0  0  0  0  0  0  0  0  0  0  0
  1  2  1  1  0  0  0
  1  6  1  0  0  0  0
  1 21  1  0  0  0  0
  3  4  1  1  0  0  0
  3  8  1  0  0  0  0
  3 28  1  0  0  0  0
  5  9  1  0  0  0  0
  5 25  1  0  0  0  0
  5 29  1  1  0  0  0
  6  7  1  6  0  0  0
  6 11  1  0  0  0  0
  8 12  1  0  0  0  0
  9 10  1  1  0  0  0
  9 14  1  0  0  0  0
 11 16  1  0  0  0  0
 12 13  1  6  0  0  0
 12 17  1  0  0  0  0
 14 15  1  1  0  0  0
 14 18  1  0  0  0  0
 15 31  1  0  0  0  0
 16 20  1  0  0  0  0
 17  2  1  6  0  0  0
 17 22  1  0  0  0  0
 18 19  1  6  0  0  0
 18 24  1  0  0  0  0
 18 30  1  0  0  0  0
 20 21  1  0  0  0  0
 20 26  1  1  0  0  0
 22 23  1  1  0  0  0
 22 28  1  0  0  0  0
 24 25  1  0  0  0  0
 26 27  1  0  0  0  0
 28 29  1  1  0  0  0
M  END
>  <CHROM.1>
-38.57131332,-118.86009959,-140.21752334,-104.22082100,0.72718944,-50.04164955
-8.69680589,14.31029446,3.04995389,3.03633543,0.55260702,2.49835499

>  <Name>
ligand

>  <RI>
0

>  <Rbt.Current_Directory>
/home/itssahil/PROJECTS/Mol_Feturizer/New_Systems/rnas/4GPX

>  <Rbt.Executable>
rbdock ($Id: //depot/dev/client3/rdock/2013.1/src/exe/rbdock.cxx#4 $)

>  <Rbt.Library>
libRbt.so (2013.1, Build901 2013/11/27)

>  <Rbt.Parameter_File>
/export/apps/rDock/src/rDock_2013.1_src/data/scripts/dock_solv.prm

>  <Rbt.Receptor>
prm/blind_docking_100.prm

>  <SCORE>
7.41967

>  <SCORE.INTER>
-3.53014

>  <SCORE.INTER.CONST>
1

>  <SCORE.INTER.POLAR>
0

>  <SCORE.INTER.ROT>
6

>  <SCORE.INTER.SOLV>
21.0515

>  <SCORE.INTER.VDW>
-16.9706

>  <SCORE.INTER.norm>
-0.113876

>  <SCORE.INTRA>
5.85201

>  <SCORE.INTRA.DIHEDRAL>
-2.35506

>  <SCORE.INTRA.DIHEDRAL.0>
20.6841

>  <SCORE.INTRA.POLAR>
0

>  <SCORE.INTRA.POLAR.0>
0

>  <SCORE.INTRA.REPUL>
0

>  <SCORE.INTRA.REPUL.0>
0

>  <SCORE.INTRA.SOLV>
3.41886

>  <SCORE.INTRA.SOLV.lig_0>
-64.6797

>  <SCORE.INTRA.VDW>
5.32011

>  <SCORE.INTRA.VDW.0>
-4.11825

>  <SCORE.INTRA.norm>
0.188774

>  <SCORE.RESTR>
5.09781

>  <SCORE.RESTR.CAVITY>
5.09781

>  <SCORE.RESTR.norm>
0.164445

>  <SCORE.SYSTEM>
0

>  <SCORE.SYSTEM.CONST>
0

>  <SCORE.SYSTEM.DIHEDRAL>
0

>  <SCORE.SYSTEM.SOLV>
0

>  <SCORE.SYSTEM.norm>
0

>  <SCORE.heavy>
31

>  <SCORE.norm>
0.239344

>  <RMSD>
9.177

$$$$
ligand
 OpenBabel11021811493D
libRbt.so/2013.1/901 2013/11/27
 31 33  0  0  0  0  0  0  0  0999 V2000
  -10.9992   10.8126    2.1758 C   0  0  2  0  0  0  0  0  0  0  0  0
  -10.5991   11.8499    1.2853 O   0  0  0  0  0  0  0  0  0  0  0  0
   -9.1026   15.8287    1.4030 C   0  0  2  0  0  0  0  0  0  0  0  0
   -9.0098   17.2222    1.7134 N   0  0  0  0  0  0  0  0  0  0  0  0
   -6.5921   15.1721    2.7509 C   0  0  2  0  0  0  0  0  0  0  0  0
  -12.4540   10.3739    1.7316 C   0  0  2  0  0  0  0  0  0  0  0  0
  -12.4032    9.9146    0.3475 N   0  0  0  0  0  0  0  0  0  0  0  0
  -10.4635   15.5787    0.6313 C   0  0  0  0  0  0  0  0  0  0  0  0
   -5.8696   13.9298    3.3618 C   0  0  2  0  0  0  0  0  0  0  0  0
   -6.6682   12.7900    3.1257 O   0  0  0  0  0  0  0  0  0  0  0  0
  -13.4631   11.5812    1.8824 C   0  0  0  0  0  0  0  0  0  0  0  0
  -10.5702   14.0452    0.2903 C   0  0  2  0  0  0  0  0  0  0  0  0
  -11.8366   13.8056   -0.4228 N   0  0  0  0  0  0  0  0  0  0  0  0
   -5.7085   14.1960    4.9068 C   0  0  1  0  0  0  0  0  0  0  0  0
   -5.0351   13.0226    5.5554 N   0  0  0  0  0  0  0  0  0  0  0  0
  -13.1625   12.4614    3.1687 C   0  0  0  0  0  0  0  0  0  0  0  0
  -10.5233   13.1898    1.6326 C   0  0  2  0  0  0  0  0  0  0  0  0
   -4.7805   15.5235    5.0940 C   0  0  1  0  0  0  0  0  0  0  0  0
   -3.5072   15.3799    4.4879 O   0  0  0  0  0  0  0  0  0  0  0  0
  -12.0281   12.2774    3.8946 C   0  0  2  0  0  0  0  0  0  0  0  0
  -11.0467   11.2923    3.5511 O   0  0  0  0  0  0  0  0  0  0  0  0
   -9.1676   13.4643    2.3828 C   0  0  2  0  0  0  0  0  0  0  0  0
   -9.1379   12.6929    3.6029 O   0  0  0  0  0  0  0  0  0  0  0  0
   -5.4709   16.7539    4.4207 C   0  0  0  0  0  0  0  0  0  0  0  0
   -5.7728   16.4281    2.9817 O   0  0  0  0  0  0  0  0  0  0  0  0
  -11.6957   13.0982    5.1421 C   0  0  0  0  0  0  0  0  0  0  0  0
  -11.5690   14.4848    4.7474 O   0  0  0  0  0  0  0  0  0  0  0  0
   -9.0894   14.9958    2.7347 C   0  0  1  0  0  0  0  0  0  0  0  0
   -7.8957   15.2210    3.4167 O   0  0  0  0  0  0  0  0  0  0  0  0
   -4.5166   15.9334    6.5630 C   0  0  0  0  0  0  0  0  0  0  0  0
   -5.3665   12.7690    6.9725 C   0  0  0  0  0  0  0  0  0  0  0  0
  1  2  1  6  0  0  0
  1  6  1  0  0  0  0
  1 21  1  0  0  0  0
  3  4  1  1  0  0  0
  3  8  1  0  0  0  0
  3 28  1  0  0  0  0
  5  9  1  0  0  0  0
  5 25  1  0  0  0  0
  5 29  1  1  0  0  0
  6  7  1  6  0  0  0
  6 11  1  0  0  0  0
  8 12  1  0  0  0  0
  9 10  1  1  0  0  0
  9 14  1  0  0  0  0
 11 16  1  0  0  0  0
 12 13  1  1  0  0  0
 12 17  1  0  0  0  0
 14 15  1  1  0  0  0
 14 18  1  0  0  0  0
 15 31  1  0  0  0  0
 16 20  1  0  0  0  0
 17  2  1  6  0  0  0
 17 22  1  0  0  0  0
 18 19  1  6  0  0  0
 18 24  1  0  0  0  0
 18 30  1  0  0  0  0
 20 21  1  0  0  0  0
 20 26  1  1  0  0  0
 22 23  1  1  0  0  0
 22 28  1  0  0  0  0
 24 25  1  0  0  0  0
 26 27  1  0  0  0  0
 28 29  1  6  0  0  0
M  END
>  <CHROM.1>
106.74338631,-113.09550856,-151.17152042,-159.57272501,-62.24468792,-47.24727293
-8.85590958,13.74695185,3.11623001,-3.08683477,-0.55253352,-0.70786948

>  <Name>
ligand

>  <RI>
0

>  <Rbt.Current_Directory>
/home/itssahil/PROJECTS/Mol_Feturizer/New_Systems/rnas/4GPX

>  <Rbt.Executable>
rbdock ($Id: //depot/dev/client3/rdock/2013.1/src/exe/rbdock.cxx#4 $)

>  <Rbt.Library>
libRbt.so (2013.1, Build901 2013/11/27)

>  <Rbt.Parameter_File>
/export/apps/rDock/src/rDock_2013.1_src/data/scripts/dock_solv.prm

>  <Rbt.Receptor>
prm/blind_docking_60.prm

>  <SCORE>
11.0735

>  <SCORE.INTER>
0.671546

>  <SCORE.INTER.CONST>
1

>  <SCORE.INTER.POLAR>
0

>  <SCORE.INTER.ROT>
6

>  <SCORE.INTER.SOLV>
25.6368

>  <SCORE.INTER.VDW>
-15.6979

>  <SCORE.INTER.norm>
0.0216628

>  <SCORE.INTRA>
4.27208

>  <SCORE.INTRA.DIHEDRAL>
-0.549461

>  <SCORE.INTRA.DIHEDRAL.0>
20.6841

>  <SCORE.INTRA.POLAR>
0

>  <SCORE.INTRA.POLAR.0>
0

>  <SCORE.INTRA.REPUL>
0

>  <SCORE.INTRA.REPUL.0>
0

>  <SCORE.INTRA.SOLV>
1.64276

>  <SCORE.INTRA.SOLV.lig_0>
-64.6797

>  <SCORE.INTRA.VDW>
3.72543

>  <SCORE.INTRA.VDW.0>
-4.11825

>  <SCORE.INTRA.norm>
0.137809

>  <SCORE.RESTR>
6.12991

>  <SCORE.RESTR.CAVITY>
6.12991

>  <SCORE.RESTR.norm>
0.197739

>  <SCORE.SYSTEM>
0

>  <SCORE.SYSTEM.CONST>
0

>  <SCORE.SYSTEM.DIHEDRAL>
0

>  <SCORE.SYSTEM.SOLV>
0

>  <SCORE.SYSTEM.norm>
0

>  <SCORE.heavy>
31

>  <SCORE.norm>
0.357211

>  <RMSD>
9.190

$$$$
ligand
 OpenBabel11021811493D
libRbt.so/2013.1/901 2013/11/27
 31 33  0  0  0  0  0  0  0  0999 V2000
  -10.9838   10.7983    2.1713 C   0  0  2  0  0  0  0  0  0  0  0  0
  -10.5945   11.8361    1.2766 O   0  0  0  0  0  0  0  0  0  0  0  0
   -9.1026   15.8166    1.3935 C   0  0  2  0  0  0  0  0  0  0  0  0
   -9.0125   17.2108    1.7017 N   0  0  0  0  0  0  0  0  0  0  0  0
   -6.5983   15.1816    2.7498 C   0  0  2  0  0  0  0  0  0  0  0  0
  -12.4365   10.3471    1.7332 C   0  0  2  0  0  0  0  0  0  0  0  0
  -12.3868    9.8844    0.3502 N   0  0  0  0  0  0  0  0  0  0  0  0
  -10.4599   15.5639    0.6165 C   0  0  0  0  0  0  0  0  0  0  0  0
   -5.8677   13.9384    3.3493 C   0  0  2  0  0  0  0  0  0  0  0  0
   -6.6574   12.7952    3.0997 O   0  0  0  0  0  0  0  0  0  0  0  0
  -13.4544   11.5472    1.8840 C   0  0  0  0  0  0  0  0  0  0  0  0
  -10.5636   14.0296    0.2778 C   0  0  2  0  0  0  0  0  0  0  0  0
  -11.8268   13.7875   -0.4401 N   0  0  0  0  0  0  0  0  0  0  0  0
   -5.7117   14.1897    4.8973 C   0  0  1  0  0  0  0  0  0  0  0  0
   -5.0309   13.0147    5.5351 N   0  0  0  0  0  0  0  0  0  0  0  0
  -13.1564   12.4332    3.1669 C   0  0  0  0  0  0  0  0  0  0  0  0
  -10.5215   13.1767    1.6218 C   0  0  2  0  0  0  0  0  0  0  0  0
   -4.7941   15.5221    5.1002 C   0  0  1  0  0  0  0  0  0  0  0  0
   -3.5185   15.3942    4.4953 O   0  0  0  0  0  0  0  0  0  0  0  0
  -12.0182   12.2599    3.8895 C   0  0  2  0  0  0  0  0  0  0  0  0
  -11.0304   11.2814    3.5455 O   0  0  0  0  0  0  0  0  0  0  0  0
   -9.1693   13.4539    2.3773 C   0  0  2  0  0  0  0  0  0  0  0  0
   -9.1440   12.6847    3.5989 O   0  0  0  0  0  0  0  0  0  0  0  0
   -5.4923   16.7543    4.4382 C   0  0  0  0  0  0  0  0  0  0  0  0
   -5.7889   16.4411    2.9954 O   0  0  0  0  0  0  0  0  0  0  0  0
  -11.6880   13.0867    5.1337 C   0  0  0  0  0  0  0  0  0  0  0  0
  -11.5698   14.4726    4.7341 O   0  0  0  0  0  0  0  0  0  0  0  0
   -9.0941   14.9861    2.7268 C   0  0  1  0  0  0  0  0  0  0  0  0
   -7.9036   15.2138    3.4134 O   0  0  0  0  0  0  0  0  0  0  0  0
   -4.5362   15.9186    6.5739 C   0  0  0  0  0  0  0  0  0  0  0  0
   -5.3444   12.7586    6.9557 C   0  0  0  0  0  0  0  0  0  0  0  0
  1  2  1  6  0  0  0
  1  6  1  0  0  0  0
  1 21  1  0  0  0  0
  3  4  1  1  0  0  0
  3  8  1  0  0  0  0
  3 28  1  0  0  0  0
  5  9  1  0  0  0  0
  5 25  1  0  0  0  0
  5 29  1  1  0  0  0
  6  7  1  6  0  0  0
  6 11  1  0  0  0  0
  8 12  1  0  0  0  0
  9 10  1  1  0  0  0
  9 14  1  0  0  0  0
 11 16  1  0  0  0  0
 12 13  1  1  0  0  0
 12 17  1  0  0  0  0
 14 15  1  1  0  0  0
 14 18  1  0  0  0  0
 15 31  1  0  0  0  0
 16 20  1  0  0  0  0
 17  2  1  6  0  0  0
 17 22  1  0  0  0  0
 18 19  1  6  0  0  0
 18 24  1  0  0  0  0
 18 30  1  0  0  0  0
 20 21  1  0  0  0  0
 20 26  1  1  0  0  0
 22 23  1  1  0  0  0
 22 28  1  0  0  0  0
 24 25  1  0  0  0  0
 26 27  1  0  0  0  0
 28 29  1  6  0  0  0
M  END
>  <CHROM.1>
107.07591142,-113.06401490,-152.24980478,-160.27040150,-62.39148841,-46.46389011
-8.85443288,13.73717651,3.11078374,-3.08360350,-0.55552059,-0.70472008

>  <Name>
ligand

>  <RI>
0

>  <Rbt.Current_Directory>
/home/itssahil/PROJECTS/Mol_Feturizer/New_Systems/rnas/4GPX

>  <Rbt.Executable>
rbdock ($Id: //depot/dev/client3/rdock/2013.1/src/exe/rbdock.cxx#4 $)

>  <Rbt.Library>
libRbt.so (2013.1, Build901 2013/11/27)

>  <Rbt.Parameter_File>
/export/apps/rDock/src/rDock_2013.1_src/data/scripts/dock_solv.prm

>  <Rbt.Receptor>
prm/blind_docking_60.prm

>  <SCORE>
11.303

>  <SCORE.INTER>
0.829587

>  <SCORE.INTER.CONST>
1

>  <SCORE.INTER.POLAR>
0

>  <SCORE.INTER.ROT>
6

>  <SCORE.INTER.SOLV>
25.7508

>  <SCORE.INTER.VDW>
-15.6306

>  <SCORE.INTER.norm>
0.0267609

>  <SCORE.INTRA>
4.39852

>  <SCORE.INTRA.DIHEDRAL>
-0.566925

>  <SCORE.INTRA.DIHEDRAL.0>
20.6841

>  <SCORE.INTRA.POLAR>
0

>  <SCORE.INTRA.POLAR.0>
0

>  <SCORE.INTRA.REPUL>
0

>  <SCORE.INTRA.REPUL.0>
0

>  <SCORE.INTRA.SOLV>
1.59262

>  <SCORE.INTRA.SOLV.lig_0>
-64.6797

>  <SCORE.INTRA.VDW>
3.88567

>  <SCORE.INTRA.VDW.0>
-4.11825

>  <SCORE.INTRA.norm>
0.141888

>  <SCORE.RESTR>
6.07486

>  <SCORE.RESTR.CAVITY>
6.07486

>  <SCORE.RESTR.norm>
0.195963

>  <SCORE.SYSTEM>
0

>  <SCORE.SYSTEM.CONST>
0

>  <SCORE.SYSTEM.DIHEDRAL>
0

>  <SCORE.SYSTEM.SOLV>
0

>  <SCORE.SYSTEM.norm>
0

>  <SCORE.heavy>
31

>  <SCORE.norm>
0.364612

>  <RMSD>
9.194

$$$$
ligand
 OpenBabel11021811493D
libRbt.so/2013.1/901 2013/11/27
 31 33  0  0  0  0  0  0  0  0999 V2000
  -12.4409   14.2242   -0.3965 C   0  0  2  0  0  0  0  0  0  0  0  0
  -11.8544   12.9699   -0.0619 O   0  0  0  0  0  0  0  0  0  0  0  0
  -11.1556   13.2870    4.1208 C   0  0  2  0  0  0  0  0  0  0  0  0
  -10.8907   12.9026    5.4732 N   0  0  0  0  0  0  0  0  0  0  0  0
   -7.4677   13.0300    3.1501 C   0  0  2  0  0  0  0  0  0  0  0  0
  -12.1024   14.4876   -1.9203 C   0  0  2  0  0  0  0  0  0  0  0  0
  -12.6542   13.3977   -2.7184 N   0  0  0  0  0  0  0  0  0  0  0  0
  -12.4902   12.5739    3.6515 C   0  0  0  0  0  0  0  0  0  0  0  0
   -6.6440   12.7437    4.4456 C   0  0  2  0  0  0  0  0  0  0  0  0
   -7.3201   11.7555    5.1933 O   0  0  0  0  0  0  0  0  0  0  0  0
  -10.5388   14.5941   -2.1264 C   0  0  0  0  0  0  0  0  0  0  0  0
  -12.7835   12.9927    2.1621 C   0  0  2  0  0  0  0  0  0  0  0  0
  -14.0208   12.3281    1.7182 N   0  0  0  0  0  0  0  0  0  0  0  0
   -6.5530   14.0961    5.2496 C   0  0  1  0  0  0  0  0  0  0  0  0
   -5.7860   13.8790    6.5207 N   0  0  0  0  0  0  0  0  0  0  0  0
   -9.8213   15.3400   -0.9229 C   0  0  0  0  0  0  0  0  0  0  0  0
  -11.5640   12.5650    1.2317 C   0  0  2  0  0  0  0  0  0  0  0  0
   -5.7654   15.1807    4.3213 C   0  0  1  0  0  0  0  0  0  0  0  0
   -4.4677   14.7387    3.9607 O   0  0  0  0  0  0  0  0  0  0  0  0
  -10.4950   15.6356    0.2202 C   0  0  2  0  0  0  0  0  0  0  0  0
  -11.8743   15.2987    0.4087 O   0  0  0  0  0  0  0  0  0  0  0  0
  -10.2514   13.2788    1.7255 C   0  0  2  0  0  0  0  0  0  0  0  0
   -9.1497   12.8778    0.8830 O   0  0  0  0  0  0  0  0  0  0  0  0
   -6.5541   15.4148    2.9920 C   0  0  0  0  0  0  0  0  0  0  0  0
   -6.7824   14.0916    2.3103 O   0  0  0  0  0  0  0  0  0  0  0  0
   -9.8482   16.3549    1.4054 C   0  0  0  0  0  0  0  0  0  0  0  0
   -8.5489   16.8344    0.9857 O   0  0  0  0  0  0  0  0  0  0  0  0
   -9.9628   12.8311    3.2059 C   0  0  1  0  0  0  0  0  0  0  0  0
   -8.7879   13.4527    3.6230 O   0  0  0  0  0  0  0  0  0  0  0  0
   -5.5840   16.5781    4.9616 C   0  0  0  0  0  0  0  0  0  0  0  0
   -4.5553   13.0680    6.4212 C   0  0  0  0  0  0  0  0  0  0  0  0
  1  2  1  1  0  0  0
  1  6  1  0  0  0  0
  1 21  1  0  0  0  0
  3  4  1  1  0  0  0
  3  8  1  0  0  0  0
  3 28  1  0  0  0  0
  5  9  1  0  0  0  0
  5 25  1  0  0  0  0
  5 29  1  1  0  0  0
  6  7  1  6  0  0  0
  6 11  1  0  0  0  0
  8 12  1  0  0  0  0
  9 10  1  1  0  0  0
  9 14  1  0  0  0  0
 11 16  1  0  0  0  0
 12 13  1  6  0  0  0
 12 17  1  0  0  0  0
 14 15  1  1  0  0  0
 14 18  1  0  0  0  0
 15 31  1  0  0  0  0
 16 20  1  0  0  0  0
 17  2  1  6  0  0  0
 17 22  1  0  0  0  0
 18 19  1  6  0  0  0
 18 24  1  0  0  0  0
 18 30  1  0  0  0  0
 20 21  1  0  0  0  0
 20 26  1  6  0  0  0
 22 23  1  6  0  0  0
 22 28  1  0  0  0  0
 24 25  1  0  0  0  0
 26 27  1  0  0  0  0
 28 29  1  1  0  0  0
M  END
>  <CHROM.1>
159.41962892,-125.35571092,43.66410188,41.78075479,9.78491673,167.30139861
-9.26363380,13.97147601,2.33467752,-2.54954626,0.42966268,2.09686903

>  <Name>
ligand

>  <RI>
0

>  <Rbt.Current_Directory>
/home/itssahil/PROJECTS/Mol_Feturizer/New_Systems/rnas/4GPX

>  <Rbt.Executable>
rbdock ($Id: //depot/dev/client3/rdock/2013.1/src/exe/rbdock.cxx#4 $)

>  <Rbt.Library>
libRbt.so (2013.1, Build901 2013/11/27)

>  <Rbt.Parameter_File>
/export/apps/rDock/src/rDock_2013.1_src/data/scripts/dock_solv.prm

>  <Rbt.Receptor>
prm/blind_docking_60.prm

>  <SCORE>
47.1991

>  <SCORE.INTER>
39.2035

>  <SCORE.INTER.CONST>
1

>  <SCORE.INTER.POLAR>
0

>  <SCORE.INTER.ROT>
6

>  <SCORE.INTER.SOLV>
28.7772

>  <SCORE.INTER.VDW>
8.94326

>  <SCORE.INTER.norm>
1.26463

>  <SCORE.INTRA>
0.177188

>  <SCORE.INTRA.DIHEDRAL>
-7.42578

>  <SCORE.INTRA.DIHEDRAL.0>
20.6841

>  <SCORE.INTRA.POLAR>
0

>  <SCORE.INTRA.POLAR.0>
0

>  <SCORE.INTRA.REPUL>
0

>  <SCORE.INTRA.REPUL.0>
0

>  <SCORE.INTRA.SOLV>
-0.581103

>  <SCORE.INTRA.SOLV.lig_0>
-64.6797

>  <SCORE.INTRA.VDW>
4.18063

>  <SCORE.INTRA.VDW.0>
-4.11825

>  <SCORE.INTRA.norm>
0.00571573

>  <SCORE.RESTR>
7.81838

>  <SCORE.RESTR.CAVITY>
7.81838

>  <SCORE.RESTR.norm>
0.252206

>  <SCORE.SYSTEM>
0

>  <SCORE.SYSTEM.CONST>
0

>  <SCORE.SYSTEM.DIHEDRAL>
0

>  <SCORE.SYSTEM.SOLV>
0

>  <SCORE.SYSTEM.norm>
0

>  <SCORE.heavy>
31

>  <SCORE.norm>
1.52255

>  <RMSD>
9.211

$$$$
ligand
 OpenBabel11021811493D
libRbt.so/2013.1/901 2013/11/27
 31 33  0  0  0  0  0  0  0  0999 V2000
  -11.0081   12.5844    0.7239 C   0  0  2  0  0  0  0  0  0  0  0  0
  -11.5566   13.8847    0.9177 O   0  0  0  0  0  0  0  0  0  0  0  0
   -8.1850   16.4398    1.3506 C   0  0  2  0  0  0  0  0  0  0  0  0
   -7.3993   17.5815    1.7059 N   0  0  0  0  0  0  0  0  0  0  0  0
   -6.5623   14.7511    3.0101 C   0  0  2  0  0  0  0  0  0  0  0  0
  -12.1366   11.7184    0.0292 C   0  0  2  0  0  0  0  0  0  0  0  0
  -12.5012   12.3501   -1.2346 N   0  0  0  0  0  0  0  0  0  0  0  0
   -9.3467   16.9148    0.3838 C   0  0  0  0  0  0  0  0  0  0  0  0
   -6.1636   13.7316    4.1239 C   0  0  2  0  0  0  0  0  0  0  0  0
   -7.2392   12.8375    4.3142 O   0  0  0  0  0  0  0  0  0  0  0  0
  -13.3968   11.5952    0.9756 C   0  0  0  0  0  0  0  0  0  0  0  0
  -10.2153   15.6610   -0.0074 C   0  0  2  0  0  0  0  0  0  0  0  0
  -11.3009   16.0974   -0.9023 N   0  0  0  0  0  0  0  0  0  0  0  0
   -5.8789   14.5593    5.4344 C   0  0  1  0  0  0  0  0  0  0  0  0
   -5.5082   13.6281    6.5510 N   0  0  0  0  0  0  0  0  0  0  0  0
  -12.9917   11.4521    2.5037 C   0  0  0  0  0  0  0  0  0  0  0  0
  -10.8190   14.9924    1.3057 C   0  0  2  0  0  0  0  0  0  0  0  0
   -4.6317   15.5652    5.1327 C   0  0  1  0  0  0  0  0  0  0  0  0
   -3.4639   14.8691    4.7313 O   0  0  0  0  0  0  0  0  0  0  0  0
  -11.7077   11.6385    2.9090 C   0  0  2  0  0  0  0  0  0  0  0  0
  -10.6540   11.9702    1.9972 O   0  0  0  0  0  0  0  0  0  0  0  0
   -9.6454   14.5396    2.2512 C   0  0  2  0  0  0  0  0  0  0  0  0
  -10.2016   13.9439    3.4430 O   0  0  0  0  0  0  0  0  0  0  0  0
   -5.0048   16.5404    3.9692 C   0  0  0  0  0  0  0  0  0  0  0  0
   -5.4369   15.7396    2.7692 O   0  0  0  0  0  0  0  0  0  0  0  0
  -11.2683   11.5090    4.3687 C   0  0  0  0  0  0  0  0  0  0  0  0
  -11.9855   12.4988    5.1435 O   0  0  0  0  0  0  0  0  0  0  0  0
   -8.8032   15.8076    2.6490 C   0  0  1  0  0  0  0  0  0  0  0  0
   -7.7817   15.3963    3.5022 O   0  0  0  0  0  0  0  0  0  0  0  0
   -4.2134   16.4615    6.3232 C   0  0  0  0  0  0  0  0  0  0  0  0
   -6.3193   13.7150    7.7825 C   0  0  0  0  0  0  0  0  0  0  0  0
  1  2  1  1  0  0  0
  1  6  1  0  0  0  0
  1 21  1  0  0  0  0
  3  4  1  1  0  0  0
  3  8  1  0  0  0  0
  3 28  1  0  0  0  0
  5  9  1  0  0  0  0
  5 25  1  0  0  0  0
  5 29  1  1  0  0  0
  6  7  1  6  0  0  0
  6 11  1  0  0  0  0
  8 12  1  0  0  0  0
  9 10  1  1  0  0  0
  9 14  1  0  0  0  0
 11 16  1  0  0  0  0
 12 13  1  6  0  0  0
 12 17  1  0  0  0  0
 14 15  1  1  0  0  0
 14 18  1  0  0  0  0
 15 31  1  0  0  0  0
 16 20  1  0  0  0  0
 17  2  1  6  0  0  0
 17 22  1  0  0  0  0
 18 19  1  6  0  0  0
 18 24  1  0  0  0  0
 18 30  1  0  0  0  0
 20 21  1  0  0  0  0
 20 26  1  6  0  0  0
 22 23  1  1  0  0  0
 22 28  1  0  0  0  0
 24 25  1  0  0  0  0
 26 27  1  0  0  0  0
 28 29  1  1  0  0  0
M  END
>  <CHROM.1>
-169.46275617,-146.13806765,-124.25758000,86.56164604,-61.23338115,-40.18394278
-8.80039814,14.21082575,2.88830133,-2.94951240,0.57488969,2.25775077

>  <Name>
ligand

>  <RI>
0

>  <Rbt.Current_Directory>
/home/itssahil/PROJECTS/Mol_Feturizer/New_Systems/rnas/4GPX

>  <Rbt.Executable>
rbdock ($Id: //depot/dev/client3/rdock/2013.1/src/exe/rbdock.cxx#4 $)

>  <Rbt.Library>
libRbt.so (2013.1, Build901 2013/11/27)

>  <Rbt.Parameter_File>
/export/apps/rDock/src/rDock_2013.1_src/data/scripts/dock_solv.prm

>  <Rbt.Receptor>
prm/blind_docking_100.prm

>  <SCORE>
8.74711

>  <SCORE.INTER>
1.38447

>  <SCORE.INTER.CONST>
1

>  <SCORE.INTER.POLAR>
0

>  <SCORE.INTER.ROT>
6

>  <SCORE.INTER.SOLV>
24.126

>  <SCORE.INTER.VDW>
-14.719

>  <SCORE.INTER.norm>
0.0446603

>  <SCORE.INTRA>
0.594786

>  <SCORE.INTRA.DIHEDRAL>
-6.31152

>  <SCORE.INTRA.DIHEDRAL.0>
20.6841

>  <SCORE.INTRA.POLAR>
0

>  <SCORE.INTRA.POLAR.0>
0

>  <SCORE.INTRA.REPUL>
0.0881132

>  <SCORE.INTRA.REPUL.0>
0

>  <SCORE.INTRA.SOLV>
0.760329

>  <SCORE.INTRA.SOLV.lig_0>
-64.6797

>  <SCORE.INTRA.VDW>
2.92982

>  <SCORE.INTRA.VDW.0>
-4.11825

>  <SCORE.INTRA.norm>
0.0191866

>  <SCORE.RESTR>
6.76786

>  <SCORE.RESTR.CAVITY>
6.76786

>  <SCORE.RESTR.norm>
0.218318

>  <SCORE.SYSTEM>
0

>  <SCORE.SYSTEM.CONST>
0

>  <SCORE.SYSTEM.DIHEDRAL>
0

>  <SCORE.SYSTEM.SOLV>
0

>  <SCORE.SYSTEM.norm>
0

>  <SCORE.heavy>
31

>  <SCORE.norm>
0.282165

>  <RMSD>
9.221

$$$$
ligand
 OpenBabel11021811493D
libRbt.so/2013.1/901 2013/11/27
 31 33  0  0  0  0  0  0  0  0999 V2000
  -10.5215   13.1593   -0.3550 C   0  0  2  0  0  0  0  0  0  0  0  0
  -11.1548   14.3306    0.1513 O   0  0  0  0  0  0  0  0  0  0  0  0
   -7.9566   16.7102    1.6322 C   0  0  2  0  0  0  0  0  0  0  0  0
   -7.2617   17.7265    2.3611 N   0  0  0  0  0  0  0  0  0  0  0  0
   -6.4866   14.6350    2.9844 C   0  0  2  0  0  0  0  0  0  0  0  0
  -11.2974   12.7632   -1.6767 C   0  0  2  0  0  0  0  0  0  0  0  0
  -11.2187   13.8755   -2.6179 N   0  0  0  0  0  0  0  0  0  0  0  0
   -9.0153   17.4109    0.6847 C   0  0  0  0  0  0  0  0  0  0  0  0
   -6.0287   13.5906    4.0512 C   0  0  2  0  0  0  0  0  0  0  0  0
   -7.0294   12.6014    4.1634 O   0  0  0  0  0  0  0  0  0  0  0  0
  -12.8040   12.4162   -1.3474 C   0  0  0  0  0  0  0  0  0  0  0  0
   -9.7840   16.2950   -0.1174 C   0  0  2  0  0  0  0  0  0  0  0  0
  -10.7740   16.9404   -0.9965 N   0  0  0  0  0  0  0  0  0  0  0  0
   -5.8438   14.3635    5.4122 C   0  0  1  0  0  0  0  0  0  0  0  0
   -5.4213   13.4045    6.4859 N   0  0  0  0  0  0  0  0  0  0  0  0
  -12.9575   11.6421    0.0299 C   0  0  0  0  0  0  0  0  0  0  0  0
  -10.5101   15.3053    0.8970 C   0  0  2  0  0  0  0  0  0  0  0  0
   -4.6790   15.4844    5.1995 C   0  0  1  0  0  0  0  0  0  0  0  0
   -3.4482   14.9110    4.7925 O   0  0  0  0  0  0  0  0  0  0  0  0
  -11.9069   11.5141    0.8829 C   0  0  2  0  0  0  0  0  0  0  0  0
  -10.6139   12.0605    0.5978 O   0  0  0  0  0  0  0  0  0  0  0  0
   -9.4380   14.6316    1.8312 C   0  0  2  0  0  0  0  0  0  0  0  0
  -10.1058   13.7441    2.7537 O   0  0  0  0  0  0  0  0  0  0  0  0
   -5.1066   16.4897    4.0813 C   0  0  0  0  0  0  0  0  0  0  0  0
   -5.4429   15.7252    2.8282 O   0  0  0  0  0  0  0  0  0  0  0  0
  -12.0047   10.7756    2.2192 C   0  0  0  0  0  0  0  0  0  0  0  0
  -11.1190   11.4283    3.1593 O   0  0  0  0  0  0  0  0  0  0  0  0
   -8.6968   15.7594    2.6400 C   0  0  1  0  0  0  0  0  0  0  0  0
   -7.7664   15.1485    3.4778 O   0  0  0  0  0  0  0  0  0  0  0  0
   -4.3641   16.3434    6.4479 C   0  0  0  0  0  0  0  0  0  0  0  0
   -5.9904   13.6241    7.8313 C   0  0  0  0  0  0  0  0  0  0  0  0
  1  2  1  1  0  0  0
  1  6  1  0  0  0  0
  1 21  1  0  0  0  0
  3  4  1  1  0  0  0
  3  8  1  0  0  0  0
  3 28  1  0  0  0  0
  5  9  1  0  0  0  0
  5 25  1  0  0  0  0
  5 29  1  1  0  0  0
  6  7  1  6  0  0  0
  6 11  1  0  0  0  0
  8 12  1  0  0  0  0
  9 10  1  1  0  0  0
  9 14  1  0  0  0  0
 11 16  1  0  0  0  0
 12 13  1  6  0  0  0
 12 17  1  0  0  0  0
 14 15  1  1  0  0  0
 14 18  1  0  0  0  0
 15 31  1  0  0  0  0
 16 20  1  0  0  0  0
 17  2  1  6  0  0  0
 17 22  1  0  0  0  0
 18 19  1  6  0  0  0
 18 24  1  0  0  0  0
 18 30  1  0  0  0  0
 20 21  1  0  0  0  0
 20 26  1  6  0  0  0
 22 23  1  1  0  0  0
 22 28  1  0  0  0  0
 24 25  1  0  0  0  0
 26 27  1  0  0  0  0
 28 29  1  1  0  0  0
M  END
>  <CHROM.1>
-150.95945203,-158.80230326,-141.98111698,83.39857363,-147.04908814,-41.53453637
-8.58860985,14.32242847,2.31522166,2.92133856,-0.71422128,-0.66713987

>  <Name>
ligand

>  <RI>
0

>  <Rbt.Current_Directory>
/home/itssahil/PROJECTS/Mol_Feturizer/New_Systems/rnas/4GPX

>  <Rbt.Executable>
rbdock ($Id: //depot/dev/client3/rdock/2013.1/src/exe/rbdock.cxx#4 $)

>  <Rbt.Library>
libRbt.so (2013.1, Build901 2013/11/27)

>  <Rbt.Parameter_File>
/export/apps/rDock/src/rDock_2013.1_src/data/scripts/dock_solv.prm

>  <Rbt.Receptor>
prm/blind_docking_60.prm

>  <SCORE>
5.74717

>  <SCORE.INTER>
-2.06493

>  <SCORE.INTER.CONST>
1

>  <SCORE.INTER.POLAR>
0

>  <SCORE.INTER.ROT>
6

>  <SCORE.INTER.SOLV>
25.3536

>  <SCORE.INTER.VDW>
-17.4278

>  <SCORE.INTER.norm>
-0.0666106

>  <SCORE.INTRA>
-0.434733

>  <SCORE.INTRA.DIHEDRAL>
-7.98872

>  <SCORE.INTRA.DIHEDRAL.0>
20.6841

>  <SCORE.INTRA.POLAR>
0

>  <SCORE.INTRA.POLAR.0>
0

>  <SCORE.INTRA.REPUL>
0.12305

>  <SCORE.INTRA.REPUL.0>
0

>  <SCORE.INTRA.SOLV>
2.03814

>  <SCORE.INTRA.SOLV.lig_0>
-64.6797

>  <SCORE.INTRA.VDW>
1.92531

>  <SCORE.INTRA.VDW.0>
-4.11825

>  <SCORE.INTRA.norm>
-0.0140237

>  <SCORE.RESTR>
8.24683

>  <SCORE.RESTR.CAVITY>
8.24683

>  <SCORE.RESTR.norm>
0.266027

>  <SCORE.SYSTEM>
0

>  <SCORE.SYSTEM.CONST>
0

>  <SCORE.SYSTEM.DIHEDRAL>
0

>  <SCORE.SYSTEM.SOLV>
0

>  <SCORE.SYSTEM.norm>
0

>  <SCORE.heavy>
31

>  <SCORE.norm>
0.185392

>  <RMSD>
9.224

$$$$
ligand
 OpenBabel11021811493D
libRbt.so/2013.1/901 2013/11/27
 31 33  0  0  0  0  0  0  0  0999 V2000
  -10.5337   13.1176   -0.2870 C   0  0  2  0  0  0  0  0  0  0  0  0
  -11.1697   14.2991    0.1914 O   0  0  0  0  0  0  0  0  0  0  0  0
   -7.9838   16.7244    1.6240 C   0  0  2  0  0  0  0  0  0  0  0  0
   -7.2937   17.7556    2.3362 N   0  0  0  0  0  0  0  0  0  0  0  0
   -6.5142   14.6247    2.9841 C   0  0  2  0  0  0  0  0  0  0  0  0
  -11.3014   12.6952   -1.6054 C   0  0  2  0  0  0  0  0  0  0  0  0
  -11.2163   13.7882   -2.5683 N   0  0  0  0  0  0  0  0  0  0  0  0
   -9.0542   17.4042    0.6742 C   0  0  0  0  0  0  0  0  0  0  0  0
   -6.0601   13.6031    4.0744 C   0  0  2  0  0  0  0  0  0  0  0  0
   -7.0834   12.6448    4.2398 O   0  0  0  0  0  0  0  0  0  0  0  0
  -12.8103   12.3554   -1.2788 C   0  0  0  0  0  0  0  0  0  0  0  0
   -9.8176   16.2718   -0.1095 C   0  0  2  0  0  0  0  0  0  0  0  0
  -10.8184   16.8977   -0.9906 N   0  0  0  0  0  0  0  0  0  0  0  0
   -5.8256   14.4138    5.4054 C   0  0  1  0  0  0  0  0  0  0  0  0
   -5.4045   13.4787    6.5005 N   0  0  0  0  0  0  0  0  0  0  0  0
  -12.9729   11.6093    0.1129 C   0  0  0  0  0  0  0  0  0  0  0  0
  -10.5292   15.2885    0.9213 C   0  0  2  0  0  0  0  0  0  0  0  0
   -4.6372   15.4961    5.1318 C   0  0  1  0  0  0  0  0  0  0  0  0
   -3.4308   14.8776    4.7178 O   0  0  0  0  0  0  0  0  0  0  0  0
  -11.9278   11.4982    0.9750 C   0  0  2  0  0  0  0  0  0  0  0  0
  -10.6328   12.0382    0.6871 O   0  0  0  0  0  0  0  0  0  0  0  0
   -9.4459   14.6356    1.8573 C   0  0  2  0  0  0  0  0  0  0  0  0
  -10.1004   13.7539    2.7947 O   0  0  0  0  0  0  0  0  0  0  0  0
   -5.0632   16.4762    3.9909 C   0  0  0  0  0  0  0  0  0  0  0  0
   -5.4465   15.6813    2.7706 O   0  0  0  0  0  0  0  0  0  0  0  0
  -12.0345   10.7869    2.3252 C   0  0  0  0  0  0  0  0  0  0  0  0
  -11.2364   11.5205    3.2840 O   0  0  0  0  0  0  0  0  0  0  0  0
   -8.7098   15.7797    2.6478 C   0  0  1  0  0  0  0  0  0  0  0  0
   -7.7693   15.1873    3.4875 O   0  0  0  0  0  0  0  0  0  0  0  0
   -4.2730   16.3859    6.3448 C   0  0  0  0  0  0  0  0  0  0  0  0
   -6.1078   13.6128    7.7926 C   0  0  0  0  0  0  0  0  0  0  0  0
  1  2  1  1  0  0  0
  1  6  1  0  0  0  0
  1 21  1  0  0  0  0
  3  4  1  1  0  0  0
  3  8  1  0  0  0  0
  3 28  1  0  0  0  0
  5  9  1  0  0  0  0
  5 25  1  0  0  0  0
  5 29  1  1  0  0  0
  6  7  1  6  0  0  0
  6 11  1  0  0  0  0
  8 12  1  0  0  0  0
  9 10  1  1  0  0  0
  9 14  1  0  0  0  0
 11 16  1  0  0  0  0
 12 13  1  6  0  0  0
 12 17  1  0  0  0  0
 14 15  1  1  0  0  0
 14 18  1  0  0  0  0
 15 31  1  0  0  0  0
 16 20  1  0  0  0  0
 17  2  1  6  0  0  0
 17 22  1  0  0  0  0
 18 19  1  6  0  0  0
 18 24  1  0  0  0  0
 18 30  1  0  0  0  0
 20 21  1  0  0  0  0
 20 26  1  6  0  0  0
 22 23  1  1  0  0  0
 22 28  1  0  0  0  0
 24 25  1  0  0  0  0
 26 27  1  0  0  0  0
 28 29  1  1  0  0  0
M  END
>  <CHROM.1>
-150.95155844,-157.92892167,-132.01649278,84.37730994,-142.61896490,-44.35572961
-8.60386752,14.31942397,2.33307365,2.92249556,-0.70340857,-0.68582406

>  <Name>
ligand

>  <RI>
0

>  <Rbt.Current_Directory>
/home/itssahil/PROJECTS/Mol_Feturizer/New_Systems/rnas/4GPX

>  <Rbt.Executable>
rbdock ($Id: //depot/dev/client3/rdock/2013.1/src/exe/rbdock.cxx#4 $)

>  <Rbt.Library>
libRbt.so (2013.1, Build901 2013/11/27)

>  <Rbt.Parameter_File>
/export/apps/rDock/src/rDock_2013.1_src/data/scripts/dock_solv.prm

>  <Rbt.Receptor>
prm/blind_docking_60.prm

>  <SCORE>
6.26047

>  <SCORE.INTER>
-1.14458

>  <SCORE.INTER.CONST>
1

>  <SCORE.INTER.POLAR>
0

>  <SCORE.INTER.ROT>
6

>  <SCORE.INTER.SOLV>
25.3049

>  <SCORE.INTER.VDW>
-16.798

>  <SCORE.INTER.norm>
-0.0369219

>  <SCORE.INTRA>
-0.772478

>  <SCORE.INTRA.DIHEDRAL>
-8.05074

>  <SCORE.INTRA.DIHEDRAL.0>
20.6841

>  <SCORE.INTRA.POLAR>
0

>  <SCORE.INTRA.POLAR.0>
0

>  <SCORE.INTRA.REPUL>
0.136417

>  <SCORE.INTRA.REPUL.0>
0

>  <SCORE.INTRA.SOLV>
1.93896

>  <SCORE.INTRA.SOLV.lig_0>
-64.6797

>  <SCORE.INTRA.VDW>
1.60133

>  <SCORE.INTRA.VDW.0>
-4.11825

>  <SCORE.INTRA.norm>
-0.0249186

>  <SCORE.RESTR>
8.17753

>  <SCORE.RESTR.CAVITY>
8.17753

>  <SCORE.RESTR.norm>
0.263791

>  <SCORE.SYSTEM>
0

>  <SCORE.SYSTEM.CONST>
0

>  <SCORE.SYSTEM.DIHEDRAL>
0

>  <SCORE.SYSTEM.SOLV>
0

>  <SCORE.SYSTEM.norm>
0

>  <SCORE.heavy>
31

>  <SCORE.norm>
0.201951

>  <RMSD>
9.226

$$$$
ligand
 OpenBabel11021811493D
libRbt.so/2013.1/901 2013/11/27
 31 33  0  0  0  0  0  0  0  0999 V2000
  -11.7388   10.9241    1.7451 C   0  0  2  0  0  0  0  0  0  0  0  0
  -10.5570   11.5874    2.1840 O   0  0  0  0  0  0  0  0  0  0  0  0
   -9.0865   15.4558    1.2058 C   0  0  2  0  0  0  0  0  0  0  0  0
   -8.9328   16.8782    1.2145 N   0  0  0  0  0  0  0  0  0  0  0  0
   -7.0753   15.5253    4.3606 C   0  0  2  0  0  0  0  0  0  0  0  0
  -12.8436   11.1967    2.8457 C   0  0  2  0  0  0  0  0  0  0  0  0
  -13.0399   12.6376    2.9662 N   0  0  0  0  0  0  0  0  0  0  0  0
  -10.5830   15.1178    0.8109 C   0  0  0  0  0  0  0  0  0  0  0  0
   -5.7282   16.3035    4.2255 C   0  0  2  0  0  0  0  0  0  0  0  0
   -5.9477   17.4345    3.4098 O   0  0  0  0  0  0  0  0  0  0  0  0
  -12.4050   10.5754    4.2315 C   0  0  0  0  0  0  0  0  0  0  0  0
  -10.7565   13.5528    0.8029 C   0  0  2  0  0  0  0  0  0  0  0  0
  -12.1481   13.2324    0.4416 N   0  0  0  0  0  0  0  0  0  0  0  0
   -4.6869   15.3233    3.5632 C   0  0  1  0  0  0  0  0  0  0  0  0
   -3.3718   16.0241    3.3884 N   0  0  0  0  0  0  0  0  0  0  0  0
  -11.6565    9.1862    4.0596 C   0  0  0  0  0  0  0  0  0  0  0  0
  -10.4116   12.9648    2.2420 C   0  0  2  0  0  0  0  0  0  0  0  0
   -4.4919   14.0483    4.5605 C   0  0  1  0  0  0  0  0  0  0  0  0
   -4.0462   14.4362    5.8491 O   0  0  0  0  0  0  0  0  0  0  0  0
  -11.2759    8.7420    2.8326 C   0  0  2  0  0  0  0  0  0  0  0  0
  -11.5227    9.4871    1.6345 O   0  0  0  0  0  0  0  0  0  0  0  0
   -8.9249   13.3229    2.6128 C   0  0  2  0  0  0  0  0  0  0  0  0
   -8.6240   12.7949    3.9225 O   0  0  0  0  0  0  0  0  0  0  0  0
   -5.8564   13.3098    4.7522 C   0  0  0  0  0  0  0  0  0  0  0  0
   -6.8914   14.2945    5.2286 O   0  0  0  0  0  0  0  0  0  0  0  0
  -10.5551    7.4101    2.6160 C   0  0  0  0  0  0  0  0  0  0  0  0
  -10.3220    6.8092    3.9118 O   0  0  0  0  0  0  0  0  0  0  0  0
   -8.7768   14.8891    2.6378 C   0  0  1  0  0  0  0  0  0  0  0  0
   -7.4630   15.1924    2.9880 O   0  0  0  0  0  0  0  0  0  0  0  0
   -3.4930   12.9764    4.0618 C   0  0  0  0  0  0  0  0  0  0  0  0
   -2.9645   16.9466    4.4679 C   0  0  0  0  0  0  0  0  0  0  0  0
  1  2  1  1  0  0  0
  1  6  1  0  0  0  0
  1 21  1  0  0  0  0
  3  4  1  1  0  0  0
  3  8  1  0  0  0  0
  3 28  1  0  0  0  0
  5  9  1  0  0  0  0
  5 25  1  0  0  0  0
  5 29  1  6  0  0  0
  6  7  1  1  0  0  0
  6 11  1  0  0  0  0
  8 12  1  0  0  0  0
  9 10  1  6  0  0  0
  9 14  1  0  0  0  0
 11 16  1  0  0  0  0
 12 13  1  1  0  0  0
 12 17  1  0  0  0  0
 14 15  1  1  0  0  0
 14 18  1  0  0  0  0
 15 31  1  0  0  0  0
 16 20  1  0  0  0  0
 17  2  1  6  0  0  0
 17 22  1  0  0  0  0
 18 19  1  1  0  0  0
 18 24  1  0  0  0  0
 18 30  1  0  0  0  0
 20 21  1  0  0  0  0
 20 26  1  6  0  0  0
 22 23  1  1  0  0  0
 22 28  1  0  0  0  0
 24 25  1  0  0  0  0
 26 27  1  0  0  0  0
 28 29  1  6  0  0  0
M  END
>  <CHROM.1>
-68.76446258,-158.86797436,37.82016083,-54.36137516,-2.82557777,144.09516047
-8.54980288,13.16122423,3.11937585,2.56808866,0.43764018,2.81540481

>  <Name>
ligand

>  <RI>
0

>  <Rbt.Current_Directory>
/home/itssahil/PROJECTS/Mol_Feturizer/New_Systems/rnas/4GPX

>  <Rbt.Executable>
rbdock ($Id: //depot/dev/client3/rdock/2013.1/src/exe/rbdock.cxx#4 $)

>  <Rbt.Library>
libRbt.so (2013.1, Build901 2013/11/27)

>  <Rbt.Parameter_File>
/export/apps/rDock/src/rDock_2013.1_src/data/scripts/dock_solv.prm

>  <Rbt.Receptor>
prm/blind_docking_20.prm

>  <SCORE>
12.0729

>  <SCORE.INTER>
2.83786

>  <SCORE.INTER.CONST>
1

>  <SCORE.INTER.POLAR>
0

>  <SCORE.INTER.ROT>
6

>  <SCORE.INTER.SOLV>
23.4279

>  <SCORE.INTER.VDW>
-13.5174

>  <SCORE.INTER.norm>
0.091544

>  <SCORE.INTRA>
1.42885

>  <SCORE.INTRA.DIHEDRAL>
-11.4136

>  <SCORE.INTRA.DIHEDRAL.0>
20.6841

>  <SCORE.INTRA.POLAR>
0

>  <SCORE.INTRA.POLAR.0>
0

>  <SCORE.INTRA.REPUL>
0

>  <SCORE.INTRA.REPUL.0>
0

>  <SCORE.INTRA.SOLV>
3.18378

>  <SCORE.INTRA.SOLV.lig_0>
-64.6797

>  <SCORE.INTRA.VDW>
5.54373

>  <SCORE.INTRA.VDW.0>
-4.11825

>  <SCORE.INTRA.norm>
0.0460918

>  <SCORE.RESTR>
7.80617

>  <SCORE.RESTR.CAVITY>
7.80617

>  <SCORE.RESTR.norm>
0.251812

>  <SCORE.SYSTEM>
0

>  <SCORE.SYSTEM.CONST>
0

>  <SCORE.SYSTEM.DIHEDRAL>
0

>  <SCORE.SYSTEM.SOLV>
0

>  <SCORE.SYSTEM.norm>
0

>  <SCORE.heavy>
31

>  <SCORE.norm>
0.389448

>  <RMSD>
9.235

$$$$
ligand
 OpenBabel11021811493D
libRbt.so/2013.1/901 2013/11/27
 31 33  0  0  0  0  0  0  0  0999 V2000
  -10.6054   12.8056    1.7253 C   0  0  2  0  0  0  0  0  0  0  0  0
  -11.1264   14.0682    1.3207 O   0  0  0  0  0  0  0  0  0  0  0  0
   -8.7150   17.5376    1.8026 C   0  0  2  0  0  0  0  0  0  0  0  0
   -8.2678   18.8086    2.2837 N   0  0  0  0  0  0  0  0  0  0  0  0
   -6.3560   16.0443    2.7772 C   0  0  2  0  0  0  0  0  0  0  0  0
  -11.1075   11.7486    0.6592 C   0  0  2  0  0  0  0  0  0  0  0  0
  -10.6193   12.1430   -0.6581 N   0  0  0  0  0  0  0  0  0  0  0  0
  -10.1500   17.7247    1.1578 C   0  0  0  0  0  0  0  0  0  0  0  0
   -5.9914   14.5770    3.1683 C   0  0  2  0  0  0  0  0  0  0  0  0
   -7.1028   13.7529    2.8886 O   0  0  0  0  0  0  0  0  0  0  0  0
  -12.6861   11.6657    0.6675 C   0  0  0  0  0  0  0  0  0  0  0  0
  -10.6466   16.3270    0.6295 C   0  0  2  0  0  0  0  0  0  0  0  0
  -11.9833   16.4936    0.0336 N   0  0  0  0  0  0  0  0  0  0  0  0
   -5.6591   14.5730    4.7088 C   0  0  1  0  0  0  0  0  0  0  0  0
   -5.3187   13.1799    5.1499 N   0  0  0  0  0  0  0  0  0  0  0  0
  -13.2892   11.7966    2.1300 C   0  0  0  0  0  0  0  0  0  0  0  0
  -10.7058   15.2857    1.8329 C   0  0  2  0  0  0  0  0  0  0  0  0
   -4.3725   15.5455    4.9480 C   0  0  1  0  0  0  0  0  0  0  0  0
   -3.2396   15.1321    4.2031 O   0  0  0  0  0  0  0  0  0  0  0  0
  -12.5057   12.1532    3.1820 C   0  0  2  0  0  0  0  0  0  0  0  0
  -11.1073   12.4290    3.0406 O   0  0  0  0  0  0  0  0  0  0  0  0
   -9.2715   15.1267    2.4604 C   0  0  2  0  0  0  0  0  0  0  0  0
   -9.3364   14.1890    3.5564 O   0  0  0  0  0  0  0  0  0  0  0  0
   -4.7139   17.0009    4.4906 C   0  0  0  0  0  0  0  0  0  0  0  0
   -5.1911   16.9736    3.0626 O   0  0  0  0  0  0  0  0  0  0  0  0
  -13.0398   12.2899    4.6091 C   0  0  0  0  0  0  0  0  0  0  0  0
  -13.5112   10.9910    5.0390 O   0  0  0  0  0  0  0  0  0  0  0  0
   -8.8022   16.5272    3.0023 C   0  0  1  0  0  0  0  0  0  0  0  0
   -7.5417   16.3680    3.5737 O   0  0  0  0  0  0  0  0  0  0  0  0
   -3.9049   15.6592    6.4191 C   0  0  0  0  0  0  0  0  0  0  0  0
   -5.5255   12.8687    6.5791 C   0  0  0  0  0  0  0  0  0  0  0  0
  1  2  1  6  0  0  0
  1  6  1  0  0  0  0
  1 21  1  0  0  0  0
  3  4  1  1  0  0  0
  3  8  1  0  0  0  0
  3 28  1  0  0  0  0
  5  9  1  0  0  0  0
  5 25  1  0  0  0  0
  5 29  1  1  0  0  0
  6  7  1  6  0  0  0
  6 11  1  0  0  0  0
  8 12  1  0  0  0  0
  9 10  1  1  0  0  0
  9 14  1  0  0  0  0
 11 16  1  0  0  0  0
 12 13  1  1  0  0  0
 12 17  1  0  0  0  0
 14 15  1  6  0  0  0
 14 18  1  0  0  0  0
 15 31  1  0  0  0  0
 16 20  1  0  0  0  0
 17  2  1  6  0  0  0
 17 22  1  0  0  0  0
 18 19  1  6  0  0  0
 18 24  1  0  0  0  0
 18 30  1  0  0  0  0
 20 21  1  0  0  0  0
 20 26  1  1  0  0  0
 22 23  1  1  0  0  0
 22 28  1  0  0  0  0
 24 25  1  0  0  0  0
 26 27  1  0  0  0  0
 28 29  1  6  0  0  0
M  END
>  <CHROM.1>
-166.73550397,-110.22132707,-155.46195491,140.60824153,62.97273129,-51.25795118
-8.77030222,14.55020727,2.95397411,-3.00676380,-0.47307712,-0.57626135

>  <Name>
ligand

>  <RI>
0

>  <Rbt.Current_Directory>
/home/itssahil/PROJECTS/Mol_Feturizer/New_Systems/rnas/4GPX

>  <Rbt.Executable>
rbdock ($Id: //depot/dev/client3/rdock/2013.1/src/exe/rbdock.cxx#4 $)

>  <Rbt.Library>
libRbt.so (2013.1, Build901 2013/11/27)

>  <Rbt.Parameter_File>
/export/apps/rDock/src/rDock_2013.1_src/data/scripts/dock_solv.prm

>  <Rbt.Receptor>
prm/blind_docking_100.prm

>  <SCORE>
29.8814

>  <SCORE.INTER>
21.4896

>  <SCORE.INTER.CONST>
1

>  <SCORE.INTER.POLAR>
0

>  <SCORE.INTER.ROT>
6

>  <SCORE.INTER.SOLV>
25.8679

>  <SCORE.INTER.VDW>
-1.89623

>  <SCORE.INTER.norm>
0.693213

>  <SCORE.INTRA>
3.93494

>  <SCORE.INTRA.DIHEDRAL>
-3.41344

>  <SCORE.INTRA.DIHEDRAL.0>
20.6841

>  <SCORE.INTRA.POLAR>
0

>  <SCORE.INTRA.POLAR.0>
0

>  <SCORE.INTRA.REPUL>
0.0115523

>  <SCORE.INTRA.REPUL.0>
0

>  <SCORE.INTRA.SOLV>
-1.5462

>  <SCORE.INTRA.SOLV.lig_0>
-64.6797

>  <SCORE.INTRA.VDW>
6.35701

>  <SCORE.INTRA.VDW.0>
-4.11825

>  <SCORE.INTRA.norm>
0.126934

>  <SCORE.RESTR>
4.45683

>  <SCORE.RESTR.CAVITY>
4.45683

>  <SCORE.RESTR.norm>
0.143769

>  <SCORE.SYSTEM>
0

>  <SCORE.SYSTEM.CONST>
0

>  <SCORE.SYSTEM.DIHEDRAL>
0

>  <SCORE.SYSTEM.SOLV>
0

>  <SCORE.SYSTEM.norm>
0

>  <SCORE.heavy>
31

>  <SCORE.norm>
0.963915

>  <RMSD>
9.245

$$$$
ligand
 OpenBabel11021811493D
libRbt.so/2013.1/901 2013/11/27
 31 33  0  0  0  0  0  0  0  0999 V2000
  -10.5433   13.1591   -0.3777 C   0  0  2  0  0  0  0  0  0  0  0  0
  -11.1791   14.3351    0.1143 O   0  0  0  0  0  0  0  0  0  0  0  0
   -8.0092   16.7203    1.6461 C   0  0  2  0  0  0  0  0  0  0  0  0
   -7.3264   17.7292    2.3963 N   0  0  0  0  0  0  0  0  0  0  0  0
   -6.5088   14.6491    2.9586 C   0  0  2  0  0  0  0  0  0  0  0  0
  -11.3173   12.7464   -1.6955 C   0  0  2  0  0  0  0  0  0  0  0  0
  -11.2396   13.8478   -2.6494 N   0  0  0  0  0  0  0  0  0  0  0  0
   -9.0758   17.4283    0.7128 C   0  0  0  0  0  0  0  0  0  0  0  0
   -6.0118   13.6219    4.0248 C   0  0  2  0  0  0  0  0  0  0  0  0
   -6.9800   12.6018    4.1449 O   0  0  0  0  0  0  0  0  0  0  0  0
  -12.8236   12.4006   -1.3637 C   0  0  0  0  0  0  0  0  0  0  0  0
   -9.8312   16.3204   -0.1127 C   0  0  2  0  0  0  0  0  0  0  0  0
  -10.8284   16.9725   -0.9787 N   0  0  0  0  0  0  0  0  0  0  0  0
   -5.8433   14.4032    5.3831 C   0  0  1  0  0  0  0  0  0  0  0  0
   -5.3843   13.4603    6.4561 N   0  0  0  0  0  0  0  0  0  0  0  0
  -12.9771   11.6423    0.0224 C   0  0  0  0  0  0  0  0  0  0  0  0
  -10.5460   15.3015    0.8805 C   0  0  2  0  0  0  0  0  0  0  0  0
   -4.7158   15.5599    5.1611 C   0  0  1  0  0  0  0  0  0  0  0  0
   -3.4699   15.0248    4.7478 O   0  0  0  0  0  0  0  0  0  0  0  0
  -11.9272   11.5260    0.8778 C   0  0  2  0  0  0  0  0  0  0  0  0
  -10.6349   12.0712    0.5877 O   0  0  0  0  0  0  0  0  0  0  0  0
   -9.4664   14.6209    1.8010 C   0  0  2  0  0  0  0  0  0  0  0  0
  -10.1240   13.7067    2.7045 O   0  0  0  0  0  0  0  0  0  0  0  0
   -5.1817   16.5488    4.0436 C   0  0  0  0  0  0  0  0  0  0  0  0
   -5.5012   15.7713    2.7940 O   0  0  0  0  0  0  0  0  0  0  0  0
  -12.0251   10.8029    2.2225 C   0  0  0  0  0  0  0  0  0  0  0  0
  -11.0316   11.3680    3.1101 O   0  0  0  0  0  0  0  0  0  0  0  0
   -8.7385   15.7402    2.6334 C   0  0  1  0  0  0  0  0  0  0  0  0
   -7.8013   15.1228    3.4588 O   0  0  0  0  0  0  0  0  0  0  0  0
   -4.4208   16.4311    6.4059 C   0  0  0  0  0  0  0  0  0  0  0  0
   -6.0147   13.6103    7.7836 C   0  0  0  0  0  0  0  0  0  0  0  0
  1  2  1  1  0  0  0
  1  6  1  0  0  0  0
  1 21  1  0  0  0  0
  3  4  1  1  0  0  0
  3  8  1  0  0  0  0
  3 28  1  0  0  0  0
  5  9  1  0  0  0  0
  5 25  1  0  0  0  0
  5 29  1  1  0  0  0
  6  7  1  6  0  0  0
  6 11  1  0  0  0  0
  8 12  1  0  0  0  0
  9 10  1  1  0  0  0
  9 14  1  0  0  0  0
 11 16  1  0  0  0  0
 12 13  1  6  0  0  0
 12 17  1  0  0  0  0
 14 15  1  1  0  0  0
 14 18  1  0  0  0  0
 15 31  1  0  0  0  0
 16 20  1  0  0  0  0
 17  2  1  6  0  0  0
 17 22  1  0  0  0  0
 18 19  1  6  0  0  0
 18 24  1  0  0  0  0
 18 30  1  0  0  0  0
 20 21  1  0  0  0  0
 20 26  1  6  0  0  0
 22 23  1  1  0  0  0
 22 28  1  0  0  0  0
 24 25  1  0  0  0  0
 26 27  1  0  0  0  0
 28 29  1  1  0  0  0
M  END
>  <CHROM.1>
-152.81764761,-160.86572178,-138.26745797,85.63548394,-153.52728185,-40.78619086
-8.61148633,14.33618055,2.29551786,2.93861025,-0.71881370,-0.65107839

>  <Name>
ligand

>  <RI>
0

>  <Rbt.Current_Directory>
/home/itssahil/PROJECTS/Mol_Feturizer/New_Systems/rnas/4GPX

>  <Rbt.Executable>
rbdock ($Id: //depot/dev/client3/rdock/2013.1/src/exe/rbdock.cxx#4 $)

>  <Rbt.Library>
libRbt.so (2013.1, Build901 2013/11/27)

>  <Rbt.Parameter_File>
/export/apps/rDock/src/rDock_2013.1_src/data/scripts/dock_solv.prm

>  <Rbt.Receptor>
prm/blind_docking_60.prm

>  <SCORE>
5.97614

>  <SCORE.INTER>
-1.92104

>  <SCORE.INTER.CONST>
1

>  <SCORE.INTER.POLAR>
0

>  <SCORE.INTER.ROT>
6

>  <SCORE.INTER.SOLV>
25.199

>  <SCORE.INTER.VDW>
-17.2803

>  <SCORE.INTER.norm>
-0.061969

>  <SCORE.INTRA>
-0.343351

>  <SCORE.INTRA.DIHEDRAL>
-7.72853

>  <SCORE.INTRA.DIHEDRAL.0>
20.6841

>  <SCORE.INTRA.POLAR>
0

>  <SCORE.INTRA.POLAR.0>
0

>  <SCORE.INTRA.REPUL>
0.0533365

>  <SCORE.INTRA.REPUL.0>
0

>  <SCORE.INTRA.SOLV>
1.98888

>  <SCORE.INTRA.SOLV.lig_0>
-64.6797

>  <SCORE.INTRA.VDW>
2.25979

>  <SCORE.INTRA.VDW.0>
-4.11825

>  <SCORE.INTRA.norm>
-0.0110758

>  <SCORE.RESTR>
8.24053

>  <SCORE.RESTR.CAVITY>
8.24053

>  <SCORE.RESTR.norm>
0.265824

>  <SCORE.SYSTEM>
0

>  <SCORE.SYSTEM.CONST>
0

>  <SCORE.SYSTEM.DIHEDRAL>
0

>  <SCORE.SYSTEM.SOLV>
0

>  <SCORE.SYSTEM.norm>
0

>  <SCORE.heavy>
31

>  <SCORE.norm>
0.192779

>  <RMSD>
9.256

$$$$
ligand
 OpenBabel11021811493D
libRbt.so/2013.1/901 2013/11/27
 31 33  0  0  0  0  0  0  0  0999 V2000
    2.9256   14.5215    8.3075 C   0  0  2  0  0  0  0  0  0  0  0  0
    3.2995   14.8500    6.9728 O   0  0  0  0  0  0  0  0  0  0  0  0
    1.2658   16.3204    3.5397 C   0  0  2  0  0  0  0  0  0  0  0  0
    0.3981   16.3557    2.4027 N   0  0  0  0  0  0  0  0  0  0  0  0
   -1.5918   17.3092    4.0597 C   0  0  2  0  0  0  0  0  0  0  0  0
    4.2471   14.5934    9.1762 C   0  0  2  0  0  0  0  0  0  0  0  0
    4.7984   15.9410    9.0805 N   0  0  0  0  0  0  0  0  0  0  0  0
    2.3213   15.1584    3.3261 C   0  0  0  0  0  0  0  0  0  0  0  0
   -2.4856   18.3968    4.7357 C   0  0  2  0  0  0  0  0  0  0  0  0
   -1.6849   19.5288    5.0008 O   0  0  0  0  0  0  0  0  0  0  0  0
    5.2962   13.5240    8.6716 C   0  0  0  0  0  0  0  0  0  0  0  0
    3.2766   15.1148    4.5771 C   0  0  2  0  0  0  0  0  0  0  0  0
    4.2572   14.0323    4.3867 N   0  0  0  0  0  0  0  0  0  0  0  0
   -3.0461   17.7765    6.0716 C   0  0  1  0  0  0  0  0  0  0  0  0
   -3.9008   18.7863    6.7794 N   0  0  0  0  0  0  0  0  0  0  0  0
    4.6063   12.1650    8.2279 C   0  0  0  0  0  0  0  0  0  0  0  0
    2.4243   14.8602    5.8978 C   0  0  2  0  0  0  0  0  0  0  0  0
   -3.9531   16.4789    5.6815 C   0  0  1  0  0  0  0  0  0  0  0  0
   -5.0216   16.8112    4.8114 O   0  0  0  0  0  0  0  0  0  0  0  0
    3.2553   12.0695    8.1132 C   0  0  2  0  0  0  0  0  0  0  0  0
    2.3809   13.1718    8.3818 O   0  0  0  0  0  0  0  0  0  0  0  0
    1.3788   16.0221    6.0800 C   0  0  2  0  0  0  0  0  0  0  0  0
    0.6041   15.7781    7.2737 O   0  0  0  0  0  0  0  0  0  0  0  0
   -3.0740   15.4190    4.9415 C   0  0  0  0  0  0  0  0  0  0  0  0
   -2.4077   16.0666    3.7563 O   0  0  0  0  0  0  0  0  0  0  0  0
    2.5444   10.7820    7.6920 C   0  0  0  0  0  0  0  0  0  0  0  0
    1.9003   11.0202    6.4181 O   0  0  0  0  0  0  0  0  0  0  0  0
    0.4202   16.0354    4.8325 C   0  0  1  0  0  0  0  0  0  0  0  0
   -0.5126   17.0536    5.0164 O   0  0  0  0  0  0  0  0  0  0  0  0
   -4.5884   15.7412    6.8847 C   0  0  0  0  0  0  0  0  0  0  0  0
   -3.3004   19.4575    7.9504 C   0  0  0  0  0  0  0  0  0  0  0  0
  1  2  1  6  0  0  0
  1  6  1  0  0  0  0
  1 21  1  0  0  0  0
  3  4  1  6  0  0  0
  3  8  1  0  0  0  0
  3 28  1  0  0  0  0
  5  9  1  0  0  0  0
  5 25  1  0  0  0  0
  5 29  1  1  0  0  0
  6  7  1  6  0  0  0
  6 11  1  0  0  0  0
  8 12  1  0  0  0  0
  9 10  1  1  0  0  0
  9 14  1  0  0  0  0
 11 16  1  0  0  0  0
 12 13  1  6  0  0  0
 12 17  1  0  0  0  0
 14 15  1  6  0  0  0
 14 18  1  0  0  0  0
 15 31  1  0  0  0  0
 16 20  1  0  0  0  0
 17  2  1  1  0  0  0
 17 22  1  0  0  0  0
 18 19  1  6  0  0  0
 18 24  1  0  0  0  0
 18 30  1  0  0  0  0
 20 21  1  0  0  0  0
 20 26  1  1  0  0  0
 22 23  1  1  0  0  0
 22 28  1  0  0  0  0
 24 25  1  0  0  0  0
 26 27  1  0  0  0  0
 28 29  1  1  0  0  0
M  END
>  <CHROM.1>
178.08619881,173.20163932,-103.55658409,-173.63289800,-114.92458169,63.70210102
0.47741226,15.52093913,6.10504854,0.38637496,-0.47689772,1.81943502

>  <Name>
ligand

>  <RI>
0

>  <Rbt.Current_Directory>
/home/itssahil/PROJECTS/Mol_Feturizer/New_Systems/rnas/4GPX

>  <Rbt.Executable>
rbdock ($Id: //depot/dev/client3/rdock/2013.1/src/exe/rbdock.cxx#4 $)

>  <Rbt.Library>
libRbt.so (2013.1, Build901 2013/11/27)

>  <Rbt.Parameter_File>
/export/apps/rDock/src/rDock_2013.1_src/data/scripts/dock_solv.prm

>  <Rbt.Receptor>
prm/pocket_docking_7.prm

>  <SCORE>
-15.5974

>  <SCORE.INTER>
-7.10655

>  <SCORE.INTER.CONST>
1

>  <SCORE.INTER.POLAR>
0

>  <SCORE.INTER.ROT>
6

>  <SCORE.INTER.SOLV>
14.2879

>  <SCORE.INTER.VDW>
-17.1003

>  <SCORE.INTER.norm>
-0.229243

>  <SCORE.INTRA>
-8.49085

>  <SCORE.INTRA.DIHEDRAL>
-17.457

>  <SCORE.INTRA.DIHEDRAL.0>
20.6841

>  <SCORE.INTRA.POLAR>
0

>  <SCORE.INTRA.POLAR.0>
0

>  <SCORE.INTRA.REPUL>
0

>  <SCORE.INTRA.REPUL.0>
0

>  <SCORE.INTRA.SOLV>
-1.24499

>  <SCORE.INTRA.SOLV.lig_0>
-64.6797

>  <SCORE.INTRA.VDW>
0.860143

>  <SCORE.INTRA.VDW.0>
-4.11825

>  <SCORE.INTRA.norm>
-0.273898

>  <SCORE.RESTR>
0

>  <SCORE.RESTR.CAVITY>
0

>  <SCORE.RESTR.norm>
0

>  <SCORE.SYSTEM>
0

>  <SCORE.SYSTEM.CONST>
0

>  <SCORE.SYSTEM.DIHEDRAL>
0

>  <SCORE.SYSTEM.SOLV>
0

>  <SCORE.SYSTEM.norm>
0

>  <SCORE.heavy>
31

>  <SCORE.norm>
-0.503142

>  <RMSD>
9.266

$$$$
ligand
 OpenBabel11021811493D
libRbt.so/2013.1/901 2013/11/27
 31 33  0  0  0  0  0  0  0  0999 V2000
  -10.9030   11.1520    2.0607 C   0  0  2  0  0  0  0  0  0  0  0  0
  -10.5990   12.1419    1.0824 O   0  0  0  0  0  0  0  0  0  0  0  0
   -8.8728   16.0206    0.8387 C   0  0  2  0  0  0  0  0  0  0  0  0
   -8.6540   17.4133    1.0828 N   0  0  0  0  0  0  0  0  0  0  0  0
   -7.1460   15.6759    4.0845 C   0  0  2  0  0  0  0  0  0  0  0  0
  -12.3338   10.5819    1.6952 C   0  0  2  0  0  0  0  0  0  0  0  0
  -12.2853   10.0210    0.3490 N   0  0  0  0  0  0  0  0  0  0  0  0
  -10.3455   15.8364    0.2846 C   0  0  0  0  0  0  0  0  0  0  0  0
   -5.7504   16.3765    4.0973 C   0  0  2  0  0  0  0  0  0  0  0  0
   -5.8259   17.5331    3.2916 O   0  0  0  0  0  0  0  0  0  0  0  0
  -13.4213   11.7257    1.7845 C   0  0  0  0  0  0  0  0  0  0  0  0
  -10.5908   14.3041    0.0172 C   0  0  2  0  0  0  0  0  0  0  0  0
  -11.9610   14.1258   -0.4932 N   0  0  0  0  0  0  0  0  0  0  0  0
   -4.7069   15.3495    3.5143 C   0  0  1  0  0  0  0  0  0  0  0  0
   -3.3437   15.9753    3.4828 N   0  0  0  0  0  0  0  0  0  0  0  0
  -13.1514   12.7216    2.9907 C   0  0  0  0  0  0  0  0  0  0  0  0
  -10.3946   13.4830    1.3674 C   0  0  2  0  0  0  0  0  0  0  0  0
   -4.6815   14.0472    4.4950 C   0  0  1  0  0  0  0  0  0  0  0  0
   -4.3414   14.3847    5.8291 O   0  0  0  0  0  0  0  0  0  0  0  0
  -11.9892   12.6724    3.6939 C   0  0  2  0  0  0  0  0  0  0  0  0
  -10.9498   11.7328    3.3965 O   0  0  0  0  0  0  0  0  0  0  0  0
   -8.9288   13.6915    1.9002 C   0  0  2  0  0  0  0  0  0  0  0  0
   -8.7629   12.9520    3.1292 O   0  0  0  0  0  0  0  0  0  0  0  0
   -6.0975   13.3863    4.5378 C   0  0  0  0  0  0  0  0  0  0  0  0
   -7.1167   14.4208    4.9365 O   0  0  0  0  0  0  0  0  0  0  0  0
  -11.6844   13.6084    4.8650 C   0  0  0  0  0  0  0  0  0  0  0  0
  -11.0565   12.8299    5.9110 O   0  0  0  0  0  0  0  0  0  0  0  0
   -8.7101   15.2238    2.1826 C   0  0  1  0  0  0  0  0  0  0  0  0
   -7.4172   15.3915    2.6736 O   0  0  0  0  0  0  0  0  0  0  0  0
   -3.7010   12.9281    4.0686 C   0  0  0  0  0  0  0  0  0  0  0  0
   -3.0056   16.8825    4.5986 C   0  0  0  0  0  0  0  0  0  0  0  0
  1  2  1  6  0  0  0
  1  6  1  0  0  0  0
  1 21  1  0  0  0  0
  3  4  1  1  0  0  0
  3  8  1  0  0  0  0
  3 28  1  0  0  0  0
  5  9  1  0  0  0  0
  5 25  1  0  0  0  0
  5 29  1  6  0  0  0
  6  7  1  6  0  0  0
  6 11  1  0  0  0  0
  8 12  1  0  0  0  0
  9 10  1  6  0  0  0
  9 14  1  0  0  0  0
 11 16  1  0  0  0  0
 12 13  1  1  0  0  0
 12 17  1  0  0  0  0
 14 15  1  1  0  0  0
 14 18  1  0  0  0  0
 15 31  1  0  0  0  0
 16 20  1  0  0  0  0
 17  2  1  6  0  0  0
 17 22  1  0  0  0  0
 18 19  1  1  0  0  0
 18 24  1  0  0  0  0
 18 30  1  0  0  0  0
 20 21  1  0  0  0  0
 20 26  1  1  0  0  0
 22 23  1  1  0  0  0
 22 28  1  0  0  0  0
 24 25  1  0  0  0  0
 26 27  1  0  0  0  0
 28 29  1  6  0  0  0
M  END
>  <CHROM.1>
117.75449128,-156.29236066,36.15343505,-160.52088713,138.28728285,135.22381081
-8.63635209,14.01871438,2.87733588,-3.05191988,-0.49945705,-0.77131059

>  <Name>
ligand

>  <RI>
0

>  <Rbt.Current_Directory>
/home/itssahil/PROJECTS/Mol_Feturizer/New_Systems/rnas/4GPX

>  <Rbt.Executable>
rbdock ($Id: //depot/dev/client3/rdock/2013.1/src/exe/rbdock.cxx#4 $)

>  <Rbt.Library>
libRbt.so (2013.1, Build901 2013/11/27)

>  <Rbt.Parameter_File>
/export/apps/rDock/src/rDock_2013.1_src/data/scripts/dock_solv.prm

>  <Rbt.Receptor>
prm/blind_docking_60.prm

>  <SCORE>
20.3562

>  <SCORE.INTER>
11.0778

>  <SCORE.INTER.CONST>
1

>  <SCORE.INTER.POLAR>
0

>  <SCORE.INTER.ROT>
6

>  <SCORE.INTER.SOLV>
28.8752

>  <SCORE.INTER.VDW>
-9.83983

>  <SCORE.INTER.norm>
0.35735

>  <SCORE.INTRA>
2.64217

>  <SCORE.INTRA.DIHEDRAL>
-0.753829

>  <SCORE.INTRA.DIHEDRAL.0>
20.6841

>  <SCORE.INTRA.POLAR>
0

>  <SCORE.INTRA.POLAR.0>
0

>  <SCORE.INTRA.REPUL>
0

>  <SCORE.INTRA.REPUL.0>
0

>  <SCORE.INTRA.SOLV>
0.179129

>  <SCORE.INTRA.SOLV.lig_0>
-64.6797

>  <SCORE.INTRA.VDW>
2.92952

>  <SCORE.INTRA.VDW.0>
-4.11825

>  <SCORE.INTRA.norm>
0.0852313

>  <SCORE.RESTR>
6.63615

>  <SCORE.RESTR.CAVITY>
6.63615

>  <SCORE.RESTR.norm>
0.214069

>  <SCORE.SYSTEM>
0

>  <SCORE.SYSTEM.CONST>
0

>  <SCORE.SYSTEM.DIHEDRAL>
0

>  <SCORE.SYSTEM.SOLV>
0

>  <SCORE.SYSTEM.norm>
0

>  <SCORE.heavy>
31

>  <SCORE.norm>
0.65665

>  <RMSD>
9.267

$$$$
ligand
 OpenBabel11021811493D
libRbt.so/2013.1/901 2013/11/27
 31 33  0  0  0  0  0  0  0  0999 V2000
  -10.9434   12.7301    0.2658 C   0  0  2  0  0  0  0  0  0  0  0  0
  -11.5232   13.9649    0.6763 O   0  0  0  0  0  0  0  0  0  0  0  0
   -8.1653   16.4934    1.3207 C   0  0  2  0  0  0  0  0  0  0  0  0
   -7.3901   17.6170    1.7493 N   0  0  0  0  0  0  0  0  0  0  0  0
   -6.5894   14.7355    2.9498 C   0  0  2  0  0  0  0  0  0  0  0  0
  -11.9567   12.0754   -0.7592 C   0  0  2  0  0  0  0  0  0  0  0  0
  -12.1446   12.9891   -1.8813 N   0  0  0  0  0  0  0  0  0  0  0  0
   -9.2982   17.0126    0.3425 C   0  0  0  0  0  0  0  0  0  0  0  0
   -6.1886   13.7075    4.0549 C   0  0  2  0  0  0  0  0  0  0  0  0
   -7.2522   12.7939    4.2193 O   0  0  0  0  0  0  0  0  0  0  0  0
  -13.3365   11.7706   -0.0506 C   0  0  0  0  0  0  0  0  0  0  0  0
  -10.1552   15.7787   -0.1293 C   0  0  2  0  0  0  0  0  0  0  0  0
  -11.2141   16.2560   -1.0351 N   0  0  0  0  0  0  0  0  0  0  0  0
   -5.9339   14.5217    5.3800 C   0  0  1  0  0  0  0  0  0  0  0  0
   -5.5627   13.5815    6.4887 N   0  0  0  0  0  0  0  0  0  0  0  0
  -13.1493   11.2707    1.4443 C   0  0  0  0  0  0  0  0  0  0  0  0
  -10.7970   15.0531    1.1346 C   0  0  2  0  0  0  0  0  0  0  0  0
   -4.6992   15.5512    5.1078 C   0  0  1  0  0  0  0  0  0  0  0  0
   -3.5154   14.8792    4.7124 O   0  0  0  0  0  0  0  0  0  0  0  0
  -11.9364   11.3265    2.0554 C   0  0  2  0  0  0  0  0  0  0  0  0
  -10.7674   11.8316    1.3996 O   0  0  0  0  0  0  0  0  0  0  0  0
   -9.6516   14.5570    2.0928 C   0  0  2  0  0  0  0  0  0  0  0  0
  -10.2424   13.9097    3.2402 O   0  0  0  0  0  0  0  0  0  0  0  0
   -5.0731   16.5361    3.9528 C   0  0  0  0  0  0  0  0  0  0  0  0
   -5.4769   15.7449    2.7367 O   0  0  0  0  0  0  0  0  0  0  0  0
  -11.7056   10.8548    3.4923 C   0  0  0  0  0  0  0  0  0  0  0  0
  -11.5297   12.0241    4.3266 O   0  0  0  0  0  0  0  0  0  0  0  0
   -8.8212   15.8049    2.5710 C   0  0  1  0  0  0  0  0  0  0  0  0
   -7.8250   15.3546    3.4346 O   0  0  0  0  0  0  0  0  0  0  0  0
   -4.3105   16.4378    6.3155 C   0  0  0  0  0  0  0  0  0  0  0  0
   -6.2062   13.8144    7.7978 C   0  0  0  0  0  0  0  0  0  0  0  0
  1  2  1  1  0  0  0
  1  6  1  0  0  0  0
  1 21  1  0  0  0  0
  3  4  1  1  0  0  0
  3  8  1  0  0  0  0
  3 28  1  0  0  0  0
  5  9  1  0  0  0  0
  5 25  1  0  0  0  0
  5 29  1  1  0  0  0
  6  7  1  6  0  0  0
  6 11  1  0  0  0  0
  8 12  1  0  0  0  0
  9 10  1  1  0  0  0
  9 14  1  0  0  0  0
 11 16  1  0  0  0  0
 12 13  1  6  0  0  0
 12 17  1  0  0  0  0
 14 15  1  1  0  0  0
 14 18  1  0  0  0  0
 15 31  1  0  0  0  0
 16 20  1  0  0  0  0
 17  2  1  6  0  0  0
 17 22  1  0  0  0  0
 18 19  1  6  0  0  0
 18 24  1  0  0  0  0
 18 30  1  0  0  0  0
 20 21  1  0  0  0  0
 20 26  1  6  0  0  0
 22 23  1  1  0  0  0
 22 28  1  0  0  0  0
 24 25  1  0  0  0  0
 26 27  1  0  0  0  0
 28 29  1  1  0  0  0
M  END
>  <CHROM.1>
-154.26534528,-148.50021804,-135.95915331,77.51521003,-106.89560537,-39.91090477
-8.80028521,14.20749226,2.60636995,2.94452736,-0.63312165,-0.80447197

>  <Name>
ligand

>  <RI>
0

>  <Rbt.Current_Directory>
/home/itssahil/PROJECTS/Mol_Feturizer/New_Systems/rnas/4GPX

>  <Rbt.Executable>
rbdock ($Id: //depot/dev/client3/rdock/2013.1/src/exe/rbdock.cxx#4 $)

>  <Rbt.Library>
libRbt.so (2013.1, Build901 2013/11/27)

>  <Rbt.Parameter_File>
/export/apps/rDock/src/rDock_2013.1_src/data/scripts/dock_solv.prm

>  <Rbt.Receptor>
prm/blind_docking_60.prm

>  <SCORE>
8.90603

>  <SCORE.INTER>
2.07955

>  <SCORE.INTER.CONST>
1

>  <SCORE.INTER.POLAR>
0

>  <SCORE.INTER.ROT>
6

>  <SCORE.INTER.SOLV>
23.7828

>  <SCORE.INTER.VDW>
-14.1412

>  <SCORE.INTER.norm>
0.0670821

>  <SCORE.INTRA>
-1.77646

>  <SCORE.INTRA.DIHEDRAL>
-7.87004

>  <SCORE.INTRA.DIHEDRAL.0>
20.6841

>  <SCORE.INTRA.POLAR>
0

>  <SCORE.INTRA.POLAR.0>
0

>  <SCORE.INTRA.REPUL>
0

>  <SCORE.INTRA.REPUL.0>
0

>  <SCORE.INTRA.SOLV>
1.8009

>  <SCORE.INTRA.SOLV.lig_0>
-64.6797

>  <SCORE.INTRA.VDW>
1.25811

>  <SCORE.INTRA.VDW.0>
-4.11825

>  <SCORE.INTRA.norm>
-0.0573052

>  <SCORE.RESTR>
8.60295

>  <SCORE.RESTR.CAVITY>
8.60295

>  <SCORE.RESTR.norm>
0.277515

>  <SCORE.SYSTEM>
0

>  <SCORE.SYSTEM.CONST>
0

>  <SCORE.SYSTEM.DIHEDRAL>
0

>  <SCORE.SYSTEM.SOLV>
0

>  <SCORE.SYSTEM.norm>
0

>  <SCORE.heavy>
31

>  <SCORE.norm>
0.287291

>  <RMSD>
9.314

$$$$
ligand
 OpenBabel11021811493D
libRbt.so/2013.1/901 2013/11/27
 31 33  0  0  0  0  0  0  0  0999 V2000
    2.6088   14.3851    7.8528 C   0  0  2  0  0  0  0  0  0  0  0  0
    2.8782   15.7792    7.9665 O   0  0  0  0  0  0  0  0  0  0  0  0
    0.7734   19.3404    6.9807 C   0  0  2  0  0  0  0  0  0  0  0  0
    0.1859   20.3819    6.1952 N   0  0  0  0  0  0  0  0  0  0  0  0
   -2.1872   18.7688    6.0377 C   0  0  2  0  0  0  0  0  0  0  0  0
    3.3862   13.6780    9.0368 C   0  0  2  0  0  0  0  0  0  0  0  0
    2.9091   14.2239   10.3031 N   0  0  0  0  0  0  0  0  0  0  0  0
    2.3259   19.2949    6.6683 C   0  0  0  0  0  0  0  0  0  0  0  0
   -3.6055   18.2957    6.4887 C   0  0  2  0  0  0  0  0  0  0  0  0
   -3.7397   18.5479    7.8711 O   0  0  0  0  0  0  0  0  0  0  0  0
    4.9436   13.9020    8.8839 C   0  0  0  0  0  0  0  0  0  0  0  0
    2.9755   18.1476    7.5293 C   0  0  2  0  0  0  0  0  0  0  0  0
    4.4186   18.0968    7.2389 N   0  0  0  0  0  0  0  0  0  0  0  0
   -3.7018   16.7524    6.1844 C   0  0  1  0  0  0  0  0  0  0  0  0
   -5.0417   16.2337    6.6164 N   0  0  0  0  0  0  0  0  0  0  0  0
    5.4138   13.8542    7.3685 C   0  0  0  0  0  0  0  0  0  0  0  0
    2.2924   16.7539    7.1736 C   0  0  2  0  0  0  0  0  0  0  0  0
   -3.5351   16.5460    4.5757 C   0  0  1  0  0  0  0  0  0  0  0  0
   -4.5185   17.2515    3.8377 O   0  0  0  0  0  0  0  0  0  0  0  0
    4.5093   13.8367    6.3541 C   0  0  2  0  0  0  0  0  0  0  0  0
    3.0957   13.8593    6.5838 O   0  0  0  0  0  0  0  0  0  0  0  0
    0.7516   16.8301    7.4837 C   0  0  2  0  0  0  0  0  0  0  0  0
    0.1389   15.5663    7.1490 O   0  0  0  0  0  0  0  0  0  0  0  0
   -2.1425   17.0843    4.1121 C   0  0  0  0  0  0  0  0  0  0  0  0
   -1.9910   18.5158    4.5547 O   0  0  0  0  0  0  0  0  0  0  0  0
    4.9132   13.7882    4.8793 C   0  0  0  0  0  0  0  0  0  0  0  0
    4.3584   12.5833    4.3006 O   0  0  0  0  0  0  0  0  0  0  0  0
    0.1167   17.9654    6.5986 C   0  0  1  0  0  0  0  0  0  0  0  0
   -1.2497   18.0079    6.8667 O   0  0  0  0  0  0  0  0  0  0  0  0
   -3.6057   15.0763    4.0955 C   0  0  0  0  0  0  0  0  0  0  0  0
   -5.0800   14.8525    7.1390 C   0  0  0  0  0  0  0  0  0  0  0  0
  1  2  1  6  0  0  0
  1  6  1  0  0  0  0
  1 21  1  0  0  0  0
  3  4  1  6  0  0  0
  3  8  1  0  0  0  0
  3 28  1  0  0  0  0
  5  9  1  0  0  0  0
  5 25  1  0  0  0  0
  5 29  1  1  0  0  0
  6  7  1  1  0  0  0
  6 11  1  0  0  0  0
  8 12  1  0  0  0  0
  9 10  1  1  0  0  0
  9 14  1  0  0  0  0
 11 16  1  0  0  0  0
 12 13  1  6  0  0  0
 12 17  1  0  0  0  0
 14 15  1  6  0  0  0
 14 18  1  0  0  0  0
 15 31  1  0  0  0  0
 16 20  1  0  0  0  0
 17  2  1  1  0  0  0
 17 22  1  0  0  0  0
 18 19  1  6  0  0  0
 18 24  1  0  0  0  0
 18 30  1  0  0  0  0
 20 21  1  0  0  0  0
 20 26  1  1  0  0  0
 22 23  1  6  0  0  0
 22 28  1  0  0  0  0
 24 25  1  0  0  0  0
 26 27  1  0  0  0  0
 28 29  1  1  0  0  0
M  END
>  <CHROM.1>
-174.71182798,167.94281629,-145.99550494,-174.38837584,119.70387020,73.24204975
0.37548251,16.37133171,6.58679315,0.30766556,0.25594204,-2.97211999

>  <Name>
ligand

>  <RI>
0

>  <Rbt.Current_Directory>
/home/itssahil/PROJECTS/Mol_Feturizer/New_Systems/rnas/4GPX

>  <Rbt.Executable>
rbdock ($Id: //depot/dev/client3/rdock/2013.1/src/exe/rbdock.cxx#4 $)

>  <Rbt.Library>
libRbt.so (2013.1, Build901 2013/11/27)

>  <Rbt.Parameter_File>
/export/apps/rDock/src/rDock_2013.1_src/data/scripts/dock_solv.prm

>  <Rbt.Receptor>
prm/pocket_docking_7.prm

>  <SCORE>
-11.8029

>  <SCORE.INTER>
-3.63361

>  <SCORE.INTER.CONST>
1

>  <SCORE.INTER.POLAR>
0

>  <SCORE.INTER.ROT>
6

>  <SCORE.INTER.SOLV>
10.9145

>  <SCORE.INTER.VDW>
-13.6606

>  <SCORE.INTER.norm>
-0.117213

>  <SCORE.INTRA>
-8.16931

>  <SCORE.INTRA.DIHEDRAL>
-16.45

>  <SCORE.INTRA.DIHEDRAL.0>
20.6841

>  <SCORE.INTRA.POLAR>
0

>  <SCORE.INTRA.POLAR.0>
0

>  <SCORE.INTRA.REPUL>
0

>  <SCORE.INTRA.REPUL.0>
0

>  <SCORE.INTRA.SOLV>
-1.7408

>  <SCORE.INTRA.SOLV.lig_0>
-64.6797

>  <SCORE.INTRA.VDW>
0.926068

>  <SCORE.INTRA.VDW.0>
-4.11825

>  <SCORE.INTRA.norm>
-0.263526

>  <SCORE.RESTR>
0

>  <SCORE.RESTR.CAVITY>
0

>  <SCORE.RESTR.norm>
0

>  <SCORE.SYSTEM>
0

>  <SCORE.SYSTEM.CONST>
0

>  <SCORE.SYSTEM.DIHEDRAL>
0

>  <SCORE.SYSTEM.SOLV>
0

>  <SCORE.SYSTEM.norm>
0

>  <SCORE.heavy>
31

>  <SCORE.norm>
-0.380739

>  <RMSD>
9.320

$$$$
ligand
 OpenBabel11021811493D
libRbt.so/2013.1/901 2013/11/27
 31 33  0  0  0  0  0  0  0  0999 V2000
  -11.0152   12.5353    0.6021 C   0  0  2  0  0  0  0  0  0  0  0  0
  -11.6062   13.7843    0.9485 O   0  0  0  0  0  0  0  0  0  0  0  0
   -8.2833   16.4226    1.2352 C   0  0  2  0  0  0  0  0  0  0  0  0
   -7.5172   17.5932    1.5345 N   0  0  0  0  0  0  0  0  0  0  0  0
   -6.5856   14.8799    2.9336 C   0  0  2  0  0  0  0  0  0  0  0  0
  -12.0711   11.7711   -0.2963 C   0  0  2  0  0  0  0  0  0  0  0  0
  -12.3596   12.5828   -1.4740 N   0  0  0  0  0  0  0  0  0  0  0  0
   -9.4664   16.8347    0.2654 C   0  0  0  0  0  0  0  0  0  0  0  0
   -6.1785   13.8378    4.0231 C   0  0  2  0  0  0  0  0  0  0  0  0
   -7.2311   12.9081    4.1647 O   0  0  0  0  0  0  0  0  0  0  0  0
  -13.3920   11.4902    0.5252 C   0  0  0  0  0  0  0  0  0  0  0  0
  -10.3135   15.5488   -0.0641 C   0  0  2  0  0  0  0  0  0  0  0  0
  -11.4187   15.9269   -0.9614 N   0  0  0  0  0  0  0  0  0  0  0  0
   -5.9424   14.6319    5.3638 C   0  0  1  0  0  0  0  0  0  0  0  0
   -5.5659   13.6772    6.4583 N   0  0  0  0  0  0  0  0  0  0  0  0
  -13.0932   11.1216    2.0400 C   0  0  0  0  0  0  0  0  0  0  0  0
  -10.8870   14.9213    1.2824 C   0  0  2  0  0  0  0  0  0  0  0  0
   -4.7194   15.6817    5.1176 C   0  0  1  0  0  0  0  0  0  0  0  0
   -3.5246   15.0319    4.7180 O   0  0  0  0  0  0  0  0  0  0  0  0
  -11.8459   11.2600    2.5622 C   0  0  2  0  0  0  0  0  0  0  0  0
  -10.7382   11.7392    1.7910 O   0  0  0  0  0  0  0  0  0  0  0  0
   -9.6928   14.5307    2.2298 C   0  0  2  0  0  0  0  0  0  0  0  0
  -10.2219   13.9722    3.4516 O   0  0  0  0  0  0  0  0  0  0  0  0
   -5.0988   16.6818    3.9775 C   0  0  0  0  0  0  0  0  0  0  0  0
   -5.4849   15.9070    2.7453 O   0  0  0  0  0  0  0  0  0  0  0  0
  -11.5083   10.9158    4.0142 C   0  0  0  0  0  0  0  0  0  0  0  0
  -11.4557   12.1499    4.7682 O   0  0  0  0  0  0  0  0  0  0  0  0
   -8.8723   15.8305    2.5657 C   0  0  1  0  0  0  0  0  0  0  0  0
   -7.8321   15.4746    3.4212 O   0  0  0  0  0  0  0  0  0  0  0  0
   -4.3496   16.5519    6.3430 C   0  0  0  0  0  0  0  0  0  0  0  0
   -6.3274   13.7823    7.7197 C   0  0  0  0  0  0  0  0  0  0  0  0
  1  2  1  1  0  0  0
  1  6  1  0  0  0  0
  1 21  1  0  0  0  0
  3  4  1  1  0  0  0
  3  8  1  0  0  0  0
  3 28  1  0  0  0  0
  5  9  1  0  0  0  0
  5 25  1  0  0  0  0
  5 29  1  1  0  0  0
  6  7  1  6  0  0  0
  6 11  1  0  0  0  0
  8 12  1  0  0  0  0
  9 10  1  1  0  0  0
  9 14  1  0  0  0  0
 11 16  1  0  0  0  0
 12 13  1  6  0  0  0
 12 17  1  0  0  0  0
 14 15  1  1  0  0  0
 14 18  1  0  0  0  0
 15 31  1  0  0  0  0
 16 20  1  0  0  0  0
 17  2  1  6  0  0  0
 17 22  1  0  0  0  0
 18 19  1  6  0  0  0
 18 24  1  0  0  0  0
 18 30  1  0  0  0  0
 20 21  1  0  0  0  0
 20 26  1  6  0  0  0
 22 23  1  1  0  0  0
 22 28  1  0  0  0  0
 24 25  1  0  0  0  0
 26 27  1  0  0  0  0
 28 29  1  1  0  0  0
M  END
>  <CHROM.1>
-155.05396980,-143.32289730,-129.37509232,76.63993215,-100.93541632,-37.89124599
-8.83862096,14.17863960,2.75523370,2.98722180,-0.61985270,-0.83479463

>  <Name>
ligand

>  <RI>
0

>  <Rbt.Current_Directory>
/home/itssahil/PROJECTS/Mol_Feturizer/New_Systems/rnas/4GPX

>  <Rbt.Executable>
rbdock ($Id: //depot/dev/client3/rdock/2013.1/src/exe/rbdock.cxx#4 $)

>  <Rbt.Library>
libRbt.so (2013.1, Build901 2013/11/27)

>  <Rbt.Parameter_File>
/export/apps/rDock/src/rDock_2013.1_src/data/scripts/dock_solv.prm

>  <Rbt.Receptor>
prm/blind_docking_60.prm

>  <SCORE>
9.99335

>  <SCORE.INTER>
2.6268

>  <SCORE.INTER.CONST>
1

>  <SCORE.INTER.POLAR>
0

>  <SCORE.INTER.ROT>
6

>  <SCORE.INTER.SOLV>
23.7523

>  <SCORE.INTER.VDW>
-13.7662

>  <SCORE.INTER.norm>
0.0847354

>  <SCORE.INTRA>
-1.24987

>  <SCORE.INTRA.DIHEDRAL>
-6.50369

>  <SCORE.INTRA.DIHEDRAL.0>
20.6841

>  <SCORE.INTRA.POLAR>
0

>  <SCORE.INTRA.POLAR.0>
0

>  <SCORE.INTRA.REPUL>
0.00382411

>  <SCORE.INTRA.REPUL.0>
0

>  <SCORE.INTRA.SOLV>
1.66633

>  <SCORE.INTRA.SOLV.lig_0>
-64.6797

>  <SCORE.INTRA.VDW>
1.14969

>  <SCORE.INTRA.VDW.0>
-4.11825

>  <SCORE.INTRA.norm>
-0.0403183

>  <SCORE.RESTR>
8.61642

>  <SCORE.RESTR.CAVITY>
8.61642

>  <SCORE.RESTR.norm>
0.277949

>  <SCORE.SYSTEM>
0

>  <SCORE.SYSTEM.CONST>
0

>  <SCORE.SYSTEM.DIHEDRAL>
0

>  <SCORE.SYSTEM.SOLV>
0

>  <SCORE.SYSTEM.norm>
0

>  <SCORE.heavy>
31

>  <SCORE.norm>
0.322366

>  <RMSD>
9.330

$$$$
ligand
 OpenBabel11021811493D
libRbt.so/2013.1/901 2013/11/27
 31 33  0  0  0  0  0  0  0  0999 V2000
  -10.5611   13.6856   -0.8738 C   0  0  2  0  0  0  0  0  0  0  0  0
  -11.1124   14.8737   -0.3137 O   0  0  0  0  0  0  0  0  0  0  0  0
   -7.8418   16.6705    1.7257 C   0  0  2  0  0  0  0  0  0  0  0  0
   -7.1166   17.5297    2.6104 N   0  0  0  0  0  0  0  0  0  0  0  0
   -6.9602   14.1861    3.0384 C   0  0  2  0  0  0  0  0  0  0  0  0
  -11.4852   13.2938   -2.0979 C   0  0  2  0  0  0  0  0  0  0  0  0
  -11.4895   14.3961   -3.0540 N   0  0  0  0  0  0  0  0  0  0  0  0
   -8.6610   17.5729    0.7135 C   0  0  0  0  0  0  0  0  0  0  0  0
   -6.6402   13.2710    4.2627 C   0  0  2  0  0  0  0  0  0  0  0  0
   -7.7886   12.5051    4.5578 O   0  0  0  0  0  0  0  0  0  0  0  0
  -12.9528   12.9800   -1.6013 C   0  0  0  0  0  0  0  0  0  0  0  0
   -9.4626   16.6303   -0.2603 C   0  0  2  0  0  0  0  0  0  0  0  0
  -10.2309   17.4640   -1.2007 N   0  0  0  0  0  0  0  0  0  0  0  0
   -6.2672   14.2162    5.4674 C   0  0  1  0  0  0  0  0  0  0  0  0
   -5.9672   13.3913    6.6842 N   0  0  0  0  0  0  0  0  0  0  0  0
  -12.9685   12.2212   -0.2072 C   0  0  0  0  0  0  0  0  0  0  0  0
  -10.4443   15.6982    0.5783 C   0  0  2  0  0  0  0  0  0  0  0  0
   -4.9393   15.0644    5.0483 C   0  0  1  0  0  0  0  0  0  0  0  0
   -3.8429   14.2246    4.7288 O   0  0  0  0  0  0  0  0  0  0  0  0
  -11.8330   12.0794    0.5265 C   0  0  2  0  0  0  0  0  0  0  0  0
  -10.5691   12.5971    0.0952 O   0  0  0  0  0  0  0  0  0  0  0  0
   -9.6066   14.8213    1.5810 C   0  0  2  0  0  0  0  0  0  0  0  0
  -10.5049   13.9871    2.3437 O   0  0  0  0  0  0  0  0  0  0  0  0
   -5.2384   15.9277    3.7798 C   0  0  0  0  0  0  0  0  0  0  0  0
   -5.7544   15.0351    2.6820 O   0  0  0  0  0  0  0  0  0  0  0  0
  -11.7972   11.3546    1.8734 C   0  0  0  0  0  0  0  0  0  0  0  0
  -10.7485   10.3588    1.8202 O   0  0  0  0  0  0  0  0  0  0  0  0
   -8.8311   15.7792    2.5590 C   0  0  1  0  0  0  0  0  0  0  0  0
   -8.1113   14.9907    3.4540 O   0  0  0  0  0  0  0  0  0  0  0  0
   -4.4286   16.0516    6.1255 C   0  0  0  0  0  0  0  0  0  0  0  0
   -6.5214   13.8750    7.9653 C   0  0  0  0  0  0  0  0  0  0  0  0
  1  2  1  1  0  0  0
  1  6  1  0  0  0  0
  1 21  1  0  0  0  0
  3  4  1  1  0  0  0
  3  8  1  0  0  0  0
  3 28  1  0  0  0  0
  5  9  1  0  0  0  0
  5 25  1  0  0  0  0
  5 29  1  1  0  0  0
  6  7  1  6  0  0  0
  6 11  1  0  0  0  0
  8 12  1  0  0  0  0
  9 10  1  1  0  0  0
  9 14  1  0  0  0  0
 11 16  1  0  0  0  0
 12 13  1  6  0  0  0
 12 17  1  0  0  0  0
 14 15  1  1  0  0  0
 14 18  1  0  0  0  0
 15 31  1  0  0  0  0
 16 20  1  0  0  0  0
 17  2  1  6  0  0  0
 17 22  1  0  0  0  0
 18 19  1  6  0  0  0
 18 24  1  0  0  0  0
 18 30  1  0  0  0  0
 20 21  1  0  0  0  0
 20 26  1  6  0  0  0
 22 23  1  1  0  0  0
 22 28  1  0  0  0  0
 24 25  1  0  0  0  0
 26 27  1  0  0  0  0
 28 29  1  1  0  0  0
M  END
>  <CHROM.1>
-165.12377781,-169.38018449,-137.37601220,80.51044516,127.74961402,-49.79010099
-8.71869029,14.37571494,2.12039539,-2.80476634,0.74080956,2.48249993

>  <Name>
ligand

>  <RI>
0

>  <Rbt.Current_Directory>
/home/itssahil/PROJECTS/Mol_Feturizer/New_Systems/rnas/4GPX

>  <Rbt.Executable>
rbdock ($Id: //depot/dev/client3/rdock/2013.1/src/exe/rbdock.cxx#4 $)

>  <Rbt.Library>
libRbt.so (2013.1, Build901 2013/11/27)

>  <Rbt.Parameter_File>
/export/apps/rDock/src/rDock_2013.1_src/data/scripts/dock_solv.prm

>  <Rbt.Receptor>
prm/blind_docking_60.prm

>  <SCORE>
0.797421

>  <SCORE.INTER>
-3.26174

>  <SCORE.INTER.CONST>
1

>  <SCORE.INTER.POLAR>
0

>  <SCORE.INTER.ROT>
6

>  <SCORE.INTER.SOLV>
27.44

>  <SCORE.INTER.VDW>
-18.9212

>  <SCORE.INTER.norm>
-0.105217

>  <SCORE.INTRA>
-3.5741

>  <SCORE.INTRA.DIHEDRAL>
-13.982

>  <SCORE.INTRA.DIHEDRAL.0>
20.6841

>  <SCORE.INTRA.POLAR>
0

>  <SCORE.INTRA.POLAR.0>
0

>  <SCORE.INTRA.REPUL>
0

>  <SCORE.INTRA.REPUL.0>
0

>  <SCORE.INTRA.SOLV>
1.45828

>  <SCORE.INTRA.SOLV.lig_0>
-64.6797

>  <SCORE.INTRA.VDW>
2.68775

>  <SCORE.INTRA.VDW.0>
-4.11825

>  <SCORE.INTRA.norm>
-0.115294

>  <SCORE.RESTR>
7.63327

>  <SCORE.RESTR.CAVITY>
7.63327

>  <SCORE.RESTR.norm>
0.246234

>  <SCORE.SYSTEM>
0

>  <SCORE.SYSTEM.CONST>
0

>  <SCORE.SYSTEM.DIHEDRAL>
0

>  <SCORE.SYSTEM.SOLV>
0

>  <SCORE.SYSTEM.norm>
0

>  <SCORE.heavy>
31

>  <SCORE.norm>
0.0257233

>  <RMSD>
9.344

$$$$
ligand
 OpenBabel11021811493D
libRbt.so/2013.1/901 2013/11/27
 31 33  0  0  0  0  0  0  0  0999 V2000
  -10.5483   13.6995   -0.8898 C   0  0  2  0  0  0  0  0  0  0  0  0
  -11.1058   14.8799   -0.3196 O   0  0  0  0  0  0  0  0  0  0  0  0
   -7.8453   16.6815    1.7316 C   0  0  2  0  0  0  0  0  0  0  0  0
   -7.1252   17.5367    2.6243 N   0  0  0  0  0  0  0  0  0  0  0  0
   -6.9331   14.1961    3.0141 C   0  0  2  0  0  0  0  0  0  0  0  0
  -11.4620   13.3215   -2.1260 C   0  0  2  0  0  0  0  0  0  0  0  0
  -11.4603   14.4354   -3.0685 N   0  0  0  0  0  0  0  0  0  0  0  0
   -8.6754   17.5884    0.7325 C   0  0  0  0  0  0  0  0  0  0  0  0
   -6.5813   13.2908    4.2370 C   0  0  2  0  0  0  0  0  0  0  0  0
   -7.7110   12.5034    4.5471 O   0  0  0  0  0  0  0  0  0  0  0  0
  -12.9331   12.9996   -1.6451 C   0  0  0  0  0  0  0  0  0  0  0  0
   -9.4715   16.6503   -0.2501 C   0  0  2  0  0  0  0  0  0  0  0  0
  -10.2498   17.4882   -1.1785 N   0  0  0  0  0  0  0  0  0  0  0  0
   -6.2132   14.2464    5.4349 C   0  0  1  0  0  0  0  0  0  0  0  0
   -5.8833   13.4309    6.6503 N   0  0  0  0  0  0  0  0  0  0  0  0
  -12.9587   12.2236   -0.2606 C   0  0  0  0  0  0  0  0  0  0  0  0
  -10.4425   15.6997    0.5801 C   0  0  2  0  0  0  0  0  0  0  0  0
   -4.9070   15.1193    4.9985 C   0  0  1  0  0  0  0  0  0  0  0  0
   -3.7981   14.3003    4.6687 O   0  0  0  0  0  0  0  0  0  0  0  0
  -11.8290   12.0744    0.4805 C   0  0  2  0  0  0  0  0  0  0  0  0
  -10.5624   12.5992    0.0657 O   0  0  0  0  0  0  0  0  0  0  0  0
   -9.5941   14.8185    1.5701 C   0  0  2  0  0  0  0  0  0  0  0  0
  -10.4828   13.9674    2.3255 O   0  0  0  0  0  0  0  0  0  0  0  0
   -5.2374   15.9730    3.7313 C   0  0  0  0  0  0  0  0  0  0  0  0
   -5.7482   15.0676    2.6418 O   0  0  0  0  0  0  0  0  0  0  0  0
  -11.8028   11.3333    1.8186 C   0  0  0  0  0  0  0  0  0  0  0  0
  -10.7018   10.3945    1.7910 O   0  0  0  0  0  0  0  0  0  0  0  0
   -8.8243   15.7717    2.5572 C   0  0  1  0  0  0  0  0  0  0  0  0
   -8.0949   14.9792    3.4407 O   0  0  0  0  0  0  0  0  0  0  0  0
   -4.4036   16.1193    6.0673 C   0  0  0  0  0  0  0  0  0  0  0  0
   -6.4977   13.8609    7.9230 C   0  0  0  0  0  0  0  0  0  0  0  0
  1  2  1  1  0  0  0
  1  6  1  0  0  0  0
  1 21  1  0  0  0  0
  3  4  1  1  0  0  0
  3  8  1  0  0  0  0
  3 28  1  0  0  0  0
  5  9  1  0  0  0  0
  5 25  1  0  0  0  0
  5 29  1  1  0  0  0
  6  7  1  6  0  0  0
  6 11  1  0  0  0  0
  8 12  1  0  0  0  0
  9 10  1  1  0  0  0
  9 14  1  0  0  0  0
 11 16  1  0  0  0  0
 12 13  1  6  0  0  0
 12 17  1  0  0  0  0
 14 15  1  1  0  0  0
 14 18  1  0  0  0  0
 15 31  1  0  0  0  0
 16 20  1  0  0  0  0
 17  2  1  6  0  0  0
 17 22  1  0  0  0  0
 18 19  1  6  0  0  0
 18 24  1  0  0  0  0
 18 30  1  0  0  0  0
 20 21  1  0  0  0  0
 20 26  1  6  0  0  0
 22 23  1  1  0  0  0
 22 28  1  0  0  0  0
 24 25  1  0  0  0  0
 26 27  1  0  0  0  0
 28 29  1  1  0  0  0
M  END
>  <CHROM.1>
-164.62244691,-170.67807805,-133.84947767,80.85862853,131.08812186,-49.41097141
-8.69920902,14.39238912,2.09691220,-2.81767475,0.74154633,2.49382397

>  <Name>
ligand

>  <RI>
0

>  <Rbt.Current_Directory>
/home/itssahil/PROJECTS/Mol_Feturizer/New_Systems/rnas/4GPX

>  <Rbt.Executable>
rbdock ($Id: //depot/dev/client3/rdock/2013.1/src/exe/rbdock.cxx#4 $)

>  <Rbt.Library>
libRbt.so (2013.1, Build901 2013/11/27)

>  <Rbt.Parameter_File>
/export/apps/rDock/src/rDock_2013.1_src/data/scripts/dock_solv.prm

>  <Rbt.Receptor>
prm/blind_docking_60.prm

>  <SCORE>
1.32571

>  <SCORE.INTER>
-3.04212

>  <SCORE.INTER.CONST>
1

>  <SCORE.INTER.POLAR>
0

>  <SCORE.INTER.ROT>
6

>  <SCORE.INTER.SOLV>
27.2847

>  <SCORE.INTER.VDW>
-18.723

>  <SCORE.INTER.norm>
-0.098133

>  <SCORE.INTRA>
-3.16868

>  <SCORE.INTRA.DIHEDRAL>
-13.7822

>  <SCORE.INTRA.DIHEDRAL.0>
20.6841

>  <SCORE.INTRA.POLAR>
0

>  <SCORE.INTRA.POLAR.0>
0

>  <SCORE.INTRA.REPUL>
0

>  <SCORE.INTRA.REPUL.0>
0

>  <SCORE.INTRA.SOLV>
1.60163

>  <SCORE.INTRA.SOLV.lig_0>
-64.6797

>  <SCORE.INTRA.VDW>
2.92162

>  <SCORE.INTRA.VDW.0>
-4.11825

>  <SCORE.INTRA.norm>
-0.102216

>  <SCORE.RESTR>
7.53651

>  <SCORE.RESTR.CAVITY>
7.53651

>  <SCORE.RESTR.norm>
0.243113

>  <SCORE.SYSTEM>
0

>  <SCORE.SYSTEM.CONST>
0

>  <SCORE.SYSTEM.DIHEDRAL>
0

>  <SCORE.SYSTEM.SOLV>
0

>  <SCORE.SYSTEM.norm>
0

>  <SCORE.heavy>
31

>  <SCORE.norm>
0.0427648

>  <RMSD>
9.345

$$$$
ligand
 OpenBabel11021811493D
libRbt.so/2013.1/901 2013/11/27
 31 33  0  0  0  0  0  0  0  0999 V2000
  -10.4603   14.0481   -1.1330 C   0  0  2  0  0  0  0  0  0  0  0  0
  -11.0574   15.1114   -0.3968 O   0  0  0  0  0  0  0  0  0  0  0  0
   -7.7727   16.7741    1.7317 C   0  0  2  0  0  0  0  0  0  0  0  0
   -7.0386   17.5957    2.6444 N   0  0  0  0  0  0  0  0  0  0  0  0
   -7.0033   14.2234    3.0086 C   0  0  2  0  0  0  0  0  0  0  0  0
  -11.5186   13.6057   -2.2240 C   0  0  2  0  0  0  0  0  0  0  0  0
  -11.8241   14.7524   -3.0731 N   0  0  0  0  0  0  0  0  0  0  0  0
   -8.5468   17.7182    0.7221 C   0  0  0  0  0  0  0  0  0  0  0  0
   -6.7417   13.2737    4.2204 C   0  0  2  0  0  0  0  0  0  0  0  0
   -7.9276   12.5561    4.4873 O   0  0  0  0  0  0  0  0  0  0  0  0
  -12.8298   13.0604   -1.5295 C   0  0  0  0  0  0  0  0  0  0  0  0
   -9.3582   16.8172   -0.2826 C   0  0  2  0  0  0  0  0  0  0  0  0
  -10.0847   17.6899   -1.2207 N   0  0  0  0  0  0  0  0  0  0  0  0
   -6.3422   14.1799    5.4463 C   0  0  1  0  0  0  0  0  0  0  0  0
   -6.0964   13.3214    6.6519 N   0  0  0  0  0  0  0  0  0  0  0  0
  -12.5142   12.2239   -0.2178 C   0  0  0  0  0  0  0  0  0  0  0  0
  -10.3815   15.8998    0.5216 C   0  0  2  0  0  0  0  0  0  0  0  0
   -4.9716   14.9736    5.0591 C   0  0  1  0  0  0  0  0  0  0  0  0
   -3.9103   14.0901    4.7386 O   0  0  0  0  0  0  0  0  0  0  0  0
  -11.2632   12.1981    0.3131 C   0  0  2  0  0  0  0  0  0  0  0  0
  -10.1663   12.9126   -0.2681 O   0  0  0  0  0  0  0  0  0  0  0  0
   -9.5879   14.9808    1.5225 C   0  0  2  0  0  0  0  0  0  0  0  0
  -10.5237   14.1600    2.2541 O   0  0  0  0  0  0  0  0  0  0  0  0
   -5.2141   15.8713    3.8025 C   0  0  0  0  0  0  0  0  0  0  0  0
   -5.7554   15.0224    2.6826 O   0  0  0  0  0  0  0  0  0  0  0  0
  -10.9096   11.4054    1.5729 C   0  0  0  0  0  0  0  0  0  0  0  0
  -11.9399   10.4108    1.7822 O   0  0  0  0  0  0  0  0  0  0  0  0
   -8.8024   15.8978    2.5312 C   0  0  1  0  0  0  0  0  0  0  0  0
   -8.1221   15.0726    3.4240 O   0  0  0  0  0  0  0  0  0  0  0  0
   -4.4309   15.9177    6.1600 C   0  0  0  0  0  0  0  0  0  0  0  0
   -6.5048   13.8799    7.9571 C   0  0  0  0  0  0  0  0  0  0  0  0
  1  2  1  1  0  0  0
  1  6  1  0  0  0  0
  1 21  1  0  0  0  0
  3  4  1  1  0  0  0
  3  8  1  0  0  0  0
  3 28  1  0  0  0  0
  5  9  1  0  0  0  0
  5 25  1  0  0  0  0
  5 29  1  1  0  0  0
  6  7  1  6  0  0  0
  6 11  1  0  0  0  0
  8 12  1  0  0  0  0
  9 10  1  1  0  0  0
  9 14  1  0  0  0  0
 11 16  1  0  0  0  0
 12 13  1  6  0  0  0
 12 17  1  0  0  0  0
 14 15  1  1  0  0  0
 14 18  1  0  0  0  0
 15 31  1  0  0  0  0
 16 20  1  0  0  0  0
 17  2  1  6  0  0  0
 17 22  1  0  0  0  0
 18 19  1  6  0  0  0
 18 24  1  0  0  0  0
 18 30  1  0  0  0  0
 20 21  1  0  0  0  0
 20 26  1  6  0  0  0
 22 23  1  1  0  0  0
 22 28  1  0  0  0  0
 24 25  1  0  0  0  0
 26 27  1  0  0  0  0
 28 29  1  1  0  0  0
M  END
>  <CHROM.1>
-170.34553835,-168.68176833,-144.29612184,69.72651476,18.83634022,-50.93084197
-8.69009017,14.46860251,2.06436908,-2.77345065,0.74922140,2.49093432

>  <Name>
ligand

>  <RI>
0

>  <Rbt.Current_Directory>
/home/itssahil/PROJECTS/Mol_Feturizer/New_Systems/rnas/4GPX

>  <Rbt.Executable>
rbdock ($Id: //depot/dev/client3/rdock/2013.1/src/exe/rbdock.cxx#4 $)

>  <Rbt.Library>
libRbt.so (2013.1, Build901 2013/11/27)

>  <Rbt.Parameter_File>
/export/apps/rDock/src/rDock_2013.1_src/data/scripts/dock_solv.prm

>  <Rbt.Receptor>
prm/blind_docking_60.prm

>  <SCORE>
0.737166

>  <SCORE.INTER>
-2.55463

>  <SCORE.INTER.CONST>
1

>  <SCORE.INTER.POLAR>
0

>  <SCORE.INTER.ROT>
6

>  <SCORE.INTER.SOLV>
26.1193

>  <SCORE.INTER.VDW>
-18.0095

>  <SCORE.INTER.norm>
-0.0824073

>  <SCORE.INTRA>
-4.01326

>  <SCORE.INTRA.DIHEDRAL>
-15.8664

>  <SCORE.INTRA.DIHEDRAL.0>
20.6841

>  <SCORE.INTRA.POLAR>
0

>  <SCORE.INTRA.POLAR.0>
0

>  <SCORE.INTRA.REPUL>
0

>  <SCORE.INTRA.REPUL.0>
0

>  <SCORE.INTRA.SOLV>
1.22861

>  <SCORE.INTRA.SOLV.lig_0>
-64.6797

>  <SCORE.INTRA.VDW>
3.30561

>  <SCORE.INTRA.VDW.0>
-4.11825

>  <SCORE.INTRA.norm>
-0.12946

>  <SCORE.RESTR>
7.30506

>  <SCORE.RESTR.CAVITY>
7.30506

>  <SCORE.RESTR.norm>
0.235647

>  <SCORE.SYSTEM>
0

>  <SCORE.SYSTEM.CONST>
0

>  <SCORE.SYSTEM.DIHEDRAL>
0

>  <SCORE.SYSTEM.SOLV>
0

>  <SCORE.SYSTEM.norm>
0

>  <SCORE.heavy>
31

>  <SCORE.norm>
0.0237795

>  <RMSD>
9.359

$$$$
ligand
 OpenBabel11021811493D
libRbt.so/2013.1/901 2013/11/27
 31 33  0  0  0  0  0  0  0  0999 V2000
  -10.5664   12.6199    1.0454 C   0  0  2  0  0  0  0  0  0  0  0  0
  -11.2867   13.8328    1.2438 O   0  0  0  0  0  0  0  0  0  0  0  0
   -8.3122   16.8697    1.1268 C   0  0  2  0  0  0  0  0  0  0  0  0
   -7.6785   18.1395    1.3082 N   0  0  0  0  0  0  0  0  0  0  0  0
   -6.2929   15.6634    2.7290 C   0  0  2  0  0  0  0  0  0  0  0  0
  -11.2908   11.8538   -0.1354 C   0  0  2  0  0  0  0  0  0  0  0  0
  -11.2721   12.6996   -1.3243 N   0  0  0  0  0  0  0  0  0  0  0  0
   -9.6131   17.0821    0.2480 C   0  0  0  0  0  0  0  0  0  0  0  0
   -5.8796   14.4100    3.5637 C   0  0  2  0  0  0  0  0  0  0  0  0
   -6.9068   13.4474    3.4590 O   0  0  0  0  0  0  0  0  0  0  0  0
  -12.7757   11.4946    0.2707 C   0  0  0  0  0  0  0  0  0  0  0  0
  -10.3148   15.6866    0.0484 C   0  0  2  0  0  0  0  0  0  0  0  0
  -11.5285   15.8786   -0.7637 N   0  0  0  0  0  0  0  0  0  0  0  0
   -5.6981   14.8819    5.0563 C   0  0  1  0  0  0  0  0  0  0  0  0
   -5.3181   13.7116    5.9149 N   0  0  0  0  0  0  0  0  0  0  0  0
  -12.8996   11.0788    1.7976 C   0  0  0  0  0  0  0  0  0  0  0  0
  -10.6923   15.0654    1.4652 C   0  0  2  0  0  0  0  0  0  0  0  0
   -4.5020   15.9893    5.0915 C   0  0  1  0  0  0  0  0  0  0  0  0
   -3.2794   15.4771    4.5893 O   0  0  0  0  0  0  0  0  0  0  0  0
  -11.8575   11.2413    2.6551 C   0  0  2  0  0  0  0  0  0  0  0  0
  -10.6001   11.7890    2.2422 O   0  0  0  0  0  0  0  0  0  0  0  0
   -9.3849   14.8745    2.3199 C   0  0  2  0  0  0  0  0  0  0  0  0
   -9.7375   14.3206    3.6058 O   0  0  0  0  0  0  0  0  0  0  0  0
   -4.8852   17.2142    4.1989 C   0  0  0  0  0  0  0  0  0  0  0  0
   -5.2196   16.7326    2.8118 O   0  0  0  0  0  0  0  0  0  0  0  0
  -11.9276   10.8536    4.1334 C   0  0  0  0  0  0  0  0  0  0  0  0
  -13.2562   10.3470    4.4028 O   0  0  0  0  0  0  0  0  0  0  0  0
   -8.7108   16.2809    2.5275 C   0  0  1  0  0  0  0  0  0  0  0  0
   -7.5675   16.1007    3.3029 O   0  0  0  0  0  0  0  0  0  0  0  0
   -4.1865   16.5650    6.4932 C   0  0  0  0  0  0  0  0  0  0  0  0
   -6.0195   12.4392    5.6480 C   0  0  0  0  0  0  0  0  0  0  0  0
  1  2  1  1  0  0  0
  1  6  1  0  0  0  0
  1 21  1  0  0  0  0
  3  4  1  1  0  0  0
  3  8  1  0  0  0  0
  3 28  1  0  0  0  0
  5  9  1  0  0  0  0
  5 25  1  0  0  0  0
  5 29  1  1  0  0  0
  6  7  1  6  0  0  0
  6 11  1  0  0  0  0
  8 12  1  0  0  0  0
  9 10  1  1  0  0  0
  9 14  1  0  0  0  0
 11 16  1  0  0  0  0
 12 13  1  6  0  0  0
 12 17  1  0  0  0  0
 14 15  1  1  0  0  0
 14 18  1  0  0  0  0
 15 31  1  0  0  0  0
 16 20  1  0  0  0  0
 17  2  1  6  0  0  0
 17 22  1  0  0  0  0
 18 19  1  6  0  0  0
 18 24  1  0  0  0  0
 18 30  1  0  0  0  0
 20 21  1  0  0  0  0
 20 26  1  6  0  0  0
 22 23  1  1  0  0  0
 22 28  1  0  0  0  0
 24 25  1  0  0  0  0
 26 27  1  0  0  0  0
 28 29  1  1  0  0  0
M  END
>  <CHROM.1>
-137.63339185,-125.97258758,-41.00083484,83.87411953,-1.32667424,-36.66755339
-8.67966138,14.32032996,2.65593977,-3.06094202,-0.60115915,-0.71235543

>  <Name>
ligand

>  <RI>
0

>  <Rbt.Current_Directory>
/home/itssahil/PROJECTS/Mol_Feturizer/New_Systems/rnas/4GPX

>  <Rbt.Executable>
rbdock ($Id: //depot/dev/client3/rdock/2013.1/src/exe/rbdock.cxx#4 $)

>  <Rbt.Library>
libRbt.so (2013.1, Build901 2013/11/27)

>  <Rbt.Parameter_File>
/export/apps/rDock/src/rDock_2013.1_src/data/scripts/dock_solv.prm

>  <Rbt.Receptor>
prm/blind_docking_60.prm

>  <SCORE>
34.5167

>  <SCORE.INTER>
18.2283

>  <SCORE.INTER.CONST>
1

>  <SCORE.INTER.POLAR>
0

>  <SCORE.INTER.ROT>
6

>  <SCORE.INTER.SOLV>
24.2683

>  <SCORE.INTER.VDW>
-3.53723

>  <SCORE.INTER.norm>
0.58801

>  <SCORE.INTRA>
8.64255

>  <SCORE.INTRA.DIHEDRAL>
-1.09846

>  <SCORE.INTRA.DIHEDRAL.0>
20.6841

>  <SCORE.INTRA.POLAR>
0

>  <SCORE.INTRA.POLAR.0>
0

>  <SCORE.INTRA.REPUL>
0.15611

>  <SCORE.INTRA.REPUL.0>
0

>  <SCORE.INTRA.SOLV>
1.56584

>  <SCORE.INTRA.SOLV.lig_0>
-64.6797

>  <SCORE.INTRA.VDW>
7.62831

>  <SCORE.INTRA.VDW.0>
-4.11825

>  <SCORE.INTRA.norm>
0.278792

>  <SCORE.RESTR>
7.64585

>  <SCORE.RESTR.CAVITY>
7.64585

>  <SCORE.RESTR.norm>
0.24664

>  <SCORE.SYSTEM>
0

>  <SCORE.SYSTEM.CONST>
0

>  <SCORE.SYSTEM.DIHEDRAL>
0

>  <SCORE.SYSTEM.SOLV>
0

>  <SCORE.SYSTEM.norm>
0

>  <SCORE.heavy>
31

>  <SCORE.norm>
1.11344

>  <RMSD>
9.374

$$$$
ligand
 OpenBabel11021811493D
libRbt.so/2013.1/901 2013/11/27
 31 33  0  0  0  0  0  0  0  0999 V2000
  -12.0812   10.6007    1.9849 C   0  0  2  0  0  0  0  0  0  0  0  0
  -10.9330   11.2813    2.4826 O   0  0  0  0  0  0  0  0  0  0  0  0
   -9.3819   15.1483    1.6313 C   0  0  2  0  0  0  0  0  0  0  0  0
   -9.2412   16.5721    1.6359 N   0  0  0  0  0  0  0  0  0  0  0  0
   -6.7617   14.7335    2.8293 C   0  0  2  0  0  0  0  0  0  0  0  0
  -13.1993   10.7302    3.0980 C   0  0  2  0  0  0  0  0  0  0  0  0
  -13.4643   12.1456    3.3341 N   0  0  0  0  0  0  0  0  0  0  0  0
  -10.8156   14.7903    1.0600 C   0  0  0  0  0  0  0  0  0  0  0  0
   -5.8440   13.8518    3.7343 C   0  0  2  0  0  0  0  0  0  0  0  0
   -6.5262   12.6501    4.0228 O   0  0  0  0  0  0  0  0  0  0  0  0
  -12.7337   10.0196    4.4311 C   0  0  0  0  0  0  0  0  0  0  0  0
  -10.9750   13.2237    1.0559 C   0  0  2  0  0  0  0  0  0  0  0  0
  -12.3087   12.8848    0.5307 N   0  0  0  0  0  0  0  0  0  0  0  0
   -5.5612   14.6704    5.0510 C   0  0  1  0  0  0  0  0  0  0  0  0
   -4.6962   13.8629    5.9734 N   0  0  0  0  0  0  0  0  0  0  0  0
  -11.9195    8.6860    4.1510 C   0  0  0  0  0  0  0  0  0  0  0  0
  -10.8062   12.6607    2.5359 C   0  0  2  0  0  0  0  0  0  0  0  0
   -4.7777   16.0381    4.6339 C   0  0  1  0  0  0  0  0  0  0  0  0
   -3.5632   15.7758    3.9516 O   0  0  0  0  0  0  0  0  0  0  0  0
  -11.5164    8.3617    2.8940 C   0  0  2  0  0  0  0  0  0  0  0  0
  -11.7966    9.1894    1.7591 O   0  0  0  0  0  0  0  0  0  0  0  0
   -9.3795   13.0385    3.0817 C   0  0  2  0  0  0  0  0  0  0  0  0
   -9.2389   12.5332    4.4268 O   0  0  0  0  0  0  0  0  0  0  0  0
   -5.6684   16.8884    3.6709 C   0  0  0  0  0  0  0  0  0  0  0  0
   -6.0731   16.0427    2.4923 O   0  0  0  0  0  0  0  0  0  0  0  0
  -10.7325    7.0875    2.5739 C   0  0  0  0  0  0  0  0  0  0  0  0
  -10.2923    6.5047    3.8232 O   0  0  0  0  0  0  0  0  0  0  0  0
   -9.2474   14.6062    3.0995 C   0  0  1  0  0  0  0  0  0  0  0  0
   -7.9893   14.9272    3.6043 O   0  0  0  0  0  0  0  0  0  0  0  0
   -4.4172   16.9700    5.8160 C   0  0  0  0  0  0  0  0  0  0  0  0
   -5.3857   12.8909    6.8462 C   0  0  0  0  0  0  0  0  0  0  0  0
  1  2  1  1  0  0  0
  1  6  1  0  0  0  0
  1 21  1  0  0  0  0
  3  4  1  1  0  0  0
  3  8  1  0  0  0  0
  3 28  1  0  0  0  0
  5  9  1  0  0  0  0
  5 25  1  0  0  0  0
  5 29  1  1  0  0  0
  6  7  1  1  0  0  0
  6 11  1  0  0  0  0
  8 12  1  0  0  0  0
  9 10  1  1  0  0  0
  9 14  1  0  0  0  0
 11 16  1  0  0  0  0
 12 13  1  1  0  0  0
 12 17  1  0  0  0  0
 14 15  1  1  0  0  0
 14 18  1  0  0  0  0
 15 31  1  0  0  0  0
 16 20  1  0  0  0  0
 17  2  1  6  0  0  0
 17 22  1  0  0  0  0
 18 19  1  6  0  0  0
 18 24  1  0  0  0  0
 18 30  1  0  0  0  0
 20 21  1  0  0  0  0
 20 26  1  6  0  0  0
 22 23  1  1  0  0  0
 22 28  1  0  0  0  0
 24 25  1  0  0  0  0
 26 27  1  0  0  0  0
 28 29  1  6  0  0  0
M  END
>  <CHROM.1>
-75.09087508,-125.29176881,-84.31927076,-58.29841357,-11.64511348,-45.56109850
-8.90872082,12.85905053,3.31806677,2.55476564,0.50760618,2.76373042

>  <Name>
ligand

>  <RI>
0

>  <Rbt.Current_Directory>
/home/itssahil/PROJECTS/Mol_Feturizer/New_Systems/rnas/4GPX

>  <Rbt.Executable>
rbdock ($Id: //depot/dev/client3/rdock/2013.1/src/exe/rbdock.cxx#4 $)

>  <Rbt.Library>
libRbt.so (2013.1, Build901 2013/11/27)

>  <Rbt.Parameter_File>
/export/apps/rDock/src/rDock_2013.1_src/data/scripts/dock_solv.prm

>  <Rbt.Receptor>
prm/blind_docking_20.prm

>  <SCORE>
5.28977

>  <SCORE.INTER>
-1.43711

>  <SCORE.INTER.CONST>
1

>  <SCORE.INTER.POLAR>
0

>  <SCORE.INTER.ROT>
6

>  <SCORE.INTER.SOLV>
20.2232

>  <SCORE.INTER.VDW>
-15.2991

>  <SCORE.INTER.norm>
-0.0463583

>  <SCORE.INTRA>
-0.00908391

>  <SCORE.INTRA.DIHEDRAL>
-9.27087

>  <SCORE.INTRA.DIHEDRAL.0>
20.6841

>  <SCORE.INTRA.POLAR>
0

>  <SCORE.INTRA.POLAR.0>
0

>  <SCORE.INTRA.REPUL>
0

>  <SCORE.INTRA.REPUL.0>
0

>  <SCORE.INTRA.SOLV>
3.16435

>  <SCORE.INTRA.SOLV.lig_0>
-64.6797

>  <SCORE.INTRA.VDW>
3.04418

>  <SCORE.INTRA.VDW.0>
-4.11825

>  <SCORE.INTRA.norm>
-0.000293029

>  <SCORE.RESTR>
6.73596

>  <SCORE.RESTR.CAVITY>
6.73596

>  <SCORE.RESTR.norm>
0.217289

>  <SCORE.SYSTEM>
0

>  <SCORE.SYSTEM.CONST>
0

>  <SCORE.SYSTEM.DIHEDRAL>
0

>  <SCORE.SYSTEM.SOLV>
0

>  <SCORE.SYSTEM.norm>
0

>  <SCORE.heavy>
31

>  <SCORE.norm>
0.170638

>  <RMSD>
9.383

$$$$
ligand
 OpenBabel11021811493D
libRbt.so/2013.1/901 2013/11/27
 31 33  0  0  0  0  0  0  0  0999 V2000
  -11.2907   10.3611    3.8843 C   0  0  2  0  0  0  0  0  0  0  0  0
  -10.9985   11.1340    2.7239 O   0  0  0  0  0  0  0  0  0  0  0  0
   -9.5577   14.9900    1.6565 C   0  0  2  0  0  0  0  0  0  0  0  0
   -9.4482   16.4151    1.5939 N   0  0  0  0  0  0  0  0  0  0  0  0
   -6.9069   14.7614    2.7614 C   0  0  2  0  0  0  0  0  0  0  0  0
  -11.6498    8.9051    3.3771 C   0  0  2  0  0  0  0  0  0  0  0  0
  -10.5097    8.3711    2.6393 N   0  0  0  0  0  0  0  0  0  0  0  0
  -10.9989   14.5771    1.1444 C   0  0  0  0  0  0  0  0  0  0  0  0
   -5.9406   13.8412    3.5727 C   0  0  2  0  0  0  0  0  0  0  0  0
   -6.5933   12.6128    3.8130 O   0  0  0  0  0  0  0  0  0  0  0  0
  -12.9384    8.9431    2.4622 C   0  0  0  0  0  0  0  0  0  0  0  0
  -11.1240   13.0090    1.2145 C   0  0  2  0  0  0  0  0  0  0  0  0
  -12.4645   12.6194    0.7446 N   0  0  0  0  0  0  0  0  0  0  0  0
   -5.6159   14.5820    4.9253 C   0  0  1  0  0  0  0  0  0  0  0  0
   -4.7026   13.7340    5.7606 N   0  0  0  0  0  0  0  0  0  0  0  0
  -14.0164    9.9859    2.9820 C   0  0  0  0  0  0  0  0  0  0  0  0
  -10.9005   12.5167    2.7123 C   0  0  2  0  0  0  0  0  0  0  0  0
   -4.8696   15.9856    4.5631 C   0  0  1  0  0  0  0  0  0  0  0  0
   -3.6804   15.7861    3.8179 O   0  0  0  0  0  0  0  0  0  0  0  0
  -13.7187   10.8664    3.9739 C   0  0  2  0  0  0  0  0  0  0  0  0
  -12.4333   10.9087    4.6043 O   0  0  0  0  0  0  0  0  0  0  0  0
   -9.4673   12.9480    3.1983 C   0  0  2  0  0  0  0  0  0  0  0  0
   -9.2772   12.5066    4.5598 O   0  0  0  0  0  0  0  0  0  0  0  0
   -5.8109   16.8785    3.6909 C   0  0  0  0  0  0  0  0  0  0  0  0
   -6.2513   16.1002    2.4792 O   0  0  0  0  0  0  0  0  0  0  0  0
  -14.7239   11.8876    4.5100 C   0  0  0  0  0  0  0  0  0  0  0  0
  -14.9327   11.6173    5.9162 O   0  0  0  0  0  0  0  0  0  0  0  0
   -9.3693   14.5173    3.1427 C   0  0  1  0  0  0  0  0  0  0  0  0
   -8.1045   14.8865    3.5953 O   0  0  0  0  0  0  0  0  0  0  0  0
   -4.4745   16.8491    5.7854 C   0  0  0  0  0  0  0  0  0  0  0  0
   -5.3467   12.7619    6.6674 C   0  0  0  0  0  0  0  0  0  0  0  0
  1  2  1  6  0  0  0
  1  6  1  0  0  0  0
  1 21  1  0  0  0  0
  3  4  1  1  0  0  0
  3  8  1  0  0  0  0
  3 28  1  0  0  0  0
  5  9  1  0  0  0  0
  5 25  1  0  0  0  0
  5 29  1  1  0  0  0
  6  7  1  6  0  0  0
  6 11  1  0  0  0  0
  8 12  1  0  0  0  0
  9 10  1  1  0  0  0
  9 14  1  0  0  0  0
 11 16  1  0  0  0  0
 12 13  1  1  0  0  0
 12 17  1  0  0  0  0
 14 15  1  1  0  0  0
 14 18  1  0  0  0  0
 15 31  1  0  0  0  0
 16 20  1  0  0  0  0
 17  2  1  6  0  0  0
 17 22  1  0  0  0  0
 18 19  1  6  0  0  0
 18 24  1  0  0  0  0
 18 30  1  0  0  0  0
 20 21  1  0  0  0  0
 20 26  1  1  0  0  0
 22 23  1  1  0  0  0
 22 28  1  0  0  0  0
 24 25  1  0  0  0  0
 26 27  1  0  0  0  0
 28 29  1  6  0  0  0
M  END
>  <CHROM.1>
166.48790955,-122.22846231,-88.39156125,-158.60627818,119.06582383,-41.62896467
-9.27735969,13.09674313,3.53201571,-2.75469669,-0.41926945,-0.60230420

>  <Name>
ligand

>  <RI>
0

>  <Rbt.Current_Directory>
/home/itssahil/PROJECTS/Mol_Feturizer/New_Systems/rnas/4GPX

>  <Rbt.Executable>
rbdock ($Id: //depot/dev/client3/rdock/2013.1/src/exe/rbdock.cxx#4 $)

>  <Rbt.Library>
libRbt.so (2013.1, Build901 2013/11/27)

>  <Rbt.Parameter_File>
/export/apps/rDock/src/rDock_2013.1_src/data/scripts/dock_solv.prm

>  <Rbt.Receptor>
prm/blind_docking_20.prm

>  <SCORE>
9.44863

>  <SCORE.INTER>
4.12585

>  <SCORE.INTER.CONST>
1

>  <SCORE.INTER.POLAR>
0

>  <SCORE.INTER.ROT>
6

>  <SCORE.INTER.SOLV>
25.1674

>  <SCORE.INTER.VDW>
-13.2386

>  <SCORE.INTER.norm>
0.133092

>  <SCORE.INTRA>
-2.74311

>  <SCORE.INTRA.DIHEDRAL>
-6.83177

>  <SCORE.INTRA.DIHEDRAL.0>
20.6841

>  <SCORE.INTRA.POLAR>
0

>  <SCORE.INTRA.POLAR.0>
0

>  <SCORE.INTRA.REPUL>
0

>  <SCORE.INTRA.REPUL.0>
0

>  <SCORE.INTRA.SOLV>
-0.099952

>  <SCORE.INTRA.SOLV.lig_0>
-64.6797

>  <SCORE.INTRA.VDW>
0.722748

>  <SCORE.INTRA.VDW.0>
-4.11825

>  <SCORE.INTRA.norm>
-0.0884875

>  <SCORE.RESTR>
8.0659

>  <SCORE.RESTR.CAVITY>
8.0659

>  <SCORE.RESTR.norm>
0.26019

>  <SCORE.SYSTEM>
0

>  <SCORE.SYSTEM.CONST>
0

>  <SCORE.SYSTEM.DIHEDRAL>
0

>  <SCORE.SYSTEM.SOLV>
0

>  <SCORE.SYSTEM.norm>
0

>  <SCORE.heavy>
31

>  <SCORE.norm>
0.304795

>  <RMSD>
9.417

$$$$
ligand
 OpenBabel11021811493D
libRbt.so/2013.1/901 2013/11/27
 31 33  0  0  0  0  0  0  0  0999 V2000
  -11.3525   10.3379    4.0689 C   0  0  2  0  0  0  0  0  0  0  0  0
  -11.0349   11.0641    2.8853 O   0  0  0  0  0  0  0  0  0  0  0  0
   -9.6467   14.8886    1.6483 C   0  0  2  0  0  0  0  0  0  0  0  0
   -9.5532   16.3111    1.5272 N   0  0  0  0  0  0  0  0  0  0  0  0
   -6.9954   14.8018    2.7058 C   0  0  2  0  0  0  0  0  0  0  0  0
  -11.7127    8.8659    3.6113 C   0  0  2  0  0  0  0  0  0  0  0  0
  -10.5638    8.2971    2.9144 N   0  0  0  0  0  0  0  0  0  0  0  0
  -11.0887   14.4406    1.1688 C   0  0  0  0  0  0  0  0  0  0  0  0
   -5.9955   13.8671    3.4577 C   0  0  2  0  0  0  0  0  0  0  0  0
   -6.6243   12.6211    3.6689 O   0  0  0  0  0  0  0  0  0  0  0  0
  -12.9850    8.8770    2.6732 C   0  0  0  0  0  0  0  0  0  0  0  0
  -11.1962   12.8754    1.3031 C   0  0  2  0  0  0  0  0  0  0  0  0
  -12.5372   12.4534    0.8637 N   0  0  0  0  0  0  0  0  0  0  0  0
   -5.6462   14.5628    4.8280 C   0  0  1  0  0  0  0  0  0  0  0  0
   -4.6997   13.6986    5.6080 N   0  0  0  0  0  0  0  0  0  0  0  0
  -14.0647    9.9455    3.1339 C   0  0  0  0  0  0  0  0  0  0  0  0
  -10.9519   12.4462    2.8170 C   0  0  2  0  0  0  0  0  0  0  0  0
   -4.9294   15.9898    4.4990 C   0  0  1  0  0  0  0  0  0  0  0  0
   -3.7572   15.8355    3.7170 O   0  0  0  0  0  0  0  0  0  0  0  0
  -13.7781   10.8613    4.0967 C   0  0  2  0  0  0  0  0  0  0  0  0
  -12.5035   10.9197    4.7475 O   0  0  0  0  0  0  0  0  0  0  0  0
   -9.5185   12.9114    3.2698 C   0  0  2  0  0  0  0  0  0  0  0  0
   -9.3095   12.5273    4.6458 O   0  0  0  0  0  0  0  0  0  0  0  0
   -5.9055   16.8997    3.6846 C   0  0  0  0  0  0  0  0  0  0  0  0
   -6.3662   16.1597    2.4566 O   0  0  0  0  0  0  0  0  0  0  0  0
  -14.7853   11.9084    4.5758 C   0  0  0  0  0  0  0  0  0  0  0  0
  -14.2589   13.2180    4.2560 O   0  0  0  0  0  0  0  0  0  0  0  0
   -9.4378   14.4782    3.1501 C   0  0  1  0  0  0  0  0  0  0  0  0
   -8.1725   14.8783    3.5739 O   0  0  0  0  0  0  0  0  0  0  0  0
   -4.5149   16.8138    5.7419 C   0  0  0  0  0  0  0  0  0  0  0  0
   -5.3027   12.6249    6.4240 C   0  0  0  0  0  0  0  0  0  0  0  0
  1  2  1  6  0  0  0
  1  6  1  0  0  0  0
  1 21  1  0  0  0  0
  3  4  1  1  0  0  0
  3  8  1  0  0  0  0
  3 28  1  0  0  0  0
  5  9  1  0  0  0  0
  5 25  1  0  0  0  0
  5 29  1  1  0  0  0
  6  7  1  6  0  0  0
  6 11  1  0  0  0  0
  8 12  1  0  0  0  0
  9 10  1  1  0  0  0
  9 14  1  0  0  0  0
 11 16  1  0  0  0  0
 12 13  1  1  0  0  0
 12 17  1  0  0  0  0
 14 15  1  1  0  0  0
 14 18  1  0  0  0  0
 15 31  1  0  0  0  0
 16 20  1  0  0  0  0
 17  2  1  6  0  0  0
 17 22  1  0  0  0  0
 18 19  1  6  0  0  0
 18 24  1  0  0  0  0
 18 30  1  0  0  0  0
 20 21  1  0  0  0  0
 20 26  1  1  0  0  0
 22 23  1  1  0  0  0
 22 28  1  0  0  0  0
 24 25  1  0  0  0  0
 26 27  1  0  0  0  0
 28 29  1  6  0  0  0
M  END
>  <CHROM.1>
165.22161492,-120.72304552,-84.38857752,-156.33201602,-116.89855176,-38.11457184
-9.30858570,13.12141866,3.49946540,-2.70683043,-0.36423510,-0.45971653

>  <Name>
ligand

>  <RI>
0

>  <Rbt.Current_Directory>
/home/itssahil/PROJECTS/Mol_Feturizer/New_Systems/rnas/4GPX

>  <Rbt.Executable>
rbdock ($Id: //depot/dev/client3/rdock/2013.1/src/exe/rbdock.cxx#4 $)

>  <Rbt.Library>
libRbt.so (2013.1, Build901 2013/11/27)

>  <Rbt.Parameter_File>
/export/apps/rDock/src/rDock_2013.1_src/data/scripts/dock_solv.prm

>  <Rbt.Receptor>
prm/blind_docking_20.prm

>  <SCORE>
9.82895

>  <SCORE.INTER>
4.80138

>  <SCORE.INTER.CONST>
1

>  <SCORE.INTER.POLAR>
0

>  <SCORE.INTER.ROT>
6

>  <SCORE.INTER.SOLV>
24.3517

>  <SCORE.INTER.VDW>
-12.5163

>  <SCORE.INTER.norm>
0.154883

>  <SCORE.INTRA>
-1.95792

>  <SCORE.INTRA.DIHEDRAL>
-5.79074

>  <SCORE.INTRA.DIHEDRAL.0>
20.6841

>  <SCORE.INTRA.POLAR>
0

>  <SCORE.INTRA.POLAR.0>
0

>  <SCORE.INTRA.REPUL>
0

>  <SCORE.INTRA.REPUL.0>
0

>  <SCORE.INTRA.SOLV>
0.6494

>  <SCORE.INTRA.SOLV.lig_0>
-64.6797

>  <SCORE.INTRA.VDW>
0.612752

>  <SCORE.INTRA.VDW.0>
-4.11825

>  <SCORE.INTRA.norm>
-0.0631587

>  <SCORE.RESTR>
6.98549

>  <SCORE.RESTR.CAVITY>
6.98549

>  <SCORE.RESTR.norm>
0.225338

>  <SCORE.SYSTEM>
0

>  <SCORE.SYSTEM.CONST>
0

>  <SCORE.SYSTEM.DIHEDRAL>
0

>  <SCORE.SYSTEM.SOLV>
0

>  <SCORE.SYSTEM.norm>
0

>  <SCORE.heavy>
31

>  <SCORE.norm>
0.317063

>  <RMSD>
9.448

$$$$
ligand
 OpenBabel11021811493D
libRbt.so/2013.1/901 2013/11/27
 31 33  0  0  0  0  0  0  0  0999 V2000
  -11.0366   12.7047    0.3484 C   0  0  2  0  0  0  0  0  0  0  0  0
  -11.6037   13.9977    0.5374 O   0  0  0  0  0  0  0  0  0  0  0  0
   -8.2473   16.5469    1.1034 C   0  0  2  0  0  0  0  0  0  0  0  0
   -7.4776   17.6960    1.4696 N   0  0  0  0  0  0  0  0  0  0  0  0
   -6.8365   14.7615    2.9515 C   0  0  2  0  0  0  0  0  0  0  0  0
  -12.1197   11.8463   -0.4237 C   0  0  2  0  0  0  0  0  0  0  0  0
  -12.4192   12.5010   -1.6930 N   0  0  0  0  0  0  0  0  0  0  0  0
   -9.3382   16.9936    0.0449 C   0  0  0  0  0  0  0  0  0  0  0  0
   -6.5988   13.8271    4.1799 C   0  0  2  0  0  0  0  0  0  0  0  0
   -7.7732   13.0759    4.4012 O   0  0  0  0  0  0  0  0  0  0  0  0
  -13.4287   11.6971    0.4498 C   0  0  0  0  0  0  0  0  0  0  0  0
  -10.1891   15.7316   -0.3586 C   0  0  2  0  0  0  0  0  0  0  0  0
  -11.2091   16.1419   -1.3389 N   0  0  0  0  0  0  0  0  0  0  0  0
   -6.2790   14.7520    5.4153 C   0  0  1  0  0  0  0  0  0  0  0  0
   -6.0595   13.9081    6.6363 N   0  0  0  0  0  0  0  0  0  0  0  0
  -13.1065   11.5258    1.9946 C   0  0  0  0  0  0  0  0  0  0  0  0
  -10.8843   15.1143    0.9342 C   0  0  2  0  0  0  0  0  0  0  0  0
   -4.9172   15.5840    5.0811 C   0  0  1  0  0  0  0  0  0  0  0  0
   -3.8176   14.7309    4.8121 O   0  0  0  0  0  0  0  0  0  0  0  0
  -11.8477   11.7114    2.4730 C   0  0  2  0  0  0  0  0  0  0  0  0
  -10.7483   12.0672    1.6268 O   0  0  0  0  0  0  0  0  0  0  0  0
   -9.7801   14.6890    1.9715 C   0  0  2  0  0  0  0  0  0  0  0  0
  -10.4192   14.1399    3.1439 O   0  0  0  0  0  0  0  0  0  0  0  0
   -5.1324   16.4668    3.8090 C   0  0  0  0  0  0  0  0  0  0  0  0
   -5.6000   15.5956    2.6731 O   0  0  0  0  0  0  0  0  0  0  0  0
  -11.4877   11.5553    3.9517 C   0  0  0  0  0  0  0  0  0  0  0  0
  -11.5047   10.1441    4.2720 O   0  0  0  0  0  0  0  0  0  0  0  0
   -8.9557   15.9655    2.3792 C   0  0  1  0  0  0  0  0  0  0  0  0
   -7.9966   15.5792    3.3129 O   0  0  0  0  0  0  0  0  0  0  0  0
   -4.4523   16.5503    6.1973 C   0  0  0  0  0  0  0  0  0  0  0  0
   -5.2003   12.7177    6.4728 C   0  0  0  0  0  0  0  0  0  0  0  0
  1  2  1  1  0  0  0
  1  6  1  0  0  0  0
  1 21  1  0  0  0  0
  3  4  1  1  0  0  0
  3  8  1  0  0  0  0
  3 28  1  0  0  0  0
  5  9  1  0  0  0  0
  5 25  1  0  0  0  0
  5 29  1  1  0  0  0
  6  7  1  6  0  0  0
  6 11  1  0  0  0  0
  8 12  1  0  0  0  0
  9 10  1  1  0  0  0
  9 14  1  0  0  0  0
 11 16  1  0  0  0  0
 12 13  1  6  0  0  0
 12 17  1  0  0  0  0
 14 15  1  1  0  0  0
 14 18  1  0  0  0  0
 15 31  1  0  0  0  0
 16 20  1  0  0  0  0
 17  2  1  6  0  0  0
 17 22  1  0  0  0  0
 18 19  1  6  0  0  0
 18 24  1  0  0  0  0
 18 30  1  0  0  0  0
 20 21  1  0  0  0  0
 20 26  1  6  0  0  0
 22 23  1  1  0  0  0
 22 28  1  0  0  0  0
 24 25  1  0  0  0  0
 26 27  1  0  0  0  0
 28 29  1  1  0  0  0
M  END
>  <CHROM.1>
-166.69869919,-143.83017903,45.19466425,82.55738624,72.84963296,-48.15004092
-8.89861403,14.17677664,2.58481899,2.99344926,-0.62149285,-0.76124163

>  <Name>
ligand

>  <RI>
0

>  <Rbt.Current_Directory>
/home/itssahil/PROJECTS/Mol_Feturizer/New_Systems/rnas/4GPX

>  <Rbt.Executable>
rbdock ($Id: //depot/dev/client3/rdock/2013.1/src/exe/rbdock.cxx#4 $)

>  <Rbt.Library>
libRbt.so (2013.1, Build901 2013/11/27)

>  <Rbt.Parameter_File>
/export/apps/rDock/src/rDock_2013.1_src/data/scripts/dock_solv.prm

>  <Rbt.Receptor>
prm/blind_docking_60.prm

>  <SCORE>
11.7035

>  <SCORE.INTER>
3.16356

>  <SCORE.INTER.CONST>
1

>  <SCORE.INTER.POLAR>
0

>  <SCORE.INTER.ROT>
6

>  <SCORE.INTER.SOLV>
24.6086

>  <SCORE.INTER.VDW>
-13.6938

>  <SCORE.INTER.norm>
0.10205

>  <SCORE.INTRA>
0.205843

>  <SCORE.INTRA.DIHEDRAL>
-8.62541

>  <SCORE.INTRA.DIHEDRAL.0>
20.6841

>  <SCORE.INTRA.POLAR>
0

>  <SCORE.INTRA.POLAR.0>
0

>  <SCORE.INTRA.REPUL>
0.0528453

>  <SCORE.INTRA.REPUL.0>
0

>  <SCORE.INTRA.SOLV>
0.708167

>  <SCORE.INTRA.SOLV.lig_0>
-64.6797

>  <SCORE.INTRA.VDW>
3.90024

>  <SCORE.INTRA.VDW.0>
-4.11825

>  <SCORE.INTRA.norm>
0.00664009

>  <SCORE.RESTR>
8.33405

>  <SCORE.RESTR.CAVITY>
8.33405

>  <SCORE.RESTR.norm>
0.26884

>  <SCORE.SYSTEM>
0

>  <SCORE.SYSTEM.CONST>
0

>  <SCORE.SYSTEM.DIHEDRAL>
0

>  <SCORE.SYSTEM.SOLV>
0

>  <SCORE.SYSTEM.norm>
0

>  <SCORE.heavy>
31

>  <SCORE.norm>
0.377531

>  <RMSD>
9.452

$$$$
ligand
 OpenBabel11021811493D
libRbt.so/2013.1/901 2013/11/27
 31 33  0  0  0  0  0  0  0  0999 V2000
  -11.6157   12.5312    2.4859 C   0  0  2  0  0  0  0  0  0  0  0  0
  -11.1527   13.2899    1.3727 O   0  0  0  0  0  0  0  0  0  0  0  0
   -8.4226   16.5236    0.9560 C   0  0  2  0  0  0  0  0  0  0  0  0
   -7.8949   17.8527    1.0004 N   0  0  0  0  0  0  0  0  0  0  0  0
   -6.4328   15.4020    2.8264 C   0  0  2  0  0  0  0  0  0  0  0  0
  -12.5169   11.3707    1.8966 C   0  0  2  0  0  0  0  0  0  0  0  0
  -11.7089   10.5658    0.9864 N   0  0  0  0  0  0  0  0  0  0  0  0
   -9.7131   16.5293    0.0371 C   0  0  0  0  0  0  0  0  0  0  0  0
   -6.2871   14.2006    3.8134 C   0  0  2  0  0  0  0  0  0  0  0  0
   -7.4309   13.3825    3.6902 O   0  0  0  0  0  0  0  0  0  0  0  0
  -13.7698   11.9744    1.1452 C   0  0  0  0  0  0  0  0  0  0  0  0
  -10.2981   15.0682   -0.0120 C   0  0  2  0  0  0  0  0  0  0  0  0
  -11.5019   15.0684   -0.8608 N   0  0  0  0  0  0  0  0  0  0  0  0
   -6.1760   14.8007    5.2664 C   0  0  1  0  0  0  0  0  0  0  0  0
   -6.0531   13.6884    6.2657 N   0  0  0  0  0  0  0  0  0  0  0  0
  -14.3522   13.2566    1.8777 C   0  0  0  0  0  0  0  0  0  0  0  0
  -10.6624   14.5836    1.4605 C   0  0  2  0  0  0  0  0  0  0  0  0
   -4.8381   15.7307    5.3252 C   0  0  1  0  0  0  0  0  0  0  0  0
   -3.6634   15.0045    5.0056 O   0  0  0  0  0  0  0  0  0  0  0  0
  -13.6798   13.8444    2.9024 C   0  0  2  0  0  0  0  0  0  0  0  0
  -12.4225   13.3519    3.3800 O   0  0  0  0  0  0  0  0  0  0  0  0
   -9.3665   14.5969    2.3531 C   0  0  2  0  0  0  0  0  0  0  0  0
   -9.7077   14.1660    3.6882 O   0  0  0  0  0  0  0  0  0  0  0  0
   -4.9530   16.8936    4.2867 C   0  0  0  0  0  0  0  0  0  0  0  0
   -5.2259   16.3163    2.9228 O   0  0  0  0  0  0  0  0  0  0  0  0
  -14.2011   15.0789    3.6407 C   0  0  0  0  0  0  0  0  0  0  0  0
  -13.2311   16.1409    3.4813 O   0  0  0  0  0  0  0  0  0  0  0  0
   -8.8099   16.0675    2.4085 C   0  0  1  0  0  0  0  0  0  0  0  0
   -7.6764   16.0692    3.2183 O   0  0  0  0  0  0  0  0  0  0  0  0
   -4.5714   16.4047    6.6927 C   0  0  0  0  0  0  0  0  0  0  0  0
   -5.1389   12.5820    5.9160 C   0  0  0  0  0  0  0  0  0  0  0  0
  1  2  1  6  0  0  0
  1  6  1  0  0  0  0
  1 21  1  0  0  0  0
  3  4  1  1  0  0  0
  3  8  1  0  0  0  0
  3 28  1  0  0  0  0
  5  9  1  0  0  0  0
  5 25  1  0  0  0  0
  5 29  1  1  0  0  0
  6  7  1  6  0  0  0
  6 11  1  0  0  0  0
  8 12  1  0  0  0  0
  9 10  1  1  0  0  0
  9 14  1  0  0  0  0
 11 16  1  0  0  0  0
 12 13  1  6  0  0  0
 12 17  1  0  0  0  0
 14 15  1  1  0  0  0
 14 18  1  0  0  0  0
 15 31  1  0  0  0  0
 16 20  1  0  0  0  0
 17  2  1  6  0  0  0
 17 22  1  0  0  0  0
 18 19  1  6  0  0  0
 18 24  1  0  0  0  0
 18 30  1  0  0  0  0
 20 21  1  0  0  0  0
 20 26  1  1  0  0  0
 22 23  1  1  0  0  0
 22 28  1  0  0  0  0
 24 25  1  0  0  0  0
 26 27  1  0  0  0  0
 28 29  1  1  0  0  0
M  END
>  <CHROM.1>
160.89830588,-111.80857512,43.42376383,-178.38830182,-119.84457074,-50.65840519
-9.12408825,14.59379106,2.91836522,3.07142395,-0.43279457,-0.72352490

>  <Name>
ligand

>  <RI>
0

>  <Rbt.Current_Directory>
/home/itssahil/PROJECTS/Mol_Feturizer/New_Systems/rnas/4GPX

>  <Rbt.Executable>
rbdock ($Id: //depot/dev/client3/rdock/2013.1/src/exe/rbdock.cxx#4 $)

>  <Rbt.Library>
libRbt.so (2013.1, Build901 2013/11/27)

>  <Rbt.Parameter_File>
/export/apps/rDock/src/rDock_2013.1_src/data/scripts/dock_solv.prm

>  <Rbt.Receptor>
prm/blind_docking_100.prm

>  <SCORE>
8.46064

>  <SCORE.INTER>
3.61514

>  <SCORE.INTER.CONST>
1

>  <SCORE.INTER.POLAR>
0

>  <SCORE.INTER.ROT>
6

>  <SCORE.INTER.SOLV>
23.5611

>  <SCORE.INTER.VDW>
-13.0436

>  <SCORE.INTER.norm>
0.116618

>  <SCORE.INTRA>
-0.680548

>  <SCORE.INTRA.DIHEDRAL>
-9.81593

>  <SCORE.INTRA.DIHEDRAL.0>
20.6841

>  <SCORE.INTRA.POLAR>
0

>  <SCORE.INTRA.POLAR.0>
0

>  <SCORE.INTRA.REPUL>
0

>  <SCORE.INTRA.REPUL.0>
0

>  <SCORE.INTRA.SOLV>
-0.872446

>  <SCORE.INTRA.SOLV.lig_0>
-64.6797

>  <SCORE.INTRA.VDW>
4.66364

>  <SCORE.INTRA.VDW.0>
-4.11825

>  <SCORE.INTRA.norm>
-0.0219532

>  <SCORE.RESTR>
5.52604

>  <SCORE.RESTR.CAVITY>
5.52604

>  <SCORE.RESTR.norm>
0.17826

>  <SCORE.SYSTEM>
0

>  <SCORE.SYSTEM.CONST>
0

>  <SCORE.SYSTEM.DIHEDRAL>
0

>  <SCORE.SYSTEM.SOLV>
0

>  <SCORE.SYSTEM.norm>
0

>  <SCORE.heavy>
31

>  <SCORE.norm>
0.272924

>  <RMSD>
9.474

$$$$
ligand
 OpenBabel11021811493D
libRbt.so/2013.1/901 2013/11/27
 31 33  0  0  0  0  0  0  0  0999 V2000
  -10.6176   13.3357   -0.7411 C   0  0  2  0  0  0  0  0  0  0  0  0
  -11.2636   14.5247   -0.2956 O   0  0  0  0  0  0  0  0  0  0  0  0
   -8.1331   16.8337    1.4225 C   0  0  2  0  0  0  0  0  0  0  0  0
   -7.4728   17.8454    2.1890 N   0  0  0  0  0  0  0  0  0  0  0  0
   -6.9930   14.5416    2.9269 C   0  0  2  0  0  0  0  0  0  0  0  0
  -11.5660   12.6892   -1.8314 C   0  0  2  0  0  0  0  0  0  0  0  0
  -11.7541   13.6467   -2.9163 N   0  0  0  0  0  0  0  0  0  0  0  0
   -9.0725   17.5439    0.3628 C   0  0  0  0  0  0  0  0  0  0  0  0
   -6.7357   13.5682    4.1207 C   0  0  2  0  0  0  0  0  0  0  0  0
   -7.8923   12.7817    4.3106 O   0  0  0  0  0  0  0  0  0  0  0  0
  -12.9550   12.2945   -1.1882 C   0  0  0  0  0  0  0  0  0  0  0  0
   -9.8031   16.4332   -0.4811 C   0  0  2  0  0  0  0  0  0  0  0  0
  -10.6826   17.0877   -1.4648 N   0  0  0  0  0  0  0  0  0  0  0  0
   -6.4406   14.4541    5.3903 C   0  0  1  0  0  0  0  0  0  0  0  0
   -6.2037   13.5711    6.5800 N   0  0  0  0  0  0  0  0  0  0  0  0
  -12.7981   11.7323    0.2879 C   0  0  0  0  0  0  0  0  0  0  0  0
  -10.6563   15.4969    0.4839 C   0  0  2  0  0  0  0  0  0  0  0  0
   -5.0984   15.3300    5.0912 C   0  0  1  0  0  0  0  0  0  0  0  0
   -3.9781   14.5138    4.7943 O   0  0  0  0  0  0  0  0  0  0  0  0
  -11.6105   11.8090    0.9447 C   0  0  2  0  0  0  0  0  0  0  0  0
  -10.4424   12.3924    0.3558 O   0  0  0  0  0  0  0  0  0  0  0  0
   -9.7013   14.8129    1.5309 C   0  0  2  0  0  0  0  0  0  0  0  0
  -10.4841   13.9742    2.4075 O   0  0  0  0  0  0  0  0  0  0  0  0
   -5.3318   16.2539    3.8520 C   0  0  0  0  0  0  0  0  0  0  0  0
   -5.7762   15.4145    2.6833 O   0  0  0  0  0  0  0  0  0  0  0  0
  -11.4094   11.2794    2.3658 C   0  0  0  0  0  0  0  0  0  0  0  0
  -11.9738   12.2412    3.2881 O   0  0  0  0  0  0  0  0  0  0  0  0
   -8.9983   15.9366    2.3786 C   0  0  1  0  0  0  0  0  0  0  0  0
   -8.1730   15.3176    3.3148 O   0  0  0  0  0  0  0  0  0  0  0  0
   -4.6590   16.2650    6.2438 C   0  0  0  0  0  0  0  0  0  0  0  0
   -5.1286   12.5657    6.4549 C   0  0  0  0  0  0  0  0  0  0  0  0
  1  2  1  1  0  0  0
  1  6  1  0  0  0  0
  1 21  1  0  0  0  0
  3  4  1  1  0  0  0
  3  8  1  0  0  0  0
  3 28  1  0  0  0  0
  5  9  1  0  0  0  0
  5 25  1  0  0  0  0
  5 29  1  1  0  0  0
  6  7  1  6  0  0  0
  6 11  1  0  0  0  0
  8 12  1  0  0  0  0
  9 10  1  1  0  0  0
  9 14  1  0  0  0  0
 11 16  1  0  0  0  0
 12 13  1  6  0  0  0
 12 17  1  0  0  0  0
 14 15  1  1  0  0  0
 14 18  1  0  0  0  0
 15 31  1  0  0  0  0
 16 20  1  0  0  0  0
 17  2  1  6  0  0  0
 17 22  1  0  0  0  0
 18 19  1  6  0  0  0
 18 24  1  0  0  0  0
 18 30  1  0  0  0  0
 20 21  1  0  0  0  0
 20 26  1  6  0  0  0
 22 23  1  1  0  0  0
 22 28  1  0  0  0  0
 24 25  1  0  0  0  0
 26 27  1  0  0  0  0
 28 29  1  1  0  0  0
M  END
>  <CHROM.1>
-168.27714121,-156.64182204,56.38410463,81.66517207,-78.10280812,-52.69151354
-8.81900730,14.37675671,2.13252103,2.85963452,-0.71137836,-0.66124880

>  <Name>
ligand

>  <RI>
0

>  <Rbt.Current_Directory>
/home/itssahil/PROJECTS/Mol_Feturizer/New_Systems/rnas/4GPX

>  <Rbt.Executable>
rbdock ($Id: //depot/dev/client3/rdock/2013.1/src/exe/rbdock.cxx#4 $)

>  <Rbt.Library>
libRbt.so (2013.1, Build901 2013/11/27)

>  <Rbt.Parameter_File>
/export/apps/rDock/src/rDock_2013.1_src/data/scripts/dock_solv.prm

>  <Rbt.Receptor>
prm/blind_docking_60.prm

>  <SCORE>
5.02751

>  <SCORE.INTER>
-1.85347

>  <SCORE.INTER.CONST>
1

>  <SCORE.INTER.POLAR>
0

>  <SCORE.INTER.ROT>
6

>  <SCORE.INTER.SOLV>
25.7739

>  <SCORE.INTER.VDW>
-17.4269

>  <SCORE.INTER.norm>
-0.0597894

>  <SCORE.INTRA>
-0.585213

>  <SCORE.INTRA.DIHEDRAL>
-12.092

>  <SCORE.INTRA.DIHEDRAL.0>
20.6841

>  <SCORE.INTRA.POLAR>
0

>  <SCORE.INTRA.POLAR.0>
0

>  <SCORE.INTRA.REPUL>
0

>  <SCORE.INTRA.REPUL.0>
0

>  <SCORE.INTRA.SOLV>
1.27734

>  <SCORE.INTRA.SOLV.lig_0>
-64.6797

>  <SCORE.INTRA.VDW>
4.82212

>  <SCORE.INTRA.VDW.0>
-4.11825

>  <SCORE.INTRA.norm>
-0.0188778

>  <SCORE.RESTR>
7.4662

>  <SCORE.RESTR.CAVITY>
7.4662

>  <SCORE.RESTR.norm>
0.240845

>  <SCORE.SYSTEM>
0

>  <SCORE.SYSTEM.CONST>
0

>  <SCORE.SYSTEM.DIHEDRAL>
0

>  <SCORE.SYSTEM.SOLV>
0

>  <SCORE.SYSTEM.norm>
0

>  <SCORE.heavy>
31

>  <SCORE.norm>
0.162178

>  <RMSD>
9.496

$$$$
ligand
 OpenBabel11021811493D
libRbt.so/2013.1/901 2013/11/27
 31 33  0  0  0  0  0  0  0  0999 V2000
  -12.2510   10.5401    2.0394 C   0  0  2  0  0  0  0  0  0  0  0  0
  -11.1174   11.2303    2.5568 O   0  0  0  0  0  0  0  0  0  0  0  0
   -9.6345   15.1140    1.6612 C   0  0  2  0  0  0  0  0  0  0  0  0
   -9.5072   16.5390    1.6647 N   0  0  0  0  0  0  0  0  0  0  0  0
   -6.9775   14.7854    2.7403 C   0  0  2  0  0  0  0  0  0  0  0  0
  -13.3784   10.6319    3.1469 C   0  0  2  0  0  0  0  0  0  0  0  0
  -13.6680   12.0384    3.4059 N   0  0  0  0  0  0  0  0  0  0  0  0
  -11.0842   14.7436    1.1406 C   0  0  0  0  0  0  0  0  0  0  0  0
   -6.0073   13.8548    3.5348 C   0  0  2  0  0  0  0  0  0  0  0  0
   -6.6595   12.6241    3.7641 O   0  0  0  0  0  0  0  0  0  0  0  0
  -12.9102    9.9055    4.4705 C   0  0  0  0  0  0  0  0  0  0  0  0
  -11.2288   13.1756    1.1379 C   0  0  2  0  0  0  0  0  0  0  0  0
  -12.5772   12.8252    0.6598 N   0  0  0  0  0  0  0  0  0  0  0  0
   -5.6741   14.5791    4.8943 C   0  0  1  0  0  0  0  0  0  0  0  0
   -4.7566   13.7204    5.7140 N   0  0  0  0  0  0  0  0  0  0  0  0
  -12.0726    8.5904    4.1727 C   0  0  0  0  0  0  0  0  0  0  0  0
  -11.0018   12.6107    2.6093 C   0  0  2  0  0  0  0  0  0  0  0  0
   -4.9288   15.9864    4.5446 C   0  0  1  0  0  0  0  0  0  0  0  0
   -3.7440   15.7950    3.7902 O   0  0  0  0  0  0  0  0  0  0  0  0
  -11.6559    8.2949    2.9131 C   0  0  2  0  0  0  0  0  0  0  0  0
  -11.9420    9.1377    1.7909 O   0  0  0  0  0  0  0  0  0  0  0  0
   -9.5602   13.0008    3.1048 C   0  0  2  0  0  0  0  0  0  0  0  0
   -9.3668   12.4936    4.4427 O   0  0  0  0  0  0  0  0  0  0  0  0
   -5.8744   16.8904    3.6888 C   0  0  0  0  0  0  0  0  0  0  0  0
   -6.3225   16.1270    2.4704 O   0  0  0  0  0  0  0  0  0  0  0  0
  -10.8493    7.0393    2.5761 C   0  0  0  0  0  0  0  0  0  0  0  0
  -10.3826    6.4584    3.8167 O   0  0  0  0  0  0  0  0  0  0  0  0
   -9.4424   14.5696    3.1222 C   0  0  1  0  0  0  0  0  0  0  0  0
   -8.1701   14.9014    3.5826 O   0  0  0  0  0  0  0  0  0  0  0  0
   -4.5258   16.8348    5.7749 C   0  0  0  0  0  0  0  0  0  0  0  0
   -5.3902   12.6605    6.5250 C   0  0  0  0  0  0  0  0  0  0  0  0
  1  2  1  1  0  0  0
  1  6  1  0  0  0  0
  1 21  1  0  0  0  0
  3  4  1  1  0  0  0
  3  8  1  0  0  0  0
  3 28  1  0  0  0  0
  5  9  1  0  0  0  0
  5 25  1  0  0  0  0
  5 29  1  1  0  0  0
  6  7  1  1  0  0  0
  6 11  1  0  0  0  0
  8 12  1  0  0  0  0
  9 10  1  1  0  0  0
  9 14  1  0  0  0  0
 11 16  1  0  0  0  0
 12 13  1  1  0  0  0
 12 17  1  0  0  0  0
 14 15  1  1  0  0  0
 14 18  1  0  0  0  0
 15 31  1  0  0  0  0
 16 20  1  0  0  0  0
 17  2  1  6  0  0  0
 17 22  1  0  0  0  0
 18 19  1  6  0  0  0
 18 24  1  0  0  0  0
 18 30  1  0  0  0  0
 20 21  1  0  0  0  0
 20 26  1  6  0  0  0
 22 23  1  1  0  0  0
 22 28  1  0  0  0  0
 24 25  1  0  0  0  0
 26 27  1  0  0  0  0
 28 29  1  6  0  0  0
M  END
>  <CHROM.1>
-76.50421524,-123.84369258,-83.30172274,-55.16711031,-12.91112036,-42.38066308
-9.07959382,12.80568622,3.29205524,2.52605044,0.46673510,2.79935328

>  <Name>
ligand

>  <RI>
0

>  <Rbt.Current_Directory>
/home/itssahil/PROJECTS/Mol_Feturizer/New_Systems/rnas/4GPX

>  <Rbt.Executable>
rbdock ($Id: //depot/dev/client3/rdock/2013.1/src/exe/rbdock.cxx#4 $)

>  <Rbt.Library>
libRbt.so (2013.1, Build901 2013/11/27)

>  <Rbt.Parameter_File>
/export/apps/rDock/src/rDock_2013.1_src/data/scripts/dock_solv.prm

>  <Rbt.Receptor>
prm/blind_docking_20.prm

>  <SCORE>
6.81768

>  <SCORE.INTER>
-0.0528879

>  <SCORE.INTER.CONST>
1

>  <SCORE.INTER.POLAR>
0

>  <SCORE.INTER.ROT>
6

>  <SCORE.INTER.SOLV>
19.6285

>  <SCORE.INTER.VDW>
-14.1781

>  <SCORE.INTER.norm>
-0.00170606

>  <SCORE.INTRA>
0.708981

>  <SCORE.INTRA.DIHEDRAL>
-8.45733

>  <SCORE.INTRA.DIHEDRAL.0>
20.6841

>  <SCORE.INTRA.POLAR>
0

>  <SCORE.INTRA.POLAR.0>
0

>  <SCORE.INTRA.REPUL>
0

>  <SCORE.INTRA.REPUL.0>
0

>  <SCORE.INTRA.SOLV>
3.28748

>  <SCORE.INTRA.SOLV.lig_0>
-64.6797

>  <SCORE.INTRA.VDW>
3.29391

>  <SCORE.INTRA.VDW.0>
-4.11825

>  <SCORE.INTRA.norm>
0.0228704

>  <SCORE.RESTR>
6.16159

>  <SCORE.RESTR.CAVITY>
6.16159

>  <SCORE.RESTR.norm>
0.198761

>  <SCORE.SYSTEM>
0

>  <SCORE.SYSTEM.CONST>
0

>  <SCORE.SYSTEM.DIHEDRAL>
0

>  <SCORE.SYSTEM.SOLV>
0

>  <SCORE.SYSTEM.norm>
0

>  <SCORE.heavy>
31

>  <SCORE.norm>
0.219925

>  <RMSD>
9.529

$$$$
ligand
 OpenBabel11021811493D
libRbt.so/2013.1/901 2013/11/27
 31 33  0  0  0  0  0  0  0  0999 V2000
  -12.5190   10.4239    2.1280 C   0  0  2  0  0  0  0  0  0  0  0  0
  -11.3707   11.0869    2.6487 O   0  0  0  0  0  0  0  0  0  0  0  0
   -9.6299   14.8296    1.6259 C   0  0  2  0  0  0  0  0  0  0  0  0
   -9.4282   16.2441    1.5527 N   0  0  0  0  0  0  0  0  0  0  0  0
   -7.0653   14.2514    2.9981 C   0  0  2  0  0  0  0  0  0  0  0  0
  -13.6479   10.5449    3.2312 C   0  0  2  0  0  0  0  0  0  0  0  0
  -13.9039   11.9585    3.4871 N   0  0  0  0  0  0  0  0  0  0  0  0
  -11.0599   14.4978    1.0302 C   0  0  0  0  0  0  0  0  0  0  0  0
   -6.2645   13.4835    4.0971 C   0  0  2  0  0  0  0  0  0  0  0  0
   -7.0541   12.4049    4.5508 O   0  0  0  0  0  0  0  0  0  0  0  0
  -13.2024    9.8093    4.5576 C   0  0  0  0  0  0  0  0  0  0  0  0
  -11.2864   12.9416    1.1115 C   0  0  2  0  0  0  0  0  0  0  0  0
  -12.6173   12.6275    0.5639 N   0  0  0  0  0  0  0  0  0  0  0  0
   -5.9774   14.5030    5.2641 C   0  0  1  0  0  0  0  0  0  0  0  0
   -5.2239   13.8148    6.3639 N   0  0  0  0  0  0  0  0  0  0  0  0
  -12.3962    8.4737    4.2649 C   0  0  0  0  0  0  0  0  0  0  0  0
  -11.1863   12.4606    2.6262 C   0  0  2  0  0  0  0  0  0  0  0  0
   -5.0676   15.7142    4.6609 C   0  0  1  0  0  0  0  0  0  0  0  0
   -3.8481   15.2477    4.1090 O   0  0  0  0  0  0  0  0  0  0  0  0
  -11.9822    8.1661    3.0072 C   0  0  2  0  0  0  0  0  0  0  0  0
  -12.2435    9.0140    1.8827 O   0  0  0  0  0  0  0  0  0  0  0  0
   -9.7616   12.8109    3.1951 C   0  0  2  0  0  0  0  0  0  0  0  0
   -9.6831   12.3806    4.5711 O   0  0  0  0  0  0  0  0  0  0  0  0
   -5.8414   16.4390    3.5121 C   0  0  0  0  0  0  0  0  0  0  0  0
   -6.2583   15.4264    2.4783 O   0  0  0  0  0  0  0  0  0  0  0  0
  -11.2053    6.8907    2.6750 C   0  0  0  0  0  0  0  0  0  0  0  0
   -9.8319    7.2583    2.4053 O   0  0  0  0  0  0  0  0  0  0  0  0
   -9.5628   14.3701    3.1265 C   0  0  1  0  0  0  0  0  0  0  0  0
   -8.3077   14.6682    3.6524 O   0  0  0  0  0  0  0  0  0  0  0  0
   -4.6879   16.8152    5.6804 C   0  0  0  0  0  0  0  0  0  0  0  0
   -6.0144   12.9626    7.2755 C   0  0  0  0  0  0  0  0  0  0  0  0
  1  2  1  1  0  0  0
  1  6  1  0  0  0  0
  1 21  1  0  0  0  0
  3  4  1  1  0  0  0
  3  8  1  0  0  0  0
  3 28  1  0  0  0  0
  5  9  1  0  0  0  0
  5 25  1  0  0  0  0
  5 29  1  1  0  0  0
  6  7  1  1  0  0  0
  6 11  1  0  0  0  0
  8 12  1  0  0  0  0
  9 10  1  1  0  0  0
  9 14  1  0  0  0  0
 11 16  1  0  0  0  0
 12 13  1  1  0  0  0
 12 17  1  0  0  0  0
 14 15  1  1  0  0  0
 14 18  1  0  0  0  0
 15 31  1  0  0  0  0
 16 20  1  0  0  0  0
 17  2  1  6  0  0  0
 17 22  1  0  0  0  0
 18 19  1  6  0  0  0
 18 24  1  0  0  0  0
 18 30  1  0  0  0  0
 20 21  1  0  0  0  0
 20 26  1  6  0  0  0
 22 23  1  1  0  0  0
 22 28  1  0  0  0  0
 24 25  1  0  0  0  0
 26 27  1  0  0  0  0
 28 29  1  6  0  0  0
M  END
>  <CHROM.1>
-80.58131930,-126.30973025,-78.68658937,-56.87320421,-107.13413000,-52.24510999
-9.25450937,12.64199641,3.38176394,2.61779168,0.52791370,2.73198932

>  <Name>
ligand

>  <RI>
0

>  <Rbt.Current_Directory>
/home/itssahil/PROJECTS/Mol_Feturizer/New_Systems/rnas/4GPX

>  <Rbt.Executable>
rbdock ($Id: //depot/dev/client3/rdock/2013.1/src/exe/rbdock.cxx#4 $)

>  <Rbt.Library>
libRbt.so (2013.1, Build901 2013/11/27)

>  <Rbt.Parameter_File>
/export/apps/rDock/src/rDock_2013.1_src/data/scripts/dock_solv.prm

>  <Rbt.Receptor>
prm/blind_docking_20.prm

>  <SCORE>
6.17198

>  <SCORE.INTER>
-0.24303

>  <SCORE.INTER.CONST>
1

>  <SCORE.INTER.POLAR>
0

>  <SCORE.INTER.ROT>
6

>  <SCORE.INTER.SOLV>
20.247

>  <SCORE.INTER.VDW>
-14.511

>  <SCORE.INTER.norm>
-0.00783967

>  <SCORE.INTRA>
-0.925655

>  <SCORE.INTRA.DIHEDRAL>
-9.27672

>  <SCORE.INTRA.DIHEDRAL.0>
20.6841

>  <SCORE.INTRA.POLAR>
0

>  <SCORE.INTRA.POLAR.0>
0

>  <SCORE.INTRA.REPUL>
0

>  <SCORE.INTRA.REPUL.0>
0

>  <SCORE.INTRA.SOLV>
2.79032

>  <SCORE.INTRA.SOLV.lig_0>
-64.6797

>  <SCORE.INTRA.VDW>
2.31755

>  <SCORE.INTRA.VDW.0>
-4.11825

>  <SCORE.INTRA.norm>
-0.0298599

>  <SCORE.RESTR>
7.34066

>  <SCORE.RESTR.CAVITY>
7.34066

>  <SCORE.RESTR.norm>
0.236796

>  <SCORE.SYSTEM>
0

>  <SCORE.SYSTEM.CONST>
0

>  <SCORE.SYSTEM.DIHEDRAL>
0

>  <SCORE.SYSTEM.SOLV>
0

>  <SCORE.SYSTEM.norm>
0

>  <SCORE.heavy>
31

>  <SCORE.norm>
0.199096

>  <RMSD>
9.532

$$$$
ligand
 OpenBabel11021811493D
libRbt.so/2013.1/901 2013/11/27
 31 33  0  0  0  0  0  0  0  0999 V2000
  -12.2555   10.4818    2.1011 C   0  0  2  0  0  0  0  0  0  0  0  0
  -11.1360   11.1808    2.6371 O   0  0  0  0  0  0  0  0  0  0  0  0
   -9.6781   15.0624    1.6928 C   0  0  2  0  0  0  0  0  0  0  0  0
   -9.5563   16.4879    1.6830 N   0  0  0  0  0  0  0  0  0  0  0  0
   -7.0086   14.7569    2.7431 C   0  0  2  0  0  0  0  0  0  0  0  0
  -13.4146   10.5984    3.1730 C   0  0  2  0  0  0  0  0  0  0  0  0
  -13.7086   12.0104    3.3942 N   0  0  0  0  0  0  0  0  0  0  0  0
  -11.1322   14.6824    1.1916 C   0  0  0  0  0  0  0  0  0  0  0  0
   -6.0238   13.8358    3.5308 C   0  0  2  0  0  0  0  0  0  0  0  0
   -6.6667   12.6030    3.7748 O   0  0  0  0  0  0  0  0  0  0  0  0
  -12.9869    9.8989    4.5245 C   0  0  0  0  0  0  0  0  0  0  0  0
  -11.2708   13.1139    1.2035 C   0  0  2  0  0  0  0  0  0  0  0  0
  -12.6232   12.7545    0.7436 N   0  0  0  0  0  0  0  0  0  0  0  0
   -5.6780   14.5693    4.8821 C   0  0  1  0  0  0  0  0  0  0  0  0
   -4.7461   13.7200    5.6953 N   0  0  0  0  0  0  0  0  0  0  0  0
  -12.1438    8.5766    4.2787 C   0  0  0  0  0  0  0  0  0  0  0  0
  -11.0252   12.5621    2.6769 C   0  0  2  0  0  0  0  0  0  0  0  0
   -4.9444   15.9785    4.5156 C   0  0  1  0  0  0  0  0  0  0  0  0
   -3.7679   15.7891    3.7478 O   0  0  0  0  0  0  0  0  0  0  0  0
  -11.6911    8.2543    3.0382 C   0  0  2  0  0  0  0  0  0  0  0  0
  -11.9424    9.0741    1.8909 O   0  0  0  0  0  0  0  0  0  0  0  0
   -9.5795   12.9616    3.1529 C   0  0  2  0  0  0  0  0  0  0  0  0
   -9.3691   12.4663    4.4926 O   0  0  0  0  0  0  0  0  0  0  0  0
   -5.9051   16.8728    3.6664 C   0  0  0  0  0  0  0  0  0  0  0  0
   -6.3639   16.1003    2.4578 O   0  0  0  0  0  0  0  0  0  0  0  0
  -10.8777    6.9908    2.7511 C   0  0  0  0  0  0  0  0  0  0  0  0
  -10.8611    6.1842    3.9525 O   0  0  0  0  0  0  0  0  0  0  0  0
   -9.4676   14.5310    3.1559 C   0  0  1  0  0  0  0  0  0  0  0  0
   -8.1915   14.8713    3.5992 O   0  0  0  0  0  0  0  0  0  0  0  0
   -4.5310   16.8359    5.7362 C   0  0  0  0  0  0  0  0  0  0  0  0
   -5.3662   12.6796    6.5411 C   0  0  0  0  0  0  0  0  0  0  0  0
  1  2  1  1  0  0  0
  1  6  1  0  0  0  0
  1 21  1  0  0  0  0
  3  4  1  1  0  0  0
  3  8  1  0  0  0  0
  3 28  1  0  0  0  0
  5  9  1  0  0  0  0
  5 25  1  0  0  0  0
  5 29  1  1  0  0  0
  6  7  1  1  0  0  0
  6 11  1  0  0  0  0
  8 12  1  0  0  0  0
  9 10  1  1  0  0  0
  9 14  1  0  0  0  0
 11 16  1  0  0  0  0
 12 13  1  1  0  0  0
 12 17  1  0  0  0  0
 14 15  1  1  0  0  0
 14 18  1  0  0  0  0
 15 31  1  0  0  0  0
 16 20  1  0  0  0  0
 17  2  1  6  0  0  0
 17 22  1  0  0  0  0
 18 19  1  6  0  0  0
 18 24  1  0  0  0  0
 18 30  1  0  0  0  0
 20 21  1  0  0  0  0
 20 26  1  6  0  0  0
 22 23  1  1  0  0  0
 22 28  1  0  0  0  0
 24 25  1  0  0  0  0
 26 27  1  0  0  0  0
 28 29  1  6  0  0  0
M  END
>  <CHROM.1>
-75.80714841,-123.87561401,-84.52239219,-53.17506215,7.47603685,-42.18037116
-9.12144677,12.76578774,3.32992113,2.51982883,0.46119641,2.78634416

>  <Name>
ligand

>  <RI>
0

>  <Rbt.Current_Directory>
/home/itssahil/PROJECTS/Mol_Feturizer/New_Systems/rnas/4GPX

>  <Rbt.Executable>
rbdock ($Id: //depot/dev/client3/rdock/2013.1/src/exe/rbdock.cxx#4 $)

>  <Rbt.Library>
libRbt.so (2013.1, Build901 2013/11/27)

>  <Rbt.Parameter_File>
/export/apps/rDock/src/rDock_2013.1_src/data/scripts/dock_solv.prm

>  <Rbt.Receptor>
prm/blind_docking_20.prm

>  <SCORE>
7.50674

>  <SCORE.INTER>
0.501098

>  <SCORE.INTER.CONST>
1

>  <SCORE.INTER.POLAR>
0

>  <SCORE.INTER.ROT>
6

>  <SCORE.INTER.SOLV>
19.0743

>  <SCORE.INTER.VDW>
-13.624

>  <SCORE.INTER.norm>
0.0161645

>  <SCORE.INTRA>
0.955594

>  <SCORE.INTRA.DIHEDRAL>
-8.51693

>  <SCORE.INTRA.DIHEDRAL.0>
20.6841

>  <SCORE.INTRA.POLAR>
0

>  <SCORE.INTRA.POLAR.0>
0

>  <SCORE.INTRA.REPUL>
0

>  <SCORE.INTRA.REPUL.0>
0

>  <SCORE.INTRA.SOLV>
3.49881

>  <SCORE.INTRA.SOLV.lig_0>
-64.6797

>  <SCORE.INTRA.VDW>
3.46465

>  <SCORE.INTRA.VDW.0>
-4.11825

>  <SCORE.INTRA.norm>
0.0308256

>  <SCORE.RESTR>
6.05005

>  <SCORE.RESTR.CAVITY>
6.05005

>  <SCORE.RESTR.norm>
0.195163

>  <SCORE.SYSTEM>
0

>  <SCORE.SYSTEM.CONST>
0

>  <SCORE.SYSTEM.DIHEDRAL>
0

>  <SCORE.SYSTEM.SOLV>
0

>  <SCORE.SYSTEM.norm>
0

>  <SCORE.heavy>
31

>  <SCORE.norm>
0.242153

>  <RMSD>
9.548

$$$$
ligand
 OpenBabel11021811493D
libRbt.so/2013.1/901 2013/11/27
 31 33  0  0  0  0  0  0  0  0999 V2000
  -11.4163   10.2882    4.0313 C   0  0  2  0  0  0  0  0  0  0  0  0
  -11.1686   10.8924    2.7653 O   0  0  0  0  0  0  0  0  0  0  0  0
   -9.7251   14.6081    1.2841 C   0  0  2  0  0  0  0  0  0  0  0  0
   -9.6500   16.0115    1.0160 N   0  0  0  0  0  0  0  0  0  0  0  0
   -7.2717   14.9369    2.5757 C   0  0  2  0  0  0  0  0  0  0  0  0
  -11.8283    8.7874    3.7413 C   0  0  2  0  0  0  0  0  0  0  0  0
  -10.7375    8.1311    3.0281 N   0  0  0  0  0  0  0  0  0  0  0  0
  -11.0850   14.0577    0.6859 C   0  0  0  0  0  0  0  0  0  0  0  0
   -6.3892   13.7542    3.0868 C   0  0  2  0  0  0  0  0  0  0  0  0
   -7.1060   12.5522    2.9024 O   0  0  0  0  0  0  0  0  0  0  0  0
  -13.1606    8.7367    2.8922 C   0  0  0  0  0  0  0  0  0  0  0  0
  -11.1723   12.5135    0.9815 C   0  0  2  0  0  0  0  0  0  0  0  0
  -12.4376   11.9970    0.4322 N   0  0  0  0  0  0  0  0  0  0  0  0
   -6.1024   14.0118    4.6149 C   0  0  1  0  0  0  0  0  0  0  0  0
   -5.2708   12.8931    5.1698 N   0  0  0  0  0  0  0  0  0  0  0  0
  -14.1909    9.8665    3.3185 C   0  0  0  0  0  0  0  0  0  0  0  0
  -11.1097   12.2609    2.5525 C   0  0  2  0  0  0  0  0  0  0  0  0
   -5.2782   15.4129    4.7424 C   0  0  1  0  0  0  0  0  0  0  0  0
   -4.0621   15.3900    4.0144 O   0  0  0  0  0  0  0  0  0  0  0  0
  -13.8265   10.8630    4.1682 C   0  0  2  0  0  0  0  0  0  0  0  0
  -12.5102   10.9557    4.7252 O   0  0  0  0  0  0  0  0  0  0  0  0
   -9.7554   12.8252    3.1214 C   0  0  2  0  0  0  0  0  0  0  0  0
   -9.7116   12.6011    4.5470 O   0  0  0  0  0  0  0  0  0  0  0  0
   -6.1338   16.5873    4.1659 C   0  0  0  0  0  0  0  0  0  0  0  0
   -6.5449   16.2565    2.7554 O   0  0  0  0  0  0  0  0  0  0  0  0
  -14.7836   11.9718    4.6101 C   0  0  0  0  0  0  0  0  0  0  0  0
  -15.2316   11.6702    5.9527 O   0  0  0  0  0  0  0  0  0  0  0  0
   -9.6966   14.3715    2.8368 C   0  0  1  0  0  0  0  0  0  0  0  0
   -8.5039   14.8618    3.3639 O   0  0  0  0  0  0  0  0  0  0  0  0
   -4.9091   15.8236    6.1884 C   0  0  0  0  0  0  0  0  0  0  0  0
   -5.3006   12.7097    6.6353 C   0  0  0  0  0  0  0  0  0  0  0  0
  1  2  1  6  0  0  0
  1  6  1  0  0  0  0
  1 21  1  0  0  0  0
  3  4  1  1  0  0  0
  3  8  1  0  0  0  0
  3 28  1  0  0  0  0
  5  9  1  0  0  0  0
  5 25  1  0  0  0  0
  5 29  1  1  0  0  0
  6  7  1  6  0  0  0
  6 11  1  0  0  0  0
  8 12  1  0  0  0  0
  9 10  1  1  0  0  0
  9 14  1  0  0  0  0
 11 16  1  0  0  0  0
 12 13  1  1  0  0  0
 12 17  1  0  0  0  0
 14 15  1  6  0  0  0
 14 18  1  0  0  0  0
 15 31  1  0  0  0  0
 16 20  1  0  0  0  0
 17  2  1  6  0  0  0
 17 22  1  0  0  0  0
 18 19  1  6  0  0  0
 18 24  1  0  0  0  0
 18 30  1  0  0  0  0
 20 21  1  0  0  0  0
 20 26  1  1  0  0  0
 22 23  1  1  0  0  0
 22 28  1  0  0  0  0
 24 25  1  0  0  0  0
 26 27  1  0  0  0  0
 28 29  1  6  0  0  0
M  END
>  <CHROM.1>
163.20600375,-104.32384968,-159.21282308,-166.38791778,102.68967738,-27.74147672
-9.53540332,12.86838487,3.48317880,-2.81112347,-0.44884846,-0.74909775

>  <Name>
ligand

>  <RI>
0

>  <Rbt.Current_Directory>
/home/itssahil/PROJECTS/Mol_Feturizer/New_Systems/rnas/4GPX

>  <Rbt.Executable>
rbdock ($Id: //depot/dev/client3/rdock/2013.1/src/exe/rbdock.cxx#4 $)

>  <Rbt.Library>
libRbt.so (2013.1, Build901 2013/11/27)

>  <Rbt.Parameter_File>
/export/apps/rDock/src/rDock_2013.1_src/data/scripts/dock_solv.prm

>  <Rbt.Receptor>
prm/blind_docking_20.prm

>  <SCORE>
6.03481

>  <SCORE.INTER>
-2.73795

>  <SCORE.INTER.CONST>
1

>  <SCORE.INTER.POLAR>
0

>  <SCORE.INTER.ROT>
6

>  <SCORE.INTER.SOLV>
26.2282

>  <SCORE.INTER.VDW>
-18.168

>  <SCORE.INTER.norm>
-0.088321

>  <SCORE.INTRA>
-0.754881

>  <SCORE.INTRA.DIHEDRAL>
-6.04834

>  <SCORE.INTRA.DIHEDRAL.0>
20.6841

>  <SCORE.INTRA.POLAR>
0

>  <SCORE.INTRA.POLAR.0>
0

>  <SCORE.INTRA.REPUL>
0

>  <SCORE.INTRA.REPUL.0>
0

>  <SCORE.INTRA.SOLV>
-0.832358

>  <SCORE.INTRA.SOLV.lig_0>
-64.6797

>  <SCORE.INTRA.VDW>
2.68547

>  <SCORE.INTRA.VDW.0>
-4.11825

>  <SCORE.INTRA.norm>
-0.024351

>  <SCORE.RESTR>
9.52764

>  <SCORE.RESTR.CAVITY>
9.52764

>  <SCORE.RESTR.norm>
0.307343

>  <SCORE.SYSTEM>
0

>  <SCORE.SYSTEM.CONST>
0

>  <SCORE.SYSTEM.DIHEDRAL>
0

>  <SCORE.SYSTEM.SOLV>
0

>  <SCORE.SYSTEM.norm>
0

>  <SCORE.heavy>
31

>  <SCORE.norm>
0.194671

>  <RMSD>
9.661

$$$$
ligand
 OpenBabel11021811493D
libRbt.so/2013.1/901 2013/11/27
 31 33  0  0  0  0  0  0  0  0999 V2000
  -12.7053   14.0826   -0.5268 C   0  0  2  0  0  0  0  0  0  0  0  0
  -12.0061   12.8672   -0.2755 O   0  0  0  0  0  0  0  0  0  0  0  0
  -11.0908   13.1499    3.8677 C   0  0  2  0  0  0  0  0  0  0  0  0
  -10.5947   12.7979    5.1627 N   0  0  0  0  0  0  0  0  0  0  0  0
   -7.8228   14.5145    2.4086 C   0  0  2  0  0  0  0  0  0  0  0  0
  -13.0139   14.1121   -2.0792 C   0  0  2  0  0  0  0  0  0  0  0  0
  -13.8156   12.9415   -2.4202 N   0  0  0  0  0  0  0  0  0  0  0  0
  -12.1437   12.0533    3.4217 C   0  0  0  0  0  0  0  0  0  0  0  0
   -6.6915   13.5148    2.8079 C   0  0  2  0  0  0  0  0  0  0  0  0
   -7.1568   12.2019    2.5787 O   0  0  0  0  0  0  0  0  0  0  0  0
  -11.6678   14.1273   -2.9078 C   0  0  0  0  0  0  0  0  0  0  0  0
  -12.6900   12.4362    1.9953 C   0  0  2  0  0  0  0  0  0  0  0  0
  -13.6658   11.4169    1.5727 N   0  0  0  0  0  0  0  0  0  0  0  0
   -6.3823   13.7454    4.3360 C   0  0  1  0  0  0  0  0  0  0  0  0
   -5.3116   12.7951    4.7851 N   0  0  0  0  0  0  0  0  0  0  0  0
  -10.5438   15.0092   -2.2161 C   0  0  0  0  0  0  0  0  0  0  0  0
  -11.4843   12.5084    0.9577 C   0  0  2  0  0  0  0  0  0  0  0  0
   -5.8558   15.2779    4.5166 C   0  0  1  0  0  0  0  0  0  0  0  0
   -4.7011   15.5453    3.7389 O   0  0  0  0  0  0  0  0  0  0  0  0
  -10.7076   15.4911   -0.9557 C   0  0  2  0  0  0  0  0  0  0  0  0
  -11.8869   15.2384   -0.1831 O   0  0  0  0  0  0  0  0  0  0  0  0
  -10.4502   13.5966    1.4295 C   0  0  2  0  0  0  0  0  0  0  0  0
   -9.3561   13.6483    0.4889 O   0  0  0  0  0  0  0  0  0  0  0  0
   -6.9625   16.2786    4.0503 C   0  0  0  0  0  0  0  0  0  0  0  0
   -7.3720   15.9446    2.6401 O   0  0  0  0  0  0  0  0  0  0  0  0
   -9.6551   16.3469   -0.2483 C   0  0  0  0  0  0  0  0  0  0  0  0
   -9.0502   17.2195   -1.2317 O   0  0  0  0  0  0  0  0  0  0  0  0
   -9.8992   13.1856    2.8448 C   0  0  1  0  0  0  0  0  0  0  0  0
   -8.9699   14.1449    3.2408 O   0  0  0  0  0  0  0  0  0  0  0  0
   -5.5018   15.6794    5.9689 C   0  0  0  0  0  0  0  0  0  0  0  0
   -3.9660   12.9933    4.2086 C   0  0  0  0  0  0  0  0  0  0  0  0
  1  2  1  6  0  0  0
  1  6  1  0  0  0  0
  1 21  1  0  0  0  0
  3  4  1  1  0  0  0
  3  8  1  0  0  0  0
  3 28  1  0  0  0  0
  5  9  1  0  0  0  0
  5 25  1  0  0  0  0
  5 29  1  1  0  0  0
  6  7  1  6  0  0  0
  6 11  1  0  0  0  0
  8 12  1  0  0  0  0
  9 10  1  1  0  0  0
  9 14  1  0  0  0  0
 11 16  1  0  0  0  0
 12 13  1  6  0  0  0
 12 17  1  0  0  0  0
 14 15  1  6  0  0  0
 14 18  1  0  0  0  0
 15 31  1  0  0  0  0
 16 20  1  0  0  0  0
 17  2  1  6  0  0  0
 17 22  1  0  0  0  0
 18 19  1  6  0  0  0
 18 24  1  0  0  0  0
 18 30  1  0  0  0  0
 20 21  1  0  0  0  0
 20 26  1  6  0  0  0
 22 23  1  6  0  0  0
 22 28  1  0  0  0  0
 24 25  1  0  0  0  0
 26 27  1  0  0  0  0
 28 29  1  1  0  0  0
M  END
>  <CHROM.1>
175.78969604,-88.29766489,66.80769049,60.26995196,37.13847956,-173.07557853
-9.40654990,14.05355614,1.73530533,2.64032745,-0.48192142,-0.99053003

>  <Name>
ligand

>  <RI>
0

>  <Rbt.Current_Directory>
/home/itssahil/PROJECTS/Mol_Feturizer/New_Systems/rnas/4GPX

>  <Rbt.Executable>
rbdock ($Id: //depot/dev/client3/rdock/2013.1/src/exe/rbdock.cxx#4 $)

>  <Rbt.Library>
libRbt.so (2013.1, Build901 2013/11/27)

>  <Rbt.Parameter_File>
/export/apps/rDock/src/rDock_2013.1_src/data/scripts/dock_solv.prm

>  <Rbt.Receptor>
prm/blind_docking_60.prm

>  <SCORE>
16.7926

>  <SCORE.INTER>
8.87379

>  <SCORE.INTER.CONST>
1

>  <SCORE.INTER.POLAR>
0

>  <SCORE.INTER.ROT>
6

>  <SCORE.INTER.SOLV>
24.8202

>  <SCORE.INTER.VDW>
-9.95756

>  <SCORE.INTER.norm>
0.286251

>  <SCORE.INTRA>
-1.2345

>  <SCORE.INTRA.DIHEDRAL>
-14.0402

>  <SCORE.INTRA.DIHEDRAL.0>
20.6841

>  <SCORE.INTRA.POLAR>
0

>  <SCORE.INTRA.POLAR.0>
0

>  <SCORE.INTRA.REPUL>
0

>  <SCORE.INTRA.REPUL.0>
0

>  <SCORE.INTRA.SOLV>
-1.56976

>  <SCORE.INTRA.SOLV.lig_0>
-64.6797

>  <SCORE.INTRA.VDW>
6.57046

>  <SCORE.INTRA.VDW.0>
-4.11825

>  <SCORE.INTRA.norm>
-0.0398226

>  <SCORE.RESTR>
9.15327

>  <SCORE.RESTR.CAVITY>
9.15327

>  <SCORE.RESTR.norm>
0.295267

>  <SCORE.SYSTEM>
0

>  <SCORE.SYSTEM.CONST>
0

>  <SCORE.SYSTEM.DIHEDRAL>
0

>  <SCORE.SYSTEM.SOLV>
0

>  <SCORE.SYSTEM.norm>
0

>  <SCORE.heavy>
31

>  <SCORE.norm>
0.541695

>  <RMSD>
9.794

$$$$
ligand
 OpenBabel11021811493D
libRbt.so/2013.1/901 2013/11/27
 31 33  0  0  0  0  0  0  0  0999 V2000
  -10.7931   12.8369    0.4909 C   0  0  2  0  0  0  0  0  0  0  0  0
  -11.4159   14.1104    0.6308 O   0  0  0  0  0  0  0  0  0  0  0  0
   -8.2918   16.8991   -0.1093 C   0  0  2  0  0  0  0  0  0  0  0  0
   -7.5695   18.1337   -0.1368 N   0  0  0  0  0  0  0  0  0  0  0  0
   -7.3231   16.2783    3.5303 C   0  0  2  0  0  0  0  0  0  0  0  0
  -11.8365   11.9039   -0.2485 C   0  0  2  0  0  0  0  0  0  0  0  0
  -12.1616   12.4967   -1.5417 N   0  0  0  0  0  0  0  0  0  0  0  0
   -9.6565   17.1016   -0.8882 C   0  0  0  0  0  0  0  0  0  0  0  0
   -5.8144   16.4823    3.8780 C   0  0  2  0  0  0  0  0  0  0  0  0
   -5.3962   17.7170    3.3366 O   0  0  0  0  0  0  0  0  0  0  0  0
  -13.1395   11.7312    0.6296 C   0  0  0  0  0  0  0  0  0  0  0  0
  -10.4554   15.7451   -0.8576 C   0  0  2  0  0  0  0  0  0  0  0  0
  -11.7282   15.9289   -1.5759 N   0  0  0  0  0  0  0  0  0  0  0  0
   -5.0200   15.2844    3.2316 C   0  0  1  0  0  0  0  0  0  0  0  0
   -3.5547   15.4363    3.5161 N   0  0  0  0  0  0  0  0  0  0  0  0
  -12.8132   11.6325    2.1799 C   0  0  0  0  0  0  0  0  0  0  0  0
  -10.7310   15.3155    0.6507 C   0  0  2  0  0  0  0  0  0  0  0  0
   -5.5609   13.9013    3.9045 C   0  0  1  0  0  0  0  0  0  0  0  0
   -5.4013   13.8896    5.3129 O   0  0  0  0  0  0  0  0  0  0  0  0
  -11.5646   11.8903    2.6513 C   0  0  2  0  0  0  0  0  0  0  0  0
  -10.4799   12.2612    1.7926 O   0  0  0  0  0  0  0  0  0  0  0  0
   -9.3611   15.1311    1.4027 C   0  0  2  0  0  0  0  0  0  0  0  0
   -9.6204   14.7516    2.7714 O   0  0  0  0  0  0  0  0  0  0  0  0
   -7.0881   13.7318    3.6164 C   0  0  0  0  0  0  0  0  0  0  0  0
   -7.8219   14.9589    4.0892 O   0  0  0  0  0  0  0  0  0  0  0  0
  -11.2010   11.8059    4.1350 C   0  0  0  0  0  0  0  0  0  0  0  0
  -11.3290   13.1298    4.7052 O   0  0  0  0  0  0  0  0  0  0  0  0
   -8.5879   16.5012    1.3812 C   0  0  1  0  0  0  0  0  0  0  0  0
   -7.3880   16.3299    2.0680 O   0  0  0  0  0  0  0  0  0  0  0  0
   -4.8824   12.6122    3.3815 C   0  0  0  0  0  0  0  0  0  0  0  0
   -3.1898   15.9696    4.8445 C   0  0  0  0  0  0  0  0  0  0  0  0
  1  2  1  1  0  0  0
  1  6  1  0  0  0  0
  1 21  1  0  0  0  0
  3  4  1  1  0  0  0
  3  8  1  0  0  0  0
  3 28  1  0  0  0  0
  5  9  1  0  0  0  0
  5 25  1  0  0  0  0
  5 29  1  6  0  0  0
  6  7  1  6  0  0  0
  6 11  1  0  0  0  0
  8 12  1  0  0  0  0
  9 10  1  6  0  0  0
  9 14  1  0  0  0  0
 11 16  1  0  0  0  0
 12 13  1  6  0  0  0
 12 17  1  0  0  0  0
 14 15  1  1  0  0  0
 14 18  1  0  0  0  0
 15 31  1  0  0  0  0
 16 20  1  0  0  0  0
 17  2  1  6  0  0  0
 17 22  1  0  0  0  0
 18 19  1  1  0  0  0
 18 24  1  0  0  0  0
 18 30  1  0  0  0  0
 20 21  1  0  0  0  0
 20 26  1  6  0  0  0
 22 23  1  1  0  0  0
 22 28  1  0  0  0  0
 24 25  1  0  0  0  0
 26 27  1  0  0  0  0
 28 29  1  1  0  0  0
M  END
>  <CHROM.1>
-149.74619330,-164.58792587,37.22333569,82.71452042,-94.30232728,164.81147207
-8.72742762,14.57238160,2.07882947,3.09984869,-0.53919552,-0.75069849

>  <Name>
ligand

>  <RI>
0

>  <Rbt.Current_Directory>
/home/itssahil/PROJECTS/Mol_Feturizer/New_Systems/rnas/4GPX

>  <Rbt.Executable>
rbdock ($Id: //depot/dev/client3/rdock/2013.1/src/exe/rbdock.cxx#4 $)

>  <Rbt.Library>
libRbt.so (2013.1, Build901 2013/11/27)

>  <Rbt.Parameter_File>
/export/apps/rDock/src/rDock_2013.1_src/data/scripts/dock_solv.prm

>  <Rbt.Receptor>
prm/blind_docking_60.prm

>  <SCORE>
21.9026

>  <SCORE.INTER>
14.4415

>  <SCORE.INTER.CONST>
1

>  <SCORE.INTER.POLAR>
0

>  <SCORE.INTER.ROT>
6

>  <SCORE.INTER.SOLV>
27.3187

>  <SCORE.INTER.VDW>
-7.07856

>  <SCORE.INTER.norm>
0.465856

>  <SCORE.INTRA>
1.4595

>  <SCORE.INTRA.DIHEDRAL>
-9.77828

>  <SCORE.INTRA.DIHEDRAL.0>
20.6841

>  <SCORE.INTRA.POLAR>
0

>  <SCORE.INTRA.POLAR.0>
0

>  <SCORE.INTRA.REPUL>
0

>  <SCORE.INTRA.REPUL.0>
0

>  <SCORE.INTRA.SOLV>
0.0124145

>  <SCORE.INTRA.SOLV.lig_0>
-64.6797

>  <SCORE.INTRA.VDW>
6.34243

>  <SCORE.INTRA.VDW.0>
-4.11825

>  <SCORE.INTRA.norm>
0.0470805

>  <SCORE.RESTR>
6.00158

>  <SCORE.RESTR.CAVITY>
6.00158

>  <SCORE.RESTR.norm>
0.193599

>  <SCORE.SYSTEM>
0

>  <SCORE.SYSTEM.CONST>
0

>  <SCORE.SYSTEM.DIHEDRAL>
0

>  <SCORE.SYSTEM.SOLV>
0

>  <SCORE.SYSTEM.norm>
0

>  <SCORE.heavy>
31

>  <SCORE.norm>
0.706536

>  <RMSD>
9.827

$$$$
ligand
 OpenBabel11021811493D
libRbt.so/2013.1/901 2013/11/27
 31 33  0  0  0  0  0  0  0  0999 V2000
  -12.8074   10.2923    2.3725 C   0  0  2  0  0  0  0  0  0  0  0  0
  -11.6524   11.0096    2.7974 O   0  0  0  0  0  0  0  0  0  0  0  0
  -10.2114   14.8335    1.6203 C   0  0  2  0  0  0  0  0  0  0  0  0
  -10.0858   16.2562    1.5364 N   0  0  0  0  0  0  0  0  0  0  0  0
   -7.5448   14.7408    2.5536 C   0  0  2  0  0  0  0  0  0  0  0  0
  -13.8244   10.3168    3.5854 C   0  0  2  0  0  0  0  0  0  0  0  0
  -14.1338   11.7053    3.9100 N   0  0  0  0  0  0  0  0  0  0  0  0
  -11.6804   14.4353    1.1806 C   0  0  0  0  0  0  0  0  0  0  0  0
   -6.5117   13.7319    3.1481 C   0  0  2  0  0  0  0  0  0  0  0  0
   -7.1375   12.4722    3.2663 O   0  0  0  0  0  0  0  0  0  0  0  0
  -13.2061    9.5754    4.8371 C   0  0  0  0  0  0  0  0  0  0  0  0
  -11.8231   12.8700    1.2742 C   0  0  2  0  0  0  0  0  0  0  0  0
  -13.1893   12.4941    0.8718 N   0  0  0  0  0  0  0  0  0  0  0  0
   -6.0805   14.2827    4.5604 C   0  0  1  0  0  0  0  0  0  0  0  0
   -5.0986   13.3411    5.1930 N   0  0  0  0  0  0  0  0  0  0  0  0
  -12.3583    8.2987    4.4238 C   0  0  0  0  0  0  0  0  0  0  0  0
  -11.5365   12.3907    2.7655 C   0  0  2  0  0  0  0  0  0  0  0  0
   -5.3720   15.7344    4.3388 C   0  0  1  0  0  0  0  0  0  0  0  0
   -4.2468   15.6586    3.4799 O   0  0  0  0  0  0  0  0  0  0  0  0
  -12.0563    8.0491    3.1222 C   0  0  2  0  0  0  0  0  0  0  0  0
  -12.4778    8.9084    2.0566 O   0  0  0  0  0  0  0  0  0  0  0  0
  -10.0765   12.8071    3.1793 C   0  0  2  0  0  0  0  0  0  0  0  0
   -9.8289   12.3777    4.5353 O   0  0  0  0  0  0  0  0  0  0  0  0
   -6.3850   16.7250    3.6784 C   0  0  0  0  0  0  0  0  0  0  0  0
   -6.9198   16.1158    2.4092 O   0  0  0  0  0  0  0  0  0  0  0  0
  -11.2451    6.8317    2.6744 C   0  0  0  0  0  0  0  0  0  0  0  0
   -9.8959    7.2706    2.3895 O   0  0  0  0  0  0  0  0  0  0  0  0
   -9.9601   14.3742    3.1013 C   0  0  1  0  0  0  0  0  0  0  0  0
   -8.6707   14.7305    3.4903 O   0  0  0  0  0  0  0  0  0  0  0  0
   -4.8818   16.4258    5.6339 C   0  0  0  0  0  0  0  0  0  0  0  0
   -3.8870   13.0232    4.4099 C   0  0  0  0  0  0  0  0  0  0  0  0
  1  2  1  1  0  0  0
  1  6  1  0  0  0  0
  1 21  1  0  0  0  0
  3  4  1  1  0  0  0
  3  8  1  0  0  0  0
  3 28  1  0  0  0  0
  5  9  1  0  0  0  0
  5 25  1  0  0  0  0
  5 29  1  1  0  0  0
  6  7  1  1  0  0  0
  6 11  1  0  0  0  0
  8 12  1  0  0  0  0
  9 10  1  1  0  0  0
  9 14  1  0  0  0  0
 11 16  1  0  0  0  0
 12 13  1  1  0  0  0
 12 17  1  0  0  0  0
 14 15  1  6  0  0  0
 14 18  1  0  0  0  0
 15 31  1  0  0  0  0
 16 20  1  0  0  0  0
 17  2  1  6  0  0  0
 17 22  1  0  0  0  0
 18 19  1  6  0  0  0
 18 24  1  0  0  0  0
 18 30  1  0  0  0  0
 20 21  1  0  0  0  0
 20 26  1  6  0  0  0
 22 23  1  1  0  0  0
 22 28  1  0  0  0  0
 24 25  1  0  0  0  0
 26 27  1  0  0  0  0
 28 29  1  6  0  0  0
M  END
>  <CHROM.1>
-82.45078794,-120.49713499,55.44770548,-55.47042138,-102.37140546,-33.70566645
-9.46298281,12.63207478,3.18121667,2.49122697,0.31516305,2.91836727

>  <Name>
ligand

>  <RI>
0

>  <Rbt.Current_Directory>
/home/itssahil/PROJECTS/Mol_Feturizer/New_Systems/rnas/4GPX

>  <Rbt.Executable>
rbdock ($Id: //depot/dev/client3/rdock/2013.1/src/exe/rbdock.cxx#4 $)

>  <Rbt.Library>
libRbt.so (2013.1, Build901 2013/11/27)

>  <Rbt.Parameter_File>
/export/apps/rDock/src/rDock_2013.1_src/data/scripts/dock_solv.prm

>  <Rbt.Receptor>
prm/blind_docking_20.prm

>  <SCORE>
8.04715

>  <SCORE.INTER>
-1.6477

>  <SCORE.INTER.CONST>
1

>  <SCORE.INTER.POLAR>
0

>  <SCORE.INTER.ROT>
6

>  <SCORE.INTER.SOLV>
19.9559

>  <SCORE.INTER.VDW>
-15.3504

>  <SCORE.INTER.norm>
-0.0531516

>  <SCORE.INTRA>
2.70118

>  <SCORE.INTRA.DIHEDRAL>
-6.18043

>  <SCORE.INTRA.DIHEDRAL.0>
20.6841

>  <SCORE.INTRA.POLAR>
0

>  <SCORE.INTRA.POLAR.0>
0

>  <SCORE.INTRA.REPUL>
0

>  <SCORE.INTRA.REPUL.0>
0

>  <SCORE.INTRA.SOLV>
2.88852

>  <SCORE.INTRA.SOLV.lig_0>
-64.6797

>  <SCORE.INTRA.VDW>
4.34713

>  <SCORE.INTRA.VDW.0>
-4.11825

>  <SCORE.INTRA.norm>
0.0871347

>  <SCORE.RESTR>
6.99368

>  <SCORE.RESTR.CAVITY>
6.99368

>  <SCORE.RESTR.norm>
0.225602

>  <SCORE.SYSTEM>
0

>  <SCORE.SYSTEM.CONST>
0

>  <SCORE.SYSTEM.DIHEDRAL>
0

>  <SCORE.SYSTEM.SOLV>
0

>  <SCORE.SYSTEM.norm>
0

>  <SCORE.heavy>
31

>  <SCORE.norm>
0.259586

>  <RMSD>
9.893

$$$$
ligand
 OpenBabel11021811493D
libRbt.so/2013.1/901 2013/11/27
 31 33  0  0  0  0  0  0  0  0999 V2000
  -12.7022   10.0239    2.5018 C   0  0  2  0  0  0  0  0  0  0  0  0
  -11.6526   10.8374    3.0174 O   0  0  0  0  0  0  0  0  0  0  0  0
  -10.3997   14.6373    1.5767 C   0  0  2  0  0  0  0  0  0  0  0  0
  -10.3419   16.0555    1.3973 N   0  0  0  0  0  0  0  0  0  0  0  0
   -7.7420   14.7876    2.4768 C   0  0  2  0  0  0  0  0  0  0  0  0
  -13.7926    9.9177    3.6444 C   0  0  2  0  0  0  0  0  0  0  0  0
  -14.2567   11.2608    3.9761 N   0  0  0  0  0  0  0  0  0  0  0  0
  -11.8504   14.1423    1.1765 C   0  0  0  0  0  0  0  0  0  0  0  0
   -6.7132   13.7250    2.9779 C   0  0  2  0  0  0  0  0  0  0  0  0
   -7.3578   12.4700    3.0260 O   0  0  0  0  0  0  0  0  0  0  0  0
  -13.1866    9.2059    4.9191 C   0  0  0  0  0  0  0  0  0  0  0  0
  -11.9186   12.5817    1.3752 C   0  0  2  0  0  0  0  0  0  0  0  0
  -13.2674   12.1162    1.0097 N   0  0  0  0  0  0  0  0  0  0  0  0
   -6.2411   14.1726    4.4133 C   0  0  1  0  0  0  0  0  0  0  0  0
   -5.2615   13.1753    4.9582 N   0  0  0  0  0  0  0  0  0  0  0  0
  -12.1931    8.0283    4.5371 C   0  0  0  0  0  0  0  0  0  0  0  0
  -11.6022   12.2171    2.8927 C   0  0  2  0  0  0  0  0  0  0  0  0
   -5.5130   15.6247    4.2729 C   0  0  1  0  0  0  0  0  0  0  0  0
   -4.4089   15.5894    3.3846 O   0  0  0  0  0  0  0  0  0  0  0  0
  -11.7850    7.8440    3.2537 C   0  0  2  0  0  0  0  0  0  0  0  0
  -12.2190    8.6871    2.1802 O   0  0  0  0  0  0  0  0  0  0  0  0
  -10.1615   12.7282    3.2660 C   0  0  2  0  0  0  0  0  0  0  0  0
   -9.8871   12.4025    4.6456 O   0  0  0  0  0  0  0  0  0  0  0  0
   -6.5235   16.6733    3.7043 C   0  0  0  0  0  0  0  0  0  0  0  0
   -7.0970   16.1593    2.4102 O   0  0  0  0  0  0  0  0  0  0  0  0
  -10.8315    6.7229    2.8361 C   0  0  0  0  0  0  0  0  0  0  0  0
   -9.9718    6.4218    3.9607 O   0  0  0  0  0  0  0  0  0  0  0  0
  -10.1196   14.2903    3.0830 C   0  0  1  0  0  0  0  0  0  0  0  0
   -8.8466   14.7318    3.4369 O   0  0  0  0  0  0  0  0  0  0  0  0
   -4.9821   16.2195    5.5996 C   0  0  0  0  0  0  0  0  0  0  0  0
   -5.4311   12.7854    6.3728 C   0  0  0  0  0  0  0  0  0  0  0  0
  1  2  1  1  0  0  0
  1  6  1  0  0  0  0
  1 21  1  0  0  0  0
  3  4  1  1  0  0  0
  3  8  1  0  0  0  0
  3 28  1  0  0  0  0
  5  9  1  0  0  0  0
  5 25  1  0  0  0  0
  5 29  1  1  0  0  0
  6  7  1  1  0  0  0
  6 11  1  0  0  0  0
  8 12  1  0  0  0  0
  9 10  1  1  0  0  0
  9 14  1  0  0  0  0
 11 16  1  0  0  0  0
 12 13  1  1  0  0  0
 12 17  1  0  0  0  0
 14 15  1  6  0  0  0
 14 18  1  0  0  0  0
 15 31  1  0  0  0  0
 16 20  1  0  0  0  0
 17  2  1  6  0  0  0
 17 22  1  0  0  0  0
 18 19  1  6  0  0  0
 18 24  1  0  0  0  0
 18 30  1  0  0  0  0
 20 21  1  0  0  0  0
 20 26  1  6  0  0  0
 22 23  1  1  0  0  0
 22 28  1  0  0  0  0
 24 25  1  0  0  0  0
 26 27  1  0  0  0  0
 28 29  1  6  0  0  0
M  END
>  <CHROM.1>
-89.75792931,-113.74761487,-136.62085259,-47.37656764,-29.19014681,-30.94595248
-9.57791354,12.44354276,3.31697966,2.45114021,0.39557632,2.81540133

>  <Name>
ligand

>  <RI>
0

>  <Rbt.Current_Directory>
/home/itssahil/PROJECTS/Mol_Feturizer/New_Systems/rnas/4GPX

>  <Rbt.Executable>
rbdock ($Id: //depot/dev/client3/rdock/2013.1/src/exe/rbdock.cxx#4 $)

>  <Rbt.Library>
libRbt.so (2013.1, Build901 2013/11/27)

>  <Rbt.Parameter_File>
/export/apps/rDock/src/rDock_2013.1_src/data/scripts/dock_solv.prm

>  <Rbt.Receptor>
prm/blind_docking_20.prm

>  <SCORE>
6.41193

>  <SCORE.INTER>
-3.85711

>  <SCORE.INTER.CONST>
1

>  <SCORE.INTER.POLAR>
0

>  <SCORE.INTER.ROT>
6

>  <SCORE.INTER.SOLV>
20.0488

>  <SCORE.INTER.VDW>
-16.8543

>  <SCORE.INTER.norm>
-0.124423

>  <SCORE.INTRA>
3.62588

>  <SCORE.INTRA.DIHEDRAL>
-2.35298

>  <SCORE.INTRA.DIHEDRAL.0>
20.6841

>  <SCORE.INTRA.POLAR>
0

>  <SCORE.INTRA.POLAR.0>
0

>  <SCORE.INTRA.REPUL>
0

>  <SCORE.INTRA.REPUL.0>
0

>  <SCORE.INTRA.SOLV>
2.42702

>  <SCORE.INTRA.SOLV.lig_0>
-64.6797

>  <SCORE.INTRA.VDW>
3.58886

>  <SCORE.INTRA.VDW.0>
-4.11825

>  <SCORE.INTRA.norm>
0.116964

>  <SCORE.RESTR>
6.64315

>  <SCORE.RESTR.CAVITY>
6.64315

>  <SCORE.RESTR.norm>
0.214295

>  <SCORE.SYSTEM>
0

>  <SCORE.SYSTEM.CONST>
0

>  <SCORE.SYSTEM.DIHEDRAL>
0

>  <SCORE.SYSTEM.SOLV>
0

>  <SCORE.SYSTEM.norm>
0

>  <SCORE.heavy>
31

>  <SCORE.norm>
0.206836

>  <RMSD>
9.983

$$$$
ligand
 OpenBabel11021811493D
libRbt.so/2013.1/901 2013/11/27
 31 33  0  0  0  0  0  0  0  0999 V2000
   -6.1016   15.8388    4.2804 C   0  0  2  0  0  0  0  0  0  0  0  0
   -6.2665   15.4300    2.9258 O   0  0  0  0  0  0  0  0  0  0  0  0
  -10.4950   15.2913    2.4957 C   0  0  2  0  0  0  0  0  0  0  0  0
  -11.7809   15.1460    1.8856 N   0  0  0  0  0  0  0  0  0  0  0  0
  -11.8423   12.8673    3.0478 C   0  0  2  0  0  0  0  0  0  0  0  0
   -4.7425   16.6480    4.3444 C   0  0  2  0  0  0  0  0  0  0  0  0
   -4.8324   17.7881    3.4380 N   0  0  0  0  0  0  0  0  0  0  0  0
   -9.7195   16.4569    1.7541 C   0  0  0  0  0  0  0  0  0  0  0  0
  -12.1721   11.7700    4.1089 C   0  0  2  0  0  0  0  0  0  0  0  0
  -11.5768   12.1422    5.3335 O   0  0  0  0  0  0  0  0  0  0  0  0
   -3.5279   15.7161    3.9503 C   0  0  0  0  0  0  0  0  0  0  0  0
   -8.3024   16.6179    2.4215 C   0  0  2  0  0  0  0  0  0  0  0  0
   -7.5742   17.6970    1.7323 N   0  0  0  0  0  0  0  0  0  0  0  0
  -11.5719   10.4125    3.5790 C   0  0  1  0  0  0  0  0  0  0  0  0
  -11.8410    9.3187    4.5700 N   0  0  0  0  0  0  0  0  0  0  0  0
   -3.6994   14.2371    4.5004 C   0  0  0  0  0  0  0  0  0  0  0  0
   -7.4952   15.2498    2.3097 C   0  0  2  0  0  0  0  0  0  0  0  0
  -12.3055   10.0557    2.1673 C   0  0  1  0  0  0  0  0  0  0  0  0
  -13.7122    9.9472    2.3042 O   0  0  0  0  0  0  0  0  0  0  0  0
   -4.8722   13.8253    5.0505 C   0  0  2  0  0  0  0  0  0  0  0  0
   -6.0107   14.6864    5.1679 O   0  0  0  0  0  0  0  0  0  0  0  0
   -8.2915   14.1089    3.0450 C   0  0  2  0  0  0  0  0  0  0  0  0
   -7.5578   12.8708    2.9301 O   0  0  0  0  0  0  0  0  0  0  0  0
  -12.0339   11.1893    1.1256 C   0  0  0  0  0  0  0  0  0  0  0  0
  -12.4591   12.5113    1.7082 O   0  0  0  0  0  0  0  0  0  0  0  0
   -5.0849   12.4120    5.5963 C   0  0  0  0  0  0  0  0  0  0  0  0
   -6.1639   12.4597    6.5595 O   0  0  0  0  0  0  0  0  0  0  0  0
   -9.6941   13.9477    2.3506 C   0  0  1  0  0  0  0  0  0  0  0  0
  -10.3795   12.9213    2.9967 O   0  0  0  0  0  0  0  0  0  0  0  0
  -11.8331    8.7412    1.5003 C   0  0  0  0  0  0  0  0  0  0  0  0
  -11.0499    8.0802    4.4204 C   0  0  0  0  0  0  0  0  0  0  0  0
  1  2  1  6  0  0  0
  1  6  1  0  0  0  0
  1 21  1  0  0  0  0
  3  4  1  6  0  0  0
  3  8  1  0  0  0  0
  3 28  1  0  0  0  0
  5  9  1  0  0  0  0
  5 25  1  0  0  0  0
  5 29  1  6  0  0  0
  6  7  1  6  0  0  0
  6 11  1  0  0  0  0
  8 12  1  0  0  0  0
  9 10  1  1  0  0  0
  9 14  1  0  0  0  0
 11 16  1  0  0  0  0
 12 13  1  6  0  0  0
 12 17  1  0  0  0  0
 14 15  1  1  0  0  0
 14 18  1  0  0  0  0
 15 31  1  0  0  0  0
 16 20  1  0  0  0  0
 17  2  1  1  0  0  0
 17 22  1  0  0  0  0
 18 19  1  1  0  0  0
 18 24  1  0  0  0  0
 18 30  1  0  0  0  0
 20 21  1  0  0  0  0
 20 26  1  1  0  0  0
 22 23  1  6  0  0  0
 22 28  1  0  0  0  0
 24 25  1  0  0  0  0
 26 27  1  0  0  0  0
 28 29  1  1  0  0  0
M  END
>  <CHROM.1>
-149.83940750,-167.79937488,-164.00563674,57.14812230,156.92338821,33.85820402
-8.88542931,13.38353689,3.35935819,-0.50454809,0.43437763,2.70246947

>  <Name>
ligand

>  <RI>
0

>  <Rbt.Current_Directory>
/home/itssahil/PROJECTS/Mol_Feturizer/New_Systems/rnas/4GPX

>  <Rbt.Executable>
rbdock ($Id: //depot/dev/client3/rdock/2013.1/src/exe/rbdock.cxx#4 $)

>  <Rbt.Library>
libRbt.so (2013.1, Build901 2013/11/27)

>  <Rbt.Parameter_File>
/export/apps/rDock/src/rDock_2013.1_src/data/scripts/dock_solv.prm

>  <Rbt.Receptor>
prm/blind_docking_20.prm

>  <SCORE>
16.4224

>  <SCORE.INTER>
9.32946

>  <SCORE.INTER.CONST>
1

>  <SCORE.INTER.POLAR>
0

>  <SCORE.INTER.ROT>
6

>  <SCORE.INTER.SOLV>
33.2074

>  <SCORE.INTER.VDW>
-12.4495

>  <SCORE.INTER.norm>
0.30095

>  <SCORE.INTRA>
0.420094

>  <SCORE.INTRA.DIHEDRAL>
-10.2433

>  <SCORE.INTRA.DIHEDRAL.0>
20.6841

>  <SCORE.INTRA.POLAR>
0

>  <SCORE.INTRA.POLAR.0>
0

>  <SCORE.INTRA.REPUL>
0

>  <SCORE.INTRA.REPUL.0>
0

>  <SCORE.INTRA.SOLV>
1.89737

>  <SCORE.INTRA.SOLV.lig_0>
-64.6797

>  <SCORE.INTRA.VDW>
4.59304

>  <SCORE.INTRA.VDW.0>
-4.11825

>  <SCORE.INTRA.norm>
0.0135514

>  <SCORE.RESTR>
6.67281

>  <SCORE.RESTR.CAVITY>
6.67281

>  <SCORE.RESTR.norm>
0.215252

>  <SCORE.SYSTEM>
0

>  <SCORE.SYSTEM.CONST>
0

>  <SCORE.SYSTEM.DIHEDRAL>
0

>  <SCORE.SYSTEM.SOLV>
0

>  <SCORE.SYSTEM.norm>
0

>  <SCORE.heavy>
31

>  <SCORE.norm>
0.529754

>  <RMSD>
10.359

$$$$
ligand
 OpenBabel11021811493D
libRbt.so/2013.1/901 2013/11/27
 31 33  0  0  0  0  0  0  0  0999 V2000
  -11.2018    9.8781    3.7810 C   0  0  2  0  0  0  0  0  0  0  0  0
  -12.3920   10.6591    3.8338 O   0  0  0  0  0  0  0  0  0  0  0  0
  -11.5780   14.2083    1.6374 C   0  0  2  0  0  0  0  0  0  0  0  0
  -11.6525   15.5707    1.2072 N   0  0  0  0  0  0  0  0  0  0  0  0
   -8.9289   14.8187    2.1987 C   0  0  2  0  0  0  0  0  0  0  0  0
  -10.9392    9.5600    2.2526 C   0  0  2  0  0  0  0  0  0  0  0  0
  -10.7975   10.8193    1.5291 N   0  0  0  0  0  0  0  0  0  0  0  0
  -13.0101   13.5524    1.4682 C   0  0  0  0  0  0  0  0  0  0  0  0
   -7.9205   13.6559    2.4627 C   0  0  2  0  0  0  0  0  0  0  0  0
   -8.6410   12.4426    2.5014 O   0  0  0  0  0  0  0  0  0  0  0  0
  -12.1274    8.7045    1.6565 C   0  0  0  0  0  0  0  0  0  0  0  0
  -12.9325   12.0532    1.9433 C   0  0  2  0  0  0  0  0  0  0  0  0
  -14.2631   11.4394    1.7934 N   0  0  0  0  0  0  0  0  0  0  0  0
   -7.2267   13.9448    3.8480 C   0  0  1  0  0  0  0  0  0  0  0  0
   -6.2563   12.8460    4.1673 N   0  0  0  0  0  0  0  0  0  0  0  0
  -12.6848    7.6410    2.6946 C   0  0  0  0  0  0  0  0  0  0  0  0
  -12.4663   11.9932    3.4647 C   0  0  2  0  0  0  0  0  0  0  0  0
   -6.4220   15.3573    3.7222 C   0  0  1  0  0  0  0  0  0  0  0  0
   -5.4543   15.3350    2.6866 O   0  0  0  0  0  0  0  0  0  0  0  0
  -12.2927    7.6595    3.9960 C   0  0  2  0  0  0  0  0  0  0  0  0
  -11.3653    8.6245    4.5060 O   0  0  0  0  0  0  0  0  0  0  0  0
  -11.0476   12.6592    3.6056 C   0  0  2  0  0  0  0  0  0  0  0  0
  -10.6373   12.6095    4.9890 O   0  0  0  0  0  0  0  0  0  0  0  0
   -7.4225   16.5111    3.3878 C   0  0  0  0  0  0  0  0  0  0  0  0
   -8.2020   16.1497    2.1511 O   0  0  0  0  0  0  0  0  0  0  0  0
  -12.7996    6.6549    5.0326 C   0  0  0  0  0  0  0  0  0  0  0  0
  -11.6619    5.9155    5.5357 O   0  0  0  0  0  0  0  0  0  0  0  0
  -11.1501   14.1611    3.1481 C   0  0  1  0  0  0  0  0  0  0  0  0
   -9.8938   14.7441    3.2980 O   0  0  0  0  0  0  0  0  0  0  0  0
   -5.6743   15.7988    5.0034 C   0  0  0  0  0  0  0  0  0  0  0  0
   -5.9329   12.6421    5.5942 C   0  0  0  0  0  0  0  0  0  0  0  0
  1  2  1  6  0  0  0
  1  6  1  0  0  0  0
  1 21  1  0  0  0  0
  3  4  1  1  0  0  0
  3  8  1  0  0  0  0
  3 28  1  0  0  0  0
  5  9  1  0  0  0  0
  5 25  1  0  0  0  0
  5 29  1  1  0  0  0
  6  7  1  6  0  0  0
  6 11  1  0  0  0  0
  8 12  1  0  0  0  0
  9 10  1  1  0  0  0
  9 14  1  0  0  0  0
 11 16  1  0  0  0  0
 12 13  1  1  0  0  0
 12 17  1  0  0  0  0
 14 15  1  6  0  0  0
 14 18  1  0  0  0  0
 15 31  1  0  0  0  0
 16 20  1  0  0  0  0
 17  2  1  6  0  0  0
 17 22  1  0  0  0  0
 18 19  1  6  0  0  0
 18 24  1  0  0  0  0
 18 30  1  0  0  0  0
 20 21  1  0  0  0  0
 20 26  1  6  0  0  0
 22 23  1  1  0  0  0
 22 28  1  0  0  0  0
 24 25  1  0  0  0  0
 26 27  1  0  0  0  0
 28 29  1  6  0  0  0
M  END
>  <CHROM.1>
-74.26652050,-100.56127623,-156.01380335,94.18648998,118.75691332,-24.54075847
-10.13032930,12.20183850,3.22818332,-2.29842985,-0.41556286,-0.38389480

>  <Name>
ligand

>  <RI>
0

>  <Rbt.Current_Directory>
/home/itssahil/PROJECTS/Mol_Feturizer/New_Systems/rnas/4GPX

>  <Rbt.Executable>
rbdock ($Id: //depot/dev/client3/rdock/2013.1/src/exe/rbdock.cxx#4 $)

>  <Rbt.Library>
libRbt.so (2013.1, Build901 2013/11/27)

>  <Rbt.Parameter_File>
/export/apps/rDock/src/rDock_2013.1_src/data/scripts/dock_solv.prm

>  <Rbt.Receptor>
prm/blind_docking_20.prm

>  <SCORE>
18.0156

>  <SCORE.INTER>
2.66253

>  <SCORE.INTER.CONST>
1

>  <SCORE.INTER.POLAR>
0

>  <SCORE.INTER.ROT>
6

>  <SCORE.INTER.SOLV>
22.9416

>  <SCORE.INTER.VDW>
-13.4722

>  <SCORE.INTER.norm>
0.0858881

>  <SCORE.INTRA>
7.8221

>  <SCORE.INTRA.DIHEDRAL>
-3.13753

>  <SCORE.INTRA.DIHEDRAL.0>
20.6841

>  <SCORE.INTRA.POLAR>
0

>  <SCORE.INTRA.POLAR.0>
0

>  <SCORE.INTRA.REPUL>
0

>  <SCORE.INTRA.REPUL.0>
0

>  <SCORE.INTRA.SOLV>
6.72704

>  <SCORE.INTRA.SOLV.lig_0>
-64.6797

>  <SCORE.INTRA.VDW>
6.02734

>  <SCORE.INTRA.VDW.0>
-4.11825

>  <SCORE.INTRA.norm>
0.252326

>  <SCORE.RESTR>
7.53097

>  <SCORE.RESTR.CAVITY>
7.53097

>  <SCORE.RESTR.norm>
0.242935

>  <SCORE.SYSTEM>
0

>  <SCORE.SYSTEM.CONST>
0

>  <SCORE.SYSTEM.DIHEDRAL>
0

>  <SCORE.SYSTEM.SOLV>
0

>  <SCORE.SYSTEM.norm>
0

>  <SCORE.heavy>
31

>  <SCORE.norm>
0.581148

>  <RMSD>
10.400

$$$$
ligand
 OpenBabel11021811493D
libRbt.so/2013.1/901 2013/11/27
 31 33  0  0  0  0  0  0  0  0999 V2000
   -6.1943   16.0563    4.2563 C   0  0  2  0  0  0  0  0  0  0  0  0
   -6.3618   15.7001    2.8873 O   0  0  0  0  0  0  0  0  0  0  0  0
  -10.5911   15.6103    2.4518 C   0  0  2  0  0  0  0  0  0  0  0  0
  -11.8778   15.4921    1.8375 N   0  0  0  0  0  0  0  0  0  0  0  0
  -11.8972   12.9285    2.5831 C   0  0  2  0  0  0  0  0  0  0  0  0
   -4.7142   16.5981    4.4030 C   0  0  2  0  0  0  0  0  0  0  0  0
   -4.5446   17.7448    3.5168 N   0  0  0  0  0  0  0  0  0  0  0  0
   -9.8046   16.7873    1.7403 C   0  0  0  0  0  0  0  0  0  0  0  0
  -12.3377   11.8847    3.6579 C   0  0  2  0  0  0  0  0  0  0  0  0
  -12.1505   12.4557    4.9353 O   0  0  0  0  0  0  0  0  0  0  0  0
   -3.6743   15.4611    4.0498 C   0  0  0  0  0  0  0  0  0  0  0  0
   -8.3866   16.9186    2.4122 C   0  0  2  0  0  0  0  0  0  0  0  0
   -7.6483   18.0082    1.7509 N   0  0  0  0  0  0  0  0  0  0  0  0
  -11.4299   10.6101    3.4708 C   0  0  1  0  0  0  0  0  0  0  0  0
  -11.7943    9.5743    4.4932 N   0  0  0  0  0  0  0  0  0  0  0  0
   -4.1447   14.0337    4.5606 C   0  0  0  0  0  0  0  0  0  0  0  0
   -7.5917   15.5466    2.2663 C   0  0  2  0  0  0  0  0  0  0  0  0
  -11.7011   10.0147    1.9774 C   0  0  1  0  0  0  0  0  0  0  0  0
  -13.0628    9.6791    1.7709 O   0  0  0  0  0  0  0  0  0  0  0  0
   -5.4003   13.8411    5.0444 C   0  0  2  0  0  0  0  0  0  0  0  0
   -6.3643   14.8975    5.1236 O   0  0  0  0  0  0  0  0  0  0  0  0
   -8.3987   14.3947    2.9720 C   0  0  2  0  0  0  0  0  0  0  0  0
   -7.6760   13.1533    2.8263 O   0  0  0  0  0  0  0  0  0  0  0  0
  -11.3265   11.0858    0.9020 C   0  0  0  0  0  0  0  0  0  0  0  0
  -12.0765   12.3600    1.1879 O   0  0  0  0  0  0  0  0  0  0  0  0
   -5.8988   12.4860    5.5502 C   0  0  0  0  0  0  0  0  0  0  0  0
   -5.9618   12.5410    6.9950 O   0  0  0  0  0  0  0  0  0  0  0  0
   -9.8022   14.2637    2.2732 C   0  0  1  0  0  0  0  0  0  0  0  0
  -10.4972   13.2275    2.8928 O   0  0  0  0  0  0  0  0  0  0  0  0
  -10.8847    8.7489    1.6212 C   0  0  0  0  0  0  0  0  0  0  0  0
  -13.2299    9.2530    4.6278 C   0  0  0  0  0  0  0  0  0  0  0  0
  1  2  1  6  0  0  0
  1  6  1  0  0  0  0
  1 21  1  0  0  0  0
  3  4  1  6  0  0  0
  3  8  1  0  0  0  0
  3 28  1  0  0  0  0
  5  9  1  0  0  0  0
  5 25  1  0  0  0  0
  5 29  1  1  0  0  0
  6  7  1  6  0  0  0
  6 11  1  0  0  0  0
  8 12  1  0  0  0  0
  9 10  1  1  0  0  0
  9 14  1  0  0  0  0
 11 16  1  0  0  0  0
 12 13  1  6  0  0  0
 12 17  1  0  0  0  0
 14 15  1  1  0  0  0
 14 18  1  0  0  0  0
 15 31  1  0  0  0  0
 16 20  1  0  0  0  0
 17  2  1  1  0  0  0
 17 22  1  0  0  0  0
 18 19  1  6  0  0  0
 18 24  1  0  0  0  0
 18 30  1  0  0  0  0
 20 21  1  0  0  0  0
 20 26  1  1  0  0  0
 22 23  1  6  0  0  0
 22 28  1  0  0  0  0
 24 25  1  0  0  0  0
 26 27  1  0  0  0  0
 28 29  1  1  0  0  0
M  END
>  <CHROM.1>
-160.87727497,-170.50656832,49.53970270,57.99273539,106.09769734,54.60616511
-8.96617869,13.54504872,3.27616414,-0.50371349,0.46462046,2.69188838

>  <Name>
ligand

>  <RI>
0

>  <Rbt.Current_Directory>
/home/itssahil/PROJECTS/Mol_Feturizer/New_Systems/rnas/4GPX

>  <Rbt.Executable>
rbdock ($Id: //depot/dev/client3/rdock/2013.1/src/exe/rbdock.cxx#4 $)

>  <Rbt.Library>
libRbt.so (2013.1, Build901 2013/11/27)

>  <Rbt.Parameter_File>
/export/apps/rDock/src/rDock_2013.1_src/data/scripts/dock_solv.prm

>  <Rbt.Receptor>
prm/blind_docking_60.prm

>  <SCORE>
9.36319

>  <SCORE.INTER>
4.51843

>  <SCORE.INTER.CONST>
1

>  <SCORE.INTER.POLAR>
0

>  <SCORE.INTER.ROT>
6

>  <SCORE.INTER.SOLV>
32.0516

>  <SCORE.INTER.VDW>
-15.2716

>  <SCORE.INTER.norm>
0.145756

>  <SCORE.INTRA>
-4.44313

>  <SCORE.INTRA.DIHEDRAL>
-16.4027

>  <SCORE.INTRA.DIHEDRAL.0>
20.6841

>  <SCORE.INTRA.POLAR>
0

>  <SCORE.INTRA.POLAR.0>
0

>  <SCORE.INTRA.REPUL>
0

>  <SCORE.INTRA.REPUL.0>
0

>  <SCORE.INTRA.SOLV>
0.691706

>  <SCORE.INTRA.SOLV.lig_0>
-64.6797

>  <SCORE.INTRA.VDW>
3.41236

>  <SCORE.INTRA.VDW.0>
-4.11825

>  <SCORE.INTRA.norm>
-0.143327

>  <SCORE.RESTR>
9.28789

>  <SCORE.RESTR.CAVITY>
9.28789

>  <SCORE.RESTR.norm>
0.299609

>  <SCORE.SYSTEM>
0

>  <SCORE.SYSTEM.CONST>
0

>  <SCORE.SYSTEM.DIHEDRAL>
0

>  <SCORE.SYSTEM.SOLV>
0

>  <SCORE.SYSTEM.norm>
0

>  <SCORE.heavy>
31

>  <SCORE.norm>
0.302038

>  <RMSD>
10.423

$$$$
ligand
 OpenBabel11021811493D
libRbt.so/2013.1/901 2013/11/27
 31 33  0  0  0  0  0  0  0  0999 V2000
   -5.3484   14.5025    3.8768 C   0  0  2  0  0  0  0  0  0  0  0  0
   -6.4751   15.3285    3.5983 O   0  0  0  0  0  0  0  0  0  0  0  0
  -10.3534   14.7603    1.9491 C   0  0  2  0  0  0  0  0  0  0  0  0
  -11.3817   14.4936    0.9907 N   0  0  0  0  0  0  0  0  0  0  0  0
  -11.5407   12.5125    2.9185 C   0  0  2  0  0  0  0  0  0  0  0  0
   -5.4567   14.0920    5.4019 C   0  0  2  0  0  0  0  0  0  0  0  0
   -6.7159   13.3843    5.6087 N   0  0  0  0  0  0  0  0  0  0  0  0
   -9.5207   16.0132    1.4523 C   0  0  0  0  0  0  0  0  0  0  0  0
  -11.7078   11.4372    4.0385 C   0  0  2  0  0  0  0  0  0  0  0  0
  -10.7811   11.7173    5.0659 O   0  0  0  0  0  0  0  0  0  0  0  0
   -5.3789   15.3739    6.3237 C   0  0  0  0  0  0  0  0  0  0  0  0
   -8.3862   16.3080    2.5036 C   0  0  2  0  0  0  0  0  0  0  0  0
   -7.6048   17.4690    2.0441 N   0  0  0  0  0  0  0  0  0  0  0  0
  -11.4185   10.0328    3.3846 C   0  0  1  0  0  0  0  0  0  0  0  0
  -11.5449    8.9557    4.4214 N   0  0  0  0  0  0  0  0  0  0  0  0
   -4.3527   16.4519    5.7722 C   0  0  0  0  0  0  0  0  0  0  0  0
   -7.4436   15.0331    2.6515 C   0  0  2  0  0  0  0  0  0  0  0  0
  -12.5242    9.7870    2.2119 C   0  0  1  0  0  0  0  0  0  0  0  0
  -13.8520    9.8311    2.7063 O   0  0  0  0  0  0  0  0  0  0  0  0
   -3.7996   16.3257    4.5369 C   0  0  2  0  0  0  0  0  0  0  0  0
   -4.1022   15.2284    3.6674 O   0  0  0  0  0  0  0  0  0  0  0  0
   -8.2968   13.8028    3.1358 C   0  0  2  0  0  0  0  0  0  0  0  0
   -7.4366   12.6496    3.2575 O   0  0  0  0  0  0  0  0  0  0  0  0
  -12.4039   10.9044    1.1252 C   0  0  0  0  0  0  0  0  0  0  0  0
  -12.5158   12.2533    1.7854 O   0  0  0  0  0  0  0  0  0  0  0  0
   -2.8046   17.3362    3.9629 C   0  0  0  0  0  0  0  0  0  0  0  0
   -3.3724   18.6592    4.1097 O   0  0  0  0  0  0  0  0  0  0  0  0
   -9.4096   13.5097    2.0629 C   0  0  1  0  0  0  0  0  0  0  0  0
  -10.1432   12.4063    2.4931 O   0  0  0  0  0  0  0  0  0  0  0  0
  -12.3879    8.4421    1.4579 C   0  0  0  0  0  0  0  0  0  0  0  0
  -10.7177    7.7476    4.2254 C   0  0  0  0  0  0  0  0  0  0  0  0
  1  2  1  1  0  0  0
  1  6  1  0  0  0  0
  1 21  1  0  0  0  0
  3  4  1  6  0  0  0
  3  8  1  0  0  0  0
  3 28  1  0  0  0  0
  5  9  1  0  0  0  0
  5 25  1  0  0  0  0
  5 29  1  6  0  0  0
  6  7  1  6  0  0  0
  6 11  1  0  0  0  0
  8 12  1  0  0  0  0
  9 10  1  1  0  0  0
  9 14  1  0  0  0  0
 11 16  1  0  0  0  0
 12 13  1  6  0  0  0
 12 17  1  0  0  0  0
 14 15  1  1  0  0  0
 14 18  1  0  0  0  0
 15 31  1  0  0  0  0
 16 20  1  0  0  0  0
 17  2  1  1  0  0  0
 17 22  1  0  0  0  0
 18 19  1  1  0  0  0
 18 24  1  0  0  0  0
 18 30  1  0  0  0  0
 20 21  1  0  0  0  0
 20 26  1  1  0  0  0
 22 23  1  6  0  0  0
 22 28  1  0  0  0  0
 24 25  1  0  0  0  0
 26 27  1  0  0  0  0
 28 29  1  1  0  0  0
M  END
>  <CHROM.1>
-119.88254575,-146.95777800,-150.92081410,-171.42640384,-50.63722281,-6.96207857
-8.68044688,13.42792052,3.31784994,-0.48674238,0.53636621,2.61661647

>  <Name>
ligand

>  <RI>
0

>  <Rbt.Current_Directory>
/home/itssahil/PROJECTS/Mol_Feturizer/New_Systems/rnas/4GPX

>  <Rbt.Executable>
rbdock ($Id: //depot/dev/client3/rdock/2013.1/src/exe/rbdock.cxx#4 $)

>  <Rbt.Library>
libRbt.so (2013.1, Build901 2013/11/27)

>  <Rbt.Parameter_File>
/export/apps/rDock/src/rDock_2013.1_src/data/scripts/dock_solv.prm

>  <Rbt.Receptor>
prm/blind_docking_20.prm

>  <SCORE>
1.62244

>  <SCORE.INTER>
-10.5388

>  <SCORE.INTER.CONST>
1

>  <SCORE.INTER.POLAR>
0

>  <SCORE.INTER.ROT>
6

>  <SCORE.INTER.SOLV>
29.3523

>  <SCORE.INTER.VDW>
-24.41

>  <SCORE.INTER.norm>
-0.339962

>  <SCORE.INTRA>
5.7328

>  <SCORE.INTRA.DIHEDRAL>
2.05632

>  <SCORE.INTRA.DIHEDRAL.0>
20.6841

>  <SCORE.INTRA.POLAR>
0

>  <SCORE.INTRA.POLAR.0>
0

>  <SCORE.INTRA.REPUL>
0.0179827

>  <SCORE.INTRA.REPUL.0>
0

>  <SCORE.INTRA.SOLV>
1.30806

>  <SCORE.INTRA.SOLV.lig_0>
-64.6797

>  <SCORE.INTRA.VDW>
3.9607

>  <SCORE.INTRA.VDW.0>
-4.11825

>  <SCORE.INTRA.norm>
0.184929

>  <SCORE.RESTR>
6.42847

>  <SCORE.RESTR.CAVITY>
6.42847

>  <SCORE.RESTR.norm>
0.20737

>  <SCORE.SYSTEM>
0

>  <SCORE.SYSTEM.CONST>
0

>  <SCORE.SYSTEM.DIHEDRAL>
0

>  <SCORE.SYSTEM.SOLV>
0

>  <SCORE.SYSTEM.norm>
0

>  <SCORE.heavy>
31

>  <SCORE.norm>
0.0523368

>  <RMSD>
10.459

$$$$
ligand
 OpenBabel11021811493D
libRbt.so/2013.1/901 2013/11/27
 31 33  0  0  0  0  0  0  0  0999 V2000
   -5.4423   14.6392    3.6765 C   0  0  2  0  0  0  0  0  0  0  0  0
   -6.7009   15.2888    3.5241 O   0  0  0  0  0  0  0  0  0  0  0  0
  -10.5257   14.5543    1.8165 C   0  0  2  0  0  0  0  0  0  0  0  0
  -11.5268   14.2432    0.8429 N   0  0  0  0  0  0  0  0  0  0  0  0
  -11.5928   12.2774    2.8837 C   0  0  2  0  0  0  0  0  0  0  0  0
   -5.3996   14.0816    5.1574 C   0  0  2  0  0  0  0  0  0  0  0  0
   -6.5151   13.1596    5.3437 N   0  0  0  0  0  0  0  0  0  0  0  0
   -9.7396   15.8411    1.3305 C   0  0  0  0  0  0  0  0  0  0  0  0
  -11.6412   11.2314    4.0422 C   0  0  2  0  0  0  0  0  0  0  0  0
  -10.6599   11.5783    4.9959 O   0  0  0  0  0  0  0  0  0  0  0  0
   -5.4791   15.2709    6.1958 C   0  0  0  0  0  0  0  0  0  0  0  0
   -8.6349   16.1850    2.3987 C   0  0  2  0  0  0  0  0  0  0  0  0
   -7.8968   17.3778    1.9494 N   0  0  0  0  0  0  0  0  0  0  0  0
  -11.3396    9.8197    3.4098 C   0  0  1  0  0  0  0  0  0  0  0  0
  -11.3528    8.7709    4.4826 N   0  0  0  0  0  0  0  0  0  0  0  0
   -4.6717   16.5490    5.7120 C   0  0  0  0  0  0  0  0  0  0  0  0
   -7.6413   14.9516    2.5630 C   0  0  2  0  0  0  0  0  0  0  0  0
  -12.5104    9.4957    2.3224 C   0  0  1  0  0  0  0  0  0  0  0  0
  -13.8029    9.5039    2.9045 O   0  0  0  0  0  0  0  0  0  0  0  0
   -4.1738   16.6271    4.4495 C   0  0  2  0  0  0  0  0  0  0  0  0
   -4.3427   15.5772    3.4900 O   0  0  0  0  0  0  0  0  0  0  0  0
   -8.4486   13.6865    3.0361 C   0  0  2  0  0  0  0  0  0  0  0  0
   -7.5421   12.5711    3.1728 O   0  0  0  0  0  0  0  0  0  0  0  0
  -12.5083   10.5829    1.1991 C   0  0  0  0  0  0  0  0  0  0  0  0
  -12.6302   11.9462    1.8272 O   0  0  0  0  0  0  0  0  0  0  0  0
   -3.3875   17.8357    3.9380 C   0  0  0  0  0  0  0  0  0  0  0  0
   -2.9323   18.5935    5.0838 O   0  0  0  0  0  0  0  0  0  0  0  0
   -9.5313   13.3452    1.9468 C   0  0  1  0  0  0  0  0  0  0  0  0
  -10.2238   12.2120    2.3674 O   0  0  0  0  0  0  0  0  0  0  0  0
  -12.3705    8.1345    1.5989 C   0  0  0  0  0  0  0  0  0  0  0  0
  -10.5791    7.5411    4.2160 C   0  0  0  0  0  0  0  0  0  0  0  0
  1  2  1  1  0  0  0
  1  6  1  0  0  0  0
  1 21  1  0  0  0  0
  3  4  1  6  0  0  0
  3  8  1  0  0  0  0
  3 28  1  0  0  0  0
  5  9  1  0  0  0  0
  5 25  1  0  0  0  0
  5 29  1  6  0  0  0
  6  7  1  1  0  0  0
  6 11  1  0  0  0  0
  8 12  1  0  0  0  0
  9 10  1  1  0  0  0
  9 14  1  0  0  0  0
 11 16  1  0  0  0  0
 12 13  1  6  0  0  0
 12 17  1  0  0  0  0
 14 15  1  1  0  0  0
 14 18  1  0  0  0  0
 15 31  1  0  0  0  0
 16 20  1  0  0  0  0
 17  2  1  1  0  0  0
 17 22  1  0  0  0  0
 18 19  1  1  0  0  0
 18 24  1  0  0  0  0
 18 30  1  0  0  0  0
 20 21  1  0  0  0  0
 20 26  1  1  0  0  0
 22 23  1  6  0  0  0
 22 28  1  0  0  0  0
 24 25  1  0  0  0  0
 26 27  1  0  0  0  0
 28 29  1  1  0  0  0
M  END
>  <CHROM.1>
-122.09680291,-142.23454690,-155.72970497,-160.80152049,17.86264022,-12.52874852
-8.75997432,13.32201805,3.29566637,-0.52294468,0.55883885,2.63422041

>  <Name>
ligand

>  <RI>
0

>  <Rbt.Current_Directory>
/home/itssahil/PROJECTS/Mol_Feturizer/New_Systems/rnas/4GPX

>  <Rbt.Executable>
rbdock ($Id: //depot/dev/client3/rdock/2013.1/src/exe/rbdock.cxx#4 $)

>  <Rbt.Library>
libRbt.so (2013.1, Build901 2013/11/27)

>  <Rbt.Parameter_File>
/export/apps/rDock/src/rDock_2013.1_src/data/scripts/dock_solv.prm

>  <Rbt.Receptor>
prm/blind_docking_20.prm

>  <SCORE>
1.78933

>  <SCORE.INTER>
-10.0326

>  <SCORE.INTER.CONST>
1

>  <SCORE.INTER.POLAR>
0

>  <SCORE.INTER.ROT>
6

>  <SCORE.INTER.SOLV>
28.5162

>  <SCORE.INTER.VDW>
-23.7938

>  <SCORE.INTER.norm>
-0.323634

>  <SCORE.INTRA>
6.09024

>  <SCORE.INTRA.DIHEDRAL>
2.12486

>  <SCORE.INTRA.DIHEDRAL.0>
20.6841

>  <SCORE.INTRA.POLAR>
0

>  <SCORE.INTRA.POLAR.0>
0

>  <SCORE.INTRA.REPUL>
0.00015417

>  <SCORE.INTRA.REPUL.0>
0

>  <SCORE.INTRA.SOLV>
1.25409

>  <SCORE.INTRA.SOLV.lig_0>
-64.6797

>  <SCORE.INTRA.VDW>
4.4

>  <SCORE.INTRA.VDW.0>
-4.11825

>  <SCORE.INTRA.norm>
0.196459

>  <SCORE.RESTR>
5.73174

>  <SCORE.RESTR.CAVITY>
5.73174

>  <SCORE.RESTR.norm>
0.184895

>  <SCORE.SYSTEM>
0

>  <SCORE.SYSTEM.CONST>
0

>  <SCORE.SYSTEM.DIHEDRAL>
0

>  <SCORE.SYSTEM.SOLV>
0

>  <SCORE.SYSTEM.norm>
0

>  <SCORE.heavy>
31

>  <SCORE.norm>
0.0577203

>  <RMSD>
10.479

$$$$
ligand
 OpenBabel11021811493D
libRbt.so/2013.1/901 2013/11/27
 31 33  0  0  0  0  0  0  0  0999 V2000
   -6.1872   16.1302    4.2268 C   0  0  2  0  0  0  0  0  0  0  0  0
   -6.3631   15.7850    2.8560 O   0  0  0  0  0  0  0  0  0  0  0  0
  -10.5942   15.6864    2.4402 C   0  0  2  0  0  0  0  0  0  0  0  0
  -11.8840   15.6148    1.8253 N   0  0  0  0  0  0  0  0  0  0  0  0
  -11.8855   13.0250    2.3604 C   0  0  2  0  0  0  0  0  0  0  0  0
   -4.6836   16.6000    4.3836 C   0  0  2  0  0  0  0  0  0  0  0  0
   -4.4537   17.7389    3.5008 N   0  0  0  0  0  0  0  0  0  0  0  0
   -9.8272   16.9392    1.8469 C   0  0  0  0  0  0  0  0  0  0  0  0
  -12.3637   12.0768    3.5054 C   0  0  2  0  0  0  0  0  0  0  0  0
  -12.1322   12.7194    4.7408 O   0  0  0  0  0  0  0  0  0  0  0  0
   -3.6974   15.4150    4.0343 C   0  0  0  0  0  0  0  0  0  0  0  0
   -8.4058   17.0197    2.5197 C   0  0  2  0  0  0  0  0  0  0  0  0
   -7.6855   18.1799    1.9677 N   0  0  0  0  0  0  0  0  0  0  0  0
  -11.5228   10.7486    3.3936 C   0  0  1  0  0  0  0  0  0  0  0  0
  -11.9253    9.8010    4.4851 N   0  0  0  0  0  0  0  0  0  0  0  0
   -4.2390   14.0109    4.5392 C   0  0  0  0  0  0  0  0  0  0  0  0
   -7.5957   15.6797    2.2304 C   0  0  2  0  0  0  0  0  0  0  0  0
  -11.8422   10.0719    1.9451 C   0  0  1  0  0  0  0  0  0  0  0  0
  -13.2214    9.7926    1.7739 O   0  0  0  0  0  0  0  0  0  0  0  0
   -5.5054   13.8780    5.0150 C   0  0  2  0  0  0  0  0  0  0  0  0
   -6.4180   14.9793    5.0906 O   0  0  0  0  0  0  0  0  0  0  0  0
   -8.3836   14.4521    2.8207 C   0  0  2  0  0  0  0  0  0  0  0  0
   -7.6473   13.2411    2.5452 O   0  0  0  0  0  0  0  0  0  0  0  0
  -11.4284   11.0505    0.7983 C   0  0  0  0  0  0  0  0  0  0  0  0
  -12.1105   12.3768    1.0071 O   0  0  0  0  0  0  0  0  0  0  0  0
   -6.0714   12.5475    5.5150 C   0  0  0  0  0  0  0  0  0  0  0  0
   -7.4262   12.4217    5.0218 O   0  0  0  0  0  0  0  0  0  0  0  0
   -9.7907   14.3749    2.1210 C   0  0  1  0  0  0  0  0  0  0  0  0
  -10.4686   13.2725    2.6366 O   0  0  0  0  0  0  0  0  0  0  0  0
  -11.0943    8.7460    1.6650 C   0  0  0  0  0  0  0  0  0  0  0  0
  -13.3725    9.5513    4.6450 C   0  0  0  0  0  0  0  0  0  0  0  0
  1  2  1  6  0  0  0
  1  6  1  0  0  0  0
  1 21  1  0  0  0  0
  3  4  1  6  0  0  0
  3  8  1  0  0  0  0
  3 28  1  0  0  0  0
  5  9  1  0  0  0  0
  5 25  1  0  0  0  0
  5 29  1  1  0  0  0
  6  7  1  6  0  0  0
  6 11  1  0  0  0  0
  8 12  1  0  0  0  0
  9 10  1  1  0  0  0
  9 14  1  0  0  0  0
 11 16  1  0  0  0  0
 12 13  1  6  0  0  0
 12 17  1  0  0  0  0
 14 15  1  1  0  0  0
 14 18  1  0  0  0  0
 15 31  1  0  0  0  0
 16 20  1  0  0  0  0
 17  2  1  1  0  0  0
 17 22  1  0  0  0  0
 18 19  1  6  0  0  0
 18 24  1  0  0  0  0
 18 30  1  0  0  0  0
 20 21  1  0  0  0  0
 20 26  1  1  0  0  0
 22 23  1  6  0  0  0
 22 28  1  0  0  0  0
 24 25  1  0  0  0  0
 26 27  1  0  0  0  0
 28 29  1  1  0  0  0
M  END
>  <CHROM.1>
-161.50676574,-158.97565159,50.14759024,51.65093332,-137.96342566,51.50213101
-9.06271108,13.62769586,3.15068866,-0.55070400,0.41761675,2.76632322

>  <Name>
ligand

>  <RI>
0

>  <Rbt.Current_Directory>
/home/itssahil/PROJECTS/Mol_Feturizer/New_Systems/rnas/4GPX

>  <Rbt.Executable>
rbdock ($Id: //depot/dev/client3/rdock/2013.1/src/exe/rbdock.cxx#4 $)

>  <Rbt.Library>
libRbt.so (2013.1, Build901 2013/11/27)

>  <Rbt.Parameter_File>
/export/apps/rDock/src/rDock_2013.1_src/data/scripts/dock_solv.prm

>  <Rbt.Receptor>
prm/blind_docking_60.prm

>  <SCORE>
12.5186

>  <SCORE.INTER>
4.16646

>  <SCORE.INTER.CONST>
1

>  <SCORE.INTER.POLAR>
0

>  <SCORE.INTER.ROT>
6

>  <SCORE.INTER.SOLV>
32.1323

>  <SCORE.INTER.VDW>
-15.5331

>  <SCORE.INTER.norm>
0.134402

>  <SCORE.INTRA>
-0.170894

>  <SCORE.INTRA.DIHEDRAL>
-14.3

>  <SCORE.INTRA.DIHEDRAL.0>
20.6841

>  <SCORE.INTRA.POLAR>
0

>  <SCORE.INTRA.POLAR.0>
0

>  <SCORE.INTRA.REPUL>
0.519447

>  <SCORE.INTRA.REPUL.0>
0

>  <SCORE.INTRA.SOLV>
1.53889

>  <SCORE.INTRA.SOLV.lig_0>
-64.6797

>  <SCORE.INTRA.VDW>
3.61241

>  <SCORE.INTRA.VDW.0>
-4.11825

>  <SCORE.INTRA.norm>
-0.00551271

>  <SCORE.RESTR>
8.52307

>  <SCORE.RESTR.CAVITY>
8.52307

>  <SCORE.RESTR.norm>
0.274938

>  <SCORE.SYSTEM>
0

>  <SCORE.SYSTEM.CONST>
0

>  <SCORE.SYSTEM.DIHEDRAL>
0

>  <SCORE.SYSTEM.SOLV>
0

>  <SCORE.SYSTEM.norm>
0

>  <SCORE.heavy>
31

>  <SCORE.norm>
0.403827

>  <RMSD>
10.481

$$$$
ligand
 OpenBabel11021811493D
libRbt.so/2013.1/901 2013/11/27
 31 33  0  0  0  0  0  0  0  0999 V2000
   -4.7370   14.3509    4.6302 C   0  0  2  0  0  0  0  0  0  0  0  0
   -6.0699   14.8383    4.5076 O   0  0  0  0  0  0  0  0  0  0  0  0
   -9.3093   15.5640    1.8499 C   0  0  2  0  0  0  0  0  0  0  0  0
  -10.0398   15.7135    0.6289 N   0  0  0  0  0  0  0  0  0  0  0  0
  -11.1952   13.6085    2.1255 C   0  0  2  0  0  0  0  0  0  0  0  0
   -4.4851   14.1115    6.1747 C   0  0  2  0  0  0  0  0  0  0  0  0
   -5.4650   13.1483    6.6658 N   0  0  0  0  0  0  0  0  0  0  0  0
   -8.1083   16.5971    1.8428 C   0  0  0  0  0  0  0  0  0  0  0  0
  -11.7363   12.7241    3.2933 C   0  0  2  0  0  0  0  0  0  0  0  0
  -10.9280   12.9441    4.4294 O   0  0  0  0  0  0  0  0  0  0  0  0
   -4.5959   15.4742    6.9682 C   0  0  0  0  0  0  0  0  0  0  0  0
   -7.3004   16.4336    3.1844 C   0  0  2  0  0  0  0  0  0  0  0  0
   -6.1786   17.3882    3.1812 N   0  0  0  0  0  0  0  0  0  0  0  0
  -11.6498   11.2230    2.8211 C   0  0  1  0  0  0  0  0  0  0  0  0
  -12.1399   10.3192    3.9138 N   0  0  0  0  0  0  0  0  0  0  0  0
   -3.9903   16.6960    6.1558 C   0  0  0  0  0  0  0  0  0  0  0  0
   -6.7547   14.9426    3.3069 C   0  0  2  0  0  0  0  0  0  0  0  0
  -12.6038   11.0527    1.5099 C   0  0  1  0  0  0  0  0  0  0  0  0
  -13.9512   11.4042    1.7754 O   0  0  0  0  0  0  0  0  0  0  0  0
   -3.6317   16.5618    4.8515 C   0  0  2  0  0  0  0  0  0  0  0  0
   -3.7746   15.3283    4.1378 O   0  0  0  0  0  0  0  0  0  0  0  0
   -7.9661   13.9382    3.3016 C   0  0  2  0  0  0  0  0  0  0  0  0
   -7.4619   12.5891    3.4028 O   0  0  0  0  0  0  0  0  0  0  0  0
  -12.1043   11.9909    0.3636 C   0  0  0  0  0  0  0  0  0  0  0  0
  -12.0311   13.4052    0.8758 O   0  0  0  0  0  0  0  0  0  0  0  0
   -3.0419   17.7084    4.0280 C   0  0  0  0  0  0  0  0  0  0  0  0
   -1.6993   17.3364    3.6366 O   0  0  0  0  0  0  0  0  0  0  0  0
   -8.7470   14.1004    1.9454 C   0  0  1  0  0  0  0  0  0  0  0  0
   -9.8029   13.1916    1.9447 O   0  0  0  0  0  0  0  0  0  0  0  0
  -12.6391    9.6267    0.9092 C   0  0  0  0  0  0  0  0  0  0  0  0
  -11.4952    8.9941    4.0163 C   0  0  0  0  0  0  0  0  0  0  0  0
  1  2  1  1  0  0  0
  1  6  1  0  0  0  0
  1 21  1  0  0  0  0
  3  4  1  6  0  0  0
  3  8  1  0  0  0  0
  3 28  1  0  0  0  0
  5  9  1  0  0  0  0
  5 25  1  0  0  0  0
  5 29  1  6  0  0  0
  6  7  1  1  0  0  0
  6 11  1  0  0  0  0
  8 12  1  0  0  0  0
  9 10  1  1  0  0  0
  9 14  1  0  0  0  0
 11 16  1  0  0  0  0
 12 13  1  6  0  0  0
 12 17  1  0  0  0  0
 14 15  1  1  0  0  0
 14 18  1  0  0  0  0
 15 31  1  0  0  0  0
 16 20  1  0  0  0  0
 17  2  1  1  0  0  0
 17 22  1  0  0  0  0
 18 19  1  1  0  0  0
 18 24  1  0  0  0  0
 18 30  1  0  0  0  0
 20 21  1  0  0  0  0
 20 26  1  1  0  0  0
 22 23  1  6  0  0  0
 22 28  1  0  0  0  0
 24 25  1  0  0  0  0
 26 27  1  0  0  0  0
 28 29  1  1  0  0  0
M  END
>  <CHROM.1>
-167.89549590,-127.12122644,-147.07627603,-127.14316670,116.88182028,-12.13584271
-8.24995512,13.95731692,3.29650085,-0.19089099,0.55712361,2.44428064

>  <Name>
ligand

>  <RI>
0

>  <Rbt.Current_Directory>
/home/itssahil/PROJECTS/Mol_Feturizer/New_Systems/rnas/4GPX

>  <Rbt.Executable>
rbdock ($Id: //depot/dev/client3/rdock/2013.1/src/exe/rbdock.cxx#4 $)

>  <Rbt.Library>
libRbt.so (2013.1, Build901 2013/11/27)

>  <Rbt.Parameter_File>
/export/apps/rDock/src/rDock_2013.1_src/data/scripts/dock_solv.prm

>  <Rbt.Receptor>
prm/blind_docking_60.prm

>  <SCORE>
5.35711

>  <SCORE.INTER>
-10.1212

>  <SCORE.INTER.CONST>
1

>  <SCORE.INTER.POLAR>
0

>  <SCORE.INTER.ROT>
6

>  <SCORE.INTER.SOLV>
25.5439

>  <SCORE.INTER.VDW>
-22.8621

>  <SCORE.INTER.norm>
-0.32649

>  <SCORE.INTRA>
4.25393

>  <SCORE.INTRA.DIHEDRAL>
2.79844

>  <SCORE.INTRA.DIHEDRAL.0>
20.6841

>  <SCORE.INTRA.POLAR>
0

>  <SCORE.INTRA.POLAR.0>
0

>  <SCORE.INTRA.REPUL>
0

>  <SCORE.INTRA.REPUL.0>
0

>  <SCORE.INTRA.SOLV>
2.06349

>  <SCORE.INTRA.SOLV.lig_0>
-64.6797

>  <SCORE.INTRA.VDW>
1.82297

>  <SCORE.INTRA.VDW.0>
-4.11825

>  <SCORE.INTRA.norm>
0.137224

>  <SCORE.RESTR>
11.2244

>  <SCORE.RESTR.CAVITY>
11.2244

>  <SCORE.RESTR.norm>
0.362076

>  <SCORE.SYSTEM>
0

>  <SCORE.SYSTEM.CONST>
0

>  <SCORE.SYSTEM.DIHEDRAL>
0

>  <SCORE.SYSTEM.SOLV>
0

>  <SCORE.SYSTEM.norm>
0

>  <SCORE.heavy>
31

>  <SCORE.norm>
0.17281

>  <RMSD>
10.575

$$$$
ligand
 OpenBabel11021811493D
libRbt.so/2013.1/901 2013/11/27
 31 33  0  0  0  0  0  0  0  0999 V2000
   -6.4212   13.4385    3.6956 C   0  0  2  0  0  0  0  0  0  0  0  0
   -7.7861   13.6241    4.0586 O   0  0  0  0  0  0  0  0  0  0  0  0
  -11.7820   13.6575    2.6041 C   0  0  2  0  0  0  0  0  0  0  0  0
  -12.9064   13.4097    1.7549 N   0  0  0  0  0  0  0  0  0  0  0  0
  -13.2318   10.8474    3.1755 C   0  0  2  0  0  0  0  0  0  0  0  0
   -5.6400   13.1103    5.0327 C   0  0  2  0  0  0  0  0  0  0  0  0
   -6.2140   11.9081    5.6282 N   0  0  0  0  0  0  0  0  0  0  0  0
  -10.6904   14.4461    1.7696 C   0  0  0  0  0  0  0  0  0  0  0  0
  -13.4886    9.6172    4.1025 C   0  0  2  0  0  0  0  0  0  0  0  0
  -13.8181   10.0917    5.3905 O   0  0  0  0  0  0  0  0  0  0  0  0
   -5.7308   14.3282    6.0363 C   0  0  0  0  0  0  0  0  0  0  0  0
   -9.4500   14.7183    2.7007 C   0  0  2  0  0  0  0  0  0  0  0  0
   -8.4290   15.4467    1.9283 N   0  0  0  0  0  0  0  0  0  0  0  0
  -12.1591    8.7716    4.1354 C   0  0  1  0  0  0  0  0  0  0  0  0
  -12.3384    7.5807    5.0302 N   0  0  0  0  0  0  0  0  0  0  0  0
   -5.6558   15.7289    5.2932 C   0  0  0  0  0  0  0  0  0  0  0  0
   -8.8595   13.3373    3.2296 C   0  0  2  0  0  0  0  0  0  0  0  0
  -11.8477    8.2653    2.6171 C   0  0  1  0  0  0  0  0  0  0  0  0
  -12.9063    7.4901    2.0806 O   0  0  0  0  0  0  0  0  0  0  0  0
   -5.7247   15.8080    3.9380 C   0  0  2  0  0  0  0  0  0  0  0  0
   -5.8665   14.6505    3.1064 O   0  0  0  0  0  0  0  0  0  0  0  0
   -9.9659   12.5713    4.0453 C   0  0  2  0  0  0  0  0  0  0  0  0
   -9.4254   11.3166    4.5123 O   0  0  0  0  0  0  0  0  0  0  0  0
  -11.6602    9.4976    1.6737 C   0  0  0  0  0  0  0  0  0  0  0  0
  -12.8696   10.3893    1.7753 O   0  0  0  0  0  0  0  0  0  0  0  0
   -5.6543   17.1332    3.1768 C   0  0  0  0  0  0  0  0  0  0  0  0
   -4.3495   17.7152    3.4072 O   0  0  0  0  0  0  0  0  0  0  0  0
  -11.1864   12.2888    3.0934 C   0  0  1  0  0  0  0  0  0  0  0  0
  -12.1485   11.5922    3.8213 O   0  0  0  0  0  0  0  0  0  0  0  0
  -10.5657    7.4117    2.4639 C   0  0  0  0  0  0  0  0  0  0  0  0
  -11.1366    6.7628    5.2927 C   0  0  0  0  0  0  0  0  0  0  0  0
  1  2  1  1  0  0  0
  1  6  1  0  0  0  0
  1 21  1  0  0  0  0
  3  4  1  6  0  0  0
  3  8  1  0  0  0  0
  3 28  1  0  0  0  0
  5  9  1  0  0  0  0
  5 25  1  0  0  0  0
  5 29  1  1  0  0  0
  6  7  1  1  0  0  0
  6 11  1  0  0  0  0
  8 12  1  0  0  0  0
  9 10  1  1  0  0  0
  9 14  1  0  0  0  0
 11 16  1  0  0  0  0
 12 13  1  6  0  0  0
 12 17  1  0  0  0  0
 14 15  1  1  0  0  0
 14 18  1  0  0  0  0
 15 31  1  0  0  0  0
 16 20  1  0  0  0  0
 17  2  1  1  0  0  0
 17 22  1  0  0  0  0
 18 19  1  6  0  0  0
 18 24  1  0  0  0  0
 18 30  1  0  0  0  0
 20 21  1  0  0  0  0
 20 26  1  6  0  0  0
 22 23  1  6  0  0  0
 22 28  1  0  0  0  0
 24 25  1  0  0  0  0
 26 27  1  0  0  0  0
 28 29  1  1  0  0  0
M  END
>  <CHROM.1>
-149.69568803,146.24326426,-173.35919800,-105.57313599,63.96400445,78.79126264
-9.67439617,12.14249470,3.56965183,-0.68577473,0.43113022,2.74319552

>  <Name>
ligand

>  <RI>
0

>  <Rbt.Current_Directory>
/home/itssahil/PROJECTS/Mol_Feturizer/New_Systems/rnas/4GPX

>  <Rbt.Executable>
rbdock ($Id: //depot/dev/client3/rdock/2013.1/src/exe/rbdock.cxx#4 $)

>  <Rbt.Library>
libRbt.so (2013.1, Build901 2013/11/27)

>  <Rbt.Parameter_File>
/export/apps/rDock/src/rDock_2013.1_src/data/scripts/dock_solv.prm

>  <Rbt.Receptor>
prm/blind_docking_20.prm

>  <SCORE>
30.6097

>  <SCORE.INTER>
22.1628

>  <SCORE.INTER.CONST>
1

>  <SCORE.INTER.POLAR>
0

>  <SCORE.INTER.ROT>
6

>  <SCORE.INTER.SOLV>
30.7193

>  <SCORE.INTER.VDW>
-3.0646

>  <SCORE.INTER.norm>
0.714927

>  <SCORE.INTRA>
3.29224

>  <SCORE.INTRA.DIHEDRAL>
-1.27799

>  <SCORE.INTRA.DIHEDRAL.0>
20.6841

>  <SCORE.INTRA.POLAR>
0

>  <SCORE.INTRA.POLAR.0>
0

>  <SCORE.INTRA.REPUL>
0

>  <SCORE.INTRA.REPUL.0>
0

>  <SCORE.INTRA.SOLV>
1.94577

>  <SCORE.INTRA.SOLV.lig_0>
-64.6797

>  <SCORE.INTRA.VDW>
2.95835

>  <SCORE.INTRA.VDW.0>
-4.11825

>  <SCORE.INTRA.norm>
0.106201

>  <SCORE.RESTR>
5.15469

>  <SCORE.RESTR.CAVITY>
5.15469

>  <SCORE.RESTR.norm>
0.16628

>  <SCORE.SYSTEM>
0

>  <SCORE.SYSTEM.CONST>
0

>  <SCORE.SYSTEM.DIHEDRAL>
0

>  <SCORE.SYSTEM.SOLV>
0

>  <SCORE.SYSTEM.norm>
0

>  <SCORE.heavy>
31

>  <SCORE.norm>
0.987409

>  <RMSD>
10.595

$$$$
ligand
 OpenBabel11021811493D
libRbt.so/2013.1/901 2013/11/27
 31 33  0  0  0  0  0  0  0  0999 V2000
   -5.3587   14.6571    3.8575 C   0  0  2  0  0  0  0  0  0  0  0  0
   -6.6476   15.2615    3.8065 O   0  0  0  0  0  0  0  0  0  0  0  0
  -10.3272   15.3760    1.6778 C   0  0  2  0  0  0  0  0  0  0  0  0
  -11.2577   15.2891    0.5945 N   0  0  0  0  0  0  0  0  0  0  0  0
  -11.5945   13.2347    3.2633 C   0  0  2  0  0  0  0  0  0  0  0  0
   -5.1825   14.0954    5.3270 C   0  0  2  0  0  0  0  0  0  0  0  0
   -6.2468   13.1330    5.5920 N   0  0  0  0  0  0  0  0  0  0  0  0
   -9.2318   16.4596    1.3091 C   0  0  0  0  0  0  0  0  0  0  0  0
  -11.3903   12.0445    4.2534 C   0  0  2  0  0  0  0  0  0  0  0  0
  -10.0563   12.0730    4.7141 O   0  0  0  0  0  0  0  0  0  0  0  0
   -5.2242   15.2768    6.3765 C   0  0  0  0  0  0  0  0  0  0  0  0
   -8.2042   16.5561    2.4983 C   0  0  2  0  0  0  0  0  0  0  0  0
   -7.1797   17.5584    2.1588 N   0  0  0  0  0  0  0  0  0  0  0  0
  -11.6836   10.7175    3.4554 C   0  0  1  0  0  0  0  0  0  0  0  0
  -11.4838    9.5320    4.3530 N   0  0  0  0  0  0  0  0  0  0  0  0
   -4.5024   16.5851    5.8409 C   0  0  0  0  0  0  0  0  0  0  0  0
   -7.5263   15.1359    2.7416 C   0  0  2  0  0  0  0  0  0  0  0  0
  -13.2355   10.7631    2.9573 C   0  0  1  0  0  0  0  0  0  0  0  0
  -14.1438   10.8942    4.0377 O   0  0  0  0  0  0  0  0  0  0  0  0
   -4.1062   16.6863    4.5446 C   0  0  2  0  0  0  0  0  0  0  0  0
   -4.3108   15.6349    3.5936 O   0  0  0  0  0  0  0  0  0  0  0  0
   -8.6362   14.0781    3.0957 C   0  0  2  0  0  0  0  0  0  0  0  0
   -8.0141   12.7921    3.3048 O   0  0  0  0  0  0  0  0  0  0  0  0
  -13.4575   11.9957    2.0217 C   0  0  0  0  0  0  0  0  0  0  0  0
  -13.0168   13.2465    2.7352 O   0  0  0  0  0  0  0  0  0  0  0  0
   -3.4051   17.9245    3.9825 C   0  0  0  0  0  0  0  0  0  0  0  0
   -2.0453   17.5585    3.6489 O   0  0  0  0  0  0  0  0  0  0  0  0
   -9.6396   13.9794    1.8879 C   0  0  1  0  0  0  0  0  0  0  0  0
  -10.6036   13.0252    2.2052 O   0  0  0  0  0  0  0  0  0  0  0  0
  -13.6986    9.5261    2.1504 C   0  0  0  0  0  0  0  0  0  0  0  0
  -10.9697    8.3007    3.7192 C   0  0  0  0  0  0  0  0  0  0  0  0
  1  2  1  1  0  0  0
  1  6  1  0  0  0  0
  1 21  1  0  0  0  0
  3  4  1  6  0  0  0
  3  8  1  0  0  0  0
  3 28  1  0  0  0  0
  5  9  1  0  0  0  0
  5 25  1  0  0  0  0
  5 29  1  6  0  0  0
  6  7  1  1  0  0  0
  6 11  1  0  0  0  0
  8 12  1  0  0  0  0
  9 10  1  6  0  0  0
  9 14  1  0  0  0  0
 11 16  1  0  0  0  0
 12 13  1  6  0  0  0
 12 17  1  0  0  0  0
 14 15  1  1  0  0  0
 14 18  1  0  0  0  0
 15 31  1  0  0  0  0
 16 20  1  0  0  0  0
 17  2  1  1  0  0  0
 17 22  1  0  0  0  0
 18 19  1  1  0  0  0
 18 24  1  0  0  0  0
 18 30  1  0  0  0  0
 20 21  1  0  0  0  0
 20 26  1  1  0  0  0
 22 23  1  6  0  0  0
 22 28  1  0  0  0  0
 24 25  1  0  0  0  0
 26 27  1  0  0  0  0
 28 29  1  1  0  0  0
M  END
>  <CHROM.1>
-138.25735055,-122.36228149,-146.66780721,-139.31273496,112.55861714,-50.45284754
-8.78263668,13.83174428,3.41528259,-0.41714523,0.44019147,2.57982816

>  <Name>
ligand

>  <RI>
0

>  <Rbt.Current_Directory>
/home/itssahil/PROJECTS/Mol_Feturizer/New_Systems/rnas/4GPX

>  <Rbt.Executable>
rbdock ($Id: //depot/dev/client3/rdock/2013.1/src/exe/rbdock.cxx#4 $)

>  <Rbt.Library>
libRbt.so (2013.1, Build901 2013/11/27)

>  <Rbt.Parameter_File>
/export/apps/rDock/src/rDock_2013.1_src/data/scripts/dock_solv.prm

>  <Rbt.Receptor>
prm/blind_docking_20.prm

>  <SCORE>
-0.19682

>  <SCORE.INTER>
-10.595

>  <SCORE.INTER.CONST>
1

>  <SCORE.INTER.POLAR>
0

>  <SCORE.INTER.ROT>
6

>  <SCORE.INTER.SOLV>
28.43

>  <SCORE.INTER.VDW>
-24.14

>  <SCORE.INTER.norm>
-0.341774

>  <SCORE.INTRA>
3.76145

>  <SCORE.INTRA.DIHEDRAL>
0.572128

>  <SCORE.INTRA.DIHEDRAL.0>
20.6841

>  <SCORE.INTRA.POLAR>
0

>  <SCORE.INTRA.POLAR.0>
0

>  <SCORE.INTRA.REPUL>
0.3918

>  <SCORE.INTRA.REPUL.0>
0

>  <SCORE.INTRA.SOLV>
1.20118

>  <SCORE.INTRA.SOLV.lig_0>
-64.6797

>  <SCORE.INTRA.VDW>
0.915793

>  <SCORE.INTRA.VDW.0>
-4.11825

>  <SCORE.INTRA.norm>
0.121337

>  <SCORE.RESTR>
6.63672

>  <SCORE.RESTR.CAVITY>
6.63672

>  <SCORE.RESTR.norm>
0.214088

>  <SCORE.SYSTEM>
0

>  <SCORE.SYSTEM.CONST>
0

>  <SCORE.SYSTEM.DIHEDRAL>
0

>  <SCORE.SYSTEM.SOLV>
0

>  <SCORE.SYSTEM.norm>
0

>  <SCORE.heavy>
31

>  <SCORE.norm>
-0.00634905

>  <RMSD>
10.614

$$$$
ligand
 OpenBabel11021811493D
libRbt.so/2013.1/901 2013/11/27
 31 33  0  0  0  0  0  0  0  0999 V2000
   -6.4204   15.9710    4.1813 C   0  0  2  0  0  0  0  0  0  0  0  0
   -6.5627   15.5516    2.8273 O   0  0  0  0  0  0  0  0  0  0  0  0
  -10.7807   15.4694    2.2930 C   0  0  2  0  0  0  0  0  0  0  0  0
  -12.0530   15.3916    1.6432 N   0  0  0  0  0  0  0  0  0  0  0  0
  -11.9062   12.5526    1.9335 C   0  0  2  0  0  0  0  0  0  0  0  0
   -4.9637   16.5762    4.3147 C   0  0  2  0  0  0  0  0  0  0  0  0
   -4.8317   17.6906    3.3821 N   0  0  0  0  0  0  0  0  0  0  0  0
   -9.9887   16.7036    1.6935 C   0  0  0  0  0  0  0  0  0  0  0  0
  -12.9219   12.4124    3.1113 C   0  0  2  0  0  0  0  0  0  0  0  0
  -13.0743   13.6767    3.7202 O   0  0  0  0  0  0  0  0  0  0  0  0
   -3.8775   15.4671    4.0164 C   0  0  0  0  0  0  0  0  0  0  0  0
   -8.5865   16.7908    2.4047 C   0  0  2  0  0  0  0  0  0  0  0  0
   -7.8430   17.9336    1.8473 N   0  0  0  0  0  0  0  0  0  0  0  0
  -12.3201   11.3664    4.1250 C   0  0  1  0  0  0  0  0  0  0  0  0
  -13.2465   11.2031    5.2939 N   0  0  0  0  0  0  0  0  0  0  0  0
   -4.2961   14.0449    4.5838 C   0  0  0  0  0  0  0  0  0  0  0  0
   -7.7776   15.4395    2.1692 C   0  0  2  0  0  0  0  0  0  0  0  0
  -12.1732    9.9406    3.3481 C   0  0  1  0  0  0  0  0  0  0  0  0
  -13.4122    9.4732    2.8422 O   0  0  0  0  0  0  0  0  0  0  0  0
   -5.5472   13.8235    5.0670 C   0  0  2  0  0  0  0  0  0  0  0  0
   -6.5522   14.8437    5.0954 O   0  0  0  0  0  0  0  0  0  0  0  0
   -8.5903   14.2307    2.7646 C   0  0  2  0  0  0  0  0  0  0  0  0
   -7.8547   13.0091    2.5379 O   0  0  0  0  0  0  0  0  0  0  0  0
  -11.2109   10.0977    2.1261 C   0  0  0  0  0  0  0  0  0  0  0  0
  -11.7045   11.2154    1.2458 O   0  0  0  0  0  0  0  0  0  0  0  0
   -5.9966   12.4723    5.6262 C   0  0  0  0  0  0  0  0  0  0  0  0
   -5.6584   12.4329    7.0328 O   0  0  0  0  0  0  0  0  0  0  0  0
   -9.9774   14.1460    2.0268 C   0  0  1  0  0  0  0  0  0  0  0  0
  -10.6772   13.0600    2.5478 O   0  0  0  0  0  0  0  0  0  0  0  0
  -11.5926    8.7883    4.2030 C   0  0  0  0  0  0  0  0  0  0  0  0
  -14.6773   11.0081    4.9826 C   0  0  0  0  0  0  0  0  0  0  0  0
  1  2  1  6  0  0  0
  1  6  1  0  0  0  0
  1 21  1  0  0  0  0
  3  4  1  6  0  0  0
  3  8  1  0  0  0  0
  3 28  1  0  0  0  0
  5  9  1  0  0  0  0
  5 25  1  0  0  0  0
  5 29  1  1  0  0  0
  6  7  1  6  0  0  0
  6 11  1  0  0  0  0
  8 12  1  0  0  0  0
  9 10  1  1  0  0  0
  9 14  1  0  0  0  0
 11 16  1  0  0  0  0
 12 13  1  6  0  0  0
 12 17  1  0  0  0  0
 14 15  1  1  0  0  0
 14 18  1  0  0  0  0
 15 31  1  0  0  0  0
 16 20  1  0  0  0  0
 17  2  1  1  0  0  0
 17 22  1  0  0  0  0
 18 19  1  6  0  0  0
 18 24  1  0  0  0  0
 18 30  1  0  0  0  0
 20 21  1  0  0  0  0
 20 26  1  1  0  0  0
 22 23  1  6  0  0  0
 22 28  1  0  0  0  0
 24 25  1  0  0  0  0
 26 27  1  0  0  0  0
 28 29  1  1  0  0  0
M  END
>  <CHROM.1>
-154.82632817,-131.39931433,47.44114352,49.41789508,87.54428068,71.97944454
-9.27595977,13.59128257,3.40240303,0.45669434,-0.36692862,-0.49790026

>  <Name>
ligand

>  <RI>
0

>  <Rbt.Current_Directory>
/home/itssahil/PROJECTS/Mol_Feturizer/New_Systems/rnas/4GPX

>  <Rbt.Executable>
rbdock ($Id: //depot/dev/client3/rdock/2013.1/src/exe/rbdock.cxx#4 $)

>  <Rbt.Library>
libRbt.so (2013.1, Build901 2013/11/27)

>  <Rbt.Parameter_File>
/export/apps/rDock/src/rDock_2013.1_src/data/scripts/dock_solv.prm

>  <Rbt.Receptor>
prm/blind_docking_20.prm

>  <SCORE>
7.9494

>  <SCORE.INTER>
1.48784

>  <SCORE.INTER.CONST>
1

>  <SCORE.INTER.POLAR>
0

>  <SCORE.INTER.ROT>
6

>  <SCORE.INTER.SOLV>
31.5331

>  <SCORE.INTER.VDW>
-17.1192

>  <SCORE.INTER.norm>
0.0479949

>  <SCORE.INTRA>
-0.161546

>  <SCORE.INTRA.DIHEDRAL>
-7.28436

>  <SCORE.INTRA.DIHEDRAL.0>
20.6841

>  <SCORE.INTRA.POLAR>
0

>  <SCORE.INTRA.POLAR.0>
0

>  <SCORE.INTRA.REPUL>
0

>  <SCORE.INTRA.REPUL.0>
0

>  <SCORE.INTRA.SOLV>
1.6417

>  <SCORE.INTRA.SOLV.lig_0>
-64.6797

>  <SCORE.INTRA.VDW>
2.65978

>  <SCORE.INTRA.VDW.0>
-4.11825

>  <SCORE.INTRA.norm>
-0.00521117

>  <SCORE.RESTR>
6.6231

>  <SCORE.RESTR.CAVITY>
6.6231

>  <SCORE.RESTR.norm>
0.213648

>  <SCORE.SYSTEM>
0

>  <SCORE.SYSTEM.CONST>
0

>  <SCORE.SYSTEM.DIHEDRAL>
0

>  <SCORE.SYSTEM.SOLV>
0

>  <SCORE.SYSTEM.norm>
0

>  <SCORE.heavy>
31

>  <SCORE.norm>
0.256432

>  <RMSD>
10.616

$$$$
ligand
 OpenBabel11021811493D
libRbt.so/2013.1/901 2013/11/27
 31 33  0  0  0  0  0  0  0  0999 V2000
   -5.4137   14.4096    3.8849 C   0  0  2  0  0  0  0  0  0  0  0  0
   -6.5122   15.2762    3.6176 O   0  0  0  0  0  0  0  0  0  0  0  0
  -10.4142   14.9211    1.9646 C   0  0  2  0  0  0  0  0  0  0  0  0
  -11.4546   14.6984    1.0081 N   0  0  0  0  0  0  0  0  0  0  0  0
  -11.6060   12.1970    1.8956 C   0  0  2  0  0  0  0  0  0  0  0  0
   -5.5517   13.9603    5.3965 C   0  0  2  0  0  0  0  0  0  0  0  0
   -6.8335   13.2849    5.5698 N   0  0  0  0  0  0  0  0  0  0  0  0
   -9.5001   16.1046    1.4413 C   0  0  0  0  0  0  0  0  0  0  0  0
  -12.6925   12.2124    3.0172 C   0  0  2  0  0  0  0  0  0  0  0  0
  -12.7242   13.5031    3.5881 O   0  0  0  0  0  0  0  0  0  0  0  0
   -5.4468   15.2131    6.3549 C   0  0  0  0  0  0  0  0  0  0  0  0
   -8.3520   16.3508    2.4905 C   0  0  2  0  0  0  0  0  0  0  0  0
   -7.4953   17.4469    2.0065 N   0  0  0  0  0  0  0  0  0  0  0  0
  -12.2754   11.1323    4.0864 C   0  0  1  0  0  0  0  0  0  0  0  0
  -13.2756   11.1140    5.2046 N   0  0  0  0  0  0  0  0  0  0  0  0
   -4.3829   16.2751    5.8450 C   0  0  0  0  0  0  0  0  0  0  0  0
   -7.4949   15.0213    2.6738 C   0  0  2  0  0  0  0  0  0  0  0  0
  -12.2596    9.6772    3.3511 C   0  0  1  0  0  0  0  0  0  0  0  0
  -13.5170    9.3456    2.7869 O   0  0  0  0  0  0  0  0  0  0  0  0
   -3.8196   16.1668    4.6127 C   0  0  2  0  0  0  0  0  0  0  0  0
   -4.1443   15.1037    3.7094 O   0  0  0  0  0  0  0  0  0  0  0  0
   -8.4279   13.8614    3.1839 C   0  0  2  0  0  0  0  0  0  0  0  0
   -7.6452   12.6580    3.3376 O   0  0  0  0  0  0  0  0  0  0  0  0
  -11.2216    9.6835    2.1821 C   0  0  0  0  0  0  0  0  0  0  0  0
  -11.5299   10.8259    1.2505 O   0  0  0  0  0  0  0  0  0  0  0  0
   -2.7887   17.1629    4.0782 C   0  0  0  0  0  0  0  0  0  0  0  0
   -3.5009   18.3034    3.5431 O   0  0  0  0  0  0  0  0  0  0  0  0
   -9.5542   13.6150    2.1132 C   0  0  1  0  0  0  0  0  0  0  0  0
  -10.3595   12.5726    2.5667 O   0  0  0  0  0  0  0  0  0  0  0  0
  -11.8678    8.4894    4.2630 C   0  0  0  0  0  0  0  0  0  0  0  0
  -14.7012   11.1057    4.8177 C   0  0  0  0  0  0  0  0  0  0  0  0
  1  2  1  1  0  0  0
  1  6  1  0  0  0  0
  1 21  1  0  0  0  0
  3  4  1  6  0  0  0
  3  8  1  0  0  0  0
  3 28  1  0  0  0  0
  5  9  1  0  0  0  0
  5 25  1  0  0  0  0
  5 29  1  1  0  0  0
  6  7  1  6  0  0  0
  6 11  1  0  0  0  0
  8 12  1  0  0  0  0
  9 10  1  1  0  0  0
  9 14  1  0  0  0  0
 11 16  1  0  0  0  0
 12 13  1  6  0  0  0
 12 17  1  0  0  0  0
 14 15  1  1  0  0  0
 14 18  1  0  0  0  0
 15 31  1  0  0  0  0
 16 20  1  0  0  0  0
 17  2  1  1  0  0  0
 17 22  1  0  0  0  0
 18 19  1  6  0  0  0
 18 24  1  0  0  0  0
 18 30  1  0  0  0  0
 20 21  1  0  0  0  0
 20 26  1  1  0  0  0
 22 23  1  6  0  0  0
 22 28  1  0  0  0  0
 24 25  1  0  0  0  0
 26 27  1  0  0  0  0
 28 29  1  1  0  0  0
M  END
>  <CHROM.1>
-118.32867550,-126.84703616,46.37277170,-168.87646440,-82.75439872,53.25869046
-8.93166987,13.58821396,3.41174026,-0.41618542,0.45375297,2.52934768

>  <Name>
ligand

>  <RI>
0

>  <Rbt.Current_Directory>
/home/itssahil/PROJECTS/Mol_Feturizer/New_Systems/rnas/4GPX

>  <Rbt.Executable>
rbdock ($Id: //depot/dev/client3/rdock/2013.1/src/exe/rbdock.cxx#4 $)

>  <Rbt.Library>
libRbt.so (2013.1, Build901 2013/11/27)

>  <Rbt.Parameter_File>
/export/apps/rDock/src/rDock_2013.1_src/data/scripts/dock_solv.prm

>  <Rbt.Receptor>
prm/blind_docking_20.prm

>  <SCORE>
-0.0599822

>  <SCORE.INTER>
-9.85817

>  <SCORE.INTER.CONST>
1

>  <SCORE.INTER.POLAR>
0

>  <SCORE.INTER.ROT>
6

>  <SCORE.INTER.SOLV>
29.1806

>  <SCORE.INTER.VDW>
-23.899

>  <SCORE.INTER.norm>
-0.318006

>  <SCORE.INTRA>
3.97385

>  <SCORE.INTRA.DIHEDRAL>
-2.56824

>  <SCORE.INTRA.DIHEDRAL.0>
20.6841

>  <SCORE.INTRA.POLAR>
0

>  <SCORE.INTRA.POLAR.0>
0

>  <SCORE.INTRA.REPUL>
0

>  <SCORE.INTRA.REPUL.0>
0

>  <SCORE.INTRA.SOLV>
1.69862

>  <SCORE.INTRA.SOLV.lig_0>
-64.6797

>  <SCORE.INTRA.VDW>
4.40866

>  <SCORE.INTRA.VDW.0>
-4.11825

>  <SCORE.INTRA.norm>
0.128189

>  <SCORE.RESTR>
5.82434

>  <SCORE.RESTR.CAVITY>
5.82434

>  <SCORE.RESTR.norm>
0.187882

>  <SCORE.SYSTEM>
0

>  <SCORE.SYSTEM.CONST>
0

>  <SCORE.SYSTEM.DIHEDRAL>
0

>  <SCORE.SYSTEM.SOLV>
0

>  <SCORE.SYSTEM.norm>
0

>  <SCORE.heavy>
31

>  <SCORE.norm>
-0.00193491

>  <RMSD>
10.618

$$$$
ligand
 OpenBabel11021811493D
libRbt.so/2013.1/901 2013/11/27
 31 33  0  0  0  0  0  0  0  0999 V2000
   -6.3394   16.2716    4.1032 C   0  0  2  0  0  0  0  0  0  0  0  0
   -6.5398   16.0770    2.7064 O   0  0  0  0  0  0  0  0  0  0  0  0
  -10.7770   15.9598    2.3656 C   0  0  2  0  0  0  0  0  0  0  0  0
  -12.0766   15.8438    1.7785 N   0  0  0  0  0  0  0  0  0  0  0  0
  -11.3242   13.7129    4.0458 C   0  0  2  0  0  0  0  0  0  0  0  0
   -4.8030   16.6005    4.2963 C   0  0  2  0  0  0  0  0  0  0  0  0
   -4.4794   17.7976    3.5272 N   0  0  0  0  0  0  0  0  0  0  0  0
  -10.0169   17.1588    1.6625 C   0  0  0  0  0  0  0  0  0  0  0  0
  -11.3556   12.2734    4.6503 C   0  0  2  0  0  0  0  0  0  0  0  0
  -10.0281   11.8040    4.7506 O   0  0  0  0  0  0  0  0  0  0  0  0
   -3.9155   15.3792    3.8277 C   0  0  0  0  0  0  0  0  0  0  0  0
   -8.5849   17.2879    2.3046 C   0  0  2  0  0  0  0  0  0  0  0  0
   -7.8710   18.3981    1.6508 N   0  0  0  0  0  0  0  0  0  0  0  0
  -12.2000   11.3735    3.6701 C   0  0  1  0  0  0  0  0  0  0  0  0
  -12.2497    9.9669    4.1899 N   0  0  0  0  0  0  0  0  0  0  0  0
   -4.5704   13.9811    4.1968 C   0  0  0  0  0  0  0  0  0  0  0  0
   -7.7823   15.9263    2.1104 C   0  0  2  0  0  0  0  0  0  0  0  0
  -13.7120   11.9804    3.6072 C   0  0  1  0  0  0  0  0  0  0  0  0
  -14.3280   12.0238    4.8831 O   0  0  0  0  0  0  0  0  0  0  0  0
   -5.8444   13.9055    4.6647 C   0  0  2  0  0  0  0  0  0  0  0  0
   -6.6648   15.0646    4.8523 O   0  0  0  0  0  0  0  0  0  0  0  0
   -8.5633   14.7523    2.8088 C   0  0  2  0  0  0  0  0  0  0  0  0
   -7.8341   13.5207    2.6192 O   0  0  0  0  0  0  0  0  0  0  0  0
  -13.6739   13.4473    3.0681 C   0  0  0  0  0  0  0  0  0  0  0  0
  -12.7321   14.2630    3.9140 O   0  0  0  0  0  0  0  0  0  0  0  0
   -6.5178   12.5830    5.0361 C   0  0  0  0  0  0  0  0  0  0  0  0
   -7.9497   12.7928    5.0388 O   0  0  0  0  0  0  0  0  0  0  0  0
   -9.9815   14.6243    2.1394 C   0  0  1  0  0  0  0  0  0  0  0  0
  -10.6535   13.5688    2.7517 O   0  0  0  0  0  0  0  0  0  0  0  0
  -14.6861   11.2112    2.6824 C   0  0  0  0  0  0  0  0  0  0  0  0
  -11.6556    8.9221    3.3310 C   0  0  0  0  0  0  0  0  0  0  0  0
  1  2  1  6  0  0  0
  1  6  1  0  0  0  0
  1 21  1  0  0  0  0
  3  4  1  6  0  0  0
  3  8  1  0  0  0  0
  3 28  1  0  0  0  0
  5  9  1  0  0  0  0
  5 25  1  0  0  0  0
  5 29  1  6  0  0  0
  6  7  1  6  0  0  0
  6 11  1  0  0  0  0
  8 12  1  0  0  0  0
  9 10  1  6  0  0  0
  9 14  1  0  0  0  0
 11 16  1  0  0  0  0
 12 13  1  6  0  0  0
 12 17  1  0  0  0  0
 14 15  1  1  0  0  0
 14 18  1  0  0  0  0
 15 31  1  0  0  0  0
 16 20  1  0  0  0  0
 17  2  1  1  0  0  0
 17 22  1  0  0  0  0
 18 19  1  1  0  0  0
 18 24  1  0  0  0  0
 18 30  1  0  0  0  0
 20 21  1  0  0  0  0
 20 26  1  1  0  0  0
 22 23  1  6  0  0  0
 22 28  1  0  0  0  0
 24 25  1  0  0  0  0
 26 27  1  0  0  0  0
 28 29  1  1  0  0  0
M  END
>  <CHROM.1>
-171.98323230,-154.92815019,-118.27888958,64.57595245,-160.32239793,-38.50143518
-9.36390768,14.10081582,3.47581437,-0.49084773,0.21590247,2.73221095

>  <Name>
ligand

>  <RI>
0

>  <Rbt.Current_Directory>
/home/itssahil/PROJECTS/Mol_Feturizer/New_Systems/rnas/4GPX

>  <Rbt.Executable>
rbdock ($Id: //depot/dev/client3/rdock/2013.1/src/exe/rbdock.cxx#4 $)

>  <Rbt.Library>
libRbt.so (2013.1, Build901 2013/11/27)

>  <Rbt.Parameter_File>
/export/apps/rDock/src/rDock_2013.1_src/data/scripts/dock_solv.prm

>  <Rbt.Receptor>
prm/blind_docking_100.prm

>  <SCORE>
10.7637

>  <SCORE.INTER>
5.07824

>  <SCORE.INTER.CONST>
1

>  <SCORE.INTER.POLAR>
0

>  <SCORE.INTER.ROT>
6

>  <SCORE.INTER.SOLV>
33.7895

>  <SCORE.INTER.VDW>
-15.4777

>  <SCORE.INTER.norm>
0.163814

>  <SCORE.INTRA>
1.0426

>  <SCORE.INTRA.DIHEDRAL>
-11.1962

>  <SCORE.INTRA.DIHEDRAL.0>
20.6841

>  <SCORE.INTRA.POLAR>
0

>  <SCORE.INTRA.POLAR.0>
0

>  <SCORE.INTRA.REPUL>
0.431775

>  <SCORE.INTRA.REPUL.0>
0

>  <SCORE.INTRA.SOLV>
2.45812

>  <SCORE.INTRA.SOLV.lig_0>
-64.6797

>  <SCORE.INTRA.VDW>
3.25277

>  <SCORE.INTRA.VDW.0>
-4.11825

>  <SCORE.INTRA.norm>
0.0336323

>  <SCORE.RESTR>
4.64283

>  <SCORE.RESTR.CAVITY>
4.64283

>  <SCORE.RESTR.norm>
0.149769

>  <SCORE.SYSTEM>
0

>  <SCORE.SYSTEM.CONST>
0

>  <SCORE.SYSTEM.DIHEDRAL>
0

>  <SCORE.SYSTEM.SOLV>
0

>  <SCORE.SYSTEM.norm>
0

>  <SCORE.heavy>
31

>  <SCORE.norm>
0.347215

>  <RMSD>
10.629

$$$$
ligand
 OpenBabel11021811493D
libRbt.so/2013.1/901 2013/11/27
 31 33  0  0  0  0  0  0  0  0999 V2000
   -5.4029   14.4991    3.8543 C   0  0  2  0  0  0  0  0  0  0  0  0
   -6.4901   15.3848    3.6042 O   0  0  0  0  0  0  0  0  0  0  0  0
  -10.4201   15.0867    2.0073 C   0  0  2  0  0  0  0  0  0  0  0  0
  -11.4773   14.8840    1.0648 N   0  0  0  0  0  0  0  0  0  0  0  0
  -11.6194   12.3468    1.9053 C   0  0  2  0  0  0  0  0  0  0  0  0
   -5.5271   14.0492    5.3670 C   0  0  2  0  0  0  0  0  0  0  0  0
   -6.8177   13.3954    5.5573 N   0  0  0  0  0  0  0  0  0  0  0  0
   -9.5013   16.2651    1.4810 C   0  0  0  0  0  0  0  0  0  0  0  0
  -12.7139   12.3448    3.0192 C   0  0  2  0  0  0  0  0  0  0  0  0
  -12.7636   13.6320    3.5963 O   0  0  0  0  0  0  0  0  0  0  0  0
   -5.3873   15.2981    6.3259 C   0  0  0  0  0  0  0  0  0  0  0  0
   -8.3350   16.4893    2.5149 C   0  0  2  0  0  0  0  0  0  0  0  0
   -7.4738   17.5806    2.0280 N   0  0  0  0  0  0  0  0  0  0  0  0
  -12.2928   11.2637    4.0858 C   0  0  1  0  0  0  0  0  0  0  0  0
  -13.3007   11.2289    5.1967 N   0  0  0  0  0  0  0  0  0  0  0  0
   -4.3128   16.3428    5.8029 C   0  0  0  0  0  0  0  0  0  0  0  0
   -7.4897   15.1492    2.6730 C   0  0  2  0  0  0  0  0  0  0  0  0
  -12.2561    9.8126    3.3433 C   0  0  1  0  0  0  0  0  0  0  0  0
  -13.5059    9.4705    2.7685 O   0  0  0  0  0  0  0  0  0  0  0  0
   -3.7688   16.2274    4.5625 C   0  0  2  0  0  0  0  0  0  0  0  0
   -4.1244   15.1717    3.6621 O   0  0  0  0  0  0  0  0  0  0  0  0
   -8.4273   13.9946    3.1867 C   0  0  2  0  0  0  0  0  0  0  0  0
   -7.6554   12.7815    3.3176 O   0  0  0  0  0  0  0  0  0  0  0  0
  -11.2100    9.8361    2.1818 C   0  0  0  0  0  0  0  0  0  0  0  0
  -11.5240   10.9799    1.2538 O   0  0  0  0  0  0  0  0  0  0  0  0
   -2.7287   17.2068    4.0152 C   0  0  0  0  0  0  0  0  0  0  0  0
   -3.3829   18.4778    3.7897 O   0  0  0  0  0  0  0  0  0  0  0  0
   -9.5722   13.7702    2.1311 C   0  0  1  0  0  0  0  0  0  0  0  0
  -10.3818   12.7322    2.5872 O   0  0  0  0  0  0  0  0  0  0  0  0
  -11.8581    8.6245    4.2520 C   0  0  0  0  0  0  0  0  0  0  0  0
  -14.7218   11.1601    4.7996 C   0  0  0  0  0  0  0  0  0  0  0  0
  1  2  1  1  0  0  0
  1  6  1  0  0  0  0
  1 21  1  0  0  0  0
  3  4  1  6  0  0  0
  3  8  1  0  0  0  0
  3 28  1  0  0  0  0
  5  9  1  0  0  0  0
  5 25  1  0  0  0  0
  5 29  1  1  0  0  0
  6  7  1  6  0  0  0
  6 11  1  0  0  0  0
  8 12  1  0  0  0  0
  9 10  1  1  0  0  0
  9 14  1  0  0  0  0
 11 16  1  0  0  0  0
 12 13  1  6  0  0  0
 12 17  1  0  0  0  0
 14 15  1  1  0  0  0
 14 18  1  0  0  0  0
 15 31  1  0  0  0  0
 16 20  1  0  0  0  0
 17  2  1  1  0  0  0
 17 22  1  0  0  0  0
 18 19  1  6  0  0  0
 18 24  1  0  0  0  0
 18 30  1  0  0  0  0
 20 21  1  0  0  0  0
 20 26  1  1  0  0  0
 22 23  1  6  0  0  0
 22 28  1  0  0  0  0
 24 25  1  0  0  0  0
 26 27  1  0  0  0  0
 28 29  1  1  0  0  0
M  END
>  <CHROM.1>
-118.38962014,-128.01723746,48.42473524,-169.39814439,-69.26589445,55.37280313
-8.92109964,13.71064270,3.41552269,-0.42249123,0.43842213,2.55659200

>  <Name>
ligand

>  <RI>
0

>  <Rbt.Current_Directory>
/home/itssahil/PROJECTS/Mol_Feturizer/New_Systems/rnas/4GPX

>  <Rbt.Executable>
rbdock ($Id: //depot/dev/client3/rdock/2013.1/src/exe/rbdock.cxx#4 $)

>  <Rbt.Library>
libRbt.so (2013.1, Build901 2013/11/27)

>  <Rbt.Parameter_File>
/export/apps/rDock/src/rDock_2013.1_src/data/scripts/dock_solv.prm

>  <Rbt.Receptor>
prm/blind_docking_20.prm

>  <SCORE>
-0.365381

>  <SCORE.INTER>
-10.2199

>  <SCORE.INTER.CONST>
1

>  <SCORE.INTER.POLAR>
0

>  <SCORE.INTER.ROT>
6

>  <SCORE.INTER.SOLV>
28.9303

>  <SCORE.INTER.VDW>
-24.0567

>  <SCORE.INTER.norm>
-0.329673

>  <SCORE.INTRA>
3.91989

>  <SCORE.INTRA.DIHEDRAL>
-2.3658

>  <SCORE.INTRA.DIHEDRAL.0>
20.6841

>  <SCORE.INTRA.POLAR>
0

>  <SCORE.INTRA.POLAR.0>
0

>  <SCORE.INTRA.REPUL>
0

>  <SCORE.INTRA.REPUL.0>
0

>  <SCORE.INTRA.SOLV>
1.63908

>  <SCORE.INTRA.SOLV.lig_0>
-64.6797

>  <SCORE.INTRA.VDW>
4.28325

>  <SCORE.INTRA.VDW.0>
-4.11825

>  <SCORE.INTRA.norm>
0.126448

>  <SCORE.RESTR>
5.9346

>  <SCORE.RESTR.CAVITY>
5.9346

>  <SCORE.RESTR.norm>
0.191439

>  <SCORE.SYSTEM>
0

>  <SCORE.SYSTEM.CONST>
0

>  <SCORE.SYSTEM.DIHEDRAL>
0

>  <SCORE.SYSTEM.SOLV>
0

>  <SCORE.SYSTEM.norm>
0

>  <SCORE.heavy>
31

>  <SCORE.norm>
-0.0117865

>  <RMSD>
10.635

$$$$
ligand
 OpenBabel11021811493D
libRbt.so/2013.1/901 2013/11/27
 31 33  0  0  0  0  0  0  0  0999 V2000
   -6.8473   13.3586    3.4546 C   0  0  2  0  0  0  0  0  0  0  0  0
   -8.1626   13.3856    4.0009 O   0  0  0  0  0  0  0  0  0  0  0  0
  -12.2862   13.4620    2.9647 C   0  0  2  0  0  0  0  0  0  0  0  0
  -13.4911   13.2471    2.2238 N   0  0  0  0  0  0  0  0  0  0  0  0
  -13.5748   10.4988    3.5380 C   0  0  2  0  0  0  0  0  0  0  0  0
   -5.8518   13.2600    4.6816 C   0  0  2  0  0  0  0  0  0  0  0  0
   -6.1543   12.0472    5.4346 N   0  0  0  0  0  0  0  0  0  0  0  0
  -11.2866   14.2953    2.0611 C   0  0  0  0  0  0  0  0  0  0  0  0
  -13.5890    9.2070    4.4153 C   0  0  2  0  0  0  0  0  0  0  0  0
  -13.8349    9.5812    5.7540 O   0  0  0  0  0  0  0  0  0  0  0  0
   -5.9860   14.5372    5.6032 C   0  0  0  0  0  0  0  0  0  0  0  0
   -9.9580   14.5315    2.8726 C   0  0  2  0  0  0  0  0  0  0  0  0
   -9.0222   15.3014    2.0352 N   0  0  0  0  0  0  0  0  0  0  0  0
  -12.1743    8.5279    4.2696 C   0  0  1  0  0  0  0  0  0  0  0  0
  -12.1198    7.2859    5.1096 N   0  0  0  0  0  0  0  0  0  0  0  0
   -6.2218   15.8641    4.7644 C   0  0  0  0  0  0  0  0  0  0  0  0
   -9.3147   13.1311    3.2732 C   0  0  2  0  0  0  0  0  0  0  0  0
  -11.9667    8.1301    2.7021 C   0  0  1  0  0  0  0  0  0  0  0  0
  -12.9785    7.2568    2.2299 O   0  0  0  0  0  0  0  0  0  0  0  0
   -6.4849   15.8135    3.4318 C   0  0  2  0  0  0  0  0  0  0  0  0
   -6.5642   14.5789    2.7100 O   0  0  0  0  0  0  0  0  0  0  0  0
  -10.3309   12.3212    4.1606 C   0  0  2  0  0  0  0  0  0  0  0  0
   -9.7437   11.0495    4.5106 O   0  0  0  0  0  0  0  0  0  0  0  0
  -12.0229    9.4164    1.8154 C   0  0  0  0  0  0  0  0  0  0  0  0
  -13.3102   10.1498    2.0853 O   0  0  0  0  0  0  0  0  0  0  0  0
   -6.7165   17.0637    2.5809 C   0  0  0  0  0  0  0  0  0  0  0  0
   -8.0545   17.5468    2.8466 O   0  0  0  0  0  0  0  0  0  0  0  0
  -11.6418   12.0757    3.3259 C   0  0  1  0  0  0  0  0  0  0  0  0
  -12.5236   11.3401    4.1146 O   0  0  0  0  0  0  0  0  0  0  0  0
  -10.6174    7.4455    2.3758 C   0  0  0  0  0  0  0  0  0  0  0  0
  -10.8177    6.5921    5.1822 C   0  0  0  0  0  0  0  0  0  0  0  0
  1  2  1  1  0  0  0
  1  6  1  0  0  0  0
  1 21  1  0  0  0  0
  3  4  1  6  0  0  0
  3  8  1  0  0  0  0
  3 28  1  0  0  0  0
  5  9  1  0  0  0  0
  5 25  1  0  0  0  0
  5 29  1  1  0  0  0
  6  7  1  1  0  0  0
  6 11  1  0  0  0  0
  8 12  1  0  0  0  0
  9 10  1  1  0  0  0
  9 14  1  0  0  0  0
 11 16  1  0  0  0  0
 12 13  1  6  0  0  0
 12 17  1  0  0  0  0
 14 15  1  1  0  0  0
 14 18  1  0  0  0  0
 15 31  1  0  0  0  0
 16 20  1  0  0  0  0
 17  2  1  1  0  0  0
 17 22  1  0  0  0  0
 18 19  1  6  0  0  0
 18 24  1  0  0  0  0
 18 30  1  0  0  0  0
 20 21  1  0  0  0  0
 20 26  1  6  0  0  0
 22 23  1  6  0  0  0
 22 28  1  0  0  0  0
 24 25  1  0  0  0  0
 26 27  1  0  0  0  0
 28 29  1  1  0  0  0
M  END
>  <CHROM.1>
-163.00627131,139.60059370,-174.66565324,-98.83425675,-76.76530311,85.82320225
-10.12921917,11.98995761,3.56643693,-0.83185598,0.33437959,2.84290302

>  <Name>
ligand

>  <RI>
0

>  <Rbt.Current_Directory>
/home/itssahil/PROJECTS/Mol_Feturizer/New_Systems/rnas/4GPX

>  <Rbt.Executable>
rbdock ($Id: //depot/dev/client3/rdock/2013.1/src/exe/rbdock.cxx#4 $)

>  <Rbt.Library>
libRbt.so (2013.1, Build901 2013/11/27)

>  <Rbt.Parameter_File>
/export/apps/rDock/src/rDock_2013.1_src/data/scripts/dock_solv.prm

>  <Rbt.Receptor>
prm/blind_docking_20.prm

>  <SCORE>
29.673

>  <SCORE.INTER>
21.3006

>  <SCORE.INTER.CONST>
1

>  <SCORE.INTER.POLAR>
0

>  <SCORE.INTER.ROT>
6

>  <SCORE.INTER.SOLV>
28.4181

>  <SCORE.INTER.VDW>
-2.87232

>  <SCORE.INTER.norm>
0.687115

>  <SCORE.INTRA>
4.12635

>  <SCORE.INTRA.DIHEDRAL>
-2.57903

>  <SCORE.INTRA.DIHEDRAL.0>
20.6841

>  <SCORE.INTRA.POLAR>
0

>  <SCORE.INTRA.POLAR.0>
0

>  <SCORE.INTRA.REPUL>
0

>  <SCORE.INTRA.REPUL.0>
0

>  <SCORE.INTRA.SOLV>
3.58313

>  <SCORE.INTRA.SOLV.lig_0>
-64.6797

>  <SCORE.INTRA.VDW>
3.62429

>  <SCORE.INTRA.VDW.0>
-4.11825

>  <SCORE.INTRA.norm>
0.133108

>  <SCORE.RESTR>
4.24608

>  <SCORE.RESTR.CAVITY>
4.24608

>  <SCORE.RESTR.norm>
0.13697

>  <SCORE.SYSTEM>
0

>  <SCORE.SYSTEM.CONST>
0

>  <SCORE.SYSTEM.DIHEDRAL>
0

>  <SCORE.SYSTEM.SOLV>
0

>  <SCORE.SYSTEM.norm>
0

>  <SCORE.heavy>
31

>  <SCORE.norm>
0.957193

>  <RMSD>
10.642

$$$$
ligand
 OpenBabel11021811493D
libRbt.so/2013.1/901 2013/11/27
 31 33  0  0  0  0  0  0  0  0999 V2000
   -5.4011   14.4777    3.8809 C   0  0  2  0  0  0  0  0  0  0  0  0
   -6.4922   15.3575    3.6269 O   0  0  0  0  0  0  0  0  0  0  0  0
  -10.4058   15.0699    1.9883 C   0  0  2  0  0  0  0  0  0  0  0  0
  -11.4535   14.8658    1.0357 N   0  0  0  0  0  0  0  0  0  0  0  0
  -11.6227   12.3392    1.8974 C   0  0  2  0  0  0  0  0  0  0  0  0
   -5.5161   14.0440    5.3991 C   0  0  2  0  0  0  0  0  0  0  0  0
   -6.8037   13.3887    5.6033 N   0  0  0  0  0  0  0  0  0  0  0  0
   -9.4740   16.2384    1.4629 C   0  0  0  0  0  0  0  0  0  0  0  0
  -12.7235   12.3348    3.0051 C   0  0  2  0  0  0  0  0  0  0  0  0
  -12.7743   13.6200    3.5868 O   0  0  0  0  0  0  0  0  0  0  0  0
   -5.3750   15.3038    6.3435 C   0  0  0  0  0  0  0  0  0  0  0  0
   -8.3180   16.4641    2.5079 C   0  0  2  0  0  0  0  0  0  0  0  0
   -7.4447   17.5461    2.0219 N   0  0  0  0  0  0  0  0  0  0  0  0
  -12.3102   11.2491    4.0700 C   0  0  1  0  0  0  0  0  0  0  0  0
  -13.3244   11.2117    5.1751 N   0  0  0  0  0  0  0  0  0  0  0  0
   -4.3062   16.3457    5.8034 C   0  0  0  0  0  0  0  0  0  0  0  0
   -7.4827   15.1202    2.6865 C   0  0  2  0  0  0  0  0  0  0  0  0
  -12.2717    9.8007    3.3223 C   0  0  1  0  0  0  0  0  0  0  0  0
  -13.5187    9.4628    2.7391 O   0  0  0  0  0  0  0  0  0  0  0  0
   -3.7684   16.2183    4.5615 C   0  0  2  0  0  0  0  0  0  0  0  0
   -4.1256   15.1518    3.6746 O   0  0  0  0  0  0  0  0  0  0  0  0
   -8.4331   13.9755    3.1989 C   0  0  2  0  0  0  0  0  0  0  0  0
   -7.6701   12.7590    3.3484 O   0  0  0  0  0  0  0  0  0  0  0  0
  -11.2190    9.8269    2.1668 C   0  0  0  0  0  0  0  0  0  0  0  0
  -11.5259   10.9746    1.2413 O   0  0  0  0  0  0  0  0  0  0  0  0
   -2.7341   17.1946    3.9980 C   0  0  0  0  0  0  0  0  0  0  0  0
   -3.4021   18.4488    3.7243 O   0  0  0  0  0  0  0  0  0  0  0  0
   -9.5674   13.7493    2.1323 C   0  0  1  0  0  0  0  0  0  0  0  0
  -10.3883   12.7201    2.5877 O   0  0  0  0  0  0  0  0  0  0  0  0
  -11.8808    8.6085    4.2286 C   0  0  0  0  0  0  0  0  0  0  0  0
  -14.7438   11.1559    4.7696 C   0  0  0  0  0  0  0  0  0  0  0  0
  1  2  1  1  0  0  0
  1  6  1  0  0  0  0
  1 21  1  0  0  0  0
  3  4  1  6  0  0  0
  3  8  1  0  0  0  0
  3 28  1  0  0  0  0
  5  9  1  0  0  0  0
  5 25  1  0  0  0  0
  5 29  1  1  0  0  0
  6  7  1  6  0  0  0
  6 11  1  0  0  0  0
  8 12  1  0  0  0  0
  9 10  1  1  0  0  0
  9 14  1  0  0  0  0
 11 16  1  0  0  0  0
 12 13  1  6  0  0  0
 12 17  1  0  0  0  0
 14 15  1  1  0  0  0
 14 18  1  0  0  0  0
 15 31  1  0  0  0  0
 16 20  1  0  0  0  0
 17  2  1  1  0  0  0
 17 22  1  0  0  0  0
 18 19  1  6  0  0  0
 18 24  1  0  0  0  0
 18 30  1  0  0  0  0
 20 21  1  0  0  0  0
 20 26  1  1  0  0  0
 22 23  1  6  0  0  0
 22 28  1  0  0  0  0
 24 25  1  0  0  0  0
 26 27  1  0  0  0  0
 28 29  1  1  0  0  0
M  END
>  <CHROM.1>
-119.61544765,-128.69399887,48.02914834,-168.31501863,-70.96412102,55.17998372
-8.92258297,13.69568090,3.41054345,-0.41610328,0.44286769,2.54670334

>  <Name>
ligand

>  <RI>
0

>  <Rbt.Current_Directory>
/home/itssahil/PROJECTS/Mol_Feturizer/New_Systems/rnas/4GPX

>  <Rbt.Executable>
rbdock ($Id: //depot/dev/client3/rdock/2013.1/src/exe/rbdock.cxx#4 $)

>  <Rbt.Library>
libRbt.so (2013.1, Build901 2013/11/27)

>  <Rbt.Parameter_File>
/export/apps/rDock/src/rDock_2013.1_src/data/scripts/dock_solv.prm

>  <Rbt.Receptor>
prm/blind_docking_20.prm

>  <SCORE>
-0.693101

>  <SCORE.INTER>
-10.3776

>  <SCORE.INTER.CONST>
1

>  <SCORE.INTER.POLAR>
0

>  <SCORE.INTER.ROT>
6

>  <SCORE.INTER.SOLV>
28.925

>  <SCORE.INTER.VDW>
-24.16

>  <SCORE.INTER.norm>
-0.33476

>  <SCORE.INTRA>
3.68449

>  <SCORE.INTRA.DIHEDRAL>
-2.32254

>  <SCORE.INTRA.DIHEDRAL.0>
20.6841

>  <SCORE.INTRA.POLAR>
0

>  <SCORE.INTRA.POLAR.0>
0

>  <SCORE.INTRA.REPUL>
0

>  <SCORE.INTRA.REPUL.0>
0

>  <SCORE.INTRA.SOLV>
1.54283

>  <SCORE.INTRA.SOLV.lig_0>
-64.6797

>  <SCORE.INTRA.VDW>
4.07435

>  <SCORE.INTRA.VDW.0>
-4.11825

>  <SCORE.INTRA.norm>
0.118855

>  <SCORE.RESTR>
5.99997

>  <SCORE.RESTR.CAVITY>
5.99997

>  <SCORE.RESTR.norm>
0.193547

>  <SCORE.SYSTEM>
0

>  <SCORE.SYSTEM.CONST>
0

>  <SCORE.SYSTEM.DIHEDRAL>
0

>  <SCORE.SYSTEM.SOLV>
0

>  <SCORE.SYSTEM.norm>
0

>  <SCORE.heavy>
31

>  <SCORE.norm>
-0.0223581

>  <RMSD>
10.642

$$$$
ligand
 OpenBabel11021811493D
libRbt.so/2013.1/901 2013/11/27
 31 33  0  0  0  0  0  0  0  0999 V2000
   -5.3606   14.7323    3.7250 C   0  0  2  0  0  0  0  0  0  0  0  0
   -6.6333   15.3649    3.6287 O   0  0  0  0  0  0  0  0  0  0  0  0
  -10.4864   14.8699    1.8987 C   0  0  2  0  0  0  0  0  0  0  0  0
  -11.4988   14.5909    0.9270 N   0  0  0  0  0  0  0  0  0  0  0  0
  -11.6226   12.1205    1.9034 C   0  0  2  0  0  0  0  0  0  0  0  0
   -5.2450   14.1752    5.2022 C   0  0  2  0  0  0  0  0  0  0  0  0
   -6.3386   13.2381    5.4369 N   0  0  0  0  0  0  0  0  0  0  0  0
   -9.5828   16.0513    1.3529 C   0  0  0  0  0  0  0  0  0  0  0  0
  -12.7296   12.1209    3.0049 C   0  0  2  0  0  0  0  0  0  0  0  0
  -12.8124   13.4195    3.5519 O   0  0  0  0  0  0  0  0  0  0  0  0
   -5.2946   15.3632    6.2439 C   0  0  0  0  0  0  0  0  0  0  0  0
   -8.4655   16.3594    2.4188 C   0  0  2  0  0  0  0  0  0  0  0  0
   -7.6185   17.4538    1.9142 N   0  0  0  0  0  0  0  0  0  0  0  0
  -12.2987   11.0732    4.1005 C   0  0  1  0  0  0  0  0  0  0  0  0
  -13.3184   11.0425    5.2007 N   0  0  0  0  0  0  0  0  0  0  0  0
   -4.5267   16.6521    5.7257 C   0  0  0  0  0  0  0  0  0  0  0  0
   -7.5877   15.0552    2.6722 C   0  0  2  0  0  0  0  0  0  0  0  0
  -12.2236    9.6068    3.3918 C   0  0  1  0  0  0  0  0  0  0  0  0
  -13.4593    9.2258    2.8110 O   0  0  0  0  0  0  0  0  0  0  0  0
   -4.0861   16.7371    4.4426 C   0  0  2  0  0  0  0  0  0  0  0  0
   -4.2831   15.6851    3.4907 O   0  0  0  0  0  0  0  0  0  0  0  0
   -8.5103   13.8965    3.2036 C   0  0  2  0  0  0  0  0  0  0  0  0
   -7.7085   12.7157    3.4209 O   0  0  0  0  0  0  0  0  0  0  0  0
  -11.1649    9.6258    2.2417 C   0  0  0  0  0  0  0  0  0  0  0  0
  -11.4916   10.7416    1.2844 O   0  0  0  0  0  0  0  0  0  0  0  0
   -3.3396   17.9563    3.8977 C   0  0  0  0  0  0  0  0  0  0  0  0
   -2.6111   18.5630    4.9911 O   0  0  0  0  0  0  0  0  0  0  0  0
   -9.6053   13.5878    2.1167 C   0  0  1  0  0  0  0  0  0  0  0  0
  -10.4011   12.5470    2.5900 O   0  0  0  0  0  0  0  0  0  0  0  0
  -11.8118    8.4480    4.3316 C   0  0  0  0  0  0  0  0  0  0  0  0
  -14.7363   10.9981    4.7884 C   0  0  0  0  0  0  0  0  0  0  0  0
  1  2  1  1  0  0  0
  1  6  1  0  0  0  0
  1 21  1  0  0  0  0
  3  4  1  6  0  0  0
  3  8  1  0  0  0  0
  3 28  1  0  0  0  0
  5  9  1  0  0  0  0
  5 25  1  0  0  0  0
  5 29  1  1  0  0  0
  6  7  1  1  0  0  0
  6 11  1  0  0  0  0
  8 12  1  0  0  0  0
  9 10  1  1  0  0  0
  9 14  1  0  0  0  0
 11 16  1  0  0  0  0
 12 13  1  6  0  0  0
 12 17  1  0  0  0  0
 14 15  1  1  0  0  0
 14 18  1  0  0  0  0
 15 31  1  0  0  0  0
 16 20  1  0  0  0  0
 17  2  1  1  0  0  0
 17 22  1  0  0  0  0
 18 19  1  6  0  0  0
 18 24  1  0  0  0  0
 18 30  1  0  0  0  0
 20 21  1  0  0  0  0
 20 26  1  1  0  0  0
 22 23  1  6  0  0  0
 22 28  1  0  0  0  0
 24 25  1  0  0  0  0
 26 27  1  0  0  0  0
 28 29  1  1  0  0  0
M  END
>  <CHROM.1>
-125.07784325,-128.25328715,45.68644264,-151.95688023,29.67629163,53.33771735
-8.93137606,13.66343040,3.42143288,-0.43473052,0.48297696,2.53858746

>  <Name>
ligand

>  <RI>
0

>  <Rbt.Current_Directory>
/home/itssahil/PROJECTS/Mol_Feturizer/New_Systems/rnas/4GPX

>  <Rbt.Executable>
rbdock ($Id: //depot/dev/client3/rdock/2013.1/src/exe/rbdock.cxx#4 $)

>  <Rbt.Library>
libRbt.so (2013.1, Build901 2013/11/27)

>  <Rbt.Parameter_File>
/export/apps/rDock/src/rDock_2013.1_src/data/scripts/dock_solv.prm

>  <Rbt.Receptor>
prm/blind_docking_20.prm

>  <SCORE>
-0.746744

>  <SCORE.INTER>
-11.7427

>  <SCORE.INTER.CONST>
1

>  <SCORE.INTER.POLAR>
0

>  <SCORE.INTER.ROT>
6

>  <SCORE.INTER.SOLV>
27.4727

>  <SCORE.INTER.VDW>
-24.586

>  <SCORE.INTER.norm>
-0.378797

>  <SCORE.INTRA>
5.06451

>  <SCORE.INTRA.DIHEDRAL>
-0.509077

>  <SCORE.INTRA.DIHEDRAL.0>
20.6841

>  <SCORE.INTRA.POLAR>
0

>  <SCORE.INTRA.POLAR.0>
0

>  <SCORE.INTRA.REPUL>
0

>  <SCORE.INTRA.REPUL.0>
0

>  <SCORE.INTRA.SOLV>
1.64264

>  <SCORE.INTRA.SOLV.lig_0>
-64.6797

>  <SCORE.INTRA.VDW>
4.49773

>  <SCORE.INTRA.VDW.0>
-4.11825

>  <SCORE.INTRA.norm>
0.163371

>  <SCORE.RESTR>
5.93145

>  <SCORE.RESTR.CAVITY>
5.93145

>  <SCORE.RESTR.norm>
0.191337

>  <SCORE.SYSTEM>
0

>  <SCORE.SYSTEM.CONST>
0

>  <SCORE.SYSTEM.DIHEDRAL>
0

>  <SCORE.SYSTEM.SOLV>
0

>  <SCORE.SYSTEM.norm>
0

>  <SCORE.heavy>
31

>  <SCORE.norm>
-0.0240885

>  <RMSD>
10.646

$$$$
ligand
 OpenBabel11021811493D
libRbt.so/2013.1/901 2013/11/27
 31 33  0  0  0  0  0  0  0  0999 V2000
   -7.3643   15.5448    3.8726 C   0  0  2  0  0  0  0  0  0  0  0  0
   -7.4300   14.9878    2.5632 O   0  0  0  0  0  0  0  0  0  0  0  0
  -11.5496   14.0241    2.1342 C   0  0  2  0  0  0  0  0  0  0  0  0
  -12.7873   13.6531    1.5199 N   0  0  0  0  0  0  0  0  0  0  0  0
  -11.9455   10.8351    1.8775 C   0  0  2  0  0  0  0  0  0  0  0  0
   -6.3741   16.7771    3.7888 C   0  0  2  0  0  0  0  0  0  0  0  0
   -6.8949   17.7318    2.8158 N   0  0  0  0  0  0  0  0  0  0  0  0
  -11.0320   15.3557    1.4493 C   0  0  0  0  0  0  0  0  0  0  0  0
  -13.0246   10.5694    2.9746 C   0  0  2  0  0  0  0  0  0  0  0  0
  -13.5492   11.8114    3.3927 O   0  0  0  0  0  0  0  0  0  0  0  0
   -4.9268   16.2932    3.3764 C   0  0  0  0  0  0  0  0  0  0  0  0
   -9.6682   15.7657    2.1213 C   0  0  2  0  0  0  0  0  0  0  0  0
   -9.1790   17.0006    1.4846 N   0  0  0  0  0  0  0  0  0  0  0  0
  -12.3063    9.8299    4.1667 C   0  0  1  0  0  0  0  0  0  0  0  0
  -13.2926    9.5639    5.2656 N   0  0  0  0  0  0  0  0  0  0  0  0
   -4.5461   14.9003    4.0355 C   0  0  0  0  0  0  0  0  0  0  0  0
   -8.6047   14.5943    1.9412 C   0  0  2  0  0  0  0  0  0  0  0  0
  -11.7283    8.4130    3.6041 C   0  0  1  0  0  0  0  0  0  0  0  0
  -12.7497    7.5914    3.0643 O   0  0  0  0  0  0  0  0  0  0  0  0
   -5.4766   14.1573    4.6911 C   0  0  2  0  0  0  0  0  0  0  0  0
   -6.8391   14.5773    4.8276 O   0  0  0  0  0  0  0  0  0  0  0  0
   -9.1478   13.2831    2.6209 C   0  0  2  0  0  0  0  0  0  0  0  0
   -8.1823   12.2243    2.4442 O   0  0  0  0  0  0  0  0  0  0  0  0
  -10.6998    8.6764    2.4567 C   0  0  0  0  0  0  0  0  0  0  0  0
  -11.3466    9.5271    1.3956 O   0  0  0  0  0  0  0  0  0  0  0  0
   -5.1576   12.8111    5.3443 C   0  0  0  0  0  0  0  0  0  0  0  0
   -6.3976   12.0810    5.4980 O   0  0  0  0  0  0  0  0  0  0  0  0
  -10.4976   12.8771    1.9220 C   0  0  1  0  0  0  0  0  0  0  0  0
  -10.9560   11.7044    2.5181 O   0  0  0  0  0  0  0  0  0  0  0  0
  -10.9864    7.5486    4.6520 C   0  0  0  0  0  0  0  0  0  0  0  0
  -14.5192    8.8306    4.8912 C   0  0  0  0  0  0  0  0  0  0  0  0
  1  2  1  6  0  0  0
  1  6  1  0  0  0  0
  1 21  1  0  0  0  0
  3  4  1  6  0  0  0
  3  8  1  0  0  0  0
  3 28  1  0  0  0  0
  5  9  1  0  0  0  0
  5 25  1  0  0  0  0
  5 29  1  1  0  0  0
  6  7  1  6  0  0  0
  6 11  1  0  0  0  0
  8 12  1  0  0  0  0
  9 10  1  1  0  0  0
  9 14  1  0  0  0  0
 11 16  1  0  0  0  0
 12 13  1  6  0  0  0
 12 17  1  0  0  0  0
 14 15  1  1  0  0  0
 14 18  1  0  0  0  0
 15 31  1  0  0  0  0
 16 20  1  0  0  0  0
 17  2  1  1  0  0  0
 17 22  1  0  0  0  0
 18 19  1  6  0  0  0
 18 24  1  0  0  0  0
 18 30  1  0  0  0  0
 20 21  1  0  0  0  0
 20 26  1  1  0  0  0
 22 23  1  6  0  0  0
 22 28  1  0  0  0  0
 24 25  1  0  0  0  0
 26 27  1  0  0  0  0
 28 29  1  1  0  0  0
M  END
>  <CHROM.1>
-135.69015604,-130.69689431,54.50701047,47.35512944,-159.00429548,79.86959382
-9.65641899,12.64208155,3.19735397,-0.72012515,0.38109538,2.74783965

>  <Name>
ligand

>  <RI>
0

>  <Rbt.Current_Directory>
/home/itssahil/PROJECTS/Mol_Feturizer/New_Systems/rnas/4GPX

>  <Rbt.Executable>
rbdock ($Id: //depot/dev/client3/rdock/2013.1/src/exe/rbdock.cxx#4 $)

>  <Rbt.Library>
libRbt.so (2013.1, Build901 2013/11/27)

>  <Rbt.Parameter_File>
/export/apps/rDock/src/rDock_2013.1_src/data/scripts/dock_solv.prm

>  <Rbt.Receptor>
prm/blind_docking_20.prm

>  <SCORE>
23.9269

>  <SCORE.INTER>
14.4775

>  <SCORE.INTER.CONST>
1

>  <SCORE.INTER.POLAR>
0

>  <SCORE.INTER.ROT>
6

>  <SCORE.INTER.SOLV>
26.8276

>  <SCORE.INTER.VDW>
-6.89088

>  <SCORE.INTER.norm>
0.467015

>  <SCORE.INTRA>
3.30601

>  <SCORE.INTRA.DIHEDRAL>
-2.33952

>  <SCORE.INTRA.DIHEDRAL.0>
20.6841

>  <SCORE.INTRA.POLAR>
0

>  <SCORE.INTRA.POLAR.0>
0

>  <SCORE.INTRA.REPUL>
0

>  <SCORE.INTRA.REPUL.0>
0

>  <SCORE.INTRA.SOLV>
3.16712

>  <SCORE.INTRA.SOLV.lig_0>
-64.6797

>  <SCORE.INTRA.VDW>
2.89221

>  <SCORE.INTRA.VDW.0>
-4.11825

>  <SCORE.INTRA.norm>
0.106646

>  <SCORE.RESTR>
6.1434

>  <SCORE.RESTR.CAVITY>
6.1434

>  <SCORE.RESTR.norm>
0.198174

>  <SCORE.SYSTEM>
0

>  <SCORE.SYSTEM.CONST>
0

>  <SCORE.SYSTEM.DIHEDRAL>
0

>  <SCORE.SYSTEM.SOLV>
0

>  <SCORE.SYSTEM.norm>
0

>  <SCORE.heavy>
31

>  <SCORE.norm>
0.771835

>  <RMSD>
10.663

$$$$
ligand
 OpenBabel11021811493D
libRbt.so/2013.1/901 2013/11/27
 31 33  0  0  0  0  0  0  0  0999 V2000
   -5.5425   14.5495    3.7859 C   0  0  2  0  0  0  0  0  0  0  0  0
   -6.7976   15.2204    3.7254 O   0  0  0  0  0  0  0  0  0  0  0  0
  -10.6421   15.1326    1.9098 C   0  0  2  0  0  0  0  0  0  0  0  0
  -11.6600   14.9332    0.9244 N   0  0  0  0  0  0  0  0  0  0  0  0
  -11.8841   12.2208    1.8739 C   0  0  2  0  0  0  0  0  0  0  0  0
   -5.3924   14.0072    5.2656 C   0  0  2  0  0  0  0  0  0  0  0  0
   -6.5056   13.1079    5.5506 N   0  0  0  0  0  0  0  0  0  0  0  0
   -9.5797   16.1549    1.3301 C   0  0  0  0  0  0  0  0  0  0  0  0
  -13.0540   11.8488    2.8391 C   0  0  2  0  0  0  0  0  0  0  0  0
  -13.5085   13.0306    3.4633 O   0  0  0  0  0  0  0  0  0  0  0  0
   -5.3688   15.2089    6.2924 C   0  0  0  0  0  0  0  0  0  0  0  0
   -8.4561   16.3748    2.4112 C   0  0  2  0  0  0  0  0  0  0  0  0
   -7.4621   17.3206    1.8756 N   0  0  0  0  0  0  0  0  0  0  0  0
  -12.4797   10.8349    3.9002 C   0  0  1  0  0  0  0  0  0  0  0  0
  -13.5576   10.4541    4.8719 N   0  0  0  0  0  0  0  0  0  0  0  0
   -4.5799   16.4666    5.7307 C   0  0  0  0  0  0  0  0  0  0  0  0
   -7.7624   14.9841    2.7584 C   0  0  2  0  0  0  0  0  0  0  0  0
  -11.9757    9.5049    3.1031 C   0  0  1  0  0  0  0  0  0  0  0  0
  -13.0178    8.8958    2.3598 O   0  0  0  0  0  0  0  0  0  0  0  0
   -4.1822   16.5220    4.4320 C   0  0  2  0  0  0  0  0  0  0  0  0
   -4.4448   15.4651    3.5017 O   0  0  0  0  0  0  0  0  0  0  0  0
   -8.8404   13.9859    3.3218 C   0  0  2  0  0  0  0  0  0  0  0  0
   -8.2050   12.7252    3.6243 O   0  0  0  0  0  0  0  0  0  0  0  0
  -10.8527    9.8887    2.0855 C   0  0  0  0  0  0  0  0  0  0  0  0
  -11.3564   10.9800    1.1782 O   0  0  0  0  0  0  0  0  0  0  0  0
   -3.4179   17.7103    3.8454 C   0  0  0  0  0  0  0  0  0  0  0  0
   -3.0101   18.5665    4.9385 O   0  0  0  0  0  0  0  0  0  0  0  0
   -9.9414   13.7614    2.2205 C   0  0  1  0  0  0  0  0  0  0  0  0
  -10.8770   12.8602    2.7236 O   0  0  0  0  0  0  0  0  0  0  0  0
  -11.3776    8.3941    3.9998 C   0  0  0  0  0  0  0  0  0  0  0  0
  -14.2777   11.5632    5.5303 C   0  0  0  0  0  0  0  0  0  0  0  0
  1  2  1  1  0  0  0
  1  6  1  0  0  0  0
  1 21  1  0  0  0  0
  3  4  1  6  0  0  0
  3  8  1  0  0  0  0
  3 28  1  0  0  0  0
  5  9  1  0  0  0  0
  5 25  1  0  0  0  0
  5 29  1  1  0  0  0
  6  7  1  1  0  0  0
  6 11  1  0  0  0  0
  8 12  1  0  0  0  0
  9 10  1  1  0  0  0
  9 14  1  0  0  0  0
 11 16  1  0  0  0  0
 12 13  1  6  0  0  0
 12 17  1  0  0  0  0
 14 15  1  1  0  0  0
 14 18  1  0  0  0  0
 15 31  1  0  0  0  0
 16 20  1  0  0  0  0
 17  2  1  1  0  0  0
 17 22  1  0  0  0  0
 18 19  1  6  0  0  0
 18 24  1  0  0  0  0
 18 30  1  0  0  0  0
 20 21  1  0  0  0  0
 20 26  1  1  0  0  0
 22 23  1  6  0  0  0
 22 28  1  0  0  0  0
 24 25  1  0  0  0  0
 26 27  1  0  0  0  0
 28 29  1  1  0  0  0
M  END
>  <CHROM.1>
-129.06668030,-155.29080496,-52.52382833,-143.43554825,10.47669424,73.92242009
-9.03437237,13.62101814,3.40536501,-0.45185631,0.47119267,2.59356399

>  <Name>
ligand

>  <RI>
0

>  <Rbt.Current_Directory>
/home/itssahil/PROJECTS/Mol_Feturizer/New_Systems/rnas/4GPX

>  <Rbt.Executable>
rbdock ($Id: //depot/dev/client3/rdock/2013.1/src/exe/rbdock.cxx#4 $)

>  <Rbt.Library>
libRbt.so (2013.1, Build901 2013/11/27)

>  <Rbt.Parameter_File>
/export/apps/rDock/src/rDock_2013.1_src/data/scripts/dock_solv.prm

>  <Rbt.Receptor>
prm/blind_docking_20.prm

>  <SCORE>
2.77141

>  <SCORE.INTER>
-6.46608

>  <SCORE.INTER.CONST>
1

>  <SCORE.INTER.POLAR>
0

>  <SCORE.INTER.ROT>
6

>  <SCORE.INTER.SOLV>
27.5109

>  <SCORE.INTER.VDW>
-21.081

>  <SCORE.INTER.norm>
-0.208583

>  <SCORE.INTRA>
3.47204

>  <SCORE.INTRA.DIHEDRAL>
-3.67381

>  <SCORE.INTRA.DIHEDRAL.0>
20.6841

>  <SCORE.INTRA.POLAR>
0

>  <SCORE.INTRA.POLAR.0>
0

>  <SCORE.INTRA.REPUL>
0

>  <SCORE.INTRA.REPUL.0>
0

>  <SCORE.INTRA.SOLV>
0.911067

>  <SCORE.INTRA.SOLV.lig_0>
-64.6797

>  <SCORE.INTRA.VDW>
4.85341

>  <SCORE.INTRA.VDW.0>
-4.11825

>  <SCORE.INTRA.norm>
0.112001

>  <SCORE.RESTR>
5.76546

>  <SCORE.RESTR.CAVITY>
5.76546

>  <SCORE.RESTR.norm>
0.185983

>  <SCORE.SYSTEM>
0

>  <SCORE.SYSTEM.CONST>
0

>  <SCORE.SYSTEM.DIHEDRAL>
0

>  <SCORE.SYSTEM.SOLV>
0

>  <SCORE.SYSTEM.norm>
0

>  <SCORE.heavy>
31

>  <SCORE.norm>
0.0894005

>  <RMSD>
10.678

$$$$
ligand
 OpenBabel11021811493D
libRbt.so/2013.1/901 2013/11/27
 31 33  0  0  0  0  0  0  0  0999 V2000
   -6.2642   16.0469    4.3486 C   0  0  2  0  0  0  0  0  0  0  0  0
   -6.3500   15.4872    3.0414 O   0  0  0  0  0  0  0  0  0  0  0  0
  -10.5418   15.3811    2.3331 C   0  0  2  0  0  0  0  0  0  0  0  0
  -11.7861   15.2220    1.6451 N   0  0  0  0  0  0  0  0  0  0  0  0
  -11.0909   13.2471    4.2787 C   0  0  2  0  0  0  0  0  0  0  0  0
   -4.8255   16.6967    4.4668 C   0  0  2  0  0  0  0  0  0  0  0  0
   -4.6829   17.7122    3.4286 N   0  0  0  0  0  0  0  0  0  0  0  0
   -9.6998   16.4984    1.5899 C   0  0  0  0  0  0  0  0  0  0  0  0
  -11.6813   11.8595    4.6843 C   0  0  2  0  0  0  0  0  0  0  0  0
  -10.6353   10.9117    4.6769 O   0  0  0  0  0  0  0  0  0  0  0  0
   -3.7074   15.5888    4.3211 C   0  0  0  0  0  0  0  0  0  0  0  0
   -8.3282   16.6744    2.3431 C   0  0  2  0  0  0  0  0  0  0  0  0
   -7.5382   17.7085    1.6530 N   0  0  0  0  0  0  0  0  0  0  0  0
  -12.7839   11.4918    3.6199 C   0  0  1  0  0  0  0  0  0  0  0  0
  -13.3768   10.1529    3.9468 N   0  0  0  0  0  0  0  0  0  0  0  0
   -4.1173   14.2231    5.0186 C   0  0  0  0  0  0  0  0  0  0  0  0
   -7.5374   15.2923    2.3531 C   0  0  2  0  0  0  0  0  0  0  0  0
  -13.9488   12.6305    3.6890 C   0  0  1  0  0  0  0  0  0  0  0  0
  -14.5288   12.7295    4.9787 O   0  0  0  0  0  0  0  0  0  0  0  0
   -5.3799   14.0231    5.4804 C   0  0  2  0  0  0  0  0  0  0  0  0
   -6.4056   15.0167    5.3697 O   0  0  0  0  0  0  0  0  0  0  0  0
   -8.3994   14.1996    3.0874 C   0  0  2  0  0  0  0  0  0  0  0  0
   -7.6796   12.9480    3.0830 O   0  0  0  0  0  0  0  0  0  0  0  0
  -13.3431   14.0317    3.3517 C   0  0  0  0  0  0  0  0  0  0  0  0
  -12.1797   14.3037    4.2685 O   0  0  0  0  0  0  0  0  0  0  0  0
   -5.8217   12.7263    6.1614 C   0  0  0  0  0  0  0  0  0  0  0  0
   -6.8046   12.0858    5.3141 O   0  0  0  0  0  0  0  0  0  0  0  0
   -9.7547   14.0219    2.3084 C   0  0  1  0  0  0  0  0  0  0  0  0
  -10.4983   13.0377    2.9558 O   0  0  0  0  0  0  0  0  0  0  0  0
  -15.1225   12.4241    2.7014 C   0  0  0  0  0  0  0  0  0  0  0  0
  -12.6878    8.9702    3.3914 C   0  0  0  0  0  0  0  0  0  0  0  0
  1  2  1  6  0  0  0
  1  6  1  0  0  0  0
  1 21  1  0  0  0  0
  3  4  1  6  0  0  0
  3  8  1  0  0  0  0
  3 28  1  0  0  0  0
  5  9  1  0  0  0  0
  5 25  1  0  0  0  0
  5 29  1  6  0  0  0
  6  7  1  6  0  0  0
  6 11  1  0  0  0  0
  8 12  1  0  0  0  0
  9 10  1  6  0  0  0
  9 14  1  0  0  0  0
 11 16  1  0  0  0  0
 12 13  1  6  0  0  0
 12 17  1  0  0  0  0
 14 15  1  1  0  0  0
 14 18  1  0  0  0  0
 15 31  1  0  0  0  0
 16 20  1  0  0  0  0
 17  2  1  1  0  0  0
 17 22  1  0  0  0  0
 18 19  1  1  0  0  0
 18 24  1  0  0  0  0
 18 30  1  0  0  0  0
 20 21  1  0  0  0  0
 20 26  1  1  0  0  0
 22 23  1  6  0  0  0
 22 28  1  0  0  0  0
 24 25  1  0  0  0  0
 26 27  1  0  0  0  0
 28 29  1  1  0  0  0
M  END
>  <CHROM.1>
-154.12686854,-173.73940919,-87.48142403,52.63547537,-114.28837179,-49.13219153
-9.29047226,13.93404340,3.69294020,0.35236183,-0.26277904,-0.50317535

>  <Name>
ligand

>  <RI>
0

>  <Rbt.Current_Directory>
/home/itssahil/PROJECTS/Mol_Feturizer/New_Systems/rnas/4GPX

>  <Rbt.Executable>
rbdock ($Id: //depot/dev/client3/rdock/2013.1/src/exe/rbdock.cxx#4 $)

>  <Rbt.Library>
libRbt.so (2013.1, Build901 2013/11/27)

>  <Rbt.Parameter_File>
/export/apps/rDock/src/rDock_2013.1_src/data/scripts/dock_solv.prm

>  <Rbt.Receptor>
prm/blind_docking_20.prm

>  <SCORE>
7.2556

>  <SCORE.INTER>
3.3534

>  <SCORE.INTER.CONST>
1

>  <SCORE.INTER.POLAR>
0

>  <SCORE.INTER.ROT>
6

>  <SCORE.INTER.SOLV>
33.8916

>  <SCORE.INTER.VDW>
-16.6616

>  <SCORE.INTER.norm>
0.108174

>  <SCORE.INTRA>
-2.27871

>  <SCORE.INTRA.DIHEDRAL>
-14.5804

>  <SCORE.INTRA.DIHEDRAL.0>
20.6841

>  <SCORE.INTRA.POLAR>
0

>  <SCORE.INTRA.POLAR.0>
0

>  <SCORE.INTRA.REPUL>
0.00397081

>  <SCORE.INTRA.REPUL.0>
0

>  <SCORE.INTRA.SOLV>
3.2758

>  <SCORE.INTRA.SOLV.lig_0>
-64.6797

>  <SCORE.INTRA.VDW>
3.35373

>  <SCORE.INTRA.VDW.0>
-4.11825

>  <SCORE.INTRA.norm>
-0.0735067

>  <SCORE.RESTR>
6.18091

>  <SCORE.RESTR.CAVITY>
6.18091

>  <SCORE.RESTR.norm>
0.199384

>  <SCORE.SYSTEM>
0

>  <SCORE.SYSTEM.CONST>
0

>  <SCORE.SYSTEM.DIHEDRAL>
0

>  <SCORE.SYSTEM.SOLV>
0

>  <SCORE.SYSTEM.norm>
0

>  <SCORE.heavy>
31

>  <SCORE.norm>
0.234052

>  <RMSD>
10.682

$$$$
ligand
 OpenBabel11021811493D
libRbt.so/2013.1/901 2013/11/27
 31 33  0  0  0  0  0  0  0  0999 V2000
   -5.5317   14.6004    3.7981 C   0  0  2  0  0  0  0  0  0  0  0  0
   -6.8013   15.2430    3.7311 O   0  0  0  0  0  0  0  0  0  0  0  0
  -10.6234   15.1061    1.8719 C   0  0  2  0  0  0  0  0  0  0  0  0
  -11.6280   14.8899    0.8764 N   0  0  0  0  0  0  0  0  0  0  0  0
  -11.8656   12.2150    1.8522 C   0  0  2  0  0  0  0  0  0  0  0  0
   -5.4080   13.9983    5.2569 C   0  0  2  0  0  0  0  0  0  0  0  0
   -6.5054   13.0610    5.4720 N   0  0  0  0  0  0  0  0  0  0  0  0
   -9.5635   16.1336    1.2966 C   0  0  0  0  0  0  0  0  0  0  0  0
  -13.0392   11.8596    2.8192 C   0  0  2  0  0  0  0  0  0  0  0  0
  -13.4746   13.0473    3.4456 O   0  0  0  0  0  0  0  0  0  0  0  0
   -5.4424   15.1546    6.3343 C   0  0  0  0  0  0  0  0  0  0  0  0
   -8.4547   16.3720    2.3889 C   0  0  2  0  0  0  0  0  0  0  0  0
   -7.4630   17.3226    1.8574 N   0  0  0  0  0  0  0  0  0  0  0  0
  -12.4782   10.8359    3.8780 C   0  0  1  0  0  0  0  0  0  0  0  0
  -13.5599   10.4702    4.8513 N   0  0  0  0  0  0  0  0  0  0  0  0
   -4.6707   16.4541    5.8491 C   0  0  0  0  0  0  0  0  0  0  0  0
   -7.7526   14.9904    2.7549 C   0  0  2  0  0  0  0  0  0  0  0  0
  -11.9959    9.4993    3.0784 C   0  0  1  0  0  0  0  0  0  0  0  0
  -13.0484    8.9069    2.3363 O   0  0  0  0  0  0  0  0  0  0  0  0
   -4.2396   16.5752    4.5657 C   0  0  2  0  0  0  0  0  0  0  0  0
   -4.4503   15.5536    3.5841 O   0  0  0  0  0  0  0  0  0  0  0  0
   -8.8280   13.9868    3.3136 C   0  0  2  0  0  0  0  0  0  0  0  0
   -8.1849   12.7343    3.6333 O   0  0  0  0  0  0  0  0  0  0  0  0
  -10.8691    9.8673    2.0591 C   0  0  0  0  0  0  0  0  0  0  0  0
  -11.3580   10.9672    1.1541 O   0  0  0  0  0  0  0  0  0  0  0  0
   -3.4900   17.8059    4.0519 C   0  0  0  0  0  0  0  0  0  0  0  0
   -2.1300   17.4116    3.7531 O   0  0  0  0  0  0  0  0  0  0  0  0
   -9.9141   13.7439    2.2014 C   0  0  1  0  0  0  0  0  0  0  0  0
  -10.8473   12.8381    2.7007 O   0  0  0  0  0  0  0  0  0  0  0  0
  -11.4129    8.3786    3.9726 C   0  0  0  0  0  0  0  0  0  0  0  0
  -14.2736   11.5894    5.4995 C   0  0  0  0  0  0  0  0  0  0  0  0
  1  2  1  1  0  0  0
  1  6  1  0  0  0  0
  1 21  1  0  0  0  0
  3  4  1  6  0  0  0
  3  8  1  0  0  0  0
  3 28  1  0  0  0  0
  5  9  1  0  0  0  0
  5 25  1  0  0  0  0
  5 29  1  1  0  0  0
  6  7  1  1  0  0  0
  6 11  1  0  0  0  0
  8 12  1  0  0  0  0
  9 10  1  1  0  0  0
  9 14  1  0  0  0  0
 11 16  1  0  0  0  0
 12 13  1  6  0  0  0
 12 17  1  0  0  0  0
 14 15  1  1  0  0  0
 14 18  1  0  0  0  0
 15 31  1  0  0  0  0
 16 20  1  0  0  0  0
 17  2  1  1  0  0  0
 17 22  1  0  0  0  0
 18 19  1  6  0  0  0
 18 24  1  0  0  0  0
 18 30  1  0  0  0  0
 20 21  1  0  0  0  0
 20 26  1  1  0  0  0
 22 23  1  6  0  0  0
 22 28  1  0  0  0  0
 24 25  1  0  0  0  0
 26 27  1  0  0  0  0
 28 29  1  1  0  0  0
M  END
>  <CHROM.1>
-126.65950508,-154.12397559,-51.77243369,-142.31247514,112.06994598,71.95554279
-9.00777713,13.58238678,3.36387609,-0.43340719,0.45288267,2.57307382

>  <Name>
ligand

>  <RI>
0

>  <Rbt.Current_Directory>
/home/itssahil/PROJECTS/Mol_Feturizer/New_Systems/rnas/4GPX

>  <Rbt.Executable>
rbdock ($Id: //depot/dev/client3/rdock/2013.1/src/exe/rbdock.cxx#4 $)

>  <Rbt.Library>
libRbt.so (2013.1, Build901 2013/11/27)

>  <Rbt.Parameter_File>
/export/apps/rDock/src/rDock_2013.1_src/data/scripts/dock_solv.prm

>  <Rbt.Receptor>
prm/blind_docking_20.prm

>  <SCORE>
1.38988

>  <SCORE.INTER>
-7.57217

>  <SCORE.INTER.CONST>
1

>  <SCORE.INTER.POLAR>
0

>  <SCORE.INTER.ROT>
6

>  <SCORE.INTER.SOLV>
27.3954

>  <SCORE.INTER.VDW>
-21.7799

>  <SCORE.INTER.norm>
-0.244264

>  <SCORE.INTRA>
3.18813

>  <SCORE.INTRA.DIHEDRAL>
-3.36348

>  <SCORE.INTRA.DIHEDRAL.0>
20.6841

>  <SCORE.INTRA.POLAR>
0

>  <SCORE.INTRA.POLAR.0>
0

>  <SCORE.INTRA.REPUL>
0

>  <SCORE.INTRA.REPUL.0>
0

>  <SCORE.INTRA.SOLV>
1.02532

>  <SCORE.INTRA.SOLV.lig_0>
-64.6797

>  <SCORE.INTRA.VDW>
4.35721

>  <SCORE.INTRA.VDW.0>
-4.11825

>  <SCORE.INTRA.norm>
0.102843

>  <SCORE.RESTR>
5.77393

>  <SCORE.RESTR.CAVITY>
5.77393

>  <SCORE.RESTR.norm>
0.186256

>  <SCORE.SYSTEM>
0

>  <SCORE.SYSTEM.CONST>
0

>  <SCORE.SYSTEM.DIHEDRAL>
0

>  <SCORE.SYSTEM.SOLV>
0

>  <SCORE.SYSTEM.norm>
0

>  <SCORE.heavy>
31

>  <SCORE.norm>
0.0448349

>  <RMSD>
10.685

$$$$
ligand
 OpenBabel11021811493D
libRbt.so/2013.1/901 2013/11/27
 31 33  0  0  0  0  0  0  0  0999 V2000
   -6.3071   15.9797    4.3608 C   0  0  2  0  0  0  0  0  0  0  0  0
   -6.3797   15.4730    3.0314 O   0  0  0  0  0  0  0  0  0  0  0  0
  -10.5660   15.3787    2.2899 C   0  0  2  0  0  0  0  0  0  0  0  0
  -11.8054   15.2161    1.5939 N   0  0  0  0  0  0  0  0  0  0  0  0
  -11.1371   13.2742    4.2649 C   0  0  2  0  0  0  0  0  0  0  0  0
   -4.8659   16.6143    4.5229 C   0  0  2  0  0  0  0  0  0  0  0  0
   -4.7033   17.6690    3.5277 N   0  0  0  0  0  0  0  0  0  0  0  0
   -9.7118   16.4805    1.5374 C   0  0  0  0  0  0  0  0  0  0  0  0
  -11.6916   11.8833    4.7084 C   0  0  2  0  0  0  0  0  0  0  0  0
  -10.6218   10.9625    4.7248 O   0  0  0  0  0  0  0  0  0  0  0  0
   -3.7533   15.5052    4.3475 C   0  0  0  0  0  0  0  0  0  0  0  0
   -8.3455   16.6602    2.2993 C   0  0  2  0  0  0  0  0  0  0  0  0
   -7.5443   17.6799    1.6007 N   0  0  0  0  0  0  0  0  0  0  0  0
  -12.7853   11.4594    3.6559 C   0  0  1  0  0  0  0  0  0  0  0  0
  -13.3437   10.1150    4.0192 N   0  0  0  0  0  0  0  0  0  0  0  0
   -4.1810   14.1158    4.9850 C   0  0  0  0  0  0  0  0  0  0  0  0
   -7.5624   15.2742    2.3362 C   0  0  2  0  0  0  0  0  0  0  0  0
  -13.9788   12.5695    3.6962 C   0  0  1  0  0  0  0  0  0  0  0  0
  -14.5601   12.6882    4.9835 O   0  0  0  0  0  0  0  0  0  0  0  0
   -5.4508   13.9066    5.4225 C   0  0  2  0  0  0  0  0  0  0  0  0
   -6.4685   14.9110    5.3383 O   0  0  0  0  0  0  0  0  0  0  0  0
   -8.4363   14.1970    3.0792 C   0  0  2  0  0  0  0  0  0  0  0  0
   -7.7234   12.9417    3.0992 O   0  0  0  0  0  0  0  0  0  0  0  0
  -13.4092   13.9761    3.3206 C   0  0  0  0  0  0  0  0  0  0  0  0
  -12.2525   14.3020    4.2281 O   0  0  0  0  0  0  0  0  0  0  0  0
   -5.9098   12.5870    6.0458 C   0  0  0  0  0  0  0  0  0  0  0  0
   -6.6513   12.8927    7.2505 O   0  0  0  0  0  0  0  0  0  0  0  0
   -9.7861   14.0151    2.2916 C   0  0  1  0  0  0  0  0  0  0  0  0
  -10.5404   13.0445    2.9472 O   0  0  0  0  0  0  0  0  0  0  0  0
  -15.1477   12.3069    2.7162 C   0  0  0  0  0  0  0  0  0  0  0  0
  -12.6952    8.9398    3.4024 C   0  0  0  0  0  0  0  0  0  0  0  0
  1  2  1  6  0  0  0
  1  6  1  0  0  0  0
  1 21  1  0  0  0  0
  3  4  1  6  0  0  0
  3  8  1  0  0  0  0
  3 28  1  0  0  0  0
  5  9  1  0  0  0  0
  5 25  1  0  0  0  0
  5 29  1  6  0  0  0
  6  7  1  6  0  0  0
  6 11  1  0  0  0  0
  8 12  1  0  0  0  0
  9 10  1  6  0  0  0
  9 14  1  0  0  0  0
 11 16  1  0  0  0  0
 12 13  1  6  0  0  0
 12 17  1  0  0  0  0
 14 15  1  1  0  0  0
 14 18  1  0  0  0  0
 15 31  1  0  0  0  0
 16 20  1  0  0  0  0
 17  2  1  1  0  0  0
 17 22  1  0  0  0  0
 18 19  1  1  0  0  0
 18 24  1  0  0  0  0
 18 30  1  0  0  0  0
 20 21  1  0  0  0  0
 20 26  1  1  0  0  0
 22 23  1  6  0  0  0
 22 28  1  0  0  0  0
 24 25  1  0  0  0  0
 26 27  1  0  0  0  0
 28 29  1  1  0  0  0
M  END
>  <CHROM.1>
-156.25291802,-171.61577095,-92.51589304,56.41705032,133.11121861,-49.44849842
-9.31610661,13.92741966,3.75718002,0.31536387,-0.30144979,-0.59171805

>  <Name>
ligand

>  <RI>
0

>  <Rbt.Current_Directory>
/home/itssahil/PROJECTS/Mol_Feturizer/New_Systems/rnas/4GPX

>  <Rbt.Executable>
rbdock ($Id: //depot/dev/client3/rdock/2013.1/src/exe/rbdock.cxx#4 $)

>  <Rbt.Library>
libRbt.so (2013.1, Build901 2013/11/27)

>  <Rbt.Parameter_File>
/export/apps/rDock/src/rDock_2013.1_src/data/scripts/dock_solv.prm

>  <Rbt.Receptor>
prm/blind_docking_20.prm

>  <SCORE>
4.67675

>  <SCORE.INTER>
0.935975

>  <SCORE.INTER.CONST>
1

>  <SCORE.INTER.POLAR>
0

>  <SCORE.INTER.ROT>
6

>  <SCORE.INTER.SOLV>
31.6061

>  <SCORE.INTER.VDW>
-17.5114

>  <SCORE.INTER.norm>
0.0301927

>  <SCORE.INTRA>
-3.76338

>  <SCORE.INTRA.DIHEDRAL>
-14.7168

>  <SCORE.INTRA.DIHEDRAL.0>
20.6841

>  <SCORE.INTRA.POLAR>
0

>  <SCORE.INTRA.POLAR.0>
0

>  <SCORE.INTRA.REPUL>
0

>  <SCORE.INTRA.REPUL.0>
0

>  <SCORE.INTRA.SOLV>
2.3336

>  <SCORE.INTRA.SOLV.lig_0>
-64.6797

>  <SCORE.INTRA.VDW>
2.4282

>  <SCORE.INTRA.VDW.0>
-4.11825

>  <SCORE.INTRA.norm>
-0.121399

>  <SCORE.RESTR>
7.50415

>  <SCORE.RESTR.CAVITY>
7.50415

>  <SCORE.RESTR.norm>
0.242069

>  <SCORE.SYSTEM>
0

>  <SCORE.SYSTEM.CONST>
0

>  <SCORE.SYSTEM.DIHEDRAL>
0

>  <SCORE.SYSTEM.SOLV>
0

>  <SCORE.SYSTEM.norm>
0

>  <SCORE.heavy>
31

>  <SCORE.norm>
0.150863

>  <RMSD>
10.707

$$$$
ligand
 OpenBabel11021811493D
libRbt.so/2013.1/901 2013/11/27
 31 33  0  0  0  0  0  0  0  0999 V2000
   -6.1707   16.3153    4.1006 C   0  0  2  0  0  0  0  0  0  0  0  0
   -6.3680   15.8931    2.7545 O   0  0  0  0  0  0  0  0  0  0  0  0
  -10.5908   16.0210    2.2693 C   0  0  2  0  0  0  0  0  0  0  0  0
  -11.8857   15.8167    1.6962 N   0  0  0  0  0  0  0  0  0  0  0  0
  -10.4159   12.5228    3.8201 C   0  0  2  0  0  0  0  0  0  0  0  0
   -4.6454   16.7198    4.2269 C   0  0  2  0  0  0  0  0  0  0  0  0
   -4.3631   17.7879    3.2737 N   0  0  0  0  0  0  0  0  0  0  0  0
   -9.7079   16.8299    1.2321 C   0  0  0  0  0  0  0  0  0  0  0  0
  -10.8972   11.6834    2.5944 C   0  0  2  0  0  0  0  0  0  0  0  0
  -10.2035   12.1304    1.4491 O   0  0  0  0  0  0  0  0  0  0  0  0
   -3.7195   15.4681    3.9531 C   0  0  0  0  0  0  0  0  0  0  0  0
   -8.2808   17.0544    1.8587 C   0  0  2  0  0  0  0  0  0  0  0  0
   -7.4532   17.8016    0.8962 N   0  0  0  0  0  0  0  0  0  0  0  0
  -12.4477   11.9226    2.4443 C   0  0  1  0  0  0  0  0  0  0  0  0
  -12.9670   11.1538    1.2652 N   0  0  0  0  0  0  0  0  0  0  0  0
   -4.3274   14.1271    4.5461 C   0  0  0  0  0  0  0  0  0  0  0  0
   -7.6093   15.6486    2.1879 C   0  0  2  0  0  0  0  0  0  0  0  0
  -13.1729   11.3854    3.8022 C   0  0  1  0  0  0  0  0  0  0  0  0
  -12.9118   10.0134    4.0450 O   0  0  0  0  0  0  0  0  0  0  0  0
   -5.5972   14.0867    5.0297 C   0  0  2  0  0  0  0  0  0  0  0  0
   -6.4546   15.2340    5.0356 O   0  0  0  0  0  0  0  0  0  0  0  0
   -8.5106   14.8631    3.2110 C   0  0  2  0  0  0  0  0  0  0  0  0
   -7.8997   13.5863    3.4960 O   0  0  0  0  0  0  0  0  0  0  0  0
  -12.6390   12.1781    5.0393 C   0  0  0  0  0  0  0  0  0  0  0  0
  -11.1367   12.0817    5.0802 O   0  0  0  0  0  0  0  0  0  0  0  0
   -6.2259   12.8199    5.6131 C   0  0  0  0  0  0  0  0  0  0  0  0
   -6.3425   12.9943    7.0450 O   0  0  0  0  0  0  0  0  0  0  0  0
   -9.9233   14.6289    2.5592 C   0  0  1  0  0  0  0  0  0  0  0  0
  -10.7033   13.9146    3.4659 O   0  0  0  0  0  0  0  0  0  0  0  0
  -14.7125   11.5435    3.8261 C   0  0  0  0  0  0  0  0  0  0  0  0
  -12.7527   11.7578   -0.0657 C   0  0  0  0  0  0  0  0  0  0  0  0
  1  2  1  6  0  0  0
  1  6  1  0  0  0  0
  1 21  1  0  0  0  0
  3  4  1  6  0  0  0
  3  8  1  0  0  0  0
  3 28  1  0  0  0  0
  5  9  1  0  0  0  0
  5 25  1  0  0  0  0
  5 29  1  6  0  0  0
  6  7  1  6  0  0  0
  6 11  1  0  0  0  0
  8 12  1  0  0  0  0
  9 10  1  6  0  0  0
  9 14  1  0  0  0  0
 11 16  1  0  0  0  0
 12 13  1  6  0  0  0
 12 17  1  0  0  0  0
 14 15  1  6  0  0  0
 14 18  1  0  0  0  0
 15 31  1  0  0  0  0
 16 20  1  0  0  0  0
 17  2  1  1  0  0  0
 17 22  1  0  0  0  0
 18 19  1  1  0  0  0
 18 24  1  0  0  0  0
 18 30  1  0  0  0  0
 20 21  1  0  0  0  0
 20 26  1  1  0  0  0
 22 23  1  6  0  0  0
 22 28  1  0  0  0  0
 24 25  1  0  0  0  0
 26 27  1  0  0  0  0
 28 29  1  1  0  0  0
M  END
>  <CHROM.1>
-169.92385056,-75.66481800,-79.99142529,76.75992920,108.61731634,173.23400281
-9.07657173,14.01950087,3.30533189,0.28924591,-0.44893454,-0.73291531

>  <Name>
ligand

>  <RI>
0

>  <Rbt.Current_Directory>
/home/itssahil/PROJECTS/Mol_Feturizer/New_Systems/rnas/4GPX

>  <Rbt.Executable>
rbdock ($Id: //depot/dev/client3/rdock/2013.1/src/exe/rbdock.cxx#4 $)

>  <Rbt.Library>
libRbt.so (2013.1, Build901 2013/11/27)

>  <Rbt.Parameter_File>
/export/apps/rDock/src/rDock_2013.1_src/data/scripts/dock_solv.prm

>  <Rbt.Receptor>
prm/blind_docking_60.prm

>  <SCORE>
14.5639

>  <SCORE.INTER>
11.3661

>  <SCORE.INTER.CONST>
1

>  <SCORE.INTER.POLAR>
0

>  <SCORE.INTER.ROT>
6

>  <SCORE.INTER.SOLV>
32.895

>  <SCORE.INTER.VDW>
-10.9876

>  <SCORE.INTER.norm>
0.366649

>  <SCORE.INTRA>
-4.91788

>  <SCORE.INTRA.DIHEDRAL>
-15.368

>  <SCORE.INTRA.DIHEDRAL.0>
20.6841

>  <SCORE.INTRA.POLAR>
0

>  <SCORE.INTRA.POLAR.0>
0

>  <SCORE.INTRA.REPUL>
0

>  <SCORE.INTRA.REPUL.0>
0

>  <SCORE.INTRA.SOLV>
-0.445674

>  <SCORE.INTRA.SOLV.lig_0>
-64.6797

>  <SCORE.INTRA.VDW>
2.98896

>  <SCORE.INTRA.VDW.0>
-4.11825

>  <SCORE.INTRA.norm>
-0.158641

>  <SCORE.RESTR>
8.11563

>  <SCORE.RESTR.CAVITY>
8.11563

>  <SCORE.RESTR.norm>
0.261795

>  <SCORE.SYSTEM>
0

>  <SCORE.SYSTEM.CONST>
0

>  <SCORE.SYSTEM.DIHEDRAL>
0

>  <SCORE.SYSTEM.SOLV>
0

>  <SCORE.SYSTEM.norm>
0

>  <SCORE.heavy>
31

>  <SCORE.norm>
0.469803

>  <RMSD>
10.708

$$$$
ligand
 OpenBabel11021811493D
libRbt.so/2013.1/901 2013/11/27
 31 33  0  0  0  0  0  0  0  0999 V2000
   -6.1523   16.3344    4.1033 C   0  0  2  0  0  0  0  0  0  0  0  0
   -6.3562   15.8991    2.7623 O   0  0  0  0  0  0  0  0  0  0  0  0
  -10.5848   15.9600    2.3165 C   0  0  2  0  0  0  0  0  0  0  0  0
  -11.8819   15.7312    1.7578 N   0  0  0  0  0  0  0  0  0  0  0  0
  -10.4232   12.4426    3.8031 C   0  0  2  0  0  0  0  0  0  0  0  0
   -4.6242   16.7308    4.2209 C   0  0  2  0  0  0  0  0  0  0  0  0
   -4.3381   17.7869    3.2555 N   0  0  0  0  0  0  0  0  0  0  0  0
   -9.7238   16.7722    1.2634 C   0  0  0  0  0  0  0  0  0  0  0  0
  -10.9023   11.7009    2.5151 C   0  0  2  0  0  0  0  0  0  0  0  0
  -10.1659   12.1956    1.4170 O   0  0  0  0  0  0  0  0  0  0  0  0
   -3.7069   15.4706    3.9577 C   0  0  0  0  0  0  0  0  0  0  0  0
   -8.2944   17.0236    1.8742 C   0  0  2  0  0  0  0  0  0  0  0  0
   -7.4871   17.7739    0.8969 N   0  0  0  0  0  0  0  0  0  0  0  0
  -12.4397   12.0038    2.3462 C   0  0  1  0  0  0  0  0  0  0  0  0
  -12.9555   11.3308    1.1085 N   0  0  0  0  0  0  0  0  0  0  0  0
   -4.3212   14.1397    4.5668 C   0  0  0  0  0  0  0  0  0  0  0  0
   -7.5990   15.6310    2.2099 C   0  0  2  0  0  0  0  0  0  0  0  0
  -13.2157   11.4066    3.6499 C   0  0  1  0  0  0  0  0  0  0  0  0
  -13.0071   10.0136    3.8090 O   0  0  0  0  0  0  0  0  0  0  0  0
   -5.5897   14.1123    5.0544 C   0  0  2  0  0  0  0  0  0  0  0  0
   -6.4400   15.2649    5.0506 O   0  0  0  0  0  0  0  0  0  0  0  0
   -8.4788   14.8419    3.2489 C   0  0  2  0  0  0  0  0  0  0  0  0
   -7.8463   13.5770    3.5398 O   0  0  0  0  0  0  0  0  0  0  0  0
  -12.6859   12.0991    4.9474 C   0  0  0  0  0  0  0  0  0  0  0  0
  -11.1891   11.9475    5.0155 O   0  0  0  0  0  0  0  0  0  0  0  0
   -6.2245   12.8557    5.6531 C   0  0  0  0  0  0  0  0  0  0  0  0
   -6.3677   13.0599    7.0787 O   0  0  0  0  0  0  0  0  0  0  0  0
   -9.8940   14.5807    2.6129 C   0  0  1  0  0  0  0  0  0  0  0  0
  -10.6547   13.8636    3.5336 O   0  0  0  0  0  0  0  0  0  0  0  0
  -14.7492   11.6171    3.6497 C   0  0  0  0  0  0  0  0  0  0  0  0
  -12.6509   11.9884   -0.1787 C   0  0  0  0  0  0  0  0  0  0  0  0
  1  2  1  6  0  0  0
  1  6  1  0  0  0  0
  1 21  1  0  0  0  0
  3  4  1  6  0  0  0
  3  8  1  0  0  0  0
  3 28  1  0  0  0  0
  5  9  1  0  0  0  0
  5 25  1  0  0  0  0
  5 29  1  6  0  0  0
  6  7  1  6  0  0  0
  6 11  1  0  0  0  0
  8 12  1  0  0  0  0
  9 10  1  6  0  0  0
  9 14  1  0  0  0  0
 11 16  1  0  0  0  0
 12 13  1  6  0  0  0
 12 17  1  0  0  0  0
 14 15  1  6  0  0  0
 14 18  1  0  0  0  0
 15 31  1  0  0  0  0
 16 20  1  0  0  0  0
 17  2  1  1  0  0  0
 17 22  1  0  0  0  0
 18 19  1  1  0  0  0
 18 24  1  0  0  0  0
 18 30  1  0  0  0  0
 20 21  1  0  0  0  0
 20 26  1  1  0  0  0
 22 23  1  6  0  0  0
 22 28  1  0  0  0  0
 24 25  1  0  0  0  0
 26 27  1  0  0  0  0
 28 29  1  1  0  0  0
M  END
>  <CHROM.1>
-171.25179362,-70.49780362,-78.09410202,76.88362471,110.08386370,167.24622866
-9.07378272,14.02567792,3.28191968,0.26620369,-0.45607080,-0.74236836

>  <Name>
ligand

>  <RI>
0

>  <Rbt.Current_Directory>
/home/itssahil/PROJECTS/Mol_Feturizer/New_Systems/rnas/4GPX

>  <Rbt.Executable>
rbdock ($Id: //depot/dev/client3/rdock/2013.1/src/exe/rbdock.cxx#4 $)

>  <Rbt.Library>
libRbt.so (2013.1, Build901 2013/11/27)

>  <Rbt.Parameter_File>
/export/apps/rDock/src/rDock_2013.1_src/data/scripts/dock_solv.prm

>  <Rbt.Receptor>
prm/blind_docking_60.prm

>  <SCORE>
14.3995

>  <SCORE.INTER>
10.5915

>  <SCORE.INTER.CONST>
1

>  <SCORE.INTER.POLAR>
0

>  <SCORE.INTER.ROT>
6

>  <SCORE.INTER.SOLV>
32.6982

>  <SCORE.INTER.VDW>
-11.4384

>  <SCORE.INTER.norm>
0.341662

>  <SCORE.INTRA>
-4.38543

>  <SCORE.INTRA.DIHEDRAL>
-15.6225

>  <SCORE.INTRA.DIHEDRAL.0>
20.6841

>  <SCORE.INTRA.POLAR>
0

>  <SCORE.INTRA.POLAR.0>
0

>  <SCORE.INTRA.REPUL>
0

>  <SCORE.INTRA.REPUL.0>
0

>  <SCORE.INTRA.SOLV>
-0.0423849

>  <SCORE.INTRA.SOLV.lig_0>
-64.6797

>  <SCORE.INTRA.VDW>
3.44702

>  <SCORE.INTRA.VDW.0>
-4.11825

>  <SCORE.INTRA.norm>
-0.141465

>  <SCORE.RESTR>
8.19345

>  <SCORE.RESTR.CAVITY>
8.19345

>  <SCORE.RESTR.norm>
0.264305

>  <SCORE.SYSTEM>
0

>  <SCORE.SYSTEM.CONST>
0

>  <SCORE.SYSTEM.DIHEDRAL>
0

>  <SCORE.SYSTEM.SOLV>
0

>  <SCORE.SYSTEM.norm>
0

>  <SCORE.heavy>
31

>  <SCORE.norm>
0.464501

>  <RMSD>
10.723

$$$$
ligand
 OpenBabel11021811493D
libRbt.so/2013.1/901 2013/11/27
 31 33  0  0  0  0  0  0  0  0999 V2000
  -11.5287   11.7730    0.3219 C   0  0  2  0  0  0  0  0  0  0  0  0
  -12.2184   12.9978    0.0908 O   0  0  0  0  0  0  0  0  0  0  0  0
   -9.1386   15.6669   -1.1234 C   0  0  2  0  0  0  0  0  0  0  0  0
   -8.4721   16.8867   -1.4625 N   0  0  0  0  0  0  0  0  0  0  0  0
   -8.6889   16.0178    2.6677 C   0  0  2  0  0  0  0  0  0  0  0  0
  -12.6360   10.6482    0.4428 C   0  0  2  0  0  0  0  0  0  0  0  0
  -13.4071   10.6143   -0.7956 N   0  0  0  0  0  0  0  0  0  0  0  0
  -10.3815   15.4918   -2.0900 C   0  0  0  0  0  0  0  0  0  0  0  0
   -7.3592   16.6719    3.1607 C   0  0  2  0  0  0  0  0  0  0  0  0
   -7.2046   17.9129    2.5060 O   0  0  0  0  0  0  0  0  0  0  0  0
  -13.5784   10.9342    1.6794 C   0  0  0  0  0  0  0  0  0  0  0  0
  -11.1191   14.1513   -1.7178 C   0  0  2  0  0  0  0  0  0  0  0  0
  -12.2794   13.9857   -2.6100 N   0  0  0  0  0  0  0  0  0  0  0  0
   -6.1874   15.6866    2.7870 C   0  0  1  0  0  0  0  0  0  0  0  0
   -4.8757   16.2723    3.2199 N   0  0  0  0  0  0  0  0  0  0  0  0
  -12.7831   11.5246    2.9198 C   0  0  0  0  0  0  0  0  0  0  0  0
  -11.5947   14.2014   -0.1989 C   0  0  2  0  0  0  0  0  0  0  0  0
   -6.4398   14.2828    3.5770 C   0  0  1  0  0  0  0  0  0  0  0  0
   -6.4999   14.4593    4.9822 O   0  0  0  0  0  0  0  0  0  0  0  0
  -11.4877   11.9183    2.7990 C   0  0  2  0  0  0  0  0  0  0  0  0
  -10.7681   11.8265    1.5639 O   0  0  0  0  0  0  0  0  0  0  0  0
  -10.3433   14.3856    0.7372 C   0  0  2  0  0  0  0  0  0  0  0  0
  -10.7844   14.4400    2.1109 O   0  0  0  0  0  0  0  0  0  0  0  0
   -7.8052   13.6625    3.1356 C   0  0  0  0  0  0  0  0  0  0  0  0
   -8.9006   14.6752    3.3418 O   0  0  0  0  0  0  0  0  0  0  0  0
  -10.6792   12.4904    3.9650 C   0  0  0  0  0  0  0  0  0  0  0  0
  -11.5917   12.7595    5.0555 O   0  0  0  0  0  0  0  0  0  0  0  0
   -9.6332   15.7395    0.3658 C   0  0  1  0  0  0  0  0  0  0  0  0
   -8.5409   15.9006    1.2153 O   0  0  0  0  0  0  0  0  0  0  0  0
   -5.3730   13.1903    3.3235 C   0  0  0  0  0  0  0  0  0  0  0  0
   -4.7477   16.6261    4.6484 C   0  0  0  0  0  0  0  0  0  0  0  0
  1  2  1  1  0  0  0
  1  6  1  0  0  0  0
  1 21  1  0  0  0  0
  3  4  1  6  0  0  0
  3  8  1  0  0  0  0
  3 28  1  0  0  0  0
  5  9  1  0  0  0  0
  5 25  1  0  0  0  0
  5 29  1  6  0  0  0
  6  7  1  6  0  0  0
  6 11  1  0  0  0  0
  8 12  1  0  0  0  0
  9 10  1  6  0  0  0
  9 14  1  0  0  0  0
 11 16  1  0  0  0  0
 12 13  1  6  0  0  0
 12 17  1  0  0  0  0
 14 15  1  1  0  0  0
 14 18  1  0  0  0  0
 15 31  1  0  0  0  0
 16 20  1  0  0  0  0
 17  2  1  1  0  0  0
 17 22  1  0  0  0  0
 18 19  1  1  0  0  0
 18 24  1  0  0  0  0
 18 30  1  0  0  0  0
 20 21  1  0  0  0  0
 20 26  1  1  0  0  0
 22 23  1  1  0  0  0
 22 28  1  0  0  0  0
 24 25  1  0  0  0  0
 26 27  1  0  0  0  0
 28 29  1  1  0  0  0
M  END
>  <CHROM.1>
-173.53512445,-160.53114455,56.37396797,76.08717826,-10.89892361,179.20402092
-9.56525210,14.13066899,1.68784828,3.04464506,-0.65775412,-1.02969109

>  <Name>
ligand

>  <RI>
0

>  <Rbt.Current_Directory>
/home/itssahil/PROJECTS/Mol_Feturizer/New_Systems/rnas/4GPX

>  <Rbt.Executable>
rbdock ($Id: //depot/dev/client3/rdock/2013.1/src/exe/rbdock.cxx#4 $)

>  <Rbt.Library>
libRbt.so (2013.1, Build901 2013/11/27)

>  <Rbt.Parameter_File>
/export/apps/rDock/src/rDock_2013.1_src/data/scripts/dock_solv.prm

>  <Rbt.Receptor>
prm/blind_docking_60.prm

>  <SCORE>
17.3573

>  <SCORE.INTER>
8.96922

>  <SCORE.INTER.CONST>
1

>  <SCORE.INTER.POLAR>
0

>  <SCORE.INTER.ROT>
6

>  <SCORE.INTER.SOLV>
26.6498

>  <SCORE.INTER.VDW>
-10.5038

>  <SCORE.INTER.norm>
0.28933

>  <SCORE.INTRA>
0.772971

>  <SCORE.INTRA.DIHEDRAL>
-15.701

>  <SCORE.INTRA.DIHEDRAL.0>
20.6841

>  <SCORE.INTRA.POLAR>
0

>  <SCORE.INTRA.POLAR.0>
0

>  <SCORE.INTRA.REPUL>
0

>  <SCORE.INTRA.REPUL.0>
0

>  <SCORE.INTRA.SOLV>
-0.921641

>  <SCORE.INTRA.SOLV.lig_0>
-64.6797

>  <SCORE.INTRA.VDW>
9.0843

>  <SCORE.INTRA.VDW.0>
-4.11825

>  <SCORE.INTRA.norm>
0.0249345

>  <SCORE.RESTR>
7.61515

>  <SCORE.RESTR.CAVITY>
7.61515

>  <SCORE.RESTR.norm>
0.24565

>  <SCORE.SYSTEM>
0

>  <SCORE.SYSTEM.CONST>
0

>  <SCORE.SYSTEM.DIHEDRAL>
0

>  <SCORE.SYSTEM.SOLV>
0

>  <SCORE.SYSTEM.norm>
0

>  <SCORE.heavy>
31

>  <SCORE.norm>
0.559914

>  <RMSD>
10.725

$$$$
ligand
 OpenBabel11021811493D
libRbt.so/2013.1/901 2013/11/27
 31 33  0  0  0  0  0  0  0  0999 V2000
   -5.3744   14.6588    3.7978 C   0  0  2  0  0  0  0  0  0  0  0  0
   -6.6515   15.2742    3.6583 O   0  0  0  0  0  0  0  0  0  0  0  0
  -10.4828   14.5943    1.9429 C   0  0  2  0  0  0  0  0  0  0  0  0
  -11.4839   14.2575    0.9778 N   0  0  0  0  0  0  0  0  0  0  0  0
  -10.7075   12.2008    4.0809 C   0  0  2  0  0  0  0  0  0  0  0  0
   -5.2894   14.1301    5.2876 C   0  0  2  0  0  0  0  0  0  0  0  0
   -6.3778   13.1844    5.5123 N   0  0  0  0  0  0  0  0  0  0  0  0
   -9.6276   15.8008    1.3746 C   0  0  0  0  0  0  0  0  0  0  0  0
  -11.6313   10.9442    4.1605 C   0  0  2  0  0  0  0  0  0  0  0  0
  -10.8989    9.8245    3.7106 O   0  0  0  0  0  0  0  0  0  0  0  0
   -5.3789   15.3361    6.3056 C   0  0  0  0  0  0  0  0  0  0  0  0
   -8.5229   16.1726    2.4333 C   0  0  2  0  0  0  0  0  0  0  0  0
   -7.7207   17.2907    1.9079 N   0  0  0  0  0  0  0  0  0  0  0  0
  -12.8731   11.2178    3.2293 C   0  0  1  0  0  0  0  0  0  0  0  0
  -13.7918   10.0317    3.2489 N   0  0  0  0  0  0  0  0  0  0  0  0
   -4.6130   16.6245    5.7829 C   0  0  0  0  0  0  0  0  0  0  0  0
   -7.5934   14.9094    2.7088 C   0  0  2  0  0  0  0  0  0  0  0  0
  -13.6605   12.5213    3.8116 C   0  0  1  0  0  0  0  0  0  0  0  0
  -14.0857   12.3391    5.1515 O   0  0  0  0  0  0  0  0  0  0  0  0
   -4.1415   16.6914    4.5098 C   0  0  2  0  0  0  0  0  0  0  0  0
   -4.3023   15.6200    3.5729 O   0  0  0  0  0  0  0  0  0  0  0  0
   -8.4685   13.7245    3.2623 C   0  0  2  0  0  0  0  0  0  0  0  0
   -7.6198   12.5808    3.4997 O   0  0  0  0  0  0  0  0  0  0  0  0
  -12.7129   13.7647    3.7979 C   0  0  0  0  0  0  0  0  0  0  0  0
  -11.4517   13.4361    4.5524 O   0  0  0  0  0  0  0  0  0  0  0  0
   -3.3956   17.9093    3.9612 C   0  0  0  0  0  0  0  0  0  0  0  0
   -2.0053   17.5456    3.7904 O   0  0  0  0  0  0  0  0  0  0  0  0
   -9.5509   13.3527    2.1827 C   0  0  1  0  0  0  0  0  0  0  0  0
  -10.3041   12.2895    2.6757 O   0  0  0  0  0  0  0  0  0  0  0  0
  -14.9189   12.9351    3.0109 C   0  0  0  0  0  0  0  0  0  0  0  0
  -13.8963    9.2960    4.5256 C   0  0  0  0  0  0  0  0  0  0  0  0
  1  2  1  1  0  0  0
  1  6  1  0  0  0  0
  1 21  1  0  0  0  0
  3  4  1  6  0  0  0
  3  8  1  0  0  0  0
  3 28  1  0  0  0  0
  5  9  1  0  0  0  0
  5 25  1  0  0  0  0
  5 29  1  6  0  0  0
  6  7  1  1  0  0  0
  6 11  1  0  0  0  0
  8 12  1  0  0  0  0
  9 10  1  6  0  0  0
  9 14  1  0  0  0  0
 11 16  1  0  0  0  0
 12 13  1  6  0  0  0
 12 17  1  0  0  0  0
 14 15  1  1  0  0  0
 14 18  1  0  0  0  0
 15 31  1  0  0  0  0
 16 20  1  0  0  0  0
 17  2  1  1  0  0  0
 17 22  1  0  0  0  0
 18 19  1  1  0  0  0
 18 24  1  0  0  0  0
 18 30  1  0  0  0  0
 20 21  1  0  0  0  0
 20 26  1  1  0  0  0
 22 23  1  6  0  0  0
 22 28  1  0  0  0  0
 24 25  1  0  0  0  0
 26 27  1  0  0  0  0
 28 29  1  1  0  0  0
M  END
>  <CHROM.1>
-123.11590651,174.90272525,34.59756192,-154.55138116,109.21101738,-79.20833337
-9.00928453,13.86991997,3.63897393,-0.36967440,0.35238273,2.52729209

>  <Name>
ligand

>  <RI>
0

>  <Rbt.Current_Directory>
/home/itssahil/PROJECTS/Mol_Feturizer/New_Systems/rnas/4GPX

>  <Rbt.Executable>
rbdock ($Id: //depot/dev/client3/rdock/2013.1/src/exe/rbdock.cxx#4 $)

>  <Rbt.Library>
libRbt.so (2013.1, Build901 2013/11/27)

>  <Rbt.Parameter_File>
/export/apps/rDock/src/rDock_2013.1_src/data/scripts/dock_solv.prm

>  <Rbt.Receptor>
prm/blind_docking_20.prm

>  <SCORE>
-1.14992

>  <SCORE.INTER>
-9.24203

>  <SCORE.INTER.CONST>
1

>  <SCORE.INTER.POLAR>
0

>  <SCORE.INTER.ROT>
6

>  <SCORE.INTER.SOLV>
28.076

>  <SCORE.INTER.VDW>
-23.12

>  <SCORE.INTER.norm>
-0.29813

>  <SCORE.INTRA>
2.27123

>  <SCORE.INTRA.DIHEDRAL>
-6.69749

>  <SCORE.INTRA.DIHEDRAL.0>
20.6841

>  <SCORE.INTRA.POLAR>
0

>  <SCORE.INTRA.POLAR.0>
0

>  <SCORE.INTRA.REPUL>
0

>  <SCORE.INTRA.REPUL.0>
0

>  <SCORE.INTRA.SOLV>
1.83013

>  <SCORE.INTRA.SOLV.lig_0>
-64.6797

>  <SCORE.INTRA.VDW>
4.70491

>  <SCORE.INTRA.VDW.0>
-4.11825

>  <SCORE.INTRA.norm>
0.0732655

>  <SCORE.RESTR>
5.82088

>  <SCORE.RESTR.CAVITY>
5.82088

>  <SCORE.RESTR.norm>
0.18777

>  <SCORE.SYSTEM>
0

>  <SCORE.SYSTEM.CONST>
0

>  <SCORE.SYSTEM.DIHEDRAL>
0

>  <SCORE.SYSTEM.SOLV>
0

>  <SCORE.SYSTEM.norm>
0

>  <SCORE.heavy>
31

>  <SCORE.norm>
-0.0370943

>  <RMSD>
10.727

$$$$
ligand
 OpenBabel11021811493D
libRbt.so/2013.1/901 2013/11/27
 31 33  0  0  0  0  0  0  0  0999 V2000
   -5.3944   14.6194    3.8145 C   0  0  2  0  0  0  0  0  0  0  0  0
   -6.6663   15.2413    3.6573 O   0  0  0  0  0  0  0  0  0  0  0  0
  -10.4876   14.5417    1.9275 C   0  0  2  0  0  0  0  0  0  0  0  0
  -11.4833   14.1997    0.9588 N   0  0  0  0  0  0  0  0  0  0  0  0
  -10.6985   12.1416    4.0673 C   0  0  2  0  0  0  0  0  0  0  0  0
   -5.3205   14.1176    5.3141 C   0  0  2  0  0  0  0  0  0  0  0  0
   -6.4168   13.1841    5.5507 N   0  0  0  0  0  0  0  0  0  0  0  0
   -9.6365   15.7526    1.3624 C   0  0  0  0  0  0  0  0  0  0  0  0
  -11.6365   10.8951    4.1398 C   0  0  2  0  0  0  0  0  0  0  0  0
  -10.9189    9.7710    3.6771 O   0  0  0  0  0  0  0  0  0  0  0  0
   -5.4061   15.3427    6.3093 C   0  0  0  0  0  0  0  0  0  0  0  0
   -8.5376   16.1301    2.4252 C   0  0  2  0  0  0  0  0  0  0  0  0
   -7.7392   17.2523    1.9028 N   0  0  0  0  0  0  0  0  0  0  0  0
  -12.8788   11.1911    3.2163 C   0  0  1  0  0  0  0  0  0  0  0  0
  -13.8111   10.0157    3.2293 N   0  0  0  0  0  0  0  0  0  0  0  0
   -4.6283   16.6157    5.7669 C   0  0  0  0  0  0  0  0  0  0  0  0
   -7.6027   14.8717    2.7044 C   0  0  2  0  0  0  0  0  0  0  0  0
  -13.6486   12.4986    3.8132 C   0  0  1  0  0  0  0  0  0  0  0  0
  -14.0703   12.3096    5.1532 O   0  0  0  0  0  0  0  0  0  0  0  0
   -4.1501   16.6558    4.4951 C   0  0  2  0  0  0  0  0  0  0  0  0
   -4.3142   15.5685    3.5773 O   0  0  0  0  0  0  0  0  0  0  0  0
   -8.4738   13.6823    3.2546 C   0  0  2  0  0  0  0  0  0  0  0  0
   -7.6202   12.5430    3.4953 O   0  0  0  0  0  0  0  0  0  0  0  0
  -12.6867   13.7309    3.8064 C   0  0  0  0  0  0  0  0  0  0  0  0
  -11.4263   13.3812    4.5526 O   0  0  0  0  0  0  0  0  0  0  0  0
   -3.3927   17.8580    3.9280 C   0  0  0  0  0  0  0  0  0  0  0  0
   -2.0056   17.4790    3.7644 O   0  0  0  0  0  0  0  0  0  0  0  0
   -9.5502   13.3049    2.1710 C   0  0  1  0  0  0  0  0  0  0  0  0
  -10.2998   12.2379    2.6613 O   0  0  0  0  0  0  0  0  0  0  0  0
  -14.9053   12.9339    3.0214 C   0  0  0  0  0  0  0  0  0  0  0  0
  -14.0799    9.3983    4.5441 C   0  0  0  0  0  0  0  0  0  0  0  0
  1  2  1  1  0  0  0
  1  6  1  0  0  0  0
  1 21  1  0  0  0  0
  3  4  1  6  0  0  0
  3  8  1  0  0  0  0
  3 28  1  0  0  0  0
  5  9  1  0  0  0  0
  5 25  1  0  0  0  0
  5 29  1  6  0  0  0
  6  7  1  1  0  0  0
  6 11  1  0  0  0  0
  8 12  1  0  0  0  0
  9 10  1  6  0  0  0
  9 14  1  0  0  0  0
 11 16  1  0  0  0  0
 12 13  1  6  0  0  0
 12 17  1  0  0  0  0
 14 15  1  1  0  0  0
 14 18  1  0  0  0  0
 15 31  1  0  0  0  0
 16 20  1  0  0  0  0
 17  2  1  1  0  0  0
 17 22  1  0  0  0  0
 18 19  1  1  0  0  0
 18 24  1  0  0  0  0
 18 30  1  0  0  0  0
 20 21  1  0  0  0  0
 20 26  1  1  0  0  0
 22 23  1  6  0  0  0
 22 28  1  0  0  0  0
 24 25  1  0  0  0  0
 26 27  1  0  0  0  0
 28 29  1  1  0  0  0
M  END
>  <CHROM.1>
-123.55508062,174.09815888,43.73969832,-155.51979591,109.49765231,-79.73454414
-9.02080754,13.83786999,3.63364954,-0.36313455,0.35644099,2.51219432

>  <Name>
ligand

>  <RI>
0

>  <Rbt.Current_Directory>
/home/itssahil/PROJECTS/Mol_Feturizer/New_Systems/rnas/4GPX

>  <Rbt.Executable>
rbdock ($Id: //depot/dev/client3/rdock/2013.1/src/exe/rbdock.cxx#4 $)

>  <Rbt.Library>
libRbt.so (2013.1, Build901 2013/11/27)

>  <Rbt.Parameter_File>
/export/apps/rDock/src/rDock_2013.1_src/data/scripts/dock_solv.prm

>  <Rbt.Receptor>
prm/blind_docking_20.prm

>  <SCORE>
-1.37786

>  <SCORE.INTER>
-8.75149

>  <SCORE.INTER.CONST>
1

>  <SCORE.INTER.POLAR>
0

>  <SCORE.INTER.ROT>
6

>  <SCORE.INTER.SOLV>
28.0758

>  <SCORE.INTER.VDW>
-22.7929

>  <SCORE.INTER.norm>
-0.282306

>  <SCORE.INTRA>
1.46551

>  <SCORE.INTRA.DIHEDRAL>
-7.01975

>  <SCORE.INTRA.DIHEDRAL.0>
20.6841

>  <SCORE.INTRA.POLAR>
0

>  <SCORE.INTRA.POLAR.0>
0

>  <SCORE.INTRA.REPUL>
0

>  <SCORE.INTRA.REPUL.0>
0

>  <SCORE.INTRA.SOLV>
1.79614

>  <SCORE.INTRA.SOLV.lig_0>
-64.6797

>  <SCORE.INTRA.VDW>
4.07732

>  <SCORE.INTRA.VDW.0>
-4.11825

>  <SCORE.INTRA.norm>
0.0472745

>  <SCORE.RESTR>
5.90812

>  <SCORE.RESTR.CAVITY>
5.90812

>  <SCORE.RESTR.norm>
0.190584

>  <SCORE.SYSTEM>
0

>  <SCORE.SYSTEM.CONST>
0

>  <SCORE.SYSTEM.DIHEDRAL>
0

>  <SCORE.SYSTEM.SOLV>
0

>  <SCORE.SYSTEM.norm>
0

>  <SCORE.heavy>
31

>  <SCORE.norm>
-0.0444471

>  <RMSD>
10.731

$$$$
ligand
 OpenBabel11021811493D
libRbt.so/2013.1/901 2013/11/27
 31 33  0  0  0  0  0  0  0  0999 V2000
   -6.2486   16.0460    4.2028 C   0  0  2  0  0  0  0  0  0  0  0  0
   -6.4526   15.5677    2.8766 O   0  0  0  0  0  0  0  0  0  0  0  0
  -10.6588   15.9342    2.3686 C   0  0  2  0  0  0  0  0  0  0  0  0
  -11.9536   15.8463    1.7664 N   0  0  0  0  0  0  0  0  0  0  0  0
  -10.5698   12.3387    3.6960 C   0  0  2  0  0  0  0  0  0  0  0  0
   -4.7696   16.6078    4.2566 C   0  0  2  0  0  0  0  0  0  0  0  0
   -4.6358   17.6717    3.2668 N   0  0  0  0  0  0  0  0  0  0  0  0
   -9.7270   16.8005    1.4245 C   0  0  0  0  0  0  0  0  0  0  0  0
  -11.0047   11.5019    2.4513 C   0  0  2  0  0  0  0  0  0  0  0  0
  -10.2957   11.9763    1.3266 O   0  0  0  0  0  0  0  0  0  0  0  0
   -3.7305   15.4502    3.9756 C   0  0  0  0  0  0  0  0  0  0  0  0
   -8.3000   16.8972    2.0830 C   0  0  2  0  0  0  0  0  0  0  0  0
   -7.4273   17.6973    1.2067 N   0  0  0  0  0  0  0  0  0  0  0  0
  -12.5564   11.7082    2.2687 C   0  0  1  0  0  0  0  0  0  0  0  0
  -13.0319   10.9406    1.0705 N   0  0  0  0  0  0  0  0  0  0  0  0
   -4.1734   14.0714    4.6256 C   0  0  0  0  0  0  0  0  0  0  0  0
   -7.6958   15.4368    2.2774 C   0  0  2  0  0  0  0  0  0  0  0  0
  -13.2995   11.1406    3.6043 C   0  0  1  0  0  0  0  0  0  0  0  0
  -13.0132    9.7722    3.8391 O   0  0  0  0  0  0  0  0  0  0  0  0
   -5.4128   13.9151    5.1616 C   0  0  2  0  0  0  0  0  0  0  0  0
   -6.3833   14.9685    5.1747 O   0  0  0  0  0  0  0  0  0  0  0  0
   -8.6446   14.5960    3.2096 C   0  0  2  0  0  0  0  0  0  0  0  0
   -8.0947   13.2709    3.3722 O   0  0  0  0  0  0  0  0  0  0  0  0
  -12.8113   11.9317    4.8612 C   0  0  0  0  0  0  0  0  0  0  0  0
  -11.3085   11.8683    4.9350 O   0  0  0  0  0  0  0  0  0  0  0  0
   -5.8845   12.6078    5.8010 C   0  0  0  0  0  0  0  0  0  0  0  0
   -7.1235   12.2170    5.1636 O   0  0  0  0  0  0  0  0  0  0  0  0
  -10.0574   14.4915    2.5251 C   0  0  1  0  0  0  0  0  0  0  0  0
  -10.8804   13.7275    3.3496 O   0  0  0  0  0  0  0  0  0  0  0  0
  -14.8424   11.2642    3.5952 C   0  0  0  0  0  0  0  0  0  0  0  0
  -12.5441    9.5526    0.9369 C   0  0  0  0  0  0  0  0  0  0  0  0
  1  2  1  6  0  0  0
  1  6  1  0  0  0  0
  1 21  1  0  0  0  0
  3  4  1  6  0  0  0
  3  8  1  0  0  0  0
  3 28  1  0  0  0  0
  5  9  1  0  0  0  0
  5 25  1  0  0  0  0
  5 29  1  6  0  0  0
  6  7  1  6  0  0  0
  6 11  1  0  0  0  0
  8 12  1  0  0  0  0
  9 10  1  6  0  0  0
  9 14  1  0  0  0  0
 11 16  1  0  0  0  0
 12 13  1  6  0  0  0
 12 17  1  0  0  0  0
 14 15  1  6  0  0  0
 14 18  1  0  0  0  0
 15 31  1  0  0  0  0
 16 20  1  0  0  0  0
 17  2  1  1  0  0  0
 17 22  1  0  0  0  0
 18 19  1  1  0  0  0
 18 24  1  0  0  0  0
 18 30  1  0  0  0  0
 20 21  1  0  0  0  0
 20 26  1  1  0  0  0
 22 23  1  6  0  0  0
 22 28  1  0  0  0  0
 24 25  1  0  0  0  0
 26 27  1  0  0  0  0
 28 29  1  1  0  0  0
M  END
>  <CHROM.1>
-156.34349074,-79.21568282,45.57776358,66.61854572,-126.01405271,-179.20878298
-9.16044450,13.74769172,3.26264463,0.40905497,-0.40612622,-0.52883642

>  <Name>
ligand

>  <RI>
0

>  <Rbt.Current_Directory>
/home/itssahil/PROJECTS/Mol_Feturizer/New_Systems/rnas/4GPX

>  <Rbt.Executable>
rbdock ($Id: //depot/dev/client3/rdock/2013.1/src/exe/rbdock.cxx#4 $)

>  <Rbt.Library>
libRbt.so (2013.1, Build901 2013/11/27)

>  <Rbt.Parameter_File>
/export/apps/rDock/src/rDock_2013.1_src/data/scripts/dock_solv.prm

>  <Rbt.Receptor>
prm/blind_docking_60.prm

>  <SCORE>
14.1498

>  <SCORE.INTER>
5.68937

>  <SCORE.INTER.CONST>
1

>  <SCORE.INTER.POLAR>
0

>  <SCORE.INTER.ROT>
6

>  <SCORE.INTER.SOLV>
32.3797

>  <SCORE.INTER.VDW>
-14.6003

>  <SCORE.INTER.norm>
0.183528

>  <SCORE.INTRA>
-1.01784

>  <SCORE.INTRA.DIHEDRAL>
-14.4655

>  <SCORE.INTRA.DIHEDRAL.0>
20.6841

>  <SCORE.INTRA.POLAR>
0

>  <SCORE.INTRA.POLAR.0>
0

>  <SCORE.INTRA.REPUL>
0.075682

>  <SCORE.INTRA.REPUL.0>
0

>  <SCORE.INTRA.SOLV>
0.708632

>  <SCORE.INTRA.SOLV.lig_0>
-64.6797

>  <SCORE.INTRA.VDW>
5.48216

>  <SCORE.INTRA.VDW.0>
-4.11825

>  <SCORE.INTRA.norm>
-0.0328336

>  <SCORE.RESTR>
9.47824

>  <SCORE.RESTR.CAVITY>
9.47824

>  <SCORE.RESTR.norm>
0.30575

>  <SCORE.SYSTEM>
0

>  <SCORE.SYSTEM.CONST>
0

>  <SCORE.SYSTEM.DIHEDRAL>
0

>  <SCORE.SYSTEM.SOLV>
0

>  <SCORE.SYSTEM.norm>
0

>  <SCORE.heavy>
31

>  <SCORE.norm>
0.456444

>  <RMSD>
10.732

$$$$
ligand
 OpenBabel11021811493D
libRbt.so/2013.1/901 2013/11/27
 31 33  0  0  0  0  0  0  0  0999 V2000
   -5.4331   14.3790    3.9212 C   0  0  2  0  0  0  0  0  0  0  0  0
   -6.5470   15.2072    3.6010 O   0  0  0  0  0  0  0  0  0  0  0  0
  -10.4549   14.6197    2.0304 C   0  0  2  0  0  0  0  0  0  0  0  0
  -11.4993   14.3115    1.1024 N   0  0  0  0  0  0  0  0  0  0  0  0
  -10.7178   12.2557    4.1389 C   0  0  2  0  0  0  0  0  0  0  0  0
   -5.5675   14.0168    5.4563 C   0  0  2  0  0  0  0  0  0  0  0  0
   -6.8369   13.3284    5.6663 N   0  0  0  0  0  0  0  0  0  0  0  0
   -9.5979   15.8136    1.4390 C   0  0  0  0  0  0  0  0  0  0  0  0
  -11.6524   11.0086    4.2380 C   0  0  2  0  0  0  0  0  0  0  0  0
  -10.9230    9.8722    3.8267 O   0  0  0  0  0  0  0  0  0  0  0  0
   -5.4896   15.3255    6.3395 C   0  0  0  0  0  0  0  0  0  0  0  0
   -8.4456   16.1538    2.4568 C   0  0  2  0  0  0  0  0  0  0  0  0
   -7.6417   17.2601    1.9096 N   0  0  0  0  0  0  0  0  0  0  0  0
  -12.8796   11.2675    3.2837 C   0  0  1  0  0  0  0  0  0  0  0  0
  -13.8078   10.0893    3.3212 N   0  0  0  0  0  0  0  0  0  0  0  0
   -4.4444   16.3758    5.7703 C   0  0  0  0  0  0  0  0  0  0  0  0
   -7.5322   14.8698    2.6860 C   0  0  2  0  0  0  0  0  0  0  0  0
  -13.6644   12.5914    3.8219 C   0  0  1  0  0  0  0  0  0  0  0  0
  -14.1086   12.4468    5.1603 O   0  0  0  0  0  0  0  0  0  0  0  0
   -3.8750   16.2061    4.5477 C   0  0  2  0  0  0  0  0  0  0  0  0
   -4.1765   15.0857    3.7079 O   0  0  0  0  0  0  0  0  0  0  0  0
   -8.4093   13.6979    3.2636 C   0  0  2  0  0  0  0  0  0  0  0  0
   -7.5757   12.5354    3.4587 O   0  0  0  0  0  0  0  0  0  0  0  0
  -12.7070   13.8269    3.7893 C   0  0  0  0  0  0  0  0  0  0  0  0
  -11.4584   13.5083    4.5687 O   0  0  0  0  0  0  0  0  0  0  0  0
   -2.8614   17.1885    3.9577 C   0  0  0  0  0  0  0  0  0  0  0  0
   -3.4977   18.4844    3.8568 O   0  0  0  0  0  0  0  0  0  0  0  0
   -9.5401   13.3574    2.2239 C   0  0  1  0  0  0  0  0  0  0  0  0
  -10.2952   12.3054    2.7374 O   0  0  0  0  0  0  0  0  0  0  0  0
  -14.9088   12.9941    2.9942 C   0  0  0  0  0  0  0  0  0  0  0  0
  -13.3532    8.8659    2.6291 C   0  0  0  0  0  0  0  0  0  0  0  0
  1  2  1  1  0  0  0
  1  6  1  0  0  0  0
  1 21  1  0  0  0  0
  3  4  1  6  0  0  0
  3  8  1  0  0  0  0
  3 28  1  0  0  0  0
  5  9  1  0  0  0  0
  5 25  1  0  0  0  0
  5 29  1  6  0  0  0
  6  7  1  6  0  0  0
  6 11  1  0  0  0  0
  8 12  1  0  0  0  0
  9 10  1  6  0  0  0
  9 14  1  0  0  0  0
 11 16  1  0  0  0  0
 12 13  1  6  0  0  0
 12 17  1  0  0  0  0
 14 15  1  1  0  0  0
 14 18  1  0  0  0  0
 15 31  1  0  0  0  0
 16 20  1  0  0  0  0
 17  2  1  1  0  0  0
 17 22  1  0  0  0  0
 18 19  1  1  0  0  0
 18 24  1  0  0  0  0
 18 30  1  0  0  0  0
 20 21  1  0  0  0  0
 20 26  1  1  0  0  0
 22 23  1  6  0  0  0
 22 28  1  0  0  0  0
 24 25  1  0  0  0  0
 26 27  1  0  0  0  0
 28 29  1  1  0  0  0
M  END
>  <CHROM.1>
-117.33679620,174.15792468,-73.19234420,-171.02672477,-59.70732410,-75.23187050
-9.02571780,13.83427331,3.61781312,-0.38728932,0.34206586,2.62473462

>  <Name>
ligand

>  <RI>
0

>  <Rbt.Current_Directory>
/home/itssahil/PROJECTS/Mol_Feturizer/New_Systems/rnas/4GPX

>  <Rbt.Executable>
rbdock ($Id: //depot/dev/client3/rdock/2013.1/src/exe/rbdock.cxx#4 $)

>  <Rbt.Library>
libRbt.so (2013.1, Build901 2013/11/27)

>  <Rbt.Parameter_File>
/export/apps/rDock/src/rDock_2013.1_src/data/scripts/dock_solv.prm

>  <Rbt.Receptor>
prm/blind_docking_20.prm

>  <SCORE>
0.717048

>  <SCORE.INTER>
-6.14712

>  <SCORE.INTER.CONST>
1

>  <SCORE.INTER.POLAR>
0

>  <SCORE.INTER.ROT>
6

>  <SCORE.INTER.SOLV>
29.2443

>  <SCORE.INTER.VDW>
-21.4462

>  <SCORE.INTER.norm>
-0.198294

>  <SCORE.INTRA>
0.69896

>  <SCORE.INTRA.DIHEDRAL>
-8.13765

>  <SCORE.INTRA.DIHEDRAL.0>
20.6841

>  <SCORE.INTRA.POLAR>
0

>  <SCORE.INTRA.POLAR.0>
0

>  <SCORE.INTRA.REPUL>
0

>  <SCORE.INTRA.REPUL.0>
0

>  <SCORE.INTRA.SOLV>
2.20008

>  <SCORE.INTRA.SOLV.lig_0>
-64.6797

>  <SCORE.INTRA.VDW>
3.66774

>  <SCORE.INTRA.VDW.0>
-4.11825

>  <SCORE.INTRA.norm>
0.0225471

>  <SCORE.RESTR>
6.16521

>  <SCORE.RESTR.CAVITY>
6.16521

>  <SCORE.RESTR.norm>
0.198878

>  <SCORE.SYSTEM>
0

>  <SCORE.SYSTEM.CONST>
0

>  <SCORE.SYSTEM.DIHEDRAL>
0

>  <SCORE.SYSTEM.SOLV>
0

>  <SCORE.SYSTEM.norm>
0

>  <SCORE.heavy>
31

>  <SCORE.norm>
0.0231306

>  <RMSD>
10.737

$$$$
ligand
 OpenBabel11021811493D
libRbt.so/2013.1/901 2013/11/27
 31 33  0  0  0  0  0  0  0  0999 V2000
   -5.3707   14.6509    3.8327 C   0  0  2  0  0  0  0  0  0  0  0  0
   -6.6507   15.2598    3.6911 O   0  0  0  0  0  0  0  0  0  0  0  0
  -10.4759   14.5920    1.9573 C   0  0  2  0  0  0  0  0  0  0  0  0
  -11.4732   14.2508    0.9899 N   0  0  0  0  0  0  0  0  0  0  0  0
  -10.7439   12.2350    4.1273 C   0  0  2  0  0  0  0  0  0  0  0  0
   -5.2760   14.1440    5.3294 C   0  0  2  0  0  0  0  0  0  0  0  0
   -6.3597   13.1979    5.5735 N   0  0  0  0  0  0  0  0  0  0  0  0
   -9.6048   15.7818    1.3779 C   0  0  0  0  0  0  0  0  0  0  0  0
  -11.6797   10.9882    4.2180 C   0  0  2  0  0  0  0  0  0  0  0  0
  -10.9527    9.8546    3.7946 O   0  0  0  0  0  0  0  0  0  0  0  0
   -5.3643   15.3643    6.3304 C   0  0  0  0  0  0  0  0  0  0  0  0
   -8.5042   16.1583    2.4392 C   0  0  2  0  0  0  0  0  0  0  0  0
   -7.6873   17.2607    1.9035 N   0  0  0  0  0  0  0  0  0  0  0  0
  -12.9092   11.2569    3.2694 C   0  0  1  0  0  0  0  0  0  0  0  0
  -13.8387   10.0795    3.2990 N   0  0  0  0  0  0  0  0  0  0  0  0
   -4.6059   16.6477    5.7852 C   0  0  0  0  0  0  0  0  0  0  0  0
   -7.5892   14.8903    2.7401 C   0  0  2  0  0  0  0  0  0  0  0  0
  -13.6910   12.5769    3.8215 C   0  0  1  0  0  0  0  0  0  0  0  0
  -14.1316   12.4210    5.1597 O   0  0  0  0  0  0  0  0  0  0  0  0
   -4.1413   16.6979    4.5087 C   0  0  2  0  0  0  0  0  0  0  0  0
   -4.3033   15.6126    3.5882 O   0  0  0  0  0  0  0  0  0  0  0  0
   -8.4799   13.7222    3.3043 C   0  0  2  0  0  0  0  0  0  0  0  0
   -7.6442   12.5739    3.5647 O   0  0  0  0  0  0  0  0  0  0  0  0
  -12.7322   13.8115    3.7971 C   0  0  0  0  0  0  0  0  0  0  0  0
  -11.4818   13.4846    4.5702 O   0  0  0  0  0  0  0  0  0  0  0  0
   -3.4027   17.9104    3.9387 C   0  0  0  0  0  0  0  0  0  0  0  0
   -2.0267   17.5288    3.7035 O   0  0  0  0  0  0  0  0  0  0  0  0
   -9.5580   13.3451    2.2222 C   0  0  1  0  0  0  0  0  0  0  0  0
  -10.3252   12.2966    2.7251 O   0  0  0  0  0  0  0  0  0  0  0  0
  -14.9372   12.9883    3.0009 C   0  0  0  0  0  0  0  0  0  0  0  0
  -13.3874    8.8617    2.5952 C   0  0  0  0  0  0  0  0  0  0  0  0
  1  2  1  1  0  0  0
  1  6  1  0  0  0  0
  1 21  1  0  0  0  0
  3  4  1  6  0  0  0
  3  8  1  0  0  0  0
  3 28  1  0  0  0  0
  5  9  1  0  0  0  0
  5 25  1  0  0  0  0
  5 29  1  6  0  0  0
  6  7  1  1  0  0  0
  6 11  1  0  0  0  0
  8 12  1  0  0  0  0
  9 10  1  6  0  0  0
  9 14  1  0  0  0  0
 11 16  1  0  0  0  0
 12 13  1  6  0  0  0
 12 17  1  0  0  0  0
 14 15  1  1  0  0  0
 14 18  1  0  0  0  0
 15 31  1  0  0  0  0
 16 20  1  0  0  0  0
 17  2  1  1  0  0  0
 17 22  1  0  0  0  0
 18 19  1  1  0  0  0
 18 24  1  0  0  0  0
 18 30  1  0  0  0  0
 20 21  1  0  0  0  0
 20 26  1  1  0  0  0
 22 23  1  6  0  0  0
 22 28  1  0  0  0  0
 24 25  1  0  0  0  0
 26 27  1  0  0  0  0
 28 29  1  1  0  0  0
M  END
>  <CHROM.1>
-124.04024021,174.86747564,-73.17862981,-153.30697612,112.00352123,-78.97192520
-9.00215765,13.86868550,3.59408426,-0.38012869,0.34939514,2.59756871

>  <Name>
ligand

>  <RI>
0

>  <Rbt.Current_Directory>
/home/itssahil/PROJECTS/Mol_Feturizer/New_Systems/rnas/4GPX

>  <Rbt.Executable>
rbdock ($Id: //depot/dev/client3/rdock/2013.1/src/exe/rbdock.cxx#4 $)

>  <Rbt.Library>
libRbt.so (2013.1, Build901 2013/11/27)

>  <Rbt.Parameter_File>
/export/apps/rDock/src/rDock_2013.1_src/data/scripts/dock_solv.prm

>  <Rbt.Receptor>
prm/blind_docking_20.prm

>  <SCORE>
-2.46121

>  <SCORE.INTER>
-8.76176

>  <SCORE.INTER.CONST>
1

>  <SCORE.INTER.POLAR>
0

>  <SCORE.INTER.ROT>
6

>  <SCORE.INTER.SOLV>
28.1233

>  <SCORE.INTER.VDW>
-22.8156

>  <SCORE.INTER.norm>
-0.282637

>  <SCORE.INTRA>
0.165899

>  <SCORE.INTRA.DIHEDRAL>
-6.92127

>  <SCORE.INTRA.DIHEDRAL.0>
20.6841

>  <SCORE.INTRA.POLAR>
0

>  <SCORE.INTRA.POLAR.0>
0

>  <SCORE.INTRA.REPUL>
0

>  <SCORE.INTRA.REPUL.0>
0

>  <SCORE.INTRA.SOLV>
1.73181

>  <SCORE.INTRA.SOLV.lig_0>
-64.6797

>  <SCORE.INTRA.VDW>
2.76063

>  <SCORE.INTRA.VDW.0>
-4.11825

>  <SCORE.INTRA.norm>
0.00535157

>  <SCORE.RESTR>
6.13465

>  <SCORE.RESTR.CAVITY>
6.13465

>  <SCORE.RESTR.norm>
0.197892

>  <SCORE.SYSTEM>
0

>  <SCORE.SYSTEM.CONST>
0

>  <SCORE.SYSTEM.DIHEDRAL>
0

>  <SCORE.SYSTEM.SOLV>
0

>  <SCORE.SYSTEM.norm>
0

>  <SCORE.heavy>
31

>  <SCORE.norm>
-0.0793939

>  <RMSD>
10.765

$$$$
ligand
 OpenBabel11021811493D
libRbt.so/2013.1/901 2013/11/27
 31 33  0  0  0  0  0  0  0  0999 V2000
   -6.3193   16.1280    4.1530 C   0  0  2  0  0  0  0  0  0  0  0  0
   -6.5390   15.6111    2.8439 O   0  0  0  0  0  0  0  0  0  0  0  0
  -10.7390   16.0528    2.3453 C   0  0  2  0  0  0  0  0  0  0  0  0
  -12.0366   15.9883    1.7460 N   0  0  0  0  0  0  0  0  0  0  0  0
  -10.6643   12.4880    3.7485 C   0  0  2  0  0  0  0  0  0  0  0  0
   -4.8220   16.6405    4.1895 C   0  0  2  0  0  0  0  0  0  0  0  0
   -4.6515   17.6640    3.1635 N   0  0  0  0  0  0  0  0  0  0  0  0
   -9.7941   16.9026    1.3993 C   0  0  0  0  0  0  0  0  0  0  0  0
  -11.1093   11.5741    2.5630 C   0  0  2  0  0  0  0  0  0  0  0  0
  -10.4252   11.9894    1.4002 O   0  0  0  0  0  0  0  0  0  0  0  0
   -3.8229   15.4390    3.9505 C   0  0  0  0  0  0  0  0  0  0  0  0
   -8.3640   16.9736    2.0547 C   0  0  2  0  0  0  0  0  0  0  0  0
   -7.4791   17.7582    1.1766 N   0  0  0  0  0  0  0  0  0  0  0  0
  -12.6663   11.7514    2.3956 C   0  0  1  0  0  0  0  0  0  0  0  0
  -13.1521   10.9089    1.2531 N   0  0  0  0  0  0  0  0  0  0  0  0
   -4.3129   14.0996    4.6474 C   0  0  0  0  0  0  0  0  0  0  0  0
   -7.7857   15.5025    2.2474 C   0  0  2  0  0  0  0  0  0  0  0  0
  -13.3799   11.2552    3.7751 C   0  0  1  0  0  0  0  0  0  0  0  0
  -13.0726    9.9065    4.0850 O   0  0  0  0  0  0  0  0  0  0  0  0
   -5.5571   14.0045    5.1866 C   0  0  2  0  0  0  0  0  0  0  0  0
   -6.4910   15.0902    5.1616 O   0  0  0  0  0  0  0  0  0  0  0  0
   -8.7473   14.6786    3.1815 C   0  0  2  0  0  0  0  0  0  0  0  0
   -8.2208   13.3439    3.3427 O   0  0  0  0  0  0  0  0  0  0  0  0
  -12.8807   12.1248    4.9744 C   0  0  0  0  0  0  0  0  0  0  0  0
  -11.3762   12.0832    5.0257 O   0  0  0  0  0  0  0  0  0  0  0  0
   -6.0734   12.7371    5.8704 C   0  0  0  0  0  0  0  0  0  0  0  0
   -7.1350   12.1871    5.0551 O   0  0  0  0  0  0  0  0  0  0  0  0
  -10.1633   14.5995    2.5002 C   0  0  1  0  0  0  0  0  0  0  0  0
  -10.9979   13.8502    3.3264 O   0  0  0  0  0  0  0  0  0  0  0  0
  -14.9241   11.3603    3.7854 C   0  0  0  0  0  0  0  0  0  0  0  0
  -12.5548    9.5643    1.1211 C   0  0  0  0  0  0  0  0  0  0  0  0
  1  2  1  6  0  0  0
  1  6  1  0  0  0  0
  1 21  1  0  0  0  0
  3  4  1  6  0  0  0
  3  8  1  0  0  0  0
  3 28  1  0  0  0  0
  5  9  1  0  0  0  0
  5 25  1  0  0  0  0
  5 29  1  6  0  0  0
  6  7  1  6  0  0  0
  6 11  1  0  0  0  0
  8 12  1  0  0  0  0
  9 10  1  6  0  0  0
  9 14  1  0  0  0  0
 11 16  1  0  0  0  0
 12 13  1  6  0  0  0
 12 17  1  0  0  0  0
 14 15  1  6  0  0  0
 14 18  1  0  0  0  0
 15 31  1  0  0  0  0
 16 20  1  0  0  0  0
 17  2  1  1  0  0  0
 17 22  1  0  0  0  0
 18 19  1  1  0  0  0
 18 24  1  0  0  0  0
 18 30  1  0  0  0  0
 20 21  1  0  0  0  0
 20 26  1  1  0  0  0
 22 23  1  6  0  0  0
 22 28  1  0  0  0  0
 24 25  1  0  0  0  0
 26 27  1  0  0  0  0
 28 29  1  1  0  0  0
M  END
>  <CHROM.1>
-156.30852032,-82.67826311,40.08958544,64.37835466,-112.51991865,-174.78292090
-9.24810715,13.82630358,3.29527262,0.41962368,-0.38923032,-0.53846198

>  <Name>
ligand

>  <RI>
0

>  <Rbt.Current_Directory>
/home/itssahil/PROJECTS/Mol_Feturizer/New_Systems/rnas/4GPX

>  <Rbt.Executable>
rbdock ($Id: //depot/dev/client3/rdock/2013.1/src/exe/rbdock.cxx#4 $)

>  <Rbt.Library>
libRbt.so (2013.1, Build901 2013/11/27)

>  <Rbt.Parameter_File>
/export/apps/rDock/src/rDock_2013.1_src/data/scripts/dock_solv.prm

>  <Rbt.Receptor>
prm/blind_docking_100.prm

>  <SCORE>
9.0666

>  <SCORE.INTER>
5.15696

>  <SCORE.INTER.CONST>
1

>  <SCORE.INTER.POLAR>
0

>  <SCORE.INTER.ROT>
6

>  <SCORE.INTER.SOLV>
32.5866

>  <SCORE.INTER.VDW>
-15.0242

>  <SCORE.INTER.norm>
0.166353

>  <SCORE.INTRA>
-0.818472

>  <SCORE.INTRA.DIHEDRAL>
-13.7099

>  <SCORE.INTRA.DIHEDRAL.0>
20.6841

>  <SCORE.INTRA.POLAR>
0

>  <SCORE.INTRA.POLAR.0>
0

>  <SCORE.INTRA.REPUL>
0.075684

>  <SCORE.INTRA.REPUL.0>
0

>  <SCORE.INTRA.SOLV>
0.482705

>  <SCORE.INTRA.SOLV.lig_0>
-64.6797

>  <SCORE.INTRA.VDW>
5.41671

>  <SCORE.INTRA.VDW.0>
-4.11825

>  <SCORE.INTRA.norm>
-0.0264023

>  <SCORE.RESTR>
4.72812

>  <SCORE.RESTR.CAVITY>
4.72812

>  <SCORE.RESTR.norm>
0.15252

>  <SCORE.SYSTEM>
0

>  <SCORE.SYSTEM.CONST>
0

>  <SCORE.SYSTEM.DIHEDRAL>
0

>  <SCORE.SYSTEM.SOLV>
0

>  <SCORE.SYSTEM.norm>
0

>  <SCORE.heavy>
31

>  <SCORE.norm>
0.292471

>  <RMSD>
10.769

$$$$
ligand
 OpenBabel11021811493D
libRbt.so/2013.1/901 2013/11/27
 31 33  0  0  0  0  0  0  0  0999 V2000
   -6.2521   16.0076    4.1834 C   0  0  2  0  0  0  0  0  0  0  0  0
   -6.4613   15.5613    2.8469 O   0  0  0  0  0  0  0  0  0  0  0  0
  -10.6677   15.9474    2.3559 C   0  0  2  0  0  0  0  0  0  0  0  0
  -11.9651   15.8669    1.7584 N   0  0  0  0  0  0  0  0  0  0  0  0
  -10.5866   12.3493    3.6767 C   0  0  2  0  0  0  0  0  0  0  0  0
   -4.7748   16.5730    4.2436 C   0  0  2  0  0  0  0  0  0  0  0  0
   -4.6495   17.6612    3.2797 N   0  0  0  0  0  0  0  0  0  0  0  0
   -9.7358   16.8125    1.4108 C   0  0  0  0  0  0  0  0  0  0  0  0
  -11.0540   11.5106    2.4451 C   0  0  2  0  0  0  0  0  0  0  0  0
  -10.3662   11.9757    1.3034 O   0  0  0  0  0  0  0  0  0  0  0  0
   -3.7333   15.4262    3.9291 C   0  0  0  0  0  0  0  0  0  0  0  0
   -8.3058   16.9011    2.0642 C   0  0  2  0  0  0  0  0  0  0  0  0
   -7.4330   17.7000    1.1869 N   0  0  0  0  0  0  0  0  0  0  0  0
  -12.6078   11.7269    2.2952 C   0  0  1  0  0  0  0  0  0  0  0  0
  -13.1143   10.9578    1.1106 N   0  0  0  0  0  0  0  0  0  0  0  0
   -4.1683   14.0303    4.5472 C   0  0  0  0  0  0  0  0  0  0  0  0
   -7.7072   15.4375    2.2520 C   0  0  2  0  0  0  0  0  0  0  0  0
  -13.3258   11.1697    3.6488 C   0  0  1  0  0  0  0  0  0  0  0  0
  -13.0437    9.8004    3.8830 O   0  0  0  0  0  0  0  0  0  0  0  0
   -5.4043   13.8567    5.0854 C   0  0  2  0  0  0  0  0  0  0  0  0
   -6.3783   14.9060    5.1293 O   0  0  0  0  0  0  0  0  0  0  0  0
   -8.6562   14.5981    3.1854 C   0  0  2  0  0  0  0  0  0  0  0  0
   -8.1114   13.2702    3.3420 O   0  0  0  0  0  0  0  0  0  0  0  0
  -12.8051   11.9624    4.8916 C   0  0  0  0  0  0  0  0  0  0  0  0
  -11.3015   11.8889    4.9332 O   0  0  0  0  0  0  0  0  0  0  0  0
   -5.8685   12.5324    5.6948 C   0  0  0  0  0  0  0  0  0  0  0  0
   -7.1689   12.2156    5.1445 O   0  0  0  0  0  0  0  0  0  0  0  0
  -10.0720   14.5016    2.5060 C   0  0  1  0  0  0  0  0  0  0  0  0
  -10.8951   13.7388    3.3313 O   0  0  0  0  0  0  0  0  0  0  0  0
  -14.8676   11.3039    3.6724 C   0  0  0  0  0  0  0  0  0  0  0  0
  -12.9794   11.6089   -0.2085 C   0  0  0  0  0  0  0  0  0  0  0  0
  1  2  1  6  0  0  0
  1  6  1  0  0  0  0
  1 21  1  0  0  0  0
  3  4  1  6  0  0  0
  3  8  1  0  0  0  0
  3 28  1  0  0  0  0
  5  9  1  0  0  0  0
  5 25  1  0  0  0  0
  5 29  1  6  0  0  0
  6  7  1  6  0  0  0
  6 11  1  0  0  0  0
  8 12  1  0  0  0  0
  9 10  1  6  0  0  0
  9 14  1  0  0  0  0
 11 16  1  0  0  0  0
 12 13  1  6  0  0  0
 12 17  1  0  0  0  0
 14 15  1  6  0  0  0
 14 18  1  0  0  0  0
 15 31  1  0  0  0  0
 16 20  1  0  0  0  0
 17  2  1  1  0  0  0
 17 22  1  0  0  0  0
 18 19  1  1  0  0  0
 18 24  1  0  0  0  0
 18 30  1  0  0  0  0
 20 21  1  0  0  0  0
 20 26  1  1  0  0  0
 22 23  1  6  0  0  0
 22 28  1  0  0  0  0
 24 25  1  0  0  0  0
 26 27  1  0  0  0  0
 28 29  1  1  0  0  0
M  END
>  <CHROM.1>
-156.52235717,-80.42938726,-83.45390061,68.03080132,-131.21845106,-178.97008076
-9.19140611,13.81571631,3.21061241,0.33731926,-0.41405164,-0.60428141

>  <Name>
ligand

>  <RI>
0

>  <Rbt.Current_Directory>
/home/itssahil/PROJECTS/Mol_Feturizer/New_Systems/rnas/4GPX

>  <Rbt.Executable>
rbdock ($Id: //depot/dev/client3/rdock/2013.1/src/exe/rbdock.cxx#4 $)

>  <Rbt.Library>
libRbt.so (2013.1, Build901 2013/11/27)

>  <Rbt.Parameter_File>
/export/apps/rDock/src/rDock_2013.1_src/data/scripts/dock_solv.prm

>  <Rbt.Receptor>
prm/blind_docking_60.prm

>  <SCORE>
12.6824

>  <SCORE.INTER>
5.6804

>  <SCORE.INTER.CONST>
1

>  <SCORE.INTER.POLAR>
0

>  <SCORE.INTER.ROT>
6

>  <SCORE.INTER.SOLV>
32.1419

>  <SCORE.INTER.VDW>
-14.527

>  <SCORE.INTER.norm>
0.183239

>  <SCORE.INTRA>
-2.62495

>  <SCORE.INTRA.DIHEDRAL>
-13.85

>  <SCORE.INTRA.DIHEDRAL.0>
20.6841

>  <SCORE.INTRA.POLAR>
0

>  <SCORE.INTRA.POLAR.0>
0

>  <SCORE.INTRA.REPUL>
0.0611563

>  <SCORE.INTRA.REPUL.0>
0

>  <SCORE.INTRA.SOLV>
0.525847

>  <SCORE.INTRA.SOLV.lig_0>
-64.6797

>  <SCORE.INTRA.VDW>
3.73137

>  <SCORE.INTRA.VDW.0>
-4.11825

>  <SCORE.INTRA.norm>
-0.0846759

>  <SCORE.RESTR>
9.627

>  <SCORE.RESTR.CAVITY>
9.627

>  <SCORE.RESTR.norm>
0.310548

>  <SCORE.SYSTEM>
0

>  <SCORE.SYSTEM.CONST>
0

>  <SCORE.SYSTEM.DIHEDRAL>
0

>  <SCORE.SYSTEM.SOLV>
0

>  <SCORE.SYSTEM.norm>
0

>  <SCORE.heavy>
31

>  <SCORE.norm>
0.409111

>  <RMSD>
10.793

$$$$
ligand
 OpenBabel11021811493D
libRbt.so/2013.1/901 2013/11/27
 31 33  0  0  0  0  0  0  0  0999 V2000
   -6.2338   13.5216    3.6659 C   0  0  2  0  0  0  0  0  0  0  0  0
   -7.6218   13.7670    3.8723 O   0  0  0  0  0  0  0  0  0  0  0  0
  -11.3542   14.3573    1.9218 C   0  0  2  0  0  0  0  0  0  0  0  0
  -12.3609   14.3248    0.9056 N   0  0  0  0  0  0  0  0  0  0  0  0
  -12.7557   11.1911    1.9928 C   0  0  2  0  0  0  0  0  0  0  0  0
   -5.6337   13.1174    5.0739 C   0  0  2  0  0  0  0  0  0  0  0  0
   -6.3311   11.9305    5.5576 N   0  0  0  0  0  0  0  0  0  0  0  0
  -10.0981   15.1390    1.3551 C   0  0  0  0  0  0  0  0  0  0  0  0
  -13.7416   10.5088    2.9933 C   0  0  2  0  0  0  0  0  0  0  0  0
  -14.5866   11.5027    3.5327 O   0  0  0  0  0  0  0  0  0  0  0  0
   -5.7849   14.3105    6.0998 C   0  0  0  0  0  0  0  0  0  0  0  0
   -8.9869   15.1745    2.4702 C   0  0  2  0  0  0  0  0  0  0  0  0
   -7.8138   15.8955    1.9471 N   0  0  0  0  0  0  0  0  0  0  0  0
  -12.8709    9.8353    4.1211 C   0  0  1  0  0  0  0  0  0  0  0  0
  -13.7675    9.1770    5.1280 N   0  0  0  0  0  0  0  0  0  0  0  0
   -5.5554   15.7253    5.4175 C   0  0  0  0  0  0  0  0  0  0  0  0
   -8.5839   13.6887    2.8773 C   0  0  2  0  0  0  0  0  0  0  0  0
  -11.9254    8.7073    3.4198 C   0  0  1  0  0  0  0  0  0  0  0  0
  -12.6803    7.7236    2.7329 O   0  0  0  0  0  0  0  0  0  0  0  0
   -5.4588   15.8448    4.0669 C   0  0  2  0  0  0  0  0  0  0  0  0
   -5.5558   14.7192    3.1864 O   0  0  0  0  0  0  0  0  0  0  0  0
   -9.8503   12.9331    3.4266 C   0  0  2  0  0  0  0  0  0  0  0  0
   -9.4782   11.5846    3.7837 O   0  0  0  0  0  0  0  0  0  0  0  0
  -10.9866    9.3806    2.3666 C   0  0  0  0  0  0  0  0  0  0  0  0
  -11.8204   10.1621    1.3859 O   0  0  0  0  0  0  0  0  0  0  0  0
   -5.2352   17.1849    3.3636 C   0  0  0  0  0  0  0  0  0  0  0  0
   -6.5121   17.6498    2.8658 O   0  0  0  0  0  0  0  0  0  0  0  0
  -10.9396   12.8882    2.2923 C   0  0  1  0  0  0  0  0  0  0  0  0
  -12.0458   12.1987    2.7840 O   0  0  0  0  0  0  0  0  0  0  0  0
  -10.9960    7.9394    4.3906 C   0  0  0  0  0  0  0  0  0  0  0  0
  -14.5622   10.0729    5.9929 C   0  0  0  0  0  0  0  0  0  0  0  0
  1  2  1  1  0  0  0
  1  6  1  0  0  0  0
  1 21  1  0  0  0  0
  3  4  1  6  0  0  0
  3  8  1  0  0  0  0
  3 28  1  0  0  0  0
  5  9  1  0  0  0  0
  5 25  1  0  0  0  0
  5 29  1  1  0  0  0
  6  7  1  1  0  0  0
  6 11  1  0  0  0  0
  8 12  1  0  0  0  0
  9 10  1  1  0  0  0
  9 14  1  0  0  0  0
 11 16  1  0  0  0  0
 12 13  1  6  0  0  0
 12 17  1  0  0  0  0
 14 15  1  1  0  0  0
 14 18  1  0  0  0  0
 15 31  1  0  0  0  0
 16 20  1  0  0  0  0
 17  2  1  1  0  0  0
 17 22  1  0  0  0  0
 18 19  1  6  0  0  0
 18 24  1  0  0  0  0
 18 30  1  0  0  0  0
 20 21  1  0  0  0  0
 20 26  1  1  0  0  0
 22 23  1  6  0  0  0
 22 28  1  0  0  0  0
 24 25  1  0  0  0  0
 26 27  1  0  0  0  0
 28 29  1  1  0  0  0
M  END
>  <CHROM.1>
-156.51996089,170.37964666,-69.93001092,-104.56441416,-99.98830778,105.16123538
-9.76221050,12.63406825,3.38705874,-0.56802581,0.42406968,2.62907044

>  <Name>
ligand

>  <RI>
0

>  <Rbt.Current_Directory>
/home/itssahil/PROJECTS/Mol_Feturizer/New_Systems/rnas/4GPX

>  <Rbt.Executable>
rbdock ($Id: //depot/dev/client3/rdock/2013.1/src/exe/rbdock.cxx#4 $)

>  <Rbt.Library>
libRbt.so (2013.1, Build901 2013/11/27)

>  <Rbt.Parameter_File>
/export/apps/rDock/src/rDock_2013.1_src/data/scripts/dock_solv.prm

>  <Rbt.Receptor>
prm/blind_docking_20.prm

>  <SCORE>
30.668

>  <SCORE.INTER>
21.8397

>  <SCORE.INTER.CONST>
1

>  <SCORE.INTER.POLAR>
0

>  <SCORE.INTER.ROT>
6

>  <SCORE.INTER.SOLV>
28.8242

>  <SCORE.INTER.VDW>
-2.64828

>  <SCORE.INTER.norm>
0.704506

>  <SCORE.INTRA>
1.39591

>  <SCORE.INTRA.DIHEDRAL>
-3.3512

>  <SCORE.INTRA.DIHEDRAL.0>
20.6841

>  <SCORE.INTRA.POLAR>
0

>  <SCORE.INTRA.POLAR.0>
0

>  <SCORE.INTRA.REPUL>
0

>  <SCORE.INTRA.REPUL.0>
0

>  <SCORE.INTRA.SOLV>
2.6087

>  <SCORE.INTRA.SOLV.lig_0>
-64.6797

>  <SCORE.INTRA.VDW>
1.76716

>  <SCORE.INTRA.VDW.0>
-4.11825

>  <SCORE.INTRA.norm>
0.0450293

>  <SCORE.RESTR>
7.43237

>  <SCORE.RESTR.CAVITY>
7.43237

>  <SCORE.RESTR.norm>
0.239754

>  <SCORE.SYSTEM>
0

>  <SCORE.SYSTEM.CONST>
0

>  <SCORE.SYSTEM.DIHEDRAL>
0

>  <SCORE.SYSTEM.SOLV>
0

>  <SCORE.SYSTEM.norm>
0

>  <SCORE.heavy>
31

>  <SCORE.norm>
0.989289

>  <RMSD>
10.798

$$$$
ligand
 OpenBabel11021811493D
libRbt.so/2013.1/901 2013/11/27
 31 33  0  0  0  0  0  0  0  0999 V2000
   -5.4708   14.3973    3.7078 C   0  0  2  0  0  0  0  0  0  0  0  0
   -6.5671   15.2860    3.5137 O   0  0  0  0  0  0  0  0  0  0  0  0
  -10.4537   15.0972    1.7983 C   0  0  2  0  0  0  0  0  0  0  0  0
  -11.4854   14.9666    0.8157 N   0  0  0  0  0  0  0  0  0  0  0  0
  -10.5725   12.2608    3.5704 C   0  0  2  0  0  0  0  0  0  0  0  0
   -5.6074   13.8279    5.1785 C   0  0  2  0  0  0  0  0  0  0  0  0
   -6.8911   13.1447    5.2996 N   0  0  0  0  0  0  0  0  0  0  0  0
   -9.5315   16.3204    1.3941 C   0  0  0  0  0  0  0  0  0  0  0  0
  -11.4872   10.9976    3.4905 C   0  0  2  0  0  0  0  0  0  0  0  0
  -10.8571   10.0438    2.6623 O   0  0  0  0  0  0  0  0  0  0  0  0
   -5.4967   14.9990    6.2346 C   0  0  0  0  0  0  0  0  0  0  0  0
   -8.3930   16.4655    2.4722 C   0  0  2  0  0  0  0  0  0  0  0  0
   -7.5287   17.5983    2.0987 N   0  0  0  0  0  0  0  0  0  0  0  0
  -12.8644   11.4562    2.8768 C   0  0  1  0  0  0  0  0  0  0  0  0
  -13.7832   10.2763    2.7562 N   0  0  0  0  0  0  0  0  0  0  0  0
   -4.4304   16.0954    5.8097 C   0  0  0  0  0  0  0  0  0  0  0  0
   -7.5413   15.1219    2.5412 C   0  0  2  0  0  0  0  0  0  0  0  0
  -13.5237   12.5541    3.8859 C   0  0  1  0  0  0  0  0  0  0  0  0
  -13.7189   12.0364    5.1910 O   0  0  0  0  0  0  0  0  0  0  0  0
   -3.8697   16.0851    4.5715 C   0  0  2  0  0  0  0  0  0  0  0  0
   -4.1995   15.0993    3.5861 O   0  0  0  0  0  0  0  0  0  0  0  0
   -8.4822   13.9235    2.9343 C   0  0  2  0  0  0  0  0  0  0  0  0
   -7.7041   12.7083    2.9846 O   0  0  0  0  0  0  0  0  0  0  0  0
  -12.5747   13.7889    4.0215 C   0  0  0  0  0  0  0  0  0  0  0  0
  -11.2088   13.3209    4.4497 O   0  0  0  0  0  0  0  0  0  0  0  0
   -2.8366   17.1179    4.1168 C   0  0  0  0  0  0  0  0  0  0  0  0
   -3.5476   18.2678    3.6006 O   0  0  0  0  0  0  0  0  0  0  0  0
   -9.5987   13.7800    1.8350 C   0  0  1  0  0  0  0  0  0  0  0  0
  -10.4110   12.7033    2.1836 O   0  0  0  0  0  0  0  0  0  0  0  0
  -14.8933   13.1161    3.4342 C   0  0  0  0  0  0  0  0  0  0  0  0
  -13.7184    9.2732    3.8387 C   0  0  0  0  0  0  0  0  0  0  0  0
  1  2  1  1  0  0  0
  1  6  1  0  0  0  0
  1 21  1  0  0  0  0
  3  4  1  6  0  0  0
  3  8  1  0  0  0  0
  3 28  1  0  0  0  0
  5  9  1  0  0  0  0
  5 25  1  0  0  0  0
  5 29  1  6  0  0  0
  6  7  1  6  0  0  0
  6 11  1  0  0  0  0
  8 12  1  0  0  0  0
  9 10  1  6  0  0  0
  9 14  1  0  0  0  0
 11 16  1  0  0  0  0
 12 13  1  6  0  0  0
 12 17  1  0  0  0  0
 14 15  1  1  0  0  0
 14 18  1  0  0  0  0
 15 31  1  0  0  0  0
 16 20  1  0  0  0  0
 17  2  1  1  0  0  0
 17 22  1  0  0  0  0
 18 19  1  1  0  0  0
 18 24  1  0  0  0  0
 18 30  1  0  0  0  0
 20 21  1  0  0  0  0
 20 26  1  1  0  0  0
 22 23  1  6  0  0  0
 22 28  1  0  0  0  0
 24 25  1  0  0  0  0
 26 27  1  0  0  0  0
 28 29  1  1  0  0  0
M  END
>  <CHROM.1>
-119.34943698,-176.86499077,36.92824916,-168.64466813,-86.20844950,-92.55804662
-9.00504933,13.92402891,3.45530023,-0.37227412,0.34475146,2.59073153

>  <Name>
ligand

>  <RI>
0

>  <Rbt.Current_Directory>
/home/itssahil/PROJECTS/Mol_Feturizer/New_Systems/rnas/4GPX

>  <Rbt.Executable>
rbdock ($Id: //depot/dev/client3/rdock/2013.1/src/exe/rbdock.cxx#4 $)

>  <Rbt.Library>
libRbt.so (2013.1, Build901 2013/11/27)

>  <Rbt.Parameter_File>
/export/apps/rDock/src/rDock_2013.1_src/data/scripts/dock_solv.prm

>  <Rbt.Receptor>
prm/blind_docking_20.prm

>  <SCORE>
1.61579

>  <SCORE.INTER>
-7.1178

>  <SCORE.INTER.CONST>
1

>  <SCORE.INTER.POLAR>
0

>  <SCORE.INTER.ROT>
6

>  <SCORE.INTER.SOLV>
29.3236

>  <SCORE.INTER.VDW>
-22.1197

>  <SCORE.INTER.norm>
-0.229607

>  <SCORE.INTRA>
2.35578

>  <SCORE.INTRA.DIHEDRAL>
-5.52785

>  <SCORE.INTRA.DIHEDRAL.0>
20.6841

>  <SCORE.INTRA.POLAR>
0

>  <SCORE.INTRA.POLAR.0>
0

>  <SCORE.INTRA.REPUL>
0.00913036

>  <SCORE.INTRA.REPUL.0>
0

>  <SCORE.INTRA.SOLV>
0.817078

>  <SCORE.INTRA.SOLV.lig_0>
-64.6797

>  <SCORE.INTRA.VDW>
4.66551

>  <SCORE.INTRA.VDW.0>
-4.11825

>  <SCORE.INTRA.norm>
0.0759928

>  <SCORE.RESTR>
6.37781

>  <SCORE.RESTR.CAVITY>
6.37781

>  <SCORE.RESTR.norm>
0.205736

>  <SCORE.SYSTEM>
0

>  <SCORE.SYSTEM.CONST>
0

>  <SCORE.SYSTEM.DIHEDRAL>
0

>  <SCORE.SYSTEM.SOLV>
0

>  <SCORE.SYSTEM.norm>
0

>  <SCORE.heavy>
31

>  <SCORE.norm>
0.0521222

>  <RMSD>
10.799

$$$$
ligand
 OpenBabel11021811493D
libRbt.so/2013.1/901 2013/11/27
 31 33  0  0  0  0  0  0  0  0999 V2000
   -5.2918   14.5176    4.0944 C   0  0  2  0  0  0  0  0  0  0  0  0
   -6.4677   15.2867    3.8600 O   0  0  0  0  0  0  0  0  0  0  0  0
  -10.0895   15.1337    1.6366 C   0  0  2  0  0  0  0  0  0  0  0  0
  -10.9813   14.9999    0.5259 N   0  0  0  0  0  0  0  0  0  0  0  0
  -11.1991   12.3513    1.1286 C   0  0  2  0  0  0  0  0  0  0  0  0
   -5.3038   14.1330    5.6300 C   0  0  2  0  0  0  0  0  0  0  0  0
   -6.5173   13.3740    5.9139 N   0  0  0  0  0  0  0  0  0  0  0  0
   -9.0933   16.3283    1.3359 C   0  0  0  0  0  0  0  0  0  0  0  0
  -12.5456   12.6432    1.8637 C   0  0  2  0  0  0  0  0  0  0  0  0
  -12.5802   14.0134    2.2012 O   0  0  0  0  0  0  0  0  0  0  0  0
   -5.2379   15.4350    6.5240 C   0  0  0  0  0  0  0  0  0  0  0  0
   -8.1084   16.4768    2.5554 C   0  0  2  0  0  0  0  0  0  0  0  0
   -7.1759   17.5830    2.2791 N   0  0  0  0  0  0  0  0  0  0  0  0
  -12.5767   11.7424    3.1565 C   0  0  1  0  0  0  0  0  0  0  0  0
  -13.8442   11.9943    3.9189 N   0  0  0  0  0  0  0  0  0  0  0  0
   -4.2912   16.5467    5.9015 C   0  0  0  0  0  0  0  0  0  0  0  0
   -7.3047   15.1186    2.7678 C   0  0  2  0  0  0  0  0  0  0  0  0
  -12.5311   10.1827    2.6836 C   0  0  1  0  0  0  0  0  0  0  0  0
  -13.6112    9.8477    1.8289 O   0  0  0  0  0  0  0  0  0  0  0  0
   -3.7963   16.4208    4.6418 C   0  0  2  0  0  0  0  0  0  0  0  0
   -4.0923   15.2941    3.8084 O   0  0  0  0  0  0  0  0  0  0  0  0
   -8.3173   13.9488    3.0545 C   0  0  2  0  0  0  0  0  0  0  0  0
   -7.5811   12.7200    3.2357 O   0  0  0  0  0  0  0  0  0  0  0  0
  -11.2150    9.9073    1.8862 C   0  0  0  0  0  0  0  0  0  0  0  0
  -11.1111   10.8857    0.7461 O   0  0  0  0  0  0  0  0  0  0  0  0
   -2.8788   17.4632    3.9997 C   0  0  0  0  0  0  0  0  0  0  0  0
   -2.8787   18.6409    4.8408 O   0  0  0  0  0  0  0  0  0  0  0  0
   -9.2775   13.8011    1.8169 C   0  0  1  0  0  0  0  0  0  0  0  0
  -10.1539   12.7493    2.0744 O   0  0  0  0  0  0  0  0  0  0  0  0
  -12.5554    9.1502    3.8365 C   0  0  0  0  0  0  0  0  0  0  0  0
  -13.8741   11.5374    5.3233 C   0  0  0  0  0  0  0  0  0  0  0  0
  1  2  1  1  0  0  0
  1  6  1  0  0  0  0
  1 21  1  0  0  0  0
  3  4  1  6  0  0  0
  3  8  1  0  0  0  0
  3 28  1  0  0  0  0
  5  9  1  0  0  0  0
  5 25  1  0  0  0  0
  5 29  1  1  0  0  0
  6  7  1  1  0  0  0
  6 11  1  0  0  0  0
  8 12  1  0  0  0  0
  9 10  1  1  0  0  0
  9 14  1  0  0  0  0
 11 16  1  0  0  0  0
 12 13  1  6  0  0  0
 12 17  1  0  0  0  0
 14 15  1  6  0  0  0
 14 18  1  0  0  0  0
 15 31  1  0  0  0  0
 16 20  1  0  0  0  0
 17  2  1  1  0  0  0
 17 22  1  0  0  0  0
 18 19  1  6  0  0  0
 18 24  1  0  0  0  0
 18 30  1  0  0  0  0
 20 21  1  0  0  0  0
 20 26  1  1  0  0  0
 22 23  1  6  0  0  0
 22 28  1  0  0  0  0
 24 25  1  0  0  0  0
 26 27  1  0  0  0  0
 28 29  1  1  0  0  0
M  END
>  <CHROM.1>
-136.00185444,-115.32999766,-163.26761320,-157.43509680,-10.94481092,60.45398317
-8.79105751,13.86346760,3.19762529,-0.26858699,0.54424861,2.43148937

>  <Name>
ligand

>  <RI>
0

>  <Rbt.Current_Directory>
/home/itssahil/PROJECTS/Mol_Feturizer/New_Systems/rnas/4GPX

>  <Rbt.Executable>
rbdock ($Id: //depot/dev/client3/rdock/2013.1/src/exe/rbdock.cxx#4 $)

>  <Rbt.Library>
libRbt.so (2013.1, Build901 2013/11/27)

>  <Rbt.Parameter_File>
/export/apps/rDock/src/rDock_2013.1_src/data/scripts/dock_solv.prm

>  <Rbt.Receptor>
prm/blind_docking_60.prm

>  <SCORE>
7.81071

>  <SCORE.INTER>
-7.44322

>  <SCORE.INTER.CONST>
1

>  <SCORE.INTER.POLAR>
0

>  <SCORE.INTER.ROT>
6

>  <SCORE.INTER.SOLV>
26.4759

>  <SCORE.INTER.VDW>
-21.3875

>  <SCORE.INTER.norm>
-0.240104

>  <SCORE.INTRA>
3.10319

>  <SCORE.INTRA.DIHEDRAL>
-3.29513

>  <SCORE.INTRA.DIHEDRAL.0>
20.6841

>  <SCORE.INTRA.POLAR>
0

>  <SCORE.INTRA.POLAR.0>
0

>  <SCORE.INTRA.REPUL>
0

>  <SCORE.INTRA.REPUL.0>
0

>  <SCORE.INTRA.SOLV>
1.46648

>  <SCORE.INTRA.SOLV.lig_0>
-64.6797

>  <SCORE.INTRA.VDW>
4.01751

>  <SCORE.INTRA.VDW.0>
-4.11825

>  <SCORE.INTRA.norm>
0.100103

>  <SCORE.RESTR>
12.1507

>  <SCORE.RESTR.CAVITY>
12.1507

>  <SCORE.RESTR.norm>
0.391959

>  <SCORE.SYSTEM>
0

>  <SCORE.SYSTEM.CONST>
0

>  <SCORE.SYSTEM.DIHEDRAL>
0

>  <SCORE.SYSTEM.SOLV>
0

>  <SCORE.SYSTEM.norm>
0

>  <SCORE.heavy>
31

>  <SCORE.norm>
0.251958

>  <RMSD>
10.828

$$$$
ligand
 OpenBabel11021811493D
libRbt.so/2013.1/901 2013/11/27
 31 33  0  0  0  0  0  0  0  0999 V2000
   -5.4020   14.7390    3.7254 C   0  0  2  0  0  0  0  0  0  0  0  0
   -6.6722   15.3836    3.7061 O   0  0  0  0  0  0  0  0  0  0  0  0
  -10.5316   15.3346    1.9210 C   0  0  2  0  0  0  0  0  0  0  0  0
  -11.5591   15.1464    0.9434 N   0  0  0  0  0  0  0  0  0  0  0  0
  -11.5202   13.3245    3.9703 C   0  0  2  0  0  0  0  0  0  0  0  0
   -5.2457   14.0944    5.1627 C   0  0  2  0  0  0  0  0  0  0  0  0
   -6.3389   13.1514    5.3752 N   0  0  0  0  0  0  0  0  0  0  0  0
   -9.4643   16.3480    1.3346 C   0  0  0  0  0  0  0  0  0  0  0  0
  -11.7409   11.9202    4.6167 C   0  0  2  0  0  0  0  0  0  0  0  0
  -10.4788   11.3241    4.8270 O   0  0  0  0  0  0  0  0  0  0  0  0
   -5.2545   15.2186    6.2740 C   0  0  0  0  0  0  0  0  0  0  0  0
   -8.3302   16.5555    2.4071 C   0  0  2  0  0  0  0  0  0  0  0  0
   -7.3317   17.4930    1.8651 N   0  0  0  0  0  0  0  0  0  0  0  0
  -12.6048   11.0721    3.6077 C   0  0  1  0  0  0  0  0  0  0  0  0
  -12.8344    9.6991    4.1674 N   0  0  0  0  0  0  0  0  0  0  0  0
   -4.4928   16.5316    5.8096 C   0  0  0  0  0  0  0  0  0  0  0  0
   -7.6468   15.1579    2.7464 C   0  0  2  0  0  0  0  0  0  0  0  0
  -14.0383   11.8250    3.4170 C   0  0  1  0  0  0  0  0  0  0  0  0
  -14.7321   11.9801    4.6434 O   0  0  0  0  0  0  0  0  0  0  0  0
   -4.0909   16.6901    4.5208 C   0  0  2  0  0  0  0  0  0  0  0  0
   -4.3248   15.6977    3.5148 O   0  0  0  0  0  0  0  0  0  0  0  0
   -8.7296   14.1688    3.3168 C   0  0  2  0  0  0  0  0  0  0  0  0
   -8.1036   12.9017    3.6122 O   0  0  0  0  0  0  0  0  0  0  0  0
  -13.8126   13.2585    2.8354 C   0  0  0  0  0  0  0  0  0  0  0  0
  -12.8516   14.0078    3.7202 O   0  0  0  0  0  0  0  0  0  0  0  0
   -3.3520   17.9351    4.0263 C   0  0  0  0  0  0  0  0  0  0  0  0
   -1.9953   17.5523    3.6992 O   0  0  0  0  0  0  0  0  0  0  0  0
   -9.8413   13.9565    2.2239 C   0  0  1  0  0  0  0  0  0  0  0  0
  -10.7813   13.0632    2.7330 O   0  0  0  0  0  0  0  0  0  0  0  0
  -15.0212   11.1221    2.4498 C   0  0  0  0  0  0  0  0  0  0  0  0
  -11.8388    8.6658    3.8163 C   0  0  0  0  0  0  0  0  0  0  0  0
  1  2  1  1  0  0  0
  1  6  1  0  0  0  0
  1 21  1  0  0  0  0
  3  4  1  6  0  0  0
  3  8  1  0  0  0  0
  3 28  1  0  0  0  0
  5  9  1  0  0  0  0
  5 25  1  0  0  0  0
  5 29  1  6  0  0  0
  6  7  1  1  0  0  0
  6 11  1  0  0  0  0
  8 12  1  0  0  0  0
  9 10  1  6  0  0  0
  9 14  1  0  0  0  0
 11 16  1  0  0  0  0
 12 13  1  6  0  0  0
 12 17  1  0  0  0  0
 14 15  1  1  0  0  0
 14 18  1  0  0  0  0
 15 31  1  0  0  0  0
 16 20  1  0  0  0  0
 17  2  1  1  0  0  0
 17 22  1  0  0  0  0
 18 19  1  1  0  0  0
 18 24  1  0  0  0  0
 18 30  1  0  0  0  0
 20 21  1  0  0  0  0
 20 26  1  1  0  0  0
 22 23  1  6  0  0  0
 22 28  1  0  0  0  0
 24 25  1  0  0  0  0
 26 27  1  0  0  0  0
 28 29  1  1  0  0  0
M  END
>  <CHROM.1>
-126.51729411,-146.96389518,-90.53556802,-140.85992615,111.44618720,-60.21453941
-9.05811043,14.02593714,3.58989251,-0.37286771,0.34442003,2.55999181

>  <Name>
ligand

>  <RI>
0

>  <Rbt.Current_Directory>
/home/itssahil/PROJECTS/Mol_Feturizer/New_Systems/rnas/4GPX

>  <Rbt.Executable>
rbdock ($Id: //depot/dev/client3/rdock/2013.1/src/exe/rbdock.cxx#4 $)

>  <Rbt.Library>
libRbt.so (2013.1, Build901 2013/11/27)

>  <Rbt.Parameter_File>
/export/apps/rDock/src/rDock_2013.1_src/data/scripts/dock_solv.prm

>  <Rbt.Receptor>
prm/blind_docking_20.prm

>  <SCORE>
-1.87132

>  <SCORE.INTER>
-9.84191

>  <SCORE.INTER.CONST>
1

>  <SCORE.INTER.POLAR>
0

>  <SCORE.INTER.ROT>
6

>  <SCORE.INTER.SOLV>
28.0887

>  <SCORE.INTER.VDW>
-23.5242

>  <SCORE.INTER.norm>
-0.317481

>  <SCORE.INTRA>
0.55771

>  <SCORE.INTRA.DIHEDRAL>
-1.8737

>  <SCORE.INTRA.DIHEDRAL.0>
20.6841

>  <SCORE.INTRA.POLAR>
0

>  <SCORE.INTRA.POLAR.0>
0

>  <SCORE.INTRA.REPUL>
0

>  <SCORE.INTRA.REPUL.0>
0

>  <SCORE.INTRA.SOLV>
1.35682

>  <SCORE.INTRA.SOLV.lig_0>
-64.6797

>  <SCORE.INTRA.VDW>
0.816149

>  <SCORE.INTRA.VDW.0>
-4.11825

>  <SCORE.INTRA.norm>
0.0179906

>  <SCORE.RESTR>
7.41288

>  <SCORE.RESTR.CAVITY>
7.41288

>  <SCORE.RESTR.norm>
0.239125

>  <SCORE.SYSTEM>
0

>  <SCORE.SYSTEM.CONST>
0

>  <SCORE.SYSTEM.DIHEDRAL>
0

>  <SCORE.SYSTEM.SOLV>
0

>  <SCORE.SYSTEM.norm>
0

>  <SCORE.heavy>
31

>  <SCORE.norm>
-0.0603651

>  <RMSD>
10.833

$$$$
ligand
 OpenBabel11021811493D
libRbt.so/2013.1/901 2013/11/27
 31 33  0  0  0  0  0  0  0  0999 V2000
   -5.4214   14.7524    3.7252 C   0  0  2  0  0  0  0  0  0  0  0  0
   -6.6819   15.4144    3.6791 O   0  0  0  0  0  0  0  0  0  0  0  0
  -10.5498   15.2965    1.9158 C   0  0  2  0  0  0  0  0  0  0  0  0
  -11.5799   15.0856    0.9455 N   0  0  0  0  0  0  0  0  0  0  0  0
  -11.5070   13.2956    3.9823 C   0  0  2  0  0  0  0  0  0  0  0  0
   -5.2843   14.1454    5.1807 C   0  0  2  0  0  0  0  0  0  0  0  0
   -6.3924   13.2245    5.4111 N   0  0  0  0  0  0  0  0  0  0  0  0
   -9.4998   16.3194    1.3147 C   0  0  0  0  0  0  0  0  0  0  0  0
  -11.7482   11.8922    4.6233 C   0  0  2  0  0  0  0  0  0  0  0  0
  -10.4945   11.2805    4.8396 O   0  0  0  0  0  0  0  0  0  0  0  0
   -5.2842   15.2998    6.2607 C   0  0  0  0  0  0  0  0  0  0  0  0
   -8.3630   16.5520    2.3791 C   0  0  2  0  0  0  0  0  0  0  0  0
   -7.3804   17.4983    1.8235 N   0  0  0  0  0  0  0  0  0  0  0  0
  -12.6158   11.0572    3.6065 C   0  0  1  0  0  0  0  0  0  0  0  0
  -12.8651    9.6854    4.1607 N   0  0  0  0  0  0  0  0  0  0  0  0
   -4.5003   16.5884    5.7660 C   0  0  0  0  0  0  0  0  0  0  0  0
   -7.6584   15.1669    2.7268 C   0  0  2  0  0  0  0  0  0  0  0  0
  -14.0391   11.8276    3.4093 C   0  0  1  0  0  0  0  0  0  0  0  0
  -14.7386   11.9873    4.6318 O   0  0  0  0  0  0  0  0  0  0  0  0
   -4.0875   16.7057    4.4763 C   0  0  2  0  0  0  0  0  0  0  0  0
   -4.3289   15.6895    3.4962 O   0  0  0  0  0  0  0  0  0  0  0  0
   -8.7242   14.1680    3.3117 C   0  0  2  0  0  0  0  0  0  0  0  0
   -8.0791   12.9123    3.6146 O   0  0  0  0  0  0  0  0  0  0  0  0
  -13.7930   13.2599    2.8333 C   0  0  0  0  0  0  0  0  0  0  0  0
  -12.8286   13.9953    3.7261 O   0  0  0  0  0  0  0  0  0  0  0  0
   -3.3271   17.9258    3.9532 C   0  0  0  0  0  0  0  0  0  0  0  0
   -2.6365   18.5372    5.0684 O   0  0  0  0  0  0  0  0  0  0  0  0
   -9.8388   13.9308    2.2269 C   0  0  1  0  0  0  0  0  0  0  0  0
  -10.7635   13.0290    2.7489 O   0  0  0  0  0  0  0  0  0  0  0  0
  -15.0243   11.1390    2.4340 C   0  0  0  0  0  0  0  0  0  0  0  0
  -11.8744    8.6437    3.8209 C   0  0  0  0  0  0  0  0  0  0  0  0
  1  2  1  1  0  0  0
  1  6  1  0  0  0  0
  1 21  1  0  0  0  0
  3  4  1  6  0  0  0
  3  8  1  0  0  0  0
  3 28  1  0  0  0  0
  5  9  1  0  0  0  0
  5 25  1  0  0  0  0
  5 29  1  6  0  0  0
  6  7  1  1  0  0  0
  6 11  1  0  0  0  0
  8 12  1  0  0  0  0
  9 10  1  6  0  0  0
  9 14  1  0  0  0  0
 11 16  1  0  0  0  0
 12 13  1  6  0  0  0
 12 17  1  0  0  0  0
 14 15  1  1  0  0  0
 14 18  1  0  0  0  0
 15 31  1  0  0  0  0
 16 20  1  0  0  0  0
 17  2  1  1  0  0  0
 17 22  1  0  0  0  0
 18 19  1  1  0  0  0
 18 24  1  0  0  0  0
 18 30  1  0  0  0  0
 20 21  1  0  0  0  0
 20 26  1  1  0  0  0
 22 23  1  6  0  0  0
 22 28  1  0  0  0  0
 24 25  1  0  0  0  0
 26 27  1  0  0  0  0
 28 29  1  1  0  0  0
M  END
>  <CHROM.1>
-125.84324180,-148.92064450,-90.10310079,-143.23437062,25.66261280,-59.72955399
-9.09092200,14.06173139,3.63132190,-0.38070357,0.37705471,2.56644695

>  <Name>
ligand

>  <RI>
0

>  <Rbt.Current_Directory>
/home/itssahil/PROJECTS/Mol_Feturizer/New_Systems/rnas/4GPX

>  <Rbt.Executable>
rbdock ($Id: //depot/dev/client3/rdock/2013.1/src/exe/rbdock.cxx#4 $)

>  <Rbt.Library>
libRbt.so (2013.1, Build901 2013/11/27)

>  <Rbt.Parameter_File>
/export/apps/rDock/src/rDock_2013.1_src/data/scripts/dock_solv.prm

>  <Rbt.Receptor>
prm/blind_docking_20.prm

>  <SCORE>
-0.904591

>  <SCORE.INTER>
-9.91173

>  <SCORE.INTER.CONST>
1

>  <SCORE.INTER.POLAR>
0

>  <SCORE.INTER.ROT>
6

>  <SCORE.INTER.SOLV>
27.7674

>  <SCORE.INTER.VDW>
-23.4636

>  <SCORE.INTER.norm>
-0.319733

>  <SCORE.INTRA>
1.3485

>  <SCORE.INTRA.DIHEDRAL>
-1.97415

>  <SCORE.INTRA.DIHEDRAL.0>
20.6841

>  <SCORE.INTRA.POLAR>
0

>  <SCORE.INTRA.POLAR.0>
0

>  <SCORE.INTRA.REPUL>
0

>  <SCORE.INTRA.REPUL.0>
0

>  <SCORE.INTRA.SOLV>
1.33715

>  <SCORE.INTRA.SOLV.lig_0>
-64.6797

>  <SCORE.INTRA.VDW>
1.667

>  <SCORE.INTRA.VDW.0>
-4.11825

>  <SCORE.INTRA.norm>
0.0434999

>  <SCORE.RESTR>
7.65865

>  <SCORE.RESTR.CAVITY>
7.65865

>  <SCORE.RESTR.norm>
0.247053

>  <SCORE.SYSTEM>
0

>  <SCORE.SYSTEM.CONST>
0

>  <SCORE.SYSTEM.DIHEDRAL>
0

>  <SCORE.SYSTEM.SOLV>
0

>  <SCORE.SYSTEM.norm>
0

>  <SCORE.heavy>
31

>  <SCORE.norm>
-0.0291803

>  <RMSD>
10.842

$$$$
ligand
 OpenBabel11021811493D
libRbt.so/2013.1/901 2013/11/27
 31 33  0  0  0  0  0  0  0  0999 V2000
   -4.9054   14.3213    4.2404 C   0  0  2  0  0  0  0  0  0  0  0  0
   -6.2567   14.7719    4.2435 O   0  0  0  0  0  0  0  0  0  0  0  0
   -9.5948   15.8820    1.8542 C   0  0  2  0  0  0  0  0  0  0  0  0
  -10.3898   16.1494    0.6952 N   0  0  0  0  0  0  0  0  0  0  0  0
  -10.2097   12.1572    2.3136 C   0  0  2  0  0  0  0  0  0  0  0  0
   -4.5694   13.8948    5.7275 C   0  0  2  0  0  0  0  0  0  0  0  0
   -5.4943   12.8418    6.1337 N   0  0  0  0  0  0  0  0  0  0  0  0
   -8.3165   16.8168    1.8092 C   0  0  0  0  0  0  0  0  0  0  0  0
  -11.3845   11.4450    1.5711 C   0  0  2  0  0  0  0  0  0  0  0  0
  -11.1989   11.6121    0.1818 O   0  0  0  0  0  0  0  0  0  0  0  0
   -4.6807   15.1395    6.6955 C   0  0  0  0  0  0  0  0  0  0  0  0
   -7.4377   16.5233    3.0824 C   0  0  2  0  0  0  0  0  0  0  0  0
   -6.2444   17.3859    3.0433 N   0  0  0  0  0  0  0  0  0  0  0  0
  -12.7217   12.1291    2.0483 C   0  0  1  0  0  0  0  0  0  0  0  0
  -13.8905   11.4977    1.3510 N   0  0  0  0  0  0  0  0  0  0  0  0
   -4.1533   16.4765    6.0219 C   0  0  0  0  0  0  0  0  0  0  0  0
   -7.0087   14.9899    3.0995 C   0  0  2  0  0  0  0  0  0  0  0  0
  -12.8601   11.8950    3.6559 C   0  0  1  0  0  0  0  0  0  0  0  0
  -12.8648   10.5201    4.0011 O   0  0  0  0  0  0  0  0  0  0  0  0
   -3.8568   16.5239    4.6961 C   0  0  2  0  0  0  0  0  0  0  0  0
   -3.9984   15.3877    3.8355 O   0  0  0  0  0  0  0  0  0  0  0  0
   -8.2956   14.0851    3.1341 C   0  0  2  0  0  0  0  0  0  0  0  0
   -7.8978   12.6972    3.1393 O   0  0  0  0  0  0  0  0  0  0  0  0
  -11.6466   12.5474    4.3946 C   0  0  0  0  0  0  0  0  0  0  0  0
  -10.3649   12.0089    3.8156 O   0  0  0  0  0  0  0  0  0  0  0  0
   -3.3434   17.7871    4.0024 C   0  0  0  0  0  0  0  0  0  0  0  0
   -1.9260   17.6231    3.7613 O   0  0  0  0  0  0  0  0  0  0  0  0
   -9.1488   14.3758    1.8445 C   0  0  1  0  0  0  0  0  0  0  0  0
  -10.2731   13.5538    1.8770 O   0  0  0  0  0  0  0  0  0  0  0  0
  -14.1290   12.5064    4.2976 C   0  0  0  0  0  0  0  0  0  0  0  0
  -14.0896   11.8591   -0.0674 C   0  0  0  0  0  0  0  0  0  0  0  0
  1  2  1  1  0  0  0
  1  6  1  0  0  0  0
  1 21  1  0  0  0  0
  3  4  1  6  0  0  0
  3  8  1  0  0  0  0
  3 28  1  0  0  0  0
  5  9  1  0  0  0  0
  5 25  1  0  0  0  0
  5 29  1  1  0  0  0
  6  7  1  1  0  0  0
  6 11  1  0  0  0  0
  8 12  1  0  0  0  0
  9 10  1  6  0  0  0
  9 14  1  0  0  0  0
 11 16  1  0  0  0  0
 12 13  1  6  0  0  0
 12 17  1  0  0  0  0
 14 15  1  6  0  0  0
 14 18  1  0  0  0  0
 15 31  1  0  0  0  0
 16 20  1  0  0  0  0
 17  2  1  1  0  0  0
 17 22  1  0  0  0  0
 18 19  1  1  0  0  0
 18 24  1  0  0  0  0
 18 30  1  0  0  0  0
 20 21  1  0  0  0  0
 20 26  1  1  0  0  0
 22 23  1  6  0  0  0
 22 28  1  0  0  0  0
 24 25  1  0  0  0  0
 26 27  1  0  0  0  0
 28 29  1  1  0  0  0
M  END
>  <CHROM.1>
-167.10621495,-152.82718159,-74.73407543,-119.52521596,104.76207467,-159.38217842
-8.49008753,14.08740666,3.23478212,-0.11919626,0.50649119,2.33108782

>  <Name>
ligand

>  <RI>
0

>  <Rbt.Current_Directory>
/home/itssahil/PROJECTS/Mol_Feturizer/New_Systems/rnas/4GPX

>  <Rbt.Executable>
rbdock ($Id: //depot/dev/client3/rdock/2013.1/src/exe/rbdock.cxx#4 $)

>  <Rbt.Library>
libRbt.so (2013.1, Build901 2013/11/27)

>  <Rbt.Parameter_File>
/export/apps/rDock/src/rDock_2013.1_src/data/scripts/dock_solv.prm

>  <Rbt.Receptor>
prm/blind_docking_60.prm

>  <SCORE>
2.02405

>  <SCORE.INTER>
-9.99466

>  <SCORE.INTER.CONST>
1

>  <SCORE.INTER.POLAR>
0

>  <SCORE.INTER.ROT>
6

>  <SCORE.INTER.SOLV>
26.5202

>  <SCORE.INTER.VDW>
-23.1032

>  <SCORE.INTER.norm>
-0.322408

>  <SCORE.INTRA>
1.16324

>  <SCORE.INTRA.DIHEDRAL>
-5.57836

>  <SCORE.INTRA.DIHEDRAL.0>
20.6841

>  <SCORE.INTRA.POLAR>
0

>  <SCORE.INTRA.POLAR.0>
0

>  <SCORE.INTRA.REPUL>
0

>  <SCORE.INTRA.REPUL.0>
0

>  <SCORE.INTRA.SOLV>
0.545677

>  <SCORE.INTRA.SOLV.lig_0>
-64.6797

>  <SCORE.INTRA.VDW>
3.67958

>  <SCORE.INTRA.VDW.0>
-4.11825

>  <SCORE.INTRA.norm>
0.0375237

>  <SCORE.RESTR>
10.8555

>  <SCORE.RESTR.CAVITY>
10.8555

>  <SCORE.RESTR.norm>
0.350176

>  <SCORE.SYSTEM>
0

>  <SCORE.SYSTEM.CONST>
0

>  <SCORE.SYSTEM.DIHEDRAL>
0

>  <SCORE.SYSTEM.SOLV>
0

>  <SCORE.SYSTEM.norm>
0

>  <SCORE.heavy>
31

>  <SCORE.norm>
0.0652918

>  <RMSD>
10.852

$$$$
ligand
 OpenBabel11021811493D
libRbt.so/2013.1/901 2013/11/27
 31 33  0  0  0  0  0  0  0  0999 V2000
   -5.8734   14.9477    2.9887 C   0  0  2  0  0  0  0  0  0  0  0  0
   -7.2391   15.1864    3.3158 O   0  0  0  0  0  0  0  0  0  0  0  0
  -11.2376   15.2163    1.8683 C   0  0  2  0  0  0  0  0  0  0  0  0
  -12.3496   15.0435    0.9849 N   0  0  0  0  0  0  0  0  0  0  0  0
  -12.4289   12.1704    1.9518 C   0  0  2  0  0  0  0  0  0  0  0  0
   -5.5426   13.4794    3.4793 C   0  0  2  0  0  0  0  0  0  0  0  0
   -6.4366   12.5461    2.8019 N   0  0  0  0  0  0  0  0  0  0  0  0
  -10.2000   16.1952    1.1790 C   0  0  0  0  0  0  0  0  0  0  0  0
  -13.4438   11.6138    3.0000 C   0  0  2  0  0  0  0  0  0  0  0  0
  -14.0300   12.7061    3.6751 O   0  0  0  0  0  0  0  0  0  0  0  0
   -5.7086   13.3727    5.0477 C   0  0  0  0  0  0  0  0  0  0  0  0
   -8.9732   16.3857    2.1477 C   0  0  2  0  0  0  0  0  0  0  0  0
   -8.0021   17.2910    1.5096 N   0  0  0  0  0  0  0  0  0  0  0  0
  -12.6322   10.7030    3.9979 C   0  0  1  0  0  0  0  0  0  0  0  0
  -13.5546   10.1524    5.0453 N   0  0  0  0  0  0  0  0  0  0  0  0
   -5.2180   14.6835    5.7967 C   0  0  0  0  0  0  0  0  0  0  0  0
   -8.2977   14.9749    2.4462 C   0  0  2  0  0  0  0  0  0  0  0  0
  -11.9874    9.4726    3.1443 C   0  0  1  0  0  0  0  0  0  0  0  0
  -12.9746    8.7057    2.4760 O   0  0  0  0  0  0  0  0  0  0  0  0
   -4.9060   15.8110    5.1046 C   0  0  2  0  0  0  0  0  0  0  0  0
   -4.9978   15.8874    3.6773 O   0  0  0  0  0  0  0  0  0  0  0  0
   -9.3516   14.0205    3.1205 C   0  0  2  0  0  0  0  0  0  0  0  0
   -8.7339   12.7412    3.3783 O   0  0  0  0  0  0  0  0  0  0  0  0
  -11.0247   10.0335    2.0477 C   0  0  0  0  0  0  0  0  0  0  0  0
  -11.7669   11.0317    1.1988 O   0  0  0  0  0  0  0  0  0  0  0  0
   -4.4266   17.0970    5.7808 C   0  0  0  0  0  0  0  0  0  0  0  0
   -3.7482   17.9013    4.7872 O   0  0  0  0  0  0  0  0  0  0  0  0
  -10.5579   13.8245    2.1297 C   0  0  1  0  0  0  0  0  0  0  0  0
  -11.4724   12.9614    2.7294 O   0  0  0  0  0  0  0  0  0  0  0  0
  -11.1500    8.4704    3.9750 C   0  0  0  0  0  0  0  0  0  0  0  0
  -14.4167   11.1257    5.7464 C   0  0  0  0  0  0  0  0  0  0  0  0
  1  2  1  1  0  0  0
  1  6  1  0  0  0  0
  1 21  1  0  0  0  0
  3  4  1  6  0  0  0
  3  8  1  0  0  0  0
  3 28  1  0  0  0  0
  5  9  1  0  0  0  0
  5 25  1  0  0  0  0
  5 29  1  1  0  0  0
  6  7  1  6  0  0  0
  6 11  1  0  0  0  0
  8 12  1  0  0  0  0
  9 10  1  1  0  0  0
  9 14  1  0  0  0  0
 11 16  1  0  0  0  0
 12 13  1  6  0  0  0
 12 17  1  0  0  0  0
 14 15  1  1  0  0  0
 14 18  1  0  0  0  0
 15 31  1  0  0  0  0
 16 20  1  0  0  0  0
 17  2  1  1  0  0  0
 17 22  1  0  0  0  0
 18 19  1  6  0  0  0
 18 24  1  0  0  0  0
 18 30  1  0  0  0  0
 20 21  1  0  0  0  0
 20 26  1  6  0  0  0
 22 23  1  6  0  0  0
 22 28  1  0  0  0  0
 24 25  1  0  0  0  0
 26 27  1  0  0  0  0
 28 29  1  1  0  0  0
M  END
>  <CHROM.1>
-93.79408504,-167.68791842,-50.77613941,-115.57548048,159.94973770,84.78819341
-9.44375820,13.39913503,3.25567428,-0.50075400,0.38194773,2.71030876

>  <Name>
ligand

>  <RI>
0

>  <Rbt.Current_Directory>
/home/itssahil/PROJECTS/Mol_Feturizer/New_Systems/rnas/4GPX

>  <Rbt.Executable>
rbdock ($Id: //depot/dev/client3/rdock/2013.1/src/exe/rbdock.cxx#4 $)

>  <Rbt.Library>
libRbt.so (2013.1, Build901 2013/11/27)

>  <Rbt.Parameter_File>
/export/apps/rDock/src/rDock_2013.1_src/data/scripts/dock_solv.prm

>  <Rbt.Receptor>
prm/blind_docking_20.prm

>  <SCORE>
6.95943

>  <SCORE.INTER>
-4.5806

>  <SCORE.INTER.CONST>
1

>  <SCORE.INTER.POLAR>
0

>  <SCORE.INTER.ROT>
6

>  <SCORE.INTER.SOLV>
27.411

>  <SCORE.INTER.VDW>
-19.7907

>  <SCORE.INTER.norm>
-0.147761

>  <SCORE.INTRA>
4.37628

>  <SCORE.INTRA.DIHEDRAL>
-2.7326

>  <SCORE.INTRA.DIHEDRAL.0>
20.6841

>  <SCORE.INTRA.POLAR>
0

>  <SCORE.INTRA.POLAR.0>
0

>  <SCORE.INTRA.REPUL>
0

>  <SCORE.INTRA.REPUL.0>
0

>  <SCORE.INTRA.SOLV>
1.17126

>  <SCORE.INTRA.SOLV.lig_0>
-64.6797

>  <SCORE.INTRA.VDW>
5.15694

>  <SCORE.INTRA.VDW.0>
-4.11825

>  <SCORE.INTRA.norm>
0.14117

>  <SCORE.RESTR>
7.16375

>  <SCORE.RESTR.CAVITY>
7.16375

>  <SCORE.RESTR.norm>
0.231089

>  <SCORE.SYSTEM>
0

>  <SCORE.SYSTEM.CONST>
0

>  <SCORE.SYSTEM.DIHEDRAL>
0

>  <SCORE.SYSTEM.SOLV>
0

>  <SCORE.SYSTEM.norm>
0

>  <SCORE.heavy>
31

>  <SCORE.norm>
0.224498

>  <RMSD>
10.860

$$$$
ligand
 OpenBabel11021811493D
libRbt.so/2013.1/901 2013/11/27
 31 33  0  0  0  0  0  0  0  0999 V2000
   -5.7173   15.0515    3.0486 C   0  0  2  0  0  0  0  0  0  0  0  0
   -7.0807   15.3162    3.3654 O   0  0  0  0  0  0  0  0  0  0  0  0
  -11.0749   15.3405    1.9062 C   0  0  2  0  0  0  0  0  0  0  0  0
  -12.1888   15.1359    1.0320 N   0  0  0  0  0  0  0  0  0  0  0  0
  -12.4877   12.5341    2.2048 C   0  0  2  0  0  0  0  0  0  0  0  0
   -5.4168   13.5792    3.5464 C   0  0  2  0  0  0  0  0  0  0  0  0
   -6.3230   12.6599    2.8658 N   0  0  0  0  0  0  0  0  0  0  0  0
  -10.0150   16.2510    1.1596 C   0  0  0  0  0  0  0  0  0  0  0  0
  -13.3518   11.8712    3.3240 C   0  0  2  0  0  0  0  0  0  0  0  0
  -13.7366   12.8732    4.2409 O   0  0  0  0  0  0  0  0  0  0  0  0
   -5.5956   13.4808    5.1139 C   0  0  0  0  0  0  0  0  0  0  0  0
   -8.7862   16.4761    2.1181 C   0  0  2  0  0  0  0  0  0  0  0  0
   -7.7945   17.3178    1.4270 N   0  0  0  0  0  0  0  0  0  0  0  0
  -12.4540   10.7809    4.0232 C   0  0  1  0  0  0  0  0  0  0  0  0
  -13.2269   10.1198    5.1262 N   0  0  0  0  0  0  0  0  0  0  0  0
   -5.0862   14.7850    5.8619 C   0  0  0  0  0  0  0  0  0  0  0  0
   -8.1421   15.0729    2.5076 C   0  0  2  0  0  0  0  0  0  0  0  0
  -12.0513    9.6673    2.9024 C   0  0  1  0  0  0  0  0  0  0  0  0
  -13.1890    9.0594    2.3147 O   0  0  0  0  0  0  0  0  0  0  0  0
   -4.7489   15.9043    5.1684 C   0  0  2  0  0  0  0  0  0  0  0  0
   -4.8295   15.9775    3.7402 O   0  0  0  0  0  0  0  0  0  0  0  0
   -9.2176   14.1862    3.2377 C   0  0  2  0  0  0  0  0  0  0  0  0
   -8.6284   12.9128    3.5782 O   0  0  0  0  0  0  0  0  0  0  0  0
  -11.2462   10.3442    1.7459 C   0  0  0  0  0  0  0  0  0  0  0  0
  -12.0447   11.4948    1.1921 O   0  0  0  0  0  0  0  0  0  0  0  0
   -4.2508   17.1836    5.8436 C   0  0  0  0  0  0  0  0  0  0  0  0
   -3.4936   16.8066    7.0178 O   0  0  0  0  0  0  0  0  0  0  0  0
  -10.4262   13.9536    2.2575 C   0  0  1  0  0  0  0  0  0  0  0  0
  -11.3603   13.1504    2.9079 O   0  0  0  0  0  0  0  0  0  0  0  0
  -11.1625    8.5112    3.4211 C   0  0  0  0  0  0  0  0  0  0  0  0
  -14.4871    9.4510    4.7432 C   0  0  0  0  0  0  0  0  0  0  0  0
  1  2  1  1  0  0  0
  1  6  1  0  0  0  0
  1 21  1  0  0  0  0
  3  4  1  6  0  0  0
  3  8  1  0  0  0  0
  3 28  1  0  0  0  0
  5  9  1  0  0  0  0
  5 25  1  0  0  0  0
  5 29  1  1  0  0  0
  6  7  1  6  0  0  0
  6 11  1  0  0  0  0
  8 12  1  0  0  0  0
  9 10  1  1  0  0  0
  9 14  1  0  0  0  0
 11 16  1  0  0  0  0
 12 13  1  6  0  0  0
 12 17  1  0  0  0  0
 14 15  1  1  0  0  0
 14 18  1  0  0  0  0
 15 31  1  0  0  0  0
 16 20  1  0  0  0  0
 17  2  1  1  0  0  0
 17 22  1  0  0  0  0
 18 19  1  6  0  0  0
 18 24  1  0  0  0  0
 18 30  1  0  0  0  0
 20 21  1  0  0  0  0
 20 26  1  6  0  0  0
 22 23  1  6  0  0  0
 22 28  1  0  0  0  0
 24 25  1  0  0  0  0
 26 27  1  0  0  0  0
 28 29  1  1  0  0  0
M  END
>  <CHROM.1>
-91.19695309,-173.76585981,58.54206787,-114.31982497,33.14892174,72.92075685
-9.34631506,13.44067994,3.34161091,0.41599215,-0.45907840,-0.51908547

>  <Name>
ligand

>  <RI>
0

>  <Rbt.Current_Directory>
/home/itssahil/PROJECTS/Mol_Feturizer/New_Systems/rnas/4GPX

>  <Rbt.Executable>
rbdock ($Id: //depot/dev/client3/rdock/2013.1/src/exe/rbdock.cxx#4 $)

>  <Rbt.Library>
libRbt.so (2013.1, Build901 2013/11/27)

>  <Rbt.Parameter_File>
/export/apps/rDock/src/rDock_2013.1_src/data/scripts/dock_solv.prm

>  <Rbt.Receptor>
prm/blind_docking_20.prm

>  <SCORE>
4.79044

>  <SCORE.INTER>
-6.15468

>  <SCORE.INTER.CONST>
1

>  <SCORE.INTER.POLAR>
0

>  <SCORE.INTER.ROT>
6

>  <SCORE.INTER.SOLV>
26.5984

>  <SCORE.INTER.VDW>
-20.5693

>  <SCORE.INTER.norm>
-0.198538

>  <SCORE.INTRA>
1.61503

>  <SCORE.INTRA.DIHEDRAL>
-6.03205

>  <SCORE.INTRA.DIHEDRAL.0>
20.6841

>  <SCORE.INTRA.POLAR>
0

>  <SCORE.INTRA.POLAR.0>
0

>  <SCORE.INTRA.REPUL>
0

>  <SCORE.INTRA.REPUL.0>
0

>  <SCORE.INTRA.SOLV>
1.19562

>  <SCORE.INTRA.SOLV.lig_0>
-64.6797

>  <SCORE.INTRA.VDW>
4.03324

>  <SCORE.INTRA.VDW.0>
-4.11825

>  <SCORE.INTRA.norm>
0.0520977

>  <SCORE.RESTR>
9.33008

>  <SCORE.RESTR.CAVITY>
9.33008

>  <SCORE.RESTR.norm>
0.30097

>  <SCORE.SYSTEM>
0

>  <SCORE.SYSTEM.CONST>
0

>  <SCORE.SYSTEM.DIHEDRAL>
0

>  <SCORE.SYSTEM.SOLV>
0

>  <SCORE.SYSTEM.norm>
0

>  <SCORE.heavy>
31

>  <SCORE.norm>
0.15453

>  <RMSD>
10.861

$$$$
ligand
 OpenBabel11021811493D
libRbt.so/2013.1/901 2013/11/27
 31 33  0  0  0  0  0  0  0  0999 V2000
   -6.2288   16.0591    4.1945 C   0  0  2  0  0  0  0  0  0  0  0  0
   -6.4232   15.6651    2.8394 O   0  0  0  0  0  0  0  0  0  0  0  0
  -10.6546   15.3582    2.5468 C   0  0  2  0  0  0  0  0  0  0  0  0
  -11.9544   15.1872    1.9739 N   0  0  0  0  0  0  0  0  0  0  0  0
  -10.8263   11.7812    2.1666 C   0  0  2  0  0  0  0  0  0  0  0  0
   -4.7315   16.5604    4.3074 C   0  0  2  0  0  0  0  0  0  0  0  0
   -4.5384   17.6729    3.3832 N   0  0  0  0  0  0  0  0  0  0  0  0
   -9.9579   16.5951    1.8436 C   0  0  0  0  0  0  0  0  0  0  0  0
  -12.2565   12.1070    1.6308 C   0  0  2  0  0  0  0  0  0  0  0  0
  -12.1799   13.2729    0.8387 O   0  0  0  0  0  0  0  0  0  0  0  0
   -3.7303   15.3819    3.9792 C   0  0  0  0  0  0  0  0  0  0  0  0
   -8.5257   16.7846    2.4700 C   0  0  2  0  0  0  0  0  0  0  0  0
   -7.8706   17.9304    1.8160 N   0  0  0  0  0  0  0  0  0  0  0  0
  -13.1839   12.3359    2.8843 C   0  0  1  0  0  0  0  0  0  0  0  0
  -14.5737   12.6737    2.4311 N   0  0  0  0  0  0  0  0  0  0  0  0
   -4.2369   13.9862    4.5405 C   0  0  0  0  0  0  0  0  0  0  0  0
   -7.6646   15.4622    2.2567 C   0  0  2  0  0  0  0  0  0  0  0  0
  -13.2172   10.9513    3.7445 C   0  0  1  0  0  0  0  0  0  0  0  0
  -13.6902    9.8546    2.9810 O   0  0  0  0  0  0  0  0  0  0  0  0
   -5.4918   13.8469    5.0440 C   0  0  2  0  0  0  0  0  0  0  0  0
   -6.4228   14.9339    5.1001 O   0  0  0  0  0  0  0  0  0  0  0  0
   -8.3834   14.2494    2.9557 C   0  0  2  0  0  0  0  0  0  0  0  0
   -7.6014   13.0534    2.7489 O   0  0  0  0  0  0  0  0  0  0  0  0
  -11.7738   10.5871    4.2217 C   0  0  0  0  0  0  0  0  0  0  0  0
  -10.8552   10.5336    3.0295 O   0  0  0  0  0  0  0  0  0  0  0  0
   -6.0243   12.5242    5.5984 C   0  0  0  0  0  0  0  0  0  0  0  0
   -7.3549   12.3177    5.0681 O   0  0  0  0  0  0  0  0  0  0  0  0
   -9.8021   14.0617    2.3019 C   0  0  1  0  0  0  0  0  0  0  0  0
  -10.4183   12.9727    2.9143 O   0  0  0  0  0  0  0  0  0  0  0  0
  -14.0900   10.9974    5.0219 C   0  0  0  0  0  0  0  0  0  0  0  0
  -15.3383   13.6094    3.2808 C   0  0  0  0  0  0  0  0  0  0  0  0
  1  2  1  6  0  0  0
  1  6  1  0  0  0  0
  1 21  1  0  0  0  0
  3  4  1  6  0  0  0
  3  8  1  0  0  0  0
  3 28  1  0  0  0  0
  5  9  1  0  0  0  0
  5 25  1  0  0  0  0
  5 29  1  1  0  0  0
  6  7  1  6  0  0  0
  6 11  1  0  0  0  0
  8 12  1  0  0  0  0
  9 10  1  6  0  0  0
  9 14  1  0  0  0  0
 11 16  1  0  0  0  0
 12 13  1  6  0  0  0
 12 17  1  0  0  0  0
 14 15  1  6  0  0  0
 14 18  1  0  0  0  0
 15 31  1  0  0  0  0
 16 20  1  0  0  0  0
 17  2  1  1  0  0  0
 17 22  1  0  0  0  0
 18 19  1  6  0  0  0
 18 24  1  0  0  0  0
 18 30  1  0  0  0  0
 20 21  1  0  0  0  0
 20 26  1  1  0  0  0
 22 23  1  6  0  0  0
 22 28  1  0  0  0  0
 24 25  1  0  0  0  0
 26 27  1  0  0  0  0
 28 29  1  1  0  0  0
M  END
>  <CHROM.1>
-164.36628122,-86.62344474,-146.64371188,54.62282175,-134.47095374,121.85181768
-9.37395214,13.80332978,3.23641623,0.35396822,-0.30381057,-0.44374740

>  <Name>
ligand

>  <RI>
0

>  <Rbt.Current_Directory>
/home/itssahil/PROJECTS/Mol_Feturizer/New_Systems/rnas/4GPX

>  <Rbt.Executable>
rbdock ($Id: //depot/dev/client3/rdock/2013.1/src/exe/rbdock.cxx#4 $)

>  <Rbt.Library>
libRbt.so (2013.1, Build901 2013/11/27)

>  <Rbt.Parameter_File>
/export/apps/rDock/src/rDock_2013.1_src/data/scripts/dock_solv.prm

>  <Rbt.Receptor>
prm/blind_docking_20.prm

>  <SCORE>
13.8348

>  <SCORE.INTER>
3.16171

>  <SCORE.INTER.CONST>
1

>  <SCORE.INTER.POLAR>
0

>  <SCORE.INTER.ROT>
6

>  <SCORE.INTER.SOLV>
29.1812

>  <SCORE.INTER.VDW>
-15.2192

>  <SCORE.INTER.norm>
0.101991

>  <SCORE.INTRA>
2.5689

>  <SCORE.INTRA.DIHEDRAL>
-6.60281

>  <SCORE.INTRA.DIHEDRAL.0>
20.6841

>  <SCORE.INTRA.POLAR>
0

>  <SCORE.INTRA.POLAR.0>
0

>  <SCORE.INTRA.REPUL>
0

>  <SCORE.INTRA.REPUL.0>
0

>  <SCORE.INTRA.SOLV>
3.83915

>  <SCORE.INTRA.SOLV.lig_0>
-64.6797

>  <SCORE.INTRA.VDW>
3.95073

>  <SCORE.INTRA.VDW.0>
-4.11825

>  <SCORE.INTRA.norm>
0.0828679

>  <SCORE.RESTR>
8.10419

>  <SCORE.RESTR.CAVITY>
8.10419

>  <SCORE.RESTR.norm>
0.261425

>  <SCORE.SYSTEM>
0

>  <SCORE.SYSTEM.CONST>
0

>  <SCORE.SYSTEM.DIHEDRAL>
0

>  <SCORE.SYSTEM.SOLV>
0

>  <SCORE.SYSTEM.norm>
0

>  <SCORE.heavy>
31

>  <SCORE.norm>
0.446284

>  <RMSD>
10.880

$$$$
ligand
 OpenBabel11021811493D
libRbt.so/2013.1/901 2013/11/27
 31 33  0  0  0  0  0  0  0  0999 V2000
   -5.2700   13.9654    4.0831 C   0  0  2  0  0  0  0  0  0  0  0  0
   -6.6397   14.3554    4.1145 O   0  0  0  0  0  0  0  0  0  0  0  0
   -9.6593   16.3336    1.8667 C   0  0  2  0  0  0  0  0  0  0  0  0
  -10.4067   16.8063    0.7420 N   0  0  0  0  0  0  0  0  0  0  0  0
  -11.5882   13.5299    0.8756 C   0  0  2  0  0  0  0  0  0  0  0  0
   -4.9662   13.2747    5.4747 C   0  0  2  0  0  0  0  0  0  0  0  0
   -5.8557   12.1290    5.6337 N   0  0  0  0  0  0  0  0  0  0  0  0
   -8.1776   16.8816    1.7474 C   0  0  0  0  0  0  0  0  0  0  0  0
  -12.9718   13.0891    1.4500 C   0  0  2  0  0  0  0  0  0  0  0  0
  -13.6833   14.2464    1.8334 O   0  0  0  0  0  0  0  0  0  0  0  0
   -5.1672   14.3055    6.6563 C   0  0  0  0  0  0  0  0  0  0  0  0
   -7.3513   16.3609    2.9825 C   0  0  2  0  0  0  0  0  0  0  0  0
   -5.9707   16.8629    2.8742 N   0  0  0  0  0  0  0  0  0  0  0  0
  -12.6878   12.1632    2.6933 C   0  0  1  0  0  0  0  0  0  0  0  0
  -13.9857   11.7217    3.3030 N   0  0  0  0  0  0  0  0  0  0  0  0
   -4.6783   15.7660    6.2722 C   0  0  0  0  0  0  0  0  0  0  0  0
   -7.3586   14.7687    3.0036 C   0  0  2  0  0  0  0  0  0  0  0  0
  -11.8644   10.8570    2.1696 C   0  0  1  0  0  0  0  0  0  0  0  0
  -12.5736   10.1364    1.1760 O   0  0  0  0  0  0  0  0  0  0  0  0
   -4.3389   16.0780    4.9934 C   0  0  2  0  0  0  0  0  0  0  0  0
   -4.3991   15.1235    3.9272 O   0  0  0  0  0  0  0  0  0  0  0  0
   -8.8409   14.2520    3.1125 C   0  0  2  0  0  0  0  0  0  0  0  0
   -8.8388   12.8082    3.1208 O   0  0  0  0  0  0  0  0  0  0  0  0
  -10.5096   11.3038    1.5303 C   0  0  0  0  0  0  0  0  0  0  0  0
  -10.7806   12.3179    0.4504 O   0  0  0  0  0  0  0  0  0  0  0  0
   -3.8600   17.4694    4.5751 C   0  0  0  0  0  0  0  0  0  0  0  0
   -2.6248   17.3165    3.8367 O   0  0  0  0  0  0  0  0  0  0  0  0
   -9.6441   14.7628    1.8598 C   0  0  1  0  0  0  0  0  0  0  0  0
  -10.9476   14.2810    1.9576 O   0  0  0  0  0  0  0  0  0  0  0  0
  -11.4992    9.8314    3.2699 C   0  0  0  0  0  0  0  0  0  0  0  0
  -14.0453   11.6840    4.7785 C   0  0  0  0  0  0  0  0  0  0  0  0
  1  2  1  1  0  0  0
  1  6  1  0  0  0  0
  1 21  1  0  0  0  0
  3  4  1  6  0  0  0
  3  8  1  0  0  0  0
  3 28  1  0  0  0  0
  5  9  1  0  0  0  0
  5 25  1  0  0  0  0
  5 29  1  1  0  0  0
  6  7  1  1  0  0  0
  6 11  1  0  0  0  0
  8 12  1  0  0  0  0
  9 10  1  1  0  0  0
  9 14  1  0  0  0  0
 11 16  1  0  0  0  0
 12 13  1  6  0  0  0
 12 17  1  0  0  0  0
 14 15  1  6  0  0  0
 14 18  1  0  0  0  0
 15 31  1  0  0  0  0
 16 20  1  0  0  0  0
 17  2  1  1  0  0  0
 17 22  1  0  0  0  0
 18 19  1  6  0  0  0
 18 24  1  0  0  0  0
 18 30  1  0  0  0  0
 20 21  1  0  0  0  0
 20 26  1  1  0  0  0
 22 23  1  6  0  0  0
 22 28  1  0  0  0  0
 24 25  1  0  0  0  0
 26 27  1  0  0  0  0
 28 29  1  1  0  0  0
M  END
>  <CHROM.1>
-167.57131856,175.33742191,-139.98172846,-97.05514595,128.81049667,114.64749216
-8.75782645,14.00757415,3.10115371,-0.22125918,0.46292353,2.61672766

>  <Name>
ligand

>  <RI>
0

>  <Rbt.Current_Directory>
/home/itssahil/PROJECTS/Mol_Feturizer/New_Systems/rnas/4GPX

>  <Rbt.Executable>
rbdock ($Id: //depot/dev/client3/rdock/2013.1/src/exe/rbdock.cxx#4 $)

>  <Rbt.Library>
libRbt.so (2013.1, Build901 2013/11/27)

>  <Rbt.Parameter_File>
/export/apps/rDock/src/rDock_2013.1_src/data/scripts/dock_solv.prm

>  <Rbt.Receptor>
prm/blind_docking_60.prm

>  <SCORE>
2.40637

>  <SCORE.INTER>
-8.57157

>  <SCORE.INTER.CONST>
1

>  <SCORE.INTER.POLAR>
0

>  <SCORE.INTER.ROT>
6

>  <SCORE.INTER.SOLV>
25.9742

>  <SCORE.INTER.VDW>
-21.9724

>  <SCORE.INTER.norm>
-0.276502

>  <SCORE.INTRA>
-0.168645

>  <SCORE.INTRA.DIHEDRAL>
-5.20347

>  <SCORE.INTRA.DIHEDRAL.0>
20.6841

>  <SCORE.INTRA.POLAR>
0

>  <SCORE.INTRA.POLAR.0>
0

>  <SCORE.INTRA.REPUL>
0

>  <SCORE.INTRA.REPUL.0>
0

>  <SCORE.INTRA.SOLV>
2.01613

>  <SCORE.INTRA.SOLV.lig_0>
-64.6797

>  <SCORE.INTRA.VDW>
1.42503

>  <SCORE.INTRA.VDW.0>
-4.11825

>  <SCORE.INTRA.norm>
-0.00544016

>  <SCORE.RESTR>
11.1466

>  <SCORE.RESTR.CAVITY>
11.1466

>  <SCORE.RESTR.norm>
0.359567

>  <SCORE.SYSTEM>
0

>  <SCORE.SYSTEM.CONST>
0

>  <SCORE.SYSTEM.DIHEDRAL>
0

>  <SCORE.SYSTEM.SOLV>
0

>  <SCORE.SYSTEM.norm>
0

>  <SCORE.heavy>
31

>  <SCORE.norm>
0.0776248

>  <RMSD>
10.899

$$$$
ligand
 OpenBabel11021811493D
libRbt.so/2013.1/901 2013/11/27
 31 33  0  0  0  0  0  0  0  0999 V2000
   -9.7916   17.9938    1.0387 C   0  0  2  0  0  0  0  0  0  0  0  0
   -8.5531   17.5448    1.5808 O   0  0  0  0  0  0  0  0  0  0  0  0
   -7.4019   13.7146    3.0258 C   0  0  2  0  0  0  0  0  0  0  0  0
   -7.2243   12.6119    3.9199 N   0  0  0  0  0  0  0  0  0  0  0  0
  -10.9087   12.9680    1.7258 C   0  0  2  0  0  0  0  0  0  0  0  0
   -9.5207   19.4268    0.4229 C   0  0  2  0  0  0  0  0  0  0  0  0
   -8.4879   19.3095   -0.6013 N   0  0  0  0  0  0  0  0  0  0  0  0
   -6.6781   14.9807    3.6447 C   0  0  0  0  0  0  0  0  0  0  0  0
  -11.8886   13.1014    2.9343 C   0  0  2  0  0  0  0  0  0  0  0  0
  -11.5340   14.2532    3.6694 O   0  0  0  0  0  0  0  0  0  0  0  0
   -9.0729   20.4363    1.5540 C   0  0  0  0  0  0  0  0  0  0  0  0
   -6.8738   16.1972    2.6642 C   0  0  2  0  0  0  0  0  0  0  0  0
   -6.2074   17.3792    3.2372 N   0  0  0  0  0  0  0  0  0  0  0  0
  -11.7292   11.8012    3.8106 C   0  0  1  0  0  0  0  0  0  0  0  0
  -12.6357   11.8802    5.0035 N   0  0  0  0  0  0  0  0  0  0  0  0
   -9.8478   20.1957    2.9183 C   0  0  0  0  0  0  0  0  0  0  0  0
   -8.4273   16.4836    2.4638 C   0  0  2  0  0  0  0  0  0  0  0  0
  -12.1528   10.5217    2.8932 C   0  0  1  0  0  0  0  0  0  0  0  0
  -13.4808   10.6237    2.4078 O   0  0  0  0  0  0  0  0  0  0  0  0
  -10.6322   19.0997    3.0952 C   0  0  2  0  0  0  0  0  0  0  0  0
  -10.8075   18.1073    2.0774 O   0  0  0  0  0  0  0  0  0  0  0  0
   -9.1224   15.2084    1.8581 C   0  0  2  0  0  0  0  0  0  0  0  0
  -10.5316   15.4733    1.6892 O   0  0  0  0  0  0  0  0  0  0  0  0
  -11.2160   10.4290    1.6451 C   0  0  0  0  0  0  0  0  0  0  0  0
  -11.2466   11.7390    0.9028 O   0  0  0  0  0  0  0  0  0  0  0  0
  -11.4002   18.8257    4.3896 C   0  0  0  0  0  0  0  0  0  0  0  0
  -12.8106   19.0102    4.1231 O   0  0  0  0  0  0  0  0  0  0  0  0
   -8.9358   14.0106    2.8610 C   0  0  1  0  0  0  0  0  0  0  0  0
   -9.5735   12.8948    2.3234 O   0  0  0  0  0  0  0  0  0  0  0  0
  -12.0557    9.1494    3.6024 C   0  0  0  0  0  0  0  0  0  0  0  0
  -14.0818   12.0054    4.7291 C   0  0  0  0  0  0  0  0  0  0  0  0
  1  2  1  1  0  0  0
  1  6  1  0  0  0  0
  1 21  1  0  0  0  0
  3  4  1  1  0  0  0
  3  8  1  0  0  0  0
  3 28  1  0  0  0  0
  5  9  1  0  0  0  0
  5 25  1  0  0  0  0
  5 29  1  1  0  0  0
  6  7  1  6  0  0  0
  6 11  1  0  0  0  0
  8 12  1  0  0  0  0
  9 10  1  1  0  0  0
  9 14  1  0  0  0  0
 11 16  1  0  0  0  0
 12 13  1  1  0  0  0
 12 17  1  0  0  0  0
 14 15  1  1  0  0  0
 14 18  1  0  0  0  0
 15 31  1  0  0  0  0
 16 20  1  0  0  0  0
 17  2  1  6  0  0  0
 17 22  1  0  0  0  0
 18 19  1  6  0  0  0
 18 24  1  0  0  0  0
 18 30  1  0  0  0  0
 20 21  1  0  0  0  0
 20 26  1  6  0  0  0
 22 23  1  1  0  0  0
 22 28  1  0  0  0  0
 24 25  1  0  0  0  0
 26 27  1  0  0  0  0
 28 29  1  6  0  0  0
M  END
>  <CHROM.1>
164.87792626,-74.41466071,59.77568428,172.58657310,109.52906719,-163.35893968
-10.20789503,15.06297907,2.63511648,1.23222166,0.19620556,-0.06914994

>  <Name>
ligand

>  <RI>
0

>  <Rbt.Current_Directory>
/home/itssahil/PROJECTS/Mol_Feturizer/New_Systems/rnas/4GPX

>  <Rbt.Executable>
rbdock ($Id: //depot/dev/client3/rdock/2013.1/src/exe/rbdock.cxx#4 $)

>  <Rbt.Library>
libRbt.so (2013.1, Build901 2013/11/27)

>  <Rbt.Parameter_File>
/export/apps/rDock/src/rDock_2013.1_src/data/scripts/dock_solv.prm

>  <Rbt.Receptor>
prm/blind_docking_100.prm

>  <SCORE>
0.245382

>  <SCORE.INTER>
-1.52053

>  <SCORE.INTER.CONST>
1

>  <SCORE.INTER.POLAR>
0

>  <SCORE.INTER.ROT>
6

>  <SCORE.INTER.SOLV>
31.1666

>  <SCORE.INTER.VDW>
-19.0025

>  <SCORE.INTER.norm>
-0.0490495

>  <SCORE.INTRA>
-1.84516

>  <SCORE.INTRA.DIHEDRAL>
-15.2522

>  <SCORE.INTRA.DIHEDRAL.0>
20.6841

>  <SCORE.INTRA.POLAR>
0

>  <SCORE.INTRA.POLAR.0>
0

>  <SCORE.INTRA.REPUL>
0.0177492

>  <SCORE.INTRA.REPUL.0>
0

>  <SCORE.INTRA.SOLV>
-2.55369

>  <SCORE.INTRA.SOLV.lig_0>
-64.6797

>  <SCORE.INTRA.VDW>
6.96906

>  <SCORE.INTRA.VDW.0>
-4.11825

>  <SCORE.INTRA.norm>
-0.0595212

>  <SCORE.RESTR>
3.61107

>  <SCORE.RESTR.CAVITY>
3.61107

>  <SCORE.RESTR.norm>
0.116486

>  <SCORE.SYSTEM>
0

>  <SCORE.SYSTEM.CONST>
0

>  <SCORE.SYSTEM.DIHEDRAL>
0

>  <SCORE.SYSTEM.SOLV>
0

>  <SCORE.SYSTEM.norm>
0

>  <SCORE.heavy>
31

>  <SCORE.norm>
0.00791555

>  <RMSD>
10.905

$$$$
ligand
 OpenBabel11021811493D
libRbt.so/2013.1/901 2013/11/27
 31 33  0  0  0  0  0  0  0  0999 V2000
   -5.4869   14.3670    4.0609 C   0  0  2  0  0  0  0  0  0  0  0  0
   -6.6228   15.2150    3.9197 O   0  0  0  0  0  0  0  0  0  0  0  0
  -10.1158   15.7524    1.5546 C   0  0  2  0  0  0  0  0  0  0  0  0
  -10.9571   15.8554    0.4019 N   0  0  0  0  0  0  0  0  0  0  0  0
  -10.2577   12.0641    2.3484 C   0  0  2  0  0  0  0  0  0  0  0  0
   -5.4416   13.9237    5.5799 C   0  0  2  0  0  0  0  0  0  0  0  0
   -6.6838   13.2295    5.9031 N   0  0  0  0  0  0  0  0  0  0  0  0
   -8.9763   16.8471    1.4404 C   0  0  0  0  0  0  0  0  0  0  0  0
  -11.3966   11.1421    1.8087 C   0  0  2  0  0  0  0  0  0  0  0  0
  -11.2973   11.0898    0.4015 O   0  0  0  0  0  0  0  0  0  0  0  0
   -5.2466   15.1831    6.5152 C   0  0  0  0  0  0  0  0  0  0  0  0
   -8.0468   16.7349    2.7065 C   0  0  2  0  0  0  0  0  0  0  0  0
   -6.9817   17.7471    2.6032 N   0  0  0  0  0  0  0  0  0  0  0  0
  -12.7662   11.7817    2.2545 C   0  0  1  0  0  0  0  0  0  0  0  0
  -13.9044   10.9469    1.7458 N   0  0  0  0  0  0  0  0  0  0  0  0
   -4.2661   16.2587    5.8816 C   0  0  0  0  0  0  0  0  0  0  0  0
   -7.4145   15.2755    2.7834 C   0  0  2  0  0  0  0  0  0  0  0  0
  -12.8015   11.8085    3.8844 C   0  0  1  0  0  0  0  0  0  0  0  0
  -12.6605   10.5151    4.4471 O   0  0  0  0  0  0  0  0  0  0  0  0
   -3.8476   16.1525    4.5927 C   0  0  2  0  0  0  0  0  0  0  0  0
   -4.2577   15.0797    3.7370 O   0  0  0  0  0  0  0  0  0  0  0  0
   -8.5668   14.2088    2.8860 C   0  0  2  0  0  0  0  0  0  0  0  0
   -7.9851   12.8887    2.9452 O   0  0  0  0  0  0  0  0  0  0  0  0
  -11.6188   12.6745    4.4275 C   0  0  0  0  0  0  0  0  0  0  0  0
  -10.3230   12.1563    3.8615 O   0  0  0  0  0  0  0  0  0  0  0  0
   -2.9017   17.1616    3.9388 C   0  0  0  0  0  0  0  0  0  0  0  0
   -3.2041   18.4724    4.4722 O   0  0  0  0  0  0  0  0  0  0  0  0
   -9.4707   14.3209    1.6032 C   0  0  1  0  0  0  0  0  0  0  0  0
  -10.4730   13.3579    1.6966 O   0  0  0  0  0  0  0  0  0  0  0  0
  -14.0883   12.4099    4.4995 C   0  0  0  0  0  0  0  0  0  0  0  0
  -14.2102   11.0519    0.3044 C   0  0  0  0  0  0  0  0  0  0  0  0
  1  2  1  1  0  0  0
  1  6  1  0  0  0  0
  1 21  1  0  0  0  0
  3  4  1  6  0  0  0
  3  8  1  0  0  0  0
  3 28  1  0  0  0  0
  5  9  1  0  0  0  0
  5 25  1  0  0  0  0
  5 29  1  6  0  0  0
  6  7  1  1  0  0  0
  6 11  1  0  0  0  0
  8 12  1  0  0  0  0
  9 10  1  6  0  0  0
  9 14  1  0  0  0  0
 11 16  1  0  0  0  0
 12 13  1  6  0  0  0
 12 17  1  0  0  0  0
 14 15  1  1  0  0  0
 14 18  1  0  0  0  0
 15 31  1  0  0  0  0
 16 20  1  0  0  0  0
 17  2  1  1  0  0  0
 17 22  1  0  0  0  0
 18 19  1  1  0  0  0
 18 24  1  0  0  0  0
 18 30  1  0  0  0  0
 20 21  1  0  0  0  0
 20 26  1  1  0  0  0
 22 23  1  6  0  0  0
 22 28  1  0  0  0  0
 24 25  1  0  0  0  0
 26 27  1  0  0  0  0
 28 29  1  1  0  0  0
M  END
>  <CHROM.1>
-145.74081270,-160.78621696,-74.93652287,-151.96643969,-34.95591906,-151.47182114
-8.78224393,14.03451630,3.19985497,-0.17294754,0.53869224,2.33865995

>  <Name>
ligand

>  <RI>
0

>  <Rbt.Current_Directory>
/home/itssahil/PROJECTS/Mol_Feturizer/New_Systems/rnas/4GPX

>  <Rbt.Executable>
rbdock ($Id: //depot/dev/client3/rdock/2013.1/src/exe/rbdock.cxx#4 $)

>  <Rbt.Library>
libRbt.so (2013.1, Build901 2013/11/27)

>  <Rbt.Parameter_File>
/export/apps/rDock/src/rDock_2013.1_src/data/scripts/dock_solv.prm

>  <Rbt.Receptor>
prm/blind_docking_60.prm

>  <SCORE>
7.54097

>  <SCORE.INTER>
-4.59964

>  <SCORE.INTER.CONST>
1

>  <SCORE.INTER.POLAR>
0

>  <SCORE.INTER.ROT>
6

>  <SCORE.INTER.SOLV>
28.8526

>  <SCORE.INTER.VDW>
-20.284

>  <SCORE.INTER.norm>
-0.148376

>  <SCORE.INTRA>
2.61983

>  <SCORE.INTRA.DIHEDRAL>
-4.99981

>  <SCORE.INTRA.DIHEDRAL.0>
20.6841

>  <SCORE.INTRA.POLAR>
0

>  <SCORE.INTRA.POLAR.0>
0

>  <SCORE.INTRA.REPUL>
0.0920662

>  <SCORE.INTRA.REPUL.0>
0

>  <SCORE.INTRA.SOLV>
-1.05538

>  <SCORE.INTRA.SOLV.lig_0>
-64.6797

>  <SCORE.INTRA.VDW>
5.18709

>  <SCORE.INTRA.VDW.0>
-4.11825

>  <SCORE.INTRA.norm>
0.0845105

>  <SCORE.RESTR>
9.52079

>  <SCORE.RESTR.CAVITY>
9.52079

>  <SCORE.RESTR.norm>
0.307122

>  <SCORE.SYSTEM>
0

>  <SCORE.SYSTEM.CONST>
0

>  <SCORE.SYSTEM.DIHEDRAL>
0

>  <SCORE.SYSTEM.SOLV>
0

>  <SCORE.SYSTEM.norm>
0

>  <SCORE.heavy>
31

>  <SCORE.norm>
0.243257

>  <RMSD>
10.908

$$$$
ligand
 OpenBabel11021811493D
libRbt.so/2013.1/901 2013/11/27
 31 33  0  0  0  0  0  0  0  0999 V2000
   -5.0825   13.9143    3.9872 C   0  0  2  0  0  0  0  0  0  0  0  0
   -6.3263   14.6050    4.0584 O   0  0  0  0  0  0  0  0  0  0  0  0
   -9.6930   15.9788    1.8534 C   0  0  2  0  0  0  0  0  0  0  0  0
  -10.5064   16.3640    0.7412 N   0  0  0  0  0  0  0  0  0  0  0  0
  -10.3538   12.2320    1.9566 C   0  0  2  0  0  0  0  0  0  0  0  0
   -4.8281   13.2955    5.4218 C   0  0  2  0  0  0  0  0  0  0  0  0
   -5.9318   12.3985    5.7481 N   0  0  0  0  0  0  0  0  0  0  0  0
   -8.4013   16.8960    1.8684 C   0  0  0  0  0  0  0  0  0  0  0  0
  -11.6169   11.6332    1.2604 C   0  0  2  0  0  0  0  0  0  0  0  0
  -11.5547   11.9417   -0.1157 O   0  0  0  0  0  0  0  0  0  0  0  0
   -4.7034   14.4429    6.5020 C   0  0  0  0  0  0  0  0  0  0  0  0
   -7.5022   16.4730    3.0900 C   0  0  2  0  0  0  0  0  0  0  0  0
   -6.2966   17.3190    3.1060 N   0  0  0  0  0  0  0  0  0  0  0  0
  -12.8789   12.2974    1.9313 C   0  0  1  0  0  0  0  0  0  0  0  0
  -14.1290   11.7739    1.2876 N   0  0  0  0  0  0  0  0  0  0  0  0
   -3.9380   15.7164    5.9433 C   0  0  0  0  0  0  0  0  0  0  0  0
   -7.0972   14.9389    2.9556 C   0  0  2  0  0  0  0  0  0  0  0  0
  -12.8765   11.8979    3.5120 C   0  0  1  0  0  0  0  0  0  0  0  0
  -12.8985   10.4948    3.7126 O   0  0  0  0  0  0  0  0  0  0  0  0
   -3.6411   15.8321    4.6219 C   0  0  2  0  0  0  0  0  0  0  0  0
   -3.9939   14.8277    3.6637 O   0  0  0  0  0  0  0  0  0  0  0  0
   -8.3973   14.0526    2.9332 C   0  0  2  0  0  0  0  0  0  0  0  0
   -8.0213   12.6649    2.8011 O   0  0  0  0  0  0  0  0  0  0  0  0
  -11.5774   12.4367    4.1945 C   0  0  0  0  0  0  0  0  0  0  0  0
  -10.3748   11.9295    3.4432 O   0  0  0  0  0  0  0  0  0  0  0  0
   -2.9033   17.0379    4.0368 C   0  0  0  0  0  0  0  0  0  0  0  0
   -3.8912   17.9741    3.5449 O   0  0  0  0  0  0  0  0  0  0  0  0
   -9.2710   14.4740    1.6945 C   0  0  1  0  0  0  0  0  0  0  0  0
  -10.4072   13.6681    1.6742 O   0  0  0  0  0  0  0  0  0  0  0  0
  -14.0580   12.4706    4.3317 C   0  0  0  0  0  0  0  0  0  0  0  0
  -14.1743   10.3234    1.0116 C   0  0  0  0  0  0  0  0  0  0  0  0
  1  2  1  1  0  0  0
  1  6  1  0  0  0  0
  1 21  1  0  0  0  0
  3  4  1  6  0  0  0
  3  8  1  0  0  0  0
  3 28  1  0  0  0  0
  5  9  1  0  0  0  0
  5 25  1  0  0  0  0
  5 29  1  1  0  0  0
  6  7  1  1  0  0  0
  6 11  1  0  0  0  0
  8 12  1  0  0  0  0
  9 10  1  6  0  0  0
  9 14  1  0  0  0  0
 11 16  1  0  0  0  0
 12 13  1  6  0  0  0
 12 17  1  0  0  0  0
 14 15  1  6  0  0  0
 14 18  1  0  0  0  0
 15 31  1  0  0  0  0
 16 20  1  0  0  0  0
 17  2  1  1  0  0  0
 17 22  1  0  0  0  0
 18 19  1  1  0  0  0
 18 24  1  0  0  0  0
 18 30  1  0  0  0  0
 20 21  1  0  0  0  0
 20 26  1  1  0  0  0
 22 23  1  6  0  0  0
 22 28  1  0  0  0  0
 24 25  1  0  0  0  0
 26 27  1  0  0  0  0
 28 29  1  1  0  0  0
M  END
>  <CHROM.1>
-159.91304361,-156.58412678,42.52642401,-131.46370972,-94.84985832,-160.40082971
-8.63248889,13.92344050,3.11407558,-0.18726984,0.46950330,2.48950689

>  <Name>
ligand

>  <RI>
0

>  <Rbt.Current_Directory>
/home/itssahil/PROJECTS/Mol_Feturizer/New_Systems/rnas/4GPX

>  <Rbt.Executable>
rbdock ($Id: //depot/dev/client3/rdock/2013.1/src/exe/rbdock.cxx#4 $)

>  <Rbt.Library>
libRbt.so (2013.1, Build901 2013/11/27)

>  <Rbt.Parameter_File>
/export/apps/rDock/src/rDock_2013.1_src/data/scripts/dock_solv.prm

>  <Rbt.Receptor>
prm/blind_docking_60.prm

>  <SCORE>
6.67719

>  <SCORE.INTER>
-6.95585

>  <SCORE.INTER.CONST>
1

>  <SCORE.INTER.POLAR>
0

>  <SCORE.INTER.ROT>
6

>  <SCORE.INTER.SOLV>
28.1279

>  <SCORE.INTER.VDW>
-21.6132

>  <SCORE.INTER.norm>
-0.224382

>  <SCORE.INTRA>
3.84388

>  <SCORE.INTRA.DIHEDRAL>
-5.54387

>  <SCORE.INTRA.DIHEDRAL.0>
20.6841

>  <SCORE.INTRA.POLAR>
0

>  <SCORE.INTRA.POLAR.0>
0

>  <SCORE.INTRA.REPUL>
0.0899138

>  <SCORE.INTRA.REPUL.0>
0

>  <SCORE.INTRA.SOLV>
1.30747

>  <SCORE.INTRA.SOLV.lig_0>
-64.6797

>  <SCORE.INTRA.VDW>
5.5125

>  <SCORE.INTRA.VDW.0>
-4.11825

>  <SCORE.INTRA.norm>
0.123996

>  <SCORE.RESTR>
9.78916

>  <SCORE.RESTR.CAVITY>
9.78916

>  <SCORE.RESTR.norm>
0.315779

>  <SCORE.SYSTEM>
0

>  <SCORE.SYSTEM.CONST>
0

>  <SCORE.SYSTEM.DIHEDRAL>
0

>  <SCORE.SYSTEM.SOLV>
0

>  <SCORE.SYSTEM.norm>
0

>  <SCORE.heavy>
31

>  <SCORE.norm>
0.215393

>  <RMSD>
10.924

$$$$
ligand
 OpenBabel11021811493D
libRbt.so/2013.1/901 2013/11/27
 31 33  0  0  0  0  0  0  0  0999 V2000
   -6.4003   15.6912    4.4854 C   0  0  2  0  0  0  0  0  0  0  0  0
   -6.5719   15.0002    3.2515 O   0  0  0  0  0  0  0  0  0  0  0  0
  -10.5123   16.0246    2.0237 C   0  0  2  0  0  0  0  0  0  0  0  0
  -11.6402   16.2499    1.1729 N   0  0  0  0  0  0  0  0  0  0  0  0
  -12.0473   13.0650    1.4035 C   0  0  2  0  0  0  0  0  0  0  0  0
   -4.9994   16.4235    4.4005 C   0  0  2  0  0  0  0  0  0  0  0  0
   -5.0156   17.3363    3.2622 N   0  0  0  0  0  0  0  0  0  0  0  0
   -9.3264   16.9560    1.5377 C   0  0  0  0  0  0  0  0  0  0  0  0
  -13.3780   12.8845    2.2005 C   0  0  2  0  0  0  0  0  0  0  0  0
  -13.8058   14.1540    2.6454 O   0  0  0  0  0  0  0  0  0  0  0  0
   -3.8337   15.3663    4.2516 C   0  0  0  0  0  0  0  0  0  0  0  0
   -8.0822   16.7087    2.4706 C   0  0  2  0  0  0  0  0  0  0  0  0
   -6.9742   17.5682    2.0200 N   0  0  0  0  0  0  0  0  0  0  0  0
  -13.0675   11.9344    3.4190 C   0  0  1  0  0  0  0  0  0  0  0  0
  -14.3094   11.7382    4.2376 N   0  0  0  0  0  0  0  0  0  0  0  0
   -4.0931   14.0575    5.1116 C   0  0  0  0  0  0  0  0  0  0  0  0
   -7.6536   15.1765    2.4028 C   0  0  2  0  0  0  0  0  0  0  0  0
  -12.5794   10.4970    2.8239 C   0  0  1  0  0  0  0  0  0  0  0  0
  -13.5522    9.9059    1.9793 O   0  0  0  0  0  0  0  0  0  0  0  0
   -5.2932   13.8392    5.7114 C   0  0  2  0  0  0  0  0  0  0  0  0
   -6.3836   14.7622    5.6081 O   0  0  0  0  0  0  0  0  0  0  0  0
   -8.8514   14.2748    2.8807 C   0  0  2  0  0  0  0  0  0  0  0  0
   -8.4577   12.8877    2.8066 O   0  0  0  0  0  0  0  0  0  0  0  0
  -11.2858   10.6881    1.9670 C   0  0  0  0  0  0  0  0  0  0  0  0
  -11.5424   11.7241    0.9046 O   0  0  0  0  0  0  0  0  0  0  0  0
   -5.5900   12.5957    6.5517 C   0  0  0  0  0  0  0  0  0  0  0  0
   -6.2875   13.0172    7.7476 O   0  0  0  0  0  0  0  0  0  0  0  0
  -10.0765   14.5187    1.9242 C   0  0  1  0  0  0  0  0  0  0  0  0
  -11.1217   13.6994    2.3449 O   0  0  0  0  0  0  0  0  0  0  0  0
  -12.2301    9.4330    3.8923 C   0  0  0  0  0  0  0  0  0  0  0  0
  -14.1218   11.2489    5.6187 C   0  0  0  0  0  0  0  0  0  0  0  0
  1  2  1  6  0  0  0
  1  6  1  0  0  0  0
  1 21  1  0  0  0  0
  3  4  1  6  0  0  0
  3  8  1  0  0  0  0
  3 28  1  0  0  0  0
  5  9  1  0  0  0  0
  5 25  1  0  0  0  0
  5 29  1  1  0  0  0
  6  7  1  6  0  0  0
  6 11  1  0  0  0  0
  8 12  1  0  0  0  0
  9 10  1  1  0  0  0
  9 14  1  0  0  0  0
 11 16  1  0  0  0  0
 12 13  1  6  0  0  0
 12 17  1  0  0  0  0
 14 15  1  6  0  0  0
 14 18  1  0  0  0  0
 15 31  1  0  0  0  0
 16 20  1  0  0  0  0
 17  2  1  1  0  0  0
 17 22  1  0  0  0  0
 18 19  1  6  0  0  0
 18 24  1  0  0  0  0
 18 30  1  0  0  0  0
 20 21  1  0  0  0  0
 20 26  1  1  0  0  0
 22 23  1  6  0  0  0
 22 28  1  0  0  0  0
 24 25  1  0  0  0  0
 26 27  1  0  0  0  0
 28 29  1  1  0  0  0
M  END
>  <CHROM.1>
-123.61812509,-152.27310975,-161.13733947,35.14547267,136.07574724,97.27012969
-9.34710015,13.80724262,3.34396772,-0.22744688,0.43981006,2.49535497

>  <Name>
ligand

>  <RI>
0

>  <Rbt.Current_Directory>
/home/itssahil/PROJECTS/Mol_Feturizer/New_Systems/rnas/4GPX

>  <Rbt.Executable>
rbdock ($Id: //depot/dev/client3/rdock/2013.1/src/exe/rbdock.cxx#4 $)

>  <Rbt.Library>
libRbt.so (2013.1, Build901 2013/11/27)

>  <Rbt.Parameter_File>
/export/apps/rDock/src/rDock_2013.1_src/data/scripts/dock_solv.prm

>  <Rbt.Receptor>
prm/blind_docking_100.prm

>  <SCORE>
13.8191

>  <SCORE.INTER>
2.92208

>  <SCORE.INTER.CONST>
1

>  <SCORE.INTER.POLAR>
0

>  <SCORE.INTER.ROT>
6

>  <SCORE.INTER.SOLV>
27.6085

>  <SCORE.INTER.VDW>
-14.8548

>  <SCORE.INTER.norm>
0.0942607

>  <SCORE.INTRA>
5.17981

>  <SCORE.INTRA.DIHEDRAL>
-0.533829

>  <SCORE.INTRA.DIHEDRAL.0>
20.6841

>  <SCORE.INTRA.POLAR>
0

>  <SCORE.INTRA.POLAR.0>
0

>  <SCORE.INTRA.REPUL>
0

>  <SCORE.INTRA.REPUL.0>
0

>  <SCORE.INTRA.SOLV>
2.8613

>  <SCORE.INTRA.SOLV.lig_0>
-64.6797

>  <SCORE.INTRA.VDW>
4.01608

>  <SCORE.INTRA.VDW.0>
-4.11825

>  <SCORE.INTRA.norm>
0.167091

>  <SCORE.RESTR>
5.7172

>  <SCORE.RESTR.CAVITY>
5.7172

>  <SCORE.RESTR.norm>
0.184426

>  <SCORE.SYSTEM>
0

>  <SCORE.SYSTEM.CONST>
0

>  <SCORE.SYSTEM.DIHEDRAL>
0

>  <SCORE.SYSTEM.SOLV>
0

>  <SCORE.SYSTEM.norm>
0

>  <SCORE.heavy>
31

>  <SCORE.norm>
0.445777

>  <RMSD>
10.948

$$$$
ligand
 OpenBabel11021811493D
libRbt.so/2013.1/901 2013/11/27
 31 33  0  0  0  0  0  0  0  0999 V2000
   -6.6170   16.2504    4.0052 C   0  0  2  0  0  0  0  0  0  0  0  0
   -6.7766   16.0556    2.6031 O   0  0  0  0  0  0  0  0  0  0  0  0
  -10.9977   16.1639    2.0987 C   0  0  2  0  0  0  0  0  0  0  0  0
  -12.2744   16.2242    1.4559 N   0  0  0  0  0  0  0  0  0  0  0  0
  -10.8007   13.0778    3.2508 C   0  0  2  0  0  0  0  0  0  0  0  0
   -5.0716   16.4861    4.2542 C   0  0  2  0  0  0  0  0  0  0  0  0
   -4.6462   17.6540    3.4898 N   0  0  0  0  0  0  0  0  0  0  0  0
  -10.1775   17.4601    1.7024 C   0  0  0  0  0  0  0  0  0  0  0  0
  -11.1587   11.5814    2.9843 C   0  0  2  0  0  0  0  0  0  0  0  0
  -10.2895   11.0866    1.9882 O   0  0  0  0  0  0  0  0  0  0  0  0
   -4.2442   15.2084    3.8280 C   0  0  0  0  0  0  0  0  0  0  0  0
   -8.7704   17.3958    2.4062 C   0  0  2  0  0  0  0  0  0  0  0  0
   -8.0008   18.5961    2.0368 N   0  0  0  0  0  0  0  0  0  0  0  0
  -12.6571   11.5391    2.4978 C   0  0  1  0  0  0  0  0  0  0  0  0
  -13.0549   10.1223    2.2054 N   0  0  0  0  0  0  0  0  0  0  0  0
   -4.9974   13.8566    4.1815 C   0  0  0  0  0  0  0  0  0  0  0  0
   -7.9969   16.0821    1.9460 C   0  0  2  0  0  0  0  0  0  0  0  0
  -13.5919   12.1266    3.6975 C   0  0  1  0  0  0  0  0  0  0  0  0
  -13.4483   11.3913    4.9009 O   0  0  0  0  0  0  0  0  0  0  0  0
   -6.2903   13.8636    4.6011 C   0  0  2  0  0  0  0  0  0  0  0  0
   -7.0440   15.0725    4.7496 O   0  0  0  0  0  0  0  0  0  0  0  0
   -8.8371   14.8121    2.3425 C   0  0  2  0  0  0  0  0  0  0  0  0
   -8.1336   13.6268    1.9129 O   0  0  0  0  0  0  0  0  0  0  0  0
  -13.1862   13.6030    4.0130 C   0  0  0  0  0  0  0  0  0  0  0  0
  -11.7120   13.6591    4.3155 O   0  0  0  0  0  0  0  0  0  0  0  0
   -7.0574   12.5883    4.9558 C   0  0  0  0  0  0  0  0  0  0  0  0
   -8.3746   12.6765    4.3630 O   0  0  0  0  0  0  0  0  0  0  0  0
  -10.2292   14.8829    1.6128 C   0  0  1  0  0  0  0  0  0  0  0  0
  -10.9538   13.7434    1.9552 O   0  0  0  0  0  0  0  0  0  0  0  0
  -15.1081   12.1577    3.3878 C   0  0  0  0  0  0  0  0  0  0  0  0
  -12.5192    9.5267    0.9643 C   0  0  0  0  0  0  0  0  0  0  0  0
  1  2  1  6  0  0  0
  1  6  1  0  0  0  0
  1 21  1  0  0  0  0
  3  4  1  6  0  0  0
  3  8  1  0  0  0  0
  3 28  1  0  0  0  0
  5  9  1  0  0  0  0
  5 25  1  0  0  0  0
  5 29  1  6  0  0  0
  6  7  1  6  0  0  0
  6 11  1  0  0  0  0
  8 12  1  0  0  0  0
  9 10  1  6  0  0  0
  9 14  1  0  0  0  0
 11 16  1  0  0  0  0
 12 13  1  6  0  0  0
 12 17  1  0  0  0  0
 14 15  1  1  0  0  0
 14 18  1  0  0  0  0
 15 31  1  0  0  0  0
 16 20  1  0  0  0  0
 17  2  1  1  0  0  0
 17 22  1  0  0  0  0
 18 19  1  1  0  0  0
 18 24  1  0  0  0  0
 18 30  1  0  0  0  0
 20 21  1  0  0  0  0
 20 26  1  1  0  0  0
 22 23  1  6  0  0  0
 22 28  1  0  0  0  0
 24 25  1  0  0  0  0
 26 27  1  0  0  0  0
 28 29  1  1  0  0  0
M  END
>  <CHROM.1>
-166.61363838,-152.22346349,-74.42512915,49.10976933,-135.68011051,-87.70610278
-9.53245015,14.10000463,3.06242638,-0.52250991,0.25086851,2.86290776

>  <Name>
ligand

>  <RI>
0

>  <Rbt.Current_Directory>
/home/itssahil/PROJECTS/Mol_Feturizer/New_Systems/rnas/4GPX

>  <Rbt.Executable>
rbdock ($Id: //depot/dev/client3/rdock/2013.1/src/exe/rbdock.cxx#4 $)

>  <Rbt.Library>
libRbt.so (2013.1, Build901 2013/11/27)

>  <Rbt.Parameter_File>
/export/apps/rDock/src/rDock_2013.1_src/data/scripts/dock_solv.prm

>  <Rbt.Receptor>
prm/blind_docking_100.prm

>  <SCORE>
8.51425

>  <SCORE.INTER>
6.83163

>  <SCORE.INTER.CONST>
1

>  <SCORE.INTER.POLAR>
0

>  <SCORE.INTER.ROT>
6

>  <SCORE.INTER.SOLV>
30.5928

>  <SCORE.INTER.VDW>
-13.2432

>  <SCORE.INTER.norm>
0.220375

>  <SCORE.INTRA>
-2.66061

>  <SCORE.INTRA.DIHEDRAL>
-10.7568

>  <SCORE.INTRA.DIHEDRAL.0>
20.6841

>  <SCORE.INTRA.POLAR>
0

>  <SCORE.INTRA.POLAR.0>
0

>  <SCORE.INTRA.REPUL>
0

>  <SCORE.INTRA.REPUL.0>
0

>  <SCORE.INTRA.SOLV>
1.39101

>  <SCORE.INTRA.SOLV.lig_0>
-64.6797

>  <SCORE.INTRA.VDW>
2.02231

>  <SCORE.INTRA.VDW.0>
-4.11825

>  <SCORE.INTRA.norm>
-0.085826

>  <SCORE.RESTR>
4.34322

>  <SCORE.RESTR.CAVITY>
4.34322

>  <SCORE.RESTR.norm>
0.140104

>  <SCORE.SYSTEM>
0

>  <SCORE.SYSTEM.CONST>
0

>  <SCORE.SYSTEM.DIHEDRAL>
0

>  <SCORE.SYSTEM.SOLV>
0

>  <SCORE.SYSTEM.norm>
0

>  <SCORE.heavy>
31

>  <SCORE.norm>
0.274653

>  <RMSD>
10.949

$$$$
ligand
 OpenBabel11021811493D
libRbt.so/2013.1/901 2013/11/27
 31 33  0  0  0  0  0  0  0  0999 V2000
   -5.4696   14.7142    3.4971 C   0  0  2  0  0  0  0  0  0  0  0  0
   -6.6130   15.5590    3.4067 O   0  0  0  0  0  0  0  0  0  0  0  0
  -10.4809   15.4158    1.6451 C   0  0  2  0  0  0  0  0  0  0  0  0
  -11.5019   15.3543    0.6448 N   0  0  0  0  0  0  0  0  0  0  0  0
  -10.4874   12.3906    3.0989 C   0  0  2  0  0  0  0  0  0  0  0  0
   -5.5617   13.9798    4.8964 C   0  0  2  0  0  0  0  0  0  0  0  0
   -6.8063   13.2198    4.9462 N   0  0  0  0  0  0  0  0  0  0  0  0
   -9.6020   16.7075    1.3825 C   0  0  0  0  0  0  0  0  0  0  0  0
  -11.5942   11.3009    2.9370 C   0  0  2  0  0  0  0  0  0  0  0  0
  -11.1812   10.3923    1.9387 O   0  0  0  0  0  0  0  0  0  0  0  0
   -5.5025   15.0317    6.0750 C   0  0  0  0  0  0  0  0  0  0  0  0
   -8.4754   16.7771    2.4804 C   0  0  2  0  0  0  0  0  0  0  0  0
   -7.6512   17.9736    2.2380 N   0  0  0  0  0  0  0  0  0  0  0  0
  -12.9197   12.0407    2.5137 C   0  0  1  0  0  0  0  0  0  0  0  0
  -14.0201   11.0388    2.3229 N   0  0  0  0  0  0  0  0  0  0  0  0
   -4.4996   16.2236    5.7698 C   0  0  0  0  0  0  0  0  0  0  0  0
   -7.5753   15.4652    2.4133 C   0  0  2  0  0  0  0  0  0  0  0  0
  -13.3263   13.0687    3.7121 C   0  0  1  0  0  0  0  0  0  0  0  0
  -13.5118   12.4049    4.9508 O   0  0  0  0  0  0  0  0  0  0  0  0
   -3.9513   16.3798    4.5358 C   0  0  2  0  0  0  0  0  0  0  0  0
   -4.2383   15.4923    3.4489 O   0  0  0  0  0  0  0  0  0  0  0  0
   -8.4738   14.1986    2.6673 C   0  0  2  0  0  0  0  0  0  0  0  0
   -7.6520   13.0137    2.5947 O   0  0  0  0  0  0  0  0  0  0  0  0
  -12.1864   14.1177    3.9222 C   0  0  0  0  0  0  0  0  0  0  0  0
  -10.8861   13.3969    4.1621 O   0  0  0  0  0  0  0  0  0  0  0  0
   -2.9785   17.5101    4.1941 C   0  0  0  0  0  0  0  0  0  0  0  0
   -2.6913   18.2392    5.4107 O   0  0  0  0  0  0  0  0  0  0  0  0
   -9.5784   14.1338    1.5487 C   0  0  1  0  0  0  0  0  0  0  0  0
  -10.3526   12.9975    1.7727 O   0  0  0  0  0  0  0  0  0  0  0  0
  -14.6169   13.8856    3.4615 C   0  0  0  0  0  0  0  0  0  0  0  0
  -14.2655   10.1039    3.4399 C   0  0  0  0  0  0  0  0  0  0  0  0
  1  2  1  1  0  0  0
  1  6  1  0  0  0  0
  1 21  1  0  0  0  0
  3  4  1  6  0  0  0
  3  8  1  0  0  0  0
  3 28  1  0  0  0  0
  5  9  1  0  0  0  0
  5 25  1  0  0  0  0
  5 29  1  6  0  0  0
  6  7  1  6  0  0  0
  6 11  1  0  0  0  0
  8 12  1  0  0  0  0
  9 10  1  6  0  0  0
  9 14  1  0  0  0  0
 11 16  1  0  0  0  0
 12 13  1  6  0  0  0
 12 17  1  0  0  0  0
 14 15  1  1  0  0  0
 14 18  1  0  0  0  0
 15 31  1  0  0  0  0
 16 20  1  0  0  0  0
 17  2  1  1  0  0  0
 17 22  1  0  0  0  0
 18 19  1  1  0  0  0
 18 24  1  0  0  0  0
 18 30  1  0  0  0  0
 20 21  1  0  0  0  0
 20 26  1  1  0  0  0
 22 23  1  6  0  0  0
 22 28  1  0  0  0  0
 24 25  1  0  0  0  0
 26 27  1  0  0  0  0
 28 29  1  1  0  0  0
M  END
>  <CHROM.1>
-120.44663175,171.59276367,52.53083818,-167.13003691,5.15769468,-93.58873538
-8.98208719,14.25852485,3.30536144,-0.31828078,0.37395607,2.62547497

>  <Name>
ligand

>  <RI>
0

>  <Rbt.Current_Directory>
/home/itssahil/PROJECTS/Mol_Feturizer/New_Systems/rnas/4GPX

>  <Rbt.Executable>
rbdock ($Id: //depot/dev/client3/rdock/2013.1/src/exe/rbdock.cxx#4 $)

>  <Rbt.Library>
libRbt.so (2013.1, Build901 2013/11/27)

>  <Rbt.Parameter_File>
/export/apps/rDock/src/rDock_2013.1_src/data/scripts/dock_solv.prm

>  <Rbt.Receptor>
prm/blind_docking_100.prm

>  <SCORE>
0.538784

>  <SCORE.INTER>
-9.01084

>  <SCORE.INTER.CONST>
1

>  <SCORE.INTER.POLAR>
0

>  <SCORE.INTER.ROT>
6

>  <SCORE.INTER.SOLV>
26.4002

>  <SCORE.INTER.VDW>
-22.4073

>  <SCORE.INTER.norm>
-0.290672

>  <SCORE.INTRA>
3.40783

>  <SCORE.INTRA.DIHEDRAL>
-6.32618

>  <SCORE.INTRA.DIHEDRAL.0>
20.6841

>  <SCORE.INTRA.POLAR>
0

>  <SCORE.INTRA.POLAR.0>
0

>  <SCORE.INTRA.REPUL>
0.127582

>  <SCORE.INTRA.REPUL.0>
0

>  <SCORE.INTRA.SOLV>
1.21331

>  <SCORE.INTRA.SOLV.lig_0>
-64.6797

>  <SCORE.INTRA.VDW>
5.32635

>  <SCORE.INTRA.VDW.0>
-4.11825

>  <SCORE.INTRA.norm>
0.10993

>  <SCORE.RESTR>
6.14179

>  <SCORE.RESTR.CAVITY>
6.14179

>  <SCORE.RESTR.norm>
0.198122

>  <SCORE.SYSTEM>
0

>  <SCORE.SYSTEM.CONST>
0

>  <SCORE.SYSTEM.DIHEDRAL>
0

>  <SCORE.SYSTEM.SOLV>
0

>  <SCORE.SYSTEM.norm>
0

>  <SCORE.heavy>
31

>  <SCORE.norm>
0.0173801

>  <RMSD>
10.956

$$$$
ligand
 OpenBabel11021811493D
libRbt.so/2013.1/901 2013/11/27
 31 33  0  0  0  0  0  0  0  0999 V2000
   -5.3616   13.7917    3.9154 C   0  0  2  0  0  0  0  0  0  0  0  0
   -6.5809   14.5209    4.0191 O   0  0  0  0  0  0  0  0  0  0  0  0
   -9.6244   16.5758    1.8747 C   0  0  2  0  0  0  0  0  0  0  0  0
  -10.3955   17.0706    0.7759 N   0  0  0  0  0  0  0  0  0  0  0  0
  -11.6315   13.7900    0.9437 C   0  0  2  0  0  0  0  0  0  0  0  0
   -5.1262   13.1051    5.3222 C   0  0  2  0  0  0  0  0  0  0  0  0
   -6.2595   12.2335    5.6141 N   0  0  0  0  0  0  0  0  0  0  0  0
   -8.1355   17.0924    1.7124 C   0  0  0  0  0  0  0  0  0  0  0  0
  -13.0273   13.4247    1.5411 C   0  0  2  0  0  0  0  0  0  0  0  0
  -13.6893   14.6219    1.8892 O   0  0  0  0  0  0  0  0  0  0  0  0
   -4.9606   14.2015    6.4489 C   0  0  0  0  0  0  0  0  0  0  0  0
   -7.2831   16.5474    2.9191 C   0  0  2  0  0  0  0  0  0  0  0  0
   -5.8960   17.0201    2.7706 N   0  0  0  0  0  0  0  0  0  0  0  0
  -12.7713   12.5307    2.8135 C   0  0  1  0  0  0  0  0  0  0  0  0
  -14.0812   12.1625    3.4457 N   0  0  0  0  0  0  0  0  0  0  0  0
   -4.1529   15.4703    5.9416 C   0  0  0  0  0  0  0  0  0  0  0  0
   -7.3244   14.9556    2.9328 C   0  0  2  0  0  0  0  0  0  0  0  0
  -12.0045   11.1756    2.3297 C   0  0  1  0  0  0  0  0  0  0  0  0
  -12.7492   10.4509    1.3655 O   0  0  0  0  0  0  0  0  0  0  0  0
   -3.8543   15.6310    4.6252 C   0  0  2  0  0  0  0  0  0  0  0  0
   -4.2428   14.6801    3.6270 O   0  0  0  0  0  0  0  0  0  0  0  0
   -8.8135   14.4704    3.0848 C   0  0  2  0  0  0  0  0  0  0  0  0
   -8.8425   13.0268    3.0863 O   0  0  0  0  0  0  0  0  0  0  0  0
  -10.6377   11.5459    1.6673 C   0  0  0  0  0  0  0  0  0  0  0  0
  -10.8760   12.5330    0.5552 O   0  0  0  0  0  0  0  0  0  0  0  0
   -3.0766   16.8342    4.0888 C   0  0  0  0  0  0  0  0  0  0  0  0
   -3.9926   17.9493    3.9799 O   0  0  0  0  0  0  0  0  0  0  0  0
   -9.6436   15.0052    1.8599 C   0  0  1  0  0  0  0  0  0  0  0  0
  -10.9535   14.5510    1.9956 O   0  0  0  0  0  0  0  0  0  0  0  0
  -11.6724   10.1740    3.4620 C   0  0  0  0  0  0  0  0  0  0  0  0
  -14.8262   13.2523    4.1085 C   0  0  0  0  0  0  0  0  0  0  0  0
  1  2  1  1  0  0  0
  1  6  1  0  0  0  0
  1 21  1  0  0  0  0
  3  4  1  6  0  0  0
  3  8  1  0  0  0  0
  3 28  1  0  0  0  0
  5  9  1  0  0  0  0
  5 25  1  0  0  0  0
  5 29  1  1  0  0  0
  6  7  1  1  0  0  0
  6 11  1  0  0  0  0
  8 12  1  0  0  0  0
  9 10  1  1  0  0  0
  9 14  1  0  0  0  0
 11 16  1  0  0  0  0
 12 13  1  6  0  0  0
 12 17  1  0  0  0  0
 14 15  1  6  0  0  0
 14 18  1  0  0  0  0
 15 31  1  0  0  0  0
 16 20  1  0  0  0  0
 17  2  1  1  0  0  0
 17 22  1  0  0  0  0
 18 19  1  6  0  0  0
 18 24  1  0  0  0  0
 18 30  1  0  0  0  0
 20 21  1  0  0  0  0
 20 26  1  1  0  0  0
 22 23  1  6  0  0  0
 22 28  1  0  0  0  0
 24 25  1  0  0  0  0
 26 27  1  0  0  0  0
 28 29  1  1  0  0  0
M  END
>  <CHROM.1>
-161.59526290,176.96507150,-69.87440816,-113.71934420,-79.58823557,116.24983611
-8.80786215,14.19459196,3.04846444,-0.20703200,0.38618996,2.69848651

>  <Name>
ligand

>  <RI>
0

>  <Rbt.Current_Directory>
/home/itssahil/PROJECTS/Mol_Feturizer/New_Systems/rnas/4GPX

>  <Rbt.Executable>
rbdock ($Id: //depot/dev/client3/rdock/2013.1/src/exe/rbdock.cxx#4 $)

>  <Rbt.Library>
libRbt.so (2013.1, Build901 2013/11/27)

>  <Rbt.Parameter_File>
/export/apps/rDock/src/rDock_2013.1_src/data/scripts/dock_solv.prm

>  <Rbt.Receptor>
prm/blind_docking_100.prm

>  <SCORE>
0.592922

>  <SCORE.INTER>
-7.28069

>  <SCORE.INTER.CONST>
1

>  <SCORE.INTER.POLAR>
0

>  <SCORE.INTER.ROT>
6

>  <SCORE.INTER.SOLV>
26.6354

>  <SCORE.INTER.VDW>
-21.3323

>  <SCORE.INTER.norm>
-0.234861

>  <SCORE.INTRA>
2.41879

>  <SCORE.INTRA.DIHEDRAL>
-1.74171

>  <SCORE.INTRA.DIHEDRAL.0>
20.6841

>  <SCORE.INTRA.POLAR>
0

>  <SCORE.INTRA.POLAR.0>
0

>  <SCORE.INTRA.REPUL>
0

>  <SCORE.INTRA.REPUL.0>
0

>  <SCORE.INTRA.SOLV>
2.42752

>  <SCORE.INTRA.SOLV.lig_0>
-64.6797

>  <SCORE.INTRA.VDW>
2.07589

>  <SCORE.INTRA.VDW.0>
-4.11825

>  <SCORE.INTRA.norm>
0.0780256

>  <SCORE.RESTR>
5.45482

>  <SCORE.RESTR.CAVITY>
5.45482

>  <SCORE.RESTR.norm>
0.175962

>  <SCORE.SYSTEM>
0

>  <SCORE.SYSTEM.CONST>
0

>  <SCORE.SYSTEM.DIHEDRAL>
0

>  <SCORE.SYSTEM.SOLV>
0

>  <SCORE.SYSTEM.norm>
0

>  <SCORE.heavy>
31

>  <SCORE.norm>
0.0191265

>  <RMSD>
10.988

$$$$
ligand
 OpenBabel11021811493D
libRbt.so/2013.1/901 2013/11/27
 31 33  0  0  0  0  0  0  0  0999 V2000
   -7.7117   15.3851    3.6550 C   0  0  2  0  0  0  0  0  0  0  0  0
   -7.8366   15.1249    2.2601 O   0  0  0  0  0  0  0  0  0  0  0  0
  -11.8498   13.7705    1.8809 C   0  0  2  0  0  0  0  0  0  0  0  0
  -13.0375   13.2307    1.2934 N   0  0  0  0  0  0  0  0  0  0  0  0
  -11.1020   11.5339    3.9873 C   0  0  2  0  0  0  0  0  0  0  0  0
   -6.9969   16.7912    3.7888 C   0  0  2  0  0  0  0  0  0  0  0  0
   -7.8127   17.7977    3.1174 N   0  0  0  0  0  0  0  0  0  0  0  0
  -11.4299   15.0604    1.0625 C   0  0  0  0  0  0  0  0  0  0  0  0
  -11.7349   10.1538    4.3525 C   0  0  2  0  0  0  0  0  0  0  0  0
  -10.9416    9.1355    3.7811 O   0  0  0  0  0  0  0  0  0  0  0  0
   -5.5488   16.7347    3.1575 C   0  0  0  0  0  0  0  0  0  0  0  0
  -10.1214   15.6558    1.7049 C   0  0  2  0  0  0  0  0  0  0  0  0
   -9.7228   16.8527    0.9445 N   0  0  0  0  0  0  0  0  0  0  0  0
  -13.1930   10.1358    3.7549 C   0  0  1  0  0  0  0  0  0  0  0  0
  -13.8483    8.8205    4.0578 N   0  0  0  0  0  0  0  0  0  0  0  0
   -4.8250   15.3488    3.4317 C   0  0  0  0  0  0  0  0  0  0  0  0
   -8.9594   14.5675    1.6682 C   0  0  2  0  0  0  0  0  0  0  0  0
  -14.0402   11.3371    4.4602 C   0  0  1  0  0  0  0  0  0  0  0  0
  -14.0889   11.2051    5.8707 O   0  0  0  0  0  0  0  0  0  0  0  0
   -5.5026   14.2972    3.9633 C   0  0  2  0  0  0  0  0  0  0  0  0
   -6.8915   14.3712    4.3056 O   0  0  0  0  0  0  0  0  0  0  0  0
   -9.4062   13.2950    2.4790 C   0  0  2  0  0  0  0  0  0  0  0  0
   -8.3515   12.3102    2.4320 O   0  0  0  0  0  0  0  0  0  0  0  0
  -13.3664   12.7140    4.1532 C   0  0  0  0  0  0  0  0  0  0  0  0
  -11.9223   12.6657    4.5775 O   0  0  0  0  0  0  0  0  0  0  0  0
   -4.8488   12.9437    4.2479 C   0  0  0  0  0  0  0  0  0  0  0  0
   -4.8892   12.1603    3.0318 O   0  0  0  0  0  0  0  0  0  0  0  0
  -10.7007   12.7019    1.8095 C   0  0  1  0  0  0  0  0  0  0  0  0
  -11.0728   11.5649    2.5233 O   0  0  0  0  0  0  0  0  0  0  0  0
  -15.5082   11.4656    3.9868 C   0  0  0  0  0  0  0  0  0  0  0  0
  -13.2741    7.6280    3.4018 C   0  0  0  0  0  0  0  0  0  0  0  0
  1  2  1  6  0  0  0
  1  6  1  0  0  0  0
  1 21  1  0  0  0  0
  3  4  1  6  0  0  0
  3  8  1  0  0  0  0
  3 28  1  0  0  0  0
  5  9  1  0  0  0  0
  5 25  1  0  0  0  0
  5 29  1  6  0  0  0
  6  7  1  6  0  0  0
  6 11  1  0  0  0  0
  8 12  1  0  0  0  0
  9 10  1  6  0  0  0
  9 14  1  0  0  0  0
 11 16  1  0  0  0  0
 12 13  1  6  0  0  0
 12 17  1  0  0  0  0
 14 15  1  1  0  0  0
 14 18  1  0  0  0  0
 15 31  1  0  0  0  0
 16 20  1  0  0  0  0
 17  2  1  1  0  0  0
 17 22  1  0  0  0  0
 18 19  1  1  0  0  0
 18 24  1  0  0  0  0
 18 30  1  0  0  0  0
 20 21  1  0  0  0  0
 20 26  1  1  0  0  0
 22 23  1  6  0  0  0
 22 28  1  0  0  0  0
 24 25  1  0  0  0  0
 26 27  1  0  0  0  0
 28 29  1  1  0  0  0
M  END
>  <CHROM.1>
-139.07574200,173.18459152,-66.66085293,71.03495540,-85.32388153,-73.53018578
-10.00677523,13.07491035,3.21399938,0.61073515,-0.12035808,-0.33201392

>  <Name>
ligand

>  <RI>
0

>  <Rbt.Current_Directory>
/home/itssahil/PROJECTS/Mol_Feturizer/New_Systems/rnas/4GPX

>  <Rbt.Executable>
rbdock ($Id: //depot/dev/client3/rdock/2013.1/src/exe/rbdock.cxx#4 $)

>  <Rbt.Library>
libRbt.so (2013.1, Build901 2013/11/27)

>  <Rbt.Parameter_File>
/export/apps/rDock/src/rDock_2013.1_src/data/scripts/dock_solv.prm

>  <Rbt.Receptor>
prm/blind_docking_20.prm

>  <SCORE>
25.8819

>  <SCORE.INTER>
19.0682

>  <SCORE.INTER.CONST>
1

>  <SCORE.INTER.POLAR>
0

>  <SCORE.INTER.ROT>
6

>  <SCORE.INTER.SOLV>
25.3654

>  <SCORE.INTER.VDW>
-3.34303

>  <SCORE.INTER.norm>
0.615103

>  <SCORE.INTRA>
-0.473669

>  <SCORE.INTRA.DIHEDRAL>
-10.5454

>  <SCORE.INTRA.DIHEDRAL.0>
20.6841

>  <SCORE.INTRA.POLAR>
0

>  <SCORE.INTRA.POLAR.0>
0

>  <SCORE.INTRA.REPUL>
0

>  <SCORE.INTRA.REPUL.0>
0

>  <SCORE.INTRA.SOLV>
3.12036

>  <SCORE.INTRA.SOLV.lig_0>
-64.6797

>  <SCORE.INTRA.VDW>
3.23884

>  <SCORE.INTRA.VDW.0>
-4.11825

>  <SCORE.INTRA.norm>
-0.0152796

>  <SCORE.RESTR>
7.28736

>  <SCORE.RESTR.CAVITY>
7.28736

>  <SCORE.RESTR.norm>
0.235076

>  <SCORE.SYSTEM>
0

>  <SCORE.SYSTEM.CONST>
0

>  <SCORE.SYSTEM.DIHEDRAL>
0

>  <SCORE.SYSTEM.SOLV>
0

>  <SCORE.SYSTEM.norm>
0

>  <SCORE.heavy>
31

>  <SCORE.norm>
0.834899

>  <RMSD>
11.006

$$$$
ligand
 OpenBabel11021811493D
libRbt.so/2013.1/901 2013/11/27
 31 33  0  0  0  0  0  0  0  0999 V2000
   -6.6809   14.0164    3.2698 C   0  0  2  0  0  0  0  0  0  0  0  0
   -7.9518   14.6249    3.4792 O   0  0  0  0  0  0  0  0  0  0  0  0
  -12.0452   14.6884    2.3285 C   0  0  2  0  0  0  0  0  0  0  0  0
  -13.2387   14.4155    1.5882 N   0  0  0  0  0  0  0  0  0  0  0  0
  -13.6262   12.1489    3.2432 C   0  0  2  0  0  0  0  0  0  0  0  0
   -6.3103   13.2723    4.6170 C   0  0  2  0  0  0  0  0  0  0  0  0
   -7.3456   12.2861    4.9081 N   0  0  0  0  0  0  0  0  0  0  0  0
  -10.9980   15.3691    1.3539 C   0  0  0  0  0  0  0  0  0  0  0  0
  -13.8925   10.9271    4.1786 C   0  0  2  0  0  0  0  0  0  0  0  0
  -13.9716   11.3940    5.5084 O   0  0  0  0  0  0  0  0  0  0  0  0
   -6.1799   14.3109    5.8015 C   0  0  0  0  0  0  0  0  0  0  0  0
   -9.6819   15.6686    2.1648 C   0  0  2  0  0  0  0  0  0  0  0  0
   -8.7020   16.2969    1.2621 N   0  0  0  0  0  0  0  0  0  0  0  0
  -12.6844    9.9308    4.0011 C   0  0  1  0  0  0  0  0  0  0  0  0
  -12.8744    8.7401    4.8939 N   0  0  0  0  0  0  0  0  0  0  0  0
   -5.5149   15.6753    5.3369 C   0  0  0  0  0  0  0  0  0  0  0  0
   -9.0941   14.3129    2.7584 C   0  0  2  0  0  0  0  0  0  0  0  0
  -12.6603    9.4421    2.4458 C   0  0  1  0  0  0  0  0  0  0  0  0
  -13.8714    8.8147    2.0600 O   0  0  0  0  0  0  0  0  0  0  0  0
   -5.3036   15.9395    4.0203 C   0  0  2  0  0  0  0  0  0  0  0  0
   -5.6614   15.0178    2.9840 O   0  0  0  0  0  0  0  0  0  0  0  0
  -10.1568   13.6538    3.7136 C   0  0  2  0  0  0  0  0  0  0  0  0
   -9.6197   12.4209    4.2391 O   0  0  0  0  0  0  0  0  0  0  0  0
  -12.4642   10.6746    1.5043 C   0  0  0  0  0  0  0  0  0  0  0  0
  -13.5292   11.6981    1.7977 O   0  0  0  0  0  0  0  0  0  0  0  0
   -4.6643   17.2378    3.5239 C   0  0  0  0  0  0  0  0  0  0  0  0
   -3.6387   17.6239    4.4691 O   0  0  0  0  0  0  0  0  0  0  0  0
  -11.4550   13.3417    2.8813 C   0  0  1  0  0  0  0  0  0  0  0  0
  -12.3786   12.7396    3.7328 O   0  0  0  0  0  0  0  0  0  0  0  0
  -11.5268    8.4496    2.0910 C   0  0  0  0  0  0  0  0  0  0  0  0
  -11.7998    7.7266    4.8838 C   0  0  0  0  0  0  0  0  0  0  0  0
  1  2  1  1  0  0  0
  1  6  1  0  0  0  0
  1 21  1  0  0  0  0
  3  4  1  6  0  0  0
  3  8  1  0  0  0  0
  3 28  1  0  0  0  0
  5  9  1  0  0  0  0
  5 25  1  0  0  0  0
  5 29  1  1  0  0  0
  6  7  1  1  0  0  0
  6 11  1  0  0  0  0
  8 12  1  0  0  0  0
  9 10  1  1  0  0  0
  9 14  1  0  0  0  0
 11 16  1  0  0  0  0
 12 13  1  6  0  0  0
 12 17  1  0  0  0  0
 14 15  1  1  0  0  0
 14 18  1  0  0  0  0
 15 31  1  0  0  0  0
 16 20  1  0  0  0  0
 17  2  1  1  0  0  0
 17 22  1  0  0  0  0
 18 19  1  6  0  0  0
 18 24  1  0  0  0  0
 18 30  1  0  0  0  0
 20 21  1  0  0  0  0
 20 26  1  1  0  0  0
 22 23  1  6  0  0  0
 22 28  1  0  0  0  0
 24 25  1  0  0  0  0
 26 27  1  0  0  0  0
 28 29  1  1  0  0  0
M  END
>  <CHROM.1>
-117.79230706,146.21152818,-177.89879813,-126.29143718,36.67501561,70.02238987
-9.98073016,12.97956225,3.39866647,-0.53971920,0.39637804,2.68713527

>  <Name>
ligand

>  <RI>
0

>  <Rbt.Current_Directory>
/home/itssahil/PROJECTS/Mol_Feturizer/New_Systems/rnas/4GPX

>  <Rbt.Executable>
rbdock ($Id: //depot/dev/client3/rdock/2013.1/src/exe/rbdock.cxx#4 $)

>  <Rbt.Library>
libRbt.so (2013.1, Build901 2013/11/27)

>  <Rbt.Parameter_File>
/export/apps/rDock/src/rDock_2013.1_src/data/scripts/dock_solv.prm

>  <Rbt.Receptor>
prm/blind_docking_20.prm

>  <SCORE>
10.6961

>  <SCORE.INTER>
-2.80637

>  <SCORE.INTER.CONST>
1

>  <SCORE.INTER.POLAR>
0

>  <SCORE.INTER.ROT>
6

>  <SCORE.INTER.SOLV>
27.2307

>  <SCORE.INTER.VDW>
-18.5478

>  <SCORE.INTER.norm>
-0.090528

>  <SCORE.INTRA>
7.80436

>  <SCORE.INTRA.DIHEDRAL>
1.26119

>  <SCORE.INTRA.DIHEDRAL.0>
20.6841

>  <SCORE.INTRA.POLAR>
0

>  <SCORE.INTRA.POLAR.0>
0

>  <SCORE.INTRA.REPUL>
0.00311844

>  <SCORE.INTRA.REPUL.0>
0

>  <SCORE.INTRA.SOLV>
1.67698

>  <SCORE.INTRA.SOLV.lig_0>
-64.6797

>  <SCORE.INTRA.VDW>
6.31968

>  <SCORE.INTRA.VDW.0>
-4.11825

>  <SCORE.INTRA.norm>
0.251754

>  <SCORE.RESTR>
5.69813

>  <SCORE.RESTR.CAVITY>
5.69813

>  <SCORE.RESTR.norm>
0.183811

>  <SCORE.SYSTEM>
0

>  <SCORE.SYSTEM.CONST>
0

>  <SCORE.SYSTEM.DIHEDRAL>
0

>  <SCORE.SYSTEM.SOLV>
0

>  <SCORE.SYSTEM.norm>
0

>  <SCORE.heavy>
31

>  <SCORE.norm>
0.345036

>  <RMSD>
11.034

$$$$
ligand
 OpenBabel11021811493D
libRbt.so/2013.1/901 2013/11/27
 31 33  0  0  0  0  0  0  0  0999 V2000
   -8.7610   14.2584    2.0506 C   0  0  2  0  0  0  0  0  0  0  0  0
   -9.7802   14.3250    3.0436 O   0  0  0  0  0  0  0  0  0  0  0  0
  -13.4357   12.4167    4.0830 C   0  0  2  0  0  0  0  0  0  0  0  0
  -14.7666   11.9049    3.9659 N   0  0  0  0  0  0  0  0  0  0  0  0
  -12.6387    9.3572    2.1907 C   0  0  2  0  0  0  0  0  0  0  0  0
   -7.4140   13.9186    2.8097 C   0  0  2  0  0  0  0  0  0  0  0  0
   -7.5775   12.6484    3.5090 N   0  0  0  0  0  0  0  0  0  0  0  0
  -13.4744   13.9761    3.8061 C   0  0  0  0  0  0  0  0  0  0  0  0
  -13.4085    8.1648    2.8421 C   0  0  2  0  0  0  0  0  0  0  0  0
  -14.6346    8.6494    3.3467 O   0  0  0  0  0  0  0  0  0  0  0  0
   -7.0490   15.0726    3.8265 C   0  0  0  0  0  0  0  0  0  0  0  0
  -12.0105   14.5425    3.9315 C   0  0  2  0  0  0  0  0  0  0  0  0
  -12.0394   15.9917    3.6696 N   0  0  0  0  0  0  0  0  0  0  0  0
  -12.5030    7.6026    4.0030 C   0  0  1  0  0  0  0  0  0  0  0  0
  -13.2013    6.4619    4.6828 N   0  0  0  0  0  0  0  0  0  0  0  0
   -7.4002   16.5119    3.2566 C   0  0  0  0  0  0  0  0  0  0  0  0
  -11.0583   13.8122    2.8847 C   0  0  2  0  0  0  0  0  0  0  0  0
  -11.1120    7.0680    3.3414 C   0  0  1  0  0  0  0  0  0  0  0  0
  -11.3315    6.0651    2.3640 O   0  0  0  0  0  0  0  0  0  0  0  0
   -8.1257   16.6565    2.1161 C   0  0  2  0  0  0  0  0  0  0  0  0
   -8.6116   15.5367    1.3668 O   0  0  0  0  0  0  0  0  0  0  0  0
  -11.0462   12.2659    3.1760 C   0  0  2  0  0  0  0  0  0  0  0  0
  -10.1888   11.6108    2.2167 O   0  0  0  0  0  0  0  0  0  0  0  0
  -10.3748    8.2477    2.6280 C   0  0  0  0  0  0  0  0  0  0  0  0
  -11.3078    8.8876    1.6340 O   0  0  0  0  0  0  0  0  0  0  0  0
   -8.4869   18.0212    1.5266 C   0  0  0  0  0  0  0  0  0  0  0  0
   -8.2844   17.9603    0.0949 O   0  0  0  0  0  0  0  0  0  0  0  0
  -12.5119   11.7146    3.0240 C   0  0  1  0  0  0  0  0  0  0  0  0
  -12.4834   10.3425    3.2632 O   0  0  0  0  0  0  0  0  0  0  0  0
  -10.0958    6.4762    4.3478 C   0  0  0  0  0  0  0  0  0  0  0  0
  -14.1690    6.8144    5.7417 C   0  0  0  0  0  0  0  0  0  0  0  0
  1  2  1  1  0  0  0
  1  6  1  0  0  0  0
  1 21  1  0  0  0  0
  3  4  1  6  0  0  0
  3  8  1  0  0  0  0
  3 28  1  0  0  0  0
  5  9  1  0  0  0  0
  5 25  1  0  0  0  0
  5 29  1  1  0  0  0
  6  7  1  1  0  0  0
  6 11  1  0  0  0  0
  8 12  1  0  0  0  0
  9 10  1  1  0  0  0
  9 14  1  0  0  0  0
 11 16  1  0  0  0  0
 12 13  1  6  0  0  0
 12 17  1  0  0  0  0
 14 15  1  6  0  0  0
 14 18  1  0  0  0  0
 15 31  1  0  0  0  0
 16 20  1  0  0  0  0
 17  2  1  1  0  0  0
 17 22  1  0  0  0  0
 18 19  1  6  0  0  0
 18 24  1  0  0  0  0
 18 30  1  0  0  0  0
 20 21  1  0  0  0  0
 20 26  1  6  0  0  0
 22 23  1  6  0  0  0
 22 28  1  0  0  0  0
 24 25  1  0  0  0  0
 26 27  1  0  0  0  0
 28 29  1  1  0  0  0
M  END
>  <CHROM.1>
-139.19605443,-145.73790416,-84.21257192,-159.07817072,136.84948459,133.92172550
-10.93912914,11.82953778,3.03307657,-1.12515148,-0.22291167,3.08319604

>  <Name>
ligand

>  <RI>
0

>  <Rbt.Current_Directory>
/home/itssahil/PROJECTS/Mol_Feturizer/New_Systems/rnas/4GPX

>  <Rbt.Executable>
rbdock ($Id: //depot/dev/client3/rdock/2013.1/src/exe/rbdock.cxx#4 $)

>  <Rbt.Library>
libRbt.so (2013.1, Build901 2013/11/27)

>  <Rbt.Parameter_File>
/export/apps/rDock/src/rDock_2013.1_src/data/scripts/dock_solv.prm

>  <Rbt.Receptor>
prm/blind_docking_20.prm

>  <SCORE>
11.23

>  <SCORE.INTER>
0.854442

>  <SCORE.INTER.CONST>
1

>  <SCORE.INTER.POLAR>
0

>  <SCORE.INTER.ROT>
6

>  <SCORE.INTER.SOLV>
24.7099

>  <SCORE.INTER.VDW>
-15.267

>  <SCORE.INTER.norm>
0.0275627

>  <SCORE.INTRA>
0.0224273

>  <SCORE.INTRA.DIHEDRAL>
-0.0755975

>  <SCORE.INTRA.DIHEDRAL.0>
20.6841

>  <SCORE.INTRA.POLAR>
0

>  <SCORE.INTRA.POLAR.0>
0

>  <SCORE.INTRA.REPUL>
0

>  <SCORE.INTRA.REPUL.0>
0

>  <SCORE.INTRA.SOLV>
-0.256517

>  <SCORE.INTRA.SOLV.lig_0>
-64.6797

>  <SCORE.INTRA.VDW>
0.188485

>  <SCORE.INTRA.VDW.0>
-4.11825

>  <SCORE.INTRA.norm>
0.000723463

>  <SCORE.RESTR>
10.3531

>  <SCORE.RESTR.CAVITY>
10.3531

>  <SCORE.RESTR.norm>
0.333971

>  <SCORE.SYSTEM>
0

>  <SCORE.SYSTEM.CONST>
0

>  <SCORE.SYSTEM.DIHEDRAL>
0

>  <SCORE.SYSTEM.SOLV>
0

>  <SCORE.SYSTEM.norm>
0

>  <SCORE.heavy>
31

>  <SCORE.norm>
0.362257

>  <RMSD>
11.071

$$$$
ligand
 OpenBabel11021811493D
libRbt.so/2013.1/901 2013/11/27
 31 33  0  0  0  0  0  0  0  0999 V2000
   -5.1379   13.6465    4.0319 C   0  0  2  0  0  0  0  0  0  0  0  0
   -6.3674   14.3635    4.0903 O   0  0  0  0  0  0  0  0  0  0  0  0
   -9.3158   16.4697    1.8643 C   0  0  2  0  0  0  0  0  0  0  0  0
   -9.9777   17.0891    0.7575 N   0  0  0  0  0  0  0  0  0  0  0  0
  -10.5052   13.0205    0.7552 C   0  0  2  0  0  0  0  0  0  0  0  0
   -4.8965   13.0478    5.4774 C   0  0  2  0  0  0  0  0  0  0  0  0
   -6.0183   12.1793    5.8186 N   0  0  0  0  0  0  0  0  0  0  0  0
   -7.9042   17.1636    2.0537 C   0  0  0  0  0  0  0  0  0  0  0  0
  -12.0146   12.9235    0.3667 C   0  0  2  0  0  0  0  0  0  0  0  0
  -12.3243   14.0038   -0.4876 O   0  0  0  0  0  0  0  0  0  0  0  0
   -4.7487   14.2111    6.5374 C   0  0  0  0  0  0  0  0  0  0  0  0
   -7.1716   16.4824    3.2697 C   0  0  2  0  0  0  0  0  0  0  0  0
   -5.8557   17.1200    3.4473 N   0  0  0  0  0  0  0  0  0  0  0  0
  -12.8468   13.0038    1.7026 C   0  0  1  0  0  0  0  0  0  0  0  0
  -14.3128   12.9353    1.3910 N   0  0  0  0  0  0  0  0  0  0  0  0
   -3.9574   15.4588    5.9570 C   0  0  0  0  0  0  0  0  0  0  0  0
   -6.9959   14.9248    2.9896 C   0  0  2  0  0  0  0  0  0  0  0  0
  -12.4313   11.7294    2.6310 C   0  0  1  0  0  0  0  0  0  0  0  0
  -12.6673   10.4913    1.9823 O   0  0  0  0  0  0  0  0  0  0  0  0
   -3.6579   15.5454    4.6340 C   0  0  2  0  0  0  0  0  0  0  0  0
   -4.0309   14.5317    3.6933 O   0  0  0  0  0  0  0  0  0  0  0  0
   -8.4105   14.2634    2.7959 C   0  0  2  0  0  0  0  0  0  0  0  0
   -8.2414   12.8539    2.5325 O   0  0  0  0  0  0  0  0  0  0  0  0
  -10.9045   11.7882    2.9618 C   0  0  0  0  0  0  0  0  0  0  0  0
  -10.1215   11.8795    1.6787 O   0  0  0  0  0  0  0  0  0  0  0  0
   -2.8956   16.7255    4.0284 C   0  0  0  0  0  0  0  0  0  0  0  0
   -3.5119   17.9476    4.4984 O   0  0  0  0  0  0  0  0  0  0  0  0
   -9.1172   14.9407    1.5640 C   0  0  1  0  0  0  0  0  0  0  0  0
  -10.3581   14.3319    1.3906 O   0  0  0  0  0  0  0  0  0  0  0  0
  -13.1604   11.6496    3.9939 C   0  0  0  0  0  0  0  0  0  0  0  0
  -15.2286   13.5449    2.3768 C   0  0  0  0  0  0  0  0  0  0  0  0
  1  2  1  1  0  0  0
  1  6  1  0  0  0  0
  1 21  1  0  0  0  0
  3  4  1  6  0  0  0
  3  8  1  0  0  0  0
  3 28  1  0  0  0  0
  5  9  1  0  0  0  0
  5 25  1  0  0  0  0
  5 29  1  1  0  0  0
  6  7  1  1  0  0  0
  6 11  1  0  0  0  0
  8 12  1  0  0  0  0
  9 10  1  6  0  0  0
  9 14  1  0  0  0  0
 11 16  1  0  0  0  0
 12 13  1  6  0  0  0
 12 17  1  0  0  0  0
 14 15  1  6  0  0  0
 14 18  1  0  0  0  0
 15 31  1  0  0  0  0
 16 20  1  0  0  0  0
 17  2  1  1  0  0  0
 17 22  1  0  0  0  0
 18 19  1  6  0  0  0
 18 24  1  0  0  0  0
 18 30  1  0  0  0  0
 20 21  1  0  0  0  0
 20 26  1  1  0  0  0
 22 23  1  6  0  0  0
 22 28  1  0  0  0  0
 24 25  1  0  0  0  0
 26 27  1  0  0  0  0
 28 29  1  1  0  0  0
M  END
>  <CHROM.1>
-173.33382295,-162.90763872,-155.02854234,-122.46621971,-48.80440246,163.21629792
-8.56484082,14.18688522,2.91923301,-0.10622852,0.44565879,2.62083400

>  <Name>
ligand

>  <RI>
0

>  <Rbt.Current_Directory>
/home/itssahil/PROJECTS/Mol_Feturizer/New_Systems/rnas/4GPX

>  <Rbt.Executable>
rbdock ($Id: //depot/dev/client3/rdock/2013.1/src/exe/rbdock.cxx#4 $)

>  <Rbt.Library>
libRbt.so (2013.1, Build901 2013/11/27)

>  <Rbt.Parameter_File>
/export/apps/rDock/src/rDock_2013.1_src/data/scripts/dock_solv.prm

>  <Rbt.Receptor>
prm/blind_docking_60.prm

>  <SCORE>
7.36169

>  <SCORE.INTER>
-5.14728

>  <SCORE.INTER.CONST>
1

>  <SCORE.INTER.POLAR>
0

>  <SCORE.INTER.ROT>
6

>  <SCORE.INTER.SOLV>
25.5301

>  <SCORE.INTER.VDW>
-19.5416

>  <SCORE.INTER.norm>
-0.166041

>  <SCORE.INTRA>
1.07581

>  <SCORE.INTRA.DIHEDRAL>
-6.75469

>  <SCORE.INTRA.DIHEDRAL.0>
20.6841

>  <SCORE.INTRA.POLAR>
0

>  <SCORE.INTRA.POLAR.0>
0

>  <SCORE.INTRA.REPUL>
0

>  <SCORE.INTRA.REPUL.0>
0

>  <SCORE.INTRA.SOLV>
1.77302

>  <SCORE.INTRA.SOLV.lig_0>
-64.6797

>  <SCORE.INTRA.VDW>
3.56665

>  <SCORE.INTRA.VDW.0>
-4.11825

>  <SCORE.INTRA.norm>
0.0347036

>  <SCORE.RESTR>
11.4332

>  <SCORE.RESTR.CAVITY>
11.4332

>  <SCORE.RESTR.norm>
0.368812

>  <SCORE.SYSTEM>
0

>  <SCORE.SYSTEM.CONST>
0

>  <SCORE.SYSTEM.DIHEDRAL>
0

>  <SCORE.SYSTEM.SOLV>
0

>  <SCORE.SYSTEM.norm>
0

>  <SCORE.heavy>
31

>  <SCORE.norm>
0.237474

>  <RMSD>
11.080

$$$$
ligand
 OpenBabel11021811493D
libRbt.so/2013.1/901 2013/11/27
 31 33  0  0  0  0  0  0  0  0999 V2000
   -5.7514   14.1336    3.5595 C   0  0  2  0  0  0  0  0  0  0  0  0
   -6.8841   14.9870    3.6928 O   0  0  0  0  0  0  0  0  0  0  0  0
  -10.5530   16.2230    1.9333 C   0  0  2  0  0  0  0  0  0  0  0  0
  -11.5680   16.4345    0.9475 N   0  0  0  0  0  0  0  0  0  0  0  0
  -12.3964   13.4265    1.5745 C   0  0  2  0  0  0  0  0  0  0  0  0
   -5.7030   13.2417    4.8664 C   0  0  2  0  0  0  0  0  0  0  0  0
   -6.9470   12.4852    4.9642 N   0  0  0  0  0  0  0  0  0  0  0  0
   -9.2270   16.9402    1.4464 C   0  0  0  0  0  0  0  0  0  0  0  0
  -13.4972   12.7747    2.4700 C   0  0  2  0  0  0  0  0  0  0  0  0
  -14.0816   13.7856    3.2632 O   0  0  0  0  0  0  0  0  0  0  0  0
   -5.4996   14.1490    6.1448 C   0  0  0  0  0  0  0  0  0  0  0  0
   -8.1066   16.7072    2.5281 C   0  0  2  0  0  0  0  0  0  0  0  0
   -6.8692   17.3674    2.0780 N   0  0  0  0  0  0  0  0  0  0  0  0
  -12.7876   11.6917    3.3685 C   0  0  1  0  0  0  0  0  0  0  0  0
  -13.7959   11.0413    4.2694 N   0  0  0  0  0  0  0  0  0  0  0  0
   -4.5167   15.3650    5.8711 C   0  0  0  0  0  0  0  0  0  0  0  0
   -7.8595   15.1459    2.7207 C   0  0  2  0  0  0  0  0  0  0  0  0
  -12.1388   10.5671    2.3822 C   0  0  1  0  0  0  0  0  0  0  0  0
  -13.1110    9.9530    1.5533 O   0  0  0  0  0  0  0  0  0  0  0  0
   -4.1029   15.6619    4.6108 C   0  0  2  0  0  0  0  0  0  0  0  0
   -4.5202   14.9080    3.4668 O   0  0  0  0  0  0  0  0  0  0  0  0
   -9.1931   14.4579    3.1943 C   0  0  2  0  0  0  0  0  0  0  0  0
   -8.9627   13.0418    3.3566 O   0  0  0  0  0  0  0  0  0  0  0  0
  -11.0868   11.2326    1.4366 C   0  0  0  0  0  0  0  0  0  0  0  0
  -11.7333   12.3773    0.7020 O   0  0  0  0  0  0  0  0  0  0  0  0
   -3.1549   16.8210    4.2972 C   0  0  0  0  0  0  0  0  0  0  0  0
   -3.9315   17.8897    3.7062 O   0  0  0  0  0  0  0  0  0  0  0  0
  -10.2929   14.6819    2.0917 C   0  0  1  0  0  0  0  0  0  0  0  0
  -11.4608   14.0502    2.5132 O   0  0  0  0  0  0  0  0  0  0  0  0
  -11.3964    9.4164    3.1037 C   0  0  0  0  0  0  0  0  0  0  0  0
  -15.0057   10.4934    3.6226 C   0  0  0  0  0  0  0  0  0  0  0  0
  1  2  1  1  0  0  0
  1  6  1  0  0  0  0
  1 21  1  0  0  0  0
  3  4  1  6  0  0  0
  3  8  1  0  0  0  0
  3 28  1  0  0  0  0
  5  9  1  0  0  0  0
  5 25  1  0  0  0  0
  5 29  1  1  0  0  0
  6  7  1  1  0  0  0
  6 11  1  0  0  0  0
  8 12  1  0  0  0  0
  9 10  1  1  0  0  0
  9 14  1  0  0  0  0
 11 16  1  0  0  0  0
 12 13  1  6  0  0  0
 12 17  1  0  0  0  0
 14 15  1  1  0  0  0
 14 18  1  0  0  0  0
 15 31  1  0  0  0  0
 16 20  1  0  0  0  0
 17  2  1  1  0  0  0
 17 22  1  0  0  0  0
 18 19  1  6  0  0  0
 18 24  1  0  0  0  0
 18 30  1  0  0  0  0
 20 21  1  0  0  0  0
 20 26  1  1  0  0  0
 22 23  1  6  0  0  0
 22 28  1  0  0  0  0
 24 25  1  0  0  0  0
 26 27  1  0  0  0  0
 28 29  1  1  0  0  0
M  END
>  <CHROM.1>
-129.57545541,176.63358059,52.27841905,-132.04809765,-105.08355993,94.86155551
-9.24166858,13.90176527,3.08415131,-0.35204297,0.37265049,2.71989084

>  <Name>
ligand

>  <RI>
0

>  <Rbt.Current_Directory>
/home/itssahil/PROJECTS/Mol_Feturizer/New_Systems/rnas/4GPX

>  <Rbt.Executable>
rbdock ($Id: //depot/dev/client3/rdock/2013.1/src/exe/rbdock.cxx#4 $)

>  <Rbt.Library>
libRbt.so (2013.1, Build901 2013/11/27)

>  <Rbt.Parameter_File>
/export/apps/rDock/src/rDock_2013.1_src/data/scripts/dock_solv.prm

>  <Rbt.Receptor>
prm/blind_docking_100.prm

>  <SCORE>
4.10698

>  <SCORE.INTER>
-3.6834

>  <SCORE.INTER.CONST>
1

>  <SCORE.INTER.POLAR>
0

>  <SCORE.INTER.ROT>
6

>  <SCORE.INTER.SOLV>
26.848

>  <SCORE.INTER.VDW>
-19.0049

>  <SCORE.INTER.norm>
-0.118819

>  <SCORE.INTRA>
2.06292

>  <SCORE.INTRA.DIHEDRAL>
-0.859064

>  <SCORE.INTRA.DIHEDRAL.0>
20.6841

>  <SCORE.INTRA.POLAR>
0

>  <SCORE.INTRA.POLAR.0>
0

>  <SCORE.INTRA.REPUL>
0.0358074

>  <SCORE.INTRA.REPUL.0>
0

>  <SCORE.INTRA.SOLV>
1.19181

>  <SCORE.INTRA.SOLV.lig_0>
-64.6797

>  <SCORE.INTRA.VDW>
1.71751

>  <SCORE.INTRA.VDW.0>
-4.11825

>  <SCORE.INTRA.norm>
0.0665459

>  <SCORE.RESTR>
5.72746

>  <SCORE.RESTR.CAVITY>
5.72746

>  <SCORE.RESTR.norm>
0.184757

>  <SCORE.SYSTEM>
0

>  <SCORE.SYSTEM.CONST>
0

>  <SCORE.SYSTEM.DIHEDRAL>
0

>  <SCORE.SYSTEM.SOLV>
0

>  <SCORE.SYSTEM.norm>
0

>  <SCORE.heavy>
31

>  <SCORE.norm>
0.132483

>  <RMSD>
11.083

$$$$
ligand
 OpenBabel11021811493D
libRbt.so/2013.1/901 2013/11/27
 31 33  0  0  0  0  0  0  0  0999 V2000
   -7.9537   17.8323    0.8695 C   0  0  2  0  0  0  0  0  0  0  0  0
   -8.5614   16.5659    1.1062 O   0  0  0  0  0  0  0  0  0  0  0  0
   -7.5831   13.4627    3.8443 C   0  0  2  0  0  0  0  0  0  0  0  0
   -7.4659   12.7420    5.0746 N   0  0  0  0  0  0  0  0  0  0  0  0
  -10.8266   12.0880    4.3229 C   0  0  2  0  0  0  0  0  0  0  0  0
   -8.9869   18.9265    1.3607 C   0  0  2  0  0  0  0  0  0  0  0  0
   -9.2615   18.7098    2.7774 N   0  0  0  0  0  0  0  0  0  0  0  0
   -6.8278   14.8463    4.0024 C   0  0  0  0  0  0  0  0  0  0  0  0
  -11.8953   11.3894    3.4237 C   0  0  2  0  0  0  0  0  0  0  0  0
  -11.2760   10.3143    2.7504 O   0  0  0  0  0  0  0  0  0  0  0  0
  -10.3198   18.8440    0.5149 C   0  0  0  0  0  0  0  0  0  0  0  0
   -6.9570   15.6435    2.6506 C   0  0  2  0  0  0  0  0  0  0  0  0
   -6.2611   16.9339    2.7934 N   0  0  0  0  0  0  0  0  0  0  0  0
  -12.4224   12.4671    2.4017 C   0  0  1  0  0  0  0  0  0  0  0  0
  -13.4427   11.8471    1.4931 N   0  0  0  0  0  0  0  0  0  0  0  0
  -10.0448   18.5150   -1.0134 C   0  0  0  0  0  0  0  0  0  0  0  0
   -8.4942   15.8814    2.3098 C   0  0  2  0  0  0  0  0  0  0  0  0
  -13.1176   13.6706    3.2541 C   0  0  1  0  0  0  0  0  0  0  0  0
  -14.1819   13.2082    4.0683 O   0  0  0  0  0  0  0  0  0  0  0  0
   -8.8082   18.1449   -1.4393 C   0  0  2  0  0  0  0  0  0  0  0  0
   -7.6911   18.0302   -0.5502 O   0  0  0  0  0  0  0  0  0  0  0  0
   -9.2214   14.4931    2.1682 C   0  0  2  0  0  0  0  0  0  0  0  0
  -10.6159   14.7182    1.8693 O   0  0  0  0  0  0  0  0  0  0  0  0
  -12.0645   14.3245    4.2066 C   0  0  0  0  0  0  0  0  0  0  0  0
  -11.4436   13.2568    5.0682 O   0  0  0  0  0  0  0  0  0  0  0  0
   -8.4935   17.8207   -2.9010 C   0  0  0  0  0  0  0  0  0  0  0  0
   -8.2728   16.3944   -3.0076 O   0  0  0  0  0  0  0  0  0  0  0  0
   -9.1011   13.7215    3.5341 C   0  0  1  0  0  0  0  0  0  0  0  0
   -9.7667   12.5049    3.4021 O   0  0  0  0  0  0  0  0  0  0  0  0
  -13.6959   14.8251    2.4007 C   0  0  0  0  0  0  0  0  0  0  0  0
  -12.9372   10.9009    0.4776 C   0  0  0  0  0  0  0  0  0  0  0  0
  1  2  1  6  0  0  0
  1  6  1  0  0  0  0
  1 21  1  0  0  0  0
  3  4  1  1  0  0  0
  3  8  1  0  0  0  0
  3 28  1  0  0  0  0
  5  9  1  0  0  0  0
  5 25  1  0  0  0  0
  5 29  1  6  0  0  0
  6  7  1  1  0  0  0
  6 11  1  0  0  0  0
  8 12  1  0  0  0  0
  9 10  1  6  0  0  0
  9 14  1  0  0  0  0
 11 16  1  0  0  0  0
 12 13  1  1  0  0  0
 12 17  1  0  0  0  0
 14 15  1  6  0  0  0
 14 18  1  0  0  0  0
 15 31  1  0  0  0  0
 16 20  1  0  0  0  0
 17  2  1  6  0  0  0
 17 22  1  0  0  0  0
 18 19  1  1  0  0  0
 18 24  1  0  0  0  0
 18 30  1  0  0  0  0
 20 21  1  0  0  0  0
 20 26  1  6  0  0  0
 22 23  1  1  0  0  0
 22 28  1  0  0  0  0
 24 25  1  0  0  0  0
 26 27  1  0  0  0  0
 28 29  1  6  0  0  0
M  END
>  <CHROM.1>
-85.90871331,140.87827561,-72.14742561,-58.10618202,-109.11680137,115.96169553
-9.96287418,14.91288337,2.01714448,-1.00203503,0.47527944,2.29816994

>  <Name>
ligand

>  <RI>
0

>  <Rbt.Current_Directory>
/home/itssahil/PROJECTS/Mol_Feturizer/New_Systems/rnas/4GPX

>  <Rbt.Executable>
rbdock ($Id: //depot/dev/client3/rdock/2013.1/src/exe/rbdock.cxx#4 $)

>  <Rbt.Library>
libRbt.so (2013.1, Build901 2013/11/27)

>  <Rbt.Parameter_File>
/export/apps/rDock/src/rDock_2013.1_src/data/scripts/dock_solv.prm

>  <Rbt.Receptor>
prm/blind_docking_100.prm

>  <SCORE>
5.54548

>  <SCORE.INTER>
0.923975

>  <SCORE.INTER.CONST>
1

>  <SCORE.INTER.POLAR>
0

>  <SCORE.INTER.ROT>
6

>  <SCORE.INTER.SOLV>
32.0355

>  <SCORE.INTER.VDW>
-17.6625

>  <SCORE.INTER.norm>
0.0298057

>  <SCORE.INTRA>
1.65789

>  <SCORE.INTRA.DIHEDRAL>
-3.50864

>  <SCORE.INTRA.DIHEDRAL.0>
20.6841

>  <SCORE.INTRA.POLAR>
0

>  <SCORE.INTRA.POLAR.0>
0

>  <SCORE.INTRA.REPUL>
0

>  <SCORE.INTRA.REPUL.0>
0

>  <SCORE.INTRA.SOLV>
1.7868

>  <SCORE.INTRA.SOLV.lig_0>
-64.6797

>  <SCORE.INTRA.VDW>
2.51881

>  <SCORE.INTRA.VDW.0>
-4.11825

>  <SCORE.INTRA.norm>
0.0534804

>  <SCORE.RESTR>
2.96361

>  <SCORE.RESTR.CAVITY>
2.96361

>  <SCORE.RESTR.norm>
0.0956004

>  <SCORE.SYSTEM>
0

>  <SCORE.SYSTEM.CONST>
0

>  <SCORE.SYSTEM.DIHEDRAL>
0

>  <SCORE.SYSTEM.SOLV>
0

>  <SCORE.SYSTEM.norm>
0

>  <SCORE.heavy>
31

>  <SCORE.norm>
0.178886

>  <RMSD>
11.098

$$$$
ligand
 OpenBabel11021811493D
libRbt.so/2013.1/901 2013/11/27
 31 33  0  0  0  0  0  0  0  0999 V2000
   -8.5157   17.9501    0.9411 C   0  0  2  0  0  0  0  0  0  0  0  0
   -8.1068   16.5982    1.1268 O   0  0  0  0  0  0  0  0  0  0  0  0
   -7.4933   13.4834    3.9563 C   0  0  2  0  0  0  0  0  0  0  0  0
   -7.5068   12.7717    5.1973 N   0  0  0  0  0  0  0  0  0  0  0  0
  -10.7287   12.1955    4.2779 C   0  0  2  0  0  0  0  0  0  0  0  0
  -10.0917   17.9684    1.0886 C   0  0  2  0  0  0  0  0  0  0  0  0
  -10.4445   17.4693    2.4136 N   0  0  0  0  0  0  0  0  0  0  0  0
   -6.6880   14.8320    4.1629 C   0  0  0  0  0  0  0  0  0  0  0  0
  -11.7932   11.4821    3.3854 C   0  0  2  0  0  0  0  0  0  0  0  0
  -11.1641   10.4134    2.7111 O   0  0  0  0  0  0  0  0  0  0  0  0
  -10.7602   17.0830   -0.0375 C   0  0  0  0  0  0  0  0  0  0  0  0
   -6.6734   15.6193    2.7993 C   0  0  2  0  0  0  0  0  0  0  0  0
   -5.9305   16.8773    2.9868 N   0  0  0  0  0  0  0  0  0  0  0  0
  -12.3385   12.5512    2.3640 C   0  0  1  0  0  0  0  0  0  0  0  0
  -13.3557   11.9169    1.4618 N   0  0  0  0  0  0  0  0  0  0  0  0
  -10.0039   17.2038   -1.4279 C   0  0  0  0  0  0  0  0  0  0  0  0
   -8.1663   15.9247    2.3370 C   0  0  2  0  0  0  0  0  0  0  0  0
  -13.0442   13.7477    3.2177 C   0  0  1  0  0  0  0  0  0  0  0  0
  -14.0986   13.2739    4.0381 O   0  0  0  0  0  0  0  0  0  0  0  0
   -8.8049   17.8373   -1.5210 C   0  0  2  0  0  0  0  0  0  0  0  0
   -8.1572   18.4278   -0.3882 O   0  0  0  0  0  0  0  0  0  0  0  0
   -8.9451   14.5704    2.1491 C   0  0  2  0  0  0  0  0  0  0  0  0
  -10.2997   14.8568    1.7399 O   0  0  0  0  0  0  0  0  0  0  0  0
  -11.9944   14.4163    4.1636 C   0  0  0  0  0  0  0  0  0  0  0  0
  -11.3562   13.3580    5.0241 O   0  0  0  0  0  0  0  0  0  0  0  0
   -8.0395   17.9814   -2.8378 C   0  0  0  0  0  0  0  0  0  0  0  0
   -7.8565   16.6598   -3.3985 O   0  0  0  0  0  0  0  0  0  0  0  0
   -8.9685   13.8092    3.5259 C   0  0  1  0  0  0  0  0  0  0  0  0
   -9.6786   12.6235    3.3510 O   0  0  0  0  0  0  0  0  0  0  0  0
  -13.6410   14.8934    2.3650 C   0  0  0  0  0  0  0  0  0  0  0  0
  -12.8408   10.9984    0.4258 C   0  0  0  0  0  0  0  0  0  0  0  0
  1  2  1  6  0  0  0
  1  6  1  0  0  0  0
  1 21  1  0  0  0  0
  3  4  1  1  0  0  0
  3  8  1  0  0  0  0
  3 28  1  0  0  0  0
  5  9  1  0  0  0  0
  5 25  1  0  0  0  0
  5 29  1  6  0  0  0
  6  7  1  1  0  0  0
  6 11  1  0  0  0  0
  8 12  1  0  0  0  0
  9 10  1  6  0  0  0
  9 14  1  0  0  0  0
 11 16  1  0  0  0  0
 12 13  1  1  0  0  0
 12 17  1  0  0  0  0
 14 15  1  6  0  0  0
 14 18  1  0  0  0  0
 15 31  1  0  0  0  0
 16 20  1  0  0  0  0
 17  2  1  6  0  0  0
 17 22  1  0  0  0  0
 18 19  1  1  0  0  0
 18 24  1  0  0  0  0
 18 30  1  0  0  0  0
 20 21  1  0  0  0  0
 20 26  1  6  0  0  0
 22 23  1  1  0  0  0
 22 28  1  0  0  0  0
 24 25  1  0  0  0  0
 26 27  1  0  0  0  0
 28 29  1  6  0  0  0
M  END
>  <CHROM.1>
-69.42533643,145.05324966,-73.48204618,-113.71991580,-55.07488129,109.02241472
-9.94118373,14.81688658,1.96302784,-0.99963439,0.43119052,2.23138717

>  <Name>
ligand

>  <RI>
0

>  <Rbt.Current_Directory>
/home/itssahil/PROJECTS/Mol_Feturizer/New_Systems/rnas/4GPX

>  <Rbt.Executable>
rbdock ($Id: //depot/dev/client3/rdock/2013.1/src/exe/rbdock.cxx#4 $)

>  <Rbt.Library>
libRbt.so (2013.1, Build901 2013/11/27)

>  <Rbt.Parameter_File>
/export/apps/rDock/src/rDock_2013.1_src/data/scripts/dock_solv.prm

>  <Rbt.Receptor>
prm/blind_docking_100.prm

>  <SCORE>
7.08736

>  <SCORE.INTER>
0.820494

>  <SCORE.INTER.CONST>
1

>  <SCORE.INTER.POLAR>
0

>  <SCORE.INTER.ROT>
6

>  <SCORE.INTER.SOLV>
31.3608

>  <SCORE.INTER.VDW>
-17.5066

>  <SCORE.INTER.norm>
0.0264676

>  <SCORE.INTRA>
3.03756

>  <SCORE.INTRA.DIHEDRAL>
1.60775

>  <SCORE.INTRA.DIHEDRAL.0>
20.6841

>  <SCORE.INTRA.POLAR>
0

>  <SCORE.INTRA.POLAR.0>
0

>  <SCORE.INTRA.REPUL>
0

>  <SCORE.INTRA.REPUL.0>
0

>  <SCORE.INTRA.SOLV>
2.0437

>  <SCORE.INTRA.SOLV.lig_0>
-64.6797

>  <SCORE.INTRA.VDW>
1.21184

>  <SCORE.INTRA.VDW.0>
-4.11825

>  <SCORE.INTRA.norm>
0.0979859

>  <SCORE.RESTR>
3.22931

>  <SCORE.RESTR.CAVITY>
3.22931

>  <SCORE.RESTR.norm>
0.104171

>  <SCORE.SYSTEM>
0

>  <SCORE.SYSTEM.CONST>
0

>  <SCORE.SYSTEM.DIHEDRAL>
0

>  <SCORE.SYSTEM.SOLV>
0

>  <SCORE.SYSTEM.norm>
0

>  <SCORE.heavy>
31

>  <SCORE.norm>
0.228625

>  <RMSD>
11.100

$$$$
ligand
 OpenBabel11021811493D
libRbt.so/2013.1/901 2013/11/27
 31 33  0  0  0  0  0  0  0  0999 V2000
   -9.7335   17.0789    0.5105 C   0  0  2  0  0  0  0  0  0  0  0  0
   -8.5135   16.8096    1.1947 O   0  0  0  0  0  0  0  0  0  0  0  0
   -7.4578   13.5579    3.7237 C   0  0  2  0  0  0  0  0  0  0  0  0
   -7.3129   12.7654    4.9060 N   0  0  0  0  0  0  0  0  0  0  0  0
  -10.6804   12.1205    4.1668 C   0  0  2  0  0  0  0  0  0  0  0  0
   -9.4254   18.2410   -0.5193 C   0  0  2  0  0  0  0  0  0  0  0  0
   -8.3766   17.7946   -1.4302 N   0  0  0  0  0  0  0  0  0  0  0  0
   -6.7148   14.9380    3.9538 C   0  0  0  0  0  0  0  0  0  0  0  0
  -11.7455   11.4483    3.2436 C   0  0  2  0  0  0  0  0  0  0  0  0
  -11.1137   10.4205    2.5107 O   0  0  0  0  0  0  0  0  0  0  0  0
   -8.9800   19.5506    0.2458 C   0  0  0  0  0  0  0  0  0  0  0  0
   -6.8745   15.8141    2.6551 C   0  0  2  0  0  0  0  0  0  0  0  0
   -6.1901   17.1014    2.8651 N   0  0  0  0  0  0  0  0  0  0  0  0
  -12.3029   12.5662    2.2827 C   0  0  1  0  0  0  0  0  0  0  0  0
  -13.3213   11.9739    1.3536 N   0  0  0  0  0  0  0  0  0  0  0  0
   -9.7838   19.7619    1.5982 C   0  0  0  0  0  0  0  0  0  0  0  0
   -8.4194   16.0543    2.3533 C   0  0  2  0  0  0  0  0  0  0  0  0
  -13.0110   13.7118    3.2017 C   0  0  1  0  0  0  0  0  0  0  0  0
  -14.0580   13.1888    4.0016 O   0  0  0  0  0  0  0  0  0  0  0  0
  -10.5911   18.7868    2.0935 C   0  0  2  0  0  0  0  0  0  0  0  0
  -10.7659   17.5260    1.4368 O   0  0  0  0  0  0  0  0  0  0  0  0
   -9.1340   14.6688    2.1391 C   0  0  2  0  0  0  0  0  0  0  0  0
  -10.5355   14.8954    1.8761 O   0  0  0  0  0  0  0  0  0  0  0  0
  -11.9601   14.3363    4.1761 C   0  0  0  0  0  0  0  0  0  0  0  0
  -11.3107   13.2382    4.9764 O   0  0  0  0  0  0  0  0  0  0  0  0
  -11.3874   18.9442    3.3903 C   0  0  0  0  0  0  0  0  0  0  0  0
  -10.7809   20.0061    4.1642 O   0  0  0  0  0  0  0  0  0  0  0  0
   -8.9833   13.8174    3.4535 C   0  0  1  0  0  0  0  0  0  0  0  0
   -9.6380   12.6033    3.2582 O   0  0  0  0  0  0  0  0  0  0  0  0
  -13.6194   14.8969    2.4137 C   0  0  0  0  0  0  0  0  0  0  0  0
  -14.3162   11.0628    1.9556 C   0  0  0  0  0  0  0  0  0  0  0  0
  1  2  1  1  0  0  0
  1  6  1  0  0  0  0
  1 21  1  0  0  0  0
  3  4  1  1  0  0  0
  3  8  1  0  0  0  0
  3 28  1  0  0  0  0
  5  9  1  0  0  0  0
  5 25  1  0  0  0  0
  5 29  1  6  0  0  0
  6  7  1  6  0  0  0
  6 11  1  0  0  0  0
  8 12  1  0  0  0  0
  9 10  1  6  0  0  0
  9 14  1  0  0  0  0
 11 16  1  0  0  0  0
 12 13  1  1  0  0  0
 12 17  1  0  0  0  0
 14 15  1  6  0  0  0
 14 18  1  0  0  0  0
 15 31  1  0  0  0  0
 16 20  1  0  0  0  0
 17  2  1  6  0  0  0
 17 22  1  0  0  0  0
 18 19  1  1  0  0  0
 18 24  1  0  0  0  0
 18 30  1  0  0  0  0
 20 21  1  0  0  0  0
 20 26  1  6  0  0  0
 22 23  1  1  0  0  0
 22 28  1  0  0  0  0
 24 25  1  0  0  0  0
 26 27  1  0  0  0  0
 28 29  1  6  0  0  0
M  END
>  <CHROM.1>
166.41378474,141.58573971,44.60813135,171.39875589,-19.99065011,116.09776319
-10.27007097,15.14209282,2.53476626,1.12078417,-0.13890634,-0.32645103

>  <Name>
ligand

>  <RI>
0

>  <Rbt.Current_Directory>
/home/itssahil/PROJECTS/Mol_Feturizer/New_Systems/rnas/4GPX

>  <Rbt.Executable>
rbdock ($Id: //depot/dev/client3/rdock/2013.1/src/exe/rbdock.cxx#4 $)

>  <Rbt.Library>
libRbt.so (2013.1, Build901 2013/11/27)

>  <Rbt.Parameter_File>
/export/apps/rDock/src/rDock_2013.1_src/data/scripts/dock_solv.prm

>  <Rbt.Receptor>
prm/blind_docking_100.prm

>  <SCORE>
4.53654

>  <SCORE.INTER>
1.27585

>  <SCORE.INTER.CONST>
1

>  <SCORE.INTER.POLAR>
0

>  <SCORE.INTER.ROT>
6

>  <SCORE.INTER.SOLV>
29.9013

>  <SCORE.INTER.VDW>
-16.7165

>  <SCORE.INTER.norm>
0.0411566

>  <SCORE.INTRA>
0.817088

>  <SCORE.INTRA.DIHEDRAL>
-4.84386

>  <SCORE.INTRA.DIHEDRAL.0>
20.6841

>  <SCORE.INTRA.POLAR>
0

>  <SCORE.INTRA.POLAR.0>
0

>  <SCORE.INTRA.REPUL>
0

>  <SCORE.INTRA.REPUL.0>
0

>  <SCORE.INTRA.SOLV>
-1.91713

>  <SCORE.INTRA.SOLV.lig_0>
-64.6797

>  <SCORE.INTRA.VDW>
4.19758

>  <SCORE.INTRA.VDW.0>
-4.11825

>  <SCORE.INTRA.norm>
0.0263577

>  <SCORE.RESTR>
2.4436

>  <SCORE.RESTR.CAVITY>
2.4436

>  <SCORE.RESTR.norm>
0.0788258

>  <SCORE.SYSTEM>
0

>  <SCORE.SYSTEM.CONST>
0

>  <SCORE.SYSTEM.DIHEDRAL>
0

>  <SCORE.SYSTEM.SOLV>
0

>  <SCORE.SYSTEM.norm>
0

>  <SCORE.heavy>
31

>  <SCORE.norm>
0.14634

>  <RMSD>
11.111

$$$$
ligand
 OpenBabel11021811493D
libRbt.so/2013.1/901 2013/11/27
 31 33  0  0  0  0  0  0  0  0999 V2000
   -9.7891   17.0517    0.4930 C   0  0  2  0  0  0  0  0  0  0  0  0
   -8.5626   16.7447    1.1491 O   0  0  0  0  0  0  0  0  0  0  0  0
   -7.5101   13.5574    3.7601 C   0  0  2  0  0  0  0  0  0  0  0  0
   -7.3651   12.7956    4.9624 N   0  0  0  0  0  0  0  0  0  0  0  0
  -10.7258   12.1332    4.2527 C   0  0  2  0  0  0  0  0  0  0  0  0
   -9.4060   17.7617   -0.8691 C   0  0  2  0  0  0  0  0  0  0  0  0
   -8.5798   16.8520   -1.6558 N   0  0  0  0  0  0  0  0  0  0  0  0
   -6.7637   14.9415    3.9531 C   0  0  0  0  0  0  0  0  0  0  0  0
  -11.7943   11.4301    3.3569 C   0  0  2  0  0  0  0  0  0  0  0  0
  -11.1627   10.3856    2.6478 O   0  0  0  0  0  0  0  0  0  0  0  0
   -8.6358   19.1132   -0.5877 C   0  0  0  0  0  0  0  0  0  0  0  0
   -6.9235   15.7839    2.6324 C   0  0  2  0  0  0  0  0  0  0  0  0
   -6.2360   17.0747    2.8079 N   0  0  0  0  0  0  0  0  0  0  0  0
  -12.3652   12.5180    2.3698 C   0  0  1  0  0  0  0  0  0  0  0  0
  -13.3875   11.8948    1.4656 N   0  0  0  0  0  0  0  0  0  0  0  0
   -9.2105   19.8830    0.6759 C   0  0  0  0  0  0  0  0  0  0  0  0
   -8.4684   16.0195    2.3268 C   0  0  2  0  0  0  0  0  0  0  0  0
  -13.0724   13.6849    3.2623 C   0  0  1  0  0  0  0  0  0  0  0  0
  -14.1103   13.1790    4.0845 O   0  0  0  0  0  0  0  0  0  0  0  0
  -10.1135   19.2947    1.5043 C   0  0  2  0  0  0  0  0  0  0  0  0
  -10.5973   17.9632    1.2930 O   0  0  0  0  0  0  0  0  0  0  0  0
   -9.1863   14.6305    2.1497 C   0  0  2  0  0  0  0  0  0  0  0  0
  -10.5877   14.8533    1.8830 O   0  0  0  0  0  0  0  0  0  0  0  0
  -12.0173   14.3417    4.2106 C   0  0  0  0  0  0  0  0  0  0  0  0
  -11.3558   13.2697    5.0359 O   0  0  0  0  0  0  0  0  0  0  0  0
  -10.6977   19.9963    2.7319 C   0  0  0  0  0  0  0  0  0  0  0  0
  -10.2596   19.2794    3.9103 O   0  0  0  0  0  0  0  0  0  0  0  0
   -9.0355   13.8132    3.4856 C   0  0  1  0  0  0  0  0  0  0  0  0
   -9.6931   12.5959    3.3228 O   0  0  0  0  0  0  0  0  0  0  0  0
  -13.6931   14.8445    2.4464 C   0  0  0  0  0  0  0  0  0  0  0  0
  -12.8822   10.9586    0.4407 C   0  0  0  0  0  0  0  0  0  0  0  0
  1  2  1  1  0  0  0
  1  6  1  0  0  0  0
  1 21  1  0  0  0  0
  3  4  1  1  0  0  0
  3  8  1  0  0  0  0
  3 28  1  0  0  0  0
  5  9  1  0  0  0  0
  5 25  1  0  0  0  0
  5 29  1  6  0  0  0
  6  7  1  6  0  0  0
  6 11  1  0  0  0  0
  8 12  1  0  0  0  0
  9 10  1  6  0  0  0
  9 14  1  0  0  0  0
 11 16  1  0  0  0  0
 12 13  1  1  0  0  0
 12 17  1  0  0  0  0
 14 15  1  6  0  0  0
 14 18  1  0  0  0  0
 15 31  1  0  0  0  0
 16 20  1  0  0  0  0
 17  2  1  6  0  0  0
 17 22  1  0  0  0  0
 18 19  1  1  0  0  0
 18 24  1  0  0  0  0
 18 30  1  0  0  0  0
 20 21  1  0  0  0  0
 20 26  1  6  0  0  0
 22 23  1  1  0  0  0
 22 28  1  0  0  0  0
 24 25  1  0  0  0  0
 26 27  1  0  0  0  0
 28 29  1  6  0  0  0
M  END
>  <CHROM.1>
-174.57470592,142.14129516,-70.69636103,174.45055034,-115.27551138,115.47956078
-10.17401277,15.10737113,2.38376407,1.13110373,-0.27081877,-0.43029289

>  <Name>
ligand

>  <RI>
0

>  <Rbt.Current_Directory>
/home/itssahil/PROJECTS/Mol_Feturizer/New_Systems/rnas/4GPX

>  <Rbt.Executable>
rbdock ($Id: //depot/dev/client3/rdock/2013.1/src/exe/rbdock.cxx#4 $)

>  <Rbt.Library>
libRbt.so (2013.1, Build901 2013/11/27)

>  <Rbt.Parameter_File>
/export/apps/rDock/src/rDock_2013.1_src/data/scripts/dock_solv.prm

>  <Rbt.Receptor>
prm/blind_docking_100.prm

>  <SCORE>
2.29093

>  <SCORE.INTER>
2.02469

>  <SCORE.INTER.CONST>
1

>  <SCORE.INTER.POLAR>
0

>  <SCORE.INTER.ROT>
6

>  <SCORE.INTER.SOLV>
31.3038

>  <SCORE.INTER.VDW>
-16.6848

>  <SCORE.INTER.norm>
0.0653125

>  <SCORE.INTRA>
-2.02622

>  <SCORE.INTRA.DIHEDRAL>
-6.44402

>  <SCORE.INTRA.DIHEDRAL.0>
20.6841

>  <SCORE.INTRA.POLAR>
0

>  <SCORE.INTRA.POLAR.0>
0

>  <SCORE.INTRA.REPUL>
0

>  <SCORE.INTRA.REPUL.0>
0

>  <SCORE.INTRA.SOLV>
-1.99152

>  <SCORE.INTRA.SOLV.lig_0>
-64.6797

>  <SCORE.INTRA.VDW>
2.19155

>  <SCORE.INTRA.VDW.0>
-4.11825

>  <SCORE.INTRA.norm>
-0.065362

>  <SCORE.RESTR>
2.29247

>  <SCORE.RESTR.CAVITY>
2.29247

>  <SCORE.RESTR.norm>
0.0739506

>  <SCORE.SYSTEM>
0

>  <SCORE.SYSTEM.CONST>
0

>  <SCORE.SYSTEM.DIHEDRAL>
0

>  <SCORE.SYSTEM.SOLV>
0

>  <SCORE.SYSTEM.norm>
0

>  <SCORE.heavy>
31

>  <SCORE.norm>
0.0739011

>  <RMSD>
11.115

$$$$
ligand
 OpenBabel11021811493D
libRbt.so/2013.1/901 2013/11/27
 31 33  0  0  0  0  0  0  0  0999 V2000
   -6.0472   14.9004    2.8402 C   0  0  2  0  0  0  0  0  0  0  0  0
   -7.3927   15.2853    3.1058 O   0  0  0  0  0  0  0  0  0  0  0  0
  -11.4187   15.1386    1.7440 C   0  0  2  0  0  0  0  0  0  0  0  0
  -12.5553   14.8111    0.9392 N   0  0  0  0  0  0  0  0  0  0  0  0
  -11.3277   12.1030    4.0503 C   0  0  2  0  0  0  0  0  0  0  0  0
   -5.8776   13.4331    3.4098 C   0  0  2  0  0  0  0  0  0  0  0  0
   -6.8365   12.5578    2.7439 N   0  0  0  0  0  0  0  0  0  0  0  0
  -10.3628   15.8913    0.8339 C   0  0  0  0  0  0  0  0  0  0  0  0
  -11.3759   10.7767    3.2273 C   0  0  2  0  0  0  0  0  0  0  0  0
  -10.4958   10.9015    2.1307 O   0  0  0  0  0  0  0  0  0  0  0  0
   -6.1032   13.4205    4.9743 C   0  0  0  0  0  0  0  0  0  0  0  0
   -9.1090   16.2511    1.7160 C   0  0  2  0  0  0  0  0  0  0  0  0
   -8.1210   16.9466    0.8735 N   0  0  0  0  0  0  0  0  0  0  0  0
  -12.8619   10.5835    2.7393 C   0  0  1  0  0  0  0  0  0  0  0  0
  -12.9677    9.3296    1.9223 N   0  0  0  0  0  0  0  0  0  0  0  0
   -5.5108   14.7134    5.6795 C   0  0  0  0  0  0  0  0  0  0  0  0
   -8.4771   14.9213    2.3226 C   0  0  2  0  0  0  0  0  0  0  0  0
  -13.8109   10.4511    4.0585 C   0  0  1  0  0  0  0  0  0  0  0  0
  -13.4263    9.3709    4.8919 O   0  0  0  0  0  0  0  0  0  0  0  0
   -5.0679   15.7701    4.9481 C   0  0  2  0  0  0  0  0  0  0  0  0
   -5.1063   15.7843    3.5164 O   0  0  0  0  0  0  0  0  0  0  0  0
   -9.5486   14.1896    3.2128 C   0  0  2  0  0  0  0  0  0  0  0  0
   -8.9707   12.9806    3.7503 O   0  0  0  0  0  0  0  0  0  0  0  0
  -13.7084   11.7517    4.9198 C   0  0  0  0  0  0  0  0  0  0  0  0
  -12.2623   12.0209    5.2426 O   0  0  0  0  0  0  0  0  0  0  0  0
   -4.4869   17.0357    5.5813 C   0  0  0  0  0  0  0  0  0  0  0  0
   -3.8886   17.8304    4.5302 O   0  0  0  0  0  0  0  0  0  0  0  0
  -10.7827   13.8185    2.3101 C   0  0  1  0  0  0  0  0  0  0  0  0
  -11.7135   13.1530    3.1048 O   0  0  0  0  0  0  0  0  0  0  0  0
  -15.3171   10.2535    3.7617 C   0  0  0  0  0  0  0  0  0  0  0  0
  -13.0088    9.4967    0.4551 C   0  0  0  0  0  0  0  0  0  0  0  0
  1  2  1  1  0  0  0
  1  6  1  0  0  0  0
  1 21  1  0  0  0  0
  3  4  1  6  0  0  0
  3  8  1  0  0  0  0
  3 28  1  0  0  0  0
  5  9  1  0  0  0  0
  5 25  1  0  0  0  0
  5 29  1  6  0  0  0
  6  7  1  6  0  0  0
  6 11  1  0  0  0  0
  8 12  1  0  0  0  0
  9 10  1  6  0  0  0
  9 14  1  0  0  0  0
 11 16  1  0  0  0  0
 12 13  1  6  0  0  0
 12 17  1  0  0  0  0
 14 15  1  6  0  0  0
 14 18  1  0  0  0  0
 15 31  1  0  0  0  0
 16 20  1  0  0  0  0
 17  2  1  1  0  0  0
 17 22  1  0  0  0  0
 18 19  1  1  0  0  0
 18 24  1  0  0  0  0
 18 30  1  0  0  0  0
 20 21  1  0  0  0  0
 20 26  1  6  0  0  0
 22 23  1  6  0  0  0
 22 28  1  0  0  0  0
 24 25  1  0  0  0  0
 26 27  1  0  0  0  0
 28 29  1  1  0  0  0
M  END
>  <CHROM.1>
-81.55888593,-89.04428372,-101.55146502,-116.98521134,169.19794328,-163.19652531
-9.60496685,13.40269575,3.22919320,0.37953196,-0.48313757,-0.71445826

>  <Name>
ligand

>  <RI>
0

>  <Rbt.Current_Directory>
/home/itssahil/PROJECTS/Mol_Feturizer/New_Systems/rnas/4GPX

>  <Rbt.Executable>
rbdock ($Id: //depot/dev/client3/rdock/2013.1/src/exe/rbdock.cxx#4 $)

>  <Rbt.Library>
libRbt.so (2013.1, Build901 2013/11/27)

>  <Rbt.Parameter_File>
/export/apps/rDock/src/rDock_2013.1_src/data/scripts/dock_solv.prm

>  <Rbt.Receptor>
prm/blind_docking_20.prm

>  <SCORE>
10.2928

>  <SCORE.INTER>
-1.027

>  <SCORE.INTER.CONST>
1

>  <SCORE.INTER.POLAR>
0

>  <SCORE.INTER.ROT>
6

>  <SCORE.INTER.SOLV>
27.8454

>  <SCORE.INTER.VDW>
-17.5665

>  <SCORE.INTER.norm>
-0.0331292

>  <SCORE.INTRA>
3.16235

>  <SCORE.INTRA.DIHEDRAL>
-2.34919

>  <SCORE.INTRA.DIHEDRAL.0>
20.6841

>  <SCORE.INTRA.POLAR>
0

>  <SCORE.INTRA.POLAR.0>
0

>  <SCORE.INTRA.REPUL>
0

>  <SCORE.INTRA.REPUL.0>
0

>  <SCORE.INTRA.SOLV>
0.59911

>  <SCORE.INTRA.SOLV.lig_0>
-64.6797

>  <SCORE.INTRA.VDW>
4.03739

>  <SCORE.INTRA.VDW.0>
-4.11825

>  <SCORE.INTRA.norm>
0.102011

>  <SCORE.RESTR>
8.1575

>  <SCORE.RESTR.CAVITY>
8.1575

>  <SCORE.RESTR.norm>
0.263145

>  <SCORE.SYSTEM>
0

>  <SCORE.SYSTEM.CONST>
0

>  <SCORE.SYSTEM.DIHEDRAL>
0

>  <SCORE.SYSTEM.SOLV>
0

>  <SCORE.SYSTEM.norm>
0

>  <SCORE.heavy>
31

>  <SCORE.norm>
0.332027

>  <RMSD>
11.117

$$$$
ligand
 OpenBabel11021811493D
libRbt.so/2013.1/901 2013/11/27
 31 33  0  0  0  0  0  0  0  0999 V2000
   -9.7922   17.0626    0.5069 C   0  0  2  0  0  0  0  0  0  0  0  0
   -8.5657   16.7775    1.1729 O   0  0  0  0  0  0  0  0  0  0  0  0
   -7.5081   13.5491    3.7308 C   0  0  2  0  0  0  0  0  0  0  0  0
   -7.3575   12.7698    4.9212 N   0  0  0  0  0  0  0  0  0  0  0  0
  -10.7195   12.1279    4.2331 C   0  0  2  0  0  0  0  0  0  0  0  0
   -9.4896   18.2360   -0.5117 C   0  0  2  0  0  0  0  0  0  0  0  0
   -8.4544   17.7952   -1.4408 N   0  0  0  0  0  0  0  0  0  0  0  0
   -6.7540   14.9269    3.9376 C   0  0  0  0  0  0  0  0  0  0  0  0
  -11.7889   11.4185    3.3434 C   0  0  2  0  0  0  0  0  0  0  0  0
  -11.1536   10.3826    2.6251 O   0  0  0  0  0  0  0  0  0  0  0  0
   -9.0273   19.5331    0.2646 C   0  0  0  0  0  0  0  0  0  0  0  0
   -6.9198   15.7886    2.6300 C   0  0  2  0  0  0  0  0  0  0  0  0
   -6.2251   17.0737    2.8184 N   0  0  0  0  0  0  0  0  0  0  0  0
  -12.3778   12.5049    2.3652 C   0  0  1  0  0  0  0  0  0  0  0  0
  -13.4017   11.8758    1.4669 N   0  0  0  0  0  0  0  0  0  0  0  0
   -9.8136   19.7317    1.6291 C   0  0  0  0  0  0  0  0  0  0  0  0
   -8.4659   16.0354    2.3396 C   0  0  2  0  0  0  0  0  0  0  0  0
  -13.0882   13.6618    3.2680 C   0  0  1  0  0  0  0  0  0  0  0  0
  -14.1147   13.1433    4.0967 O   0  0  0  0  0  0  0  0  0  0  0  0
  -10.6206   18.7551    2.1217 C   0  0  2  0  0  0  0  0  0  0  0  0
  -10.8108   17.5038    1.4512 O   0  0  0  0  0  0  0  0  0  0  0  0
   -9.1915   14.6523    2.1484 C   0  0  2  0  0  0  0  0  0  0  0  0
  -10.5938   14.8851    1.8956 O   0  0  0  0  0  0  0  0  0  0  0  0
  -12.0314   14.3247    4.2102 C   0  0  0  0  0  0  0  0  0  0  0  0
  -11.3535   13.2556    5.0259 O   0  0  0  0  0  0  0  0  0  0  0  0
  -11.4003   18.9005    3.4299 C   0  0  0  0  0  0  0  0  0  0  0  0
  -10.9532   20.1095    4.0877 O   0  0  0  0  0  0  0  0  0  0  0  0
   -9.0343   13.8156    3.4715 C   0  0  1  0  0  0  0  0  0  0  0  0
   -9.6987   12.6037    3.2967 O   0  0  0  0  0  0  0  0  0  0  0  0
  -13.7262   14.8188    2.4617 C   0  0  0  0  0  0  0  0  0  0  0  0
  -12.8997   10.9226    0.4561 C   0  0  0  0  0  0  0  0  0  0  0  0
  1  2  1  1  0  0  0
  1  6  1  0  0  0  0
  1 21  1  0  0  0  0
  3  4  1  1  0  0  0
  3  8  1  0  0  0  0
  3 28  1  0  0  0  0
  5  9  1  0  0  0  0
  5 25  1  0  0  0  0
  5 29  1  6  0  0  0
  6  7  1  6  0  0  0
  6 11  1  0  0  0  0
  8 12  1  0  0  0  0
  9 10  1  6  0  0  0
  9 14  1  0  0  0  0
 11 16  1  0  0  0  0
 12 13  1  1  0  0  0
 12 17  1  0  0  0  0
 14 15  1  6  0  0  0
 14 18  1  0  0  0  0
 15 31  1  0  0  0  0
 16 20  1  0  0  0  0
 17  2  1  6  0  0  0
 17 22  1  0  0  0  0
 18 19  1  1  0  0  0
 18 24  1  0  0  0  0
 18 30  1  0  0  0  0
 20 21  1  0  0  0  0
 20 26  1  6  0  0  0
 22 23  1  1  0  0  0
 22 28  1  0  0  0  0
 24 25  1  0  0  0  0
 26 27  1  0  0  0  0
 28 29  1  6  0  0  0
M  END
>  <CHROM.1>
164.69479350,143.28596989,-69.23258381,172.31801717,-8.85549794,115.02037248
-10.27716406,15.11860740,2.50928653,1.16531590,-0.14906489,-0.30894090

>  <Name>
ligand

>  <RI>
0

>  <Rbt.Current_Directory>
/home/itssahil/PROJECTS/Mol_Feturizer/New_Systems/rnas/4GPX

>  <Rbt.Executable>
rbdock ($Id: //depot/dev/client3/rdock/2013.1/src/exe/rbdock.cxx#4 $)

>  <Rbt.Library>
libRbt.so (2013.1, Build901 2013/11/27)

>  <Rbt.Parameter_File>
/export/apps/rDock/src/rDock_2013.1_src/data/scripts/dock_solv.prm

>  <Rbt.Receptor>
prm/blind_docking_100.prm

>  <SCORE>
2.81546

>  <SCORE.INTER>
1.15139

>  <SCORE.INTER.CONST>
1

>  <SCORE.INTER.POLAR>
0

>  <SCORE.INTER.ROT>
6

>  <SCORE.INTER.SOLV>
29.9292

>  <SCORE.INTER.VDW>
-16.8088

>  <SCORE.INTER.norm>
0.0371416

>  <SCORE.INTRA>
-0.579588

>  <SCORE.INTRA.DIHEDRAL>
-5.52986

>  <SCORE.INTRA.DIHEDRAL.0>
20.6841

>  <SCORE.INTRA.POLAR>
0

>  <SCORE.INTRA.POLAR.0>
0

>  <SCORE.INTRA.REPUL>
0

>  <SCORE.INTRA.REPUL.0>
0

>  <SCORE.INTRA.SOLV>
-2.02326

>  <SCORE.INTRA.SOLV.lig_0>
-64.6797

>  <SCORE.INTRA.VDW>
3.19697

>  <SCORE.INTRA.VDW.0>
-4.11825

>  <SCORE.INTRA.norm>
-0.0186964

>  <SCORE.RESTR>
2.24366

>  <SCORE.RESTR.CAVITY>
2.24366

>  <SCORE.RESTR.norm>
0.0723761

>  <SCORE.SYSTEM>
0

>  <SCORE.SYSTEM.CONST>
0

>  <SCORE.SYSTEM.DIHEDRAL>
0

>  <SCORE.SYSTEM.SOLV>
0

>  <SCORE.SYSTEM.norm>
0

>  <SCORE.heavy>
31

>  <SCORE.norm>
0.0908213

>  <RMSD>
11.119

$$$$
ligand
 OpenBabel11021811493D
libRbt.so/2013.1/901 2013/11/27
 31 33  0  0  0  0  0  0  0  0999 V2000
   -9.8662   17.1120    0.5612 C   0  0  2  0  0  0  0  0  0  0  0  0
   -8.6251   16.8072    1.1903 O   0  0  0  0  0  0  0  0  0  0  0  0
   -7.5092   13.5518    3.6886 C   0  0  2  0  0  0  0  0  0  0  0  0
   -7.3340   12.7586    4.8664 N   0  0  0  0  0  0  0  0  0  0  0  0
  -10.7159   12.1187    4.2241 C   0  0  2  0  0  0  0  0  0  0  0  0
   -9.5480   18.1667   -0.5756 C   0  0  2  0  0  0  0  0  0  0  0  0
   -8.5941   17.5767   -1.5090 N   0  0  0  0  0  0  0  0  0  0  0  0
   -6.7565   14.9300    3.8986 C   0  0  0  0  0  0  0  0  0  0  0  0
  -11.7870   11.4062    3.3389 C   0  0  2  0  0  0  0  0  0  0  0  0
  -11.1505   10.3761    2.6132 O   0  0  0  0  0  0  0  0  0  0  0  0
   -8.9650   19.4947    0.0532 C   0  0  0  0  0  0  0  0  0  0  0  0
   -6.9493   15.8069    2.6050 C   0  0  2  0  0  0  0  0  0  0  0  0
   -6.2560   17.0923    2.7965 N   0  0  0  0  0  0  0  0  0  0  0  0
  -12.3881   12.4923    2.3680 C   0  0  1  0  0  0  0  0  0  0  0  0
  -13.4142   11.8603    1.4742 N   0  0  0  0  0  0  0  0  0  0  0  0
   -9.6620   19.8666    1.4301 C   0  0  0  0  0  0  0  0  0  0  0  0
   -8.5013   16.0512    2.3457 C   0  0  2  0  0  0  0  0  0  0  0  0
  -13.0993   13.6424    3.2790 C   0  0  1  0  0  0  0  0  0  0  0  0
  -14.1175   13.1154    4.1125 O   0  0  0  0  0  0  0  0  0  0  0  0
  -10.4995   18.9937    2.0501 C   0  0  2  0  0  0  0  0  0  0  0  0
  -10.8027   17.7027    1.5088 O   0  0  0  0  0  0  0  0  0  0  0  0
   -9.2252   14.6677    2.1508 C   0  0  2  0  0  0  0  0  0  0  0  0
  -10.6327   14.8980    1.9263 O   0  0  0  0  0  0  0  0  0  0  0  0
  -12.0402   14.3081    4.2166 C   0  0  0  0  0  0  0  0  0  0  0  0
  -11.3511   13.2403    5.0245 O   0  0  0  0  0  0  0  0  0  0  0  0
  -11.1962   19.3073    3.3755 C   0  0  0  0  0  0  0  0  0  0  0  0
  -10.1804   19.4336    4.3985 O   0  0  0  0  0  0  0  0  0  0  0  0
   -9.0408   13.8154    3.4604 C   0  0  1  0  0  0  0  0  0  0  0  0
   -9.7038   12.6032    3.2827 O   0  0  0  0  0  0  0  0  0  0  0  0
  -13.7489   14.7983    2.4805 C   0  0  0  0  0  0  0  0  0  0  0  0
  -12.9106   10.9359    0.4379 C   0  0  0  0  0  0  0  0  0  0  0  0
  1  2  1  1  0  0  0
  1  6  1  0  0  0  0
  1 21  1  0  0  0  0
  3  4  1  1  0  0  0
  3  8  1  0  0  0  0
  3 28  1  0  0  0  0
  5  9  1  0  0  0  0
  5 25  1  0  0  0  0
  5 29  1  6  0  0  0
  6  7  1  6  0  0  0
  6 11  1  0  0  0  0
  8 12  1  0  0  0  0
  9 10  1  6  0  0  0
  9 14  1  0  0  0  0
 11 16  1  0  0  0  0
 12 13  1  1  0  0  0
 12 17  1  0  0  0  0
 14 15  1  6  0  0  0
 14 18  1  0  0  0  0
 15 31  1  0  0  0  0
 16 20  1  0  0  0  0
 17  2  1  6  0  0  0
 17 22  1  0  0  0  0
 18 19  1  1  0  0  0
 18 24  1  0  0  0  0
 18 30  1  0  0  0  0
 20 21  1  0  0  0  0
 20 26  1  6  0  0  0
 22 23  1  1  0  0  0
 22 28  1  0  0  0  0
 24 25  1  0  0  0  0
 26 27  1  0  0  0  0
 28 29  1  6  0  0  0
M  END
>  <CHROM.1>
171.47111758,143.57668712,-70.53025657,173.28707995,-65.14718213,115.68828191
-10.24959045,15.11562604,2.49929939,1.14287545,-0.21903321,-0.34644641

>  <Name>
ligand

>  <RI>
0

>  <Rbt.Current_Directory>
/home/itssahil/PROJECTS/Mol_Feturizer/New_Systems/rnas/4GPX

>  <Rbt.Executable>
rbdock ($Id: //depot/dev/client3/rdock/2013.1/src/exe/rbdock.cxx#4 $)

>  <Rbt.Library>
libRbt.so (2013.1, Build901 2013/11/27)

>  <Rbt.Parameter_File>
/export/apps/rDock/src/rDock_2013.1_src/data/scripts/dock_solv.prm

>  <Rbt.Receptor>
prm/blind_docking_100.prm

>  <SCORE>
1.94126

>  <SCORE.INTER>
0.657535

>  <SCORE.INTER.CONST>
1

>  <SCORE.INTER.POLAR>
0

>  <SCORE.INTER.ROT>
6

>  <SCORE.INTER.SOLV>
30.0859

>  <SCORE.INTER.VDW>
-17.1903

>  <SCORE.INTER.norm>
0.0212108

>  <SCORE.INTRA>
-1.01214

>  <SCORE.INTRA.DIHEDRAL>
-4.55601

>  <SCORE.INTRA.DIHEDRAL.0>
20.6841

>  <SCORE.INTRA.POLAR>
0

>  <SCORE.INTRA.POLAR.0>
0

>  <SCORE.INTRA.REPUL>
0

>  <SCORE.INTRA.REPUL.0>
0

>  <SCORE.INTRA.SOLV>
-2.12046

>  <SCORE.INTRA.SOLV.lig_0>
-64.6797

>  <SCORE.INTRA.VDW>
2.3261

>  <SCORE.INTRA.VDW.0>
-4.11825

>  <SCORE.INTRA.norm>
-0.0326496

>  <SCORE.RESTR>
2.29587

>  <SCORE.RESTR.CAVITY>
2.29587

>  <SCORE.RESTR.norm>
0.0740602

>  <SCORE.SYSTEM>
0

>  <SCORE.SYSTEM.CONST>
0

>  <SCORE.SYSTEM.DIHEDRAL>
0

>  <SCORE.SYSTEM.SOLV>
0

>  <SCORE.SYSTEM.norm>
0

>  <SCORE.heavy>
31

>  <SCORE.norm>
0.0626214

>  <RMSD>
11.123

$$$$
ligand
 OpenBabel11021811493D
libRbt.so/2013.1/901 2013/11/27
 31 33  0  0  0  0  0  0  0  0999 V2000
   -9.9225   17.1427    0.5871 C   0  0  2  0  0  0  0  0  0  0  0  0
   -8.6727   16.8213    1.1904 O   0  0  0  0  0  0  0  0  0  0  0  0
   -7.5262   13.5493    3.6528 C   0  0  2  0  0  0  0  0  0  0  0  0
   -7.3365   12.7483    4.8230 N   0  0  0  0  0  0  0  0  0  0  0  0
  -10.6907   12.0899    4.2432 C   0  0  2  0  0  0  0  0  0  0  0  0
   -9.6120   18.1809   -0.5668 C   0  0  2  0  0  0  0  0  0  0  0  0
   -8.6908   17.5652   -1.5163 N   0  0  0  0  0  0  0  0  0  0  0  0
   -6.7707   14.9260    3.8625 C   0  0  0  0  0  0  0  0  0  0  0  0
  -11.7472   11.3102    3.3980 C   0  0  2  0  0  0  0  0  0  0  0  0
  -11.0797   10.2977    2.6757 O   0  0  0  0  0  0  0  0  0  0  0  0
   -8.9909   19.5039    0.0355 C   0  0  0  0  0  0  0  0  0  0  0  0
   -6.9795   15.8115    2.5773 C   0  0  2  0  0  0  0  0  0  0  0  0
   -6.2837   17.0955    2.7686 N   0  0  0  0  0  0  0  0  0  0  0  0
  -12.4230   12.3475    2.4228 C   0  0  1  0  0  0  0  0  0  0  0  0
  -13.4388   11.6502    1.5666 N   0  0  0  0  0  0  0  0  0  0  0  0
   -9.6489   19.9010    1.4244 C   0  0  0  0  0  0  0  0  0  0  0  0
   -8.5346   16.0577    2.3391 C   0  0  2  0  0  0  0  0  0  0  0  0
  -13.1665   13.4799    3.3301 C   0  0  1  0  0  0  0  0  0  0  0  0
  -14.1379   12.9214    4.1983 O   0  0  0  0  0  0  0  0  0  0  0  0
  -10.4872   19.0492    2.0720 C   0  0  2  0  0  0  0  0  0  0  0  0
  -10.8259   17.7590    1.5504 O   0  0  0  0  0  0  0  0  0  0  0  0
   -9.2611   14.6755    2.1440 C   0  0  2  0  0  0  0  0  0  0  0  0
  -10.6713   14.9075    1.9388 O   0  0  0  0  0  0  0  0  0  0  0  0
  -12.1184   14.2133    4.2287 C   0  0  0  0  0  0  0  0  0  0  0  0
  -11.3596   13.1953    5.0385 O   0  0  0  0  0  0  0  0  0  0  0  0
  -11.1473   19.3875    3.4101 C   0  0  0  0  0  0  0  0  0  0  0  0
  -11.9986   18.2788    3.7844 O   0  0  0  0  0  0  0  0  0  0  0  0
   -9.0605   13.8146    3.4455 C   0  0  1  0  0  0  0  0  0  0  0  0
   -9.7259   12.6036    3.2682 O   0  0  0  0  0  0  0  0  0  0  0  0
  -13.8898   14.5879    2.5272 C   0  0  0  0  0  0  0  0  0  0  0  0
  -12.9153   10.7704    0.5017 C   0  0  0  0  0  0  0  0  0  0  0  0
  1  2  1  1  0  0  0
  1  6  1  0  0  0  0
  1 21  1  0  0  0  0
  3  4  1  1  0  0  0
  3  8  1  0  0  0  0
  3 28  1  0  0  0  0
  5  9  1  0  0  0  0
  5 25  1  0  0  0  0
  5 29  1  6  0  0  0
  6  7  1  6  0  0  0
  6 11  1  0  0  0  0
  8 12  1  0  0  0  0
  9 10  1  6  0  0  0
  9 14  1  0  0  0  0
 11 16  1  0  0  0  0
 12 13  1  1  0  0  0
 12 17  1  0  0  0  0
 14 15  1  6  0  0  0
 14 18  1  0  0  0  0
 15 31  1  0  0  0  0
 16 20  1  0  0  0  0
 17  2  1  6  0  0  0
 17 22  1  0  0  0  0
 18 19  1  1  0  0  0
 18 24  1  0  0  0  0
 18 30  1  0  0  0  0
 20 21  1  0  0  0  0
 20 26  1  6  0  0  0
 22 23  1  1  0  0  0
 22 28  1  0  0  0  0
 24 25  1  0  0  0  0
 26 27  1  0  0  0  0
 28 29  1  6  0  0  0
M  END
>  <CHROM.1>
172.44777298,147.33540184,-72.77353367,174.00789221,178.32278712,113.42716911
-10.33882013,15.03659591,2.49239963,1.15826767,-0.13274821,-0.33901742

>  <Name>
ligand

>  <RI>
0

>  <Rbt.Current_Directory>
/home/itssahil/PROJECTS/Mol_Feturizer/New_Systems/rnas/4GPX

>  <Rbt.Executable>
rbdock ($Id: //depot/dev/client3/rdock/2013.1/src/exe/rbdock.cxx#4 $)

>  <Rbt.Library>
libRbt.so (2013.1, Build901 2013/11/27)

>  <Rbt.Parameter_File>
/export/apps/rDock/src/rDock_2013.1_src/data/scripts/dock_solv.prm

>  <Rbt.Receptor>
prm/blind_docking_100.prm

>  <SCORE>
2.04604

>  <SCORE.INTER>
1.36277

>  <SCORE.INTER.CONST>
1

>  <SCORE.INTER.POLAR>
0

>  <SCORE.INTER.ROT>
6

>  <SCORE.INTER.SOLV>
29.1498

>  <SCORE.INTER.VDW>
-16.4081

>  <SCORE.INTER.norm>
0.0439602

>  <SCORE.INTRA>
-1.81685

>  <SCORE.INTRA.DIHEDRAL>
-5.41104

>  <SCORE.INTRA.DIHEDRAL.0>
20.6841

>  <SCORE.INTRA.POLAR>
0

>  <SCORE.INTRA.POLAR.0>
0

>  <SCORE.INTRA.REPUL>
0

>  <SCORE.INTRA.REPUL.0>
0

>  <SCORE.INTRA.SOLV>
-1.95773

>  <SCORE.INTRA.SOLV.lig_0>
-64.6797

>  <SCORE.INTRA.VDW>
1.86753

>  <SCORE.INTRA.VDW.0>
-4.11825

>  <SCORE.INTRA.norm>
-0.0586082

>  <SCORE.RESTR>
2.50012

>  <SCORE.RESTR.CAVITY>
2.50012

>  <SCORE.RESTR.norm>
0.0806491

>  <SCORE.SYSTEM>
0

>  <SCORE.SYSTEM.CONST>
0

>  <SCORE.SYSTEM.DIHEDRAL>
0

>  <SCORE.SYSTEM.SOLV>
0

>  <SCORE.SYSTEM.norm>
0

>  <SCORE.heavy>
31

>  <SCORE.norm>
0.0660012

>  <RMSD>
11.127

$$$$
ligand
 OpenBabel11021811493D
libRbt.so/2013.1/901 2013/11/27
 31 33  0  0  0  0  0  0  0  0999 V2000
   -9.8858   17.0835    0.5451 C   0  0  2  0  0  0  0  0  0  0  0  0
   -8.6438   16.7670    1.1669 O   0  0  0  0  0  0  0  0  0  0  0  0
   -7.5244   13.5539    3.7178 C   0  0  2  0  0  0  0  0  0  0  0  0
   -7.3509   12.7789    4.9078 N   0  0  0  0  0  0  0  0  0  0  0  0
  -10.7389   12.1222    4.2518 C   0  0  2  0  0  0  0  0  0  0  0  0
   -9.5662   18.1454   -0.5845 C   0  0  2  0  0  0  0  0  0  0  0  0
   -8.6192   17.5577   -1.5263 N   0  0  0  0  0  0  0  0  0  0  0  0
   -6.7787   14.9383    3.9105 C   0  0  0  0  0  0  0  0  0  0  0  0
  -11.8054   11.4082    3.3621 C   0  0  2  0  0  0  0  0  0  0  0  0
  -11.1686   10.3661    2.6542 O   0  0  0  0  0  0  0  0  0  0  0  0
   -8.9736   19.4653    0.0525 C   0  0  0  0  0  0  0  0  0  0  0  0
   -6.9698   15.7952    2.6033 C   0  0  2  0  0  0  0  0  0  0  0  0
   -6.2830   17.0864    2.7788 N   0  0  0  0  0  0  0  0  0  0  0  0
  -12.3880   12.4885    2.3736 C   0  0  1  0  0  0  0  0  0  0  0  0
  -13.4088   11.8547    1.4751 N   0  0  0  0  0  0  0  0  0  0  0  0
   -9.6632   19.8299    1.4349 C   0  0  0  0  0  0  0  0  0  0  0  0
   -8.5218   16.0288    2.3339 C   0  0  2  0  0  0  0  0  0  0  0  0
  -13.1007   13.6530    3.2648 C   0  0  1  0  0  0  0  0  0  0  0  0
  -14.1318   13.1420    4.0925 O   0  0  0  0  0  0  0  0  0  0  0  0
  -10.5031   18.9567    2.0513 C   0  0  2  0  0  0  0  0  0  0  0  0
  -10.8153   17.6717    1.5011 O   0  0  0  0  0  0  0  0  0  0  0  0
   -9.2387   14.6393    2.1563 C   0  0  2  0  0  0  0  0  0  0  0  0
  -10.6462   14.8600    1.9226 O   0  0  0  0  0  0  0  0  0  0  0  0
  -12.0471   14.3208    4.2072 C   0  0  0  0  0  0  0  0  0  0  0  0
  -11.3747   13.2565    5.0335 O   0  0  0  0  0  0  0  0  0  0  0  0
  -11.1930   19.2635    3.3819 C   0  0  0  0  0  0  0  0  0  0  0  0
  -10.1803   19.6814    4.3275 O   0  0  0  0  0  0  0  0  0  0  0  0
   -9.0562   13.8073    3.4792 C   0  0  1  0  0  0  0  0  0  0  0  0
   -9.7131   12.5896    3.3167 O   0  0  0  0  0  0  0  0  0  0  0  0
  -13.7331   14.8053    2.4475 C   0  0  0  0  0  0  0  0  0  0  0  0
  -12.8990   10.9289    0.4430 C   0  0  0  0  0  0  0  0  0  0  0  0
  1  2  1  1  0  0  0
  1  6  1  0  0  0  0
  1 21  1  0  0  0  0
  3  4  1  1  0  0  0
  3  8  1  0  0  0  0
  3 28  1  0  0  0  0
  5  9  1  0  0  0  0
  5 25  1  0  0  0  0
  5 29  1  6  0  0  0
  6  7  1  6  0  0  0
  6 11  1  0  0  0  0
  8 12  1  0  0  0  0
  9 10  1  6  0  0  0
  9 14  1  0  0  0  0
 11 16  1  0  0  0  0
 12 13  1  1  0  0  0
 12 17  1  0  0  0  0
 14 15  1  6  0  0  0
 14 18  1  0  0  0  0
 15 31  1  0  0  0  0
 16 20  1  0  0  0  0
 17  2  1  6  0  0  0
 17 22  1  0  0  0  0
 18 19  1  1  0  0  0
 18 24  1  0  0  0  0
 18 30  1  0  0  0  0
 20 21  1  0  0  0  0
 20 26  1  6  0  0  0
 22 23  1  1  0  0  0
 22 28  1  0  0  0  0
 24 25  1  0  0  0  0
 26 27  1  0  0  0  0
 28 29  1  6  0  0  0
M  END
>  <CHROM.1>
169.82493990,142.68325613,-71.26730198,174.82025600,-52.03113305,116.46189207
-10.26082253,15.11394079,2.49924054,1.14661750,-0.22517714,-0.34811739

>  <Name>
ligand

>  <RI>
0

>  <Rbt.Current_Directory>
/home/itssahil/PROJECTS/Mol_Feturizer/New_Systems/rnas/4GPX

>  <Rbt.Executable>
rbdock ($Id: //depot/dev/client3/rdock/2013.1/src/exe/rbdock.cxx#4 $)

>  <Rbt.Library>
libRbt.so (2013.1, Build901 2013/11/27)

>  <Rbt.Parameter_File>
/export/apps/rDock/src/rDock_2013.1_src/data/scripts/dock_solv.prm

>  <Rbt.Receptor>
prm/blind_docking_100.prm

>  <SCORE>
2.32141

>  <SCORE.INTER>
0.813946

>  <SCORE.INTER.CONST>
1

>  <SCORE.INTER.POLAR>
0

>  <SCORE.INTER.ROT>
6

>  <SCORE.INTER.SOLV>
29.8107

>  <SCORE.INTER.VDW>
-16.9943

>  <SCORE.INTER.norm>
0.0262563

>  <SCORE.INTRA>
-0.744494

>  <SCORE.INTRA.DIHEDRAL>
-4.34615

>  <SCORE.INTRA.DIHEDRAL.0>
20.6841

>  <SCORE.INTRA.POLAR>
0

>  <SCORE.INTRA.POLAR.0>
0

>  <SCORE.INTRA.REPUL>
0

>  <SCORE.INTRA.REPUL.0>
0

>  <SCORE.INTRA.SOLV>
-2.06858

>  <SCORE.INTRA.SOLV.lig_0>
-64.6797

>  <SCORE.INTRA.VDW>
2.46287

>  <SCORE.INTRA.VDW.0>
-4.11825

>  <SCORE.INTRA.norm>
-0.024016

>  <SCORE.RESTR>
2.25196

>  <SCORE.RESTR.CAVITY>
2.25196

>  <SCORE.RESTR.norm>
0.0726438

>  <SCORE.SYSTEM>
0

>  <SCORE.SYSTEM.CONST>
0

>  <SCORE.SYSTEM.DIHEDRAL>
0

>  <SCORE.SYSTEM.SOLV>
0

>  <SCORE.SYSTEM.norm>
0

>  <SCORE.heavy>
31

>  <SCORE.norm>
0.0748842

>  <RMSD>
11.128

$$$$
ligand
 OpenBabel11021811493D
libRbt.so/2013.1/901 2013/11/27
 31 33  0  0  0  0  0  0  0  0999 V2000
   -9.8448   17.0922    0.5483 C   0  0  2  0  0  0  0  0  0  0  0  0
   -8.6088   16.7899    1.1887 O   0  0  0  0  0  0  0  0  0  0  0  0
   -7.4900   13.5466    3.7013 C   0  0  2  0  0  0  0  0  0  0  0  0
   -7.3237   12.7541    4.8808 N   0  0  0  0  0  0  0  0  0  0  0  0
  -10.7062   12.0821    4.1646 C   0  0  2  0  0  0  0  0  0  0  0  0
   -9.5206   18.1581   -0.5764 C   0  0  2  0  0  0  0  0  0  0  0  0
   -8.5529   17.5815   -1.5039 N   0  0  0  0  0  0  0  0  0  0  0  0
   -6.7602   14.9348    3.9256 C   0  0  0  0  0  0  0  0  0  0  0  0
  -11.7709   11.4120    3.2393 C   0  0  2  0  0  0  0  0  0  0  0  0
  -11.1384   10.3868    2.5034 O   0  0  0  0  0  0  0  0  0  0  0  0
   -8.9529   19.4845    0.0696 C   0  0  0  0  0  0  0  0  0  0  0  0
   -6.9434   15.8108    2.6301 C   0  0  2  0  0  0  0  0  0  0  0  0
   -6.2713   17.1054    2.8349 N   0  0  0  0  0  0  0  0  0  0  0  0
  -12.3290   12.5323    2.2818 C   0  0  1  0  0  0  0  0  0  0  0  0
  -13.3470   11.9421    1.3510 N   0  0  0  0  0  0  0  0  0  0  0  0
   -9.6673   19.8408    1.4415 C   0  0  0  0  0  0  0  0  0  0  0  0
   -8.4941   16.0340    2.3450 C   0  0  2  0  0  0  0  0  0  0  0  0
  -13.0379   13.6747    3.2042 C   0  0  1  0  0  0  0  0  0  0  0  0
  -14.0845   13.1487    4.0025 O   0  0  0  0  0  0  0  0  0  0  0  0
  -10.5062   18.9579    2.0451 C   0  0  2  0  0  0  0  0  0  0  0  0
  -10.7953   17.6695    1.4902 O   0  0  0  0  0  0  0  0  0  0  0  0
   -9.1953   14.6409    2.1362 C   0  0  2  0  0  0  0  0  0  0  0  0
  -10.6019   14.8521    1.8884 O   0  0  0  0  0  0  0  0  0  0  0  0
  -11.9873   14.2970    4.1804 C   0  0  0  0  0  0  0  0  0  0  0  0
  -11.3372   13.1970    4.9774 O   0  0  0  0  0  0  0  0  0  0  0  0
  -11.2195   19.2564    3.3652 C   0  0  0  0  0  0  0  0  0  0  0  0
  -10.2220   19.6550    4.3350 O   0  0  0  0  0  0  0  0  0  0  0  0
   -9.0211   13.7893    3.4477 C   0  0  1  0  0  0  0  0  0  0  0  0
   -9.6641   12.5683    3.2573 O   0  0  0  0  0  0  0  0  0  0  0  0
  -13.6470   14.8618    2.4197 C   0  0  0  0  0  0  0  0  0  0  0  0
  -14.3865   11.0885    1.9617 C   0  0  0  0  0  0  0  0  0  0  0  0
  1  2  1  1  0  0  0
  1  6  1  0  0  0  0
  1 21  1  0  0  0  0
  3  4  1  1  0  0  0
  3  8  1  0  0  0  0
  3 28  1  0  0  0  0
  5  9  1  0  0  0  0
  5 25  1  0  0  0  0
  5 29  1  6  0  0  0
  6  7  1  6  0  0  0
  6 11  1  0  0  0  0
  8 12  1  0  0  0  0
  9 10  1  6  0  0  0
  9 14  1  0  0  0  0
 11 16  1  0  0  0  0
 12 13  1  1  0  0  0
 12 17  1  0  0  0  0
 14 15  1  6  0  0  0
 14 18  1  0  0  0  0
 15 31  1  0  0  0  0
 16 20  1  0  0  0  0
 17  2  1  6  0  0  0
 17 22  1  0  0  0  0
 18 19  1  1  0  0  0
 18 24  1  0  0  0  0
 18 30  1  0  0  0  0
 20 21  1  0  0  0  0
 20 26  1  6  0  0  0
 22 23  1  1  0  0  0
 22 28  1  0  0  0  0
 24 25  1  0  0  0  0
 26 27  1  0  0  0  0
 28 29  1  6  0  0  0
M  END
>  <CHROM.1>
170.94950463,140.82528775,47.90305052,174.09361417,-53.37541841,117.07844053
-10.28032855,15.12350864,2.52290029,1.11268789,-0.18428494,-0.34944007

>  <Name>
ligand

>  <RI>
0

>  <Rbt.Current_Directory>
/home/itssahil/PROJECTS/Mol_Feturizer/New_Systems/rnas/4GPX

>  <Rbt.Executable>
rbdock ($Id: //depot/dev/client3/rdock/2013.1/src/exe/rbdock.cxx#4 $)

>  <Rbt.Library>
libRbt.so (2013.1, Build901 2013/11/27)

>  <Rbt.Parameter_File>
/export/apps/rDock/src/rDock_2013.1_src/data/scripts/dock_solv.prm

>  <Rbt.Receptor>
prm/blind_docking_100.prm

>  <SCORE>
3.92048

>  <SCORE.INTER>
0.722237

>  <SCORE.INTER.CONST>
1

>  <SCORE.INTER.POLAR>
0

>  <SCORE.INTER.ROT>
6

>  <SCORE.INTER.SOLV>
29.6308

>  <SCORE.INTER.VDW>
-16.9954

>  <SCORE.INTER.norm>
0.023298

>  <SCORE.INTRA>
0.633435

>  <SCORE.INTRA.DIHEDRAL>
-4.03151

>  <SCORE.INTRA.DIHEDRAL.0>
20.6841

>  <SCORE.INTRA.POLAR>
0

>  <SCORE.INTRA.POLAR.0>
0

>  <SCORE.INTRA.REPUL>
0

>  <SCORE.INTRA.REPUL.0>
0

>  <SCORE.INTRA.SOLV>
-1.9366

>  <SCORE.INTRA.SOLV.lig_0>
-64.6797

>  <SCORE.INTRA.VDW>
3.61749

>  <SCORE.INTRA.VDW.0>
-4.11825

>  <SCORE.INTRA.norm>
0.0204334

>  <SCORE.RESTR>
2.56481

>  <SCORE.RESTR.CAVITY>
2.56481

>  <SCORE.RESTR.norm>
0.0827357

>  <SCORE.SYSTEM>
0

>  <SCORE.SYSTEM.CONST>
0

>  <SCORE.SYSTEM.DIHEDRAL>
0

>  <SCORE.SYSTEM.SOLV>
0

>  <SCORE.SYSTEM.norm>
0

>  <SCORE.heavy>
31

>  <SCORE.norm>
0.126467

>  <RMSD>
11.133

$$$$
ligand
 OpenBabel11021811493D
libRbt.so/2013.1/901 2013/11/27
 31 33  0  0  0  0  0  0  0  0999 V2000
   -9.8867   17.2336    0.6637 C   0  0  2  0  0  0  0  0  0  0  0  0
   -8.6371   16.8679    1.2414 O   0  0  0  0  0  0  0  0  0  0  0  0
   -7.5087   13.5506    3.6511 C   0  0  2  0  0  0  0  0  0  0  0  0
   -7.3226   12.7302    4.8084 N   0  0  0  0  0  0  0  0  0  0  0  0
  -10.7055   12.1187    4.2076 C   0  0  2  0  0  0  0  0  0  0  0  0
   -9.5535   18.0537   -0.6487 C   0  0  2  0  0  0  0  0  0  0  0  0
   -8.7663   17.2099   -1.5417 N   0  0  0  0  0  0  0  0  0  0  0  0
   -6.7439   14.9189    3.8810 C   0  0  0  0  0  0  0  0  0  0  0  0
  -11.7826   11.4027    3.3324 C   0  0  2  0  0  0  0  0  0  0  0  0
  -11.1460   10.3882    2.5853 O   0  0  0  0  0  0  0  0  0  0  0  0
   -8.7627   19.3738   -0.2870 C   0  0  0  0  0  0  0  0  0  0  0  0
   -6.9487   15.8256    2.6100 C   0  0  2  0  0  0  0  0  0  0  0  0
   -6.2442   17.1019    2.8203 N   0  0  0  0  0  0  0  0  0  0  0  0
  -12.4127   12.4917    2.3834 C   0  0  1  0  0  0  0  0  0  0  0  0
  -13.4459   11.8569    1.4999 N   0  0  0  0  0  0  0  0  0  0  0  0
   -9.2804   20.0373    1.0589 C   0  0  0  0  0  0  0  0  0  0  0  0
   -8.5025   16.0856    2.3779 C   0  0  2  0  0  0  0  0  0  0  0  0
  -13.1223   13.6234    3.3184 C   0  0  1  0  0  0  0  0  0  0  0  0
  -14.1202   13.0753    4.1628 O   0  0  0  0  0  0  0  0  0  0  0  0
  -10.1536   19.3852    1.8713 C   0  0  2  0  0  0  0  0  0  0  0  0
  -10.6553   18.0780    1.5694 O   0  0  0  0  0  0  0  0  0  0  0  0
   -9.2382   14.7114    2.1625 C   0  0  2  0  0  0  0  0  0  0  0  0
  -10.6472   14.9558    1.9629 O   0  0  0  0  0  0  0  0  0  0  0  0
  -12.0558   14.2919    4.2456 C   0  0  0  0  0  0  0  0  0  0  0  0
  -11.3407   13.2239    5.0304 O   0  0  0  0  0  0  0  0  0  0  0  0
  -10.6828   19.9837    3.1760 C   0  0  0  0  0  0  0  0  0  0  0  0
  -10.0666   19.2760    4.2777 O   0  0  0  0  0  0  0  0  0  0  0  0
   -9.0415   13.8291    3.4502 C   0  0  1  0  0  0  0  0  0  0  0  0
   -9.7151   12.6253    3.2550 O   0  0  0  0  0  0  0  0  0  0  0  0
  -13.7988   14.7798    2.5433 C   0  0  0  0  0  0  0  0  0  0  0  0
  -12.9445   11.0315    0.3820 C   0  0  0  0  0  0  0  0  0  0  0  0
  1  2  1  1  0  0  0
  1  6  1  0  0  0  0
  1 21  1  0  0  0  0
  3  4  1  1  0  0  0
  3  8  1  0  0  0  0
  3 28  1  0  0  0  0
  5  9  1  0  0  0  0
  5 25  1  0  0  0  0
  5 29  1  6  0  0  0
  6  7  1  6  0  0  0
  6 11  1  0  0  0  0
  8 12  1  0  0  0  0
  9 10  1  6  0  0  0
  9 14  1  0  0  0  0
 11 16  1  0  0  0  0
 12 13  1  1  0  0  0
 12 17  1  0  0  0  0
 14 15  1  6  0  0  0
 14 18  1  0  0  0  0
 15 31  1  0  0  0  0
 16 20  1  0  0  0  0
 17  2  1  6  0  0  0
 17 22  1  0  0  0  0
 18 19  1  1  0  0  0
 18 24  1  0  0  0  0
 18 30  1  0  0  0  0
 20 21  1  0  0  0  0
 20 26  1  6  0  0  0
 22 23  1  1  0  0  0
 22 28  1  0  0  0  0
 24 25  1  0  0  0  0
 26 27  1  0  0  0  0
 28 29  1  6  0  0  0
M  END
>  <CHROM.1>
-177.00465486,145.06933323,-75.02461127,175.60025655,-108.04291558,114.93358516
-10.20654946,15.15404191,2.46700765,1.13589910,-0.24855228,-0.36917371

>  <Name>
ligand

>  <RI>
0

>  <Rbt.Current_Directory>
/home/itssahil/PROJECTS/Mol_Feturizer/New_Systems/rnas/4GPX

>  <Rbt.Executable>
rbdock ($Id: //depot/dev/client3/rdock/2013.1/src/exe/rbdock.cxx#4 $)

>  <Rbt.Library>
libRbt.so (2013.1, Build901 2013/11/27)

>  <Rbt.Parameter_File>
/export/apps/rDock/src/rDock_2013.1_src/data/scripts/dock_solv.prm

>  <Rbt.Receptor>
prm/blind_docking_100.prm

>  <SCORE>
1.68357

>  <SCORE.INTER>
1.96643

>  <SCORE.INTER.CONST>
1

>  <SCORE.INTER.POLAR>
0

>  <SCORE.INTER.ROT>
6

>  <SCORE.INTER.SOLV>
30.3253

>  <SCORE.INTER.VDW>
-16.3975

>  <SCORE.INTER.norm>
0.0634331

>  <SCORE.INTRA>
-2.73588

>  <SCORE.INTRA.DIHEDRAL>
-6.90902

>  <SCORE.INTRA.DIHEDRAL.0>
20.6841

>  <SCORE.INTRA.POLAR>
0

>  <SCORE.INTRA.POLAR.0>
0

>  <SCORE.INTRA.REPUL>
0

>  <SCORE.INTRA.REPUL.0>
0

>  <SCORE.INTRA.SOLV>
-2.09273

>  <SCORE.INTRA.SOLV.lig_0>
-64.6797

>  <SCORE.INTRA.VDW>
1.765

>  <SCORE.INTRA.VDW.0>
-4.11825

>  <SCORE.INTRA.norm>
-0.0882541

>  <SCORE.RESTR>
2.45302

>  <SCORE.RESTR.CAVITY>
2.45302

>  <SCORE.RESTR.norm>
0.0791296

>  <SCORE.SYSTEM>
0

>  <SCORE.SYSTEM.CONST>
0

>  <SCORE.SYSTEM.DIHEDRAL>
0

>  <SCORE.SYSTEM.SOLV>
0

>  <SCORE.SYSTEM.norm>
0

>  <SCORE.heavy>
31

>  <SCORE.norm>
0.0543086

>  <RMSD>
11.139

$$$$
ligand
 OpenBabel11021811493D
libRbt.so/2013.1/901 2013/11/27
 31 33  0  0  0  0  0  0  0  0999 V2000
   -9.9303   17.2281    0.7213 C   0  0  2  0  0  0  0  0  0  0  0  0
   -8.6701   16.8602    1.2744 O   0  0  0  0  0  0  0  0  0  0  0  0
   -7.4936   13.5344    3.6490 C   0  0  2  0  0  0  0  0  0  0  0  0
   -7.2860   12.7092    4.7991 N   0  0  0  0  0  0  0  0  0  0  0  0
  -10.7141   12.1173    4.2279 C   0  0  2  0  0  0  0  0  0  0  0  0
   -9.6216   18.1315   -0.5414 C   0  0  2  0  0  0  0  0  0  0  0  0
   -8.8167   17.3611   -1.4837 N   0  0  0  0  0  0  0  0  0  0  0  0
   -6.7280   14.9034    3.8723 C   0  0  0  0  0  0  0  0  0  0  0  0
  -11.7863   11.4069    3.3422 C   0  0  2  0  0  0  0  0  0  0  0  0
  -11.1504   10.3801    2.6116 O   0  0  0  0  0  0  0  0  0  0  0  0
   -8.8624   19.4473   -0.1045 C   0  0  0  0  0  0  0  0  0  0  0  0
   -6.9564   15.8155    2.6092 C   0  0  2  0  0  0  0  0  0  0  0  0
   -6.2512   17.0925    2.8134 N   0  0  0  0  0  0  0  0  0  0  0  0
  -12.3904   12.4961    2.3765 C   0  0  1  0  0  0  0  0  0  0  0  0
  -13.4178   11.8664    1.4826 N   0  0  0  0  0  0  0  0  0  0  0  0
   -9.3920   20.0180    1.2788 C   0  0  0  0  0  0  0  0  0  0  0  0
   -8.5145   16.0731    2.4048 C   0  0  2  0  0  0  0  0  0  0  0  0
  -13.1007   13.6422    3.2932 C   0  0  1  0  0  0  0  0  0  0  0  0
  -14.1168   13.1113    4.1269 O   0  0  0  0  0  0  0  0  0  0  0  0
  -10.2463   19.2981    2.0532 C   0  0  2  0  0  0  0  0  0  0  0  0
  -10.7165   17.9987    1.6762 O   0  0  0  0  0  0  0  0  0  0  0  0
   -9.2508   14.6982    2.1955 C   0  0  2  0  0  0  0  0  0  0  0  0
  -10.6634   14.9403    2.0211 O   0  0  0  0  0  0  0  0  0  0  0  0
  -12.0404   14.3055    4.2310 C   0  0  0  0  0  0  0  0  0  0  0  0
  -11.3487   13.2353    5.0336 O   0  0  0  0  0  0  0  0  0  0  0  0
  -10.7858   19.8060    3.3917 C   0  0  0  0  0  0  0  0  0  0  0  0
  -12.1088   19.2514    3.5827 O   0  0  0  0  0  0  0  0  0  0  0  0
   -9.0302   13.8104    3.4755 C   0  0  1  0  0  0  0  0  0  0  0  0
   -9.7044   12.6060    3.2862 O   0  0  0  0  0  0  0  0  0  0  0  0
  -13.7530   14.8005    2.5003 C   0  0  0  0  0  0  0  0  0  0  0  0
  -12.9160   10.9411    0.4462 C   0  0  0  0  0  0  0  0  0  0  0  0
  1  2  1  1  0  0  0
  1  6  1  0  0  0  0
  1 21  1  0  0  0  0
  3  4  1  1  0  0  0
  3  8  1  0  0  0  0
  3 28  1  0  0  0  0
  5  9  1  0  0  0  0
  5 25  1  0  0  0  0
  5 29  1  6  0  0  0
  6  7  1  6  0  0  0
  6 11  1  0  0  0  0
  8 12  1  0  0  0  0
  9 10  1  6  0  0  0
  9 14  1  0  0  0  0
 11 16  1  0  0  0  0
 12 13  1  1  0  0  0
 12 17  1  0  0  0  0
 14 15  1  6  0  0  0
 14 18  1  0  0  0  0
 15 31  1  0  0  0  0
 16 20  1  0  0  0  0
 17  2  1  6  0  0  0
 17 22  1  0  0  0  0
 18 19  1  1  0  0  0
 18 24  1  0  0  0  0
 18 30  1  0  0  0  0
 20 21  1  0  0  0  0
 20 26  1  6  0  0  0
 22 23  1  1  0  0  0
 22 28  1  0  0  0  0
 24 25  1  0  0  0  0
 26 27  1  0  0  0  0
 28 29  1  6  0  0  0
M  END
>  <CHROM.1>
179.47542998,144.38622327,-70.23905252,175.73234354,149.01267363,117.28951300
-10.29647863,15.14609579,2.48301425,1.18475914,-0.12960149,-0.31204329

>  <Name>
ligand

>  <RI>
0

>  <Rbt.Current_Directory>
/home/itssahil/PROJECTS/Mol_Feturizer/New_Systems/rnas/4GPX

>  <Rbt.Executable>
rbdock ($Id: //depot/dev/client3/rdock/2013.1/src/exe/rbdock.cxx#4 $)

>  <Rbt.Library>
libRbt.so (2013.1, Build901 2013/11/27)

>  <Rbt.Parameter_File>
/export/apps/rDock/src/rDock_2013.1_src/data/scripts/dock_solv.prm

>  <Rbt.Receptor>
prm/blind_docking_100.prm

>  <SCORE>
2.7235

>  <SCORE.INTER>
1.61895

>  <SCORE.INTER.CONST>
1

>  <SCORE.INTER.POLAR>
0

>  <SCORE.INTER.ROT>
6

>  <SCORE.INTER.SOLV>
29.038

>  <SCORE.INTER.VDW>
-16.2

>  <SCORE.INTER.norm>
0.0522241

>  <SCORE.INTRA>
-1.2906

>  <SCORE.INTRA.DIHEDRAL>
-6.10781

>  <SCORE.INTRA.DIHEDRAL.0>
20.6841

>  <SCORE.INTRA.POLAR>
0

>  <SCORE.INTRA.POLAR.0>
0

>  <SCORE.INTRA.REPUL>
0

>  <SCORE.INTRA.REPUL.0>
0

>  <SCORE.INTRA.SOLV>
-2.12808

>  <SCORE.INTRA.SOLV.lig_0>
-64.6797

>  <SCORE.INTRA.VDW>
2.82735

>  <SCORE.INTRA.VDW.0>
-4.11825

>  <SCORE.INTRA.norm>
-0.0416322

>  <SCORE.RESTR>
2.39515

>  <SCORE.RESTR.CAVITY>
2.39515

>  <SCORE.RESTR.norm>
0.077263

>  <SCORE.SYSTEM>
0

>  <SCORE.SYSTEM.CONST>
0

>  <SCORE.SYSTEM.DIHEDRAL>
0

>  <SCORE.SYSTEM.SOLV>
0

>  <SCORE.SYSTEM.norm>
0

>  <SCORE.heavy>
31

>  <SCORE.norm>
0.0878549

>  <RMSD>
11.145

$$$$
ligand
 OpenBabel11021811493D
libRbt.so/2013.1/901 2013/11/27
 31 33  0  0  0  0  0  0  0  0999 V2000
   -9.8302   17.1483    0.5658 C   0  0  2  0  0  0  0  0  0  0  0  0
   -8.5952   16.8208    1.1957 O   0  0  0  0  0  0  0  0  0  0  0  0
   -7.5115   13.5459    3.6826 C   0  0  2  0  0  0  0  0  0  0  0  0
   -7.3507   12.7438    4.8563 N   0  0  0  0  0  0  0  0  0  0  0  0
  -10.7328   12.1173    4.1652 C   0  0  2  0  0  0  0  0  0  0  0  0
   -9.5445   18.3972   -0.3640 C   0  0  2  0  0  0  0  0  0  0  0  0
   -8.5170   18.0341   -1.3344 N   0  0  0  0  0  0  0  0  0  0  0  0
   -6.7599   14.9216    3.9113 C   0  0  0  0  0  0  0  0  0  0  0  0
  -11.8094   11.4469    3.2541 C   0  0  2  0  0  0  0  0  0  0  0  0
  -11.1866   10.4212    2.5106 O   0  0  0  0  0  0  0  0  0  0  0  0
   -9.0805   19.6345    0.5036 C   0  0  0  0  0  0  0  0  0  0  0  0
   -6.9369   15.8083    2.6221 C   0  0  2  0  0  0  0  0  0  0  0  0
   -6.2445   17.0915    2.8311 N   0  0  0  0  0  0  0  0  0  0  0  0
  -12.3795   12.5670    2.3031 C   0  0  1  0  0  0  0  0  0  0  0  0
  -13.4094   11.9764    1.3857 N   0  0  0  0  0  0  0  0  0  0  0  0
   -9.8532   19.7246    1.8872 C   0  0  0  0  0  0  0  0  0  0  0  0
   -8.4856   16.0563    2.3468 C   0  0  2  0  0  0  0  0  0  0  0  0
  -13.0762   13.7099    3.2340 C   0  0  1  0  0  0  0  0  0  0  0  0
  -14.1127   13.1846    4.0459 O   0  0  0  0  0  0  0  0  0  0  0  0
  -10.6499   18.7088    2.3126 C   0  0  2  0  0  0  0  0  0  0  0  0
  -10.8409   17.5108    1.5512 O   0  0  0  0  0  0  0  0  0  0  0  0
   -9.2086   14.6750    2.1334 C   0  0  2  0  0  0  0  0  0  0  0  0
  -10.6132   14.9086    1.8946 O   0  0  0  0  0  0  0  0  0  0  0  0
  -12.0131   14.3325    4.1963 C   0  0  0  0  0  0  0  0  0  0  0  0
  -11.3532   13.2328    4.9855 O   0  0  0  0  0  0  0  0  0  0  0  0
  -11.4164   18.7502    3.6360 C   0  0  0  0  0  0  0  0  0  0  0  0
  -11.3956   20.1121    4.1252 O   0  0  0  0  0  0  0  0  0  0  0  0
   -9.0402   13.8129    3.4387 C   0  0  1  0  0  0  0  0  0  0  0  0
   -9.7023   12.6028    3.2445 O   0  0  0  0  0  0  0  0  0  0  0  0
  -13.6951   14.8967    2.4567 C   0  0  0  0  0  0  0  0  0  0  0  0
  -12.9090   11.1124    0.2971 C   0  0  0  0  0  0  0  0  0  0  0  0
  1  2  1  1  0  0  0
  1  6  1  0  0  0  0
  1 21  1  0  0  0  0
  3  4  1  1  0  0  0
  3  8  1  0  0  0  0
  3 28  1  0  0  0  0
  5  9  1  0  0  0  0
  5 25  1  0  0  0  0
  5 29  1  6  0  0  0
  6  7  1  6  0  0  0
  6 11  1  0  0  0  0
  8 12  1  0  0  0  0
  9 10  1  6  0  0  0
  9 14  1  0  0  0  0
 11 16  1  0  0  0  0
 12 13  1  1  0  0  0
 12 17  1  0  0  0  0
 14 15  1  6  0  0  0
 14 18  1  0  0  0  0
 15 31  1  0  0  0  0
 16 20  1  0  0  0  0
 17  2  1  6  0  0  0
 17 22  1  0  0  0  0
 18 19  1  1  0  0  0
 18 24  1  0  0  0  0
 18 30  1  0  0  0  0
 20 21  1  0  0  0  0
 20 26  1  6  0  0  0
 22 23  1  1  0  0  0
 22 28  1  0  0  0  0
 24 25  1  0  0  0  0
 26 27  1  0  0  0  0
 28 29  1  6  0  0  0
M  END
>  <CHROM.1>
160.80020925,141.96920200,-73.07897700,174.26023535,13.65791812,116.15826486
-10.30859310,15.15278121,2.52188106,1.17630458,-0.12231076,-0.27020076

>  <Name>
ligand

>  <RI>
0

>  <Rbt.Current_Directory>
/home/itssahil/PROJECTS/Mol_Feturizer/New_Systems/rnas/4GPX

>  <Rbt.Executable>
rbdock ($Id: //depot/dev/client3/rdock/2013.1/src/exe/rbdock.cxx#4 $)

>  <Rbt.Library>
libRbt.so (2013.1, Build901 2013/11/27)

>  <Rbt.Parameter_File>
/export/apps/rDock/src/rDock_2013.1_src/data/scripts/dock_solv.prm

>  <Rbt.Receptor>
prm/blind_docking_100.prm

>  <SCORE>
3.06756

>  <SCORE.INTER>
1.04768

>  <SCORE.INTER.CONST>
1

>  <SCORE.INTER.POLAR>
0

>  <SCORE.INTER.ROT>
6

>  <SCORE.INTER.SOLV>
29.6348

>  <SCORE.INTER.VDW>
-16.7798

>  <SCORE.INTER.norm>
0.0337963

>  <SCORE.INTRA>
-0.362211

>  <SCORE.INTRA.DIHEDRAL>
-4.60306

>  <SCORE.INTRA.DIHEDRAL.0>
20.6841

>  <SCORE.INTRA.POLAR>
0

>  <SCORE.INTRA.POLAR.0>
0

>  <SCORE.INTRA.REPUL>
0

>  <SCORE.INTRA.REPUL.0>
0

>  <SCORE.INTRA.SOLV>
-1.8918

>  <SCORE.INTRA.SOLV.lig_0>
-64.6797

>  <SCORE.INTRA.VDW>
2.88522

>  <SCORE.INTRA.VDW.0>
-4.11825

>  <SCORE.INTRA.norm>
-0.0116842

>  <SCORE.RESTR>
2.38209

>  <SCORE.RESTR.CAVITY>
2.38209

>  <SCORE.RESTR.norm>
0.0768415

>  <SCORE.SYSTEM>
0

>  <SCORE.SYSTEM.CONST>
0

>  <SCORE.SYSTEM.DIHEDRAL>
0

>  <SCORE.SYSTEM.SOLV>
0

>  <SCORE.SYSTEM.norm>
0

>  <SCORE.heavy>
31

>  <SCORE.norm>
0.0989535

>  <RMSD>
11.145

$$$$
ligand
 OpenBabel11021811493D
libRbt.so/2013.1/901 2013/11/27
 31 33  0  0  0  0  0  0  0  0999 V2000
   -9.9277   17.1728    0.6148 C   0  0  2  0  0  0  0  0  0  0  0  0
   -8.6762   16.8242    1.1990 O   0  0  0  0  0  0  0  0  0  0  0  0
   -7.5261   13.5565    3.6654 C   0  0  2  0  0  0  0  0  0  0  0  0
   -7.3357   12.7569    4.8365 N   0  0  0  0  0  0  0  0  0  0  0  0
  -10.7282   12.1190    4.2293 C   0  0  2  0  0  0  0  0  0  0  0  0
   -9.6096   18.1806   -0.5638 C   0  0  2  0  0  0  0  0  0  0  0  0
   -8.7267   17.5205   -1.5198 N   0  0  0  0  0  0  0  0  0  0  0  0
   -6.7725   14.9343    3.8738 C   0  0  0  0  0  0  0  0  0  0  0  0
  -11.8029   11.4028    3.3512 C   0  0  2  0  0  0  0  0  0  0  0  0
  -11.1677   10.3753    2.6209 O   0  0  0  0  0  0  0  0  0  0  0  0
   -8.9370   19.4945    0.0020 C   0  0  0  0  0  0  0  0  0  0  0  0
   -6.9822   15.8182    2.5876 C   0  0  2  0  0  0  0  0  0  0  0  0
   -6.2881   17.1034    2.7778 N   0  0  0  0  0  0  0  0  0  0  0  0
  -12.4147   12.4871    2.3849 C   0  0  1  0  0  0  0  0  0  0  0  0
  -13.4447   11.8517    1.4981 N   0  0  0  0  0  0  0  0  0  0  0  0
   -9.5545   19.9359    1.3961 C   0  0  0  0  0  0  0  0  0  0  0  0
   -8.5375   16.0621    2.3486 C   0  0  2  0  0  0  0  0  0  0  0  0
  -13.1236   13.6343    3.3012 C   0  0  1  0  0  0  0  0  0  0  0  0
  -14.1341   13.1034    4.1417 O   0  0  0  0  0  0  0  0  0  0  0  0
  -10.4048   19.1216    2.0754 C   0  0  2  0  0  0  0  0  0  0  0  0
  -10.7926   17.8332    1.5843 O   0  0  0  0  0  0  0  0  0  0  0  0
   -9.2621   14.6787    2.1548 C   0  0  2  0  0  0  0  0  0  0  0  0
  -10.6725   14.9086    1.9489 O   0  0  0  0  0  0  0  0  0  0  0  0
  -12.0605   14.3036    4.2317 C   0  0  0  0  0  0  0  0  0  0  0  0
  -11.3619   13.2380    5.0344 O   0  0  0  0  0  0  0  0  0  0  0  0
  -11.0271   19.5033    3.4199 C   0  0  0  0  0  0  0  0  0  0  0  0
  -12.0876   18.5617    3.7079 O   0  0  0  0  0  0  0  0  0  0  0  0
   -9.0608   13.8195    3.4573 C   0  0  1  0  0  0  0  0  0  0  0  0
   -9.7245   12.6074    3.2810 O   0  0  0  0  0  0  0  0  0  0  0  0
  -13.7830   14.7881    2.5078 C   0  0  0  0  0  0  0  0  0  0  0  0
  -12.9416   10.9679    0.4266 C   0  0  0  0  0  0  0  0  0  0  0  0
  1  2  1  1  0  0  0
  1  6  1  0  0  0  0
  1 21  1  0  0  0  0
  3  4  1  1  0  0  0
  3  8  1  0  0  0  0
  3 28  1  0  0  0  0
  5  9  1  0  0  0  0
  5 25  1  0  0  0  0
  5 29  1  6  0  0  0
  6  7  1  6  0  0  0
  6 11  1  0  0  0  0
  8 12  1  0  0  0  0
  9 10  1  6  0  0  0
  9 14  1  0  0  0  0
 11 16  1  0  0  0  0
 12 13  1  1  0  0  0
 12 17  1  0  0  0  0
 14 15  1  6  0  0  0
 14 18  1  0  0  0  0
 15 31  1  0  0  0  0
 16 20  1  0  0  0  0
 17  2  1  6  0  0  0
 17 22  1  0  0  0  0
 18 19  1  1  0  0  0
 18 24  1  0  0  0  0
 18 30  1  0  0  0  0
 20 21  1  0  0  0  0
 20 26  1  6  0  0  0
 22 23  1  1  0  0  0
 22 28  1  0  0  0  0
 24 25  1  0  0  0  0
 26 27  1  0  0  0  0
 28 29  1  6  0  0  0
M  END
>  <CHROM.1>
173.35263522,143.84193595,-72.68855349,175.73502420,167.52895219,115.93302694
-10.33164095,15.10343863,2.48071871,1.16231394,-0.13675618,-0.33616732

>  <Name>
ligand

>  <RI>
0

>  <Rbt.Current_Directory>
/home/itssahil/PROJECTS/Mol_Feturizer/New_Systems/rnas/4GPX

>  <Rbt.Executable>
rbdock ($Id: //depot/dev/client3/rdock/2013.1/src/exe/rbdock.cxx#4 $)

>  <Rbt.Library>
libRbt.so (2013.1, Build901 2013/11/27)

>  <Rbt.Parameter_File>
/export/apps/rDock/src/rDock_2013.1_src/data/scripts/dock_solv.prm

>  <Rbt.Receptor>
prm/blind_docking_100.prm

>  <SCORE>
2.20755

>  <SCORE.INTER>
1.07031

>  <SCORE.INTER.CONST>
1

>  <SCORE.INTER.POLAR>
0

>  <SCORE.INTER.ROT>
6

>  <SCORE.INTER.SOLV>
28.8914

>  <SCORE.INTER.VDW>
-16.5169

>  <SCORE.INTER.norm>
0.034526

>  <SCORE.INTRA>
-1.30488

>  <SCORE.INTRA.DIHEDRAL>
-4.98537

>  <SCORE.INTRA.DIHEDRAL.0>
20.6841

>  <SCORE.INTRA.POLAR>
0

>  <SCORE.INTRA.POLAR.0>
0

>  <SCORE.INTRA.REPUL>
0

>  <SCORE.INTRA.REPUL.0>
0

>  <SCORE.INTRA.SOLV>
-1.92487

>  <SCORE.INTRA.SOLV.lig_0>
-64.6797

>  <SCORE.INTRA.VDW>
2.15024

>  <SCORE.INTRA.VDW.0>
-4.11825

>  <SCORE.INTRA.norm>
-0.042093

>  <SCORE.RESTR>
2.44213

>  <SCORE.RESTR.CAVITY>
2.44213

>  <SCORE.RESTR.norm>
0.0787783

>  <SCORE.SYSTEM>
0

>  <SCORE.SYSTEM.CONST>
0

>  <SCORE.SYSTEM.DIHEDRAL>
0

>  <SCORE.SYSTEM.SOLV>
0

>  <SCORE.SYSTEM.norm>
0

>  <SCORE.heavy>
31

>  <SCORE.norm>
0.0712114

>  <RMSD>
11.145

$$$$
ligand
 OpenBabel11021811493D
libRbt.so/2013.1/901 2013/11/27
 31 33  0  0  0  0  0  0  0  0999 V2000
   -9.9245   17.2127    0.6699 C   0  0  2  0  0  0  0  0  0  0  0  0
   -8.6691   16.8427    1.2324 O   0  0  0  0  0  0  0  0  0  0  0  0
   -7.5032   13.5561    3.6661 C   0  0  2  0  0  0  0  0  0  0  0  0
   -7.3058   12.7473    4.8296 N   0  0  0  0  0  0  0  0  0  0  0  0
  -10.7112   12.1183    4.2287 C   0  0  2  0  0  0  0  0  0  0  0  0
   -9.6050   18.1278   -0.5818 C   0  0  2  0  0  0  0  0  0  0  0  0
   -8.7890   17.3674   -1.5226 N   0  0  0  0  0  0  0  0  0  0  0  0
   -6.7495   14.9328    3.8814 C   0  0  0  0  0  0  0  0  0  0  0  0
  -11.7813   11.4032    3.3443 C   0  0  2  0  0  0  0  0  0  0  0  0
  -11.1423   10.3770    2.6154 O   0  0  0  0  0  0  0  0  0  0  0  0
   -8.8531   19.4414   -0.1257 C   0  0  0  0  0  0  0  0  0  0  0  0
   -6.9668   15.8268    2.6035 C   0  0  2  0  0  0  0  0  0  0  0  0
   -6.2726   17.1109    2.8002 N   0  0  0  0  0  0  0  0  0  0  0  0
  -12.3887   12.4888    2.3767 C   0  0  1  0  0  0  0  0  0  0  0  0
  -13.4142   11.8546    1.4839 N   0  0  0  0  0  0  0  0  0  0  0  0
   -9.3979   19.9988    1.2572 C   0  0  0  0  0  0  0  0  0  0  0  0
   -8.5236   16.0714    2.3750 C   0  0  2  0  0  0  0  0  0  0  0  0
  -13.1024   13.6344    3.2913 C   0  0  1  0  0  0  0  0  0  0  0  0
  -14.1169   13.1019    4.1260 O   0  0  0  0  0  0  0  0  0  0  0  0
  -10.2584   19.2703    2.0165 C   0  0  2  0  0  0  0  0  0  0  0  0
  -10.7220   17.9733    1.6234 O   0  0  0  0  0  0  0  0  0  0  0  0
   -9.2482   14.6891    2.1741 C   0  0  2  0  0  0  0  0  0  0  0  0
  -10.6599   14.9196    1.9778 O   0  0  0  0  0  0  0  0  0  0  0  0
  -12.0441   14.3025    4.2280 C   0  0  0  0  0  0  0  0  0  0  0  0
  -11.3491   13.2358    5.0325 O   0  0  0  0  0  0  0  0  0  0  0  0
  -10.8125   19.7653    3.3538 C   0  0  0  0  0  0  0  0  0  0  0  0
  -12.1163   19.1683    3.5489 O   0  0  0  0  0  0  0  0  0  0  0  0
   -9.0391   13.8196    3.4686 C   0  0  1  0  0  0  0  0  0  0  0  0
   -9.7029   12.6085    3.2862 O   0  0  0  0  0  0  0  0  0  0  0  0
  -13.7582   14.7893    2.4965 C   0  0  0  0  0  0  0  0  0  0  0  0
  -12.9035   11.0129    0.3825 C   0  0  0  0  0  0  0  0  0  0  0  0
  1  2  1  1  0  0  0
  1  6  1  0  0  0  0
  1 21  1  0  0  0  0
  3  4  1  1  0  0  0
  3  8  1  0  0  0  0
  3 28  1  0  0  0  0
  5  9  1  0  0  0  0
  5 25  1  0  0  0  0
  5 29  1  6  0  0  0
  6  7  1  6  0  0  0
  6 11  1  0  0  0  0
  8 12  1  0  0  0  0
  9 10  1  6  0  0  0
  9 14  1  0  0  0  0
 11 16  1  0  0  0  0
 12 13  1  1  0  0  0
 12 17  1  0  0  0  0
 14 15  1  6  0  0  0
 14 18  1  0  0  0  0
 15 31  1  0  0  0  0
 16 20  1  0  0  0  0
 17  2  1  6  0  0  0
 17 22  1  0  0  0  0
 18 19  1  1  0  0  0
 18 24  1  0  0  0  0
 18 30  1  0  0  0  0
 20 21  1  0  0  0  0
 20 26  1  6  0  0  0
 22 23  1  1  0  0  0
 22 28  1  0  0  0  0
 24 25  1  0  0  0  0
 26 27  1  0  0  0  0
 28 29  1  6  0  0  0
M  END
>  <CHROM.1>
177.92577129,143.92998795,-74.89753043,176.77652373,151.02348444,116.58341522
-10.29856601,15.14189516,2.46633261,1.18074747,-0.13896387,-0.32521782

>  <Name>
ligand

>  <RI>
0

>  <Rbt.Current_Directory>
/home/itssahil/PROJECTS/Mol_Feturizer/New_Systems/rnas/4GPX

>  <Rbt.Executable>
rbdock ($Id: //depot/dev/client3/rdock/2013.1/src/exe/rbdock.cxx#4 $)

>  <Rbt.Library>
libRbt.so (2013.1, Build901 2013/11/27)

>  <Rbt.Parameter_File>
/export/apps/rDock/src/rDock_2013.1_src/data/scripts/dock_solv.prm

>  <Rbt.Receptor>
prm/blind_docking_100.prm

>  <SCORE>
2.34458

>  <SCORE.INTER>
1.71429

>  <SCORE.INTER.CONST>
1

>  <SCORE.INTER.POLAR>
0

>  <SCORE.INTER.ROT>
6

>  <SCORE.INTER.SOLV>
28.9723

>  <SCORE.INTER.VDW>
-16.1146

>  <SCORE.INTER.norm>
0.0552997

>  <SCORE.INTRA>
-1.82494

>  <SCORE.INTRA.DIHEDRAL>
-5.87548

>  <SCORE.INTRA.DIHEDRAL.0>
20.6841

>  <SCORE.INTRA.POLAR>
0

>  <SCORE.INTRA.POLAR.0>
0

>  <SCORE.INTRA.REPUL>
0

>  <SCORE.INTRA.REPUL.0>
0

>  <SCORE.INTRA.SOLV>
-2.09995

>  <SCORE.INTRA.SOLV.lig_0>
-64.6797

>  <SCORE.INTRA.VDW>
2.16278

>  <SCORE.INTRA.VDW.0>
-4.11825

>  <SCORE.INTRA.norm>
-0.058869

>  <SCORE.RESTR>
2.45523

>  <SCORE.RESTR.CAVITY>
2.45523

>  <SCORE.RESTR.norm>
0.0792011

>  <SCORE.SYSTEM>
0

>  <SCORE.SYSTEM.CONST>
0

>  <SCORE.SYSTEM.DIHEDRAL>
0

>  <SCORE.SYSTEM.SOLV>
0

>  <SCORE.SYSTEM.norm>
0

>  <SCORE.heavy>
31

>  <SCORE.norm>
0.0756317

>  <RMSD>
11.147

$$$$
ligand
 OpenBabel11021811493D
libRbt.so/2013.1/901 2013/11/27
 31 33  0  0  0  0  0  0  0  0999 V2000
   -9.8738   17.1968    0.6100 C   0  0  2  0  0  0  0  0  0  0  0  0
   -8.6292   16.8399    1.2039 O   0  0  0  0  0  0  0  0  0  0  0  0
   -7.5191   13.5542    3.6648 C   0  0  2  0  0  0  0  0  0  0  0  0
   -7.3430   12.7484    4.8338 N   0  0  0  0  0  0  0  0  0  0  0  0
  -10.7321   12.1329    4.1991 C   0  0  2  0  0  0  0  0  0  0  0  0
   -9.5295   18.0259   -0.6938 C   0  0  2  0  0  0  0  0  0  0  0  0
   -8.7218   17.1935   -1.5792 N   0  0  0  0  0  0  0  0  0  0  0  0
   -6.7586   14.9264    3.8852 C   0  0  0  0  0  0  0  0  0  0  0  0
  -11.8074   11.4303    3.3110 C   0  0  2  0  0  0  0  0  0  0  0  0
  -11.1759   10.4034    2.5766 O   0  0  0  0  0  0  0  0  0  0  0  0
   -8.7561   19.3516   -0.3149 C   0  0  0  0  0  0  0  0  0  0  0  0
   -6.9525   15.8171    2.6013 C   0  0  2  0  0  0  0  0  0  0  0  0
   -6.2518   17.0970    2.8026 N   0  0  0  0  0  0  0  0  0  0  0  0
  -12.4069   12.5254    2.3492 C   0  0  1  0  0  0  0  0  0  0  0  0
  -13.4370   11.9033    1.4531 N   0  0  0  0  0  0  0  0  0  0  0  0
   -9.2992   20.0041    1.0264 C   0  0  0  0  0  0  0  0  0  0  0  0
   -8.5043   16.0719    2.3512 C   0  0  2  0  0  0  0  0  0  0  0  0
  -13.1123   13.6713    3.2699 C   0  0  1  0  0  0  0  0  0  0  0  0
  -14.1306   13.1417    4.1018 O   0  0  0  0  0  0  0  0  0  0  0  0
  -10.1778   19.3403    1.8232 C   0  0  2  0  0  0  0  0  0  0  0  0
  -10.6630   18.0299    1.5083 O   0  0  0  0  0  0  0  0  0  0  0  0
   -9.2361   14.6940    2.1456 C   0  0  2  0  0  0  0  0  0  0  0  0
  -10.6434   14.9337    1.9296 O   0  0  0  0  0  0  0  0  0  0  0  0
  -12.0491   14.3267    4.2101 C   0  0  0  0  0  0  0  0  0  0  0  0
  -11.3619   13.2508    5.0088 O   0  0  0  0  0  0  0  0  0  0  0  0
  -10.7311   19.9279    3.1229 C   0  0  0  0  0  0  0  0  0  0  0  0
  -10.1024   19.2407    4.2305 O   0  0  0  0  0  0  0  0  0  0  0  0
   -9.0504   13.8278    3.4459 C   0  0  1  0  0  0  0  0  0  0  0  0
   -9.7203   12.6207    3.2591 O   0  0  0  0  0  0  0  0  0  0  0  0
  -13.7597   14.8351    2.4813 C   0  0  0  0  0  0  0  0  0  0  0  0
  -12.9369   11.0007    0.3960 C   0  0  0  0  0  0  0  0  0  0  0  0
  1  2  1  1  0  0  0
  1  6  1  0  0  0  0
  1 21  1  0  0  0  0
  3  4  1  1  0  0  0
  3  8  1  0  0  0  0
  3 28  1  0  0  0  0
  5  9  1  0  0  0  0
  5 25  1  0  0  0  0
  5 29  1  6  0  0  0
  6  7  1  6  0  0  0
  6 11  1  0  0  0  0
  8 12  1  0  0  0  0
  9 10  1  6  0  0  0
  9 14  1  0  0  0  0
 11 16  1  0  0  0  0
 12 13  1  1  0  0  0
 12 17  1  0  0  0  0
 14 15  1  6  0  0  0
 14 18  1  0  0  0  0
 15 31  1  0  0  0  0
 16 20  1  0  0  0  0
 17  2  1  6  0  0  0
 17 22  1  0  0  0  0
 18 19  1  1  0  0  0
 18 24  1  0  0  0  0
 18 30  1  0  0  0  0
 20 21  1  0  0  0  0
 20 26  1  6  0  0  0
 22 23  1  1  0  0  0
 22 28  1  0  0  0  0
 24 25  1  0  0  0  0
 26 27  1  0  0  0  0
 28 29  1  6  0  0  0
M  END
>  <CHROM.1>
-178.10559046,143.74901340,-71.42909429,175.61277785,-106.81620265,115.77028601
-10.21129283,15.15217905,2.43974993,1.13305156,-0.25418783,-0.37858097

>  <Name>
ligand

>  <RI>
0

>  <Rbt.Current_Directory>
/home/itssahil/PROJECTS/Mol_Feturizer/New_Systems/rnas/4GPX

>  <Rbt.Executable>
rbdock ($Id: //depot/dev/client3/rdock/2013.1/src/exe/rbdock.cxx#4 $)

>  <Rbt.Library>
libRbt.so (2013.1, Build901 2013/11/27)

>  <Rbt.Parameter_File>
/export/apps/rDock/src/rDock_2013.1_src/data/scripts/dock_solv.prm

>  <Rbt.Receptor>
prm/blind_docking_100.prm

>  <SCORE>
1.71627

>  <SCORE.INTER>
1.5104

>  <SCORE.INTER.CONST>
1

>  <SCORE.INTER.POLAR>
0

>  <SCORE.INTER.ROT>
6

>  <SCORE.INTER.SOLV>
30.2783

>  <SCORE.INTER.VDW>
-16.6858

>  <SCORE.INTER.norm>
0.0487226

>  <SCORE.INTRA>
-2.24556

>  <SCORE.INTRA.DIHEDRAL>
-6.69398

>  <SCORE.INTRA.DIHEDRAL.0>
20.6841

>  <SCORE.INTRA.POLAR>
0

>  <SCORE.INTRA.POLAR.0>
0

>  <SCORE.INTRA.REPUL>
0

>  <SCORE.INTRA.REPUL.0>
0

>  <SCORE.INTRA.SOLV>
-2.04443

>  <SCORE.INTRA.SOLV.lig_0>
-64.6797

>  <SCORE.INTRA.VDW>
2.12364

>  <SCORE.INTRA.VDW.0>
-4.11825

>  <SCORE.INTRA.norm>
-0.0724376

>  <SCORE.RESTR>
2.45144

>  <SCORE.RESTR.CAVITY>
2.45144

>  <SCORE.RESTR.norm>
0.0790786

>  <SCORE.SYSTEM>
0

>  <SCORE.SYSTEM.CONST>
0

>  <SCORE.SYSTEM.DIHEDRAL>
0

>  <SCORE.SYSTEM.SOLV>
0

>  <SCORE.SYSTEM.norm>
0

>  <SCORE.heavy>
31

>  <SCORE.norm>
0.0553636

>  <RMSD>
11.148

$$$$
ligand
 OpenBabel11021811493D
libRbt.so/2013.1/901 2013/11/27
 31 33  0  0  0  0  0  0  0  0999 V2000
   -9.9143   17.1871    0.6377 C   0  0  2  0  0  0  0  0  0  0  0  0
   -8.6622   16.8297    1.2154 O   0  0  0  0  0  0  0  0  0  0  0  0
   -7.5176   13.5415    3.6569 C   0  0  2  0  0  0  0  0  0  0  0  0
   -7.3265   12.7337    4.8222 N   0  0  0  0  0  0  0  0  0  0  0  0
  -10.7271   12.1163    4.2207 C   0  0  2  0  0  0  0  0  0  0  0  0
   -9.5914   18.1465   -0.5794 C   0  0  2  0  0  0  0  0  0  0  0  0
   -8.7383   17.4339   -1.5248 N   0  0  0  0  0  0  0  0  0  0  0  0
   -6.7573   14.9148    3.8714 C   0  0  0  0  0  0  0  0  0  0  0  0
  -11.7997   11.3996    3.3407 C   0  0  2  0  0  0  0  0  0  0  0  0
  -11.1629   10.3717    2.6123 O   0  0  0  0  0  0  0  0  0  0  0  0
   -8.8806   19.4630   -0.0690 C   0  0  0  0  0  0  0  0  0  0  0  0
   -6.9677   15.8077    2.5916 C   0  0  2  0  0  0  0  0  0  0  0  0
   -6.2674   17.0886    2.7875 N   0  0  0  0  0  0  0  0  0  0  0  0
  -12.4095   12.4832    2.3724 C   0  0  1  0  0  0  0  0  0  0  0  0
  -13.4375   11.8472    1.4837 N   0  0  0  0  0  0  0  0  0  0  0  0
   -9.4666   19.9658    1.3179 C   0  0  0  0  0  0  0  0  0  0  0  0
   -8.5228   16.0597    2.3596 C   0  0  2  0  0  0  0  0  0  0  0  0
  -13.1206   13.6309    3.2865 C   0  0  1  0  0  0  0  0  0  0  0  0
  -14.1329   13.1004    4.1250 O   0  0  0  0  0  0  0  0  0  0  0  0
  -10.3247   19.1950    2.0371 C   0  0  2  0  0  0  0  0  0  0  0  0
  -10.7491   17.9000    1.5962 O   0  0  0  0  0  0  0  0  0  0  0  0
   -9.2540   14.6807    2.1597 C   0  0  2  0  0  0  0  0  0  0  0  0
  -10.6641   14.9179    1.9602 O   0  0  0  0  0  0  0  0  0  0  0  0
  -12.0596   14.3008    4.2189 C   0  0  0  0  0  0  0  0  0  0  0  0
  -11.3626   13.2357    5.0238 O   0  0  0  0  0  0  0  0  0  0  0  0
  -10.9177   19.6367    3.3764 C   0  0  0  0  0  0  0  0  0  0  0  0
  -12.0938   18.8338    3.6340 O   0  0  0  0  0  0  0  0  0  0  0  0
   -9.0518   13.8124    3.4560 C   0  0  1  0  0  0  0  0  0  0  0  0
   -9.7213   12.6043    3.2744 O   0  0  0  0  0  0  0  0  0  0  0  0
  -13.7783   14.7842    2.4909 C   0  0  0  0  0  0  0  0  0  0  0  0
  -12.9337   10.9408    0.4317 C   0  0  0  0  0  0  0  0  0  0  0  0
  1  2  1  1  0  0  0
  1  6  1  0  0  0  0
  1 21  1  0  0  0  0
  3  4  1  1  0  0  0
  3  8  1  0  0  0  0
  3 28  1  0  0  0  0
  5  9  1  0  0  0  0
  5 25  1  0  0  0  0
  5 29  1  6  0  0  0
  6  7  1  6  0  0  0
  6 11  1  0  0  0  0
  8 12  1  0  0  0  0
  9 10  1  6  0  0  0
  9 14  1  0  0  0  0
 11 16  1  0  0  0  0
 12 13  1  1  0  0  0
 12 17  1  0  0  0  0
 14 15  1  6  0  0  0
 14 18  1  0  0  0  0
 15 31  1  0  0  0  0
 16 20  1  0  0  0  0
 17  2  1  6  0  0  0
 17 22  1  0  0  0  0
 18 19  1  1  0  0  0
 18 24  1  0  0  0  0
 18 30  1  0  0  0  0
 20 21  1  0  0  0  0
 20 26  1  6  0  0  0
 22 23  1  1  0  0  0
 22 28  1  0  0  0  0
 24 25  1  0  0  0  0
 26 27  1  0  0  0  0
 28 29  1  6  0  0  0
M  END
>  <CHROM.1>
176.00177111,144.27170206,-71.45412012,175.72065499,160.72929003,116.14583877
-10.31399741,15.11443169,2.46814789,1.16793987,-0.13457129,-0.32937946

>  <Name>
ligand

>  <RI>
0

>  <Rbt.Current_Directory>
/home/itssahil/PROJECTS/Mol_Feturizer/New_Systems/rnas/4GPX

>  <Rbt.Executable>
rbdock ($Id: //depot/dev/client3/rdock/2013.1/src/exe/rbdock.cxx#4 $)

>  <Rbt.Library>
libRbt.so (2013.1, Build901 2013/11/27)

>  <Rbt.Parameter_File>
/export/apps/rDock/src/rDock_2013.1_src/data/scripts/dock_solv.prm

>  <Rbt.Receptor>
prm/blind_docking_100.prm

>  <SCORE>
2.29525

>  <SCORE.INTER>
1.24933

>  <SCORE.INTER.CONST>
1

>  <SCORE.INTER.POLAR>
0

>  <SCORE.INTER.ROT>
6

>  <SCORE.INTER.SOLV>
28.9542

>  <SCORE.INTER.VDW>
-16.4185

>  <SCORE.INTER.norm>
0.0403008

>  <SCORE.INTRA>
-1.38648

>  <SCORE.INTRA.DIHEDRAL>
-5.46481

>  <SCORE.INTRA.DIHEDRAL.0>
20.6841

>  <SCORE.INTRA.POLAR>
0

>  <SCORE.INTRA.POLAR.0>
0

>  <SCORE.INTRA.REPUL>
0

>  <SCORE.INTRA.REPUL.0>
0

>  <SCORE.INTRA.SOLV>
-2.05328

>  <SCORE.INTRA.SOLV.lig_0>
-64.6797

>  <SCORE.INTRA.VDW>
2.37256

>  <SCORE.INTRA.VDW.0>
-4.11825

>  <SCORE.INTRA.norm>
-0.0447252

>  <SCORE.RESTR>
2.43241

>  <SCORE.RESTR.CAVITY>
2.43241

>  <SCORE.RESTR.norm>
0.0784648

>  <SCORE.SYSTEM>
0

>  <SCORE.SYSTEM.CONST>
0

>  <SCORE.SYSTEM.DIHEDRAL>
0

>  <SCORE.SYSTEM.SOLV>
0

>  <SCORE.SYSTEM.norm>
0

>  <SCORE.heavy>
31

>  <SCORE.norm>
0.0740405

>  <RMSD>
11.148

$$$$
ligand
 OpenBabel11021811493D
libRbt.so/2013.1/901 2013/11/27
 31 33  0  0  0  0  0  0  0  0999 V2000
  -11.8015    9.0445    1.2925 C   0  0  2  0  0  0  0  0  0  0  0  0
  -12.5727   10.0298    1.9733 O   0  0  0  0  0  0  0  0  0  0  0  0
  -11.9965   13.3285    4.5945 C   0  0  2  0  0  0  0  0  0  0  0  0
  -11.5883   14.0795    5.7417 N   0  0  0  0  0  0  0  0  0  0  0  0
   -9.3328   13.7865    2.1256 C   0  0  2  0  0  0  0  0  0  0  0  0
  -12.8284    8.1360    0.5013 C   0  0  2  0  0  0  0  0  0  0  0  0
  -13.5803    8.9758   -0.4254 N   0  0  0  0  0  0  0  0  0  0  0  0
  -12.9632   12.1689    5.0752 C   0  0  0  0  0  0  0  0  0  0  0  0
   -7.8580   14.2694    2.3000 C   0  0  2  0  0  0  0  0  0  0  0  0
   -7.1867   13.3546    3.1397 O   0  0  0  0  0  0  0  0  0  0  0  0
  -13.8033    7.4031    1.5069 C   0  0  0  0  0  0  0  0  0  0  0  0
  -13.4126   11.3384    3.8151 C   0  0  2  0  0  0  0  0  0  0  0  0
  -14.3075   10.2550    4.2566 N   0  0  0  0  0  0  0  0  0  0  0  0
   -7.9100   15.7025    2.9538 C   0  0  1  0  0  0  0  0  0  0  0  0
   -6.5153   16.2135    3.1654 N   0  0  0  0  0  0  0  0  0  0  0  0
  -13.0665    6.9471    2.8369 C   0  0  0  0  0  0  0  0  0  0  0  0
  -12.1338   10.7333    3.0842 C   0  0  2  0  0  0  0  0  0  0  0  0
   -8.6996   16.6944    1.9287 C   0  0  1  0  0  0  0  0  0  0  0  0
   -8.0770   16.7602    0.6569 O   0  0  0  0  0  0  0  0  0  0  0  0
  -11.8006    7.3581    3.1131 C   0  0  2  0  0  0  0  0  0  0  0  0
  -11.0615    8.2151    2.2351 O   0  0  0  0  0  0  0  0  0  0  0  0
  -11.1874   11.9043    2.6268 C   0  0  2  0  0  0  0  0  0  0  0  0
  -10.0265   11.3465    1.9743 O   0  0  0  0  0  0  0  0  0  0  0  0
  -10.1548   16.1717    1.6985 C   0  0  0  0  0  0  0  0  0  0  0  0
  -10.1006   14.7412    1.2307 O   0  0  0  0  0  0  0  0  0  0  0  0
  -11.0484    6.9437    4.3792 C   0  0  0  0  0  0  0  0  0  0  0  0
   -9.7291    6.4930    3.9911 O   0  0  0  0  0  0  0  0  0  0  0  0
  -10.7314   12.7081    3.9001 C   0  0  1  0  0  0  0  0  0  0  0  0
   -9.8781   13.7275    3.4837 O   0  0  0  0  0  0  0  0  0  0  0  0
   -8.8435   18.1563    2.4161 C   0  0  0  0  0  0  0  0  0  0  0  0
   -5.7643   15.6384    4.3001 C   0  0  0  0  0  0  0  0  0  0  0  0
  1  2  1  1  0  0  0
  1  6  1  0  0  0  0
  1 21  1  0  0  0  0
  3  4  1  1  0  0  0
  3  8  1  0  0  0  0
  3 28  1  0  0  0  0
  5  9  1  0  0  0  0
  5 25  1  0  0  0  0
  5 29  1  1  0  0  0
  6  7  1  6  0  0  0
  6 11  1  0  0  0  0
  8 12  1  0  0  0  0
  9 10  1  1  0  0  0
  9 14  1  0  0  0  0
 11 16  1  0  0  0  0
 12 13  1  1  0  0  0
 12 17  1  0  0  0  0
 14 15  1  6  0  0  0
 14 18  1  0  0  0  0
 15 31  1  0  0  0  0
 16 20  1  0  0  0  0
 17  2  1  6  0  0  0
 17 22  1  0  0  0  0
 18 19  1  6  0  0  0
 18 24  1  0  0  0  0
 18 30  1  0  0  0  0
 20 21  1  0  0  0  0
 20 26  1  6  0  0  0
 22 23  1  1  0  0  0
 22 28  1  0  0  0  0
 24 25  1  0  0  0  0
 26 27  1  0  0  0  0
 28 29  1  6  0  0  0
M  END
>  <CHROM.1>
158.43563698,-140.78598332,-76.00917440,-161.12021544,131.77715593,-130.22519027
-10.59907820,12.02329237,2.76130494,-2.07114051,-0.09833287,-0.04386340

>  <Name>
ligand

>  <RI>
0

>  <Rbt.Current_Directory>
/home/itssahil/PROJECTS/Mol_Feturizer/New_Systems/rnas/4GPX

>  <Rbt.Executable>
rbdock ($Id: //depot/dev/client3/rdock/2013.1/src/exe/rbdock.cxx#4 $)

>  <Rbt.Library>
libRbt.so (2013.1, Build901 2013/11/27)

>  <Rbt.Parameter_File>
/export/apps/rDock/src/rDock_2013.1_src/data/scripts/dock_solv.prm

>  <Rbt.Receptor>
prm/blind_docking_20.prm

>  <SCORE>
21.4735

>  <SCORE.INTER>
9.14188

>  <SCORE.INTER.CONST>
1

>  <SCORE.INTER.POLAR>
0

>  <SCORE.INTER.ROT>
6

>  <SCORE.INTER.SOLV>
32.1883

>  <SCORE.INTER.VDW>
-12.2349

>  <SCORE.INTER.norm>
0.294899

>  <SCORE.INTRA>
2.16731

>  <SCORE.INTRA.DIHEDRAL>
-2.98061

>  <SCORE.INTRA.DIHEDRAL.0>
20.6841

>  <SCORE.INTRA.POLAR>
0

>  <SCORE.INTRA.POLAR.0>
0

>  <SCORE.INTRA.REPUL>
0

>  <SCORE.INTRA.REPUL.0>
0

>  <SCORE.INTRA.SOLV>
-1.93567

>  <SCORE.INTRA.SOLV.lig_0>
-64.6797

>  <SCORE.INTRA.VDW>
4.62545

>  <SCORE.INTRA.VDW.0>
-4.11825

>  <SCORE.INTRA.norm>
0.0699133

>  <SCORE.RESTR>
10.1643

>  <SCORE.RESTR.CAVITY>
10.1643

>  <SCORE.RESTR.norm>
0.327881

>  <SCORE.SYSTEM>
0

>  <SCORE.SYSTEM.CONST>
0

>  <SCORE.SYSTEM.DIHEDRAL>
0

>  <SCORE.SYSTEM.SOLV>
0

>  <SCORE.SYSTEM.norm>
0

>  <SCORE.heavy>
31

>  <SCORE.norm>
0.692694

>  <RMSD>
11.156

$$$$
ligand
 OpenBabel11021811493D
libRbt.so/2013.1/901 2013/11/27
 31 33  0  0  0  0  0  0  0  0999 V2000
   -6.2720   16.2385    4.1539 C   0  0  2  0  0  0  0  0  0  0  0  0
   -6.4456   15.9500    2.7697 O   0  0  0  0  0  0  0  0  0  0  0  0
  -10.6715   15.6749    2.3828 C   0  0  2  0  0  0  0  0  0  0  0  0
  -11.9627   15.5721    1.7752 N   0  0  0  0  0  0  0  0  0  0  0  0
  -10.2044   11.9493    1.8594 C   0  0  2  0  0  0  0  0  0  0  0  0
   -4.7418   16.5923    4.3519 C   0  0  2  0  0  0  0  0  0  0  0  0
   -4.4127   17.7383    3.5107 N   0  0  0  0  0  0  0  0  0  0  0  0
   -9.9688   16.9880    1.8425 C   0  0  0  0  0  0  0  0  0  0  0  0
  -10.7375   12.0773    0.3971 C   0  0  2  0  0  0  0  0  0  0  0  0
  -10.0381   13.1243   -0.2412 O   0  0  0  0  0  0  0  0  0  0  0  0
   -3.8372   15.3499    3.9813 C   0  0  0  0  0  0  0  0  0  0  0  0
   -8.5460   17.1030    2.5073 C   0  0  2  0  0  0  0  0  0  0  0  0
   -7.8853   18.3196    2.0044 N   0  0  0  0  0  0  0  0  0  0  0  0
  -12.2774   12.4001    0.4880 C   0  0  1  0  0  0  0  0  0  0  0  0
  -12.8447   12.5549   -0.8923 N   0  0  0  0  0  0  0  0  0  0  0  0
   -4.4888   13.9741    4.4309 C   0  0  0  0  0  0  0  0  0  0  0  0
   -7.6781   15.8167    2.1495 C   0  0  2  0  0  0  0  0  0  0  0  0
  -13.0096   11.1505    1.2366 C   0  0  1  0  0  0  0  0  0  0  0  0
  -12.8073    9.9228    0.5573 O   0  0  0  0  0  0  0  0  0  0  0  0
   -5.7706   13.9191    4.8801 C   0  0  2  0  0  0  0  0  0  0  0  0
   -6.6024   15.0812    4.9756 O   0  0  0  0  0  0  0  0  0  0  0  0
   -8.4029   14.5280    2.6880 C   0  0  2  0  0  0  0  0  0  0  0  0
   -7.6146   13.3664    2.3506 O   0  0  0  0  0  0  0  0  0  0  0  0
  -12.4259   10.9775    2.6765 C   0  0  0  0  0  0  0  0  0  0  0  0
  -10.9290   10.8356    2.5919 O   0  0  0  0  0  0  0  0  0  0  0  0
   -6.4412   12.6186    5.3267 C   0  0  0  0  0  0  0  0  0  0  0  0
   -7.7888   12.6035    4.7993 O   0  0  0  0  0  0  0  0  0  0  0  0
   -9.8119   14.4181    1.9965 C   0  0  1  0  0  0  0  0  0  0  0  0
  -10.4334   13.2629    2.4654 O   0  0  0  0  0  0  0  0  0  0  0  0
  -14.5401   11.3007    1.4119 C   0  0  0  0  0  0  0  0  0  0  0  0
  -12.3823   13.7217   -1.6714 C   0  0  0  0  0  0  0  0  0  0  0  0
  1  2  1  6  0  0  0
  1  6  1  0  0  0  0
  1 21  1  0  0  0  0
  3  4  1  6  0  0  0
  3  8  1  0  0  0  0
  3 28  1  0  0  0  0
  5  9  1  0  0  0  0
  5 25  1  0  0  0  0
  5 29  1  1  0  0  0
  6  7  1  6  0  0  0
  6 11  1  0  0  0  0
  8 12  1  0  0  0  0
  9 10  1  1  0  0  0
  9 14  1  0  0  0  0
 11 16  1  0  0  0  0
 12 13  1  6  0  0  0
 12 17  1  0  0  0  0
 14 15  1  6  0  0  0
 14 18  1  0  0  0  0
 15 31  1  0  0  0  0
 16 20  1  0  0  0  0
 17  2  1  1  0  0  0
 17 22  1  0  0  0  0
 18 19  1  6  0  0  0
 18 24  1  0  0  0  0
 18 30  1  0  0  0  0
 20 21  1  0  0  0  0
 20 26  1  1  0  0  0
 22 23  1  6  0  0  0
 22 28  1  0  0  0  0
 24 25  1  0  0  0  0
 26 27  1  0  0  0  0
 28 29  1  1  0  0  0
M  END
>  <CHROM.1>
-168.56561064,-63.01673682,-67.22095253,51.68599734,-137.61459674,155.63555715
-9.10877740,13.99126555,2.37478587,0.29487955,-0.57104858,-0.36604908

>  <Name>
ligand

>  <RI>
0

>  <Rbt.Current_Directory>
/home/itssahil/PROJECTS/Mol_Feturizer/New_Systems/rnas/4GPX

>  <Rbt.Executable>
rbdock ($Id: //depot/dev/client3/rdock/2013.1/src/exe/rbdock.cxx#4 $)

>  <Rbt.Library>
libRbt.so (2013.1, Build901 2013/11/27)

>  <Rbt.Parameter_File>
/export/apps/rDock/src/rDock_2013.1_src/data/scripts/dock_solv.prm

>  <Rbt.Receptor>
prm/blind_docking_60.prm

>  <SCORE>
9.76496

>  <SCORE.INTER>
5.41117

>  <SCORE.INTER.CONST>
1

>  <SCORE.INTER.POLAR>
0

>  <SCORE.INTER.ROT>
6

>  <SCORE.INTER.SOLV>
30.455

>  <SCORE.INTER.VDW>
-14.1442

>  <SCORE.INTER.norm>
0.174554

>  <SCORE.INTRA>
-3.83703

>  <SCORE.INTRA.DIHEDRAL>
-15.0101

>  <SCORE.INTRA.DIHEDRAL.0>
20.6841

>  <SCORE.INTRA.POLAR>
0

>  <SCORE.INTRA.POLAR.0>
0

>  <SCORE.INTRA.REPUL>
0

>  <SCORE.INTRA.REPUL.0>
0

>  <SCORE.INTRA.SOLV>
2.20902

>  <SCORE.INTRA.SOLV.lig_0>
-64.6797

>  <SCORE.INTRA.VDW>
2.5635

>  <SCORE.INTRA.VDW.0>
-4.11825

>  <SCORE.INTRA.norm>
-0.123775

>  <SCORE.RESTR>
8.19083

>  <SCORE.RESTR.CAVITY>
8.19083

>  <SCORE.RESTR.norm>
0.26422

>  <SCORE.SYSTEM>
0

>  <SCORE.SYSTEM.CONST>
0

>  <SCORE.SYSTEM.DIHEDRAL>
0

>  <SCORE.SYSTEM.SOLV>
0

>  <SCORE.SYSTEM.norm>
0

>  <SCORE.heavy>
31

>  <SCORE.norm>
0.314999

>  <RMSD>
11.179

$$$$
ligand
 OpenBabel11021811493D
libRbt.so/2013.1/901 2013/11/27
 31 33  0  0  0  0  0  0  0  0999 V2000
  -10.0614   17.3175    0.7987 C   0  0  2  0  0  0  0  0  0  0  0  0
   -8.7902   16.8766    1.2666 O   0  0  0  0  0  0  0  0  0  0  0  0
   -7.5483   13.5276    3.5743 C   0  0  2  0  0  0  0  0  0  0  0  0
   -7.3103   12.6903    4.7098 N   0  0  0  0  0  0  0  0  0  0  0  0
  -10.7135   12.0732    4.2428 C   0  0  2  0  0  0  0  0  0  0  0  0
   -9.7819   18.2727   -0.4323 C   0  0  2  0  0  0  0  0  0  0  0  0
   -9.0557   17.5232   -1.4521 N   0  0  0  0  0  0  0  0  0  0  0  0
   -6.7797   14.8956    3.7931 C   0  0  0  0  0  0  0  0  0  0  0  0
  -11.7749   11.2885    3.4084 C   0  0  2  0  0  0  0  0  0  0  0  0
  -11.1088   10.2845    2.6730 O   0  0  0  0  0  0  0  0  0  0  0  0
   -8.9515   19.5363    0.0290 C   0  0  0  0  0  0  0  0  0  0  0  0
   -7.0415   15.8209    2.5462 C   0  0  2  0  0  0  0  0  0  0  0  0
   -6.3335   17.0969    2.7464 N   0  0  0  0  0  0  0  0  0  0  0  0
  -12.4719   12.3243    2.4467 C   0  0  1  0  0  0  0  0  0  0  0  0
  -13.4932   11.6224    1.6010 N   0  0  0  0  0  0  0  0  0  0  0  0
   -9.3885   20.0540    1.4645 C   0  0  0  0  0  0  0  0  0  0  0  0
   -8.6047   16.0775    2.3840 C   0  0  2  0  0  0  0  0  0  0  0  0
  -13.2123   13.4468    3.3686 C   0  0  1  0  0  0  0  0  0  0  0  0
  -14.1676   12.8768    4.2471 O   0  0  0  0  0  0  0  0  0  0  0  0
  -10.2299   19.3265    2.2458 C   0  0  2  0  0  0  0  0  0  0  0  0
  -10.7683   18.0660    1.8302 O   0  0  0  0  0  0  0  0  0  0  0  0
   -9.3437   14.7036    2.1784 C   0  0  2  0  0  0  0  0  0  0  0  0
  -10.7607   14.9447    2.0424 O   0  0  0  0  0  0  0  0  0  0  0  0
  -12.1584   14.1850    4.2564 C   0  0  0  0  0  0  0  0  0  0  0  0
  -11.3807   13.1698    5.0517 O   0  0  0  0  0  0  0  0  0  0  0  0
  -10.6815   19.7843    3.6340 C   0  0  0  0  0  0  0  0  0  0  0  0
  -12.0914   19.4870    3.7688 O   0  0  0  0  0  0  0  0  0  0  0  0
   -9.0893   13.8023    3.4427 C   0  0  1  0  0  0  0  0  0  0  0  0
   -9.7659   12.5988    3.2574 O   0  0  0  0  0  0  0  0  0  0  0  0
  -13.9552   14.5523    2.5801 C   0  0  0  0  0  0  0  0  0  0  0  0
  -12.9769   10.7561    0.5215 C   0  0  0  0  0  0  0  0  0  0  0  0
  1  2  1  1  0  0  0
  1  6  1  0  0  0  0
  1 21  1  0  0  0  0
  3  4  1  1  0  0  0
  3  8  1  0  0  0  0
  3 28  1  0  0  0  0
  5  9  1  0  0  0  0
  5 25  1  0  0  0  0
  5 29  1  6  0  0  0
  6  7  1  6  0  0  0
  6 11  1  0  0  0  0
  8 12  1  0  0  0  0
  9 10  1  6  0  0  0
  9 14  1  0  0  0  0
 11 16  1  0  0  0  0
 12 13  1  1  0  0  0
 12 17  1  0  0  0  0
 14 15  1  1  0  0  0
 14 18  1  0  0  0  0
 15 31  1  0  0  0  0
 16 20  1  0  0  0  0
 17  2  1  6  0  0  0
 17 22  1  0  0  0  0
 18 19  1  1  0  0  0
 18 24  1  0  0  0  0
 18 30  1  0  0  0  0
 20 21  1  0  0  0  0
 20 26  1  6  0  0  0
 22 23  1  1  0  0  0
 22 28  1  0  0  0  0
 24 25  1  0  0  0  0
 26 27  1  0  0  0  0
 28 29  1  6  0  0  0
M  END
>  <CHROM.1>
176.35615885,148.55713575,-73.04409229,179.88228596,138.52605590,114.94495577
-10.36119047,15.11697387,2.53502015,1.19223318,-0.10081283,-0.27694747

>  <Name>
ligand

>  <RI>
0

>  <Rbt.Current_Directory>
/home/itssahil/PROJECTS/Mol_Feturizer/New_Systems/rnas/4GPX

>  <Rbt.Executable>
rbdock ($Id: //depot/dev/client3/rdock/2013.1/src/exe/rbdock.cxx#4 $)

>  <Rbt.Library>
libRbt.so (2013.1, Build901 2013/11/27)

>  <Rbt.Parameter_File>
/export/apps/rDock/src/rDock_2013.1_src/data/scripts/dock_solv.prm

>  <Rbt.Receptor>
prm/blind_docking_100.prm

>  <SCORE>
1.97117

>  <SCORE.INTER>
2.15541

>  <SCORE.INTER.CONST>
1

>  <SCORE.INTER.POLAR>
0

>  <SCORE.INTER.ROT>
6

>  <SCORE.INTER.SOLV>
28.4539

>  <SCORE.INTER.VDW>
-15.6477

>  <SCORE.INTER.norm>
0.0695293

>  <SCORE.INTRA>
-2.83495

>  <SCORE.INTRA.DIHEDRAL>
-7.43623

>  <SCORE.INTRA.DIHEDRAL.0>
20.6841

>  <SCORE.INTRA.POLAR>
0

>  <SCORE.INTRA.POLAR.0>
0

>  <SCORE.INTRA.REPUL>
0

>  <SCORE.INTRA.REPUL.0>
0

>  <SCORE.INTRA.SOLV>
-2.13134

>  <SCORE.INTRA.SOLV.lig_0>
-64.6797

>  <SCORE.INTRA.VDW>
1.94884

>  <SCORE.INTRA.VDW.0>
-4.11825

>  <SCORE.INTRA.norm>
-0.09145

>  <SCORE.RESTR>
2.65072

>  <SCORE.RESTR.CAVITY>
2.65072

>  <SCORE.RESTR.norm>
0.085507

>  <SCORE.SYSTEM>
0

>  <SCORE.SYSTEM.CONST>
0

>  <SCORE.SYSTEM.DIHEDRAL>
0

>  <SCORE.SYSTEM.SOLV>
0

>  <SCORE.SYSTEM.norm>
0

>  <SCORE.heavy>
31

>  <SCORE.norm>
0.0635863

>  <RMSD>
11.181

$$$$
ligand
 OpenBabel11021811493D
libRbt.so/2013.1/901 2013/11/27
 31 33  0  0  0  0  0  0  0  0999 V2000
   -6.2686   16.2335    4.1644 C   0  0  2  0  0  0  0  0  0  0  0  0
   -6.4375   15.9316    2.7826 O   0  0  0  0  0  0  0  0  0  0  0  0
  -10.6632   15.6832    2.3764 C   0  0  2  0  0  0  0  0  0  0  0  0
  -11.9522   15.5862    1.7630 N   0  0  0  0  0  0  0  0  0  0  0  0
  -10.2221   11.9528    1.8706 C   0  0  2  0  0  0  0  0  0  0  0  0
   -4.7446   16.6147    4.3593 C   0  0  2  0  0  0  0  0  0  0  0  0
   -4.4352   17.7598    3.5094 N   0  0  0  0  0  0  0  0  0  0  0  0
   -9.9490   16.9889    1.8332 C   0  0  0  0  0  0  0  0  0  0  0  0
  -10.7435   12.0826    0.4044 C   0  0  2  0  0  0  0  0  0  0  0  0
  -10.0290   13.1207   -0.2315 O   0  0  0  0  0  0  0  0  0  0  0  0
   -3.8191   15.3852    3.9979 C   0  0  0  0  0  0  0  0  0  0  0  0
   -8.5287   17.0975    2.5043 C   0  0  2  0  0  0  0  0  0  0  0  0
   -7.8573   18.3072    1.9988 N   0  0  0  0  0  0  0  0  0  0  0  0
  -12.2806   12.4214    0.4835 C   0  0  1  0  0  0  0  0  0  0  0  0
  -12.8366   12.5785   -0.9011 N   0  0  0  0  0  0  0  0  0  0  0  0
   -4.4471   14.0019    4.4580 C   0  0  0  0  0  0  0  0  0  0  0  0
   -7.6679   15.8037    2.1570 C   0  0  2  0  0  0  0  0  0  0  0  0
  -13.0309   11.1811    1.2300 C   0  0  1  0  0  0  0  0  0  0  0  0
  -12.8364    9.9498    0.5552 O   0  0  0  0  0  0  0  0  0  0  0  0
   -5.7277   13.9285    4.9080 C   0  0  2  0  0  0  0  0  0  0  0  0
   -6.5791   15.0770    4.9950 O   0  0  0  0  0  0  0  0  0  0  0  0
   -8.4040   14.5226    2.6982 C   0  0  2  0  0  0  0  0  0  0  0  0
   -7.6220   13.3540    2.3703 O   0  0  0  0  0  0  0  0  0  0  0  0
  -12.4592   11.0058    2.6744 C   0  0  0  0  0  0  0  0  0  0  0  0
  -10.9633   10.8484    2.6007 O   0  0  0  0  0  0  0  0  0  0  0  0
   -6.3760   12.6202    5.3646 C   0  0  0  0  0  0  0  0  0  0  0  0
   -7.7155   12.5681    4.8195 O   0  0  0  0  0  0  0  0  0  0  0  0
   -9.8103   14.4188    2.0004 C   0  0  1  0  0  0  0  0  0  0  0  0
  -10.4419   13.2701    2.4718 O   0  0  0  0  0  0  0  0  0  0  0  0
  -14.5610   11.3475    1.3941 C   0  0  0  0  0  0  0  0  0  0  0  0
  -12.3600   13.7410   -1.6781 C   0  0  0  0  0  0  0  0  0  0  0  0
  1  2  1  6  0  0  0
  1  6  1  0  0  0  0
  1 21  1  0  0  0  0
  3  4  1  6  0  0  0
  3  8  1  0  0  0  0
  3 28  1  0  0  0  0
  5  9  1  0  0  0  0
  5 25  1  0  0  0  0
  5 29  1  1  0  0  0
  6  7  1  6  0  0  0
  6 11  1  0  0  0  0
  8 12  1  0  0  0  0
  9 10  1  1  0  0  0
  9 14  1  0  0  0  0
 11 16  1  0  0  0  0
 12 13  1  6  0  0  0
 12 17  1  0  0  0  0
 14 15  1  6  0  0  0
 14 18  1  0  0  0  0
 15 31  1  0  0  0  0
 16 20  1  0  0  0  0
 17  2  1  1  0  0  0
 17 22  1  0  0  0  0
 18 19  1  6  0  0  0
 18 24  1  0  0  0  0
 18 30  1  0  0  0  0
 20 21  1  0  0  0  0
 20 26  1  1  0  0  0
 22 23  1  6  0  0  0
 22 28  1  0  0  0  0
 24 25  1  0  0  0  0
 26 27  1  0  0  0  0
 28 29  1  1  0  0  0
M  END
>  <CHROM.1>
-166.98208482,-62.69484212,-67.41064613,51.29830677,-136.68610920,155.43948972
-9.10215851,13.99913086,2.38070831,0.28629526,-0.57151670,-0.37168740

>  <Name>
ligand

>  <RI>
0

>  <Rbt.Current_Directory>
/home/itssahil/PROJECTS/Mol_Feturizer/New_Systems/rnas/4GPX

>  <Rbt.Executable>
rbdock ($Id: //depot/dev/client3/rdock/2013.1/src/exe/rbdock.cxx#4 $)

>  <Rbt.Library>
libRbt.so (2013.1, Build901 2013/11/27)

>  <Rbt.Parameter_File>
/export/apps/rDock/src/rDock_2013.1_src/data/scripts/dock_solv.prm

>  <Rbt.Receptor>
prm/blind_docking_60.prm

>  <SCORE>
9.57427

>  <SCORE.INTER>
5.0729

>  <SCORE.INTER.CONST>
1

>  <SCORE.INTER.POLAR>
0

>  <SCORE.INTER.ROT>
6

>  <SCORE.INTER.SOLV>
30.449

>  <SCORE.INTER.VDW>
-14.3677

>  <SCORE.INTER.norm>
0.163642

>  <SCORE.INTRA>
-3.73519

>  <SCORE.INTRA.DIHEDRAL>
-14.8087

>  <SCORE.INTRA.DIHEDRAL.0>
20.6841

>  <SCORE.INTRA.POLAR>
0

>  <SCORE.INTRA.POLAR.0>
0

>  <SCORE.INTRA.REPUL>
0

>  <SCORE.INTRA.REPUL.0>
0

>  <SCORE.INTRA.SOLV>
2.27682

>  <SCORE.INTRA.SOLV.lig_0>
-64.6797

>  <SCORE.INTRA.VDW>
2.53073

>  <SCORE.INTRA.VDW.0>
-4.11825

>  <SCORE.INTRA.norm>
-0.12049

>  <SCORE.RESTR>
8.23656

>  <SCORE.RESTR.CAVITY>
8.23656

>  <SCORE.RESTR.norm>
0.265695

>  <SCORE.SYSTEM>
0

>  <SCORE.SYSTEM.CONST>
0

>  <SCORE.SYSTEM.DIHEDRAL>
0

>  <SCORE.SYSTEM.SOLV>
0

>  <SCORE.SYSTEM.norm>
0

>  <SCORE.heavy>
31

>  <SCORE.norm>
0.308847

>  <RMSD>
11.185

$$$$
ligand
 OpenBabel11021811493D
libRbt.so/2013.1/901 2013/11/27
 31 33  0  0  0  0  0  0  0  0999 V2000
   -6.2875   16.2650    4.1395 C   0  0  2  0  0  0  0  0  0  0  0  0
   -6.4665   15.9816    2.7550 O   0  0  0  0  0  0  0  0  0  0  0  0
  -10.6947   15.7226    2.3814 C   0  0  2  0  0  0  0  0  0  0  0  0
  -11.9882   15.6246    1.7780 N   0  0  0  0  0  0  0  0  0  0  0  0
  -10.2158   11.9896    1.8806 C   0  0  2  0  0  0  0  0  0  0  0  0
   -4.7567   16.6191    4.3325 C   0  0  2  0  0  0  0  0  0  0  0  0
   -4.4319   17.7685    3.4944 N   0  0  0  0  0  0  0  0  0  0  0  0
   -9.9887   17.0328    1.8387 C   0  0  0  0  0  0  0  0  0  0  0  0
  -10.7174   12.0952    0.4055 C   0  0  2  0  0  0  0  0  0  0  0  0
  -10.0100   13.1378   -0.2312 O   0  0  0  0  0  0  0  0  0  0  0  0
   -3.8528   15.3788    3.9536 C   0  0  0  0  0  0  0  0  0  0  0  0
   -8.5633   17.1426    2.4989 C   0  0  2  0  0  0  0  0  0  0  0  0
   -7.8996   18.3566    1.9936 N   0  0  0  0  0  0  0  0  0  0  0  0
  -12.2607   12.4101    0.4583 C   0  0  1  0  0  0  0  0  0  0  0  0
  -12.7983   12.5433   -0.9361 N   0  0  0  0  0  0  0  0  0  0  0  0
   -4.5016   14.0008    4.4006 C   0  0  0  0  0  0  0  0  0  0  0  0
   -7.7015   15.8529    2.1387 C   0  0  2  0  0  0  0  0  0  0  0  0
  -13.0022   11.1661    1.2072 C   0  0  1  0  0  0  0  0  0  0  0  0
  -12.7781    9.9309    0.5490 O   0  0  0  0  0  0  0  0  0  0  0  0
   -5.7815   13.9432    4.8548 C   0  0  2  0  0  0  0  0  0  0  0  0
   -6.6137   15.1043    4.9582 O   0  0  0  0  0  0  0  0  0  0  0  0
   -8.4295   14.5671    2.6798 C   0  0  2  0  0  0  0  0  0  0  0  0
   -7.6468   13.4024    2.3402 O   0  0  0  0  0  0  0  0  0  0  0  0
  -12.4493   11.0156    2.6617 C   0  0  0  0  0  0  0  0  0  0  0  0
  -10.9502   10.8815    2.6118 O   0  0  0  0  0  0  0  0  0  0  0  0
   -6.4494   12.6405    5.2992 C   0  0  0  0  0  0  0  0  0  0  0  0
   -7.7912   12.6158    4.7577 O   0  0  0  0  0  0  0  0  0  0  0  0
   -9.8411   14.4624    1.9928 C   0  0  1  0  0  0  0  0  0  0  0  0
  -10.4655   13.3097    2.4640 O   0  0  0  0  0  0  0  0  0  0  0  0
  -14.5370   11.3097    1.3469 C   0  0  0  0  0  0  0  0  0  0  0  0
  -12.3320   13.7071   -1.7173 C   0  0  0  0  0  0  0  0  0  0  0  0
  1  2  1  6  0  0  0
  1  6  1  0  0  0  0
  1 21  1  0  0  0  0
  3  4  1  6  0  0  0
  3  8  1  0  0  0  0
  3 28  1  0  0  0  0
  5  9  1  0  0  0  0
  5 25  1  0  0  0  0
  5 29  1  1  0  0  0
  6  7  1  6  0  0  0
  6 11  1  0  0  0  0
  8 12  1  0  0  0  0
  9 10  1  1  0  0  0
  9 14  1  0  0  0  0
 11 16  1  0  0  0  0
 12 13  1  6  0  0  0
 12 17  1  0  0  0  0
 14 15  1  6  0  0  0
 14 18  1  0  0  0  0
 15 31  1  0  0  0  0
 16 20  1  0  0  0  0
 17  2  1  1  0  0  0
 17 22  1  0  0  0  0
 18 19  1  6  0  0  0
 18 24  1  0  0  0  0
 18 30  1  0  0  0  0
 20 21  1  0  0  0  0
 20 26  1  1  0  0  0
 22 23  1  6  0  0  0
 22 28  1  0  0  0  0
 24 25  1  0  0  0  0
 26 27  1  0  0  0  0
 28 29  1  1  0  0  0
M  END
>  <CHROM.1>
-168.41017292,-62.96672274,-67.59193753,51.92612745,-136.62622204,157.31974964
-9.11600165,14.01842051,2.35964449,0.30151603,-0.57172936,-0.35981494

>  <Name>
ligand

>  <RI>
0

>  <Rbt.Current_Directory>
/home/itssahil/PROJECTS/Mol_Feturizer/New_Systems/rnas/4GPX

>  <Rbt.Executable>
rbdock ($Id: //depot/dev/client3/rdock/2013.1/src/exe/rbdock.cxx#4 $)

>  <Rbt.Library>
libRbt.so (2013.1, Build901 2013/11/27)

>  <Rbt.Parameter_File>
/export/apps/rDock/src/rDock_2013.1_src/data/scripts/dock_solv.prm

>  <Rbt.Receptor>
prm/blind_docking_60.prm

>  <SCORE>
9.54628

>  <SCORE.INTER>
5.30246

>  <SCORE.INTER.CONST>
1

>  <SCORE.INTER.POLAR>
0

>  <SCORE.INTER.ROT>
6

>  <SCORE.INTER.SOLV>
30.4988

>  <SCORE.INTER.VDW>
-14.2313

>  <SCORE.INTER.norm>
0.171047

>  <SCORE.INTRA>
-3.98799

>  <SCORE.INTRA.DIHEDRAL>
-15.347

>  <SCORE.INTRA.DIHEDRAL.0>
20.6841

>  <SCORE.INTRA.POLAR>
0

>  <SCORE.INTRA.POLAR.0>
0

>  <SCORE.INTRA.REPUL>
0

>  <SCORE.INTRA.REPUL.0>
0

>  <SCORE.INTRA.SOLV>
2.06926

>  <SCORE.INTRA.SOLV.lig_0>
-64.6797

>  <SCORE.INTRA.VDW>
2.6509

>  <SCORE.INTRA.VDW.0>
-4.11825

>  <SCORE.INTRA.norm>
-0.128645

>  <SCORE.RESTR>
8.23182

>  <SCORE.RESTR.CAVITY>
8.23182

>  <SCORE.RESTR.norm>
0.265543

>  <SCORE.SYSTEM>
0

>  <SCORE.SYSTEM.CONST>
0

>  <SCORE.SYSTEM.DIHEDRAL>
0

>  <SCORE.SYSTEM.SOLV>
0

>  <SCORE.SYSTEM.norm>
0

>  <SCORE.heavy>
31

>  <SCORE.norm>
0.307945

>  <RMSD>
11.189

$$$$
ligand
 OpenBabel11021811493D
libRbt.so/2013.1/901 2013/11/27
 31 33  0  0  0  0  0  0  0  0999 V2000
    4.0559    3.9219    1.7848 C   0  0  2  0  0  0  0  0  0  0  0  0
    4.4717    5.0976    1.0962 O   0  0  0  0  0  0  0  0  0  0  0  0
    3.9436    8.1485    4.0112 C   0  0  2  0  0  0  0  0  0  0  0  0
    3.9049    9.4498    4.6044 N   0  0  0  0  0  0  0  0  0  0  0  0
    0.9181    7.3713    4.1097 C   0  0  2  0  0  0  0  0  0  0  0  0
    4.9088    2.7273    1.1921 C   0  0  2  0  0  0  0  0  0  0  0  0
    6.3243    3.0112    1.4039 N   0  0  0  0  0  0  0  0  0  0  0  0
    5.4138    7.8840    3.4833 C   0  0  0  0  0  0  0  0  0  0  0  0
   -0.4140    8.0892    4.4956 C   0  0  2  0  0  0  0  0  0  0  0  0
   -1.0960    8.4299    3.3075 O   0  0  0  0  0  0  0  0  0  0  0  0
    4.6010    2.5420   -0.3474 C   0  0  0  0  0  0  0  0  0  0  0  0
    5.4594    6.4533    2.8272 C   0  0  2  0  0  0  0  0  0  0  0  0
    6.8231    6.2039    2.3294 N   0  0  0  0  0  0  0  0  0  0  0  0
   -0.0291    9.3790    5.3153 C   0  0  1  0  0  0  0  0  0  0  0  0
   -1.2729   10.1251    5.6991 N   0  0  0  0  0  0  0  0  0  0  0  0
    3.0706    2.7870   -0.6901 C   0  0  0  0  0  0  0  0  0  0  0  0
    4.4129    6.3758    1.6295 C   0  0  2  0  0  0  0  0  0  0  0  0
    0.7536    8.9026    6.6639 C   0  0  1  0  0  0  0  0  0  0  0  0
   -0.0306    8.0326    7.4623 O   0  0  0  0  0  0  0  0  0  0  0  0
    2.2191    3.3039    0.2348 C   0  0  2  0  0  0  0  0  0  0  0  0
    2.6414    3.6545    1.5578 O   0  0  0  0  0  0  0  0  0  0  0  0
    2.9645    6.6516    2.1793 C   0  0  2  0  0  0  0  0  0  0  0  0
    2.0239    6.5893    1.0857 O   0  0  0  0  0  0  0  0  0  0  0  0
    2.0518    8.1220    6.2773 C   0  0  0  0  0  0  0  0  0  0  0  0
    1.6926    6.9861    5.3562 O   0  0  0  0  0  0  0  0  0  0  0  0
    0.7366    3.5555   -0.0471 C   0  0  0  0  0  0  0  0  0  0  0  0
    0.0339    2.2973    0.0854 O   0  0  0  0  0  0  0  0  0  0  0  0
    2.9327    8.0926    2.8101 C   0  0  1  0  0  0  0  0  0  0  0  0
    1.6408    8.3321    3.2732 O   0  0  0  0  0  0  0  0  0  0  0  0
    1.2084   10.0522    7.5951 C   0  0  0  0  0  0  0  0  0  0  0  0
   -1.6061   11.3166    4.8920 C   0  0  0  0  0  0  0  0  0  0  0  0
  1  2  1  6  0  0  0
  1  6  1  0  0  0  0
  1 21  1  0  0  0  0
  3  4  1  6  0  0  0
  3  8  1  0  0  0  0
  3 28  1  0  0  0  0
  5  9  1  0  0  0  0
  5 25  1  0  0  0  0
  5 29  1  6  0  0  0
  6  7  1  6  0  0  0
  6 11  1  0  0  0  0
  8 12  1  0  0  0  0
  9 10  1  6  0  0  0
  9 14  1  0  0  0  0
 11 16  1  0  0  0  0
 12 13  1  6  0  0  0
 12 17  1  0  0  0  0
 14 15  1  1  0  0  0
 14 18  1  0  0  0  0
 15 31  1  0  0  0  0
 16 20  1  0  0  0  0
 17  2  1  1  0  0  0
 17 22  1  0  0  0  0
 18 19  1  1  0  0  0
 18 24  1  0  0  0  0
 18 30  1  0  0  0  0
 20 21  1  0  0  0  0
 20 26  1  1  0  0  0
 22 23  1  6  0  0  0
 22 28  1  0  0  0  0
 24 25  1  0  0  0  0
 26 27  1  0  0  0  0
 28 29  1  1  0  0  0
M  END
>  <CHROM.1>
-152.45061748,175.10691867,-101.62034005,67.28155527,80.38646432,-69.72547942
2.36026493,6.57486846,3.08549955,-1.13703620,-0.02232380,0.73163067

>  <Name>
ligand

>  <RI>
0

>  <Rbt.Current_Directory>
/home/itssahil/PROJECTS/Mol_Feturizer/New_Systems/rnas/4GPX

>  <Rbt.Executable>
rbdock ($Id: //depot/dev/client3/rdock/2013.1/src/exe/rbdock.cxx#4 $)

>  <Rbt.Library>
libRbt.so (2013.1, Build901 2013/11/27)

>  <Rbt.Parameter_File>
/export/apps/rDock/src/rDock_2013.1_src/data/scripts/dock_solv.prm

>  <Rbt.Receptor>
prm/blind_docking_80.prm

>  <SCORE>
11.3441

>  <SCORE.INTER>
4.05693

>  <SCORE.INTER.CONST>
1

>  <SCORE.INTER.POLAR>
0

>  <SCORE.INTER.ROT>
6

>  <SCORE.INTER.SOLV>
14.8109

>  <SCORE.INTER.VDW>
-9.83236

>  <SCORE.INTER.norm>
0.130869

>  <SCORE.INTRA>
-3.22102

>  <SCORE.INTRA.DIHEDRAL>
-12.6581

>  <SCORE.INTRA.DIHEDRAL.0>
20.6841

>  <SCORE.INTRA.POLAR>
0

>  <SCORE.INTRA.POLAR.0>
0

>  <SCORE.INTRA.REPUL>
0

>  <SCORE.INTRA.REPUL.0>
0

>  <SCORE.INTRA.SOLV>
2.34407

>  <SCORE.INTRA.SOLV.lig_0>
-64.6797

>  <SCORE.INTRA.VDW>
1.93597

>  <SCORE.INTRA.VDW.0>
-4.11825

>  <SCORE.INTRA.norm>
-0.103904

>  <SCORE.RESTR>
10.5082

>  <SCORE.RESTR.CAVITY>
10.5082

>  <SCORE.RESTR.norm>
0.338974

>  <SCORE.SYSTEM>
0

>  <SCORE.SYSTEM.CONST>
0

>  <SCORE.SYSTEM.DIHEDRAL>
0

>  <SCORE.SYSTEM.SOLV>
0

>  <SCORE.SYSTEM.norm>
0

>  <SCORE.heavy>
31

>  <SCORE.norm>
0.365939

>  <RMSD>
11.194

$$$$
ligand
 OpenBabel11021811493D
libRbt.so/2013.1/901 2013/11/27
 31 33  0  0  0  0  0  0  0  0999 V2000
   -6.1465   14.8318    2.8301 C   0  0  2  0  0  0  0  0  0  0  0  0
   -7.4835   15.2166    3.1360 O   0  0  0  0  0  0  0  0  0  0  0  0
  -11.5425   15.1060    1.8726 C   0  0  2  0  0  0  0  0  0  0  0  0
  -12.7005   14.7925    1.0931 N   0  0  0  0  0  0  0  0  0  0  0  0
  -11.4372   11.9634    4.0515 C   0  0  2  0  0  0  0  0  0  0  0  0
   -5.9486   13.3784    3.4254 C   0  0  2  0  0  0  0  0  0  0  0  0
   -6.9266   12.4842    2.8143 N   0  0  0  0  0  0  0  0  0  0  0  0
  -10.5047   15.8607    0.9434 C   0  0  0  0  0  0  0  0  0  0  0  0
  -11.3908   10.7495    3.0703 C   0  0  2  0  0  0  0  0  0  0  0  0
  -10.4620   11.0393    2.0477 O   0  0  0  0  0  0  0  0  0  0  0  0
   -6.1173   13.3996    4.9970 C   0  0  0  0  0  0  0  0  0  0  0  0
   -9.2275   16.2051    1.7976 C   0  0  2  0  0  0  0  0  0  0  0  0
   -8.2563   16.9023    0.9372 N   0  0  0  0  0  0  0  0  0  0  0  0
  -12.8414   10.5696    2.4810 C   0  0  1  0  0  0  0  0  0  0  0  0
  -12.8558    9.4247    1.5115 N   0  0  0  0  0  0  0  0  0  0  0  0
   -5.5064   14.7104    5.6515 C   0  0  0  0  0  0  0  0  0  0  0  0
   -8.5890   14.8661    2.3765 C   0  0  2  0  0  0  0  0  0  0  0  0
  -13.8500   10.2421    3.7195 C   0  0  1  0  0  0  0  0  0  0  0  0
  -13.4655    9.0796    4.4337 O   0  0  0  0  0  0  0  0  0  0  0  0
   -5.0959   15.7525    4.8813 C   0  0  2  0  0  0  0  0  0  0  0  0
   -5.1863   15.7348    3.4519 O   0  0  0  0  0  0  0  0  0  0  0  0
   -9.6428   14.1327    3.2863 C   0  0  2  0  0  0  0  0  0  0  0  0
   -9.0592   12.9155    3.7986 O   0  0  0  0  0  0  0  0  0  0  0  0
  -13.8430   11.4276    4.7385 C   0  0  0  0  0  0  0  0  0  0  0  0
  -12.4270   11.7021    5.1713 O   0  0  0  0  0  0  0  0  0  0  0  0
   -4.4989   17.0345    5.4649 C   0  0  0  0  0  0  0  0  0  0  0  0
   -3.4799   17.5109    4.5543 O   0  0  0  0  0  0  0  0  0  0  0  0
  -10.9009   13.7771    2.4111 C   0  0  1  0  0  0  0  0  0  0  0  0
  -11.8159   13.1099    3.2225 O   0  0  0  0  0  0  0  0  0  0  0  0
  -15.3302   10.0333    3.3180 C   0  0  0  0  0  0  0  0  0  0  0  0
  -13.4696    9.6815    0.1926 C   0  0  0  0  0  0  0  0  0  0  0  0
  1  2  1  1  0  0  0
  1  6  1  0  0  0  0
  1 21  1  0  0  0  0
  3  4  1  6  0  0  0
  3  8  1  0  0  0  0
  3 28  1  0  0  0  0
  5  9  1  0  0  0  0
  5 25  1  0  0  0  0
  5 29  1  6  0  0  0
  6  7  1  6  0  0  0
  6 11  1  0  0  0  0
  8 12  1  0  0  0  0
  9 10  1  6  0  0  0
  9 14  1  0  0  0  0
 11 16  1  0  0  0  0
 12 13  1  6  0  0  0
 12 17  1  0  0  0  0
 14 15  1  6  0  0  0
 14 18  1  0  0  0  0
 15 31  1  0  0  0  0
 16 20  1  0  0  0  0
 17  2  1  1  0  0  0
 17 22  1  0  0  0  0
 18 19  1  1  0  0  0
 18 24  1  0  0  0  0
 18 30  1  0  0  0  0
 20 21  1  0  0  0  0
 20 26  1  6  0  0  0
 22 23  1  6  0  0  0
 22 28  1  0  0  0  0
 24 25  1  0  0  0  0
 26 27  1  0  0  0  0
 28 29  1  1  0  0  0
M  END
>  <CHROM.1>
-83.73089730,-79.22956782,-130.37881210,-116.65408321,144.90198456,-169.30106188
-9.67022911,13.32885177,3.16796763,0.38171549,-0.47460883,-0.65118948

>  <Name>
ligand

>  <RI>
0

>  <Rbt.Current_Directory>
/home/itssahil/PROJECTS/Mol_Feturizer/New_Systems/rnas/4GPX

>  <Rbt.Executable>
rbdock ($Id: //depot/dev/client3/rdock/2013.1/src/exe/rbdock.cxx#4 $)

>  <Rbt.Library>
libRbt.so (2013.1, Build901 2013/11/27)

>  <Rbt.Parameter_File>
/export/apps/rDock/src/rDock_2013.1_src/data/scripts/dock_solv.prm

>  <Rbt.Receptor>
prm/blind_docking_20.prm

>  <SCORE>
9.23713

>  <SCORE.INTER>
-0.615699

>  <SCORE.INTER.CONST>
1

>  <SCORE.INTER.POLAR>
0

>  <SCORE.INTER.ROT>
6

>  <SCORE.INTER.SOLV>
26.4502

>  <SCORE.INTER.VDW>
-16.8272

>  <SCORE.INTER.norm>
-0.0198612

>  <SCORE.INTRA>
1.44155

>  <SCORE.INTRA.DIHEDRAL>
-5.37159

>  <SCORE.INTRA.DIHEDRAL.0>
20.6841

>  <SCORE.INTRA.POLAR>
0

>  <SCORE.INTRA.POLAR.0>
0

>  <SCORE.INTRA.REPUL>
0.0447637

>  <SCORE.INTRA.REPUL.0>
0

>  <SCORE.INTRA.SOLV>
0.770845

>  <SCORE.INTRA.SOLV.lig_0>
-64.6797

>  <SCORE.INTRA.VDW>
3.51811

>  <SCORE.INTRA.VDW.0>
-4.11825

>  <SCORE.INTRA.norm>
0.0465017

>  <SCORE.RESTR>
8.41128

>  <SCORE.RESTR.CAVITY>
8.41128

>  <SCORE.RESTR.norm>
0.271332

>  <SCORE.SYSTEM>
0

>  <SCORE.SYSTEM.CONST>
0

>  <SCORE.SYSTEM.DIHEDRAL>
0

>  <SCORE.SYSTEM.SOLV>
0

>  <SCORE.SYSTEM.norm>
0

>  <SCORE.heavy>
31

>  <SCORE.norm>
0.297972

>  <RMSD>
11.200

$$$$
ligand
 OpenBabel11021811493D
libRbt.so/2013.1/901 2013/11/27
 31 33  0  0  0  0  0  0  0  0999 V2000
   -9.8338   16.8567    0.2989 C   0  0  2  0  0  0  0  0  0  0  0  0
   -8.6181   16.5212    0.9613 O   0  0  0  0  0  0  0  0  0  0  0  0
   -7.5939   13.5403    3.8160 C   0  0  2  0  0  0  0  0  0  0  0  0
   -7.4751   12.8645    5.0714 N   0  0  0  0  0  0  0  0  0  0  0  0
  -10.8001   12.0866    4.2973 C   0  0  2  0  0  0  0  0  0  0  0  0
   -9.4984   16.9340   -1.2463 C   0  0  2  0  0  0  0  0  0  0  0  0
   -8.9808   15.6402   -1.6791 N   0  0  0  0  0  0  0  0  0  0  0  0
   -6.8809   14.9497    3.9383 C   0  0  0  0  0  0  0  0  0  0  0  0
  -11.8740   11.3961    3.3982 C   0  0  2  0  0  0  0  0  0  0  0  0
  -11.2604   10.3229    2.7167 O   0  0  0  0  0  0  0  0  0  0  0  0
   -8.4436   18.0783   -1.5239 C   0  0  0  0  0  0  0  0  0  0  0  0
   -7.0120   15.6976    2.5588 C   0  0  2  0  0  0  0  0  0  0  0  0
   -6.3554   17.0115    2.6681 N   0  0  0  0  0  0  0  0  0  0  0  0
  -12.4017   12.4809    2.3840 C   0  0  1  0  0  0  0  0  0  0  0  0
  -13.4272   11.8688    1.4759 N   0  0  0  0  0  0  0  0  0  0  0  0
   -8.6824   19.3535   -0.6093 C   0  0  0  0  0  0  0  0  0  0  0  0
   -8.5499   15.8793    2.1881 C   0  0  2  0  0  0  0  0  0  0  0  0
  -13.0903   13.6816    3.2457 C   0  0  1  0  0  0  0  0  0  0  0  0
  -14.1529   13.2178    4.0612 O   0  0  0  0  0  0  0  0  0  0  0  0
   -9.5683   19.3211    0.4212 C   0  0  2  0  0  0  0  0  0  0  0  0
  -10.3317   18.1525    0.7425 O   0  0  0  0  0  0  0  0  0  0  0  0
   -9.2350   14.4666    2.0828 C   0  0  2  0  0  0  0  0  0  0  0  0
  -10.6306   14.6411    1.7565 O   0  0  0  0  0  0  0  0  0  0  0  0
  -12.0318   14.3272    4.1978 C   0  0  0  0  0  0  0  0  0  0  0  0
  -11.4108   13.2529    5.0513 O   0  0  0  0  0  0  0  0  0  0  0  0
   -9.8346   20.5240    1.3283 C   0  0  0  0  0  0  0  0  0  0  0  0
   -8.8940   21.5670    0.9795 O   0  0  0  0  0  0  0  0  0  0  0  0
   -9.1137   13.7446    3.4755 C   0  0  1  0  0  0  0  0  0  0  0  0
   -9.7423   12.5054    3.3748 O   0  0  0  0  0  0  0  0  0  0  0  0
  -13.6684   14.8425    2.4008 C   0  0  0  0  0  0  0  0  0  0  0  0
  -12.9312   10.9085    0.4690 C   0  0  0  0  0  0  0  0  0  0  0  0
  1  2  1  1  0  0  0
  1  6  1  0  0  0  0
  1 21  1  0  0  0  0
  3  4  1  1  0  0  0
  3  8  1  0  0  0  0
  3 28  1  0  0  0  0
  5  9  1  0  0  0  0
  5 25  1  0  0  0  0
  5 29  1  6  0  0  0
  6  7  1  1  0  0  0
  6 11  1  0  0  0  0
  8 12  1  0  0  0  0
  9 10  1  6  0  0  0
  9 14  1  0  0  0  0
 11 16  1  0  0  0  0
 12 13  1  1  0  0  0
 12 17  1  0  0  0  0
 14 15  1  6  0  0  0
 14 18  1  0  0  0  0
 15 31  1  0  0  0  0
 16 20  1  0  0  0  0
 17  2  1  6  0  0  0
 17 22  1  0  0  0  0
 18 19  1  1  0  0  0
 18 24  1  0  0  0  0
 18 30  1  0  0  0  0
 20 21  1  0  0  0  0
 20 26  1  6  0  0  0
 22 23  1  1  0  0  0
 22 28  1  0  0  0  0
 24 25  1  0  0  0  0
 26 27  1  0  0  0  0
 28 29  1  6  0  0  0
M  END
>  <CHROM.1>
-154.58752720,137.96107212,-71.09437266,179.93029195,-6.39482725,115.70022734
-10.10827540,15.05538209,2.07769369,1.13095082,-0.37719670,-0.57892699

>  <Name>
ligand

>  <RI>
0

>  <Rbt.Current_Directory>
/home/itssahil/PROJECTS/Mol_Feturizer/New_Systems/rnas/4GPX

>  <Rbt.Executable>
rbdock ($Id: //depot/dev/client3/rdock/2013.1/src/exe/rbdock.cxx#4 $)

>  <Rbt.Library>
libRbt.so (2013.1, Build901 2013/11/27)

>  <Rbt.Parameter_File>
/export/apps/rDock/src/rDock_2013.1_src/data/scripts/dock_solv.prm

>  <Rbt.Receptor>
prm/blind_docking_100.prm

>  <SCORE>
8.93777

>  <SCORE.INTER>
4.39636

>  <SCORE.INTER.CONST>
1

>  <SCORE.INTER.POLAR>
0

>  <SCORE.INTER.ROT>
6

>  <SCORE.INTER.SOLV>
33.0868

>  <SCORE.INTER.VDW>
-15.698

>  <SCORE.INTER.norm>
0.141818

>  <SCORE.INTRA>
0.713252

>  <SCORE.INTRA.DIHEDRAL>
-3.27724

>  <SCORE.INTRA.DIHEDRAL.0>
20.6841

>  <SCORE.INTRA.POLAR>
0

>  <SCORE.INTRA.POLAR.0>
0

>  <SCORE.INTRA.REPUL>
0

>  <SCORE.INTRA.REPUL.0>
0

>  <SCORE.INTRA.SOLV>
-1.44966

>  <SCORE.INTRA.SOLV.lig_0>
-64.6797

>  <SCORE.INTRA.VDW>
3.0767

>  <SCORE.INTRA.VDW.0>
-4.11825

>  <SCORE.INTRA.norm>
0.0230081

>  <SCORE.RESTR>
3.82816

>  <SCORE.RESTR.CAVITY>
3.82816

>  <SCORE.RESTR.norm>
0.123489

>  <SCORE.SYSTEM>
0

>  <SCORE.SYSTEM.CONST>
0

>  <SCORE.SYSTEM.DIHEDRAL>
0

>  <SCORE.SYSTEM.SOLV>
0

>  <SCORE.SYSTEM.norm>
0

>  <SCORE.heavy>
31

>  <SCORE.norm>
0.288315

>  <RMSD>
11.223

$$$$
ligand
 OpenBabel11021811493D
libRbt.so/2013.1/901 2013/11/27
 31 33  0  0  0  0  0  0  0  0999 V2000
   -9.8543   17.0378    0.4997 C   0  0  2  0  0  0  0  0  0  0  0  0
   -8.6234   16.7443    1.1541 O   0  0  0  0  0  0  0  0  0  0  0  0
   -7.5266   13.5564    3.7461 C   0  0  2  0  0  0  0  0  0  0  0  0
   -7.3707   12.7897    4.9438 N   0  0  0  0  0  0  0  0  0  0  0  0
  -10.7449   12.1001    4.2135 C   0  0  2  0  0  0  0  0  0  0  0  0
   -9.8820   16.1646   -0.8204 C   0  0  2  0  0  0  0  0  0  0  0  0
   -9.7823   14.7559   -0.4530 N   0  0  0  0  0  0  0  0  0  0  0  0
   -6.7990   14.9494    3.9468 C   0  0  0  0  0  0  0  0  0  0  0  0
  -11.8036   11.4122    3.2945 C   0  0  2  0  0  0  0  0  0  0  0  0
  -11.1666   10.3725    2.5832 O   0  0  0  0  0  0  0  0  0  0  0  0
   -8.6941   16.5770   -1.7782 C   0  0  0  0  0  0  0  0  0  0  0  0
   -6.9708   15.7972    2.6311 C   0  0  2  0  0  0  0  0  0  0  0  0
   -6.3007   17.0961    2.8139 N   0  0  0  0  0  0  0  0  0  0  0  0
  -12.3548   12.5136    2.3113 C   0  0  1  0  0  0  0  0  0  0  0  0
  -13.3667   11.9054    1.3854 N   0  0  0  0  0  0  0  0  0  0  0  0
   -8.4212   18.1407   -1.7617 C   0  0  0  0  0  0  0  0  0  0  0  0
   -8.5189   16.0137    2.3275 C   0  0  2  0  0  0  0  0  0  0  0  0
  -13.0694   13.6741    3.2062 C   0  0  1  0  0  0  0  0  0  0  0  0
  -14.1216   13.1643    4.0076 O   0  0  0  0  0  0  0  0  0  0  0  0
   -9.0249   18.9481   -0.8500 C   0  0  2  0  0  0  0  0  0  0  0  0
   -9.9324   18.4476    0.1387 O   0  0  0  0  0  0  0  0  0  0  0  0
   -9.2180   14.6161    2.1425 C   0  0  2  0  0  0  0  0  0  0  0  0
  -10.6224   14.8214    1.8777 O   0  0  0  0  0  0  0  0  0  0  0  0
  -12.0252   14.3153    4.1770 C   0  0  0  0  0  0  0  0  0  0  0  0
  -11.3809   13.2310    4.9999 O   0  0  0  0  0  0  0  0  0  0  0  0
   -8.7960   20.4597   -0.7959 C   0  0  0  0  0  0  0  0  0  0  0  0
   -9.0077   20.8980    0.5670 O   0  0  0  0  0  0  0  0  0  0  0  0
   -9.0554   13.7931    3.4736 C   0  0  1  0  0  0  0  0  0  0  0  0
   -9.6965   12.5680    3.3040 O   0  0  0  0  0  0  0  0  0  0  0  0
  -13.6727   14.8457    2.3943 C   0  0  0  0  0  0  0  0  0  0  0  0
  -14.3624   11.0004    1.9951 C   0  0  0  0  0  0  0  0  0  0  0  0
  1  2  1  6  0  0  0
  1  6  1  0  0  0  0
  1 21  1  0  0  0  0
  3  4  1  1  0  0  0
  3  8  1  0  0  0  0
  3 28  1  0  0  0  0
  5  9  1  0  0  0  0
  5 25  1  0  0  0  0
  5 29  1  6  0  0  0
  6  7  1  1  0  0  0
  6 11  1  0  0  0  0
  8 12  1  0  0  0  0
  9 10  1  6  0  0  0
  9 14  1  0  0  0  0
 11 16  1  0  0  0  0
 12 13  1  1  0  0  0
 12 17  1  0  0  0  0
 14 15  1  6  0  0  0
 14 18  1  0  0  0  0
 15 31  1  0  0  0  0
 16 20  1  0  0  0  0
 17  2  1  6  0  0  0
 17 22  1  0  0  0  0
 18 19  1  1  0  0  0
 18 24  1  0  0  0  0
 18 30  1  0  0  0  0
 20 21  1  0  0  0  0
 20 26  1  6  0  0  0
 22 23  1  1  0  0  0
 22 28  1  0  0  0  0
 24 25  1  0  0  0  0
 26 27  1  0  0  0  0
 28 29  1  6  0  0  0
M  END
>  <CHROM.1>
-108.87173911,140.74635528,44.39549824,174.40916728,-152.52224860,116.96613540
-10.10564096,14.93169133,1.99456040,1.07324637,-0.36446924,-0.68227934

>  <Name>
ligand

>  <RI>
0

>  <Rbt.Current_Directory>
/home/itssahil/PROJECTS/Mol_Feturizer/New_Systems/rnas/4GPX

>  <Rbt.Executable>
rbdock ($Id: //depot/dev/client3/rdock/2013.1/src/exe/rbdock.cxx#4 $)

>  <Rbt.Library>
libRbt.so (2013.1, Build901 2013/11/27)

>  <Rbt.Parameter_File>
/export/apps/rDock/src/rDock_2013.1_src/data/scripts/dock_solv.prm

>  <Rbt.Receptor>
prm/blind_docking_100.prm

>  <SCORE>
11.1493

>  <SCORE.INTER>
0.788011

>  <SCORE.INTER.CONST>
1

>  <SCORE.INTER.POLAR>
0

>  <SCORE.INTER.ROT>
6

>  <SCORE.INTER.SOLV>
30.653

>  <SCORE.INTER.VDW>
-17.2923

>  <SCORE.INTER.norm>
0.0254197

>  <SCORE.INTRA>
6.58888

>  <SCORE.INTRA.DIHEDRAL>
1.45602

>  <SCORE.INTRA.DIHEDRAL.0>
20.6841

>  <SCORE.INTRA.POLAR>
0

>  <SCORE.INTRA.POLAR.0>
0

>  <SCORE.INTRA.REPUL>
0

>  <SCORE.INTRA.REPUL.0>
0

>  <SCORE.INTRA.SOLV>
1.22772

>  <SCORE.INTRA.SOLV.lig_0>
-64.6797

>  <SCORE.INTRA.VDW>
5.247

>  <SCORE.INTRA.VDW.0>
-4.11825

>  <SCORE.INTRA.norm>
0.212544

>  <SCORE.RESTR>
3.77237

>  <SCORE.RESTR.CAVITY>
3.77237

>  <SCORE.RESTR.norm>
0.121689

>  <SCORE.SYSTEM>
0

>  <SCORE.SYSTEM.CONST>
0

>  <SCORE.SYSTEM.DIHEDRAL>
0

>  <SCORE.SYSTEM.SOLV>
0

>  <SCORE.SYSTEM.norm>
0

>  <SCORE.heavy>
31

>  <SCORE.norm>
0.359654

>  <RMSD>
11.235

$$$$
ligand
 OpenBabel11021811493D
libRbt.so/2013.1/901 2013/11/27
 31 33  0  0  0  0  0  0  0  0999 V2000
   -8.2493   17.7078    0.3343 C   0  0  2  0  0  0  0  0  0  0  0  0
   -8.7693   17.6478    1.6592 O   0  0  0  0  0  0  0  0  0  0  0  0
   -7.4689   13.8389    3.0320 C   0  0  2  0  0  0  0  0  0  0  0  0
   -7.1756   12.7583    3.9227 N   0  0  0  0  0  0  0  0  0  0  0  0
  -10.5453   12.2551    3.6151 C   0  0  2  0  0  0  0  0  0  0  0  0
   -9.0411   18.8598   -0.4087 C   0  0  2  0  0  0  0  0  0  0  0  0
   -8.8369   20.1108    0.3142 N   0  0  0  0  0  0  0  0  0  0  0  0
   -6.6441   15.1084    3.4990 C   0  0  0  0  0  0  0  0  0  0  0  0
  -11.6106   11.5413    2.7237 C   0  0  2  0  0  0  0  0  0  0  0  0
  -10.9344   10.7563    1.7649 O   0  0  0  0  0  0  0  0  0  0  0  0
  -10.5798   18.5065   -0.4893 C   0  0  0  0  0  0  0  0  0  0  0  0
   -6.9664   16.3007    2.5223 C   0  0  2  0  0  0  0  0  0  0  0  0
   -6.2064   17.4860    2.9548 N   0  0  0  0  0  0  0  0  0  0  0  0
  -12.4680   12.6665    2.0291 C   0  0  1  0  0  0  0  0  0  0  0  0
  -13.5010   12.0396    1.1397 N   0  0  0  0  0  0  0  0  0  0  0  0
  -10.8310   16.9598   -0.7426 C   0  0  0  0  0  0  0  0  0  0  0  0
   -8.5285   16.6093    2.5452 C   0  0  2  0  0  0  0  0  0  0  0  0
  -13.2110   13.5262    3.1983 C   0  0  1  0  0  0  0  0  0  0  0  0
  -14.0383   12.7176    4.0176 O   0  0  0  0  0  0  0  0  0  0  0  0
   -9.8116   16.0633   -0.6724 C   0  0  2  0  0  0  0  0  0  0  0  0
   -8.4661   16.4509   -0.3708 O   0  0  0  0  0  0  0  0  0  0  0  0
   -9.3230   15.3305    2.0874 C   0  0  2  0  0  0  0  0  0  0  0  0
  -10.7379   15.6159    2.1208 O   0  0  0  0  0  0  0  0  0  0  0  0
  -12.1448   14.1838    4.1336 C   0  0  0  0  0  0  0  0  0  0  0  0
  -11.2234   13.1170    4.6635 O   0  0  0  0  0  0  0  0  0  0  0  0
  -10.0033   14.5643   -0.9109 C   0  0  0  0  0  0  0  0  0  0  0  0
  -11.0644   14.1029   -0.0418 O   0  0  0  0  0  0  0  0  0  0  0  0
   -9.0060   14.1576    3.0871 C   0  0  1  0  0  0  0  0  0  0  0  0
   -9.7315   13.0391    2.6832 O   0  0  0  0  0  0  0  0  0  0  0  0
  -14.1043   14.6834    2.6899 C   0  0  0  0  0  0  0  0  0  0  0  0
  -13.0670   11.6749   -0.2244 C   0  0  0  0  0  0  0  0  0  0  0  0
  1  2  1  1  0  0  0
  1  6  1  0  0  0  0
  1 21  1  0  0  0  0
  3  4  1  1  0  0  0
  3  8  1  0  0  0  0
  3 28  1  0  0  0  0
  5  9  1  0  0  0  0
  5 25  1  0  0  0  0
  5 29  1  6  0  0  0
  6  7  1  1  0  0  0
  6 11  1  0  0  0  0
  8 12  1  0  0  0  0
  9 10  1  6  0  0  0
  9 14  1  0  0  0  0
 11 16  1  0  0  0  0
 12 13  1  1  0  0  0
 12 17  1  0  0  0  0
 14 15  1  6  0  0  0
 14 18  1  0  0  0  0
 15 31  1  0  0  0  0
 16 20  1  0  0  0  0
 17  2  1  6  0  0  0
 17 22  1  0  0  0  0
 18 19  1  1  0  0  0
 18 24  1  0  0  0  0
 18 30  1  0  0  0  0
 20 21  1  0  0  0  0
 20 26  1  6  0  0  0
 22 23  1  1  0  0  0
 22 28  1  0  0  0  0
 24 25  1  0  0  0  0
 26 27  1  0  0  0  0
 28 29  1  6  0  0  0
M  END
>  <CHROM.1>
166.91313313,156.54007071,-84.51364387,47.10347960,-53.20543570,110.40501644
-10.17712583,14.82066507,1.83219657,0.86456308,-0.44917034,-0.68024608

>  <Name>
ligand

>  <RI>
0

>  <Rbt.Current_Directory>
/home/itssahil/PROJECTS/Mol_Feturizer/New_Systems/rnas/4GPX

>  <Rbt.Executable>
rbdock ($Id: //depot/dev/client3/rdock/2013.1/src/exe/rbdock.cxx#4 $)

>  <Rbt.Library>
libRbt.so (2013.1, Build901 2013/11/27)

>  <Rbt.Parameter_File>
/export/apps/rDock/src/rDock_2013.1_src/data/scripts/dock_solv.prm

>  <Rbt.Receptor>
prm/blind_docking_100.prm

>  <SCORE>
9.98649

>  <SCORE.INTER>
7.14172

>  <SCORE.INTER.CONST>
1

>  <SCORE.INTER.POLAR>
0

>  <SCORE.INTER.ROT>
6

>  <SCORE.INTER.SOLV>
29.5311

>  <SCORE.INTER.VDW>
-12.6825

>  <SCORE.INTER.norm>
0.230378

>  <SCORE.INTRA>
-2.19466

>  <SCORE.INTRA.DIHEDRAL>
-5.96223

>  <SCORE.INTRA.DIHEDRAL.0>
20.6841

>  <SCORE.INTRA.POLAR>
0

>  <SCORE.INTRA.POLAR.0>
0

>  <SCORE.INTRA.REPUL>
0

>  <SCORE.INTRA.REPUL.0>
0

>  <SCORE.INTRA.SOLV>
0.589482

>  <SCORE.INTRA.SOLV.lig_0>
-64.6797

>  <SCORE.INTRA.VDW>
0.491711

>  <SCORE.INTRA.VDW.0>
-4.11825

>  <SCORE.INTRA.norm>
-0.0707956

>  <SCORE.RESTR>
5.03943

>  <SCORE.RESTR.CAVITY>
5.03943

>  <SCORE.RESTR.norm>
0.162562

>  <SCORE.SYSTEM>
0

>  <SCORE.SYSTEM.CONST>
0

>  <SCORE.SYSTEM.DIHEDRAL>
0

>  <SCORE.SYSTEM.SOLV>
0

>  <SCORE.SYSTEM.norm>
0

>  <SCORE.heavy>
31

>  <SCORE.norm>
0.322145

>  <RMSD>
11.238

$$$$
ligand
 OpenBabel11021811493D
libRbt.so/2013.1/901 2013/11/27
 31 33  0  0  0  0  0  0  0  0999 V2000
   -9.6168   15.2154    2.0710 C   0  0  2  0  0  0  0  0  0  0  0  0
  -10.4634   14.8488    3.1564 O   0  0  0  0  0  0  0  0  0  0  0  0
  -14.1263   13.0077    4.2870 C   0  0  2  0  0  0  0  0  0  0  0  0
  -15.4161   12.3988    4.1758 N   0  0  0  0  0  0  0  0  0  0  0  0
  -13.8493    9.7598    3.6057 C   0  0  2  0  0  0  0  0  0  0  0  0
   -9.1514   13.8659    1.3868 C   0  0  2  0  0  0  0  0  0  0  0  0
  -10.3324   13.1376    0.9351 N   0  0  0  0  0  0  0  0  0  0  0  0
  -14.1994   14.4530    3.6422 C   0  0  0  0  0  0  0  0  0  0  0  0
  -13.5507    8.5771    4.5808 C   0  0  2  0  0  0  0  0  0  0  0  0
  -13.8543    8.9960    5.8942 O   0  0  0  0  0  0  0  0  0  0  0  0
   -8.3131   12.9935    2.4042 C   0  0  0  0  0  0  0  0  0  0  0  0
  -12.7804   15.1254    3.7605 C   0  0  2  0  0  0  0  0  0  0  0  0
  -12.8408   16.4679    3.1575 N   0  0  0  0  0  0  0  0  0  0  0  0
  -12.0201    8.2296    4.4387 C   0  0  1  0  0  0  0  0  0  0  0  0
  -11.6669    7.1077    5.3702 N   0  0  0  0  0  0  0  0  0  0  0  0
   -7.3773   13.8802    3.3304 C   0  0  0  0  0  0  0  0  0  0  0  0
  -11.6965   14.2325    3.0099 C   0  0  2  0  0  0  0  0  0  0  0  0
  -11.7521    7.7599    2.9005 C   0  0  1  0  0  0  0  0  0  0  0  0
  -12.5428    6.6421    2.5335 O   0  0  0  0  0  0  0  0  0  0  0  0
   -7.4889   15.2348    3.3478 C   0  0  2  0  0  0  0  0  0  0  0  0
   -8.4428   15.9382    2.5435 O   0  0  0  0  0  0  0  0  0  0  0  0
  -11.6518   12.8015    3.6630 C   0  0  2  0  0  0  0  0  0  0  0  0
  -10.6741   11.9960    2.9703 O   0  0  0  0  0  0  0  0  0  0  0  0
  -12.1180    8.9203    1.9189 C   0  0  0  0  0  0  0  0  0  0  0  0
  -13.5351    9.3601    2.1762 O   0  0  0  0  0  0  0  0  0  0  0  0
   -6.6088   16.1315    4.2207 C   0  0  0  0  0  0  0  0  0  0  0  0
   -5.5121   15.3324    4.7237 O   0  0  0  0  0  0  0  0  0  0  0  0
  -13.0705   12.1375    3.5153 C   0  0  1  0  0  0  0  0  0  0  0  0
  -13.0112   10.8644    4.0778 O   0  0  0  0  0  0  0  0  0  0  0  0
  -10.2868    7.3769    2.5810 C   0  0  0  0  0  0  0  0  0  0  0  0
  -12.3910    5.8346    5.1781 C   0  0  0  0  0  0  0  0  0  0  0  0
  1  2  1  1  0  0  0
  1  6  1  0  0  0  0
  1 21  1  0  0  0  0
  3  4  1  6  0  0  0
  3  8  1  0  0  0  0
  3 28  1  0  0  0  0
  5  9  1  0  0  0  0
  5 25  1  0  0  0  0
  5 29  1  1  0  0  0
  6  7  1  1  0  0  0
  6 11  1  0  0  0  0
  8 12  1  0  0  0  0
  9 10  1  1  0  0  0
  9 14  1  0  0  0  0
 11 16  1  0  0  0  0
 12 13  1  6  0  0  0
 12 17  1  0  0  0  0
 14 15  1  1  0  0  0
 14 18  1  0  0  0  0
 15 31  1  0  0  0  0
 16 20  1  0  0  0  0
 17  2  1  1  0  0  0
 17 22  1  0  0  0  0
 18 19  1  6  0  0  0
 18 24  1  0  0  0  0
 18 30  1  0  0  0  0
 20 21  1  0  0  0  0
 20 26  1  6  0  0  0
 22 23  1  6  0  0  0
 22 28  1  0  0  0  0
 24 25  1  0  0  0  0
 26 27  1  0  0  0  0
 28 29  1  1  0  0  0
M  END
>  <CHROM.1>
-65.92806315,-175.25933978,59.61578593,-124.61029721,12.99163407,90.83522319
-11.27778648,11.86372225,3.41281014,1.04497700,0.08379341,-0.05770924

>  <Name>
ligand

>  <RI>
0

>  <Rbt.Current_Directory>
/home/itssahil/PROJECTS/Mol_Feturizer/New_Systems/rnas/4GPX

>  <Rbt.Executable>
rbdock ($Id: //depot/dev/client3/rdock/2013.1/src/exe/rbdock.cxx#4 $)

>  <Rbt.Library>
libRbt.so (2013.1, Build901 2013/11/27)

>  <Rbt.Parameter_File>
/export/apps/rDock/src/rDock_2013.1_src/data/scripts/dock_solv.prm

>  <Rbt.Receptor>
prm/blind_docking_20.prm

>  <SCORE>
20.7564

>  <SCORE.INTER>
6.95218

>  <SCORE.INTER.CONST>
1

>  <SCORE.INTER.POLAR>
0

>  <SCORE.INTER.ROT>
6

>  <SCORE.INTER.SOLV>
20.3904

>  <SCORE.INTER.VDW>
-9.76201

>  <SCORE.INTER.norm>
0.224264

>  <SCORE.INTRA>
4.00999

>  <SCORE.INTRA.DIHEDRAL>
-7.65029

>  <SCORE.INTRA.DIHEDRAL.0>
20.6841

>  <SCORE.INTRA.POLAR>
0

>  <SCORE.INTRA.POLAR.0>
0

>  <SCORE.INTRA.REPUL>
0

>  <SCORE.INTRA.REPUL.0>
0

>  <SCORE.INTRA.SOLV>
1.64365

>  <SCORE.INTRA.SOLV.lig_0>
-64.6797

>  <SCORE.INTRA.VDW>
7.01331

>  <SCORE.INTRA.VDW.0>
-4.11825

>  <SCORE.INTRA.norm>
0.129354

>  <SCORE.RESTR>
9.79424

>  <SCORE.RESTR.CAVITY>
9.79424

>  <SCORE.RESTR.norm>
0.315943

>  <SCORE.SYSTEM>
0

>  <SCORE.SYSTEM.CONST>
0

>  <SCORE.SYSTEM.DIHEDRAL>
0

>  <SCORE.SYSTEM.SOLV>
0

>  <SCORE.SYSTEM.norm>
0

>  <SCORE.heavy>
31

>  <SCORE.norm>
0.669562

>  <RMSD>
11.243

$$$$
ligand
 OpenBabel11021811493D
libRbt.so/2013.1/901 2013/11/27
 31 33  0  0  0  0  0  0  0  0999 V2000
   -8.4977   18.3445    0.4152 C   0  0  2  0  0  0  0  0  0  0  0  0
   -9.4536   17.7681    1.3002 O   0  0  0  0  0  0  0  0  0  0  0  0
   -7.8991   14.0043    2.5253 C   0  0  2  0  0  0  0  0  0  0  0  0
   -7.5866   12.8855    3.3606 N   0  0  0  0  0  0  0  0  0  0  0  0
  -11.4138   12.9423    1.4461 C   0  0  2  0  0  0  0  0  0  0  0  0
   -9.0808   19.7489   -0.0251 C   0  0  2  0  0  0  0  0  0  0  0  0
   -9.2835   20.5668    1.1662 N   0  0  0  0  0  0  0  0  0  0  0  0
   -7.2728   15.3049    3.1782 C   0  0  0  0  0  0  0  0  0  0  0  0
  -12.2331   13.0485    2.7713 C   0  0  2  0  0  0  0  0  0  0  0  0
  -11.8928   14.2612    3.4086 O   0  0  0  0  0  0  0  0  0  0  0  0
  -10.4399   19.5590   -0.8096 C   0  0  0  0  0  0  0  0  0  0  0  0
   -7.6171   16.5390    2.2627 C   0  0  2  0  0  0  0  0  0  0  0  0
   -7.0419   17.7525    2.8677 N   0  0  0  0  0  0  0  0  0  0  0  0
  -11.8390   11.8114    3.6645 C   0  0  1  0  0  0  0  0  0  0  0  0
  -12.5829   11.8690    4.9662 N   0  0  0  0  0  0  0  0  0  0  0  0
  -10.4205   18.2795   -1.7488 C   0  0  0  0  0  0  0  0  0  0  0  0
   -9.1969   16.6862    2.1279 C   0  0  2  0  0  0  0  0  0  0  0  0
  -12.2598   10.4567    2.8607 C   0  0  1  0  0  0  0  0  0  0  0  0
  -13.6440   10.4188    2.5575 O   0  0  0  0  0  0  0  0  0  0  0  0
   -9.4090   17.3741   -1.6792 C   0  0  2  0  0  0  0  0  0  0  0  0
   -8.3125   17.5147   -0.7684 O   0  0  0  0  0  0  0  0  0  0  0  0
   -9.7932   15.3786    1.4869 C   0  0  2  0  0  0  0  0  0  0  0  0
  -11.2262   15.5167    1.3777 O   0  0  0  0  0  0  0  0  0  0  0  0
  -11.4921   10.3853    1.5008 C   0  0  0  0  0  0  0  0  0  0  0  0
  -11.7422   11.6499    0.7223 O   0  0  0  0  0  0  0  0  0  0  0  0
   -9.3446   16.1279   -2.5643 C   0  0  0  0  0  0  0  0  0  0  0  0
   -8.0027   16.0228   -3.0958 O   0  0  0  0  0  0  0  0  0  0  0  0
   -9.4589   14.1613    2.4260 C   0  0  1  0  0  0  0  0  0  0  0  0
  -10.0102   13.0148    1.8583 O   0  0  0  0  0  0  0  0  0  0  0  0
  -11.9425    9.1342    3.5997 C   0  0  0  0  0  0  0  0  0  0  0  0
  -14.0559   11.9442    4.8843 C   0  0  0  0  0  0  0  0  0  0  0  0
  1  2  1  1  0  0  0
  1  6  1  0  0  0  0
  1 21  1  0  0  0  0
  3  4  1  1  0  0  0
  3  8  1  0  0  0  0
  3 28  1  0  0  0  0
  5  9  1  0  0  0  0
  5 25  1  0  0  0  0
  5 29  1  1  0  0  0
  6  7  1  1  0  0  0
  6 11  1  0  0  0  0
  8 12  1  0  0  0  0
  9 10  1  1  0  0  0
  9 14  1  0  0  0  0
 11 16  1  0  0  0  0
 12 13  1  1  0  0  0
 12 17  1  0  0  0  0
 14 15  1  1  0  0  0
 14 18  1  0  0  0  0
 15 31  1  0  0  0  0
 16 20  1  0  0  0  0
 17  2  1  6  0  0  0
 17 22  1  0  0  0  0
 18 19  1  6  0  0  0
 18 24  1  0  0  0  0
 18 30  1  0  0  0  0
 20 21  1  0  0  0  0
 20 26  1  6  0  0  0
 22 23  1  1  0  0  0
 22 28  1  0  0  0  0
 24 25  1  0  0  0  0
 26 27  1  0  0  0  0
 28 29  1  6  0  0  0
M  END
>  <CHROM.1>
-165.27959908,-65.87930773,55.87383397,18.08769805,133.66100562,-170.34580818
-10.17286100,14.82693437,1.53236993,-0.84747903,0.93375974,2.06821738

>  <Name>
ligand

>  <RI>
0

>  <Rbt.Current_Directory>
/home/itssahil/PROJECTS/Mol_Feturizer/New_Systems/rnas/4GPX

>  <Rbt.Executable>
rbdock ($Id: //depot/dev/client3/rdock/2013.1/src/exe/rbdock.cxx#4 $)

>  <Rbt.Library>
libRbt.so (2013.1, Build901 2013/11/27)

>  <Rbt.Parameter_File>
/export/apps/rDock/src/rDock_2013.1_src/data/scripts/dock_solv.prm

>  <Rbt.Receptor>
prm/blind_docking_100.prm

>  <SCORE>
8.38484

>  <SCORE.INTER>
2.1196

>  <SCORE.INTER.CONST>
1

>  <SCORE.INTER.POLAR>
0

>  <SCORE.INTER.ROT>
6

>  <SCORE.INTER.SOLV>
28.9539

>  <SCORE.INTER.VDW>
-15.8382

>  <SCORE.INTER.norm>
0.0683741

>  <SCORE.INTRA>
1.49887

>  <SCORE.INTRA.DIHEDRAL>
-11.4063

>  <SCORE.INTRA.DIHEDRAL.0>
20.6841

>  <SCORE.INTRA.POLAR>
0

>  <SCORE.INTRA.POLAR.0>
0

>  <SCORE.INTRA.REPUL>
0

>  <SCORE.INTRA.REPUL.0>
0

>  <SCORE.INTRA.SOLV>
-0.504271

>  <SCORE.INTRA.SOLV.lig_0>
-64.6797

>  <SCORE.INTRA.VDW>
7.45415

>  <SCORE.INTRA.VDW.0>
-4.11825

>  <SCORE.INTRA.norm>
0.0483508

>  <SCORE.RESTR>
4.76637

>  <SCORE.RESTR.CAVITY>
4.76637

>  <SCORE.RESTR.norm>
0.153754

>  <SCORE.SYSTEM>
0

>  <SCORE.SYSTEM.CONST>
0

>  <SCORE.SYSTEM.DIHEDRAL>
0

>  <SCORE.SYSTEM.SOLV>
0

>  <SCORE.SYSTEM.norm>
0

>  <SCORE.heavy>
31

>  <SCORE.norm>
0.270479

>  <RMSD>
11.254

$$$$
ligand
 OpenBabel11021811493D
libRbt.so/2013.1/901 2013/11/27
 31 33  0  0  0  0  0  0  0  0999 V2000
  -11.0952    9.3128    3.4768 C   0  0  2  0  0  0  0  0  0  0  0  0
  -12.0877    9.7652    4.3930 O   0  0  0  0  0  0  0  0  0  0  0  0
  -13.1616   13.7312    3.2967 C   0  0  2  0  0  0  0  0  0  0  0  0
  -13.5734   15.0958    3.4193 N   0  0  0  0  0  0  0  0  0  0  0  0
  -10.4389   14.2610    2.1219 C   0  0  2  0  0  0  0  0  0  0  0  0
  -11.8589    8.9004    2.1529 C   0  0  2  0  0  0  0  0  0  0  0  0
  -12.5796   10.0633    1.6456 N   0  0  0  0  0  0  0  0  0  0  0  0
  -14.2899   12.8112    3.9216 C   0  0  0  0  0  0  0  0  0  0  0  0
   -8.8858   14.0990    2.1326 C   0  0  2  0  0  0  0  0  0  0  0  0
   -8.5648   12.9376    2.8680 O   0  0  0  0  0  0  0  0  0  0  0  0
  -12.8559    7.7080    2.4413 C   0  0  0  0  0  0  0  0  0  0  0  0
  -13.8387   11.3083    3.7907 C   0  0  2  0  0  0  0  0  0  0  0  0
  -14.8818   10.4481    4.3752 N   0  0  0  0  0  0  0  0  0  0  0  0
   -8.2867   15.3851    2.8187 C   0  0  1  0  0  0  0  0  0  0  0  0
   -6.7913   15.2784    2.8764 N   0  0  0  0  0  0  0  0  0  0  0  0
  -12.2621    6.6628    3.4780 C   0  0  0  0  0  0  0  0  0  0  0  0
  -12.4564   11.0922    4.5510 C   0  0  2  0  0  0  0  0  0  0  0  0
   -8.7022   16.6768    1.9147 C   0  0  1  0  0  0  0  0  0  0  0  0
   -8.2349   16.5726    0.5804 O   0  0  0  0  0  0  0  0  0  0  0  0
  -11.1200    6.9288    4.1654 C   0  0  2  0  0  0  0  0  0  0  0  0
  -10.3900    8.1500    4.0005 O   0  0  0  0  0  0  0  0  0  0  0  0
  -11.3577   12.0237    3.9176 C   0  0  2  0  0  0  0  0  0  0  0  0
  -10.1109   11.8288    4.6191 O   0  0  0  0  0  0  0  0  0  0  0  0
  -10.2592   16.7985    1.8453 C   0  0  0  0  0  0  0  0  0  0  0  0
  -10.8368   15.5013    1.3438 O   0  0  0  0  0  0  0  0  0  0  0  0
  -10.5079    5.9529    5.1721 C   0  0  0  0  0  0  0  0  0  0  0  0
  -11.0482    6.2581    6.4795 O   0  0  0  0  0  0  0  0  0  0  0  0
  -11.8151   13.5206    4.0779 C   0  0  1  0  0  0  0  0  0  0  0  0
  -10.8247   14.3347    3.5329 O   0  0  0  0  0  0  0  0  0  0  0  0
   -8.1912   18.0374    2.4469 C   0  0  0  0  0  0  0  0  0  0  0  0
   -6.1340   15.8287    4.0794 C   0  0  0  0  0  0  0  0  0  0  0  0
  1  2  1  1  0  0  0
  1  6  1  0  0  0  0
  1 21  1  0  0  0  0
  3  4  1  1  0  0  0
  3  8  1  0  0  0  0
  3 28  1  0  0  0  0
  5  9  1  0  0  0  0
  5 25  1  0  0  0  0
  5 29  1  1  0  0  0
  6  7  1  1  0  0  0
  6 11  1  0  0  0  0
  8 12  1  0  0  0  0
  9 10  1  1  0  0  0
  9 14  1  0  0  0  0
 11 16  1  0  0  0  0
 12 13  1  1  0  0  0
 12 17  1  0  0  0  0
 14 15  1  6  0  0  0
 14 18  1  0  0  0  0
 15 31  1  0  0  0  0
 16 20  1  0  0  0  0
 17  2  1  6  0  0  0
 17 22  1  0  0  0  0
 18 19  1  6  0  0  0
 18 24  1  0  0  0  0
 18 30  1  0  0  0  0
 20 21  1  0  0  0  0
 20 26  1  6  0  0  0
 22 23  1  1  0  0  0
 22 28  1  0  0  0  0
 24 25  1  0  0  0  0
 26 27  1  0  0  0  0
 28 29  1  6  0  0  0
M  END
>  <CHROM.1>
-94.07372097,-128.19260171,-143.49788604,102.35963715,-91.10690261,-57.58846062
-10.84506529,12.16972973,3.30047352,-1.92852849,-0.02708795,-0.23320664

>  <Name>
ligand

>  <RI>
0

>  <Rbt.Current_Directory>
/home/itssahil/PROJECTS/Mol_Feturizer/New_Systems/rnas/4GPX

>  <Rbt.Executable>
rbdock ($Id: //depot/dev/client3/rdock/2013.1/src/exe/rbdock.cxx#4 $)

>  <Rbt.Library>
libRbt.so (2013.1, Build901 2013/11/27)

>  <Rbt.Parameter_File>
/export/apps/rDock/src/rDock_2013.1_src/data/scripts/dock_solv.prm

>  <Rbt.Receptor>
prm/blind_docking_20.prm

>  <SCORE>
5.54826

>  <SCORE.INTER>
-5.77428

>  <SCORE.INTER.CONST>
1

>  <SCORE.INTER.POLAR>
0

>  <SCORE.INTER.ROT>
6

>  <SCORE.INTER.SOLV>
21.9593

>  <SCORE.INTER.VDW>
-18.7693

>  <SCORE.INTER.norm>
-0.186267

>  <SCORE.INTRA>
3.90327

>  <SCORE.INTRA.DIHEDRAL>
-0.263515

>  <SCORE.INTRA.DIHEDRAL.0>
20.6841

>  <SCORE.INTRA.POLAR>
0

>  <SCORE.INTRA.POLAR.0>
0

>  <SCORE.INTRA.REPUL>
0

>  <SCORE.INTRA.REPUL.0>
0

>  <SCORE.INTRA.SOLV>
3.32913

>  <SCORE.INTRA.SOLV.lig_0>
-64.6797

>  <SCORE.INTRA.VDW>
2.37046

>  <SCORE.INTRA.VDW.0>
-4.11825

>  <SCORE.INTRA.norm>
0.125912

>  <SCORE.RESTR>
7.41927

>  <SCORE.RESTR.CAVITY>
7.41927

>  <SCORE.RESTR.norm>
0.239331

>  <SCORE.SYSTEM>
0

>  <SCORE.SYSTEM.CONST>
0

>  <SCORE.SYSTEM.DIHEDRAL>
0

>  <SCORE.SYSTEM.SOLV>
0

>  <SCORE.SYSTEM.norm>
0

>  <SCORE.heavy>
31

>  <SCORE.norm>
0.178976

>  <RMSD>
11.305

$$$$
ligand
 OpenBabel11021811493D
libRbt.so/2013.1/901 2013/11/27
 31 33  0  0  0  0  0  0  0  0999 V2000
  -11.0683    9.2819    3.4810 C   0  0  2  0  0  0  0  0  0  0  0  0
  -12.0764    9.7453    4.3744 O   0  0  0  0  0  0  0  0  0  0  0  0
  -13.1095   13.7025    3.2095 C   0  0  2  0  0  0  0  0  0  0  0  0
  -13.5236   15.0685    3.3069 N   0  0  0  0  0  0  0  0  0  0  0  0
  -10.3578   14.2283    2.1165 C   0  0  2  0  0  0  0  0  0  0  0  0
  -11.8100    8.8452    2.1523 C   0  0  2  0  0  0  0  0  0  0  0  0
  -12.5269    9.9970    1.6152 N   0  0  0  0  0  0  0  0  0  0  0  0
  -14.2587   12.7889    3.8052 C   0  0  0  0  0  0  0  0  0  0  0  0
   -8.8007   14.1206    2.1674 C   0  0  2  0  0  0  0  0  0  0  0  0
   -8.4582   12.9804    2.9259 O   0  0  0  0  0  0  0  0  0  0  0  0
  -12.8071    7.6539    2.4447 C   0  0  0  0  0  0  0  0  0  0  0  0
  -13.8052   11.2845    3.7020 C   0  0  2  0  0  0  0  0  0  0  0  0
  -14.8677   10.4303    4.2596 N   0  0  0  0  0  0  0  0  0  0  0  0
   -8.2637   15.4353    2.8507 C   0  0  1  0  0  0  0  0  0  0  0  0
   -6.7674   15.3815    2.9464 N   0  0  0  0  0  0  0  0  0  0  0  0
  -12.2258    6.6278    3.5072 C   0  0  0  0  0  0  0  0  0  0  0  0
  -12.4485   11.0738    4.5088 C   0  0  2  0  0  0  0  0  0  0  0  0
   -8.7009   16.7003    1.9196 C   0  0  1  0  0  0  0  0  0  0  0  0
   -8.1972   16.5958    0.5987 O   0  0  0  0  0  0  0  0  0  0  0  0
  -11.0954    6.9092    4.2077 C   0  0  2  0  0  0  0  0  0  0  0  0
  -10.3672    8.1303    4.0342 O   0  0  0  0  0  0  0  0  0  0  0  0
  -11.3287   11.9990    3.9035 C   0  0  2  0  0  0  0  0  0  0  0  0
  -10.1057   11.8090    4.6469 O   0  0  0  0  0  0  0  0  0  0  0  0
  -10.2589   16.7668    1.8105 C   0  0  0  0  0  0  0  0  0  0  0  0
  -10.7787   15.4440    1.3124 O   0  0  0  0  0  0  0  0  0  0  0  0
  -10.4955    5.9520    5.2395 C   0  0  0  0  0  0  0  0  0  0  0  0
  -11.5718    5.4508    6.0669 O   0  0  0  0  0  0  0  0  0  0  0  0
  -11.7894   13.4975    4.0359 C   0  0  1  0  0  0  0  0  0  0  0  0
  -10.7809   14.3061    3.5165 O   0  0  0  0  0  0  0  0  0  0  0  0
   -8.2506   18.0845    2.4459 C   0  0  0  0  0  0  0  0  0  0  0  0
   -6.2035   14.7493    4.1566 C   0  0  0  0  0  0  0  0  0  0  0  0
  1  2  1  1  0  0  0
  1  6  1  0  0  0  0
  1 21  1  0  0  0  0
  3  4  1  1  0  0  0
  3  8  1  0  0  0  0
  3 28  1  0  0  0  0
  5  9  1  0  0  0  0
  5 25  1  0  0  0  0
  5 29  1  1  0  0  0
  6  7  1  1  0  0  0
  6 11  1  0  0  0  0
  8 12  1  0  0  0  0
  9 10  1  1  0  0  0
  9 14  1  0  0  0  0
 11 16  1  0  0  0  0
 12 13  1  1  0  0  0
 12 17  1  0  0  0  0
 14 15  1  6  0  0  0
 14 18  1  0  0  0  0
 15 31  1  0  0  0  0
 16 20  1  0  0  0  0
 17  2  1  6  0  0  0
 17 22  1  0  0  0  0
 18 19  1  6  0  0  0
 18 24  1  0  0  0  0
 18 30  1  0  0  0  0
 20 21  1  0  0  0  0
 20 26  1  6  0  0  0
 22 23  1  1  0  0  0
 22 28  1  0  0  0  0
 24 25  1  0  0  0  0
 26 27  1  0  0  0  0
 28 29  1  6  0  0  0
M  END
>  <CHROM.1>
-94.33487884,-130.54817115,-88.42359788,101.42118030,-44.93032365,-57.02654217
-10.83655177,12.09243459,3.27821174,-1.92051947,-0.03187640,-0.23192451

>  <Name>
ligand

>  <RI>
0

>  <Rbt.Current_Directory>
/home/itssahil/PROJECTS/Mol_Feturizer/New_Systems/rnas/4GPX

>  <Rbt.Executable>
rbdock ($Id: //depot/dev/client3/rdock/2013.1/src/exe/rbdock.cxx#4 $)

>  <Rbt.Library>
libRbt.so (2013.1, Build901 2013/11/27)

>  <Rbt.Parameter_File>
/export/apps/rDock/src/rDock_2013.1_src/data/scripts/dock_solv.prm

>  <Rbt.Receptor>
prm/blind_docking_20.prm

>  <SCORE>
6.69743

>  <SCORE.INTER>
-4.91356

>  <SCORE.INTER.CONST>
1

>  <SCORE.INTER.POLAR>
0

>  <SCORE.INTER.ROT>
6

>  <SCORE.INTER.SOLV>
20.7678

>  <SCORE.INTER.VDW>
-17.7983

>  <SCORE.INTER.norm>
-0.158502

>  <SCORE.INTRA>
4.29721

>  <SCORE.INTRA.DIHEDRAL>
-0.0690761

>  <SCORE.INTRA.DIHEDRAL.0>
20.6841

>  <SCORE.INTRA.POLAR>
0

>  <SCORE.INTRA.POLAR.0>
0

>  <SCORE.INTRA.REPUL>
0

>  <SCORE.INTRA.REPUL.0>
0

>  <SCORE.INTRA.SOLV>
3.44122

>  <SCORE.INTRA.SOLV.lig_0>
-64.6797

>  <SCORE.INTRA.VDW>
2.61113

>  <SCORE.INTRA.VDW.0>
-4.11825

>  <SCORE.INTRA.norm>
0.13862

>  <SCORE.RESTR>
7.31378

>  <SCORE.RESTR.CAVITY>
7.31378

>  <SCORE.RESTR.norm>
0.235928

>  <SCORE.SYSTEM>
0

>  <SCORE.SYSTEM.CONST>
0

>  <SCORE.SYSTEM.DIHEDRAL>
0

>  <SCORE.SYSTEM.SOLV>
0

>  <SCORE.SYSTEM.norm>
0

>  <SCORE.heavy>
31

>  <SCORE.norm>
0.216046

>  <RMSD>
11.308

$$$$
ligand
 OpenBabel11021811493D
libRbt.so/2013.1/901 2013/11/27
 31 33  0  0  0  0  0  0  0  0999 V2000
  -11.0540    9.2492    3.5289 C   0  0  2  0  0  0  0  0  0  0  0  0
  -12.0870    9.7161    4.3916 O   0  0  0  0  0  0  0  0  0  0  0  0
  -13.1212   13.6578    3.1760 C   0  0  2  0  0  0  0  0  0  0  0  0
  -13.5400   15.0235    3.2554 N   0  0  0  0  0  0  0  0  0  0  0  0
  -10.4002   14.2197    2.0876 C   0  0  2  0  0  0  0  0  0  0  0  0
  -11.7555    8.8242    2.1750 C   0  0  2  0  0  0  0  0  0  0  0  0
  -12.4462    9.9838    1.6205 N   0  0  0  0  0  0  0  0  0  0  0  0
  -14.2729   12.7472    3.7715 C   0  0  0  0  0  0  0  0  0  0  0  0
   -8.8444   14.0869    2.1077 C   0  0  2  0  0  0  0  0  0  0  0  0
   -8.5065   12.9242    2.8334 O   0  0  0  0  0  0  0  0  0  0  0  0
  -12.7703    7.6391    2.4293 C   0  0  0  0  0  0  0  0  0  0  0  0
  -13.8142   11.2431    3.6881 C   0  0  2  0  0  0  0  0  0  0  0  0
  -14.8791   10.3917    4.2456 N   0  0  0  0  0  0  0  0  0  0  0  0
   -8.2746   15.3769    2.8112 C   0  0  1  0  0  0  0  0  0  0  0  0
   -6.7778   15.2979    2.8784 N   0  0  0  0  0  0  0  0  0  0  0  0
  -12.2311    6.6039    3.5052 C   0  0  0  0  0  0  0  0  0  0  0  0
  -12.4640   11.0449    4.5087 C   0  0  2  0  0  0  0  0  0  0  0  0
   -8.7082   16.6699    1.9175 C   0  0  1  0  0  0  0  0  0  0  0  0
   -8.2299   16.5884    0.5856 O   0  0  0  0  0  0  0  0  0  0  0  0
  -11.1219    6.8735    4.2431 C   0  0  2  0  0  0  0  0  0  0  0  0
  -10.3795    8.0900    4.0990 O   0  0  0  0  0  0  0  0  0  0  0  0
  -11.3417   11.9669    3.9033 C   0  0  2  0  0  0  0  0  0  0  0  0
  -10.1245   11.7884    4.6591 O   0  0  0  0  0  0  0  0  0  0  0  0
  -10.2668   16.7628    1.8384 C   0  0  0  0  0  0  0  0  0  0  0  0
  -10.8162   15.4602    1.3195 O   0  0  0  0  0  0  0  0  0  0  0  0
  -10.5626    5.9073    5.2891 C   0  0  0  0  0  0  0  0  0  0  0  0
  -11.0865    6.2920    6.5821 O   0  0  0  0  0  0  0  0  0  0  0  0
  -11.8077   13.4654    4.0158 C   0  0  1  0  0  0  0  0  0  0  0  0
  -10.7970   14.2714    3.4965 O   0  0  0  0  0  0  0  0  0  0  0  0
   -8.2268   18.0343    2.4673 C   0  0  0  0  0  0  0  0  0  0  0  0
   -6.1381   15.8660    4.0826 C   0  0  0  0  0  0  0  0  0  0  0  0
  1  2  1  1  0  0  0
  1  6  1  0  0  0  0
  1 21  1  0  0  0  0
  3  4  1  1  0  0  0
  3  8  1  0  0  0  0
  3 28  1  0  0  0  0
  5  9  1  0  0  0  0
  5 25  1  0  0  0  0
  5 29  1  1  0  0  0
  6  7  1  1  0  0  0
  6 11  1  0  0  0  0
  8 12  1  0  0  0  0
  9 10  1  1  0  0  0
  9 14  1  0  0  0  0
 11 16  1  0  0  0  0
 12 13  1  1  0  0  0
 12 17  1  0  0  0  0
 14 15  1  6  0  0  0
 14 18  1  0  0  0  0
 15 31  1  0  0  0  0
 16 20  1  0  0  0  0
 17  2  1  6  0  0  0
 17 22  1  0  0  0  0
 18 19  1  6  0  0  0
 18 24  1  0  0  0  0
 18 30  1  0  0  0  0
 20 21  1  0  0  0  0
 20 26  1  6  0  0  0
 22 23  1  1  0  0  0
 22 28  1  0  0  0  0
 24 25  1  0  0  0  0
 26 27  1  0  0  0  0
 28 29  1  6  0  0  0
M  END
>  <CHROM.1>
-93.54850086,-130.46929605,-144.37199445,102.56938035,-95.27428689,-54.38844787
-10.82656582,12.13162164,3.28831617,-1.92608386,-0.05999095,-0.25003814

>  <Name>
ligand

>  <RI>
0

>  <Rbt.Current_Directory>
/home/itssahil/PROJECTS/Mol_Feturizer/New_Systems/rnas/4GPX

>  <Rbt.Executable>
rbdock ($Id: //depot/dev/client3/rdock/2013.1/src/exe/rbdock.cxx#4 $)

>  <Rbt.Library>
libRbt.so (2013.1, Build901 2013/11/27)

>  <Rbt.Parameter_File>
/export/apps/rDock/src/rDock_2013.1_src/data/scripts/dock_solv.prm

>  <Rbt.Receptor>
prm/blind_docking_20.prm

>  <SCORE>
5.36013

>  <SCORE.INTER>
-5.67976

>  <SCORE.INTER.CONST>
1

>  <SCORE.INTER.POLAR>
0

>  <SCORE.INTER.ROT>
6

>  <SCORE.INTER.SOLV>
21.808

>  <SCORE.INTER.VDW>
-18.6558

>  <SCORE.INTER.norm>
-0.183218

>  <SCORE.INTRA>
3.62276

>  <SCORE.INTRA.DIHEDRAL>
-0.636974

>  <SCORE.INTRA.DIHEDRAL.0>
20.6841

>  <SCORE.INTRA.POLAR>
0

>  <SCORE.INTRA.POLAR.0>
0

>  <SCORE.INTRA.REPUL>
0

>  <SCORE.INTRA.REPUL.0>
0

>  <SCORE.INTRA.SOLV>
3.45694

>  <SCORE.INTRA.SOLV.lig_0>
-64.6797

>  <SCORE.INTRA.VDW>
2.21278

>  <SCORE.INTRA.VDW.0>
-4.11825

>  <SCORE.INTRA.norm>
0.116863

>  <SCORE.RESTR>
7.41713

>  <SCORE.RESTR.CAVITY>
7.41713

>  <SCORE.RESTR.norm>
0.239262

>  <SCORE.SYSTEM>
0

>  <SCORE.SYSTEM.CONST>
0

>  <SCORE.SYSTEM.DIHEDRAL>
0

>  <SCORE.SYSTEM.SOLV>
0

>  <SCORE.SYSTEM.norm>
0

>  <SCORE.heavy>
31

>  <SCORE.norm>
0.172908

>  <RMSD>
11.314

$$$$
ligand
 OpenBabel11021811493D
libRbt.so/2013.1/901 2013/11/27
 31 33  0  0  0  0  0  0  0  0999 V2000
   -5.3581   14.5642    3.9678 C   0  0  2  0  0  0  0  0  0  0  0  0
   -6.5307   15.3507    3.7789 O   0  0  0  0  0  0  0  0  0  0  0  0
  -10.2890   15.2227    1.7932 C   0  0  2  0  0  0  0  0  0  0  0  0
  -11.2533   15.0673    0.7479 N   0  0  0  0  0  0  0  0  0  0  0  0
  -10.3832   11.5367    1.7458 C   0  0  2  0  0  0  0  0  0  0  0  0
   -5.3673   14.0980    5.4806 C   0  0  2  0  0  0  0  0  0  0  0  0
   -6.5838   13.3309    5.7275 N   0  0  0  0  0  0  0  0  0  0  0  0
   -9.2735   16.3628    1.3701 C   0  0  0  0  0  0  0  0  0  0  0  0
  -10.9871   11.7338    0.3193 C   0  0  2  0  0  0  0  0  0  0  0  0
  -10.2039   12.6864   -0.3676 O   0  0  0  0  0  0  0  0  0  0  0  0
   -5.2919   15.3498    6.4429 C   0  0  0  0  0  0  0  0  0  0  0  0
   -8.2089   16.5349    2.5174 C   0  0  2  0  0  0  0  0  0  0  0  0
   -7.2583   17.5902    2.1271 N   0  0  0  0  0  0  0  0  0  0  0  0
  -12.4657   12.2469    0.5049 C   0  0  1  0  0  0  0  0  0  0  0  0
  -13.0950   12.4746   -0.8379 N   0  0  0  0  0  0  0  0  0  0  0  0
   -4.3414   16.4886    5.8776 C   0  0  0  0  0  0  0  0  0  0  0  0
   -7.4403   15.1598    2.7504 C   0  0  2  0  0  0  0  0  0  0  0  0
  -13.3000   11.0971    1.3050 C   0  0  1  0  0  0  0  0  0  0  0  0
  -13.2961    9.8553    0.6213 O   0  0  0  0  0  0  0  0  0  0  0  0
   -3.8511   16.4279    4.6113 C   0  0  2  0  0  0  0  0  0  0  0  0
   -4.1554   15.3490    3.7197 O   0  0  0  0  0  0  0  0  0  0  0  0
   -8.4723   14.0444    3.1593 C   0  0  2  0  0  0  0  0  0  0  0  0
   -7.7686   12.7996    3.3586 O   0  0  0  0  0  0  0  0  0  0  0  0
  -12.6529   10.8490    2.7064 C   0  0  0  0  0  0  0  0  0  0  0  0
  -11.1939   10.5209    2.5287 O   0  0  0  0  0  0  0  0  0  0  0  0
   -2.9302   17.4986    4.0229 C   0  0  0  0  0  0  0  0  0  0  0  0
   -1.6810   16.8659    3.6577 O   0  0  0  0  0  0  0  0  0  0  0  0
   -9.5134   13.8713    1.9924 C   0  0  1  0  0  0  0  0  0  0  0  0
  -10.4073   12.8672    2.3576 O   0  0  0  0  0  0  0  0  0  0  0  0
  -14.7855   11.4375    1.5752 C   0  0  0  0  0  0  0  0  0  0  0  0
  -12.5280   13.5641   -1.6588 C   0  0  0  0  0  0  0  0  0  0  0  0
  1  2  1  1  0  0  0
  1  6  1  0  0  0  0
  1 21  1  0  0  0  0
  3  4  1  6  0  0  0
  3  8  1  0  0  0  0
  3 28  1  0  0  0  0
  5  9  1  0  0  0  0
  5 25  1  0  0  0  0
  5 29  1  1  0  0  0
  6  7  1  1  0  0  0
  6 11  1  0  0  0  0
  8 12  1  0  0  0  0
  9 10  1  6  0  0  0
  9 14  1  0  0  0  0
 11 16  1  0  0  0  0
 12 13  1  6  0  0  0
 12 17  1  0  0  0  0
 14 15  1  6  0  0  0
 14 18  1  0  0  0  0
 15 31  1  0  0  0  0
 16 20  1  0  0  0  0
 17  2  1  1  0  0  0
 17 22  1  0  0  0  0
 18 19  1  6  0  0  0
 18 24  1  0  0  0  0
 18 30  1  0  0  0  0
 20 21  1  0  0  0  0
 20 26  1  1  0  0  0
 22 23  1  6  0  0  0
 22 28  1  0  0  0  0
 24 25  1  0  0  0  0
 26 27  1  0  0  0  0
 28 29  1  1  0  0  0
M  END
>  <CHROM.1>
-129.53862296,-74.23581285,-66.40600492,-156.38185224,119.84968110,134.39855601
-8.72685527,13.94058531,2.50216339,-0.08844904,0.59815545,2.44324656

>  <Name>
ligand

>  <RI>
0

>  <Rbt.Current_Directory>
/home/itssahil/PROJECTS/Mol_Feturizer/New_Systems/rnas/4GPX

>  <Rbt.Executable>
rbdock ($Id: //depot/dev/client3/rdock/2013.1/src/exe/rbdock.cxx#4 $)

>  <Rbt.Library>
libRbt.so (2013.1, Build901 2013/11/27)

>  <Rbt.Parameter_File>
/export/apps/rDock/src/rDock_2013.1_src/data/scripts/dock_solv.prm

>  <Rbt.Receptor>
prm/blind_docking_60.prm

>  <SCORE>
7.08174

>  <SCORE.INTER>
-4.92891

>  <SCORE.INTER.CONST>
1

>  <SCORE.INTER.POLAR>
0

>  <SCORE.INTER.ROT>
6

>  <SCORE.INTER.SOLV>
25.6745

>  <SCORE.INTER.VDW>
-19.4441

>  <SCORE.INTER.norm>
-0.158997

>  <SCORE.INTRA>
2.09539

>  <SCORE.INTRA.DIHEDRAL>
-2.61887

>  <SCORE.INTRA.DIHEDRAL.0>
20.6841

>  <SCORE.INTRA.POLAR>
0

>  <SCORE.INTRA.POLAR.0>
0

>  <SCORE.INTRA.REPUL>
0

>  <SCORE.INTRA.REPUL.0>
0

>  <SCORE.INTRA.SOLV>
3.27717

>  <SCORE.INTRA.SOLV.lig_0>
-64.6797

>  <SCORE.INTRA.VDW>
1.76624

>  <SCORE.INTRA.VDW.0>
-4.11825

>  <SCORE.INTRA.norm>
0.0675932

>  <SCORE.RESTR>
9.91527

>  <SCORE.RESTR.CAVITY>
9.91527

>  <SCORE.RESTR.norm>
0.319847

>  <SCORE.SYSTEM>
0

>  <SCORE.SYSTEM.CONST>
0

>  <SCORE.SYSTEM.DIHEDRAL>
0

>  <SCORE.SYSTEM.SOLV>
0

>  <SCORE.SYSTEM.norm>
0

>  <SCORE.heavy>
31

>  <SCORE.norm>
0.228443

>  <RMSD>
11.346

$$$$
ligand
 OpenBabel11021811493D
libRbt.so/2013.1/901 2013/11/27
 31 33  0  0  0  0  0  0  0  0999 V2000
  -13.2119    9.6552    3.0989 C   0  0  2  0  0  0  0  0  0  0  0  0
  -13.1667   10.3123    4.3620 O   0  0  0  0  0  0  0  0  0  0  0  0
  -12.4967   14.3723    3.2888 C   0  0  2  0  0  0  0  0  0  0  0  0
  -12.3518   15.7902    3.4134 N   0  0  0  0  0  0  0  0  0  0  0  0
   -9.7323   13.9110    2.3488 C   0  0  2  0  0  0  0  0  0  0  0  0
  -14.4694    8.6942    3.1358 C   0  0  2  0  0  0  0  0  0  0  0  0
  -15.6650    9.4955    3.3766 N   0  0  0  0  0  0  0  0  0  0  0  0
  -13.9481   13.9735    3.7831 C   0  0  0  0  0  0  0  0  0  0  0  0
   -8.1891   14.1499    2.3585 C   0  0  2  0  0  0  0  0  0  0  0  0
   -7.5942   13.1806    3.1947 O   0  0  0  0  0  0  0  0  0  0  0  0
  -14.2938    7.6010    4.2640 C   0  0  0  0  0  0  0  0  0  0  0  0
  -14.1103   12.4129    3.6498 C   0  0  2  0  0  0  0  0  0  0  0  0
  -15.4564   12.0354    4.1134 N   0  0  0  0  0  0  0  0  0  0  0  0
   -7.9450   15.6034    2.9168 C   0  0  1  0  0  0  0  0  0  0  0  0
   -6.4723   15.8853    2.9687 N   0  0  0  0  0  0  0  0  0  0  0  0
  -12.7942    7.0947    4.3849 C   0  0  0  0  0  0  0  0  0  0  0  0
  -13.0003   11.6789    4.5245 C   0  0  2  0  0  0  0  0  0  0  0  0
   -8.6621   16.6587    1.9016 C   0  0  1  0  0  0  0  0  0  0  0  0
   -8.1657   16.5542    0.5780 O   0  0  0  0  0  0  0  0  0  0  0  0
  -11.7873    7.7203    3.7197 C   0  0  2  0  0  0  0  0  0  0  0  0
  -12.0114    8.8585    2.8796 O   0  0  0  0  0  0  0  0  0  0  0  0
  -11.5707   12.0999    4.0193 C   0  0  2  0  0  0  0  0  0  0  0  0
  -10.5712   11.4380    4.8239 O   0  0  0  0  0  0  0  0  0  0  0  0
  -10.1980   16.3745    1.8373 C   0  0  0  0  0  0  0  0  0  0  0  0
  -10.4211   14.9328    1.4636 O   0  0  0  0  0  0  0  0  0  0  0  0
  -10.3280    7.2685    3.8024 C   0  0  0  0  0  0  0  0  0  0  0  0
   -9.8143    7.1588    2.4539 O   0  0  0  0  0  0  0  0  0  0  0  0
  -11.4194   13.6576    4.1811 C   0  0  1  0  0  0  0  0  0  0  0  0
  -10.1432   14.0137    3.7509 O   0  0  0  0  0  0  0  0  0  0  0  0
   -8.5200   18.1474    2.3007 C   0  0  0  0  0  0  0  0  0  0  0  0
   -5.8068   15.6925    4.2734 C   0  0  0  0  0  0  0  0  0  0  0  0
  1  2  1  1  0  0  0
  1  6  1  0  0  0  0
  1 21  1  0  0  0  0
  3  4  1  1  0  0  0
  3  8  1  0  0  0  0
  3 28  1  0  0  0  0
  5  9  1  0  0  0  0
  5 25  1  0  0  0  0
  5 29  1  1  0  0  0
  6  7  1  1  0  0  0
  6 11  1  0  0  0  0
  8 12  1  0  0  0  0
  9 10  1  1  0  0  0
  9 14  1  0  0  0  0
 11 16  1  0  0  0  0
 12 13  1  1  0  0  0
 12 17  1  0  0  0  0
 14 15  1  6  0  0  0
 14 18  1  0  0  0  0
 15 31  1  0  0  0  0
 16 20  1  0  0  0  0
 17  2  1  6  0  0  0
 17 22  1  0  0  0  0
 18 19  1  6  0  0  0
 18 24  1  0  0  0  0
 18 30  1  0  0  0  0
 20 21  1  0  0  0  0
 20 26  1  6  0  0  0
 22 23  1  1  0  0  0
 22 28  1  0  0  0  0
 24 25  1  0  0  0  0
 26 27  1  0  0  0  0
 28 29  1  6  0  0  0
M  END
>  <CHROM.1>
-132.05591233,-169.89330277,-97.57664615,53.43571163,130.22242366,-51.12832349
-11.05538012,12.45882425,3.25504636,2.15170146,-0.09937533,3.03809605

>  <Name>
ligand

>  <RI>
0

>  <Rbt.Current_Directory>
/home/itssahil/PROJECTS/Mol_Feturizer/New_Systems/rnas/4GPX

>  <Rbt.Executable>
rbdock ($Id: //depot/dev/client3/rdock/2013.1/src/exe/rbdock.cxx#4 $)

>  <Rbt.Library>
libRbt.so (2013.1, Build901 2013/11/27)

>  <Rbt.Parameter_File>
/export/apps/rDock/src/rDock_2013.1_src/data/scripts/dock_solv.prm

>  <Rbt.Receptor>
prm/blind_docking_20.prm

>  <SCORE>
4.44742

>  <SCORE.INTER>
-3.97363

>  <SCORE.INTER.CONST>
1

>  <SCORE.INTER.POLAR>
0

>  <SCORE.INTER.ROT>
6

>  <SCORE.INTER.SOLV>
22.482

>  <SCORE.INTER.VDW>
-17.7431

>  <SCORE.INTER.norm>
-0.128182

>  <SCORE.INTRA>
-1.19824

>  <SCORE.INTRA.DIHEDRAL>
-10.446

>  <SCORE.INTRA.DIHEDRAL.0>
20.6841

>  <SCORE.INTRA.POLAR>
0

>  <SCORE.INTRA.POLAR.0>
0

>  <SCORE.INTRA.REPUL>
0

>  <SCORE.INTRA.REPUL.0>
0

>  <SCORE.INTRA.SOLV>
3.65758

>  <SCORE.INTRA.SOLV.lig_0>
-64.6797

>  <SCORE.INTRA.VDW>
2.196

>  <SCORE.INTRA.VDW.0>
-4.11825

>  <SCORE.INTRA.norm>
-0.0386527

>  <SCORE.RESTR>
9.61928

>  <SCORE.RESTR.CAVITY>
9.61928

>  <SCORE.RESTR.norm>
0.310299

>  <SCORE.SYSTEM>
0

>  <SCORE.SYSTEM.CONST>
0

>  <SCORE.SYSTEM.DIHEDRAL>
0

>  <SCORE.SYSTEM.SOLV>
0

>  <SCORE.SYSTEM.norm>
0

>  <SCORE.heavy>
31

>  <SCORE.norm>
0.143465

>  <RMSD>
11.368

$$$$
ligand
 OpenBabel11021811493D
libRbt.so/2013.1/901 2013/11/27
 31 33  0  0  0  0  0  0  0  0999 V2000
   -6.7439   13.5437    3.6313 C   0  0  2  0  0  0  0  0  0  0  0  0
   -8.0272   13.8615    4.1618 O   0  0  0  0  0  0  0  0  0  0  0  0
  -10.8429   13.0282    1.0859 C   0  0  2  0  0  0  0  0  0  0  0  0
  -12.0329   13.1035    0.2953 N   0  0  0  0  0  0  0  0  0  0  0  0
  -10.4635   15.7517   -1.0300 C   0  0  2  0  0  0  0  0  0  0  0  0
   -5.8588   13.0611    4.8518 C   0  0  2  0  0  0  0  0  0  0  0  0
   -6.4977   11.9013    5.4649 N   0  0  0  0  0  0  0  0  0  0  0  0
  -11.2540   12.6715    2.5738 C   0  0  0  0  0  0  0  0  0  0  0  0
   -9.3443   16.6774   -1.6038 C   0  0  2  0  0  0  0  0  0  0  0  0
   -8.4643   15.8867   -2.3738 O   0  0  0  0  0  0  0  0  0  0  0  0
   -5.6910   14.2277    5.9053 C   0  0  0  0  0  0  0  0  0  0  0  0
   -9.9466   12.5903    3.4477 C   0  0  2  0  0  0  0  0  0  0  0  0
  -10.3230   12.2643    4.8339 N   0  0  0  0  0  0  0  0  0  0  0  0
   -8.5961   17.3220   -0.3756 C   0  0  1  0  0  0  0  0  0  0  0  0
   -7.4912   18.2111   -0.8654 N   0  0  0  0  0  0  0  0  0  0  0  0
   -5.5380   15.6480    5.2130 C   0  0  0  0  0  0  0  0  0  0  0  0
   -9.1780   13.9841    3.3987 C   0  0  2  0  0  0  0  0  0  0  0  0
   -9.6763   18.2123    0.4603 C   0  0  1  0  0  0  0  0  0  0  0  0
  -10.2704   19.2240   -0.3353 O   0  0  0  0  0  0  0  0  0  0  0  0
   -5.7516   15.8047    3.8798 C   0  0  2  0  0  0  0  0  0  0  0  0
   -6.1221   14.7151    3.0271 O   0  0  0  0  0  0  0  0  0  0  0  0
   -8.7909   14.3181    1.9105 C   0  0  2  0  0  0  0  0  0  0  0  0
   -8.1037   15.5874    1.8743 O   0  0  0  0  0  0  0  0  0  0  0  0
  -10.8344   17.2971    0.9753 C   0  0  0  0  0  0  0  0  0  0  0  0
  -11.4369   16.5560   -0.1890 O   0  0  0  0  0  0  0  0  0  0  0  0
   -5.6140   17.1515    3.1672 C   0  0  0  0  0  0  0  0  0  0  0  0
   -6.9303   17.5662    2.7318 O   0  0  0  0  0  0  0  0  0  0  0  0
  -10.1099   14.4172    1.0586 C   0  0  1  0  0  0  0  0  0  0  0  0
   -9.7546   14.7341   -0.2507 O   0  0  0  0  0  0  0  0  0  0  0  0
   -9.1067   18.9242    1.7111 C   0  0  0  0  0  0  0  0  0  0  0  0
   -7.8512   19.2101   -1.8923 C   0  0  0  0  0  0  0  0  0  0  0  0
  1  2  1  1  0  0  0
  1  6  1  0  0  0  0
  1 21  1  0  0  0  0
  3  4  1  6  0  0  0
  3  8  1  0  0  0  0
  3 28  1  0  0  0  0
  5  9  1  0  0  0  0
  5 25  1  0  0  0  0
  5 29  1  1  0  0  0
  6  7  1  1  0  0  0
  6 11  1  0  0  0  0
  8 12  1  0  0  0  0
  9 10  1  1  0  0  0
  9 14  1  0  0  0  0
 11 16  1  0  0  0  0
 12 13  1  1  0  0  0
 12 17  1  0  0  0  0
 14 15  1  6  0  0  0
 14 18  1  0  0  0  0
 15 31  1  0  0  0  0
 16 20  1  0  0  0  0
 17  2  1  1  0  0  0
 17 22  1  0  0  0  0
 18 19  1  6  0  0  0
 18 24  1  0  0  0  0
 18 30  1  0  0  0  0
 20 21  1  0  0  0  0
 20 26  1  6  0  0  0
 22 23  1  1  0  0  0
 22 28  1  0  0  0  0
 24 25  1  0  0  0  0
 26 27  1  0  0  0  0
 28 29  1  6  0  0  0
M  END
>  <CHROM.1>
-162.39537685,129.92405449,50.76854929,95.73261025,-112.25667224,105.88402898
-8.59493868,15.44841556,1.80060526,-1.12878315,-0.60638546,-0.68768976

>  <Name>
ligand

>  <RI>
0

>  <Rbt.Current_Directory>
/home/itssahil/PROJECTS/Mol_Feturizer/New_Systems/rnas/4GPX

>  <Rbt.Executable>
rbdock ($Id: //depot/dev/client3/rdock/2013.1/src/exe/rbdock.cxx#4 $)

>  <Rbt.Library>
libRbt.so (2013.1, Build901 2013/11/27)

>  <Rbt.Parameter_File>
/export/apps/rDock/src/rDock_2013.1_src/data/scripts/dock_solv.prm

>  <Rbt.Receptor>
prm/blind_docking_100.prm

>  <SCORE>
20.0701

>  <SCORE.INTER>
10.6199

>  <SCORE.INTER.CONST>
1

>  <SCORE.INTER.POLAR>
0

>  <SCORE.INTER.ROT>
6

>  <SCORE.INTER.SOLV>
33.3014

>  <SCORE.INTER.VDW>
-11.6205

>  <SCORE.INTER.norm>
0.342577

>  <SCORE.INTRA>
5.90178

>  <SCORE.INTRA.DIHEDRAL>
0.216535

>  <SCORE.INTRA.DIHEDRAL.0>
20.6841

>  <SCORE.INTRA.POLAR>
0

>  <SCORE.INTRA.POLAR.0>
0

>  <SCORE.INTRA.REPUL>
0

>  <SCORE.INTRA.REPUL.0>
0

>  <SCORE.INTRA.SOLV>
1.32534

>  <SCORE.INTRA.SOLV.lig_0>
-64.6797

>  <SCORE.INTRA.VDW>
5.13084

>  <SCORE.INTRA.VDW.0>
-4.11825

>  <SCORE.INTRA.norm>
0.19038

>  <SCORE.RESTR>
3.5484

>  <SCORE.RESTR.CAVITY>
3.5484

>  <SCORE.RESTR.norm>
0.114464

>  <SCORE.SYSTEM>
0

>  <SCORE.SYSTEM.CONST>
0

>  <SCORE.SYSTEM.DIHEDRAL>
0

>  <SCORE.SYSTEM.SOLV>
0

>  <SCORE.SYSTEM.norm>
0

>  <SCORE.heavy>
31

>  <SCORE.norm>
0.647421

>  <RMSD>
11.402

$$$$
ligand
 OpenBabel11021811493D
libRbt.so/2013.1/901 2013/11/27
 31 33  0  0  0  0  0  0  0  0999 V2000
  -13.5540    9.3197    3.6007 C   0  0  2  0  0  0  0  0  0  0  0  0
  -12.9680   10.0813    4.6524 O   0  0  0  0  0  0  0  0  0  0  0  0
  -12.7462   14.0805    3.2239 C   0  0  2  0  0  0  0  0  0  0  0  0
  -12.7533   15.5112    3.2240 N   0  0  0  0  0  0  0  0  0  0  0  0
   -9.9991   13.9311    2.2584 C   0  0  2  0  0  0  0  0  0  0  0  0
  -14.4442    8.2080    4.2916 C   0  0  2  0  0  0  0  0  0  0  0  0
  -15.4531    8.8619    5.1185 N   0  0  0  0  0  0  0  0  0  0  0  0
  -14.1424   13.5744    3.7755 C   0  0  0  0  0  0  0  0  0  0  0  0
   -8.4415   14.0391    2.2327 C   0  0  2  0  0  0  0  0  0  0  0  0
   -7.9100   12.9927    3.0171 O   0  0  0  0  0  0  0  0  0  0  0  0
  -13.5439    7.2464    5.1655 C   0  0  0  0  0  0  0  0  0  0  0  0
  -14.1372   11.9998    3.7792 C   0  0  2  0  0  0  0  0  0  0  0  0
  -15.4313   11.5231    4.2965 N   0  0  0  0  0  0  0  0  0  0  0  0
   -8.0607   15.4451    2.8344 C   0  0  1  0  0  0  0  0  0  0  0  0
   -6.5686   15.6002    2.8543 N   0  0  0  0  0  0  0  0  0  0  0  0
  -12.1388    6.9543    4.4874 C   0  0  0  0  0  0  0  0  0  0  0  0
  -12.9480   11.4667    4.6943 C   0  0  2  0  0  0  0  0  0  0  0  0
   -8.7111   16.5940    1.8776 C   0  0  1  0  0  0  0  0  0  0  0  0
   -8.2590   16.4977    0.5376 O   0  0  0  0  0  0  0  0  0  0  0  0
  -11.7308    7.6490    3.3925 C   0  0  2  0  0  0  0  0  0  0  0  0
  -12.5306    8.6728    2.7895 O   0  0  0  0  0  0  0  0  0  0  0  0
  -11.5759   11.9916    4.1304 C   0  0  2  0  0  0  0  0  0  0  0  0
  -10.5047   11.5121    4.9713 O   0  0  0  0  0  0  0  0  0  0  0  0
  -10.2667   16.4424    1.8470 C   0  0  0  0  0  0  0  0  0  0  0  0
  -10.6208   15.0394    1.4296 O   0  0  0  0  0  0  0  0  0  0  0  0
  -10.3878    7.4021    2.7027 C   0  0  0  0  0  0  0  0  0  0  0  0
   -9.8806    8.6752    2.2377 O   0  0  0  0  0  0  0  0  0  0  0  0
  -11.5913   13.5647    4.1554 C   0  0  1  0  0  0  0  0  0  0  0  0
  -10.3641   14.0156    3.6744 O   0  0  0  0  0  0  0  0  0  0  0  0
   -8.4330   18.0496    2.3244 C   0  0  0  0  0  0  0  0  0  0  0  0
   -5.9475   15.8620    4.1688 C   0  0  0  0  0  0  0  0  0  0  0  0
  1  2  1  1  0  0  0
  1  6  1  0  0  0  0
  1 21  1  0  0  0  0
  3  4  1  1  0  0  0
  3  8  1  0  0  0  0
  3 28  1  0  0  0  0
  5  9  1  0  0  0  0
  5 25  1  0  0  0  0
  5 29  1  1  0  0  0
  6  7  1  1  0  0  0
  6 11  1  0  0  0  0
  8 12  1  0  0  0  0
  9 10  1  1  0  0  0
  9 14  1  0  0  0  0
 11 16  1  0  0  0  0
 12 13  1  1  0  0  0
 12 17  1  0  0  0  0
 14 15  1  6  0  0  0
 14 18  1  0  0  0  0
 15 31  1  0  0  0  0
 16 20  1  0  0  0  0
 17  2  1  6  0  0  0
 17 22  1  0  0  0  0
 18 19  1  6  0  0  0
 18 24  1  0  0  0  0
 18 30  1  0  0  0  0
 20 21  1  0  0  0  0
 20 26  1  6  0  0  0
 22 23  1  1  0  0  0
 22 28  1  0  0  0  0
 24 25  1  0  0  0  0
 26 27  1  0  0  0  0
 28 29  1  6  0  0  0
M  END
>  <CHROM.1>
-132.62744738,-160.16234419,-122.17444324,22.92538916,-143.92380068,-46.16886097
-11.11259155,12.35371562,3.33317272,2.15150300,-0.19556568,3.03332790

>  <Name>
ligand

>  <RI>
0

>  <Rbt.Current_Directory>
/home/itssahil/PROJECTS/Mol_Feturizer/New_Systems/rnas/4GPX

>  <Rbt.Executable>
rbdock ($Id: //depot/dev/client3/rdock/2013.1/src/exe/rbdock.cxx#4 $)

>  <Rbt.Library>
libRbt.so (2013.1, Build901 2013/11/27)

>  <Rbt.Parameter_File>
/export/apps/rDock/src/rDock_2013.1_src/data/scripts/dock_solv.prm

>  <Rbt.Receptor>
prm/blind_docking_20.prm

>  <SCORE>
9.83165

>  <SCORE.INTER>
-2.00609

>  <SCORE.INTER.CONST>
1

>  <SCORE.INTER.POLAR>
0

>  <SCORE.INTER.ROT>
6

>  <SCORE.INTER.SOLV>
21.8614

>  <SCORE.INTER.VDW>
-16.2245

>  <SCORE.INTER.norm>
-0.0647127

>  <SCORE.INTRA>
2.27631

>  <SCORE.INTRA.DIHEDRAL>
-3.12928

>  <SCORE.INTRA.DIHEDRAL.0>
20.6841

>  <SCORE.INTRA.POLAR>
0

>  <SCORE.INTRA.POLAR.0>
0

>  <SCORE.INTRA.REPUL>
0

>  <SCORE.INTRA.REPUL.0>
0

>  <SCORE.INTRA.SOLV>
3.1394

>  <SCORE.INTRA.SOLV.lig_0>
-64.6797

>  <SCORE.INTRA.VDW>
2.27125

>  <SCORE.INTRA.VDW.0>
-4.11825

>  <SCORE.INTRA.norm>
0.0734294

>  <SCORE.RESTR>
9.56143

>  <SCORE.RESTR.CAVITY>
9.56143

>  <SCORE.RESTR.norm>
0.308433

>  <SCORE.SYSTEM>
0

>  <SCORE.SYSTEM.CONST>
0

>  <SCORE.SYSTEM.DIHEDRAL>
0

>  <SCORE.SYSTEM.SOLV>
0

>  <SCORE.SYSTEM.norm>
0

>  <SCORE.heavy>
31

>  <SCORE.norm>
0.31715

>  <RMSD>
11.425

$$$$
ligand
 OpenBabel11021811493D
libRbt.so/2013.1/901 2013/11/27
 31 33  0  0  0  0  0  0  0  0999 V2000
    2.1506    9.5946    5.4190 C   0  0  2  0  0  0  0  0  0  0  0  0
    3.4551    9.0229    5.4400 O   0  0  0  0  0  0  0  0  0  0  0  0
    4.3901    8.5802    1.3152 C   0  0  2  0  0  0  0  0  0  0  0  0
    5.1554    8.3741    0.1241 N   0  0  0  0  0  0  0  0  0  0  0  0
    3.8696    4.8966    2.2304 C   0  0  2  0  0  0  0  0  0  0  0  0
    1.5076    9.3017    6.8356 C   0  0  2  0  0  0  0  0  0  0  0  0
    2.3492    9.9016    7.8657 N   0  0  0  0  0  0  0  0  0  0  0  0
    4.9691    9.8488    2.0672 C   0  0  0  0  0  0  0  0  0  0  0  0
    4.8933    3.9649    1.5074 C   0  0  2  0  0  0  0  0  0  0  0  0
    6.1803    4.5290    1.6418 O   0  0  0  0  0  0  0  0  0  0  0  0
    1.3688    7.7439    7.0657 C   0  0  0  0  0  0  0  0  0  0  0  0
    4.1307   10.0771    3.3804 C   0  0  2  0  0  0  0  0  0  0  0  0
    4.6680   11.2526    4.0869 N   0  0  0  0  0  0  0  0  0  0  0  0
    4.4660    3.8882   -0.0077 C   0  0  1  0  0  0  0  0  0  0  0  0
    5.4283    3.0185   -0.7619 N   0  0  0  0  0  0  0  0  0  0  0  0
    0.9657    6.9719    5.7386 C   0  0  0  0  0  0  0  0  0  0  0  0
    4.2214    8.7869    4.3092 C   0  0  2  0  0  0  0  0  0  0  0  0
    2.9752    3.2315   -0.0768 C   0  0  1  0  0  0  0  0  0  0  0  0
    2.9274    1.9420    0.5099 O   0  0  0  0  0  0  0  0  0  0  0  0
    0.9670    7.6011    4.5337 C   0  0  2  0  0  0  0  0  0  0  0  0
    1.3258    8.9800    4.3866 O   0  0  0  0  0  0  0  0  0  0  0  0
    3.6499    7.5417    3.5352 C   0  0  2  0  0  0  0  0  0  0  0  0
    3.7452    6.3751    4.3806 O   0  0  0  0  0  0  0  0  0  0  0  0
    1.9626    4.1281    0.7072 C   0  0  0  0  0  0  0  0  0  0  0  0
    2.4656    4.3340    2.1116 O   0  0  0  0  0  0  0  0  0  0  0  0
    0.5841    6.9009    3.2284 C   0  0  0  0  0  0  0  0  0  0  0  0
   -0.7819    7.2578    2.9108 O   0  0  0  0  0  0  0  0  0  0  0  0
    4.5133    7.3160    2.2395 C   0  0  1  0  0  0  0  0  0  0  0  0
    4.0106    6.1991    1.5756 O   0  0  0  0  0  0  0  0  0  0  0  0
    2.3947    3.0794   -1.5035 C   0  0  0  0  0  0  0  0  0  0  0  0
    5.9699    1.8491   -0.0398 C   0  0  0  0  0  0  0  0  0  0  0  0
  1  2  1  1  0  0  0
  1  6  1  0  0  0  0
  1 21  1  0  0  0  0
  3  4  1  6  0  0  0
  3  8  1  0  0  0  0
  3 28  1  0  0  0  0
  5  9  1  0  0  0  0
  5 25  1  0  0  0  0
  5 29  1  6  0  0  0
  6  7  1  1  0  0  0
  6 11  1  0  0  0  0
  8 12  1  0  0  0  0
  9 10  1  6  0  0  0
  9 14  1  0  0  0  0
 11 16  1  0  0  0  0
 12 13  1  1  0  0  0
 12 17  1  0  0  0  0
 14 15  1  6  0  0  0
 14 18  1  0  0  0  0
 15 31  1  0  0  0  0
 16 20  1  0  0  0  0
 17  2  1  1  0  0  0
 17 22  1  0  0  0  0
 18 19  1  1  0  0  0
 18 24  1  0  0  0  0
 18 30  1  0  0  0  0
 20 21  1  0  0  0  0
 20 26  1  1  0  0  0
 22 23  1  1  0  0  0
 22 28  1  0  0  0  0
 24 25  1  0  0  0  0
 26 27  1  0  0  0  0
 28 29  1  6  0  0  0
M  END
>  <CHROM.1>
164.28303058,-113.33031272,35.84187927,44.81125393,100.02322744,-173.89340496
3.24052955,6.61730239,2.78760593,1.83447912,0.55571113,0.59481612

>  <Name>
ligand

>  <RI>
0

>  <Rbt.Current_Directory>
/home/itssahil/PROJECTS/Mol_Feturizer/New_Systems/rnas/4GPX

>  <Rbt.Executable>
rbdock ($Id: //depot/dev/client3/rdock/2013.1/src/exe/rbdock.cxx#4 $)

>  <Rbt.Library>
libRbt.so (2013.1, Build901 2013/11/27)

>  <Rbt.Parameter_File>
/export/apps/rDock/src/rDock_2013.1_src/data/scripts/dock_solv.prm

>  <Rbt.Receptor>
prm/blind_docking_80.prm

>  <SCORE>
19.4585

>  <SCORE.INTER>
9.82225

>  <SCORE.INTER.CONST>
1

>  <SCORE.INTER.POLAR>
0

>  <SCORE.INTER.ROT>
6

>  <SCORE.INTER.SOLV>
19.9642

>  <SCORE.INTER.VDW>
-7.70657

>  <SCORE.INTER.norm>
0.316847

>  <SCORE.INTRA>
-0.371759

>  <SCORE.INTRA.DIHEDRAL>
-8.69684

>  <SCORE.INTRA.DIHEDRAL.0>
20.6841

>  <SCORE.INTRA.POLAR>
0

>  <SCORE.INTRA.POLAR.0>
0

>  <SCORE.INTRA.REPUL>
0

>  <SCORE.INTRA.REPUL.0>
0

>  <SCORE.INTRA.SOLV>
-1.74635

>  <SCORE.INTRA.SOLV.lig_0>
-64.6797

>  <SCORE.INTRA.VDW>
4.84983

>  <SCORE.INTRA.VDW.0>
-4.11825

>  <SCORE.INTRA.norm>
-0.0119922

>  <SCORE.RESTR>
10.008

>  <SCORE.RESTR.CAVITY>
10.008

>  <SCORE.RESTR.norm>
0.322839

>  <SCORE.SYSTEM>
0

>  <SCORE.SYSTEM.CONST>
0

>  <SCORE.SYSTEM.DIHEDRAL>
0

>  <SCORE.SYSTEM.SOLV>
0

>  <SCORE.SYSTEM.norm>
0

>  <SCORE.heavy>
31

>  <SCORE.norm>
0.627694

>  <RMSD>
11.455

$$$$
ligand
 OpenBabel11021811493D
libRbt.so/2013.1/901 2013/11/27
 31 33  0  0  0  0  0  0  0  0999 V2000
   -4.9707   15.0159    3.4024 C   0  0  2  0  0  0  0  0  0  0  0  0
   -6.0912   15.2373    4.2537 O   0  0  0  0  0  0  0  0  0  0  0  0
   -9.3501   13.6240    2.0489 C   0  0  2  0  0  0  0  0  0  0  0  0
  -10.6937   13.3144    1.6671 N   0  0  0  0  0  0  0  0  0  0  0  0
  -10.6786   16.1733    0.3191 C   0  0  2  0  0  0  0  0  0  0  0  0
   -4.1477   13.8243    4.0418 C   0  0  2  0  0  0  0  0  0  0  0  0
   -5.0100   12.6501    4.1245 N   0  0  0  0  0  0  0  0  0  0  0  0
   -9.1059   13.0668    3.5118 C   0  0  0  0  0  0  0  0  0  0  0  0
  -10.5017   16.5180   -1.1937 C   0  0  2  0  0  0  0  0  0  0  0  0
  -10.0910   15.3495   -1.8711 O   0  0  0  0  0  0  0  0  0  0  0  0
   -3.6167   14.2288    5.4748 C   0  0  0  0  0  0  0  0  0  0  0  0
   -7.6286   13.4082    3.9364 C   0  0  2  0  0  0  0  0  0  0  0  0
   -7.3973   12.8972    5.2984 N   0  0  0  0  0  0  0  0  0  0  0  0
   -9.4022   17.6429   -1.2911 C   0  0  1  0  0  0  0  0  0  0  0  0
   -9.1730   18.0039   -2.7292 N   0  0  0  0  0  0  0  0  0  0  0  0
   -3.1641   15.7487    5.5433 C   0  0  0  0  0  0  0  0  0  0  0  0
   -7.4059   14.9843    3.8940 C   0  0  2  0  0  0  0  0  0  0  0  0
   -9.9487   18.9509   -0.4856 C   0  0  1  0  0  0  0  0  0  0  0  0
  -11.1802   19.4257   -1.0028 O   0  0  0  0  0  0  0  0  0  0  0  0
   -3.4286   16.6056    4.5218 C   0  0  2  0  0  0  0  0  0  0  0  0
   -4.1214   16.1983    3.3362 O   0  0  0  0  0  0  0  0  0  0  0  0
   -7.6642   15.5119    2.4342 C   0  0  2  0  0  0  0  0  0  0  0  0
   -7.4699   16.9423    2.4072 O   0  0  0  0  0  0  0  0  0  0  0  0
  -10.1932   18.5873    1.0150 C   0  0  0  0  0  0  0  0  0  0  0  0
  -11.1178   17.4013    1.0944 O   0  0  0  0  0  0  0  0  0  0  0  0
   -3.0108   18.0772    4.5404 C   0  0  0  0  0  0  0  0  0  0  0  0
   -2.4641   18.3729    5.8473 O   0  0  0  0  0  0  0  0  0  0  0  0
   -9.1503   15.1821    2.0365 C   0  0  1  0  0  0  0  0  0  0  0  0
   -9.3718   15.6729    0.7518 O   0  0  0  0  0  0  0  0  0  0  0  0
   -8.9860   20.1629   -0.4796 C   0  0  0  0  0  0  0  0  0  0  0  0
   -8.1167   17.2546   -3.4398 C   0  0  0  0  0  0  0  0  0  0  0  0
  1  2  1  1  0  0  0
  1  6  1  0  0  0  0
  1 21  1  0  0  0  0
  3  4  1  1  0  0  0
  3  8  1  0  0  0  0
  3 28  1  0  0  0  0
  5  9  1  0  0  0  0
  5 25  1  0  0  0  0
  5 29  1  1  0  0  0
  6  7  1  1  0  0  0
  6 11  1  0  0  0  0
  8 12  1  0  0  0  0
  9 10  1  6  0  0  0
  9 14  1  0  0  0  0
 11 16  1  0  0  0  0
 12 13  1  1  0  0  0
 12 17  1  0  0  0  0
 14 15  1  6  0  0  0
 14 18  1  0  0  0  0
 15 31  1  0  0  0  0
 16 20  1  0  0  0  0
 17  2  1  6  0  0  0
 17 22  1  0  0  0  0
 18 19  1  6  0  0  0
 18 24  1  0  0  0  0
 18 30  1  0  0  0  0
 20 21  1  0  0  0  0
 20 26  1  6  0  0  0
 22 23  1  1  0  0  0
 22 28  1  0  0  0  0
 24 25  1  0  0  0  0
 26 27  1  0  0  0  0
 28 29  1  6  0  0  0
M  END
>  <CHROM.1>
-112.26801228,-176.00904734,-91.03420709,75.25331206,-6.48094555,93.44059883
-7.56654555,16.04714661,2.01516203,-0.60878137,-0.57306489,-0.55004956

>  <Name>
ligand

>  <RI>
0

>  <Rbt.Current_Directory>
/home/itssahil/PROJECTS/Mol_Feturizer/New_Systems/rnas/4GPX

>  <Rbt.Executable>
rbdock ($Id: //depot/dev/client3/rdock/2013.1/src/exe/rbdock.cxx#4 $)

>  <Rbt.Library>
libRbt.so (2013.1, Build901 2013/11/27)

>  <Rbt.Parameter_File>
/export/apps/rDock/src/rDock_2013.1_src/data/scripts/dock_solv.prm

>  <Rbt.Receptor>
prm/blind_docking_100.prm

>  <SCORE>
7.07097

>  <SCORE.INTER>
-1.25769

>  <SCORE.INTER.CONST>
1

>  <SCORE.INTER.POLAR>
0

>  <SCORE.INTER.ROT>
6

>  <SCORE.INTER.SOLV>
24.4821

>  <SCORE.INTER.VDW>
-16.5992

>  <SCORE.INTER.norm>
-0.0405706

>  <SCORE.INTRA>
0.438479

>  <SCORE.INTRA.DIHEDRAL>
-6.00072

>  <SCORE.INTRA.DIHEDRAL.0>
20.6841

>  <SCORE.INTRA.POLAR>
0

>  <SCORE.INTRA.POLAR.0>
0

>  <SCORE.INTRA.REPUL>
0

>  <SCORE.INTRA.REPUL.0>
0

>  <SCORE.INTRA.SOLV>
2.61932

>  <SCORE.INTRA.SOLV.lig_0>
-64.6797

>  <SCORE.INTRA.VDW>
2.12918

>  <SCORE.INTRA.VDW.0>
-4.11825

>  <SCORE.INTRA.norm>
0.0141445

>  <SCORE.RESTR>
7.89018

>  <SCORE.RESTR.CAVITY>
7.89018

>  <SCORE.RESTR.norm>
0.254522

>  <SCORE.SYSTEM>
0

>  <SCORE.SYSTEM.CONST>
0

>  <SCORE.SYSTEM.DIHEDRAL>
0

>  <SCORE.SYSTEM.SOLV>
0

>  <SCORE.SYSTEM.norm>
0

>  <SCORE.heavy>
31

>  <SCORE.norm>
0.228096

>  <RMSD>
11.548

$$$$
ligand
 OpenBabel11021811493D
libRbt.so/2013.1/901 2013/11/27
 31 33  0  0  0  0  0  0  0  0999 V2000
   -8.3152   18.2571    0.3290 C   0  0  2  0  0  0  0  0  0  0  0  0
   -9.0019   18.0359    1.5573 O   0  0  0  0  0  0  0  0  0  0  0  0
   -7.9427   14.0461    2.5789 C   0  0  2  0  0  0  0  0  0  0  0  0
   -7.7493   12.8642    3.3616 N   0  0  0  0  0  0  0  0  0  0  0  0
  -10.4078   12.1108    2.6916 C   0  0  2  0  0  0  0  0  0  0  0  0
   -9.0378   19.4752   -0.3781 C   0  0  2  0  0  0  0  0  0  0  0  0
   -8.9682   20.6369    0.5021 N   0  0  0  0  0  0  0  0  0  0  0  0
   -7.0992   15.2190    3.2291 C   0  0  0  0  0  0  0  0  0  0  0  0
  -11.5287   11.3899    1.8778 C   0  0  2  0  0  0  0  0  0  0  0  0
  -11.0950   11.2613    0.5406 O   0  0  0  0  0  0  0  0  0  0  0  0
  -10.5412   19.1102   -0.7027 C   0  0  0  0  0  0  0  0  0  0  0  0
   -7.3118   16.5224    2.3715 C   0  0  2  0  0  0  0  0  0  0  0  0
   -6.5341   17.6183    2.9747 N   0  0  0  0  0  0  0  0  0  0  0  0
  -12.8217   12.2864    1.9681 C   0  0  1  0  0  0  0  0  0  0  0  0
  -13.9334   11.6524    1.1850 N   0  0  0  0  0  0  0  0  0  0  0  0
  -10.7098   17.5996   -1.1603 C   0  0  0  0  0  0  0  0  0  0  0  0
   -8.8587   16.8987    2.3370 C   0  0  2  0  0  0  0  0  0  0  0  0
  -13.2546   12.3877    3.5368 C   0  0  1  0  0  0  0  0  0  0  0  0
  -13.5018   11.1150    4.1100 O   0  0  0  0  0  0  0  0  0  0  0  0
   -9.6814   16.7168   -1.0565 C   0  0  2  0  0  0  0  0  0  0  0  0
   -8.3994   17.0873   -0.5362 O   0  0  0  0  0  0  0  0  0  0  0  0
   -9.6729   15.7142    1.6965 C   0  0  2  0  0  0  0  0  0  0  0  0
  -11.0747   16.0596    1.6783 O   0  0  0  0  0  0  0  0  0  0  0  0
  -12.1032   13.0457    4.3646 C   0  0  0  0  0  0  0  0  0  0  0  0
  -10.8279   12.2768    4.1399 O   0  0  0  0  0  0  0  0  0  0  0  0
   -9.7944   15.2528   -1.4862 C   0  0  0  0  0  0  0  0  0  0  0  0
  -10.4572   15.2116   -2.7720 O   0  0  0  0  0  0  0  0  0  0  0  0
   -9.4664   14.4280    2.5787 C   0  0  1  0  0  0  0  0  0  0  0  0
  -10.2089   13.3936    2.0133 O   0  0  0  0  0  0  0  0  0  0  0  0
  -14.5178   13.2387    3.8116 C   0  0  0  0  0  0  0  0  0  0  0  0
  -14.8351   12.5673    0.4556 C   0  0  0  0  0  0  0  0  0  0  0  0
  1  2  1  1  0  0  0
  1  6  1  0  0  0  0
  1 21  1  0  0  0  0
  3  4  1  1  0  0  0
  3  8  1  0  0  0  0
  3 28  1  0  0  0  0
  5  9  1  0  0  0  0
  5 25  1  0  0  0  0
  5 29  1  6  0  0  0
  6  7  1  1  0  0  0
  6 11  1  0  0  0  0
  8 12  1  0  0  0  0
  9 10  1  6  0  0  0
  9 14  1  0  0  0  0
 11 16  1  0  0  0  0
 12 13  1  1  0  0  0
 12 17  1  0  0  0  0
 14 15  1  6  0  0  0
 14 18  1  0  0  0  0
 15 31  1  0  0  0  0
 16 20  1  0  0  0  0
 17  2  1  6  0  0  0
 17 22  1  0  0  0  0
 18 19  1  1  0  0  0
 18 24  1  0  0  0  0
 18 30  1  0  0  0  0
 20 21  1  0  0  0  0
 20 26  1  6  0  0  0
 22 23  1  1  0  0  0
 22 28  1  0  0  0  0
 24 25  1  0  0  0  0
 26 27  1  0  0  0  0
 28 29  1  6  0  0  0
M  END
>  <CHROM.1>
166.15300120,167.83882116,-143.16892448,41.95657449,44.89952069,70.83999557
-10.34661232,14.92222002,1.52805900,0.90774016,-0.57989481,-0.77744135

>  <Name>
ligand

>  <RI>
0

>  <Rbt.Current_Directory>
/home/itssahil/PROJECTS/Mol_Feturizer/New_Systems/rnas/4GPX

>  <Rbt.Executable>
rbdock ($Id: //depot/dev/client3/rdock/2013.1/src/exe/rbdock.cxx#4 $)

>  <Rbt.Library>
libRbt.so (2013.1, Build901 2013/11/27)

>  <Rbt.Parameter_File>
/export/apps/rDock/src/rDock_2013.1_src/data/scripts/dock_solv.prm

>  <Rbt.Receptor>
prm/blind_docking_100.prm

>  <SCORE>
8.38554

>  <SCORE.INTER>
6.27752

>  <SCORE.INTER.CONST>
1

>  <SCORE.INTER.POLAR>
0

>  <SCORE.INTER.ROT>
6

>  <SCORE.INTER.SOLV>
27.8958

>  <SCORE.INTER.VDW>
-12.7136

>  <SCORE.INTER.norm>
0.202501

>  <SCORE.INTRA>
-5.29818

>  <SCORE.INTRA.DIHEDRAL>
-12.883

>  <SCORE.INTRA.DIHEDRAL.0>
20.6841

>  <SCORE.INTRA.POLAR>
0

>  <SCORE.INTRA.POLAR.0>
0

>  <SCORE.INTRA.REPUL>
0

>  <SCORE.INTRA.REPUL.0>
0

>  <SCORE.INTRA.SOLV>
-0.682913

>  <SCORE.INTRA.SOLV.lig_0>
-64.6797

>  <SCORE.INTRA.VDW>
1.48478

>  <SCORE.INTRA.VDW.0>
-4.11825

>  <SCORE.INTRA.norm>
-0.170909

>  <SCORE.RESTR>
7.4062

>  <SCORE.RESTR.CAVITY>
7.4062

>  <SCORE.RESTR.norm>
0.23891

>  <SCORE.SYSTEM>
0

>  <SCORE.SYSTEM.CONST>
0

>  <SCORE.SYSTEM.DIHEDRAL>
0

>  <SCORE.SYSTEM.SOLV>
0

>  <SCORE.SYSTEM.norm>
0

>  <SCORE.heavy>
31

>  <SCORE.norm>
0.270501

>  <RMSD>
11.557

$$$$
ligand
 OpenBabel11021811493D
libRbt.so/2013.1/901 2013/11/27
 31 33  0  0  0  0  0  0  0  0999 V2000
   -0.1118    8.0823    3.6731 C   0  0  2  0  0  0  0  0  0  0  0  0
    1.1418    8.4934    3.1358 O   0  0  0  0  0  0  0  0  0  0  0  0
    4.5342    6.3974    1.6586 C   0  0  2  0  0  0  0  0  0  0  0  0
    5.7415    5.6298    1.6482 N   0  0  0  0  0  0  0  0  0  0  0  0
    2.7480    4.4077    0.2169 C   0  0  2  0  0  0  0  0  0  0  0  0
   -1.0388    9.3654    3.6865 C   0  0  2  0  0  0  0  0  0  0  0  0
   -1.1681    9.8648    2.3215 N   0  0  0  0  0  0  0  0  0  0  0  0
    4.7934    7.7241    2.4848 C   0  0  0  0  0  0  0  0  0  0  0  0
    1.4548    3.5335    0.1713 C   0  0  2  0  0  0  0  0  0  0  0  0
    0.5060    4.0964    1.0520 O   0  0  0  0  0  0  0  0  0  0  0  0
   -0.4281   10.4758    4.6315 C   0  0  0  0  0  0  0  0  0  0  0  0
    3.4657    8.5705    2.5006 C   0  0  2  0  0  0  0  0  0  0  0  0
    3.6990    9.8032    3.2723 N   0  0  0  0  0  0  0  0  0  0  0  0
    1.8572    2.0801    0.6288 C   0  0  1  0  0  0  0  0  0  0  0  0
    0.6463    1.1942    0.6244 N   0  0  0  0  0  0  0  0  0  0  0  0
    0.2418    9.8592    5.9318 C   0  0  0  0  0  0  0  0  0  0  0  0
    2.2924    7.7206    3.1613 C   0  0  2  0  0  0  0  0  0  0  0  0
    2.9524    1.5041   -0.4328 C   0  0  1  0  0  0  0  0  0  0  0  0
    2.4539    1.4778   -1.7595 O   0  0  0  0  0  0  0  0  0  0  0  0
    0.4288    8.5185    6.0555 C   0  0  2  0  0  0  0  0  0  0  0  0
    0.0387    7.5905    5.0367 O   0  0  0  0  0  0  0  0  0  0  0  0
    2.0630    6.4058    2.3277 C   0  0  2  0  0  0  0  0  0  0  0  0
    1.0049    5.6369    2.9392 O   0  0  0  0  0  0  0  0  0  0  0  0
    4.2195    2.4198   -0.4389 C   0  0  0  0  0  0  0  0  0  0  0  0
    3.8038    3.8409   -0.7136 O   0  0  0  0  0  0  0  0  0  0  0  0
    1.0669    7.8773    7.2893 C   0  0  0  0  0  0  0  0  0  0  0  0
    1.7301    6.6608    6.8715 O   0  0  0  0  0  0  0  0  0  0  0  0
    3.3919    5.5636    2.3423 C   0  0  1  0  0  0  0  0  0  0  0  0
    3.1688    4.3936    1.6197 O   0  0  0  0  0  0  0  0  0  0  0  0
    3.4615    0.0733   -0.1336 C   0  0  0  0  0  0  0  0  0  0  0  0
   -0.1910    1.2233   -0.5922 C   0  0  0  0  0  0  0  0  0  0  0  0
  1  2  1  1  0  0  0
  1  6  1  0  0  0  0
  1 21  1  0  0  0  0
  3  4  1  1  0  0  0
  3  8  1  0  0  0  0
  3 28  1  0  0  0  0
  5  9  1  0  0  0  0
  5 25  1  0  0  0  0
  5 29  1  1  0  0  0
  6  7  1  6  0  0  0
  6 11  1  0  0  0  0
  8 12  1  0  0  0  0
  9 10  1  1  0  0  0
  9 14  1  0  0  0  0
 11 16  1  0  0  0  0
 12 13  1  1  0  0  0
 12 17  1  0  0  0  0
 14 15  1  6  0  0  0
 14 18  1  0  0  0  0
 15 31  1  0  0  0  0
 16 20  1  0  0  0  0
 17  2  1  6  0  0  0
 17 22  1  0  0  0  0
 18 19  1  6  0  0  0
 18 24  1  0  0  0  0
 18 30  1  0  0  0  0
 20 21  1  0  0  0  0
 20 26  1  1  0  0  0
 22 23  1  1  0  0  0
 22 28  1  0  0  0  0
 24 25  1  0  0  0  0
 26 27  1  0  0  0  0
 28 29  1  6  0  0  0
M  END
>  <CHROM.1>
168.87269313,-125.92279478,48.88171553,-178.26994927,-150.89677771,-60.40761614
1.92150644,5.78317318,2.29397085,1.78878023,0.25793732,0.57642342

>  <Name>
ligand

>  <RI>
0

>  <Rbt.Current_Directory>
/home/itssahil/PROJECTS/Mol_Feturizer/New_Systems/rnas/4GPX

>  <Rbt.Executable>
rbdock ($Id: //depot/dev/client3/rdock/2013.1/src/exe/rbdock.cxx#4 $)

>  <Rbt.Library>
libRbt.so (2013.1, Build901 2013/11/27)

>  <Rbt.Parameter_File>
/export/apps/rDock/src/rDock_2013.1_src/data/scripts/dock_solv.prm

>  <Rbt.Receptor>
prm/blind_docking_80.prm

>  <SCORE>
9.9062

>  <SCORE.INTER>
1.64676

>  <SCORE.INTER.CONST>
1

>  <SCORE.INTER.POLAR>
0

>  <SCORE.INTER.ROT>
6

>  <SCORE.INTER.SOLV>
19.4602

>  <SCORE.INTER.VDW>
-12.9889

>  <SCORE.INTER.norm>
0.0531213

>  <SCORE.INTRA>
-2.11268

>  <SCORE.INTRA.DIHEDRAL>
-10.2471

>  <SCORE.INTRA.DIHEDRAL.0>
20.6841

>  <SCORE.INTRA.POLAR>
0

>  <SCORE.INTRA.POLAR.0>
0

>  <SCORE.INTRA.REPUL>
0

>  <SCORE.INTRA.REPUL.0>
0

>  <SCORE.INTRA.SOLV>
-1.02538

>  <SCORE.INTRA.SOLV.lig_0>
-64.6797

>  <SCORE.INTRA.VDW>
3.52355

>  <SCORE.INTRA.VDW.0>
-4.11825

>  <SCORE.INTRA.norm>
-0.0681508

>  <SCORE.RESTR>
10.3721

>  <SCORE.RESTR.CAVITY>
10.3721

>  <SCORE.RESTR.norm>
0.334584

>  <SCORE.SYSTEM>
0

>  <SCORE.SYSTEM.CONST>
0

>  <SCORE.SYSTEM.DIHEDRAL>
0

>  <SCORE.SYSTEM.SOLV>
0

>  <SCORE.SYSTEM.norm>
0

>  <SCORE.heavy>
31

>  <SCORE.norm>
0.319555

>  <RMSD>
11.662

$$$$
ligand
 OpenBabel11021811493D
libRbt.so/2013.1/901 2013/11/27
 31 33  0  0  0  0  0  0  0  0999 V2000
   -5.2428   13.6661    3.9612 C   0  0  2  0  0  0  0  0  0  0  0  0
   -6.4595   14.4035    4.0317 O   0  0  0  0  0  0  0  0  0  0  0  0
   -9.6406   16.1405    1.8074 C   0  0  2  0  0  0  0  0  0  0  0  0
  -10.3917   16.6306    0.6926 N   0  0  0  0  0  0  0  0  0  0  0  0
  -10.6461   12.5624    0.9745 C   0  0  2  0  0  0  0  0  0  0  0  0
   -5.0183   13.0293    5.3931 C   0  0  2  0  0  0  0  0  0  0  0  0
   -6.1570   12.1733    5.7093 N   0  0  0  0  0  0  0  0  0  0  0  0
   -8.2727   16.9367    1.8764 C   0  0  0  0  0  0  0  0  0  0  0  0
  -10.6636   12.7719   -0.5730 C   0  0  2  0  0  0  0  0  0  0  0  0
   -9.4885   13.4617   -0.9417 O   0  0  0  0  0  0  0  0  0  0  0  0
   -4.8545   14.1646    6.4808 C   0  0  0  0  0  0  0  0  0  0  0  0
   -7.4421   16.3980    3.1010 C   0  0  2  0  0  0  0  0  0  0  0  0
   -6.1663   17.1311    3.1671 N   0  0  0  0  0  0  0  0  0  0  0  0
  -11.9470   13.6203   -0.9150 C   0  0  1  0  0  0  0  0  0  0  0  0
  -12.0086   13.8722   -2.3927 N   0  0  0  0  0  0  0  0  0  0  0  0
   -4.0385   15.4112    5.9331 C   0  0  0  0  0  0  0  0  0  0  0  0
   -7.1730   14.8384    2.9256 C   0  0  2  0  0  0  0  0  0  0  0  0
  -13.2545   12.7600   -0.4581 C   0  0  1  0  0  0  0  0  0  0  0  0
  -13.3188   11.4973   -1.0990 O   0  0  0  0  0  0  0  0  0  0  0  0
   -3.7318   15.5235    4.6137 C   0  0  2  0  0  0  0  0  0  0  0  0
   -4.1187   14.5390    3.6479 O   0  0  0  0  0  0  0  0  0  0  0  0
   -8.5464   14.0739    2.8499 C   0  0  2  0  0  0  0  0  0  0  0  0
   -8.2931   12.6626    2.6810 O   0  0  0  0  0  0  0  0  0  0  0  0
  -13.2016   12.4893    1.0807 C   0  0  0  0  0  0  0  0  0  0  0  0
  -11.8940   11.8255    1.4234 O   0  0  0  0  0  0  0  0  0  0  0  0
   -2.9459   16.7036    4.0391 C   0  0  0  0  0  0  0  0  0  0  0  0
   -3.8918   17.7296    3.6557 O   0  0  0  0  0  0  0  0  0  0  0  0
   -9.3515   14.6093    1.6087 C   0  0  1  0  0  0  0  0  0  0  0  0
  -10.5544   13.9100    1.5410 O   0  0  0  0  0  0  0  0  0  0  0  0
  -14.6147   13.4495   -0.7235 C   0  0  0  0  0  0  0  0  0  0  0  0
  -11.3427   15.0958   -2.8842 C   0  0  0  0  0  0  0  0  0  0  0  0
  1  2  1  1  0  0  0
  1  6  1  0  0  0  0
  1 21  1  0  0  0  0
  3  4  1  6  0  0  0
  3  8  1  0  0  0  0
  3 28  1  0  0  0  0
  5  9  1  0  0  0  0
  5 25  1  0  0  0  0
  5 29  1  1  0  0  0
  6  7  1  1  0  0  0
  6 11  1  0  0  0  0
  8 12  1  0  0  0  0
  9 10  1  1  0  0  0
  9 14  1  0  0  0  0
 11 16  1  0  0  0  0
 12 13  1  6  0  0  0
 12 17  1  0  0  0  0
 14 15  1  6  0  0  0
 14 18  1  0  0  0  0
 15 31  1  0  0  0  0
 16 20  1  0  0  0  0
 17  2  1  1  0  0  0
 17 22  1  0  0  0  0
 18 19  1  6  0  0  0
 18 24  1  0  0  0  0
 18 30  1  0  0  0  0
 20 21  1  0  0  0  0
 20 26  1  1  0  0  0
 22 23  1  6  0  0  0
 22 28  1  0  0  0  0
 24 25  1  0  0  0  0
 26 27  1  0  0  0  0
 28 29  1  1  0  0  0
M  END
>  <CHROM.1>
-163.71694214,-79.49294113,-89.97780407,-127.99333274,-89.93889535,161.41629170
-8.54554992,14.31227350,2.01905472,0.13526639,0.61896277,2.54212240

>  <Name>
ligand

>  <RI>
0

>  <Rbt.Current_Directory>
/home/itssahil/PROJECTS/Mol_Feturizer/New_Systems/rnas/4GPX

>  <Rbt.Executable>
rbdock ($Id: //depot/dev/client3/rdock/2013.1/src/exe/rbdock.cxx#4 $)

>  <Rbt.Library>
libRbt.so (2013.1, Build901 2013/11/27)

>  <Rbt.Parameter_File>
/export/apps/rDock/src/rDock_2013.1_src/data/scripts/dock_solv.prm

>  <Rbt.Receptor>
prm/blind_docking_60.prm

>  <SCORE>
2.17519

>  <SCORE.INTER>
-6.98476

>  <SCORE.INTER.CONST>
1

>  <SCORE.INTER.POLAR>
0

>  <SCORE.INTER.ROT>
6

>  <SCORE.INTER.SOLV>
28.7075

>  <SCORE.INTER.VDW>
-21.8257

>  <SCORE.INTER.norm>
-0.225315

>  <SCORE.INTRA>
-0.294901

>  <SCORE.INTRA.DIHEDRAL>
-6.02551

>  <SCORE.INTRA.DIHEDRAL.0>
20.6841

>  <SCORE.INTRA.POLAR>
0

>  <SCORE.INTRA.POLAR.0>
0

>  <SCORE.INTRA.REPUL>
0

>  <SCORE.INTRA.REPUL.0>
0

>  <SCORE.INTRA.SOLV>
3.20697

>  <SCORE.INTRA.SOLV.lig_0>
-64.6797

>  <SCORE.INTRA.VDW>
1.11437

>  <SCORE.INTRA.VDW.0>
-4.11825

>  <SCORE.INTRA.norm>
-0.00951295

>  <SCORE.RESTR>
9.45486

>  <SCORE.RESTR.CAVITY>
9.45486

>  <SCORE.RESTR.norm>
0.304995

>  <SCORE.SYSTEM>
0

>  <SCORE.SYSTEM.CONST>
0

>  <SCORE.SYSTEM.DIHEDRAL>
0

>  <SCORE.SYSTEM.SOLV>
0

>  <SCORE.SYSTEM.norm>
0

>  <SCORE.heavy>
31

>  <SCORE.norm>
0.0701676

>  <RMSD>
11.695

$$$$
ligand
 OpenBabel11021811493D
libRbt.so/2013.1/901 2013/11/27
 31 33  0  0  0  0  0  0  0  0999 V2000
    4.2148    4.1447   -0.5541 C   0  0  2  0  0  0  0  0  0  0  0  0
    3.4710    4.8413    0.4412 O   0  0  0  0  0  0  0  0  0  0  0  0
    4.5103    6.8493    4.0429 C   0  0  2  0  0  0  0  0  0  0  0  0
    5.0709    7.8270    4.9242 N   0  0  0  0  0  0  0  0  0  0  0  0
    1.6681    7.3372    4.7991 C   0  0  2  0  0  0  0  0  0  0  0  0
    3.3087    4.1099   -1.8516 C   0  0  2  0  0  0  0  0  0  0  0  0
    3.0115    5.4809   -2.2531 N   0  0  0  0  0  0  0  0  0  0  0  0
    5.6851    6.2117    3.1925 C   0  0  0  0  0  0  0  0  0  0  0  0
    0.1926    7.8081    4.5995 C   0  0  2  0  0  0  0  0  0  0  0  0
   -0.1733    7.5680    3.2574 O   0  0  0  0  0  0  0  0  0  0  0  0
    1.9750    3.3092   -1.5702 C   0  0  0  0  0  0  0  0  0  0  0  0
    5.0713    5.1367    2.2194 C   0  0  2  0  0  0  0  0  0  0  0  0
    6.1587    4.5441    1.4218 N   0  0  0  0  0  0  0  0  0  0  0  0
    0.1448    9.3481    4.9308 C   0  0  1  0  0  0  0  0  0  0  0  0
   -1.2504    9.8648    4.7371 N   0  0  0  0  0  0  0  0  0  0  0  0
    2.2124    2.0545   -0.6274 C   0  0  0  0  0  0  0  0  0  0  0  0
    3.9989    5.8243    1.2639 C   0  0  2  0  0  0  0  0  0  0  0  0
    0.5811    9.5405    6.4900 C   0  0  1  0  0  0  0  0  0  0  0  0
   -0.2611    8.8239    7.3769 O   0  0  0  0  0  0  0  0  0  0  0  0
    3.4007    1.8683    0.0058 C   0  0  2  0  0  0  0  0  0  0  0  0
    4.4981    2.7778   -0.1354 O   0  0  0  0  0  0  0  0  0  0  0  0
    2.8502    6.4570    2.1337 C   0  0  2  0  0  0  0  0  0  0  0  0
    1.8881    7.0865    1.2604 O   0  0  0  0  0  0  0  0  0  0  0  0
    2.0336    9.0042    6.7056 C   0  0  0  0  0  0  0  0  0  0  0  0
    2.1120    7.5775    6.2299 O   0  0  0  0  0  0  0  0  0  0  0  0
    3.6780    0.6745    0.9215 C   0  0  0  0  0  0  0  0  0  0  0  0
    2.4099    0.0684    1.2665 O   0  0  0  0  0  0  0  0  0  0  0  0
    3.4789    7.5432    3.0825 C   0  0  1  0  0  0  0  0  0  0  0  0
    2.4495    8.1099    3.8307 O   0  0  0  0  0  0  0  0  0  0  0  0
    0.5887   11.0055    6.9895 C   0  0  0  0  0  0  0  0  0  0  0  0
   -1.4339   10.9048    3.7042 C   0  0  0  0  0  0  0  0  0  0  0  0
  1  2  1  1  0  0  0
  1  6  1  0  0  0  0
  1 21  1  0  0  0  0
  3  4  1  1  0  0  0
  3  8  1  0  0  0  0
  3 28  1  0  0  0  0
  5  9  1  0  0  0  0
  5 25  1  0  0  0  0
  5 29  1  6  0  0  0
  6  7  1  1  0  0  0
  6 11  1  0  0  0  0
  8 12  1  0  0  0  0
  9 10  1  6  0  0  0
  9 14  1  0  0  0  0
 11 16  1  0  0  0  0
 12 13  1  6  0  0  0
 12 17  1  0  0  0  0
 14 15  1  1  0  0  0
 14 18  1  0  0  0  0
 15 31  1  0  0  0  0
 16 20  1  0  0  0  0
 17  2  1  6  0  0  0
 17 22  1  0  0  0  0
 18 19  1  1  0  0  0
 18 24  1  0  0  0  0
 18 30  1  0  0  0  0
 20 21  1  0  0  0  0
 20 26  1  6  0  0  0
 22 23  1  6  0  0  0
 22 28  1  0  0  0  0
 24 25  1  0  0  0  0
 26 27  1  0  0  0  0
 28 29  1  1  0  0  0
M  END
>  <CHROM.1>
-134.95124696,-138.70063404,-117.87557468,-66.32946709,-15.98228008,-54.07216290
2.46823284,6.24602733,2.68743117,1.20772483,0.38053120,-2.26379789

>  <Name>
ligand

>  <RI>
0

>  <Rbt.Current_Directory>
/home/itssahil/PROJECTS/Mol_Feturizer/New_Systems/rnas/4GPX

>  <Rbt.Executable>
rbdock ($Id: //depot/dev/client3/rdock/2013.1/src/exe/rbdock.cxx#4 $)

>  <Rbt.Library>
libRbt.so (2013.1, Build901 2013/11/27)

>  <Rbt.Parameter_File>
/export/apps/rDock/src/rDock_2013.1_src/data/scripts/dock_solv.prm

>  <Rbt.Receptor>
prm/blind_docking_80.prm

>  <SCORE>
17.2713

>  <SCORE.INTER>
5.21853

>  <SCORE.INTER.CONST>
1

>  <SCORE.INTER.POLAR>
0

>  <SCORE.INTER.ROT>
6

>  <SCORE.INTER.SOLV>
18.5369

>  <SCORE.INTER.VDW>
-10.3

>  <SCORE.INTER.norm>
0.16834

>  <SCORE.INTRA>
-0.640484

>  <SCORE.INTRA.DIHEDRAL>
-5.3611

>  <SCORE.INTRA.DIHEDRAL.0>
20.6841

>  <SCORE.INTRA.POLAR>
0

>  <SCORE.INTRA.POLAR.0>
0

>  <SCORE.INTRA.REPUL>
0

>  <SCORE.INTRA.REPUL.0>
0

>  <SCORE.INTRA.SOLV>
0.802888

>  <SCORE.INTRA.SOLV.lig_0>
-64.6797

>  <SCORE.INTRA.VDW>
1.63862

>  <SCORE.INTRA.VDW.0>
-4.11825

>  <SCORE.INTRA.norm>
-0.0206608

>  <SCORE.RESTR>
12.6933

>  <SCORE.RESTR.CAVITY>
12.6933

>  <SCORE.RESTR.norm>
0.409461

>  <SCORE.SYSTEM>
0

>  <SCORE.SYSTEM.CONST>
0

>  <SCORE.SYSTEM.DIHEDRAL>
0

>  <SCORE.SYSTEM.SOLV>
0

>  <SCORE.SYSTEM.norm>
0

>  <SCORE.heavy>
31

>  <SCORE.norm>
0.55714

>  <RMSD>
11.711

$$$$
ligand
 OpenBabel11021811493D
libRbt.so/2013.1/901 2013/11/27
 31 33  0  0  0  0  0  0  0  0999 V2000
  -10.7019   13.1918    4.1085 C   0  0  2  0  0  0  0  0  0  0  0  0
   -9.8871   12.9986    2.9560 O   0  0  0  0  0  0  0  0  0  0  0  0
   -7.0405   16.1423    3.2701 C   0  0  2  0  0  0  0  0  0  0  0  0
   -5.8824   16.9395    3.0056 N   0  0  0  0  0  0  0  0  0  0  0  0
   -9.6567   17.6436    1.0322 C   0  0  2  0  0  0  0  0  0  0  0  0
  -11.7310   11.9893    4.1393 C   0  0  2  0  0  0  0  0  0  0  0  0
  -10.9862   10.7361    4.2021 N   0  0  0  0  0  0  0  0  0  0  0  0
   -6.5638   14.6796    3.6489 C   0  0  0  0  0  0  0  0  0  0  0  0
   -9.5047   19.0407    0.3513 C   0  0  2  0  0  0  0  0  0  0  0  0
   -8.4443   18.9698   -0.5778 O   0  0  0  0  0  0  0  0  0  0  0  0
  -12.6571   12.0245    2.8587 C   0  0  0  0  0  0  0  0  0  0  0  0
   -7.8363   13.7985    3.9382 C   0  0  2  0  0  0  0  0  0  0  0  0
   -7.3995   12.4354    4.2857 N   0  0  0  0  0  0  0  0  0  0  0  0
   -9.1887   20.0834    1.4901 C   0  0  1  0  0  0  0  0  0  0  0  0
   -9.0116   21.4481    0.8923 N   0  0  0  0  0  0  0  0  0  0  0  0
  -13.0438   13.5045    2.4346 C   0  0  0  0  0  0  0  0  0  0  0  0
   -8.7733   13.7654    2.6510 C   0  0  2  0  0  0  0  0  0  0  0  0
  -10.4539   20.1035    2.5184 C   0  0  1  0  0  0  0  0  0  0  0  0
  -11.6687   20.4411    1.8705 O   0  0  0  0  0  0  0  0  0  0  0  0
  -12.4433   14.5787    3.0118 C   0  0  2  0  0  0  0  0  0  0  0  0
  -11.4391   14.4461    4.0245 O   0  0  0  0  0  0  0  0  0  0  0  0
   -9.2234   15.2298    2.2917 C   0  0  2  0  0  0  0  0  0  0  0  0
  -10.0639   15.1915    1.1183 O   0  0  0  0  0  0  0  0  0  0  0  0
  -10.6502   18.6859    3.1474 C   0  0  0  0  0  0  0  0  0  0  0  0
  -10.7855   17.6681    2.0457 O   0  0  0  0  0  0  0  0  0  0  0  0
  -12.7836   16.0229    2.6389 C   0  0  0  0  0  0  0  0  0  0  0  0
  -13.1791   16.7174    3.8453 O   0  0  0  0  0  0  0  0  0  0  0  0
   -7.9413   16.0883    1.9843 C   0  0  1  0  0  0  0  0  0  0  0  0
   -8.3547   17.3752    1.6472 O   0  0  0  0  0  0  0  0  0  0  0  0
  -10.3119   21.0825    3.7087 C   0  0  0  0  0  0  0  0  0  0  0  0
   -7.6664   21.7762    0.3778 C   0  0  0  0  0  0  0  0  0  0  0  0
  1  2  1  6  0  0  0
  1  6  1  0  0  0  0
  1 21  1  0  0  0  0
  3  4  1  6  0  0  0
  3  8  1  0  0  0  0
  3 28  1  0  0  0  0
  5  9  1  0  0  0  0
  5 25  1  0  0  0  0
  5 29  1  1  0  0  0
  6  7  1  6  0  0  0
  6 11  1  0  0  0  0
  8 12  1  0  0  0  0
  9 10  1  6  0  0  0
  9 14  1  0  0  0  0
 11 16  1  0  0  0  0
 12 13  1  6  0  0  0
 12 17  1  0  0  0  0
 14 15  1  6  0  0  0
 14 18  1  0  0  0  0
 15 31  1  0  0  0  0
 16 20  1  0  0  0  0
 17  2  1  1  0  0  0
 17 22  1  0  0  0  0
 18 19  1  6  0  0  0
 18 24  1  0  0  0  0
 18 30  1  0  0  0  0
 20 21  1  0  0  0  0
 20 26  1  1  0  0  0
 22 23  1  6  0  0  0
 22 28  1  0  0  0  0
 24 25  1  0  0  0  0
 26 27  1  0  0  0  0
 28 29  1  1  0  0  0
M  END
>  <CHROM.1>
-173.03304430,-159.42154881,-84.99139060,51.25312443,123.78896803,-146.96733310
-9.87356247,16.32330420,2.52740080,1.75523862,-0.06602022,2.86776705

>  <Name>
ligand

>  <RI>
0

>  <Rbt.Current_Directory>
/home/itssahil/PROJECTS/Mol_Feturizer/New_Systems/rnas/4GPX

>  <Rbt.Executable>
rbdock ($Id: //depot/dev/client3/rdock/2013.1/src/exe/rbdock.cxx#4 $)

>  <Rbt.Library>
libRbt.so (2013.1, Build901 2013/11/27)

>  <Rbt.Parameter_File>
/export/apps/rDock/src/rDock_2013.1_src/data/scripts/dock_solv.prm

>  <Rbt.Receptor>
prm/blind_docking_100.prm

>  <SCORE>
5.75129

>  <SCORE.INTER>
1.76573

>  <SCORE.INTER.CONST>
1

>  <SCORE.INTER.POLAR>
0

>  <SCORE.INTER.ROT>
6

>  <SCORE.INTER.SOLV>
31.1029

>  <SCORE.INTER.VDW>
-16.7905

>  <SCORE.INTER.norm>
0.056959

>  <SCORE.INTRA>
-1.56552

>  <SCORE.INTRA.DIHEDRAL>
-11.8606

>  <SCORE.INTRA.DIHEDRAL.0>
20.6841

>  <SCORE.INTRA.POLAR>
0

>  <SCORE.INTRA.POLAR.0>
0

>  <SCORE.INTRA.REPUL>
0

>  <SCORE.INTRA.REPUL.0>
0

>  <SCORE.INTRA.SOLV>
-0.911913

>  <SCORE.INTRA.SOLV.lig_0>
-64.6797

>  <SCORE.INTRA.VDW>
4.82075

>  <SCORE.INTRA.VDW.0>
-4.11825

>  <SCORE.INTRA.norm>
-0.0505008

>  <SCORE.RESTR>
5.55108

>  <SCORE.RESTR.CAVITY>
5.55108

>  <SCORE.RESTR.norm>
0.179067

>  <SCORE.SYSTEM>
0

>  <SCORE.SYSTEM.CONST>
0

>  <SCORE.SYSTEM.DIHEDRAL>
0

>  <SCORE.SYSTEM.SOLV>
0

>  <SCORE.SYSTEM.norm>
0

>  <SCORE.heavy>
31

>  <SCORE.norm>
0.185525

>  <RMSD>
11.738

$$$$
ligand
 OpenBabel11021811493D
libRbt.so/2013.1/901 2013/11/27
 31 33  0  0  0  0  0  0  0  0999 V2000
  -10.6528   12.6157    4.2172 C   0  0  2  0  0  0  0  0  0  0  0  0
   -9.8059   12.4624    3.0821 O   0  0  0  0  0  0  0  0  0  0  0  0
   -7.4225   15.9825    3.1928 C   0  0  2  0  0  0  0  0  0  0  0  0
   -6.3787   16.9104    2.8825 N   0  0  0  0  0  0  0  0  0  0  0  0
   -8.0825   18.1327    1.2958 C   0  0  2  0  0  0  0  0  0  0  0  0
  -11.7872   11.5196    4.0842 C   0  0  2  0  0  0  0  0  0  0  0  0
  -11.1631   10.2012    4.0437 N   0  0  0  0  0  0  0  0  0  0  0  0
   -6.7586   14.6306    3.6845 C   0  0  0  0  0  0  0  0  0  0  0  0
   -8.8662   19.2229    2.0932 C   0  0  2  0  0  0  0  0  0  0  0  0
   -8.9693   18.8031    3.4370 O   0  0  0  0  0  0  0  0  0  0  0  0
  -12.6454   11.7711    2.7806 C   0  0  0  0  0  0  0  0  0  0  0  0
   -7.9047   13.6058    4.0245 C   0  0  2  0  0  0  0  0  0  0  0  0
   -7.2933   12.3445    4.4772 N   0  0  0  0  0  0  0  0  0  0  0  0
  -10.2907   19.3521    1.4314 C   0  0  1  0  0  0  0  0  0  0  0  0
  -11.1014   20.3759    2.1700 N   0  0  0  0  0  0  0  0  0  0  0  0
  -12.8757   13.3162    2.4990 C   0  0  0  0  0  0  0  0  0  0  0  0
   -8.8010   13.3513    2.7332 C   0  0  2  0  0  0  0  0  0  0  0  0
  -10.0858   19.8356   -0.1122 C   0  0  1  0  0  0  0  0  0  0  0  0
   -9.3918   21.0684   -0.2024 O   0  0  0  0  0  0  0  0  0  0  0  0
  -12.2077   14.2650    3.2070 C   0  0  2  0  0  0  0  0  0  0  0  0
  -11.2682   13.9365    4.2371 O   0  0  0  0  0  0  0  0  0  0  0  0
   -9.4393   14.7099    2.2611 C   0  0  2  0  0  0  0  0  0  0  0  0
  -10.2416   14.4717    1.0846 O   0  0  0  0  0  0  0  0  0  0  0  0
   -9.2405   18.7774   -0.8930 C   0  0  0  0  0  0  0  0  0  0  0  0
   -7.9470   18.5363   -0.1604 O   0  0  0  0  0  0  0  0  0  0  0  0
  -12.3976   15.7651    2.9743 C   0  0  0  0  0  0  0  0  0  0  0  0
  -13.7231   16.1264    3.4293 O   0  0  0  0  0  0  0  0  0  0  0  0
   -8.2801   15.7123    1.9048 C   0  0  1  0  0  0  0  0  0  0  0  0
   -8.8582   16.9023    1.4683 O   0  0  0  0  0  0  0  0  0  0  0  0
  -11.3944   20.0159   -0.9188 C   0  0  0  0  0  0  0  0  0  0  0  0
  -11.6055   19.9857    3.5026 C   0  0  0  0  0  0  0  0  0  0  0  0
  1  2  1  6  0  0  0
  1  6  1  0  0  0  0
  1 21  1  0  0  0  0
  3  4  1  6  0  0  0
  3  8  1  0  0  0  0
  3 28  1  0  0  0  0
  5  9  1  0  0  0  0
  5 25  1  0  0  0  0
  5 29  1  6  0  0  0
  6  7  1  6  0  0  0
  6 11  1  0  0  0  0
  8 12  1  0  0  0  0
  9 10  1  1  0  0  0
  9 14  1  0  0  0  0
 11 16  1  0  0  0  0
 12 13  1  6  0  0  0
 12 17  1  0  0  0  0
 14 15  1  1  0  0  0
 14 18  1  0  0  0  0
 15 31  1  0  0  0  0
 16 20  1  0  0  0  0
 17  2  1  1  0  0  0
 17 22  1  0  0  0  0
 18 19  1  1  0  0  0
 18 24  1  0  0  0  0
 18 30  1  0  0  0  0
 20 21  1  0  0  0  0
 20 26  1  1  0  0  0
 22 23  1  6  0  0  0
 22 28  1  0  0  0  0
 24 25  1  0  0  0  0
 26 27  1  0  0  0  0
 28 29  1  1  0  0  0
M  END
>  <CHROM.1>
170.71877182,-128.27157073,-73.18466023,50.44887202,69.36348809,49.48712306
-9.92237922,15.99626562,2.36871064,1.69767754,0.01053875,2.76797317

>  <Name>
ligand

>  <RI>
0

>  <Rbt.Current_Directory>
/home/itssahil/PROJECTS/Mol_Feturizer/New_Systems/rnas/4GPX

>  <Rbt.Executable>
rbdock ($Id: //depot/dev/client3/rdock/2013.1/src/exe/rbdock.cxx#4 $)

>  <Rbt.Library>
libRbt.so (2013.1, Build901 2013/11/27)

>  <Rbt.Parameter_File>
/export/apps/rDock/src/rDock_2013.1_src/data/scripts/dock_solv.prm

>  <Rbt.Receptor>
prm/blind_docking_100.prm

>  <SCORE>
8.61355

>  <SCORE.INTER>
5.95543

>  <SCORE.INTER.CONST>
1

>  <SCORE.INTER.POLAR>
0

>  <SCORE.INTER.ROT>
6

>  <SCORE.INTER.SOLV>
30.8369

>  <SCORE.INTER.VDW>
-13.9087

>  <SCORE.INTER.norm>
0.192111

>  <SCORE.INTRA>
-1.24976

>  <SCORE.INTRA.DIHEDRAL>
-8.78878

>  <SCORE.INTRA.DIHEDRAL.0>
20.6841

>  <SCORE.INTRA.POLAR>
0

>  <SCORE.INTRA.POLAR.0>
0

>  <SCORE.INTRA.REPUL>
0

>  <SCORE.INTRA.REPUL.0>
0

>  <SCORE.INTRA.SOLV>
0.217168

>  <SCORE.INTRA.SOLV.lig_0>
-64.6797

>  <SCORE.INTRA.VDW>
3.03605

>  <SCORE.INTRA.VDW.0>
-4.11825

>  <SCORE.INTRA.norm>
-0.0403149

>  <SCORE.RESTR>
3.90788

>  <SCORE.RESTR.CAVITY>
3.90788

>  <SCORE.RESTR.norm>
0.126061

>  <SCORE.SYSTEM>
0

>  <SCORE.SYSTEM.CONST>
0

>  <SCORE.SYSTEM.DIHEDRAL>
0

>  <SCORE.SYSTEM.SOLV>
0

>  <SCORE.SYSTEM.norm>
0

>  <SCORE.heavy>
31

>  <SCORE.norm>
0.277856

>  <RMSD>
11.740

$$$$
ligand
 OpenBabel11021811493D
libRbt.so/2013.1/901 2013/11/27
 31 33  0  0  0  0  0  0  0  0999 V2000
    4.5666    3.4150    1.2008 C   0  0  2  0  0  0  0  0  0  0  0  0
    4.9176    4.6932    0.6790 O   0  0  0  0  0  0  0  0  0  0  0  0
    5.7333    6.9527    4.1881 C   0  0  2  0  0  0  0  0  0  0  0  0
    6.1571    8.0343    5.0232 N   0  0  0  0  0  0  0  0  0  0  0  0
    2.7528    9.0922    3.7266 C   0  0  2  0  0  0  0  0  0  0  0  0
    4.5807    2.4099   -0.0221 C   0  0  2  0  0  0  0  0  0  0  0  0
    5.9146    2.4097   -0.6137 N   0  0  0  0  0  0  0  0  0  0  0  0
    6.9681    6.4844    3.3129 C   0  0  0  0  0  0  0  0  0  0  0  0
    1.8621    9.3393    4.9852 C   0  0  2  0  0  0  0  0  0  0  0  0
    2.7043    9.4384    6.1137 O   0  0  0  0  0  0  0  0  0  0  0  0
    3.4956    2.8299   -1.0922 C   0  0  0  0  0  0  0  0  0  0  0  0
    6.5046    5.2954    2.3904 C   0  0  2  0  0  0  0  0  0  0  0  0
    7.6475    4.8592    1.5700 N   0  0  0  0  0  0  0  0  0  0  0  0
    0.8860    8.1088    5.1155 C   0  0  1  0  0  0  0  0  0  0  0  0
    0.0138    8.2800    6.3243 N   0  0  0  0  0  0  0  0  0  0  0  0
    2.1675    3.3812   -0.4201 C   0  0  0  0  0  0  0  0  0  0  0  0
    5.3064    5.7730    1.4566 C   0  0  2  0  0  0  0  0  0  0  0  0
   -0.0458    8.0625    3.7784 C   0  0  1  0  0  0  0  0  0  0  0  0
   -0.7874    9.2570    3.5977 O   0  0  0  0  0  0  0  0  0  0  0  0
    2.1121    3.6406    0.9131 C   0  0  2  0  0  0  0  0  0  0  0  0
    3.2310    3.4358    1.7835 O   0  0  0  0  0  0  0  0  0  0  0  0
    4.0989    6.2413    2.3503 C   0  0  2  0  0  0  0  0  0  0  0  0
    3.0214    6.6817    1.4961 O   0  0  0  0  0  0  0  0  0  0  0  0
    0.8518    7.8858    2.5108 C   0  0  0  0  0  0  0  0  0  0  0  0
    1.8917    8.9747    2.4829 O   0  0  0  0  0  0  0  0  0  0  0  0
    0.8553    4.1698    1.6067 C   0  0  0  0  0  0  0  0  0  0  0  0
    0.0850    4.9147    0.6341 O   0  0  0  0  0  0  0  0  0  0  0  0
    4.5745    7.4429    3.2477 C   0  0  1  0  0  0  0  0  0  0  0  0
    3.4913    7.8613    4.0174 O   0  0  0  0  0  0  0  0  0  0  0  0
   -1.0730    6.9054    3.7386 C   0  0  0  0  0  0  0  0  0  0  0  0
    0.6926    8.2780    7.6363 C   0  0  0  0  0  0  0  0  0  0  0  0
  1  2  1  6  0  0  0
  1  6  1  0  0  0  0
  1 21  1  0  0  0  0
  3  4  1  1  0  0  0
  3  8  1  0  0  0  0
  3 28  1  0  0  0  0
  5  9  1  0  0  0  0
  5 25  1  0  0  0  0
  5 29  1  1  0  0  0
  6  7  1  6  0  0  0
  6 11  1  0  0  0  0
  8 12  1  0  0  0  0
  9 10  1  1  0  0  0
  9 14  1  0  0  0  0
 11 16  1  0  0  0  0
 12 13  1  6  0  0  0
 12 17  1  0  0  0  0
 14 15  1  1  0  0  0
 14 18  1  0  0  0  0
 15 31  1  0  0  0  0
 16 20  1  0  0  0  0
 17  2  1  6  0  0  0
 17 22  1  0  0  0  0
 18 19  1  6  0  0  0
 18 24  1  0  0  0  0
 18 30  1  0  0  0  0
 20 21  1  0  0  0  0
 20 26  1  1  0  0  0
 22 23  1  6  0  0  0
 22 28  1  0  0  0  0
 24 25  1  0  0  0  0
 26 27  1  0  0  0  0
 28 29  1  1  0  0  0
M  END
>  <CHROM.1>
-164.92437147,-167.66852644,-64.56551304,53.24958313,-27.36326317,136.08250049
3.02116277,6.29936133,2.70648066,1.06755433,0.06285212,-2.36860931

>  <Name>
ligand

>  <RI>
0

>  <Rbt.Current_Directory>
/home/itssahil/PROJECTS/Mol_Feturizer/New_Systems/rnas/4GPX

>  <Rbt.Executable>
rbdock ($Id: //depot/dev/client3/rdock/2013.1/src/exe/rbdock.cxx#4 $)

>  <Rbt.Library>
libRbt.so (2013.1, Build901 2013/11/27)

>  <Rbt.Parameter_File>
/export/apps/rDock/src/rDock_2013.1_src/data/scripts/dock_solv.prm

>  <Rbt.Receptor>
prm/blind_docking_80.prm

>  <SCORE>
16.1984

>  <SCORE.INTER>
8.27655

>  <SCORE.INTER.CONST>
1

>  <SCORE.INTER.POLAR>
0

>  <SCORE.INTER.ROT>
6

>  <SCORE.INTER.SOLV>
20.7181

>  <SCORE.INTER.VDW>
-8.98835

>  <SCORE.INTER.norm>
0.266985

>  <SCORE.INTRA>
-2.38801

>  <SCORE.INTRA.DIHEDRAL>
-10.1441

>  <SCORE.INTRA.DIHEDRAL.0>
20.6841

>  <SCORE.INTRA.POLAR>
0

>  <SCORE.INTRA.POLAR.0>
0

>  <SCORE.INTRA.REPUL>
0

>  <SCORE.INTRA.REPUL.0>
0

>  <SCORE.INTRA.SOLV>
-0.0435989

>  <SCORE.INTRA.SOLV.lig_0>
-64.6797

>  <SCORE.INTRA.VDW>
2.70586

>  <SCORE.INTRA.VDW.0>
-4.11825

>  <SCORE.INTRA.norm>
-0.0770324

>  <SCORE.RESTR>
10.3099

>  <SCORE.RESTR.CAVITY>
10.3099

>  <SCORE.RESTR.norm>
0.332577

>  <SCORE.SYSTEM>
0

>  <SCORE.SYSTEM.CONST>
0

>  <SCORE.SYSTEM.DIHEDRAL>
0

>  <SCORE.SYSTEM.SOLV>
0

>  <SCORE.SYSTEM.norm>
0

>  <SCORE.heavy>
31

>  <SCORE.norm>
0.52253

>  <RMSD>
11.752

$$$$
ligand
 OpenBabel11021811493D
libRbt.so/2013.1/901 2013/11/27
 31 33  0  0  0  0  0  0  0  0999 V2000
    3.9557    3.5996   -0.3600 C   0  0  2  0  0  0  0  0  0  0  0  0
    3.3118    4.4630    0.5724 O   0  0  0  0  0  0  0  0  0  0  0  0
    4.9303    6.9277    3.6367 C   0  0  2  0  0  0  0  0  0  0  0  0
    5.5770    8.0350    4.2711 N   0  0  0  0  0  0  0  0  0  0  0  0
    2.2734    7.2799    4.9675 C   0  0  2  0  0  0  0  0  0  0  0  0
    3.3654    3.9552   -1.7851 C   0  0  2  0  0  0  0  0  0  0  0  0
    3.6359    5.3610   -2.0673 N   0  0  0  0  0  0  0  0  0  0  0  0
    5.9417    6.2863    2.5995 C   0  0  0  0  0  0  0  0  0  0  0  0
    0.7284    7.1750    4.7659 C   0  0  2  0  0  0  0  0  0  0  0  0
    0.4832    6.5072    3.5467 O   0  0  0  0  0  0  0  0  0  0  0  0
    1.8116    3.6669   -1.8249 C   0  0  0  0  0  0  0  0  0  0  0  0
    5.2322    5.0685    1.8973 C   0  0  2  0  0  0  0  0  0  0  0  0
    6.1662    4.4713    0.9274 N   0  0  0  0  0  0  0  0  0  0  0  0
    0.1614    8.6450    4.7285 C   0  0  1  0  0  0  0  0  0  0  0  0
   -1.3235    8.6098    4.5162 N   0  0  0  0  0  0  0  0  0  0  0  0
    1.4191    2.3631   -1.0090 C   0  0  0  0  0  0  0  0  0  0  0  0
    3.9132    5.5666    1.1572 C   0  0  2  0  0  0  0  0  0  0  0  0
    0.4859    9.3457    6.1645 C   0  0  1  0  0  0  0  0  0  0  0  0
   -0.0788    8.6320    7.2513 O   0  0  0  0  0  0  0  0  0  0  0  0
    2.3246    1.7350   -0.2132 C   0  0  2  0  0  0  0  0  0  0  0  0
    3.6704    2.2017   -0.0627 O   0  0  0  0  0  0  0  0  0  0  0  0
    2.9320    6.2072    2.2075 C   0  0  2  0  0  0  0  0  0  0  0  0
    1.7439    6.6648    1.5267 O   0  0  0  0  0  0  0  0  0  0  0  0
    2.0310    9.3872    6.3986 C   0  0  0  0  0  0  0  0  0  0  0  0
    2.5908    7.9953    6.2673 O   0  0  0  0  0  0  0  0  0  0  0  0
    1.9949    0.4753    0.5899 C   0  0  0  0  0  0  0  0  0  0  0  0
    0.6280    0.5825    1.0531 O   0  0  0  0  0  0  0  0  0  0  0  0
    3.6494    7.4345    2.8817 C   0  0  1  0  0  0  0  0  0  0  0  0
    2.7631    8.0047    3.7927 O   0  0  0  0  0  0  0  0  0  0  0  0
   -0.0062   10.8065    6.3038 C   0  0  0  0  0  0  0  0  0  0  0  0
   -1.7922    8.6046    3.1153 C   0  0  0  0  0  0  0  0  0  0  0  0
  1  2  1  1  0  0  0
  1  6  1  0  0  0  0
  1 21  1  0  0  0  0
  3  4  1  6  0  0  0
  3  8  1  0  0  0  0
  3 28  1  0  0  0  0
  5  9  1  0  0  0  0
  5 25  1  0  0  0  0
  5 29  1  6  0  0  0
  6  7  1  1  0  0  0
  6 11  1  0  0  0  0
  8 12  1  0  0  0  0
  9 10  1  6  0  0  0
  9 14  1  0  0  0  0
 11 16  1  0  0  0  0
 12 13  1  6  0  0  0
 12 17  1  0  0  0  0
 14 15  1  1  0  0  0
 14 18  1  0  0  0  0
 15 31  1  0  0  0  0
 16 20  1  0  0  0  0
 17  2  1  1  0  0  0
 17 22  1  0  0  0  0
 18 19  1  1  0  0  0
 18 24  1  0  0  0  0
 18 30  1  0  0  0  0
 20 21  1  0  0  0  0
 20 26  1  6  0  0  0
 22 23  1  6  0  0  0
 22 28  1  0  0  0  0
 24 25  1  0  0  0  0
 26 27  1  0  0  0  0
 28 29  1  1  0  0  0
M  END
>  <CHROM.1>
-104.81180975,-117.61871656,-88.78097858,-56.69577005,-36.01004454,-55.35008803
2.36270536,5.99566610,2.52955123,-1.31611067,0.12429615,0.74857307

>  <Name>
ligand

>  <RI>
0

>  <Rbt.Current_Directory>
/home/itssahil/PROJECTS/Mol_Feturizer/New_Systems/rnas/4GPX

>  <Rbt.Executable>
rbdock ($Id: //depot/dev/client3/rdock/2013.1/src/exe/rbdock.cxx#4 $)

>  <Rbt.Library>
libRbt.so (2013.1, Build901 2013/11/27)

>  <Rbt.Parameter_File>
/export/apps/rDock/src/rDock_2013.1_src/data/scripts/dock_solv.prm

>  <Rbt.Receptor>
prm/blind_docking_80.prm

>  <SCORE>
16.04

>  <SCORE.INTER>
5.19086

>  <SCORE.INTER.CONST>
1

>  <SCORE.INTER.POLAR>
0

>  <SCORE.INTER.ROT>
6

>  <SCORE.INTER.SOLV>
20.9838

>  <SCORE.INTER.VDW>
-11.134

>  <SCORE.INTER.norm>
0.167447

>  <SCORE.INTRA>
2.3049

>  <SCORE.INTRA.DIHEDRAL>
-3.72884

>  <SCORE.INTRA.DIHEDRAL.0>
20.6841

>  <SCORE.INTRA.POLAR>
0

>  <SCORE.INTRA.POLAR.0>
0

>  <SCORE.INTRA.REPUL>
0

>  <SCORE.INTRA.REPUL.0>
0

>  <SCORE.INTRA.SOLV>
0.962853

>  <SCORE.INTRA.SOLV.lig_0>
-64.6797

>  <SCORE.INTRA.VDW>
3.68789

>  <SCORE.INTRA.VDW.0>
-4.11825

>  <SCORE.INTRA.norm>
0.0743515

>  <SCORE.RESTR>
8.54427

>  <SCORE.RESTR.CAVITY>
8.54427

>  <SCORE.RESTR.norm>
0.275622

>  <SCORE.SYSTEM>
0

>  <SCORE.SYSTEM.CONST>
0

>  <SCORE.SYSTEM.DIHEDRAL>
0

>  <SCORE.SYSTEM.SOLV>
0

>  <SCORE.SYSTEM.norm>
0

>  <SCORE.heavy>
31

>  <SCORE.norm>
0.51742

>  <RMSD>
11.766

$$$$
ligand
 OpenBabel11021811493D
libRbt.so/2013.1/901 2013/11/27
 31 33  0  0  0  0  0  0  0  0999 V2000
   -5.2969   13.9903    4.0693 C   0  0  2  0  0  0  0  0  0  0  0  0
   -6.6604   14.4006    4.0287 O   0  0  0  0  0  0  0  0  0  0  0  0
   -9.6942   16.1582    1.6223 C   0  0  2  0  0  0  0  0  0  0  0  0
  -10.3835   16.6356    0.4631 N   0  0  0  0  0  0  0  0  0  0  0  0
  -10.7713   12.5984    0.8201 C   0  0  2  0  0  0  0  0  0  0  0  0
   -5.0739   13.3067    5.4796 C   0  0  2  0  0  0  0  0  0  0  0  0
   -5.9874   12.1755    5.6021 N   0  0  0  0  0  0  0  0  0  0  0  0
   -8.3080   16.9180    1.7269 C   0  0  0  0  0  0  0  0  0  0  0  0
  -10.6975   12.7939   -0.7275 C   0  0  2  0  0  0  0  0  0  0  0  0
   -9.4793   13.4365   -1.0371 O   0  0  0  0  0  0  0  0  0  0  0  0
   -5.3184   14.3500    6.6418 C   0  0  0  0  0  0  0  0  0  0  0  0
   -7.5452   16.3931    3.0006 C   0  0  2  0  0  0  0  0  0  0  0  0
   -6.2526   17.0922    3.1001 N   0  0  0  0  0  0  0  0  0  0  0  0
  -11.9281   13.6856   -1.1448 C   0  0  1  0  0  0  0  0  0  0  0  0
  -11.9005   13.9258   -2.6256 N   0  0  0  0  0  0  0  0  0  0  0  0
   -4.7888   15.8000    6.2718 C   0  0  0  0  0  0  0  0  0  0  0  0
   -7.3142   14.8221    2.8813 C   0  0  2  0  0  0  0  0  0  0  0  0
  -13.2895   12.8784   -0.7532 C   0  0  1  0  0  0  0  0  0  0  0  0
  -13.3661   11.6129   -1.3873 O   0  0  0  0  0  0  0  0  0  0  0  0
   -4.3809   16.0964    5.0095 C   0  0  2  0  0  0  0  0  0  0  0  0
   -4.4019   15.1341    3.9488 O   0  0  0  0  0  0  0  0  0  0  0  0
   -8.7047   14.0940    2.7690 C   0  0  2  0  0  0  0  0  0  0  0  0
   -8.4855   12.6718    2.6512 O   0  0  0  0  0  0  0  0  0  0  0  0
  -13.3297   12.6203    0.7881 C   0  0  0  0  0  0  0  0  0  0  0  0
  -12.0681   11.9122    1.2062 O   0  0  0  0  0  0  0  0  0  0  0  0
   -3.8607   17.4772    4.6053 C   0  0  0  0  0  0  0  0  0  0  0  0
   -2.7137   17.2906    3.7427 O   0  0  0  0  0  0  0  0  0  0  0  0
   -9.4414   14.6144    1.4798 C   0  0  1  0  0  0  0  0  0  0  0  0
  -10.6602   13.9469    1.3808 O   0  0  0  0  0  0  0  0  0  0  0  0
  -14.6067   13.6149   -1.0970 C   0  0  0  0  0  0  0  0  0  0  0  0
  -11.4816   15.2706   -3.0706 C   0  0  0  0  0  0  0  0  0  0  0  0
  1  2  1  1  0  0  0
  1  6  1  0  0  0  0
  1 21  1  0  0  0  0
  3  4  1  6  0  0  0
  3  8  1  0  0  0  0
  3 28  1  0  0  0  0
  5  9  1  0  0  0  0
  5 25  1  0  0  0  0
  5 29  1  1  0  0  0
  6  7  1  1  0  0  0
  6 11  1  0  0  0  0
  8 12  1  0  0  0  0
  9 10  1  1  0  0  0
  9 14  1  0  0  0  0
 11 16  1  0  0  0  0
 12 13  1  6  0  0  0
 12 17  1  0  0  0  0
 14 15  1  6  0  0  0
 14 18  1  0  0  0  0
 15 31  1  0  0  0  0
 16 20  1  0  0  0  0
 17  2  1  1  0  0  0
 17 22  1  0  0  0  0
 18 19  1  6  0  0  0
 18 24  1  0  0  0  0
 18 30  1  0  0  0  0
 20 21  1  0  0  0  0
 20 26  1  1  0  0  0
 22 23  1  6  0  0  0
 22 28  1  0  0  0  0
 24 25  1  0  0  0  0
 26 27  1  0  0  0  0
 28 29  1  1  0  0  0
M  END
>  <CHROM.1>
-167.93261358,-77.96147896,-105.30778227,-108.41015324,138.16967466,159.93047152
-8.65391738,14.42725229,1.96221817,0.17969018,0.65630012,2.48184572

>  <Name>
ligand

>  <RI>
0

>  <Rbt.Current_Directory>
/home/itssahil/PROJECTS/Mol_Feturizer/New_Systems/rnas/4GPX

>  <Rbt.Executable>
rbdock ($Id: //depot/dev/client3/rdock/2013.1/src/exe/rbdock.cxx#4 $)

>  <Rbt.Library>
libRbt.so (2013.1, Build901 2013/11/27)

>  <Rbt.Parameter_File>
/export/apps/rDock/src/rDock_2013.1_src/data/scripts/dock_solv.prm

>  <Rbt.Receptor>
prm/blind_docking_60.prm

>  <SCORE>
-0.774972

>  <SCORE.INTER>
-9.40695

>  <SCORE.INTER.CONST>
1

>  <SCORE.INTER.POLAR>
0

>  <SCORE.INTER.ROT>
6

>  <SCORE.INTER.SOLV>
28.104

>  <SCORE.INTER.VDW>
-23.2393

>  <SCORE.INTER.norm>
-0.30345

>  <SCORE.INTRA>
-1.28523

>  <SCORE.INTRA.DIHEDRAL>
-7.02481

>  <SCORE.INTRA.DIHEDRAL.0>
20.6841

>  <SCORE.INTRA.POLAR>
0

>  <SCORE.INTRA.POLAR.0>
0

>  <SCORE.INTRA.REPUL>
0

>  <SCORE.INTRA.REPUL.0>
0

>  <SCORE.INTRA.SOLV>
3.28378

>  <SCORE.INTRA.SOLV.lig_0>
-64.6797

>  <SCORE.INTRA.VDW>
0.585287

>  <SCORE.INTRA.VDW.0>
-4.11825

>  <SCORE.INTRA.norm>
-0.0414589

>  <SCORE.RESTR>
9.9172

>  <SCORE.RESTR.CAVITY>
9.9172

>  <SCORE.RESTR.norm>
0.31991

>  <SCORE.SYSTEM>
0

>  <SCORE.SYSTEM.CONST>
0

>  <SCORE.SYSTEM.DIHEDRAL>
0

>  <SCORE.SYSTEM.SOLV>
0

>  <SCORE.SYSTEM.norm>
0

>  <SCORE.heavy>
31

>  <SCORE.norm>
-0.0249991

>  <RMSD>
11.836

$$$$
ligand
 OpenBabel11021811493D
libRbt.so/2013.1/901 2013/11/27
 31 33  0  0  0  0  0  0  0  0999 V2000
    0.4839    3.8083    0.4772 C   0  0  2  0  0  0  0  0  0  0  0  0
    1.1449    3.9546    1.7306 O   0  0  0  0  0  0  0  0  0  0  0  0
    0.2112    7.9567    2.8239 C   0  0  2  0  0  0  0  0  0  0  0  0
    0.1287    9.1539    3.6029 N   0  0  0  0  0  0  0  0  0  0  0  0
    3.6328    8.4255    1.2104 C   0  0  2  0  0  0  0  0  0  0  0  0
    0.4995    2.2623    0.1374 C   0  0  2  0  0  0  0  0  0  0  0  0
   -0.1877    1.5409    1.2035 N   0  0  0  0  0  0  0  0  0  0  0  0
   -0.5059    6.7913    3.6222 C   0  0  0  0  0  0  0  0  0  0  0  0
    4.1505    9.8673    0.9074 C   0  0  2  0  0  0  0  0  0  0  0  0
    4.2622   10.5657    2.1290 O   0  0  0  0  0  0  0  0  0  0  0  0
    1.9861    1.7475   -0.0165 C   0  0  0  0  0  0  0  0  0  0  0  0
   -0.4147    5.4711    2.7687 C   0  0  2  0  0  0  0  0  0  0  0  0
   -1.0752    4.3822    3.5087 N   0  0  0  0  0  0  0  0  0  0  0  0
    3.0945   10.5532   -0.0404 C   0  0  1  0  0  0  0  0  0  0  0  0
    3.5291   11.9549   -0.3524 N   0  0  0  0  0  0  0  0  0  0  0  0
    2.9236    2.8147   -0.7250 C   0  0  0  0  0  0  0  0  0  0  0  0
    1.1121    5.1075    2.4996 C   0  0  2  0  0  0  0  0  0  0  0  0
    3.0227    9.6893   -1.4213 C   0  0  1  0  0  0  0  0  0  0  0  0
    4.2802    9.6065   -2.0703 O   0  0  0  0  0  0  0  0  0  0  0  0
    2.4937    4.0841   -0.9523 C   0  0  2  0  0  0  0  0  0  0  0  0
    1.1873    4.5329   -0.5736 O   0  0  0  0  0  0  0  0  0  0  0  0
    1.8017    6.2845    1.7153 C   0  0  2  0  0  0  0  0  0  0  0  0
    3.1873    5.9508    1.4845 O   0  0  0  0  0  0  0  0  0  0  0  0
    2.5722    8.2251   -1.1095 C   0  0  0  0  0  0  0  0  0  0  0  0
    3.4920    7.6321   -0.0751 O   0  0  0  0  0  0  0  0  0  0  0  0
    3.3585    5.1465   -1.6333 C   0  0  0  0  0  0  0  0  0  0  0  0
    2.9831    5.2044   -3.0297 O   0  0  0  0  0  0  0  0  0  0  0  0
    1.7206    7.5881    2.5925 C   0  0  1  0  0  0  0  0  0  0  0  0
    2.3529    8.6160    1.8966 O   0  0  0  0  0  0  0  0  0  0  0  0
    2.0260   10.2269   -2.4764 C   0  0  0  0  0  0  0  0  0  0  0  0
    3.2843   12.9718    0.6908 C   0  0  0  0  0  0  0  0  0  0  0  0
  1  2  1  1  0  0  0
  1  6  1  0  0  0  0
  1 21  1  0  0  0  0
  3  4  1  1  0  0  0
  3  8  1  0  0  0  0
  3 28  1  0  0  0  0
  5  9  1  0  0  0  0
  5 25  1  0  0  0  0
  5 29  1  6  0  0  0
  6  7  1  1  0  0  0
  6 11  1  0  0  0  0
  8 12  1  0  0  0  0
  9 10  1  1  0  0  0
  9 14  1  0  0  0  0
 11 16  1  0  0  0  0
 12 13  1  1  0  0  0
 12 17  1  0  0  0  0
 14 15  1  6  0  0  0
 14 18  1  0  0  0  0
 15 31  1  0  0  0  0
 16 20  1  0  0  0  0
 17  2  1  6  0  0  0
 17 22  1  0  0  0  0
 18 19  1  6  0  0  0
 18 24  1  0  0  0  0
 18 30  1  0  0  0  0
 20 21  1  0  0  0  0
 20 26  1  6  0  0  0
 22 23  1  1  0  0  0
 22 28  1  0  0  0  0
 24 25  1  0  0  0  0
 26 27  1  0  0  0  0
 28 29  1  6  0  0  0
M  END
>  <CHROM.1>
-166.74075943,-165.35669989,-78.66203636,55.55829892,98.05603478,-162.56905017
2.06042916,6.86603254,0.63148640,-2.18401366,0.99863822,0.43042150

>  <Name>
ligand

>  <RI>
0

>  <Rbt.Current_Directory>
/home/itssahil/PROJECTS/Mol_Feturizer/New_Systems/rnas/4GPX

>  <Rbt.Executable>
rbdock ($Id: //depot/dev/client3/rdock/2013.1/src/exe/rbdock.cxx#4 $)

>  <Rbt.Library>
libRbt.so (2013.1, Build901 2013/11/27)

>  <Rbt.Parameter_File>
/export/apps/rDock/src/rDock_2013.1_src/data/scripts/dock_solv.prm

>  <Rbt.Receptor>
prm/blind_docking_40.prm

>  <SCORE>
19.6429

>  <SCORE.INTER>
15.2195

>  <SCORE.INTER.CONST>
1

>  <SCORE.INTER.POLAR>
0

>  <SCORE.INTER.ROT>
6

>  <SCORE.INTER.SOLV>
28.7464

>  <SCORE.INTER.VDW>
-7.03579

>  <SCORE.INTER.norm>
0.490952

>  <SCORE.INTRA>
-2.6597

>  <SCORE.INTRA.DIHEDRAL>
-14.8245

>  <SCORE.INTRA.DIHEDRAL.0>
20.6841

>  <SCORE.INTRA.POLAR>
0

>  <SCORE.INTRA.POLAR.0>
0

>  <SCORE.INTRA.REPUL>
0

>  <SCORE.INTRA.REPUL.0>
0

>  <SCORE.INTRA.SOLV>
-0.697349

>  <SCORE.INTRA.SOLV.lig_0>
-64.6797

>  <SCORE.INTRA.VDW>
5.10122

>  <SCORE.INTRA.VDW.0>
-4.11825

>  <SCORE.INTRA.norm>
-0.0857967

>  <SCORE.RESTR>
7.08306

>  <SCORE.RESTR.CAVITY>
7.08306

>  <SCORE.RESTR.norm>
0.228486

>  <SCORE.SYSTEM>
0

>  <SCORE.SYSTEM.CONST>
0

>  <SCORE.SYSTEM.DIHEDRAL>
0

>  <SCORE.SYSTEM.SOLV>
0

>  <SCORE.SYSTEM.norm>
0

>  <SCORE.heavy>
31

>  <SCORE.norm>
0.633641

>  <RMSD>
11.878

$$$$
ligand
 OpenBabel11021811493D
libRbt.so/2013.1/901 2013/11/27
 31 33  0  0  0  0  0  0  0  0999 V2000
  -10.0851   19.5757    0.2480 C   0  0  2  0  0  0  0  0  0  0  0  0
   -8.9303   18.7421    0.2766 O   0  0  0  0  0  0  0  0  0  0  0  0
  -10.4843   14.9286   -0.7845 C   0  0  2  0  0  0  0  0  0  0  0  0
  -10.5342   13.5252   -1.0585 N   0  0  0  0  0  0  0  0  0  0  0  0
  -10.7924   14.5899    3.0218 C   0  0  2  0  0  0  0  0  0  0  0  0
   -9.5654   21.0685    0.3335 C   0  0  2  0  0  0  0  0  0  0  0  0
   -8.6813   21.3229   -0.7992 N   0  0  0  0  0  0  0  0  0  0  0  0
   -9.4323   15.5917   -1.7662 C   0  0  0  0  0  0  0  0  0  0  0  0
  -10.3595   13.1401    3.4080 C   0  0  2  0  0  0  0  0  0  0  0  0
   -9.1716   12.8300    2.7114 O   0  0  0  0  0  0  0  0  0  0  0  0
   -8.8065   21.3098    1.6990 C   0  0  0  0  0  0  0  0  0  0  0  0
   -9.3728   17.1362   -1.4656 C   0  0  2  0  0  0  0  0  0  0  0  0
   -8.3920   17.7576   -2.3719 N   0  0  0  0  0  0  0  0  0  0  0  0
  -11.5308   12.1745    2.9844 C   0  0  1  0  0  0  0  0  0  0  0  0
  -11.1633   10.7576    3.3138 N   0  0  0  0  0  0  0  0  0  0  0  0
   -9.4871   20.5430    2.9109 C   0  0  0  0  0  0  0  0  0  0  0  0
   -8.9500   17.3745    0.0510 C   0  0  2  0  0  0  0  0  0  0  0  0
  -12.8609   12.5979    3.8268 C   0  0  1  0  0  0  0  0  0  0  0  0
  -12.6549   12.5304    5.2277 O   0  0  0  0  0  0  0  0  0  0  0  0
  -10.4723   19.6309    2.6986 C   0  0  2  0  0  0  0  0  0  0  0  0
  -10.9524   19.3084    1.3883 O   0  0  0  0  0  0  0  0  0  0  0  0
  -10.0050   16.6981    1.0026 C   0  0  2  0  0  0  0  0  0  0  0  0
   -9.6086   16.9103    2.3746 O   0  0  0  0  0  0  0  0  0  0  0  0
  -13.2538   14.0739    3.4935 C   0  0  0  0  0  0  0  0  0  0  0  0
  -12.0708   14.9714    3.7443 O   0  0  0  0  0  0  0  0  0  0  0  0
  -11.1599   18.8690    3.8332 C   0  0  0  0  0  0  0  0  0  0  0  0
  -12.5893   19.0450    3.6913 O   0  0  0  0  0  0  0  0  0  0  0  0
  -10.0339   15.1537    0.7034 C   0  0  1  0  0  0  0  0  0  0  0  0
  -10.9552   14.5646    1.5664 O   0  0  0  0  0  0  0  0  0  0  0  0
  -14.1186   11.7449    3.5330 C   0  0  0  0  0  0  0  0  0  0  0  0
  -11.4859    9.7362    2.2965 C   0  0  0  0  0  0  0  0  0  0  0  0
  1  2  1  1  0  0  0
  1  6  1  0  0  0  0
  1 21  1  0  0  0  0
  3  4  1  6  0  0  0
  3  8  1  0  0  0  0
  3 28  1  0  0  0  0
  5  9  1  0  0  0  0
  5 25  1  0  0  0  0
  5 29  1  6  0  0  0
  6  7  1  6  0  0  0
  6 11  1  0  0  0  0
  8 12  1  0  0  0  0
  9 10  1  6  0  0  0
  9 14  1  0  0  0  0
 11 16  1  0  0  0  0
 12 13  1  6  0  0  0
 12 17  1  0  0  0  0
 14 15  1  1  0  0  0
 14 18  1  0  0  0  0
 15 31  1  0  0  0  0
 16 20  1  0  0  0  0
 17  2  1  1  0  0  0
 17 22  1  0  0  0  0
 18 19  1  1  0  0  0
 18 24  1  0  0  0  0
 18 30  1  0  0  0  0
 20 21  1  0  0  0  0
 20 26  1  1  0  0  0
 22 23  1  1  0  0  0
 22 28  1  0  0  0  0
 24 25  1  0  0  0  0
 26 27  1  0  0  0  0
 28 29  1  1  0  0  0
M  END
>  <CHROM.1>
-171.41677353,-105.88081103,-137.44064094,66.07055537,127.05345492,178.97751631
-10.60039195,16.05331788,1.72482118,0.93879885,1.06398122,0.24235228

>  <Name>
ligand

>  <RI>
0

>  <Rbt.Current_Directory>
/home/itssahil/PROJECTS/Mol_Feturizer/New_Systems/rnas/4GPX

>  <Rbt.Executable>
rbdock ($Id: //depot/dev/client3/rdock/2013.1/src/exe/rbdock.cxx#4 $)

>  <Rbt.Library>
libRbt.so (2013.1, Build901 2013/11/27)

>  <Rbt.Parameter_File>
/export/apps/rDock/src/rDock_2013.1_src/data/scripts/dock_solv.prm

>  <Rbt.Receptor>
prm/blind_docking_100.prm

>  <SCORE>
3.59941

>  <SCORE.INTER>
1.47851

>  <SCORE.INTER.CONST>
1

>  <SCORE.INTER.POLAR>
0

>  <SCORE.INTER.ROT>
6

>  <SCORE.INTER.SOLV>
18.3629

>  <SCORE.INTER.VDW>
-12.7353

>  <SCORE.INTER.norm>
0.0476938

>  <SCORE.INTRA>
-4.53312

>  <SCORE.INTRA.DIHEDRAL>
-11.1573

>  <SCORE.INTRA.DIHEDRAL.0>
20.6841

>  <SCORE.INTRA.POLAR>
0

>  <SCORE.INTRA.POLAR.0>
0

>  <SCORE.INTRA.REPUL>
0

>  <SCORE.INTRA.REPUL.0>
0

>  <SCORE.INTRA.SOLV>
-1.17964

>  <SCORE.INTRA.SOLV.lig_0>
-64.6797

>  <SCORE.INTRA.VDW>
1.63535

>  <SCORE.INTRA.VDW.0>
-4.11825

>  <SCORE.INTRA.norm>
-0.14623

>  <SCORE.RESTR>
6.65402

>  <SCORE.RESTR.CAVITY>
6.65402

>  <SCORE.RESTR.norm>
0.214646

>  <SCORE.SYSTEM>
0

>  <SCORE.SYSTEM.CONST>
0

>  <SCORE.SYSTEM.DIHEDRAL>
0

>  <SCORE.SYSTEM.SOLV>
0

>  <SCORE.SYSTEM.norm>
0

>  <SCORE.heavy>
31

>  <SCORE.norm>
0.11611

>  <RMSD>
11.978

$$$$
ligand
 OpenBabel11021811493D
libRbt.so/2013.1/901 2013/11/27
 31 33  0  0  0  0  0  0  0  0999 V2000
    2.6639    8.8259    3.3340 C   0  0  2  0  0  0  0  0  0  0  0  0
    3.5173    8.2216    4.3014 O   0  0  0  0  0  0  0  0  0  0  0  0
    6.2115    5.9579    1.9137 C   0  0  2  0  0  0  0  0  0  0  0  0
    7.2738    5.0665    1.5619 N   0  0  0  0  0  0  0  0  0  0  0  0
    4.4019    4.2607    0.5364 C   0  0  2  0  0  0  0  0  0  0  0  0
    1.9477   10.0372    4.0591 C   0  0  2  0  0  0  0  0  0  0  0  0
    2.9666   10.9636    4.5417 N   0  0  0  0  0  0  0  0  0  0  0  0
    6.8150    7.1333    2.7878 C   0  0  0  0  0  0  0  0  0  0  0  0
    2.8674    4.4911    0.3602 C   0  0  2  0  0  0  0  0  0  0  0  0
    2.5062    5.6504    1.0801 O   0  0  0  0  0  0  0  0  0  0  0  0
    1.0575    9.5137    5.2559 C   0  0  0  0  0  0  0  0  0  0  0  0
    5.6478    8.1152    3.1792 C   0  0  2  0  0  0  0  0  0  0  0  0
    6.2022    9.2077    3.9970 N   0  0  0  0  0  0  0  0  0  0  0  0
    2.1352    3.2191    0.9341 C   0  0  1  0  0  0  0  0  0  0  0  0
    0.6498    3.3907    0.8102 N   0  0  0  0  0  0  0  0  0  0  0  0
    0.3380    8.1401    4.9165 C   0  0  0  0  0  0  0  0  0  0  0  0
    4.5314    7.3270    3.9964 C   0  0  2  0  0  0  0  0  0  0  0  0
    2.6056    1.9289    0.0552 C   0  0  1  0  0  0  0  0  0  0  0  0
    2.3122    2.0809   -1.3233 O   0  0  0  0  0  0  0  0  0  0  0  0
    0.6597    7.4379    3.7979 C   0  0  2  0  0  0  0  0  0  0  0  0
    1.6525    7.8859    2.8678 O   0  0  0  0  0  0  0  0  0  0  0  0
    3.9569    6.1609    3.1098 C   0  0  2  0  0  0  0  0  0  0  0  0
    2.9530    5.4457    3.8617 O   0  0  0  0  0  0  0  0  0  0  0  0
    4.1528    1.7399    0.1748 C   0  0  0  0  0  0  0  0  0  0  0  0
    4.8415    3.0202   -0.2184 O   0  0  0  0  0  0  0  0  0  0  0  0
   -0.0070    6.1119    3.4269 C   0  0  0  0  0  0  0  0  0  0  0  0
   -1.3785    6.3866    3.0557 O   0  0  0  0  0  0  0  0  0  0  0  0
    5.1320    5.1792    2.7480 C   0  0  1  0  0  0  0  0  0  0  0  0
    4.6063    4.1413    1.9818 O   0  0  0  0  0  0  0  0  0  0  0  0
    1.9767    0.5817    0.4854 C   0  0  0  0  0  0  0  0  0  0  0  0
    0.1239    3.6485   -0.5460 C   0  0  0  0  0  0  0  0  0  0  0  0
  1  2  1  1  0  0  0
  1  6  1  0  0  0  0
  1 21  1  0  0  0  0
  3  4  1  1  0  0  0
  3  8  1  0  0  0  0
  3 28  1  0  0  0  0
  5  9  1  0  0  0  0
  5 25  1  0  0  0  0
  5 29  1  1  0  0  0
  6  7  1  1  0  0  0
  6 11  1  0  0  0  0
  8 12  1  0  0  0  0
  9 10  1  1  0  0  0
  9 14  1  0  0  0  0
 11 16  1  0  0  0  0
 12 13  1  1  0  0  0
 12 17  1  0  0  0  0
 14 15  1  6  0  0  0
 14 18  1  0  0  0  0
 15 31  1  0  0  0  0
 16 20  1  0  0  0  0
 17  2  1  6  0  0  0
 17 22  1  0  0  0  0
 18 19  1  6  0  0  0
 18 24  1  0  0  0  0
 18 30  1  0  0  0  0
 20 21  1  0  0  0  0
 20 26  1  6  0  0  0
 22 23  1  1  0  0  0
 22 28  1  0  0  0  0
 24 25  1  0  0  0  0
 26 27  1  0  0  0  0
 28 29  1  6  0  0  0
M  END
>  <CHROM.1>
-164.96986055,-103.00646750,56.77415082,66.73451464,69.42672554,-35.40955503
3.03687288,5.81500185,2.27265355,1.58655818,0.04905245,0.57382775

>  <Name>
ligand

>  <RI>
0

>  <Rbt.Current_Directory>
/home/itssahil/PROJECTS/Mol_Feturizer/New_Systems/rnas/4GPX

>  <Rbt.Executable>
rbdock ($Id: //depot/dev/client3/rdock/2013.1/src/exe/rbdock.cxx#4 $)

>  <Rbt.Library>
libRbt.so (2013.1, Build901 2013/11/27)

>  <Rbt.Parameter_File>
/export/apps/rDock/src/rDock_2013.1_src/data/scripts/dock_solv.prm

>  <Rbt.Receptor>
prm/blind_docking_80.prm

>  <SCORE>
37.6612

>  <SCORE.INTER>
23.7813

>  <SCORE.INTER.CONST>
1

>  <SCORE.INTER.POLAR>
0

>  <SCORE.INTER.ROT>
6

>  <SCORE.INTER.SOLV>
14.5918

>  <SCORE.INTER.VDW>
3.39025

>  <SCORE.INTER.norm>
0.767138

>  <SCORE.INTRA>
5.02817

>  <SCORE.INTRA.DIHEDRAL>
-7.43948

>  <SCORE.INTRA.DIHEDRAL.0>
20.6841

>  <SCORE.INTRA.POLAR>
0

>  <SCORE.INTRA.POLAR.0>
0

>  <SCORE.INTRA.REPUL>
0.801733

>  <SCORE.INTRA.REPUL.0>
0

>  <SCORE.INTRA.SOLV>
1.18761

>  <SCORE.INTRA.SOLV.lig_0>
-64.6797

>  <SCORE.INTRA.VDW>
4.14544

>  <SCORE.INTRA.VDW.0>
-4.11825

>  <SCORE.INTRA.norm>
0.162199

>  <SCORE.RESTR>
8.85174

>  <SCORE.RESTR.CAVITY>
8.85174

>  <SCORE.RESTR.norm>
0.28554

>  <SCORE.SYSTEM>
0

>  <SCORE.SYSTEM.CONST>
0

>  <SCORE.SYSTEM.DIHEDRAL>
0

>  <SCORE.SYSTEM.SOLV>
0

>  <SCORE.SYSTEM.norm>
0

>  <SCORE.heavy>
31

>  <SCORE.norm>
1.21488

>  <RMSD>
11.980

$$$$
ligand
 OpenBabel11021811493D
libRbt.so/2013.1/901 2013/11/27
 31 33  0  0  0  0  0  0  0  0999 V2000
    1.8125    8.8621    3.6704 C   0  0  2  0  0  0  0  0  0  0  0  0
    2.2600    7.6988    4.3601 O   0  0  0  0  0  0  0  0  0  0  0  0
    5.4385    6.3002    1.9055 C   0  0  2  0  0  0  0  0  0  0  0  0
    6.4986    5.4708    1.4205 N   0  0  0  0  0  0  0  0  0  0  0  0
    4.5120    3.9973   -0.0588 C   0  0  2  0  0  0  0  0  0  0  0  0
    1.3532    9.8944    4.7792 C   0  0  2  0  0  0  0  0  0  0  0  0
    2.4870   10.1806    5.6520 N   0  0  0  0  0  0  0  0  0  0  0  0
    5.7955    6.7551    3.3804 C   0  0  0  0  0  0  0  0  0  0  0  0
    3.7579    3.7873   -1.4101 C   0  0  2  0  0  0  0  0  0  0  0  0
    3.7673    5.0079   -2.1191 O   0  0  0  0  0  0  0  0  0  0  0  0
    0.1433    9.3076    5.6102 C   0  0  0  0  0  0  0  0  0  0  0  0
    4.6294    7.6662    3.9185 C   0  0  2  0  0  0  0  0  0  0  0  0
    4.9532    8.0880    5.2921 N   0  0  0  0  0  0  0  0  0  0  0  0
    2.2851    3.3492   -1.0599 C   0  0  1  0  0  0  0  0  0  0  0  0
    1.5017    3.1505   -2.3239 N   0  0  0  0  0  0  0  0  0  0  0  0
   -0.8646    8.4799    4.7054 C   0  0  0  0  0  0  0  0  0  0  0  0
    3.2591    6.8553    3.8997 C   0  0  2  0  0  0  0  0  0  0  0  0
    2.3606    1.9400   -0.2433 C   0  0  1  0  0  0  0  0  0  0  0  0
    3.0094    0.9217   -0.9860 O   0  0  0  0  0  0  0  0  0  0  0  0
   -0.5562    8.1657    3.4194 C   0  0  2  0  0  0  0  0  0  0  0  0
    0.6787    8.5558    2.8075 O   0  0  0  0  0  0  0  0  0  0  0  0
    2.9341    6.4077    2.4265 C   0  0  2  0  0  0  0  0  0  0  0  0
    1.6960    5.6650    2.4203 O   0  0  0  0  0  0  0  0  0  0  0  0
    3.1762    2.1332    1.0763 C   0  0  0  0  0  0  0  0  0  0  0  0
    4.5271    2.7106    0.7450 O   0  0  0  0  0  0  0  0  0  0  0  0
   -1.4949    7.3729    2.5079 C   0  0  0  0  0  0  0  0  0  0  0  0
   -2.5079    8.2782    2.0092 O   0  0  0  0  0  0  0  0  0  0  0  0
    4.0981    5.4811    1.9148 C   0  0  1  0  0  0  0  0  0  0  0  0
    3.7878    5.0751    0.6188 O   0  0  0  0  0  0  0  0  0  0  0  0
    0.9909    1.3585    0.1830 C   0  0  0  0  0  0  0  0  0  0  0  0
    0.9776    4.3677   -2.9765 C   0  0  0  0  0  0  0  0  0  0  0  0
  1  2  1  1  0  0  0
  1  6  1  0  0  0  0
  1 21  1  0  0  0  0
  3  4  1  1  0  0  0
  3  8  1  0  0  0  0
  3 28  1  0  0  0  0
  5  9  1  0  0  0  0
  5 25  1  0  0  0  0
  5 29  1  1  0  0  0
  6  7  1  1  0  0  0
  6 11  1  0  0  0  0
  8 12  1  0  0  0  0
  9 10  1  1  0  0  0
  9 14  1  0  0  0  0
 11 16  1  0  0  0  0
 12 13  1  1  0  0  0
 12 17  1  0  0  0  0
 14 15  1  6  0  0  0
 14 18  1  0  0  0  0
 15 31  1  0  0  0  0
 16 20  1  0  0  0  0
 17  2  1  6  0  0  0
 17 22  1  0  0  0  0
 18 19  1  6  0  0  0
 18 24  1  0  0  0  0
 18 30  1  0  0  0  0
 20 21  1  0  0  0  0
 20 26  1  6  0  0  0
 22 23  1  1  0  0  0
 22 28  1  0  0  0  0
 24 25  1  0  0  0  0
 26 27  1  0  0  0  0
 28 29  1  6  0  0  0
M  END
>  <CHROM.1>
-148.87035484,174.74976092,-79.93710132,66.62986370,79.41606980,73.88334714
2.45969532,5.88814145,1.82161445,-1.80274552,0.18678588,-2.36828542

>  <Name>
ligand

>  <RI>
0

>  <Rbt.Current_Directory>
/home/itssahil/PROJECTS/Mol_Feturizer/New_Systems/rnas/4GPX

>  <Rbt.Executable>
rbdock ($Id: //depot/dev/client3/rdock/2013.1/src/exe/rbdock.cxx#4 $)

>  <Rbt.Library>
libRbt.so (2013.1, Build901 2013/11/27)

>  <Rbt.Parameter_File>
/export/apps/rDock/src/rDock_2013.1_src/data/scripts/dock_solv.prm

>  <Rbt.Receptor>
prm/blind_docking_80.prm

>  <SCORE>
10.0358

>  <SCORE.INTER>
4.12526

>  <SCORE.INTER.CONST>
1

>  <SCORE.INTER.POLAR>
0

>  <SCORE.INTER.ROT>
6

>  <SCORE.INTER.SOLV>
20.7472

>  <SCORE.INTER.VDW>
-11.7656

>  <SCORE.INTER.norm>
0.133073

>  <SCORE.INTRA>
-4.7488

>  <SCORE.INTRA.DIHEDRAL>
-12.16

>  <SCORE.INTRA.DIHEDRAL.0>
20.6841

>  <SCORE.INTRA.POLAR>
0

>  <SCORE.INTRA.POLAR.0>
0

>  <SCORE.INTRA.REPUL>
0

>  <SCORE.INTRA.REPUL.0>
0

>  <SCORE.INTRA.SOLV>
0.672364

>  <SCORE.INTRA.SOLV.lig_0>
-64.6797

>  <SCORE.INTRA.VDW>
0.995024

>  <SCORE.INTRA.VDW.0>
-4.11825

>  <SCORE.INTRA.norm>
-0.153187

>  <SCORE.RESTR>
10.6593

>  <SCORE.RESTR.CAVITY>
10.6593

>  <SCORE.RESTR.norm>
0.34385

>  <SCORE.SYSTEM>
0

>  <SCORE.SYSTEM.CONST>
0

>  <SCORE.SYSTEM.DIHEDRAL>
0

>  <SCORE.SYSTEM.SOLV>
0

>  <SCORE.SYSTEM.norm>
0

>  <SCORE.heavy>
31

>  <SCORE.norm>
0.323736

>  <RMSD>
11.984

$$$$
ligand
 OpenBabel11021811493D
libRbt.so/2013.1/901 2013/11/27
 31 33  0  0  0  0  0  0  0  0999 V2000
    2.9180    9.2872    3.9626 C   0  0  2  0  0  0  0  0  0  0  0  0
    3.8374    8.4421    4.6479 O   0  0  0  0  0  0  0  0  0  0  0  0
    5.3187    5.9494    1.5372 C   0  0  2  0  0  0  0  0  0  0  0  0
    6.0883    4.9446    0.8700 N   0  0  0  0  0  0  0  0  0  0  0  0
    2.9081    4.5805    0.8402 C   0  0  2  0  0  0  0  0  0  0  0  0
    2.2472   10.2080    5.0618 C   0  0  2  0  0  0  0  0  0  0  0  0
    3.2924   10.9721    5.7350 N   0  0  0  0  0  0  0  0  0  0  0  0
    6.3169    7.0035    2.1715 C   0  0  0  0  0  0  0  0  0  0  0  0
    1.6638    3.6374    0.8678 C   0  0  2  0  0  0  0  0  0  0  0  0
    0.8806    3.9671    1.9950 O   0  0  0  0  0  0  0  0  0  0  0  0
    1.4422    9.3287    6.0999 C   0  0  0  0  0  0  0  0  0  0  0  0
    5.4733    8.1097    2.9091 C   0  0  2  0  0  0  0  0  0  0  0  0
    6.3966    9.0901    3.5059 N   0  0  0  0  0  0  0  0  0  0  0  0
    2.2004    2.1588    0.9661 C   0  0  1  0  0  0  0  0  0  0  0  0
    1.0451    1.2030    1.0164 N   0  0  0  0  0  0  0  0  0  0  0  0
    0.7074    8.1025    5.4098 C   0  0  0  0  0  0  0  0  0  0  0  0
    4.5759    7.4385    4.0404 C   0  0  2  0  0  0  0  0  0  0  0  0
    3.0931    1.8586   -0.3648 C   0  0  1  0  0  0  0  0  0  0  0  0
    2.3512    2.0303   -1.5605 O   0  0  0  0  0  0  0  0  0  0  0  0
    0.9557    7.7756    4.1140 C   0  0  2  0  0  0  0  0  0  0  0  0
    1.8814    8.5056    3.3005 O   0  0  0  0  0  0  0  0  0  0  0  0
    3.6022    6.3903    3.3850 C   0  0  2  0  0  0  0  0  0  0  0  0
    2.7998    5.7798    4.4184 O   0  0  0  0  0  0  0  0  0  0  0  0
    4.3003    2.8497   -0.4299 C   0  0  0  0  0  0  0  0  0  0  0  0
    3.7868    4.2634   -0.3553 O   0  0  0  0  0  0  0  0  0  0  0  0
    0.2712    6.6055    3.4047 C   0  0  0  0  0  0  0  0  0  0  0  0
   -1.0081    7.0664    2.9093 O   0  0  0  0  0  0  0  0  0  0  0  0
    4.4627    5.2822    2.6729 C   0  0  1  0  0  0  0  0  0  0  0  0
    3.5898    4.3503    2.1159 O   0  0  0  0  0  0  0  0  0  0  0  0
    3.7032    0.4378   -0.4346 C   0  0  0  0  0  0  0  0  0  0  0  0
   -0.0231    1.4020    0.0156 C   0  0  0  0  0  0  0  0  0  0  0  0
  1  2  1  1  0  0  0
  1  6  1  0  0  0  0
  1 21  1  0  0  0  0
  3  4  1  1  0  0  0
  3  8  1  0  0  0  0
  3 28  1  0  0  0  0
  5  9  1  0  0  0  0
  5 25  1  0  0  0  0
  5 29  1  1  0  0  0
  6  7  1  1  0  0  0
  6 11  1  0  0  0  0
  8 12  1  0  0  0  0
  9 10  1  1  0  0  0
  9 14  1  0  0  0  0
 11 16  1  0  0  0  0
 12 13  1  1  0  0  0
 12 17  1  0  0  0  0
 14 15  1  6  0  0  0
 14 18  1  0  0  0  0
 15 31  1  0  0  0  0
 16 20  1  0  0  0  0
 17  2  1  6  0  0  0
 17 22  1  0  0  0  0
 18 19  1  6  0  0  0
 18 24  1  0  0  0  0
 18 30  1  0  0  0  0
 20 21  1  0  0  0  0
 20 26  1  6  0  0  0
 22 23  1  1  0  0  0
 22 28  1  0  0  0  0
 24 25  1  0  0  0  0
 26 27  1  0  0  0  0
 28 29  1  6  0  0  0
M  END
>  <CHROM.1>
176.44376083,-158.09235206,47.70874234,59.41574793,84.18828349,-38.49884095
2.89866905,5.74562696,2.39745750,-1.53048574,-0.21706242,-2.53515146

>  <Name>
ligand

>  <RI>
0

>  <Rbt.Current_Directory>
/home/itssahil/PROJECTS/Mol_Feturizer/New_Systems/rnas/4GPX

>  <Rbt.Executable>
rbdock ($Id: //depot/dev/client3/rdock/2013.1/src/exe/rbdock.cxx#4 $)

>  <Rbt.Library>
libRbt.so (2013.1, Build901 2013/11/27)

>  <Rbt.Parameter_File>
/export/apps/rDock/src/rDock_2013.1_src/data/scripts/dock_solv.prm

>  <Rbt.Receptor>
prm/blind_docking_80.prm

>  <SCORE>
29.4002

>  <SCORE.INTER>
23.4073

>  <SCORE.INTER.CONST>
1

>  <SCORE.INTER.POLAR>
0

>  <SCORE.INTER.ROT>
6

>  <SCORE.INTER.SOLV>
18.2649

>  <SCORE.INTER.VDW>
1.91656

>  <SCORE.INTER.norm>
0.755073

>  <SCORE.INTRA>
-2.00616

>  <SCORE.INTRA.DIHEDRAL>
-13.3889

>  <SCORE.INTRA.DIHEDRAL.0>
20.6841

>  <SCORE.INTRA.POLAR>
0

>  <SCORE.INTRA.POLAR.0>
0

>  <SCORE.INTRA.REPUL>
0

>  <SCORE.INTRA.REPUL.0>
0

>  <SCORE.INTRA.SOLV>
0.946725

>  <SCORE.INTRA.SOLV.lig_0>
-64.6797

>  <SCORE.INTRA.VDW>
4.21492

>  <SCORE.INTRA.VDW.0>
-4.11825

>  <SCORE.INTRA.norm>
-0.0647149

>  <SCORE.RESTR>
7.99904

>  <SCORE.RESTR.CAVITY>
7.99904

>  <SCORE.RESTR.norm>
0.258033

>  <SCORE.SYSTEM>
0

>  <SCORE.SYSTEM.CONST>
0

>  <SCORE.SYSTEM.DIHEDRAL>
0

>  <SCORE.SYSTEM.SOLV>
0

>  <SCORE.SYSTEM.norm>
0

>  <SCORE.heavy>
31

>  <SCORE.norm>
0.948392

>  <RMSD>
11.988

$$$$
ligand
 OpenBabel11021811493D
libRbt.so/2013.1/901 2013/11/27
 31 33  0  0  0  0  0  0  0  0999 V2000
    1.8142    8.9158    3.6570 C   0  0  2  0  0  0  0  0  0  0  0  0
    2.2215    7.7296    4.3324 O   0  0  0  0  0  0  0  0  0  0  0  0
    5.3947    6.2948    1.8919 C   0  0  2  0  0  0  0  0  0  0  0  0
    6.4526    5.4574    1.4159 N   0  0  0  0  0  0  0  0  0  0  0  0
    4.4688    3.9782   -0.0482 C   0  0  2  0  0  0  0  0  0  0  0  0
    1.3539    9.9361    4.7764 C   0  0  2  0  0  0  0  0  0  0  0  0
    2.4748   10.1799    5.6783 N   0  0  0  0  0  0  0  0  0  0  0  0
    5.7541    6.7665    3.3610 C   0  0  0  0  0  0  0  0  0  0  0  0
    3.7308    3.7721   -1.4089 C   0  0  2  0  0  0  0  0  0  0  0  0
    3.7534    4.9932   -2.1166 O   0  0  0  0  0  0  0  0  0  0  0  0
    0.1140    9.3601    5.5699 C   0  0  0  0  0  0  0  0  0  0  0  0
    4.5904    7.6865    3.8892 C   0  0  2  0  0  0  0  0  0  0  0  0
    4.9164    8.1240    5.2574 N   0  0  0  0  0  0  0  0  0  0  0  0
    2.2522    3.3391   -1.0773 C   0  0  1  0  0  0  0  0  0  0  0  0
    1.4838    3.1443   -2.3511 N   0  0  0  0  0  0  0  0  0  0  0  0
   -0.8921    8.5728    4.6278 C   0  0  0  0  0  0  0  0  0  0  0  0
    3.2183    6.8784    3.8813 C   0  0  2  0  0  0  0  0  0  0  0  0
    2.3124    1.9289   -0.2612 C   0  0  1  0  0  0  0  0  0  0  0  0
    2.9667    0.9089   -0.9967 O   0  0  0  0  0  0  0  0  0  0  0  0
   -0.5631    8.2771    3.3425 C   0  0  2  0  0  0  0  0  0  0  0  0
    0.6928    8.6517    2.7645 O   0  0  0  0  0  0  0  0  0  0  0  0
    2.8911    6.4140    2.4138 C   0  0  2  0  0  0  0  0  0  0  0  0
    1.6514    5.6740    2.4176 O   0  0  0  0  0  0  0  0  0  0  0  0
    3.1124    2.1181    1.0686 C   0  0  0  0  0  0  0  0  0  0  0  0
    4.4693    2.6908    0.7546 O   0  0  0  0  0  0  0  0  0  0  0  0
   -1.4992    7.5234    2.3958 C   0  0  0  0  0  0  0  0  0  0  0  0
   -1.8556    6.2680    3.0214 O   0  0  0  0  0  0  0  0  0  0  0  0
    4.0526    5.4788    1.9121 C   0  0  1  0  0  0  0  0  0  0  0  0
    3.7402    5.0581    0.6214 O   0  0  0  0  0  0  0  0  0  0  0  0
    0.9355    1.3521    0.1476 C   0  0  0  0  0  0  0  0  0  0  0  0
    0.7104    4.3033   -2.8418 C   0  0  0  0  0  0  0  0  0  0  0  0
  1  2  1  1  0  0  0
  1  6  1  0  0  0  0
  1 21  1  0  0  0  0
  3  4  1  1  0  0  0
  3  8  1  0  0  0  0
  3 28  1  0  0  0  0
  5  9  1  0  0  0  0
  5 25  1  0  0  0  0
  5 29  1  1  0  0  0
  6  7  1  1  0  0  0
  6 11  1  0  0  0  0
  8 12  1  0  0  0  0
  9 10  1  1  0  0  0
  9 14  1  0  0  0  0
 11 16  1  0  0  0  0
 12 13  1  1  0  0  0
 12 17  1  0  0  0  0
 14 15  1  6  0  0  0
 14 18  1  0  0  0  0
 15 31  1  0  0  0  0
 16 20  1  0  0  0  0
 17  2  1  6  0  0  0
 17 22  1  0  0  0  0
 18 19  1  6  0  0  0
 18 24  1  0  0  0  0
 18 30  1  0  0  0  0
 20 21  1  0  0  0  0
 20 26  1  6  0  0  0
 22 23  1  1  0  0  0
 22 28  1  0  0  0  0
 24 25  1  0  0  0  0
 26 27  1  0  0  0  0
 28 29  1  6  0  0  0
M  END
>  <CHROM.1>
-148.37633229,175.99331952,-93.70908185,63.89625290,-55.76675575,73.35849178
2.44430482,5.83071317,1.84416317,1.76634582,-0.10152032,0.75917471

>  <Name>
ligand

>  <RI>
0

>  <Rbt.Current_Directory>
/home/itssahil/PROJECTS/Mol_Feturizer/New_Systems/rnas/4GPX

>  <Rbt.Executable>
rbdock ($Id: //depot/dev/client3/rdock/2013.1/src/exe/rbdock.cxx#4 $)

>  <Rbt.Library>
libRbt.so (2013.1, Build901 2013/11/27)

>  <Rbt.Parameter_File>
/export/apps/rDock/src/rDock_2013.1_src/data/scripts/dock_solv.prm

>  <Rbt.Receptor>
prm/blind_docking_80.prm

>  <SCORE>
7.68423

>  <SCORE.INTER>
2.24869

>  <SCORE.INTER.CONST>
1

>  <SCORE.INTER.POLAR>
0

>  <SCORE.INTER.ROT>
6

>  <SCORE.INTER.SOLV>
19.9294

>  <SCORE.INTER.VDW>
-12.744

>  <SCORE.INTER.norm>
0.0725383

>  <SCORE.INTRA>
-4.65413

>  <SCORE.INTRA.DIHEDRAL>
-11.4811

>  <SCORE.INTRA.DIHEDRAL.0>
20.6841

>  <SCORE.INTRA.POLAR>
0

>  <SCORE.INTRA.POLAR.0>
0

>  <SCORE.INTRA.REPUL>
0

>  <SCORE.INTRA.REPUL.0>
0

>  <SCORE.INTRA.SOLV>
0.863534

>  <SCORE.INTRA.SOLV.lig_0>
-64.6797

>  <SCORE.INTRA.VDW>
0.654632

>  <SCORE.INTRA.VDW.0>
-4.11825

>  <SCORE.INTRA.norm>
-0.150133

>  <SCORE.RESTR>
10.0897

>  <SCORE.RESTR.CAVITY>
10.0897

>  <SCORE.RESTR.norm>
0.325474

>  <SCORE.SYSTEM>
0

>  <SCORE.SYSTEM.CONST>
0

>  <SCORE.SYSTEM.DIHEDRAL>
0

>  <SCORE.SYSTEM.SOLV>
0

>  <SCORE.SYSTEM.norm>
0

>  <SCORE.heavy>
31

>  <SCORE.norm>
0.247879

>  <RMSD>
11.999

$$$$
ligand
 OpenBabel11021811493D
libRbt.so/2013.1/901 2013/11/27
 31 33  0  0  0  0  0  0  0  0999 V2000
    0.7397    7.1987    4.8662 C   0  0  2  0  0  0  0  0  0  0  0  0
    1.9133    7.7401    4.2671 O   0  0  0  0  0  0  0  0  0  0  0  0
    5.3942    6.6268    2.0927 C   0  0  2  0  0  0  0  0  0  0  0  0
    6.5601    5.8948    1.7035 N   0  0  0  0  0  0  0  0  0  0  0  0
    4.8595    4.2688    0.0713 C   0  0  2  0  0  0  0  0  0  0  0  0
   -0.4808    8.0329    4.3002 C   0  0  2  0  0  0  0  0  0  0  0  0
   -0.5022    7.9053    2.8467 N   0  0  0  0  0  0  0  0  0  0  0  0
    5.5872    7.1149    3.5875 C   0  0  0  0  0  0  0  0  0  0  0  0
    4.0874    3.7536   -1.1846 C   0  0  2  0  0  0  0  0  0  0  0  0
    3.8053    4.8580   -2.0173 O   0  0  0  0  0  0  0  0  0  0  0  0
   -0.3549    9.5502    4.7254 C   0  0  0  0  0  0  0  0  0  0  0  0
    4.3043    7.9190    4.0203 C   0  0  2  0  0  0  0  0  0  0  0  0
    4.4756    8.3708    5.4117 N   0  0  0  0  0  0  0  0  0  0  0  0
    2.7585    3.0792   -0.6718 C   0  0  1  0  0  0  0  0  0  0  0  0
    1.9605    2.5798   -1.8400 N   0  0  0  0  0  0  0  0  0  0  0  0
    0.2217    9.7188    6.1947 C   0  0  0  0  0  0  0  0  0  0  0  0
    3.0179    6.9885    3.8976 C   0  0  2  0  0  0  0  0  0  0  0  0
    3.1684    1.8210    0.2806 C   0  0  1  0  0  0  0  0  0  0  0  0
    3.9680    0.8688   -0.4002 O   0  0  0  0  0  0  0  0  0  0  0  0
    0.7313    8.6574    6.8739 C   0  0  2  0  0  0  0  0  0  0  0  0
    0.7794    7.3389    6.3163 O   0  0  0  0  0  0  0  0  0  0  0  0
    2.8559    6.5107    2.4071 C   0  0  2  0  0  0  0  0  0  0  0  0
    1.6937    5.6600    2.3070 O   0  0  0  0  0  0  0  0  0  0  0  0
    4.0023    2.3281    1.5018 C   0  0  0  0  0  0  0  0  0  0  0  0
    5.1846    3.1163    1.0030 O   0  0  0  0  0  0  0  0  0  0  0  0
    1.2956    8.7692    8.2915 C   0  0  0  0  0  0  0  0  0  0  0  0
    0.1925    9.0110    9.1966 O   0  0  0  0  0  0  0  0  0  0  0  0
    4.1359    5.6910    2.0005 C   0  0  1  0  0  0  0  0  0  0  0  0
    3.9703    5.2562    0.6874 O   0  0  0  0  0  0  0  0  0  0  0  0
    1.9741    1.0366    0.8756 C   0  0  0  0  0  0  0  0  0  0  0  0
    0.4997    2.4747   -1.6477 C   0  0  0  0  0  0  0  0  0  0  0  0
  1  2  1  6  0  0  0
  1  6  1  0  0  0  0
  1 21  1  0  0  0  0
  3  4  1  1  0  0  0
  3  8  1  0  0  0  0
  3 28  1  0  0  0  0
  5  9  1  0  0  0  0
  5 25  1  0  0  0  0
  5 29  1  1  0  0  0
  6  7  1  6  0  0  0
  6 11  1  0  0  0  0
  8 12  1  0  0  0  0
  9 10  1  6  0  0  0
  9 14  1  0  0  0  0
 11 16  1  0  0  0  0
 12 13  1  1  0  0  0
 12 17  1  0  0  0  0
 14 15  1  6  0  0  0
 14 18  1  0  0  0  0
 15 31  1  0  0  0  0
 16 20  1  0  0  0  0
 17  2  1  6  0  0  0
 17 22  1  0  0  0  0
 18 19  1  6  0  0  0
 18 24  1  0  0  0  0
 18 30  1  0  0  0  0
 20 21  1  0  0  0  0
 20 26  1  1  0  0  0
 22 23  1  1  0  0  0
 22 28  1  0  0  0  0
 24 25  1  0  0  0  0
 26 27  1  0  0  0  0
 28 29  1  6  0  0  0
M  END
>  <CHROM.1>
-144.42820974,163.06331687,-153.86437700,-150.18600611,69.99753711,72.45145400
2.65568177,5.78773075,2.64295176,1.84801760,0.09669164,0.83892924

>  <Name>
ligand

>  <RI>
0

>  <Rbt.Current_Directory>
/home/itssahil/PROJECTS/Mol_Feturizer/New_Systems/rnas/4GPX

>  <Rbt.Executable>
rbdock ($Id: //depot/dev/client3/rdock/2013.1/src/exe/rbdock.cxx#4 $)

>  <Rbt.Library>
libRbt.so (2013.1, Build901 2013/11/27)

>  <Rbt.Parameter_File>
/export/apps/rDock/src/rDock_2013.1_src/data/scripts/dock_solv.prm

>  <Rbt.Receptor>
prm/blind_docking_80.prm

>  <SCORE>
8.23083

>  <SCORE.INTER>
2.90365

>  <SCORE.INTER.CONST>
1

>  <SCORE.INTER.POLAR>
0

>  <SCORE.INTER.ROT>
6

>  <SCORE.INTER.SOLV>
21.2649

>  <SCORE.INTER.VDW>
-12.7525

>  <SCORE.INTER.norm>
0.0936663

>  <SCORE.INTRA>
-2.21158

>  <SCORE.INTRA.DIHEDRAL>
-6.46598

>  <SCORE.INTRA.DIHEDRAL.0>
20.6841

>  <SCORE.INTRA.POLAR>
0

>  <SCORE.INTRA.POLAR.0>
0

>  <SCORE.INTRA.REPUL>
0

>  <SCORE.INTRA.REPUL.0>
0

>  <SCORE.INTRA.SOLV>
0.269384

>  <SCORE.INTRA.SOLV.lig_0>
-64.6797

>  <SCORE.INTRA.VDW>
0.886723

>  <SCORE.INTRA.VDW.0>
-4.11825

>  <SCORE.INTRA.norm>
-0.0713412

>  <SCORE.RESTR>
7.53875

>  <SCORE.RESTR.CAVITY>
7.53875

>  <SCORE.RESTR.norm>
0.243186

>  <SCORE.SYSTEM>
0

>  <SCORE.SYSTEM.CONST>
0

>  <SCORE.SYSTEM.DIHEDRAL>
0

>  <SCORE.SYSTEM.SOLV>
0

>  <SCORE.SYSTEM.norm>
0

>  <SCORE.heavy>
31

>  <SCORE.norm>
0.265511

>  <RMSD>
12.048

$$$$
ligand
 OpenBabel11021811493D
libRbt.so/2013.1/901 2013/11/27
 31 33  0  0  0  0  0  0  0  0999 V2000
    0.7292    7.1782    4.7785 C   0  0  2  0  0  0  0  0  0  0  0  0
    1.9122    7.7185    4.1973 O   0  0  0  0  0  0  0  0  0  0  0  0
    5.4340    6.6125    2.0859 C   0  0  2  0  0  0  0  0  0  0  0  0
    6.6047    5.8791    1.7137 N   0  0  0  0  0  0  0  0  0  0  0  0
    4.8983    4.2403    0.0434 C   0  0  2  0  0  0  0  0  0  0  0  0
   -0.4813    8.0179    4.1993 C   0  0  2  0  0  0  0  0  0  0  0  0
   -0.4835    7.8957    2.7452 N   0  0  0  0  0  0  0  0  0  0  0  0
    5.5970    7.0831    3.5899 C   0  0  0  0  0  0  0  0  0  0  0  0
    4.1163    3.7194   -1.2040 C   0  0  2  0  0  0  0  0  0  0  0  0
    3.8667    4.8130   -2.0610 O   0  0  0  0  0  0  0  0  0  0  0  0
   -0.3570    9.5332    4.6318 C   0  0  0  0  0  0  0  0  0  0  0  0
    4.3088    7.8885    4.0039 C   0  0  2  0  0  0  0  0  0  0  0  0
    4.4522    8.3241    5.4037 N   0  0  0  0  0  0  0  0  0  0  0  0
    2.7681    3.0924   -0.6816 C   0  0  1  0  0  0  0  0  0  0  0  0
    1.9603    2.5898   -1.8418 N   0  0  0  0  0  0  0  0  0  0  0  0
    0.2003    9.6948    6.1093 C   0  0  0  0  0  0  0  0  0  0  0  0
    3.0211    6.9657    3.8432 C   0  0  2  0  0  0  0  0  0  0  0  0
    3.1409    1.8441    0.2988 C   0  0  1  0  0  0  0  0  0  0  0  0
    3.9164    0.8563   -0.3588 O   0  0  0  0  0  0  0  0  0  0  0  0
    0.6978    8.6295    6.7914 C   0  0  2  0  0  0  0  0  0  0  0  0
    0.7498    7.3130    6.2295 O   0  0  0  0  0  0  0  0  0  0  0  0
    2.8890    6.5051    2.3443 C   0  0  2  0  0  0  0  0  0  0  0  0
    1.7253    5.6612    2.2098 O   0  0  0  0  0  0  0  0  0  0  0  0
    3.9846    2.3545    1.5119 C   0  0  0  0  0  0  0  0  0  0  0  0
    5.1893    3.0996    1.0005 O   0  0  0  0  0  0  0  0  0  0  0  0
    1.2433    8.7345    8.2168 C   0  0  0  0  0  0  0  0  0  0  0  0
    0.1262    8.9522    9.1107 O   0  0  0  0  0  0  0  0  0  0  0  0
    4.1737    5.6838    1.9563 C   0  0  1  0  0  0  0  0  0  0  0  0
    4.0344    5.2643    0.6351 O   0  0  0  0  0  0  0  0  0  0  0  0
    1.9240    1.1052    0.9062 C   0  0  0  0  0  0  0  0  0  0  0  0
    0.4998    2.4965   -1.6409 C   0  0  0  0  0  0  0  0  0  0  0  0
  1  2  1  6  0  0  0
  1  6  1  0  0  0  0
  1 21  1  0  0  0  0
  3  4  1  1  0  0  0
  3  8  1  0  0  0  0
  3 28  1  0  0  0  0
  5  9  1  0  0  0  0
  5 25  1  0  0  0  0
  5 29  1  1  0  0  0
  6  7  1  6  0  0  0
  6 11  1  0  0  0  0
  8 12  1  0  0  0  0
  9 10  1  6  0  0  0
  9 14  1  0  0  0  0
 11 16  1  0  0  0  0
 12 13  1  1  0  0  0
 12 17  1  0  0  0  0
 14 15  1  6  0  0  0
 14 18  1  0  0  0  0
 15 31  1  0  0  0  0
 16 20  1  0  0  0  0
 17  2  1  6  0  0  0
 17 22  1  0  0  0  0
 18 19  1  6  0  0  0
 18 24  1  0  0  0  0
 18 30  1  0  0  0  0
 20 21  1  0  0  0  0
 20 26  1  1  0  0  0
 22 23  1  1  0  0  0
 22 28  1  0  0  0  0
 24 25  1  0  0  0  0
 26 27  1  0  0  0  0
 28 29  1  6  0  0  0
M  END
>  <CHROM.1>
-144.61506274,160.41820609,-155.34042113,-149.46301081,71.00529199,74.95981975
2.65675609,5.77493626,2.60417119,1.85479880,0.09226024,0.83830568

>  <Name>
ligand

>  <RI>
0

>  <Rbt.Current_Directory>
/home/itssahil/PROJECTS/Mol_Feturizer/New_Systems/rnas/4GPX

>  <Rbt.Executable>
rbdock ($Id: //depot/dev/client3/rdock/2013.1/src/exe/rbdock.cxx#4 $)

>  <Rbt.Library>
libRbt.so (2013.1, Build901 2013/11/27)

>  <Rbt.Parameter_File>
/export/apps/rDock/src/rDock_2013.1_src/data/scripts/dock_solv.prm

>  <Rbt.Receptor>
prm/blind_docking_80.prm

>  <SCORE>
8.83569

>  <SCORE.INTER>
3.29603

>  <SCORE.INTER.CONST>
1

>  <SCORE.INTER.POLAR>
0

>  <SCORE.INTER.ROT>
6

>  <SCORE.INTER.SOLV>
21.3892

>  <SCORE.INTER.VDW>
-12.5324

>  <SCORE.INTER.norm>
0.106323

>  <SCORE.INTRA>
-1.85257

>  <SCORE.INTRA.DIHEDRAL>
-5.71766

>  <SCORE.INTRA.DIHEDRAL.0>
20.6841

>  <SCORE.INTRA.POLAR>
0

>  <SCORE.INTRA.POLAR.0>
0

>  <SCORE.INTRA.REPUL>
0

>  <SCORE.INTRA.REPUL.0>
0

>  <SCORE.INTRA.SOLV>
0.274552

>  <SCORE.INTRA.SOLV.lig_0>
-64.6797

>  <SCORE.INTRA.VDW>
0.868991

>  <SCORE.INTRA.VDW.0>
-4.11825

>  <SCORE.INTRA.norm>
-0.0597602

>  <SCORE.RESTR>
7.39223

>  <SCORE.RESTR.CAVITY>
7.39223

>  <SCORE.RESTR.norm>
0.238459

>  <SCORE.SYSTEM>
0

>  <SCORE.SYSTEM.CONST>
0

>  <SCORE.SYSTEM.DIHEDRAL>
0

>  <SCORE.SYSTEM.SOLV>
0

>  <SCORE.SYSTEM.norm>
0

>  <SCORE.heavy>
31

>  <SCORE.norm>
0.285022

>  <RMSD>
12.057

$$$$
ligand
 OpenBabel11021811493D
libRbt.so/2013.1/901 2013/11/27
 31 33  0  0  0  0  0  0  0  0999 V2000
    4.5717    7.2594    1.3337 C   0  0  2  0  0  0  0  0  0  0  0  0
    3.6075    7.2221    2.3816 O   0  0  0  0  0  0  0  0  0  0  0  0
   -0.1085    5.3786    3.3183 C   0  0  2  0  0  0  0  0  0  0  0  0
   -1.4732    4.9660    3.1989 N   0  0  0  0  0  0  0  0  0  0  0  0
    0.2069    2.6246    0.9889 C   0  0  2  0  0  0  0  0  0  0  0  0
    5.6386    8.3553    1.7421 C   0  0  2  0  0  0  0  0  0  0  0  0
    6.2352    7.9762    3.0186 N   0  0  0  0  0  0  0  0  0  0  0  0
   -0.0612    6.9619    3.2889 C   0  0  0  0  0  0  0  0  0  0  0  0
    1.2314    1.4534    0.8576 C   0  0  2  0  0  0  0  0  0  0  0  0
    1.2408    0.7325    2.0712 O   0  0  0  0  0  0  0  0  0  0  0  0
    4.9553    9.7770    1.8457 C   0  0  0  0  0  0  0  0  0  0  0  0
    1.4399    7.4196    3.4174 C   0  0  2  0  0  0  0  0  0  0  0  0
    1.4907    8.8913    3.3851 N   0  0  0  0  0  0  0  0  0  0  0  0
    2.6417    2.0962    0.5719 C   0  0  1  0  0  0  0  0  0  0  0  0
    3.6763    1.0160    0.4549 N   0  0  0  0  0  0  0  0  0  0  0  0
    3.8491    9.9974    0.7287 C   0  0  0  0  0  0  0  0  0  0  0  0
    2.2933    6.8123    2.2180 C   0  0  2  0  0  0  0  0  0  0  0  0
    2.5471    2.9094   -0.8381 C   0  0  1  0  0  0  0  0  0  0  0  0
    2.1639    2.0734   -1.9168 O   0  0  0  0  0  0  0  0  0  0  0  0
    3.4322    8.9697   -0.0574 C   0  0  2  0  0  0  0  0  0  0  0  0
    3.9566    7.6429    0.0694 O   0  0  0  0  0  0  0  0  0  0  0  0
    2.2211    5.2411    2.2651 C   0  0  2  0  0  0  0  0  0  0  0  0
    2.9889    4.6995    1.1689 O   0  0  0  0  0  0  0  0  0  0  0  0
    1.4705    4.0378   -0.7297 C   0  0  0  0  0  0  0  0  0  0  0  0
    0.1614    3.4349   -0.2930 O   0  0  0  0  0  0  0  0  0  0  0  0
    2.3718    9.1330   -1.1480 C   0  0  0  0  0  0  0  0  0  0  0  0
    2.9037    8.5856   -2.3776 O   0  0  0  0  0  0  0  0  0  0  0  0
    0.7178    4.8026    2.1128 C   0  0  1  0  0  0  0  0  0  0  0  0
    0.6705    3.4105    2.1346 O   0  0  0  0  0  0  0  0  0  0  0  0
    3.8560    3.6093   -1.2769 C   0  0  0  0  0  0  0  0  0  0  0  0
    4.2496    0.5084    1.7182 C   0  0  0  0  0  0  0  0  0  0  0  0
  1  2  1  1  0  0  0
  1  6  1  0  0  0  0
  1 21  1  0  0  0  0
  3  4  1  6  0  0  0
  3  8  1  0  0  0  0
  3 28  1  0  0  0  0
  5  9  1  0  0  0  0
  5 25  1  0  0  0  0
  5 29  1  1  0  0  0
  6  7  1  1  0  0  0
  6 11  1  0  0  0  0
  8 12  1  0  0  0  0
  9 10  1  1  0  0  0
  9 14  1  0  0  0  0
 11 16  1  0  0  0  0
 12 13  1  6  0  0  0
 12 17  1  0  0  0  0
 14 15  1  6  0  0  0
 14 18  1  0  0  0  0
 15 31  1  0  0  0  0
 16 20  1  0  0  0  0
 17  2  1  1  0  0  0
 17 22  1  0  0  0  0
 18 19  1  6  0  0  0
 18 24  1  0  0  0  0
 18 30  1  0  0  0  0
 20 21  1  0  0  0  0
 20 26  1  6  0  0  0
 22 23  1  6  0  0  0
 22 28  1  0  0  0  0
 24 25  1  0  0  0  0
 26 27  1  0  0  0  0
 28 29  1  1  0  0  0
M  END
>  <CHROM.1>
154.25799458,135.97126384,-83.22595006,-158.95673537,128.41588279,124.48778313
2.42879889,5.38856269,1.11390601,-1.18888849,-0.71896104,-2.80610781

>  <Name>
ligand

>  <RI>
0

>  <Rbt.Current_Directory>
/home/itssahil/PROJECTS/Mol_Feturizer/New_Systems/rnas/4GPX

>  <Rbt.Executable>
rbdock ($Id: //depot/dev/client3/rdock/2013.1/src/exe/rbdock.cxx#4 $)

>  <Rbt.Library>
libRbt.so (2013.1, Build901 2013/11/27)

>  <Rbt.Parameter_File>
/export/apps/rDock/src/rDock_2013.1_src/data/scripts/dock_solv.prm

>  <Rbt.Receptor>
prm/blind_docking_40.prm

>  <SCORE>
27.8005

>  <SCORE.INTER>
18.094

>  <SCORE.INTER.CONST>
1

>  <SCORE.INTER.POLAR>
0

>  <SCORE.INTER.ROT>
6

>  <SCORE.INTER.SOLV>
23.1524

>  <SCORE.INTER.VDW>
-3.25483

>  <SCORE.INTER.norm>
0.583677

>  <SCORE.INTRA>
3.90824

>  <SCORE.INTRA.DIHEDRAL>
-0.632485

>  <SCORE.INTRA.DIHEDRAL.0>
20.6841

>  <SCORE.INTRA.POLAR>
0

>  <SCORE.INTRA.POLAR.0>
0

>  <SCORE.INTRA.REPUL>
0

>  <SCORE.INTRA.REPUL.0>
0

>  <SCORE.INTRA.SOLV>
-0.410401

>  <SCORE.INTRA.SOLV.lig_0>
-64.6797

>  <SCORE.INTRA.VDW>
4.42968

>  <SCORE.INTRA.VDW.0>
-4.11825

>  <SCORE.INTRA.norm>
0.126072

>  <SCORE.RESTR>
5.7983

>  <SCORE.RESTR.CAVITY>
5.7983

>  <SCORE.RESTR.norm>
0.187042

>  <SCORE.SYSTEM>
0

>  <SCORE.SYSTEM.CONST>
0

>  <SCORE.SYSTEM.DIHEDRAL>
0

>  <SCORE.SYSTEM.SOLV>
0

>  <SCORE.SYSTEM.norm>
0

>  <SCORE.heavy>
31

>  <SCORE.norm>
0.896791

>  <RMSD>
12.062

$$$$
ligand
 OpenBabel11021811493D
libRbt.so/2013.1/901 2013/11/27
 31 33  0  0  0  0  0  0  0  0999 V2000
    3.1222    2.5289    1.0638 C   0  0  2  0  0  0  0  0  0  0  0  0
    4.0196    3.4253    0.4153 O   0  0  0  0  0  0  0  0  0  0  0  0
    5.3855    6.2692    3.2667 C   0  0  2  0  0  0  0  0  0  0  0  0
    5.8173    7.5139    3.8244 N   0  0  0  0  0  0  0  0  0  0  0  0
    1.6616    7.1316    3.5132 C   0  0  2  0  0  0  0  0  0  0  0  0
    3.3373    1.1117    0.3920 C   0  0  2  0  0  0  0  0  0  0  0  0
    4.7297    0.7140    0.5716 N   0  0  0  0  0  0  0  0  0  0  0  0
    6.3684    5.8836    2.0856 C   0  0  0  0  0  0  0  0  0  0  0  0
    1.6445    8.6924    3.4676 C   0  0  2  0  0  0  0  0  0  0  0  0
    2.5159    9.1171    2.4415 O   0  0  0  0  0  0  0  0  0  0  0  0
    2.9668    1.1686   -1.1437 C   0  0  0  0  0  0  0  0  0  0  0  0
    5.8945    4.5151    1.4676 C   0  0  2  0  0  0  0  0  0  0  0  0
    6.8017    4.1540    0.3648 N   0  0  0  0  0  0  0  0  0  0  0  0
    2.1358    9.2062    4.8741 C   0  0  1  0  0  0  0  0  0  0  0  0
    2.1597   10.7064    4.8853 N   0  0  0  0  0  0  0  0  0  0  0  0
    1.7103    2.0964   -1.4269 C   0  0  0  0  0  0  0  0  0  0  0  0
    4.4020    4.6543    0.9301 C   0  0  2  0  0  0  0  0  0  0  0  0
    1.0830    8.6738    5.9996 C   0  0  1  0  0  0  0  0  0  0  0  0
   -0.2400    9.1186    5.7521 O   0  0  0  0  0  0  0  0  0  0  0  0
    1.1923    2.8914   -0.4536 C   0  0  2  0  0  0  0  0  0  0  0  0
    1.7381    2.9417    0.8697 O   0  0  0  0  0  0  0  0  0  0  0  0
    3.4500    5.0469    2.1200 C   0  0  2  0  0  0  0  0  0  0  0  0
    2.1014    5.1807    1.6221 O   0  0  0  0  0  0  0  0  0  0  0  0
    1.0476    7.1109    5.9971 C   0  0  0  0  0  0  0  0  0  0  0  0
    0.7399    6.6233    4.6059 O   0  0  0  0  0  0  0  0  0  0  0  0
   -0.0180    3.8001   -0.6773 C   0  0  0  0  0  0  0  0  0  0  0  0
   -1.1673    2.9613   -0.9411 O   0  0  0  0  0  0  0  0  0  0  0  0
    3.9252    6.4261    2.7093 C   0  0  1  0  0  0  0  0  0  0  0  0
    3.0621    6.7720    3.7467 O   0  0  0  0  0  0  0  0  0  0  0  0
    1.4149    9.0908    7.4527 C   0  0  0  0  0  0  0  0  0  0  0  0
    3.3702   11.3534    4.3392 C   0  0  0  0  0  0  0  0  0  0  0  0
  1  2  1  6  0  0  0
  1  6  1  0  0  0  0
  1 21  1  0  0  0  0
  3  4  1  6  0  0  0
  3  8  1  0  0  0  0
  3 28  1  0  0  0  0
  5  9  1  0  0  0  0
  5 25  1  0  0  0  0
  5 29  1  1  0  0  0
  6  7  1  6  0  0  0
  6 11  1  0  0  0  0
  8 12  1  0  0  0  0
  9 10  1  6  0  0  0
  9 14  1  0  0  0  0
 11 16  1  0  0  0  0
 12 13  1  6  0  0  0
 12 17  1  0  0  0  0
 14 15  1  6  0  0  0
 14 18  1  0  0  0  0
 15 31  1  0  0  0  0
 16 20  1  0  0  0  0
 17  2  1  1  0  0  0
 17 22  1  0  0  0  0
 18 19  1  6  0  0  0
 18 24  1  0  0  0  0
 18 30  1  0  0  0  0
 20 21  1  0  0  0  0
 20 26  1  1  0  0  0
 22 23  1  6  0  0  0
 22 28  1  0  0  0  0
 24 25  1  0  0  0  0
 26 27  1  0  0  0  0
 28 29  1  1  0  0  0
M  END
>  <CHROM.1>
-161.98768178,-96.61083180,-84.34270294,105.43196927,65.08436912,173.11022827
2.73647148,5.72494611,2.39499178,1.46125457,-0.02162716,-2.47867888

>  <Name>
ligand

>  <RI>
0

>  <Rbt.Current_Directory>
/home/itssahil/PROJECTS/Mol_Feturizer/New_Systems/rnas/4GPX

>  <Rbt.Executable>
rbdock ($Id: //depot/dev/client3/rdock/2013.1/src/exe/rbdock.cxx#4 $)

>  <Rbt.Library>
libRbt.so (2013.1, Build901 2013/11/27)

>  <Rbt.Parameter_File>
/export/apps/rDock/src/rDock_2013.1_src/data/scripts/dock_solv.prm

>  <Rbt.Receptor>
prm/blind_docking_80.prm

>  <SCORE>
22.685

>  <SCORE.INTER>
8.39342

>  <SCORE.INTER.CONST>
1

>  <SCORE.INTER.POLAR>
0

>  <SCORE.INTER.ROT>
6

>  <SCORE.INTER.SOLV>
16.3003

>  <SCORE.INTER.VDW>
-7.43783

>  <SCORE.INTER.norm>
0.270755

>  <SCORE.INTRA>
1.25603

>  <SCORE.INTRA.DIHEDRAL>
-3.94412

>  <SCORE.INTRA.DIHEDRAL.0>
20.6841

>  <SCORE.INTRA.POLAR>
0

>  <SCORE.INTRA.POLAR.0>
0

>  <SCORE.INTRA.REPUL>
0

>  <SCORE.INTRA.REPUL.0>
0

>  <SCORE.INTRA.SOLV>
-1.32193

>  <SCORE.INTRA.SOLV.lig_0>
-64.6797

>  <SCORE.INTRA.VDW>
3.88905

>  <SCORE.INTRA.VDW.0>
-4.11825

>  <SCORE.INTRA.norm>
0.0405171

>  <SCORE.RESTR>
13.0356

>  <SCORE.RESTR.CAVITY>
13.0356

>  <SCORE.RESTR.norm>
0.420503

>  <SCORE.SYSTEM>
0

>  <SCORE.SYSTEM.CONST>
0

>  <SCORE.SYSTEM.DIHEDRAL>
0

>  <SCORE.SYSTEM.SOLV>
0

>  <SCORE.SYSTEM.norm>
0

>  <SCORE.heavy>
31

>  <SCORE.norm>
0.731776

>  <RMSD>
12.062

$$$$
ligand
 OpenBabel11021811493D
libRbt.so/2013.1/901 2013/11/27
 31 33  0  0  0  0  0  0  0  0999 V2000
    0.7675    7.1803    4.9069 C   0  0  2  0  0  0  0  0  0  0  0  0
    1.9312    7.7262    4.2929 O   0  0  0  0  0  0  0  0  0  0  0  0
    5.4066    6.6339    2.0990 C   0  0  2  0  0  0  0  0  0  0  0  0
    6.5732    5.9073    1.7016 N   0  0  0  0  0  0  0  0  0  0  0  0
    4.8632    4.2742    0.0728 C   0  0  2  0  0  0  0  0  0  0  0  0
   -0.4732    7.9162    4.2547 C   0  0  2  0  0  0  0  0  0  0  0  0
   -0.4548    7.6800    2.8149 N   0  0  0  0  0  0  0  0  0  0  0  0
    5.6042    7.1156    3.5953 C   0  0  0  0  0  0  0  0  0  0  0  0
    4.0866    3.7685   -1.1841 C   0  0  2  0  0  0  0  0  0  0  0  0
    3.8111    4.8776   -2.0128 O   0  0  0  0  0  0  0  0  0  0  0  0
   -0.4209    9.4650    4.5670 C   0  0  0  0  0  0  0  0  0  0  0  0
    4.3207    7.9136    4.0371 C   0  0  2  0  0  0  0  0  0  0  0  0
    4.4963    8.3595    5.4299 N   0  0  0  0  0  0  0  0  0  0  0  0
    2.7537    3.1013   -0.6723 C   0  0  1  0  0  0  0  0  0  0  0  0
    1.9513    2.6111   -1.8416 N   0  0  0  0  0  0  0  0  0  0  0  0
    0.1132    9.7674    6.0308 C   0  0  0  0  0  0  0  0  0  0  0  0
    3.0366    6.9797    3.9152 C   0  0  2  0  0  0  0  0  0  0  0  0
    3.1561    1.8370    0.2754 C   0  0  1  0  0  0  0  0  0  0  0  0
    3.9487    0.8819   -0.4094 O   0  0  0  0  0  0  0  0  0  0  0  0
    0.6506    8.7826    6.7984 C   0  0  2  0  0  0  0  0  0  0  0  0
    0.7670    7.4297    6.3427 O   0  0  0  0  0  0  0  0  0  0  0  0
    2.8700    6.5084    2.4232 C   0  0  2  0  0  0  0  0  0  0  0  0
    1.7100    5.6546    2.3239 O   0  0  0  0  0  0  0  0  0  0  0  0
    3.9944    2.3345    1.4975 C   0  0  0  0  0  0  0  0  0  0  0  0
    5.1814    3.1165    1.0003 O   0  0  0  0  0  0  0  0  0  0  0  0
    1.1759    9.0240    8.2148 C   0  0  0  0  0  0  0  0  0  0  0  0
    1.5842    7.7498    8.7661 O   0  0  0  0  0  0  0  0  0  0  0  0
    4.1508    5.6946    2.0075 C   0  0  1  0  0  0  0  0  0  0  0  0
    3.9811    5.2654    0.6931 O   0  0  0  0  0  0  0  0  0  0  0  0
    1.9571    1.0586    0.8688 C   0  0  0  0  0  0  0  0  0  0  0  0
    0.4858    2.5590   -1.6638 C   0  0  0  0  0  0  0  0  0  0  0  0
  1  2  1  6  0  0  0
  1  6  1  0  0  0  0
  1 21  1  0  0  0  0
  3  4  1  1  0  0  0
  3  8  1  0  0  0  0
  3 28  1  0  0  0  0
  5  9  1  0  0  0  0
  5 25  1  0  0  0  0
  5 29  1  1  0  0  0
  6  7  1  6  0  0  0
  6 11  1  0  0  0  0
  8 12  1  0  0  0  0
  9 10  1  6  0  0  0
  9 14  1  0  0  0  0
 11 16  1  0  0  0  0
 12 13  1  1  0  0  0
 12 17  1  0  0  0  0
 14 15  1  6  0  0  0
 14 18  1  0  0  0  0
 15 31  1  0  0  0  0
 16 20  1  0  0  0  0
 17  2  1  6  0  0  0
 17 22  1  0  0  0  0
 18 19  1  6  0  0  0
 18 24  1  0  0  0  0
 18 30  1  0  0  0  0
 20 21  1  0  0  0  0
 20 26  1  1  0  0  0
 22 23  1  1  0  0  0
 22 28  1  0  0  0  0
 24 25  1  0  0  0  0
 26 27  1  0  0  0  0
 28 29  1  6  0  0  0
M  END
>  <CHROM.1>
-139.52953645,163.06034243,-151.83597874,-149.50203058,175.99259227,73.04536243
2.69959979,5.75186037,2.61519201,1.82789410,0.05120627,0.85487716

>  <Name>
ligand

>  <RI>
0

>  <Rbt.Current_Directory>
/home/itssahil/PROJECTS/Mol_Feturizer/New_Systems/rnas/4GPX

>  <Rbt.Executable>
rbdock ($Id: //depot/dev/client3/rdock/2013.1/src/exe/rbdock.cxx#4 $)

>  <Rbt.Library>
libRbt.so (2013.1, Build901 2013/11/27)

>  <Rbt.Parameter_File>
/export/apps/rDock/src/rDock_2013.1_src/data/scripts/dock_solv.prm

>  <Rbt.Receptor>
prm/blind_docking_80.prm

>  <SCORE>
10.8493

>  <SCORE.INTER>
5.20667

>  <SCORE.INTER.CONST>
1

>  <SCORE.INTER.POLAR>
0

>  <SCORE.INTER.ROT>
6

>  <SCORE.INTER.SOLV>
21.9022

>  <SCORE.INTER.VDW>
-11.4296

>  <SCORE.INTER.norm>
0.167957

>  <SCORE.INTRA>
-1.48414

>  <SCORE.INTRA.DIHEDRAL>
-5.25851

>  <SCORE.INTRA.DIHEDRAL.0>
20.6841

>  <SCORE.INTRA.POLAR>
0

>  <SCORE.INTRA.POLAR.0>
0

>  <SCORE.INTRA.REPUL>
0

>  <SCORE.INTRA.REPUL.0>
0

>  <SCORE.INTRA.SOLV>
0.451632

>  <SCORE.INTRA.SOLV.lig_0>
-64.6797

>  <SCORE.INTRA.VDW>
0.919296

>  <SCORE.INTRA.VDW.0>
-4.11825

>  <SCORE.INTRA.norm>
-0.0478755

>  <SCORE.RESTR>
7.12674

>  <SCORE.RESTR.CAVITY>
7.12674

>  <SCORE.RESTR.norm>
0.229895

>  <SCORE.SYSTEM>
0

>  <SCORE.SYSTEM.CONST>
0

>  <SCORE.SYSTEM.DIHEDRAL>
0

>  <SCORE.SYSTEM.SOLV>
0

>  <SCORE.SYSTEM.norm>
0

>  <SCORE.heavy>
31

>  <SCORE.norm>
0.349976

>  <RMSD>
12.080

$$$$
ligand
 OpenBabel11021811493D
libRbt.so/2013.1/901 2013/11/27
 31 33  0  0  0  0  0  0  0  0999 V2000
  -10.2112   19.3047    0.5037 C   0  0  2  0  0  0  0  0  0  0  0  0
   -9.0977   18.4179    0.5559 O   0  0  0  0  0  0  0  0  0  0  0  0
  -10.6887   14.7886   -0.9871 C   0  0  2  0  0  0  0  0  0  0  0  0
  -10.7409   13.4599   -1.5153 N   0  0  0  0  0  0  0  0  0  0  0  0
  -10.3337   13.5863    2.6292 C   0  0  2  0  0  0  0  0  0  0  0  0
   -9.6775   20.7250    0.9552 C   0  0  2  0  0  0  0  0  0  0  0  0
   -8.6108   21.1353    0.0480 N   0  0  0  0  0  0  0  0  0  0  0  0
   -9.8127   15.6790   -1.9616 C   0  0  0  0  0  0  0  0  0  0  0  0
  -10.7695   12.0963    2.7987 C   0  0  2  0  0  0  0  0  0  0  0  0
  -10.1836   11.3406    1.7603 O   0  0  0  0  0  0  0  0  0  0  0  0
   -9.1518   20.6673    2.4449 C   0  0  0  0  0  0  0  0  0  0  0  0
   -9.7508   17.1417   -1.3819 C   0  0  2  0  0  0  0  0  0  0  0  0
   -8.9327   17.9733   -2.2812 N   0  0  0  0  0  0  0  0  0  0  0  0
  -12.3424   12.0564    2.7077 C   0  0  1  0  0  0  0  0  0  0  0  0
  -12.8219   10.6413    2.8445 N   0  0  0  0  0  0  0  0  0  0  0  0
  -10.0434   19.7283    3.3631 C   0  0  0  0  0  0  0  0  0  0  0  0
   -9.1138   17.1169    0.0773 C   0  0  2  0  0  0  0  0  0  0  0  0
  -12.9396   12.9506    3.9333 C   0  0  1  0  0  0  0  0  0  0  0  0
  -12.5117   12.4808    5.2005 O   0  0  0  0  0  0  0  0  0  0  0  0
  -11.0008   18.9269    2.8258 C   0  0  2  0  0  0  0  0  0  0  0  0
  -11.2629   18.8794    1.4185 O   0  0  0  0  0  0  0  0  0  0  0  0
   -9.9970   16.2189    1.0205 C   0  0  2  0  0  0  0  0  0  0  0  0
   -9.4069   16.1940    2.3380 O   0  0  0  0  0  0  0  0  0  0  0  0
  -12.4457   14.4281    3.8032 C   0  0  0  0  0  0  0  0  0  0  0  0
  -10.9420   14.4439    3.7231 O   0  0  0  0  0  0  0  0  0  0  0  0
  -11.8863   18.0074    3.6690 C   0  0  0  0  0  0  0  0  0  0  0  0
  -11.7382   18.3896    5.0569 O   0  0  0  0  0  0  0  0  0  0  0  0
  -10.0283   14.7577    0.4378 C   0  0  1  0  0  0  0  0  0  0  0  0
  -10.7949   13.9691    1.2928 O   0  0  0  0  0  0  0  0  0  0  0  0
  -14.4845   13.0212    3.9972 C   0  0  0  0  0  0  0  0  0  0  0  0
  -12.7515    9.7983    1.6335 C   0  0  0  0  0  0  0  0  0  0  0  0
  1  2  1  1  0  0  0
  1  6  1  0  0  0  0
  1 21  1  0  0  0  0
  3  4  1  6  0  0  0
  3  8  1  0  0  0  0
  3 28  1  0  0  0  0
  5  9  1  0  0  0  0
  5 25  1  0  0  0  0
  5 29  1  6  0  0  0
  6  7  1  6  0  0  0
  6 11  1  0  0  0  0
  8 12  1  0  0  0  0
  9 10  1  6  0  0  0
  9 14  1  0  0  0  0
 11 16  1  0  0  0  0
 12 13  1  6  0  0  0
 12 17  1  0  0  0  0
 14 15  1  1  0  0  0
 14 18  1  0  0  0  0
 15 31  1  0  0  0  0
 16 20  1  0  0  0  0
 17  2  1  1  0  0  0
 17 22  1  0  0  0  0
 18 19  1  1  0  0  0
 18 24  1  0  0  0  0
 18 30  1  0  0  0  0
 20 21  1  0  0  0  0
 20 26  1  1  0  0  0
 22 23  1  1  0  0  0
 22 28  1  0  0  0  0
 24 25  1  0  0  0  0
 26 27  1  0  0  0  0
 28 29  1  1  0  0  0
M  END
>  <CHROM.1>
-171.69493686,-139.56942266,-80.62441310,47.82802577,13.34797558,170.68499756
-10.80191728,15.72888928,1.75307069,-0.77724238,-1.11527226,-2.66065744

>  <Name>
ligand

>  <RI>
0

>  <Rbt.Current_Directory>
/home/itssahil/PROJECTS/Mol_Feturizer/New_Systems/rnas/4GPX

>  <Rbt.Executable>
rbdock ($Id: //depot/dev/client3/rdock/2013.1/src/exe/rbdock.cxx#4 $)

>  <Rbt.Library>
libRbt.so (2013.1, Build901 2013/11/27)

>  <Rbt.Parameter_File>
/export/apps/rDock/src/rDock_2013.1_src/data/scripts/dock_solv.prm

>  <Rbt.Receptor>
prm/blind_docking_100.prm

>  <SCORE>
4.88612

>  <SCORE.INTER>
2.78454

>  <SCORE.INTER.CONST>
1

>  <SCORE.INTER.POLAR>
0

>  <SCORE.INTER.ROT>
6

>  <SCORE.INTER.SOLV>
19.1729

>  <SCORE.INTER.VDW>
-12.1346

>  <SCORE.INTER.norm>
0.0898238

>  <SCORE.INTRA>
-4.71546

>  <SCORE.INTRA.DIHEDRAL>
-11.5177

>  <SCORE.INTRA.DIHEDRAL.0>
20.6841

>  <SCORE.INTRA.POLAR>
0

>  <SCORE.INTRA.POLAR.0>
0

>  <SCORE.INTRA.REPUL>
0

>  <SCORE.INTRA.REPUL.0>
0

>  <SCORE.INTRA.SOLV>
-1.11789

>  <SCORE.INTRA.SOLV.lig_0>
-64.6797

>  <SCORE.INTRA.VDW>
1.60236

>  <SCORE.INTRA.VDW.0>
-4.11825

>  <SCORE.INTRA.norm>
-0.152112

>  <SCORE.RESTR>
6.81704

>  <SCORE.RESTR.CAVITY>
6.81704

>  <SCORE.RESTR.norm>
0.219905

>  <SCORE.SYSTEM>
0

>  <SCORE.SYSTEM.CONST>
0

>  <SCORE.SYSTEM.DIHEDRAL>
0

>  <SCORE.SYSTEM.SOLV>
0

>  <SCORE.SYSTEM.norm>
0

>  <SCORE.heavy>
31

>  <SCORE.norm>
0.157617

>  <RMSD>
12.087

$$$$
ligand
 OpenBabel11021811493D
libRbt.so/2013.1/901 2013/11/27
 31 33  0  0  0  0  0  0  0  0999 V2000
    0.7161    7.1395    4.7396 C   0  0  2  0  0  0  0  0  0  0  0  0
    1.9048    7.6977    4.1877 O   0  0  0  0  0  0  0  0  0  0  0  0
    5.4534    6.6385    2.0974 C   0  0  2  0  0  0  0  0  0  0  0  0
    6.6349    5.9196    1.7309 N   0  0  0  0  0  0  0  0  0  0  0  0
    4.9413    4.2483    0.0509 C   0  0  2  0  0  0  0  0  0  0  0  0
   -0.4862    8.0162    4.1995 C   0  0  2  0  0  0  0  0  0  0  0  0
   -0.4860    7.9650    2.7412 N   0  0  0  0  0  0  0  0  0  0  0  0
    5.6006    7.1058    3.6040 C   0  0  0  0  0  0  0  0  0  0  0  0
    4.1671    3.7300   -1.2024 C   0  0  2  0  0  0  0  0  0  0  0  0
    3.9332    4.8233   -2.0642 O   0  0  0  0  0  0  0  0  0  0  0  0
   -0.3507    9.5076    4.7056 C   0  0  0  0  0  0  0  0  0  0  0  0
    4.3006    7.8953    4.0117 C   0  0  2  0  0  0  0  0  0  0  0  0
    4.4293    8.3277    5.4138 N   0  0  0  0  0  0  0  0  0  0  0  0
    2.8097    3.1137   -0.6911 C   0  0  1  0  0  0  0  0  0  0  0  0
    2.0091    2.6142   -1.8575 N   0  0  0  0  0  0  0  0  0  0  0  0
    0.2043    9.5926    6.1903 C   0  0  0  0  0  0  0  0  0  0  0  0
    3.0245    6.9586    3.8388 C   0  0  2  0  0  0  0  0  0  0  0  0
    3.1647    1.8652    0.2955 C   0  0  1  0  0  0  0  0  0  0  0  0
    3.9391    0.8704   -0.3526 O   0  0  0  0  0  0  0  0  0  0  0  0
    0.6917    8.4913    6.8206 C   0  0  2  0  0  0  0  0  0  0  0  0
    0.7344    7.2033    6.1954 O   0  0  0  0  0  0  0  0  0  0  0  0
    2.9081    6.5018    2.3376 C   0  0  2  0  0  0  0  0  0  0  0  0
    1.7549    5.6454    2.1921 O   0  0  0  0  0  0  0  0  0  0  0  0
    4.0007    2.3725    1.5152 C   0  0  0  0  0  0  0  0  0  0  0  0
    5.2153    3.1078    1.0133 O   0  0  0  0  0  0  0  0  0  0  0  0
    1.2346    8.5224    8.2506 C   0  0  0  0  0  0  0  0  0  0  0  0
    1.7291    9.8566    8.5148 O   0  0  0  0  0  0  0  0  0  0  0  0
    4.2046    5.6962    1.9557 C   0  0  1  0  0  0  0  0  0  0  0  0
    4.0792    5.2798    0.6323 O   0  0  0  0  0  0  0  0  0  0  0  0
    1.9370    1.1363    0.8934 C   0  0  0  0  0  0  0  0  0  0  0  0
    0.9883    3.5326   -2.4020 C   0  0  0  0  0  0  0  0  0  0  0  0
  1  2  1  6  0  0  0
  1  6  1  0  0  0  0
  1 21  1  0  0  0  0
  3  4  1  1  0  0  0
  3  8  1  0  0  0  0
  3 28  1  0  0  0  0
  5  9  1  0  0  0  0
  5 25  1  0  0  0  0
  5 29  1  1  0  0  0
  6  7  1  6  0  0  0
  6 11  1  0  0  0  0
  8 12  1  0  0  0  0
  9 10  1  6  0  0  0
  9 14  1  0  0  0  0
 11 16  1  0  0  0  0
 12 13  1  1  0  0  0
 12 17  1  0  0  0  0
 14 15  1  6  0  0  0
 14 18  1  0  0  0  0
 15 31  1  0  0  0  0
 16 20  1  0  0  0  0
 17  2  1  6  0  0  0
 17 22  1  0  0  0  0
 18 19  1  6  0  0  0
 18 24  1  0  0  0  0
 18 30  1  0  0  0  0
 20 21  1  0  0  0  0
 20 26  1  1  0  0  0
 22 23  1  1  0  0  0
 22 28  1  0  0  0  0
 24 25  1  0  0  0  0
 26 27  1  0  0  0  0
 28 29  1  6  0  0  0
M  END
>  <CHROM.1>
-146.75039848,160.06403945,-95.53376278,-150.48007989,-27.27167414,76.21398755
2.74661842,5.83313846,2.56087381,1.83020077,-0.00963391,0.86835866

>  <Name>
ligand

>  <RI>
0

>  <Rbt.Current_Directory>
/home/itssahil/PROJECTS/Mol_Feturizer/New_Systems/rnas/4GPX

>  <Rbt.Executable>
rbdock ($Id: //depot/dev/client3/rdock/2013.1/src/exe/rbdock.cxx#4 $)

>  <Rbt.Library>
libRbt.so (2013.1, Build901 2013/11/27)

>  <Rbt.Parameter_File>
/export/apps/rDock/src/rDock_2013.1_src/data/scripts/dock_solv.prm

>  <Rbt.Receptor>
prm/blind_docking_80.prm

>  <SCORE>
10.4915

>  <SCORE.INTER>
5.55771

>  <SCORE.INTER.CONST>
1

>  <SCORE.INTER.POLAR>
0

>  <SCORE.INTER.ROT>
6

>  <SCORE.INTER.SOLV>
21.1634

>  <SCORE.INTER.VDW>
-10.9493

>  <SCORE.INTER.norm>
0.179281

>  <SCORE.INTRA>
-2.46114

>  <SCORE.INTRA.DIHEDRAL>
-6.67641

>  <SCORE.INTRA.DIHEDRAL.0>
20.6841

>  <SCORE.INTRA.POLAR>
0

>  <SCORE.INTRA.POLAR.0>
0

>  <SCORE.INTRA.REPUL>
0

>  <SCORE.INTRA.REPUL.0>
0

>  <SCORE.INTRA.SOLV>
0.273047

>  <SCORE.INTRA.SOLV.lig_0>
-64.6797

>  <SCORE.INTRA.VDW>
0.740548

>  <SCORE.INTRA.VDW.0>
-4.11825

>  <SCORE.INTRA.norm>
-0.0793915

>  <SCORE.RESTR>
7.3949

>  <SCORE.RESTR.CAVITY>
7.3949

>  <SCORE.RESTR.norm>
0.238545

>  <SCORE.SYSTEM>
0

>  <SCORE.SYSTEM.CONST>
0

>  <SCORE.SYSTEM.DIHEDRAL>
0

>  <SCORE.SYSTEM.SOLV>
0

>  <SCORE.SYSTEM.norm>
0

>  <SCORE.heavy>
31

>  <SCORE.norm>
0.338435

>  <RMSD>
12.090

$$$$
ligand
 OpenBabel11021811493D
libRbt.so/2013.1/901 2013/11/27
 31 33  0  0  0  0  0  0  0  0999 V2000
    0.7160    7.1458    4.7302 C   0  0  2  0  0  0  0  0  0  0  0  0
    1.9088    7.6986    4.1816 O   0  0  0  0  0  0  0  0  0  0  0  0
    5.4427    6.6211    2.0758 C   0  0  2  0  0  0  0  0  0  0  0  0
    6.6183    5.8955    1.7035 N   0  0  0  0  0  0  0  0  0  0  0  0
    4.9096    4.2395    0.0263 C   0  0  2  0  0  0  0  0  0  0  0  0
   -0.4802    8.0319    4.1917 C   0  0  2  0  0  0  0  0  0  0  0  0
   -0.4785    7.9857    2.7333 N   0  0  0  0  0  0  0  0  0  0  0  0
    5.5986    7.0847    3.5827 C   0  0  0  0  0  0  0  0  0  0  0  0
    4.1227    3.7194   -1.2182 C   0  0  2  0  0  0  0  0  0  0  0  0
    3.8819    4.8109   -2.0803 O   0  0  0  0  0  0  0  0  0  0  0  0
   -0.3360    9.5207    4.7031 C   0  0  0  0  0  0  0  0  0  0  0  0
    4.3051    7.8815    3.9967 C   0  0  2  0  0  0  0  0  0  0  0  0
    4.4419    8.3106    5.3992 N   0  0  0  0  0  0  0  0  0  0  0  0
    2.7695    3.1061   -0.6924 C   0  0  1  0  0  0  0  0  0  0  0  0
    1.9571    2.6048   -1.8499 N   0  0  0  0  0  0  0  0  0  0  0  0
    0.2178    9.5971    6.1887 C   0  0  0  0  0  0  0  0  0  0  0  0
    3.0226    6.9532    3.8272 C   0  0  2  0  0  0  0  0  0  0  0  0
    3.1324    1.8593    0.2937 C   0  0  1  0  0  0  0  0  0  0  0  0
    3.8993    0.8621   -0.3596 O   0  0  0  0  0  0  0  0  0  0  0  0
    0.6975    8.4906    6.8158 C   0  0  2  0  0  0  0  0  0  0  0  0
    0.7329    7.2045    6.1863 O   0  0  0  0  0  0  0  0  0  0  0  0
    2.8976    6.4997    2.3255 C   0  0  2  0  0  0  0  0  0  0  0  0
    1.7385    5.6507    2.1830 O   0  0  0  0  0  0  0  0  0  0  0  0
    3.9808    2.3684    1.5040 C   0  0  0  0  0  0  0  0  0  0  0  0
    5.1915    3.1010    0.9887 O   0  0  0  0  0  0  0  0  0  0  0  0
    1.2389    8.5134    8.2465 C   0  0  0  0  0  0  0  0  0  0  0  0
    1.8153    9.8186    8.4883 O   0  0  0  0  0  0  0  0  0  0  0  0
    4.1875    5.6868    1.9373 C   0  0  1  0  0  0  0  0  0  0  0  0
    4.0545    5.2735    0.6136 O   0  0  0  0  0  0  0  0  0  0  0  0
    1.9096    1.1335    0.9050 C   0  0  0  0  0  0  0  0  0  0  0  0
    0.4898    2.6070   -1.6793 C   0  0  0  0  0  0  0  0  0  0  0  0
  1  2  1  6  0  0  0
  1  6  1  0  0  0  0
  1 21  1  0  0  0  0
  3  4  1  1  0  0  0
  3  8  1  0  0  0  0
  3 28  1  0  0  0  0
  5  9  1  0  0  0  0
  5 25  1  0  0  0  0
  5 29  1  1  0  0  0
  6  7  1  6  0  0  0
  6 11  1  0  0  0  0
  8 12  1  0  0  0  0
  9 10  1  6  0  0  0
  9 14  1  0  0  0  0
 11 16  1  0  0  0  0
 12 13  1  1  0  0  0
 12 17  1  0  0  0  0
 14 15  1  6  0  0  0
 14 18  1  0  0  0  0
 15 31  1  0  0  0  0
 16 20  1  0  0  0  0
 17  2  1  6  0  0  0
 17 22  1  0  0  0  0
 18 19  1  6  0  0  0
 18 24  1  0  0  0  0
 18 30  1  0  0  0  0
 20 21  1  0  0  0  0
 20 26  1  1  0  0  0
 22 23  1  1  0  0  0
 22 28  1  0  0  0  0
 24 25  1  0  0  0  0
 26 27  1  0  0  0  0
 28 29  1  6  0  0  0
M  END
>  <CHROM.1>
-146.51370391,159.64328992,-151.50932773,-150.84414729,-30.72052464,76.09383392
2.71992154,5.79579252,2.57482714,1.81888960,0.04726148,0.83902838

>  <Name>
ligand

>  <RI>
0

>  <Rbt.Current_Directory>
/home/itssahil/PROJECTS/Mol_Feturizer/New_Systems/rnas/4GPX

>  <Rbt.Executable>
rbdock ($Id: //depot/dev/client3/rdock/2013.1/src/exe/rbdock.cxx#4 $)

>  <Rbt.Library>
libRbt.so (2013.1, Build901 2013/11/27)

>  <Rbt.Parameter_File>
/export/apps/rDock/src/rDock_2013.1_src/data/scripts/dock_solv.prm

>  <Rbt.Receptor>
prm/blind_docking_80.prm

>  <SCORE>
10.1627

>  <SCORE.INTER>
4.95038

>  <SCORE.INTER.CONST>
1

>  <SCORE.INTER.POLAR>
0

>  <SCORE.INTER.ROT>
6

>  <SCORE.INTER.SOLV>
20.9039

>  <SCORE.INTER.VDW>
-11.2677

>  <SCORE.INTER.norm>
0.15969

>  <SCORE.INTRA>
-2.13759

>  <SCORE.INTRA.DIHEDRAL>
-6.69434

>  <SCORE.INTRA.DIHEDRAL.0>
20.6841

>  <SCORE.INTRA.POLAR>
0

>  <SCORE.INTRA.POLAR.0>
0

>  <SCORE.INTRA.REPUL>
0

>  <SCORE.INTRA.REPUL.0>
0

>  <SCORE.INTRA.SOLV>
0.18167

>  <SCORE.INTRA.SOLV.lig_0>
-64.6797

>  <SCORE.INTRA.VDW>
1.11874

>  <SCORE.INTRA.VDW.0>
-4.11825

>  <SCORE.INTRA.norm>
-0.0689546

>  <SCORE.RESTR>
7.3499

>  <SCORE.RESTR.CAVITY>
7.3499

>  <SCORE.RESTR.norm>
0.237094

>  <SCORE.SYSTEM>
0

>  <SCORE.SYSTEM.CONST>
0

>  <SCORE.SYSTEM.DIHEDRAL>
0

>  <SCORE.SYSTEM.SOLV>
0

>  <SCORE.SYSTEM.norm>
0

>  <SCORE.heavy>
31

>  <SCORE.norm>
0.327829

>  <RMSD>
12.093

$$$$
ligand
 OpenBabel11021811493D
libRbt.so/2013.1/901 2013/11/27
 31 33  0  0  0  0  0  0  0  0999 V2000
  -10.5105   12.2818    3.1384 C   0  0  2  0  0  0  0  0  0  0  0  0
  -10.0016   12.8174    1.9204 O   0  0  0  0  0  0  0  0  0  0  0  0
   -7.5155   16.0224    3.1976 C   0  0  2  0  0  0  0  0  0  0  0  0
   -6.5013   17.0311    3.1706 N   0  0  0  0  0  0  0  0  0  0  0  0
   -8.5349   18.8064    1.8819 C   0  0  2  0  0  0  0  0  0  0  0  0
  -11.4284   11.0545    2.7420 C   0  0  2  0  0  0  0  0  0  0  0  0
  -10.6212   10.0812    2.0138 N   0  0  0  0  0  0  0  0  0  0  0  0
   -6.8291   14.6175    2.9425 C   0  0  0  0  0  0  0  0  0  0  0  0
   -9.4637   19.9278    2.4463 C   0  0  2  0  0  0  0  0  0  0  0  0
   -9.5559   19.7666    3.8457 O   0  0  0  0  0  0  0  0  0  0  0  0
  -12.6469   11.5406    1.8601 C   0  0  0  0  0  0  0  0  0  0  0  0
   -7.9430   13.5048    2.9690 C   0  0  2  0  0  0  0  0  0  0  0  0
   -7.3113   12.1964    2.7267 N   0  0  0  0  0  0  0  0  0  0  0  0
  -10.8736   19.7539    1.7639 C   0  0  1  0  0  0  0  0  0  0  0  0
  -11.8198   20.7959    2.2835 N   0  0  0  0  0  0  0  0  0  0  0  0
  -13.2117   12.9463    2.3343 C   0  0  0  0  0  0  0  0  0  0  0  0
   -9.0330   13.8064    1.8480 C   0  0  2  0  0  0  0  0  0  0  0  0
  -10.6819   19.9508    0.1568 C   0  0  1  0  0  0  0  0  0  0  0  0
  -10.1347   21.2173   -0.1687 O   0  0  0  0  0  0  0  0  0  0  0  0
  -12.5479   13.6939    3.2552 C   0  0  2  0  0  0  0  0  0  0  0  0
  -11.3157   13.2677    3.8480 O   0  0  0  0  0  0  0  0  0  0  0  0
   -9.6909   15.2098    2.1195 C   0  0  2  0  0  0  0  0  0  0  0  0
  -10.6701   15.4794    1.0934 O   0  0  0  0  0  0  0  0  0  0  0  0
   -9.6963   18.8712   -0.3972 C   0  0  0  0  0  0  0  0  0  0  0  0
   -8.4053   18.9341    0.3757 O   0  0  0  0  0  0  0  0  0  0  0  0
  -13.0530   15.0523    3.7453 C   0  0  0  0  0  0  0  0  0  0  0  0
  -14.4755   15.1223    3.4884 O   0  0  0  0  0  0  0  0  0  0  0  0
   -8.5673   16.3099    2.0669 C   0  0  1  0  0  0  0  0  0  0  0  0
   -9.1659   17.5484    2.2873 O   0  0  0  0  0  0  0  0  0  0  0  0
  -11.9786   19.8126   -0.6769 C   0  0  0  0  0  0  0  0  0  0  0  0
  -12.4812   20.5062    3.5722 C   0  0  0  0  0  0  0  0  0  0  0  0
  1  2  1  6  0  0  0
  1  6  1  0  0  0  0
  1 21  1  0  0  0  0
  3  4  1  6  0  0  0
  3  8  1  0  0  0  0
  3 28  1  0  0  0  0
  5  9  1  0  0  0  0
  5 25  1  0  0  0  0
  5 29  1  6  0  0  0
  6  7  1  6  0  0  0
  6 11  1  0  0  0  0
  8 12  1  0  0  0  0
  9 10  1  1  0  0  0
  9 14  1  0  0  0  0
 11 16  1  0  0  0  0
 12 13  1  6  0  0  0
 12 17  1  0  0  0  0
 14 15  1  1  0  0  0
 14 18  1  0  0  0  0
 15 31  1  0  0  0  0
 16 20  1  0  0  0  0
 17  2  1  1  0  0  0
 17 22  1  0  0  0  0
 18 19  1  6  0  0  0
 18 24  1  0  0  0  0
 18 30  1  0  0  0  0
 20 21  1  0  0  0  0
 20 26  1  1  0  0  0
 22 23  1  6  0  0  0
 22 28  1  0  0  0  0
 24 25  1  0  0  0  0
 26 27  1  0  0  0  0
 28 29  1  1  0  0  0
M  END
>  <CHROM.1>
-172.14196934,-174.29844854,-82.70469191,40.22389181,21.36391700,81.91405266
-10.24567789,16.10317442,2.18321235,-1.64075732,0.03135044,-0.16416810

>  <Name>
ligand

>  <RI>
0

>  <Rbt.Current_Directory>
/home/itssahil/PROJECTS/Mol_Feturizer/New_Systems/rnas/4GPX

>  <Rbt.Executable>
rbdock ($Id: //depot/dev/client3/rdock/2013.1/src/exe/rbdock.cxx#4 $)

>  <Rbt.Library>
libRbt.so (2013.1, Build901 2013/11/27)

>  <Rbt.Parameter_File>
/export/apps/rDock/src/rDock_2013.1_src/data/scripts/dock_solv.prm

>  <Rbt.Receptor>
prm/blind_docking_100.prm

>  <SCORE>
11.7993

>  <SCORE.INTER>
10.3895

>  <SCORE.INTER.CONST>
1

>  <SCORE.INTER.POLAR>
0

>  <SCORE.INTER.ROT>
6

>  <SCORE.INTER.SOLV>
31.0356

>  <SCORE.INTER.VDW>
-11.0189

>  <SCORE.INTER.norm>
0.335147

>  <SCORE.INTRA>
-5.749

>  <SCORE.INTRA.DIHEDRAL>
-13.7336

>  <SCORE.INTRA.DIHEDRAL.0>
20.6841

>  <SCORE.INTRA.POLAR>
0

>  <SCORE.INTRA.POLAR.0>
0

>  <SCORE.INTRA.REPUL>
0

>  <SCORE.INTRA.REPUL.0>
0

>  <SCORE.INTRA.SOLV>
-0.672291

>  <SCORE.INTRA.SOLV.lig_0>
-64.6797

>  <SCORE.INTRA.VDW>
1.45392

>  <SCORE.INTRA.VDW.0>
-4.11825

>  <SCORE.INTRA.norm>
-0.185452

>  <SCORE.RESTR>
7.15878

>  <SCORE.RESTR.CAVITY>
7.15878

>  <SCORE.RESTR.norm>
0.230928

>  <SCORE.SYSTEM>
0

>  <SCORE.SYSTEM.CONST>
0

>  <SCORE.SYSTEM.DIHEDRAL>
0

>  <SCORE.SYSTEM.SOLV>
0

>  <SCORE.SYSTEM.norm>
0

>  <SCORE.heavy>
31

>  <SCORE.norm>
0.380623

>  <RMSD>
12.101

$$$$
ligand
 OpenBabel11021811493D
libRbt.so/2013.1/901 2013/11/27
 31 33  0  0  0  0  0  0  0  0999 V2000
  -10.6181   12.7400    4.1589 C   0  0  2  0  0  0  0  0  0  0  0  0
   -9.8124   12.6191    2.9904 O   0  0  0  0  0  0  0  0  0  0  0  0
   -7.4529   16.1554    3.0946 C   0  0  2  0  0  0  0  0  0  0  0  0
   -6.4300   17.1001    2.7658 N   0  0  0  0  0  0  0  0  0  0  0  0
   -8.2594   18.1310    0.6828 C   0  0  2  0  0  0  0  0  0  0  0  0
  -11.7215   11.6088    4.0643 C   0  0  2  0  0  0  0  0  0  0  0  0
  -11.0578   10.3113    3.9916 N   0  0  0  0  0  0  0  0  0  0  0  0
   -6.7590   14.7970    3.5225 C   0  0  0  0  0  0  0  0  0  0  0  0
   -9.3653   19.1389    0.2357 C   0  0  2  0  0  0  0  0  0  0  0  0
  -10.0020   19.6419    1.3907 O   0  0  0  0  0  0  0  0  0  0  0  0
  -12.6381   11.8386    2.7971 C   0  0  0  0  0  0  0  0  0  0  0  0
   -7.8822   13.7539    3.8828 C   0  0  2  0  0  0  0  0  0  0  0  0
   -7.2429   12.4865    4.2763 N   0  0  0  0  0  0  0  0  0  0  0  0
  -10.3824   18.3451   -0.6693 C   0  0  1  0  0  0  0  0  0  0  0  0
  -11.4843   19.2603   -1.1157 N   0  0  0  0  0  0  0  0  0  0  0  0
  -12.9285   13.3768    2.5337 C   0  0  0  0  0  0  0  0  0  0  0  0
   -8.8296   13.5253    2.6235 C   0  0  2  0  0  0  0  0  0  0  0  0
   -9.5727   17.7970   -1.9740 C   0  0  1  0  0  0  0  0  0  0  0  0
   -8.9748   18.8463   -2.7162 O   0  0  0  0  0  0  0  0  0  0  0  0
  -12.2635   14.3433    3.2203 C   0  0  2  0  0  0  0  0  0  0  0  0
  -11.2740   14.0404    4.2106 O   0  0  0  0  0  0  0  0  0  0  0  0
   -9.4972   14.8902    2.2142 C   0  0  2  0  0  0  0  0  0  0  0  0
  -10.3462   14.6758    1.0663 O   0  0  0  0  0  0  0  0  0  0  0  0
   -8.4200   16.8426   -1.5221 C   0  0  0  0  0  0  0  0  0  0  0  0
   -7.5449   17.5575   -0.5265 O   0  0  0  0  0  0  0  0  0  0  0  0
  -12.5101   15.8375    3.0039 C   0  0  0  0  0  0  0  0  0  0  0  0
  -13.1173   16.3714    4.2042 O   0  0  0  0  0  0  0  0  0  0  0  0
   -8.3615   15.9115    1.8366 C   0  0  1  0  0  0  0  0  0  0  0  0
   -8.9662   17.1074    1.4561 O   0  0  0  0  0  0  0  0  0  0  0  0
  -10.4269   16.9880   -2.9798 C   0  0  0  0  0  0  0  0  0  0  0  0
  -11.0798   20.5940   -1.6053 C   0  0  0  0  0  0  0  0  0  0  0  0
  1  2  1  6  0  0  0
  1  6  1  0  0  0  0
  1 21  1  0  0  0  0
  3  4  1  6  0  0  0
  3  8  1  0  0  0  0
  3 28  1  0  0  0  0
  5  9  1  0  0  0  0
  5 25  1  0  0  0  0
  5 29  1  6  0  0  0
  6  7  1  6  0  0  0
  6 11  1  0  0  0  0
  8 12  1  0  0  0  0
  9 10  1  1  0  0  0
  9 14  1  0  0  0  0
 11 16  1  0  0  0  0
 12 13  1  6  0  0  0
 12 17  1  0  0  0  0
 14 15  1  6  0  0  0
 14 18  1  0  0  0  0
 15 31  1  0  0  0  0
 16 20  1  0  0  0  0
 17  2  1  1  0  0  0
 17 22  1  0  0  0  0
 18 19  1  6  0  0  0
 18 24  1  0  0  0  0
 18 30  1  0  0  0  0
 20 21  1  0  0  0  0
 20 26  1  1  0  0  0
 22 23  1  6  0  0  0
 22 28  1  0  0  0  0
 24 25  1  0  0  0  0
 26 27  1  0  0  0  0
 28 29  1  1  0  0  0
M  END
>  <CHROM.1>
172.27578672,168.81404102,45.23703432,50.86821326,112.63514150,79.51783049
-9.86553398,15.73573640,1.62569206,1.70962289,0.10274779,2.44919504

>  <Name>
ligand

>  <RI>
0

>  <Rbt.Current_Directory>
/home/itssahil/PROJECTS/Mol_Feturizer/New_Systems/rnas/4GPX

>  <Rbt.Executable>
rbdock ($Id: //depot/dev/client3/rdock/2013.1/src/exe/rbdock.cxx#4 $)

>  <Rbt.Library>
libRbt.so (2013.1, Build901 2013/11/27)

>  <Rbt.Parameter_File>
/export/apps/rDock/src/rDock_2013.1_src/data/scripts/dock_solv.prm

>  <Rbt.Receptor>
prm/blind_docking_100.prm

>  <SCORE>
1.25832

>  <SCORE.INTER>
1.11436

>  <SCORE.INTER.CONST>
1

>  <SCORE.INTER.POLAR>
0

>  <SCORE.INTER.ROT>
6

>  <SCORE.INTER.SOLV>
30.602

>  <SCORE.INTER.VDW>
-17.0577

>  <SCORE.INTER.norm>
0.0359471

>  <SCORE.INTRA>
-5.61631

>  <SCORE.INTRA.DIHEDRAL>
-15.7343

>  <SCORE.INTRA.DIHEDRAL.0>
20.6841

>  <SCORE.INTRA.POLAR>
0

>  <SCORE.INTRA.POLAR.0>
0

>  <SCORE.INTRA.REPUL>
0

>  <SCORE.INTRA.REPUL.0>
0

>  <SCORE.INTRA.SOLV>
-0.988501

>  <SCORE.INTRA.SOLV.lig_0>
-64.6797

>  <SCORE.INTRA.VDW>
2.7451

>  <SCORE.INTRA.VDW.0>
-4.11825

>  <SCORE.INTRA.norm>
-0.181171

>  <SCORE.RESTR>
5.76026

>  <SCORE.RESTR.CAVITY>
5.76026

>  <SCORE.RESTR.norm>
0.185815

>  <SCORE.SYSTEM>
0

>  <SCORE.SYSTEM.CONST>
0

>  <SCORE.SYSTEM.DIHEDRAL>
0

>  <SCORE.SYSTEM.SOLV>
0

>  <SCORE.SYSTEM.norm>
0

>  <SCORE.heavy>
31

>  <SCORE.norm>
0.0405909

>  <RMSD>
12.110

$$$$
ligand
 OpenBabel11021811493D
libRbt.so/2013.1/901 2013/11/27
 31 33  0  0  0  0  0  0  0  0999 V2000
    0.7222    7.1542    4.7616 C   0  0  2  0  0  0  0  0  0  0  0  0
    1.9137    7.7145    4.2179 O   0  0  0  0  0  0  0  0  0  0  0  0
    5.4431    6.6554    2.0953 C   0  0  2  0  0  0  0  0  0  0  0  0
    6.6207    5.9360    1.7175 N   0  0  0  0  0  0  0  0  0  0  0  0
    4.8962    4.2523    0.0567 C   0  0  2  0  0  0  0  0  0  0  0  0
   -0.4770    8.0353    4.2217 C   0  0  2  0  0  0  0  0  0  0  0  0
   -0.4708    7.9927    2.7632 N   0  0  0  0  0  0  0  0  0  0  0  0
    5.6038    7.1204    3.6012 C   0  0  0  0  0  0  0  0  0  0  0  0
    4.0829    3.7086   -1.1606 C   0  0  2  0  0  0  0  0  0  0  0  0
    3.8260    4.7830   -2.0394 O   0  0  0  0  0  0  0  0  0  0  0  0
   -0.3422    9.5236    4.7372 C   0  0  0  0  0  0  0  0  0  0  0  0
    4.3081    7.9104    4.0213 C   0  0  2  0  0  0  0  0  0  0  0  0
    4.4494    8.3409    5.4228 N   0  0  0  0  0  0  0  0  0  0  0  0
    2.7399    3.1088   -0.5946 C   0  0  1  0  0  0  0  0  0  0  0  0
    1.9029    2.5859   -1.7247 N   0  0  0  0  0  0  0  0  0  0  0  0
    0.2068    9.5992    6.2247 C   0  0  0  0  0  0  0  0  0  0  0  0
    3.0297    6.9750    3.8583 C   0  0  2  0  0  0  0  0  0  0  0  0
    3.1211    1.8816    0.4088 C   0  0  1  0  0  0  0  0  0  0  0  0
    3.8727    0.8697   -0.2397 O   0  0  0  0  0  0  0  0  0  0  0  0
    0.6905    8.4937    6.8505 C   0  0  2  0  0  0  0  0  0  0  0  0
    0.7345    7.2094    6.2179 O   0  0  0  0  0  0  0  0  0  0  0  0
    2.8999    6.5203    2.3575 C   0  0  2  0  0  0  0  0  0  0  0  0
    1.7447    5.6649    2.2210 O   0  0  0  0  0  0  0  0  0  0  0  0
    3.9952    2.4133    1.5909 C   0  0  0  0  0  0  0  0  0  0  0  0
    5.1961    3.1329    1.0359 O   0  0  0  0  0  0  0  0  0  0  0  0
    1.2275    8.5158    8.2828 C   0  0  0  0  0  0  0  0  0  0  0  0
    1.8366    9.8079    8.5147 O   0  0  0  0  0  0  0  0  0  0  0  0
    4.1923    5.7142    1.9633 C   0  0  1  0  0  0  0  0  0  0  0  0
    4.0551    5.2996    0.6404 O   0  0  0  0  0  0  0  0  0  0  0  0
    1.9101    1.1707    1.0599 C   0  0  0  0  0  0  0  0  0  0  0  0
    1.8725    1.1198   -1.9030 C   0  0  0  0  0  0  0  0  0  0  0  0
  1  2  1  6  0  0  0
  1  6  1  0  0  0  0
  1 21  1  0  0  0  0
  3  4  1  1  0  0  0
  3  8  1  0  0  0  0
  3 28  1  0  0  0  0
  5  9  1  0  0  0  0
  5 25  1  0  0  0  0
  5 29  1  1  0  0  0
  6  7  1  6  0  0  0
  6 11  1  0  0  0  0
  8 12  1  0  0  0  0
  9 10  1  6  0  0  0
  9 14  1  0  0  0  0
 11 16  1  0  0  0  0
 12 13  1  1  0  0  0
 12 17  1  0  0  0  0
 14 15  1  6  0  0  0
 14 18  1  0  0  0  0
 15 31  1  0  0  0  0
 16 20  1  0  0  0  0
 17  2  1  6  0  0  0
 17 22  1  0  0  0  0
 18 19  1  6  0  0  0
 18 24  1  0  0  0  0
 18 30  1  0  0  0  0
 20 21  1  0  0  0  0
 20 26  1  1  0  0  0
 22 23  1  1  0  0  0
 22 28  1  0  0  0  0
 24 25  1  0  0  0  0
 26 27  1  0  0  0  0
 28 29  1  6  0  0  0
M  END
>  <CHROM.1>
-146.15301860,157.87820259,103.79513602,-151.42336938,-32.61951150,77.27319693
2.76204393,5.75826131,2.61418144,1.82269855,0.11671219,0.80576013

>  <Name>
ligand

>  <RI>
0

>  <Rbt.Current_Directory>
/home/itssahil/PROJECTS/Mol_Feturizer/New_Systems/rnas/4GPX

>  <Rbt.Executable>
rbdock ($Id: //depot/dev/client3/rdock/2013.1/src/exe/rbdock.cxx#4 $)

>  <Rbt.Library>
libRbt.so (2013.1, Build901 2013/11/27)

>  <Rbt.Parameter_File>
/export/apps/rDock/src/rDock_2013.1_src/data/scripts/dock_solv.prm

>  <Rbt.Receptor>
prm/blind_docking_80.prm

>  <SCORE>
19.6561

>  <SCORE.INTER>
6.67024

>  <SCORE.INTER.CONST>
1

>  <SCORE.INTER.POLAR>
0

>  <SCORE.INTER.ROT>
6

>  <SCORE.INTER.SOLV>
21.3915

>  <SCORE.INTER.VDW>
-10.2837

>  <SCORE.INTER.norm>
0.215169

>  <SCORE.INTRA>
6.08298

>  <SCORE.INTRA.DIHEDRAL>
-5.73047

>  <SCORE.INTRA.DIHEDRAL.0>
20.6841

>  <SCORE.INTRA.POLAR>
0

>  <SCORE.INTRA.POLAR.0>
0

>  <SCORE.INTRA.REPUL>
0

>  <SCORE.INTRA.REPUL.0>
0

>  <SCORE.INTRA.SOLV>
0.342349

>  <SCORE.INTRA.SOLV.lig_0>
-64.6797

>  <SCORE.INTRA.VDW>
8.77704

>  <SCORE.INTRA.VDW.0>
-4.11825

>  <SCORE.INTRA.norm>
0.196225

>  <SCORE.RESTR>
6.90289

>  <SCORE.RESTR.CAVITY>
6.90289

>  <SCORE.RESTR.norm>
0.222674

>  <SCORE.SYSTEM>
0

>  <SCORE.SYSTEM.CONST>
0

>  <SCORE.SYSTEM.DIHEDRAL>
0

>  <SCORE.SYSTEM.SOLV>
0

>  <SCORE.SYSTEM.norm>
0

>  <SCORE.heavy>
31

>  <SCORE.norm>
0.634068

>  <RMSD>
12.110

$$$$
ligand
 OpenBabel11021811493D
libRbt.so/2013.1/901 2013/11/27
 31 33  0  0  0  0  0  0  0  0999 V2000
    0.7132    7.1474    4.7091 C   0  0  2  0  0  0  0  0  0  0  0  0
    1.9024    7.7081    4.1608 O   0  0  0  0  0  0  0  0  0  0  0  0
    5.4583    6.6615    2.0765 C   0  0  2  0  0  0  0  0  0  0  0  0
    6.6406    5.9443    1.7093 N   0  0  0  0  0  0  0  0  0  0  0  0
    4.9129    4.2470    0.0257 C   0  0  2  0  0  0  0  0  0  0  0  0
   -0.4887    8.0261    4.1712 C   0  0  2  0  0  0  0  0  0  0  0  0
   -0.4868    7.9807    2.7128 N   0  0  0  0  0  0  0  0  0  0  0  0
    5.6000    7.1171    3.5872 C   0  0  0  0  0  0  0  0  0  0  0  0
    4.0899    3.6991   -1.1830 C   0  0  2  0  0  0  0  0  0  0  0  0
    3.8485    4.7650   -2.0765 O   0  0  0  0  0  0  0  0  0  0  0  0
   -0.3539    9.5155    4.6834 C   0  0  0  0  0  0  0  0  0  0  0  0
    4.2991    7.9047    3.9958 C   0  0  2  0  0  0  0  0  0  0  0  0
    4.4226    8.3263    5.4017 N   0  0  0  0  0  0  0  0  0  0  0  0
    2.7385    3.1280   -0.6075 C   0  0  1  0  0  0  0  0  0  0  0  0
    1.8922    2.6024   -1.7293 N   0  0  0  0  0  0  0  0  0  0  0  0
    0.1995    9.5947    6.1691 C   0  0  0  0  0  0  0  0  0  0  0  0
    3.0228    6.9706    3.8108 C   0  0  2  0  0  0  0  0  0  0  0  0
    3.1019    1.9091    0.4126 C   0  0  1  0  0  0  0  0  0  0  0  0
    3.8371    0.8768   -0.2225 O   0  0  0  0  0  0  0  0  0  0  0  0
    0.6863    8.4909    6.7955 C   0  0  2  0  0  0  0  0  0  0  0  0
    0.7299    7.2054    6.1652 O   0  0  0  0  0  0  0  0  0  0  0  0
    2.9120    6.5253    2.3056 C   0  0  2  0  0  0  0  0  0  0  0  0
    1.7586    5.6711    2.1490 O   0  0  0  0  0  0  0  0  0  0  0  0
    3.9855    2.4437    1.5862 C   0  0  0  0  0  0  0  0  0  0  0  0
    5.1967    3.1368    1.0202 O   0  0  0  0  0  0  0  0  0  0  0  0
    1.2276    8.5164    8.2262 C   0  0  0  0  0  0  0  0  0  0  0  0
    1.7259    9.8483    8.4946 O   0  0  0  0  0  0  0  0  0  0  0  0
    4.2092    5.7215    1.9228 C   0  0  1  0  0  0  0  0  0  0  0  0
    4.0887    5.3152    0.5957 O   0  0  0  0  0  0  0  0  0  0  0  0
    1.8809    1.2261    1.0747 C   0  0  0  0  0  0  0  0  0  0  0  0
    1.8559    1.1355   -1.9004 C   0  0  0  0  0  0  0  0  0  0  0  0
  1  2  1  6  0  0  0
  1  6  1  0  0  0  0
  1 21  1  0  0  0  0
  3  4  1  1  0  0  0
  3  8  1  0  0  0  0
  3 28  1  0  0  0  0
  5  9  1  0  0  0  0
  5 25  1  0  0  0  0
  5 29  1  1  0  0  0
  6  7  1  6  0  0  0
  6 11  1  0  0  0  0
  8 12  1  0  0  0  0
  9 10  1  6  0  0  0
  9 14  1  0  0  0  0
 11 16  1  0  0  0  0
 12 13  1  1  0  0  0
 12 17  1  0  0  0  0
 14 15  1  6  0  0  0
 14 18  1  0  0  0  0
 15 31  1  0  0  0  0
 16 20  1  0  0  0  0
 17  2  1  6  0  0  0
 17 22  1  0  0  0  0
 18 19  1  6  0  0  0
 18 24  1  0  0  0  0
 18 30  1  0  0  0  0
 20 21  1  0  0  0  0
 20 26  1  1  0  0  0
 22 23  1  1  0  0  0
 22 28  1  0  0  0  0
 24 25  1  0  0  0  0
 26 27  1  0  0  0  0
 28 29  1  6  0  0  0
M  END
>  <CHROM.1>
-146.77888975,156.11117419,102.86279145,-150.19258751,-27.47179739,78.92225338
2.75528435,5.76331198,2.58392263,1.82632267,0.11649811,0.80470316

>  <Name>
ligand

>  <RI>
0

>  <Rbt.Current_Directory>
/home/itssahil/PROJECTS/Mol_Feturizer/New_Systems/rnas/4GPX

>  <Rbt.Executable>
rbdock ($Id: //depot/dev/client3/rdock/2013.1/src/exe/rbdock.cxx#4 $)

>  <Rbt.Library>
libRbt.so (2013.1, Build901 2013/11/27)

>  <Rbt.Parameter_File>
/export/apps/rDock/src/rDock_2013.1_src/data/scripts/dock_solv.prm

>  <Rbt.Receptor>
prm/blind_docking_80.prm

>  <SCORE>
19.9881

>  <SCORE.INTER>
6.97173

>  <SCORE.INTER.CONST>
1

>  <SCORE.INTER.POLAR>
0

>  <SCORE.INTER.ROT>
6

>  <SCORE.INTER.SOLV>
21.3041

>  <SCORE.INTER.VDW>
-10.0536

>  <SCORE.INTER.norm>
0.224895

>  <SCORE.INTRA>
6.20722

>  <SCORE.INTRA.DIHEDRAL>
-5.33217

>  <SCORE.INTRA.DIHEDRAL.0>
20.6841

>  <SCORE.INTRA.POLAR>
0

>  <SCORE.INTRA.POLAR.0>
0

>  <SCORE.INTRA.REPUL>
0

>  <SCORE.INTRA.REPUL.0>
0

>  <SCORE.INTRA.SOLV>
0.392636

>  <SCORE.INTRA.SOLV.lig_0>
-64.6797

>  <SCORE.INTRA.VDW>
8.67699

>  <SCORE.INTRA.VDW.0>
-4.11825

>  <SCORE.INTRA.norm>
0.200233

>  <SCORE.RESTR>
6.80912

>  <SCORE.RESTR.CAVITY>
6.80912

>  <SCORE.RESTR.norm>
0.219649

>  <SCORE.SYSTEM>
0

>  <SCORE.SYSTEM.CONST>
0

>  <SCORE.SYSTEM.DIHEDRAL>
0

>  <SCORE.SYSTEM.SOLV>
0

>  <SCORE.SYSTEM.norm>
0

>  <SCORE.heavy>
31

>  <SCORE.norm>
0.644777

>  <RMSD>
12.111

$$$$
ligand
 OpenBabel11021811493D
libRbt.so/2013.1/901 2013/11/27
 31 33  0  0  0  0  0  0  0  0999 V2000
    0.5903    7.2502    4.3124 C   0  0  2  0  0  0  0  0  0  0  0  0
    1.8263    7.7620    3.8227 O   0  0  0  0  0  0  0  0  0  0  0  0
    5.4772    6.5700    1.9968 C   0  0  2  0  0  0  0  0  0  0  0  0
    6.6572    5.8099    1.7198 N   0  0  0  0  0  0  0  0  0  0  0  0
    4.9753    4.1274   -0.0471 C   0  0  2  0  0  0  0  0  0  0  0  0
   -0.5478    8.1765    3.7186 C   0  0  2  0  0  0  0  0  0  0  0  0
   -0.4775    8.1304    2.2618 N   0  0  0  0  0  0  0  0  0  0  0  0
    5.5325    7.0451    3.5071 C   0  0  0  0  0  0  0  0  0  0  0  0
    4.1882    3.5650   -1.2731 C   0  0  2  0  0  0  0  0  0  0  0  0
    4.0270    4.6054   -2.2134 O   0  0  0  0  0  0  0  0  0  0  0  0
   -0.3777    9.6595    4.2388 C   0  0  0  0  0  0  0  0  0  0  0  0
    4.2337    7.8800    3.8163 C   0  0  2  0  0  0  0  0  0  0  0  0
    4.2770    8.3200    5.2214 N   0  0  0  0  0  0  0  0  0  0  0  0
    2.7920    3.0632   -0.7414 C   0  0  1  0  0  0  0  0  0  0  0  0
    1.9785    2.5271   -1.8824 N   0  0  0  0  0  0  0  0  0  0  0  0
    0.1063    9.7169    5.7495 C   0  0  0  0  0  0  0  0  0  0  0  0
    2.9428    6.9839    3.5591 C   0  0  2  0  0  0  0  0  0  0  0  0
    3.0638    1.8703    0.3364 C   0  0  1  0  0  0  0  0  0  0  0  0
    3.7884    0.7904   -0.2275 O   0  0  0  0  0  0  0  0  0  0  0  0
    0.5174    8.5947    6.3970 C   0  0  2  0  0  0  0  0  0  0  0  0
    0.5392    7.3082    5.7677 O   0  0  0  0  0  0  0  0  0  0  0  0
    2.9181    6.5181    2.0562 C   0  0  2  0  0  0  0  0  0  0  0  0
    1.7504    5.6985    1.8344 O   0  0  0  0  0  0  0  0  0  0  0  0
    3.9125    2.4160    1.5305 C   0  0  0  0  0  0  0  0  0  0  0  0
    5.1727    3.0450    0.9975 O   0  0  0  0  0  0  0  0  0  0  0  0
    0.9898    8.5989    7.8521 C   0  0  0  0  0  0  0  0  0  0  0  0
    1.5537    7.2988    8.1455 O   0  0  0  0  0  0  0  0  0  0  0  0
    4.2110    5.6676    1.7726 C   0  0  1  0  0  0  0  0  0  0  0  0
    4.1661    5.2441    0.4462 O   0  0  0  0  0  0  0  0  0  0  0  0
    1.7897    1.2554    0.9643 C   0  0  0  0  0  0  0  0  0  0  0  0
    0.9220    3.4113   -2.4154 C   0  0  0  0  0  0  0  0  0  0  0  0
  1  2  1  6  0  0  0
  1  6  1  0  0  0  0
  1 21  1  0  0  0  0
  3  4  1  1  0  0  0
  3  8  1  0  0  0  0
  3 28  1  0  0  0  0
  5  9  1  0  0  0  0
  5 25  1  0  0  0  0
  5 29  1  1  0  0  0
  6  7  1  6  0  0  0
  6 11  1  0  0  0  0
  8 12  1  0  0  0  0
  9 10  1  6  0  0  0
  9 14  1  0  0  0  0
 11 16  1  0  0  0  0
 12 13  1  1  0  0  0
 12 17  1  0  0  0  0
 14 15  1  6  0  0  0
 14 18  1  0  0  0  0
 15 31  1  0  0  0  0
 16 20  1  0  0  0  0
 17  2  1  6  0  0  0
 17 22  1  0  0  0  0
 18 19  1  6  0  0  0
 18 24  1  0  0  0  0
 18 30  1  0  0  0  0
 20 21  1  0  0  0  0
 20 26  1  1  0  0  0
 22 23  1  1  0  0  0
 22 28  1  0  0  0  0
 24 25  1  0  0  0  0
 26 27  1  0  0  0  0
 28 29  1  6  0  0  0
M  END
>  <CHROM.1>
-148.54302581,154.09453568,-101.65607096,-149.43356388,-170.73293568,79.92373108
2.68512158,5.74223847,2.35680441,1.86352647,-0.07099667,0.87339116

>  <Name>
ligand

>  <RI>
0

>  <Rbt.Current_Directory>
/home/itssahil/PROJECTS/Mol_Feturizer/New_Systems/rnas/4GPX

>  <Rbt.Executable>
rbdock ($Id: //depot/dev/client3/rdock/2013.1/src/exe/rbdock.cxx#4 $)

>  <Rbt.Library>
libRbt.so (2013.1, Build901 2013/11/27)

>  <Rbt.Parameter_File>
/export/apps/rDock/src/rDock_2013.1_src/data/scripts/dock_solv.prm

>  <Rbt.Receptor>
prm/blind_docking_80.prm

>  <SCORE>
12.3752

>  <SCORE.INTER>
7.12933

>  <SCORE.INTER.CONST>
1

>  <SCORE.INTER.POLAR>
0

>  <SCORE.INTER.ROT>
6

>  <SCORE.INTER.SOLV>
21.7083

>  <SCORE.INTER.VDW>
-10.0832

>  <SCORE.INTER.norm>
0.229978

>  <SCORE.INTRA>
-1.58899

>  <SCORE.INTRA.DIHEDRAL>
-4.04668

>  <SCORE.INTRA.DIHEDRAL.0>
20.6841

>  <SCORE.INTRA.POLAR>
0

>  <SCORE.INTRA.POLAR.0>
0

>  <SCORE.INTRA.REPUL>
0

>  <SCORE.INTRA.REPUL.0>
0

>  <SCORE.INTRA.SOLV>
0.598917

>  <SCORE.INTRA.SOLV.lig_0>
-64.6797

>  <SCORE.INTRA.VDW>
0.134889

>  <SCORE.INTRA.VDW.0>
-4.11825

>  <SCORE.INTRA.norm>
-0.0512579

>  <SCORE.RESTR>
6.83487

>  <SCORE.RESTR.CAVITY>
6.83487

>  <SCORE.RESTR.norm>
0.22048

>  <SCORE.SYSTEM>
0

>  <SCORE.SYSTEM.CONST>
0

>  <SCORE.SYSTEM.DIHEDRAL>
0

>  <SCORE.SYSTEM.SOLV>
0

>  <SCORE.SYSTEM.norm>
0

>  <SCORE.heavy>
31

>  <SCORE.norm>
0.3992

>  <RMSD>
12.114

$$$$
ligand
 OpenBabel11021811493D
libRbt.so/2013.1/901 2013/11/27
 31 33  0  0  0  0  0  0  0  0999 V2000
    0.6373    7.3123    4.2586 C   0  0  2  0  0  0  0  0  0  0  0  0
    1.9055    7.7913    3.8210 O   0  0  0  0  0  0  0  0  0  0  0  0
    5.5337    6.5037    2.0148 C   0  0  2  0  0  0  0  0  0  0  0  0
    6.6891    5.7070    1.7367 N   0  0  0  0  0  0  0  0  0  0  0  0
    4.9899    4.1371   -0.0882 C   0  0  2  0  0  0  0  0  0  0  0  0
   -0.4474    8.2981    3.6605 C   0  0  2  0  0  0  0  0  0  0  0  0
   -0.3349    8.2923    2.2057 N   0  0  0  0  0  0  0  0  0  0  0  0
    5.5873    6.9473    3.5348 C   0  0  0  0  0  0  0  0  0  0  0  0
    4.1701    3.5722   -1.2913 C   0  0  2  0  0  0  0  0  0  0  0  0
    3.9853    4.6100   -2.2301 O   0  0  0  0  0  0  0  0  0  0  0  0
   -0.2386    9.7577    4.2306 C   0  0  0  0  0  0  0  0  0  0  0  0
    4.3155    7.8224    3.8452 C   0  0  2  0  0  0  0  0  0  0  0  0
    4.3570    8.2334    5.2590 N   0  0  0  0  0  0  0  0  0  0  0  0
    2.7879    3.0736   -0.7215 C   0  0  1  0  0  0  0  0  0  0  0  0
    1.9439    2.5352   -1.8391 N   0  0  0  0  0  0  0  0  0  0  0  0
    0.2013    9.7522    5.7558 C   0  0  0  0  0  0  0  0  0  0  0  0
    2.9966    6.9786    3.5551 C   0  0  2  0  0  0  0  0  0  0  0  0
    3.0866    1.8835    0.3522 C   0  0  1  0  0  0  0  0  0  0  0  0
    3.7948    0.8010   -0.2275 O   0  0  0  0  0  0  0  0  0  0  0  0
    0.5510    8.5966    6.3804 C   0  0  2  0  0  0  0  0  0  0  0  0
    0.5444    7.3293    5.7129 O   0  0  0  0  0  0  0  0  0  0  0  0
    2.9739    6.5432    2.0431 C   0  0  2  0  0  0  0  0  0  0  0  0
    1.7804    5.7706    1.7915 O   0  0  0  0  0  0  0  0  0  0  0  0
    3.9671    2.4316    1.5219 C   0  0  0  0  0  0  0  0  0  0  0  0
    5.2136    3.0575    0.9540 O   0  0  0  0  0  0  0  0  0  0  0  0
    0.9790    8.5401    7.8480 C   0  0  0  0  0  0  0  0  0  0  0  0
    1.5606    7.2385    8.0969 O   0  0  0  0  0  0  0  0  0  0  0  0
    4.2389    5.6521    1.7580 C   0  0  1  0  0  0  0  0  0  0  0  0
    4.1953    5.2562    0.4231 O   0  0  0  0  0  0  0  0  0  0  0  0
    1.8288    1.2720    1.0153 C   0  0  0  0  0  0  0  0  0  0  0  0
    0.4830    2.5263   -1.6206 C   0  0  0  0  0  0  0  0  0  0  0  0
  1  2  1  1  0  0  0
  1  6  1  0  0  0  0
  1 21  1  0  0  0  0
  3  4  1  1  0  0  0
  3  8  1  0  0  0  0
  3 28  1  0  0  0  0
  5  9  1  0  0  0  0
  5 25  1  0  0  0  0
  5 29  1  1  0  0  0
  6  7  1  6  0  0  0
  6 11  1  0  0  0  0
  8 12  1  0  0  0  0
  9 10  1  6  0  0  0
  9 14  1  0  0  0  0
 11 16  1  0  0  0  0
 12 13  1  1  0  0  0
 12 17  1  0  0  0  0
 14 15  1  6  0  0  0
 14 18  1  0  0  0  0
 15 31  1  0  0  0  0
 16 20  1  0  0  0  0
 17  2  1  6  0  0  0
 17 22  1  0  0  0  0
 18 19  1  6  0  0  0
 18 24  1  0  0  0  0
 18 30  1  0  0  0  0
 20 21  1  0  0  0  0
 20 26  1  1  0  0  0
 22 23  1  1  0  0  0
 22 28  1  0  0  0  0
 24 25  1  0  0  0  0
 26 27  1  0  0  0  0
 28 29  1  6  0  0  0
M  END
>  <CHROM.1>
-147.95861343,151.67584775,-156.46856001,-150.83531735,-167.29831182,78.70371232
2.70867816,5.71848779,2.37498068,1.85503354,-0.02022764,0.83900041

>  <Name>
ligand

>  <RI>
0

>  <Rbt.Current_Directory>
/home/itssahil/PROJECTS/Mol_Feturizer/New_Systems/rnas/4GPX

>  <Rbt.Executable>
rbdock ($Id: //depot/dev/client3/rdock/2013.1/src/exe/rbdock.cxx#4 $)

>  <Rbt.Library>
libRbt.so (2013.1, Build901 2013/11/27)

>  <Rbt.Parameter_File>
/export/apps/rDock/src/rDock_2013.1_src/data/scripts/dock_solv.prm

>  <Rbt.Receptor>
prm/blind_docking_80.prm

>  <SCORE>
11.6703

>  <SCORE.INTER>
5.76406

>  <SCORE.INTER.CONST>
1

>  <SCORE.INTER.POLAR>
0

>  <SCORE.INTER.ROT>
6

>  <SCORE.INTER.SOLV>
21.4425

>  <SCORE.INTER.VDW>
-10.9048

>  <SCORE.INTER.norm>
0.185937

>  <SCORE.INTRA>
-0.989721

>  <SCORE.INTRA.DIHEDRAL>
-4.58068

>  <SCORE.INTRA.DIHEDRAL.0>
20.6841

>  <SCORE.INTRA.POLAR>
0

>  <SCORE.INTRA.POLAR.0>
0

>  <SCORE.INTRA.REPUL>
0

>  <SCORE.INTRA.REPUL.0>
0

>  <SCORE.INTRA.SOLV>
0.587712

>  <SCORE.INTRA.SOLV.lig_0>
-64.6797

>  <SCORE.INTRA.VDW>
1.00676

>  <SCORE.INTRA.VDW.0>
-4.11825

>  <SCORE.INTRA.norm>
-0.0319265

>  <SCORE.RESTR>
6.89593

>  <SCORE.RESTR.CAVITY>
6.89593

>  <SCORE.RESTR.norm>
0.222449

>  <SCORE.SYSTEM>
0

>  <SCORE.SYSTEM.CONST>
0

>  <SCORE.SYSTEM.DIHEDRAL>
0

>  <SCORE.SYSTEM.SOLV>
0

>  <SCORE.SYSTEM.norm>
0

>  <SCORE.heavy>
31

>  <SCORE.norm>
0.37646

>  <RMSD>
12.121

$$$$
ligand
 OpenBabel11021811493D
libRbt.so/2013.1/901 2013/11/27
 31 33  0  0  0  0  0  0  0  0999 V2000
    0.6718    7.1805    4.5633 C   0  0  2  0  0  0  0  0  0  0  0  0
    1.8793    7.7350    4.0498 O   0  0  0  0  0  0  0  0  0  0  0  0
    5.4270    6.6227    1.9856 C   0  0  2  0  0  0  0  0  0  0  0  0
    6.6115    5.8983    1.6408 N   0  0  0  0  0  0  0  0  0  0  0  0
    4.9121    4.1463    0.0333 C   0  0  2  0  0  0  0  0  0  0  0  0
   -0.5132    8.0188    3.9316 C   0  0  2  0  0  0  0  0  0  0  0  0
   -0.4397    7.9130    2.4781 N   0  0  0  0  0  0  0  0  0  0  0  0
    5.5766    7.1448    3.4738 C   0  0  0  0  0  0  0  0  0  0  0  0
    4.1605    3.6230   -1.2316 C   0  0  2  0  0  0  0  0  0  0  0  0
    3.9709    4.7064   -2.1164 O   0  0  0  0  0  0  0  0  0  0  0  0
   -0.4220    9.5300    4.3865 C   0  0  0  0  0  0  0  0  0  0  0  0
    4.2732    7.9406    3.8577 C   0  0  2  0  0  0  0  0  0  0  0  0
    4.4042    8.4240    5.2429 N   0  0  0  0  0  0  0  0  0  0  0  0
    2.7783    3.0417   -0.7465 C   0  0  1  0  0  0  0  0  0  0  0  0
    1.9984    2.5390   -1.9256 N   0  0  0  0  0  0  0  0  0  0  0  0
    0.0573    9.6786    5.8924 C   0  0  0  0  0  0  0  0  0  0  0  0
    3.0023    6.9906    3.7235 C   0  0  2  0  0  0  0  0  0  0  0  0
    3.0825    1.8027    0.2686 C   0  0  1  0  0  0  0  0  0  0  0  0
    3.8535    0.7826   -0.3432 O   0  0  0  0  0  0  0  0  0  0  0  0
    0.5266    8.6088    6.5875 C   0  0  2  0  0  0  0  0  0  0  0  0
    0.6167    7.2991    6.0148 O   0  0  0  0  0  0  0  0  0  0  0  0
    2.8834    6.4793    2.2401 C   0  0  2  0  0  0  0  0  0  0  0  0
    1.7350    5.6112    2.1299 O   0  0  0  0  0  0  0  0  0  0  0  0
    3.8966    2.3133    1.5017 C   0  0  0  0  0  0  0  0  0  0  0  0
    5.1383    3.0165    1.0204 O   0  0  0  0  0  0  0  0  0  0  0  0
    0.9971    8.7013    8.0403 C   0  0  0  0  0  0  0  0  0  0  0  0
    1.5870    7.4308    8.4035 O   0  0  0  0  0  0  0  0  0  0  0  0
    4.1835    5.6684    1.8827 C   0  0  1  0  0  0  0  0  0  0  0  0
    4.0560    5.2037    0.5755 O   0  0  0  0  0  0  0  0  0  0  0  0
    1.8255    1.1078    0.8454 C   0  0  0  0  0  0  0  0  0  0  0  0
    0.9685    3.4453   -2.4734 C   0  0  0  0  0  0  0  0  0  0  0  0
  1  2  1  6  0  0  0
  1  6  1  0  0  0  0
  1 21  1  0  0  0  0
  3  4  1  1  0  0  0
  3  8  1  0  0  0  0
  3 28  1  0  0  0  0
  5  9  1  0  0  0  0
  5 25  1  0  0  0  0
  5 29  1  1  0  0  0
  6  7  1  6  0  0  0
  6 11  1  0  0  0  0
  8 12  1  0  0  0  0
  9 10  1  6  0  0  0
  9 14  1  0  0  0  0
 11 16  1  0  0  0  0
 12 13  1  1  0  0  0
 12 17  1  0  0  0  0
 14 15  1  6  0  0  0
 14 18  1  0  0  0  0
 15 31  1  0  0  0  0
 16 20  1  0  0  0  0
 17  2  1  6  0  0  0
 17 22  1  0  0  0  0
 18 19  1  6  0  0  0
 18 24  1  0  0  0  0
 18 30  1  0  0  0  0
 20 21  1  0  0  0  0
 20 26  1  1  0  0  0
 22 23  1  1  0  0  0
 22 28  1  0  0  0  0
 24 25  1  0  0  0  0
 26 27  1  0  0  0  0
 28 29  1  6  0  0  0
M  END
>  <CHROM.1>
-143.45698263,162.13203442,-98.18601252,-153.77747197,-172.68715677,76.94494273
2.69172896,5.73283556,2.44548203,1.84893269,-0.00988773,0.87052301

>  <Name>
ligand

>  <RI>
0

>  <Rbt.Current_Directory>
/home/itssahil/PROJECTS/Mol_Feturizer/New_Systems/rnas/4GPX

>  <Rbt.Executable>
rbdock ($Id: //depot/dev/client3/rdock/2013.1/src/exe/rbdock.cxx#4 $)

>  <Rbt.Library>
libRbt.so (2013.1, Build901 2013/11/27)

>  <Rbt.Parameter_File>
/export/apps/rDock/src/rDock_2013.1_src/data/scripts/dock_solv.prm

>  <Rbt.Receptor>
prm/blind_docking_80.prm

>  <SCORE>
13.0318

>  <SCORE.INTER>
8.69612

>  <SCORE.INTER.CONST>
1

>  <SCORE.INTER.POLAR>
0

>  <SCORE.INTER.ROT>
6

>  <SCORE.INTER.SOLV>
22.039

>  <SCORE.INTER.VDW>
-9.14893

>  <SCORE.INTER.norm>
0.28052

>  <SCORE.INTRA>
-2.53834

>  <SCORE.INTRA.DIHEDRAL>
-5.81056

>  <SCORE.INTRA.DIHEDRAL.0>
20.6841

>  <SCORE.INTRA.POLAR>
0

>  <SCORE.INTRA.POLAR.0>
0

>  <SCORE.INTRA.REPUL>
0

>  <SCORE.INTRA.REPUL.0>
0

>  <SCORE.INTRA.SOLV>
0.148885

>  <SCORE.INTRA.SOLV.lig_0>
-64.6797

>  <SCORE.INTRA.VDW>
0.292497

>  <SCORE.INTRA.VDW.0>
-4.11825

>  <SCORE.INTRA.norm>
-0.0818819

>  <SCORE.RESTR>
6.87398

>  <SCORE.RESTR.CAVITY>
6.87398

>  <SCORE.RESTR.norm>
0.221741

>  <SCORE.SYSTEM>
0

>  <SCORE.SYSTEM.CONST>
0

>  <SCORE.SYSTEM.DIHEDRAL>
0

>  <SCORE.SYSTEM.SOLV>
0

>  <SCORE.SYSTEM.norm>
0

>  <SCORE.heavy>
31

>  <SCORE.norm>
0.420379

>  <RMSD>
12.124

$$$$
ligand
 OpenBabel11021811493D
libRbt.so/2013.1/901 2013/11/27
 31 33  0  0  0  0  0  0  0  0999 V2000
    1.4165    8.7211    3.3971 C   0  0  2  0  0  0  0  0  0  0  0  0
    2.8219    8.6742    3.1688 O   0  0  0  0  0  0  0  0  0  0  0  0
    5.2575    5.4304    1.8924 C   0  0  2  0  0  0  0  0  0  0  0  0
    6.0812    4.2621    1.9520 N   0  0  0  0  0  0  0  0  0  0  0  0
    2.9200    4.2624    0.3139 C   0  0  2  0  0  0  0  0  0  0  0  0
    1.0756   10.2127    3.8031 C   0  0  2  0  0  0  0  0  0  0  0  0
    1.4813   11.0988    2.7171 N   0  0  0  0  0  0  0  0  0  0  0  0
    5.9440    6.5696    2.7532 C   0  0  0  0  0  0  0  0  0  0  0  0
    1.5179    3.5993    0.1316 C   0  0  2  0  0  0  0  0  0  0  0  0
    0.6063    4.2415    0.9972 O   0  0  0  0  0  0  0  0  0  0  0  0
    1.8149   10.6004    5.1455 C   0  0  0  0  0  0  0  0  0  0  0  0
    5.0386    7.8564    2.6920 C   0  0  2  0  0  0  0  0  0  0  0  0
    5.6692    8.9178    3.4954 N   0  0  0  0  0  0  0  0  0  0  0  0
    1.6703    2.0752    0.5024 C   0  0  1  0  0  0  0  0  0  0  0  0
    0.3450    1.3855    0.3649 N   0  0  0  0  0  0  0  0  0  0  0  0
    1.8626    9.3952    6.1775 C   0  0  0  0  0  0  0  0  0  0  0  0
    3.5888    7.5231    3.2602 C   0  0  2  0  0  0  0  0  0  0  0  0
    2.7366    1.4095   -0.5361 C   0  0  1  0  0  0  0  0  0  0  0  0
    2.3286    1.5450   -1.8868 O   0  0  0  0  0  0  0  0  0  0  0  0
    1.4881    8.1416    5.8090 C   0  0  2  0  0  0  0  0  0  0  0  0
    1.0330    7.8324    4.4866 O   0  0  0  0  0  0  0  0  0  0  0  0
    2.9349    6.3835    2.3943 C   0  0  2  0  0  0  0  0  0  0  0  0
    1.6256    6.0809    2.9223 O   0  0  0  0  0  0  0  0  0  0  0  0
    4.1224    2.1207   -0.4037 C   0  0  0  0  0  0  0  0  0  0  0  0
    3.9400    3.6033   -0.5956 O   0  0  0  0  0  0  0  0  0  0  0  0
    1.5141    6.9494    6.7675 C   0  0  0  0  0  0  0  0  0  0  0  0
    1.3736    7.4541    8.1166 O   0  0  0  0  0  0  0  0  0  0  0  0
    3.8410    5.1005    2.4858 C   0  0  1  0  0  0  0  0  0  0  0  0
    3.2402    4.0939    1.7331 O   0  0  0  0  0  0  0  0  0  0  0  0
    3.0081   -0.0983   -0.3154 C   0  0  0  0  0  0  0  0  0  0  0  0
   -0.3916    1.6117   -0.8954 C   0  0  0  0  0  0  0  0  0  0  0  0
  1  2  1  1  0  0  0
  1  6  1  0  0  0  0
  1 21  1  0  0  0  0
  3  4  1  1  0  0  0
  3  8  1  0  0  0  0
  3 28  1  0  0  0  0
  5  9  1  0  0  0  0
  5 25  1  0  0  0  0
  5 29  1  1  0  0  0
  6  7  1  6  0  0  0
  6 11  1  0  0  0  0
  8 12  1  0  0  0  0
  9 10  1  1  0  0  0
  9 14  1  0  0  0  0
 11 16  1  0  0  0  0
 12 13  1  1  0  0  0
 12 17  1  0  0  0  0
 14 15  1  6  0  0  0
 14 18  1  0  0  0  0
 15 31  1  0  0  0  0
 16 20  1  0  0  0  0
 17  2  1  6  0  0  0
 17 22  1  0  0  0  0
 18 19  1  6  0  0  0
 18 24  1  0  0  0  0
 18 30  1  0  0  0  0
 20 21  1  0  0  0  0
 20 26  1  1  0  0  0
 22 23  1  1  0  0  0
 22 28  1  0  0  0  0
 24 25  1  0  0  0  0
 26 27  1  0  0  0  0
 28 29  1  6  0  0  0
M  END
>  <CHROM.1>
156.09183817,-139.21501311,49.33585506,170.45719139,26.02606235,-62.04749864
2.61286628,5.68370791,2.34833208,1.59405781,0.25557222,0.63910240

>  <Name>
ligand

>  <RI>
0

>  <Rbt.Current_Directory>
/home/itssahil/PROJECTS/Mol_Feturizer/New_Systems/rnas/4GPX

>  <Rbt.Executable>
rbdock ($Id: //depot/dev/client3/rdock/2013.1/src/exe/rbdock.cxx#4 $)

>  <Rbt.Library>
libRbt.so (2013.1, Build901 2013/11/27)

>  <Rbt.Parameter_File>
/export/apps/rDock/src/rDock_2013.1_src/data/scripts/dock_solv.prm

>  <Rbt.Receptor>
prm/blind_docking_80.prm

>  <SCORE>
13.052

>  <SCORE.INTER>
2.28145

>  <SCORE.INTER.CONST>
1

>  <SCORE.INTER.POLAR>
0

>  <SCORE.INTER.ROT>
6

>  <SCORE.INTER.SOLV>
15.1538

>  <SCORE.INTER.VDW>
-11.1303

>  <SCORE.INTER.norm>
0.0735953

>  <SCORE.INTRA>
-0.39437

>  <SCORE.INTRA.DIHEDRAL>
-9.6827

>  <SCORE.INTRA.DIHEDRAL.0>
20.6841

>  <SCORE.INTRA.POLAR>
0

>  <SCORE.INTRA.POLAR.0>
0

>  <SCORE.INTRA.REPUL>
0

>  <SCORE.INTRA.REPUL.0>
0

>  <SCORE.INTRA.SOLV>
-1.19198

>  <SCORE.INTRA.SOLV.lig_0>
-64.6797

>  <SCORE.INTRA.VDW>
5.04297

>  <SCORE.INTRA.VDW.0>
-4.11825

>  <SCORE.INTRA.norm>
-0.0127216

>  <SCORE.RESTR>
11.1649

>  <SCORE.RESTR.CAVITY>
11.1649

>  <SCORE.RESTR.norm>
0.360159

>  <SCORE.SYSTEM>
0

>  <SCORE.SYSTEM.CONST>
0

>  <SCORE.SYSTEM.DIHEDRAL>
0

>  <SCORE.SYSTEM.SOLV>
0

>  <SCORE.SYSTEM.norm>
0

>  <SCORE.heavy>
31

>  <SCORE.norm>
0.421033

>  <RMSD>
12.127

$$$$
ligand
 OpenBabel11021811493D
libRbt.so/2013.1/901 2013/11/27
 31 33  0  0  0  0  0  0  0  0999 V2000
    2.1582    8.6057    4.7018 C   0  0  2  0  0  0  0  0  0  0  0  0
    2.8237    7.4379    5.1736 O   0  0  0  0  0  0  0  0  0  0  0  0
    6.2720    7.1959    2.6969 C   0  0  2  0  0  0  0  0  0  0  0  0
    7.5706    6.8150    2.2326 N   0  0  0  0  0  0  0  0  0  0  0  0
    5.1560    3.8471    1.4419 C   0  0  2  0  0  0  0  0  0  0  0  0
    0.6271    8.4287    5.0632 C   0  0  2  0  0  0  0  0  0  0  0  0
    0.5011    8.2759    6.5088 N   0  0  0  0  0  0  0  0  0  0  0  0
    6.4317    7.8903    4.1119 C   0  0  0  0  0  0  0  0  0  0  0  0
    5.2421    3.5911   -0.0962 C   0  0  2  0  0  0  0  0  0  0  0  0
    6.4514    4.1424   -0.5719 O   0  0  0  0  0  0  0  0  0  0  0  0
    0.0267    7.1725    4.3147 C   0  0  0  0  0  0  0  0  0  0  0  0
    5.0038    8.3087    4.6273 C   0  0  2  0  0  0  0  0  0  0  0  0
    5.1454    8.9502    5.9456 N   0  0  0  0  0  0  0  0  0  0  0  0
    3.9997    4.2998   -0.7579 C   0  0  1  0  0  0  0  0  0  0  0  0
    4.0381    4.1048   -2.2451 N   0  0  0  0  0  0  0  0  0  0  0  0
    0.6104    7.0086    2.8477 C   0  0  0  0  0  0  0  0  0  0  0  0
    4.0722    7.0220    4.7378 C   0  0  2  0  0  0  0  0  0  0  0  0
    2.6494    3.6114   -0.1570 C   0  0  1  0  0  0  0  0  0  0  0  0
    2.6025    2.2158   -0.4008 O   0  0  0  0  0  0  0  0  0  0  0  0
    1.6585    7.7622    2.4221 C   0  0  2  0  0  0  0  0  0  0  0  0
    2.2932    8.7378    3.2568 O   0  0  0  0  0  0  0  0  0  0  0  0
    3.9389    6.3473    3.3225 C   0  0  2  0  0  0  0  0  0  0  0  0
    3.1013    5.1766    3.4338 O   0  0  0  0  0  0  0  0  0  0  0  0
    2.5980    3.8064    1.3932 C   0  0  0  0  0  0  0  0  0  0  0  0
    3.8681    3.2743    2.0030 O   0  0  0  0  0  0  0  0  0  0  0  0
    2.2540    7.6426    1.0179 C   0  0  0  0  0  0  0  0  0  0  0  0
    3.6117    8.1416    1.0614 O   0  0  0  0  0  0  0  0  0  0  0  0
    5.3713    5.9163    2.8346 C   0  0  1  0  0  0  0  0  0  0  0  0
    5.2366    5.3018    1.5917 O   0  0  0  0  0  0  0  0  0  0  0  0
    1.3225    4.1909   -0.7041 C   0  0  0  0  0  0  0  0  0  0  0  0
    3.5526    5.2278   -3.0729 C   0  0  0  0  0  0  0  0  0  0  0  0
  1  2  1  6  0  0  0
  1  6  1  0  0  0  0
  1 21  1  0  0  0  0
  3  4  1  1  0  0  0
  3  8  1  0  0  0  0
  3 28  1  0  0  0  0
  5  9  1  0  0  0  0
  5 25  1  0  0  0  0
  5 29  1  6  0  0  0
  6  7  1  1  0  0  0
  6 11  1  0  0  0  0
  8 12  1  0  0  0  0
  9 10  1  6  0  0  0
  9 14  1  0  0  0  0
 11 16  1  0  0  0  0
 12 13  1  1  0  0  0
 12 17  1  0  0  0  0
 14 15  1  6  0  0  0
 14 18  1  0  0  0  0
 15 31  1  0  0  0  0
 16 20  1  0  0  0  0
 17  2  1  6  0  0  0
 17 22  1  0  0  0  0
 18 19  1  6  0  0  0
 18 24  1  0  0  0  0
 18 30  1  0  0  0  0
 20 21  1  0  0  0  0
 20 26  1  6  0  0  0
 22 23  1  1  0  0  0
 22 28  1  0  0  0  0
 24 25  1  0  0  0  0
 26 27  1  0  0  0  0
 28 29  1  6  0  0  0
M  END
>  <CHROM.1>
160.95678131,-171.29641702,-144.49026607,42.04753355,-157.38299689,144.98248537
3.55024525,6.11860858,2.18416201,1.76966609,0.00217697,0.91760172

>  <Name>
ligand

>  <RI>
0

>  <Rbt.Current_Directory>
/home/itssahil/PROJECTS/Mol_Feturizer/New_Systems/rnas/4GPX

>  <Rbt.Executable>
rbdock ($Id: //depot/dev/client3/rdock/2013.1/src/exe/rbdock.cxx#4 $)

>  <Rbt.Library>
libRbt.so (2013.1, Build901 2013/11/27)

>  <Rbt.Parameter_File>
/export/apps/rDock/src/rDock_2013.1_src/data/scripts/dock_solv.prm

>  <Rbt.Receptor>
prm/blind_docking_80.prm

>  <SCORE>
39.0256

>  <SCORE.INTER>
30.9853

>  <SCORE.INTER.CONST>
1

>  <SCORE.INTER.POLAR>
0

>  <SCORE.INTER.ROT>
6

>  <SCORE.INTER.SOLV>
25.6639

>  <SCORE.INTER.VDW>
4.50222

>  <SCORE.INTER.norm>
0.999526

>  <SCORE.INTRA>
-0.964423

>  <SCORE.INTRA.DIHEDRAL>
-8.88221

>  <SCORE.INTRA.DIHEDRAL.0>
20.6841

>  <SCORE.INTRA.POLAR>
0

>  <SCORE.INTRA.POLAR.0>
0

>  <SCORE.INTRA.REPUL>
0

>  <SCORE.INTRA.REPUL.0>
0

>  <SCORE.INTRA.SOLV>
-0.234815

>  <SCORE.INTRA.SOLV.lig_0>
-64.6797

>  <SCORE.INTRA.VDW>
3.59409

>  <SCORE.INTRA.VDW.0>
-4.11825

>  <SCORE.INTRA.norm>
-0.0311104

>  <SCORE.RESTR>
9.00474

>  <SCORE.RESTR.CAVITY>
9.00474

>  <SCORE.RESTR.norm>
0.290476

>  <SCORE.SYSTEM>
0

>  <SCORE.SYSTEM.CONST>
0

>  <SCORE.SYSTEM.DIHEDRAL>
0

>  <SCORE.SYSTEM.SOLV>
0

>  <SCORE.SYSTEM.norm>
0

>  <SCORE.heavy>
31

>  <SCORE.norm>
1.25889

>  <RMSD>
12.128

$$$$
ligand
 OpenBabel11021811493D
libRbt.so/2013.1/901 2013/11/27
 31 33  0  0  0  0  0  0  0  0999 V2000
    0.3284    7.5763    4.3681 C   0  0  2  0  0  0  0  0  0  0  0  0
    1.5748    8.0123    3.8335 O   0  0  0  0  0  0  0  0  0  0  0  0
    4.7494    6.3493    1.5443 C   0  0  2  0  0  0  0  0  0  0  0  0
    5.8543    5.5148    1.1841 N   0  0  0  0  0  0  0  0  0  0  0  0
    3.8289    3.5099    0.2743 C   0  0  2  0  0  0  0  0  0  0  0  0
   -0.7466    8.6584    3.9446 C   0  0  2  0  0  0  0  0  0  0  0  0
   -0.7779    8.7434    2.4883 N   0  0  0  0  0  0  0  0  0  0  0  0
    5.1312    7.1419    2.8619 C   0  0  0  0  0  0  0  0  0  0  0  0
    3.4449    3.2820   -1.2221 C   0  0  2  0  0  0  0  0  0  0  0  0
    3.8664    4.4056   -1.9655 O   0  0  0  0  0  0  0  0  0  0  0  0
   -0.3930   10.0628    4.5782 C   0  0  0  0  0  0  0  0  0  0  0  0
    3.9162    8.0597    3.2629 C   0  0  2  0  0  0  0  0  0  0  0  0
    4.2633    8.7953    4.4909 N   0  0  0  0  0  0  0  0  0  0  0  0
    1.8784    3.1201   -1.2830 C   0  0  1  0  0  0  0  0  0  0  0  0
    1.4451    2.9171   -2.7050 N   0  0  0  0  0  0  0  0  0  0  0  0
    0.1932    9.9311    6.0475 C   0  0  0  0  0  0  0  0  0  0  0  0
    2.6212    7.1649    3.5041 C   0  0  2  0  0  0  0  0  0  0  0  0
    1.4740    1.8091   -0.4021 C   0  0  1  0  0  0  0  0  0  0  0  0
    2.1054    0.6298   -0.8712 O   0  0  0  0  0  0  0  0  0  0  0  0
    0.5302    8.7188    6.5618 C   0  0  2  0  0  0  0  0  0  0  0  0
    0.3798    7.5013    5.8226 O   0  0  0  0  0  0  0  0  0  0  0  0
    2.2707    6.3822    2.1847 C   0  0  2  0  0  0  0  0  0  0  0  0
    1.1021    5.5664    2.4153 O   0  0  0  0  0  0  0  0  0  0  0  0
    1.9218    2.0074    1.0825 C   0  0  0  0  0  0  0  0  0  0  0  0
    3.3929    2.3274    1.1191 O   0  0  0  0  0  0  0  0  0  0  0  0
    1.0958    8.5409    7.9721 C   0  0  0  0  0  0  0  0  0  0  0  0
    1.5918    7.1864    8.0899 O   0  0  0  0  0  0  0  0  0  0  0  0
    3.4862    5.4550    1.8128 C   0  0  1  0  0  0  0  0  0  0  0  0
    3.1546    4.7527    0.6563 O   0  0  0  0  0  0  0  0  0  0  0  0
   -0.0414    1.4980   -0.3527 C   0  0  0  0  0  0  0  0  0  0  0  0
    2.3276    3.4717   -3.7518 C   0  0  0  0  0  0  0  0  0  0  0  0
  1  2  1  1  0  0  0
  1  6  1  0  0  0  0
  1 21  1  0  0  0  0
  3  4  1  1  0  0  0
  3  8  1  0  0  0  0
  3 28  1  0  0  0  0
  5  9  1  0  0  0  0
  5 25  1  0  0  0  0
  5 29  1  1  0  0  0
  6  7  1  6  0  0  0
  6 11  1  0  0  0  0
  8 12  1  0  0  0  0
  9 10  1  6  0  0  0
  9 14  1  0  0  0  0
 11 16  1  0  0  0  0
 12 13  1  1  0  0  0
 12 17  1  0  0  0  0
 14 15  1  6  0  0  0
 14 18  1  0  0  0  0
 15 31  1  0  0  0  0
 16 20  1  0  0  0  0
 17  2  1  6  0  0  0
 17 22  1  0  0  0  0
 18 19  1  6  0  0  0
 18 24  1  0  0  0  0
 18 30  1  0  0  0  0
 20 21  1  0  0  0  0
 20 26  1  1  0  0  0
 22 23  1  1  0  0  0
 22 28  1  0  0  0  0
 24 25  1  0  0  0  0
 26 27  1  0  0  0  0
 28 29  1  6  0  0  0
M  END
>  <CHROM.1>
-153.10584469,-165.06640830,-25.99024788,-167.37544252,-168.48739131,81.93685935
2.12042984,5.74308488,2.17672023,1.74134490,0.20225365,0.82355723

>  <Name>
ligand

>  <RI>
0

>  <Rbt.Current_Directory>
/home/itssahil/PROJECTS/Mol_Feturizer/New_Systems/rnas/4GPX

>  <Rbt.Executable>
rbdock ($Id: //depot/dev/client3/rdock/2013.1/src/exe/rbdock.cxx#4 $)

>  <Rbt.Library>
libRbt.so (2013.1, Build901 2013/11/27)

>  <Rbt.Parameter_File>
/export/apps/rDock/src/rDock_2013.1_src/data/scripts/dock_solv.prm

>  <Rbt.Receptor>
prm/blind_docking_80.prm

>  <SCORE>
19.3411

>  <SCORE.INTER>
7.03119

>  <SCORE.INTER.CONST>
1

>  <SCORE.INTER.POLAR>
0

>  <SCORE.INTER.ROT>
6

>  <SCORE.INTER.SOLV>
18.8687

>  <SCORE.INTER.VDW>
-9.20211

>  <SCORE.INTER.norm>
0.226813

>  <SCORE.INTRA>
2.90147

>  <SCORE.INTRA.DIHEDRAL>
-9.57683

>  <SCORE.INTRA.DIHEDRAL.0>
20.6841

>  <SCORE.INTRA.POLAR>
0

>  <SCORE.INTRA.POLAR.0>
0

>  <SCORE.INTRA.REPUL>
0

>  <SCORE.INTRA.REPUL.0>
0

>  <SCORE.INTRA.SOLV>
-0.868977

>  <SCORE.INTRA.SOLV.lig_0>
-64.6797

>  <SCORE.INTRA.VDW>
8.12437

>  <SCORE.INTRA.VDW.0>
-4.11825

>  <SCORE.INTRA.norm>
0.0935957

>  <SCORE.RESTR>
9.40847

>  <SCORE.RESTR.CAVITY>
9.40847

>  <SCORE.RESTR.norm>
0.303499

>  <SCORE.SYSTEM>
0

>  <SCORE.SYSTEM.CONST>
0

>  <SCORE.SYSTEM.DIHEDRAL>
0

>  <SCORE.SYSTEM.SOLV>
0

>  <SCORE.SYSTEM.norm>
0

>  <SCORE.heavy>
31

>  <SCORE.norm>
0.623907

>  <RMSD>
12.129

$$$$
ligand
 OpenBabel11021811493D
libRbt.so/2013.1/901 2013/11/27
 31 33  0  0  0  0  0  0  0  0999 V2000
  -10.1060   19.5499    0.4331 C   0  0  2  0  0  0  0  0  0  0  0  0
   -8.9803   18.6772    0.4178 O   0  0  0  0  0  0  0  0  0  0  0  0
  -10.6303   15.0341   -1.0275 C   0  0  2  0  0  0  0  0  0  0  0  0
  -10.7044   13.6919   -1.5174 N   0  0  0  0  0  0  0  0  0  0  0  0
  -10.3456   13.9945    2.6491 C   0  0  2  0  0  0  0  0  0  0  0  0
   -9.5764   20.9599    0.9203 C   0  0  2  0  0  0  0  0  0  0  0  0
   -8.5441   21.4179   -0.0036 N   0  0  0  0  0  0  0  0  0  0  0  0
   -9.7340   15.8800   -2.0230 C   0  0  0  0  0  0  0  0  0  0  0  0
  -10.6699   12.4820    2.8632 C   0  0  2  0  0  0  0  0  0  0  0  0
   -9.9691   11.7349    1.8919 O   0  0  0  0  0  0  0  0  0  0  0  0
   -9.0034   20.8548    2.3898 C   0  0  0  0  0  0  0  0  0  0  0  0
   -9.6481   17.3575   -1.4855 C   0  0  2  0  0  0  0  0  0  0  0  0
   -8.8111   18.1479   -2.4044 N   0  0  0  0  0  0  0  0  0  0  0  0
  -12.2271   12.3095    2.6929 C   0  0  1  0  0  0  0  0  0  0  0  0
  -12.5991   10.8667    2.8687 N   0  0  0  0  0  0  0  0  0  0  0  0
   -9.8537   19.8705    3.2997 C   0  0  0  0  0  0  0  0  0  0  0  0
   -9.0179   17.3635   -0.0231 C   0  0  2  0  0  0  0  0  0  0  0  0
  -12.9605   13.2012    3.8441 C   0  0  1  0  0  0  0  0  0  0  0  0
  -12.5672   12.8205    5.1517 O   0  0  0  0  0  0  0  0  0  0  0  0
  -10.8173   19.0762    2.7629 C   0  0  2  0  0  0  0  0  0  0  0  0
  -11.1230   19.0768    1.3636 O   0  0  0  0  0  0  0  0  0  0  0  0
   -9.9214   16.5092    0.9413 C   0  0  2  0  0  0  0  0  0  0  0  0
   -9.3376   16.5118    2.2618 O   0  0  0  0  0  0  0  0  0  0  0  0
  -12.5796   14.7076    3.6728 C   0  0  0  0  0  0  0  0  0  0  0  0
  -11.0798   14.8434    3.6699 O   0  0  0  0  0  0  0  0  0  0  0  0
  -11.6641   18.1142    3.5984 C   0  0  0  0  0  0  0  0  0  0  0  0
  -12.4949   18.9005    4.4849 O   0  0  0  0  0  0  0  0  0  0  0  0
   -9.9768   15.0326    0.4009 C   0  0  1  0  0  0  0  0  0  0  0  0
  -10.7613   14.2830    1.2746 O   0  0  0  0  0  0  0  0  0  0  0  0
  -14.5073   13.1473    3.8247 C   0  0  0  0  0  0  0  0  0  0  0  0
  -12.3522    9.9741    1.7178 C   0  0  0  0  0  0  0  0  0  0  0  0
  1  2  1  1  0  0  0
  1  6  1  0  0  0  0
  1 21  1  0  0  0  0
  3  4  1  6  0  0  0
  3  8  1  0  0  0  0
  3 28  1  0  0  0  0
  5  9  1  0  0  0  0
  5 25  1  0  0  0  0
  5 29  1  6  0  0  0
  6  7  1  6  0  0  0
  6 11  1  0  0  0  0
  8 12  1  0  0  0  0
  9 10  1  6  0  0  0
  9 14  1  0  0  0  0
 11 16  1  0  0  0  0
 12 13  1  6  0  0  0
 12 17  1  0  0  0  0
 14 15  1  1  0  0  0
 14 18  1  0  0  0  0
 15 31  1  0  0  0  0
 16 20  1  0  0  0  0
 17  2  1  1  0  0  0
 17 22  1  0  0  0  0
 18 19  1  1  0  0  0
 18 24  1  0  0  0  0
 18 30  1  0  0  0  0
 20 21  1  0  0  0  0
 20 26  1  1  0  0  0
 22 23  1  1  0  0  0
 22 28  1  0  0  0  0
 24 25  1  0  0  0  0
 26 27  1  0  0  0  0
 28 29  1  1  0  0  0
M  END
>  <CHROM.1>
-176.36260741,-135.79179758,-78.61465974,53.06064730,66.22600629,174.20171363
-10.74393947,15.99136968,1.68675807,0.82461201,1.08316800,0.40737951

>  <Name>
ligand

>  <RI>
0

>  <Rbt.Current_Directory>
/home/itssahil/PROJECTS/Mol_Feturizer/New_Systems/rnas/4GPX

>  <Rbt.Executable>
rbdock ($Id: //depot/dev/client3/rdock/2013.1/src/exe/rbdock.cxx#4 $)

>  <Rbt.Library>
libRbt.so (2013.1, Build901 2013/11/27)

>  <Rbt.Parameter_File>
/export/apps/rDock/src/rDock_2013.1_src/data/scripts/dock_solv.prm

>  <Rbt.Receptor>
prm/blind_docking_100.prm

>  <SCORE>
6.34905

>  <SCORE.INTER>
4.31715

>  <SCORE.INTER.CONST>
1

>  <SCORE.INTER.POLAR>
0

>  <SCORE.INTER.ROT>
6

>  <SCORE.INTER.SOLV>
17.6692

>  <SCORE.INTER.VDW>
-10.6116

>  <SCORE.INTER.norm>
0.139263

>  <SCORE.INTRA>
-4.64772

>  <SCORE.INTRA.DIHEDRAL>
-10.354

>  <SCORE.INTRA.DIHEDRAL.0>
20.6841

>  <SCORE.INTRA.POLAR>
0

>  <SCORE.INTRA.POLAR.0>
0

>  <SCORE.INTRA.REPUL>
0

>  <SCORE.INTRA.REPUL.0>
0

>  <SCORE.INTRA.SOLV>
-1.4006

>  <SCORE.INTRA.SOLV.lig_0>
-64.6797

>  <SCORE.INTRA.VDW>
1.22958

>  <SCORE.INTRA.VDW.0>
-4.11825

>  <SCORE.INTRA.norm>
-0.149927

>  <SCORE.RESTR>
6.67962

>  <SCORE.RESTR.CAVITY>
6.67962

>  <SCORE.RESTR.norm>
0.215471

>  <SCORE.SYSTEM>
0

>  <SCORE.SYSTEM.CONST>
0

>  <SCORE.SYSTEM.DIHEDRAL>
0

>  <SCORE.SYSTEM.SOLV>
0

>  <SCORE.SYSTEM.norm>
0

>  <SCORE.heavy>
31

>  <SCORE.norm>
0.204808

>  <RMSD>
12.134

$$$$
ligand
 OpenBabel11021811493D
libRbt.so/2013.1/901 2013/11/27
 31 33  0  0  0  0  0  0  0  0999 V2000
    0.7200    7.2103    4.8080 C   0  0  2  0  0  0  0  0  0  0  0  0
    1.9144    7.7035    4.2085 O   0  0  0  0  0  0  0  0  0  0  0  0
    5.2776    6.4499    1.9278 C   0  0  2  0  0  0  0  0  0  0  0  0
    6.3947    5.6662    1.4979 N   0  0  0  0  0  0  0  0  0  0  0  0
    4.4935    4.0708   -0.0722 C   0  0  2  0  0  0  0  0  0  0  0  0
   -0.4778    8.0074    4.1479 C   0  0  2  0  0  0  0  0  0  0  0  0
   -0.4562    7.7780    2.7070 N   0  0  0  0  0  0  0  0  0  0  0  0
    5.5333    6.9052    3.4235 C   0  0  0  0  0  0  0  0  0  0  0  0
    3.7844    3.8145   -1.4398 C   0  0  2  0  0  0  0  0  0  0  0  0
    3.8216    5.0091   -2.1908 O   0  0  0  0  0  0  0  0  0  0  0  0
   -0.3555    9.5503    4.4693 C   0  0  0  0  0  0  0  0  0  0  0  0
    4.3043    7.7660    3.9010 C   0  0  2  0  0  0  0  0  0  0  0  0
    4.5339    8.1879    5.2934 N   0  0  0  0  0  0  0  0  0  0  0  0
    2.2993    3.3922   -1.1239 C   0  0  1  0  0  0  0  0  0  0  0  0
    1.5580    3.1504   -2.4057 N   0  0  0  0  0  0  0  0  0  0  0  0
    0.1775    9.8196    5.9400 C   0  0  0  0  0  0  0  0  0  0  0  0
    2.9698    6.9031    3.7996 C   0  0  2  0  0  0  0  0  0  0  0  0
    2.3428    2.0127   -0.2559 C   0  0  1  0  0  0  0  0  0  0  0  0
    3.0127    0.9673   -0.9399 O   0  0  0  0  0  0  0  0  0  0  0  0
    0.6600    8.8065    6.7072 C   0  0  2  0  0  0  0  0  0  0  0  0
    0.7169    7.4520    6.2452 O   0  0  0  0  0  0  0  0  0  0  0  0
    2.7456    6.4563    2.3076 C   0  0  2  0  0  0  0  0  0  0  0  0
    1.5397    5.6665    2.2267 O   0  0  0  0  0  0  0  0  0  0  0  0
    3.1144    2.2509    1.0826 C   0  0  0  0  0  0  0  0  0  0  0  0
    4.4775    2.8134    0.7767 O   0  0  0  0  0  0  0  0  0  0  0  0
    1.1819    9.0155    8.1300 C   0  0  0  0  0  0  0  0  0  0  0  0
    1.5336    7.7216    8.6745 O   0  0  0  0  0  0  0  0  0  0  0  0
    3.9717    5.5797    1.8561 C   0  0  1  0  0  0  0  0  0  0  0  0
    3.7506    5.1734    0.5421 O   0  0  0  0  0  0  0  0  0  0  0  0
    0.9577    1.4496    0.1445 C   0  0  0  0  0  0  0  0  0  0  0  0
    0.1383    3.5576   -2.4366 C   0  0  0  0  0  0  0  0  0  0  0  0
  1  2  1  6  0  0  0
  1  6  1  0  0  0  0
  1 21  1  0  0  0  0
  3  4  1  1  0  0  0
  3  8  1  0  0  0  0
  3 28  1  0  0  0  0
  5  9  1  0  0  0  0
  5 25  1  0  0  0  0
  5 29  1  1  0  0  0
  6  7  1  6  0  0  0
  6 11  1  0  0  0  0
  8 12  1  0  0  0  0
  9 10  1  6  0  0  0
  9 14  1  0  0  0  0
 11 16  1  0  0  0  0
 12 13  1  1  0  0  0
 12 17  1  0  0  0  0
 14 15  1  6  0  0  0
 14 18  1  0  0  0  0
 15 31  1  0  0  0  0
 16 20  1  0  0  0  0
 17  2  1  6  0  0  0
 17 22  1  0  0  0  0
 18 19  1  6  0  0  0
 18 24  1  0  0  0  0
 18 30  1  0  0  0  0
 20 21  1  0  0  0  0
 20 26  1  1  0  0  0
 22 23  1  1  0  0  0
 22 28  1  0  0  0  0
 24 25  1  0  0  0  0
 26 27  1  0  0  0  0
 28 29  1  6  0  0  0
M  END
>  <CHROM.1>
-137.43623656,171.38762797,-143.48470001,-151.42467958,176.42407840,77.99890354
2.46009221,5.79022190,2.38230849,1.75886309,-0.00773150,0.91411908

>  <Name>
ligand

>  <RI>
0

>  <Rbt.Current_Directory>
/home/itssahil/PROJECTS/Mol_Feturizer/New_Systems/rnas/4GPX

>  <Rbt.Executable>
rbdock ($Id: //depot/dev/client3/rdock/2013.1/src/exe/rbdock.cxx#4 $)

>  <Rbt.Library>
libRbt.so (2013.1, Build901 2013/11/27)

>  <Rbt.Parameter_File>
/export/apps/rDock/src/rDock_2013.1_src/data/scripts/dock_solv.prm

>  <Rbt.Receptor>
prm/blind_docking_80.prm

>  <SCORE>
10.6419

>  <SCORE.INTER>
4.65344

>  <SCORE.INTER.CONST>
1

>  <SCORE.INTER.POLAR>
0

>  <SCORE.INTER.ROT>
6

>  <SCORE.INTER.SOLV>
21.1715

>  <SCORE.INTER.VDW>
-11.5549

>  <SCORE.INTER.norm>
0.150111

>  <SCORE.INTRA>
-2.18108

>  <SCORE.INTRA.DIHEDRAL>
-5.32482

>  <SCORE.INTRA.DIHEDRAL.0>
20.6841

>  <SCORE.INTRA.POLAR>
0

>  <SCORE.INTRA.POLAR.0>
0

>  <SCORE.INTRA.REPUL>
0

>  <SCORE.INTRA.REPUL.0>
0

>  <SCORE.INTRA.SOLV>
-0.0157359

>  <SCORE.INTRA.SOLV.lig_0>
-64.6797

>  <SCORE.INTRA.VDW>
0.489196

>  <SCORE.INTRA.VDW.0>
-4.11825

>  <SCORE.INTRA.norm>
-0.0703575

>  <SCORE.RESTR>
8.16956

>  <SCORE.RESTR.CAVITY>
8.16956

>  <SCORE.RESTR.norm>
0.263534

>  <SCORE.SYSTEM>
0

>  <SCORE.SYSTEM.CONST>
0

>  <SCORE.SYSTEM.DIHEDRAL>
0

>  <SCORE.SYSTEM.SOLV>
0

>  <SCORE.SYSTEM.norm>
0

>  <SCORE.heavy>
31

>  <SCORE.norm>
0.343288

>  <RMSD>
12.152

$$$$
ligand
 OpenBabel11021811493D
libRbt.so/2013.1/901 2013/11/27
 31 33  0  0  0  0  0  0  0  0999 V2000
    2.5863    9.1132    4.0470 C   0  0  2  0  0  0  0  0  0  0  0  0
    3.5816    8.1463    3.7250 O   0  0  0  0  0  0  0  0  0  0  0  0
    3.3514    7.7228   -0.5001 C   0  0  2  0  0  0  0  0  0  0  0  0
    3.7474    7.4559   -1.8488 N   0  0  0  0  0  0  0  0  0  0  0  0
    3.1469    4.5505   -1.2544 C   0  0  2  0  0  0  0  0  0  0  0  0
    2.4852    9.1469    5.6264 C   0  0  2  0  0  0  0  0  0  0  0  0
    3.7901    9.5052    6.1723 N   0  0  0  0  0  0  0  0  0  0  0  0
    4.2759    8.8746    0.0729 C   0  0  0  0  0  0  0  0  0  0  0  0
    2.0088    3.4924   -1.4092 C   0  0  2  0  0  0  0  0  0  0  0  0
    0.7973    4.1747   -1.6531 O   0  0  0  0  0  0  0  0  0  0  0  0
    2.0162    7.7416    6.1780 C   0  0  0  0  0  0  0  0  0  0  0  0
    3.8444    9.1693    1.5583 C   0  0  2  0  0  0  0  0  0  0  0  0
    4.7045   10.2361    2.0986 N   0  0  0  0  0  0  0  0  0  0  0  0
    1.9382    2.6815   -0.0597 C   0  0  1  0  0  0  0  0  0  0  0  0
    0.8444    1.6577   -0.1407 N   0  0  0  0  0  0  0  0  0  0  0  0
    0.9343    7.0562    5.2403 C   0  0  0  0  0  0  0  0  0  0  0  0
    3.9900    7.8476    2.4344 C   0  0  2  0  0  0  0  0  0  0  0  0
    3.3692    1.9285    0.1497 C   0  0  1  0  0  0  0  0  0  0  0  0
    3.6829    1.0602   -0.9260 O   0  0  0  0  0  0  0  0  0  0  0  0
    0.6467    7.5654    4.0132 C   0  0  2  0  0  0  0  0  0  0  0  0
    1.2911    8.7353    3.4958 O   0  0  0  0  0  0  0  0  0  0  0  0
    3.0701    6.7187    1.8381 C   0  0  2  0  0  0  0  0  0  0  0  0
    3.2158    5.5216    2.6321 O   0  0  0  0  0  0  0  0  0  0  0  0
    4.5184    2.9850    0.2341 C   0  0  0  0  0  0  0  0  0  0  0  0
    4.4741    3.8657   -0.9867 O   0  0  0  0  0  0  0  0  0  0  0  0
   -0.3889    6.9425    3.0752 C   0  0  0  0  0  0  0  0  0  0  0  0
   -1.4666    7.8925    2.9010 O   0  0  0  0  0  0  0  0  0  0  0  0
    3.5304    6.4226    0.3630 C   0  0  1  0  0  0  0  0  0  0  0  0
    2.7227    5.4077   -0.1451 O   0  0  0  0  0  0  0  0  0  0  0  0
    3.4764    1.0775    1.4380 C   0  0  0  0  0  0  0  0  0  0  0  0
    0.2547    1.2160    1.1397 C   0  0  0  0  0  0  0  0  0  0  0  0
  1  2  1  1  0  0  0
  1  6  1  0  0  0  0
  1 21  1  0  0  0  0
  3  4  1  6  0  0  0
  3  8  1  0  0  0  0
  3 28  1  0  0  0  0
  5  9  1  0  0  0  0
  5 25  1  0  0  0  0
  5 29  1  1  0  0  0
  6  7  1  1  0  0  0
  6 11  1  0  0  0  0
  8 12  1  0  0  0  0
  9 10  1  1  0  0  0
  9 14  1  0  0  0  0
 11 16  1  0  0  0  0
 12 13  1  1  0  0  0
 12 17  1  0  0  0  0
 14 15  1  6  0  0  0
 14 18  1  0  0  0  0
 15 31  1  0  0  0  0
 16 20  1  0  0  0  0
 17  2  1  1  0  0  0
 17 22  1  0  0  0  0
 18 19  1  6  0  0  0
 18 24  1  0  0  0  0
 18 30  1  0  0  0  0
 20 21  1  0  0  0  0
 20 26  1  1  0  0  0
 22 23  1  1  0  0  0
 22 28  1  0  0  0  0
 24 25  1  0  0  0  0
 26 27  1  0  0  0  0
 28 29  1  6  0  0  0
M  END
>  <CHROM.1>
-178.22988416,175.22125055,-155.00114574,30.90131997,115.48004462,84.32528414
2.57205845,5.95968094,1.58763568,1.61301555,0.86059878,0.60317345

>  <Name>
ligand

>  <RI>
0

>  <Rbt.Current_Directory>
/home/itssahil/PROJECTS/Mol_Feturizer/New_Systems/rnas/4GPX

>  <Rbt.Executable>
rbdock ($Id: //depot/dev/client3/rdock/2013.1/src/exe/rbdock.cxx#4 $)

>  <Rbt.Library>
libRbt.so (2013.1, Build901 2013/11/27)

>  <Rbt.Parameter_File>
/export/apps/rDock/src/rDock_2013.1_src/data/scripts/dock_solv.prm

>  <Rbt.Receptor>
prm/blind_docking_80.prm

>  <SCORE>
12.7583

>  <SCORE.INTER>
6.42977

>  <SCORE.INTER.CONST>
1

>  <SCORE.INTER.POLAR>
0

>  <SCORE.INTER.ROT>
6

>  <SCORE.INTER.SOLV>
18.7875

>  <SCORE.INTER.VDW>
-9.57597

>  <SCORE.INTER.norm>
0.207412

>  <SCORE.INTRA>
-5.56926

>  <SCORE.INTRA.DIHEDRAL>
-12.42

>  <SCORE.INTRA.DIHEDRAL.0>
20.6841

>  <SCORE.INTRA.POLAR>
0

>  <SCORE.INTRA.POLAR.0>
0

>  <SCORE.INTRA.REPUL>
0

>  <SCORE.INTRA.REPUL.0>
0

>  <SCORE.INTRA.SOLV>
-1.09909

>  <SCORE.INTRA.SOLV.lig_0>
-64.6797

>  <SCORE.INTRA.VDW>
1.19029

>  <SCORE.INTRA.VDW.0>
-4.11825

>  <SCORE.INTRA.norm>
-0.179654

>  <SCORE.RESTR>
11.8978

>  <SCORE.RESTR.CAVITY>
11.8978

>  <SCORE.RESTR.norm>
0.3838

>  <SCORE.SYSTEM>
0

>  <SCORE.SYSTEM.CONST>
0

>  <SCORE.SYSTEM.DIHEDRAL>
0

>  <SCORE.SYSTEM.SOLV>
0

>  <SCORE.SYSTEM.norm>
0

>  <SCORE.heavy>
31

>  <SCORE.norm>
0.411558

>  <RMSD>
12.160

$$$$
ligand
 OpenBabel11021811493D
libRbt.so/2013.1/901 2013/11/27
 31 33  0  0  0  0  0  0  0  0999 V2000
    0.8256    7.2175    4.9432 C   0  0  2  0  0  0  0  0  0  0  0  0
    1.9675    7.7066    4.2459 O   0  0  0  0  0  0  0  0  0  0  0  0
    5.2898    6.4640    1.9003 C   0  0  2  0  0  0  0  0  0  0  0  0
    6.4038    5.6865    1.4515 N   0  0  0  0  0  0  0  0  0  0  0  0
    4.4822    4.0634   -0.0642 C   0  0  2  0  0  0  0  0  0  0  0  0
   -0.4325    7.9402    4.3102 C   0  0  2  0  0  0  0  0  0  0  0  0
   -0.4870    7.6253    2.8864 N   0  0  0  0  0  0  0  0  0  0  0  0
    5.5748    6.9329    3.3866 C   0  0  0  0  0  0  0  0  0  0  0  0
    3.7650    3.8124   -1.4284 C   0  0  2  0  0  0  0  0  0  0  0  0
    3.7984    5.0097   -2.1754 O   0  0  0  0  0  0  0  0  0  0  0  0
   -0.3399    9.5024    4.5331 C   0  0  0  0  0  0  0  0  0  0  0  0
    4.3493    7.7869    3.8849 C   0  0  2  0  0  0  0  0  0  0  0  0
    4.6062    8.2212    5.2687 N   0  0  0  0  0  0  0  0  0  0  0  0
    2.2815    3.3898   -1.1054 C   0  0  1  0  0  0  0  0  0  0  0  0
    1.5326    3.1530   -2.3837 N   0  0  0  0  0  0  0  0  0  0  0  0
    0.2686    9.8742    5.9513 C   0  0  0  0  0  0  0  0  0  0  0  0
    3.0204    6.9120    3.8196 C   0  0  2  0  0  0  0  0  0  0  0  0
    2.3293    2.0071   -0.2426 C   0  0  1  0  0  0  0  0  0  0  0  0
    2.9946    0.9639   -0.9343 O   0  0  0  0  0  0  0  0  0  0  0  0
    0.8259    8.9227    6.7462 C   0  0  2  0  0  0  0  0  0  0  0  0
    0.8980    7.5449    6.3615 O   0  0  0  0  0  0  0  0  0  0  0  0
    2.7670    6.4520    2.3363 C   0  0  2  0  0  0  0  0  0  0  0  0
    1.5664    5.6515    2.2881 O   0  0  0  0  0  0  0  0  0  0  0  0
    3.1089    2.2402    1.0922 C   0  0  0  0  0  0  0  0  0  0  0  0
    4.4705    2.8030    0.7803 O   0  0  0  0  0  0  0  0  0  0  0  0
    1.4224    9.2312    8.1208 C   0  0  0  0  0  0  0  0  0  0  0  0
    1.4812    7.9961    8.8728 O   0  0  0  0  0  0  0  0  0  0  0  0
    3.9902    5.5824    1.8642 C   0  0  1  0  0  0  0  0  0  0  0  0
    3.7435    5.1642    0.5584 O   0  0  0  0  0  0  0  0  0  0  0  0
    0.9463    1.4434    0.1638 C   0  0  0  0  0  0  0  0  0  0  0  0
    0.9806    4.3455   -3.0585 C   0  0  0  0  0  0  0  0  0  0  0  0
  1  2  1  6  0  0  0
  1  6  1  0  0  0  0
  1 21  1  0  0  0  0
  3  4  1  1  0  0  0
  3  8  1  0  0  0  0
  3 28  1  0  0  0  0
  5  9  1  0  0  0  0
  5 25  1  0  0  0  0
  5 29  1  1  0  0  0
  6  7  1  6  0  0  0
  6 11  1  0  0  0  0
  8 12  1  0  0  0  0
  9 10  1  6  0  0  0
  9 14  1  0  0  0  0
 11 16  1  0  0  0  0
 12 13  1  1  0  0  0
 12 17  1  0  0  0  0
 14 15  1  6  0  0  0
 14 18  1  0  0  0  0
 15 31  1  0  0  0  0
 16 20  1  0  0  0  0
 17  2  1  6  0  0  0
 17 22  1  0  0  0  0
 18 19  1  6  0  0  0
 18 24  1  0  0  0  0
 18 30  1  0  0  0  0
 20 21  1  0  0  0  0
 20 26  1  1  0  0  0
 22 23  1  1  0  0  0
 22 28  1  0  0  0  0
 24 25  1  0  0  0  0
 26 27  1  0  0  0  0
 28 29  1  6  0  0  0
M  END
>  <CHROM.1>
-137.27652693,172.63948650,-82.50658795,-147.69369381,159.89322834,77.98769009
2.51908170,5.83606646,2.39547369,1.75475298,-0.01094838,0.92636666

>  <Name>
ligand

>  <RI>
0

>  <Rbt.Current_Directory>
/home/itssahil/PROJECTS/Mol_Feturizer/New_Systems/rnas/4GPX

>  <Rbt.Executable>
rbdock ($Id: //depot/dev/client3/rdock/2013.1/src/exe/rbdock.cxx#4 $)

>  <Rbt.Library>
libRbt.so (2013.1, Build901 2013/11/27)

>  <Rbt.Parameter_File>
/export/apps/rDock/src/rDock_2013.1_src/data/scripts/dock_solv.prm

>  <Rbt.Receptor>
prm/blind_docking_80.prm

>  <SCORE>
9.8524

>  <SCORE.INTER>
3.50611

>  <SCORE.INTER.CONST>
1

>  <SCORE.INTER.POLAR>
0

>  <SCORE.INTER.ROT>
6

>  <SCORE.INTER.SOLV>
21.3365

>  <SCORE.INTER.VDW>
-12.3747

>  <SCORE.INTER.norm>
0.1131

>  <SCORE.INTRA>
-2.03878

>  <SCORE.INTRA.DIHEDRAL>
-5.59456

>  <SCORE.INTRA.DIHEDRAL.0>
20.6841

>  <SCORE.INTRA.POLAR>
0

>  <SCORE.INTRA.POLAR.0>
0

>  <SCORE.INTRA.REPUL>
0

>  <SCORE.INTRA.REPUL.0>
0

>  <SCORE.INTRA.SOLV>
0.246277

>  <SCORE.INTRA.SOLV.lig_0>
-64.6797

>  <SCORE.INTRA.VDW>
0.635364

>  <SCORE.INTRA.VDW.0>
-4.11825

>  <SCORE.INTRA.norm>
-0.065767

>  <SCORE.RESTR>
8.38506

>  <SCORE.RESTR.CAVITY>
8.38506

>  <SCORE.RESTR.norm>
0.270486

>  <SCORE.SYSTEM>
0

>  <SCORE.SYSTEM.CONST>
0

>  <SCORE.SYSTEM.DIHEDRAL>
0

>  <SCORE.SYSTEM.SOLV>
0

>  <SCORE.SYSTEM.norm>
0

>  <SCORE.heavy>
31

>  <SCORE.norm>
0.317819

>  <RMSD>
12.169

$$$$
ligand
 OpenBabel11021811493D
libRbt.so/2013.1/901 2013/11/27
 31 33  0  0  0  0  0  0  0  0999 V2000
    3.2981    2.1612    0.0211 C   0  0  2  0  0  0  0  0  0  0  0  0
    3.4299    2.9479    1.2013 O   0  0  0  0  0  0  0  0  0  0  0  0
    5.6485    6.2238    2.7603 C   0  0  2  0  0  0  0  0  0  0  0  0
    6.3051    7.4931    2.8277 N   0  0  0  0  0  0  0  0  0  0  0  0
    2.9931    8.5252    3.2714 C   0  0  2  0  0  0  0  0  0  0  0  0
    2.8364    3.1470   -1.1282 C   0  0  2  0  0  0  0  0  0  0  0  0
    3.8417    4.1937   -1.2802 N   0  0  0  0  0  0  0  0  0  0  0  0
    6.3052    5.3836    1.5887 C   0  0  0  0  0  0  0  0  0  0  0  0
    2.2650    8.8873    4.6046 C   0  0  2  0  0  0  0  0  0  0  0  0
    3.2056    8.8282    5.6555 O   0  0  0  0  0  0  0  0  0  0  0  0
    1.4266    3.7732   -0.7829 C   0  0  0  0  0  0  0  0  0  0  0  0
    5.5830    3.9865    1.5099 C   0  0  2  0  0  0  0  0  0  0  0  0
    6.1859    3.2027    0.4182 N   0  0  0  0  0  0  0  0  0  0  0  0
    1.1180    7.8268    4.8133 C   0  0  1  0  0  0  0  0  0  0  0  0
    0.3916    8.1120    6.0947 N   0  0  0  0  0  0  0  0  0  0  0  0
    0.4608    2.7309   -0.0753 C   0  0  0  0  0  0  0  0  0  0  0  0
    4.0276    4.1980    1.2425 C   0  0  2  0  0  0  0  0  0  0  0  0
    0.0799    7.9564    3.5628 C   0  0  1  0  0  0  0  0  0  0  0  0
   -0.4720    9.2576    3.4542 O   0  0  0  0  0  0  0  0  0  0  0  0
    0.9221    1.5257    0.3517 C   0  0  2  0  0  0  0  0  0  0  0  0
    2.2879    1.1248    0.1925 O   0  0  0  0  0  0  0  0  0  0  0  0
    3.4035    5.0425    2.4145 C   0  0  2  0  0  0  0  0  0  0  0  0
    1.9960    5.2379    2.1590 O   0  0  0  0  0  0  0  0  0  0  0  0
    0.8254    7.6629    2.2204 C   0  0  0  0  0  0  0  0  0  0  0  0
    2.0211    8.5714    2.1074 O   0  0  0  0  0  0  0  0  0  0  0  0
    0.0303    0.4878    1.0359 C   0  0  0  0  0  0  0  0  0  0  0  0
   -1.0035    0.0975    0.1015 O   0  0  0  0  0  0  0  0  0  0  0  0
    4.1215    6.4416    2.4630 C   0  0  1  0  0  0  0  0  0  0  0  0
    3.5456    7.1864    3.4898 O   0  0  0  0  0  0  0  0  0  0  0  0
   -1.1201    6.9799    3.6068 C   0  0  0  0  0  0  0  0  0  0  0  0
    1.1073    7.7927    7.3469 C   0  0  0  0  0  0  0  0  0  0  0  0
  1  2  1  1  0  0  0
  1  6  1  0  0  0  0
  1 21  1  0  0  0  0
  3  4  1  6  0  0  0
  3  8  1  0  0  0  0
  3 28  1  0  0  0  0
  5  9  1  0  0  0  0
  5 25  1  0  0  0  0
  5 29  1  1  0  0  0
  6  7  1  1  0  0  0
  6 11  1  0  0  0  0
  8 12  1  0  0  0  0
  9 10  1  1  0  0  0
  9 14  1  0  0  0  0
 11 16  1  0  0  0  0
 12 13  1  6  0  0  0
 12 17  1  0  0  0  0
 14 15  1  1  0  0  0
 14 18  1  0  0  0  0
 15 31  1  0  0  0  0
 16 20  1  0  0  0  0
 17  2  1  1  0  0  0
 17 22  1  0  0  0  0
 18 19  1  6  0  0  0
 18 24  1  0  0  0  0
 18 30  1  0  0  0  0
 20 21  1  0  0  0  0
 20 26  1  6  0  0  0
 22 23  1  6  0  0  0
 22 28  1  0  0  0  0
 24 25  1  0  0  0  0
 26 27  1  0  0  0  0
 28 29  1  1  0  0  0
M  END
>  <CHROM.1>
-43.55867110,171.39442349,-72.98038683,-88.82069502,61.93641617,115.43108403
2.44308331,5.38762799,2.18616991,-1.51088938,0.16803979,0.61397903

>  <Name>
ligand

>  <RI>
0

>  <Rbt.Current_Directory>
/home/itssahil/PROJECTS/Mol_Feturizer/New_Systems/rnas/4GPX

>  <Rbt.Executable>
rbdock ($Id: //depot/dev/client3/rdock/2013.1/src/exe/rbdock.cxx#4 $)

>  <Rbt.Library>
libRbt.so (2013.1, Build901 2013/11/27)

>  <Rbt.Parameter_File>
/export/apps/rDock/src/rDock_2013.1_src/data/scripts/dock_solv.prm

>  <Rbt.Receptor>
prm/blind_docking_80.prm

>  <SCORE>
9.1691

>  <SCORE.INTER>
-1.55384

>  <SCORE.INTER.CONST>
1

>  <SCORE.INTER.POLAR>
0

>  <SCORE.INTER.ROT>
6

>  <SCORE.INTER.SOLV>
17.417

>  <SCORE.INTER.VDW>
-14.4416

>  <SCORE.INTER.norm>
-0.050124

>  <SCORE.INTRA>
2.96685

>  <SCORE.INTRA.DIHEDRAL>
-4.86692

>  <SCORE.INTRA.DIHEDRAL.0>
20.6841

>  <SCORE.INTRA.POLAR>
0

>  <SCORE.INTRA.POLAR.0>
0

>  <SCORE.INTRA.REPUL>
0

>  <SCORE.INTRA.REPUL.0>
0

>  <SCORE.INTRA.SOLV>
2.76512

>  <SCORE.INTRA.SOLV.lig_0>
-64.6797

>  <SCORE.INTRA.VDW>
4.01775

>  <SCORE.INTRA.VDW.0>
-4.11825

>  <SCORE.INTRA.norm>
0.0957047

>  <SCORE.RESTR>
7.75609

>  <SCORE.RESTR.CAVITY>
7.75609

>  <SCORE.RESTR.norm>
0.250197

>  <SCORE.SYSTEM>
0

>  <SCORE.SYSTEM.CONST>
0

>  <SCORE.SYSTEM.DIHEDRAL>
0

>  <SCORE.SYSTEM.SOLV>
0

>  <SCORE.SYSTEM.norm>
0

>  <SCORE.heavy>
31

>  <SCORE.norm>
0.295777

>  <RMSD>
12.174

$$$$
ligand
 OpenBabel11021811493D
libRbt.so/2013.1/901 2013/11/27
 31 33  0  0  0  0  0  0  0  0999 V2000
    5.1665    8.0710    1.0704 C   0  0  2  0  0  0  0  0  0  0  0  0
    4.3590    7.3511    1.9973 O   0  0  0  0  0  0  0  0  0  0  0  0
    0.4901    5.6941    2.6052 C   0  0  2  0  0  0  0  0  0  0  0  0
   -0.9306    5.5366    2.5436 N   0  0  0  0  0  0  0  0  0  0  0  0
    0.8113    3.1895    1.2829 C   0  0  2  0  0  0  0  0  0  0  0  0
    5.6185    9.3992    1.8035 C   0  0  2  0  0  0  0  0  0  0  0  0
    6.3593    9.0410    3.0085 N   0  0  0  0  0  0  0  0  0  0  0  0
    0.8087    7.0859    3.2916 C   0  0  0  0  0  0  0  0  0  0  0  0
    2.2603    2.6346    1.1064 C   0  0  2  0  0  0  0  0  0  0  0  0
    3.1678    3.5938    1.6053 O   0  0  0  0  0  0  0  0  0  0  0  0
    4.3595   10.2843    2.1648 C   0  0  0  0  0  0  0  0  0  0  0  0
    2.3718    7.2638    3.3587 C   0  0  2  0  0  0  0  0  0  0  0  0
    2.6743    8.5592    3.9912 N   0  0  0  0  0  0  0  0  0  0  0  0
    2.4838    2.3941   -0.4350 C   0  0  1  0  0  0  0  0  0  0  0  0
    3.8723    1.8769   -0.6708 N   0  0  0  0  0  0  0  0  0  0  0  0
    3.2448   10.2367    1.0356 C   0  0  0  0  0  0  0  0  0  0  0  0
    2.9840    7.2117    1.8896 C   0  0  2  0  0  0  0  0  0  0  0  0
    1.4007    1.2816   -0.9325 C   0  0  1  0  0  0  0  0  0  0  0  0
    1.5212    0.0592   -0.2250 O   0  0  0  0  0  0  0  0  0  0  0  0
    3.3267    9.3524    0.0065 C   0  0  2  0  0  0  0  0  0  0  0  0
    4.4077    8.4217   -0.1233 O   0  0  0  0  0  0  0  0  0  0  0  0
    2.6447    5.8246    1.2285 C   0  0  2  0  0  0  0  0  0  0  0  0
    3.1946    5.7899   -0.1061 O   0  0  0  0  0  0  0  0  0  0  0  0
   -0.0513    1.8081   -0.6907 C   0  0  0  0  0  0  0  0  0  0  0  0
   -0.2052    2.1935    0.7570 O   0  0  0  0  0  0  0  0  0  0  0  0
    2.2797    9.2703   -1.1059 C   0  0  0  0  0  0  0  0  0  0  0  0
    1.5302   10.5082   -1.1101 O   0  0  0  0  0  0  0  0  0  0  0  0
    1.0805    5.6750    1.1497 C   0  0  1  0  0  0  0  0  0  0  0  0
    0.7942    4.4538    0.5436 O   0  0  0  0  0  0  0  0  0  0  0  0
    1.4789    0.9211   -2.4357 C   0  0  0  0  0  0  0  0  0  0  0  0
    4.9806    2.8261   -0.4405 C   0  0  0  0  0  0  0  0  0  0  0  0
  1  2  1  1  0  0  0
  1  6  1  0  0  0  0
  1 21  1  0  0  0  0
  3  4  1  6  0  0  0
  3  8  1  0  0  0  0
  3 28  1  0  0  0  0
  5  9  1  0  0  0  0
  5 25  1  0  0  0  0
  5 29  1  6  0  0  0
  6  7  1  1  0  0  0
  6 11  1  0  0  0  0
  8 12  1  0  0  0  0
  9 10  1  6  0  0  0
  9 14  1  0  0  0  0
 11 16  1  0  0  0  0
 12 13  1  6  0  0  0
 12 17  1  0  0  0  0
 14 15  1  1  0  0  0
 14 18  1  0  0  0  0
 15 31  1  0  0  0  0
 16 20  1  0  0  0  0
 17  2  1  1  0  0  0
 17 22  1  0  0  0  0
 18 19  1  1  0  0  0
 18 24  1  0  0  0  0
 18 30  1  0  0  0  0
 20 21  1  0  0  0  0
 20 26  1  6  0  0  0
 22 23  1  6  0  0  0
 22 28  1  0  0  0  0
 24 25  1  0  0  0  0
 26 27  1  0  0  0  0
 28 29  1  1  0  0  0
M  END
>  <CHROM.1>
107.88972350,-92.15890981,-69.44259369,-143.08951772,18.87790974,-37.32559417
2.53020850,5.71431906,0.87669834,-1.25042554,-0.39195702,-2.78804245

>  <Name>
ligand

>  <RI>
0

>  <Rbt.Current_Directory>
/home/itssahil/PROJECTS/Mol_Feturizer/New_Systems/rnas/4GPX

>  <Rbt.Executable>
rbdock ($Id: //depot/dev/client3/rdock/2013.1/src/exe/rbdock.cxx#4 $)

>  <Rbt.Library>
libRbt.so (2013.1, Build901 2013/11/27)

>  <Rbt.Parameter_File>
/export/apps/rDock/src/rDock_2013.1_src/data/scripts/dock_solv.prm

>  <Rbt.Receptor>
prm/blind_docking_40.prm

>  <SCORE>
21.207

>  <SCORE.INTER>
6.40483

>  <SCORE.INTER.CONST>
1

>  <SCORE.INTER.POLAR>
0

>  <SCORE.INTER.ROT>
6

>  <SCORE.INTER.SOLV>
18.3214

>  <SCORE.INTER.VDW>
-9.43724

>  <SCORE.INTER.norm>
0.206608

>  <SCORE.INTRA>
9.71914

>  <SCORE.INTRA.DIHEDRAL>
-0.870132

>  <SCORE.INTRA.DIHEDRAL.0>
20.6841

>  <SCORE.INTRA.POLAR>
0

>  <SCORE.INTRA.POLAR.0>
0

>  <SCORE.INTRA.REPUL>
0

>  <SCORE.INTRA.REPUL.0>
0

>  <SCORE.INTRA.SOLV>
2.55764

>  <SCORE.INTRA.SOLV.lig_0>
-64.6797

>  <SCORE.INTRA.VDW>
8.87539

>  <SCORE.INTRA.VDW.0>
-4.11825

>  <SCORE.INTRA.norm>
0.313521

>  <SCORE.RESTR>
5.08302

>  <SCORE.RESTR.CAVITY>
5.08302

>  <SCORE.RESTR.norm>
0.163968

>  <SCORE.SYSTEM>
0

>  <SCORE.SYSTEM.CONST>
0

>  <SCORE.SYSTEM.DIHEDRAL>
0

>  <SCORE.SYSTEM.SOLV>
0

>  <SCORE.SYSTEM.norm>
0

>  <SCORE.heavy>
31

>  <SCORE.norm>
0.684097

>  <RMSD>
12.191

$$$$
ligand
 OpenBabel11021811493D
libRbt.so/2013.1/901 2013/11/27
 31 33  0  0  0  0  0  0  0  0999 V2000
    4.2828    3.8179   -0.6492 C   0  0  2  0  0  0  0  0  0  0  0  0
    3.7343    4.4314    0.5136 O   0  0  0  0  0  0  0  0  0  0  0  0
    5.0772    7.0444    3.5882 C   0  0  2  0  0  0  0  0  0  0  0  0
    5.6246    8.2027    4.2251 N   0  0  0  0  0  0  0  0  0  0  0  0
    2.3397    7.2171    4.8129 C   0  0  2  0  0  0  0  0  0  0  0  0
    3.1563    3.8705   -1.7601 C   0  0  2  0  0  0  0  0  0  0  0  0
    2.7964    5.2645   -1.9975 N   0  0  0  0  0  0  0  0  0  0  0  0
    6.1639    6.4612    2.5937 C   0  0  0  0  0  0  0  0  0  0  0  0
    0.7933    7.1367    4.6109 C   0  0  2  0  0  0  0  0  0  0  0  0
    0.5384    6.5074    3.3733 O   0  0  0  0  0  0  0  0  0  0  0  0
    1.8927    3.0380   -1.3025 C   0  0  0  0  0  0  0  0  0  0  0  0
    5.5639    5.1874    1.8888 C   0  0  2  0  0  0  0  0  0  0  0  0
    6.5682    4.6438    0.9585 N   0  0  0  0  0  0  0  0  0  0  0  0
    0.2440    8.6139    4.6168 C   0  0  1  0  0  0  0  0  0  0  0  0
   -1.2414    8.6028    4.4060 N   0  0  0  0  0  0  0  0  0  0  0  0
    2.2924    1.7192   -0.5147 C   0  0  0  0  0  0  0  0  0  0  0  0
    4.2383    5.5822    1.0996 C   0  0  2  0  0  0  0  0  0  0  0  0
    0.5789    9.2689    6.0718 C   0  0  1  0  0  0  0  0  0  0  0  0
    0.0070    8.5311    7.1386 O   0  0  0  0  0  0  0  0  0  0  0  0
    3.5751    1.4983   -0.1229 C   0  0  2  0  0  0  0  0  0  0  0  0
    4.6321    2.4266   -0.3921 O   0  0  0  0  0  0  0  0  0  0  0  0
    3.1814    6.1668    2.1081 C   0  0  2  0  0  0  0  0  0  0  0  0
    1.9872    6.5311    1.3830 O   0  0  0  0  0  0  0  0  0  0  0  0
    2.1247    9.2850    6.3045 C   0  0  0  0  0  0  0  0  0  0  0  0
    2.6674    7.8908    6.1322 O   0  0  0  0  0  0  0  0  0  0  0  0
    4.0093    0.2426    0.6356 C   0  0  0  0  0  0  0  0  0  0  0  0
    5.1624   -0.3138   -0.0390 O   0  0  0  0  0  0  0  0  0  0  0  0
    3.7896    7.4502    2.7852 C   0  0  1  0  0  0  0  0  0  0  0  0
    2.8366    7.9695    3.6587 O   0  0  0  0  0  0  0  0  0  0  0  0
    0.1048   10.7310    6.2540 C   0  0  0  0  0  0  0  0  0  0  0  0
   -1.7115    8.5933    3.0056 C   0  0  0  0  0  0  0  0  0  0  0  0
  1  2  1  1  0  0  0
  1  6  1  0  0  0  0
  1 21  1  0  0  0  0
  3  4  1  6  0  0  0
  3  8  1  0  0  0  0
  3 28  1  0  0  0  0
  5  9  1  0  0  0  0
  5 25  1  0  0  0  0
  5 29  1  6  0  0  0
  6  7  1  1  0  0  0
  6 11  1  0  0  0  0
  8 12  1  0  0  0  0
  9 10  1  6  0  0  0
  9 14  1  0  0  0  0
 11 16  1  0  0  0  0
 12 13  1  6  0  0  0
 12 17  1  0  0  0  0
 14 15  1  1  0  0  0
 14 18  1  0  0  0  0
 15 31  1  0  0  0  0
 16 20  1  0  0  0  0
 17  2  1  1  0  0  0
 17 22  1  0  0  0  0
 18 19  1  1  0  0  0
 18 24  1  0  0  0  0
 18 30  1  0  0  0  0
 20 21  1  0  0  0  0
 20 26  1  6  0  0  0
 22 23  1  6  0  0  0
 22 28  1  0  0  0  0
 24 25  1  0  0  0  0
 26 27  1  0  0  0  0
 28 29  1  1  0  0  0
M  END
>  <CHROM.1>
-117.64346367,-122.45442497,-86.59532997,-75.64984876,129.84644388,-56.65917985
2.78401350,5.91294387,2.44436068,1.20254793,0.10878872,-2.36548285

>  <Name>
ligand

>  <RI>
0

>  <Rbt.Current_Directory>
/home/itssahil/PROJECTS/Mol_Feturizer/New_Systems/rnas/4GPX

>  <Rbt.Executable>
rbdock ($Id: //depot/dev/client3/rdock/2013.1/src/exe/rbdock.cxx#4 $)

>  <Rbt.Library>
libRbt.so (2013.1, Build901 2013/11/27)

>  <Rbt.Parameter_File>
/export/apps/rDock/src/rDock_2013.1_src/data/scripts/dock_solv.prm

>  <Rbt.Receptor>
prm/blind_docking_80.prm

>  <SCORE>
14.8977

>  <SCORE.INTER>
3.42292

>  <SCORE.INTER.CONST>
1

>  <SCORE.INTER.POLAR>
0

>  <SCORE.INTER.ROT>
6

>  <SCORE.INTER.SOLV>
20.0526

>  <SCORE.INTER.VDW>
-12.0022

>  <SCORE.INTER.norm>
0.110417

>  <SCORE.INTRA>
0.543458

>  <SCORE.INTRA.DIHEDRAL>
-2.84487

>  <SCORE.INTRA.DIHEDRAL.0>
20.6841

>  <SCORE.INTRA.POLAR>
0

>  <SCORE.INTRA.POLAR.0>
0

>  <SCORE.INTRA.REPUL>
0

>  <SCORE.INTRA.REPUL.0>
0

>  <SCORE.INTRA.SOLV>
0.629638

>  <SCORE.INTRA.SOLV.lig_0>
-64.6797

>  <SCORE.INTRA.VDW>
1.65108

>  <SCORE.INTRA.VDW.0>
-4.11825

>  <SCORE.INTRA.norm>
0.0175309

>  <SCORE.RESTR>
10.9313

>  <SCORE.RESTR.CAVITY>
10.9313

>  <SCORE.RESTR.norm>
0.352622

>  <SCORE.SYSTEM>
0

>  <SCORE.SYSTEM.CONST>
0

>  <SCORE.SYSTEM.DIHEDRAL>
0

>  <SCORE.SYSTEM.SOLV>
0

>  <SCORE.SYSTEM.norm>
0

>  <SCORE.heavy>
31

>  <SCORE.norm>
0.48057

>  <RMSD>
12.191

$$$$
ligand
 OpenBabel11021811493D
libRbt.so/2013.1/901 2013/11/27
 31 33  0  0  0  0  0  0  0  0999 V2000
   -9.7920   19.3126   -0.1811 C   0  0  2  0  0  0  0  0  0  0  0  0
  -10.6766   18.1967   -0.2223 O   0  0  0  0  0  0  0  0  0  0  0  0
  -10.9510   13.9766   -0.6684 C   0  0  2  0  0  0  0  0  0  0  0  0
  -10.5552   12.6043   -0.7518 N   0  0  0  0  0  0  0  0  0  0  0  0
  -12.5891   13.3119    1.5503 C   0  0  2  0  0  0  0  0  0  0  0  0
   -8.3227   18.7235   -0.1963 C   0  0  2  0  0  0  0  0  0  0  0  0
   -8.1469   17.9330   -1.4101 N   0  0  0  0  0  0  0  0  0  0  0  0
  -10.1871   14.7858   -1.7959 C   0  0  0  0  0  0  0  0  0  0  0  0
  -13.1785   13.1893    2.9912 C   0  0  2  0  0  0  0  0  0  0  0  0
  -13.1371   14.4628    3.5986 O   0  0  0  0  0  0  0  0  0  0  0  0
   -8.0719   17.8369    1.0883 C   0  0  0  0  0  0  0  0  0  0  0  0
  -10.6185   16.2975   -1.7054 C   0  0  2  0  0  0  0  0  0  0  0  0
   -9.9069   17.0563   -2.7483 N   0  0  0  0  0  0  0  0  0  0  0  0
  -12.2806   12.1596    3.7770 C   0  0  1  0  0  0  0  0  0  0  0  0
  -12.7879   12.0138    5.1814 N   0  0  0  0  0  0  0  0  0  0  0  0
   -8.7661   18.4400    2.3822 C   0  0  0  0  0  0  0  0  0  0  0  0
  -10.2625   16.8745   -0.2646 C   0  0  2  0  0  0  0  0  0  0  0  0
  -12.3796   10.7219    3.0143 C   0  0  1  0  0  0  0  0  0  0  0  0
  -13.7124   10.2459    2.9341 O   0  0  0  0  0  0  0  0  0  0  0  0
   -9.6383   19.4784    2.2902 C   0  0  2  0  0  0  0  0  0  0  0  0
   -9.9812   20.0862    1.0394 O   0  0  0  0  0  0  0  0  0  0  0  0
  -11.0257   16.0474    0.8353 C   0  0  2  0  0  0  0  0  0  0  0  0
  -10.6894   16.5706    2.1383 O   0  0  0  0  0  0  0  0  0  0  0  0
  -11.8550   10.8607    1.5482 C   0  0  0  0  0  0  0  0  0  0  0  0
  -12.6083   11.9642    0.8535 O   0  0  0  0  0  0  0  0  0  0  0  0
  -10.3299   20.0950    3.5076 C   0  0  0  0  0  0  0  0  0  0  0  0
  -11.5177   19.3185    3.7911 O   0  0  0  0  0  0  0  0  0  0  0  0
  -10.5653   14.5457    0.7441 C   0  0  1  0  0  0  0  0  0  0  0  0
  -11.2317   13.8295    1.7360 O   0  0  0  0  0  0  0  0  0  0  0  0
  -11.5516    9.5835    3.6578 C   0  0  0  0  0  0  0  0  0  0  0  0
  -14.1682   11.5113    5.3381 C   0  0  0  0  0  0  0  0  0  0  0  0
  1  2  1  1  0  0  0
  1  6  1  0  0  0  0
  1 21  1  0  0  0  0
  3  4  1  1  0  0  0
  3  8  1  0  0  0  0
  3 28  1  0  0  0  0
  5  9  1  0  0  0  0
  5 25  1  0  0  0  0
  5 29  1  1  0  0  0
  6  7  1  6  0  0  0
  6 11  1  0  0  0  0
  8 12  1  0  0  0  0
  9 10  1  1  0  0  0
  9 14  1  0  0  0  0
 11 16  1  0  0  0  0
 12 13  1  6  0  0  0
 12 17  1  0  0  0  0
 14 15  1  1  0  0  0
 14 18  1  0  0  0  0
 15 31  1  0  0  0  0
 16 20  1  0  0  0  0
 17  2  1  6  0  0  0
 17 22  1  0  0  0  0
 18 19  1  6  0  0  0
 18 24  1  0  0  0  0
 18 30  1  0  0  0  0
 20 21  1  0  0  0  0
 20 26  1  1  0  0  0
 22 23  1  1  0  0  0
 22 28  1  0  0  0  0
 24 25  1  0  0  0  0
 26 27  1  0  0  0  0
 28 29  1  1  0  0  0
M  END
>  <CHROM.1>
0.08161777,-154.85815381,60.95795153,-110.56643814,-85.28327077,-35.28521267
-11.04681052,15.22426827,1.46312772,-0.49161290,-1.12846828,-2.45327484

>  <Name>
ligand

>  <RI>
0

>  <Rbt.Current_Directory>
/home/itssahil/PROJECTS/Mol_Feturizer/New_Systems/rnas/4GPX

>  <Rbt.Executable>
rbdock ($Id: //depot/dev/client3/rdock/2013.1/src/exe/rbdock.cxx#4 $)

>  <Rbt.Library>
libRbt.so (2013.1, Build901 2013/11/27)

>  <Rbt.Parameter_File>
/export/apps/rDock/src/rDock_2013.1_src/data/scripts/dock_solv.prm

>  <Rbt.Receptor>
prm/blind_docking_100.prm

>  <SCORE>
21.3188

>  <SCORE.INTER>
0.666997

>  <SCORE.INTER.CONST>
1

>  <SCORE.INTER.POLAR>
0

>  <SCORE.INTER.ROT>
6

>  <SCORE.INTER.SOLV>
17.1536

>  <SCORE.INTER.VDW>
-12.8732

>  <SCORE.INTER.norm>
0.021516

>  <SCORE.INTRA>
14.7286

>  <SCORE.INTRA.DIHEDRAL>
1.46521

>  <SCORE.INTRA.DIHEDRAL.0>
20.6841

>  <SCORE.INTRA.POLAR>
0

>  <SCORE.INTRA.POLAR.0>
0

>  <SCORE.INTRA.REPUL>
0

>  <SCORE.INTRA.REPUL.0>
0

>  <SCORE.INTRA.SOLV>
6.29604

>  <SCORE.INTRA.SOLV.lig_0>
-64.6797

>  <SCORE.INTRA.VDW>
10.848

>  <SCORE.INTRA.VDW.0>
-4.11825

>  <SCORE.INTRA.norm>
0.475117

>  <SCORE.RESTR>
5.92317

>  <SCORE.RESTR.CAVITY>
5.92317

>  <SCORE.RESTR.norm>
0.19107

>  <SCORE.SYSTEM>
0

>  <SCORE.SYSTEM.CONST>
0

>  <SCORE.SYSTEM.DIHEDRAL>
0

>  <SCORE.SYSTEM.SOLV>
0

>  <SCORE.SYSTEM.norm>
0

>  <SCORE.heavy>
31

>  <SCORE.norm>
0.687703

>  <RMSD>
12.196

$$$$
ligand
 OpenBabel11021811493D
libRbt.so/2013.1/901 2013/11/27
 31 33  0  0  0  0  0  0  0  0999 V2000
    0.6505    7.3554    4.3330 C   0  0  2  0  0  0  0  0  0  0  0  0
    1.9463    7.7799    3.9209 O   0  0  0  0  0  0  0  0  0  0  0  0
    5.4038    6.3266    1.9164 C   0  0  2  0  0  0  0  0  0  0  0  0
    6.5043    5.4780    1.5764 N   0  0  0  0  0  0  0  0  0  0  0  0
    4.6153    3.9688   -0.1358 C   0  0  2  0  0  0  0  0  0  0  0  0
   -0.3767    8.4045    3.7412 C   0  0  2  0  0  0  0  0  0  0  0  0
   -0.2450    8.4213    2.2881 N   0  0  0  0  0  0  0  0  0  0  0  0
    5.5640    6.7697    3.4290 C   0  0  0  0  0  0  0  0  0  0  0  0
    3.8916    3.6581   -1.4843 C   0  0  2  0  0  0  0  0  0  0  0  0
    3.9770    4.8008   -2.3085 O   0  0  0  0  0  0  0  0  0  0  0  0
   -0.1045    9.8408    4.3429 C   0  0  0  0  0  0  0  0  0  0  0  0
    4.3528    7.7020    3.8077 C   0  0  2  0  0  0  0  0  0  0  0  0
    4.4934    8.1129    5.2151 N   0  0  0  0  0  0  0  0  0  0  0  0
    2.3908    3.3200   -1.1418 C   0  0  1  0  0  0  0  0  0  0  0  0
    1.6358    3.0304   -2.4056 N   0  0  0  0  0  0  0  0  0  0  0  0
    0.3140    9.7843    5.8730 C   0  0  0  0  0  0  0  0  0  0  0  0
    2.9827    6.9182    3.5968 C   0  0  2  0  0  0  0  0  0  0  0  0
    2.3785    1.9967   -0.1893 C   0  0  1  0  0  0  0  0  0  0  0  0
    3.0012    0.8831   -0.8070 O   0  0  0  0  0  0  0  0  0  0  0  0
    0.5984    8.6011    6.4787 C   0  0  2  0  0  0  0  0  0  0  0  0
    0.5389    7.3488    5.7861 O   0  0  0  0  0  0  0  0  0  0  0  0
    2.8541    6.4818    2.0904 C   0  0  2  0  0  0  0  0  0  0  0  0
    1.6146    5.7636    1.9104 O   0  0  0  0  0  0  0  0  0  0  0  0
    3.1638    2.2850    1.1313 C   0  0  0  0  0  0  0  0  0  0  0  0
    4.5486    2.7687    0.7901 O   0  0  0  0  0  0  0  0  0  0  0  0
    1.0034    8.4953    7.9502 C   0  0  0  0  0  0  0  0  0  0  0  0
    1.6015    7.1942    8.1595 O   0  0  0  0  0  0  0  0  0  0  0  0
    4.0594    5.5340    1.7374 C   0  0  1  0  0  0  0  0  0  0  0  0
    3.9218    5.1383    0.4088 O   0  0  0  0  0  0  0  0  0  0  0  0
    0.9720    1.5192    0.2462 C   0  0  0  0  0  0  0  0  0  0  0  0
    0.8549    4.1448   -2.9806 C   0  0  0  0  0  0  0  0  0  0  0  0
  1  2  1  1  0  0  0
  1  6  1  0  0  0  0
  1 21  1  0  0  0  0
  3  4  1  1  0  0  0
  3  8  1  0  0  0  0
  3 28  1  0  0  0  0
  5  9  1  0  0  0  0
  5 25  1  0  0  0  0
  5 29  1  1  0  0  0
  6  7  1  6  0  0  0
  6 11  1  0  0  0  0
  8 12  1  0  0  0  0
  9 10  1  6  0  0  0
  9 14  1  0  0  0  0
 11 16  1  0  0  0  0
 12 13  1  1  0  0  0
 12 17  1  0  0  0  0
 14 15  1  6  0  0  0
 14 18  1  0  0  0  0
 15 31  1  0  0  0  0
 16 20  1  0  0  0  0
 17  2  1  6  0  0  0
 17 22  1  0  0  0  0
 18 19  1  6  0  0  0
 18 24  1  0  0  0  0
 18 30  1  0  0  0  0
 20 21  1  0  0  0  0
 20 26  1  1  0  0  0
 22 23  1  1  0  0  0
 22 28  1  0  0  0  0
 24 25  1  0  0  0  0
 26 27  1  0  0  0  0
 28 29  1  6  0  0  0
M  END
>  <CHROM.1>
-145.03840691,164.58361627,-97.21366964,-155.94259141,-163.44681046,79.87293627
2.54064508,5.77313023,2.22853258,1.78672468,-0.12048618,0.92561192

>  <Name>
ligand

>  <RI>
0

>  <Rbt.Current_Directory>
/home/itssahil/PROJECTS/Mol_Feturizer/New_Systems/rnas/4GPX

>  <Rbt.Executable>
rbdock ($Id: //depot/dev/client3/rdock/2013.1/src/exe/rbdock.cxx#4 $)

>  <Rbt.Library>
libRbt.so (2013.1, Build901 2013/11/27)

>  <Rbt.Parameter_File>
/export/apps/rDock/src/rDock_2013.1_src/data/scripts/dock_solv.prm

>  <Rbt.Receptor>
prm/blind_docking_80.prm

>  <SCORE>
11.6834

>  <SCORE.INTER>
7.01986

>  <SCORE.INTER.CONST>
1

>  <SCORE.INTER.POLAR>
0

>  <SCORE.INTER.ROT>
6

>  <SCORE.INTER.SOLV>
21.4926

>  <SCORE.INTER.VDW>
-10.0843

>  <SCORE.INTER.norm>
0.226447

>  <SCORE.INTRA>
-3.17726

>  <SCORE.INTRA.DIHEDRAL>
-6.68696

>  <SCORE.INTRA.DIHEDRAL.0>
20.6841

>  <SCORE.INTRA.POLAR>
0

>  <SCORE.INTRA.POLAR.0>
0

>  <SCORE.INTRA.REPUL>
0

>  <SCORE.INTRA.REPUL.0>
0

>  <SCORE.INTRA.SOLV>
-0.105131

>  <SCORE.INTRA.SOLV.lig_0>
-64.6797

>  <SCORE.INTRA.VDW>
0.218782

>  <SCORE.INTRA.VDW.0>
-4.11825

>  <SCORE.INTRA.norm>
-0.102492

>  <SCORE.RESTR>
7.84084

>  <SCORE.RESTR.CAVITY>
7.84084

>  <SCORE.RESTR.norm>
0.25293

>  <SCORE.SYSTEM>
0

>  <SCORE.SYSTEM.CONST>
0

>  <SCORE.SYSTEM.DIHEDRAL>
0

>  <SCORE.SYSTEM.SOLV>
0

>  <SCORE.SYSTEM.norm>
0

>  <SCORE.heavy>
31

>  <SCORE.norm>
0.376885

>  <RMSD>
12.198

$$$$
ligand
 OpenBabel11021811493D
libRbt.so/2013.1/901 2013/11/27
 31 33  0  0  0  0  0  0  0  0999 V2000
    3.2587    2.6732    0.9604 C   0  0  2  0  0  0  0  0  0  0  0  0
    4.1175    3.5501    0.2373 O   0  0  0  0  0  0  0  0  0  0  0  0
    5.5372    6.3300    3.1254 C   0  0  2  0  0  0  0  0  0  0  0  0
    6.0952    7.5238    3.6826 N   0  0  0  0  0  0  0  0  0  0  0  0
    2.6160    8.5115    2.9398 C   0  0  2  0  0  0  0  0  0  0  0  0
    3.3820    1.2531    0.2720 C   0  0  2  0  0  0  0  0  0  0  0  0
    4.7751    0.8228    0.3308 N   0  0  0  0  0  0  0  0  0  0  0  0
    6.5961    5.7023    2.1280 C   0  0  0  0  0  0  0  0  0  0  0  0
    1.9213    8.9072    4.2812 C   0  0  2  0  0  0  0  0  0  0  0  0
    2.9110    9.0035    5.2832 O   0  0  0  0  0  0  0  0  0  0  0  0
    2.8820    1.3222   -1.2260 C   0  0  0  0  0  0  0  0  0  0  0  0
    5.9841    4.3894    1.5107 C   0  0  2  0  0  0  0  0  0  0  0  0
    6.9624    3.8040    0.5780 N   0  0  0  0  0  0  0  0  0  0  0  0
    0.8820    7.7724    4.6215 C   0  0  1  0  0  0  0  0  0  0  0  0
    0.1933    8.0882    5.9165 N   0  0  0  0  0  0  0  0  0  0  0  0
    1.6278    2.2796   -1.3996 C   0  0  0  0  0  0  0  0  0  0  0  0
    4.6307    4.7334    0.7455 C   0  0  2  0  0  0  0  0  0  0  0  0
   -0.2200    7.7237    3.4208 C   0  0  1  0  0  0  0  0  0  0  0  0
   -0.8876    8.9628    3.2524 O   0  0  0  0  0  0  0  0  0  0  0  0
    1.2142    3.0840   -0.3849 C   0  0  2  0  0  0  0  0  0  0  0  0
    1.8730    3.1185    0.8864 O   0  0  0  0  0  0  0  0  0  0  0  0
    3.6020    5.3635    1.7558 C   0  0  2  0  0  0  0  0  0  0  0  0
    2.3821    5.6814    1.0518 O   0  0  0  0  0  0  0  0  0  0  0  0
    0.4855    7.3968    2.0646 C   0  0  0  0  0  0  0  0  0  0  0  0
    1.5910    8.3916    1.8276 O   0  0  0  0  0  0  0  0  0  0  0  0
    0.0107    4.0211   -0.5031 C   0  0  0  0  0  0  0  0  0  0  0  0
    0.0335    4.9266    0.6255 O   0  0  0  0  0  0  0  0  0  0  0  0
    4.2211    6.6847    2.3445 C   0  0  1  0  0  0  0  0  0  0  0  0
    3.2925    7.2431    3.2201 O   0  0  0  0  0  0  0  0  0  0  0  0
   -1.3271    6.6559    3.5940 C   0  0  0  0  0  0  0  0  0  0  0  0
    0.9954    7.9354    7.1475 C   0  0  0  0  0  0  0  0  0  0  0  0
  1  2  1  6  0  0  0
  1  6  1  0  0  0  0
  1 21  1  0  0  0  0
  3  4  1  6  0  0  0
  3  8  1  0  0  0  0
  3 28  1  0  0  0  0
  5  9  1  0  0  0  0
  5 25  1  0  0  0  0
  5 29  1  1  0  0  0
  6  7  1  6  0  0  0
  6 11  1  0  0  0  0
  8 12  1  0  0  0  0
  9 10  1  1  0  0  0
  9 14  1  0  0  0  0
 11 16  1  0  0  0  0
 12 13  1  6  0  0  0
 12 17  1  0  0  0  0
 14 15  1  1  0  0  0
 14 18  1  0  0  0  0
 15 31  1  0  0  0  0
 16 20  1  0  0  0  0
 17  2  1  1  0  0  0
 17 22  1  0  0  0  0
 18 19  1  6  0  0  0
 18 24  1  0  0  0  0
 18 30  1  0  0  0  0
 20 21  1  0  0  0  0
 20 26  1  1  0  0  0
 22 23  1  6  0  0  0
 22 28  1  0  0  0  0
 24 25  1  0  0  0  0
 26 27  1  0  0  0  0
 28 29  1  1  0  0  0
M  END
>  <CHROM.1>
-158.26925130,-168.22643348,-72.35575704,87.31564225,-167.51997906,128.71470117
2.58858209,5.63793107,2.08326994,1.22382090,0.08452481,-2.44704297

>  <Name>
ligand

>  <RI>
0

>  <Rbt.Current_Directory>
/home/itssahil/PROJECTS/Mol_Feturizer/New_Systems/rnas/4GPX

>  <Rbt.Executable>
rbdock ($Id: //depot/dev/client3/rdock/2013.1/src/exe/rbdock.cxx#4 $)

>  <Rbt.Library>
libRbt.so (2013.1, Build901 2013/11/27)

>  <Rbt.Parameter_File>
/export/apps/rDock/src/rDock_2013.1_src/data/scripts/dock_solv.prm

>  <Rbt.Receptor>
prm/blind_docking_80.prm

>  <SCORE>
11.9677

>  <SCORE.INTER>
1.53851

>  <SCORE.INTER.CONST>
1

>  <SCORE.INTER.POLAR>
0

>  <SCORE.INTER.ROT>
6

>  <SCORE.INTER.SOLV>
14.4434

>  <SCORE.INTER.VDW>
-11.3888

>  <SCORE.INTER.norm>
0.0496293

>  <SCORE.INTRA>
0.83118

>  <SCORE.INTRA.DIHEDRAL>
-4.48093

>  <SCORE.INTRA.DIHEDRAL.0>
20.6841

>  <SCORE.INTRA.POLAR>
0

>  <SCORE.INTRA.POLAR.0>
0

>  <SCORE.INTRA.REPUL>
0

>  <SCORE.INTRA.REPUL.0>
0

>  <SCORE.INTRA.SOLV>
0.452252

>  <SCORE.INTRA.SOLV.lig_0>
-64.6797

>  <SCORE.INTRA.VDW>
2.84552

>  <SCORE.INTRA.VDW.0>
-4.11825

>  <SCORE.INTRA.norm>
0.0268123

>  <SCORE.RESTR>
9.59804

>  <SCORE.RESTR.CAVITY>
9.59804

>  <SCORE.RESTR.norm>
0.309614

>  <SCORE.SYSTEM>
0

>  <SCORE.SYSTEM.CONST>
0

>  <SCORE.SYSTEM.DIHEDRAL>
0

>  <SCORE.SYSTEM.SOLV>
0

>  <SCORE.SYSTEM.norm>
0

>  <SCORE.heavy>
31

>  <SCORE.norm>
0.386056

>  <RMSD>
12.201

$$$$
ligand
 OpenBabel11021811493D
libRbt.so/2013.1/901 2013/11/27
 31 33  0  0  0  0  0  0  0  0999 V2000
    3.5041    2.1492   -0.0150 C   0  0  2  0  0  0  0  0  0  0  0  0
    3.4635    2.9895    1.1346 O   0  0  0  0  0  0  0  0  0  0  0  0
    5.6576    6.2314    2.7959 C   0  0  2  0  0  0  0  0  0  0  0  0
    6.3154    7.4977    2.8991 N   0  0  0  0  0  0  0  0  0  0  0  0
    2.9956    8.5289    3.2954 C   0  0  2  0  0  0  0  0  0  0  0  0
    3.1738    3.0713   -1.2588 C   0  0  2  0  0  0  0  0  0  0  0  0
    4.1666    4.1384   -1.3282 N   0  0  0  0  0  0  0  0  0  0  0  0
    6.3356    5.4108    1.6225 C   0  0  0  0  0  0  0  0  0  0  0  0
    2.2689    8.8811    4.6320 C   0  0  2  0  0  0  0  0  0  0  0  0
    3.2093    8.8081    5.6822 O   0  0  0  0  0  0  0  0  0  0  0  0
    1.7174    3.6716   -1.1275 C   0  0  0  0  0  0  0  0  0  0  0  0
    5.6123    4.0172    1.5043 C   0  0  2  0  0  0  0  0  0  0  0  0
    6.2350    3.2516    0.4108 N   0  0  0  0  0  0  0  0  0  0  0  0
    1.1177    7.8233    4.8305 C   0  0  1  0  0  0  0  0  0  0  0  0
    0.3923    8.0991    6.1146 N   0  0  0  0  0  0  0  0  0  0  0  0
    0.6914    2.6340   -0.5029 C   0  0  0  0  0  0  0  0  0  0  0  0
    4.0628    4.2372    1.2101 C   0  0  2  0  0  0  0  0  0  0  0  0
    0.0801    7.9691    3.5813 C   0  0  1  0  0  0  0  0  0  0  0  0
   -0.4665    9.2735    3.4852 O   0  0  0  0  0  0  0  0  0  0  0  0
    1.1201    1.4617    0.0355 C   0  0  2  0  0  0  0  0  0  0  0  0
    2.5037    1.0931    0.0725 O   0  0  0  0  0  0  0  0  0  0  0  0
    3.4175    5.0620    2.3845 C   0  0  2  0  0  0  0  0  0  0  0  0
    2.0157    5.2653    2.1049 O   0  0  0  0  0  0  0  0  0  0  0  0
    0.8244    7.6854    2.2362 C   0  0  0  0  0  0  0  0  0  0  0  0
    2.0238    8.5901    2.1319 O   0  0  0  0  0  0  0  0  0  0  0  0
    0.1704    0.4295    0.6463 C   0  0  0  0  0  0  0  0  0  0  0  0
   -0.1464    0.8521    1.9937 O   0  0  0  0  0  0  0  0  0  0  0  0
    4.1373    6.4583    2.4724 C   0  0  1  0  0  0  0  0  0  0  0  0
    3.5426    7.1858    3.5009 O   0  0  0  0  0  0  0  0  0  0  0  0
   -1.1239    6.9970    3.6160 C   0  0  0  0  0  0  0  0  0  0  0  0
    1.1066    7.7648    7.3637 C   0  0  0  0  0  0  0  0  0  0  0  0
  1  2  1  1  0  0  0
  1  6  1  0  0  0  0
  1 21  1  0  0  0  0
  3  4  1  6  0  0  0
  3  8  1  0  0  0  0
  3 28  1  0  0  0  0
  5  9  1  0  0  0  0
  5 25  1  0  0  0  0
  5 29  1  1  0  0  0
  6  7  1  1  0  0  0
  6 11  1  0  0  0  0
  8 12  1  0  0  0  0
  9 10  1  1  0  0  0
  9 14  1  0  0  0  0
 11 16  1  0  0  0  0
 12 13  1  6  0  0  0
 12 17  1  0  0  0  0
 14 15  1  1  0  0  0
 14 18  1  0  0  0  0
 15 31  1  0  0  0  0
 16 20  1  0  0  0  0
 17  2  1  1  0  0  0
 17 22  1  0  0  0  0
 18 19  1  6  0  0  0
 18 24  1  0  0  0  0
 18 30  1  0  0  0  0
 20 21  1  0  0  0  0
 20 26  1  6  0  0  0
 22 23  1  6  0  0  0
 22 28  1  0  0  0  0
 24 25  1  0  0  0  0
 26 27  1  0  0  0  0
 28 29  1  1  0  0  0
M  END
>  <CHROM.1>
-45.92518417,172.57778895,-72.99532259,-80.31205646,-81.26076626,115.52433579
2.54379290,5.40857177,2.20378824,-1.42871303,0.20132366,0.61482224

>  <Name>
ligand

>  <RI>
0

>  <Rbt.Current_Directory>
/home/itssahil/PROJECTS/Mol_Feturizer/New_Systems/rnas/4GPX

>  <Rbt.Executable>
rbdock ($Id: //depot/dev/client3/rdock/2013.1/src/exe/rbdock.cxx#4 $)

>  <Rbt.Library>
libRbt.so (2013.1, Build901 2013/11/27)

>  <Rbt.Parameter_File>
/export/apps/rDock/src/rDock_2013.1_src/data/scripts/dock_solv.prm

>  <Rbt.Receptor>
prm/blind_docking_80.prm

>  <SCORE>
8.20051

>  <SCORE.INTER>
-0.583606

>  <SCORE.INTER.CONST>
1

>  <SCORE.INTER.POLAR>
0

>  <SCORE.INTER.ROT>
6

>  <SCORE.INTER.SOLV>
19.2659

>  <SCORE.INTER.VDW>
-14.411

>  <SCORE.INTER.norm>
-0.018826

>  <SCORE.INTRA>
1.71794

>  <SCORE.INTRA.DIHEDRAL>
-7.32961

>  <SCORE.INTRA.DIHEDRAL.0>
20.6841

>  <SCORE.INTRA.POLAR>
0

>  <SCORE.INTRA.POLAR.0>
0

>  <SCORE.INTRA.REPUL>
0

>  <SCORE.INTRA.REPUL.0>
0

>  <SCORE.INTRA.SOLV>
3.02561

>  <SCORE.INTRA.SOLV.lig_0>
-64.6797

>  <SCORE.INTRA.VDW>
3.86993

>  <SCORE.INTRA.VDW.0>
-4.11825

>  <SCORE.INTRA.norm>
0.0554173

>  <SCORE.RESTR>
7.06618

>  <SCORE.RESTR.CAVITY>
7.06618

>  <SCORE.RESTR.norm>
0.227941

>  <SCORE.SYSTEM>
0

>  <SCORE.SYSTEM.CONST>
0

>  <SCORE.SYSTEM.DIHEDRAL>
0

>  <SCORE.SYSTEM.SOLV>
0

>  <SCORE.SYSTEM.norm>
0

>  <SCORE.heavy>
31

>  <SCORE.norm>
0.264533

>  <RMSD>
12.216

$$$$
ligand
 OpenBabel11021811493D
libRbt.so/2013.1/901 2013/11/27
 31 33  0  0  0  0  0  0  0  0999 V2000
    3.4941    2.1216   -0.0089 C   0  0  2  0  0  0  0  0  0  0  0  0
    3.4500    2.9658    1.1377 O   0  0  0  0  0  0  0  0  0  0  0  0
    5.6459    6.2090    2.7940 C   0  0  2  0  0  0  0  0  0  0  0  0
    6.3046    7.4751    2.8952 N   0  0  0  0  0  0  0  0  0  0  0  0
    2.9810    8.5073    3.2875 C   0  0  2  0  0  0  0  0  0  0  0  0
    3.1812    3.0420   -1.2583 C   0  0  2  0  0  0  0  0  0  0  0  0
    4.1824    4.1016   -1.3226 N   0  0  0  0  0  0  0  0  0  0  0  0
    6.3237    5.3860    1.6222 C   0  0  0  0  0  0  0  0  0  0  0  0
    2.2545    8.8619    4.6237 C   0  0  2  0  0  0  0  0  0  0  0  0
    3.1960    8.7945    5.6733 O   0  0  0  0  0  0  0  0  0  0  0  0
    1.7282    3.6534   -1.1413 C   0  0  0  0  0  0  0  0  0  0  0  0
    5.5994    3.9926    1.5062 C   0  0  2  0  0  0  0  0  0  0  0  0
    6.2219    3.2247    0.4143 N   0  0  0  0  0  0  0  0  0  0  0  0
    1.1061    7.8019    4.8265 C   0  0  1  0  0  0  0  0  0  0  0  0
    0.3812    8.0799    6.1104 N   0  0  0  0  0  0  0  0  0  0  0  0
    0.6893    2.6253   -0.5222 C   0  0  0  0  0  0  0  0  0  0  0  0
    4.0502    4.2132    1.2112 C   0  0  2  0  0  0  0  0  0  0  0  0
    0.0671    7.9413    3.5777 C   0  0  1  0  0  0  0  0  0  0  0  0
   -0.4828    9.2440    3.4781 O   0  0  0  0  0  0  0  0  0  0  0  0
    1.1048    1.4517    0.0235 C   0  0  2  0  0  0  0  0  0  0  0  0
    2.4853    1.0731    0.0735 O   0  0  0  0  0  0  0  0  0  0  0  0
    3.4051    5.0406    2.3840 C   0  0  2  0  0  0  0  0  0  0  0  0
    2.0035    5.2444    2.1036 O   0  0  0  0  0  0  0  0  0  0  0  0
    0.8109    7.6553    2.2328 C   0  0  0  0  0  0  0  0  0  0  0  0
    2.0080    8.5626    2.1247 O   0  0  0  0  0  0  0  0  0  0  0  0
    0.1424    0.4284    0.6296 C   0  0  0  0  0  0  0  0  0  0  0  0
   -0.1178    0.8129    2.0002 O   0  0  0  0  0  0  0  0  0  0  0  0
    4.1259    6.4365    2.4697 C   0  0  1  0  0  0  0  0  0  0  0  0
    3.5315    7.1663    3.4967 O   0  0  0  0  0  0  0  0  0  0  0  0
   -1.1345    6.9663    3.6165 C   0  0  0  0  0  0  0  0  0  0  0  0
    1.1056    7.7709    7.3601 C   0  0  0  0  0  0  0  0  0  0  0  0
  1  2  1  1  0  0  0
  1  6  1  0  0  0  0
  1 21  1  0  0  0  0
  3  4  1  6  0  0  0
  3  8  1  0  0  0  0
  3 28  1  0  0  0  0
  5  9  1  0  0  0  0
  5 25  1  0  0  0  0
  5 29  1  1  0  0  0
  6  7  1  1  0  0  0
  6 11  1  0  0  0  0
  8 12  1  0  0  0  0
  9 10  1  1  0  0  0
  9 14  1  0  0  0  0
 11 16  1  0  0  0  0
 12 13  1  6  0  0  0
 12 17  1  0  0  0  0
 14 15  1  1  0  0  0
 14 18  1  0  0  0  0
 15 31  1  0  0  0  0
 16 20  1  0  0  0  0
 17  2  1  1  0  0  0
 17 22  1  0  0  0  0
 18 19  1  6  0  0  0
 18 24  1  0  0  0  0
 18 30  1  0  0  0  0
 20 21  1  0  0  0  0
 20 26  1  6  0  0  0
 22 23  1  6  0  0  0
 22 28  1  0  0  0  0
 24 25  1  0  0  0  0
 26 27  1  0  0  0  0
 28 29  1  1  0  0  0
M  END
>  <CHROM.1>
-45.47091555,172.51587561,-72.06422499,-80.08719998,-84.73503757,115.75892823
2.53484606,5.38668272,2.20043189,-1.42754907,0.19984446,0.61480649

>  <Name>
ligand

>  <RI>
0

>  <Rbt.Current_Directory>
/home/itssahil/PROJECTS/Mol_Feturizer/New_Systems/rnas/4GPX

>  <Rbt.Executable>
rbdock ($Id: //depot/dev/client3/rdock/2013.1/src/exe/rbdock.cxx#4 $)

>  <Rbt.Library>
libRbt.so (2013.1, Build901 2013/11/27)

>  <Rbt.Parameter_File>
/export/apps/rDock/src/rDock_2013.1_src/data/scripts/dock_solv.prm

>  <Rbt.Receptor>
prm/blind_docking_80.prm

>  <SCORE>
8.28188

>  <SCORE.INTER>
-0.604998

>  <SCORE.INTER.CONST>
1

>  <SCORE.INTER.POLAR>
0

>  <SCORE.INTER.ROT>
6

>  <SCORE.INTER.SOLV>
19.2816

>  <SCORE.INTER.VDW>
-14.4305

>  <SCORE.INTER.norm>
-0.0195161

>  <SCORE.INTRA>
1.84177

>  <SCORE.INTRA.DIHEDRAL>
-7.47453

>  <SCORE.INTRA.DIHEDRAL.0>
20.6841

>  <SCORE.INTRA.POLAR>
0

>  <SCORE.INTRA.POLAR.0>
0

>  <SCORE.INTRA.REPUL>
0

>  <SCORE.INTRA.REPUL.0>
0

>  <SCORE.INTRA.SOLV>
3.08119

>  <SCORE.INTRA.SOLV.lig_0>
-64.6797

>  <SCORE.INTRA.VDW>
4.03844

>  <SCORE.INTRA.VDW.0>
-4.11825

>  <SCORE.INTRA.norm>
0.0594119

>  <SCORE.RESTR>
7.04511

>  <SCORE.RESTR.CAVITY>
7.04511

>  <SCORE.RESTR.norm>
0.227262

>  <SCORE.SYSTEM>
0

>  <SCORE.SYSTEM.CONST>
0

>  <SCORE.SYSTEM.DIHEDRAL>
0

>  <SCORE.SYSTEM.SOLV>
0

>  <SCORE.SYSTEM.norm>
0

>  <SCORE.heavy>
31

>  <SCORE.norm>
0.267157

>  <RMSD>
12.227

$$$$
ligand
 OpenBabel11021811493D
libRbt.so/2013.1/901 2013/11/27
 31 33  0  0  0  0  0  0  0  0999 V2000
    3.9355   10.1048    0.2882 C   0  0  2  0  0  0  0  0  0  0  0  0
    3.1340    9.6971    1.3930 O   0  0  0  0  0  0  0  0  0  0  0  0
    4.6460    5.8526    2.4021 C   0  0  2  0  0  0  0  0  0  0  0  0
    4.9440    4.6840    3.1718 N   0  0  0  0  0  0  0  0  0  0  0  0
    2.6569    4.7013    0.2299 C   0  0  2  0  0  0  0  0  0  0  0  0
    3.2152   11.3609   -0.3516 C   0  0  2  0  0  0  0  0  0  0  0  0
    3.1094   12.4067    0.6604 N   0  0  0  0  0  0  0  0  0  0  0  0
    5.2826    7.1066    3.1316 C   0  0  0  0  0  0  0  0  0  0  0  0
    1.4779    3.7468   -0.1409 C   0  0  2  0  0  0  0  0  0  0  0  0
    0.2670    4.3716    0.2280 O   0  0  0  0  0  0  0  0  0  0  0  0
    1.7846   10.9594   -0.8911 C   0  0  0  0  0  0  0  0  0  0  0  0
    4.9543    8.3953    2.2885 C   0  0  2  0  0  0  0  0  0  0  0  0
    5.5392    9.5656    2.9650 N   0  0  0  0  0  0  0  0  0  0  0  0
    1.6901    2.4081    0.6631 C   0  0  1  0  0  0  0  0  0  0  0  0
    0.5722    1.4538    0.3620 N   0  0  0  0  0  0  0  0  0  0  0  0
    1.7691    9.5103   -1.5387 C   0  0  0  0  0  0  0  0  0  0  0  0
    3.3765    8.5662    2.1572 C   0  0  2  0  0  0  0  0  0  0  0  0
    3.1042    1.7529    0.1841 C   0  0  1  0  0  0  0  0  0  0  0  0
    3.1333    1.4954   -1.2096 O   0  0  0  0  0  0  0  0  0  0  0  0
    2.8365    8.6773   -1.4186 C   0  0  2  0  0  0  0  0  0  0  0  0
    4.0257    9.0483   -0.7116 O   0  0  0  0  0  0  0  0  0  0  0  0
    2.7697    7.3044    1.4391 C   0  0  2  0  0  0  0  0  0  0  0  0
    1.3386    7.4632    1.3334 O   0  0  0  0  0  0  0  0  0  0  0  0
    4.2779    2.7388    0.4911 C   0  0  0  0  0  0  0  0  0  0  0  0
    3.9857    4.0722   -0.1449 O   0  0  0  0  0  0  0  0  0  0  0  0
    2.8700    7.2739   -2.0268 C   0  0  0  0  0  0  0  0  0  0  0  0
    3.9414    7.2305   -2.9986 O   0  0  0  0  0  0  0  0  0  0  0  0
    3.0882    6.0311    2.3068 C   0  0  1  0  0  0  0  0  0  0  0  0
    2.5276    4.9253    1.6716 O   0  0  0  0  0  0  0  0  0  0  0  0
    3.4741    0.4198    0.8781 C   0  0  0  0  0  0  0  0  0  0  0  0
    0.0264    0.6917    1.5037 C   0  0  0  0  0  0  0  0  0  0  0  0
  1  2  1  1  0  0  0
  1  6  1  0  0  0  0
  1 21  1  0  0  0  0
  3  4  1  1  0  0  0
  3  8  1  0  0  0  0
  3 28  1  0  0  0  0
  5  9  1  0  0  0  0
  5 25  1  0  0  0  0
  5 29  1  1  0  0  0
  6  7  1  1  0  0  0
  6 11  1  0  0  0  0
  8 12  1  0  0  0  0
  9 10  1  1  0  0  0
  9 14  1  0  0  0  0
 11 16  1  0  0  0  0
 12 13  1  1  0  0  0
 12 17  1  0  0  0  0
 14 15  1  6  0  0  0
 14 18  1  0  0  0  0
 15 31  1  0  0  0  0
 16 20  1  0  0  0  0
 17  2  1  6  0  0  0
 17 22  1  0  0  0  0
 18 19  1  6  0  0  0
 18 24  1  0  0  0  0
 18 30  1  0  0  0  0
 20 21  1  0  0  0  0
 20 26  1  6  0  0  0
 22 23  1  1  0  0  0
 22 28  1  0  0  0  0
 24 25  1  0  0  0  0
 26 27  1  0  0  0  0
 28 29  1  6  0  0  0
M  END
>  <CHROM.1>
175.07494605,-158.28680431,-138.62809633,36.18534490,117.76131515,-73.56147452
3.00657615,6.22596307,0.56433819,-1.31532684,0.97423522,2.90561301

>  <Name>
ligand

>  <RI>
0

>  <Rbt.Current_Directory>
/home/itssahil/PROJECTS/Mol_Feturizer/New_Systems/rnas/4GPX

>  <Rbt.Executable>
rbdock ($Id: //depot/dev/client3/rdock/2013.1/src/exe/rbdock.cxx#4 $)

>  <Rbt.Library>
libRbt.so (2013.1, Build901 2013/11/27)

>  <Rbt.Parameter_File>
/export/apps/rDock/src/rDock_2013.1_src/data/scripts/dock_solv.prm

>  <Rbt.Receptor>
prm/blind_docking_40.prm

>  <SCORE>
-3.43965

>  <SCORE.INTER>
-3.34605

>  <SCORE.INTER.CONST>
1

>  <SCORE.INTER.POLAR>
0

>  <SCORE.INTER.ROT>
6

>  <SCORE.INTER.SOLV>
17.6454

>  <SCORE.INTER.VDW>
-15.7125

>  <SCORE.INTER.norm>
-0.107937

>  <SCORE.INTRA>
-6.01395

>  <SCORE.INTRA.DIHEDRAL>
-12.5206

>  <SCORE.INTRA.DIHEDRAL.0>
20.6841

>  <SCORE.INTRA.POLAR>
0

>  <SCORE.INTRA.POLAR.0>
0

>  <SCORE.INTRA.REPUL>
0

>  <SCORE.INTRA.REPUL.0>
0

>  <SCORE.INTRA.SOLV>
-0.336118

>  <SCORE.INTRA.SOLV.lig_0>
-64.6797

>  <SCORE.INTRA.VDW>
0.414429

>  <SCORE.INTRA.VDW.0>
-4.11825

>  <SCORE.INTRA.norm>
-0.193998

>  <SCORE.RESTR>
5.92035

>  <SCORE.RESTR.CAVITY>
5.92035

>  <SCORE.RESTR.norm>
0.190979

>  <SCORE.SYSTEM>
0

>  <SCORE.SYSTEM.CONST>
0

>  <SCORE.SYSTEM.DIHEDRAL>
0

>  <SCORE.SYSTEM.SOLV>
0

>  <SCORE.SYSTEM.norm>
0

>  <SCORE.heavy>
31

>  <SCORE.norm>
-0.110956

>  <RMSD>
12.228

$$$$
ligand
 OpenBabel11021811493D
libRbt.so/2013.1/901 2013/11/27
 31 33  0  0  0  0  0  0  0  0999 V2000
    3.9312    9.9830    0.2740 C   0  0  2  0  0  0  0  0  0  0  0  0
    3.0546    9.5874    1.3248 O   0  0  0  0  0  0  0  0  0  0  0  0
    4.7876    5.9628    2.7187 C   0  0  2  0  0  0  0  0  0  0  0  0
    5.0585    4.8378    3.5600 N   0  0  0  0  0  0  0  0  0  0  0  0
    2.6506    4.7938    0.1534 C   0  0  2  0  0  0  0  0  0  0  0  0
    3.3040   11.2864   -0.3692 C   0  0  2  0  0  0  0  0  0  0  0  0
    3.1929   12.3118    0.6631 N   0  0  0  0  0  0  0  0  0  0  0  0
    5.0892    7.2839    3.5395 C   0  0  0  0  0  0  0  0  0  0  0  0
    1.2648    4.0781    0.0755 C   0  0  2  0  0  0  0  0  0  0  0  0
    0.3558    4.7781    0.8980 O   0  0  0  0  0  0  0  0  0  0  0  0
    1.8871   10.9657   -0.9922 C   0  0  0  0  0  0  0  0  0  0  0  0
    4.7895    8.5246    2.6172 C   0  0  2  0  0  0  0  0  0  0  0  0
    5.0629    9.7565    3.3770 N   0  0  0  0  0  0  0  0  0  0  0  0
    1.4713    2.6030    0.5904 C   0  0  1  0  0  0  0  0  0  0  0  0
    0.1640    1.8674    0.5575 N   0  0  0  0  0  0  0  0  0  0  0  0
    1.8394    9.5346   -1.6774 C   0  0  0  0  0  0  0  0  0  0  0  0
    3.2682    8.4927    2.1481 C   0  0  2  0  0  0  0  0  0  0  0  0
    2.5312    1.8666   -0.4060 C   0  0  1  0  0  0  0  0  0  0  0  0
    2.0867    1.8564   -1.7520 O   0  0  0  0  0  0  0  0  0  0  0  0
    2.8598    8.6497   -1.5241 C   0  0  2  0  0  0  0  0  0  0  0  0
    4.0256    8.9474   -0.7471 O   0  0  0  0  0  0  0  0  0  0  0  0
    2.9941    7.1675    1.3451 C   0  0  2  0  0  0  0  0  0  0  0  0
    1.6107    7.1423    0.9325 O   0  0  0  0  0  0  0  0  0  0  0  0
    3.8981    2.6249   -0.3820 C   0  0  0  0  0  0  0  0  0  0  0  0
    3.6672    4.0755   -0.7140 O   0  0  0  0  0  0  0  0  0  0  0  0
    2.8611    7.2611   -2.1662 C   0  0  0  0  0  0  0  0  0  0  0  0
    4.0210    7.1645   -3.0261 O   0  0  0  0  0  0  0  0  0  0  0  0
    3.2769    5.9408    2.2889 C   0  0  1  0  0  0  0  0  0  0  0  0
    3.0101    4.7757    1.5732 O   0  0  0  0  0  0  0  0  0  0  0  0
    2.8526    0.3962   -0.0453 C   0  0  0  0  0  0  0  0  0  0  0  0
    0.0160    0.7378    1.4978 C   0  0  0  0  0  0  0  0  0  0  0  0
  1  2  1  1  0  0  0
  1  6  1  0  0  0  0
  1 21  1  0  0  0  0
  3  4  1  1  0  0  0
  3  8  1  0  0  0  0
  3 28  1  0  0  0  0
  5  9  1  0  0  0  0
  5 25  1  0  0  0  0
  5 29  1  1  0  0  0
  6  7  1  1  0  0  0
  6 11  1  0  0  0  0
  8 12  1  0  0  0  0
  9 10  1  1  0  0  0
  9 14  1  0  0  0  0
 11 16  1  0  0  0  0
 12 13  1  1  0  0  0
 12 17  1  0  0  0  0
 14 15  1  6  0  0  0
 14 18  1  0  0  0  0
 15 31  1  0  0  0  0
 16 20  1  0  0  0  0
 17  2  1  6  0  0  0
 17 22  1  0  0  0  0
 18 19  1  6  0  0  0
 18 24  1  0  0  0  0
 18 30  1  0  0  0  0
 20 21  1  0  0  0  0
 20 26  1  6  0  0  0
 22 23  1  1  0  0  0
 22 28  1  0  0  0  0
 24 25  1  0  0  0  0
 26 27  1  0  0  0  0
 28 29  1  6  0  0  0
M  END
>  <CHROM.1>
-178.96921045,-122.59867642,-154.46986852,45.81292027,120.86519389,-113.80657631
2.91391219,6.26433512,0.49572434,1.09202336,-1.13147112,-0.40604662

>  <Name>
ligand

>  <RI>
0

>  <Rbt.Current_Directory>
/home/itssahil/PROJECTS/Mol_Feturizer/New_Systems/rnas/4GPX

>  <Rbt.Executable>
rbdock ($Id: //depot/dev/client3/rdock/2013.1/src/exe/rbdock.cxx#4 $)

>  <Rbt.Library>
libRbt.so (2013.1, Build901 2013/11/27)

>  <Rbt.Parameter_File>
/export/apps/rDock/src/rDock_2013.1_src/data/scripts/dock_solv.prm

>  <Rbt.Receptor>
prm/blind_docking_40.prm

>  <SCORE>
2.40252

>  <SCORE.INTER>
-3.8279

>  <SCORE.INTER.CONST>
1

>  <SCORE.INTER.POLAR>
0

>  <SCORE.INTER.ROT>
6

>  <SCORE.INTER.SOLV>
19.5458

>  <SCORE.INTER.VDW>
-16.6672

>  <SCORE.INTER.norm>
-0.123481

>  <SCORE.INTRA>
0.924973

>  <SCORE.INTRA.DIHEDRAL>
-3.40623

>  <SCORE.INTRA.DIHEDRAL.0>
20.6841

>  <SCORE.INTRA.POLAR>
0

>  <SCORE.INTRA.POLAR.0>
0

>  <SCORE.INTRA.REPUL>
0

>  <SCORE.INTRA.REPUL.0>
0

>  <SCORE.INTRA.SOLV>
-1.439

>  <SCORE.INTRA.SOLV.lig_0>
-64.6797

>  <SCORE.INTRA.VDW>
3.34759

>  <SCORE.INTRA.VDW.0>
-4.11825

>  <SCORE.INTRA.norm>
0.0298378

>  <SCORE.RESTR>
5.30544

>  <SCORE.RESTR.CAVITY>
5.30544

>  <SCORE.RESTR.norm>
0.171143

>  <SCORE.SYSTEM>
0

>  <SCORE.SYSTEM.CONST>
0

>  <SCORE.SYSTEM.DIHEDRAL>
0

>  <SCORE.SYSTEM.SOLV>
0

>  <SCORE.SYSTEM.norm>
0

>  <SCORE.heavy>
31

>  <SCORE.norm>
0.0775007

>  <RMSD>
12.229

$$$$
ligand
 OpenBabel11021811493D
libRbt.so/2013.1/901 2013/11/27
 31 33  0  0  0  0  0  0  0  0999 V2000
    1.3415    3.2560    0.9137 C   0  0  2  0  0  0  0  0  0  0  0  0
    2.7023    3.0892    1.3006 O   0  0  0  0  0  0  0  0  0  0  0  0
    6.0781    5.4194    2.4224 C   0  0  2  0  0  0  0  0  0  0  0  0
    7.1024    6.4167    2.3672 N   0  0  0  0  0  0  0  0  0  0  0  0
    4.3922    8.3932    3.4169 C   0  0  2  0  0  0  0  0  0  0  0  0
    0.7578    1.8029    0.6816 C   0  0  2  0  0  0  0  0  0  0  0  0
    0.8830    1.0437    1.9214 N   0  0  0  0  0  0  0  0  0  0  0  0
    6.2197    4.4876    1.1490 C   0  0  0  0  0  0  0  0  0  0  0  0
    3.9049    8.8603    4.8251 C   0  0  2  0  0  0  0  0  0  0  0  0
    4.8662    8.4675    5.7813 O   0  0  0  0  0  0  0  0  0  0  0  0
    1.5288    1.0815   -0.4949 C   0  0  0  0  0  0  0  0  0  0  0  0
    5.0920    3.3900    1.2050 C   0  0  2  0  0  0  0  0  0  0  0  0
    5.2151    2.5235    0.0202 N   0  0  0  0  0  0  0  0  0  0  0  0
    2.5197    8.1592    5.0963 C   0  0  1  0  0  0  0  0  0  0  0  0
    2.0079    8.5556    6.4498 N   0  0  0  0  0  0  0  0  0  0  0  0
    1.9031    2.0790   -1.6716 C   0  0  0  0  0  0  0  0  0  0  0  0
    3.6610    4.0881    1.2307 C   0  0  2  0  0  0  0  0  0  0  0  0
    1.4705    8.6602    3.9533 C   0  0  1  0  0  0  0  0  0  0  0  0
    1.3121   10.0689    3.9485 O   0  0  0  0  0  0  0  0  0  0  0  0
    1.7455    3.4217   -1.5292 C   0  0  2  0  0  0  0  0  0  0  0  0
    1.2388    4.0132   -0.3272 O   0  0  0  0  0  0  0  0  0  0  0  0
    3.5513    5.0139    2.4983 C   0  0  2  0  0  0  0  0  0  0  0  0
    2.2553    5.6502    2.5083 O   0  0  0  0  0  0  0  0  0  0  0  0
    1.9934    8.2544    2.5371 C   0  0  0  0  0  0  0  0  0  0  0  0
    3.3885    8.7900    2.3505 O   0  0  0  0  0  0  0  0  0  0  0  0
    2.0894    4.4221   -2.6344 C   0  0  0  0  0  0  0  0  0  0  0  0
    3.4657    4.8325   -2.4570 O   0  0  0  0  0  0  0  0  0  0  0  0
    4.6704    6.1165    2.4134 C   0  0  1  0  0  0  0  0  0  0  0  0
    4.5486    6.9413    3.5294 O   0  0  0  0  0  0  0  0  0  0  0  0
    0.0463    8.0652    4.0690 C   0  0  0  0  0  0  0  0  0  0  0  0
    1.1833    7.5594    7.1638 C   0  0  0  0  0  0  0  0  0  0  0  0
  1  2  1  6  0  0  0
  1  6  1  0  0  0  0
  1 21  1  0  0  0  0
  3  4  1  6  0  0  0
  3  8  1  0  0  0  0
  3 28  1  0  0  0  0
  5  9  1  0  0  0  0
  5 25  1  0  0  0  0
  5 29  1  1  0  0  0
  6  7  1  1  0  0  0
  6 11  1  0  0  0  0
  8 12  1  0  0  0  0
  9 10  1  1  0  0  0
  9 14  1  0  0  0  0
 11 16  1  0  0  0  0
 12 13  1  6  0  0  0
 12 17  1  0  0  0  0
 14 15  1  1  0  0  0
 14 18  1  0  0  0  0
 15 31  1  0  0  0  0
 16 20  1  0  0  0  0
 17  2  1  1  0  0  0
 17 22  1  0  0  0  0
 18 19  1  1  0  0  0
 18 24  1  0  0  0  0
 18 30  1  0  0  0  0
 20 21  1  0  0  0  0
 20 26  1  6  0  0  0
 22 23  1  6  0  0  0
 22 28  1  0  0  0  0
 24 25  1  0  0  0  0
 26 27  1  0  0  0  0
 28 29  1  1  0  0  0
M  END
>  <CHROM.1>
160.89403977,164.84794397,-149.15974422,-158.65835906,-90.97827630,116.58795513
2.98841828,5.61477814,2.09186925,1.61482838,-0.12490447,-2.38775227

>  <Name>
ligand

>  <RI>
0

>  <Rbt.Current_Directory>
/home/itssahil/PROJECTS/Mol_Feturizer/New_Systems/rnas/4GPX

>  <Rbt.Executable>
rbdock ($Id: //depot/dev/client3/rdock/2013.1/src/exe/rbdock.cxx#4 $)

>  <Rbt.Library>
libRbt.so (2013.1, Build901 2013/11/27)

>  <Rbt.Parameter_File>
/export/apps/rDock/src/rDock_2013.1_src/data/scripts/dock_solv.prm

>  <Rbt.Receptor>
prm/blind_docking_80.prm

>  <SCORE>
9.72812

>  <SCORE.INTER>
3.82673

>  <SCORE.INTER.CONST>
1

>  <SCORE.INTER.POLAR>
0

>  <SCORE.INTER.ROT>
6

>  <SCORE.INTER.SOLV>
21.8306

>  <SCORE.INTER.VDW>
-12.3257

>  <SCORE.INTER.norm>
0.123443

>  <SCORE.INTRA>
-1.92671

>  <SCORE.INTRA.DIHEDRAL>
-5.57161

>  <SCORE.INTRA.DIHEDRAL.0>
20.6841

>  <SCORE.INTRA.POLAR>
0

>  <SCORE.INTRA.POLAR.0>
0

>  <SCORE.INTRA.REPUL>
0

>  <SCORE.INTRA.REPUL.0>
0

>  <SCORE.INTRA.SOLV>
-0.770606

>  <SCORE.INTRA.SOLV.lig_0>
-64.6797

>  <SCORE.INTRA.VDW>
1.2444

>  <SCORE.INTRA.VDW.0>
-4.11825

>  <SCORE.INTRA.norm>
-0.0621519

>  <SCORE.RESTR>
7.82811

>  <SCORE.RESTR.CAVITY>
7.82811

>  <SCORE.RESTR.norm>
0.25252

>  <SCORE.SYSTEM>
0

>  <SCORE.SYSTEM.CONST>
0

>  <SCORE.SYSTEM.DIHEDRAL>
0

>  <SCORE.SYSTEM.SOLV>
0

>  <SCORE.SYSTEM.norm>
0

>  <SCORE.heavy>
31

>  <SCORE.norm>
0.31381

>  <RMSD>
12.240

$$$$
ligand
 OpenBabel11021811493D
libRbt.so/2013.1/901 2013/11/27
 31 33  0  0  0  0  0  0  0  0999 V2000
    2.8740    2.1185   -0.5344 C   0  0  2  0  0  0  0  0  0  0  0  0
    3.1422    2.7633    0.7071 O   0  0  0  0  0  0  0  0  0  0  0  0
    5.7703    5.6231    2.4387 C   0  0  2  0  0  0  0  0  0  0  0  0
    6.5566    6.8087    2.5905 N   0  0  0  0  0  0  0  0  0  0  0  0
    3.4631    8.1186    3.3729 C   0  0  2  0  0  0  0  0  0  0  0  0
    2.4055    3.2498   -1.5377 C   0  0  2  0  0  0  0  0  0  0  0  0
    3.4698    4.2409   -1.6570 N   0  0  0  0  0  0  0  0  0  0  0  0
    6.2697    4.8553    1.1460 C   0  0  0  0  0  0  0  0  0  0  0  0
    2.8689    8.4173    4.7858 C   0  0  2  0  0  0  0  0  0  0  0  0
    3.8453    8.1008    5.7549 O   0  0  0  0  0  0  0  0  0  0  0  0
    1.0709    3.9232   -1.0238 C   0  0  0  0  0  0  0  0  0  0  0  0
    5.4046    3.5508    0.9742 C   0  0  2  0  0  0  0  0  0  0  0  0
    5.8608    2.8351   -0.2297 N   0  0  0  0  0  0  0  0  0  0  0  0
    1.5904    7.5116    4.9558 C   0  0  1  0  0  0  0  0  0  0  0  0
    0.9837    7.7406    6.3088 N   0  0  0  0  0  0  0  0  0  0  0  0
    0.0844    2.8740   -0.3561 C   0  0  0  0  0  0  0  0  0  0  0  0
    3.8664    3.9384    0.8351 C   0  0  2  0  0  0  0  0  0  0  0  0
    0.5176    7.9350    3.8034 C   0  0  1  0  0  0  0  0  0  0  0  0
    0.1593    9.3045    3.8787 O   0  0  0  0  0  0  0  0  0  0  0  0
    0.4871    1.6030   -0.0917 C   0  0  2  0  0  0  0  0  0  0  0  0
    1.8069    1.1358   -0.3945 O   0  0  0  0  0  0  0  0  0  0  0  0
    3.3999    4.7074    2.1262 C   0  0  2  0  0  0  0  0  0  0  0  0
    2.0077    5.0636    1.9873 O   0  0  0  0  0  0  0  0  0  0  0  0
    1.1386    7.7024    2.3877 C   0  0  0  0  0  0  0  0  0  0  0  0
    2.4478    8.4404    2.2923 O   0  0  0  0  0  0  0  0  0  0  0  0
   -0.4270    0.5560    0.5477 C   0  0  0  0  0  0  0  0  0  0  0  0
   -0.2425    0.6140    1.9819 O   0  0  0  0  0  0  0  0  0  0  0  0
    4.2594    6.0176    2.2685 C   0  0  1  0  0  0  0  0  0  0  0  0
    3.8222    6.6990    3.4022 O   0  0  0  0  0  0  0  0  0  0  0  0
   -0.8097    7.1389    3.8232 C   0  0  0  0  0  0  0  0  0  0  0  0
    0.9996    9.1282    6.8154 C   0  0  0  0  0  0  0  0  0  0  0  0
  1  2  1  1  0  0  0
  1  6  1  0  0  0  0
  1 21  1  0  0  0  0
  3  4  1  6  0  0  0
  3  8  1  0  0  0  0
  3 28  1  0  0  0  0
  5  9  1  0  0  0  0
  5 25  1  0  0  0  0
  5 29  1  1  0  0  0
  6  7  1  1  0  0  0
  6 11  1  0  0  0  0
  8 12  1  0  0  0  0
  9 10  1  1  0  0  0
  9 14  1  0  0  0  0
 11 16  1  0  0  0  0
 12 13  1  6  0  0  0
 12 17  1  0  0  0  0
 14 15  1  1  0  0  0
 14 18  1  0  0  0  0
 15 31  1  0  0  0  0
 16 20  1  0  0  0  0
 17  2  1  1  0  0  0
 17 22  1  0  0  0  0
 18 19  1  1  0  0  0
 18 24  1  0  0  0  0
 18 30  1  0  0  0  0
 20 21  1  0  0  0  0
 20 26  1  6  0  0  0
 22 23  1  6  0  0  0
 22 28  1  0  0  0  0
 24 25  1  0  0  0  0
 26 27  1  0  0  0  0
 28 29  1  1  0  0  0
M  END
>  <CHROM.1>
-45.77526609,173.11473787,38.01858417,-88.21511781,-91.72551628,112.26139238
2.51470481,5.25697458,2.07211984,-1.54582636,0.19043835,0.67531222

>  <Name>
ligand

>  <RI>
0

>  <Rbt.Current_Directory>
/home/itssahil/PROJECTS/Mol_Feturizer/New_Systems/rnas/4GPX

>  <Rbt.Executable>
rbdock ($Id: //depot/dev/client3/rdock/2013.1/src/exe/rbdock.cxx#4 $)

>  <Rbt.Library>
libRbt.so (2013.1, Build901 2013/11/27)

>  <Rbt.Parameter_File>
/export/apps/rDock/src/rDock_2013.1_src/data/scripts/dock_solv.prm

>  <Rbt.Receptor>
prm/blind_docking_80.prm

>  <SCORE>
10.8708

>  <SCORE.INTER>
0.856109

>  <SCORE.INTER.CONST>
1

>  <SCORE.INTER.POLAR>
0

>  <SCORE.INTER.ROT>
6

>  <SCORE.INTER.SOLV>
21.4021

>  <SCORE.INTER.VDW>
-14.1633

>  <SCORE.INTER.norm>
0.0276164

>  <SCORE.INTRA>
2.8515

>  <SCORE.INTRA.DIHEDRAL>
-6.41817

>  <SCORE.INTRA.DIHEDRAL.0>
20.6841

>  <SCORE.INTRA.POLAR>
0

>  <SCORE.INTRA.POLAR.0>
0

>  <SCORE.INTRA.REPUL>
0

>  <SCORE.INTRA.REPUL.0>
0

>  <SCORE.INTRA.SOLV>
2.7682

>  <SCORE.INTRA.SOLV.lig_0>
-64.6797

>  <SCORE.INTRA.VDW>
4.67649

>  <SCORE.INTRA.VDW.0>
-4.11825

>  <SCORE.INTRA.norm>
0.0919839

>  <SCORE.RESTR>
7.16316

>  <SCORE.RESTR.CAVITY>
7.16316

>  <SCORE.RESTR.norm>
0.23107

>  <SCORE.SYSTEM>
0

>  <SCORE.SYSTEM.CONST>
0

>  <SCORE.SYSTEM.DIHEDRAL>
0

>  <SCORE.SYSTEM.SOLV>
0

>  <SCORE.SYSTEM.norm>
0

>  <SCORE.heavy>
31

>  <SCORE.norm>
0.35067

>  <RMSD>
12.254

$$$$
ligand
 OpenBabel11021811493D
libRbt.so/2013.1/901 2013/11/27
 31 33  0  0  0  0  0  0  0  0999 V2000
    5.1734    7.4249    2.2926 C   0  0  2  0  0  0  0  0  0  0  0  0
    3.9836    7.2624    3.0588 O   0  0  0  0  0  0  0  0  0  0  0  0
   -0.0478    5.9438    2.7530 C   0  0  2  0  0  0  0  0  0  0  0  0
   -1.3701    5.7687    2.2356 N   0  0  0  0  0  0  0  0  0  0  0  0
    0.4636    3.4500    0.2148 C   0  0  2  0  0  0  0  0  0  0  0  0
    5.7422    8.8601    2.6428 C   0  0  2  0  0  0  0  0  0  0  0  0
    6.0044    8.9235    4.0768 N   0  0  0  0  0  0  0  0  0  0  0  0
    0.2036    7.4935    2.9660 C   0  0  0  0  0  0  0  0  0  0  0  0
    0.6051    1.9050    0.3920 C   0  0  2  0  0  0  0  0  0  0  0  0
   -0.2854    1.4900    1.4056 O   0  0  0  0  0  0  0  0  0  0  0  0
    4.7124    9.9801    2.2137 C   0  0  0  0  0  0  0  0  0  0  0  0
    1.6594    7.6903    3.5331 C   0  0  2  0  0  0  0  0  0  0  0  0
    1.9010    9.1301    3.7281 N   0  0  0  0  0  0  0  0  0  0  0  0
    2.0996    1.6167    0.8008 C   0  0  1  0  0  0  0  0  0  0  0  0
    2.2934    0.1431    1.0056 N   0  0  0  0  0  0  0  0  0  0  0  0
    3.9766    9.6324    0.8508 C   0  0  0  0  0  0  0  0  0  0  0  0
    2.7219    7.0866    2.5121 C   0  0  2  0  0  0  0  0  0  0  0  0
    3.0602    2.1247   -0.4147 C   0  0  1  0  0  0  0  0  0  0  0  0
    2.7578    1.4848   -1.6430 O   0  0  0  0  0  0  0  0  0  0  0  0
    4.0996    8.4045    0.2811 C   0  0  2  0  0  0  0  0  0  0  0  0
    4.8895    7.3617    0.8645 O   0  0  0  0  0  0  0  0  0  0  0  0
    2.4433    5.5509    2.3115 C   0  0  2  0  0  0  0  0  0  0  0  0
    3.4044    5.0142    1.3773 O   0  0  0  0  0  0  0  0  0  0  0  0
    2.8664    3.6596   -0.6394 C   0  0  0  0  0  0  0  0  0  0  0  0
    1.4057    3.9480   -0.8652 O   0  0  0  0  0  0  0  0  0  0  0  0
    3.4127    8.0231   -1.0316 C   0  0  0  0  0  0  0  0  0  0  0  0
    3.3425    9.2059   -1.8624 O   0  0  0  0  0  0  0  0  0  0  0  0
    0.9944    5.3758    1.7240 C   0  0  1  0  0  0  0  0  0  0  0  0
    0.7689    4.0146    1.5313 O   0  0  0  0  0  0  0  0  0  0  0  0
    4.5757    1.9158   -0.1798 C   0  0  0  0  0  0  0  0  0  0  0  0
    1.9605   -0.7335   -0.1359 C   0  0  0  0  0  0  0  0  0  0  0  0
  1  2  1  1  0  0  0
  1  6  1  0  0  0  0
  1 21  1  0  0  0  0
  3  4  1  6  0  0  0
  3  8  1  0  0  0  0
  3 28  1  0  0  0  0
  5  9  1  0  0  0  0
  5 25  1  0  0  0  0
  5 29  1  1  0  0  0
  6  7  1  1  0  0  0
  6 11  1  0  0  0  0
  8 12  1  0  0  0  0
  9 10  1  1  0  0  0
  9 14  1  0  0  0  0
 11 16  1  0  0  0  0
 12 13  1  6  0  0  0
 12 17  1  0  0  0  0
 14 15  1  6  0  0  0
 14 18  1  0  0  0  0
 15 31  1  0  0  0  0
 16 20  1  0  0  0  0
 17  2  1  1  0  0  0
 17 22  1  0  0  0  0
 18 19  1  6  0  0  0
 18 24  1  0  0  0  0
 18 30  1  0  0  0  0
 20 21  1  0  0  0  0
 20 26  1  6  0  0  0
 22 23  1  6  0  0  0
 22 28  1  0  0  0  0
 24 25  1  0  0  0  0
 26 27  1  0  0  0  0
 28 29  1  1  0  0  0
M  END
>  <CHROM.1>
117.76047595,167.67316974,57.10798399,-150.73767123,32.68312413,121.01137291
2.57975077,5.42444063,1.18633758,-1.22714735,-0.49917909,-2.71887402

>  <Name>
ligand

>  <RI>
0

>  <Rbt.Current_Directory>
/home/itssahil/PROJECTS/Mol_Feturizer/New_Systems/rnas/4GPX

>  <Rbt.Executable>
rbdock ($Id: //depot/dev/client3/rdock/2013.1/src/exe/rbdock.cxx#4 $)

>  <Rbt.Library>
libRbt.so (2013.1, Build901 2013/11/27)

>  <Rbt.Parameter_File>
/export/apps/rDock/src/rDock_2013.1_src/data/scripts/dock_solv.prm

>  <Rbt.Receptor>
prm/blind_docking_40.prm

>  <SCORE>
16.336

>  <SCORE.INTER>
3.7096

>  <SCORE.INTER.CONST>
1

>  <SCORE.INTER.POLAR>
0

>  <SCORE.INTER.ROT>
6

>  <SCORE.INTER.SOLV>
17.41

>  <SCORE.INTER.VDW>
-10.9303

>  <SCORE.INTER.norm>
0.119664

>  <SCORE.INTRA>
6.30941

>  <SCORE.INTRA.DIHEDRAL>
0.6419

>  <SCORE.INTRA.DIHEDRAL.0>
20.6841

>  <SCORE.INTRA.POLAR>
0

>  <SCORE.INTRA.POLAR.0>
0

>  <SCORE.INTRA.REPUL>
0

>  <SCORE.INTRA.REPUL.0>
0

>  <SCORE.INTRA.SOLV>
0.390155

>  <SCORE.INTRA.SOLV.lig_0>
-64.6797

>  <SCORE.INTRA.VDW>
5.79338

>  <SCORE.INTRA.VDW.0>
-4.11825

>  <SCORE.INTRA.norm>
0.203529

>  <SCORE.RESTR>
6.31695

>  <SCORE.RESTR.CAVITY>
6.31695

>  <SCORE.RESTR.norm>
0.203773

>  <SCORE.SYSTEM>
0

>  <SCORE.SYSTEM.CONST>
0

>  <SCORE.SYSTEM.DIHEDRAL>
0

>  <SCORE.SYSTEM.SOLV>
0

>  <SCORE.SYSTEM.norm>
0

>  <SCORE.heavy>
31

>  <SCORE.norm>
0.526966

>  <RMSD>
12.256

$$$$
ligand
 OpenBabel11021811493D
libRbt.so/2013.1/901 2013/11/27
 31 33  0  0  0  0  0  0  0  0999 V2000
    3.3308    2.6107    0.9929 C   0  0  2  0  0  0  0  0  0  0  0  0
    4.1184    3.5297    0.2416 O   0  0  0  0  0  0  0  0  0  0  0  0
    5.5333    6.3162    3.1256 C   0  0  2  0  0  0  0  0  0  0  0  0
    6.0893    7.5117    3.6811 N   0  0  0  0  0  0  0  0  0  0  0  0
    2.5821    8.4740    2.9211 C   0  0  2  0  0  0  0  0  0  0  0  0
    3.5305    1.1916    0.3206 C   0  0  2  0  0  0  0  0  0  0  0  0
    4.9489    0.8508    0.3570 N   0  0  0  0  0  0  0  0  0  0  0  0
    6.5933    5.6890    2.1290 C   0  0  0  0  0  0  0  0  0  0  0  0
    1.8900    8.8804    4.2606 C   0  0  2  0  0  0  0  0  0  0  0  0
    2.8853    9.0159    5.2524 O   0  0  0  0  0  0  0  0  0  0  0  0
    2.9985    1.2079   -1.1679 C   0  0  0  0  0  0  0  0  0  0  0  0
    5.9836    4.3741    1.5136 C   0  0  2  0  0  0  0  0  0  0  0  0
    6.9628    3.7891    0.5816 N   0  0  0  0  0  0  0  0  0  0  0  0
    0.8772    7.7310    4.6305 C   0  0  1  0  0  0  0  0  0  0  0  0
    0.1923    8.0566    5.9251 N   0  0  0  0  0  0  0  0  0  0  0  0
    1.6831    2.0817   -1.3286 C   0  0  0  0  0  0  0  0  0  0  0  0
    4.6295    4.7146    0.7480 C   0  0  2  0  0  0  0  0  0  0  0  0
   -0.2330    7.6369    3.4402 C   0  0  1  0  0  0  0  0  0  0  0  0
   -0.9276    8.8586    3.2543 O   0  0  0  0  0  0  0  0  0  0  0  0
    1.2390    2.8728   -0.3164 C   0  0  2  0  0  0  0  0  0  0  0  0
    1.9185    2.9666    0.9410 O   0  0  0  0  0  0  0  0  0  0  0  0
    3.5997    5.3442    1.7576 C   0  0  2  0  0  0  0  0  0  0  0  0
    2.3792    5.6589    1.0533 O   0  0  0  0  0  0  0  0  0  0  0  0
    0.4684    7.2994    2.0845 C   0  0  0  0  0  0  0  0  0  0  0  0
    1.5511    8.3121    1.8198 O   0  0  0  0  0  0  0  0  0  0  0  0
   -0.0235    3.7303   -0.4225 C   0  0  0  0  0  0  0  0  0  0  0  0
   -1.0621    2.9278   -1.0322 O   0  0  0  0  0  0  0  0  0  0  0  0
    4.2165    6.6674    2.3444 C   0  0  1  0  0  0  0  0  0  0  0  0
    3.2871    7.2253    3.2193 O   0  0  0  0  0  0  0  0  0  0  0  0
   -1.3162    6.5499    3.6424 C   0  0  0  0  0  0  0  0  0  0  0  0
    1.0246    8.0098    7.1447 C   0  0  0  0  0  0  0  0  0  0  0  0
  1  2  1  6  0  0  0
  1  6  1  0  0  0  0
  1 21  1  0  0  0  0
  3  4  1  6  0  0  0
  3  8  1  0  0  0  0
  3 28  1  0  0  0  0
  5  9  1  0  0  0  0
  5 25  1  0  0  0  0
  5 29  1  1  0  0  0
  6  7  1  6  0  0  0
  6 11  1  0  0  0  0
  8 12  1  0  0  0  0
  9 10  1  1  0  0  0
  9 14  1  0  0  0  0
 11 16  1  0  0  0  0
 12 13  1  6  0  0  0
 12 17  1  0  0  0  0
 14 15  1  1  0  0  0
 14 18  1  0  0  0  0
 15 31  1  0  0  0  0
 16 20  1  0  0  0  0
 17  2  1  1  0  0  0
 17 22  1  0  0  0  0
 18 19  1  6  0  0  0
 18 24  1  0  0  0  0
 18 30  1  0  0  0  0
 20 21  1  0  0  0  0
 20 26  1  1  0  0  0
 22 23  1  6  0  0  0
 22 28  1  0  0  0  0
 24 25  1  0  0  0  0
 26 27  1  0  0  0  0
 28 29  1  1  0  0  0
M  END
>  <CHROM.1>
-154.41047072,-168.46464082,-69.36628416,83.15930519,44.27574386,130.36722580
2.56117135,5.50840608,2.03811806,-1.28787122,-0.07550855,0.68795472

>  <Name>
ligand

>  <RI>
0

>  <Rbt.Current_Directory>
/home/itssahil/PROJECTS/Mol_Feturizer/New_Systems/rnas/4GPX

>  <Rbt.Executable>
rbdock ($Id: //depot/dev/client3/rdock/2013.1/src/exe/rbdock.cxx#4 $)

>  <Rbt.Library>
libRbt.so (2013.1, Build901 2013/11/27)

>  <Rbt.Parameter_File>
/export/apps/rDock/src/rDock_2013.1_src/data/scripts/dock_solv.prm

>  <Rbt.Receptor>
prm/blind_docking_80.prm

>  <SCORE>
12.5074

>  <SCORE.INTER>
2.78077

>  <SCORE.INTER.CONST>
1

>  <SCORE.INTER.POLAR>
0

>  <SCORE.INTER.ROT>
6

>  <SCORE.INTER.SOLV>
15.4234

>  <SCORE.INTER.VDW>
-10.8873

>  <SCORE.INTER.norm>
0.0897024

>  <SCORE.INTRA>
0.129963

>  <SCORE.INTRA.DIHEDRAL>
-4.88868

>  <SCORE.INTRA.DIHEDRAL.0>
20.6841

>  <SCORE.INTRA.POLAR>
0

>  <SCORE.INTRA.POLAR.0>
0

>  <SCORE.INTRA.REPUL>
0

>  <SCORE.INTRA.REPUL.0>
0

>  <SCORE.INTRA.SOLV>
-0.332772

>  <SCORE.INTRA.SOLV.lig_0>
-64.6797

>  <SCORE.INTRA.VDW>
2.74069

>  <SCORE.INTRA.VDW.0>
-4.11825

>  <SCORE.INTRA.norm>
0.00419236

>  <SCORE.RESTR>
9.59668

>  <SCORE.RESTR.CAVITY>
9.59668

>  <SCORE.RESTR.norm>
0.30957

>  <SCORE.SYSTEM>
0

>  <SCORE.SYSTEM.CONST>
0

>  <SCORE.SYSTEM.DIHEDRAL>
0

>  <SCORE.SYSTEM.SOLV>
0

>  <SCORE.SYSTEM.norm>
0

>  <SCORE.heavy>
31

>  <SCORE.norm>
0.403465

>  <RMSD>
12.290

$$$$
ligand
 OpenBabel11021811493D
libRbt.so/2013.1/901 2013/11/27
 31 33  0  0  0  0  0  0  0  0999 V2000
    3.9602    2.9723   -0.4012 C   0  0  2  0  0  0  0  0  0  0  0  0
    4.1432    3.3640    0.9561 O   0  0  0  0  0  0  0  0  0  0  0  0
    5.6388    6.4595    3.4590 C   0  0  2  0  0  0  0  0  0  0  0  0
    6.0324    7.7637    3.8962 N   0  0  0  0  0  0  0  0  0  0  0  0
    2.9531    8.1673    4.5426 C   0  0  2  0  0  0  0  0  0  0  0  0
    2.9266    3.9936   -1.0294 C   0  0  2  0  0  0  0  0  0  0  0  0
    3.4741    5.3418   -0.9200 N   0  0  0  0  0  0  0  0  0  0  0  0
    6.4756    6.0934    2.1645 C   0  0  0  0  0  0  0  0  0  0  0  0
    1.4613    8.0521    4.9895 C   0  0  2  0  0  0  0  0  0  0  0  0
    1.3968    7.1914    6.1065 O   0  0  0  0  0  0  0  0  0  0  0  0
    1.5346    3.8946   -0.2869 C   0  0  0  0  0  0  0  0  0  0  0  0
    6.0431    4.6593    1.6789 C   0  0  2  0  0  0  0  0  0  0  0  0
    6.8141    4.3155    0.4719 N   0  0  0  0  0  0  0  0  0  0  0  0
    0.6536    7.4595    3.7729 C   0  0  1  0  0  0  0  0  0  0  0  0
   -0.7904    7.3062    4.1500 N   0  0  0  0  0  0  0  0  0  0  0  0
    1.1679    2.4022    0.1105 C   0  0  0  0  0  0  0  0  0  0  0  0
    4.4833    4.6461    1.3588 C   0  0  2  0  0  0  0  0  0  0  0  0
    0.7794    8.5057    2.5287 C   0  0  1  0  0  0  0  0  0  0  0  0
    0.2904    9.7948    2.8580 O   0  0  0  0  0  0  0  0  0  0  0  0
    2.0802    1.4013   -0.0062 C   0  0  2  0  0  0  0  0  0  0  0  0
    3.4102    1.6256   -0.4882 O   0  0  0  0  0  0  0  0  0  0  0  0
    3.6777    5.0222    2.6571 C   0  0  2  0  0  0  0  0  0  0  0  0
    2.2658    5.0177    2.3553 O   0  0  0  0  0  0  0  0  0  0  0  0
    2.2806    8.6756    2.1267 C   0  0  0  0  0  0  0  0  0  0  0  0
    3.0764    9.0825    3.3387 O   0  0  0  0  0  0  0  0  0  0  0  0
    1.7735   -0.0518    0.3612 C   0  0  0  0  0  0  0  0  0  0  0  0
    0.4970   -0.0834    1.0423 O   0  0  0  0  0  0  0  0  0  0  0  0
    4.1064    6.4656    3.1137 C   0  0  1  0  0  0  0  0  0  0  0  0
    3.3710    6.7944    4.2503 O   0  0  0  0  0  0  0  0  0  0  0  0
    0.0381    8.0782    1.2390 C   0  0  0  0  0  0  0  0  0  0  0  0
   -1.5797    6.3335    3.3671 C   0  0  0  0  0  0  0  0  0  0  0  0
  1  2  1  1  0  0  0
  1  6  1  0  0  0  0
  1 21  1  0  0  0  0
  3  4  1  6  0  0  0
  3  8  1  0  0  0  0
  3 28  1  0  0  0  0
  5  9  1  0  0  0  0
  5 25  1  0  0  0  0
  5 29  1  6  0  0  0
  6  7  1  1  0  0  0
  6 11  1  0  0  0  0
  8 12  1  0  0  0  0
  9 10  1  1  0  0  0
  9 14  1  0  0  0  0
 11 16  1  0  0  0  0
 12 13  1  6  0  0  0
 12 17  1  0  0  0  0
 14 15  1  1  0  0  0
 14 18  1  0  0  0  0
 15 31  1  0  0  0  0
 16 20  1  0  0  0  0
 17  2  1  1  0  0  0
 17 22  1  0  0  0  0
 18 19  1  1  0  0  0
 18 24  1  0  0  0  0
 18 30  1  0  0  0  0
 20 21  1  0  0  0  0
 20 26  1  6  0  0  0
 22 23  1  6  0  0  0
 22 28  1  0  0  0  0
 24 25  1  0  0  0  0
 26 27  1  0  0  0  0
 28 29  1  1  0  0  0
M  END
>  <CHROM.1>
-52.60544683,135.41521932,-157.84064327,-100.78692617,-10.00261241,94.19051797
2.68299909,5.49902223,2.07022146,-1.39911746,0.07105193,0.53816427

>  <Name>
ligand

>  <RI>
0

>  <Rbt.Current_Directory>
/home/itssahil/PROJECTS/Mol_Feturizer/New_Systems/rnas/4GPX

>  <Rbt.Executable>
rbdock ($Id: //depot/dev/client3/rdock/2013.1/src/exe/rbdock.cxx#4 $)

>  <Rbt.Library>
libRbt.so (2013.1, Build901 2013/11/27)

>  <Rbt.Parameter_File>
/export/apps/rDock/src/rDock_2013.1_src/data/scripts/dock_solv.prm

>  <Rbt.Receptor>
prm/blind_docking_80.prm

>  <SCORE>
14.9476

>  <SCORE.INTER>
0.894563

>  <SCORE.INTER.CONST>
1

>  <SCORE.INTER.POLAR>
0

>  <SCORE.INTER.ROT>
6

>  <SCORE.INTER.SOLV>
17.1294

>  <SCORE.INTER.VDW>
-12.7134

>  <SCORE.INTER.norm>
0.0288569

>  <SCORE.INTRA>
3.33802

>  <SCORE.INTRA.DIHEDRAL>
-2.24401

>  <SCORE.INTRA.DIHEDRAL.0>
20.6841

>  <SCORE.INTRA.POLAR>
0

>  <SCORE.INTRA.POLAR.0>
0

>  <SCORE.INTRA.REPUL>
0

>  <SCORE.INTRA.REPUL.0>
0

>  <SCORE.INTRA.SOLV>
2.69191

>  <SCORE.INTRA.SOLV.lig_0>
-64.6797

>  <SCORE.INTRA.VDW>
3.11407

>  <SCORE.INTRA.VDW.0>
-4.11825

>  <SCORE.INTRA.norm>
0.107678

>  <SCORE.RESTR>
10.715

>  <SCORE.RESTR.CAVITY>
10.715

>  <SCORE.RESTR.norm>
0.345645

>  <SCORE.SYSTEM>
0

>  <SCORE.SYSTEM.CONST>
0

>  <SCORE.SYSTEM.DIHEDRAL>
0

>  <SCORE.SYSTEM.SOLV>
0

>  <SCORE.SYSTEM.norm>
0

>  <SCORE.heavy>
31

>  <SCORE.norm>
0.48218

>  <RMSD>
12.331

$$$$
ligand
 OpenBabel11021811493D
libRbt.so/2013.1/901 2013/11/27
 31 33  0  0  0  0  0  0  0  0999 V2000
    1.3356    2.8842    0.7953 C   0  0  2  0  0  0  0  0  0  0  0  0
    2.7480    2.8061    0.9633 O   0  0  0  0  0  0  0  0  0  0  0  0
    5.7972    5.4354    2.3321 C   0  0  2  0  0  0  0  0  0  0  0  0
    6.7075    6.5386    2.3639 N   0  0  0  0  0  0  0  0  0  0  0  0
    3.7528    8.1641    3.3593 C   0  0  2  0  0  0  0  0  0  0  0  0
    0.8180    1.3968    0.6351 C   0  0  2  0  0  0  0  0  0  0  0  0
    1.1841    0.6418    1.8289 N   0  0  0  0  0  0  0  0  0  0  0  0
    6.0943    4.5803    1.0320 C   0  0  0  0  0  0  0  0  0  0  0  0
    3.2012    8.5241    4.7752 C   0  0  2  0  0  0  0  0  0  0  0  0
    4.1880    8.2026    5.7320 O   0  0  0  0  0  0  0  0  0  0  0  0
    1.4409    0.7335   -0.6576 C   0  0  0  0  0  0  0  0  0  0  0  0
    5.0922    3.3663    0.9924 C   0  0  2  0  0  0  0  0  0  0  0  0
    5.3601    2.5703   -0.2177 N   0  0  0  0  0  0  0  0  0  0  0  0
    1.8970    7.6684    4.9999 C   0  0  1  0  0  0  0  0  0  0  0  0
    1.3292    7.9576    6.3582 N   0  0  0  0  0  0  0  0  0  0  0  0
    1.5615    1.7591   -1.8631 C   0  0  0  0  0  0  0  0  0  0  0  0
    3.5936    3.9045    0.9773 C   0  0  2  0  0  0  0  0  0  0  0  0
    0.8132    8.0947    3.8588 C   0  0  1  0  0  0  0  0  0  0  0  0
    0.5033    9.4773    3.9008 O   0  0  0  0  0  0  0  0  0  0  0  0
    1.3416    3.0876   -1.6780 C   0  0  2  0  0  0  0  0  0  0  0  0
    0.9916    3.6388   -0.4031 O   0  0  0  0  0  0  0  0  0  0  0  0
    3.3290    4.7573    2.2730 C   0  0  2  0  0  0  0  0  0  0  0  0
    1.9719    5.2493    2.2461 O   0  0  0  0  0  0  0  0  0  0  0  0
    1.3938    7.7996    2.4376 C   0  0  0  0  0  0  0  0  0  0  0  0
    2.7247    8.4890    2.2918 O   0  0  0  0  0  0  0  0  0  0  0  0
    1.4431    4.1138   -2.8081 C   0  0  0  0  0  0  0  0  0  0  0  0
    2.4161    3.6332   -3.7656 O   0  0  0  0  0  0  0  0  0  0  0  0
    4.3233    5.9766    2.2834 C   0  0  1  0  0  0  0  0  0  0  0  0
    4.0642    6.7344    3.4234 O   0  0  0  0  0  0  0  0  0  0  0  0
   -0.5394    7.3458    3.9312 C   0  0  0  0  0  0  0  0  0  0  0  0
    1.0088    9.3687    6.6553 C   0  0  0  0  0  0  0  0  0  0  0  0
  1  2  1  6  0  0  0
  1  6  1  0  0  0  0
  1 21  1  0  0  0  0
  3  4  1  6  0  0  0
  3  8  1  0  0  0  0
  3 28  1  0  0  0  0
  5  9  1  0  0  0  0
  5 25  1  0  0  0  0
  5 29  1  1  0  0  0
  6  7  1  1  0  0  0
  6 11  1  0  0  0  0
  8 12  1  0  0  0  0
  9 10  1  1  0  0  0
  9 14  1  0  0  0  0
 11 16  1  0  0  0  0
 12 13  1  6  0  0  0
 12 17  1  0  0  0  0
 14 15  1  1  0  0  0
 14 18  1  0  0  0  0
 15 31  1  0  0  0  0
 16 20  1  0  0  0  0
 17  2  1  1  0  0  0
 17 22  1  0  0  0  0
 18 19  1  1  0  0  0
 18 24  1  0  0  0  0
 18 30  1  0  0  0  0
 20 21  1  0  0  0  0
 20 26  1  6  0  0  0
 22 23  1  6  0  0  0
 22 28  1  0  0  0  0
 24 25  1  0  0  0  0
 26 27  1  0  0  0  0
 28 29  1  1  0  0  0
M  END
>  <CHROM.1>
171.99508108,166.61796893,56.70951928,-172.58148686,-29.72413247,116.67762956
2.61938465,5.35387697,1.90576086,1.56556923,-0.00396011,-2.37805321

>  <Name>
ligand

>  <RI>
0

>  <Rbt.Current_Directory>
/home/itssahil/PROJECTS/Mol_Feturizer/New_Systems/rnas/4GPX

>  <Rbt.Executable>
rbdock ($Id: //depot/dev/client3/rdock/2013.1/src/exe/rbdock.cxx#4 $)

>  <Rbt.Library>
libRbt.so (2013.1, Build901 2013/11/27)

>  <Rbt.Parameter_File>
/export/apps/rDock/src/rDock_2013.1_src/data/scripts/dock_solv.prm

>  <Rbt.Receptor>
prm/blind_docking_80.prm

>  <SCORE>
9.92885

>  <SCORE.INTER>
1.52906

>  <SCORE.INTER.CONST>
1

>  <SCORE.INTER.POLAR>
0

>  <SCORE.INTER.ROT>
6

>  <SCORE.INTER.SOLV>
18.8543

>  <SCORE.INTER.VDW>
-12.8654

>  <SCORE.INTER.norm>
0.0493245

>  <SCORE.INTRA>
-1.45551

>  <SCORE.INTRA.DIHEDRAL>
-9.46991

>  <SCORE.INTRA.DIHEDRAL.0>
20.6841

>  <SCORE.INTRA.POLAR>
0

>  <SCORE.INTRA.POLAR.0>
0

>  <SCORE.INTRA.REPUL>
0

>  <SCORE.INTRA.REPUL.0>
0

>  <SCORE.INTRA.SOLV>
-2.03691

>  <SCORE.INTRA.SOLV.lig_0>
-64.6797

>  <SCORE.INTRA.VDW>
4.2979

>  <SCORE.INTRA.VDW.0>
-4.11825

>  <SCORE.INTRA.norm>
-0.046952

>  <SCORE.RESTR>
9.8553

>  <SCORE.RESTR.CAVITY>
9.8553

>  <SCORE.RESTR.norm>
0.317913

>  <SCORE.SYSTEM>
0

>  <SCORE.SYSTEM.CONST>
0

>  <SCORE.SYSTEM.DIHEDRAL>
0

>  <SCORE.SYSTEM.SOLV>
0

>  <SCORE.SYSTEM.norm>
0

>  <SCORE.heavy>
31

>  <SCORE.norm>
0.320285

>  <RMSD>
12.351

$$$$
ligand
 OpenBabel11021811493D
libRbt.so/2013.1/901 2013/11/27
 31 33  0  0  0  0  0  0  0  0999 V2000
    2.9202    2.0859   -0.6499 C   0  0  2  0  0  0  0  0  0  0  0  0
    3.2862    2.6509    0.6055 O   0  0  0  0  0  0  0  0  0  0  0  0
    5.8941    5.4918    2.3977 C   0  0  2  0  0  0  0  0  0  0  0  0
    6.6835    6.6727    2.5687 N   0  0  0  0  0  0  0  0  0  0  0  0
    3.5635    7.9926    3.2872 C   0  0  2  0  0  0  0  0  0  0  0  0
    2.4155    3.2840   -1.5531 C   0  0  2  0  0  0  0  0  0  0  0  0
    3.4945    4.2571   -1.6871 N   0  0  0  0  0  0  0  0  0  0  0  0
    6.4154    4.7246    1.1134 C   0  0  0  0  0  0  0  0  0  0  0  0
    2.9837    8.2994    4.7044 C   0  0  2  0  0  0  0  0  0  0  0  0
    3.9734    7.9980    5.6647 O   0  0  0  0  0  0  0  0  0  0  0  0
    1.1353    3.9548   -0.9127 C   0  0  0  0  0  0  0  0  0  0  0  0
    5.5470    3.4253    0.9205 C   0  0  2  0  0  0  0  0  0  0  0  0
    6.0236    2.7103   -0.2758 N   0  0  0  0  0  0  0  0  0  0  0  0
    1.7136    7.3865    4.8971 C   0  0  1  0  0  0  0  0  0  0  0  0
    1.1211    7.6231    6.2550 N   0  0  0  0  0  0  0  0  0  0  0  0
    0.1687    2.8898   -0.2410 C   0  0  0  0  0  0  0  0  0  0  0  0
    4.0140    3.8217    0.7513 C   0  0  2  0  0  0  0  0  0  0  0  0
    0.6245    7.7926    3.7537 C   0  0  1  0  0  0  0  0  0  0  0  0
    0.2577    9.1602    3.8214 O   0  0  0  0  0  0  0  0  0  0  0  0
    0.5555    1.5970   -0.0773 C   0  0  2  0  0  0  0  0  0  0  0  0
    1.8400    1.1200   -0.4946 O   0  0  0  0  0  0  0  0  0  0  0  0
    3.5256    4.5898    2.0348 C   0  0  2  0  0  0  0  0  0  0  0  0
    2.1384    4.9539    1.8687 O   0  0  0  0  0  0  0  0  0  0  0  0
    1.2306    7.5520    2.3329 C   0  0  0  0  0  0  0  0  0  0  0  0
    2.5335    8.2980    2.2159 O   0  0  0  0  0  0  0  0  0  0  0  0
   -0.3407    0.5344    0.5614 C   0  0  0  0  0  0  0  0  0  0  0  0
   -0.2232    0.6522    1.9990 O   0  0  0  0  0  0  0  0  0  0  0  0
    4.3891    5.8949    2.1981 C   0  0  1  0  0  0  0  0  0  0  0  0
    3.9327    6.5757    3.3245 O   0  0  0  0  0  0  0  0  0  0  0  0
   -0.6969    6.9878    3.7958 C   0  0  0  0  0  0  0  0  0  0  0  0
    1.0060    9.0297    6.6913 C   0  0  0  0  0  0  0  0  0  0  0  0
  1  2  1  1  0  0  0
  1  6  1  0  0  0  0
  1 21  1  0  0  0  0
  3  4  1  6  0  0  0
  3  8  1  0  0  0  0
  3 28  1  0  0  0  0
  5  9  1  0  0  0  0
  5 25  1  0  0  0  0
  5 29  1  1  0  0  0
  6  7  1  1  0  0  0
  6 11  1  0  0  0  0
  8 12  1  0  0  0  0
  9 10  1  1  0  0  0
  9 14  1  0  0  0  0
 11 16  1  0  0  0  0
 12 13  1  6  0  0  0
 12 17  1  0  0  0  0
 14 15  1  1  0  0  0
 14 18  1  0  0  0  0
 15 31  1  0  0  0  0
 16 20  1  0  0  0  0
 17  2  1  1  0  0  0
 17 22  1  0  0  0  0
 18 19  1  1  0  0  0
 18 24  1  0  0  0  0
 18 30  1  0  0  0  0
 20 21  1  0  0  0  0
 20 26  1  6  0  0  0
 22 23  1  6  0  0  0
 22 28  1  0  0  0  0
 24 25  1  0  0  0  0
 26 27  1  0  0  0  0
 28 29  1  1  0  0  0
M  END
>  <CHROM.1>
-43.81542990,174.54512914,44.12552155,-95.09864690,-82.52150254,113.16867870
2.61203122,5.16966665,2.02335705,-1.54051244,0.18335457,0.67848991

>  <Name>
ligand

>  <RI>
0

>  <Rbt.Current_Directory>
/home/itssahil/PROJECTS/Mol_Feturizer/New_Systems/rnas/4GPX

>  <Rbt.Executable>
rbdock ($Id: //depot/dev/client3/rdock/2013.1/src/exe/rbdock.cxx#4 $)

>  <Rbt.Library>
libRbt.so (2013.1, Build901 2013/11/27)

>  <Rbt.Parameter_File>
/export/apps/rDock/src/rDock_2013.1_src/data/scripts/dock_solv.prm

>  <Rbt.Receptor>
prm/blind_docking_80.prm

>  <SCORE>
10.7458

>  <SCORE.INTER>
0.00820767

>  <SCORE.INTER.CONST>
1

>  <SCORE.INTER.POLAR>
0

>  <SCORE.INTER.ROT>
6

>  <SCORE.INTER.SOLV>
21.7962

>  <SCORE.INTER.VDW>
-14.8599

>  <SCORE.INTER.norm>
0.000264763

>  <SCORE.INTRA>
3.55684

>  <SCORE.INTRA.DIHEDRAL>
-4.59839

>  <SCORE.INTRA.DIHEDRAL.0>
20.6841

>  <SCORE.INTRA.POLAR>
0

>  <SCORE.INTRA.POLAR.0>
0

>  <SCORE.INTRA.REPUL>
0

>  <SCORE.INTRA.REPUL.0>
0

>  <SCORE.INTRA.SOLV>
2.56623

>  <SCORE.INTRA.SOLV.lig_0>
-64.6797

>  <SCORE.INTRA.VDW>
4.57292

>  <SCORE.INTRA.VDW.0>
-4.11825

>  <SCORE.INTRA.norm>
0.114737

>  <SCORE.RESTR>
7.18071

>  <SCORE.RESTR.CAVITY>
7.18071

>  <SCORE.RESTR.norm>
0.231636

>  <SCORE.SYSTEM>
0

>  <SCORE.SYSTEM.CONST>
0

>  <SCORE.SYSTEM.DIHEDRAL>
0

>  <SCORE.SYSTEM.SOLV>
0

>  <SCORE.SYSTEM.norm>
0

>  <SCORE.heavy>
31

>  <SCORE.norm>
0.346638

>  <RMSD>
12.360

$$$$
ligand
 OpenBabel11021811493D
libRbt.so/2013.1/901 2013/11/27
 31 33  0  0  0  0  0  0  0  0999 V2000
    3.9240    8.5630    3.2278 C   0  0  2  0  0  0  0  0  0  0  0  0
    3.0421    8.4952    2.1111 O   0  0  0  0  0  0  0  0  0  0  0  0
    0.1127    5.5913    3.1452 C   0  0  2  0  0  0  0  0  0  0  0  0
   -1.1455    4.9131    3.2078 N   0  0  0  0  0  0  0  0  0  0  0  0
    1.2408    4.0842   -0.1944 C   0  0  2  0  0  0  0  0  0  0  0  0
    5.2131    9.3400    2.7372 C   0  0  2  0  0  0  0  0  0  0  0  0
    4.8144   10.6658    2.2762 N   0  0  0  0  0  0  0  0  0  0  0  0
   -0.0856    7.0630    3.6973 C   0  0  0  0  0  0  0  0  0  0  0  0
    0.6090    2.7090   -0.5795 C   0  0  2  0  0  0  0  0  0  0  0  0
   -0.7946    2.8209   -0.4799 O   0  0  0  0  0  0  0  0  0  0  0  0
    5.9311    8.5389    1.5790 C   0  0  0  0  0  0  0  0  0  0  0  0
    1.2970    7.8134    3.6275 C   0  0  2  0  0  0  0  0  0  0  0  0
    1.1176    9.1847    4.1346 N   0  0  0  0  0  0  0  0  0  0  0  0
    1.1636    1.6394    0.4364 C   0  0  1  0  0  0  0  0  0  0  0  0
    0.5740    0.2946    0.1280 N   0  0  0  0  0  0  0  0  0  0  0  0
    5.8838    6.9694    1.8121 C   0  0  0  0  0  0  0  0  0  0  0  0
    1.8174    7.8460    2.1229 C   0  0  2  0  0  0  0  0  0  0  0  0
    2.7833    1.5726    0.2617 C   0  0  1  0  0  0  0  0  0  0  0  0
    3.1686    1.2363   -1.0604 O   0  0  0  0  0  0  0  0  0  0  0  0
    5.1155    6.4296    2.7950 C   0  0  2  0  0  0  0  0  0  0  0  0
    4.3123    7.2298    3.6702 O   0  0  0  0  0  0  0  0  0  0  0  0
    1.9959    6.3736    1.5972 C   0  0  2  0  0  0  0  0  0  0  0  0
    2.4581    6.4126    0.2299 O   0  0  0  0  0  0  0  0  0  0  0  0
    3.4102    2.9692    0.5789 C   0  0  0  0  0  0  0  0  0  0  0  0
    2.7539    4.0154   -0.2828 O   0  0  0  0  0  0  0  0  0  0  0  0
    5.0390    4.9248    3.0600 C   0  0  0  0  0  0  0  0  0  0  0  0
    3.6929    4.4840    2.7636 O   0  0  0  0  0  0  0  0  0  0  0  0
    0.6011    5.6477    1.6533 C   0  0  1  0  0  0  0  0  0  0  0  0
    0.7688    4.3536    1.1656 O   0  0  0  0  0  0  0  0  0  0  0  0
    3.4989    0.5627    1.1910 C   0  0  0  0  0  0  0  0  0  0  0  0
    0.6526   -0.1566   -1.2764 C   0  0  0  0  0  0  0  0  0  0  0  0
  1  2  1  6  0  0  0
  1  6  1  0  0  0  0
  1 21  1  0  0  0  0
  3  4  1  6  0  0  0
  3  8  1  0  0  0  0
  3 28  1  0  0  0  0
  5  9  1  0  0  0  0
  5 25  1  0  0  0  0
  5 29  1  1  0  0  0
  6  7  1  6  0  0  0
  6 11  1  0  0  0  0
  8 12  1  0  0  0  0
  9 10  1  1  0  0  0
  9 14  1  0  0  0  0
 11 16  1  0  0  0  0
 12 13  1  6  0  0  0
 12 17  1  0  0  0  0
 14 15  1  6  0  0  0
 14 18  1  0  0  0  0
 15 31  1  0  0  0  0
 16 20  1  0  0  0  0
 17  2  1  1  0  0  0
 17 22  1  0  0  0  0
 18 19  1  6  0  0  0
 18 24  1  0  0  0  0
 18 30  1  0  0  0  0
 20 21  1  0  0  0  0
 20 26  1  1  0  0  0
 22 23  1  6  0  0  0
 22 28  1  0  0  0  0
 24 25  1  0  0  0  0
 26 27  1  0  0  0  0
 28 29  1  1  0  0  0
M  END
>  <CHROM.1>
177.57175997,-151.41356136,50.24177727,25.60061938,-114.41188745,-178.90621827
2.42350672,5.20607034,1.56219323,-1.25614630,-0.11674039,-2.70067034

>  <Name>
ligand

>  <RI>
0

>  <Rbt.Current_Directory>
/home/itssahil/PROJECTS/Mol_Feturizer/New_Systems/rnas/4GPX

>  <Rbt.Executable>
rbdock ($Id: //depot/dev/client3/rdock/2013.1/src/exe/rbdock.cxx#4 $)

>  <Rbt.Library>
libRbt.so (2013.1, Build901 2013/11/27)

>  <Rbt.Parameter_File>
/export/apps/rDock/src/rDock_2013.1_src/data/scripts/dock_solv.prm

>  <Rbt.Receptor>
prm/blind_docking_40.prm

>  <SCORE>
11.763

>  <SCORE.INTER>
5.37706

>  <SCORE.INTER.CONST>
1

>  <SCORE.INTER.POLAR>
0

>  <SCORE.INTER.ROT>
6

>  <SCORE.INTER.SOLV>
19.2248

>  <SCORE.INTER.VDW>
-10.4236

>  <SCORE.INTER.norm>
0.173454

>  <SCORE.INTRA>
-0.843797

>  <SCORE.INTRA.DIHEDRAL>
-11.0836

>  <SCORE.INTRA.DIHEDRAL.0>
20.6841

>  <SCORE.INTRA.POLAR>
0

>  <SCORE.INTRA.POLAR.0>
0

>  <SCORE.INTRA.REPUL>
0

>  <SCORE.INTRA.REPUL.0>
0

>  <SCORE.INTRA.SOLV>
-0.0577428

>  <SCORE.INTRA.SOLV.lig_0>
-64.6797

>  <SCORE.INTRA.VDW>
4.72687

>  <SCORE.INTRA.VDW.0>
-4.11825

>  <SCORE.INTRA.norm>
-0.0272193

>  <SCORE.RESTR>
7.22974

>  <SCORE.RESTR.CAVITY>
7.22974

>  <SCORE.RESTR.norm>
0.233217

>  <SCORE.SYSTEM>
0

>  <SCORE.SYSTEM.CONST>
0

>  <SCORE.SYSTEM.DIHEDRAL>
0

>  <SCORE.SYSTEM.SOLV>
0

>  <SCORE.SYSTEM.norm>
0

>  <SCORE.heavy>
31

>  <SCORE.norm>
0.379452

>  <RMSD>
12.380

$$$$
ligand
 OpenBabel11021811493D
libRbt.so/2013.1/901 2013/11/27
 31 33  0  0  0  0  0  0  0  0999 V2000
    3.6588   10.4227    0.1145 C   0  0  2  0  0  0  0  0  0  0  0  0
    3.0301    9.7182    1.1811 O   0  0  0  0  0  0  0  0  0  0  0  0
    4.9770    5.9480    1.4619 C   0  0  2  0  0  0  0  0  0  0  0  0
    5.5469    4.7679    2.0359 N   0  0  0  0  0  0  0  0  0  0  0  0
    2.4513    4.7963   -0.1205 C   0  0  2  0  0  0  0  0  0  0  0  0
    2.5879   11.4472   -0.4417 C   0  0  2  0  0  0  0  0  0  0  0  0
    2.1874   12.3406    0.6403 N   0  0  0  0  0  0  0  0  0  0  0  0
    5.7259    7.2076    2.0641 C   0  0  0  0  0  0  0  0  0  0  0  0
    1.1236    3.9750   -0.1568 C   0  0  2  0  0  0  0  0  0  0  0  0
    0.1545    4.6621    0.6058 O   0  0  0  0  0  0  0  0  0  0  0  0
    1.3357   10.6749   -1.0201 C   0  0  0  0  0  0  0  0  0  0  0  0
    5.0994    8.5087    1.4363 C   0  0  2  0  0  0  0  0  0  0  0  0
    5.7882    9.6839    1.9968 N   0  0  0  0  0  0  0  0  0  0  0  0
    1.4324    2.5603    0.4653 C   0  0  1  0  0  0  0  0  0  0  0  0
    0.1839    1.7283    0.4760 N   0  0  0  0  0  0  0  0  0  0  0  0
    1.7456    9.3361   -1.7679 C   0  0  0  0  0  0  0  0  0  0  0  0
    3.5432    8.5720    1.7681 C   0  0  2  0  0  0  0  0  0  0  0  0
    2.5569    1.8359   -0.4669 C   0  0  1  0  0  0  0  0  0  0  0  0
    2.1319    1.6957   -1.8119 O   0  0  0  0  0  0  0  0  0  0  0  0
    3.0147    8.8542   -1.6976 C   0  0  2  0  0  0  0  0  0  0  0  0
    4.0477    9.5136   -0.9562 O   0  0  0  0  0  0  0  0  0  0  0  0
    2.8267    7.3061    1.1679 C   0  0  2  0  0  0  0  0  0  0  0  0
    1.4187    7.3666    1.4819 O   0  0  0  0  0  0  0  0  0  0  0  0
    3.8633    2.6943   -0.4877 C   0  0  0  0  0  0  0  0  0  0  0  0
    3.5297    4.0959   -0.9257 O   0  0  0  0  0  0  0  0  0  0  0  0
    3.4581    7.5708   -2.4024 C   0  0  0  0  0  0  0  0  0  0  0  0
    2.5063    7.2836   -3.4540 O   0  0  0  0  0  0  0  0  0  0  0  0
    3.4499    6.0184    1.8230 C   0  0  1  0  0  0  0  0  0  0  0  0
    2.7926    4.9073    1.2995 O   0  0  0  0  0  0  0  0  0  0  0  0
    2.9819    0.4234    0.0020 C   0  0  0  0  0  0  0  0  0  0  0  0
    0.0668    0.7236    1.5526 C   0  0  0  0  0  0  0  0  0  0  0  0
  1  2  1  1  0  0  0
  1  6  1  0  0  0  0
  1 21  1  0  0  0  0
  3  4  1  1  0  0  0
  3  8  1  0  0  0  0
  3 28  1  0  0  0  0
  5  9  1  0  0  0  0
  5 25  1  0  0  0  0
  5 29  1  1  0  0  0
  6  7  1  1  0  0  0
  6 11  1  0  0  0  0
  8 12  1  0  0  0  0
  9 10  1  1  0  0  0
  9 14  1  0  0  0  0
 11 16  1  0  0  0  0
 12 13  1  1  0  0  0
 12 17  1  0  0  0  0
 14 15  1  6  0  0  0
 14 18  1  0  0  0  0
 15 31  1  0  0  0  0
 16 20  1  0  0  0  0
 17  2  1  6  0  0  0
 17 22  1  0  0  0  0
 18 19  1  6  0  0  0
 18 24  1  0  0  0  0
 18 30  1  0  0  0  0
 20 21  1  0  0  0  0
 20 26  1  6  0  0  0
 22 23  1  1  0  0  0
 22 28  1  0  0  0  0
 24 25  1  0  0  0  0
 26 27  1  0  0  0  0
 28 29  1  6  0  0  0
M  END
>  <CHROM.1>
167.66083015,-147.75735710,-150.36201882,19.89420102,19.80106502,-76.95630599
2.85206068,6.31070599,0.16769286,-1.33419652,0.76498384,2.97293729

>  <Name>
ligand

>  <RI>
0

>  <Rbt.Current_Directory>
/home/itssahil/PROJECTS/Mol_Feturizer/New_Systems/rnas/4GPX

>  <Rbt.Executable>
rbdock ($Id: //depot/dev/client3/rdock/2013.1/src/exe/rbdock.cxx#4 $)

>  <Rbt.Library>
libRbt.so (2013.1, Build901 2013/11/27)

>  <Rbt.Parameter_File>
/export/apps/rDock/src/rDock_2013.1_src/data/scripts/dock_solv.prm

>  <Rbt.Receptor>
prm/blind_docking_40.prm

>  <SCORE>
1.17409

>  <SCORE.INTER>
-3.3606

>  <SCORE.INTER.CONST>
1

>  <SCORE.INTER.POLAR>
0

>  <SCORE.INTER.ROT>
6

>  <SCORE.INTER.SOLV>
20.6626

>  <SCORE.INTER.VDW>
-16.7279

>  <SCORE.INTER.norm>
-0.108406

>  <SCORE.INTRA>
-0.631954

>  <SCORE.INTRA.DIHEDRAL>
-6.44505

>  <SCORE.INTRA.DIHEDRAL.0>
20.6841

>  <SCORE.INTRA.POLAR>
0

>  <SCORE.INTRA.POLAR.0>
0

>  <SCORE.INTRA.REPUL>
0

>  <SCORE.INTRA.REPUL.0>
0

>  <SCORE.INTRA.SOLV>
-0.210784

>  <SCORE.INTRA.SOLV.lig_0>
-64.6797

>  <SCORE.INTRA.VDW>
2.69596

>  <SCORE.INTRA.VDW.0>
-4.11825

>  <SCORE.INTRA.norm>
-0.0203856

>  <SCORE.RESTR>
5.16664

>  <SCORE.RESTR.CAVITY>
5.16664

>  <SCORE.RESTR.norm>
0.166666

>  <SCORE.SYSTEM>
0

>  <SCORE.SYSTEM.CONST>
0

>  <SCORE.SYSTEM.DIHEDRAL>
0

>  <SCORE.SYSTEM.SOLV>
0

>  <SCORE.SYSTEM.norm>
0

>  <SCORE.heavy>
31

>  <SCORE.norm>
0.037874

>  <RMSD>
12.414

$$$$
ligand
 OpenBabel11021811493D
libRbt.so/2013.1/901 2013/11/27
 31 33  0  0  0  0  0  0  0  0999 V2000
    1.7063    3.2654    0.2800 C   0  0  2  0  0  0  0  0  0  0  0  0
    0.9356    3.7907    1.3567 O   0  0  0  0  0  0  0  0  0  0  0  0
    1.4752    7.8072    2.6452 C   0  0  2  0  0  0  0  0  0  0  0  0
    1.8473    8.9177    3.4670 N   0  0  0  0  0  0  0  0  0  0  0  0
    3.8927    7.5899    0.1515 C   0  0  2  0  0  0  0  0  0  0  0  0
    0.7349    3.1740   -0.9667 C   0  0  2  0  0  0  0  0  0  0  0  0
    0.2243    4.5086   -1.2621 N   0  0  0  0  0  0  0  0  0  0  0  0
    0.4531    6.9075    3.4550 C   0  0  0  0  0  0  0  0  0  0  0  0
    4.4119    8.9771   -0.3430 C   0  0  2  0  0  0  0  0  0  0  0  0
    5.5756    9.3025    0.3868 O   0  0  0  0  0  0  0  0  0  0  0  0
   -0.4534    2.1756   -0.6666 C   0  0  0  0  0  0  0  0  0  0  0  0
    0.0432    5.6825    2.5544 C   0  0  2  0  0  0  0  0  0  0  0  0
   -0.9032    4.8390    3.3044 N   0  0  0  0  0  0  0  0  0  0  0  0
    3.2667   10.0265   -0.0765 C   0  0  1  0  0  0  0  0  0  0  0  0
    3.7162   11.3891   -0.5151 N   0  0  0  0  0  0  0  0  0  0  0  0
    0.0156    0.9168    0.1790 C   0  0  0  0  0  0  0  0  0  0  0  0
    1.3389    4.8434    2.1634 C   0  0  2  0  0  0  0  0  0  0  0  0
    1.9633    9.5804   -0.9487 C   0  0  1  0  0  0  0  0  0  0  0  0
    2.2440    9.5056   -2.3361 O   0  0  0  0  0  0  0  0  0  0  0  0
    1.2554    0.8677    0.7343 C   0  0  2  0  0  0  0  0  0  0  0  0
    2.2036    1.9319    0.5936 O   0  0  0  0  0  0  0  0  0  0  0  0
    2.3398    5.7625    1.3700 C   0  0  2  0  0  0  0  0  0  0  0  0
    3.5153    4.9968    1.0284 O   0  0  0  0  0  0  0  0  0  0  0  0
    1.4856    8.1604   -0.5021 C   0  0  0  0  0  0  0  0  0  0  0  0
    2.6368    7.1948   -0.6024 O   0  0  0  0  0  0  0  0  0  0  0  0
    1.7535   -0.3237    1.5547 C   0  0  0  0  0  0  0  0  0  0  0  0
    3.0763   -0.6727    1.0828 O   0  0  0  0  0  0  0  0  0  0  0  0
    2.7549    6.9672    2.2929 C   0  0  1  0  0  0  0  0  0  0  0  0
    3.6567    7.7604    1.5870 O   0  0  0  0  0  0  0  0  0  0  0  0
    0.7333   10.5089   -0.8056 C   0  0  0  0  0  0  0  0  0  0  0  0
    3.2138   12.5362    0.2685 C   0  0  0  0  0  0  0  0  0  0  0  0
  1  2  1  1  0  0  0
  1  6  1  0  0  0  0
  1 21  1  0  0  0  0
  3  4  1  1  0  0  0
  3  8  1  0  0  0  0
  3 28  1  0  0  0  0
  5  9  1  0  0  0  0
  5 25  1  0  0  0  0
  5 29  1  1  0  0  0
  6  7  1  1  0  0  0
  6 11  1  0  0  0  0
  8 12  1  0  0  0  0
  9 10  1  1  0  0  0
  9 14  1  0  0  0  0
 11 16  1  0  0  0  0
 12 13  1  1  0  0  0
 12 17  1  0  0  0  0
 14 15  1  6  0  0  0
 14 18  1  0  0  0  0
 15 31  1  0  0  0  0
 16 20  1  0  0  0  0
 17  2  1  6  0  0  0
 17 22  1  0  0  0  0
 18 19  1  6  0  0  0
 18 24  1  0  0  0  0
 18 30  1  0  0  0  0
 20 21  1  0  0  0  0
 20 26  1  6  0  0  0
 22 23  1  1  0  0  0
 22 28  1  0  0  0  0
 24 25  1  0  0  0  0
 26 27  1  0  0  0  0
 28 29  1  6  0  0  0
M  END
>  <CHROM.1>
-131.05347627,155.46410325,-146.60719055,145.39519390,132.63621400,-107.05889599
2.00430569,6.08446058,0.67605843,-2.00609384,1.05778273,0.29331592

>  <Name>
ligand

>  <RI>
0

>  <Rbt.Current_Directory>
/home/itssahil/PROJECTS/Mol_Feturizer/New_Systems/rnas/4GPX

>  <Rbt.Executable>
rbdock ($Id: //depot/dev/client3/rdock/2013.1/src/exe/rbdock.cxx#4 $)

>  <Rbt.Library>
libRbt.so (2013.1, Build901 2013/11/27)

>  <Rbt.Parameter_File>
/export/apps/rDock/src/rDock_2013.1_src/data/scripts/dock_solv.prm

>  <Rbt.Receptor>
prm/blind_docking_40.prm

>  <SCORE>
18.5241

>  <SCORE.INTER>
1.63985

>  <SCORE.INTER.CONST>
1

>  <SCORE.INTER.POLAR>
0

>  <SCORE.INTER.ROT>
6

>  <SCORE.INTER.SOLV>
20.4804

>  <SCORE.INTER.VDW>
-13.3336

>  <SCORE.INTER.norm>
0.0528985

>  <SCORE.INTRA>
8.47639

>  <SCORE.INTRA.DIHEDRAL>
1.9556

>  <SCORE.INTRA.DIHEDRAL.0>
20.6841

>  <SCORE.INTRA.POLAR>
0

>  <SCORE.INTRA.POLAR.0>
0

>  <SCORE.INTRA.REPUL>
0

>  <SCORE.INTRA.REPUL.0>
0

>  <SCORE.INTRA.SOLV>
-0.00348795

>  <SCORE.INTRA.SOLV.lig_0>
-64.6797

>  <SCORE.INTRA.VDW>
7.50034

>  <SCORE.INTRA.VDW.0>
-4.11825

>  <SCORE.INTRA.norm>
0.273432

>  <SCORE.RESTR>
8.40782

>  <SCORE.RESTR.CAVITY>
8.40782

>  <SCORE.RESTR.norm>
0.27122

>  <SCORE.SYSTEM>
0

>  <SCORE.SYSTEM.CONST>
0

>  <SCORE.SYSTEM.DIHEDRAL>
0

>  <SCORE.SYSTEM.SOLV>
0

>  <SCORE.SYSTEM.norm>
0

>  <SCORE.heavy>
31

>  <SCORE.norm>
0.597551

>  <RMSD>
12.448

$$$$
ligand
 OpenBabel11021811493D
libRbt.so/2013.1/901 2013/11/27
 31 33  0  0  0  0  0  0  0  0999 V2000
    2.9303    2.0780   -0.5746 C   0  0  2  0  0  0  0  0  0  0  0  0
    3.2332    2.7376    0.6511 O   0  0  0  0  0  0  0  0  0  0  0  0
    6.1269    5.3476    2.3535 C   0  0  2  0  0  0  0  0  0  0  0  0
    7.0348    6.4452    2.4875 N   0  0  0  0  0  0  0  0  0  0  0  0
    4.0221    8.0936    3.1544 C   0  0  2  0  0  0  0  0  0  0  0  0
    2.4419    3.1986   -1.5805 C   0  0  2  0  0  0  0  0  0  0  0  0
    3.5076    4.1825   -1.7398 N   0  0  0  0  0  0  0  0  0  0  0  0
    6.5618    4.4911    1.0936 C   0  0  0  0  0  0  0  0  0  0  0  0
    3.5030    8.5017    4.5696 C   0  0  2  0  0  0  0  0  0  0  0  0
    4.4940    8.1716    5.5191 O   0  0  0  0  0  0  0  0  0  0  0  0
    1.1241    3.8855   -1.0416 C   0  0  0  0  0  0  0  0  0  0  0  0
    5.5630    3.2833    0.9415 C   0  0  2  0  0  0  0  0  0  0  0  0
    5.9591    2.4861   -0.2320 N   0  0  0  0  0  0  0  0  0  0  0  0
    2.1771    7.6912    4.8324 C   0  0  1  0  0  0  0  0  0  0  0  0
    1.6389    8.0277    6.1918 N   0  0  0  0  0  0  0  0  0  0  0  0
    0.1499    2.8502   -0.3353 C   0  0  0  0  0  0  0  0  0  0  0  0
    4.0787    3.8307    0.7602 C   0  0  2  0  0  0  0  0  0  0  0  0
    1.0896    8.1249    3.6976 C   0  0  1  0  0  0  0  0  0  0  0  0
    0.8222    9.5169    3.7127 O   0  0  0  0  0  0  0  0  0  0  0  0
    0.5531    1.5806   -0.0646 C   0  0  2  0  0  0  0  0  0  0  0  0
    1.8624    1.1028   -0.3947 O   0  0  0  0  0  0  0  0  0  0  0  0
    3.6767    4.6847    2.0193 C   0  0  2  0  0  0  0  0  0  0  0  0
    2.3340    5.1851    1.8420 O   0  0  0  0  0  0  0  0  0  0  0  0
    1.6395    7.7808    2.2753 C   0  0  0  0  0  0  0  0  0  0  0  0
    2.9883    8.4258    2.0948 O   0  0  0  0  0  0  0  0  0  0  0  0
   -0.3494    0.5468    0.6116 C   0  0  0  0  0  0  0  0  0  0  0  0
   -0.1614    0.6533    2.0425 O   0  0  0  0  0  0  0  0  0  0  0  0
    4.6710    5.8979    2.1416 C   0  0  1  0  0  0  0  0  0  0  0  0
    4.2912    6.6568    3.2464 O   0  0  0  0  0  0  0  0  0  0  0  0
   -0.2837    7.4194    3.8064 C   0  0  0  0  0  0  0  0  0  0  0  0
    1.3674    6.8918    7.0963 C   0  0  0  0  0  0  0  0  0  0  0  0
  1  2  1  1  0  0  0
  1  6  1  0  0  0  0
  1 21  1  0  0  0  0
  3  4  1  6  0  0  0
  3  8  1  0  0  0  0
  3 28  1  0  0  0  0
  5  9  1  0  0  0  0
  5 25  1  0  0  0  0
  5 29  1  1  0  0  0
  6  7  1  1  0  0  0
  6 11  1  0  0  0  0
  8 12  1  0  0  0  0
  9 10  1  1  0  0  0
  9 14  1  0  0  0  0
 11 16  1  0  0  0  0
 12 13  1  6  0  0  0
 12 17  1  0  0  0  0
 14 15  1  1  0  0  0
 14 18  1  0  0  0  0
 15 31  1  0  0  0  0
 16 20  1  0  0  0  0
 17  2  1  1  0  0  0
 17 22  1  0  0  0  0
 18 19  1  1  0  0  0
 18 24  1  0  0  0  0
 18 30  1  0  0  0  0
 20 21  1  0  0  0  0
 20 26  1  6  0  0  0
 22 23  1  6  0  0  0
 22 28  1  0  0  0  0
 24 25  1  0  0  0  0
 26 27  1  0  0  0  0
 28 29  1  1  0  0  0
M  END
>  <CHROM.1>
-52.71564179,174.66918143,-126.52952203,-87.42604730,-89.83799770,115.49504138
2.83699476,5.16062012,2.00195550,-1.63280923,0.19594107,0.67917399

>  <Name>
ligand

>  <RI>
0

>  <Rbt.Current_Directory>
/home/itssahil/PROJECTS/Mol_Feturizer/New_Systems/rnas/4GPX

>  <Rbt.Executable>
rbdock ($Id: //depot/dev/client3/rdock/2013.1/src/exe/rbdock.cxx#4 $)

>  <Rbt.Library>
libRbt.so (2013.1, Build901 2013/11/27)

>  <Rbt.Parameter_File>
/export/apps/rDock/src/rDock_2013.1_src/data/scripts/dock_solv.prm

>  <Rbt.Receptor>
prm/blind_docking_80.prm

>  <SCORE>
7.59532

>  <SCORE.INTER>
0.112283

>  <SCORE.INTER.CONST>
1

>  <SCORE.INTER.POLAR>
0

>  <SCORE.INTER.ROT>
6

>  <SCORE.INTER.SOLV>
21.5562

>  <SCORE.INTER.VDW>
-14.7106

>  <SCORE.INTER.norm>
0.00362205

>  <SCORE.INTRA>
-0.13968

>  <SCORE.INTRA.DIHEDRAL>
-6.25735

>  <SCORE.INTRA.DIHEDRAL.0>
20.6841

>  <SCORE.INTRA.POLAR>
0

>  <SCORE.INTRA.POLAR.0>
0

>  <SCORE.INTRA.REPUL>
0

>  <SCORE.INTRA.REPUL.0>
0

>  <SCORE.INTRA.SOLV>
2.02993

>  <SCORE.INTRA.SOLV.lig_0>
-64.6797

>  <SCORE.INTRA.VDW>
1.97403

>  <SCORE.INTRA.VDW.0>
-4.11825

>  <SCORE.INTRA.norm>
-0.00450582

>  <SCORE.RESTR>
7.62271

>  <SCORE.RESTR.CAVITY>
7.62271

>  <SCORE.RESTR.norm>
0.245894

>  <SCORE.SYSTEM>
0

>  <SCORE.SYSTEM.CONST>
0

>  <SCORE.SYSTEM.DIHEDRAL>
0

>  <SCORE.SYSTEM.SOLV>
0

>  <SCORE.SYSTEM.norm>
0

>  <SCORE.heavy>
31

>  <SCORE.norm>
0.24501

>  <RMSD>
12.454

$$$$
ligand
 OpenBabel11021811493D
libRbt.so/2013.1/901 2013/11/27
 31 33  0  0  0  0  0  0  0  0999 V2000
    4.2698    7.3422    1.0943 C   0  0  2  0  0  0  0  0  0  0  0  0
    3.2986    7.8374    2.0113 O   0  0  0  0  0  0  0  0  0  0  0  0
    0.0493    5.3317    3.1283 C   0  0  2  0  0  0  0  0  0  0  0  0
   -1.2887    4.8424    3.2594 N   0  0  0  0  0  0  0  0  0  0  0  0
    1.4117    3.1443    1.2279 C   0  0  2  0  0  0  0  0  0  0  0  0
    5.6854    7.7506    1.6733 C   0  0  2  0  0  0  0  0  0  0  0  0
    5.8375    7.1613    2.9994 N   0  0  0  0  0  0  0  0  0  0  0  0
    0.1181    6.7765    3.7745 C   0  0  0  0  0  0  0  0  0  0  0  0
    1.8853    2.7706   -0.2125 C   0  0  2  0  0  0  0  0  0  0  0  0
    2.3338    3.9463   -0.8523 O   0  0  0  0  0  0  0  0  0  0  0  0
    5.8183    9.3243    1.7432 C   0  0  0  0  0  0  0  0  0  0  0  0
    1.5891    7.3193    3.6297 C   0  0  2  0  0  0  0  0  0  0  0  0
    1.6579    8.6652    4.2241 N   0  0  0  0  0  0  0  0  0  0  0  0
    0.6460    2.1551   -0.9668 C   0  0  1  0  0  0  0  0  0  0  0  0
    1.0356    1.7929   -2.3697 N   0  0  0  0  0  0  0  0  0  0  0  0
    5.1318   10.0430    0.5056 C   0  0  0  0  0  0  0  0  0  0  0  0
    1.9941    7.3752    2.0907 C   0  0  2  0  0  0  0  0  0  0  0  0
    0.1889    0.8093   -0.1679 C   0  0  1  0  0  0  0  0  0  0  0  0
    1.2324   -0.1463   -0.0825 O   0  0  0  0  0  0  0  0  0  0  0  0
    4.3513    9.3485   -0.3640 C   0  0  2  0  0  0  0  0  0  0  0  0
    4.1027    7.9451   -0.2219 O   0  0  0  0  0  0  0  0  0  0  0  0
    1.9077    5.9308    1.4723 C   0  0  2  0  0  0  0  0  0  0  0  0
    2.2666    5.9925    0.0752 O   0  0  0  0  0  0  0  0  0  0  0  0
   -0.2185    1.1732    1.2969 C   0  0  0  0  0  0  0  0  0  0  0  0
    0.9152    1.9110    1.9589 O   0  0  0  0  0  0  0  0  0  0  0  0
    3.6711    9.9957   -1.5719 C   0  0  0  0  0  0  0  0  0  0  0  0
    2.2398    9.8576   -1.4092 O   0  0  0  0  0  0  0  0  0  0  0  0
    0.4274    5.4150    1.6059 C   0  0  1  0  0  0  0  0  0  0  0  0
    0.3601    4.1456    1.0360 O   0  0  0  0  0  0  0  0  0  0  0  0
   -1.0263    0.0695   -0.7775 C   0  0  0  0  0  0  0  0  0  0  0  0
    0.3052    2.4757   -3.4571 C   0  0  0  0  0  0  0  0  0  0  0  0
  1  2  1  1  0  0  0
  1  6  1  0  0  0  0
  1 21  1  0  0  0  0
  3  4  1  6  0  0  0
  3  8  1  0  0  0  0
  3 28  1  0  0  0  0
  5  9  1  0  0  0  0
  5 25  1  0  0  0  0
  5 29  1  6  0  0  0
  6  7  1  1  0  0  0
  6 11  1  0  0  0  0
  8 12  1  0  0  0  0
  9 10  1  6  0  0  0
  9 14  1  0  0  0  0
 11 16  1  0  0  0  0
 12 13  1  6  0  0  0
 12 17  1  0  0  0  0
 14 15  1  6  0  0  0
 14 18  1  0  0  0  0
 15 31  1  0  0  0  0
 16 20  1  0  0  0  0
 17  2  1  1  0  0  0
 17 22  1  0  0  0  0
 18 19  1  1  0  0  0
 18 24  1  0  0  0  0
 18 30  1  0  0  0  0
 20 21  1  0  0  0  0
 20 26  1  6  0  0  0
 22 23  1  6  0  0  0
 22 28  1  0  0  0  0
 24 25  1  0  0  0  0
 26 27  1  0  0  0  0
 28 29  1  1  0  0  0
M  END
>  <CHROM.1>
-160.37235106,-122.75486837,-119.10923740,140.92240754,-118.10494367,-77.63636128
2.00208222,5.41927690,0.81019275,-0.70424105,-0.94149168,-2.19904183

>  <Name>
ligand

>  <RI>
0

>  <Rbt.Current_Directory>
/home/itssahil/PROJECTS/Mol_Feturizer/New_Systems/rnas/4GPX

>  <Rbt.Executable>
rbdock ($Id: //depot/dev/client3/rdock/2013.1/src/exe/rbdock.cxx#4 $)

>  <Rbt.Library>
libRbt.so (2013.1, Build901 2013/11/27)

>  <Rbt.Parameter_File>
/export/apps/rDock/src/rDock_2013.1_src/data/scripts/dock_solv.prm

>  <Rbt.Receptor>
prm/blind_docking_40.prm

>  <SCORE>
43.7262

>  <SCORE.INTER>
32.6179

>  <SCORE.INTER.CONST>
1

>  <SCORE.INTER.POLAR>
0

>  <SCORE.INTER.ROT>
6

>  <SCORE.INTER.SOLV>
21.6075

>  <SCORE.INTER.VDW>
6.94278

>  <SCORE.INTER.norm>
1.05219

>  <SCORE.INTRA>
4.13363

>  <SCORE.INTRA.DIHEDRAL>
-2.21818

>  <SCORE.INTRA.DIHEDRAL.0>
20.6841

>  <SCORE.INTRA.POLAR>
0

>  <SCORE.INTRA.POLAR.0>
0

>  <SCORE.INTRA.REPUL>
0

>  <SCORE.INTRA.REPUL.0>
0

>  <SCORE.INTRA.SOLV>
-1.68225

>  <SCORE.INTRA.SOLV.lig_0>
-64.6797

>  <SCORE.INTRA.VDW>
6.08384

>  <SCORE.INTRA.VDW.0>
-4.11825

>  <SCORE.INTRA.norm>
0.133343

>  <SCORE.RESTR>
6.9746

>  <SCORE.RESTR.CAVITY>
6.9746

>  <SCORE.RESTR.norm>
0.224987

>  <SCORE.SYSTEM>
0

>  <SCORE.SYSTEM.CONST>
0

>  <SCORE.SYSTEM.DIHEDRAL>
0

>  <SCORE.SYSTEM.SOLV>
0

>  <SCORE.SYSTEM.norm>
0

>  <SCORE.heavy>
31

>  <SCORE.norm>
1.41052

>  <RMSD>
12.484

$$$$
ligand
 OpenBabel11021811493D
libRbt.so/2013.1/901 2013/11/27
 31 33  0  0  0  0  0  0  0  0999 V2000
    2.6932    8.5477    3.6398 C   0  0  2  0  0  0  0  0  0  0  0  0
    3.3421    7.5297    4.3961 O   0  0  0  0  0  0  0  0  0  0  0  0
    6.0226    5.7233    1.6329 C   0  0  2  0  0  0  0  0  0  0  0  0
    6.9196    4.7691    1.0568 N   0  0  0  0  0  0  0  0  0  0  0  0
    4.6259    3.4919   -0.1161 C   0  0  2  0  0  0  0  0  0  0  0  0
    2.3297    9.7034    4.6588 C   0  0  2  0  0  0  0  0  0  0  0  0
    3.5593   10.1853    5.2793 N   0  0  0  0  0  0  0  0  0  0  0  0
    6.6071    6.1750    3.0344 C   0  0  0  0  0  0  0  0  0  0  0  0
    3.7887    3.4202   -1.4324 C   0  0  2  0  0  0  0  0  0  0  0  0
    3.9497    4.6374   -2.1289 O   0  0  0  0  0  0  0  0  0  0  0  0
    1.3217    9.1736    5.7552 C   0  0  0  0  0  0  0  0  0  0  0  0
    5.6209    7.2235    3.6727 C   0  0  2  0  0  0  0  0  0  0  0  0
    6.1565    7.6433    4.9790 N   0  0  0  0  0  0  0  0  0  0  0  0
    2.2840    3.2018   -1.0176 C   0  0  1  0  0  0  0  0  0  0  0  0
    1.4235    3.1442   -2.2453 N   0  0  0  0  0  0  0  0  0  0  0  0
    0.2570    8.1601    5.1561 C   0  0  0  0  0  0  0  0  0  0  0  0
    4.1804    6.5689    3.8523 C   0  0  2  0  0  0  0  0  0  0  0  0
    2.1834    1.7836   -0.2196 C   0  0  1  0  0  0  0  0  0  0  0  0
    2.6374    0.6923   -1.0022 O   0  0  0  0  0  0  0  0  0  0  0  0
    0.3828    7.6775    3.8916 C   0  0  2  0  0  0  0  0  0  0  0  0
    1.4670    8.0473    3.0317 O   0  0  0  0  0  0  0  0  0  0  0  0
    3.6285    6.1210    2.4484 C   0  0  2  0  0  0  0  0  0  0  0  0
    2.3273    5.5198    2.6219 O   0  0  0  0  0  0  0  0  0  0  0  0
    3.0775    1.8301    1.0619 C   0  0  0  0  0  0  0  0  0  0  0  0
    4.4835    2.2041    0.6732 O   0  0  0  0  0  0  0  0  0  0  0  0
   -0.6179    6.7018    3.2695 C   0  0  0  0  0  0  0  0  0  0  0  0
   -1.5603    7.4662    2.4808 O   0  0  0  0  0  0  0  0  0  0  0  0
    4.6143    5.0580    1.8371 C   0  0  1  0  0  0  0  0  0  0  0  0
    4.1034    4.6544    0.6055 O   0  0  0  0  0  0  0  0  0  0  0  0
    0.7625    1.4068    0.2649 C   0  0  0  0  0  0  0  0  0  0  0  0
    0.7627    4.4017   -2.6504 C   0  0  0  0  0  0  0  0  0  0  0  0
  1  2  1  1  0  0  0
  1  6  1  0  0  0  0
  1 21  1  0  0  0  0
  3  4  1  1  0  0  0
  3  8  1  0  0  0  0
  3 28  1  0  0  0  0
  5  9  1  0  0  0  0
  5 25  1  0  0  0  0
  5 29  1  1  0  0  0
  6  7  1  1  0  0  0
  6 11  1  0  0  0  0
  8 12  1  0  0  0  0
  9 10  1  1  0  0  0
  9 14  1  0  0  0  0
 11 16  1  0  0  0  0
 12 13  1  1  0  0  0
 12 17  1  0  0  0  0
 14 15  1  6  0  0  0
 14 18  1  0  0  0  0
 15 31  1  0  0  0  0
 16 20  1  0  0  0  0
 17  2  1  6  0  0  0
 17 22  1  0  0  0  0
 18 19  1  6  0  0  0
 18 24  1  0  0  0  0
 18 30  1  0  0  0  0
 20 21  1  0  0  0  0
 20 26  1  6  0  0  0
 22 23  1  1  0  0  0
 22 28  1  0  0  0  0
 24 25  1  0  0  0  0
 26 27  1  0  0  0  0
 28 29  1  6  0  0  0
M  END
>  <CHROM.1>
-158.46445205,-179.29829304,-95.83972162,81.67208462,96.48942656,73.37270252
2.97283070,5.55151388,1.85702390,1.63006952,-0.09469708,0.75375453

>  <Name>
ligand

>  <RI>
0

>  <Rbt.Current_Directory>
/home/itssahil/PROJECTS/Mol_Feturizer/New_Systems/rnas/4GPX

>  <Rbt.Executable>
rbdock ($Id: //depot/dev/client3/rdock/2013.1/src/exe/rbdock.cxx#4 $)

>  <Rbt.Library>
libRbt.so (2013.1, Build901 2013/11/27)

>  <Rbt.Parameter_File>
/export/apps/rDock/src/rDock_2013.1_src/data/scripts/dock_solv.prm

>  <Rbt.Receptor>
prm/blind_docking_80.prm

>  <SCORE>
9.38676

>  <SCORE.INTER>
4.94529

>  <SCORE.INTER.CONST>
1

>  <SCORE.INTER.POLAR>
0

>  <SCORE.INTER.ROT>
6

>  <SCORE.INTER.SOLV>
19.334

>  <SCORE.INTER.VDW>
-10.7478

>  <SCORE.INTER.norm>
0.159525

>  <SCORE.INTRA>
-5.3252

>  <SCORE.INTRA.DIHEDRAL>
-12.5898

>  <SCORE.INTRA.DIHEDRAL.0>
20.6841

>  <SCORE.INTRA.POLAR>
0

>  <SCORE.INTRA.POLAR.0>
0

>  <SCORE.INTRA.REPUL>
0

>  <SCORE.INTRA.REPUL.0>
0

>  <SCORE.INTRA.SOLV>
-0.172802

>  <SCORE.INTRA.SOLV.lig_0>
-64.6797

>  <SCORE.INTRA.VDW>
1.0561

>  <SCORE.INTRA.VDW.0>
-4.11825

>  <SCORE.INTRA.norm>
-0.171781

>  <SCORE.RESTR>
9.76667

>  <SCORE.RESTR.CAVITY>
9.76667

>  <SCORE.RESTR.norm>
0.315054

>  <SCORE.SYSTEM>
0

>  <SCORE.SYSTEM.CONST>
0

>  <SCORE.SYSTEM.DIHEDRAL>
0

>  <SCORE.SYSTEM.SOLV>
0

>  <SCORE.SYSTEM.norm>
0

>  <SCORE.heavy>
31

>  <SCORE.norm>
0.302799

>  <RMSD>
12.500

$$$$
ligand
 OpenBabel11021811493D
libRbt.so/2013.1/901 2013/11/27
 31 33  0  0  0  0  0  0  0  0999 V2000
    3.8184   10.2242   -0.0718 C   0  0  2  0  0  0  0  0  0  0  0  0
    3.2498    9.6904    1.1202 O   0  0  0  0  0  0  0  0  0  0  0  0
    5.0068    5.8396    1.5310 C   0  0  2  0  0  0  0  0  0  0  0  0
    5.5023    4.6457    2.1442 N   0  0  0  0  0  0  0  0  0  0  0  0
    2.4566    4.7886   -0.1050 C   0  0  2  0  0  0  0  0  0  0  0  0
    2.7881   11.2920   -0.6234 C   0  0  2  0  0  0  0  0  0  0  0  0
    2.5885   12.3197    0.3930 N   0  0  0  0  0  0  0  0  0  0  0  0
    5.7956    7.0745    2.1334 C   0  0  0  0  0  0  0  0  0  0  0  0
    1.1266    3.9717   -0.1565 C   0  0  2  0  0  0  0  0  0  0  0  0
    0.1510    4.6624    0.5943 O   0  0  0  0  0  0  0  0  0  0  0  0
    1.4170   10.5957   -0.9899 C   0  0  0  0  0  0  0  0  0  0  0  0
    5.2508    8.3909    1.4626 C   0  0  2  0  0  0  0  0  0  0  0  0
    5.9769    9.5434    2.0229 N   0  0  0  0  0  0  0  0  0  0  0  0
    1.4233    2.5563    0.4697 C   0  0  1  0  0  0  0  0  0  0  0  0
    0.1720    1.7285    0.4661 N   0  0  0  0  0  0  0  0  0  0  0  0
    1.6229    9.1577   -1.6297 C   0  0  0  0  0  0  0  0  0  0  0  0
    3.6900    8.5333    1.7439 C   0  0  2  0  0  0  0  0  0  0  0  0
    2.5563    1.8277   -0.4488 C   0  0  1  0  0  0  0  0  0  0  0  0
    2.1467    1.6882   -1.7987 O   0  0  0  0  0  0  0  0  0  0  0  0
    2.8445    8.5615   -1.6357 C   0  0  2  0  0  0  0  0  0  0  0  0
    4.0063    9.1832   -1.0743 O   0  0  0  0  0  0  0  0  0  0  0  0
    2.9330    7.2906    1.1447 C   0  0  2  0  0  0  0  0  0  0  0  0
    1.5206    7.4230    1.4130 O   0  0  0  0  0  0  0  0  0  0  0  0
    3.8657    2.6816   -0.4546 C   0  0  0  0  0  0  0  0  0  0  0  0
    3.5420    4.0842   -0.8972 O   0  0  0  0  0  0  0  0  0  0  0  0
    3.0932    7.1792   -2.2421 C   0  0  0  0  0  0  0  0  0  0  0  0
    4.2172    7.2813   -3.1480 O   0  0  0  0  0  0  0  0  0  0  0  0
    3.4743    5.9884    1.8424 C   0  0  1  0  0  0  0  0  0  0  0  0
    2.7816    4.8991    1.3189 O   0  0  0  0  0  0  0  0  0  0  0  0
    2.9710    0.4139    0.0256 C   0  0  0  0  0  0  0  0  0  0  0  0
    0.0431    0.7184    1.5363 C   0  0  0  0  0  0  0  0  0  0  0  0
  1  2  1  1  0  0  0
  1  6  1  0  0  0  0
  1 21  1  0  0  0  0
  3  4  1  1  0  0  0
  3  8  1  0  0  0  0
  3 28  1  0  0  0  0
  5  9  1  0  0  0  0
  5 25  1  0  0  0  0
  5 29  1  1  0  0  0
  6  7  1  1  0  0  0
  6 11  1  0  0  0  0
  8 12  1  0  0  0  0
  9 10  1  1  0  0  0
  9 14  1  0  0  0  0
 11 16  1  0  0  0  0
 12 13  1  1  0  0  0
 12 17  1  0  0  0  0
 14 15  1  6  0  0  0
 14 18  1  0  0  0  0
 15 31  1  0  0  0  0
 16 20  1  0  0  0  0
 17  2  1  6  0  0  0
 17 22  1  0  0  0  0
 18 19  1  6  0  0  0
 18 24  1  0  0  0  0
 18 30  1  0  0  0  0
 20 21  1  0  0  0  0
 20 26  1  6  0  0  0
 22 23  1  1  0  0  0
 22 28  1  0  0  0  0
 24 25  1  0  0  0  0
 26 27  1  0  0  0  0
 28 29  1  6  0  0  0
M  END
>  <CHROM.1>
165.22527087,-149.86959368,-150.76592750,30.52715110,128.89429766,-78.15652704
2.94932533,6.23474086,0.17574306,1.31461226,-0.68733212,-0.17435433

>  <Name>
ligand

>  <RI>
0

>  <Rbt.Current_Directory>
/home/itssahil/PROJECTS/Mol_Feturizer/New_Systems/rnas/4GPX

>  <Rbt.Executable>
rbdock ($Id: //depot/dev/client3/rdock/2013.1/src/exe/rbdock.cxx#4 $)

>  <Rbt.Library>
libRbt.so (2013.1, Build901 2013/11/27)

>  <Rbt.Parameter_File>
/export/apps/rDock/src/rDock_2013.1_src/data/scripts/dock_solv.prm

>  <Rbt.Receptor>
prm/blind_docking_40.prm

>  <SCORE>
-1.29202

>  <SCORE.INTER>
-3.21746

>  <SCORE.INTER.CONST>
1

>  <SCORE.INTER.POLAR>
0

>  <SCORE.INTER.ROT>
6

>  <SCORE.INTER.SOLV>
21.4651

>  <SCORE.INTER.VDW>
-16.9

>  <SCORE.INTER.norm>
-0.103789

>  <SCORE.INTRA>
-3.14049

>  <SCORE.INTRA.DIHEDRAL>
-8.66075

>  <SCORE.INTRA.DIHEDRAL.0>
20.6841

>  <SCORE.INTRA.POLAR>
0

>  <SCORE.INTRA.POLAR.0>
0

>  <SCORE.INTRA.REPUL>
0

>  <SCORE.INTRA.REPUL.0>
0

>  <SCORE.INTRA.SOLV>
-0.217564

>  <SCORE.INTRA.SOLV.lig_0>
-64.6797

>  <SCORE.INTRA.VDW>
1.29866

>  <SCORE.INTRA.VDW.0>
-4.11825

>  <SCORE.INTRA.norm>
-0.101306

>  <SCORE.RESTR>
5.06593

>  <SCORE.RESTR.CAVITY>
5.06593

>  <SCORE.RESTR.norm>
0.163417

>  <SCORE.SYSTEM>
0

>  <SCORE.SYSTEM.CONST>
0

>  <SCORE.SYSTEM.DIHEDRAL>
0

>  <SCORE.SYSTEM.SOLV>
0

>  <SCORE.SYSTEM.norm>
0

>  <SCORE.heavy>
31

>  <SCORE.norm>
-0.0416782

>  <RMSD>
12.506

$$$$
ligand
 OpenBabel11021811493D
libRbt.so/2013.1/901 2013/11/27
 31 33  0  0  0  0  0  0  0  0999 V2000
    2.3143    2.6374    0.7300 C   0  0  2  0  0  0  0  0  0  0  0  0
    1.3778    3.5931    1.2187 O   0  0  0  0  0  0  0  0  0  0  0  0
    1.6821    7.6852    2.3347 C   0  0  2  0  0  0  0  0  0  0  0  0
    1.9887    8.8494    3.1077 N   0  0  0  0  0  0  0  0  0  0  0  0
    3.9044    7.6851   -0.1891 C   0  0  2  0  0  0  0  0  0  0  0  0
    2.3322    2.7891   -0.8456 C   0  0  2  0  0  0  0  0  0  0  0  0
    2.7218    4.1548   -1.1808 N   0  0  0  0  0  0  0  0  0  0  0  0
    0.7139    6.7627    3.1841 C   0  0  0  0  0  0  0  0  0  0  0  0
    4.3727    9.1120   -0.6175 C   0  0  2  0  0  0  0  0  0  0  0  0
    5.6272    9.3658   -0.0222 O   0  0  0  0  0  0  0  0  0  0  0  0
    0.9101    2.4507   -1.4474 C   0  0  0  0  0  0  0  0  0  0  0  0
    0.3764    5.4789    2.3371 C   0  0  2  0  0  0  0  0  0  0  0  0
   -0.5195    4.6143    3.1242 N   0  0  0  0  0  0  0  0  0  0  0  0
    3.2875   10.1333   -0.1046 C   0  0  1  0  0  0  0  0  0  0  0  0
    3.6938   11.5304   -0.4708 N   0  0  0  0  0  0  0  0  0  0  0  0
    0.2030    1.2509   -0.6857 C   0  0  0  0  0  0  0  0  0  0  0  0
    1.7188    4.7008    1.9792 C   0  0  2  0  0  0  0  0  0  0  0  0
    1.8740    9.7728   -0.8330 C   0  0  1  0  0  0  0  0  0  0  0  0
    1.9674    9.8282   -2.2463 O   0  0  0  0  0  0  0  0  0  0  0  0
    0.7142    0.7580    0.4733 C   0  0  2  0  0  0  0  0  0  0  0  0
    1.9055    1.2810    1.0722 O   0  0  0  0  0  0  0  0  0  0  0  0
    2.6648    5.6420    1.1453 C   0  0  2  0  0  0  0  0  0  0  0  0
    3.8829    4.9323    0.8340 O   0  0  0  0  0  0  0  0  0  0  0  0
    1.4400    8.3179   -0.4604 C   0  0  0  0  0  0  0  0  0  0  0  0
    2.5543    7.3643   -0.8023 O   0  0  0  0  0  0  0  0  0  0  0  0
    0.0708   -0.3979    1.2418 C   0  0  0  0  0  0  0  0  0  0  0  0
   -0.5342    0.1411    2.4409 O   0  0  0  0  0  0  0  0  0  0  0  0
    3.0087    6.9069    2.0155 C   0  0  1  0  0  0  0  0  0  0  0  0
    3.8630    7.7206    1.2746 O   0  0  0  0  0  0  0  0  0  0  0  0
    0.6868   10.6856   -0.4418 C   0  0  0  0  0  0  0  0  0  0  0  0
    3.2137   12.6127    0.4125 C   0  0  0  0  0  0  0  0  0  0  0  0
  1  2  1  1  0  0  0
  1  6  1  0  0  0  0
  1 21  1  0  0  0  0
  3  4  1  1  0  0  0
  3  8  1  0  0  0  0
  3 28  1  0  0  0  0
  5  9  1  0  0  0  0
  5 25  1  0  0  0  0
  5 29  1  1  0  0  0
  6  7  1  1  0  0  0
  6 11  1  0  0  0  0
  8 12  1  0  0  0  0
  9 10  1  1  0  0  0
  9 14  1  0  0  0  0
 11 16  1  0  0  0  0
 12 13  1  1  0  0  0
 12 17  1  0  0  0  0
 14 15  1  6  0  0  0
 14 18  1  0  0  0  0
 15 31  1  0  0  0  0
 16 20  1  0  0  0  0
 17  2  1  6  0  0  0
 17 22  1  0  0  0  0
 18 19  1  6  0  0  0
 18 24  1  0  0  0  0
 18 30  1  0  0  0  0
 20 21  1  0  0  0  0
 20 26  1  6  0  0  0
 22 23  1  1  0  0  0
 22 28  1  0  0  0  0
 24 25  1  0  0  0  0
 26 27  1  0  0  0  0
 28 29  1  6  0  0  0
M  END
>  <CHROM.1>
-112.75737770,152.56851318,-151.84809569,-178.77168474,-107.90663129,-94.24976111
2.07555264,6.07241010,0.59223549,-2.08048565,1.02225955,0.32991745

>  <Name>
ligand

>  <RI>
0

>  <Rbt.Current_Directory>
/home/itssahil/PROJECTS/Mol_Feturizer/New_Systems/rnas/4GPX

>  <Rbt.Executable>
rbdock ($Id: //depot/dev/client3/rdock/2013.1/src/exe/rbdock.cxx#4 $)

>  <Rbt.Library>
libRbt.so (2013.1, Build901 2013/11/27)

>  <Rbt.Parameter_File>
/export/apps/rDock/src/rDock_2013.1_src/data/scripts/dock_solv.prm

>  <Rbt.Receptor>
prm/blind_docking_40.prm

>  <SCORE>
22.3454

>  <SCORE.INTER>
5.36847

>  <SCORE.INTER.CONST>
1

>  <SCORE.INTER.POLAR>
0

>  <SCORE.INTER.ROT>
6

>  <SCORE.INTER.SOLV>
23.9409

>  <SCORE.INTER.VDW>
-12.0013

>  <SCORE.INTER.norm>
0.173176

>  <SCORE.INTRA>
9.6096

>  <SCORE.INTRA.DIHEDRAL>
-3.81733

>  <SCORE.INTRA.DIHEDRAL.0>
20.6841

>  <SCORE.INTRA.POLAR>
0

>  <SCORE.INTRA.POLAR.0>
0

>  <SCORE.INTRA.REPUL>
0.929104

>  <SCORE.INTRA.REPUL.0>
0

>  <SCORE.INTRA.SOLV>
2.91811

>  <SCORE.INTRA.SOLV.lig_0>
-64.6797

>  <SCORE.INTRA.VDW>
5.41369

>  <SCORE.INTRA.VDW.0>
-4.11825

>  <SCORE.INTRA.norm>
0.309987

>  <SCORE.RESTR>
7.36729

>  <SCORE.RESTR.CAVITY>
7.36729

>  <SCORE.RESTR.norm>
0.237654

>  <SCORE.SYSTEM>
0

>  <SCORE.SYSTEM.CONST>
0

>  <SCORE.SYSTEM.DIHEDRAL>
0

>  <SCORE.SYSTEM.SOLV>
0

>  <SCORE.SYSTEM.norm>
0

>  <SCORE.heavy>
31

>  <SCORE.norm>
0.720818

>  <RMSD>
12.529

$$$$
ligand
 OpenBabel11021811493D
libRbt.so/2013.1/901 2013/11/27
 31 33  0  0  0  0  0  0  0  0999 V2000
    2.0068    8.2553    3.7467 C   0  0  2  0  0  0  0  0  0  0  0  0
    3.4080    8.0388    3.8849 O   0  0  0  0  0  0  0  0  0  0  0  0
    5.7659    5.2611    1.6919 C   0  0  2  0  0  0  0  0  0  0  0  0
    6.4648    4.0580    1.3590 N   0  0  0  0  0  0  0  0  0  0  0  0
    4.2266    3.2137    0.0759 C   0  0  2  0  0  0  0  0  0  0  0  0
    1.7994    9.8223    3.6611 C   0  0  2  0  0  0  0  0  0  0  0  0
    2.5454   10.3322    2.5154 N   0  0  0  0  0  0  0  0  0  0  0  0
    6.3688    5.8315    3.0414 C   0  0  0  0  0  0  0  0  0  0  0  0
    3.5665    3.1747   -1.3388 C   0  0  2  0  0  0  0  0  0  0  0  0
    3.9179    4.3564   -2.0263 O   0  0  0  0  0  0  0  0  0  0  0  0
    2.2846   10.5155    4.9964 C   0  0  0  0  0  0  0  0  0  0  0  0
    5.6001    7.1547    3.4123 C   0  0  2  0  0  0  0  0  0  0  0  0
    6.1528    7.6870    4.6696 N   0  0  0  0  0  0  0  0  0  0  0  0
    2.0075    3.0886   -1.1246 C   0  0  1  0  0  0  0  0  0  0  0  0
    1.3139    3.0678   -2.4548 N   0  0  0  0  0  0  0  0  0  0  0  0
    1.9439    9.6506    6.2831 C   0  0  0  0  0  0  0  0  0  0  0  0
    4.0468    6.8468    3.5801 C   0  0  2  0  0  0  0  0  0  0  0  0
    1.6857    1.7044   -0.3253 C   0  0  1  0  0  0  0  0  0  0  0  0
    2.1466    0.5601   -1.0236 O   0  0  0  0  0  0  0  0  0  0  0  0
    1.4846    8.3763    6.1697 C   0  0  2  0  0  0  0  0  0  0  0  0
    1.2811    7.7422    4.9016 O   0  0  0  0  0  0  0  0  0  0  0  0
    3.4766    6.2731    2.2303 C   0  0  2  0  0  0  0  0  0  0  0  0
    2.0708    5.9876    2.3943 O   0  0  0  0  0  0  0  0  0  0  0  0
    2.4045    1.7127    1.0629 C   0  0  0  0  0  0  0  0  0  0  0  0
    3.8755    1.9626    0.8591 O   0  0  0  0  0  0  0  0  0  0  0  0
    1.1404    7.5047    7.3790 C   0  0  0  0  0  0  0  0  0  0  0  0
    0.0402    8.1275    8.0834 O   0  0  0  0  0  0  0  0  0  0  0  0
    4.2406    4.9410    1.8882 C   0  0  1  0  0  0  0  0  0  0  0  0
    3.7120    4.4328    0.7037 O   0  0  0  0  0  0  0  0  0  0  0  0
    0.1872    1.4555   -0.0284 C   0  0  0  0  0  0  0  0  0  0  0  0
    1.0135    4.3789   -3.0655 C   0  0  0  0  0  0  0  0  0  0  0  0
  1  2  1  1  0  0  0
  1  6  1  0  0  0  0
  1 21  1  0  0  0  0
  3  4  1  1  0  0  0
  3  8  1  0  0  0  0
  3 28  1  0  0  0  0
  5  9  1  0  0  0  0
  5 25  1  0  0  0  0
  5 29  1  1  0  0  0
  6  7  1  6  0  0  0
  6 11  1  0  0  0  0
  8 12  1  0  0  0  0
  9 10  1  6  0  0  0
  9 14  1  0  0  0  0
 11 16  1  0  0  0  0
 12 13  1  1  0  0  0
 12 17  1  0  0  0  0
 14 15  1  6  0  0  0
 14 18  1  0  0  0  0
 15 31  1  0  0  0  0
 16 20  1  0  0  0  0
 17  2  1  6  0  0  0
 17 22  1  0  0  0  0
 18 19  1  6  0  0  0
 18 24  1  0  0  0  0
 18 30  1  0  0  0  0
 20 21  1  0  0  0  0
 20 26  1  6  0  0  0
 22 23  1  1  0  0  0
 22 28  1  0  0  0  0
 24 25  1  0  0  0  0
 26 27  1  0  0  0  0
 28 29  1  6  0  0  0
M  END
>  <CHROM.1>
-158.92578841,-168.86224448,-86.26043477,161.77276915,63.47195992,59.40516037
2.94071171,5.63938712,2.16395172,1.61627432,0.12888007,0.79617794

>  <Name>
ligand

>  <RI>
0

>  <Rbt.Current_Directory>
/home/itssahil/PROJECTS/Mol_Feturizer/New_Systems/rnas/4GPX

>  <Rbt.Executable>
rbdock ($Id: //depot/dev/client3/rdock/2013.1/src/exe/rbdock.cxx#4 $)

>  <Rbt.Library>
libRbt.so (2013.1, Build901 2013/11/27)

>  <Rbt.Parameter_File>
/export/apps/rDock/src/rDock_2013.1_src/data/scripts/dock_solv.prm

>  <Rbt.Receptor>
prm/blind_docking_80.prm

>  <SCORE>
10.3895

>  <SCORE.INTER>
2.1457

>  <SCORE.INTER.CONST>
1

>  <SCORE.INTER.POLAR>
0

>  <SCORE.INTER.ROT>
6

>  <SCORE.INTER.SOLV>
16.6664

>  <SCORE.INTER.VDW>
-11.725

>  <SCORE.INTER.norm>
0.0692162

>  <SCORE.INTRA>
-4.07206

>  <SCORE.INTRA.DIHEDRAL>
-12.5126

>  <SCORE.INTRA.DIHEDRAL.0>
20.6841

>  <SCORE.INTRA.POLAR>
0

>  <SCORE.INTRA.POLAR.0>
0

>  <SCORE.INTRA.REPUL>
0

>  <SCORE.INTRA.REPUL.0>
0

>  <SCORE.INTRA.SOLV>
-1.76671

>  <SCORE.INTRA.SOLV.lig_0>
-64.6797

>  <SCORE.INTRA.VDW>
3.06761

>  <SCORE.INTRA.VDW.0>
-4.11825

>  <SCORE.INTRA.norm>
-0.131357

>  <SCORE.RESTR>
12.3158

>  <SCORE.RESTR.CAVITY>
12.3158

>  <SCORE.RESTR.norm>
0.397285

>  <SCORE.SYSTEM>
0

>  <SCORE.SYSTEM.CONST>
0

>  <SCORE.SYSTEM.DIHEDRAL>
0

>  <SCORE.SYSTEM.SOLV>
0

>  <SCORE.SYSTEM.norm>
0

>  <SCORE.heavy>
31

>  <SCORE.norm>
0.335145

>  <RMSD>
12.580

$$$$
ligand
 OpenBabel11021811493D
libRbt.so/2013.1/901 2013/11/27
 31 33  0  0  0  0  0  0  0  0999 V2000
    5.7700    8.1858    1.6633 C   0  0  2  0  0  0  0  0  0  0  0  0
    4.8650    7.4194    2.4526 O   0  0  0  0  0  0  0  0  0  0  0  0
    1.0406    5.5605    2.5036 C   0  0  2  0  0  0  0  0  0  0  0  0
   -0.3332    5.3015    2.1996 N   0  0  0  0  0  0  0  0  0  0  0  0
    0.5403    3.6529    0.1012 C   0  0  2  0  0  0  0  0  0  0  0  0
    5.8857    9.6030    2.3590 C   0  0  2  0  0  0  0  0  0  0  0  0
    6.3728    9.4181    3.7220 N   0  0  0  0  0  0  0  0  0  0  0  0
    1.1530    7.0251    3.0971 C   0  0  0  0  0  0  0  0  0  0  0  0
    0.2800    2.3102    0.8549 C   0  0  2  0  0  0  0  0  0  0  0  0
    0.2074    2.5833    2.2379 O   0  0  0  0  0  0  0  0  0  0  0  0
    4.4824   10.3309    2.3618 C   0  0  0  0  0  0  0  0  0  0  0  0
    2.6644    7.3147    3.4305 C   0  0  2  0  0  0  0  0  0  0  0  0
    2.7760    8.6777    3.9778 N   0  0  0  0  0  0  0  0  0  0  0  0
    1.4880    1.3511    0.5314 C   0  0  1  0  0  0  0  0  0  0  0  0
    1.3036    0.0453    1.2470 N   0  0  0  0  0  0  0  0  0  0  0  0
    3.6644   10.0687    1.0270 C   0  0  0  0  0  0  0  0  0  0  0  0
    3.5437    7.1775    2.1100 C   0  0  2  0  0  0  0  0  0  0  0  0
    1.5043    1.0884   -1.0776 C   0  0  1  0  0  0  0  0  0  0  0  0
    0.2917    0.5202   -1.5425 O   0  0  0  0  0  0  0  0  0  0  0  0
    4.0795    9.1450    0.1204 C   0  0  2  0  0  0  0  0  0  0  0  0
    5.2638    8.3615    0.3081 O   0  0  0  0  0  0  0  0  0  0  0  0
    3.4062    5.7184    1.5370 C   0  0  2  0  0  0  0  0  0  0  0  0
    4.1982    5.6059    0.3351 O   0  0  0  0  0  0  0  0  0  0  0  0
    1.6945    2.4425   -1.8354 C   0  0  0  0  0  0  0  0  0  0  0  0
    0.6301    3.4123   -1.3941 O   0  0  0  0  0  0  0  0  0  0  0  0
    3.3272    8.8587   -1.1806 C   0  0  0  0  0  0  0  0  0  0  0  0
    4.2575    8.2645   -2.1164 O   0  0  0  0  0  0  0  0  0  0  0  0
    1.8944    5.4559    1.1892 C   0  0  1  0  0  0  0  0  0  0  0  0
    1.7900    4.1700    0.6635 O   0  0  0  0  0  0  0  0  0  0  0  0
    2.6368    0.1582   -1.5756 C   0  0  0  0  0  0  0  0  0  0  0  0
    0.0006   -0.6280    1.0710 C   0  0  0  0  0  0  0  0  0  0  0  0
  1  2  1  1  0  0  0
  1  6  1  0  0  0  0
  1 21  1  0  0  0  0
  3  4  1  6  0  0  0
  3  8  1  0  0  0  0
  3 28  1  0  0  0  0
  5  9  1  0  0  0  0
  5 25  1  0  0  0  0
  5 29  1  1  0  0  0
  6  7  1  1  0  0  0
  6 11  1  0  0  0  0
  8 12  1  0  0  0  0
  9 10  1  1  0  0  0
  9 14  1  0  0  0  0
 11 16  1  0  0  0  0
 12 13  1  6  0  0  0
 12 17  1  0  0  0  0
 14 15  1  1  0  0  0
 14 18  1  0  0  0  0
 15 31  1  0  0  0  0
 16 20  1  0  0  0  0
 17  2  1  1  0  0  0
 17 22  1  0  0  0  0
 18 19  1  6  0  0  0
 18 24  1  0  0  0  0
 18 30  1  0  0  0  0
 20 21  1  0  0  0  0
 20 26  1  6  0  0  0
 22 23  1  6  0  0  0
 22 28  1  0  0  0  0
 24 25  1  0  0  0  0
 26 27  1  0  0  0  0
 28 29  1  1  0  0  0
M  END
>  <CHROM.1>
102.71002040,-126.44751971,51.33844261,-138.73222911,157.67216650,67.94044238
2.60026783,5.40534088,0.93956443,-0.75961539,-0.94899170,-2.19915964

>  <Name>
ligand

>  <RI>
0

>  <Rbt.Current_Directory>
/home/itssahil/PROJECTS/Mol_Feturizer/New_Systems/rnas/4GPX

>  <Rbt.Executable>
rbdock ($Id: //depot/dev/client3/rdock/2013.1/src/exe/rbdock.cxx#4 $)

>  <Rbt.Library>
libRbt.so (2013.1, Build901 2013/11/27)

>  <Rbt.Parameter_File>
/export/apps/rDock/src/rDock_2013.1_src/data/scripts/dock_solv.prm

>  <Rbt.Receptor>
prm/blind_docking_40.prm

>  <SCORE>
19.9649

>  <SCORE.INTER>
5.01215

>  <SCORE.INTER.CONST>
1

>  <SCORE.INTER.POLAR>
0

>  <SCORE.INTER.ROT>
6

>  <SCORE.INTER.SOLV>
16.7746

>  <SCORE.INTER.VDW>
-9.85011

>  <SCORE.INTER.norm>
0.161682

>  <SCORE.INTRA>
5.87156

>  <SCORE.INTRA.DIHEDRAL>
1.12108

>  <SCORE.INTRA.DIHEDRAL.0>
20.6841

>  <SCORE.INTRA.POLAR>
0

>  <SCORE.INTRA.POLAR.0>
0

>  <SCORE.INTRA.REPUL>
0

>  <SCORE.INTRA.REPUL.0>
0

>  <SCORE.INTRA.SOLV>
3.83068

>  <SCORE.INTRA.SOLV.lig_0>
-64.6797

>  <SCORE.INTRA.VDW>
3.39567

>  <SCORE.INTRA.VDW.0>
-4.11825

>  <SCORE.INTRA.norm>
0.189405

>  <SCORE.RESTR>
9.08119

>  <SCORE.RESTR.CAVITY>
9.08119

>  <SCORE.RESTR.norm>
0.292942

>  <SCORE.SYSTEM>
0

>  <SCORE.SYSTEM.CONST>
0

>  <SCORE.SYSTEM.DIHEDRAL>
0

>  <SCORE.SYSTEM.SOLV>
0

>  <SCORE.SYSTEM.norm>
0

>  <SCORE.heavy>
31

>  <SCORE.norm>
0.644029

>  <RMSD>
12.601

$$$$
ligand
 OpenBabel11021811493D
libRbt.so/2013.1/901 2013/11/27
 31 33  0  0  0  0  0  0  0  0999 V2000
    3.9095    9.7597    0.0811 C   0  0  2  0  0  0  0  0  0  0  0  0
    3.0225    9.3199    1.1053 O   0  0  0  0  0  0  0  0  0  0  0  0
    4.6979    5.6224    2.3725 C   0  0  2  0  0  0  0  0  0  0  0  0
    4.9814    4.4850    3.1928 N   0  0  0  0  0  0  0  0  0  0  0  0
    3.5285    4.0403    0.1841 C   0  0  2  0  0  0  0  0  0  0  0  0
    3.2633   11.0615   -0.5462 C   0  0  2  0  0  0  0  0  0  0  0  0
    3.1067   12.0608    0.5056 N   0  0  0  0  0  0  0  0  0  0  0  0
    5.1133    6.9278    3.1684 C   0  0  0  0  0  0  0  0  0  0  0  0
    2.4284    3.6035   -0.8346 C   0  0  2  0  0  0  0  0  0  0  0  0
    1.5982    4.7148   -1.0965 O   0  0  0  0  0  0  0  0  0  0  0  0
    1.8670   10.7206   -1.2043 C   0  0  0  0  0  0  0  0  0  0  0  0
    4.8002    8.1821    2.2695 C   0  0  2  0  0  0  0  0  0  0  0  0
    5.1793    9.3996    3.0067 N   0  0  0  0  0  0  0  0  0  0  0  0
    1.6112    2.4334   -0.1664 C   0  0  1  0  0  0  0  0  0  0  0  0
    0.5216    1.9825   -1.0940 N   0  0  0  0  0  0  0  0  0  0  0  0
    1.8680    9.3043   -1.9212 C   0  0  0  0  0  0  0  0  0  0  0  0
    3.2489    8.2152    1.9117 C   0  0  2  0  0  0  0  0  0  0  0  0
    2.6367    1.1953    0.1054 C   0  0  1  0  0  0  0  0  0  0  0  0
    3.2576    0.7397   -1.0847 O   0  0  0  0  0  0  0  0  0  0  0  0
    2.9067    8.4411   -1.7667 C   0  0  2  0  0  0  0  0  0  0  0  0
    4.0494    8.7496   -0.9601 O   0  0  0  0  0  0  0  0  0  0  0  0
    2.8620    6.9046    1.1315 C   0  0  2  0  0  0  0  0  0  0  0  0
    1.4525    6.9384    0.8201 O   0  0  0  0  0  0  0  0  0  0  0  0
    3.7785    1.6529    1.0701 C   0  0  0  0  0  0  0  0  0  0  0  0
    4.4482    2.8763    0.5021 O   0  0  0  0  0  0  0  0  0  0  0  0
    2.9546    7.0675   -2.4385 C   0  0  0  0  0  0  0  0  0  0  0  0
    4.1118    7.0319   -3.3068 O   0  0  0  0  0  0  0  0  0  0  0  0
    3.1605    5.6649    2.0531 C   0  0  1  0  0  0  0  0  0  0  0  0
    2.7939    4.5138    1.3594 O   0  0  0  0  0  0  0  0  0  0  0  0
    1.9959   -0.0506    0.7633 C   0  0  0  0  0  0  0  0  0  0  0  0
   -0.6810    2.8372   -1.1681 C   0  0  0  0  0  0  0  0  0  0  0  0
  1  2  1  1  0  0  0
  1  6  1  0  0  0  0
  1 21  1  0  0  0  0
  3  4  1  1  0  0  0
  3  8  1  0  0  0  0
  3 28  1  0  0  0  0
  5  9  1  0  0  0  0
  5 25  1  0  0  0  0
  5 29  1  1  0  0  0
  6  7  1  1  0  0  0
  6 11  1  0  0  0  0
  8 12  1  0  0  0  0
  9 10  1  1  0  0  0
  9 14  1  0  0  0  0
 11 16  1  0  0  0  0
 12 13  1  1  0  0  0
 12 17  1  0  0  0  0
 14 15  1  6  0  0  0
 14 18  1  0  0  0  0
 15 31  1  0  0  0  0
 16 20  1  0  0  0  0
 17  2  1  6  0  0  0
 17 22  1  0  0  0  0
 18 19  1  6  0  0  0
 18 24  1  0  0  0  0
 18 30  1  0  0  0  0
 20 21  1  0  0  0  0
 20 26  1  6  0  0  0
 22 23  1  1  0  0  0
 22 28  1  0  0  0  0
 24 25  1  0  0  0  0
 26 27  1  0  0  0  0
 28 29  1  6  0  0  0
M  END
>  <CHROM.1>
-178.74987734,-137.55377181,-77.64474590,39.06775981,119.22513562,-49.53712039
3.03332336,5.98120319,0.22685526,-1.32560469,1.00540309,2.95590291

>  <Name>
ligand

>  <RI>
0

>  <Rbt.Current_Directory>
/home/itssahil/PROJECTS/Mol_Feturizer/New_Systems/rnas/4GPX

>  <Rbt.Executable>
rbdock ($Id: //depot/dev/client3/rdock/2013.1/src/exe/rbdock.cxx#4 $)

>  <Rbt.Library>
libRbt.so (2013.1, Build901 2013/11/27)

>  <Rbt.Parameter_File>
/export/apps/rDock/src/rDock_2013.1_src/data/scripts/dock_solv.prm

>  <Rbt.Receptor>
prm/blind_docking_40.prm

>  <SCORE>
-1.36676

>  <SCORE.INTER>
-4.88059

>  <SCORE.INTER.CONST>
1

>  <SCORE.INTER.POLAR>
0

>  <SCORE.INTER.ROT>
6

>  <SCORE.INTER.SOLV>
15.677

>  <SCORE.INTER.VDW>
-16.0794

>  <SCORE.INTER.norm>
-0.157438

>  <SCORE.INTRA>
-4.3447

>  <SCORE.INTRA.DIHEDRAL>
-10.4795

>  <SCORE.INTRA.DIHEDRAL.0>
20.6841

>  <SCORE.INTRA.POLAR>
0

>  <SCORE.INTRA.POLAR.0>
0

>  <SCORE.INTRA.REPUL>
0

>  <SCORE.INTRA.REPUL.0>
0

>  <SCORE.INTRA.SOLV>
0.37015

>  <SCORE.INTRA.SOLV.lig_0>
-64.6797

>  <SCORE.INTRA.VDW>
0.709994

>  <SCORE.INTRA.VDW.0>
-4.11825

>  <SCORE.INTRA.norm>
-0.140151

>  <SCORE.RESTR>
7.85853

>  <SCORE.RESTR.CAVITY>
7.85853

>  <SCORE.RESTR.norm>
0.253501

>  <SCORE.SYSTEM>
0

>  <SCORE.SYSTEM.CONST>
0

>  <SCORE.SYSTEM.DIHEDRAL>
0

>  <SCORE.SYSTEM.SOLV>
0

>  <SCORE.SYSTEM.norm>
0

>  <SCORE.heavy>
31

>  <SCORE.norm>
-0.0440889

>  <RMSD>
12.609

$$$$
ligand
 OpenBabel11021811493D
libRbt.so/2013.1/901 2013/11/27
 31 33  0  0  0  0  0  0  0  0999 V2000
    4.1120   10.0033   -0.1396 C   0  0  2  0  0  0  0  0  0  0  0  0
    3.5344    9.5240    1.0711 O   0  0  0  0  0  0  0  0  0  0  0  0
    4.9997    5.5515    1.4657 C   0  0  2  0  0  0  0  0  0  0  0  0
    5.4127    4.3244    2.0745 N   0  0  0  0  0  0  0  0  0  0  0  0
    2.4085    4.6563   -0.1371 C   0  0  2  0  0  0  0  0  0  0  0  0
    3.2687   11.2720   -0.5698 C   0  0  2  0  0  0  0  0  0  0  0  0
    3.3374   12.2648    0.4974 N   0  0  0  0  0  0  0  0  0  0  0  0
    5.8896    6.7238    2.0518 C   0  0  0  0  0  0  0  0  0  0  0  0
    1.0857    3.8291   -0.2053 C   0  0  2  0  0  0  0  0  0  0  0  0
    0.0914    4.5195    0.5207 O   0  0  0  0  0  0  0  0  0  0  0  0
    1.7686   10.8643   -0.8569 C   0  0  0  0  0  0  0  0  0  0  0  0
    5.4359    8.0766    1.3857 C   0  0  2  0  0  0  0  0  0  0  0  0
    6.2564    9.1716    1.9311 N   0  0  0  0  0  0  0  0  0  0  0  0
    1.3811    2.4219    0.4397 C   0  0  1  0  0  0  0  0  0  0  0  0
    0.1361    1.5848    0.4209 N   0  0  0  0  0  0  0  0  0  0  0  0
    1.6535    9.4483   -1.5650 C   0  0  0  0  0  0  0  0  0  0  0  0
    3.8951    8.3379    1.6912 C   0  0  2  0  0  0  0  0  0  0  0  0
    2.5362    1.6931   -0.4508 C   0  0  1  0  0  0  0  0  0  0  0  0
    2.1526    1.5380   -1.8066 O   0  0  0  0  0  0  0  0  0  0  0  0
    2.7361    8.6354   -1.6870 C   0  0  2  0  0  0  0  0  0  0  0  0
    4.0303    8.9990   -1.1925 O   0  0  0  0  0  0  0  0  0  0  0  0
    3.0364    7.1554    1.1077 C   0  0  2  0  0  0  0  0  0  0  0  0
    1.6425    7.3953    1.3978 O   0  0  0  0  0  0  0  0  0  0  0  0
    3.8392    2.5567   -0.4406 C   0  0  0  0  0  0  0  0  0  0  0  0
    3.5135    3.9526   -0.9024 O   0  0  0  0  0  0  0  0  0  0  0  0
    2.6758    7.2644   -2.3630 C   0  0  0  0  0  0  0  0  0  0  0  0
    3.8918    7.0860   -3.1272 O   0  0  0  0  0  0  0  0  0  0  0  0
    3.4881    5.8170    1.8007 C   0  0  1  0  0  0  0  0  0  0  0  0
    2.7063    4.7826    1.2914 O   0  0  0  0  0  0  0  0  0  0  0  0
    2.9523    0.2870    0.0447 C   0  0  0  0  0  0  0  0  0  0  0  0
    0.0016    0.5738    1.4896 C   0  0  0  0  0  0  0  0  0  0  0  0
  1  2  1  1  0  0  0
  1  6  1  0  0  0  0
  1 21  1  0  0  0  0
  3  4  1  1  0  0  0
  3  8  1  0  0  0  0
  3 28  1  0  0  0  0
  5  9  1  0  0  0  0
  5 25  1  0  0  0  0
  5 29  1  1  0  0  0
  6  7  1  1  0  0  0
  6 11  1  0  0  0  0
  8 12  1  0  0  0  0
  9 10  1  1  0  0  0
  9 14  1  0  0  0  0
 11 16  1  0  0  0  0
 12 13  1  1  0  0  0
 12 17  1  0  0  0  0
 14 15  1  6  0  0  0
 14 18  1  0  0  0  0
 15 31  1  0  0  0  0
 16 20  1  0  0  0  0
 17  2  1  6  0  0  0
 17 22  1  0  0  0  0
 18 19  1  6  0  0  0
 18 24  1  0  0  0  0
 18 30  1  0  0  0  0
 20 21  1  0  0  0  0
 20 26  1  6  0  0  0
 22 23  1  1  0  0  0
 22 28  1  0  0  0  0
 24 25  1  0  0  0  0
 26 27  1  0  0  0  0
 28 29  1  6  0  0  0
M  END
>  <CHROM.1>
172.55436465,-156.01198047,-151.41235453,31.28110971,141.16687594,-74.92772879
3.00528284,6.10836282,0.14841287,-1.28102364,0.68316504,2.94095873

>  <Name>
ligand

>  <RI>
0

>  <Rbt.Current_Directory>
/home/itssahil/PROJECTS/Mol_Feturizer/New_Systems/rnas/4GPX

>  <Rbt.Executable>
rbdock ($Id: //depot/dev/client3/rdock/2013.1/src/exe/rbdock.cxx#4 $)

>  <Rbt.Library>
libRbt.so (2013.1, Build901 2013/11/27)

>  <Rbt.Parameter_File>
/export/apps/rDock/src/rDock_2013.1_src/data/scripts/dock_solv.prm

>  <Rbt.Receptor>
prm/blind_docking_40.prm

>  <SCORE>
-2.80821

>  <SCORE.INTER>
-3.94346

>  <SCORE.INTER.CONST>
1

>  <SCORE.INTER.POLAR>
0

>  <SCORE.INTER.ROT>
6

>  <SCORE.INTER.SOLV>
21.5941

>  <SCORE.INTER.VDW>
-17.427

>  <SCORE.INTER.norm>
-0.127208

>  <SCORE.INTRA>
-4.41694

>  <SCORE.INTRA.DIHEDRAL>
-10.7484

>  <SCORE.INTRA.DIHEDRAL.0>
20.6841

>  <SCORE.INTRA.POLAR>
0

>  <SCORE.INTRA.POLAR.0>
0

>  <SCORE.INTRA.REPUL>
0

>  <SCORE.INTRA.REPUL.0>
0

>  <SCORE.INTRA.SOLV>
-0.141043

>  <SCORE.INTRA.SOLV.lig_0>
-64.6797

>  <SCORE.INTRA.VDW>
1.0278

>  <SCORE.INTRA.VDW.0>
-4.11825

>  <SCORE.INTRA.norm>
-0.142482

>  <SCORE.RESTR>
5.5522

>  <SCORE.RESTR.CAVITY>
5.5522

>  <SCORE.RESTR.norm>
0.179103

>  <SCORE.SYSTEM>
0

>  <SCORE.SYSTEM.CONST>
0

>  <SCORE.SYSTEM.DIHEDRAL>
0

>  <SCORE.SYSTEM.SOLV>
0

>  <SCORE.SYSTEM.norm>
0

>  <SCORE.heavy>
31

>  <SCORE.norm>
-0.0905873

>  <RMSD>
12.622

$$$$
ligand
 OpenBabel11021811493D
libRbt.so/2013.1/901 2013/11/27
 31 33  0  0  0  0  0  0  0  0999 V2000
    2.7728    8.2256    3.5443 C   0  0  2  0  0  0  0  0  0  0  0  0
    3.3942    7.1177    4.1890 O   0  0  0  0  0  0  0  0  0  0  0  0
    5.5464    5.1396    1.1004 C   0  0  2  0  0  0  0  0  0  0  0  0
    6.2457    4.1097    0.3953 N   0  0  0  0  0  0  0  0  0  0  0  0
    3.7396    3.2695   -0.6526 C   0  0  2  0  0  0  0  0  0  0  0  0
    2.5632    9.3337    4.6552 C   0  0  2  0  0  0  0  0  0  0  0  0
    3.8631    9.6880    5.2154 N   0  0  0  0  0  0  0  0  0  0  0  0
    6.3052    5.4150    2.4635 C   0  0  0  0  0  0  0  0  0  0  0  0
    2.4912    3.0786   -1.5712 C   0  0  2  0  0  0  0  0  0  0  0  0
    2.2796    4.2759   -2.2885 O   0  0  0  0  0  0  0  0  0  0  0  0
    1.5940    8.8032    5.7858 C   0  0  0  0  0  0  0  0  0  0  0  0
    5.5367    6.5466    3.2436 C   0  0  2  0  0  0  0  0  0  0  0  0
    6.2347    6.8033    4.5150 N   0  0  0  0  0  0  0  0  0  0  0  0
    1.2659    2.7583   -0.6333 C   0  0  1  0  0  0  0  0  0  0  0  0
    0.0268    2.5832   -1.4610 N   0  0  0  0  0  0  0  0  0  0  0  0
    0.4207    7.9071    5.2027 C   0  0  0  0  0  0  0  0  0  0  0  0
    4.0374    6.0872    3.5211 C   0  0  2  0  0  0  0  0  0  0  0  0
    1.5882    1.3697    0.1581 C   0  0  1  0  0  0  0  0  0  0  0  0
    1.8216    0.2874   -0.7272 O   0  0  0  0  0  0  0  0  0  0  0  0
    0.4267    7.5016    3.9053 C   0  0  2  0  0  0  0  0  0  0  0  0
    1.4756    7.8520    2.9951 O   0  0  0  0  0  0  0  0  0  0  0  0
    3.3111    5.8112    2.1528 C   0  0  2  0  0  0  0  0  0  0  0  0
    1.9563    5.3859    2.4140 O   0  0  0  0  0  0  0  0  0  0  0  0
    2.8789    1.5385    1.0237 C   0  0  0  0  0  0  0  0  0  0  0  0
    4.0085    2.0071    0.1449 O   0  0  0  0  0  0  0  0  0  0  0  0
   -0.6817    6.6402    3.2972 C   0  0  0  0  0  0  0  0  0  0  0  0
   -1.5248    7.4962    2.4905 O   0  0  0  0  0  0  0  0  0  0  0  0
    4.0794    4.6637    1.3988 C   0  0  1  0  0  0  0  0  0  0  0  0
    3.4143    4.4148    0.2003 O   0  0  0  0  0  0  0  0  0  0  0  0
    0.4799    0.9010    1.1316 C   0  0  0  0  0  0  0  0  0  0  0  0
   -0.9892    3.6514   -1.3662 C   0  0  0  0  0  0  0  0  0  0  0  0
  1  2  1  1  0  0  0
  1  6  1  0  0  0  0
  1 21  1  0  0  0  0
  3  4  1  1  0  0  0
  3  8  1  0  0  0  0
  3 28  1  0  0  0  0
  5  9  1  0  0  0  0
  5 25  1  0  0  0  0
  5 29  1  1  0  0  0
  6  7  1  1  0  0  0
  6 11  1  0  0  0  0
  8 12  1  0  0  0  0
  9 10  1  1  0  0  0
  9 14  1  0  0  0  0
 11 16  1  0  0  0  0
 12 13  1  1  0  0  0
 12 17  1  0  0  0  0
 14 15  1  6  0  0  0
 14 18  1  0  0  0  0
 15 31  1  0  0  0  0
 16 20  1  0  0  0  0
 17  2  1  6  0  0  0
 17 22  1  0  0  0  0
 18 19  1  6  0  0  0
 18 24  1  0  0  0  0
 18 30  1  0  0  0  0
 20 21  1  0  0  0  0
 20 26  1  6  0  0  0
 22 23  1  1  0  0  0
 22 28  1  0  0  0  0
 24 25  1  0  0  0  0
 26 27  1  0  0  0  0
 28 29  1  6  0  0  0
M  END
>  <CHROM.1>
-163.46271587,160.74757942,-109.05020086,85.27194153,103.33741198,70.84273315
2.55577349,5.16253202,1.79486754,1.49480938,-0.07346494,0.70360488

>  <Name>
ligand

>  <RI>
0

>  <Rbt.Current_Directory>
/home/itssahil/PROJECTS/Mol_Feturizer/New_Systems/rnas/4GPX

>  <Rbt.Executable>
rbdock ($Id: //depot/dev/client3/rdock/2013.1/src/exe/rbdock.cxx#4 $)

>  <Rbt.Library>
libRbt.so (2013.1, Build901 2013/11/27)

>  <Rbt.Parameter_File>
/export/apps/rDock/src/rDock_2013.1_src/data/scripts/dock_solv.prm

>  <Rbt.Receptor>
prm/blind_docking_80.prm

>  <SCORE>
4.37879

>  <SCORE.INTER>
-0.922191

>  <SCORE.INTER.CONST>
1

>  <SCORE.INTER.POLAR>
0

>  <SCORE.INTER.ROT>
6

>  <SCORE.INTER.SOLV>
16.8289

>  <SCORE.INTER.VDW>
-13.8244

>  <SCORE.INTER.norm>
-0.0297481

>  <SCORE.INTRA>
-4.18019

>  <SCORE.INTRA.DIHEDRAL>
-11.3193

>  <SCORE.INTRA.DIHEDRAL.0>
20.6841

>  <SCORE.INTRA.POLAR>
0

>  <SCORE.INTRA.POLAR.0>
0

>  <SCORE.INTRA.REPUL>
0

>  <SCORE.INTRA.REPUL.0>
0

>  <SCORE.INTRA.SOLV>
0.0822439

>  <SCORE.INTRA.SOLV.lig_0>
-64.6797

>  <SCORE.INTRA.VDW>
1.43833

>  <SCORE.INTRA.VDW.0>
-4.11825

>  <SCORE.INTRA.norm>
-0.134845

>  <SCORE.RESTR>
9.48117

>  <SCORE.RESTR.CAVITY>
9.48117

>  <SCORE.RESTR.norm>
0.305844

>  <SCORE.SYSTEM>
0

>  <SCORE.SYSTEM.CONST>
0

>  <SCORE.SYSTEM.DIHEDRAL>
0

>  <SCORE.SYSTEM.SOLV>
0

>  <SCORE.SYSTEM.norm>
0

>  <SCORE.heavy>
31

>  <SCORE.norm>
0.141251

>  <RMSD>
12.627

$$$$
ligand
 OpenBabel11021811493D
libRbt.so/2013.1/901 2013/11/27
 31 33  0  0  0  0  0  0  0  0999 V2000
    1.5592    3.5634   -0.0766 C   0  0  2  0  0  0  0  0  0  0  0  0
    1.2215    3.6280    1.3058 O   0  0  0  0  0  0  0  0  0  0  0  0
    1.3634    7.6575    2.6574 C   0  0  2  0  0  0  0  0  0  0  0  0
    1.6214    8.7859    3.4984 N   0  0  0  0  0  0  0  0  0  0  0  0
    3.8884    7.6546    0.2040 C   0  0  2  0  0  0  0  0  0  0  0  0
    0.8074    2.3008   -0.6654 C   0  0  2  0  0  0  0  0  0  0  0  0
   -0.6273    2.4723   -0.4622 N   0  0  0  0  0  0  0  0  0  0  0  0
    0.4272    6.6514    3.4456 C   0  0  0  0  0  0  0  0  0  0  0  0
    4.4331    9.0410   -0.2649 C   0  0  2  0  0  0  0  0  0  0  0  0
    5.5378    9.3819    0.5450 O   0  0  0  0  0  0  0  0  0  0  0  0
    1.3167    0.9797    0.0375 C   0  0  0  0  0  0  0  0  0  0  0  0
    0.1432    5.4067    2.5238 C   0  0  2  0  0  0  0  0  0  0  0  0
   -0.7226    4.4647    3.2536 N   0  0  0  0  0  0  0  0  0  0  0  0
    3.2643   10.0842   -0.0938 C   0  0  1  0  0  0  0  0  0  0  0  0
    3.7356   11.4459   -0.5117 N   0  0  0  0  0  0  0  0  0  0  0  0
    2.8754    1.0174    0.3353 C   0  0  0  0  0  0  0  0  0  0  0  0
    1.5162    4.7021    2.1311 C   0  0  2  0  0  0  0  0  0  0  0  0
    2.0316    9.6201   -1.0547 C   0  0  1  0  0  0  0  0  0  0  0  0
    2.4140    9.5344   -2.4170 O   0  0  0  0  0  0  0  0  0  0  0  0
    3.5914    2.1623    0.1793 C   0  0  2  0  0  0  0  0  0  0  0  0
    2.9947    3.3889   -0.2576 O   0  0  0  0  0  0  0  0  0  0  0  0
    2.4293    5.7253    1.3594 C   0  0  2  0  0  0  0  0  0  0  0  0
    3.6753    5.0815    1.0163 O   0  0  0  0  0  0  0  0  0  0  0  0
    1.5319    8.2009   -0.6303 C   0  0  0  0  0  0  0  0  0  0  0  0
    2.6939    7.2430   -0.6361 O   0  0  0  0  0  0  0  0  0  0  0  0
    5.0945    2.2477    0.4510 C   0  0  0  0  0  0  0  0  0  0  0  0
    5.5648    3.5317   -0.0229 O   0  0  0  0  0  0  0  0  0  0  0  0
    2.7203    6.9499    2.3033 C   0  0  1  0  0  0  0  0  0  0  0  0
    3.5463    7.8369    1.6164 O   0  0  0  0  0  0  0  0  0  0  0  0
    0.7881   10.5408   -1.0116 C   0  0  0  0  0  0  0  0  0  0  0  0
    3.2487   12.5892    0.2870 C   0  0  0  0  0  0  0  0  0  0  0  0
  1  2  1  1  0  0  0
  1  6  1  0  0  0  0
  1 21  1  0  0  0  0
  3  4  1  1  0  0  0
  3  8  1  0  0  0  0
  3 28  1  0  0  0  0
  5  9  1  0  0  0  0
  5 25  1  0  0  0  0
  5 29  1  1  0  0  0
  6  7  1  1  0  0  0
  6 11  1  0  0  0  0
  8 12  1  0  0  0  0
  9 10  1  1  0  0  0
  9 14  1  0  0  0  0
 11 16  1  0  0  0  0
 12 13  1  1  0  0  0
 12 17  1  0  0  0  0
 14 15  1  6  0  0  0
 14 18  1  0  0  0  0
 15 31  1  0  0  0  0
 16 20  1  0  0  0  0
 17  2  1  6  0  0  0
 17 22  1  0  0  0  0
 18 19  1  6  0  0  0
 18 24  1  0  0  0  0
 18 30  1  0  0  0  0
 20 21  1  0  0  0  0
 20 26  1  6  0  0  0
 22 23  1  1  0  0  0
 22 28  1  0  0  0  0
 24 25  1  0  0  0  0
 26 27  1  0  0  0  0
 28 29  1  6  0  0  0
M  END
>  <CHROM.1>
-169.89493493,163.14225354,-142.12414042,111.73352591,170.69029460,-111.78209676
2.44879927,6.26965514,0.59245926,-1.71850020,0.56833074,0.00686251

>  <Name>
ligand

>  <RI>
0

>  <Rbt.Current_Directory>
/home/itssahil/PROJECTS/Mol_Feturizer/New_Systems/rnas/4GPX

>  <Rbt.Executable>
rbdock ($Id: //depot/dev/client3/rdock/2013.1/src/exe/rbdock.cxx#4 $)

>  <Rbt.Library>
libRbt.so (2013.1, Build901 2013/11/27)

>  <Rbt.Parameter_File>
/export/apps/rDock/src/rDock_2013.1_src/data/scripts/dock_solv.prm

>  <Rbt.Receptor>
prm/blind_docking_40.prm

>  <SCORE>
23.1554

>  <SCORE.INTER>
7.97442

>  <SCORE.INTER.CONST>
1

>  <SCORE.INTER.POLAR>
0

>  <SCORE.INTER.ROT>
6

>  <SCORE.INTER.SOLV>
25.6913

>  <SCORE.INTER.VDW>
-10.8475

>  <SCORE.INTER.norm>
0.25724

>  <SCORE.INTRA>
10.153

>  <SCORE.INTRA.DIHEDRAL>
-0.812478

>  <SCORE.INTRA.DIHEDRAL.0>
20.6841

>  <SCORE.INTRA.POLAR>
0

>  <SCORE.INTRA.POLAR.0>
0

>  <SCORE.INTRA.REPUL>
0.219102

>  <SCORE.INTRA.REPUL.0>
0

>  <SCORE.INTRA.SOLV>
-1.02229

>  <SCORE.INTRA.SOLV.lig_0>
-64.6797

>  <SCORE.INTRA.VDW>
9.97492

>  <SCORE.INTRA.VDW.0>
-4.11825

>  <SCORE.INTRA.norm>
0.327518

>  <SCORE.RESTR>
5.02789

>  <SCORE.RESTR.CAVITY>
5.02789

>  <SCORE.RESTR.norm>
0.16219

>  <SCORE.SYSTEM>
0

>  <SCORE.SYSTEM.CONST>
0

>  <SCORE.SYSTEM.DIHEDRAL>
0

>  <SCORE.SYSTEM.SOLV>
0

>  <SCORE.SYSTEM.norm>
0

>  <SCORE.heavy>
31

>  <SCORE.norm>
0.746947

>  <RMSD>
12.630

$$$$
ligand
 OpenBabel11021811493D
libRbt.so/2013.1/901 2013/11/27
 31 33  0  0  0  0  0  0  0  0999 V2000
    3.7666    9.8322    3.2783 C   0  0  2  0  0  0  0  0  0  0  0  0
    4.1819    8.9070    2.2780 O   0  0  0  0  0  0  0  0  0  0  0  0
    5.4579    4.9280    1.4885 C   0  0  2  0  0  0  0  0  0  0  0  0
    5.8997    3.5866    1.7177 N   0  0  0  0  0  0  0  0  0  0  0  0
    2.7305    4.3519    0.1704 C   0  0  2  0  0  0  0  0  0  0  0  0
    4.8878    9.8210    4.3958 C   0  0  2  0  0  0  0  0  0  0  0  0
    6.1578   10.2071    3.7897 N   0  0  0  0  0  0  0  0  0  0  0  0
    6.5052    5.9178    2.1467 C   0  0  0  0  0  0  0  0  0  0  0  0
    1.3693    3.5918    0.0814 C   0  0  2  0  0  0  0  0  0  0  0  0
    0.4588    4.2045    0.9693 O   0  0  0  0  0  0  0  0  0  0  0  0
    4.9959    8.3872    5.0527 C   0  0  0  0  0  0  0  0  0  0  0  0
    6.0207    7.3954    1.8986 C   0  0  2  0  0  0  0  0  0  0  0  0
    6.9880    8.3205    2.5134 N   0  0  0  0  0  0  0  0  0  0  0  0
    1.6417    2.0958    0.4956 C   0  0  1  0  0  0  0  0  0  0  0  0
    0.3608    1.3160    0.4484 N   0  0  0  0  0  0  0  0  0  0  0  0
    3.5787    7.6919    5.2195 C   0  0  0  0  0  0  0  0  0  0  0  0
    4.5768    7.6036    2.5369 C   0  0  2  0  0  0  0  0  0  0  0  0
    2.6995    1.4634   -0.5719 C   0  0  1  0  0  0  0  0  0  0  0  0
    2.2192    1.5215   -1.9043 O   0  0  0  0  0  0  0  0  0  0  0  0
    2.4655    8.2236    4.6487 C   0  0  2  0  0  0  0  0  0  0  0  0
    2.4991    9.4270    3.8727 O   0  0  0  0  0  0  0  0  0  0  0  0
    3.5600    6.6028    1.8731 C   0  0  2  0  0  0  0  0  0  0  0  0
    2.2565    6.7915    2.4645 O   0  0  0  0  0  0  0  0  0  0  0  0
    4.0389    2.2687   -0.5335 C   0  0  0  0  0  0  0  0  0  0  0  0
    3.7480    3.7278   -0.7662 O   0  0  0  0  0  0  0  0  0  0  0  0
    1.0784    7.5922    4.7832 C   0  0  0  0  0  0  0  0  0  0  0  0
    0.2668    8.0501    3.6759 O   0  0  0  0  0  0  0  0  0  0  0  0
    4.0483    5.1331    2.1506 C   0  0  1  0  0  0  0  0  0  0  0  0
    3.1289    4.2578    1.5767 O   0  0  0  0  0  0  0  0  0  0  0  0
    3.0824   -0.0140   -0.3140 C   0  0  0  0  0  0  0  0  0  0  0  0
    0.0783    0.4363    1.6009 C   0  0  0  0  0  0  0  0  0  0  0  0
  1  2  1  6  0  0  0
  1  6  1  0  0  0  0
  1 21  1  0  0  0  0
  3  4  1  1  0  0  0
  3  8  1  0  0  0  0
  3 28  1  0  0  0  0
  5  9  1  0  0  0  0
  5 25  1  0  0  0  0
  5 29  1  1  0  0  0
  6  7  1  6  0  0  0
  6 11  1  0  0  0  0
  8 12  1  0  0  0  0
  9 10  1  1  0  0  0
  9 14  1  0  0  0  0
 11 16  1  0  0  0  0
 12 13  1  1  0  0  0
 12 17  1  0  0  0  0
 14 15  1  6  0  0  0
 14 18  1  0  0  0  0
 15 31  1  0  0  0  0
 16 20  1  0  0  0  0
 17  2  1  6  0  0  0
 17 22  1  0  0  0  0
 18 19  1  6  0  0  0
 18 24  1  0  0  0  0
 18 30  1  0  0  0  0
 20 21  1  0  0  0  0
 20 26  1  1  0  0  0
 22 23  1  1  0  0  0
 22 28  1  0  0  0  0
 24 25  1  0  0  0  0
 26 27  1  0  0  0  0
 28 29  1  6  0  0  0
M  END
>  <CHROM.1>
50.85325946,-159.71133202,-134.13591529,-125.63202717,-157.21626401,-65.32647160
3.32873041,5.58655849,1.95528216,1.30394266,0.22848783,0.56128046

>  <Name>
ligand

>  <RI>
0

>  <Rbt.Current_Directory>
/home/itssahil/PROJECTS/Mol_Feturizer/New_Systems/rnas/4GPX

>  <Rbt.Executable>
rbdock ($Id: //depot/dev/client3/rdock/2013.1/src/exe/rbdock.cxx#4 $)

>  <Rbt.Library>
libRbt.so (2013.1, Build901 2013/11/27)

>  <Rbt.Parameter_File>
/export/apps/rDock/src/rDock_2013.1_src/data/scripts/dock_solv.prm

>  <Rbt.Receptor>
prm/blind_docking_80.prm

>  <SCORE>
16.3646

>  <SCORE.INTER>
-0.515479

>  <SCORE.INTER.CONST>
1

>  <SCORE.INTER.POLAR>
0

>  <SCORE.INTER.ROT>
6

>  <SCORE.INTER.SOLV>
15.0648

>  <SCORE.INTER.VDW>
-12.9653

>  <SCORE.INTER.norm>
-0.0166283

>  <SCORE.INTRA>
7.41375

>  <SCORE.INTRA.DIHEDRAL>
-7.2029

>  <SCORE.INTRA.DIHEDRAL.0>
20.6841

>  <SCORE.INTRA.POLAR>
0

>  <SCORE.INTRA.POLAR.0>
0

>  <SCORE.INTRA.REPUL>
0

>  <SCORE.INTRA.REPUL.0>
0

>  <SCORE.INTRA.SOLV>
5.49931

>  <SCORE.INTRA.SOLV.lig_0>
-64.6797

>  <SCORE.INTRA.VDW>
8.26554

>  <SCORE.INTRA.VDW.0>
-4.11825

>  <SCORE.INTRA.norm>
0.239153

>  <SCORE.RESTR>
9.46634

>  <SCORE.RESTR.CAVITY>
9.46634

>  <SCORE.RESTR.norm>
0.305366

>  <SCORE.SYSTEM>
0

>  <SCORE.SYSTEM.CONST>
0

>  <SCORE.SYSTEM.DIHEDRAL>
0

>  <SCORE.SYSTEM.SOLV>
0

>  <SCORE.SYSTEM.norm>
0

>  <SCORE.heavy>
31

>  <SCORE.norm>
0.527891

>  <RMSD>
12.630

$$$$
ligand
 OpenBabel11021811493D
libRbt.so/2013.1/901 2013/11/27
 31 33  0  0  0  0  0  0  0  0999 V2000
    4.5598    9.0641    1.7340 C   0  0  2  0  0  0  0  0  0  0  0  0
    4.0525    8.0954    0.8210 O   0  0  0  0  0  0  0  0  0  0  0  0
    0.4316    6.1563    1.9225 C   0  0  2  0  0  0  0  0  0  0  0  0
   -0.9439    5.7634    1.9021 N   0  0  0  0  0  0  0  0  0  0  0  0
    1.3972    3.6712   -0.8211 C   0  0  2  0  0  0  0  0  0  0  0  0
    6.1380    9.0012    1.6265 C   0  0  2  0  0  0  0  0  0  0  0  0
    6.5263    9.2929    0.2506 N   0  0  0  0  0  0  0  0  0  0  0  0
    0.4985    7.7313    2.0807 C   0  0  0  0  0  0  0  0  0  0  0  0
    0.6486    2.3019   -0.7654 C   0  0  2  0  0  0  0  0  0  0  0  0
   -0.7327    2.5555   -0.6232 O   0  0  0  0  0  0  0  0  0  0  0  0
    6.6631    7.5759    2.0644 C   0  0  0  0  0  0  0  0  0  0  0  0
    2.0113    8.1677    2.1011 C   0  0  2  0  0  0  0  0  0  0  0  0
    2.0799    9.6322    2.2425 N   0  0  0  0  0  0  0  0  0  0  0  0
    1.2089    1.5135    0.4789 C   0  0  1  0  0  0  0  0  0  0  0  0
    0.5103    0.1910    0.5970 N   0  0  0  0  0  0  0  0  0  0  0  0
    5.8383    6.9770    3.2812 C   0  0  0  0  0  0  0  0  0  0  0  0
    2.7225    7.7106    0.7516 C   0  0  2  0  0  0  0  0  0  0  0  0
    2.8023    1.2639    0.2399 C   0  0  1  0  0  0  0  0  0  0  0  0
    3.0611    0.5421   -0.9523 O   0  0  0  0  0  0  0  0  0  0  0  0
    4.6922    7.5688    3.7101 C   0  0  2  0  0  0  0  0  0  0  0  0
    4.1638    8.7528    3.1015 O   0  0  0  0  0  0  0  0  0  0  0  0
    2.6329    6.1455    0.6151 C   0  0  2  0  0  0  0  0  0  0  0  0
    3.2709    5.7409   -0.6153 O   0  0  0  0  0  0  0  0  0  0  0  0
    3.5421    2.6352    0.1136 C   0  0  0  0  0  0  0  0  0  0  0  0
    2.8911    3.4526   -0.9708 O   0  0  0  0  0  0  0  0  0  0  0  0
    3.8646    7.0311    4.8791 C   0  0  0  0  0  0  0  0  0  0  0  0
    2.4677    7.0903    4.5057 O   0  0  0  0  0  0  0  0  0  0  0  0
    1.1156    5.7310    0.5739 C   0  0  1  0  0  0  0  0  0  0  0  0
    1.0506    4.3467    0.4314 O   0  0  0  0  0  0  0  0  0  0  0  0
    3.5199    0.4949    1.3755 C   0  0  0  0  0  0  0  0  0  0  0  0
   -0.3268   -0.0110    1.7973 C   0  0  0  0  0  0  0  0  0  0  0  0
  1  2  1  6  0  0  0
  1  6  1  0  0  0  0
  1 21  1  0  0  0  0
  3  4  1  6  0  0  0
  3  8  1  0  0  0  0
  3 28  1  0  0  0  0
  5  9  1  0  0  0  0
  5 25  1  0  0  0  0
  5 29  1  1  0  0  0
  6  7  1  6  0  0  0
  6 11  1  0  0  0  0
  8 12  1  0  0  0  0
  9 10  1  1  0  0  0
  9 14  1  0  0  0  0
 11 16  1  0  0  0  0
 12 13  1  6  0  0  0
 12 17  1  0  0  0  0
 14 15  1  6  0  0  0
 14 18  1  0  0  0  0
 15 31  1  0  0  0  0
 16 20  1  0  0  0  0
 17  2  1  1  0  0  0
 17 22  1  0  0  0  0
 18 19  1  6  0  0  0
 18 24  1  0  0  0  0
 18 30  1  0  0  0  0
 20 21  1  0  0  0  0
 20 26  1  1  0  0  0
 22 23  1  6  0  0  0
 22 28  1  0  0  0  0
 24 25  1  0  0  0  0
 26 27  1  0  0  0  0
 28 29  1  1  0  0  0
M  END
>  <CHROM.1>
170.58687691,-156.95659615,-115.11753503,-17.24887361,-136.78530077,169.39509597
2.65050524,5.32712668,1.23143475,-1.15757635,-0.12328324,-2.78527722

>  <Name>
ligand

>  <RI>
0

>  <Rbt.Current_Directory>
/home/itssahil/PROJECTS/Mol_Feturizer/New_Systems/rnas/4GPX

>  <Rbt.Executable>
rbdock ($Id: //depot/dev/client3/rdock/2013.1/src/exe/rbdock.cxx#4 $)

>  <Rbt.Library>
libRbt.so (2013.1, Build901 2013/11/27)

>  <Rbt.Parameter_File>
/export/apps/rDock/src/rDock_2013.1_src/data/scripts/dock_solv.prm

>  <Rbt.Receptor>
prm/blind_docking_40.prm

>  <SCORE>
18.3379

>  <SCORE.INTER>
6.61255

>  <SCORE.INTER.CONST>
1

>  <SCORE.INTER.POLAR>
0

>  <SCORE.INTER.ROT>
6

>  <SCORE.INTER.SOLV>
20.528

>  <SCORE.INTER.VDW>
-10.0343

>  <SCORE.INTER.norm>
0.213308

>  <SCORE.INTRA>
5.27661

>  <SCORE.INTRA.DIHEDRAL>
-8.35263

>  <SCORE.INTRA.DIHEDRAL.0>
20.6841

>  <SCORE.INTRA.POLAR>
0

>  <SCORE.INTRA.POLAR.0>
0

>  <SCORE.INTRA.REPUL>
0

>  <SCORE.INTRA.REPUL.0>
0

>  <SCORE.INTRA.SOLV>
1.46994

>  <SCORE.INTRA.SOLV.lig_0>
-64.6797

>  <SCORE.INTRA.VDW>
8.71796

>  <SCORE.INTRA.VDW.0>
-4.11825

>  <SCORE.INTRA.norm>
0.170213

>  <SCORE.RESTR>
6.44872

>  <SCORE.RESTR.CAVITY>
6.44872

>  <SCORE.RESTR.norm>
0.208023

>  <SCORE.SYSTEM>
0

>  <SCORE.SYSTEM.CONST>
0

>  <SCORE.SYSTEM.DIHEDRAL>
0

>  <SCORE.SYSTEM.SOLV>
0

>  <SCORE.SYSTEM.norm>
0

>  <SCORE.heavy>
31

>  <SCORE.norm>
0.591545

>  <RMSD>
12.642

$$$$
ligand
 OpenBabel11021811493D
libRbt.so/2013.1/901 2013/11/27
 31 33  0  0  0  0  0  0  0  0999 V2000
    4.1384    9.3468    2.8746 C   0  0  2  0  0  0  0  0  0  0  0  0
    4.9225    8.7832    1.8273 O   0  0  0  0  0  0  0  0  0  0  0  0
    2.1144    6.8713   -0.7308 C   0  0  2  0  0  0  0  0  0  0  0  0
    1.5262    6.3326   -1.9185 N   0  0  0  0  0  0  0  0  0  0  0  0
    2.8216    4.2330    1.0611 C   0  0  2  0  0  0  0  0  0  0  0  0
    4.8975    9.0287    4.2268 C   0  0  2  0  0  0  0  0  0  0  0  0
    6.2309    9.6185    4.1661 N   0  0  0  0  0  0  0  0  0  0  0  0
    2.3898    8.4137   -0.9654 C   0  0  0  0  0  0  0  0  0  0  0  0
    3.1806    2.7144    0.9999 C   0  0  2  0  0  0  0  0  0  0  0  0
    4.5637    2.5944    0.7444 O   0  0  0  0  0  0  0  0  0  0  0  0
    4.9879    7.4668    4.4530 C   0  0  0  0  0  0  0  0  0  0  0  0
    3.0398    9.0095    0.3392 C   0  0  2  0  0  0  0  0  0  0  0  0
    3.3033   10.4428    0.1250 N   0  0  0  0  0  0  0  0  0  0  0  0
    2.3336    2.0809   -0.1684 C   0  0  1  0  0  0  0  0  0  0  0  0
    2.6517    0.6197   -0.2898 N   0  0  0  0  0  0  0  0  0  0  0  0
    3.6732    6.7122    3.9821 C   0  0  0  0  0  0  0  0  0  0  0  0
    4.3968    8.2423    0.6642 C   0  0  2  0  0  0  0  0  0  0  0  0
    0.7556    2.2621    0.1994 C   0  0  1  0  0  0  0  0  0  0  0  0
    0.4173    1.6528    1.4338 O   0  0  0  0  0  0  0  0  0  0  0  0
    2.7078    7.3594    3.2771 C   0  0  2  0  0  0  0  0  0  0  0  0
    2.8131    8.7425    2.9201 O   0  0  0  0  0  0  0  0  0  0  0  0
    4.0961    6.7133    0.8826 C   0  0  2  0  0  0  0  0  0  0  0  0
    5.3326    6.0241    1.1666 O   0  0  0  0  0  0  0  0  0  0  0  0
    0.4113    3.7814    0.3303 C   0  0  0  0  0  0  0  0  0  0  0  0
    1.3399    4.4166    1.3314 O   0  0  0  0  0  0  0  0  0  0  0  0
    1.4233    6.6764    2.8039 C   0  0  0  0  0  0  0  0  0  0  0  0
    0.4004    6.9011    3.8027 O   0  0  0  0  0  0  0  0  0  0  0  0
    3.4686    6.1312   -0.4376 C   0  0  1  0  0  0  0  0  0  0  0  0
    3.2273    4.7737   -0.2382 O   0  0  0  0  0  0  0  0  0  0  0  0
   -0.2288    1.6904   -0.8494 C   0  0  0  0  0  0  0  0  0  0  0  0
    2.4530    0.0070   -1.6192 C   0  0  0  0  0  0  0  0  0  0  0  0
  1  2  1  6  0  0  0
  1  6  1  0  0  0  0
  1 21  1  0  0  0  0
  3  4  1  6  0  0  0
  3  8  1  0  0  0  0
  3 28  1  0  0  0  0
  5  9  1  0  0  0  0
  5 25  1  0  0  0  0
  5 29  1  6  0  0  0
  6  7  1  6  0  0  0
  6 11  1  0  0  0  0
  8 12  1  0  0  0  0
  9 10  1  6  0  0  0
  9 14  1  0  0  0  0
 11 16  1  0  0  0  0
 12 13  1  6  0  0  0
 12 17  1  0  0  0  0
 14 15  1  1  0  0  0
 14 18  1  0  0  0  0
 15 31  1  0  0  0  0
 16 20  1  0  0  0  0
 17  2  1  1  0  0  0
 17 22  1  0  0  0  0
 18 19  1  1  0  0  0
 18 24  1  0  0  0  0
 18 30  1  0  0  0  0
 20 21  1  0  0  0  0
 20 26  1  1  0  0  0
 22 23  1  6  0  0  0
 22 28  1  0  0  0  0
 24 25  1  0  0  0  0
 26 27  1  0  0  0  0
 28 29  1  1  0  0  0
M  END
>  <CHROM.1>
146.38548697,-159.22588599,-153.77945165,29.93774690,93.51534712,-84.28315140
2.88504114,5.75885776,1.18353550,-0.65365015,1.16343692,2.64907801

>  <Name>
ligand

>  <RI>
0

>  <Rbt.Current_Directory>
/home/itssahil/PROJECTS/Mol_Feturizer/New_Systems/rnas/4GPX

>  <Rbt.Executable>
rbdock ($Id: //depot/dev/client3/rdock/2013.1/src/exe/rbdock.cxx#4 $)

>  <Rbt.Library>
libRbt.so (2013.1, Build901 2013/11/27)

>  <Rbt.Parameter_File>
/export/apps/rDock/src/rDock_2013.1_src/data/scripts/dock_solv.prm

>  <Rbt.Receptor>
prm/blind_docking_40.prm

>  <SCORE>
15.6934

>  <SCORE.INTER>
6.7651

>  <SCORE.INTER.CONST>
1

>  <SCORE.INTER.POLAR>
0

>  <SCORE.INTER.ROT>
6

>  <SCORE.INTER.SOLV>
12.5081

>  <SCORE.INTER.VDW>
-7.25928

>  <SCORE.INTER.norm>
0.218229

>  <SCORE.INTRA>
1.61663

>  <SCORE.INTRA.DIHEDRAL>
-5.38089

>  <SCORE.INTRA.DIHEDRAL.0>
20.6841

>  <SCORE.INTRA.POLAR>
0

>  <SCORE.INTRA.POLAR.0>
0

>  <SCORE.INTRA.REPUL>
0

>  <SCORE.INTRA.REPUL.0>
0

>  <SCORE.INTRA.SOLV>
0.193531

>  <SCORE.INTRA.SOLV.lig_0>
-64.6797

>  <SCORE.INTRA.VDW>
4.21031

>  <SCORE.INTRA.VDW.0>
-4.11825

>  <SCORE.INTRA.norm>
0.0521495

>  <SCORE.RESTR>
7.31169

>  <SCORE.RESTR.CAVITY>
7.31169

>  <SCORE.RESTR.norm>
0.235861

>  <SCORE.SYSTEM>
0

>  <SCORE.SYSTEM.CONST>
0

>  <SCORE.SYSTEM.DIHEDRAL>
0

>  <SCORE.SYSTEM.SOLV>
0

>  <SCORE.SYSTEM.norm>
0

>  <SCORE.heavy>
31

>  <SCORE.norm>
0.506239

>  <RMSD>
12.642

$$$$
ligand
 OpenBabel11021811493D
libRbt.so/2013.1/901 2013/11/27
 31 33  0  0  0  0  0  0  0  0999 V2000
    0.7015    3.6057    0.5044 C   0  0  2  0  0  0  0  0  0  0  0  0
    1.6735    3.8007    1.5274 O   0  0  0  0  0  0  0  0  0  0  0  0
    4.8396    6.3292    2.8184 C   0  0  2  0  0  0  0  0  0  0  0  0
    5.9579    7.2198    2.7623 N   0  0  0  0  0  0  0  0  0  0  0  0
    3.7140    9.4890    2.2953 C   0  0  2  0  0  0  0  0  0  0  0  0
    0.5828    2.0421    0.2879 C   0  0  2  0  0  0  0  0  0  0  0  0
    0.1808    1.4235    1.5469 N   0  0  0  0  0  0  0  0  0  0  0  0
    5.2294    4.9905    2.0662 C   0  0  0  0  0  0  0  0  0  0  0  0
    2.5320   10.0353    1.4333 C   0  0  2  0  0  0  0  0  0  0  0  0
    1.3772   10.0868    2.2435 O   0  0  0  0  0  0  0  0  0  0  0  0
    1.9609    1.4492   -0.2102 C   0  0  0  0  0  0  0  0  0  0  0  0
    3.9997    4.0086    2.1238 C   0  0  2  0  0  0  0  0  0  0  0  0
    4.3544    2.7637    1.4209 N   0  0  0  0  0  0  0  0  0  0  0  0
    2.3326    9.0386    0.2289 C   0  0  1  0  0  0  0  0  0  0  0  0
    1.1919    9.5020   -0.6285 N   0  0  0  0  0  0  0  0  0  0  0  0
    2.7084    2.4237   -1.2159 C   0  0  0  0  0  0  0  0  0  0  0  0
    2.7344    4.6883    1.4362 C   0  0  2  0  0  0  0  0  0  0  0  0
    3.7044    9.0342   -0.6523 C   0  0  1  0  0  0  0  0  0  0  0  0
    4.0373   10.3243   -1.1362 O   0  0  0  0  0  0  0  0  0  0  0  0
    2.2702    3.6947   -1.4165 C   0  0  2  0  0  0  0  0  0  0  0  0
    1.1232    4.2277   -0.7442 O   0  0  0  0  0  0  0  0  0  0  0  0
    2.3756    6.0188    2.1959 C   0  0  2  0  0  0  0  0  0  0  0  0
    1.2342    6.6332    1.5600 O   0  0  0  0  0  0  0  0  0  0  0  0
    4.9018    8.5543    0.2306 C   0  0  0  0  0  0  0  0  0  0  0  0
    4.9824    9.4112    1.4664 O   0  0  0  0  0  0  0  0  0  0  0  0
    2.9548    4.6696   -2.3764 C   0  0  0  0  0  0  0  0  0  0  0  0
    2.0390    4.9499   -3.4613 O   0  0  0  0  0  0  0  0  0  0  0  0
    3.6066    6.9948    2.1083 C   0  0  1  0  0  0  0  0  0  0  0  0
    3.2682    8.1755    2.7655 O   0  0  0  0  0  0  0  0  0  0  0  0
    3.6839    8.1011   -1.8871 C   0  0  0  0  0  0  0  0  0  0  0  0
    1.3157   10.8479   -1.2247 C   0  0  0  0  0  0  0  0  0  0  0  0
  1  2  1  1  0  0  0
  1  6  1  0  0  0  0
  1 21  1  0  0  0  0
  3  4  1  6  0  0  0
  3  8  1  0  0  0  0
  3 28  1  0  0  0  0
  5  9  1  0  0  0  0
  5 25  1  0  0  0  0
  5 29  1  6  0  0  0
  6  7  1  1  0  0  0
  6 11  1  0  0  0  0
  8 12  1  0  0  0  0
  9 10  1  1  0  0  0
  9 14  1  0  0  0  0
 11 16  1  0  0  0  0
 12 13  1  6  0  0  0
 12 17  1  0  0  0  0
 14 15  1  6  0  0  0
 14 18  1  0  0  0  0
 15 31  1  0  0  0  0
 16 20  1  0  0  0  0
 17  2  1  1  0  0  0
 17 22  1  0  0  0  0
 18 19  1  6  0  0  0
 18 24  1  0  0  0  0
 18 30  1  0  0  0  0
 20 21  1  0  0  0  0
 20 26  1  6  0  0  0
 22 23  1  6  0  0  0
 22 28  1  0  0  0  0
 24 25  1  0  0  0  0
 26 27  1  0  0  0  0
 28 29  1  1  0  0  0
M  END
>  <CHROM.1>
131.07686511,95.67209976,59.28757248,-142.15763378,114.18779160,97.67471130
2.80955696,6.31782074,0.55916690,1.97762973,1.05442616,2.86558486

>  <Name>
ligand

>  <RI>
0

>  <Rbt.Current_Directory>
/home/itssahil/PROJECTS/Mol_Feturizer/New_Systems/rnas/4GPX

>  <Rbt.Executable>
rbdock ($Id: //depot/dev/client3/rdock/2013.1/src/exe/rbdock.cxx#4 $)

>  <Rbt.Library>
libRbt.so (2013.1, Build901 2013/11/27)

>  <Rbt.Parameter_File>
/export/apps/rDock/src/rDock_2013.1_src/data/scripts/dock_solv.prm

>  <Rbt.Receptor>
prm/blind_docking_40.prm

>  <SCORE>
13.2861

>  <SCORE.INTER>
0.538727

>  <SCORE.INTER.CONST>
1

>  <SCORE.INTER.POLAR>
0

>  <SCORE.INTER.ROT>
6

>  <SCORE.INTER.SOLV>
19.3497

>  <SCORE.INTER.VDW>
-13.6908

>  <SCORE.INTER.norm>
0.0173783

>  <SCORE.INTRA>
6.35808

>  <SCORE.INTRA.DIHEDRAL>
2.34374

>  <SCORE.INTRA.DIHEDRAL.0>
20.6841

>  <SCORE.INTRA.POLAR>
0

>  <SCORE.INTRA.POLAR.0>
0

>  <SCORE.INTRA.REPUL>
0

>  <SCORE.INTRA.REPUL.0>
0

>  <SCORE.INTRA.SOLV>
3.33786

>  <SCORE.INTRA.SOLV.lig_0>
-64.6797

>  <SCORE.INTRA.VDW>
3.51728

>  <SCORE.INTRA.VDW.0>
-4.11825

>  <SCORE.INTRA.norm>
0.205099

>  <SCORE.RESTR>
6.38927

>  <SCORE.RESTR.CAVITY>
6.38927

>  <SCORE.RESTR.norm>
0.206106

>  <SCORE.SYSTEM>
0

>  <SCORE.SYSTEM.CONST>
0

>  <SCORE.SYSTEM.DIHEDRAL>
0

>  <SCORE.SYSTEM.SOLV>
0

>  <SCORE.SYSTEM.norm>
0

>  <SCORE.heavy>
31

>  <SCORE.norm>
0.428583

>  <RMSD>
12.658

$$$$
ligand
 OpenBabel11021811493D
libRbt.so/2013.1/901 2013/11/27
 31 33  0  0  0  0  0  0  0  0999 V2000
    3.6167    9.3892    2.4008 C   0  0  2  0  0  0  0  0  0  0  0  0
    4.5013    8.8680    1.4132 O   0  0  0  0  0  0  0  0  0  0  0  0
    1.8702    7.7792   -1.7453 C   0  0  2  0  0  0  0  0  0  0  0  0
    1.4199    7.3719   -3.0407 N   0  0  0  0  0  0  0  0  0  0  0  0
    2.3807    4.2911   -1.8163 C   0  0  2  0  0  0  0  0  0  0  0  0
    4.3803    9.2949    3.7843 C   0  0  2  0  0  0  0  0  0  0  0  0
    5.6133   10.0701    3.6931 N   0  0  0  0  0  0  0  0  0  0  0  0
    2.6867    9.1278   -1.9019 C   0  0  0  0  0  0  0  0  0  0  0  0
    1.5784    3.1320   -1.1443 C   0  0  2  0  0  0  0  0  0  0  0  0
    0.2111    3.4830   -1.1377 O   0  0  0  0  0  0  0  0  0  0  0  0
    4.6942    7.7866    4.1381 C   0  0  0  0  0  0  0  0  0  0  0  0
    3.1862    9.5778   -0.4780 C   0  0  2  0  0  0  0  0  0  0  0  0
    3.9511   10.8288   -0.6180 N   0  0  0  0  0  0  0  0  0  0  0  0
    2.1277    2.9739    0.3243 C   0  0  1  0  0  0  0  0  0  0  0  0
    1.3783    1.8827    1.0306 N   0  0  0  0  0  0  0  0  0  0  0  0
    3.5173    6.8099    3.7130 C   0  0  0  0  0  0  0  0  0  0  0  0
    4.1020    8.4402    0.1565 C   0  0  2  0  0  0  0  0  0  0  0  0
    3.7054    2.5731    0.2304 C   0  0  1  0  0  0  0  0  0  0  0  0
    3.9141    1.3766   -0.5005 O   0  0  0  0  0  0  0  0  0  0  0  0
    2.4851    7.2487    2.9451 C   0  0  2  0  0  0  0  0  0  0  0  0
    2.3942    8.5997    2.4780 O   0  0  0  0  0  0  0  0  0  0  0  0
    3.2703    7.1112    0.2915 C   0  0  2  0  0  0  0  0  0  0  0  0
    4.1108    6.0829    0.8580 O   0  0  0  0  0  0  0  0  0  0  0  0
    4.4978    3.7021   -0.5054 C   0  0  0  0  0  0  0  0  0  0  0  0
    3.8617    3.9629   -1.8453 O   0  0  0  0  0  0  0  0  0  0  0  0
    1.3275    6.3469    2.5123 C   0  0  0  0  0  0  0  0  0  0  0  0
    0.1186    6.8341    3.1413 O   0  0  0  0  0  0  0  0  0  0  0  0
    2.7995    6.6656   -1.1421 C   0  0  1  0  0  0  0  0  0  0  0  0
    2.0835    5.4778   -1.0109 O   0  0  0  0  0  0  0  0  0  0  0  0
    4.4109    2.3757    1.5939 C   0  0  0  0  0  0  0  0  0  0  0  0
    1.3543    0.5614    0.3706 C   0  0  0  0  0  0  0  0  0  0  0  0
  1  2  1  6  0  0  0
  1  6  1  0  0  0  0
  1 21  1  0  0  0  0
  3  4  1  6  0  0  0
  3  8  1  0  0  0  0
  3 28  1  0  0  0  0
  5  9  1  0  0  0  0
  5 25  1  0  0  0  0
  5 29  1  1  0  0  0
  6  7  1  6  0  0  0
  6 11  1  0  0  0  0
  8 12  1  0  0  0  0
  9 10  1  1  0  0  0
  9 14  1  0  0  0  0
 11 16  1  0  0  0  0
 12 13  1  6  0  0  0
 12 17  1  0  0  0  0
 14 15  1  6  0  0  0
 14 18  1  0  0  0  0
 15 31  1  0  0  0  0
 16 20  1  0  0  0  0
 17  2  1  1  0  0  0
 17 22  1  0  0  0  0
 18 19  1  6  0  0  0
 18 24  1  0  0  0  0
 18 30  1  0  0  0  0
 20 21  1  0  0  0  0
 20 26  1  1  0  0  0
 22 23  1  6  0  0  0
 22 28  1  0  0  0  0
 24 25  1  0  0  0  0
 26 27  1  0  0  0  0
 28 29  1  1  0  0  0
M  END
>  <CHROM.1>
161.75359548,168.03354842,54.91868320,49.16622130,114.31588766,112.41430583
2.94006491,6.08555013,0.59099978,-0.72914547,1.30998155,2.64901068

>  <Name>
ligand

>  <RI>
0

>  <Rbt.Current_Directory>
/home/itssahil/PROJECTS/Mol_Feturizer/New_Systems/rnas/4GPX

>  <Rbt.Executable>
rbdock ($Id: //depot/dev/client3/rdock/2013.1/src/exe/rbdock.cxx#4 $)

>  <Rbt.Library>
libRbt.so (2013.1, Build901 2013/11/27)

>  <Rbt.Parameter_File>
/export/apps/rDock/src/rDock_2013.1_src/data/scripts/dock_solv.prm

>  <Rbt.Receptor>
prm/blind_docking_40.prm

>  <SCORE>
8.27676

>  <SCORE.INTER>
-0.447241

>  <SCORE.INTER.CONST>
1

>  <SCORE.INTER.POLAR>
0

>  <SCORE.INTER.ROT>
6

>  <SCORE.INTER.SOLV>
16.2111

>  <SCORE.INTER.VDW>
-13.3019

>  <SCORE.INTER.norm>
-0.0144271

>  <SCORE.INTRA>
-1.08763

>  <SCORE.INTRA.DIHEDRAL>
-9.24869

>  <SCORE.INTRA.DIHEDRAL.0>
20.6841

>  <SCORE.INTRA.POLAR>
0

>  <SCORE.INTRA.POLAR.0>
0

>  <SCORE.INTRA.REPUL>
0

>  <SCORE.INTRA.REPUL.0>
0

>  <SCORE.INTRA.SOLV>
-1.21212

>  <SCORE.INTRA.SOLV.lig_0>
-64.6797

>  <SCORE.INTRA.VDW>
4.14277

>  <SCORE.INTRA.VDW.0>
-4.11825

>  <SCORE.INTRA.norm>
-0.0350849

>  <SCORE.RESTR>
9.81163

>  <SCORE.RESTR.CAVITY>
9.81163

>  <SCORE.RESTR.norm>
0.316504

>  <SCORE.SYSTEM>
0

>  <SCORE.SYSTEM.CONST>
0

>  <SCORE.SYSTEM.DIHEDRAL>
0

>  <SCORE.SYSTEM.SOLV>
0

>  <SCORE.SYSTEM.norm>
0

>  <SCORE.heavy>
31

>  <SCORE.norm>
0.266992

>  <RMSD>
12.664

$$$$
ligand
 OpenBabel11021811493D
libRbt.so/2013.1/901 2013/11/27
 31 33  0  0  0  0  0  0  0  0999 V2000
    3.8514   10.0453    0.0365 C   0  0  2  0  0  0  0  0  0  0  0  0
    3.1917    9.3749    1.1063 O   0  0  0  0  0  0  0  0  0  0  0  0
    4.8626    5.4692    1.3015 C   0  0  2  0  0  0  0  0  0  0  0  0
    5.3530    4.2418    1.8491 N   0  0  0  0  0  0  0  0  0  0  0  0
    2.5801    4.2964   -0.2775 C   0  0  2  0  0  0  0  0  0  0  0  0
    2.8730   11.1915   -0.4483 C   0  0  2  0  0  0  0  0  0  0  0  0
    2.6060   12.0858    0.6734 N   0  0  0  0  0  0  0  0  0  0  0  0
    5.7096    6.6614    1.9109 C   0  0  0  0  0  0  0  0  0  0  0  0
    1.3478    3.3581   -0.4768 C   0  0  2  0  0  0  0  0  0  0  0  0
    0.1960    4.0329   -0.0178 O   0  0  0  0  0  0  0  0  0  0  0  0
    1.5279   10.5704   -0.9994 C   0  0  0  0  0  0  0  0  0  0  0  0
    5.1708    8.0144    1.3121 C   0  0  2  0  0  0  0  0  0  0  0  0
    5.9511    9.1274    1.8795 N   0  0  0  0  0  0  0  0  0  0  0  0
    1.6122    2.0540    0.3677 C   0  0  1  0  0  0  0  0  0  0  0  0
    0.4479    1.1176    0.2313 N   0  0  0  0  0  0  0  0  0  0  0  0
    1.7701    9.2215   -1.8003 C   0  0  0  0  0  0  0  0  0  0  0  0
    3.6281    8.1852    1.6683 C   0  0  2  0  0  0  0  0  0  0  0  0
    2.9539    1.3379   -0.2201 C   0  0  1  0  0  0  0  0  0  0  0  0
    2.8325    1.0133   -1.5946 O   0  0  0  0  0  0  0  0  0  0  0  0
    2.9842    8.6102   -1.7930 C   0  0  2  0  0  0  0  0  0  0  0  0
    4.1057    9.1363   -1.0738 O   0  0  0  0  0  0  0  0  0  0  0  0
    2.8129    6.9844    1.0603 C   0  0  2  0  0  0  0  0  0  0  0  0
    1.4177    7.1419    1.3965 O   0  0  0  0  0  0  0  0  0  0  0  0
    4.1750    2.3047   -0.0851 C   0  0  0  0  0  0  0  0  0  0  0  0
    3.8484    3.6137   -0.7543 O   0  0  0  0  0  0  0  0  0  0  0  0
    3.2671    7.3116   -2.5507 C   0  0  0  0  0  0  0  0  0  0  0  0
    2.3133    7.2064   -3.6340 O   0  0  0  0  0  0  0  0  0  0  0  0
    3.3498    5.6446    1.6866 C   0  0  1  0  0  0  0  0  0  0  0  0
    2.6061    4.5926    1.1567 O   0  0  0  0  0  0  0  0  0  0  0  0
    3.3638    0.0299    0.4987 C   0  0  0  0  0  0  0  0  0  0  0  0
   -0.0414    0.4841    1.4728 C   0  0  0  0  0  0  0  0  0  0  0  0
  1  2  1  1  0  0  0
  1  6  1  0  0  0  0
  1 21  1  0  0  0  0
  3  4  1  1  0  0  0
  3  8  1  0  0  0  0
  3 28  1  0  0  0  0
  5  9  1  0  0  0  0
  5 25  1  0  0  0  0
  5 29  1  1  0  0  0
  6  7  1  1  0  0  0
  6 11  1  0  0  0  0
  8 12  1  0  0  0  0
  9 10  1  1  0  0  0
  9 14  1  0  0  0  0
 11 16  1  0  0  0  0
 12 13  1  1  0  0  0
 12 17  1  0  0  0  0
 14 15  1  6  0  0  0
 14 18  1  0  0  0  0
 15 31  1  0  0  0  0
 16 20  1  0  0  0  0
 17  2  1  6  0  0  0
 17 22  1  0  0  0  0
 18 19  1  6  0  0  0
 18 24  1  0  0  0  0
 18 30  1  0  0  0  0
 20 21  1  0  0  0  0
 20 26  1  6  0  0  0
 22 23  1  1  0  0  0
 22 28  1  0  0  0  0
 24 25  1  0  0  0  0
 26 27  1  0  0  0  0
 28 29  1  6  0  0  0
M  END
>  <CHROM.1>
169.79866704,-164.00321073,-135.32014378,20.21611947,23.92005047,-57.67404210
2.96295467,5.91926051,0.10373841,-1.38364511,0.72620112,2.98748528

>  <Name>
ligand

>  <RI>
0

>  <Rbt.Current_Directory>
/home/itssahil/PROJECTS/Mol_Feturizer/New_Systems/rnas/4GPX

>  <Rbt.Executable>
rbdock ($Id: //depot/dev/client3/rdock/2013.1/src/exe/rbdock.cxx#4 $)

>  <Rbt.Library>
libRbt.so (2013.1, Build901 2013/11/27)

>  <Rbt.Parameter_File>
/export/apps/rDock/src/rDock_2013.1_src/data/scripts/dock_solv.prm

>  <Rbt.Receptor>
prm/blind_docking_40.prm

>  <SCORE>
-3.30675

>  <SCORE.INTER>
-6.97485

>  <SCORE.INTER.CONST>
1

>  <SCORE.INTER.POLAR>
0

>  <SCORE.INTER.ROT>
6

>  <SCORE.INTER.SOLV>
18.8999

>  <SCORE.INTER.VDW>
-18.5499

>  <SCORE.INTER.norm>
-0.224995

>  <SCORE.INTRA>
-2.65753

>  <SCORE.INTRA.DIHEDRAL>
-10.2364

>  <SCORE.INTRA.DIHEDRAL.0>
20.6841

>  <SCORE.INTRA.POLAR>
0

>  <SCORE.INTRA.POLAR.0>
0

>  <SCORE.INTRA.REPUL>
0

>  <SCORE.INTRA.REPUL.0>
0

>  <SCORE.INTRA.SOLV>
0.53494

>  <SCORE.INTRA.SOLV.lig_0>
-64.6797

>  <SCORE.INTRA.VDW>
2.19319

>  <SCORE.INTRA.VDW.0>
-4.11825

>  <SCORE.INTRA.norm>
-0.0857267

>  <SCORE.RESTR>
6.32563

>  <SCORE.RESTR.CAVITY>
6.32563

>  <SCORE.RESTR.norm>
0.204053

>  <SCORE.SYSTEM>
0

>  <SCORE.SYSTEM.CONST>
0

>  <SCORE.SYSTEM.DIHEDRAL>
0

>  <SCORE.SYSTEM.SOLV>
0

>  <SCORE.SYSTEM.norm>
0

>  <SCORE.heavy>
31

>  <SCORE.norm>
-0.106669

>  <RMSD>
12.684

$$$$
ligand
 OpenBabel11021811493D
libRbt.so/2013.1/901 2013/11/27
 31 33  0  0  0  0  0  0  0  0999 V2000
    5.5928    6.9934    2.3904 C   0  0  2  0  0  0  0  0  0  0  0  0
    4.3849    6.7161    3.0928 O   0  0  0  0  0  0  0  0  0  0  0  0
    0.2683    5.8412    2.4828 C   0  0  2  0  0  0  0  0  0  0  0  0
   -1.0567    5.9111    1.9477 N   0  0  0  0  0  0  0  0  0  0  0  0
    1.3726    3.8375   -0.5511 C   0  0  2  0  0  0  0  0  0  0  0  0
    6.3897    8.0468    3.2629 C   0  0  2  0  0  0  0  0  0  0  0  0
    6.6445    7.4691    4.5784 N   0  0  0  0  0  0  0  0  0  0  0  0
    0.6355    7.2564    3.0930 C   0  0  0  0  0  0  0  0  0  0  0  0
    0.4824    2.6037   -0.9032 C   0  0  2  0  0  0  0  0  0  0  0  0
   -0.8714    2.9969   -0.8310 O   0  0  0  0  0  0  0  0  0  0  0  0
    5.5657    9.3895    3.3931 C   0  0  0  0  0  0  0  0  0  0  0  0
    2.0946    7.1839    3.6806 C   0  0  2  0  0  0  0  0  0  0  0  0
    2.4438    8.4990    4.2448 N   0  0  0  0  0  0  0  0  0  0  0  0
    0.8012    1.4805    0.1553 C   0  0  1  0  0  0  0  0  0  0  0  0
   -0.0422    0.2707   -0.1203 N   0  0  0  0  0  0  0  0  0  0  0  0
    4.7957    9.7568    2.0545 C   0  0  0  0  0  0  0  0  0  0  0  0
    3.1206    6.7884    2.5289 C   0  0  2  0  0  0  0  0  0  0  0  0
    2.3766    1.0858    0.0104 C   0  0  1  0  0  0  0  0  0  0  0  0
    2.7004    0.6340   -1.2935 O   0  0  0  0  0  0  0  0  0  0  0  0
    4.7177    8.8722    1.0254 C   0  0  2  0  0  0  0  0  0  0  0  0
    5.3166    7.5722    1.0817 O   0  0  0  0  0  0  0  0  0  0  0  0
    2.7274    5.3854    1.9346 C   0  0  2  0  0  0  0  0  0  0  0  0
    3.6563    5.0395    0.8849 O   0  0  0  0  0  0  0  0  0  0  0  0
    3.2668    2.3392    0.2939 C   0  0  0  0  0  0  0  0  0  0  0  0
    2.8421    3.4651   -0.6115 O   0  0  0  0  0  0  0  0  0  0  0  0
    3.9899    9.1808   -0.2844 C   0  0  0  0  0  0  0  0  0  0  0  0
    4.9823    9.3174   -1.3288 O   0  0  0  0  0  0  0  0  0  0  0  0
    1.2769    5.4836    1.3328 C   0  0  1  0  0  0  0  0  0  0  0  0
    0.9499    4.2424    0.7915 O   0  0  0  0  0  0  0  0  0  0  0  0
    2.8660   -0.0140    0.9833 C   0  0  0  0  0  0  0  0  0  0  0  0
   -0.7667   -0.3075    1.0299 C   0  0  0  0  0  0  0  0  0  0  0  0
  1  2  1  1  0  0  0
  1  6  1  0  0  0  0
  1 21  1  0  0  0  0
  3  4  1  6  0  0  0
  3  8  1  0  0  0  0
  3 28  1  0  0  0  0
  5  9  1  0  0  0  0
  5 25  1  0  0  0  0
  5 29  1  1  0  0  0
  6  7  1  1  0  0  0
  6 11  1  0  0  0  0
  8 12  1  0  0  0  0
  9 10  1  1  0  0  0
  9 14  1  0  0  0  0
 11 16  1  0  0  0  0
 12 13  1  6  0  0  0
 12 17  1  0  0  0  0
 14 15  1  6  0  0  0
 14 18  1  0  0  0  0
 15 31  1  0  0  0  0
 16 20  1  0  0  0  0
 17  2  1  1  0  0  0
 17 22  1  0  0  0  0
 18 19  1  6  0  0  0
 18 24  1  0  0  0  0
 18 30  1  0  0  0  0
 20 21  1  0  0  0  0
 20 26  1  6  0  0  0
 22 23  1  6  0  0  0
 22 28  1  0  0  0  0
 24 25  1  0  0  0  0
 26 27  1  0  0  0  0
 28 29  1  1  0  0  0
M  END
>  <CHROM.1>
128.05779036,-164.47991216,-130.94240506,-150.10682129,110.29143706,158.30002134
2.70099098,5.24298311,1.26026543,-1.07151708,-0.24199700,-2.68807115

>  <Name>
ligand

>  <RI>
0

>  <Rbt.Current_Directory>
/home/itssahil/PROJECTS/Mol_Feturizer/New_Systems/rnas/4GPX

>  <Rbt.Executable>
rbdock ($Id: //depot/dev/client3/rdock/2013.1/src/exe/rbdock.cxx#4 $)

>  <Rbt.Library>
libRbt.so (2013.1, Build901 2013/11/27)

>  <Rbt.Parameter_File>
/export/apps/rDock/src/rDock_2013.1_src/data/scripts/dock_solv.prm

>  <Rbt.Receptor>
prm/blind_docking_40.prm

>  <SCORE>
4.1456

>  <SCORE.INTER>
-3.83168

>  <SCORE.INTER.CONST>
1

>  <SCORE.INTER.POLAR>
0

>  <SCORE.INTER.ROT>
6

>  <SCORE.INTER.SOLV>
15.981

>  <SCORE.INTER.VDW>
-15.4815

>  <SCORE.INTER.norm>
-0.123603

>  <SCORE.INTRA>
0.00901724

>  <SCORE.INTRA.DIHEDRAL>
-4.10976

>  <SCORE.INTRA.DIHEDRAL.0>
20.6841

>  <SCORE.INTRA.POLAR>
0

>  <SCORE.INTRA.POLAR.0>
0

>  <SCORE.INTRA.REPUL>
0

>  <SCORE.INTRA.REPUL.0>
0

>  <SCORE.INTRA.SOLV>
-0.4385

>  <SCORE.INTRA.SOLV.lig_0>
-64.6797

>  <SCORE.INTRA.VDW>
2.28315

>  <SCORE.INTRA.VDW.0>
-4.11825

>  <SCORE.INTRA.norm>
0.000290879

>  <SCORE.RESTR>
7.96826

>  <SCORE.RESTR.CAVITY>
7.96826

>  <SCORE.RESTR.norm>
0.257041

>  <SCORE.SYSTEM>
0

>  <SCORE.SYSTEM.CONST>
0

>  <SCORE.SYSTEM.DIHEDRAL>
0

>  <SCORE.SYSTEM.SOLV>
0

>  <SCORE.SYSTEM.norm>
0

>  <SCORE.heavy>
31

>  <SCORE.norm>
0.133729

>  <RMSD>
12.689

$$$$
ligand
 OpenBabel11021811493D
libRbt.so/2013.1/901 2013/11/27
 31 33  0  0  0  0  0  0  0  0999 V2000
    5.1762    6.6004    2.4095 C   0  0  2  0  0  0  0  0  0  0  0  0
    3.9986    6.8610    3.1675 O   0  0  0  0  0  0  0  0  0  0  0  0
   -0.0964    5.8547    2.6180 C   0  0  2  0  0  0  0  0  0  0  0  0
   -1.4346    5.8919    2.1133 N   0  0  0  0  0  0  0  0  0  0  0  0
    1.6059    3.5454    0.1421 C   0  0  2  0  0  0  0  0  0  0  0  0
    6.3342    7.4557    3.0679 C   0  0  2  0  0  0  0  0  0  0  0  0
    6.4823    7.0502    4.4618 N   0  0  0  0  0  0  0  0  0  0  0  0
    0.2332    7.2639    3.2627 C   0  0  0  0  0  0  0  0  0  0  0  0
    0.8581    2.9873   -1.1101 C   0  0  2  0  0  0  0  0  0  0  0  0
    0.3538    4.0787   -1.8500 O   0  0  0  0  0  0  0  0  0  0  0  0
    6.0043    8.9984    2.9676 C   0  0  0  0  0  0  0  0  0  0  0  0
    1.7065    7.2275    3.8171 C   0  0  2  0  0  0  0  0  0  0  0  0
    2.0208    8.5374    4.4131 N   0  0  0  0  0  0  0  0  0  0  0  0
   -0.3126    2.0719   -0.5855 C   0  0  1  0  0  0  0  0  0  0  0  0
   -1.0836    1.5197   -1.7481 N   0  0  0  0  0  0  0  0  0  0  0  0
    5.3004    9.3766    1.5960 C   0  0  0  0  0  0  0  0  0  0  0  0
    2.7204    6.9036    2.6327 C   0  0  2  0  0  0  0  0  0  0  0  0
    0.3493    0.8430    0.2570 C   0  0  1  0  0  0  0  0  0  0  0  0
    1.2531    0.0800   -0.5243 O   0  0  0  0  0  0  0  0  0  0  0  0
    4.8636    8.4126    0.7430 C   0  0  2  0  0  0  0  0  0  0  0  0
    5.0088    7.0153    1.0225 O   0  0  0  0  0  0  0  0  0  0  0  0
    2.3646    5.5052    2.0048 C   0  0  2  0  0  0  0  0  0  0  0  0
    3.2820    5.2243    0.9259 O   0  0  0  0  0  0  0  0  0  0  0  0
    1.1573    1.4055    1.4714 C   0  0  0  0  0  0  0  0  0  0  0  0
    2.1659    2.4078    0.9753 O   0  0  0  0  0  0  0  0  0  0  0  0
    4.1823    8.7270   -0.5902 C   0  0  0  0  0  0  0  0  0  0  0  0
    3.8883   10.1436   -0.6217 O   0  0  0  0  0  0  0  0  0  0  0  0
    0.8987    5.5680    1.4369 C   0  0  1  0  0  0  0  0  0  0  0  0
    0.6044    4.3321    0.8655 O   0  0  0  0  0  0  0  0  0  0  0  0
   -0.6663   -0.1635    0.8498 C   0  0  0  0  0  0  0  0  0  0  0  0
   -2.0121    2.4465   -2.4272 C   0  0  0  0  0  0  0  0  0  0  0  0
  1  2  1  1  0  0  0
  1  6  1  0  0  0  0
  1 21  1  0  0  0  0
  3  4  1  6  0  0  0
  3  8  1  0  0  0  0
  3 28  1  0  0  0  0
  5  9  1  0  0  0  0
  5 25  1  0  0  0  0
  5 29  1  1  0  0  0
  6  7  1  1  0  0  0
  6 11  1  0  0  0  0
  8 12  1  0  0  0  0
  9 10  1  1  0  0  0
  9 14  1  0  0  0  0
 11 16  1  0  0  0  0
 12 13  1  6  0  0  0
 12 17  1  0  0  0  0
 14 15  1  6  0  0  0
 14 18  1  0  0  0  0
 15 31  1  0  0  0  0
 16 20  1  0  0  0  0
 17  2  1  1  0  0  0
 17 22  1  0  0  0  0
 18 19  1  6  0  0  0
 18 24  1  0  0  0  0
 18 30  1  0  0  0  0
 20 21  1  0  0  0  0
 20 26  1  6  0  0  0
 22 23  1  6  0  0  0
 22 28  1  0  0  0  0
 24 25  1  0  0  0  0
 26 27  1  0  0  0  0
 28 29  1  1  0  0  0
M  END
>  <CHROM.1>
146.15698224,-138.15551381,-76.11932534,-179.79463358,-10.40629511,-155.24571658
2.16956525,5.27826588,1.17856699,-0.77203008,-0.65743741,-2.18187784

>  <Name>
ligand

>  <RI>
0

>  <Rbt.Current_Directory>
/home/itssahil/PROJECTS/Mol_Feturizer/New_Systems/rnas/4GPX

>  <Rbt.Executable>
rbdock ($Id: //depot/dev/client3/rdock/2013.1/src/exe/rbdock.cxx#4 $)

>  <Rbt.Library>
libRbt.so (2013.1, Build901 2013/11/27)

>  <Rbt.Parameter_File>
/export/apps/rDock/src/rDock_2013.1_src/data/scripts/dock_solv.prm

>  <Rbt.Receptor>
prm/blind_docking_40.prm

>  <SCORE>
10.6364

>  <SCORE.INTER>
-1.63312

>  <SCORE.INTER.CONST>
1

>  <SCORE.INTER.POLAR>
0

>  <SCORE.INTER.ROT>
6

>  <SCORE.INTER.SOLV>
15.6062

>  <SCORE.INTER.VDW>
-13.8908

>  <SCORE.INTER.norm>
-0.0526813

>  <SCORE.INTRA>
1.69452

>  <SCORE.INTRA.DIHEDRAL>
-6.02395

>  <SCORE.INTRA.DIHEDRAL.0>
20.6841

>  <SCORE.INTRA.POLAR>
0

>  <SCORE.INTRA.POLAR.0>
0

>  <SCORE.INTRA.REPUL>
0

>  <SCORE.INTRA.REPUL.0>
0

>  <SCORE.INTRA.SOLV>
-2.77726

>  <SCORE.INTRA.SOLV.lig_0>
-64.6797

>  <SCORE.INTRA.VDW>
6.09513

>  <SCORE.INTRA.VDW.0>
-4.11825

>  <SCORE.INTRA.norm>
0.054662

>  <SCORE.RESTR>
10.575

>  <SCORE.RESTR.CAVITY>
10.575

>  <SCORE.RESTR.norm>
0.341131

>  <SCORE.SYSTEM>
0

>  <SCORE.SYSTEM.CONST>
0

>  <SCORE.SYSTEM.DIHEDRAL>
0

>  <SCORE.SYSTEM.SOLV>
0

>  <SCORE.SYSTEM.norm>
0

>  <SCORE.heavy>
31

>  <SCORE.norm>
0.343111

>  <RMSD>
12.692

$$$$
ligand
 OpenBabel11021811493D
libRbt.so/2013.1/901 2013/11/27
 31 33  0  0  0  0  0  0  0  0999 V2000
    1.5270    3.5423    0.9289 C   0  0  2  0  0  0  0  0  0  0  0  0
    2.8575    3.1980    1.3038 O   0  0  0  0  0  0  0  0  0  0  0  0
    6.5827    4.9475    2.3742 C   0  0  2  0  0  0  0  0  0  0  0  0
    7.7224    5.8117    2.3391 N   0  0  0  0  0  0  0  0  0  0  0  0
    5.5948    7.9443    3.8309 C   0  0  2  0  0  0  0  0  0  0  0  0
    0.7522    2.1786    0.7144 C   0  0  2  0  0  0  0  0  0  0  0  0
    0.7882    1.4180    1.9591 N   0  0  0  0  0  0  0  0  0  0  0  0
    6.5076    4.1645    0.9990 C   0  0  0  0  0  0  0  0  0  0  0  0
    4.1782    8.5917    3.9441 C   0  0  2  0  0  0  0  0  0  0  0  0
    3.5443    8.0765    5.0954 O   0  0  0  0  0  0  0  0  0  0  0  0
    1.4073    1.3527   -0.4635 C   0  0  0  0  0  0  0  0  0  0  0  0
    5.2526    3.2140    1.0330 C   0  0  2  0  0  0  0  0  0  0  0  0
    5.1742    2.4871   -0.2457 N   0  0  0  0  0  0  0  0  0  0  0  0
    3.3821    8.2042    2.6403 C   0  0  1  0  0  0  0  0  0  0  0  0
    1.9996    8.7839    2.7000 N   0  0  0  0  0  0  0  0  0  0  0  0
    1.8987    2.2832   -1.6520 C   0  0  0  0  0  0  0  0  0  0  0  0
    3.9314    4.0735    1.2600 C   0  0  2  0  0  0  0  0  0  0  0  0
    4.1764    8.8305    1.3616 C   0  0  1  0  0  0  0  0  0  0  0  0
    4.3129   10.2387    1.4499 O   0  0  0  0  0  0  0  0  0  0  0  0
    1.9232    3.6358   -1.5192 C   0  0  2  0  0  0  0  0  0  0  0  0
    1.5129    4.2980   -0.3172 O   0  0  0  0  0  0  0  0  0  0  0  0
    4.0369    4.8474    2.6261 C   0  0  2  0  0  0  0  0  0  0  0  0
    2.8399    5.6313    2.8189 O   0  0  0  0  0  0  0  0  0  0  0  0
    5.6200    8.2352    1.2889 C   0  0  0  0  0  0  0  0  0  0  0  0
    6.3186    8.4645    2.6032 O   0  0  0  0  0  0  0  0  0  0  0  0
    2.3855    4.5738   -2.6358 C   0  0  0  0  0  0  0  0  0  0  0  0
    1.2652    5.4076   -3.0152 O   0  0  0  0  0  0  0  0  0  0  0  0
    5.2819    5.8073    2.5647 C   0  0  1  0  0  0  0  0  0  0  0  0
    5.3511    6.5013    3.7706 O   0  0  0  0  0  0  0  0  0  0  0  0
    3.5271    8.5444   -0.0140 C   0  0  0  0  0  0  0  0  0  0  0  0
    0.9944    8.0216    3.4685 C   0  0  0  0  0  0  0  0  0  0  0  0
  1  2  1  6  0  0  0
  1  6  1  0  0  0  0
  1 21  1  0  0  0  0
  3  4  1  6  0  0  0
  3  8  1  0  0  0  0
  3 28  1  0  0  0  0
  5  9  1  0  0  0  0
  5 25  1  0  0  0  0
  5 29  1  6  0  0  0
  6  7  1  1  0  0  0
  6 11  1  0  0  0  0
  8 12  1  0  0  0  0
  9 10  1  1  0  0  0
  9 14  1  0  0  0  0
 11 16  1  0  0  0  0
 12 13  1  6  0  0  0
 12 17  1  0  0  0  0
 14 15  1  1  0  0  0
 14 18  1  0  0  0  0
 15 31  1  0  0  0  0
 16 20  1  0  0  0  0
 17  2  1  1  0  0  0
 17 22  1  0  0  0  0
 18 19  1  1  0  0  0
 18 24  1  0  0  0  0
 18 30  1  0  0  0  0
 20 21  1  0  0  0  0
 20 26  1  6  0  0  0
 22 23  1  6  0  0  0
 22 28  1  0  0  0  0
 24 25  1  0  0  0  0
 26 27  1  0  0  0  0
 28 29  1  1  0  0  0
M  END
>  <CHROM.1>
163.22812538,95.97088748,-82.41082640,-152.09367334,117.22081426,106.54130982
3.61446606,5.63045505,1.39542698,2.02860927,0.47164163,-2.79293347

>  <Name>
ligand

>  <RI>
0

>  <Rbt.Current_Directory>
/home/itssahil/PROJECTS/Mol_Feturizer/New_Systems/rnas/4GPX

>  <Rbt.Executable>
rbdock ($Id: //depot/dev/client3/rdock/2013.1/src/exe/rbdock.cxx#4 $)

>  <Rbt.Library>
libRbt.so (2013.1, Build901 2013/11/27)

>  <Rbt.Parameter_File>
/export/apps/rDock/src/rDock_2013.1_src/data/scripts/dock_solv.prm

>  <Rbt.Receptor>
prm/blind_docking_80.prm

>  <SCORE>
16.0488

>  <SCORE.INTER>
4.91614

>  <SCORE.INTER.CONST>
1

>  <SCORE.INTER.POLAR>
0

>  <SCORE.INTER.ROT>
6

>  <SCORE.INTER.SOLV>
20.5113

>  <SCORE.INTER.VDW>
-11.1597

>  <SCORE.INTER.norm>
0.158585

>  <SCORE.INTRA>
1.51734

>  <SCORE.INTRA.DIHEDRAL>
-3.06812

>  <SCORE.INTRA.DIHEDRAL.0>
20.6841

>  <SCORE.INTRA.POLAR>
0

>  <SCORE.INTRA.POLAR.0>
0

>  <SCORE.INTRA.REPUL>
0

>  <SCORE.INTRA.REPUL.0>
0

>  <SCORE.INTRA.SOLV>
2.02466

>  <SCORE.INTRA.SOLV.lig_0>
-64.6797

>  <SCORE.INTRA.VDW>
2.03907

>  <SCORE.INTRA.VDW.0>
-4.11825

>  <SCORE.INTRA.norm>
0.0489466

>  <SCORE.RESTR>
9.61536

>  <SCORE.RESTR.CAVITY>
9.61536

>  <SCORE.RESTR.norm>
0.310173

>  <SCORE.SYSTEM>
0

>  <SCORE.SYSTEM.CONST>
0

>  <SCORE.SYSTEM.DIHEDRAL>
0

>  <SCORE.SYSTEM.SOLV>
0

>  <SCORE.SYSTEM.norm>
0

>  <SCORE.heavy>
31

>  <SCORE.norm>
0.517705

>  <RMSD>
12.727

$$$$
ligand
 OpenBabel11021811493D
libRbt.so/2013.1/901 2013/11/27
 31 33  0  0  0  0  0  0  0  0999 V2000
    4.1108    9.4879   -0.2813 C   0  0  2  0  0  0  0  0  0  0  0  0
    3.2356    9.2472    0.8165 O   0  0  0  0  0  0  0  0  0  0  0  0
    4.6909    5.5873    2.4201 C   0  0  2  0  0  0  0  0  0  0  0  0
    4.8796    4.4966    3.3265 N   0  0  0  0  0  0  0  0  0  0  0  0
    3.5201    3.9845    0.1665 C   0  0  2  0  0  0  0  0  0  0  0  0
    3.4702   10.6696   -1.1174 C   0  0  2  0  0  0  0  0  0  0  0  0
    3.3433   11.8396   -0.2547 N   0  0  0  0  0  0  0  0  0  0  0  0
    5.1011    6.9273    3.1591 C   0  0  0  0  0  0  0  0  0  0  0  0
    2.4198    3.2949   -0.7009 C   0  0  2  0  0  0  0  0  0  0  0  0
    1.4198    4.2480   -0.9910 O   0  0  0  0  0  0  0  0  0  0  0  0
    2.0592   10.2398   -1.6859 C   0  0  0  0  0  0  0  0  0  0  0  0
    4.8922    8.1304    2.1650 C   0  0  2  0  0  0  0  0  0  0  0  0
    5.2669    9.3802    2.8487 N   0  0  0  0  0  0  0  0  0  0  0  0
    1.8344    2.1031    0.1481 C   0  0  1  0  0  0  0  0  0  0  0  0
    0.7536    1.4108   -0.6287 N   0  0  0  0  0  0  0  0  0  0  0  0
    2.0310    8.7202   -2.1439 C   0  0  0  0  0  0  0  0  0  0  0  0
    3.3694    8.1901    1.7033 C   0  0  2  0  0  0  0  0  0  0  0  0
    3.0463    1.0528    0.4423 C   0  0  1  0  0  0  0  0  0  0  0  0
    3.6333    0.5605   -0.7504 O   0  0  0  0  0  0  0  0  0  0  0  0
    3.0614    7.8818   -1.8554 C   0  0  2  0  0  0  0  0  0  0  0  0
    4.2210    8.3094   -1.1315 O   0  0  0  0  0  0  0  0  0  0  0  0
    2.9863    6.8450    0.9822 C   0  0  2  0  0  0  0  0  0  0  0  0
    1.6021    6.9039    0.5761 O   0  0  0  0  0  0  0  0  0  0  0  0
    4.1806    1.7628    1.2505 C   0  0  0  0  0  0  0  0  0  0  0  0
    4.6204    2.9976    0.5092 O   0  0  0  0  0  0  0  0  0  0  0  0
    3.0814    6.4114   -2.2771 C   0  0  0  0  0  0  0  0  0  0  0  0
    2.8323    6.3488   -3.7013 O   0  0  0  0  0  0  0  0  0  0  0  0
    3.1798    5.6583    1.9969 C   0  0  1  0  0  0  0  0  0  0  0  0
    2.8172    4.4772    1.3533 O   0  0  0  0  0  0  0  0  0  0  0  0
    2.6452   -0.1906    1.2722 C   0  0  0  0  0  0  0  0  0  0  0  0
   -0.5009    2.1636   -0.8332 C   0  0  0  0  0  0  0  0  0  0  0  0
  1  2  1  1  0  0  0
  1  6  1  0  0  0  0
  1 21  1  0  0  0  0
  3  4  1  1  0  0  0
  3  8  1  0  0  0  0
  3 28  1  0  0  0  0
  5  9  1  0  0  0  0
  5 25  1  0  0  0  0
  5 29  1  1  0  0  0
  6  7  1  1  0  0  0
  6 11  1  0  0  0  0
  8 12  1  0  0  0  0
  9 10  1  1  0  0  0
  9 14  1  0  0  0  0
 11 16  1  0  0  0  0
 12 13  1  1  0  0  0
 12 17  1  0  0  0  0
 14 15  1  6  0  0  0
 14 18  1  0  0  0  0
 15 31  1  0  0  0  0
 16 20  1  0  0  0  0
 17  2  1  6  0  0  0
 17 22  1  0  0  0  0
 18 19  1  6  0  0  0
 18 24  1  0  0  0  0
 18 30  1  0  0  0  0
 20 21  1  0  0  0  0
 20 26  1  6  0  0  0
 22 23  1  1  0  0  0
 22 28  1  0  0  0  0
 24 25  1  0  0  0  0
 26 27  1  0  0  0  0
 28 29  1  6  0  0  0
M  END
>  <CHROM.1>
172.66384751,-145.84331336,-69.41364434,47.64987021,52.84011991,-56.55793707
3.13550995,5.74516948,0.18746492,-1.33744574,1.01385021,2.89853744

>  <Name>
ligand

>  <RI>
0

>  <Rbt.Current_Directory>
/home/itssahil/PROJECTS/Mol_Feturizer/New_Systems/rnas/4GPX

>  <Rbt.Executable>
rbdock ($Id: //depot/dev/client3/rdock/2013.1/src/exe/rbdock.cxx#4 $)

>  <Rbt.Library>
libRbt.so (2013.1, Build901 2013/11/27)

>  <Rbt.Parameter_File>
/export/apps/rDock/src/rDock_2013.1_src/data/scripts/dock_solv.prm

>  <Rbt.Receptor>
prm/blind_docking_40.prm

>  <SCORE>
-0.402361

>  <SCORE.INTER>
-4.83441

>  <SCORE.INTER.CONST>
1

>  <SCORE.INTER.POLAR>
0

>  <SCORE.INTER.ROT>
6

>  <SCORE.INTER.SOLV>
16.4265

>  <SCORE.INTER.VDW>
-16.2984

>  <SCORE.INTER.norm>
-0.155949

>  <SCORE.INTRA>
-4.06138

>  <SCORE.INTRA.DIHEDRAL>
-11.6402

>  <SCORE.INTRA.DIHEDRAL.0>
20.6841

>  <SCORE.INTRA.POLAR>
0

>  <SCORE.INTRA.POLAR.0>
0

>  <SCORE.INTRA.REPUL>
0

>  <SCORE.INTRA.REPUL.0>
0

>  <SCORE.INTRA.SOLV>
0.271611

>  <SCORE.INTRA.SOLV.lig_0>
-64.6797

>  <SCORE.INTRA.VDW>
1.6229

>  <SCORE.INTRA.VDW.0>
-4.11825

>  <SCORE.INTRA.norm>
-0.131012

>  <SCORE.RESTR>
8.49342

>  <SCORE.RESTR.CAVITY>
8.49342

>  <SCORE.RESTR.norm>
0.273981

>  <SCORE.SYSTEM>
0

>  <SCORE.SYSTEM.CONST>
0

>  <SCORE.SYSTEM.DIHEDRAL>
0

>  <SCORE.SYSTEM.SOLV>
0

>  <SCORE.SYSTEM.norm>
0

>  <SCORE.heavy>
31

>  <SCORE.norm>
-0.0129794

>  <RMSD>
12.730

$$$$
ligand
 OpenBabel11021811493D
libRbt.so/2013.1/901 2013/11/27
 31 33  0  0  0  0  0  0  0  0999 V2000
    3.9308    9.9056   -0.1012 C   0  0  2  0  0  0  0  0  0  0  0  0
    3.3178    9.3349    1.0511 O   0  0  0  0  0  0  0  0  0  0  0  0
    4.8935    5.3950    1.3301 C   0  0  2  0  0  0  0  0  0  0  0  0
    5.3454    4.1645    1.9033 N   0  0  0  0  0  0  0  0  0  0  0  0
    2.5926    4.2691   -0.2769 C   0  0  2  0  0  0  0  0  0  0  0  0
    3.0086   11.1108   -0.5518 C   0  0  2  0  0  0  0  0  0  0  0  0
    2.9164   12.0669    0.5466 N   0  0  0  0  0  0  0  0  0  0  0  0
    5.7571    6.5758    1.9383 C   0  0  0  0  0  0  0  0  0  0  0  0
    1.3593    3.3314   -0.4729 C   0  0  2  0  0  0  0  0  0  0  0  0
    0.2085    4.0082   -0.0144 O   0  0  0  0  0  0  0  0  0  0  0  0
    1.5736   10.5847   -0.9557 C   0  0  0  0  0  0  0  0  0  0  0  0
    5.2607    7.9322    1.3113 C   0  0  2  0  0  0  0  0  0  0  0  0
    6.0565    9.0349    1.8774 N   0  0  0  0  0  0  0  0  0  0  0  0
    1.6235    2.0290    0.3743 C   0  0  1  0  0  0  0  0  0  0  0  0
    0.4583    1.0932    0.2411 N   0  0  0  0  0  0  0  0  0  0  0  0
    1.6333    9.1903   -1.7119 C   0  0  0  0  0  0  0  0  0  0  0  0
    3.7164    8.1436    1.6372 C   0  0  2  0  0  0  0  0  0  0  0  0
    2.9640    1.3105   -0.2131 C   0  0  1  0  0  0  0  0  0  0  0  0
    2.8410    0.9829   -1.5868 O   0  0  0  0  0  0  0  0  0  0  0  0
    2.7899    8.4795   -1.7814 C   0  0  2  0  0  0  0  0  0  0  0  0
    4.0101    8.9363   -1.1866 O   0  0  0  0  0  0  0  0  0  0  0  0
    2.8843    6.9534    1.0311 C   0  0  2  0  0  0  0  0  0  0  0  0
    1.4874    7.1478    1.3398 O   0  0  0  0  0  0  0  0  0  0  0  0
    4.1860    2.2766   -0.0815 C   0  0  0  0  0  0  0  0  0  0  0  0
    3.8599    3.5843   -0.7533 O   0  0  0  0  0  0  0  0  0  0  0  0
    2.8979    7.1334   -2.5005 C   0  0  0  0  0  0  0  0  0  0  0  0
    4.1334    7.1241   -3.2539 O   0  0  0  0  0  0  0  0  0  0  0  0
    3.3787    5.6106    1.6854 C   0  0  1  0  0  0  0  0  0  0  0  0
    2.6202    4.5686    1.1565 O   0  0  0  0  0  0  0  0  0  0  0  0
    3.3735    0.0038    0.5083 C   0  0  0  0  0  0  0  0  0  0  0  0
   -0.0490    0.4856    1.4884 C   0  0  0  0  0  0  0  0  0  0  0  0
  1  2  1  1  0  0  0
  1  6  1  0  0  0  0
  1 21  1  0  0  0  0
  3  4  1  1  0  0  0
  3  8  1  0  0  0  0
  3 28  1  0  0  0  0
  5  9  1  0  0  0  0
  5 25  1  0  0  0  0
  5 29  1  1  0  0  0
  6  7  1  1  0  0  0
  6 11  1  0  0  0  0
  8 12  1  0  0  0  0
  9 10  1  1  0  0  0
  9 14  1  0  0  0  0
 11 16  1  0  0  0  0
 12 13  1  1  0  0  0
 12 17  1  0  0  0  0
 14 15  1  6  0  0  0
 14 18  1  0  0  0  0
 15 31  1  0  0  0  0
 16 20  1  0  0  0  0
 17  2  1  6  0  0  0
 17 22  1  0  0  0  0
 18 19  1  6  0  0  0
 18 24  1  0  0  0  0
 18 30  1  0  0  0  0
 20 21  1  0  0  0  0
 20 26  1  6  0  0  0
 22 23  1  1  0  0  0
 22 28  1  0  0  0  0
 24 25  1  0  0  0  0
 26 27  1  0  0  0  0
 28 29  1  6  0  0  0
M  END
>  <CHROM.1>
170.64839376,-164.84101033,-134.03961005,26.86619975,137.43726870,-58.88560230
3.04625250,5.86501684,0.10815889,-1.37753868,0.63798747,2.99107802

>  <Name>
ligand

>  <RI>
0

>  <Rbt.Current_Directory>
/home/itssahil/PROJECTS/Mol_Feturizer/New_Systems/rnas/4GPX

>  <Rbt.Executable>
rbdock ($Id: //depot/dev/client3/rdock/2013.1/src/exe/rbdock.cxx#4 $)

>  <Rbt.Library>
libRbt.so (2013.1, Build901 2013/11/27)

>  <Rbt.Parameter_File>
/export/apps/rDock/src/rDock_2013.1_src/data/scripts/dock_solv.prm

>  <Rbt.Receptor>
prm/blind_docking_40.prm

>  <SCORE>
-5.66016

>  <SCORE.INTER>
-6.98312

>  <SCORE.INTER.CONST>
1

>  <SCORE.INTER.POLAR>
0

>  <SCORE.INTER.ROT>
6

>  <SCORE.INTER.SOLV>
20.0557

>  <SCORE.INTER.VDW>
-18.9406

>  <SCORE.INTER.norm>
-0.225262

>  <SCORE.INTRA>
-4.78187

>  <SCORE.INTRA.DIHEDRAL>
-11.8843

>  <SCORE.INTRA.DIHEDRAL.0>
20.6841

>  <SCORE.INTRA.POLAR>
0

>  <SCORE.INTRA.POLAR.0>
0

>  <SCORE.INTRA.REPUL>
0

>  <SCORE.INTRA.REPUL.0>
0

>  <SCORE.INTRA.SOLV>
0.523834

>  <SCORE.INTRA.SOLV.lig_0>
-64.6797

>  <SCORE.INTRA.VDW>
0.898343

>  <SCORE.INTRA.VDW.0>
-4.11825

>  <SCORE.INTRA.norm>
-0.154254

>  <SCORE.RESTR>
6.10482

>  <SCORE.RESTR.CAVITY>
6.10482

>  <SCORE.RESTR.norm>
0.19693

>  <SCORE.SYSTEM>
0

>  <SCORE.SYSTEM.CONST>
0

>  <SCORE.SYSTEM.DIHEDRAL>
0

>  <SCORE.SYSTEM.SOLV>
0

>  <SCORE.SYSTEM.norm>
0

>  <SCORE.heavy>
31

>  <SCORE.norm>
-0.182586

>  <RMSD>
12.759

$$$$
ligand
 OpenBabel11021811493D
libRbt.so/2013.1/901 2013/11/27
 31 33  0  0  0  0  0  0  0  0999 V2000
    4.5616    8.8545    2.5351 C   0  0  2  0  0  0  0  0  0  0  0  0
    5.3765    8.0935    3.4217 O   0  0  0  0  0  0  0  0  0  0  0  0
    5.7646    4.2910    1.5578 C   0  0  2  0  0  0  0  0  0  0  0  0
    6.0092    2.8905    1.3970 N   0  0  0  0  0  0  0  0  0  0  0  0
    2.7599    4.3804    0.8499 C   0  0  2  0  0  0  0  0  0  0  0  0
    4.7955   10.3764    2.9026 C   0  0  2  0  0  0  0  0  0  0  0  0
    6.2124   10.6854    2.7413 N   0  0  0  0  0  0  0  0  0  0  0  0
    7.0785    4.9644    2.1325 C   0  0  0  0  0  0  0  0  0  0  0  0
    1.4140    3.5911    0.7858 C   0  0  2  0  0  0  0  0  0  0  0  0
    0.6883    3.8524    1.9681 O   0  0  0  0  0  0  0  0  0  0  0  0
    4.3270   10.6630    4.3849 C   0  0  0  0  0  0  0  0  0  0  0  0
    6.8120    6.5057    2.3134 C   0  0  2  0  0  0  0  0  0  0  0  0
    8.0288    7.1366    2.8528 N   0  0  0  0  0  0  0  0  0  0  0  0
    1.7746    2.0612    0.6712 C   0  0  1  0  0  0  0  0  0  0  0  0
    0.5157    1.2462    0.6255 N   0  0  0  0  0  0  0  0  0  0  0  0
    3.0160    9.8550    4.7699 C   0  0  0  0  0  0  0  0  0  0  0  0
    5.5886    6.7283    3.3081 C   0  0  2  0  0  0  0  0  0  0  0  0
    2.6100    1.8440   -0.7119 C   0  0  1  0  0  0  0  0  0  0  0  0
    1.8793    2.2602   -1.8531 O   0  0  0  0  0  0  0  0  0  0  0  0
    2.5261    8.8841    3.9544 C   0  0  2  0  0  0  0  0  0  0  0  0
    3.1514    8.5336    2.7143 O   0  0  0  0  0  0  0  0  0  0  0  0
    4.3011    6.0419    2.7186 C   0  0  2  0  0  0  0  0  0  0  0  0
    3.1999    6.2400    3.6311 O   0  0  0  0  0  0  0  0  0  0  0  0
    3.9243    2.6897   -0.6776 C   0  0  0  0  0  0  0  0  0  0  0  0
    3.5812    4.1297   -0.4009 O   0  0  0  0  0  0  0  0  0  0  0  0
    1.2657    8.0806    4.2805 C   0  0  0  0  0  0  0  0  0  0  0  0
    1.1155    8.0442    5.7194 O   0  0  0  0  0  0  0  0  0  0  0  0
    4.5786    4.5007    2.5663 C   0  0  1  0  0  0  0  0  0  0  0  0
    3.4250    3.9025    2.0643 O   0  0  0  0  0  0  0  0  0  0  0  0
    3.0484    0.3853   -0.9873 C   0  0  0  0  0  0  0  0  0  0  0  0
   -0.3980    1.5020   -0.5067 C   0  0  0  0  0  0  0  0  0  0  0  0
  1  2  1  1  0  0  0
  1  6  1  0  0  0  0
  1 21  1  0  0  0  0
  3  4  1  1  0  0  0
  3  8  1  0  0  0  0
  3 28  1  0  0  0  0
  5  9  1  0  0  0  0
  5 25  1  0  0  0  0
  5 29  1  1  0  0  0
  6  7  1  1  0  0  0
  6 11  1  0  0  0  0
  8 12  1  0  0  0  0
  9 10  1  1  0  0  0
  9 14  1  0  0  0  0
 11 16  1  0  0  0  0
 12 13  1  1  0  0  0
 12 17  1  0  0  0  0
 14 15  1  6  0  0  0
 14 18  1  0  0  0  0
 15 31  1  0  0  0  0
 16 20  1  0  0  0  0
 17  2  1  6  0  0  0
 17 22  1  0  0  0  0
 18 19  1  6  0  0  0
 18 24  1  0  0  0  0
 18 30  1  0  0  0  0
 20 21  1  0  0  0  0
 20 26  1  6  0  0  0
 22 23  1  1  0  0  0
 22 28  1  0  0  0  0
 24 25  1  0  0  0  0
 26 27  1  0  0  0  0
 28 29  1  6  0  0  0
M  END
>  <CHROM.1>
-171.15820333,-171.20135905,61.20681440,86.57782920,-27.05440791,-65.83112815
3.59556578,5.57414324,1.99191497,-1.28540124,-0.13301959,-2.59679831

>  <Name>
ligand

>  <RI>
0

>  <Rbt.Current_Directory>
/home/itssahil/PROJECTS/Mol_Feturizer/New_Systems/rnas/4GPX

>  <Rbt.Executable>
rbdock ($Id: //depot/dev/client3/rdock/2013.1/src/exe/rbdock.cxx#4 $)

>  <Rbt.Library>
libRbt.so (2013.1, Build901 2013/11/27)

>  <Rbt.Parameter_File>
/export/apps/rDock/src/rDock_2013.1_src/data/scripts/dock_solv.prm

>  <Rbt.Receptor>
prm/blind_docking_80.prm

>  <SCORE>
17.6303

>  <SCORE.INTER>
6.37583

>  <SCORE.INTER.CONST>
1

>  <SCORE.INTER.POLAR>
0

>  <SCORE.INTER.ROT>
6

>  <SCORE.INTER.SOLV>
17.8117

>  <SCORE.INTER.VDW>
-9.28667

>  <SCORE.INTER.norm>
0.205672

>  <SCORE.INTRA>
0.0314258

>  <SCORE.INTRA.DIHEDRAL>
-14.2972

>  <SCORE.INTRA.DIHEDRAL.0>
20.6841

>  <SCORE.INTRA.POLAR>
0

>  <SCORE.INTRA.POLAR.0>
0

>  <SCORE.INTRA.REPUL>
0

>  <SCORE.INTRA.REPUL.0>
0

>  <SCORE.INTRA.SOLV>
0.954227

>  <SCORE.INTRA.SOLV.lig_0>
-64.6797

>  <SCORE.INTRA.VDW>
6.70291

>  <SCORE.INTRA.VDW.0>
-4.11825

>  <SCORE.INTRA.norm>
0.00101373

>  <SCORE.RESTR>
11.2231

>  <SCORE.RESTR.CAVITY>
11.2231

>  <SCORE.RESTR.norm>
0.362035

>  <SCORE.SYSTEM>
0

>  <SCORE.SYSTEM.CONST>
0

>  <SCORE.SYSTEM.DIHEDRAL>
0

>  <SCORE.SYSTEM.SOLV>
0

>  <SCORE.SYSTEM.norm>
0

>  <SCORE.heavy>
31

>  <SCORE.norm>
0.56872

>  <RMSD>
12.773

$$$$
ligand
 OpenBabel11021811493D
libRbt.so/2013.1/901 2013/11/27
 31 33  0  0  0  0  0  0  0  0999 V2000
    4.1646    9.1915   -0.7782 C   0  0  2  0  0  0  0  0  0  0  0  0
    3.4992    9.1373    0.4802 O   0  0  0  0  0  0  0  0  0  0  0  0
    5.0032    5.5522    2.2032 C   0  0  2  0  0  0  0  0  0  0  0  0
    5.2863    4.5440    3.1781 N   0  0  0  0  0  0  0  0  0  0  0  0
    2.8125    4.1454    0.1762 C   0  0  2  0  0  0  0  0  0  0  0  0
    3.5199   10.3965   -1.5771 C   0  0  2  0  0  0  0  0  0  0  0  0
    3.7070   11.6225   -0.8083 N   0  0  0  0  0  0  0  0  0  0  0  0
    5.6132    6.9231    2.7115 C   0  0  0  0  0  0  0  0  0  0  0  0
    1.4569    3.3834    0.0336 C   0  0  2  0  0  0  0  0  0  0  0  0
    0.4211    4.2302    0.4841 O   0  0  0  0  0  0  0  0  0  0  0  0
    1.9834   10.1275   -1.8335 C   0  0  0  0  0  0  0  0  0  0  0  0
    5.3012    8.0359    1.6420 C   0  0  2  0  0  0  0  0  0  0  0  0
    5.8614    9.3146    2.1118 N   0  0  0  0  0  0  0  0  0  0  0  0
    1.5538    2.0870    0.9244 C   0  0  1  0  0  0  0  0  0  0  0  0
    0.2671    1.3196    0.8435 N   0  0  0  0  0  0  0  0  0  0  0  0
    1.6826    8.6009   -2.1475 C   0  0  0  0  0  0  0  0  0  0  0  0
    3.7268    8.1647    1.4414 C   0  0  2  0  0  0  0  0  0  0  0  0
    2.7690    1.1679    0.3439 C   0  0  1  0  0  0  0  0  0  0  0  0
    2.5739    0.8134   -1.0147 O   0  0  0  0  0  0  0  0  0  0  0  0
    2.6406    7.6501   -1.9866 C   0  0  2  0  0  0  0  0  0  0  0  0
    3.9627    7.9601   -1.5310 O   0  0  0  0  0  0  0  0  0  0  0  0
    3.1463    6.7883    0.9466 C   0  0  2  0  0  0  0  0  0  0  0  0
    1.7178    6.9112    0.7771 O   0  0  0  0  0  0  0  0  0  0  0  0
    4.1161    1.9573    0.4212 C   0  0  0  0  0  0  0  0  0  0  0  0
    3.9621    3.2738   -0.2936 O   0  0  0  0  0  0  0  0  0  0  0  0
    2.3997    6.1678   -2.2784 C   0  0  0  0  0  0  0  0  0  0  0  0
    3.6576    5.5797   -2.6861 O   0  0  0  0  0  0  0  0  0  0  0  0
    3.4477    5.6950    2.0372 C   0  0  1  0  0  0  0  0  0  0  0  0
    2.9104    4.4874    1.5970 O   0  0  0  0  0  0  0  0  0  0  0  0
    3.0067   -0.1576    1.1070 C   0  0  0  0  0  0  0  0  0  0  0  0
   -0.2294    1.0001   -0.5106 C   0  0  0  0  0  0  0  0  0  0  0  0
  1  2  1  1  0  0  0
  1  6  1  0  0  0  0
  1 21  1  0  0  0  0
  3  4  1  1  0  0  0
  3  8  1  0  0  0  0
  3 28  1  0  0  0  0
  5  9  1  0  0  0  0
  5 25  1  0  0  0  0
  5 29  1  1  0  0  0
  6  7  1  1  0  0  0
  6 11  1  0  0  0  0
  8 12  1  0  0  0  0
  9 10  1  1  0  0  0
  9 14  1  0  0  0  0
 11 16  1  0  0  0  0
 12 13  1  1  0  0  0
 12 17  1  0  0  0  0
 14 15  1  6  0  0  0
 14 18  1  0  0  0  0
 15 31  1  0  0  0  0
 16 20  1  0  0  0  0
 17  2  1  6  0  0  0
 17 22  1  0  0  0  0
 18 19  1  6  0  0  0
 18 24  1  0  0  0  0
 18 30  1  0  0  0  0
 20 21  1  0  0  0  0
 20 26  1  6  0  0  0
 22 23  1  1  0  0  0
 22 28  1  0  0  0  0
 24 25  1  0  0  0  0
 26 27  1  0  0  0  0
 28 29  1  6  0  0  0
M  END
>  <CHROM.1>
176.14369582,-142.50647768,52.49913167,48.65955279,150.55424244,-87.66111339
3.07293333,5.64266563,0.17008735,1.24713333,-0.84916382,-0.33972077

>  <Name>
ligand

>  <RI>
0

>  <Rbt.Current_Directory>
/home/itssahil/PROJECTS/Mol_Feturizer/New_Systems/rnas/4GPX

>  <Rbt.Executable>
rbdock ($Id: //depot/dev/client3/rdock/2013.1/src/exe/rbdock.cxx#4 $)

>  <Rbt.Library>
libRbt.so (2013.1, Build901 2013/11/27)

>  <Rbt.Parameter_File>
/export/apps/rDock/src/rDock_2013.1_src/data/scripts/dock_solv.prm

>  <Rbt.Receptor>
prm/blind_docking_40.prm

>  <SCORE>
-1.56614

>  <SCORE.INTER>
-6.08445

>  <SCORE.INTER.CONST>
1

>  <SCORE.INTER.POLAR>
0

>  <SCORE.INTER.ROT>
6

>  <SCORE.INTER.SOLV>
20.6972

>  <SCORE.INTER.VDW>
-18.5554

>  <SCORE.INTER.norm>
-0.196273

>  <SCORE.INTRA>
-1.69723

>  <SCORE.INTRA.DIHEDRAL>
-9.1348

>  <SCORE.INTRA.DIHEDRAL.0>
20.6841

>  <SCORE.INTRA.POLAR>
0

>  <SCORE.INTRA.POLAR.0>
0

>  <SCORE.INTRA.REPUL>
0

>  <SCORE.INTRA.REPUL.0>
0

>  <SCORE.INTRA.SOLV>
-0.108507

>  <SCORE.INTRA.SOLV.lig_0>
-64.6797

>  <SCORE.INTRA.VDW>
2.92443

>  <SCORE.INTRA.VDW.0>
-4.11825

>  <SCORE.INTRA.norm>
-0.0547493

>  <SCORE.RESTR>
6.21554

>  <SCORE.RESTR.CAVITY>
6.21554

>  <SCORE.RESTR.norm>
0.200501

>  <SCORE.SYSTEM>
0

>  <SCORE.SYSTEM.CONST>
0

>  <SCORE.SYSTEM.DIHEDRAL>
0

>  <SCORE.SYSTEM.SOLV>
0

>  <SCORE.SYSTEM.norm>
0

>  <SCORE.heavy>
31

>  <SCORE.norm>
-0.0505207

>  <RMSD>
12.777

$$$$
ligand
 OpenBabel11021811493D
libRbt.so/2013.1/901 2013/11/27
 31 33  0  0  0  0  0  0  0  0999 V2000
    4.0733    9.8670   -0.1161 C   0  0  2  0  0  0  0  0  0  0  0  0
    3.4210    9.3253    1.0285 O   0  0  0  0  0  0  0  0  0  0  0  0
    4.9105    5.3597    1.4016 C   0  0  2  0  0  0  0  0  0  0  0  0
    5.3233    4.1289    2.0031 N   0  0  0  0  0  0  0  0  0  0  0  0
    2.5921    4.2859   -0.2528 C   0  0  2  0  0  0  0  0  0  0  0  0
    3.2093   11.1092   -0.5813 C   0  0  2  0  0  0  0  0  0  0  0  0
    3.1427   12.0708    0.5143 N   0  0  0  0  0  0  0  0  0  0  0  0
    5.7820    6.5320    2.0149 C   0  0  0  0  0  0  0  0  0  0  0  0
    1.3673    3.3369   -0.4474 C   0  0  2  0  0  0  0  0  0  0  0  0
    0.2127    3.9986    0.0234 O   0  0  0  0  0  0  0  0  0  0  0  0
    1.7591   10.6436   -1.0041 C   0  0  0  0  0  0  0  0  0  0  0  0
    5.3284    7.8888    1.3569 C   0  0  2  0  0  0  0  0  0  0  0  0
    6.1318    8.9836    1.9275 N   0  0  0  0  0  0  0  0  0  0  0  0
    1.6503    2.0314    0.3888 C   0  0  1  0  0  0  0  0  0  0  0  0
    0.4940    1.0846    0.2566 N   0  0  0  0  0  0  0  0  0  0  0  0
    1.7700    9.2463   -1.7573 C   0  0  0  0  0  0  0  0  0  0  0  0
    3.7810    8.1349    1.6409 C   0  0  2  0  0  0  0  0  0  0  0  0
    2.9942    1.3309   -0.2125 C   0  0  1  0  0  0  0  0  0  0  0  0
    2.8655    1.0116   -1.5876 O   0  0  0  0  0  0  0  0  0  0  0  0
    2.8962    8.4870   -1.8097 C   0  0  2  0  0  0  0  0  0  0  0  0
    4.1264    8.8929   -1.1988 O   0  0  0  0  0  0  0  0  0  0  0  0
    2.9408    6.9527    1.0307 C   0  0  2  0  0  0  0  0  0  0  0  0
    1.5407    7.1788    1.3014 O   0  0  0  0  0  0  0  0  0  0  0  0
    4.2071    2.3085   -0.0820 C   0  0  0  0  0  0  0  0  0  0  0  0
    3.8632    3.6175   -0.7424 O   0  0  0  0  0  0  0  0  0  0  0  0
    2.9568    7.1360   -2.5251 C   0  0  0  0  0  0  0  0  0  0  0  0
    4.1878    7.0841   -3.2841 O   0  0  0  0  0  0  0  0  0  0  0  0
    3.3918    5.6100    1.7157 C   0  0  1  0  0  0  0  0  0  0  0  0
    2.6261    4.5756    1.1825 O   0  0  0  0  0  0  0  0  0  0  0  0
    3.4219    0.0234    0.4970 C   0  0  0  0  0  0  0  0  0  0  0  0
   -0.0831    0.5646    1.5131 C   0  0  0  0  0  0  0  0  0  0  0  0
  1  2  1  1  0  0  0
  1  6  1  0  0  0  0
  1 21  1  0  0  0  0
  3  4  1  1  0  0  0
  3  8  1  0  0  0  0
  3 28  1  0  0  0  0
  5  9  1  0  0  0  0
  5 25  1  0  0  0  0
  5 29  1  1  0  0  0
  6  7  1  1  0  0  0
  6 11  1  0  0  0  0
  8 12  1  0  0  0  0
  9 10  1  1  0  0  0
  9 14  1  0  0  0  0
 11 16  1  0  0  0  0
 12 13  1  1  0  0  0
 12 17  1  0  0  0  0
 14 15  1  6  0  0  0
 14 18  1  0  0  0  0
 15 31  1  0  0  0  0
 16 20  1  0  0  0  0
 17  2  1  6  0  0  0
 17 22  1  0  0  0  0
 18 19  1  6  0  0  0
 18 24  1  0  0  0  0
 18 30  1  0  0  0  0
 20 21  1  0  0  0  0
 20 26  1  6  0  0  0
 22 23  1  1  0  0  0
 22 28  1  0  0  0  0
 24 25  1  0  0  0  0
 26 27  1  0  0  0  0
 28 29  1  6  0  0  0
M  END
>  <CHROM.1>
172.24561341,-165.74791781,-128.29870029,26.89016031,136.24562256,-61.06895099
3.10536896,5.86643590,0.11465342,-1.35114955,0.68192735,2.96198917

>  <Name>
ligand

>  <RI>
0

>  <Rbt.Current_Directory>
/home/itssahil/PROJECTS/Mol_Feturizer/New_Systems/rnas/4GPX

>  <Rbt.Executable>
rbdock ($Id: //depot/dev/client3/rdock/2013.1/src/exe/rbdock.cxx#4 $)

>  <Rbt.Library>
libRbt.so (2013.1, Build901 2013/11/27)

>  <Rbt.Parameter_File>
/export/apps/rDock/src/rDock_2013.1_src/data/scripts/dock_solv.prm

>  <Rbt.Receptor>
prm/blind_docking_40.prm

>  <SCORE>
-5.31525

>  <SCORE.INTER>
-6.41565

>  <SCORE.INTER.CONST>
1

>  <SCORE.INTER.POLAR>
0

>  <SCORE.INTER.ROT>
6

>  <SCORE.INTER.SOLV>
20.6463

>  <SCORE.INTER.VDW>
-18.7592

>  <SCORE.INTER.norm>
-0.206956

>  <SCORE.INTRA>
-4.98206

>  <SCORE.INTRA.DIHEDRAL>
-12.0856

>  <SCORE.INTRA.DIHEDRAL.0>
20.6841

>  <SCORE.INTRA.POLAR>
0

>  <SCORE.INTRA.POLAR.0>
0

>  <SCORE.INTRA.REPUL>
0

>  <SCORE.INTRA.REPUL.0>
0

>  <SCORE.INTRA.SOLV>
0.477822

>  <SCORE.INTRA.SOLV.lig_0>
-64.6797

>  <SCORE.INTRA.VDW>
0.821808

>  <SCORE.INTRA.VDW.0>
-4.11825

>  <SCORE.INTRA.norm>
-0.160712

>  <SCORE.RESTR>
6.08246

>  <SCORE.RESTR.CAVITY>
6.08246

>  <SCORE.RESTR.norm>
0.196208

>  <SCORE.SYSTEM>
0

>  <SCORE.SYSTEM.CONST>
0

>  <SCORE.SYSTEM.DIHEDRAL>
0

>  <SCORE.SYSTEM.SOLV>
0

>  <SCORE.SYSTEM.norm>
0

>  <SCORE.heavy>
31

>  <SCORE.norm>
-0.17146

>  <RMSD>
12.781

$$$$
ligand
 OpenBabel11021811493D
libRbt.so/2013.1/901 2013/11/27
 31 33  0  0  0  0  0  0  0  0999 V2000
    4.0705    9.7209   -0.2891 C   0  0  2  0  0  0  0  0  0  0  0  0
    3.3946    9.1795    0.8419 O   0  0  0  0  0  0  0  0  0  0  0  0
    5.1802    5.3940    1.5937 C   0  0  2  0  0  0  0  0  0  0  0  0
    5.6808    4.2614    2.3104 N   0  0  0  0  0  0  0  0  0  0  0  0
    2.8027    4.0969    0.0272 C   0  0  2  0  0  0  0  0  0  0  0  0
    3.2288   10.9767   -0.7585 C   0  0  2  0  0  0  0  0  0  0  0  0
    3.1576   11.9316    0.3425 N   0  0  0  0  0  0  0  0  0  0  0  0
    5.9539    6.6829    2.0938 C   0  0  0  0  0  0  0  0  0  0  0  0
    1.4258    3.3665   -0.0698 C   0  0  2  0  0  0  0  0  0  0  0  0
    0.4280    4.2299    0.4317 O   0  0  0  0  0  0  0  0  0  0  0  0
    1.7794   10.5317   -1.2060 C   0  0  0  0  0  0  0  0  0  0  0  0
    5.4036    7.9321    1.3087 C   0  0  2  0  0  0  0  0  0  0  0  0
    6.1156    9.1348    1.7735 N   0  0  0  0  0  0  0  0  0  0  0  0
    1.5293    2.0572    0.8011 C   0  0  1  0  0  0  0  0  0  0  0  0
    0.2236    1.3190    0.7629 N   0  0  0  0  0  0  0  0  0  0  0  0
    1.7845    9.1395   -1.9685 C   0  0  0  0  0  0  0  0  0  0  0  0
    3.8394    8.0840    1.5656 C   0  0  2  0  0  0  0  0  0  0  0  0
    2.6996    1.1192    0.1616 C   0  0  1  0  0  0  0  0  0  0  0  0
    2.4427    0.7862   -1.1921 O   0  0  0  0  0  0  0  0  0  0  0  0
    2.9020    8.3668   -2.0095 C   0  0  2  0  0  0  0  0  0  0  0  0
    4.1279    8.7534   -1.3776 O   0  0  0  0  0  0  0  0  0  0  0  0
    3.0976    6.7879    1.0696 C   0  0  2  0  0  0  0  0  0  0  0  0
    1.6820    6.9301    1.3153 O   0  0  0  0  0  0  0  0  0  0  0  0
    4.0660    1.8780    0.1941 C   0  0  0  0  0  0  0  0  0  0  0  0
    3.9130    3.2065   -0.4985 O   0  0  0  0  0  0  0  0  0  0  0  0
    2.9568    7.0200   -2.7331 C   0  0  0  0  0  0  0  0  0  0  0  0
    3.2553    5.9959   -1.7551 O   0  0  0  0  0  0  0  0  0  0  0  0
    3.6441    5.5551    1.8802 C   0  0  1  0  0  0  0  0  0  0  0  0
    2.9647    4.4188    1.4468 O   0  0  0  0  0  0  0  0  0  0  0  0
    2.9379   -0.2206    0.8990 C   0  0  0  0  0  0  0  0  0  0  0  0
   -0.3127    0.9908   -0.5738 C   0  0  0  0  0  0  0  0  0  0  0  0
  1  2  1  1  0  0  0
  1  6  1  0  0  0  0
  1 21  1  0  0  0  0
  3  4  1  1  0  0  0
  3  8  1  0  0  0  0
  3 28  1  0  0  0  0
  5  9  1  0  0  0  0
  5 25  1  0  0  0  0
  5 29  1  1  0  0  0
  6  7  1  1  0  0  0
  6 11  1  0  0  0  0
  8 12  1  0  0  0  0
  9 10  1  1  0  0  0
  9 14  1  0  0  0  0
 11 16  1  0  0  0  0
 12 13  1  1  0  0  0
 12 17  1  0  0  0  0
 14 15  1  6  0  0  0
 14 18  1  0  0  0  0
 15 31  1  0  0  0  0
 16 20  1  0  0  0  0
 17  2  1  6  0  0  0
 17 22  1  0  0  0  0
 18 19  1  6  0  0  0
 18 24  1  0  0  0  0
 18 30  1  0  0  0  0
 20 21  1  0  0  0  0
 20 26  1  6  0  0  0
 22 23  1  1  0  0  0
 22 28  1  0  0  0  0
 24 25  1  0  0  0  0
 26 27  1  0  0  0  0
 28 29  1  6  0  0  0
M  END
>  <CHROM.1>
-178.33118095,-147.95661327,54.32963364,21.89090122,-118.65560445,-70.08248674
3.08371489,5.75834437,0.18839615,1.33103274,-0.64810369,-0.19025788

>  <Name>
ligand

>  <RI>
0

>  <Rbt.Current_Directory>
/home/itssahil/PROJECTS/Mol_Feturizer/New_Systems/rnas/4GPX

>  <Rbt.Executable>
rbdock ($Id: //depot/dev/client3/rdock/2013.1/src/exe/rbdock.cxx#4 $)

>  <Rbt.Library>
libRbt.so (2013.1, Build901 2013/11/27)

>  <Rbt.Parameter_File>
/export/apps/rDock/src/rDock_2013.1_src/data/scripts/dock_solv.prm

>  <Rbt.Receptor>
prm/blind_docking_40.prm

>  <SCORE>
-2.87468

>  <SCORE.INTER>
-8.23565

>  <SCORE.INTER.CONST>
1

>  <SCORE.INTER.POLAR>
0

>  <SCORE.INTER.ROT>
6

>  <SCORE.INTER.SOLV>
19.1638

>  <SCORE.INTER.VDW>
-19.4784

>  <SCORE.INTER.norm>
-0.265666

>  <SCORE.INTRA>
-0.499183

>  <SCORE.INTRA.DIHEDRAL>
-9.39269

>  <SCORE.INTRA.DIHEDRAL.0>
20.6841

>  <SCORE.INTRA.POLAR>
0

>  <SCORE.INTRA.POLAR.0>
0

>  <SCORE.INTRA.REPUL>
0

>  <SCORE.INTRA.REPUL.0>
0

>  <SCORE.INTRA.SOLV>
1.4626

>  <SCORE.INTRA.SOLV.lig_0>
-64.6797

>  <SCORE.INTRA.VDW>
3.46586

>  <SCORE.INTRA.VDW.0>
-4.11825

>  <SCORE.INTRA.norm>
-0.0161027

>  <SCORE.RESTR>
5.86015

>  <SCORE.RESTR.CAVITY>
5.86015

>  <SCORE.RESTR.norm>
0.189037

>  <SCORE.SYSTEM>
0

>  <SCORE.SYSTEM.CONST>
0

>  <SCORE.SYSTEM.DIHEDRAL>
0

>  <SCORE.SYSTEM.SOLV>
0

>  <SCORE.SYSTEM.norm>
0

>  <SCORE.heavy>
31

>  <SCORE.norm>
-0.0927316

>  <RMSD>
12.786

$$$$
ligand
 OpenBabel11021811493D
libRbt.so/2013.1/901 2013/11/27
 31 33  0  0  0  0  0  0  0  0999 V2000
    2.8370    2.4033    0.4831 C   0  0  2  0  0  0  0  0  0  0  0  0
    3.5543    3.3940   -0.2471 O   0  0  0  0  0  0  0  0  0  0  0  0
    5.2076    5.8168    2.8320 C   0  0  2  0  0  0  0  0  0  0  0  0
    5.9765    6.8395    3.4721 N   0  0  0  0  0  0  0  0  0  0  0  0
    3.4277    8.7666    2.5251 C   0  0  2  0  0  0  0  0  0  0  0  0
    1.9171    1.6509   -0.5627 C   0  0  2  0  0  0  0  0  0  0  0  0
    2.7646    1.0611   -1.5938 N   0  0  0  0  0  0  0  0  0  0  0  0
    6.1972    4.8804    2.0235 C   0  0  0  0  0  0  0  0  0  0  0  0
    2.2264    9.2505    1.6525 C   0  0  2  0  0  0  0  0  0  0  0  0
    1.0315    8.7880    2.2449 O   0  0  0  0  0  0  0  0  0  0  0  0
    0.8762    2.6542   -1.2022 C   0  0  0  0  0  0  0  0  0  0  0  0
    5.3538    3.7549    1.3154 C   0  0  2  0  0  0  0  0  0  0  0  0
    6.2684    2.8840    0.5573 N   0  0  0  0  0  0  0  0  0  0  0  0
    2.4174    8.6370    0.2135 C   0  0  1  0  0  0  0  0  0  0  0  0
    1.2778    9.0525   -0.6696 N   0  0  0  0  0  0  0  0  0  0  0  0
    0.3320    3.7106   -0.1498 C   0  0  0  0  0  0  0  0  0  0  0  0
    4.2856    4.4165    0.3372 C   0  0  2  0  0  0  0  0  0  0  0  0
    3.8139    9.2150   -0.3981 C   0  0  1  0  0  0  0  0  0  0  0  0
    3.8268   10.6309   -0.4652 O   0  0  0  0  0  0  0  0  0  0  0  0
    0.8936    3.8254    1.0827 C   0  0  2  0  0  0  0  0  0  0  0  0
    1.9950    3.0127    1.5046 O   0  0  0  0  0  0  0  0  0  0  0  0
    3.3232    5.3477    1.1635 C   0  0  2  0  0  0  0  0  0  0  0  0
    2.3648    5.9508    0.2678 O   0  0  0  0  0  0  0  0  0  0  0  0
    5.0100    8.7899    0.5144 C   0  0  0  0  0  0  0  0  0  0  0  0
    4.7403    9.2369    1.9270 O   0  0  0  0  0  0  0  0  0  0  0  0
    0.4031    4.8257    2.1312 C   0  0  0  0  0  0  0  0  0  0  0  0
   -0.0093    6.0309    1.4444 O   0  0  0  0  0  0  0  0  0  0  0  0
    4.1801    6.4778    1.8446 C   0  0  1  0  0  0  0  0  0  0  0  0
    3.3143    7.3067    2.5545 O   0  0  0  0  0  0  0  0  0  0  0  0
    4.1618    8.7113   -1.8197 C   0  0  0  0  0  0  0  0  0  0  0  0
    1.1389   10.4991   -0.9348 C   0  0  0  0  0  0  0  0  0  0  0  0
  1  2  1  6  0  0  0
  1  6  1  0  0  0  0
  1 21  1  0  0  0  0
  3  4  1  6  0  0  0
  3  8  1  0  0  0  0
  3 28  1  0  0  0  0
  5  9  1  0  0  0  0
  5 25  1  0  0  0  0
  5 29  1  6  0  0  0
  6  7  1  6  0  0  0
  6 11  1  0  0  0  0
  8 12  1  0  0  0  0
  9 10  1  1  0  0  0
  9 14  1  0  0  0  0
 11 16  1  0  0  0  0
 12 13  1  6  0  0  0
 12 17  1  0  0  0  0
 14 15  1  6  0  0  0
 14 18  1  0  0  0  0
 15 31  1  0  0  0  0
 16 20  1  0  0  0  0
 17  2  1  1  0  0  0
 17 22  1  0  0  0  0
 18 19  1  6  0  0  0
 18 24  1  0  0  0  0
 18 30  1  0  0  0  0
 20 21  1  0  0  0  0
 20 26  1  1  0  0  0
 22 23  1  6  0  0  0
 22 28  1  0  0  0  0
 24 25  1  0  0  0  0
 26 27  1  0  0  0  0
 28 29  1  1  0  0  0
M  END
>  <CHROM.1>
168.08689734,106.99074033,63.15337710,56.14769459,-35.81024082,104.66641405
3.04041711,6.10159904,0.77490661,-1.65289103,-0.34756085,0.04961142

>  <Name>
ligand

>  <RI>
0

>  <Rbt.Current_Directory>
/home/itssahil/PROJECTS/Mol_Feturizer/New_Systems/rnas/4GPX

>  <Rbt.Executable>
rbdock ($Id: //depot/dev/client3/rdock/2013.1/src/exe/rbdock.cxx#4 $)

>  <Rbt.Library>
libRbt.so (2013.1, Build901 2013/11/27)

>  <Rbt.Parameter_File>
/export/apps/rDock/src/rDock_2013.1_src/data/scripts/dock_solv.prm

>  <Rbt.Receptor>
prm/blind_docking_40.prm

>  <SCORE>
14.7597

>  <SCORE.INTER>
4.05591

>  <SCORE.INTER.CONST>
1

>  <SCORE.INTER.POLAR>
0

>  <SCORE.INTER.ROT>
6

>  <SCORE.INTER.SOLV>
13.9596

>  <SCORE.INTER.VDW>
-9.54927

>  <SCORE.INTER.norm>
0.130836

>  <SCORE.INTRA>
5.02291

>  <SCORE.INTRA.DIHEDRAL>
-4.49384

>  <SCORE.INTRA.DIHEDRAL.0>
20.6841

>  <SCORE.INTRA.POLAR>
0

>  <SCORE.INTRA.POLAR.0>
0

>  <SCORE.INTRA.REPUL>
0.00790753

>  <SCORE.INTRA.REPUL.0>
0

>  <SCORE.INTRA.SOLV>
1.81136

>  <SCORE.INTRA.SOLV.lig_0>
-64.6797

>  <SCORE.INTRA.VDW>
6.32462

>  <SCORE.INTRA.VDW.0>
-4.11825

>  <SCORE.INTRA.norm>
0.162029

>  <SCORE.RESTR>
5.6809

>  <SCORE.RESTR.CAVITY>
5.6809

>  <SCORE.RESTR.norm>
0.183255

>  <SCORE.SYSTEM>
0

>  <SCORE.SYSTEM.CONST>
0

>  <SCORE.SYSTEM.DIHEDRAL>
0

>  <SCORE.SYSTEM.SOLV>
0

>  <SCORE.SYSTEM.norm>
0

>  <SCORE.heavy>
31

>  <SCORE.norm>
0.47612

>  <RMSD>
12.787

$$$$
ligand
 OpenBabel11021811493D
libRbt.so/2013.1/901 2013/11/27
 31 33  0  0  0  0  0  0  0  0999 V2000
    1.8335    2.5793    0.8628 C   0  0  2  0  0  0  0  0  0  0  0  0
    2.9433    3.0483    0.1027 O   0  0  0  0  0  0  0  0  0  0  0  0
    4.6104    6.1207    2.5245 C   0  0  2  0  0  0  0  0  0  0  0  0
    5.5620    7.0485    3.0543 N   0  0  0  0  0  0  0  0  0  0  0  0
    4.5472    8.7402    0.0592 C   0  0  2  0  0  0  0  0  0  0  0  0
    0.8199    1.9367   -0.1695 C   0  0  2  0  0  0  0  0  0  0  0  0
    1.4941    0.8524   -0.8758 N   0  0  0  0  0  0  0  0  0  0  0  0
    5.1949    4.6574    2.6895 C   0  0  0  0  0  0  0  0  0  0  0  0
    3.7341   10.0512    0.3019 C   0  0  2  0  0  0  0  0  0  0  0  0
    3.7312   10.3228    1.6871 O   0  0  0  0  0  0  0  0  0  0  0  0
    0.3040    3.0303   -1.1878 C   0  0  0  0  0  0  0  0  0  0  0  0
    4.1511    3.6335    2.1049 C   0  0  2  0  0  0  0  0  0  0  0  0
    4.6916    2.2711    2.2505 N   0  0  0  0  0  0  0  0  0  0  0  0
    2.2712    9.7980   -0.2269 C   0  0  1  0  0  0  0  0  0  0  0  0
    1.4325   11.0216   -0.0020 N   0  0  0  0  0  0  0  0  0  0  0  0
    0.0807    4.4412   -0.4956 C   0  0  0  0  0  0  0  0  0  0  0  0
    3.8798    3.9575    0.5696 C   0  0  2  0  0  0  0  0  0  0  0  0
    2.3607    9.4902   -1.8255 C   0  0  1  0  0  0  0  0  0  0  0  0
    2.9631   10.5525   -2.5452 O   0  0  0  0  0  0  0  0  0  0  0  0
    0.5063    4.6743    0.7741 C   0  0  2  0  0  0  0  0  0  0  0  0
    1.1727    3.6771    1.5570 O   0  0  0  0  0  0  0  0  0  0  0  0
    3.3100    5.4181    0.4340 C   0  0  2  0  0  0  0  0  0  0  0  0
    3.0766    5.7068   -0.9612 O   0  0  0  0  0  0  0  0  0  0  0  0
    3.2339    8.2174   -2.0736 C   0  0  0  0  0  0  0  0  0  0  0  0
    4.5777    8.4017   -1.4195 O   0  0  0  0  0  0  0  0  0  0  0  0
    0.3119    6.0154    1.4843 C   0  0  0  0  0  0  0  0  0  0  0  0
   -0.2059    5.7513    2.8096 O   0  0  0  0  0  0  0  0  0  0  0  0
    4.3750    6.4274    1.0020 C   0  0  1  0  0  0  0  0  0  0  0  0
    3.8677    7.7166    0.8564 O   0  0  0  0  0  0  0  0  0  0  0  0
    1.0021    9.2165   -2.5145 C   0  0  0  0  0  0  0  0  0  0  0  0
    0.9640   11.2587    1.3788 C   0  0  0  0  0  0  0  0  0  0  0  0
  1  2  1  6  0  0  0
  1  6  1  0  0  0  0
  1 21  1  0  0  0  0
  3  4  1  6  0  0  0
  3  8  1  0  0  0  0
  3 28  1  0  0  0  0
  5  9  1  0  0  0  0
  5 25  1  0  0  0  0
  5 29  1  1  0  0  0
  6  7  1  6  0  0  0
  6 11  1  0  0  0  0
  8 12  1  0  0  0  0
  9 10  1  1  0  0  0
  9 14  1  0  0  0  0
 11 16  1  0  0  0  0
 12 13  1  6  0  0  0
 12 17  1  0  0  0  0
 14 15  1  6  0  0  0
 14 18  1  0  0  0  0
 15 31  1  0  0  0  0
 16 20  1  0  0  0  0
 17  2  1  1  0  0  0
 17 22  1  0  0  0  0
 18 19  1  6  0  0  0
 18 24  1  0  0  0  0
 18 30  1  0  0  0  0
 20 21  1  0  0  0  0
 20 26  1  1  0  0  0
 22 23  1  6  0  0  0
 22 28  1  0  0  0  0
 24 25  1  0  0  0  0
 26 27  1  0  0  0  0
 28 29  1  1  0  0  0
M  END
>  <CHROM.1>
163.09924723,-173.73030435,-76.51061573,37.89819776,132.92403250,121.39496284
2.65716967,6.36219649,0.38565370,1.68027900,0.61140169,2.91772812

>  <Name>
ligand

>  <RI>
0

>  <Rbt.Current_Directory>
/home/itssahil/PROJECTS/Mol_Feturizer/New_Systems/rnas/4GPX

>  <Rbt.Executable>
rbdock ($Id: //depot/dev/client3/rdock/2013.1/src/exe/rbdock.cxx#4 $)

>  <Rbt.Library>
libRbt.so (2013.1, Build901 2013/11/27)

>  <Rbt.Parameter_File>
/export/apps/rDock/src/rDock_2013.1_src/data/scripts/dock_solv.prm

>  <Rbt.Receptor>
prm/blind_docking_40.prm

>  <SCORE>
3.3785

>  <SCORE.INTER>
-1.32102

>  <SCORE.INTER.CONST>
1

>  <SCORE.INTER.POLAR>
0

>  <SCORE.INTER.ROT>
6

>  <SCORE.INTER.SOLV>
14.0892

>  <SCORE.INTER.VDW>
-13.1771

>  <SCORE.INTER.norm>
-0.0426134

>  <SCORE.INTRA>
-2.81152

>  <SCORE.INTRA.DIHEDRAL>
-7.72564

>  <SCORE.INTRA.DIHEDRAL.0>
20.6841

>  <SCORE.INTRA.POLAR>
0

>  <SCORE.INTRA.POLAR.0>
0

>  <SCORE.INTRA.REPUL>
0

>  <SCORE.INTRA.REPUL.0>
0

>  <SCORE.INTRA.SOLV>
-1.0657

>  <SCORE.INTRA.SOLV.lig_0>
-64.6797

>  <SCORE.INTRA.VDW>
1.58415

>  <SCORE.INTRA.VDW.0>
-4.11825

>  <SCORE.INTRA.norm>
-0.0906942

>  <SCORE.RESTR>
7.51103

>  <SCORE.RESTR.CAVITY>
7.51103

>  <SCORE.RESTR.norm>
0.242291

>  <SCORE.SYSTEM>
0

>  <SCORE.SYSTEM.CONST>
0

>  <SCORE.SYSTEM.DIHEDRAL>
0

>  <SCORE.SYSTEM.SOLV>
0

>  <SCORE.SYSTEM.norm>
0

>  <SCORE.heavy>
31

>  <SCORE.norm>
0.108984

>  <RMSD>
12.789

$$$$
ligand
 OpenBabel11021811493D
libRbt.so/2013.1/901 2013/11/27
 31 33  0  0  0  0  0  0  0  0999 V2000
    3.7009    9.1598    2.4850 C   0  0  2  0  0  0  0  0  0  0  0  0
    4.4846    8.1458    1.8632 O   0  0  0  0  0  0  0  0  0  0  0  0
    2.2502    6.6304   -1.4224 C   0  0  2  0  0  0  0  0  0  0  0  0
    1.9508    6.1295   -2.7287 N   0  0  0  0  0  0  0  0  0  0  0  0
    1.7833    4.0585    0.5023 C   0  0  2  0  0  0  0  0  0  0  0  0
    4.3102    9.3777    3.9298 C   0  0  2  0  0  0  0  0  0  0  0  0
    5.7077    9.7751    3.7942 N   0  0  0  0  0  0  0  0  0  0  0  0
    2.8969    8.0685   -1.5753 C   0  0  0  0  0  0  0  0  0  0  0  0
    2.2717    2.6713    1.0276 C   0  0  2  0  0  0  0  0  0  0  0  0
    3.6153    2.8000    1.4408 O   0  0  0  0  0  0  0  0  0  0  0  0
    4.1869    8.0537    4.7846 C   0  0  0  0  0  0  0  0  0  0  0  0
    3.2303    8.6219   -0.1393 C   0  0  2  0  0  0  0  0  0  0  0  0
    3.8372    9.9571   -0.2754 N   0  0  0  0  0  0  0  0  0  0  0  0
    2.1433    1.6488   -0.1647 C   0  0  1  0  0  0  0  0  0  0  0  0
    2.6187    0.2954    0.2752 N   0  0  0  0  0  0  0  0  0  0  0  0
    2.8272    7.2824    4.5090 C   0  0  0  0  0  0  0  0  0  0  0  0
    4.2355    7.6325    0.5998 C   0  0  2  0  0  0  0  0  0  0  0  0
    0.5700    1.5595   -0.5832 C   0  0  1  0  0  0  0  0  0  0  0  0
   -0.2524    1.1545    0.4981 O   0  0  0  0  0  0  0  0  0  0  0  0
    2.0063    7.6508    3.4901 C   0  0  2  0  0  0  0  0  0  0  0  0
    2.3106    8.7422    2.6138 O   0  0  0  0  0  0  0  0  0  0  0  0
    3.5729    6.2111    0.7293 C   0  0  2  0  0  0  0  0  0  0  0  0
    4.4945    5.3183    1.3912 O   0  0  0  0  0  0  0  0  0  0  0  0
    0.0615    2.9646   -1.0425 C   0  0  0  0  0  0  0  0  0  0  0  0
    0.3404    3.9724    0.0413 O   0  0  0  0  0  0  0  0  0  0  0  0
    0.6856    6.9408    3.1868 C   0  0  0  0  0  0  0  0  0  0  0  0
    0.9770    5.7741    2.3817 O   0  0  0  0  0  0  0  0  0  0  0  0
    3.2680    5.6656   -0.7146 C   0  0  1  0  0  0  0  0  0  0  0  0
    2.7020    4.3992   -0.5864 O   0  0  0  0  0  0  0  0  0  0  0  0
    0.2588    0.5909   -1.7497 C   0  0  0  0  0  0  0  0  0  0  0  0
    4.0412   -0.0186    0.0305 C   0  0  0  0  0  0  0  0  0  0  0  0
  1  2  1  1  0  0  0
  1  6  1  0  0  0  0
  1 21  1  0  0  0  0
  3  4  1  6  0  0  0
  3  8  1  0  0  0  0
  3 28  1  0  0  0  0
  5  9  1  0  0  0  0
  5 25  1  0  0  0  0
  5 29  1  6  0  0  0
  6  7  1  6  0  0  0
  6 11  1  0  0  0  0
  8 12  1  0  0  0  0
  9 10  1  6  0  0  0
  9 14  1  0  0  0  0
 11 16  1  0  0  0  0
 12 13  1  6  0  0  0
 12 17  1  0  0  0  0
 14 15  1  1  0  0  0
 14 18  1  0  0  0  0
 15 31  1  0  0  0  0
 16 20  1  0  0  0  0
 17  2  1  1  0  0  0
 17 22  1  0  0  0  0
 18 19  1  1  0  0  0
 18 24  1  0  0  0  0
 18 30  1  0  0  0  0
 20 21  1  0  0  0  0
 20 26  1  1  0  0  0
 22 23  1  6  0  0  0
 22 28  1  0  0  0  0
 24 25  1  0  0  0  0
 26 27  1  0  0  0  0
 28 29  1  1  0  0  0
M  END
>  <CHROM.1>
177.44478641,-134.52877771,-92.28119222,15.22936256,-83.36299716,-82.15670990
2.60350258,5.48055861,0.93094464,-0.22209983,1.27190674,2.19123605

>  <Name>
ligand

>  <RI>
0

>  <Rbt.Current_Directory>
/home/itssahil/PROJECTS/Mol_Feturizer/New_Systems/rnas/4GPX

>  <Rbt.Executable>
rbdock ($Id: //depot/dev/client3/rdock/2013.1/src/exe/rbdock.cxx#4 $)

>  <Rbt.Library>
libRbt.so (2013.1, Build901 2013/11/27)

>  <Rbt.Parameter_File>
/export/apps/rDock/src/rDock_2013.1_src/data/scripts/dock_solv.prm

>  <Rbt.Receptor>
prm/blind_docking_40.prm

>  <SCORE>
11.9592

>  <SCORE.INTER>
1.36664

>  <SCORE.INTER.CONST>
1

>  <SCORE.INTER.POLAR>
0

>  <SCORE.INTER.ROT>
6

>  <SCORE.INTER.SOLV>
10.7411

>  <SCORE.INTER.VDW>
-10.2693

>  <SCORE.INTER.norm>
0.0440851

>  <SCORE.INTRA>
1.54492

>  <SCORE.INTRA.DIHEDRAL>
-2.52285

>  <SCORE.INTRA.DIHEDRAL.0>
20.6841

>  <SCORE.INTRA.POLAR>
0

>  <SCORE.INTRA.POLAR.0>
0

>  <SCORE.INTRA.REPUL>
0

>  <SCORE.INTRA.REPUL.0>
0

>  <SCORE.INTRA.SOLV>
0.669913

>  <SCORE.INTRA.SOLV.lig_0>
-64.6797

>  <SCORE.INTRA.VDW>
2.47139

>  <SCORE.INTRA.VDW.0>
-4.11825

>  <SCORE.INTRA.norm>
0.0498362

>  <SCORE.RESTR>
9.04763

>  <SCORE.RESTR.CAVITY>
9.04763

>  <SCORE.RESTR.norm>
0.291859

>  <SCORE.SYSTEM>
0

>  <SCORE.SYSTEM.CONST>
0

>  <SCORE.SYSTEM.DIHEDRAL>
0

>  <SCORE.SYSTEM.SOLV>
0

>  <SCORE.SYSTEM.norm>
0

>  <SCORE.heavy>
31

>  <SCORE.norm>
0.38578

>  <RMSD>
12.799

$$$$
ligand
 OpenBabel11021811493D
libRbt.so/2013.1/901 2013/11/27
 31 33  0  0  0  0  0  0  0  0999 V2000
    3.1437    7.7529    3.5777 C   0  0  2  0  0  0  0  0  0  0  0  0
    3.4745    6.4454    4.0361 O   0  0  0  0  0  0  0  0  0  0  0  0
    5.5929    4.7817    0.7453 C   0  0  2  0  0  0  0  0  0  0  0  0
    6.2849    3.8267   -0.0646 N   0  0  0  0  0  0  0  0  0  0  0  0
    3.4347    2.8896   -0.9527 C   0  0  2  0  0  0  0  0  0  0  0  0
    3.0630    8.6738    4.8628 C   0  0  2  0  0  0  0  0  0  0  0  0
    4.3540    8.6447    5.5424 N   0  0  0  0  0  0  0  0  0  0  0  0
    6.3670    4.9244    2.1202 C   0  0  0  0  0  0  0  0  0  0  0  0
    2.0108    2.8171   -1.5899 C   0  0  2  0  0  0  0  0  0  0  0  0
    1.8238    3.9632   -2.3924 O   0  0  0  0  0  0  0  0  0  0  0  0
    1.9137    8.1744    5.8265 C   0  0  0  0  0  0  0  0  0  0  0  0
    5.6065    5.9731    3.0155 C   0  0  2  0  0  0  0  0  0  0  0  0
    6.3188    6.1059    4.2979 N   0  0  0  0  0  0  0  0  0  0  0  0
    0.9708    2.7809   -0.4063 C   0  0  1  0  0  0  0  0  0  0  0  0
   -0.4233    2.7306   -0.9585 N   0  0  0  0  0  0  0  0  0  0  0  0
    0.6407    7.6591    5.0305 C   0  0  0  0  0  0  0  0  0  0  0  0
    4.1109    5.4861    3.2638 C   0  0  2  0  0  0  0  0  0  0  0  0
    1.2539    1.4357    0.4705 C   0  0  1  0  0  0  0  0  0  0  0  0
    1.1504    0.2549   -0.3068 O   0  0  0  0  0  0  0  0  0  0  0  0
    0.6783    7.4893    3.6824 C   0  0  2  0  0  0  0  0  0  0  0  0
    1.8506    7.7608    2.9055 O   0  0  0  0  0  0  0  0  0  0  0  0
    3.3692    5.3434    1.8833 C   0  0  2  0  0  0  0  0  0  0  0  0
    2.0178    4.8921    2.1171 O   0  0  0  0  0  0  0  0  0  0  0  0
    2.7050    1.4750    1.0508 C   0  0  0  0  0  0  0  0  0  0  0  0
    3.6847    1.6776   -0.0749 O   0  0  0  0  0  0  0  0  0  0  0  0
   -0.5223    6.9979    2.8714 C   0  0  0  0  0  0  0  0  0  0  0  0
   -1.5361    6.5441    3.7991 O   0  0  0  0  0  0  0  0  0  0  0  0
    4.1297    4.2763    1.0125 C   0  0  1  0  0  0  0  0  0  0  0  0
    3.4512    4.1441   -0.1970 O   0  0  0  0  0  0  0  0  0  0  0  0
    0.3142    1.2382    1.6845 C   0  0  0  0  0  0  0  0  0  0  0  0
   -1.0524    4.0261   -1.2873 C   0  0  0  0  0  0  0  0  0  0  0  0
  1  2  1  1  0  0  0
  1  6  1  0  0  0  0
  1 21  1  0  0  0  0
  3  4  1  6  0  0  0
  3  8  1  0  0  0  0
  3 28  1  0  0  0  0
  5  9  1  0  0  0  0
  5 25  1  0  0  0  0
  5 29  1  1  0  0  0
  6  7  1  1  0  0  0
  6 11  1  0  0  0  0
  8 12  1  0  0  0  0
  9 10  1  6  0  0  0
  9 14  1  0  0  0  0
 11 16  1  0  0  0  0
 12 13  1  1  0  0  0
 12 17  1  0  0  0  0
 14 15  1  6  0  0  0
 14 18  1  0  0  0  0
 15 31  1  0  0  0  0
 16 20  1  0  0  0  0
 17  2  1  1  0  0  0
 17 22  1  0  0  0  0
 18 19  1  6  0  0  0
 18 24  1  0  0  0  0
 18 30  1  0  0  0  0
 20 21  1  0  0  0  0
 20 26  1  6  0  0  0
 22 23  1  1  0  0  0
 22 28  1  0  0  0  0
 24 25  1  0  0  0  0
 26 27  1  0  0  0  0
 28 29  1  6  0  0  0
M  END
>  <CHROM.1>
-154.96752105,144.40508791,-86.07248242,68.75924099,-10.14792057,91.32676319
2.53976996,4.85678908,1.77253723,-1.42776492,0.02607121,-2.38894674

>  <Name>
ligand

>  <RI>
0

>  <Rbt.Current_Directory>
/home/itssahil/PROJECTS/Mol_Feturizer/New_Systems/rnas/4GPX

>  <Rbt.Executable>
rbdock ($Id: //depot/dev/client3/rdock/2013.1/src/exe/rbdock.cxx#4 $)

>  <Rbt.Library>
libRbt.so (2013.1, Build901 2013/11/27)

>  <Rbt.Parameter_File>
/export/apps/rDock/src/rDock_2013.1_src/data/scripts/dock_solv.prm

>  <Rbt.Receptor>
prm/blind_docking_80.prm

>  <SCORE>
7.74398

>  <SCORE.INTER>
1.25822

>  <SCORE.INTER.CONST>
1

>  <SCORE.INTER.POLAR>
0

>  <SCORE.INTER.ROT>
6

>  <SCORE.INTER.SOLV>
22.0288

>  <SCORE.INTER.VDW>
-14.1041

>  <SCORE.INTER.norm>
0.0405877

>  <SCORE.INTRA>
-1.93566

>  <SCORE.INTRA.DIHEDRAL>
-6.85425

>  <SCORE.INTRA.DIHEDRAL.0>
20.6841

>  <SCORE.INTRA.POLAR>
0

>  <SCORE.INTRA.POLAR.0>
0

>  <SCORE.INTRA.REPUL>
0

>  <SCORE.INTRA.REPUL.0>
0

>  <SCORE.INTRA.SOLV>
0.590821

>  <SCORE.INTRA.SOLV.lig_0>
-64.6797

>  <SCORE.INTRA.VDW>
1.19606

>  <SCORE.INTRA.VDW.0>
-4.11825

>  <SCORE.INTRA.norm>
-0.0624405

>  <SCORE.RESTR>
8.42142

>  <SCORE.RESTR.CAVITY>
8.42142

>  <SCORE.RESTR.norm>
0.271659

>  <SCORE.SYSTEM>
0

>  <SCORE.SYSTEM.CONST>
0

>  <SCORE.SYSTEM.DIHEDRAL>
0

>  <SCORE.SYSTEM.SOLV>
0

>  <SCORE.SYSTEM.norm>
0

>  <SCORE.heavy>
31

>  <SCORE.norm>
0.249806

>  <RMSD>
12.858

$$$$
ligand
 OpenBabel11021811493D
libRbt.so/2013.1/901 2013/11/27
 31 33  0  0  0  0  0  0  0  0999 V2000
    4.1230    9.4432   -0.4883 C   0  0  2  0  0  0  0  0  0  0  0  0
    3.2794    9.1148    0.6115 O   0  0  0  0  0  0  0  0  0  0  0  0
    4.9787    5.5364    2.1579 C   0  0  2  0  0  0  0  0  0  0  0  0
    5.2913    4.4817    3.0726 N   0  0  0  0  0  0  0  0  0  0  0  0
    3.6553    3.7864    0.1690 C   0  0  2  0  0  0  0  0  0  0  0  0
    3.3906   10.5954   -1.2896 C   0  0  2  0  0  0  0  0  0  0  0  0
    3.1902   11.7327   -0.3976 N   0  0  0  0  0  0  0  0  0  0  0  0
    5.4464    6.9078    2.7985 C   0  0  0  0  0  0  0  0  0  0  0  0
    2.4781    3.3947   -0.7794 C   0  0  2  0  0  0  0  0  0  0  0  0
    1.7216    4.5549   -1.0520 O   0  0  0  0  0  0  0  0  0  0  0  0
    2.0076   10.0792   -1.8550 C   0  0  0  0  0  0  0  0  0  0  0  0
    5.1015    8.0714    1.7953 C   0  0  2  0  0  0  0  0  0  0  0  0
    5.5293    9.3502    2.3881 N   0  0  0  0  0  0  0  0  0  0  0  0
    1.6088    2.3183   -0.0248 C   0  0  1  0  0  0  0  0  0  0  0  0
    0.4453    1.9153   -0.8822 N   0  0  0  0  0  0  0  0  0  0  0  0
    2.0826    8.5726   -2.3493 C   0  0  0  0  0  0  0  0  0  0  0  0
    3.5346    8.0923    1.5120 C   0  0  2  0  0  0  0  0  0  0  0  0
    2.5509    1.0172    0.2545 C   0  0  1  0  0  0  0  0  0  0  0  0
    3.0783    0.4681   -0.9412 O   0  0  0  0  0  0  0  0  0  0  0  0
    3.1733    7.8036   -2.0909 C   0  0  2  0  0  0  0  0  0  0  0  0
    4.3075    8.2959   -1.3678 O   0  0  0  0  0  0  0  0  0  0  0  0
    3.0960    6.7167    0.8862 C   0  0  2  0  0  0  0  0  0  0  0  0
    1.6732    6.7407    0.6420 O   0  0  0  0  0  0  0  0  0  0  0  0
    3.7687    1.4244    1.1463 C   0  0  0  0  0  0  0  0  0  0  0  0
    4.4998    2.5691    0.4960 O   0  0  0  0  0  0  0  0  0  0  0  0
    3.2934    6.3486   -2.5483 C   0  0  0  0  0  0  0  0  0  0  0  0
    2.0916    6.0063   -3.2783 O   0  0  0  0  0  0  0  0  0  0  0  0
    3.4277    5.5700    1.9111 C   0  0  1  0  0  0  0  0  0  0  0  0
    3.0152    4.3615    1.3543 O   0  0  0  0  0  0  0  0  0  0  0  0
    1.8512   -0.1485    0.9942 C   0  0  0  0  0  0  0  0  0  0  0  0
   -0.6273    2.9160   -1.0558 C   0  0  0  0  0  0  0  0  0  0  0  0
  1  2  1  1  0  0  0
  1  6  1  0  0  0  0
  1 21  1  0  0  0  0
  3  4  1  1  0  0  0
  3  8  1  0  0  0  0
  3 28  1  0  0  0  0
  5  9  1  0  0  0  0
  5 25  1  0  0  0  0
  5 29  1  1  0  0  0
  6  7  1  1  0  0  0
  6 11  1  0  0  0  0
  8 12  1  0  0  0  0
  9 10  1  1  0  0  0
  9 14  1  0  0  0  0
 11 16  1  0  0  0  0
 12 13  1  1  0  0  0
 12 17  1  0  0  0  0
 14 15  1  6  0  0  0
 14 18  1  0  0  0  0
 15 31  1  0  0  0  0
 16 20  1  0  0  0  0
 17  2  1  6  0  0  0
 17 22  1  0  0  0  0
 18 19  1  6  0  0  0
 18 24  1  0  0  0  0
 18 30  1  0  0  0  0
 20 21  1  0  0  0  0
 20 26  1  6  0  0  0
 22 23  1  1  0  0  0
 22 28  1  0  0  0  0
 24 25  1  0  0  0  0
 26 27  1  0  0  0  0
 28 29  1  6  0  0  0
M  END
>  <CHROM.1>
176.13702121,-131.84309105,-71.29995844,38.64164954,0.84258527,-51.74431101
3.10643307,5.70868502,0.03111261,1.30197379,-0.91220148,-0.26091718

>  <Name>
ligand

>  <RI>
0

>  <Rbt.Current_Directory>
/home/itssahil/PROJECTS/Mol_Feturizer/New_Systems/rnas/4GPX

>  <Rbt.Executable>
rbdock ($Id: //depot/dev/client3/rdock/2013.1/src/exe/rbdock.cxx#4 $)

>  <Rbt.Library>
libRbt.so (2013.1, Build901 2013/11/27)

>  <Rbt.Parameter_File>
/export/apps/rDock/src/rDock_2013.1_src/data/scripts/dock_solv.prm

>  <Rbt.Receptor>
prm/blind_docking_40.prm

>  <SCORE>
0.24024

>  <SCORE.INTER>
-5.74815

>  <SCORE.INTER.CONST>
1

>  <SCORE.INTER.POLAR>
0

>  <SCORE.INTER.ROT>
6

>  <SCORE.INTER.SOLV>
16.3015

>  <SCORE.INTER.VDW>
-16.8659

>  <SCORE.INTER.norm>
-0.185424

>  <SCORE.INTRA>
-2.32604

>  <SCORE.INTRA.DIHEDRAL>
-9.9273

>  <SCORE.INTRA.DIHEDRAL.0>
20.6841

>  <SCORE.INTRA.POLAR>
0

>  <SCORE.INTRA.POLAR.0>
0

>  <SCORE.INTRA.REPUL>
0

>  <SCORE.INTRA.REPUL.0>
0

>  <SCORE.INTRA.SOLV>
0.761558

>  <SCORE.INTRA.SOLV.lig_0>
-64.6797

>  <SCORE.INTRA.VDW>
2.25683

>  <SCORE.INTRA.VDW.0>
-4.11825

>  <SCORE.INTRA.norm>
-0.0750336

>  <SCORE.RESTR>
8.31443

>  <SCORE.RESTR.CAVITY>
8.31443

>  <SCORE.RESTR.norm>
0.268208

>  <SCORE.SYSTEM>
0

>  <SCORE.SYSTEM.CONST>
0

>  <SCORE.SYSTEM.DIHEDRAL>
0

>  <SCORE.SYSTEM.SOLV>
0

>  <SCORE.SYSTEM.norm>
0

>  <SCORE.heavy>
31

>  <SCORE.norm>
0.00774967

>  <RMSD>
12.865

$$$$
ligand
 OpenBabel11021811493D
libRbt.so/2013.1/901 2013/11/27
 31 33  0  0  0  0  0  0  0  0999 V2000
    3.7091    9.0431    2.5273 C   0  0  2  0  0  0  0  0  0  0  0  0
    4.5217    7.9919    2.0136 O   0  0  0  0  0  0  0  0  0  0  0  0
    2.2852    6.4772   -1.2709 C   0  0  2  0  0  0  0  0  0  0  0  0
    1.9856    5.8119   -2.5016 N   0  0  0  0  0  0  0  0  0  0  0  0
    2.0886    3.5383    1.1508 C   0  0  2  0  0  0  0  0  0  0  0  0
    4.2255    9.3354    3.9949 C   0  0  2  0  0  0  0  0  0  0  0  0
    5.6326    9.7162    3.9299 N   0  0  0  0  0  0  0  0  0  0  0  0
    3.3395    7.6223   -1.5664 C   0  0  0  0  0  0  0  0  0  0  0  0
    3.1216    2.4507    0.7165 C   0  0  2  0  0  0  0  0  0  0  0  0
    4.3303    3.0958    0.3766 O   0  0  0  0  0  0  0  0  0  0  0  0
    4.0340    8.0607    4.9099 C   0  0  0  0  0  0  0  0  0  0  0  0
    3.6737    8.3551   -0.2133 C   0  0  2  0  0  0  0  0  0  0  0  0
    4.6580    9.4178   -0.4808 N   0  0  0  0  0  0  0  0  0  0  0  0
    2.5133    1.6994   -0.5282 C   0  0  1  0  0  0  0  0  0  0  0  0
    3.4738    0.6503   -1.0056 N   0  0  0  0  0  0  0  0  0  0  0  0
    2.6876    7.2840    4.5879 C   0  0  0  0  0  0  0  0  0  0  0  0
    4.2618    7.3104    0.8347 C   0  0  2  0  0  0  0  0  0  0  0  0
    1.1249    0.9869   -0.0561 C   0  0  1  0  0  0  0  0  0  0  0  0
    1.3231    0.0782    1.0138 O   0  0  0  0  0  0  0  0  0  0  0  0
    1.9382    7.6016    3.4992 C   0  0  2  0  0  0  0  0  0  0  0  0
    2.3094    8.6417    2.5871 O   0  0  0  0  0  0  0  0  0  0  0  0
    3.1998    6.1805    1.1019 C   0  0  2  0  0  0  0  0  0  0  0  0
    3.7449    5.2328    2.0450 O   0  0  0  0  0  0  0  0  0  0  0  0
    0.1153    2.0700    0.4455 C   0  0  0  0  0  0  0  0  0  0  0  0
    0.7667    2.8942    1.5245 O   0  0  0  0  0  0  0  0  0  0  0  0
    0.6331    6.8843    3.1488 C   0  0  0  0  0  0  0  0  0  0  0  0
    0.9649    5.5730    2.6345 O   0  0  0  0  0  0  0  0  0  0  0  0
    2.8958    5.4457   -0.2557 C   0  0  1  0  0  0  0  0  0  0  0  0
    1.9714    4.4350   -0.0013 O   0  0  0  0  0  0  0  0  0  0  0  0
    0.3874    0.1966   -1.1638 C   0  0  0  0  0  0  0  0  0  0  0  0
    3.9343   -0.3316   -0.0026 C   0  0  0  0  0  0  0  0  0  0  0  0
  1  2  1  1  0  0  0
  1  6  1  0  0  0  0
  1 21  1  0  0  0  0
  3  4  1  6  0  0  0
  3  8  1  0  0  0  0
  3 28  1  0  0  0  0
  5  9  1  0  0  0  0
  5 25  1  0  0  0  0
  5 29  1  6  0  0  0
  6  7  1  6  0  0  0
  6 11  1  0  0  0  0
  8 12  1  0  0  0  0
  9 10  1  6  0  0  0
  9 14  1  0  0  0  0
 11 16  1  0  0  0  0
 12 13  1  6  0  0  0
 12 17  1  0  0  0  0
 14 15  1  1  0  0  0
 14 18  1  0  0  0  0
 15 31  1  0  0  0  0
 16 20  1  0  0  0  0
 17  2  1  1  0  0  0
 17 22  1  0  0  0  0
 18 19  1  1  0  0  0
 18 24  1  0  0  0  0
 18 30  1  0  0  0  0
 20 21  1  0  0  0  0
 20 26  1  1  0  0  0
 22 23  1  1  0  0  0
 22 28  1  0  0  0  0
 24 25  1  0  0  0  0
 26 27  1  0  0  0  0
 28 29  1  1  0  0  0
M  END
>  <CHROM.1>
169.87525370,-81.27589080,54.29284088,36.84474201,-73.79891370,-163.15107975
2.75603737,5.23642511,1.11095096,0.90566687,1.19615996,0.98571124

>  <Name>
ligand

>  <RI>
0

>  <Rbt.Current_Directory>
/home/itssahil/PROJECTS/Mol_Feturizer/New_Systems/rnas/4GPX

>  <Rbt.Executable>
rbdock ($Id: //depot/dev/client3/rdock/2013.1/src/exe/rbdock.cxx#4 $)

>  <Rbt.Library>
libRbt.so (2013.1, Build901 2013/11/27)

>  <Rbt.Parameter_File>
/export/apps/rDock/src/rDock_2013.1_src/data/scripts/dock_solv.prm

>  <Rbt.Receptor>
prm/blind_docking_40.prm

>  <SCORE>
11.8327

>  <SCORE.INTER>
3.39573

>  <SCORE.INTER.CONST>
1

>  <SCORE.INTER.POLAR>
0

>  <SCORE.INTER.ROT>
6

>  <SCORE.INTER.SOLV>
15.8925

>  <SCORE.INTER.VDW>
-10.6337

>  <SCORE.INTER.norm>
0.10954

>  <SCORE.INTRA>
-0.223966

>  <SCORE.INTRA.DIHEDRAL>
-11.1305

>  <SCORE.INTRA.DIHEDRAL.0>
20.6841

>  <SCORE.INTRA.POLAR>
0

>  <SCORE.INTRA.POLAR.0>
0

>  <SCORE.INTRA.REPUL>
0

>  <SCORE.INTRA.REPUL.0>
0

>  <SCORE.INTRA.SOLV>
0.0383953

>  <SCORE.INTRA.SOLV.lig_0>
-64.6797

>  <SCORE.INTRA.VDW>
5.32211

>  <SCORE.INTRA.VDW.0>
-4.11825

>  <SCORE.INTRA.norm>
-0.00722471

>  <SCORE.RESTR>
8.66097

>  <SCORE.RESTR.CAVITY>
8.66097

>  <SCORE.RESTR.norm>
0.279386

>  <SCORE.SYSTEM>
0

>  <SCORE.SYSTEM.CONST>
0

>  <SCORE.SYSTEM.DIHEDRAL>
0

>  <SCORE.SYSTEM.SOLV>
0

>  <SCORE.SYSTEM.norm>
0

>  <SCORE.heavy>
31

>  <SCORE.norm>
0.381701

>  <RMSD>
12.868

$$$$
ligand
 OpenBabel11021811493D
libRbt.so/2013.1/901 2013/11/27
 31 33  0  0  0  0  0  0  0  0999 V2000
    5.5794    6.8335    2.5038 C   0  0  2  0  0  0  0  0  0  0  0  0
    4.3257    6.7248    3.1713 O   0  0  0  0  0  0  0  0  0  0  0  0
    0.2786    5.8150    2.2345 C   0  0  2  0  0  0  0  0  0  0  0  0
   -1.0141    5.9030    1.6278 N   0  0  0  0  0  0  0  0  0  0  0  0
    2.1687    3.5775   -0.1363 C   0  0  2  0  0  0  0  0  0  0  0  0
    6.3903    7.9697    3.2504 C   0  0  2  0  0  0  0  0  0  0  0  0
    6.5491    7.5899    4.6503 N   0  0  0  0  0  0  0  0  0  0  0  0
    0.5689    7.1767    2.9904 C   0  0  0  0  0  0  0  0  0  0  0  0
    1.5257    2.9152   -1.3959 C   0  0  2  0  0  0  0  0  0  0  0  0
    1.0615    3.9396   -2.2490 O   0  0  0  0  0  0  0  0  0  0  0  0
    5.6362    9.3539    3.1298 C   0  0  0  0  0  0  0  0  0  0  0  0
    1.9924    7.0844    3.6574 C   0  0  2  0  0  0  0  0  0  0  0  0
    2.2703    8.3503    4.3574 N   0  0  0  0  0  0  0  0  0  0  0  0
    0.3334    2.0156   -0.8933 C   0  0  1  0  0  0  0  0  0  0  0  0
   -0.3395    1.3650   -2.0660 N   0  0  0  0  0  0  0  0  0  0  0  0
    4.9531    9.5467    1.7100 C   0  0  0  0  0  0  0  0  0  0  0  0
    3.0952    6.8191    2.5398 C   0  0  2  0  0  0  0  0  0  0  0  0
    0.9492    0.8646    0.0836 C   0  0  1  0  0  0  0  0  0  0  0  0
    1.9209    0.0666   -0.5709 O   0  0  0  0  0  0  0  0  0  0  0  0
    4.8761    8.5190    0.8237 C   0  0  2  0  0  0  0  0  0  0  0  0
    5.3989    7.2165    1.1093 O   0  0  0  0  0  0  0  0  0  0  0  0
    2.7776    5.4676    1.7992 C   0  0  2  0  0  0  0  0  0  0  0  0
    3.7762    5.2401    0.7815 O   0  0  0  0  0  0  0  0  0  0  0  0
    1.6550    1.5299    1.3097 C   0  0  0  0  0  0  0  0  0  0  0  0
    2.6822    2.5149    0.8171 O   0  0  0  0  0  0  0  0  0  0  0  0
    4.2304    8.6565   -0.5564 C   0  0  0  0  0  0  0  0  0  0  0  0
    3.0758    7.7850   -0.6013 O   0  0  0  0  0  0  0  0  0  0  0  0
    1.3629    5.5870    1.1210 C   0  0  1  0  0  0  0  0  0  0  0  0
    1.1036    4.3931    0.4516 O   0  0  0  0  0  0  0  0  0  0  0  0
   -0.0922   -0.1177    0.6720 C   0  0  0  0  0  0  0  0  0  0  0  0
    0.5232    0.5807   -2.9731 C   0  0  0  0  0  0  0  0  0  0  0  0
  1  2  1  1  0  0  0
  1  6  1  0  0  0  0
  1 21  1  0  0  0  0
  3  4  1  6  0  0  0
  3  8  1  0  0  0  0
  3 28  1  0  0  0  0
  5  9  1  0  0  0  0
  5 25  1  0  0  0  0
  5 29  1  1  0  0  0
  6  7  1  1  0  0  0
  6 11  1  0  0  0  0
  8 12  1  0  0  0  0
  9 10  1  6  0  0  0
  9 14  1  0  0  0  0
 11 16  1  0  0  0  0
 12 13  1  6  0  0  0
 12 17  1  0  0  0  0
 14 15  1  6  0  0  0
 14 18  1  0  0  0  0
 15 31  1  0  0  0  0
 16 20  1  0  0  0  0
 17  2  1  1  0  0  0
 17 22  1  0  0  0  0
 18 19  1  6  0  0  0
 18 24  1  0  0  0  0
 18 30  1  0  0  0  0
 20 21  1  0  0  0  0
 20 26  1  6  0  0  0
 22 23  1  6  0  0  0
 22 28  1  0  0  0  0
 24 25  1  0  0  0  0
 26 27  1  0  0  0  0
 28 29  1  1  0  0  0
M  END
>  <CHROM.1>
125.52524045,-147.53611124,54.73208355,-163.18667737,-116.16464390,-149.74829661
2.57266083,5.17056131,1.03592975,-0.99383713,-0.54150172,-2.34400896

>  <Name>
ligand

>  <RI>
0

>  <Rbt.Current_Directory>
/home/itssahil/PROJECTS/Mol_Feturizer/New_Systems/rnas/4GPX

>  <Rbt.Executable>
rbdock ($Id: //depot/dev/client3/rdock/2013.1/src/exe/rbdock.cxx#4 $)

>  <Rbt.Library>
libRbt.so (2013.1, Build901 2013/11/27)

>  <Rbt.Parameter_File>
/export/apps/rDock/src/rDock_2013.1_src/data/scripts/dock_solv.prm

>  <Rbt.Receptor>
prm/blind_docking_40.prm

>  <SCORE>
13.8021

>  <SCORE.INTER>
1.05893

>  <SCORE.INTER.CONST>
1

>  <SCORE.INTER.POLAR>
0

>  <SCORE.INTER.ROT>
6

>  <SCORE.INTER.SOLV>
11.5842

>  <SCORE.INTER.VDW>
-10.7555

>  <SCORE.INTER.norm>
0.0341589

>  <SCORE.INTRA>
3.93317

>  <SCORE.INTRA.DIHEDRAL>
-2.897

>  <SCORE.INTRA.DIHEDRAL.0>
20.6841

>  <SCORE.INTRA.POLAR>
0

>  <SCORE.INTRA.POLAR.0>
0

>  <SCORE.INTRA.REPUL>
0

>  <SCORE.INTRA.REPUL.0>
0

>  <SCORE.INTRA.SOLV>
-0.468113

>  <SCORE.INTRA.SOLV.lig_0>
-64.6797

>  <SCORE.INTRA.VDW>
5.61573

>  <SCORE.INTRA.VDW.0>
-4.11825

>  <SCORE.INTRA.norm>
0.126877

>  <SCORE.RESTR>
8.80997

>  <SCORE.RESTR.CAVITY>
8.80997

>  <SCORE.RESTR.norm>
0.284193

>  <SCORE.SYSTEM>
0

>  <SCORE.SYSTEM.CONST>
0

>  <SCORE.SYSTEM.DIHEDRAL>
0

>  <SCORE.SYSTEM.SOLV>
0

>  <SCORE.SYSTEM.norm>
0

>  <SCORE.heavy>
31

>  <SCORE.norm>
0.445228

>  <RMSD>
12.901

$$$$
ligand
 OpenBabel11021811493D
libRbt.so/2013.1/901 2013/11/27
 31 33  0  0  0  0  0  0  0  0999 V2000
    4.1143    9.4459   -0.2435 C   0  0  2  0  0  0  0  0  0  0  0  0
    3.2864    8.8396    0.7446 O   0  0  0  0  0  0  0  0  0  0  0  0
    4.9688    4.9637    1.2248 C   0  0  2  0  0  0  0  0  0  0  0  0
    5.2796    3.6952    1.8089 N   0  0  0  0  0  0  0  0  0  0  0  0
    1.6122    3.9861   -0.3430 C   0  0  2  0  0  0  0  0  0  0  0  0
    3.3458   10.7357   -0.7454 C   0  0  2  0  0  0  0  0  0  0  0  0
    3.1196   11.6196    0.3934 N   0  0  0  0  0  0  0  0  0  0  0  0
    5.4514    6.1014    2.2160 C   0  0  0  0  0  0  0  0  0  0  0  0
    0.8302    3.2262    0.7749 C   0  0  2  0  0  0  0  0  0  0  0  0
    0.9620    3.9494    1.9800 O   0  0  0  0  0  0  0  0  0  0  0  0
    1.9741   10.3318   -1.4194 C   0  0  0  0  0  0  0  0  0  0  0  0
    5.1085    7.4992    1.5773 C   0  0  2  0  0  0  0  0  0  0  0  0
    5.5501    8.5614    2.4974 N   0  0  0  0  0  0  0  0  0  0  0  0
    1.4733    1.7932    0.9032 C   0  0  1  0  0  0  0  0  0  0  0  0
    0.7735    1.0186    1.9809 N   0  0  0  0  0  0  0  0  0  0  0  0
    2.0876    8.9906   -2.2609 C   0  0  0  0  0  0  0  0  0  0  0  0
    3.5400    7.6063    1.3244 C   0  0  2  0  0  0  0  0  0  0  0  0
    1.2831    1.0273   -0.5236 C   0  0  1  0  0  0  0  0  0  0  0  0
   -0.0796    0.9192   -0.8989 O   0  0  0  0  0  0  0  0  0  0  0  0
    3.2005    8.2129   -2.1937 C   0  0  2  0  0  0  0  0  0  0  0  0
    4.3249    8.5489   -1.3726 O   0  0  0  0  0  0  0  0  0  0  0  0
    3.0866    6.4603    0.3460 C   0  0  2  0  0  0  0  0  0  0  0  0
    1.6624    6.5588    0.1303 O   0  0  0  0  0  0  0  0  0  0  0  0
    2.0070    1.8257   -1.6561 C   0  0  0  0  0  0  0  0  0  0  0  0
    1.5039    3.2451   -1.6625 O   0  0  0  0  0  0  0  0  0  0  0  0
    3.3577    6.9143   -2.9869 C   0  0  0  0  0  0  0  0  0  0  0  0
    2.9847    5.8131   -2.1251 O   0  0  0  0  0  0  0  0  0  0  0  0
    3.4165    5.0728    1.0104 C   0  0  1  0  0  0  0  0  0  0  0  0
    2.9910    4.0681    0.1442 O   0  0  0  0  0  0  0  0  0  0  0  0
    1.8615   -0.4074   -0.5763 C   0  0  0  0  0  0  0  0  0  0  0  0
    1.4651   -0.1845    2.4872 C   0  0  0  0  0  0  0  0  0  0  0  0
  1  2  1  1  0  0  0
  1  6  1  0  0  0  0
  1 21  1  0  0  0  0
  3  4  1  1  0  0  0
  3  8  1  0  0  0  0
  3 28  1  0  0  0  0
  5  9  1  0  0  0  0
  5 25  1  0  0  0  0
  5 29  1  1  0  0  0
  6  7  1  1  0  0  0
  6 11  1  0  0  0  0
  8 12  1  0  0  0  0
  9 10  1  1  0  0  0
  9 14  1  0  0  0  0
 11 16  1  0  0  0  0
 12 13  1  1  0  0  0
 12 17  1  0  0  0  0
 14 15  1  1  0  0  0
 14 18  1  0  0  0  0
 15 31  1  0  0  0  0
 16 20  1  0  0  0  0
 17  2  1  6  0  0  0
 17 22  1  0  0  0  0
 18 19  1  6  0  0  0
 18 24  1  0  0  0  0
 18 30  1  0  0  0  0
 20 21  1  0  0  0  0
 20 26  1  6  0  0  0
 22 23  1  1  0  0  0
 22 28  1  0  0  0  0
 24 25  1  0  0  0  0
 26 27  1  0  0  0  0
 28 29  1  6  0  0  0
M  END
>  <CHROM.1>
172.72666783,-84.33652862,-163.84945694,39.64490173,-96.09418536,-174.31928954
2.76303577,5.46309139,0.06534832,-1.09529689,0.95418375,2.65864366

>  <Name>
ligand

>  <RI>
0

>  <Rbt.Current_Directory>
/home/itssahil/PROJECTS/Mol_Feturizer/New_Systems/rnas/4GPX

>  <Rbt.Executable>
rbdock ($Id: //depot/dev/client3/rdock/2013.1/src/exe/rbdock.cxx#4 $)

>  <Rbt.Library>
libRbt.so (2013.1, Build901 2013/11/27)

>  <Rbt.Parameter_File>
/export/apps/rDock/src/rDock_2013.1_src/data/scripts/dock_solv.prm

>  <Rbt.Receptor>
prm/blind_docking_40.prm

>  <SCORE>
-3.46063

>  <SCORE.INTER>
-7.39151

>  <SCORE.INTER.CONST>
1

>  <SCORE.INTER.POLAR>
0

>  <SCORE.INTER.ROT>
6

>  <SCORE.INTER.SOLV>
17.3373

>  <SCORE.INTER.VDW>
-18.3068

>  <SCORE.INTER.norm>
-0.238436

>  <SCORE.INTRA>
-2.50185

>  <SCORE.INTRA.DIHEDRAL>
-13.3082

>  <SCORE.INTRA.DIHEDRAL.0>
20.6841

>  <SCORE.INTRA.POLAR>
0

>  <SCORE.INTRA.POLAR.0>
0

>  <SCORE.INTRA.REPUL>
0

>  <SCORE.INTRA.REPUL.0>
0

>  <SCORE.INTRA.SOLV>
-0.171755

>  <SCORE.INTRA.SOLV.lig_0>
-64.6797

>  <SCORE.INTRA.VDW>
4.23813

>  <SCORE.INTRA.VDW.0>
-4.11825

>  <SCORE.INTRA.norm>
-0.0807047

>  <SCORE.RESTR>
6.43272

>  <SCORE.RESTR.CAVITY>
6.43272

>  <SCORE.RESTR.norm>
0.207507

>  <SCORE.SYSTEM>
0

>  <SCORE.SYSTEM.CONST>
0

>  <SCORE.SYSTEM.DIHEDRAL>
0

>  <SCORE.SYSTEM.SOLV>
0

>  <SCORE.SYSTEM.norm>
0

>  <SCORE.heavy>
31

>  <SCORE.norm>
-0.111633

>  <RMSD>
12.907

$$$$
ligand
 OpenBabel11021811493D
libRbt.so/2013.1/901 2013/11/27
 31 33  0  0  0  0  0  0  0  0999 V2000
    0.6337    3.3487    0.6894 C   0  0  2  0  0  0  0  0  0  0  0  0
    1.8721    3.3003    1.3918 O   0  0  0  0  0  0  0  0  0  0  0  0
    5.1809    5.8853    2.0655 C   0  0  2  0  0  0  0  0  0  0  0  0
    6.3347    6.6895    1.8032 N   0  0  0  0  0  0  0  0  0  0  0  0
    4.5875    8.8692    1.3457 C   0  0  2  0  0  0  0  0  0  0  0  0
    0.2289    1.8486    0.3861 C   0  0  2  0  0  0  0  0  0  0  0  0
    0.1108    1.1300    1.6505 N   0  0  0  0  0  0  0  0  0  0  0  0
    5.4903    4.4022    1.6024 C   0  0  0  0  0  0  0  0  0  0  0  0
    3.7119   10.1526    1.5043 C   0  0  2  0  0  0  0  0  0  0  0  0
    3.2057   10.1857    2.8216 O   0  0  0  0  0  0  0  0  0  0  0  0
    1.3075    1.1651   -0.5457 C   0  0  0  0  0  0  0  0  0  0  0  0
    4.2213    3.5145    1.8872 C   0  0  2  0  0  0  0  0  0  0  0  0
    4.5012    2.1350    1.4534 N   0  0  0  0  0  0  0  0  0  0  0  0
    2.5426   10.0531    0.4524 C   0  0  1  0  0  0  0  0  0  0  0  0
    1.6516   11.2544    0.5704 N   0  0  0  0  0  0  0  0  0  0  0  0
    1.8772    2.1627   -1.6411 C   0  0  0  0  0  0  0  0  0  0  0  0
    2.9675    4.0970    1.0970 C   0  0  2  0  0  0  0  0  0  0  0  0
    3.2071   10.0168   -1.0360 C   0  0  1  0  0  0  0  0  0  0  0  0
    4.0034   11.1599   -1.2979 O   0  0  0  0  0  0  0  0  0  0  0  0
    1.5933    3.4912   -1.5947 C   0  0  2  0  0  0  0  0  0  0  0  0
    0.7740    4.0671   -0.5707 O   0  0  0  0  0  0  0  0  0  0  0  0
    2.6889    5.5722    1.5685 C   0  0  2  0  0  0  0  0  0  0  0  0
    1.5575    6.0956    0.8401 O   0  0  0  0  0  0  0  0  0  0  0  0
    4.1397    8.7695   -1.1716 C   0  0  0  0  0  0  0  0  0  0  0  0
    5.1545    8.7849   -0.0590 O   0  0  0  0  0  0  0  0  0  0  0  0
    2.1162    4.4909   -2.6281 C   0  0  0  0  0  0  0  0  0  0  0  0
    3.3290    5.0836   -2.1064 O   0  0  0  0  0  0  0  0  0  0  0  0
    3.9581    6.4477    1.2555 C   0  0  1  0  0  0  0  0  0  0  0  0
    3.6904    7.7543    1.6578 O   0  0  0  0  0  0  0  0  0  0  0  0
    2.1930    9.9199   -2.2013 C   0  0  0  0  0  0  0  0  0  0  0  0
    0.5119   11.1445    1.5038 C   0  0  0  0  0  0  0  0  0  0  0  0
  1  2  1  6  0  0  0
  1  6  1  0  0  0  0
  1 21  1  0  0  0  0
  3  4  1  6  0  0  0
  3  8  1  0  0  0  0
  3 28  1  0  0  0  0
  5  9  1  0  0  0  0
  5 25  1  0  0  0  0
  5 29  1  6  0  0  0
  6  7  1  1  0  0  0
  6 11  1  0  0  0  0
  8 12  1  0  0  0  0
  9 10  1  1  0  0  0
  9 14  1  0  0  0  0
 11 16  1  0  0  0  0
 12 13  1  6  0  0  0
 12 17  1  0  0  0  0
 14 15  1  6  0  0  0
 14 18  1  0  0  0  0
 15 31  1  0  0  0  0
 16 20  1  0  0  0  0
 17  2  1  1  0  0  0
 17 22  1  0  0  0  0
 18 19  1  6  0  0  0
 18 24  1  0  0  0  0
 18 30  1  0  0  0  0
 20 21  1  0  0  0  0
 20 26  1  6  0  0  0
 22 23  1  6  0  0  0
 22 28  1  0  0  0  0
 24 25  1  0  0  0  0
 26 27  1  0  0  0  0
 28 29  1  1  0  0  0
M  END
>  <CHROM.1>
133.52621780,160.38952796,-90.28248474,-167.80199286,-94.92753437,69.83655492
2.87443192,6.26977169,0.39567078,1.80592468,0.66336696,3.01826180

>  <Name>
ligand

>  <RI>
0

>  <Rbt.Current_Directory>
/home/itssahil/PROJECTS/Mol_Feturizer/New_Systems/rnas/4GPX

>  <Rbt.Executable>
rbdock ($Id: //depot/dev/client3/rdock/2013.1/src/exe/rbdock.cxx#4 $)

>  <Rbt.Library>
libRbt.so (2013.1, Build901 2013/11/27)

>  <Rbt.Parameter_File>
/export/apps/rDock/src/rDock_2013.1_src/data/scripts/dock_solv.prm

>  <Rbt.Receptor>
prm/blind_docking_40.prm

>  <SCORE>
2.05954

>  <SCORE.INTER>
-1.66516

>  <SCORE.INTER.CONST>
1

>  <SCORE.INTER.POLAR>
0

>  <SCORE.INTER.ROT>
6

>  <SCORE.INTER.SOLV>
23.0096

>  <SCORE.INTER.VDW>
-16.38

>  <SCORE.INTER.norm>
-0.0537147

>  <SCORE.INTRA>
-3.70534

>  <SCORE.INTRA.DIHEDRAL>
-8.43127

>  <SCORE.INTRA.DIHEDRAL.0>
20.6841

>  <SCORE.INTRA.POLAR>
0

>  <SCORE.INTRA.POLAR.0>
0

>  <SCORE.INTRA.REPUL>
0

>  <SCORE.INTRA.REPUL.0>
0

>  <SCORE.INTRA.SOLV>
0.466818

>  <SCORE.INTRA.SOLV.lig_0>
-64.6797

>  <SCORE.INTRA.VDW>
0.276888

>  <SCORE.INTRA.VDW.0>
-4.11825

>  <SCORE.INTRA.norm>
-0.119527

>  <SCORE.RESTR>
7.43003

>  <SCORE.RESTR.CAVITY>
7.43003

>  <SCORE.RESTR.norm>
0.239678

>  <SCORE.SYSTEM>
0

>  <SCORE.SYSTEM.CONST>
0

>  <SCORE.SYSTEM.DIHEDRAL>
0

>  <SCORE.SYSTEM.SOLV>
0

>  <SCORE.SYSTEM.norm>
0

>  <SCORE.heavy>
31

>  <SCORE.norm>
0.0664368

>  <RMSD>
12.914

$$$$
ligand
 OpenBabel11021811493D
libRbt.so/2013.1/901 2013/11/27
 31 33  0  0  0  0  0  0  0  0999 V2000
    3.1347    7.6746    3.5561 C   0  0  2  0  0  0  0  0  0  0  0  0
    3.5066    6.3778    4.0135 O   0  0  0  0  0  0  0  0  0  0  0  0
    5.6233    4.7441    0.7068 C   0  0  2  0  0  0  0  0  0  0  0  0
    6.3054    3.7937   -0.1168 N   0  0  0  0  0  0  0  0  0  0  0  0
    3.4048    2.9112   -1.0222 C   0  0  2  0  0  0  0  0  0  0  0  0
    3.1022    8.6103    4.8326 C   0  0  2  0  0  0  0  0  0  0  0  0
    4.4246    8.6083    5.4494 N   0  0  0  0  0  0  0  0  0  0  0  0
    6.3883    4.8456    2.0904 C   0  0  0  0  0  0  0  0  0  0  0  0
    1.9453    2.8558   -1.5749 C   0  0  2  0  0  0  0  0  0  0  0  0
    1.7238    4.0064   -2.3621 O   0  0  0  0  0  0  0  0  0  0  0  0
    2.0080    8.1068    5.8564 C   0  0  0  0  0  0  0  0  0  0  0  0
    5.6385    5.8891    3.0006 C   0  0  2  0  0  0  0  0  0  0  0  0
    6.3423    5.9837    4.2911 N   0  0  0  0  0  0  0  0  0  0  0  0
    0.9761    2.8265   -0.3326 C   0  0  1  0  0  0  0  0  0  0  0  0
   -0.4484    2.7927   -0.8022 N   0  0  0  0  0  0  0  0  0  0  0  0
    0.7061    7.5634    5.1288 C   0  0  0  0  0  0  0  0  0  0  0  0
    4.1327    5.4233    3.2270 C   0  0  2  0  0  0  0  0  0  0  0  0
    1.2958    1.4756    0.5226 C   0  0  1  0  0  0  0  0  0  0  0  0
    1.1343    0.2985   -0.2505 O   0  0  0  0  0  0  0  0  0  0  0  0
    0.6814    7.3771    3.7826 C   0  0  2  0  0  0  0  0  0  0  0  0
    1.8109    7.6555    2.9470 O   0  0  0  0  0  0  0  0  0  0  0  0
    3.4003    5.3214    1.8381 C   0  0  2  0  0  0  0  0  0  0  0  0
    2.0394    4.8891    2.0518 O   0  0  0  0  0  0  0  0  0  0  0  0
    2.7787    1.4978    1.0168 C   0  0  0  0  0  0  0  0  0  0  0  0
    3.6928    1.6938   -0.1638 O   0  0  0  0  0  0  0  0  0  0  0  0
   -0.5493    6.8585    3.0363 C   0  0  0  0  0  0  0  0  0  0  0  0
   -1.5013    7.9433    2.9309 O   0  0  0  0  0  0  0  0  0  0  0  0
    4.1495    4.2589    0.9519 C   0  0  1  0  0  0  0  0  0  0  0  0
    3.4789    4.1630   -0.2654 O   0  0  0  0  0  0  0  0  0  0  0  0
    0.4268    1.2840    1.7890 C   0  0  0  0  0  0  0  0  0  0  0  0
   -0.8291    1.6690   -1.6823 C   0  0  0  0  0  0  0  0  0  0  0  0
  1  2  1  1  0  0  0
  1  6  1  0  0  0  0
  1 21  1  0  0  0  0
  3  4  1  6  0  0  0
  3  8  1  0  0  0  0
  3 28  1  0  0  0  0
  5  9  1  0  0  0  0
  5 25  1  0  0  0  0
  5 29  1  1  0  0  0
  6  7  1  1  0  0  0
  6 11  1  0  0  0  0
  8 12  1  0  0  0  0
  9 10  1  6  0  0  0
  9 14  1  0  0  0  0
 11 16  1  0  0  0  0
 12 13  1  1  0  0  0
 12 17  1  0  0  0  0
 14 15  1  6  0  0  0
 14 18  1  0  0  0  0
 15 31  1  0  0  0  0
 16 20  1  0  0  0  0
 17  2  1  1  0  0  0
 17 22  1  0  0  0  0
 18 19  1  6  0  0  0
 18 24  1  0  0  0  0
 18 30  1  0  0  0  0
 20 21  1  0  0  0  0
 20 26  1  6  0  0  0
 22 23  1  1  0  0  0
 22 28  1  0  0  0  0
 24 25  1  0  0  0  0
 26 27  1  0  0  0  0
 28 29  1  6  0  0  0
M  END
>  <CHROM.1>
-154.21942177,139.70870749,57.79727829,72.44001298,76.38545346,93.66524210
2.56370439,4.80118044,1.73180989,-1.42049516,0.04633379,-2.41005112

>  <Name>
ligand

>  <RI>
0

>  <Rbt.Current_Directory>
/home/itssahil/PROJECTS/Mol_Feturizer/New_Systems/rnas/4GPX

>  <Rbt.Executable>
rbdock ($Id: //depot/dev/client3/rdock/2013.1/src/exe/rbdock.cxx#4 $)

>  <Rbt.Library>
libRbt.so (2013.1, Build901 2013/11/27)

>  <Rbt.Parameter_File>
/export/apps/rDock/src/rDock_2013.1_src/data/scripts/dock_solv.prm

>  <Rbt.Receptor>
prm/blind_docking_80.prm

>  <SCORE>
10.5625

>  <SCORE.INTER>
1.44045

>  <SCORE.INTER.CONST>
1

>  <SCORE.INTER.POLAR>
0

>  <SCORE.INTER.ROT>
6

>  <SCORE.INTER.SOLV>
21.7485

>  <SCORE.INTER.VDW>
-13.8892

>  <SCORE.INTER.norm>
0.0464661

>  <SCORE.INTRA>
0.864344

>  <SCORE.INTRA.DIHEDRAL>
-4.12552

>  <SCORE.INTRA.DIHEDRAL.0>
20.6841

>  <SCORE.INTRA.POLAR>
0

>  <SCORE.INTRA.POLAR.0>
0

>  <SCORE.INTRA.REPUL>
0

>  <SCORE.INTRA.REPUL.0>
0

>  <SCORE.INTRA.SOLV>
0.754572

>  <SCORE.INTRA.SOLV.lig_0>
-64.6797

>  <SCORE.INTRA.VDW>
2.54982

>  <SCORE.INTRA.VDW.0>
-4.11825

>  <SCORE.INTRA.norm>
0.0278821

>  <SCORE.RESTR>
8.25769

>  <SCORE.RESTR.CAVITY>
8.25769

>  <SCORE.RESTR.norm>
0.266377

>  <SCORE.SYSTEM>
0

>  <SCORE.SYSTEM.CONST>
0

>  <SCORE.SYSTEM.DIHEDRAL>
0

>  <SCORE.SYSTEM.SOLV>
0

>  <SCORE.SYSTEM.norm>
0

>  <SCORE.heavy>
31

>  <SCORE.norm>
0.340725

>  <RMSD>
12.933

$$$$
ligand
 OpenBabel11021811493D
libRbt.so/2013.1/901 2013/11/27
 31 33  0  0  0  0  0  0  0  0999 V2000
    4.2121    9.6383   -0.4944 C   0  0  2  0  0  0  0  0  0  0  0  0
    3.5545    9.1415    0.6675 O   0  0  0  0  0  0  0  0  0  0  0  0
    5.4976    5.4400    1.4463 C   0  0  2  0  0  0  0  0  0  0  0  0
    5.9680    4.2913    2.1577 N   0  0  0  0  0  0  0  0  0  0  0  0
    2.2367    3.6289    1.3786 C   0  0  2  0  0  0  0  0  0  0  0  0
    3.3577   10.8699   -1.0037 C   0  0  2  0  0  0  0  0  0  0  0  0
    3.2971   11.8694    0.0577 N   0  0  0  0  0  0  0  0  0  0  0  0
    6.0758    6.7353    2.1517 C   0  0  0  0  0  0  0  0  0  0  0  0
    2.2603    2.2333    0.6785 C   0  0  2  0  0  0  0  0  0  0  0  0
    3.4770    1.5944    1.0010 O   0  0  0  0  0  0  0  0  0  0  0  0
    1.9045   10.4004   -1.4120 C   0  0  0  0  0  0  0  0  0  0  0  0
    5.5580    8.0020    1.3727 C   0  0  2  0  0  0  0  0  0  0  0  0
    6.0880    9.2102    2.0276 N   0  0  0  0  0  0  0  0  0  0  0  0
    2.1498    2.4871   -0.8730 C   0  0  1  0  0  0  0  0  0  0  0  0
    2.1872    1.1776   -1.6043 N   0  0  0  0  0  0  0  0  0  0  0  0
    1.9059    8.9778   -2.1160 C   0  0  0  0  0  0  0  0  0  0  0  0
    3.9658    8.0253    1.3791 C   0  0  2  0  0  0  0  0  0  0  0  0
    0.7257    3.2268   -1.1611 C   0  0  1  0  0  0  0  0  0  0  0  0
   -0.3792    2.4609   -0.7117 O   0  0  0  0  0  0  0  0  0  0  0  0
    3.0265    8.2088   -2.1405 C   0  0  2  0  0  0  0  0  0  0  0  0
    4.2591    8.6267   -1.5425 O   0  0  0  0  0  0  0  0  0  0  0  0
    3.4189    6.7246    0.6824 C   0  0  2  0  0  0  0  0  0  0  0  0
    1.9755    6.7493    0.7016 O   0  0  0  0  0  0  0  0  0  0  0  0
    0.6733    4.5929   -0.4029 C   0  0  0  0  0  0  0  0  0  0  0  0
    0.9460    4.3599    1.0597 O   0  0  0  0  0  0  0  0  0  0  0  0
    3.0780    6.8334   -2.8084 C   0  0  0  0  0  0  0  0  0  0  0  0
    3.1456    5.8304   -1.7673 O   0  0  0  0  0  0  0  0  0  0  0  0
    3.9276    5.4720    1.4871 C   0  0  1  0  0  0  0  0  0  0  0  0
    3.4193    4.3296    0.8729 O   0  0  0  0  0  0  0  0  0  0  0  0
    0.4491    3.5535   -2.6486 C   0  0  0  0  0  0  0  0  0  0  0  0
    1.2600    0.1289   -1.1326 C   0  0  0  0  0  0  0  0  0  0  0  0
  1  2  1  1  0  0  0
  1  6  1  0  0  0  0
  1 21  1  0  0  0  0
  3  4  1  1  0  0  0
  3  8  1  0  0  0  0
  3 28  1  0  0  0  0
  5  9  1  0  0  0  0
  5 25  1  0  0  0  0
  5 29  1  6  0  0  0
  6  7  1  1  0  0  0
  6 11  1  0  0  0  0
  8 12  1  0  0  0  0
  9 10  1  6  0  0  0
  9 14  1  0  0  0  0
 11 16  1  0  0  0  0
 12 13  1  1  0  0  0
 12 17  1  0  0  0  0
 14 15  1  6  0  0  0
 14 18  1  0  0  0  0
 15 31  1  0  0  0  0
 16 20  1  0  0  0  0
 17  2  1  6  0  0  0
 17 22  1  0  0  0  0
 18 19  1  1  0  0  0
 18 24  1  0  0  0  0
 18 30  1  0  0  0  0
 20 21  1  0  0  0  0
 20 26  1  6  0  0  0
 22 23  1  1  0  0  0
 22 28  1  0  0  0  0
 24 25  1  0  0  0  0
 26 27  1  0  0  0  0
 28 29  1  6  0  0  0
M  END
>  <CHROM.1>
177.24781268,-164.38615269,50.43014975,36.56063948,-108.16180310,141.90861233
2.98883350,5.92298376,-0.09725622,1.15156553,-0.74496462,-0.24423678

>  <Name>
ligand

>  <RI>
0

>  <Rbt.Current_Directory>
/home/itssahil/PROJECTS/Mol_Feturizer/New_Systems/rnas/4GPX

>  <Rbt.Executable>
rbdock ($Id: //depot/dev/client3/rdock/2013.1/src/exe/rbdock.cxx#4 $)

>  <Rbt.Library>
libRbt.so (2013.1, Build901 2013/11/27)

>  <Rbt.Parameter_File>
/export/apps/rDock/src/rDock_2013.1_src/data/scripts/dock_solv.prm

>  <Rbt.Receptor>
prm/blind_docking_40.prm

>  <SCORE>
-0.607111

>  <SCORE.INTER>
-6.3982

>  <SCORE.INTER.CONST>
1

>  <SCORE.INTER.POLAR>
0

>  <SCORE.INTER.ROT>
6

>  <SCORE.INTER.SOLV>
18.2448

>  <SCORE.INTER.VDW>
-17.947

>  <SCORE.INTER.norm>
-0.206393

>  <SCORE.INTRA>
-2.1739

>  <SCORE.INTRA.DIHEDRAL>
-10.1033

>  <SCORE.INTRA.DIHEDRAL.0>
20.6841

>  <SCORE.INTRA.POLAR>
0

>  <SCORE.INTRA.POLAR.0>
0

>  <SCORE.INTRA.REPUL>
0.0027552

>  <SCORE.INTRA.REPUL.0>
0

>  <SCORE.INTRA.SOLV>
0.513092

>  <SCORE.INTRA.SOLV.lig_0>
-64.6797

>  <SCORE.INTRA.VDW>
2.60744

>  <SCORE.INTRA.VDW.0>
-4.11825

>  <SCORE.INTRA.norm>
-0.0701257

>  <SCORE.RESTR>
7.96498

>  <SCORE.RESTR.CAVITY>
7.96498

>  <SCORE.RESTR.norm>
0.256935

>  <SCORE.SYSTEM>
0

>  <SCORE.SYSTEM.CONST>
0

>  <SCORE.SYSTEM.DIHEDRAL>
0

>  <SCORE.SYSTEM.SOLV>
0

>  <SCORE.SYSTEM.norm>
0

>  <SCORE.heavy>
31

>  <SCORE.norm>
-0.0195842

>  <RMSD>
12.956

$$$$
ligand
 OpenBabel11021811493D
libRbt.so/2013.1/901 2013/11/27
 31 33  0  0  0  0  0  0  0  0999 V2000
    3.3314    2.7784   -1.0413 C   0  0  2  0  0  0  0  0  0  0  0  0
    2.1232    3.3203   -0.5160 O   0  0  0  0  0  0  0  0  0  0  0  0
    0.7288    6.3561    2.1153 C   0  0  2  0  0  0  0  0  0  0  0  0
    0.6041    7.1671    3.2873 N   0  0  0  0  0  0  0  0  0  0  0  0
    3.7185    8.2522    0.6442 C   0  0  2  0  0  0  0  0  0  0  0  0
    3.4030    1.2759   -0.5480 C   0  0  2  0  0  0  0  0  0  0  0  0
    2.2275    0.5644   -1.0392 N   0  0  0  0  0  0  0  0  0  0  0  0
    0.4494    4.8497    2.5187 C   0  0  0  0  0  0  0  0  0  0  0  0
    3.7132    9.8073    0.7868 C   0  0  2  0  0  0  0  0  0  0  0  0
    3.5428   10.1284    2.1508 O   0  0  0  0  0  0  0  0  0  0  0  0
    3.4717    1.2175    1.0303 C   0  0  0  0  0  0  0  0  0  0  0  0
    0.5885    3.9536    1.2314 C   0  0  2  0  0  0  0  0  0  0  0  0
    0.3351    2.5506    1.6014 N   0  0  0  0  0  0  0  0  0  0  0  0
    2.5115   10.3513   -0.0757 C   0  0  1  0  0  0  0  0  0  0  0  0
    2.4424   11.8457    0.0378 N   0  0  0  0  0  0  0  0  0  0  0  0
    4.3544    2.3878    1.6392 C   0  0  0  0  0  0  0  0  0  0  0  0
    2.0520    4.1073    0.6230 C   0  0  2  0  0  0  0  0  0  0  0  0
    2.7811    9.9389   -1.6299 C   0  0  1  0  0  0  0  0  0  0  0  0
    4.0068   10.4562   -2.1191 O   0  0  0  0  0  0  0  0  0  0  0  0
    4.7931    3.4125    0.8612 C   0  0  2  0  0  0  0  0  0  0  0  0
    4.4923    3.5002   -0.5364 O   0  0  0  0  0  0  0  0  0  0  0  0
    2.3062    5.6124    0.2408 C   0  0  2  0  0  0  0  0  0  0  0  0
    3.6382    5.7443   -0.3004 O   0  0  0  0  0  0  0  0  0  0  0  0
    2.8568    8.3830   -1.7615 C   0  0  0  0  0  0  0  0  0  0  0  0
    3.8964    7.8540   -0.8089 O   0  0  0  0  0  0  0  0  0  0  0  0
    5.6477    4.5609    1.4011 C   0  0  0  0  0  0  0  0  0  0  0  0
    4.8201    5.3652    2.2743 O   0  0  0  0  0  0  0  0  0  0  0  0
    2.1854    6.4884    1.5422 C   0  0  1  0  0  0  0  0  0  0  0  0
    2.4336    7.8142    1.1940 O   0  0  0  0  0  0  0  0  0  0  0  0
    1.6892   10.3986   -2.6259 C   0  0  0  0  0  0  0  0  0  0  0  0
    2.0494   12.3925    1.3526 C   0  0  0  0  0  0  0  0  0  0  0  0
  1  2  1  1  0  0  0
  1  6  1  0  0  0  0
  1 21  1  0  0  0  0
  3  4  1  1  0  0  0
  3  8  1  0  0  0  0
  3 28  1  0  0  0  0
  5  9  1  0  0  0  0
  5 25  1  0  0  0  0
  5 29  1  6  0  0  0
  6  7  1  1  0  0  0
  6 11  1  0  0  0  0
  8 12  1  0  0  0  0
  9 10  1  1  0  0  0
  9 14  1  0  0  0  0
 11 16  1  0  0  0  0
 12 13  1  1  0  0  0
 12 17  1  0  0  0  0
 14 15  1  6  0  0  0
 14 18  1  0  0  0  0
 15 31  1  0  0  0  0
 16 20  1  0  0  0  0
 17  2  1  6  0  0  0
 17 22  1  0  0  0  0
 18 19  1  6  0  0  0
 18 24  1  0  0  0  0
 18 30  1  0  0  0  0
 20 21  1  0  0  0  0
 20 26  1  6  0  0  0
 22 23  1  1  0  0  0
 22 28  1  0  0  0  0
 24 25  1  0  0  0  0
 26 27  1  0  0  0  0
 28 29  1  6  0  0  0
M  END
>  <CHROM.1>
99.07222705,-164.19909343,-68.54268193,-154.66139080,-69.44554686,179.24897238
2.84143794,6.26095663,0.42762967,-1.53360513,0.90606443,-0.10371376

>  <Name>
ligand

>  <RI>
0

>  <Rbt.Current_Directory>
/home/itssahil/PROJECTS/Mol_Feturizer/New_Systems/rnas/4GPX

>  <Rbt.Executable>
rbdock ($Id: //depot/dev/client3/rdock/2013.1/src/exe/rbdock.cxx#4 $)

>  <Rbt.Library>
libRbt.so (2013.1, Build901 2013/11/27)

>  <Rbt.Parameter_File>
/export/apps/rDock/src/rDock_2013.1_src/data/scripts/dock_solv.prm

>  <Rbt.Receptor>
prm/blind_docking_40.prm

>  <SCORE>
15.4282

>  <SCORE.INTER>
5.18341

>  <SCORE.INTER.CONST>
1

>  <SCORE.INTER.POLAR>
0

>  <SCORE.INTER.ROT>
6

>  <SCORE.INTER.SOLV>
22.4126

>  <SCORE.INTER.VDW>
-11.6153

>  <SCORE.INTER.norm>
0.167207

>  <SCORE.INTRA>
4.99888

>  <SCORE.INTRA.DIHEDRAL>
-7.9931

>  <SCORE.INTRA.DIHEDRAL.0>
20.6841

>  <SCORE.INTRA.POLAR>
0

>  <SCORE.INTRA.POLAR.0>
0

>  <SCORE.INTRA.REPUL>
0

>  <SCORE.INTRA.REPUL.0>
0

>  <SCORE.INTRA.SOLV>
1.32524

>  <SCORE.INTRA.SOLV.lig_0>
-64.6797

>  <SCORE.INTRA.VDW>
8.33281

>  <SCORE.INTRA.VDW.0>
-4.11825

>  <SCORE.INTRA.norm>
0.161254

>  <SCORE.RESTR>
5.24591

>  <SCORE.RESTR.CAVITY>
5.24591

>  <SCORE.RESTR.norm>
0.169223

>  <SCORE.SYSTEM>
0

>  <SCORE.SYSTEM.CONST>
0

>  <SCORE.SYSTEM.DIHEDRAL>
0

>  <SCORE.SYSTEM.SOLV>
0

>  <SCORE.SYSTEM.norm>
0

>  <SCORE.heavy>
31

>  <SCORE.norm>
0.497684

>  <RMSD>
13.000

$$$$
ligand
 OpenBabel11021811493D
libRbt.so/2013.1/901 2013/11/27
 31 33  0  0  0  0  0  0  0  0999 V2000
    4.0916    9.7378    0.1049 C   0  0  2  0  0  0  0  0  0  0  0  0
    3.3484    9.1196    1.1512 O   0  0  0  0  0  0  0  0  0  0  0  0
    5.0566    5.2439    1.5322 C   0  0  2  0  0  0  0  0  0  0  0  0
    5.4537    4.0007    2.1185 N   0  0  0  0  0  0  0  0  0  0  0  0
    3.6360    3.6167   -0.1981 C   0  0  2  0  0  0  0  0  0  0  0  0
    3.3515   11.0961   -0.2317 C   0  0  2  0  0  0  0  0  0  0  0  0
    3.3147   11.9207    0.9716 N   0  0  0  0  0  0  0  0  0  0  0  0
    5.7134    6.4208    2.3650 C   0  0  0  0  0  0  0  0  0  0  0  0
    2.6259    3.5157   -1.3848 C   0  0  2  0  0  0  0  0  0  0  0  0
    2.2361    4.8225   -1.7496 O   0  0  0  0  0  0  0  0  0  0  0  0
    1.8883   10.8101   -0.7572 C   0  0  0  0  0  0  0  0  0  0  0  0
    5.2763    7.7911    1.7241 C   0  0  2  0  0  0  0  0  0  0  0  0
    5.8797    8.8897    2.4978 N   0  0  0  0  0  0  0  0  0  0  0  0
    1.3907    2.6792   -0.8768 C   0  0  1  0  0  0  0  0  0  0  0  0
    0.3719    2.5641   -1.9723 N   0  0  0  0  0  0  0  0  0  0  0  0
    1.8197    9.5180   -1.6767 C   0  0  0  0  0  0  0  0  0  0  0  0
    3.6886    7.9122    1.7412 C   0  0  2  0  0  0  0  0  0  0  0  0
    1.9224    1.1913   -0.4744 C   0  0  1  0  0  0  0  0  0  0  0  0
    2.5458    0.5301   -1.5624 O   0  0  0  0  0  0  0  0  0  0  0  0
    2.8823    8.6773   -1.7850 C   0  0  2  0  0  0  0  0  0  0  0  0
    4.1134    8.9003   -1.0876 O   0  0  0  0  0  0  0  0  0  0  0  0
    3.0628    6.7273    0.9164 C   0  0  2  0  0  0  0  0  0  0  0  0
    1.6236    6.8392    0.9456 O   0  0  0  0  0  0  0  0  0  0  0  0
    2.9864    1.2975    0.6659 C   0  0  0  0  0  0  0  0  0  0  0  0
    4.0846    2.2336    0.2350 O   0  0  0  0  0  0  0  0  0  0  0  0
    2.8653    7.4222   -2.6596 C   0  0  0  0  0  0  0  0  0  0  0  0
    4.2083    7.1972   -3.1493 O   0  0  0  0  0  0  0  0  0  0  0  0
    3.4916    5.3688    1.5844 C   0  0  1  0  0  0  0  0  0  0  0  0
    2.9140    4.3300    0.8579 O   0  0  0  0  0  0  0  0  0  0  0  0
    0.8304    0.2275    0.0493 C   0  0  0  0  0  0  0  0  0  0  0  0
   -1.0450    2.6944   -1.5753 C   0  0  0  0  0  0  0  0  0  0  0  0
  1  2  1  1  0  0  0
  1  6  1  0  0  0  0
  1 21  1  0  0  0  0
  3  4  1  1  0  0  0
  3  8  1  0  0  0  0
  3 28  1  0  0  0  0
  5  9  1  0  0  0  0
  5 25  1  0  0  0  0
  5 29  1  1  0  0  0
  6  7  1  1  0  0  0
  6 11  1  0  0  0  0
  8 12  1  0  0  0  0
  9 10  1  1  0  0  0
  9 14  1  0  0  0  0
 11 16  1  0  0  0  0
 12 13  1  1  0  0  0
 12 17  1  0  0  0  0
 14 15  1  6  0  0  0
 14 18  1  0  0  0  0
 15 31  1  0  0  0  0
 16 20  1  0  0  0  0
 17  2  1  6  0  0  0
 17 22  1  0  0  0  0
 18 19  1  6  0  0  0
 18 24  1  0  0  0  0
 18 30  1  0  0  0  0
 20 21  1  0  0  0  0
 20 26  1  6  0  0  0
 22 23  1  1  0  0  0
 22 28  1  0  0  0  0
 24 25  1  0  0  0  0
 26 27  1  0  0  0  0
 28 29  1  6  0  0  0
M  END
>  <CHROM.1>
-179.04220650,-134.65517488,-139.54855226,31.99511191,148.45188331,-22.77076220
3.06655963,5.88208636,-0.08185527,1.25344074,-0.82427015,-0.13535931

>  <Name>
ligand

>  <RI>
0

>  <Rbt.Current_Directory>
/home/itssahil/PROJECTS/Mol_Feturizer/New_Systems/rnas/4GPX

>  <Rbt.Executable>
rbdock ($Id: //depot/dev/client3/rdock/2013.1/src/exe/rbdock.cxx#4 $)

>  <Rbt.Library>
libRbt.so (2013.1, Build901 2013/11/27)

>  <Rbt.Parameter_File>
/export/apps/rDock/src/rDock_2013.1_src/data/scripts/dock_solv.prm

>  <Rbt.Receptor>
prm/blind_docking_40.prm

>  <SCORE>
2.61741

>  <SCORE.INTER>
-5.57825

>  <SCORE.INTER.CONST>
1

>  <SCORE.INTER.POLAR>
0

>  <SCORE.INTER.ROT>
6

>  <SCORE.INTER.SOLV>
15.3406

>  <SCORE.INTER.VDW>
-16.4324

>  <SCORE.INTER.norm>
-0.179944

>  <SCORE.INTRA>
0.915402

>  <SCORE.INTRA.DIHEDRAL>
-2.85629

>  <SCORE.INTRA.DIHEDRAL.0>
20.6841

>  <SCORE.INTRA.POLAR>
0

>  <SCORE.INTRA.POLAR.0>
0

>  <SCORE.INTRA.REPUL>
0

>  <SCORE.INTRA.REPUL.0>
0

>  <SCORE.INTRA.SOLV>
0.733352

>  <SCORE.INTRA.SOLV.lig_0>
-64.6797

>  <SCORE.INTRA.VDW>
1.97687

>  <SCORE.INTRA.VDW.0>
-4.11825

>  <SCORE.INTRA.norm>
0.0295291

>  <SCORE.RESTR>
7.28025

>  <SCORE.RESTR.CAVITY>
7.28025

>  <SCORE.RESTR.norm>
0.234847

>  <SCORE.SYSTEM>
0

>  <SCORE.SYSTEM.CONST>
0

>  <SCORE.SYSTEM.DIHEDRAL>
0

>  <SCORE.SYSTEM.SOLV>
0

>  <SCORE.SYSTEM.norm>
0

>  <SCORE.heavy>
31

>  <SCORE.norm>
0.0844324

>  <RMSD>
13.005

$$$$
ligand
 OpenBabel11021811493D
libRbt.so/2013.1/901 2013/11/27
 31 33  0  0  0  0  0  0  0  0999 V2000
    3.0375    2.0640   -0.0544 C   0  0  2  0  0  0  0  0  0  0  0  0
    3.0023    2.8885   -1.2156 O   0  0  0  0  0  0  0  0  0  0  0  0
    2.9729    7.0517   -2.0822 C   0  0  2  0  0  0  0  0  0  0  0  0
    2.5273    8.4099   -2.1427 N   0  0  0  0  0  0  0  0  0  0  0  0
    3.6504    8.4725    1.0029 C   0  0  2  0  0  0  0  0  0  0  0  0
    2.1628    0.7860   -0.3827 C   0  0  2  0  0  0  0  0  0  0  0  0
    2.7325    0.1140   -1.5459 N   0  0  0  0  0  0  0  0  0  0  0  0
    1.9020    6.1419   -2.8139 C   0  0  0  0  0  0  0  0  0  0  0  0
    4.9621    8.8419    1.7656 C   0  0  2  0  0  0  0  0  0  0  0  0
    5.9263    9.2518    0.8196 O   0  0  0  0  0  0  0  0  0  0  0  0
    0.6626    1.2016   -0.6575 C   0  0  0  0  0  0  0  0  0  0  0  0
    2.3880    4.6456   -2.7469 C   0  0  2  0  0  0  0  0  0  0  0  0
    1.3932    3.7939   -3.4211 N   0  0  0  0  0  0  0  0  0  0  0  0
    5.4368    7.5491    2.5317 C   0  0  1  0  0  0  0  0  0  0  0  0
    6.7100    7.8374    3.2712 N   0  0  0  0  0  0  0  0  0  0  0  0
    0.1799    2.3799    0.2903 C   0  0  0  0  0  0  0  0  0  0  0  0
    2.5550    4.2005   -1.2271 C   0  0  2  0  0  0  0  0  0  0  0  0
    4.2728    7.1409    3.5980 C   0  0  1  0  0  0  0  0  0  0  0  0
    3.9986    8.1819    4.5202 O   0  0  0  0  0  0  0  0  0  0  0  0
    1.0618    3.0555    1.0736 C   0  0  2  0  0  0  0  0  0  0  0  0
    2.4614    2.7519    1.0940 O   0  0  0  0  0  0  0  0  0  0  0  0
    3.6153    5.1255   -0.5227 C   0  0  2  0  0  0  0  0  0  0  0  0
    3.7529    4.7215    0.8566 O   0  0  0  0  0  0  0  0  0  0  0  0
    2.9394    6.8392    2.8397 C   0  0  0  0  0  0  0  0  0  0  0  0
    2.5796    8.0209    1.9783 O   0  0  0  0  0  0  0  0  0  0  0  0
    0.6448    4.1955    2.0046 C   0  0  0  0  0  0  0  0  0  0  0  0
    0.7391    5.4365    1.2661 O   0  0  0  0  0  0  0  0  0  0  0  0
    3.1021    6.6117   -0.5797 C   0  0  1  0  0  0  0  0  0  0  0  0
    4.0387    7.4162    0.0655 O   0  0  0  0  0  0  0  0  0  0  0  0
    4.5763    5.8815    4.4451 C   0  0  0  0  0  0  0  0  0  0  0  0
    7.9691    7.4808    2.5858 C   0  0  0  0  0  0  0  0  0  0  0  0
  1  2  1  6  0  0  0
  1  6  1  0  0  0  0
  1 21  1  0  0  0  0
  3  4  1  1  0  0  0
  3  8  1  0  0  0  0
  3 28  1  0  0  0  0
  5  9  1  0  0  0  0
  5 25  1  0  0  0  0
  5 29  1  6  0  0  0
  6  7  1  6  0  0  0
  6 11  1  0  0  0  0
  8 12  1  0  0  0  0
  9 10  1  6  0  0  0
  9 14  1  0  0  0  0
 11 16  1  0  0  0  0
 12 13  1  1  0  0  0
 12 17  1  0  0  0  0
 14 15  1  1  0  0  0
 14 18  1  0  0  0  0
 15 31  1  0  0  0  0
 16 20  1  0  0  0  0
 17  2  1  6  0  0  0
 17 22  1  0  0  0  0
 18 19  1  1  0  0  0
 18 24  1  0  0  0  0
 18 30  1  0  0  0  0
 20 21  1  0  0  0  0
 20 26  1  1  0  0  0
 22 23  1  1  0  0  0
 22 28  1  0  0  0  0
 24 25  1  0  0  0  0
 26 27  1  0  0  0  0
 28 29  1  1  0  0  0
M  END
>  <CHROM.1>
122.33529159,165.03801376,-95.31317677,-168.05389731,-90.38662384,105.18008206
3.17397930,5.45957605,0.57510731,-3.11008347,-1.09430453,-0.98028330

>  <Name>
ligand

>  <RI>
0

>  <Rbt.Current_Directory>
/home/itssahil/PROJECTS/Mol_Feturizer/New_Systems/rnas/4GPX

>  <Rbt.Executable>
rbdock ($Id: //depot/dev/client3/rdock/2013.1/src/exe/rbdock.cxx#4 $)

>  <Rbt.Library>
libRbt.so (2013.1, Build901 2013/11/27)

>  <Rbt.Parameter_File>
/export/apps/rDock/src/rDock_2013.1_src/data/scripts/dock_solv.prm

>  <Rbt.Receptor>
prm/blind_docking_40.prm

>  <SCORE>
15.1461

>  <SCORE.INTER>
7.79684

>  <SCORE.INTER.CONST>
1

>  <SCORE.INTER.POLAR>
0

>  <SCORE.INTER.ROT>
6

>  <SCORE.INTER.SOLV>
19.3328

>  <SCORE.INTER.VDW>
-8.84636

>  <SCORE.INTER.norm>
0.251511

>  <SCORE.INTRA>
-0.676604

>  <SCORE.INTRA.DIHEDRAL>
-2.2345

>  <SCORE.INTRA.DIHEDRAL.0>
20.6841

>  <SCORE.INTRA.POLAR>
0

>  <SCORE.INTRA.POLAR.0>
0

>  <SCORE.INTRA.REPUL>
0

>  <SCORE.INTRA.REPUL.0>
0

>  <SCORE.INTRA.SOLV>
0.279806

>  <SCORE.INTRA.SOLV.lig_0>
-64.6797

>  <SCORE.INTRA.VDW>
0.300745

>  <SCORE.INTRA.VDW.0>
-4.11825

>  <SCORE.INTRA.norm>
-0.0218259

>  <SCORE.RESTR>
8.02589

>  <SCORE.RESTR.CAVITY>
8.02589

>  <SCORE.RESTR.norm>
0.2589

>  <SCORE.SYSTEM>
0

>  <SCORE.SYSTEM.CONST>
0

>  <SCORE.SYSTEM.DIHEDRAL>
0

>  <SCORE.SYSTEM.SOLV>
0

>  <SCORE.SYSTEM.norm>
0

>  <SCORE.heavy>
31

>  <SCORE.norm>
0.488585

>  <RMSD>
13.018

$$$$
ligand
 OpenBabel11021811493D
libRbt.so/2013.1/901 2013/11/27
 31 33  0  0  0  0  0  0  0  0999 V2000
    5.3278    8.4974    1.9453 C   0  0  2  0  0  0  0  0  0  0  0  0
    4.2679    7.7503    2.5347 O   0  0  0  0  0  0  0  0  0  0  0  0
    1.4323    4.6869    1.7228 C   0  0  2  0  0  0  0  0  0  0  0  0
    0.4558    3.9087    1.0244 N   0  0  0  0  0  0  0  0  0  0  0  0
    3.6535    2.7883   -0.4762 C   0  0  2  0  0  0  0  0  0  0  0  0
    5.1473    9.9939    2.4288 C   0  0  2  0  0  0  0  0  0  0  0  0
    5.2030   10.0257    3.8866 N   0  0  0  0  0  0  0  0  0  0  0  0
    0.8944    6.1723    1.8421 C   0  0  0  0  0  0  0  0  0  0  0  0
    2.3503    2.7565   -1.3361 C   0  0  2  0  0  0  0  0  0  0  0  0
    1.8556    4.0743   -1.4428 O   0  0  0  0  0  0  0  0  0  0  0  0
    3.7730   10.5780    1.9100 C   0  0  0  0  0  0  0  0  0  0  0  0
    1.9680    7.0325    2.6082 C   0  0  2  0  0  0  0  0  0  0  0  0
    1.4757    8.4165    2.7175 N   0  0  0  0  0  0  0  0  0  0  0  0
    1.3207    1.8257   -0.5896 C   0  0  1  0  0  0  0  0  0  0  0  0
    0.0353    1.7711   -1.3613 N   0  0  0  0  0  0  0  0  0  0  0  0
    3.4187   10.0762    0.4463 C   0  0  0  0  0  0  0  0  0  0  0  0
    3.3494    7.0000    1.8169 C   0  0  2  0  0  0  0  0  0  0  0  0
    1.9647    0.3302   -0.5051 C   0  0  1  0  0  0  0  0  0  0  0  0
    2.2634   -0.2002   -1.7853 O   0  0  0  0  0  0  0  0  0  0  0  0
    4.1414    9.0924   -0.1516 C   0  0  2  0  0  0  0  0  0  0  0  0
    5.2522    8.4557    0.4905 O   0  0  0  0  0  0  0  0  0  0  0  0
    3.8551    5.5142    1.7044 C   0  0  2  0  0  0  0  0  0  0  0  0
    5.1023    5.4930    0.9773 O   0  0  0  0  0  0  0  0  0  0  0  0
    3.3064    0.3736    0.2960 C   0  0  0  0  0  0  0  0  0  0  0  0
    4.2250    1.3906   -0.3285 O   0  0  0  0  0  0  0  0  0  0  0  0
    3.8404    8.5772   -1.5604 C   0  0  0  0  0  0  0  0  0  0  0  0
    3.2269    7.2720   -1.4402 O   0  0  0  0  0  0  0  0  0  0  0  0
    2.7809    4.6762    0.9174 C   0  0  1  0  0  0  0  0  0  0  0  0
    3.2503    3.3693    0.8064 O   0  0  0  0  0  0  0  0  0  0  0  0
    1.0787   -0.7228    0.2034 C   0  0  0  0  0  0  0  0  0  0  0  0
    0.1196    1.2888   -2.7550 C   0  0  0  0  0  0  0  0  0  0  0  0
  1  2  1  1  0  0  0
  1  6  1  0  0  0  0
  1 21  1  0  0  0  0
  3  4  1  6  0  0  0
  3  8  1  0  0  0  0
  3 28  1  0  0  0  0
  5  9  1  0  0  0  0
  5 25  1  0  0  0  0
  5 29  1  1  0  0  0
  6  7  1  1  0  0  0
  6 11  1  0  0  0  0
  8 12  1  0  0  0  0
  9 10  1  1  0  0  0
  9 14  1  0  0  0  0
 11 16  1  0  0  0  0
 12 13  1  6  0  0  0
 12 17  1  0  0  0  0
 14 15  1  6  0  0  0
 14 18  1  0  0  0  0
 15 31  1  0  0  0  0
 16 20  1  0  0  0  0
 17  2  1  1  0  0  0
 17 22  1  0  0  0  0
 18 19  1  6  0  0  0
 18 24  1  0  0  0  0
 18 30  1  0  0  0  0
 20 21  1  0  0  0  0
 20 26  1  6  0  0  0
 22 23  1  6  0  0  0
 22 28  1  0  0  0  0
 24 25  1  0  0  0  0
 26 27  1  0  0  0  0
 28 29  1  1  0  0  0
M  END
>  <CHROM.1>
123.21540916,-64.00914145,58.25719778,-148.09430042,-106.14879824,129.67662855
2.92801285,5.20038888,0.49920311,-0.69548175,1.20931511,2.60331936

>  <Name>
ligand

>  <RI>
0

>  <Rbt.Current_Directory>
/home/itssahil/PROJECTS/Mol_Feturizer/New_Systems/rnas/4GPX

>  <Rbt.Executable>
rbdock ($Id: //depot/dev/client3/rdock/2013.1/src/exe/rbdock.cxx#4 $)

>  <Rbt.Library>
libRbt.so (2013.1, Build901 2013/11/27)

>  <Rbt.Parameter_File>
/export/apps/rDock/src/rDock_2013.1_src/data/scripts/dock_solv.prm

>  <Rbt.Receptor>
prm/blind_docking_40.prm

>  <SCORE>
15.2044

>  <SCORE.INTER>
-1.91645

>  <SCORE.INTER.CONST>
1

>  <SCORE.INTER.POLAR>
0

>  <SCORE.INTER.ROT>
6

>  <SCORE.INTER.SOLV>
13.4097

>  <SCORE.INTER.VDW>
-13.3475

>  <SCORE.INTER.norm>
-0.0618209

>  <SCORE.INTRA>
7.46228

>  <SCORE.INTRA.DIHEDRAL>
-0.83549

>  <SCORE.INTRA.DIHEDRAL.0>
20.6841

>  <SCORE.INTRA.POLAR>
0

>  <SCORE.INTRA.POLAR.0>
0

>  <SCORE.INTRA.REPUL>
0.534526

>  <SCORE.INTRA.REPUL.0>
0

>  <SCORE.INTRA.SOLV>
4.97817

>  <SCORE.INTRA.SOLV.lig_0>
-64.6797

>  <SCORE.INTRA.VDW>
2.71831

>  <SCORE.INTRA.VDW.0>
-4.11825

>  <SCORE.INTRA.norm>
0.240719

>  <SCORE.RESTR>
9.65856

>  <SCORE.RESTR.CAVITY>
9.65856

>  <SCORE.RESTR.norm>
0.311566

>  <SCORE.SYSTEM>
0

>  <SCORE.SYSTEM.CONST>
0

>  <SCORE.SYSTEM.DIHEDRAL>
0

>  <SCORE.SYSTEM.SOLV>
0

>  <SCORE.SYSTEM.norm>
0

>  <SCORE.heavy>
31

>  <SCORE.norm>
0.490464

>  <RMSD>
13.062

$$$$
ligand
 OpenBabel11021811493D
libRbt.so/2013.1/901 2013/11/27
 31 33  0  0  0  0  0  0  0  0999 V2000
    2.1737    1.9748    0.9079 C   0  0  2  0  0  0  0  0  0  0  0  0
    3.2648    2.4136    0.1040 O   0  0  0  0  0  0  0  0  0  0  0  0
    4.9593    5.5566    2.4135 C   0  0  2  0  0  0  0  0  0  0  0  0
    5.8916    6.5457    2.8601 N   0  0  0  0  0  0  0  0  0  0  0  0
    4.6711    8.3736    0.8442 C   0  0  2  0  0  0  0  0  0  0  0  0
    1.2334    1.1203   -0.0365 C   0  0  2  0  0  0  0  0  0  0  0  0
    2.0002    0.0007   -0.5729 N   0  0  0  0  0  0  0  0  0  0  0  0
    5.6693    4.1413    2.4669 C   0  0  0  0  0  0  0  0  0  0  0  0
    3.6789    9.4728    1.3403 C   0  0  2  0  0  0  0  0  0  0  0  0
    3.2405    9.1241    2.6360 O   0  0  0  0  0  0  0  0  0  0  0  0
    0.6650    2.0188   -1.2063 C   0  0  0  0  0  0  0  0  0  0  0  0
    4.6467    3.0503    1.9735 C   0  0  2  0  0  0  0  0  0  0  0  0
    5.3032    1.7324    2.0157 N   0  0  0  0  0  0  0  0  0  0  0  0
    2.4731    9.5057    0.3261 C   0  0  1  0  0  0  0  0  0  0  0  0
    1.4719   10.5342    0.7629 N   0  0  0  0  0  0  0  0  0  0  0  0
    0.3249    3.4924   -0.7240 C   0  0  0  0  0  0  0  0  0  0  0  0
    4.1764    3.3843    0.4892 C   0  0  2  0  0  0  0  0  0  0  0  0
    3.0603    9.9111   -1.1399 C   0  0  1  0  0  0  0  0  0  0  0  0
    3.7218   11.1648   -1.1269 O   0  0  0  0  0  0  0  0  0  0  0  0
    0.7024    3.9324    0.5054 C   0  0  2  0  0  0  0  0  0  0  0  0
    1.4196    3.1071    1.4306 O   0  0  0  0  0  0  0  0  0  0  0  0
    3.4846    4.7974    0.4633 C   0  0  2  0  0  0  0  0  0  0  0  0
    3.0705    5.0963   -0.8872 O   0  0  0  0  0  0  0  0  0  0  0  0
    4.1067    8.8473   -1.6062 C   0  0  0  0  0  0  0  0  0  0  0  0
    5.1707    8.7013   -0.5504 O   0  0  0  0  0  0  0  0  0  0  0  0
    0.3957    5.3416    1.0158 C   0  0  0  0  0  0  0  0  0  0  0  0
    1.2174    5.5863    2.1817 O   0  0  0  0  0  0  0  0  0  0  0  0
    4.5273    5.8759    0.9374 C   0  0  1  0  0  0  0  0  0  0  0  0
    3.9093    7.1235    0.8893 O   0  0  0  0  0  0  0  0  0  0  0  0
    2.0027    9.9918   -2.2671 C   0  0  0  0  0  0  0  0  0  0  0  0
    1.9815   11.9032    0.9822 C   0  0  0  0  0  0  0  0  0  0  0  0
  1  2  1  6  0  0  0
  1  6  1  0  0  0  0
  1 21  1  0  0  0  0
  3  4  1  6  0  0  0
  3  8  1  0  0  0  0
  3 28  1  0  0  0  0
  5  9  1  0  0  0  0
  5 25  1  0  0  0  0
  5 29  1  6  0  0  0
  6  7  1  6  0  0  0
  6 11  1  0  0  0  0
  8 12  1  0  0  0  0
  9 10  1  1  0  0  0
  9 14  1  0  0  0  0
 11 16  1  0  0  0  0
 12 13  1  6  0  0  0
 12 17  1  0  0  0  0
 14 15  1  1  0  0  0
 14 18  1  0  0  0  0
 15 31  1  0  0  0  0
 16 20  1  0  0  0  0
 17  2  1  1  0  0  0
 17 22  1  0  0  0  0
 18 19  1  1  0  0  0
 18 24  1  0  0  0  0
 18 30  1  0  0  0  0
 20 21  1  0  0  0  0
 20 26  1  1  0  0  0
 22 23  1  6  0  0  0
 22 28  1  0  0  0  0
 24 25  1  0  0  0  0
 26 27  1  0  0  0  0
 28 29  1  1  0  0  0
M  END
>  <CHROM.1>
167.65515392,-159.04631657,54.26014166,47.00355097,-165.49734964,81.28619478
3.04251136,5.97537787,0.55603850,1.67624772,0.53599601,3.03001165

>  <Name>
ligand

>  <RI>
0

>  <Rbt.Current_Directory>
/home/itssahil/PROJECTS/Mol_Feturizer/New_Systems/rnas/4GPX

>  <Rbt.Executable>
rbdock ($Id: //depot/dev/client3/rdock/2013.1/src/exe/rbdock.cxx#4 $)

>  <Rbt.Library>
libRbt.so (2013.1, Build901 2013/11/27)

>  <Rbt.Parameter_File>
/export/apps/rDock/src/rDock_2013.1_src/data/scripts/dock_solv.prm

>  <Rbt.Receptor>
prm/blind_docking_40.prm

>  <SCORE>
-0.0111066

>  <SCORE.INTER>
-4.45179

>  <SCORE.INTER.CONST>
1

>  <SCORE.INTER.POLAR>
0

>  <SCORE.INTER.ROT>
6

>  <SCORE.INTER.SOLV>
11.9802

>  <SCORE.INTER.VDW>
-14.5613

>  <SCORE.INTER.norm>
-0.143606

>  <SCORE.INTRA>
-3.00622

>  <SCORE.INTRA.DIHEDRAL>
-11.8094

>  <SCORE.INTRA.DIHEDRAL.0>
20.6841

>  <SCORE.INTRA.POLAR>
0

>  <SCORE.INTRA.POLAR.0>
0

>  <SCORE.INTRA.REPUL>
0

>  <SCORE.INTRA.REPUL.0>
0

>  <SCORE.INTRA.SOLV>
0.345733

>  <SCORE.INTRA.SOLV.lig_0>
-64.6797

>  <SCORE.INTRA.VDW>
2.72561

>  <SCORE.INTRA.VDW.0>
-4.11825

>  <SCORE.INTRA.norm>
-0.0969748

>  <SCORE.RESTR>
7.4469

>  <SCORE.RESTR.CAVITY>
7.4469

>  <SCORE.RESTR.norm>
0.240222

>  <SCORE.SYSTEM>
0

>  <SCORE.SYSTEM.CONST>
0

>  <SCORE.SYSTEM.DIHEDRAL>
0

>  <SCORE.SYSTEM.SOLV>
0

>  <SCORE.SYSTEM.norm>
0

>  <SCORE.heavy>
31

>  <SCORE.norm>
-0.000358276

>  <RMSD>
13.083

$$$$
ligand
 OpenBabel11021811493D
libRbt.so/2013.1/901 2013/11/27
 31 33  0  0  0  0  0  0  0  0999 V2000
    2.6702    9.0704    1.1151 C   0  0  2  0  0  0  0  0  0  0  0  0
    3.7505    8.7518    0.2429 O   0  0  0  0  0  0  0  0  0  0  0  0
    2.0420    5.8452   -2.3487 C   0  0  2  0  0  0  0  0  0  0  0  0
    1.9239    4.8930   -3.4100 N   0  0  0  0  0  0  0  0  0  0  0  0
    2.0966    4.0224    0.4673 C   0  0  2  0  0  0  0  0  0  0  0  0
    2.9649   10.5166    1.6875 C   0  0  2  0  0  0  0  0  0  0  0  0
    3.0590   11.4524    0.5718 N   0  0  0  0  0  0  0  0  0  0  0  0
    2.4395    7.2447   -2.9758 C   0  0  0  0  0  0  0  0  0  0  0  0
    2.5369    2.6439    1.0542 C   0  0  2  0  0  0  0  0  0  0  0  0
    3.9414    2.6489    1.1960 O   0  0  0  0  0  0  0  0  0  0  0  0
    4.3038   10.5136    2.5279 C   0  0  0  0  0  0  0  0  0  0  0  0
    2.5730    8.2948   -1.8100 C   0  0  2  0  0  0  0  0  0  0  0  0
    2.9479    9.5974   -2.3866 N   0  0  0  0  0  0  0  0  0  0  0  0
    2.0764    1.5337    0.0348 C   0  0  1  0  0  0  0  0  0  0  0  0
    2.4908    0.1819    0.5367 N   0  0  0  0  0  0  0  0  0  0  0  0
    4.4851    9.1795    3.3686 C   0  0  0  0  0  0  0  0  0  0  0  0
    3.6810    7.8117   -0.7734 C   0  0  2  0  0  0  0  0  0  0  0  0
    0.4508    1.5949   -0.0745 C   0  0  1  0  0  0  0  0  0  0  0  0
   -0.1807    1.3988    1.1793 O   0  0  0  0  0  0  0  0  0  0  0  0
    3.6627    8.1140    3.1788 C   0  0  2  0  0  0  0  0  0  0  0  0
    2.5958    8.1268    2.2232 O   0  0  0  0  0  0  0  0  0  0  0  0
    3.2667    6.4169   -0.1742 C   0  0  2  0  0  0  0  0  0  0  0  0
    4.2812    5.9820    0.7565 O   0  0  0  0  0  0  0  0  0  0  0  0
    0.0056    3.0001   -0.5954 C   0  0  0  0  0  0  0  0  0  0  0  0
    0.5902    4.0669    0.2922 O   0  0  0  0  0  0  0  0  0  0  0  0
    3.7959    6.8088    3.9657 C   0  0  0  0  0  0  0  0  0  0  0  0
    4.8729    6.0391    3.3808 O   0  0  0  0  0  0  0  0  0  0  0  0
    3.1603    5.3767   -1.3499 C   0  0  1  0  0  0  0  0  0  0  0  0
    2.8143    4.1428   -0.8038 O   0  0  0  0  0  0  0  0  0  0  0  0
   -0.1776    0.5627   -1.0416 C   0  0  0  0  0  0  0  0  0  0  0  0
    3.4811   -0.5518   -0.2776 C   0  0  0  0  0  0  0  0  0  0  0  0
  1  2  1  6  0  0  0
  1  6  1  0  0  0  0
  1 21  1  0  0  0  0
  3  4  1  6  0  0  0
  3  8  1  0  0  0  0
  3 28  1  0  0  0  0
  5  9  1  0  0  0  0
  5 25  1  0  0  0  0
  5 29  1  6  0  0  0
  6  7  1  6  0  0  0
  6 11  1  0  0  0  0
  8 12  1  0  0  0  0
  9 10  1  6  0  0  0
  9 14  1  0  0  0  0
 11 16  1  0  0  0  0
 12 13  1  6  0  0  0
 12 17  1  0  0  0  0
 14 15  1  1  0  0  0
 14 18  1  0  0  0  0
 15 31  1  0  0  0  0
 16 20  1  0  0  0  0
 17  2  1  1  0  0  0
 17 22  1  0  0  0  0
 18 19  1  1  0  0  0
 18 24  1  0  0  0  0
 18 30  1  0  0  0  0
 20 21  1  0  0  0  0
 20 26  1  1  0  0  0
 22 23  1  1  0  0  0
 22 28  1  0  0  0  0
 24 25  1  0  0  0  0
 26 27  1  0  0  0  0
 28 29  1  1  0  0  0
M  END
>  <CHROM.1>
-157.82173241,-151.93299163,-115.27517212,62.00804337,-79.45364357,-93.42720928
2.67290719,5.61137448,0.34452292,0.85030471,-1.19442518,-0.51649249

>  <Name>
ligand

>  <RI>
0

>  <Rbt.Current_Directory>
/home/itssahil/PROJECTS/Mol_Feturizer/New_Systems/rnas/4GPX

>  <Rbt.Executable>
rbdock ($Id: //depot/dev/client3/rdock/2013.1/src/exe/rbdock.cxx#4 $)

>  <Rbt.Library>
libRbt.so (2013.1, Build901 2013/11/27)

>  <Rbt.Parameter_File>
/export/apps/rDock/src/rDock_2013.1_src/data/scripts/dock_solv.prm

>  <Rbt.Receptor>
prm/blind_docking_40.prm

>  <SCORE>
12.3893

>  <SCORE.INTER>
4.70068

>  <SCORE.INTER.CONST>
1

>  <SCORE.INTER.POLAR>
0

>  <SCORE.INTER.ROT>
6

>  <SCORE.INTER.SOLV>
16.7921

>  <SCORE.INTER.VDW>
-10.0636

>  <SCORE.INTER.norm>
0.151635

>  <SCORE.INTRA>
-1.76218

>  <SCORE.INTRA.DIHEDRAL>
-6.69182

>  <SCORE.INTRA.DIHEDRAL.0>
20.6841

>  <SCORE.INTRA.POLAR>
0

>  <SCORE.INTRA.POLAR.0>
0

>  <SCORE.INTRA.REPUL>
0

>  <SCORE.INTRA.REPUL.0>
0

>  <SCORE.INTRA.SOLV>
0.426959

>  <SCORE.INTRA.SOLV.lig_0>
-64.6797

>  <SCORE.INTRA.VDW>
1.37025

>  <SCORE.INTRA.VDW.0>
-4.11825

>  <SCORE.INTRA.norm>
-0.0568445

>  <SCORE.RESTR>
9.45082

>  <SCORE.RESTR.CAVITY>
9.45082

>  <SCORE.RESTR.norm>
0.304865

>  <SCORE.SYSTEM>
0

>  <SCORE.SYSTEM.CONST>
0

>  <SCORE.SYSTEM.DIHEDRAL>
0

>  <SCORE.SYSTEM.SOLV>
0

>  <SCORE.SYSTEM.norm>
0

>  <SCORE.heavy>
31

>  <SCORE.norm>
0.399655

>  <RMSD>
13.104

$$$$
ligand
 OpenBabel11021811493D
libRbt.so/2013.1/901 2013/11/27
 31 33  0  0  0  0  0  0  0  0999 V2000
    2.2983    1.9998   -1.4544 C   0  0  2  0  0  0  0  0  0  0  0  0
    1.3553    2.9094   -0.8954 O   0  0  0  0  0  0  0  0  0  0  0  0
    3.1041    6.7201   -1.6055 C   0  0  2  0  0  0  0  0  0  0  0  0
    3.2237    8.1373   -1.7608 N   0  0  0  0  0  0  0  0  0  0  0  0
    3.6294    8.2833    1.1385 C   0  0  2  0  0  0  0  0  0  0  0  0
    2.0583    0.6071   -0.7410 C   0  0  2  0  0  0  0  0  0  0  0  0
    0.6830    0.1855   -0.9860 N   0  0  0  0  0  0  0  0  0  0  0  0
    2.0464    6.1899   -2.6591 C   0  0  0  0  0  0  0  0  0  0  0  0
    4.8832    8.3849    2.0639 C   0  0  2  0  0  0  0  0  0  0  0  0
    6.0035    7.9092    1.3488 O   0  0  0  0  0  0  0  0  0  0  0  0
    2.3370    0.7281    0.8103 C   0  0  0  0  0  0  0  0  0  0  0  0
    1.9103    4.6304   -2.4892 C   0  0  2  0  0  0  0  0  0  0  0  0
    0.9237    4.1323   -3.4629 N   0  0  0  0  0  0  0  0  0  0  0  0
    4.6018    7.4918    3.3315 C   0  0  1  0  0  0  0  0  0  0  0  0
    5.7849    7.5336    4.2533 N   0  0  0  0  0  0  0  0  0  0  0  0
    3.5652    1.6816    1.1298 C   0  0  0  0  0  0  0  0  0  0  0  0
    1.4419    4.2885   -1.0061 C   0  0  2  0  0  0  0  0  0  0  0  0
    3.2980    8.1023    4.0970 C   0  0  1  0  0  0  0  0  0  0  0  0
    3.4844    9.4534    4.4832 O   0  0  0  0  0  0  0  0  0  0  0  0
    4.1316    2.4447    0.1580 C   0  0  2  0  0  0  0  0  0  0  0  0
    3.6643    2.4369   -1.1960 O   0  0  0  0  0  0  0  0  0  0  0  0
    2.5039    4.8342    0.0188 C   0  0  2  0  0  0  0  0  0  0  0  0
    2.0665    4.5288    1.3604 O   0  0  0  0  0  0  0  0  0  0  0  0
    2.0578    8.0658    3.1461 C   0  0  0  0  0  0  0  0  0  0  0  0
    2.3936    8.7814    1.8643 O   0  0  0  0  0  0  0  0  0  0  0  0
    5.3174    3.3763    0.4161 C   0  0  0  0  0  0  0  0  0  0  0  0
    5.0115    4.1817    1.5789 O   0  0  0  0  0  0  0  0  0  0  0  0
    2.6095    6.3949   -0.1504 C   0  0  1  0  0  0  0  0  0  0  0  0
    3.5361    6.8672    0.7763 O   0  0  0  0  0  0  0  0  0  0  0  0
    2.8768    7.3407    5.3770 C   0  0  0  0  0  0  0  0  0  0  0  0
    6.7297    6.4011    4.1698 C   0  0  0  0  0  0  0  0  0  0  0  0
  1  2  1  1  0  0  0
  1  6  1  0  0  0  0
  1 21  1  0  0  0  0
  3  4  1  1  0  0  0
  3  8  1  0  0  0  0
  3 28  1  0  0  0  0
  5  9  1  0  0  0  0
  5 25  1  0  0  0  0
  5 29  1  1  0  0  0
  6  7  1  1  0  0  0
  6 11  1  0  0  0  0
  8 12  1  0  0  0  0
  9 10  1  6  0  0  0
  9 14  1  0  0  0  0
 11 16  1  0  0  0  0
 12 13  1  6  0  0  0
 12 17  1  0  0  0  0
 14 15  1  1  0  0  0
 14 18  1  0  0  0  0
 15 31  1  0  0  0  0
 16 20  1  0  0  0  0
 17  2  1  6  0  0  0
 17 22  1  0  0  0  0
 18 19  1  1  0  0  0
 18 24  1  0  0  0  0
 18 30  1  0  0  0  0
 20 21  1  0  0  0  0
 20 26  1  6  0  0  0
 22 23  1  1  0  0  0
 22 28  1  0  0  0  0
 24 25  1  0  0  0  0
 26 27  1  0  0  0  0
 28 29  1  1  0  0  0
M  END
>  <CHROM.1>
163.66647782,-173.75629356,-98.43731764,40.83519257,-49.37825866,77.58448926
3.23081820,5.34350906,0.78454628,-2.23640650,-1.10764892,0.04115066

>  <Name>
ligand

>  <RI>
0

>  <Rbt.Current_Directory>
/home/itssahil/PROJECTS/Mol_Feturizer/New_Systems/rnas/4GPX

>  <Rbt.Executable>
rbdock ($Id: //depot/dev/client3/rdock/2013.1/src/exe/rbdock.cxx#4 $)

>  <Rbt.Library>
libRbt.so (2013.1, Build901 2013/11/27)

>  <Rbt.Parameter_File>
/export/apps/rDock/src/rDock_2013.1_src/data/scripts/dock_solv.prm

>  <Rbt.Receptor>
prm/blind_docking_40.prm

>  <SCORE>
7.14157

>  <SCORE.INTER>
2.03313

>  <SCORE.INTER.CONST>
1

>  <SCORE.INTER.POLAR>
0

>  <SCORE.INTER.ROT>
6

>  <SCORE.INTER.SOLV>
13.7229

>  <SCORE.INTER.VDW>
-10.8189

>  <SCORE.INTER.norm>
0.0655847

>  <SCORE.INTRA>
-5.24671

>  <SCORE.INTRA.DIHEDRAL>
-11.8481

>  <SCORE.INTRA.DIHEDRAL.0>
20.6841

>  <SCORE.INTRA.POLAR>
0

>  <SCORE.INTRA.POLAR.0>
0

>  <SCORE.INTRA.REPUL>
0

>  <SCORE.INTRA.REPUL.0>
0

>  <SCORE.INTRA.SOLV>
0.259109

>  <SCORE.INTRA.SOLV.lig_0>
-64.6797

>  <SCORE.INTRA.VDW>
0.547783

>  <SCORE.INTRA.VDW.0>
-4.11825

>  <SCORE.INTRA.norm>
-0.169249

>  <SCORE.RESTR>
10.3552

>  <SCORE.RESTR.CAVITY>
10.3552

>  <SCORE.RESTR.norm>
0.334037

>  <SCORE.SYSTEM>
0

>  <SCORE.SYSTEM.CONST>
0

>  <SCORE.SYSTEM.DIHEDRAL>
0

>  <SCORE.SYSTEM.SOLV>
0

>  <SCORE.SYSTEM.norm>
0

>  <SCORE.heavy>
31

>  <SCORE.norm>
0.230373

>  <RMSD>
13.190

$$$$
ligand
 OpenBabel11021811493D
libRbt.so/2013.1/901 2013/11/27
 31 33  0  0  0  0  0  0  0  0999 V2000
    2.2540    1.5145    0.7032 C   0  0  2  0  0  0  0  0  0  0  0  0
    3.3970    1.9793   -0.0086 O   0  0  0  0  0  0  0  0  0  0  0  0
    4.7908    5.2163    2.3712 C   0  0  2  0  0  0  0  0  0  0  0  0
    5.6621    6.2224    2.8959 N   0  0  0  0  0  0  0  0  0  0  0  0
    4.6438    7.9700    0.9946 C   0  0  2  0  0  0  0  0  0  0  0  0
    1.3652    0.7221   -0.3400 C   0  0  2  0  0  0  0  0  0  0  0  0
    2.1522   -0.3787   -0.8860 N   0  0  0  0  0  0  0  0  0  0  0  0
    5.4775    3.8037    2.5786 C   0  0  0  0  0  0  0  0  0  0  0  0
    3.5776    8.8182    1.7578 C   0  0  2  0  0  0  0  0  0  0  0  0
    3.1492    8.0844    2.8850 O   0  0  0  0  0  0  0  0  0  0  0  0
    0.8792    1.6869   -1.4940 C   0  0  0  0  0  0  0  0  0  0  0  0
    4.5222    2.6938    1.9998 C   0  0  2  0  0  0  0  0  0  0  0  0
    5.1580    1.3781    2.1848 N   0  0  0  0  0  0  0  0  0  0  0  0
    2.3828    9.0722    0.7620 C   0  0  1  0  0  0  0  0  0  0  0  0
    1.3128    9.8696    1.4478 N   0  0  0  0  0  0  0  0  0  0  0  0
    0.5249    3.1383   -0.9576 C   0  0  0  0  0  0  0  0  0  0  0  0
    4.2559    2.9645    0.4533 C   0  0  2  0  0  0  0  0  0  0  0  0
    2.9577    9.9183   -0.5076 C   0  0  1  0  0  0  0  0  0  0  0  0
    3.5367   11.1512   -0.1149 O   0  0  0  0  0  0  0  0  0  0  0  0
    0.8303    3.5095    0.3139 C   0  0  2  0  0  0  0  0  0  0  0  0
    1.4806    2.6284    1.2371 O   0  0  0  0  0  0  0  0  0  0  0  0
    3.5835    4.3760    0.2756 C   0  0  2  0  0  0  0  0  0  0  0  0
    3.3550    4.6173   -1.1294 O   0  0  0  0  0  0  0  0  0  0  0  0
    4.0754    9.0984   -1.2305 C   0  0  0  0  0  0  0  0  0  0  0  0
    5.1355    8.7160   -0.2316 O   0  0  0  0  0  0  0  0  0  0  0  0
    0.5070    4.8948    0.8771 C   0  0  0  0  0  0  0  0  0  0  0  0
    1.4973    5.2133    1.8832 O   0  0  0  0  0  0  0  0  0  0  0  0
    4.5613    5.4726    0.8385 C   0  0  1  0  0  0  0  0  0  0  0  0
    3.9639    6.7177    0.6557 O   0  0  0  0  0  0  0  0  0  0  0  0
    1.9088   10.2593   -1.5935 C   0  0  0  0  0  0  0  0  0  0  0  0
    0.3614    9.1152    2.2892 C   0  0  0  0  0  0  0  0  0  0  0  0
  1  2  1  6  0  0  0
  1  6  1  0  0  0  0
  1 21  1  0  0  0  0
  3  4  1  6  0  0  0
  3  8  1  0  0  0  0
  3 28  1  0  0  0  0
  5  9  1  0  0  0  0
  5 25  1  0  0  0  0
  5 29  1  6  0  0  0
  6  7  1  6  0  0  0
  6 11  1  0  0  0  0
  8 12  1  0  0  0  0
  9 10  1  1  0  0  0
  9 14  1  0  0  0  0
 11 16  1  0  0  0  0
 12 13  1  6  0  0  0
 12 17  1  0  0  0  0
 14 15  1  1  0  0  0
 14 18  1  0  0  0  0
 15 31  1  0  0  0  0
 16 20  1  0  0  0  0
 17  2  1  1  0  0  0
 17 22  1  0  0  0  0
 18 19  1  1  0  0  0
 18 24  1  0  0  0  0
 18 30  1  0  0  0  0
 20 21  1  0  0  0  0
 20 26  1  1  0  0  0
 22 23  1  6  0  0  0
 22 28  1  0  0  0  0
 24 25  1  0  0  0  0
 26 27  1  0  0  0  0
 28 29  1  1  0  0  0
M  END
>  <CHROM.1>
164.32040839,-134.79706174,-82.81674798,42.64312155,-150.64647554,65.18644744
2.99797260,5.53903967,0.67112296,1.64638928,0.49825986,3.13545628

>  <Name>
ligand

>  <RI>
0

>  <Rbt.Current_Directory>
/home/itssahil/PROJECTS/Mol_Feturizer/New_Systems/rnas/4GPX

>  <Rbt.Executable>
rbdock ($Id: //depot/dev/client3/rdock/2013.1/src/exe/rbdock.cxx#4 $)

>  <Rbt.Library>
libRbt.so (2013.1, Build901 2013/11/27)

>  <Rbt.Parameter_File>
/export/apps/rDock/src/rDock_2013.1_src/data/scripts/dock_solv.prm

>  <Rbt.Receptor>
prm/blind_docking_40.prm

>  <SCORE>
1.39385

>  <SCORE.INTER>
-3.99203

>  <SCORE.INTER.CONST>
1

>  <SCORE.INTER.POLAR>
0

>  <SCORE.INTER.ROT>
6

>  <SCORE.INTER.SOLV>
11.4392

>  <SCORE.INTER.VDW>
-14.0744

>  <SCORE.INTER.norm>
-0.128775

>  <SCORE.INTRA>
-2.32452

>  <SCORE.INTRA.DIHEDRAL>
-8.78141

>  <SCORE.INTRA.DIHEDRAL.0>
20.6841

>  <SCORE.INTRA.POLAR>
0

>  <SCORE.INTRA.POLAR.0>
0

>  <SCORE.INTRA.REPUL>
0

>  <SCORE.INTRA.REPUL.0>
0

>  <SCORE.INTRA.SOLV>
1.71114

>  <SCORE.INTRA.SOLV.lig_0>
-64.6797

>  <SCORE.INTRA.VDW>
1.21062

>  <SCORE.INTRA.VDW.0>
-4.11825

>  <SCORE.INTRA.norm>
-0.0749844

>  <SCORE.RESTR>
7.71039

>  <SCORE.RESTR.CAVITY>
7.71039

>  <SCORE.RESTR.norm>
0.248722

>  <SCORE.SYSTEM>
0

>  <SCORE.SYSTEM.CONST>
0

>  <SCORE.SYSTEM.DIHEDRAL>
0

>  <SCORE.SYSTEM.SOLV>
0

>  <SCORE.SYSTEM.norm>
0

>  <SCORE.heavy>
31

>  <SCORE.norm>
0.0449628

>  <RMSD>
13.192

$$$$
ligand
 OpenBabel11021811493D
libRbt.so/2013.1/901 2013/11/27
 31 33  0  0  0  0  0  0  0  0999 V2000
    2.2518    1.5117    0.6929 C   0  0  2  0  0  0  0  0  0  0  0  0
    3.3918    1.9780   -0.0227 O   0  0  0  0  0  0  0  0  0  0  0  0
    4.7934    5.2132    2.3549 C   0  0  2  0  0  0  0  0  0  0  0  0
    5.6668    6.2185    2.8779 N   0  0  0  0  0  0  0  0  0  0  0  0
    4.6488    7.9678    0.9711 C   0  0  2  0  0  0  0  0  0  0  0  0
    1.3573    0.7238   -0.3488 C   0  0  2  0  0  0  0  0  0  0  0  0
    2.1407   -0.3757   -0.9025 N   0  0  0  0  0  0  0  0  0  0  0  0
    5.4796    3.8000    2.5602 C   0  0  0  0  0  0  0  0  0  0  0  0
    3.5913    8.8194    1.7426 C   0  0  2  0  0  0  0  0  0  0  0  0
    3.1727    8.0888    2.8756 O   0  0  0  0  0  0  0  0  0  0  0  0
    0.8667    1.6931   -1.4971 C   0  0  0  0  0  0  0  0  0  0  0  0
    4.5221    2.6910    1.9833 C   0  0  2  0  0  0  0  0  0  0  0  0
    5.1574    1.3748    2.1665 N   0  0  0  0  0  0  0  0  0  0  0  0
    2.3872    9.0729    0.7578 C   0  0  1  0  0  0  0  0  0  0  0  0
    1.3250    9.8734    1.4521 N   0  0  0  0  0  0  0  0  0  0  0  0
    0.5163    3.1429   -0.9538 C   0  0  0  0  0  0  0  0  0  0  0  0
    4.2525    2.9624    0.4375 C   0  0  2  0  0  0  0  0  0  0  0  0
    2.9511    9.9152   -0.5192 C   0  0  1  0  0  0  0  0  0  0  0  0
    3.5356   11.1481   -0.1351 O   0  0  0  0  0  0  0  0  0  0  0  0
    0.8281    3.5093    0.3175 C   0  0  2  0  0  0  0  0  0  0  0  0
    1.4821    2.6244    1.2344 O   0  0  0  0  0  0  0  0  0  0  0  0
    3.5808    4.3745    0.2618 C   0  0  2  0  0  0  0  0  0  0  0  0
    3.3492    4.6164   -1.1426 O   0  0  0  0  0  0  0  0  0  0  0  0
    4.0605    9.0920   -1.2510 C   0  0  0  0  0  0  0  0  0  0  0  0
    5.1297    8.7103   -0.2615 O   0  0  0  0  0  0  0  0  0  0  0  0
    0.5088    4.8928    0.8872 C   0  0  0  0  0  0  0  0  0  0  0  0
    1.4346    5.1590    1.9671 O   0  0  0  0  0  0  0  0  0  0  0  0
    4.5607    5.4702    0.8228 C   0  0  1  0  0  0  0  0  0  0  0  0
    3.9638    6.7158    0.6417 O   0  0  0  0  0  0  0  0  0  0  0  0
    1.8922   10.2552   -1.5957 C   0  0  0  0  0  0  0  0  0  0  0  0
    0.3111    9.1119    2.2099 C   0  0  0  0  0  0  0  0  0  0  0  0
  1  2  1  6  0  0  0
  1  6  1  0  0  0  0
  1 21  1  0  0  0  0
  3  4  1  6  0  0  0
  3  8  1  0  0  0  0
  3 28  1  0  0  0  0
  5  9  1  0  0  0  0
  5 25  1  0  0  0  0
  5 29  1  6  0  0  0
  6  7  1  6  0  0  0
  6 11  1  0  0  0  0
  8 12  1  0  0  0  0
  9 10  1  1  0  0  0
  9 14  1  0  0  0  0
 11 16  1  0  0  0  0
 12 13  1  6  0  0  0
 12 17  1  0  0  0  0
 14 15  1  1  0  0  0
 14 18  1  0  0  0  0
 15 31  1  0  0  0  0
 16 20  1  0  0  0  0
 17  2  1  1  0  0  0
 17 22  1  0  0  0  0
 18 19  1  1  0  0  0
 18 24  1  0  0  0  0
 18 30  1  0  0  0  0
 20 21  1  0  0  0  0
 20 26  1  1  0  0  0
 22 23  1  6  0  0  0
 22 28  1  0  0  0  0
 24 25  1  0  0  0  0
 26 27  1  0  0  0  0
 28 29  1  1  0  0  0
M  END
>  <CHROM.1>
164.20524840,-134.73697413,-87.93188801,42.49186081,-155.42017891,65.60151361
2.99280299,5.53581015,0.66081633,1.64638788,0.48973749,3.13419549

>  <Name>
ligand

>  <RI>
0

>  <Rbt.Current_Directory>
/home/itssahil/PROJECTS/Mol_Feturizer/New_Systems/rnas/4GPX

>  <Rbt.Executable>
rbdock ($Id: //depot/dev/client3/rdock/2013.1/src/exe/rbdock.cxx#4 $)

>  <Rbt.Library>
libRbt.so (2013.1, Build901 2013/11/27)

>  <Rbt.Parameter_File>
/export/apps/rDock/src/rDock_2013.1_src/data/scripts/dock_solv.prm

>  <Rbt.Receptor>
prm/blind_docking_40.prm

>  <SCORE>
1.37202

>  <SCORE.INTER>
-3.87914

>  <SCORE.INTER.CONST>
1

>  <SCORE.INTER.POLAR>
0

>  <SCORE.INTER.ROT>
6

>  <SCORE.INTER.SOLV>
11.5745

>  <SCORE.INTER.VDW>
-14.0443

>  <SCORE.INTER.norm>
-0.125134

>  <SCORE.INTRA>
-2.45286

>  <SCORE.INTRA.DIHEDRAL>
-8.32191

>  <SCORE.INTRA.DIHEDRAL.0>
20.6841

>  <SCORE.INTRA.POLAR>
0

>  <SCORE.INTRA.POLAR.0>
0

>  <SCORE.INTRA.REPUL>
0

>  <SCORE.INTRA.REPUL.0>
0

>  <SCORE.INTRA.SOLV>
1.58181

>  <SCORE.INTRA.SOLV.lig_0>
-64.6797

>  <SCORE.INTRA.VDW>
0.917192

>  <SCORE.INTRA.VDW.0>
-4.11825

>  <SCORE.INTRA.norm>
-0.0791245

>  <SCORE.RESTR>
7.70402

>  <SCORE.RESTR.CAVITY>
7.70402

>  <SCORE.RESTR.norm>
0.248517

>  <SCORE.SYSTEM>
0

>  <SCORE.SYSTEM.CONST>
0

>  <SCORE.SYSTEM.DIHEDRAL>
0

>  <SCORE.SYSTEM.SOLV>
0

>  <SCORE.SYSTEM.norm>
0

>  <SCORE.heavy>
31

>  <SCORE.norm>
0.0442586

>  <RMSD>
13.199

$$$$
ligand
 OpenBabel11021811493D
libRbt.so/2013.1/901 2013/11/27
 31 33  0  0  0  0  0  0  0  0999 V2000
    1.7900    3.4507   -0.3815 C   0  0  2  0  0  0  0  0  0  0  0  0
    3.0034    3.2013    0.3219 O   0  0  0  0  0  0  0  0  0  0  0  0
    5.6027    5.9510    2.2627 C   0  0  2  0  0  0  0  0  0  0  0  0
    6.6683    6.8853    2.4591 N   0  0  0  0  0  0  0  0  0  0  0  0
    4.7594    8.9966    1.4420 C   0  0  2  0  0  0  0  0  0  0  0  0
    0.6349    3.4568    0.7010 C   0  0  2  0  0  0  0  0  0  0  0  0
    0.9189    4.4971    1.6839 N   0  0  0  0  0  0  0  0  0  0  0  0
    6.2243    4.5836    1.7589 C   0  0  0  0  0  0  0  0  0  0  0  0
    3.6517   10.0836    1.6154 C   0  0  2  0  0  0  0  0  0  0  0  0
    3.0715    9.9277    2.8928 O   0  0  0  0  0  0  0  0  0  0  0  0
    0.5280    2.0429    1.3998 C   0  0  0  0  0  0  0  0  0  0  0  0
    5.0539    3.5535    1.5391 C   0  0  2  0  0  0  0  0  0  0  0  0
    5.6254    2.2813    1.0652 N   0  0  0  0  0  0  0  0  0  0  0  0
    2.5854    9.8495    0.4787 C   0  0  1  0  0  0  0  0  0  0  0  0
    1.4803   10.8563    0.6057 N   0  0  0  0  0  0  0  0  0  0  0  0
    0.7783    0.8482    0.3851 C   0  0  0  0  0  0  0  0  0  0  0  0
    4.0242    4.1277    0.4687 C   0  0  2  0  0  0  0  0  0  0  0  0
    3.3314   10.0437   -0.9580 C   0  0  1  0  0  0  0  0  0  0  0  0
    3.9142   11.3289   -1.0924 O   0  0  0  0  0  0  0  0  0  0  0  0
    1.2391    1.0812   -0.8723 C   0  0  2  0  0  0  0  0  0  0  0  0
    1.5234    2.3995   -1.3550 O   0  0  0  0  0  0  0  0  0  0  0  0
    3.4304    5.4888    0.9891 C   0  0  2  0  0  0  0  0  0  0  0  0
    2.5060    6.0069    0.0085 O   0  0  0  0  0  0  0  0  0  0  0  0
    4.4870    9.0007   -1.1022 C   0  0  0  0  0  0  0  0  0  0  0  0
    5.4138    9.1198    0.0787 O   0  0  0  0  0  0  0  0  0  0  0  0
    1.4931   -0.0358   -1.8863 C   0  0  0  0  0  0  0  0  0  0  0  0
    2.9242   -0.1945   -2.0312 O   0  0  0  0  0  0  0  0  0  0  0  0
    4.6108    6.5111    1.1810 C   0  0  1  0  0  0  0  0  0  0  0  0
    4.0696    7.7170    1.6209 O   0  0  0  0  0  0  0  0  0  0  0  0
    2.4236    9.8487   -2.1963 C   0  0  0  0  0  0  0  0  0  0  0  0
    0.1248   10.4022    0.2334 C   0  0  0  0  0  0  0  0  0  0  0  0
  1  2  1  1  0  0  0
  1  6  1  0  0  0  0
  1 21  1  0  0  0  0
  3  4  1  6  0  0  0
  3  8  1  0  0  0  0
  3 28  1  0  0  0  0
  5  9  1  0  0  0  0
  5 25  1  0  0  0  0
  5 29  1  6  0  0  0
  6  7  1  1  0  0  0
  6 11  1  0  0  0  0
  8 12  1  0  0  0  0
  9 10  1  1  0  0  0
  9 14  1  0  0  0  0
 11 16  1  0  0  0  0
 12 13  1  6  0  0  0
 12 17  1  0  0  0  0
 14 15  1  1  0  0  0
 14 18  1  0  0  0  0
 15 31  1  0  0  0  0
 16 20  1  0  0  0  0
 17  2  1  1  0  0  0
 17 22  1  0  0  0  0
 18 19  1  6  0  0  0
 18 24  1  0  0  0  0
 18 30  1  0  0  0  0
 20 21  1  0  0  0  0
 20 26  1  6  0  0  0
 22 23  1  6  0  0  0
 22 28  1  0  0  0  0
 24 25  1  0  0  0  0
 26 27  1  0  0  0  0
 28 29  1  1  0  0  0
M  END
>  <CHROM.1>
-112.41846242,161.54843248,-145.92305590,169.35816421,-107.51856339,84.10626115
3.14742396,5.92921007,0.40506132,1.73960705,0.43922726,-3.12780484

>  <Name>
ligand

>  <RI>
0

>  <Rbt.Current_Directory>
/home/itssahil/PROJECTS/Mol_Feturizer/New_Systems/rnas/4GPX

>  <Rbt.Executable>
rbdock ($Id: //depot/dev/client3/rdock/2013.1/src/exe/rbdock.cxx#4 $)

>  <Rbt.Library>
libRbt.so (2013.1, Build901 2013/11/27)

>  <Rbt.Parameter_File>
/export/apps/rDock/src/rDock_2013.1_src/data/scripts/dock_solv.prm

>  <Rbt.Receptor>
prm/blind_docking_40.prm

>  <SCORE>
2.66054

>  <SCORE.INTER>
-4.74674

>  <SCORE.INTER.CONST>
1

>  <SCORE.INTER.POLAR>
0

>  <SCORE.INTER.ROT>
6

>  <SCORE.INTER.SOLV>
17.6984

>  <SCORE.INTER.VDW>
-16.664

>  <SCORE.INTER.norm>
-0.153121

>  <SCORE.INTRA>
-1.40069

>  <SCORE.INTRA.DIHEDRAL>
-6.55731

>  <SCORE.INTRA.DIHEDRAL.0>
20.6841

>  <SCORE.INTRA.POLAR>
0

>  <SCORE.INTRA.POLAR.0>
0

>  <SCORE.INTRA.REPUL>
0

>  <SCORE.INTRA.REPUL.0>
0

>  <SCORE.INTRA.SOLV>
0.43415

>  <SCORE.INTRA.SOLV.lig_0>
-64.6797

>  <SCORE.INTRA.VDW>
1.66088

>  <SCORE.INTRA.VDW.0>
-4.11825

>  <SCORE.INTRA.norm>
-0.0451837

>  <SCORE.RESTR>
8.80797

>  <SCORE.RESTR.CAVITY>
8.80797

>  <SCORE.RESTR.norm>
0.284128

>  <SCORE.SYSTEM>
0

>  <SCORE.SYSTEM.CONST>
0

>  <SCORE.SYSTEM.DIHEDRAL>
0

>  <SCORE.SYSTEM.SOLV>
0

>  <SCORE.SYSTEM.norm>
0

>  <SCORE.heavy>
31

>  <SCORE.norm>
0.0858238

>  <RMSD>
13.320

$$$$
ligand
 OpenBabel11021811493D
libRbt.so/2013.1/901 2013/11/27
 31 33  0  0  0  0  0  0  0  0999 V2000
    3.9209    7.6062    2.3969 C   0  0  2  0  0  0  0  0  0  0  0  0
    4.5505    6.5949    3.1779 O   0  0  0  0  0  0  0  0  0  0  0  0
    5.9124    3.8057    0.2711 C   0  0  2  0  0  0  0  0  0  0  0  0
    6.4528    2.6075   -0.2937 N   0  0  0  0  0  0  0  0  0  0  0  0
    2.6619    1.9370    0.6422 C   0  0  2  0  0  0  0  0  0  0  0  0
    4.3982    8.9948    2.9884 C   0  0  2  0  0  0  0  0  0  0  0  0
    5.8531    9.0661    2.9020 N   0  0  0  0  0  0  0  0  0  0  0  0
    6.9879    4.4215    1.2581 C   0  0  0  0  0  0  0  0  0  0  0  0
    2.1402    1.2651   -0.6675 C   0  0  2  0  0  0  0  0  0  0  0  0
    3.2392    0.6878   -1.3395 O   0  0  0  0  0  0  0  0  0  0  0  0
    3.9200    9.1483    4.4873 C   0  0  0  0  0  0  0  0  0  0  0  0
    6.3953    5.7394    1.8838 C   0  0  2  0  0  0  0  0  0  0  0  0
    7.3890    6.3137    2.8070 N   0  0  0  0  0  0  0  0  0  0  0  0
    1.4758    2.3967   -1.5403 C   0  0  1  0  0  0  0  0  0  0  0  0
    0.9707    1.8131   -2.8269 N   0  0  0  0  0  0  0  0  0  0  0  0
    2.4727    8.5407    4.7237 C   0  0  0  0  0  0  0  0  0  0  0  0
    5.0467    5.4075    2.6627 C   0  0  2  0  0  0  0  0  0  0  0  0
    0.2233    3.0118   -0.6970 C   0  0  1  0  0  0  0  0  0  0  0  0
   -0.7378    2.0245   -0.3637 O   0  0  0  0  0  0  0  0  0  0  0  0
    1.8592    7.7975    3.7650 C   0  0  2  0  0  0  0  0  0  0  0  0
    2.4697    7.5197    2.4994 O   0  0  0  0  0  0  0  0  0  0  0  0
    4.0013    4.7891    1.6623 C   0  0  2  0  0  0  0  0  0  0  0  0
    2.7859    4.4821    2.3787 O   0  0  0  0  0  0  0  0  0  0  0  0
    0.7364    3.6222    0.6476 C   0  0  0  0  0  0  0  0  0  0  0  0
    1.5154    2.5773    1.4021 O   0  0  0  0  0  0  0  0  0  0  0  0
    0.4652    7.1935    3.9448 C   0  0  0  0  0  0  0  0  0  0  0  0
   -0.4334    7.8544    3.0229 O   0  0  0  0  0  0  0  0  0  0  0  0
    4.6012    3.4628    1.0652 C   0  0  1  0  0  0  0  0  0  0  0  0
    3.6580    2.9149    0.1987 O   0  0  0  0  0  0  0  0  0  0  0  0
   -0.5511    4.1453   -1.4121 C   0  0  0  0  0  0  0  0  0  0  0  0
    1.9046    1.8252   -3.9713 C   0  0  0  0  0  0  0  0  0  0  0  0
  1  2  1  1  0  0  0
  1  6  1  0  0  0  0
  1 21  1  0  0  0  0
  3  4  1  1  0  0  0
  3  8  1  0  0  0  0
  3 28  1  0  0  0  0
  5  9  1  0  0  0  0
  5 25  1  0  0  0  0
  5 29  1  6  0  0  0
  6  7  1  1  0  0  0
  6 11  1  0  0  0  0
  8 12  1  0  0  0  0
  9 10  1  6  0  0  0
  9 14  1  0  0  0  0
 11 16  1  0  0  0  0
 12 13  1  1  0  0  0
 12 17  1  0  0  0  0
 14 15  1  6  0  0  0
 14 18  1  0  0  0  0
 15 31  1  0  0  0  0
 16 20  1  0  0  0  0
 17  2  1  6  0  0  0
 17 22  1  0  0  0  0
 18 19  1  1  0  0  0
 18 24  1  0  0  0  0
 18 30  1  0  0  0  0
 20 21  1  0  0  0  0
 20 26  1  6  0  0  0
 22 23  1  1  0  0  0
 22 28  1  0  0  0  0
 24 25  1  0  0  0  0
 26 27  1  0  0  0  0
 28 29  1  6  0  0  0
M  END
>  <CHROM.1>
-141.72898165,-162.41840055,-91.16317555,74.20662533,112.93380879,149.63866566
3.05374148,4.80658347,1.20789464,1.27376791,-0.05693701,0.66358705

>  <Name>
ligand

>  <RI>
0

>  <Rbt.Current_Directory>
/home/itssahil/PROJECTS/Mol_Feturizer/New_Systems/rnas/4GPX

>  <Rbt.Executable>
rbdock ($Id: //depot/dev/client3/rdock/2013.1/src/exe/rbdock.cxx#4 $)

>  <Rbt.Library>
libRbt.so (2013.1, Build901 2013/11/27)

>  <Rbt.Parameter_File>
/export/apps/rDock/src/rDock_2013.1_src/data/scripts/dock_solv.prm

>  <Rbt.Receptor>
prm/blind_docking_80.prm

>  <SCORE>
13.2807

>  <SCORE.INTER>
4.35754

>  <SCORE.INTER.CONST>
1

>  <SCORE.INTER.POLAR>
0

>  <SCORE.INTER.ROT>
6

>  <SCORE.INTER.SOLV>
17.0347

>  <SCORE.INTER.VDW>
-10.3732

>  <SCORE.INTER.norm>
0.140566

>  <SCORE.INTRA>
-2.17781

>  <SCORE.INTRA.DIHEDRAL>
-7.15266

>  <SCORE.INTRA.DIHEDRAL.0>
20.6841

>  <SCORE.INTRA.POLAR>
0

>  <SCORE.INTRA.POLAR.0>
0

>  <SCORE.INTRA.REPUL>
0

>  <SCORE.INTRA.REPUL.0>
0

>  <SCORE.INTRA.SOLV>
0.294469

>  <SCORE.INTRA.SOLV.lig_0>
-64.6797

>  <SCORE.INTRA.VDW>
1.25128

>  <SCORE.INTRA.VDW.0>
-4.11825

>  <SCORE.INTRA.norm>
-0.0702521

>  <SCORE.RESTR>
11.101

>  <SCORE.RESTR.CAVITY>
11.101

>  <SCORE.RESTR.norm>
0.358097

>  <SCORE.SYSTEM>
0

>  <SCORE.SYSTEM.CONST>
0

>  <SCORE.SYSTEM.DIHEDRAL>
0

>  <SCORE.SYSTEM.SOLV>
0

>  <SCORE.SYSTEM.norm>
0

>  <SCORE.heavy>
31

>  <SCORE.norm>
0.428411

>  <RMSD>
13.515

$$$$
ligand
 OpenBabel11021811493D
libRbt.so/2013.1/901 2013/11/27
 31 33  0  0  0  0  0  0  0  0999 V2000
    3.6321    7.7382    1.4056 C   0  0  2  0  0  0  0  0  0  0  0  0
    4.7042    6.8013    1.4509 O   0  0  0  0  0  0  0  0  0  0  0  0
    5.5580    2.6730    2.0094 C   0  0  2  0  0  0  0  0  0  0  0  0
    5.5018    1.3487    2.5478 N   0  0  0  0  0  0  0  0  0  0  0  0
    2.6463    1.2810    0.5253 C   0  0  2  0  0  0  0  0  0  0  0  0
    4.2867    9.1609    1.1742 C   0  0  2  0  0  0  0  0  0  0  0  0
    5.0396    9.1332   -0.0754 N   0  0  0  0  0  0  0  0  0  0  0  0
    5.9562    3.6693    3.1751 C   0  0  0  0  0  0  0  0  0  0  0  0
    2.0549    1.2018   -0.9178 C   0  0  2  0  0  0  0  0  0  0  0  0
    3.0637    0.7329   -1.7868 O   0  0  0  0  0  0  0  0  0  0  0  0
    5.2300    9.5364    2.3859 C   0  0  0  0  0  0  0  0  0  0  0  0
    6.0165    5.1285    2.5865 C   0  0  2  0  0  0  0  0  0  0  0  0
    6.3811    6.0605    3.6674 N   0  0  0  0  0  0  0  0  0  0  0  0
    1.5982    2.6566   -1.3159 C   0  0  1  0  0  0  0  0  0  0  0  0
    1.0365    2.6483   -2.7071 N   0  0  0  0  0  0  0  0  0  0  0  0
    4.6435    9.0524    3.7792 C   0  0  0  0  0  0  0  0  0  0  0  0
    4.6002    5.5219    1.9742 C   0  0  2  0  0  0  0  0  0  0  0  0
    0.4399    3.1243   -0.2680 C   0  0  1  0  0  0  0  0  0  0  0  0
   -0.6727    2.2459   -0.2684 O   0  0  0  0  0  0  0  0  0  0  0  0
    3.5636    8.2288    3.8373 C   0  0  2  0  0  0  0  0  0  0  0  0
    2.8957    7.7528    2.6631 O   0  0  0  0  0  0  0  0  0  0  0  0
    4.2253    4.5118    0.8273 C   0  0  2  0  0  0  0  0  0  0  0  0
    2.9360    4.8697    0.2849 O   0  0  0  0  0  0  0  0  0  0  0  0
    1.0124    3.1357    1.1867 C   0  0  0  0  0  0  0  0  0  0  0  0
    1.5986    1.7845    1.5004 O   0  0  0  0  0  0  0  0  0  0  0  0
    2.9609    7.7379    5.1549 C   0  0  0  0  0  0  0  0  0  0  0  0
    1.5313    7.9567    5.1044 O   0  0  0  0  0  0  0  0  0  0  0  0
    4.1479    3.0641    1.4384 C   0  0  1  0  0  0  0  0  0  0  0  0
    3.7946    2.1838    0.4181 O   0  0  0  0  0  0  0  0  0  0  0  0
   -0.1286    4.5427   -0.5139 C   0  0  0  0  0  0  0  0  0  0  0  0
    0.1004    1.5541   -3.0368 C   0  0  0  0  0  0  0  0  0  0  0  0
  1  2  1  1  0  0  0
  1  6  1  0  0  0  0
  1 21  1  0  0  0  0
  3  4  1  1  0  0  0
  3  8  1  0  0  0  0
  3 28  1  0  0  0  0
  5  9  1  0  0  0  0
  5 25  1  0  0  0  0
  5 29  1  6  0  0  0
  6  7  1  6  0  0  0
  6 11  1  0  0  0  0
  8 12  1  0  0  0  0
  9 10  1  6  0  0  0
  9 14  1  0  0  0  0
 11 16  1  0  0  0  0
 12 13  1  1  0  0  0
 12 17  1  0  0  0  0
 14 15  1  6  0  0  0
 14 18  1  0  0  0  0
 15 31  1  0  0  0  0
 16 20  1  0  0  0  0
 17  2  1  6  0  0  0
 17 22  1  0  0  0  0
 18 19  1  6  0  0  0
 18 24  1  0  0  0  0
 18 30  1  0  0  0  0
 20 21  1  0  0  0  0
 20 26  1  1  0  0  0
 22 23  1  1  0  0  0
 22 28  1  0  0  0  0
 24 25  1  0  0  0  0
 26 27  1  0  0  0  0
 28 29  1  6  0  0  0
M  END
>  <CHROM.1>
162.42656726,144.66829903,44.99249560,-148.59797238,130.94545276,115.59605182
3.19237750,4.72885970,1.22344742,1.13014508,-0.55469086,0.32482035

>  <Name>
ligand

>  <RI>
0

>  <Rbt.Current_Directory>
/home/itssahil/PROJECTS/Mol_Feturizer/New_Systems/rnas/4GPX

>  <Rbt.Executable>
rbdock ($Id: //depot/dev/client3/rdock/2013.1/src/exe/rbdock.cxx#4 $)

>  <Rbt.Library>
libRbt.so (2013.1, Build901 2013/11/27)

>  <Rbt.Parameter_File>
/export/apps/rDock/src/rDock_2013.1_src/data/scripts/dock_solv.prm

>  <Rbt.Receptor>
prm/blind_docking_80.prm

>  <SCORE>
17.3769

>  <SCORE.INTER>
3.37762

>  <SCORE.INTER.CONST>
1

>  <SCORE.INTER.POLAR>
0

>  <SCORE.INTER.ROT>
6

>  <SCORE.INTER.SOLV>
17.812

>  <SCORE.INTER.VDW>
-11.2856

>  <SCORE.INTER.norm>
0.108955

>  <SCORE.INTRA>
1.64396

>  <SCORE.INTRA.DIHEDRAL>
-1.69554

>  <SCORE.INTRA.DIHEDRAL.0>
20.6841

>  <SCORE.INTRA.POLAR>
0

>  <SCORE.INTRA.POLAR.0>
0

>  <SCORE.INTRA.REPUL>
0

>  <SCORE.INTRA.REPUL.0>
0

>  <SCORE.INTRA.SOLV>
0.311504

>  <SCORE.INTRA.SOLV.lig_0>
-64.6797

>  <SCORE.INTRA.VDW>
2.33598

>  <SCORE.INTRA.VDW.0>
-4.11825

>  <SCORE.INTRA.norm>
0.0530309

>  <SCORE.RESTR>
12.3553

>  <SCORE.RESTR.CAVITY>
12.3553

>  <SCORE.RESTR.norm>
0.398559

>  <SCORE.SYSTEM>
0

>  <SCORE.SYSTEM.CONST>
0

>  <SCORE.SYSTEM.DIHEDRAL>
0

>  <SCORE.SYSTEM.SOLV>
0

>  <SCORE.SYSTEM.norm>
0

>  <SCORE.heavy>
31

>  <SCORE.norm>
0.560545

>  <RMSD>
13.537

$$$$
ligand
 OpenBabel11021811493D
libRbt.so/2013.1/901 2013/11/27
 31 33  0  0  0  0  0  0  0  0999 V2000
   -1.2466    9.9519  -12.8947 C   0  0  2  0  0  0  0  0  0  0  0  0
   -0.2877   10.1921  -11.8690 O   0  0  0  0  0  0  0  0  0  0  0  0
   -1.0851    7.0800   -9.0828 C   0  0  2  0  0  0  0  0  0  0  0  0
   -0.9857    6.2664   -7.9101 N   0  0  0  0  0  0  0  0  0  0  0  0
   -3.1412    9.7315   -7.2550 C   0  0  2  0  0  0  0  0  0  0  0  0
   -1.0130   11.0621  -13.9987 C   0  0  2  0  0  0  0  0  0  0  0  0
    0.3549   10.9501  -14.4942 N   0  0  0  0  0  0  0  0  0  0  0  0
    0.3153    7.0612   -9.8235 C   0  0  0  0  0  0  0  0  0  0  0  0
   -3.7431    9.1465   -5.9381 C   0  0  2  0  0  0  0  0  0  0  0  0
   -2.7356    8.4121   -5.2763 O   0  0  0  0  0  0  0  0  0  0  0  0
   -1.2725   12.5005  -13.3964 C   0  0  0  0  0  0  0  0  0  0  0  0
    0.2103    7.9580  -11.1135 C   0  0  2  0  0  0  0  0  0  0  0  0
    1.5115    7.9488  -11.8038 N   0  0  0  0  0  0  0  0  0  0  0  0
   -4.9450    8.2132   -6.3482 C   0  0  1  0  0  0  0  0  0  0  0  0
   -5.5546    7.6034   -5.1203 N   0  0  0  0  0  0  0  0  0  0  0  0
   -2.4868   12.5162  -12.3742 C   0  0  0  0  0  0  0  0  0  0  0  0
   -0.1866    9.4452  -10.7056 C   0  0  2  0  0  0  0  0  0  0  0  0
   -6.0590    9.1318   -7.1057 C   0  0  1  0  0  0  0  0  0  0  0  0
   -6.5226   10.1959   -6.2919 O   0  0  0  0  0  0  0  0  0  0  0  0
   -3.0564   11.3592  -11.9445 C   0  0  2  0  0  0  0  0  0  0  0  0
   -2.6049   10.0717  -12.3803 O   0  0  0  0  0  0  0  0  0  0  0  0
   -1.5744    9.4335   -9.9640 C   0  0  2  0  0  0  0  0  0  0  0  0
   -1.9215   10.7838   -9.5891 O   0  0  0  0  0  0  0  0  0  0  0  0
   -5.4355    9.7747   -8.3870 C   0  0  0  0  0  0  0  0  0  0  0  0
   -4.1891   10.5299   -8.0076 O   0  0  0  0  0  0  0  0  0  0  0  0
   -4.2293   11.3232  -10.9629 C   0  0  0  0  0  0  0  0  0  0  0  0
   -4.8135    9.9999  -11.0089 O   0  0  0  0  0  0  0  0  0  0  0  0
   -1.4437    8.5519   -8.6674 C   0  0  1  0  0  0  0  0  0  0  0  0
   -2.6718    8.5675   -8.0099 O   0  0  0  0  0  0  0  0  0  0  0  0
   -7.3195    8.3697   -7.5808 C   0  0  0  0  0  0  0  0  0  0  0  0
   -4.9776    6.3238   -4.6602 C   0  0  0  0  0  0  0  0  0  0  0  0
  1  2  1  1  0  0  0
  1  6  1  0  0  0  0
  1 21  1  0  0  0  0
  3  4  1  1  0  0  0
  3  8  1  0  0  0  0
  3 28  1  0  0  0  0
  5  9  1  0  0  0  0
  5 25  1  0  0  0  0
  5 29  1  6  0  0  0
  6  7  1  1  0  0  0
  6 11  1  0  0  0  0
  8 12  1  0  0  0  0
  9 10  1  6  0  0  0
  9 14  1  0  0  0  0
 11 16  1  0  0  0  0
 12 13  1  1  0  0  0
 12 17  1  0  0  0  0
 14 15  1  1  0  0  0
 14 18  1  0  0  0  0
 15 31  1  0  0  0  0
 16 20  1  0  0  0  0
 17  2  1  6  0  0  0
 17 22  1  0  0  0  0
 18 19  1  1  0  0  0
 18 24  1  0  0  0  0
 18 30  1  0  0  0  0
 20 21  1  0  0  0  0
 20 26  1  6  0  0  0
 22 23  1  1  0  0  0
 22 28  1  0  0  0  0
 24 25  1  0  0  0  0
 26 27  1  0  0  0  0
 28 29  1  6  0  0  0
M  END
>  <CHROM.1>
178.57706196,-136.75774578,-88.82702188,63.87623779,164.46508364,166.62627474
-2.71992029,9.38120244,-9.45448957,0.92951689,0.47425281,-0.93586042

>  <Name>
ligand

>  <RI>
0

>  <Rbt.Current_Directory>
/home/itssahil/PROJECTS/Mol_Feturizer/New_Systems/rnas/4GPX

>  <Rbt.Executable>
rbdock ($Id: //depot/dev/client3/rdock/2013.1/src/exe/rbdock.cxx#4 $)

>  <Rbt.Library>
libRbt.so (2013.1, Build901 2013/11/27)

>  <Rbt.Parameter_File>
/export/apps/rDock/src/rDock_2013.1_src/data/scripts/dock_solv.prm

>  <Rbt.Receptor>
prm/blind_docking_40.prm

>  <SCORE>
31.2129

>  <SCORE.INTER>
22.7215

>  <SCORE.INTER.CONST>
1

>  <SCORE.INTER.POLAR>
0

>  <SCORE.INTER.ROT>
6

>  <SCORE.INTER.SOLV>
12.0566

>  <SCORE.INTER.VDW>
3.52877

>  <SCORE.INTER.norm>
0.732951

>  <SCORE.INTRA>
-1.84628

>  <SCORE.INTRA.DIHEDRAL>
-9.97718

>  <SCORE.INTRA.DIHEDRAL.0>
20.6841

>  <SCORE.INTRA.POLAR>
0

>  <SCORE.INTRA.POLAR.0>
0

>  <SCORE.INTRA.REPUL>
0

>  <SCORE.INTRA.REPUL.0>
0

>  <SCORE.INTRA.SOLV>
-0.335701

>  <SCORE.INTRA.SOLV.lig_0>
-64.6797

>  <SCORE.INTRA.VDW>
3.31015

>  <SCORE.INTRA.VDW.0>
-4.11825

>  <SCORE.INTRA.norm>
-0.0595576

>  <SCORE.RESTR>
10.3377

>  <SCORE.RESTR.CAVITY>
10.3377

>  <SCORE.RESTR.norm>
0.333473

>  <SCORE.SYSTEM>
0

>  <SCORE.SYSTEM.CONST>
0

>  <SCORE.SYSTEM.DIHEDRAL>
0

>  <SCORE.SYSTEM.SOLV>
0

>  <SCORE.SYSTEM.norm>
0

>  <SCORE.heavy>
31

>  <SCORE.norm>
1.00687

>  <RMSD>
18.383

$$$$
ligand
 OpenBabel11021811493D
libRbt.so/2013.1/901 2013/11/27
 31 33  0  0  0  0  0  0  0  0999 V2000
   -1.6281   12.1848  -12.3280 C   0  0  2  0  0  0  0  0  0  0  0  0
   -1.5665   10.7651  -12.2285 O   0  0  0  0  0  0  0  0  0  0  0  0
   -1.2159    7.6174   -9.3908 C   0  0  2  0  0  0  0  0  0  0  0  0
   -0.7515    6.8675   -8.2644 N   0  0  0  0  0  0  0  0  0  0  0  0
   -3.4778    9.8457   -7.2549 C   0  0  2  0  0  0  0  0  0  0  0  0
   -2.6287   12.5105  -13.5107 C   0  0  2  0  0  0  0  0  0  0  0  0
   -3.9299   11.9290  -13.1978 N   0  0  0  0  0  0  0  0  0  0  0  0
    0.0101    7.8704  -10.3618 C   0  0  0  0  0  0  0  0  0  0  0  0
   -4.0225    9.1503   -5.9671 C   0  0  2  0  0  0  0  0  0  0  0  0
   -2.9437    8.5160   -5.3140 O   0  0  0  0  0  0  0  0  0  0  0  0
   -2.0741   11.9358  -14.8749 C   0  0  0  0  0  0  0  0  0  0  0  0
   -0.4969    8.6980  -11.6017 C   0  0  2  0  0  0  0  0  0  0  0  0
    0.6403    8.9411  -12.5058 N   0  0  0  0  0  0  0  0  0  0  0  0
   -5.1024    8.0980   -6.4255 C   0  0  1  0  0  0  0  0  0  0  0  0
   -5.6506    7.3801   -5.2276 N   0  0  0  0  0  0  0  0  0  0  0  0
   -0.4971   12.0752  -14.9913 C   0  0  0  0  0  0  0  0  0  0  0  0
   -1.1157   10.0806  -11.1106 C   0  0  2  0  0  0  0  0  0  0  0  0
   -6.3072    8.9060   -7.1699 C   0  0  1  0  0  0  0  0  0  0  0  0
   -6.9012    9.8807   -6.3294 O   0  0  0  0  0  0  0  0  0  0  0  0
    0.2540   12.4527  -13.9231 C   0  0  2  0  0  0  0  0  0  0  0  0
   -0.3204   12.7451  -12.6440 O   0  0  0  0  0  0  0  0  0  0  0  0
   -2.3233    9.8004  -10.1413 C   0  0  2  0  0  0  0  0  0  0  0  0
   -2.8716   11.0586   -9.6932 O   0  0  0  0  0  0  0  0  0  0  0  0
   -5.7484    9.6601   -8.4201 C   0  0  0  0  0  0  0  0  0  0  0  0
   -4.6031   10.5419   -7.9973 O   0  0  0  0  0  0  0  0  0  0  0  0
    1.7751   12.6034  -13.9866 C   0  0  0  0  0  0  0  0  0  0  0  0
    2.3655   11.5349  -13.2095 O   0  0  0  0  0  0  0  0  0  0  0  0
   -1.7935    8.9930   -8.8992 C   0  0  1  0  0  0  0  0  0  0  0  0
   -2.8671    8.7705   -8.0398 O   0  0  0  0  0  0  0  0  0  0  0  0
   -7.4646    8.0190   -7.6888 C   0  0  0  0  0  0  0  0  0  0  0  0
   -4.8354    6.2722   -4.6891 C   0  0  0  0  0  0  0  0  0  0  0  0
  1  2  1  6  0  0  0
  1  6  1  0  0  0  0
  1 21  1  0  0  0  0
  3  4  1  1  0  0  0
  3  8  1  0  0  0  0
  3 28  1  0  0  0  0
  5  9  1  0  0  0  0
  5 25  1  0  0  0  0
  5 29  1  6  0  0  0
  6  7  1  1  0  0  0
  6 11  1  0  0  0  0
  8 12  1  0  0  0  0
  9 10  1  6  0  0  0
  9 14  1  0  0  0  0
 11 16  1  0  0  0  0
 12 13  1  6  0  0  0
 12 17  1  0  0  0  0
 14 15  1  1  0  0  0
 14 18  1  0  0  0  0
 15 31  1  0  0  0  0
 16 20  1  0  0  0  0
 17  2  1  6  0  0  0
 17 22  1  0  0  0  0
 18 19  1  1  0  0  0
 18 24  1  0  0  0  0
 18 30  1  0  0  0  0
 20 21  1  0  0  0  0
 20 26  1  6  0  0  0
 22 23  1  1  0  0  0
 22 28  1  0  0  0  0
 24 25  1  0  0  0  0
 26 27  1  0  0  0  0
 28 29  1  1  0  0  0
M  END
>  <CHROM.1>
-161.03749970,-150.39214150,-80.78688903,-150.98483854,-110.04532735,170.12168664
-2.52593751,9.87344231,-9.89045590,0.97374108,0.34170763,-0.90534988

>  <Name>
ligand

>  <RI>
0

>  <Rbt.Current_Directory>
/home/itssahil/PROJECTS/Mol_Feturizer/New_Systems/rnas/4GPX

>  <Rbt.Executable>
rbdock ($Id: //depot/dev/client3/rdock/2013.1/src/exe/rbdock.cxx#4 $)

>  <Rbt.Library>
libRbt.so (2013.1, Build901 2013/11/27)

>  <Rbt.Parameter_File>
/export/apps/rDock/src/rDock_2013.1_src/data/scripts/dock_solv.prm

>  <Rbt.Receptor>
prm/blind_docking_40.prm

>  <SCORE>
9.88859

>  <SCORE.INTER>
1.76581

>  <SCORE.INTER.CONST>
1

>  <SCORE.INTER.POLAR>
0

>  <SCORE.INTER.ROT>
6

>  <SCORE.INTER.SOLV>
14.6764

>  <SCORE.INTER.VDW>
-11.3149

>  <SCORE.INTER.norm>
0.0569617

>  <SCORE.INTRA>
-3.61586

>  <SCORE.INTRA.DIHEDRAL>
-9.50147

>  <SCORE.INTRA.DIHEDRAL.0>
20.6841

>  <SCORE.INTRA.POLAR>
0

>  <SCORE.INTRA.POLAR.0>
0

>  <SCORE.INTRA.REPUL>
0

>  <SCORE.INTRA.REPUL.0>
0

>  <SCORE.INTRA.SOLV>
-0.115606

>  <SCORE.INTRA.SOLV.lig_0>
-64.6797

>  <SCORE.INTRA.VDW>
1.19268

>  <SCORE.INTRA.VDW.0>
-4.11825

>  <SCORE.INTRA.norm>
-0.116641

>  <SCORE.RESTR>
11.7386

>  <SCORE.RESTR.CAVITY>
11.7386

>  <SCORE.RESTR.norm>
0.378665

>  <SCORE.SYSTEM>
0

>  <SCORE.SYSTEM.CONST>
0

>  <SCORE.SYSTEM.DIHEDRAL>
0

>  <SCORE.SYSTEM.SOLV>
0

>  <SCORE.SYSTEM.norm>
0

>  <SCORE.heavy>
31

>  <SCORE.norm>
0.318987

>  <RMSD>
18.874

$$$$
ligand
 OpenBabel11021811493D
libRbt.so/2013.1/901 2013/11/27
 31 33  0  0  0  0  0  0  0  0999 V2000
   -3.2840    9.2724   -6.8871 C   0  0  2  0  0  0  0  0  0  0  0  0
   -3.2540    8.0653   -7.6428 O   0  0  0  0  0  0  0  0  0  0  0  0
   -0.0454    8.6728  -10.3668 C   0  0  2  0  0  0  0  0  0  0  0  0
    0.8334    8.4684  -11.4771 N   0  0  0  0  0  0  0  0  0  0  0  0
   -0.6945   11.1752  -11.4892 C   0  0  2  0  0  0  0  0  0  0  0  0
   -4.2912    9.0297   -5.6902 C   0  0  2  0  0  0  0  0  0  0  0  0
   -3.8138    7.9017   -4.8970 N   0  0  0  0  0  0  0  0  0  0  0  0
    0.0087    7.3862   -9.4439 C   0  0  0  0  0  0  0  0  0  0  0  0
   -1.3965   12.3503  -12.2409 C   0  0  2  0  0  0  0  0  0  0  0  0
   -2.6971   12.5018  -11.7135 O   0  0  0  0  0  0  0  0  0  0  0  0
   -5.7451    8.7477   -6.2429 C   0  0  0  0  0  0  0  0  0  0  0  0
   -0.9595    7.6067   -8.2219 C   0  0  2  0  0  0  0  0  0  0  0  0
   -0.9176    6.4110   -7.3627 N   0  0  0  0  0  0  0  0  0  0  0  0
   -1.4479   11.9637  -13.7678 C   0  0  1  0  0  0  0  0  0  0  0  0
   -2.1325   13.0508  -14.5428 N   0  0  0  0  0  0  0  0  0  0  0  0
   -6.0875    9.6299   -7.5173 C   0  0  0  0  0  0  0  0  0  0  0  0
   -2.4420    7.8563   -8.7468 C   0  0  2  0  0  0  0  0  0  0  0  0
    0.0858   11.8052  -14.2981 C   0  0  1  0  0  0  0  0  0  0  0  0
    0.8421   12.9907  -14.1198 O   0  0  0  0  0  0  0  0  0  0  0  0
   -5.1273   10.3621   -8.1415 C   0  0  2  0  0  0  0  0  0  0  0  0
   -3.7663   10.3848   -7.6958 O   0  0  0  0  0  0  0  0  0  0  0  0
   -2.4651    9.1323   -9.6675 C   0  0  2  0  0  0  0  0  0  0  0  0
   -3.8102    9.3452  -10.1467 O   0  0  0  0  0  0  0  0  0  0  0  0
    0.8112   10.6756  -13.4969 C   0  0  0  0  0  0  0  0  0  0  0  0
    0.7106   10.9690  -12.0232 O   0  0  0  0  0  0  0  0  0  0  0  0
   -5.4087   11.2291   -9.3702 C   0  0  0  0  0  0  0  0  0  0  0  0
   -4.8334   12.5368   -9.1389 O   0  0  0  0  0  0  0  0  0  0  0  0
   -1.5102    8.8845  -10.8932 C   0  0  1  0  0  0  0  0  0  0  0  0
   -1.5564   10.0118  -11.7103 O   0  0  0  0  0  0  0  0  0  0  0  0
    0.2237   11.4246  -15.7920 C   0  0  0  0  0  0  0  0  0  0  0  0
   -3.6077   12.9973  -14.5966 C   0  0  0  0  0  0  0  0  0  0  0  0
  1  2  1  6  0  0  0
  1  6  1  0  0  0  0
  1 21  1  0  0  0  0
  3  4  1  6  0  0  0
  3  8  1  0  0  0  0
  3 28  1  0  0  0  0
  5  9  1  0  0  0  0
  5 25  1  0  0  0  0
  5 29  1  6  0  0  0
  6  7  1  6  0  0  0
  6 11  1  0  0  0  0
  8 12  1  0  0  0  0
  9 10  1  1  0  0  0
  9 14  1  0  0  0  0
 11 16  1  0  0  0  0
 12 13  1  1  0  0  0
 12 17  1  0  0  0  0
 14 15  1  6  0  0  0
 14 18  1  0  0  0  0
 15 31  1  0  0  0  0
 16 20  1  0  0  0  0
 17  2  1  1  0  0  0
 17 22  1  0  0  0  0
 18 19  1  1  0  0  0
 18 24  1  0  0  0  0
 18 30  1  0  0  0  0
 20 21  1  0  0  0  0
 20 26  1  1  0  0  0
 22 23  1  6  0  0  0
 22 28  1  0  0  0  0
 24 25  1  0  0  0  0
 26 27  1  0  0  0  0
 28 29  1  6  0  0  0
M  END
>  <CHROM.1>
-177.14545302,-160.04161921,-84.91609368,75.67087112,131.18357689,-32.35435947
-2.19947982,10.13169571,-10.33009555,-2.06689772,0.52030292,-0.88108642

>  <Name>
ligand

>  <RI>
0

>  <Rbt.Current_Directory>
/home/itssahil/PROJECTS/Mol_Feturizer/New_Systems/rnas/4GPX

>  <Rbt.Executable>
rbdock ($Id: //depot/dev/client3/rdock/2013.1/src/exe/rbdock.cxx#4 $)

>  <Rbt.Library>
libRbt.so (2013.1, Build901 2013/11/27)

>  <Rbt.Parameter_File>
/export/apps/rDock/src/rDock_2013.1_src/data/scripts/dock_solv.prm

>  <Rbt.Receptor>
prm/blind_docking_40.prm

>  <SCORE>
8.95133

>  <SCORE.INTER>
1.20359

>  <SCORE.INTER.CONST>
1

>  <SCORE.INTER.POLAR>
0

>  <SCORE.INTER.ROT>
6

>  <SCORE.INTER.SOLV>
14.0397

>  <SCORE.INTER.VDW>
-11.4775

>  <SCORE.INTER.norm>
0.0388254

>  <SCORE.INTRA>
0.351234

>  <SCORE.INTRA.DIHEDRAL>
-12.2571

>  <SCORE.INTRA.DIHEDRAL.0>
20.6841

>  <SCORE.INTRA.POLAR>
0

>  <SCORE.INTRA.POLAR.0>
0

>  <SCORE.INTRA.REPUL>
0

>  <SCORE.INTRA.REPUL.0>
0

>  <SCORE.INTRA.SOLV>
1.38003

>  <SCORE.INTRA.SOLV.lig_0>
-64.6797

>  <SCORE.INTRA.VDW>
5.78977

>  <SCORE.INTRA.VDW.0>
-4.11825

>  <SCORE.INTRA.norm>
0.0113301

>  <SCORE.RESTR>
7.39651

>  <SCORE.RESTR.CAVITY>
7.39651

>  <SCORE.RESTR.norm>
0.238597

>  <SCORE.SYSTEM>
0

>  <SCORE.SYSTEM.CONST>
0

>  <SCORE.SYSTEM.DIHEDRAL>
0

>  <SCORE.SYSTEM.SOLV>
0

>  <SCORE.SYSTEM.norm>
0

>  <SCORE.heavy>
31

>  <SCORE.norm>
0.288753

>  <RMSD>
19.496

$$$$
