@<TRIPOS>MOLECULE
4GPX_rdock.pdb
 494 550 0 0 0
SMALL
GASTEIGER

@<TRIPOS>ATOM
      1  P         -0.5770   18.4830   17.4030 P.3     3  G3          0.1280
      2  C5'        2.0530   18.2300   17.8880 C.3     3  G3          0.1795
      3  O5'        0.8130   17.6270   17.4660 O.3     3  G3         -0.3259
      4  C4'        3.0260   17.1620   18.3330 C.3     3  G3          0.1772
      5  O4'        2.5280   16.5530   19.5560 O.3     3  G3         -0.3307
      6  C3'        3.2220   15.9980   17.3660 C.3     3  G3          0.1860
      7  O3'        4.2110   16.2850   16.3720 O.3     3  G3         -0.3112
      8  C2'        3.6520   14.8630   18.2950 C.3     3  G3          0.2309
      9  O2'        5.0340   14.8340   18.5840 O.3     3  G3         -0.2156
     10  C1'        2.8340   15.1640   19.5590 C.3     3  G3          0.2408
     11  N1         0.7280   10.5510   19.6190 N.ar    3  G3         -0.1709
     12  C2         2.0560   10.9090   19.6500 C.ar    3  G3          0.2606
     13  N2         2.9430    9.9090   19.6760 N.pl3   3  G3         -0.0859
     14  N3         2.4820   12.1570   19.6530 N.ar    3  G3         -0.1918
     15  C4         1.4610   13.0410   19.6290 C.ar    3  G3          0.1723
     16  C5         0.1030   12.7910   19.6040 C.ar    3  G3          0.1748
     17  C6        -0.3440   11.4410   19.5850 C.ar    3  G3          0.3023
     18  O6        -1.5060   11.0100   19.5340 O.2     3  G3         -0.2633
     19  N7        -0.6170   13.9800   19.6010 N.ar    3  G3         -0.2173
     20  C8         0.2980   14.9130   19.6080 C.ar    3  G3          0.1817
     21  N9         1.5820   14.4110   19.6060 N.ar    3  G3         -0.2693
     22  OP1       -0.2860   19.7110   16.5440 O.3     3  G3         -0.1955
     23  OP2       -1.5990   17.5520   16.7550 O.co2   3  G3         -0.7863
     24  P          4.0480   15.7010   14.8740 P.3     4  C4          0.2141
     25  C5'        5.9730   13.9400   15.2000 C.3     4  C4          0.1812
     26  O5'        4.5950   14.2060   14.9670 O.3     4  C4         -0.3114
     27  C4'        6.1960   12.4550   15.3550 C.3     4  C4          0.1773
     28  O4'        5.5480   11.9770   16.5710 O.3     4  C4         -0.3307
     29  C3'        5.5770   11.6000   14.2640 C.3     4  C4          0.1860
     30  O3'        6.3720   11.5480   13.0900 O.3     4  C4         -0.3112
     31  C2'        5.4780   10.2450   14.9480 C.3     4  C4          0.2309
     32  O2'        6.7040    9.5540   14.9760 O.3     4  C4         -0.2156
     33  C1'        5.0510   10.6580   16.3590 C.3     4  C4          0.2420
     34  N1         3.5750   10.6690   16.4560 N.ar    4  C4         -0.2535
     35  C2         2.8980    9.4410   16.5550 C.ar    4  C4          0.3532
     36  O2         3.5610    8.3920   16.6410 O.2     4  C4         -0.2443
     37  N3         1.5410    9.4310   16.5520 N.ar    4  C4         -0.1739
     38  C4         0.8640   10.5780   16.4640 C.ar    4  C4          0.1759
     39  N4        -0.4660   10.5140   16.4220 N.pl3   4  C4         -0.1070
     40  C5         1.5240   11.8420   16.4070 C.ar    4  C4          0.0566
     41  C6         2.8680   11.8410   16.4120 C.ar    4  C4          0.0850
     42  OP1        4.9770   16.4580   13.9930 O.2     4  C4         -0.5172
     43  OP2        2.6030   15.6450   14.5350 O.co2   4  C4         -0.4373
     44  P          5.6610   11.3350   11.6610 P.3     5  G5          0.2141
     45  C5'        6.4550    8.8460   11.5850 C.3     5  G5          0.1812
     46  O5'        5.3810    9.7710   11.5880 O.3     5  G5         -0.3114
     47  C4'        5.9210    7.4540   11.7420 C.3     5  G5          0.1773
     48  O4'        5.1820    7.3760   12.9900 O.3     5  G5         -0.3307
     49  C3'        4.8940    7.0650   10.7010 C.3     5  G5          0.1860
     50  O3'        5.5100    6.6130    9.5090 O.3     5  G5         -0.3112
     51  C2'        4.1400    5.9550   11.4100 C.3     5  G5          0.2309
     52  O2'        4.8560    4.7400   11.4320 O.3     5  G5         -0.2156
     53  C1'        4.0560    6.5240   12.8240 C.3     5  G5          0.2408
     54  N1        -0.9980    6.4050   13.2360 N.ar    5  G5         -0.1709
     55  C2        -0.1160    5.3690   13.0470 C.ar    5  G5          0.2606
     56  N2        -0.6430    4.1360   12.9510 N.pl3   5  G5         -0.0859
     57  N3         1.1930    5.5280   12.9590 N.ar    5  G5         -0.1918
     58  C4         1.5540    6.8210   13.0770 C.ar    5  G5          0.1723
     59  C5         0.7490    7.9250   13.2680 C.ar    5  G5          0.1748
     60  C6        -0.6470    7.7440   13.3570 C.ar    5  G5          0.3023
     61  O6        -1.5200    8.5960   13.5180 O.2     5  G5         -0.2633
     62  N7         1.5110    9.0850   13.3390 N.ar    5  G5         -0.2173
     63  C8         2.7420    8.6720   13.1930 C.ar    5  G5          0.1817
     64  N9         2.8390    7.3090   13.0260 N.ar    5  G5         -0.2693
     65  OP1        6.6210   11.6550   10.5680 O.2     5  G5         -0.5172
     66  OP2        4.3590   12.0490   11.7270 O.co2   5  G5         -0.4373
     67  P          4.6840    6.6480    8.1310 P.3     6  U6          0.2141
     68  C5'        4.2630    4.0820    8.4160 C.3     6  U6          0.1812
     69  O5'        3.7220    5.3810    8.2480 O.3     6  U6         -0.3114
     70  C4'        3.1630    3.0610    8.4590 C.3     6  U6          0.1773
     71  O4'        2.3800    3.2260    9.6690 O.3     6  U6         -0.3307
     72  C3'        2.1190    3.1870    7.3720 C.3     6  U6          0.1860
     73  O3'        2.5540    2.6750    6.1250 O.3     6  U6         -0.3112
     74  C2'        0.9680    2.3810    7.9580 C.3     6  U6          0.2309
     75  O2'        1.1380    0.9850    7.8110 O.3     6  U6         -0.2156
     76  C1'        1.0430    2.7910    9.4320 C.3     6  U6          0.2420
     77  N1         0.1260    3.9060    9.7130 N.ar    6  U6         -0.2534
     78  C2        -1.2130    3.6070    9.9460 C.ar    6  U6          0.3546
     79  O2        -1.6490    2.4630   10.0060 O.2     6  U6         -0.2443
     80  N3        -2.0240    4.7030   10.1150 N.ar    6  U6         -0.1530
     81  C4        -1.6440    6.0310   10.0940 C.ar    6  U6          0.2846
     82  O4        -2.5080    6.9070   10.1800 O.2     6  U6         -0.2650
     83  C5        -0.2430    6.2510    9.8930 C.ar    6  U6          0.0814
     84  C6         0.5730    5.2090    9.7150 C.ar    6  U6          0.0870
     85  OP1        5.6240    6.3980    7.0030 O.2     6  U6         -0.5172
     86  OP2        3.8700    7.8980    8.1450 O.co2   6  U6         -0.4373
     87  P          1.8770    3.2200    4.7780 P.3     7  C7          0.2141
     88  C5'       -0.1180    1.5290    4.8920 C.3     7  C7          0.1812
     89  O5'        0.3380    2.8700    4.9640 O.3     7  C7         -0.3114
     90  C4'       -1.6110    1.4930    5.0570 C.3     7  C7          0.1773
     91  O4'       -1.9500    2.0990    6.3340 O.3     7  C7         -0.3307
     92  C3'       -2.3950    2.3310    4.0650 C.3     7  C7          0.1860
     93  O3'       -2.6040    1.6730    2.8280 O.3     7  C7         -0.3112
     94  C2'       -3.7040    2.5290    4.8070 C.3     7  C7          0.2309
     95  O2'       -4.4950    1.3660    4.8040 O.3     7  C7         -0.2156
     96  C1'       -3.1910    2.7900    6.2200 C.3     7  C7          0.2420
     97  N1        -2.9670    4.2340    6.4530 N.ar    7  C7         -0.2535
     98  C2        -4.0740    5.0510    6.7040 C.ar    7  C7          0.3532
     99  O2        -5.2060    4.5370    6.7320 O.2     7  C7         -0.2443
    100  N3        -3.8850    6.3790    6.9070 N.ar    7  C7         -0.1739
    101  C4        -2.6520    6.8960    6.8630 C.ar    7  C7          0.1759
    102  N4        -2.5170    8.2180    7.0600 N.pl3   7  C7         -0.1070
    103  C5        -1.5070    6.0870    6.6150 C.ar    7  C7          0.0566
    104  C6        -1.7080    4.7740    6.4170 C.ar    7  C7          0.0850
    105  OP1        2.3880    2.4130    3.6430 O.2     7  C7         -0.5172
    106  OP2        2.0040    4.7020    4.7470 O.co2   7  C7         -0.4373
    107  P         -2.9610    2.5430    1.5250 P.3     8  G8          0.2141
    108  C5'       -5.5510    2.3830    1.9290 C.3     8  G8          0.1812
    109  O5'       -4.3820    3.1940    1.8530 O.3     8  G8         -0.3114
    110  C4'       -6.7940    3.2390    2.0240 C.3     8  G8          0.1773
    111  O4'       -6.8350    3.9480    3.2960 O.3     8  G8         -0.3307
    112  C3'       -6.9290    4.3340    0.9820 C.3     8  G8          0.1860
    113  O3'       -7.4640    3.8190   -0.2310 O.3     8  G8         -0.3112
    114  C2'       -7.9120    5.2750    1.6650 C.3     8  G8          0.2309
    115  O2'       -9.2260    4.7650    1.6160 O.3     8  G8         -0.2156
    116  C1'       -7.4050    5.2350    3.1070 C.3     8  G8          0.2408
    117  N1        -6.3730   10.1780    3.8490 N.ar    8  G8         -0.1709
    118  C2        -7.5820    9.5620    3.6240 C.ar    8  G8          0.2606
    119  N2        -8.6610   10.3660    3.5920 N.pl3   8  G8         -0.0859
    120  N3        -7.7290    8.2530    3.4440 N.ar    8  G8         -0.1918
    121  C4        -6.5500    7.5960    3.5090 C.ar    8  G8          0.1723
    122  C5        -5.2870    8.1110    3.7300 C.ar    8  G8          0.1748
    123  C6        -5.1430    9.5260    3.9220 C.ar    8  G8          0.3023
    124  O6        -4.1040   10.1810    4.1340 O.2     8  G8         -0.2633
    125  N7        -4.3320    7.1030    3.7200 N.ar    8  G8         -0.2173
    126  C8        -5.0160    6.0120    3.4980 C.ar    8  G8          0.1817
    127  N9        -6.3690    6.2350    3.3610 N.ar    8  G8         -0.2693
    128  OP1       -3.1310    1.6320    0.3640 O.2     8  G8         -0.5172
    129  OP2       -1.9270    3.6100    1.4800 O.co2   8  G8         -0.4373
    130  P         -7.1720    4.5770   -1.6230 P.3     9  C9          0.2141
    131  C5'       -9.4590    5.8310   -1.4660 C.3     9  C9          0.1812
    132  O5'       -8.0460    5.9010   -1.5320 O.3     9  C9         -0.3114
    133  C4'      -10.0280    7.2130   -1.3440 C.3     9  C9          0.1773
    134  O4'       -9.5800    7.7860   -0.0910 O.3     9  C9         -0.3307
    135  C3'       -9.5170    8.1880   -2.3840 C.3     9  C9          0.1860
    136  O3'      -10.2530    8.0720   -3.5830 O.3     9  C9         -0.3112
    137  C2'       -9.7260    9.5220   -1.6890 C.3     9  C9          0.2309
    138  O2'      -11.0700    9.9530   -1.6730 O.3     9  C9         -0.2156
    139  C1'       -9.3110    9.1700   -0.2630 C.3     9  C9          0.2420
    140  N1        -7.8770    9.3890   -0.0130 N.ar    9  C9         -0.2535
    141  C2        -7.4110   10.6950    0.2450 C.ar    9  C9          0.3532
    142  O2        -8.2180   11.6380    0.2570 O.2     9  C9         -0.2443
    143  N3        -6.0970   10.8900    0.4740 N.ar    9  C9         -0.1739
    144  C4        -5.2560    9.8560    0.4510 C.ar    9  C9          0.1759
    145  N4        -3.9710   10.0970    0.6830 N.pl3   9  C9         -0.1070
    146  C5        -5.6990    8.5230    0.1920 C.ar    9  C9          0.0566
    147  C6        -7.0040    8.3380   -0.0310 C.ar    9  C9          0.0850
    148  OP1       -7.7440    3.7410   -2.7060 O.2     9  C9         -0.5172
    149  OP2       -5.7460    4.9650   -1.6850 O.co2   9  C9         -0.4373
    150  P         -9.5150    8.2970   -4.9890 P.3    10  G10         0.2141
    151  C5'      -10.4450   10.7300   -5.0950 C.3    10  G10         0.1812
    152  O5'       -9.3170    9.8750   -5.0570 O.3    10  G10        -0.3114
    153  C4'      -10.0190   12.1620   -4.9320 C.3    10  G10         0.1773
    154  O4'       -9.4340   12.3500   -3.6200 O.3    10  G10        -0.3307
    155  C3'       -8.9300   12.6370   -5.8690 C.3    10  G10         0.1860
    156  O3'       -9.4570   12.9930   -7.1360 O.3    10  G10        -0.3112
    157  C2'       -8.4350   13.8620   -5.1260 C.3    10  G10         0.2309
    158  O2'       -9.3620   14.9220   -5.2030 O.3    10  G10        -0.2156
    159  C1'       -8.4170   13.3320   -3.6980 C.3    10  G10         0.2408
    160  N1        -3.5570   14.1210   -2.4420 N.ar   10  G10        -0.1709
    161  C2        -4.5410   15.0330   -2.7510 C.ar   10  G10         0.2606
    162  N2        -4.1880   16.3260   -2.7160 N.pl3  10  G10        -0.0859
    163  N3        -5.7850   14.7010   -3.0760 N.ar   10  G10        -0.1918
    164  C4        -5.9670   13.3600   -3.0850 C.ar   10  G10         0.1723
    165  C5        -5.0520   12.3660   -2.8060 C.ar   10  G10         0.1748
    166  C6        -3.7230   12.7380   -2.4370 C.ar   10  G10         0.3023
    167  O6        -2.7730   12.0060   -2.1310 O.2    10  G10        -0.2633
    168  N7        -5.6340   11.1130   -2.9440 N.ar   10  G10        -0.2173
    169  C8        -6.8700   11.3640   -3.2820 C.ar   10  G10         0.1817
    170  N9        -7.1410   12.7060   -3.3740 N.ar   10  G10        -0.2693
    171  OP1      -10.5070    7.9590   -6.0390 O.2    10  G10        -0.5172
    172  OP2       -8.1810    7.6220   -4.9810 O.co2  10  G10        -0.4373
    173  P         -8.6680   12.5670   -8.4670 P.3    11  C11         0.2141
    174  C5'       -8.1180   15.0760   -8.9250 C.3    11  C11         0.1812
    175  O5'       -7.6470   13.7570   -8.7230 O.3    11  C11        -0.3114
    176  C4'       -7.0120   16.0660   -8.6800 C.3    11  C11         0.1773
    177  O4'       -6.6190   16.0280   -7.2800 O.3    11  C11        -0.3307
    178  C3'       -5.7090   15.8190   -9.4150 C.3    11  C11         0.1860
    179  O3'       -5.8100   16.2720  -10.7550 O.3    11  C11        -0.3112
    180  C2'       -4.7670   16.6690   -8.5770 C.3    11  C11         0.2309
    181  O2'       -5.0290   18.0430   -8.7610 O.3    11  C11        -0.2156
    182  C1'       -5.2300   16.2980   -7.1680 C.3    11  C11         0.2420
    183  N1        -4.5620   15.0830   -6.6670 N.ar   11  C11        -0.2535
    184  C2        -3.3180   15.2020   -6.0390 C.ar   11  C11         0.3532
    185  O2        -2.8200   16.3220   -5.8970 O.2    11  C11        -0.2443
    186  N3        -2.6910   14.0900   -5.6060 N.ar   11  C11        -0.1739
    187  C4        -3.2620   12.8930   -5.7680 C.ar   11  C11         0.1759
    188  N4        -2.6110   11.8300   -5.3120 N.pl3  11  C11        -0.1070
    189  C5        -4.5250   12.7410   -6.3960 C.ar   11  C11         0.0566
    190  C6        -5.1380   13.8510   -6.8250 C.ar   11  C11         0.0850
    191  OP1       -9.6500   12.5860   -9.5700 O.2    11  C11        -0.5172
    192  OP2       -7.8730   11.3330   -8.1880 O.co2  11  C11        -0.4373
    193  P         -4.8960   15.6140  -11.9080 P.3    12  C12         0.2141
    194  C5'       -3.0720   17.4910  -11.6370 C.3    12  C12         0.1812
    195  O5'       -3.4130   16.1060  -11.5970 O.3    12  C12        -0.3114
    196  C4'       -1.6730   17.7060  -11.0970 C.3    12  C12         0.1773
    197  O4'       -1.6110   17.3460   -9.6830 O.3    12  C12        -0.3307
    198  C3'       -0.5960   16.8500  -11.7310 C.3    12  C12         0.1860
    199  O3'       -0.1690   17.4070  -12.9700 O.3    12  C12        -0.3112
    200  C2'        0.4810   16.9180  -10.6590 C.3    12  C12         0.2309
    201  O2'        1.0710   18.1970  -10.6170 O.3    12  C12        -0.2156
    202  C1'       -0.3600   16.7410   -9.3960 C.3    12  C12         0.2420
    203  N1        -0.5880   15.3180   -9.0590 N.ar   12  C12        -0.2535
    204  C2         0.4390   14.5990   -8.4380 C.ar   12  C12         0.3532
    205  O2         1.4950   15.1840   -8.1640 O.2    12  C12        -0.2443
    206  N3         0.2540   13.2860   -8.1490 N.ar   12  C12        -0.1739
    207  C4        -0.9090   12.6950   -8.4490 C.ar   12  C12         0.1759
    208  N4        -1.0590   11.4010   -8.1420 N.pl3  12  C12        -0.1070
    209  C5        -1.9760   13.4070   -9.0750 C.ar   12  C12         0.0566
    210  C6        -1.7750   14.7050   -9.3560 C.ar   12  C12         0.0850
    211  OP1       -5.3380   16.2850  -13.1630 O.2    12  C12        -0.5172
    212  OP2       -4.8680   14.1230  -11.8370 O.co2  12  C12        -0.4373
    213  P          0.5040   16.4590  -14.0820 P.3    13  G13         0.2141
    214  C5'        2.8570   17.2150  -13.2420 C.3    13  G13         0.1813
    215  O5'        1.9610   16.1540  -13.5180 O.3    13  G13        -0.3114
    216  C4'        4.0650   16.6960  -12.5120 C.3    13  G13         0.1801
    217  O4'        3.6750   16.2100  -11.1980 O.3    13  G13        -0.3306
    218  C3'        4.7660   15.5030  -13.1430 C.3    13  G13         0.2161
    219  O3'        5.6160   15.9010  -14.2130 O.3    13  G13        -0.2175
    220  C2'        5.5540   14.9760  -11.9560 C.3    13  G13         0.2337
    221  O2'        6.6880   15.7690  -11.6810 O.3    13  G13        -0.2155
    222  C1'        4.5270   15.1360  -10.8290 C.3    13  G13         0.2409
    223  N1         4.2840   10.4270   -8.9600 N.ar   13  G13        -0.1709
    224  C2         5.3360   11.3020   -8.9690 C.ar   13  G13         0.2606
    225  N2         6.4550   10.8640   -8.4040 N.pl3  13  G13        -0.0859
    226  N3         5.2870   12.5200   -9.4950 N.ar   13  G13        -0.1918
    227  C4         4.0760   12.7790  -10.0410 C.ar   13  G13         0.1723
    228  C5         2.9660   11.9640  -10.0980 C.ar   13  G13         0.1748
    229  C6         3.0260   10.6820   -9.4950 C.ar   13  G13         0.3023
    230  O6         2.1290    9.8380   -9.3890 O.2    13  G13        -0.2633
    231  N7         1.9350   12.5850  -10.7820 N.ar   13  G13        -0.2173
    232  C8         2.4160   13.7550  -11.0930 C.ar   13  G13         0.1817
    233  N9         3.7050   13.9410  -10.6640 N.ar   13  G13        -0.2693
    234  OP1        0.6730   17.2850  -15.3030 O.2    13  G13        -0.5172
    235  OP2       -0.2270   15.1670  -14.1460 O.co2  13  G13        -0.4373
    236  P          4.8100    1.9430   -3.8710 P.3    35  C35         0.1280
    237  C5'        7.1220    3.1430   -3.7980 C.3    35  C35         0.1795
    238  O5'        5.7280    3.2350   -3.9850 O.3    35  C35        -0.3259
    239  C4'        7.7970    4.3770   -4.3280 C.3    35  C35         0.1772
    240  O4'        7.4900    4.5280   -5.7420 O.3    35  C35        -0.3307
    241  C3'        7.3360    5.6970   -3.7420 C.3    35  C35         0.1860
    242  O3'        7.9310    5.9180   -2.4770 O.3    35  C35        -0.3112
    243  C2'        7.8230    6.6700   -4.8090 C.3    35  C35         0.2309
    244  O2'        9.2260    6.8480   -4.8270 O.3    35  C35        -0.2156
    245  C1'        7.4290    5.9090   -6.0720 C.3    35  C35         0.2420
    246  N1         6.0510    6.2230   -6.4790 N.ar   35  C35        -0.2535
    247  C2         5.8120    7.4240   -7.1540 C.ar   35  C35         0.3532
    248  O2         6.7720    8.1670   -7.4110 O.2    35  C35        -0.2443
    249  N3         4.5510    7.7380   -7.5160 N.ar   35  C35        -0.1739
    250  C4         3.5510    6.8950   -7.2570 C.ar   35  C35         0.1759
    251  N4         2.3200    7.2410   -7.6610 N.pl3  35  C35        -0.1070
    252  C5         3.7650    5.6560   -6.5790 C.ar   35  C35         0.0566
    253  C6         5.0200    5.3670   -6.2050 C.ar   35  C35         0.0850
    254  OP1        5.2590    1.1580   -2.6900 O.3    35  C35        -0.1955
    255  OP2        3.4020    2.3950   -3.9800 O.co2  35  C35        -0.7863
    256  P          7.1520    6.7770   -1.3690 P.3    36  G36         0.2141
    257  C5'        8.5050    8.8250   -2.2380 C.3    36  G36         0.1812
    258  O5'        7.2450    8.2700   -1.9050 O.3    36  G36        -0.3114
    259  C4'        8.3270   10.1480   -2.9300 C.3    36  G36         0.1773
    260  O4'        7.7460    9.9480   -4.2460 O.3    36  G36        -0.3307
    261  C3'        7.3780   11.1270   -2.2600 C.3    36  G36         0.1860
    262  O3'        8.0130   11.8080   -1.1830 O.3    36  G36        -0.3112
    263  C2'        7.0670   12.0670   -3.4160 C.3    36  G36         0.2309
    264  O2'        8.1240   12.9640   -3.6730 O.3    36  G36        -0.2156
    265  C1'        6.9650   11.0840   -4.5850 C.3    36  G36         0.2408
    266  N1         2.4410   12.3570   -6.5190 N.ar   36  G36        -0.1709
    267  C2         3.6040   13.0870   -6.4700 C.ar   36  G36         0.2606
    268  N2         3.5510   14.3120   -7.0040 N.pl3  36  G36        -0.0859
    269  N3         4.7350   12.6460   -5.9360 N.ar   36  G36        -0.1918
    270  C4         4.6010   11.3940   -5.4400 C.ar   36  G36         0.1723
    271  C5         3.4860   10.5850   -5.4370 C.ar   36  G36         0.1748
    272  C6         2.2870   11.0670   -6.0240 C.ar   36  G36         0.3023
    273  O6         1.2000   10.4890   -6.1390 O.2    36  G36        -0.2633
    274  N7         3.7610    9.3680   -4.8230 N.ar   36  G36        -0.2173
    275  C8         5.0150    9.4560   -4.4750 C.ar   36  G36         0.1817
    276  N9         5.5880   10.6580   -4.8210 N.ar   36  G36        -0.2693
    277  OP1        7.9790    6.6740   -0.1390 O.3    36  G36        -0.4373
    278  OP2        5.7310    6.3550   -1.3390 O.co2  36  G36        -0.5172
    279  P          7.1250   12.4750   -0.0120 P.3    37  G37         0.2141
    280  C5'        7.4040   14.8330   -1.1490 C.3    37  G37         0.1812
    281  O5'        6.5400   13.7980   -0.6780 O.3    37  G37        -0.3114
    282  C4'        6.5990   15.9060   -1.8520 C.3    37  G37         0.1773
    283  O4'        6.0170   15.3800   -3.0820 O.3    37  G37        -0.3307
    284  C3'        5.4010   16.4190   -1.0680 C.3    37  G37         0.1860
    285  O3'        5.8040   17.4060   -0.1260 O.3    37  G37        -0.3112
    286  C2'        4.5240   16.9870   -2.1770 C.3    37  G37         0.2309
    287  O2'        4.9670   18.2540   -2.6120 O.3    37  G37        -0.2156
    288  C1'        4.7340   15.9550   -3.2900 C.3    37  G37         0.2408
    289  N1         0.0780   14.5010   -4.8010 N.ar   37  G37        -0.1709
    290  C2         0.7370   15.6860   -5.0230 C.ar   37  G37         0.2606
    291  N2         0.0600   16.6020   -5.7230 N.pl3  37  G37        -0.0859
    292  N3         1.9630   15.9530   -4.5820 N.ar   37  G37        -0.1918
    293  C4         2.4810   14.9220   -3.8770 C.ar   37  G37         0.1723
    294  C5         1.9000   13.6990   -3.5910 C.ar   37  G37         0.1748
    295  C6         0.5850   13.4300   -4.0790 C.ar   37  G37         0.3023
    296  O6        -0.1040   12.4150   -3.9350 O.2    37  G37        -0.2633
    297  N7         2.7630   12.9080   -2.8420 N.ar   37  G37        -0.2173
    298  C8         3.8350   13.6460   -2.6880 C.ar   37  G37         0.1817
    299  N9         3.7320   14.8840   -3.2860 N.ar   37  G37        -0.2693
    300  OP1        8.0890   12.8890    1.0270 O.3    37  G37        -0.4373
    301  OP2        5.9800   11.6130    0.3690 O.co2  37  G37        -0.5172
    302  P          4.9230   17.6600    1.1990 P.3    38  C38         0.2141
    303  C5'        3.6090   19.5140   -0.0890 C.3    38  C38         0.1812
    304  O5'        3.5770   18.3010    0.6400 O.3    38  C38        -0.3114
    305  C4'        2.2790   19.7620   -0.7620 C.3    38  C38         0.1773
    306  O4'        2.0600   18.7700   -1.8010 O.3    38  C38        -0.3307
    307  C3'        1.0470   19.6390    0.1120 C.3    38  C38         0.1860
    308  O3'        0.8170   20.8110    0.8810 O.3    38  C38        -0.3112
    309  C2'       -0.0310   19.4320   -0.9350 C.3    38  C38         0.2309
    310  O2'       -0.3170   20.6260   -1.6200 O.3    38  C38        -0.2156
    311  C1'        0.6790   18.4830   -1.8950 C.3    38  C38         0.2420
    312  N1         0.4680   17.0720   -1.5330 N.ar   38  C38        -0.2535
    313  C2        -0.6470   16.4220   -2.0420 C.ar   38  C38         0.3532
    314  O2        -1.3880   17.0400   -2.8050 O.2    38  C38        -0.2443
    315  N3        -0.8870   15.1390   -1.7000 N.ar   38  C38        -0.1739
    316  C4        -0.0440   14.4970   -0.8910 C.ar   38  C38         0.1759
    317  N4        -0.3210   13.2250   -0.5760 N.pl3  38  C38        -0.1070
    318  C5         1.1220   15.1310   -0.3650 C.ar   38  C38         0.0566
    319  C6         1.3360   16.4100   -0.7090 C.ar   38  C38         0.0850
    320  OP1        5.6310   18.7040    1.9870 O.3    38  C38        -0.4373
    321  OP2        4.5670   16.3690    1.8440 O.co2  38  C38        -0.5172
    322  P         -0.0430   20.7090    2.2340 P.3    39  G39         0.2141
    323  C5'       -2.2930   21.4190    1.0830 C.3    39  G39         0.1812
    324  O5'       -1.5190   20.4080    1.7180 O.3    39  G39        -0.3114
    325  C4'       -3.6980   20.9230    0.8470 C.3    39  G39         0.1773
    326  O4'       -3.6650   19.8230   -0.1010 O.3    39  G39        -0.3307
    327  C3'       -4.4000   20.3420    2.0650 C.3    39  G39         0.1860
    328  O3'       -5.0110   21.3550    2.8620 O.3    39  G39        -0.3112
    329  C2'       -5.4460   19.4460    1.4240 C.3    39  G39         0.2309
    330  O2'       -6.5420   20.1970    0.9420 O.3    39  G39        -0.2156
    331  C1'       -4.6550   18.8670    0.2500 C.3    39  G39         0.2408
    332  N1        -5.1330   13.8180    0.4820 N.ar   39  G39        -0.1709
    333  C2        -6.0590   14.7710    0.1410 C.ar   39  G39         0.2606
    334  N2        -7.2710   14.3150   -0.2050 N.pl3  39  G39        -0.0859
    335  N3        -5.8190   16.0710    0.1350 N.ar   39  G39        -0.1918
    336  C4        -4.5480   16.3500    0.4910 C.ar   39  G39         0.1723
    337  C5        -3.5410   15.4780    0.8470 C.ar   39  G39         0.1748
    338  C6        -3.8180   14.0790    0.8650 C.ar   39  G39         0.3023
    339  O6        -3.0600   13.1400    1.1740 O.2    39  G39        -0.2633
    340  N7        -2.3750   16.1660    1.1450 N.ar   39  G39        -0.2173
    341  C8        -2.6880   17.4210    0.9690 C.ar   39  G39         0.1817
    342  N9        -3.9900   17.6030    0.5610 N.ar   39  G39        -0.2693
    343  OP1       -0.0680   22.0220    2.9200 O.2    39  G39        -0.5172
    344  OP2        0.4200   19.5070    2.9720 O.co2  39  G39        -0.4373
    345  P         -5.1640   21.1310    4.4530 P.3    40  A40         0.2141
    346  C5'       -6.9880   19.3080    5.0780 C.3    40  A40         0.1812
    347  O5'       -5.6790   19.6230    4.5860 O.3    40  A40        -0.3114
    348  C4'       -6.8790   18.7110    6.4580 C.3    40  A40         0.1773
    349  O4'       -6.8250   19.7860    7.4390 O.3    40  A40        -0.3307
    350  C3'       -8.0590   17.9120    6.9610 C.3    40  A40         0.1860
    351  O3'       -8.0480   16.6010    6.4340 O.3    40  A40        -0.3112
    352  C2'       -7.7530   17.8650    8.4460 C.3    40  A40         0.2309
    353  O2'       -6.6980   16.9600    8.6860 O.3    40  A40        -0.2156
    354  C1'       -7.2760   19.3000    8.6960 C.3    40  A40         0.2408
    355  N1        -9.7820   23.8340    8.3160 N.ar   40  A40        -0.2040
    356  C2        -8.7310   23.3290    7.6490 C.ar   40  A40         0.2016
    357  N3        -8.1180   22.1470    7.7960 N.ar   40  A40        -0.2048
    358  C4        -8.6950   21.4300    8.7730 C.ar   40  A40         0.1692
    359  C5        -9.7830   21.8110    9.5530 C.ar   40  A40         0.1518
    360  C6       -10.3480   23.0870    9.2910 C.ar   40  A40         0.1919
    361  N6       -11.4050   23.5870    9.9440 N.pl3  40  A40        -0.1054
    362  N7       -10.1100   20.8120   10.4640 N.ar   40  A40        -0.2193
    363  C8        -9.2370   19.8630   10.2180 C.ar   40  A40         0.1816
    364  N9        -8.3520   20.1660    9.2010 N.ar   40  A40        -0.2693
    365  OP1       -6.2240   22.0540    4.9540 O.2    40  A40        -0.5172
    366  OP2       -3.8000   21.1710    5.0540 O.co2  40  A40        -0.4373
    367  P         -9.4280   15.9350    5.9400 P.3    41  A41         0.2141
    368  C5'      -10.5750   15.6240    8.3200 C.3    41  A41         0.1812
    369  O5'      -10.5100   16.3170    7.0610 O.3    41  A41        -0.3114
    370  C4'      -11.6160   16.2590    9.2330 C.3    41  A41         0.1773
    371  O4'      -11.2390   17.6350    9.5480 O.3    41  A41        -0.3307
    372  C3'      -13.0280   16.3820    8.6670 C.3    41  A41         0.1860
    373  O3'      -13.7990   15.1780    8.8370 O.3    41  A41        -0.3112
    374  C2'      -13.6090   17.4940    9.5390 C.3    41  A41         0.2309
    375  O2'      -13.9990   17.0160   10.8140 O.3    41  A41        -0.2156
    376  C1'      -12.4090   18.4370    9.6860 C.3    41  A41         0.2408
    377  N1       -14.5430   22.8210    7.9490 N.ar   41  A41        -0.2040
    378  C2       -14.7560   22.0980    9.0570 C.ar   41  A41         0.2016
    379  N3       -14.1510   20.9810    9.4690 N.ar   41  A41        -0.2048
    380  C4       -13.2040   20.6010    8.5930 C.ar   41  A41         0.1692
    381  C5       -12.8620   21.2490    7.4140 C.ar   41  A41         0.1518
    382  C6       -13.5880   22.4120    7.0860 C.ar   41  A41         0.1919
    383  N6       -13.3930   23.1140    5.9710 N.pl3  41  A41        -0.1054
    384  N7       -11.8360   20.5790    6.7650 N.ar   41  A41        -0.2193
    385  C8       -11.5920   19.5490    7.5390 C.ar   41  A41         0.1816
    386  N9       -12.3930   19.4860    8.6570 N.ar   41  A41        -0.2693
    387  OP1       -9.2210   14.4640    5.9630 O.3    41  A41        -0.4373
    388  OP2       -9.8120   16.6070    4.6650 O.co2  41  A41        -0.5172
    389  P        -13.7660   14.0180    7.7080 P.3    42  G42         0.2141
    390  C5'      -12.2560   12.3770    9.1020 C.3    42  G42         0.1812
    391  O5'      -12.3840   13.2910    8.0220 O.3    42  G42        -0.3114
    392  C4'      -12.4860   10.9870    8.5880 C.3    42  G42         0.1773
    393  O4'      -11.9770   10.9070    7.2340 O.3    42  G42        -0.3307
    394  C3'      -11.7850    9.8810    9.3440 C.3    42  G42         0.1860
    395  O3'      -12.6060    9.4330   10.4020 O.3    42  G42        -0.3112
    396  C2'      -11.6400    8.8330    8.2570 C.3    42  G42         0.2309
    397  O2'      -12.8850    8.2390    7.9720 O.3    42  G42        -0.2156
    398  C1'      -11.2500    9.7120    7.0720 C.3    42  G42         0.2408
    399  N1        -6.4880    7.9810    6.9740 N.ar   42  G42        -0.1709
    400  C2        -7.6710    7.2880    6.8580 C.ar   42  G42         0.2606
    401  N2        -7.5810    5.9560    6.7070 N.pl3  42  G42        -0.0859
    402  N3        -8.8590    7.8570    6.8830 N.ar   42  G42        -0.1918
    403  C4        -8.7770    9.1980    7.0190 C.ar   42  G42         0.1723
    404  C5        -7.6510    9.9870    7.1280 C.ar   42  G42         0.1748
    405  C6        -6.3760    9.3620    7.1150 C.ar   42  G42         0.3023
    406  O6        -5.2560    9.8880    7.2110 O.2    42  G42        -0.2633
    407  N7        -7.9990   11.3280    7.2400 N.ar   42  G42        -0.2173
    408  C8        -9.3040   11.3250    7.2110 C.ar   42  G42         0.1817
    409  N9        -9.8370   10.0660    7.0910 N.ar   42  G42        -0.2693
    410  OP1      -13.6660   14.6300    6.3530 O.2    42  G42        -0.5172
    411  OP2      -14.8640   13.0580    7.9840 O.co2  42  G42        -0.4373
    412  P        -11.9320    8.8890   11.7460 P.3    43  U43         0.2141
    413  C5'      -11.9540    6.4500   10.7840 C.3    43  U43         0.1812
    414  O5'      -11.2120    7.5470   11.2850 O.3    43  U43        -0.3114
    415  C4'      -11.0270    5.3020   10.4860 C.3    43  U43         0.1773
    416  O4'      -10.1150    5.7020    9.4320 O.3    43  U43        -0.3307
    417  C3'      -10.1030    4.8880   11.6270 C.3    43  U43         0.1860
    418  O3'      -10.7240    3.9860   12.5290 O.3    43  U43        -0.3112
    419  C2'       -8.9710    4.2030   10.8810 C.3    43  U43         0.2309
    420  O2'       -9.2740    2.8740   10.4850 O.3    43  U43        -0.2156
    421  C1'       -8.8350    5.1230    9.6670 C.3    43  U43         0.2420
    422  N1        -7.8710    6.2030    9.9260 N.ar   43  U43        -0.2534
    423  C2        -6.5320    5.8620    9.9570 C.ar   43  U43         0.3546
    424  O2        -6.1370    4.7300    9.7640 O.2    43  U43        -0.2443
    425  N3        -5.6740    6.8990   10.2200 N.ar   43  U43        -0.1530
    426  C4        -6.0100    8.2180   10.4470 C.ar   43  U43         0.2846
    427  O4        -5.1170    9.0340   10.6840 O.2    43  U43        -0.2650
    428  C5        -7.4110    8.4970   10.3910 C.ar   43  U43         0.0814
    429  C6        -8.2750    7.5030   10.1390 C.ar   43  U43         0.0870
    430  OP1      -13.0270    8.5550   12.6880 O.3    43  U43        -0.4373
    431  OP2      -10.8760    9.8520   12.1580 O.co2  43  U43        -0.5172
    432  P        -10.3960    4.0800   14.1000 P.3    44  C44         0.2141
    433  C5'       -8.9970    1.8460   14.0630 C.3    44  C44         0.1812
    434  O5'       -9.0420    3.2500   14.2860 O.3    44  C44        -0.3114
    435  C4'       -7.5650    1.3780   13.8910 C.3    44  C44         0.1773
    436  O4'       -6.9620    2.1040   12.7850 O.3    44  C44        -0.3307
    437  C3'       -6.5970    1.6180   15.0450 C.3    44  C44         0.1860
    438  O3'       -6.6610    0.6060   16.0460 O.3    44  C44        -0.3112
    439  C2'       -5.2560    1.5600   14.3320 C.3    44  C44         0.2309
    440  O2'       -4.8510    0.2390   14.0280 O.3    44  C44        -0.2156
    441  C1'       -5.5850    2.3190   13.0490 C.3    44  C44         0.2420
    442  N1        -5.3770    3.7580   13.2400 N.ar   44  C44        -0.2535
    443  C2        -4.0690    4.2560   13.2240 C.ar   44  C44         0.3532
    444  O2        -3.1250    3.4650   13.0390 O.2    44  C44        -0.2443
    445  N3        -3.8690    5.5880   13.4060 N.ar   44  C44        -0.1739
    446  C4        -4.9140    6.4040   13.5830 C.ar   44  C44         0.1759
    447  N4        -4.6730    7.7080   13.7310 N.pl3  44  C44        -0.1070
    448  C5        -6.2520    5.9190   13.6090 C.ar   44  C44         0.0566
    449  C6        -6.4360    4.6010   13.4350 C.ar   44  C44         0.0850
    450  OP1      -11.5100    3.3720   14.7770 O.3    44  C44        -0.4373
    451  OP2      -10.1120    5.4960   14.4540 O.co2  44  C44        -0.5172
    452  P         -6.3110    0.9760   17.5750 P.3    45  G45         0.2141
    453  C5'       -3.9240   -0.0950   17.4170 C.3    45  G45         0.1812
    454  O5'       -4.7170    1.0670   17.6130 O.3    45  G45        -0.3114
    455  C4'       -2.4710    0.2720   17.2260 C.3    45  G45         0.1773
    456  O4'       -2.3370    1.1400   16.0630 O.3    45  G45        -0.3307
    457  C3'       -1.7870    1.0590   18.3340 C.3    45  G45         0.1860
    458  O3'       -1.3930    0.2260   19.4300 O.3    45  G45        -0.3112
    459  C2'       -0.5910    1.6160   17.5690 C.3    45  G45         0.2309
    460  O2'        0.3580    0.6170   17.2500 O.3    45  G45        -0.2156
    461  C1'       -1.2640    2.0510   16.2670 C.3    45  G45         0.2408
    462  N1        -0.1690    7.0070   16.5140 N.ar   45  G45        -0.1709
    463  C2         0.6750    5.9250   16.3730 C.ar   45  G45         0.2606
    464  N2         1.9940    6.1930   16.3200 N.pl3  45  G45        -0.0859
    465  N3         0.2610    4.6730   16.2940 N.ar   45  G45        -0.1918
    466  C4        -1.0790    4.5770   16.3820 C.ar   45  G45         0.1723
    467  C5        -2.0100    5.5880   16.5280 C.ar   45  G45         0.1748
    468  C6        -1.5540    6.9370   16.6040 C.ar   45  G45         0.3023
    469  O6        -2.2220    7.9810   16.7380 O.2    45  G45        -0.2633
    470  N7        -3.2950    5.0670   16.5910 N.ar   45  G45        -0.2173
    471  C8        -3.1270    3.7750   16.4840 C.ar   45  G45         0.1817
    472  N9        -1.8060    3.4080   16.3650 N.ar   45  G45        -0.2693
    473  OP1       -6.7380   -0.1710   18.4130 O.3    45  G45        -0.4373
    474  OP2       -6.8580    2.3290   17.8540 O.co2  45  G45        -0.5172
    475  P         -1.4080    0.8140   20.9390 P.3    46  C46         0.2141
    476  C5'        1.1820    1.1240   20.7180 C.3    46  C46         0.1813
    477  O5'       -0.0880    1.6970   21.0130 O.3    46  C46        -0.3114
    478  C4'        2.2290    2.2040   20.6120 C.3    46  C46         0.1801
    479  O4'        1.8480    3.1320   19.5630 O.3    46  C46        -0.3306
    480  C3'        2.3820    3.0930   21.8340 C.3    46  C46         0.2161
    481  O3'        3.1590    2.4760   22.8540 O.3    46  C46        -0.2175
    482  C2'        3.0370    4.3320   21.2410 C.3    46  C46         0.2338
    483  O2'        4.4290    4.1610   21.0460 O.3    46  C46        -0.2155
    484  C1'        2.3250    4.4310   19.8850 C.3    46  C46         0.2421
    485  N1         1.1870    5.3720   19.8750 N.ar   46  C46        -0.2535
    486  C2         1.4580    6.7420   19.8480 C.ar   46  C46         0.3532
    487  O2         2.6410    7.1150   19.7930 O.2    46  C46        -0.2443
    488  N3         0.4300    7.6240   19.8780 N.ar   46  C46        -0.1739
    489  C4        -0.8270    7.1810   19.9200 C.ar   46  C46         0.1759
    490  N4        -1.8040    8.0880   19.9640 N.pl3  46  C46        -0.1070
    491  C5        -1.1350    5.7880   19.9230 C.ar   46  C46         0.0566
    492  C6        -0.1060    4.9260   19.9020 C.ar   46  C46         0.0850
    493  OP1       -1.2240   -0.3110   21.8840 O.3    46  C46        -0.4373
    494  OP2       -2.5750    1.7200   21.1060 O.co2  46  C46        -0.5172
@<TRIPOS>BOND
     1   234   213    2
     2   219   218    1
     3   235   213    1
     4   213   215    1
     5   213   199    1
     6   215   214    1
     7   214   216    1
     8   211   193    2
     9   218   216    1
    10   218   220    1
    11   199   198    1
    12   216   217    1
    13   220   221    1
    14   220   222    1
    15   193   212    1
    16   193   195    1
    17   193   179    1
    18   198   196    1
    19   198   200    1
    20   194   195    1
    21   194   196    1
    22   217   222    1
    23   196   197    1
    24   232   231   ar
    25   232   233   ar
    26   222   233    1
    27   231   228   ar
    28   179   178    1
    29   233   227   ar
    30   200   201    1
    31   200   202    1
    32   228   227   ar
    33   228   229   ar
    34   227   226   ar
    35   197   202    1
    36   191   173    2
    37   229   230    2
    38   229   223   ar
    39   226   224   ar
    40   178   176    1
    41   178   180    1
    42   202   203    1
    43   210   209   ar
    44   210   203   ar
    45   209   207   ar
    46   203   204   ar
    47   224   223   ar
    48   224   225    1
    49   174   175    1
    50   174   176    1
    51   181   180    1
    52   175   173    1
    53   176   177    1
    54   180   182    1
    55   173   192    1
    56   173   156    1
    57   207   206   ar
    58   207   208    1
    59   204   205    2
    60   204   206   ar
    61   251   250    1
    62   249   250   ar
    63   249   247   ar
    64   248   247    2
    65   177   182    1
    66   250   252   ar
    67   182   183    1
    68   247   246   ar
    69   156   155    1
    70   268   267    1
    71   190   183   ar
    72   190   189   ar
    73   183   184   ar
    74   252   253   ar
    75   266   267   ar
    76   266   272   ar
    77   246   253   ar
    78   246   245    1
    79   267   269   ar
    80   189   187   ar
    81   273   272    2
    82   245   240    1
    83   245   243    1
    84   171   150    2
    85   184   185    2
    86   184   186   ar
    87   272   271   ar
    88   269   270   ar
    89   155   157    1
    90   155   153    1
    91   187   186   ar
    92   187   188    1
    93   240   239    1
    94   291   290    1
    95   270   271   ar
    96   270   276   ar
    97   271   274   ar
    98   158   157    1
    99   157   159    1
   100   151   152    1
   101   151   153    1
   102   152   150    1
   103   290   289   ar
   104   290   292   ar
   105   150   172    1
   106   150   136    1
   107   153   154    1
   108   244   243    1
   109   274   275   ar
   110   276   265    1
   111   276   275   ar
   112   243   241    1
   113   289   295   ar
   114   265   260    1
   115   265   263    1
   116   292   293   ar
   117   239   237    1
   118   239   241    1
   119   260   259    1
   120   295   296    2
   121   295   294   ar
   122   238   236    1
   123   238   237    1
   124   255   236    1
   125   293   294   ar
   126   293   299   ar
   127   236   254    1
   128   241   242    1
   129   159   154    1
   130   159   170    1
   131   264   263    1
   132   294   297   ar
   133   136   135    1
   134   263   261    1
   135   170   169   ar
   136   170   164   ar
   137   288   299    1
   138   288   283    1
   139   288   286    1
   140   299   298   ar
   141   169   168   ar
   142   164   163   ar
   143   164   165   ar
   144   283   282    1
   145   163   161   ar
   146   168   165   ar
   147   259   261    1
   148   259   257    1
   149   297   298   ar
   150   165   166   ar
   151   314   313    2
   152   161   162    1
   153   161   160   ar
   154   148   130    2
   155   287   286    1
   156   242   256    1
   157   160   166   ar
   158   166   167    2
   159   135   137    1
   160   135   133    1
   161   261   262    1
   162   257   258    1
   163   286   284    1
   164   313   315   ar
   165   313   312   ar
   166   258   256    1
   167   311   306    1
   168   311   312    1
   169   311   309    1
   170   282   280    1
   171   282   284    1
   172   306   305    1
   173   315   316   ar
   174   137   138    1
   175   137   139    1
   176   149   130    1
   177   130   132    1
   178   130   113    1
   179   310   309    1
   180   312   319   ar
   181   132   131    1
   182   131   133    1
   183   256   278    2
   184   256   277    1
   185   133   134    1
   186   262   279    1
   187   280   281    1
   188   284   285    1
   189   309   307    1
   190   316   317    1
   191   316   318   ar
   192   305   303    1
   193   305   307    1
   194   319   318   ar
   195   281   279    1
   196   139   134    1
   197   139   140    1
   198   113   112    1
   199   334   333    1
   200   285   302    1
   201   326   331    1
   202   326   325    1
   203   303   304    1
   204   147   140   ar
   205   147   146   ar
   206   140   141   ar
   207   279   301    2
   208   279   300    1
   209   307   308    1
   210   335   333   ar
   211   335   336   ar
   212   333   332   ar
   213   146   144   ar
   214   141   142    2
   215   141   143   ar
   216   331   342    1
   217   331   329    1
   218   128   107    2
   219   144   143   ar
   220   144   145    1
   221   332   338   ar
   222   336   342   ar
   223   336   337   ar
   224   342   341   ar
   225   304   302    1
   226   325   323    1
   227   325   327    1
   228   337   338   ar
   229   337   340   ar
   230   338   339    2
   231   308   322    1
   232   330   329    1
   233   341   340   ar
   234   112   114    1
   235   112   110    1
   236   323   324    1
   237   302   321    2
   238   302   320    1
   239   329   327    1
   240   129   107    1
   241   107   109    1
   242   107    93    1
   243   115   114    1
   244   114   116    1
   245   324   322    1
   246   109   108    1
   247   108   110    1
   248   110   111    1
   249   327   328    1
   250   322   343    2
   251   322   344    1
   252    93    92    1
   253   328   345    1
   254   116   111    1
   255   116   127    1
   256   127   126   ar
   257   127   121   ar
   258   120   121   ar
   259   120   118   ar
   260   126   125   ar
   261   121   122   ar
   262   119   118    1
   263   118   117   ar
   264   105    87    2
   265   125   122   ar
   266   122   123   ar
   267   117   123   ar
   268   123   124    2
   269    92    94    1
   270    92    90    1
   271   345   347    1
   272   345   365    2
   273   345   366    1
   274   347   346    1
   275   388   367    2
   276   106    87    1
   277    87    89    1
   278    87    73    1
   279    95    94    1
   280    94    96    1
   281    88    89    1
   282    88    90    1
   283    90    91    1
   284   346   348    1
   285   367   387    1
   286   367   351    1
   287   367   369    1
   288   383   382    1
   289    73    72    1
   290    96    91    1
   291    96    97    1
   292   410   389    2
   293   104    97   ar
   294   104   103   ar
   295   351   350    1
   296    97    98   ar
   297   348   350    1
   298   348   349    1
   299   103   101   ar
   300    98    99    2
   301    98   100   ar
   302   401   400    1
   303   384   381   ar
   304   384   385   ar
   305   400   402   ar
   306   400   399   ar
   307   101   100   ar
   308   101   102    1
   309   402   403   ar
   310   350   352    1
   311   399   405   ar
   312    85    67    2
   313   403   409   ar
   314   403   404   ar
   315   369   368    1
   316   398   409    1
   317   398   393    1
   318   398   396    1
   319   382   381   ar
   320   382   377   ar
   321   409   408   ar
   322   405   404   ar
   323   405   406    2
   324   404   407   ar
   325   408   407   ar
   326   393   392    1
   327    72    74    1
   328    72    70    1
   329   381   380   ar
   330   349   354    1
   331   385   386   ar
   332   356   357   ar
   333   356   355   ar
   334   389   411    1
   335   389   391    1
   336   389   373    1
   337   357   358   ar
   338    75    74    1
   339   377   378   ar
   340    74    76    1
   341   397   396    1
   342   391   390    1
   343    67    86    1
   344    67    69    1
   345    67    50    1
   346    69    68    1
   347   396   394    1
   348   355   360   ar
   349   368   370    1
   350    68    70    1
   351   352   353    1
   352   352   354    1
   353    70    71    1
   354   392   390    1
   355   392   394    1
   356   380   386   ar
   357   380   379   ar
   358   386   376    1
   359   372   373    1
   360   372   370    1
   361   372   374    1
   362   354   364    1
   363   358   364   ar
   364   358   359   ar
   365   378   379   ar
   366   364   363   ar
   367   370   371    1
   368   360   359   ar
   369   360   361    1
   370   394   395    1
   371    76    71    1
   372    76    77    1
   373   416   421    1
   374   416   415    1
   375    50    49    1
   376   374   376    1
   377   374   375    1
   378   371   376    1
   379   359   362   ar
   380   421   422    1
   381   421   419    1
   382    77    84   ar
   383    77    78   ar
   384    84    83   ar
   385   424   423    2
   386    83    81   ar
   387   422   423   ar
   388   422   429   ar
   389    78    79    2
   390    78    80   ar
   391   423   425   ar
   392    81    80   ar
   393    81    82    2
   394   429   428   ar
   395   363   362   ar
   396   425   426   ar
   397   428   426   ar
   398   395   412    1
   399   426   427    2
   400   420   419    1
   401   415   413    1
   402   415   417    1
   403    65    44    2
   404    49    51    1
   405    49    47    1
   406   413   414    1
   407   419   417    1
   408   414   412    1
   409    51    52    1
   410    51    53    1
   411    45    46    1
   412    45    47    1
   413    46    44    1
   414   417   418    1
   415    44    66    1
   416    44    30    1
   417    47    48    1
   418   412   431    2
   419   412   430    1
   420   418   432    1
   421   436   441    1
   422   436   435    1
   423    53    48    1
   424    53    64    1
   425    56    55    1
   426    57    55   ar
   427    57    58   ar
   428    64    58   ar
   429    64    63   ar
   430   444   443    2
   431    55    54   ar
   432   441   442    1
   433   441   439    1
   434    58    59   ar
   435    30    29    1
   436    63    62   ar
   437   443   442   ar
   438   443   445   ar
   439    54    60   ar
   440   442   449   ar
   441    59    62   ar
   442    59    60   ar
   443    60    61    2
   444   445   446   ar
   445   449   448   ar
   446   446   448   ar
   447   446   447    1
   448   435   433    1
   449   435   437    1
   450    42    24    2
   451   440   439    1
   452   433   434    1
   453   432   434    1
   454   432   451    2
   455   432   450    1
   456    29    31    1
   457    29    27    1
   458   439   437    1
   459    43    24    1
   460    24    26    1
   461    24     7    1
   462    31    32    1
   463    31    33    1
   464    26    25    1
   465   437   438    1
   466    25    27    1
   467    27    28    1
   468   438   452    1
   469   456   461    1
   470   456   455    1
   471   461   472    1
   472   461   459    1
   473   465   463   ar
   474   465   466   ar
   475   464   463    1
   476    33    34    1
   477    33    28    1
   478   472   466   ar
   479   472   471   ar
   480     7     6    1
   481   463   462   ar
   482   466   467   ar
   483    40    41   ar
   484    40    38   ar
   485    41    34   ar
   486    39    38    1
   487    34    35   ar
   488    38    37   ar
   489   471   470   ar
   490   462   468   ar
   491   467   470   ar
   492   467   468   ar
   493    22     1    1
   494    37    35   ar
   495    35    36    2
   496   468   469    2
   497    23     1    1
   498   455   453    1
   499   455   457    1
   500   460   459    1
   501     6     8    1
   502     6     4    1
   503     1     3    1
   504   453   454    1
   505     3     2    1
   506   459   457    1
   507   452   454    1
   508   452   474    2
   509   452   473    1
   510     2     4    1
   511     8     9    1
   512     8    10    1
   513     4     5    1
   514   457   458    1
   515   458   475    1
   516    18    17    2
   517     5    10    1
   518    10    21    1
   519   479   484    1
   520   479   478    1
   521    17    16   ar
   522    17    11   ar
   523    19    16   ar
   524    19    20   ar
   525    16    15   ar
   526    21    20   ar
   527    21    15   ar
   528    11    12   ar
   529    15    14   ar
   530    12    14   ar
   531    12    13    1
   532   487   486    2
   533   486   485   ar
   534   486   488   ar
   535   485   484    1
   536   485   492   ar
   537   488   489   ar
   538   484   482    1
   539   492   491   ar
   540   489   491   ar
   541   489   490    1
   542   478   476    1
   543   478   480    1
   544   476   477    1
   545   475   477    1
   546   475   494    2
   547   475   493    1
   548   483   482    1
   549   482   480    1
   550   480   481    1
