lig.pdb
 OpenBabel03051820513D

 40 42  0  0  0  0  0  0  0  0999 V2000
   -6.3540    0.2890    4.0380 C   0  0  0  0  0  0  0  0  0  0  0  0
   -7.4440   -0.0770    4.7030 N   0  0  0  0  0  0  0  0  0  0  0  0
   -8.1180   -1.1490    4.3270 C   0  0  0  0  0  0  0  0  0  0  0  0
   -7.7380   -1.8300    3.2270 C   0  0  0  0  0  0  0  0  0  0  0  0
   -6.6360   -1.4600    2.5610 C   0  0  0  0  0  0  0  0  0  0  0  0
   -6.2560   -2.1240    1.4700 N   0  0  0  0  0  0  0  0  0  0  0  0
   -5.9490   -0.3980    2.9690 N   0  0  0  0  0  0  0  0  0  0  0  0
   -9.2060   -1.5260    5.0190 C   0  0  0  0  0  0  0  0  0  0  0  0
   -9.9980   -2.5250    4.5220 C   0  0  0  0  0  0  0  0  0  0  0  0
  -11.4000   -2.3770    4.6470 O   0  0  0  0  0  0  0  0  0  0  0  0
   -9.5040   -3.3070    3.5480 C   0  0  0  0  0  0  0  0  0  0  0  0
  -10.0600   -4.5960    3.3300 O   0  0  0  0  0  0  0  0  0  0  0  0
   -8.4350   -2.9050    2.8330 C   0  0  0  0  0  0  0  0  0  0  0  0
   -5.6780    1.3540    4.4330 N   0  0  0  0  0  0  0  0  0  0  0  0
   -6.3680    2.2820    5.1030 C   0  0  0  0  0  0  0  0  0  0  0  0
   -7.1650    3.1410    4.1330 C   0  0  0  0  0  0  0  0  0  0  0  0
   -6.3040    3.7800    3.2650 N   0  0  0  0  0  0  0  0  0  0  0  0
   -5.6370    2.8020    2.5600 C   0  0  0  0  0  0  0  0  0  0  0  0
   -4.8360    1.9450    3.5260 C   0  0  0  0  0  0  0  0  0  0  0  0
  -11.7910   -1.2650    3.8830 C   0  0  0  0  0  0  0  0  0  0  0  0
  -11.3630   -4.4460    2.8300 C   0  0  0  0  0  0  0  0  0  0  0  0
   -9.3520   -1.1700    6.0390 H   0  0  0  0  0  0  0  0  0  0  0  0
   -8.1160   -3.4720    1.9610 H   0  0  0  0  0  0  0  0  0  0  0  0
   -5.7790    4.5690    3.6050 H   0  0  0  0  0  0  0  0  0  0  0  0
   -5.6730    2.9090    5.6590 H   0  0  0  0  0  0  0  0  0  0  0  0
   -7.0460    1.7980    5.8010 H   0  0  0  0  0  0  0  0  0  0  0  0
   -7.8310    2.4900    3.5630 H   0  0  0  0  0  0  0  0  0  0  0  0
   -7.7560    3.8730    4.6890 H   0  0  0  0  0  0  0  0  0  0  0  0
   -6.1800   -1.6440    0.5880 H   0  0  0  0  0  0  0  0  0  0  0  0
   -4.9680    3.2560    1.8220 H   0  0  0  0  0  0  0  0  0  0  0  0
   -6.0310   -3.1050    1.5330 H   0  0  0  0  0  0  0  0  0  0  0  0
   -6.3640    2.1660    2.0510 H   0  0  0  0  0  0  0  0  0  0  0  0
   -4.1140    2.5690    4.0500 H   0  0  0  0  0  0  0  0  0  0  0  0
   -4.3020    1.1760    2.9720 H   0  0  0  0  0  0  0  0  0  0  0  0
  -11.4130   -1.3760    2.8650 H   0  0  0  0  0  0  0  0  0  0  0  0
  -12.8760   -1.2070    3.8580 H   0  0  0  0  0  0  0  0  0  0  0  0
  -11.3820   -0.3630    4.3210 H   0  0  0  0  0  0  0  0  0  0  0  0
  -11.9630   -3.8910    3.5450 H   0  0  0  0  0  0  0  0  0  0  0  0
  -11.3300   -3.9010    1.8860 H   0  0  0  0  0  0  0  0  0  0  0  0
  -11.8070   -5.4290    2.6710 H   0  0  0  0  0  0  0  0  0  0  0  0
  1 14  1  0  0  0  0
  1  2  2  0  0  0  0
  3  2  1  0  0  0  0
  3  8  2  0  0  0  0
  4  3  1  0  0  0  0
  5  7  2  0  0  0  0
  5  4  1  0  0  0  0
  6 31  1  0  0  0  0
  6  5  1  0  0  0  0
  7  1  1  0  0  0  0
  8 22  1  0  0  0  0
  9 10  1  0  0  0  0
  9  8  1  0  0  0  0
 11  9  2  0  0  0  0
 12 11  1  0  0  0  0
 13  4  2  0  0  0  0
 13 11  1  0  0  0  0
 14 15  1  0  0  0  0
 15 25  1  0  0  0  0
 15 26  1  0  0  0  0
 16 28  1  0  0  0  0
 16 15  1  0  0  0  0
 17 24  1  0  0  0  0
 17 16  1  0  0  0  0
 18 17  1  0  0  0  0
 18 19  1  0  0  0  0
 19 33  1  0  0  0  0
 19 14  1  0  0  0  0
 20 37  1  0  0  0  0
 20 10  1  0  0  0  0
 21 12  1  0  0  0  0
 21 38  1  0  0  0  0
 23 13  1  0  0  0  0
 27 16  1  0  0  0  0
 29  6  1  0  0  0  0
 30 18  1  0  0  0  0
 32 18  1  0  0  0  0
 34 19  1  0  0  0  0
 35 20  1  0  0  0  0
 36 20  1  0  0  0  0
 39 21  1  0  0  0  0
 40 21  1  0  0  0  0
M  END
$$$$
