lig.pdb
 OpenBabel11021811453D
libRbt.so/2013.1/901 2013/11/27
 21 23  0  0  0  0  0  0  0  0999 V2000
   -6.3980   -0.3249    3.9687 C   0  0  0  0  0  0  0  0  0  0  0  0
   -7.5933   -0.3217    4.5480 N   0  0  0  0  0  0  0  0  0  0  0  0
   -8.5204   -1.1759    4.1536 C   0  0  0  0  0  0  0  0  0  0  0  0
   -8.2751   -2.0026    3.1171 C   0  0  0  0  0  0  0  0  0  0  0  0
   -7.0671   -2.0055    2.5376 C   0  0  0  0  0  0  0  0  0  0  0  0
   -6.8175   -2.8155    1.5094 N   0  0  0  0  0  0  0  0  0  0  0  0
   -6.1328   -1.1627    2.9654 N   0  0  0  0  0  0  0  0  0  0  0  0
   -9.7190   -1.1821    4.7604 C   0  0  0  0  0  0  0  0  0  0  0  0
  -10.7285   -1.9400    4.2325 C   0  0  0  0  0  0  0  0  0  0  0  0
  -12.0320   -1.3886    4.2280 O   0  0  0  0  0  0  0  0  0  0  0  0
  -10.4131   -2.8884    3.3351 C   0  0  0  0  0  0  0  0  0  0  0  0
  -11.3025   -3.9743    3.1164 O   0  0  0  0  0  0  0  0  0  0  0  0
   -9.2237   -2.8542    2.7028 C   0  0  0  0  0  0  0  0  0  0  0  0
   -5.4724    0.5232    4.3824 N   0  0  0  0  0  0  0  0  0  0  0  0
   -5.8846    1.5089    5.1852 C   0  0  0  0  0  0  0  0  0  0  0  0
   -6.5361    2.6119    4.3648 C   0  0  0  0  0  0  0  0  0  0  0  0
   -5.6190    3.1299    3.4740 N   0  0  0  0  0  0  0  0  0  0  0  0
   -5.2429    2.1040    2.6346 C   0  0  0  0  0  0  0  0  0  0  0  0
   -4.5873    1.0026    3.4508 C   0  0  0  0  0  0  0  0  0  0  0  0
  -12.6087   -1.6222    5.4873 C   0  0  0  0  0  0  0  0  0  0  0  0
  -10.9741   -5.0114    4.0034 C   0  0  0  0  0  0  0  0  0  0  0  0
  1 14  1  0  0  0  0
  1  2  2  0  0  0  0
  3  2  1  0  0  0  0
  3  8  2  0  0  0  0
  4  3  1  0  0  0  0
  5  7  2  0  0  0  0
  5  4  1  0  0  0  0
  6  5  1  0  0  0  0
  7  1  1  0  0  0  0
  9 10  1  0  0  0  0
  9  8  1  0  0  0  0
 11  9  2  0  0  0  0
 12 11  1  0  0  0  0
 13  4  2  0  0  0  0
 13 11  1  0  0  0  0
 14 15  1  0  0  0  0
 16 15  1  0  0  0  0
 17 16  1  0  0  0  0
 18 17  1  0  0  0  0
 18 19  1  0  0  0  0
 19 14  1  0  0  0  0
 20 10  1  0  0  0  0
 21 12  1  0  0  0  0
M  END
>  <CHROM.1>
-12.69309755,-83.50597649,-89.67490335,-8.17594745,-0.94161759,3.71742535
-0.58423507,-0.38388881,-2.66748640

>  <Name>
lig.pdb

>  <RI>
2.6678e+07

>  <Rbt.Current_Directory>
/home/itssahil/PROJECTS/Mol_Feturizer/New_Systems/rnas/2lwk

>  <Rbt.Executable>
rbdock ($Id: //depot/dev/client3/rdock/2013.1/src/exe/rbdock.cxx#4 $)

>  <Rbt.Library>
libRbt.so (2013.1, Build901 2013/11/27)

>  <Rbt.Parameter_File>
/export/apps/rDock/src/rDock_2013.1_src/data/scripts/dock_solv.prm

>  <Rbt.Receptor>
prm/pocket_docking_2.prm

>  <SCORE>
-15.693

>  <SCORE.INTER>
-12.5323

>  <SCORE.INTER.CONST>
1

>  <SCORE.INTER.POLAR>
-1.40998

>  <SCORE.INTER.ROT>
3

>  <SCORE.INTER.SOLV>
6.41475

>  <SCORE.INTER.VDW>
-11.3932

>  <SCORE.INTER.norm>
-0.596775

>  <SCORE.INTRA>
-3.16944

>  <SCORE.INTRA.DIHEDRAL>
0.554575

>  <SCORE.INTRA.DIHEDRAL.0>
8.84257

>  <SCORE.INTRA.POLAR>
0

>  <SCORE.INTRA.POLAR.0>
0

>  <SCORE.INTRA.REPUL>
0

>  <SCORE.INTRA.REPUL.0>
0

>  <SCORE.INTRA.SOLV>
-0.0581546

>  <SCORE.INTRA.SOLV.lig_0>
-17.1313

>  <SCORE.INTRA.VDW>
-3.41765

>  <SCORE.INTRA.VDW.0>
6.34071

>  <SCORE.INTRA.norm>
-0.150926

>  <SCORE.RESTR>
0.00874932

>  <SCORE.RESTR.CAVITY>
0.00874932

>  <SCORE.RESTR.norm>
0.000416634

>  <SCORE.SYSTEM>
0

>  <SCORE.SYSTEM.CONST>
0

>  <SCORE.SYSTEM.DIHEDRAL>
0

>  <SCORE.SYSTEM.SOLV>
0

>  <SCORE.SYSTEM.norm>
0

>  <SCORE.heavy>
21

>  <SCORE.norm>
-0.747284

>  <RMSD>
0.966

$$$$
lig.pdb
 OpenBabel11021811453D
libRbt.so/2013.1/901 2013/11/27
 21 23  0  0  0  0  0  0  0  0999 V2000
   -6.3937   -0.3556    3.9482 C   0  0  0  0  0  0  0  0  0  0  0  0
   -7.5863   -0.3462    4.5330 N   0  0  0  0  0  0  0  0  0  0  0  0
   -8.5182   -1.1986    4.1458 C   0  0  0  0  0  0  0  0  0  0  0  0
   -8.2805   -2.0298    3.1111 C   0  0  0  0  0  0  0  0  0  0  0  0
   -7.0752   -2.0389    2.5261 C   0  0  0  0  0  0  0  0  0  0  0  0
   -6.8331   -2.8532    1.4996 N   0  0  0  0  0  0  0  0  0  0  0  0
   -6.1360   -1.1978    2.9467 N   0  0  0  0  0  0  0  0  0  0  0  0
   -9.7140   -1.1986    4.7581 C   0  0  0  0  0  0  0  0  0  0  0  0
  -10.7285   -1.9547    4.2375 C   0  0  0  0  0  0  0  0  0  0  0  0
  -12.0301   -1.3988    4.2370 O   0  0  0  0  0  0  0  0  0  0  0  0
  -10.4205   -2.9073    3.3420 C   0  0  0  0  0  0  0  0  0  0  0  0
  -11.3147   -3.9909    3.1311 O   0  0  0  0  0  0  0  0  0  0  0  0
   -9.2339   -2.8794    2.7042 C   0  0  0  0  0  0  0  0  0  0  0  0
   -5.4633    0.4907    4.3548 N   0  0  0  0  0  0  0  0  0  0  0  0
   -5.8680    1.4793    5.1579 C   0  0  0  0  0  0  0  0  0  0  0  0
   -6.5212    2.5824    4.3390 C   0  0  0  0  0  0  0  0  0  0  0  0
   -5.6078    3.0959    3.4418 N   0  0  0  0  0  0  0  0  0  0  0  0
   -5.2395    2.0672    2.6024 C   0  0  0  0  0  0  0  0  0  0  0  0
   -4.5823    0.9656    3.4170 C   0  0  0  0  0  0  0  0  0  0  0  0
  -12.6062   -1.6361    5.4960 C   0  0  0  0  0  0  0  0  0  0  0  0
  -10.9852   -5.0265    4.0195 C   0  0  0  0  0  0  0  0  0  0  0  0
  1 14  1  0  0  0  0
  1  2  2  0  0  0  0
  3  2  1  0  0  0  0
  3  8  2  0  0  0  0
  4  3  1  0  0  0  0
  5  7  2  0  0  0  0
  5  4  1  0  0  0  0
  6  5  1  0  0  0  0
  7  1  1  0  0  0  0
  9 10  1  0  0  0  0
  9  8  1  0  0  0  0
 11  9  2  0  0  0  0
 12 11  1  0  0  0  0
 13  4  2  0  0  0  0
 13 11  1  0  0  0  0
 14 15  1  0  0  0  0
 16 15  1  0  0  0  0
 17 16  1  0  0  0  0
 18 17  1  0  0  0  0
 18 19  1  0  0  0  0
 19 14  1  0  0  0  0
 20 10  1  0  0  0  0
 21 12  1  0  0  0  0
M  END
>  <CHROM.1>
-12.58032972,-84.00229738,-89.71797356,-8.17552256,-0.96739716,3.70761334
-0.57899614,-0.38628919,-2.66878658

>  <Name>
lig.pdb

>  <RI>
2.6678e+07

>  <Rbt.Current_Directory>
/home/itssahil/PROJECTS/Mol_Feturizer/New_Systems/rnas/2lwk

>  <Rbt.Executable>
rbdock ($Id: //depot/dev/client3/rdock/2013.1/src/exe/rbdock.cxx#4 $)

>  <Rbt.Library>
libRbt.so (2013.1, Build901 2013/11/27)

>  <Rbt.Parameter_File>
/export/apps/rDock/src/rDock_2013.1_src/data/scripts/dock_solv.prm

>  <Rbt.Receptor>
prm/pocket_docking_2.prm

>  <SCORE>
-15.7288

>  <SCORE.INTER>
-12.5563

>  <SCORE.INTER.CONST>
1

>  <SCORE.INTER.POLAR>
-1.3993

>  <SCORE.INTER.ROT>
3

>  <SCORE.INTER.SOLV>
6.38535

>  <SCORE.INTER.VDW>
-11.4349

>  <SCORE.INTER.norm>
-0.597917

>  <SCORE.INTRA>
-3.17872

>  <SCORE.INTRA.DIHEDRAL>
0.577136

>  <SCORE.INTRA.DIHEDRAL.0>
8.84257

>  <SCORE.INTRA.POLAR>
0

>  <SCORE.INTRA.POLAR.0>
0

>  <SCORE.INTRA.REPUL>
0

>  <SCORE.INTRA.REPUL.0>
0

>  <SCORE.INTRA.SOLV>
-0.0573854

>  <SCORE.INTRA.SOLV.lig_0>
-17.1313

>  <SCORE.INTRA.VDW>
-3.43859

>  <SCORE.INTRA.VDW.0>
6.34071

>  <SCORE.INTRA.norm>
-0.151367

>  <SCORE.RESTR>
0.00616122

>  <SCORE.RESTR.CAVITY>
0.00616122

>  <SCORE.RESTR.norm>
0.000293391

>  <SCORE.SYSTEM>
0

>  <SCORE.SYSTEM.CONST>
0

>  <SCORE.SYSTEM.DIHEDRAL>
0

>  <SCORE.SYSTEM.SOLV>
0

>  <SCORE.SYSTEM.norm>
0

>  <SCORE.heavy>
21

>  <SCORE.norm>
-0.748991

>  <RMSD>
0.981

$$$$
lig.pdb
 OpenBabel11021811453D
libRbt.so/2013.1/901 2013/11/27
 21 23  0  0  0  0  0  0  0  0999 V2000
   -6.3895   -0.3585    3.9684 C   0  0  0  0  0  0  0  0  0  0  0  0
   -7.5853   -0.3464    4.5465 N   0  0  0  0  0  0  0  0  0  0  0  0
   -8.5163   -1.1981    4.1557 C   0  0  0  0  0  0  0  0  0  0  0  0
   -8.2739   -2.0315    3.1237 C   0  0  0  0  0  0  0  0  0  0  0  0
   -7.0654   -2.0433    2.5455 C   0  0  0  0  0  0  0  0  0  0  0  0
   -6.8187   -2.8599    1.5219 N   0  0  0  0  0  0  0  0  0  0  0  0
   -6.1275   -1.2028    2.9698 N   0  0  0  0  0  0  0  0  0  0  0  0
   -9.7154   -1.1953    4.7613 C   0  0  0  0  0  0  0  0  0  0  0  0
  -10.7282   -1.9510    4.2363 C   0  0  0  0  0  0  0  0  0  0  0  0
  -12.0289   -1.3932    4.2276 O   0  0  0  0  0  0  0  0  0  0  0  0
  -10.4165   -2.9056    3.3443 C   0  0  0  0  0  0  0  0  0  0  0  0
  -11.3110   -3.9883    3.1303 O   0  0  0  0  0  0  0  0  0  0  0  0
   -9.2263   -2.8806    2.7130 C   0  0  0  0  0  0  0  0  0  0  0  0
   -5.4602    0.4872    4.3786 N   0  0  0  0  0  0  0  0  0  0  0  0
   -5.8685    1.4796    5.1753 C   0  0  0  0  0  0  0  0  0  0  0  0
   -6.5133    2.5812    4.3477 C   0  0  0  0  0  0  0  0  0  0  0  0
   -5.5923    3.0894    3.4553 N   0  0  0  0  0  0  0  0  0  0  0  0
   -5.2203    2.0569    2.6222 C   0  0  0  0  0  0  0  0  0  0  0  0
   -4.5714    0.9568    3.4456 C   0  0  0  0  0  0  0  0  0  0  0  0
  -12.6078   -1.6169    5.4877 C   0  0  0  0  0  0  0  0  0  0  0  0
  -10.9906   -5.0211    4.0253 C   0  0  0  0  0  0  0  0  0  0  0  0
  1 14  1  0  0  0  0
  1  2  2  0  0  0  0
  3  2  1  0  0  0  0
  3  8  2  0  0  0  0
  4  3  1  0  0  0  0
  5  7  2  0  0  0  0
  5  4  1  0  0  0  0
  6  5  1  0  0  0  0
  7  1  1  0  0  0  0
  9 10  1  0  0  0  0
  9  8  1  0  0  0  0
 11  9  2  0  0  0  0
 12 11  1  0  0  0  0
 13  4  2  0  0  0  0
 13 11  1  0  0  0  0
 14 15  1  0  0  0  0
 16 15  1  0  0  0  0
 17 16  1  0  0  0  0
 18 17  1  0  0  0  0
 18 19  1  0  0  0  0
 19 14  1  0  0  0  0
 20 10  1  0  0  0  0
 21 12  1  0  0  0  0
M  END
>  <CHROM.1>
-12.72744613,-83.47976764,-89.53388660,-8.17020271,-0.96779260,3.71856052
-0.57982061,-0.38084370,-2.67115907

>  <Name>
lig.pdb

>  <RI>
2.6678e+07

>  <Rbt.Current_Directory>
/home/itssahil/PROJECTS/Mol_Feturizer/New_Systems/rnas/2lwk

>  <Rbt.Executable>
rbdock ($Id: //depot/dev/client3/rdock/2013.1/src/exe/rbdock.cxx#4 $)

>  <Rbt.Library>
libRbt.so (2013.1, Build901 2013/11/27)

>  <Rbt.Parameter_File>
/export/apps/rDock/src/rDock_2013.1_src/data/scripts/dock_solv.prm

>  <Rbt.Receptor>
prm/pocket_docking_2.prm

>  <SCORE>
-15.7142

>  <SCORE.INTER>
-12.5514

>  <SCORE.INTER.CONST>
1

>  <SCORE.INTER.POLAR>
-1.40949

>  <SCORE.INTER.ROT>
3

>  <SCORE.INTER.SOLV>
6.34853

>  <SCORE.INTER.VDW>
-11.3854

>  <SCORE.INTER.norm>
-0.597684

>  <SCORE.INTRA>
-3.17064

>  <SCORE.INTRA.DIHEDRAL>
0.553997

>  <SCORE.INTRA.DIHEDRAL.0>
8.84257

>  <SCORE.INTRA.POLAR>
0

>  <SCORE.INTRA.POLAR.0>
0

>  <SCORE.INTRA.REPUL>
0

>  <SCORE.INTRA.REPUL.0>
0

>  <SCORE.INTRA.SOLV>
-0.0582018

>  <SCORE.INTRA.SOLV.lig_0>
-17.1313

>  <SCORE.INTRA.VDW>
-3.41854

>  <SCORE.INTRA.VDW.0>
6.34071

>  <SCORE.INTRA.norm>
-0.150983

>  <SCORE.RESTR>
0.00783074

>  <SCORE.RESTR.CAVITY>
0.00783074

>  <SCORE.RESTR.norm>
0.000372893

>  <SCORE.SYSTEM>
0

>  <SCORE.SYSTEM.CONST>
0

>  <SCORE.SYSTEM.DIHEDRAL>
0

>  <SCORE.SYSTEM.SOLV>
0

>  <SCORE.SYSTEM.norm>
0

>  <SCORE.heavy>
21

>  <SCORE.norm>
-0.748294

>  <RMSD>
0.982

$$$$
lig.pdb
 OpenBabel11021811453D
libRbt.so/2013.1/901 2013/11/27
 21 23  0  0  0  0  0  0  0  0999 V2000
   -6.4026   -0.3251    3.9723 C   0  0  0  0  0  0  0  0  0  0  0  0
   -7.5966   -0.3272    4.5540 N   0  0  0  0  0  0  0  0  0  0  0  0
   -8.5230   -1.1810    4.1569 C   0  0  0  0  0  0  0  0  0  0  0  0
   -8.2783   -2.0017    3.1155 C   0  0  0  0  0  0  0  0  0  0  0  0
   -7.0715   -1.9993    2.5336 C   0  0  0  0  0  0  0  0  0  0  0  0
   -6.8224   -2.8033    1.5006 N   0  0  0  0  0  0  0  0  0  0  0  0
   -6.1379   -1.1570    2.9640 N   0  0  0  0  0  0  0  0  0  0  0  0
   -9.7203   -1.1927    4.7661 C   0  0  0  0  0  0  0  0  0  0  0  0
  -10.7296   -1.9496    4.2362 C   0  0  0  0  0  0  0  0  0  0  0  0
  -12.0341   -1.4005    4.2372 O   0  0  0  0  0  0  0  0  0  0  0  0
  -10.4142   -2.8926    3.3331 C   0  0  0  0  0  0  0  0  0  0  0  0
  -11.3021   -3.9789    3.1103 O   0  0  0  0  0  0  0  0  0  0  0  0
   -9.2262   -2.8528    2.6986 C   0  0  0  0  0  0  0  0  0  0  0  0
   -5.4776    0.5224    4.3887 N   0  0  0  0  0  0  0  0  0  0  0  0
   -5.9071    1.5707    5.0978 C   0  0  0  0  0  0  0  0  0  0  0  0
   -6.4705    2.6343    4.1675 C   0  0  0  0  0  0  0  0  0  0  0  0
   -5.4835    3.0657    3.3056 N   0  0  0  0  0  0  0  0  0  0  0  0
   -5.0891    1.9760    2.5604 C   0  0  0  0  0  0  0  0  0  0  0  0
   -4.5214    0.9136    3.4867 C   0  0  0  0  0  0  0  0  0  0  0  0
  -12.6036   -1.6318    5.5003 C   0  0  0  0  0  0  0  0  0  0  0  0
  -11.0166   -4.9919    4.0391 C   0  0  0  0  0  0  0  0  0  0  0  0
  1 14  1  0  0  0  0
  1  2  2  0  0  0  0
  3  2  1  0  0  0  0
  3  8  2  0  0  0  0
  4  3  1  0  0  0  0
  5  7  2  0  0  0  0
  5  4  1  0  0  0  0
  6  5  1  0  0  0  0
  7  1  1  0  0  0  0
  9 10  1  0  0  0  0
  9  8  1  0  0  0  0
 11  9  2  0  0  0  0
 12 11  1  0  0  0  0
 13  4  2  0  0  0  0
 13 11  1  0  0  0  0
 14 15  1  0  0  0  0
 16 15  1  0  0  0  0
 17 16  1  0  0  0  0
 18 17  1  0  0  0  0
 18 19  1  0  0  0  0
 19 14  1  0  0  0  0
 20 10  1  0  0  0  0
 21 12  1  0  0  0  0
M  END
>  <CHROM.1>
-18.52630634,-83.00608557,-86.54676646,-8.16004373,-0.95203861,3.69596406
-0.56616029,-0.39001947,-2.66677397

>  <Name>
lig.pdb

>  <RI>
2.6678e+07

>  <Rbt.Current_Directory>
/home/itssahil/PROJECTS/Mol_Feturizer/New_Systems/rnas/2lwk

>  <Rbt.Executable>
rbdock ($Id: //depot/dev/client3/rdock/2013.1/src/exe/rbdock.cxx#4 $)

>  <Rbt.Library>
libRbt.so (2013.1, Build901 2013/11/27)

>  <Rbt.Parameter_File>
/export/apps/rDock/src/rDock_2013.1_src/data/scripts/dock_solv.prm

>  <Rbt.Receptor>
prm/pocket_docking_2.prm

>  <SCORE>
-15.7278

>  <SCORE.INTER>
-12.5381

>  <SCORE.INTER.CONST>
1

>  <SCORE.INTER.POLAR>
-1.40306

>  <SCORE.INTER.ROT>
3

>  <SCORE.INTER.SOLV>
6.36066

>  <SCORE.INTER.VDW>
-11.4021

>  <SCORE.INTER.norm>
-0.597053

>  <SCORE.INTRA>
-3.1935

>  <SCORE.INTRA.DIHEDRAL>
0.530802

>  <SCORE.INTRA.DIHEDRAL.0>
8.84257

>  <SCORE.INTRA.POLAR>
0

>  <SCORE.INTRA.POLAR.0>
0

>  <SCORE.INTRA.REPUL>
0

>  <SCORE.INTRA.REPUL.0>
0

>  <SCORE.INTRA.SOLV>
-0.0578966

>  <SCORE.INTRA.SOLV.lig_0>
-17.1313

>  <SCORE.INTRA.VDW>
-3.42996

>  <SCORE.INTRA.VDW.0>
6.34071

>  <SCORE.INTRA.norm>
-0.152072

>  <SCORE.RESTR>
0.00381804

>  <SCORE.RESTR.CAVITY>
0.00381804

>  <SCORE.RESTR.norm>
0.000181811

>  <SCORE.SYSTEM>
0

>  <SCORE.SYSTEM.CONST>
0

>  <SCORE.SYSTEM.DIHEDRAL>
0

>  <SCORE.SYSTEM.SOLV>
0

>  <SCORE.SYSTEM.norm>
0

>  <SCORE.heavy>
21

>  <SCORE.norm>
-0.748942

>  <RMSD>
0.983

$$$$
lig.pdb
 OpenBabel11021811453D
libRbt.so/2013.1/901 2013/11/27
 21 23  0  0  0  0  0  0  0  0999 V2000
   -6.3920   -0.3476    4.0442 C   0  0  0  0  0  0  0  0  0  0  0  0
   -7.5894   -0.3632    4.6189 N   0  0  0  0  0  0  0  0  0  0  0  0
   -8.5136   -1.2069    4.1962 C   0  0  0  0  0  0  0  0  0  0  0  0
   -8.2630   -2.0027    3.1369 C   0  0  0  0  0  0  0  0  0  0  0  0
   -7.0529   -1.9867    2.5622 C   0  0  0  0  0  0  0  0  0  0  0  0
   -6.7981   -2.7659    1.5117 N   0  0  0  0  0  0  0  0  0  0  0  0
   -6.1217   -1.1553    3.0179 N   0  0  0  0  0  0  0  0  0  0  0  0
   -9.7144   -1.2328    4.7981 C   0  0  0  0  0  0  0  0  0  0  0  0
  -10.7207   -1.9765    4.2445 C   0  0  0  0  0  0  0  0  0  0  0  0
  -12.0251   -1.4273    4.2512 O   0  0  0  0  0  0  0  0  0  0  0  0
  -10.4004   -2.8978    3.3210 C   0  0  0  0  0  0  0  0  0  0  0  0
  -11.2871   -3.9783    3.0673 O   0  0  0  0  0  0  0  0  0  0  0  0
   -9.2087   -2.8433    2.6944 C   0  0  0  0  0  0  0  0  0  0  0  0
   -5.4693    0.4895    4.4860 N   0  0  0  0  0  0  0  0  0  0  0  0
   -5.9051    1.5350    5.1954 C   0  0  0  0  0  0  0  0  0  0  0  0
   -6.4422    2.6105    4.2634 C   0  0  0  0  0  0  0  0  0  0  0  0
   -5.4353    3.0419    3.4249 N   0  0  0  0  0  0  0  0  0  0  0  0
   -5.0342    1.9556    2.6782 C   0  0  0  0  0  0  0  0  0  0  0  0
   -4.4926    0.8811    3.6064 C   0  0  0  0  0  0  0  0  0  0  0  0
  -12.6047   -1.6952    5.5024 C   0  0  0  0  0  0  0  0  0  0  0  0
  -11.1071   -4.9521    4.0621 C   0  0  0  0  0  0  0  0  0  0  0  0
  1 14  1  0  0  0  0
  1  2  2  0  0  0  0
  3  2  1  0  0  0  0
  3  8  2  0  0  0  0
  4  3  1  0  0  0  0
  5  7  2  0  0  0  0
  5  4  1  0  0  0  0
  6  5  1  0  0  0  0
  7  1  1  0  0  0  0
  9 10  1  0  0  0  0
  9  8  1  0  0  0  0
 11  9  2  0  0  0  0
 12 11  1  0  0  0  0
 13  4  2  0  0  0  0
 13 11  1  0  0  0  0
 14 15  1  0  0  0  0
 16 15  1  0  0  0  0
 17 16  1  0  0  0  0
 18 17  1  0  0  0  0
 18 19  1  0  0  0  0
 19 14  1  0  0  0  0
 20 10  1  0  0  0  0
 21 12  1  0  0  0  0
M  END
>  <CHROM.1>
-19.78516910,-83.34332275,-80.20529959,-8.14831991,-0.96677380,3.74162413
-0.55948642,-0.38757481,-2.64177629

>  <Name>
lig.pdb

>  <RI>
2.6678e+07

>  <Rbt.Current_Directory>
/home/itssahil/PROJECTS/Mol_Feturizer/New_Systems/rnas/2lwk

>  <Rbt.Executable>
rbdock ($Id: //depot/dev/client3/rdock/2013.1/src/exe/rbdock.cxx#4 $)

>  <Rbt.Library>
libRbt.so (2013.1, Build901 2013/11/27)

>  <Rbt.Parameter_File>
/export/apps/rDock/src/rDock_2013.1_src/data/scripts/dock_solv.prm

>  <Rbt.Receptor>
prm/pocket_docking_2.prm

>  <SCORE>
-15.6468

>  <SCORE.INTER>
-12.4027

>  <SCORE.INTER.CONST>
1

>  <SCORE.INTER.POLAR>
-1.33926

>  <SCORE.INTER.ROT>
3

>  <SCORE.INTER.SOLV>
6.2303

>  <SCORE.INTER.VDW>
-11.481

>  <SCORE.INTER.norm>
-0.590606

>  <SCORE.INTRA>
-3.25097

>  <SCORE.INTRA.DIHEDRAL>
0.460956

>  <SCORE.INTRA.DIHEDRAL.0>
8.84257

>  <SCORE.INTRA.POLAR>
0

>  <SCORE.INTRA.POLAR.0>
0

>  <SCORE.INTRA.REPUL>
0

>  <SCORE.INTRA.REPUL.0>
0

>  <SCORE.INTRA.SOLV>
-0.0535417

>  <SCORE.INTRA.SOLV.lig_0>
-17.1313

>  <SCORE.INTRA.VDW>
-3.45468

>  <SCORE.INTRA.VDW.0>
6.34071

>  <SCORE.INTRA.norm>
-0.154808

>  <SCORE.RESTR>
0.00691355

>  <SCORE.RESTR.CAVITY>
0.00691355

>  <SCORE.RESTR.norm>
0.000329217

>  <SCORE.SYSTEM>
0

>  <SCORE.SYSTEM.CONST>
0

>  <SCORE.SYSTEM.DIHEDRAL>
0

>  <SCORE.SYSTEM.SOLV>
0

>  <SCORE.SYSTEM.norm>
0

>  <SCORE.heavy>
21

>  <SCORE.norm>
-0.745085

>  <RMSD>
0.988

$$$$
lig.pdb
 OpenBabel11021811453D
libRbt.so/2013.1/901 2013/11/27
 21 23  0  0  0  0  0  0  0  0999 V2000
   -6.6318   -0.2778    4.1026 C   0  0  0  0  0  0  0  0  0  0  0  0
   -7.8302   -0.2822    4.6755 N   0  0  0  0  0  0  0  0  0  0  0  0
   -8.7380   -1.1655    4.3005 C   0  0  0  0  0  0  0  0  0  0  0  0
   -8.4704   -2.0159    3.2888 C   0  0  0  0  0  0  0  0  0  0  0  0
   -7.2594   -2.0109    2.7159 C   0  0  0  0  0  0  0  0  0  0  0  0
   -6.9879   -2.8442    1.7122 N   0  0  0  0  0  0  0  0  0  0  0  0
   -6.3444   -1.1379    3.1246 N   0  0  0  0  0  0  0  0  0  0  0  0
   -9.9396   -1.1787    4.9011 C   0  0  0  0  0  0  0  0  0  0  0  0
  -10.9309   -1.9710    4.3895 C   0  0  0  0  0  0  0  0  0  0  0  0
  -12.2450   -1.4461    4.3628 O   0  0  0  0  0  0  0  0  0  0  0  0
  -10.5917   -2.9377    3.5208 C   0  0  0  0  0  0  0  0  0  0  0  0
  -11.4581   -4.0469    3.3280 O   0  0  0  0  0  0  0  0  0  0  0  0
   -9.3996   -2.8975    2.8939 C   0  0  0  0  0  0  0  0  0  0  0  0
   -5.7255    0.5998    4.4970 N   0  0  0  0  0  0  0  0  0  0  0  0
   -6.1885    1.7317    5.0362 C   0  0  0  0  0  0  0  0  0  0  0  0
   -6.6418    2.6843    3.9403 C   0  0  0  0  0  0  0  0  0  0  0  0
   -5.5730    2.9949    3.1253 N   0  0  0  0  0  0  0  0  0  0  0  0
   -5.1429    1.8181    2.5521 C   0  0  0  0  0  0  0  0  0  0  0  0
   -4.6849    0.8660    3.6443 C   0  0  0  0  0  0  0  0  0  0  0  0
  -12.8952   -1.8376    5.5448 C   0  0  0  0  0  0  0  0  0  0  0  0
  -11.0421   -5.0943    4.1647 C   0  0  0  0  0  0  0  0  0  0  0  0
  1 14  1  0  0  0  0
  1  2  2  0  0  0  0
  3  2  1  0  0  0  0
  3  8  2  0  0  0  0
  4  3  1  0  0  0  0
  5  7  2  0  0  0  0
  5  4  1  0  0  0  0
  6  5  1  0  0  0  0
  7  1  1  0  0  0  0
  9 10  1  0  0  0  0
  9  8  1  0  0  0  0
 11  9  2  0  0  0  0
 12 11  1  0  0  0  0
 13  4  2  0  0  0  0
 13 11  1  0  0  0  0
 14 15  1  0  0  0  0
 16 15  1  0  0  0  0
 17 16  1  0  0  0  0
 18 17  1  0  0  0  0
 18 19  1  0  0  0  0
 19 14  1  0  0  0  0
 20 10  1  0  0  0  0
 21 12  1  0  0  0  0
M  END
>  <CHROM.1>
-25.63686579,-92.57132978,-94.69375319,-8.34400049,-0.97572203,3.79345851
-0.57417419,-0.38840922,-2.71653743

>  <Name>
lig.pdb

>  <RI>
3.31914e+07

>  <Rbt.Current_Directory>
/home/itssahil/PROJECTS/Mol_Feturizer/New_Systems/rnas/2lwk

>  <Rbt.Executable>
rbdock ($Id: //depot/dev/client3/rdock/2013.1/src/exe/rbdock.cxx#4 $)

>  <Rbt.Library>
libRbt.so (2013.1, Build901 2013/11/27)

>  <Rbt.Parameter_File>
/export/apps/rDock/src/rDock_2013.1_src/data/scripts/dock_solv.prm

>  <Rbt.Receptor>
prm/pocket_docking_3.prm

>  <SCORE>
-16.1787

>  <SCORE.INTER>
-12.8514

>  <SCORE.INTER.CONST>
1

>  <SCORE.INTER.POLAR>
-1.38017

>  <SCORE.INTER.ROT>
3

>  <SCORE.INTER.SOLV>
6.45025

>  <SCORE.INTER.VDW>
-11.7171

>  <SCORE.INTER.norm>
-0.611974

>  <SCORE.INTRA>
-3.32725

>  <SCORE.INTRA.DIHEDRAL>
0.819974

>  <SCORE.INTRA.DIHEDRAL.0>
8.84257

>  <SCORE.INTRA.POLAR>
0

>  <SCORE.INTRA.POLAR.0>
0

>  <SCORE.INTRA.REPUL>
0

>  <SCORE.INTRA.REPUL.0>
0

>  <SCORE.INTRA.SOLV>
-0.0542689

>  <SCORE.INTRA.SOLV.lig_0>
-17.1313

>  <SCORE.INTRA.VDW>
-3.7101

>  <SCORE.INTRA.VDW.0>
6.34071

>  <SCORE.INTRA.norm>
-0.15844

>  <SCORE.RESTR>
0

>  <SCORE.RESTR.CAVITY>
0

>  <SCORE.RESTR.norm>
0

>  <SCORE.SYSTEM>
0

>  <SCORE.SYSTEM.CONST>
0

>  <SCORE.SYSTEM.DIHEDRAL>
0

>  <SCORE.SYSTEM.SOLV>
0

>  <SCORE.SYSTEM.norm>
0

>  <SCORE.heavy>
21

>  <SCORE.norm>
-0.770414

>  <RMSD>
1.064

$$$$
lig.pdb
 OpenBabel11021811453D
libRbt.so/2013.1/901 2013/11/27
 21 23  0  0  0  0  0  0  0  0999 V2000
   -6.5978   -0.4848    4.3972 C   0  0  0  0  0  0  0  0  0  0  0  0
   -7.8067   -0.6018    4.9349 N   0  0  0  0  0  0  0  0  0  0  0  0
   -8.6915   -1.4227    4.3980 C   0  0  0  0  0  0  0  0  0  0  0  0
   -8.3895   -2.0882    3.2648 C   0  0  0  0  0  0  0  0  0  0  0  0
   -7.1680   -1.9704    2.7275 C   0  0  0  0  0  0  0  0  0  0  0  0
   -6.8626   -2.6203    1.6050 N   0  0  0  0  0  0  0  0  0  0  0  0
   -6.2765   -1.1652    3.2960 N   0  0  0  0  0  0  0  0  0  0  0  0
   -9.9040   -1.5530    4.9615 C   0  0  0  0  0  0  0  0  0  0  0  0
  -10.8712   -2.2626    4.3033 C   0  0  0  0  0  0  0  0  0  0  0  0
  -12.1936   -1.7591    4.3357 O   0  0  0  0  0  0  0  0  0  0  0  0
  -10.4984   -3.0656    3.2931 C   0  0  0  0  0  0  0  0  0  0  0  0
  -11.3414   -4.1391    2.8992 O   0  0  0  0  0  0  0  0  0  0  0  0
   -9.2954   -2.9044    2.7080 C   0  0  0  0  0  0  0  0  0  0  0  0
   -5.7148    0.3272    4.9523 N   0  0  0  0  0  0  0  0  0  0  0  0
   -6.1607    1.5347    5.3119 C   0  0  0  0  0  0  0  0  0  0  0  0
   -6.2410    2.4448    4.0956 C   0  0  0  0  0  0  0  0  0  0  0  0
   -4.9856    2.5905    3.5425 N   0  0  0  0  0  0  0  0  0  0  0  0
   -4.5687    1.3391    3.1442 C   0  0  0  0  0  0  0  0  0  0  0  0
   -4.4830    0.4289    4.3580 C   0  0  0  0  0  0  0  0  0  0  0  0
  -12.7349   -2.0365    5.6019 C   0  0  0  0  0  0  0  0  0  0  0  0
  -11.2082   -5.1815    3.8297 C   0  0  0  0  0  0  0  0  0  0  0  0
  1 14  1  0  0  0  0
  1  2  2  0  0  0  0
  3  2  1  0  0  0  0
  3  8  2  0  0  0  0
  4  3  1  0  0  0  0
  5  7  2  0  0  0  0
  5  4  1  0  0  0  0
  6  5  1  0  0  0  0
  7  1  1  0  0  0  0
  9 10  1  0  0  0  0
  9  8  1  0  0  0  0
 11  9  2  0  0  0  0
 12 11  1  0  0  0  0
 13  4  2  0  0  0  0
 13 11  1  0  0  0  0
 14 15  1  0  0  0  0
 16 15  1  0  0  0  0
 17 16  1  0  0  0  0
 18 17  1  0  0  0  0
 18 19  1  0  0  0  0
 19 14  1  0  0  0  0
 20 10  1  0  0  0  0
 21 12  1  0  0  0  0
M  END
>  <CHROM.1>
-44.90928274,-76.03412039,-76.83500965,-8.21112636,-1.17200944,3.89382550
0.52051425,0.38692585,0.59965580

>  <Name>
lig.pdb

>  <RI>
2.6678e+07

>  <Rbt.Current_Directory>
/home/itssahil/PROJECTS/Mol_Feturizer/New_Systems/rnas/2lwk

>  <Rbt.Executable>
rbdock ($Id: //depot/dev/client3/rdock/2013.1/src/exe/rbdock.cxx#4 $)

>  <Rbt.Library>
libRbt.so (2013.1, Build901 2013/11/27)

>  <Rbt.Parameter_File>
/export/apps/rDock/src/rDock_2013.1_src/data/scripts/dock_solv.prm

>  <Rbt.Receptor>
prm/pocket_docking_2.prm

>  <SCORE>
-14.6573

>  <SCORE.INTER>
-11.386

>  <SCORE.INTER.CONST>
1

>  <SCORE.INTER.POLAR>
-1.23428

>  <SCORE.INTER.ROT>
3

>  <SCORE.INTER.SOLV>
5.94798

>  <SCORE.INTER.VDW>
-11.0591

>  <SCORE.INTER.norm>
-0.54219

>  <SCORE.INTRA>
-3.50616

>  <SCORE.INTRA.DIHEDRAL>
-0.0181963

>  <SCORE.INTRA.DIHEDRAL.0>
8.84257

>  <SCORE.INTRA.POLAR>
0

>  <SCORE.INTRA.POLAR.0>
0

>  <SCORE.INTRA.REPUL>
0

>  <SCORE.INTRA.REPUL.0>
0

>  <SCORE.INTRA.SOLV>
-0.0249476

>  <SCORE.INTRA.SOLV.lig_0>
-17.1313

>  <SCORE.INTRA.VDW>
-3.48459

>  <SCORE.INTRA.VDW.0>
6.34071

>  <SCORE.INTRA.norm>
-0.16696

>  <SCORE.RESTR>
0.234828

>  <SCORE.RESTR.CAVITY>
0.234828

>  <SCORE.RESTR.norm>
0.0111823

>  <SCORE.SYSTEM>
0

>  <SCORE.SYSTEM.CONST>
0

>  <SCORE.SYSTEM.DIHEDRAL>
0

>  <SCORE.SYSTEM.SOLV>
0

>  <SCORE.SYSTEM.norm>
0

>  <SCORE.heavy>
21

>  <SCORE.norm>
-0.697967

>  <RMSD>
1.192

$$$$
lig.pdb
 OpenBabel11021811453D
libRbt.so/2013.1/901 2013/11/27
 21 23  0  0  0  0  0  0  0  0999 V2000
   -6.2975    0.2810    3.8172 C   0  0  0  0  0  0  0  0  0  0  0  0
   -7.5287    0.2831    4.3157 N   0  0  0  0  0  0  0  0  0  0  0  0
   -8.3270   -0.7485    4.1077 C   0  0  0  0  0  0  0  0  0  0  0  0
   -7.9149   -1.7712    3.3314 C   0  0  0  0  0  0  0  0  0  0  0  0
   -6.6712   -1.7714    2.8334 C   0  0  0  0  0  0  0  0  0  0  0  0
   -6.2573   -2.7754    2.0611 N   0  0  0  0  0  0  0  0  0  0  0  0
   -5.8673   -0.7416    3.0770 N   0  0  0  0  0  0  0  0  0  0  0  0
   -9.5626   -0.7491    4.6349 C   0  0  0  0  0  0  0  0  0  0  0  0
  -10.4421   -1.7314    4.2691 C   0  0  0  0  0  0  0  0  0  0  0  0
  -11.7917   -1.3611    4.0581 O   0  0  0  0  0  0  0  0  0  0  0  0
   -9.9589   -2.8278    3.6620 C   0  0  0  0  0  0  0  0  0  0  0  0
  -10.7094   -4.0337    3.6847 O   0  0  0  0  0  0  0  0  0  0  0  0
   -8.7333   -2.8078    3.1025 C   0  0  0  0  0  0  0  0  0  0  0  0
   -5.5016    1.3114    4.0455 N   0  0  0  0  0  0  0  0  0  0  0  0
   -5.1677    1.5344    5.3202 C   0  0  0  0  0  0  0  0  0  0  0  0
   -6.3034    2.2453    6.0403 C   0  0  0  0  0  0  0  0  0  0  0  0
   -6.5473    3.4605    5.4346 N   0  0  0  0  0  0  0  0  0  0  0  0
   -6.9284    3.1988    4.1366 C   0  0  0  0  0  0  0  0  0  0  0  0
   -5.7938    2.4927    3.4131 C   0  0  0  0  0  0  0  0  0  0  0  0
  -12.5178   -1.6795    5.2176 C   0  0  0  0  0  0  0  0  0  0  0  0
  -10.1266   -4.9097    4.6139 C   0  0  0  0  0  0  0  0  0  0  0  0
  1 14  1  0  0  0  0
  1  2  2  0  0  0  0
  3  2  1  0  0  0  0
  3  8  2  0  0  0  0
  4  3  1  0  0  0  0
  5  7  2  0  0  0  0
  5  4  1  0  0  0  0
  6  5  1  0  0  0  0
  7  1  1  0  0  0  0
  9 10  1  0  0  0  0
  9  8  1  0  0  0  0
 11  9  2  0  0  0  0
 12 11  1  0  0  0  0
 13  4  2  0  0  0  0
 13 11  1  0  0  0  0
 14 15  1  0  0  0  0
 16 15  1  0  0  0  0
 17 16  1  0  0  0  0
 18 17  1  0  0  0  0
 18 19  1  0  0  0  0
 19 14  1  0  0  0  0
 20 10  1  0  0  0  0
 21 12  1  0  0  0  0
M  END
>  <CHROM.1>
63.67452575,-98.88617709,-104.09996543,-8.07424514,-0.63015782,4.06651866
-0.79695451,-0.31918336,-2.74834989

>  <Name>
lig.pdb

>  <RI>
2.6678e+07

>  <Rbt.Current_Directory>
/home/itssahil/PROJECTS/Mol_Feturizer/New_Systems/rnas/2lwk

>  <Rbt.Executable>
rbdock ($Id: //depot/dev/client3/rdock/2013.1/src/exe/rbdock.cxx#4 $)

>  <Rbt.Library>
libRbt.so (2013.1, Build901 2013/11/27)

>  <Rbt.Parameter_File>
/export/apps/rDock/src/rDock_2013.1_src/data/scripts/dock_solv.prm

>  <Rbt.Receptor>
prm/pocket_docking_2.prm

>  <SCORE>
-18.5186

>  <SCORE.INTER>
-13.4357

>  <SCORE.INTER.CONST>
1

>  <SCORE.INTER.POLAR>
-2.05261

>  <SCORE.INTER.ROT>
3

>  <SCORE.INTER.SOLV>
6.97596

>  <SCORE.INTER.VDW>
-10.0404

>  <SCORE.INTER.norm>
-0.639794

>  <SCORE.INTRA>
-5.08289

>  <SCORE.INTRA.DIHEDRAL>
0.637449

>  <SCORE.INTRA.DIHEDRAL.0>
8.84257

>  <SCORE.INTRA.POLAR>
0

>  <SCORE.INTRA.POLAR.0>
0

>  <SCORE.INTRA.REPUL>
0

>  <SCORE.INTRA.REPUL.0>
0

>  <SCORE.INTRA.SOLV>
0.0876871

>  <SCORE.INTRA.SOLV.lig_0>
-17.1313

>  <SCORE.INTRA.VDW>
-5.44546

>  <SCORE.INTRA.VDW.0>
6.34071

>  <SCORE.INTRA.norm>
-0.242042

>  <SCORE.RESTR>
0

>  <SCORE.RESTR.CAVITY>
0

>  <SCORE.RESTR.norm>
0

>  <SCORE.SYSTEM>
0

>  <SCORE.SYSTEM.CONST>
0

>  <SCORE.SYSTEM.DIHEDRAL>
0

>  <SCORE.SYSTEM.SOLV>
0

>  <SCORE.SYSTEM.norm>
0

>  <SCORE.heavy>
21

>  <SCORE.norm>
-0.881836

>  <RMSD>
1.229

$$$$
lig.pdb
 OpenBabel11021811453D
libRbt.so/2013.1/901 2013/11/27
 21 23  0  0  0  0  0  0  0  0999 V2000
   -6.3495    0.2738    3.7902 C   0  0  0  0  0  0  0  0  0  0  0  0
   -7.5749    0.2788    4.3029 N   0  0  0  0  0  0  0  0  0  0  0  0
   -8.3802   -0.7482    4.0986 C   0  0  0  0  0  0  0  0  0  0  0  0
   -7.9816   -1.7685    3.3123 C   0  0  0  0  0  0  0  0  0  0  0  0
   -6.7437   -1.7717    2.8000 C   0  0  0  0  0  0  0  0  0  0  0  0
   -6.3433   -2.7734    2.0178 N   0  0  0  0  0  0  0  0  0  0  0  0
   -5.9324   -0.7467    3.0397 N   0  0  0  0  0  0  0  0  0  0  0  0
   -9.6096   -0.7460    4.6400 C   0  0  0  0  0  0  0  0  0  0  0  0
  -10.4977   -1.7224    4.2792 C   0  0  0  0  0  0  0  0  0  0  0  0
  -11.8480   -1.3449    4.0857 O   0  0  0  0  0  0  0  0  0  0  0  0
  -10.0264   -2.8177    3.6608 C   0  0  0  0  0  0  0  0  0  0  0  0
  -10.7821   -4.0204    3.6859 O   0  0  0  0  0  0  0  0  0  0  0  0
   -8.8072   -2.8003    3.0874 C   0  0  0  0  0  0  0  0  0  0  0  0
   -5.5464    1.2994    4.0147 N   0  0  0  0  0  0  0  0  0  0  0  0
   -5.1963    1.5138    5.2866 C   0  0  0  0  0  0  0  0  0  0  0  0
   -6.3203    2.2257    6.0240 C   0  0  0  0  0  0  0  0  0  0  0  0
   -6.5660    3.4453    5.4279 N   0  0  0  0  0  0  0  0  0  0  0  0
   -6.9636    3.1926    4.1331 C   0  0  0  0  0  0  0  0  0  0  0  0
   -5.8408    2.4855    3.3924 C   0  0  0  0  0  0  0  0  0  0  0  0
  -12.5587   -1.6509    5.2580 C   0  0  0  0  0  0  0  0  0  0  0  0
  -10.1955   -4.9019    4.6074 C   0  0  0  0  0  0  0  0  0  0  0  0
  1 14  1  0  0  0  0
  1  2  2  0  0  0  0
  3  2  1  0  0  0  0
  3  8  2  0  0  0  0
  4  3  1  0  0  0  0
  5  7  2  0  0  0  0
  5  4  1  0  0  0  0
  6  5  1  0  0  0  0
  7  1  1  0  0  0  0
  9 10  1  0  0  0  0
  9  8  1  0  0  0  0
 11  9  2  0  0  0  0
 12 11  1  0  0  0  0
 13  4  2  0  0  0  0
 13 11  1  0  0  0  0
 14 15  1  0  0  0  0
 16 15  1  0  0  0  0
 17 16  1  0  0  0  0
 18 17  1  0  0  0  0
 18 19  1  0  0  0  0
 19 14  1  0  0  0  0
 20 10  1  0  0  0  0
 21 12  1  0  0  0  0
M  END
>  <CHROM.1>
63.70094347,-98.16083093,-103.88327340,-8.12726585,-0.62988046,4.05581443
-0.78770614,-0.32821563,-2.74000229

>  <Name>
lig.pdb

>  <RI>
2.6678e+07

>  <Rbt.Current_Directory>
/home/itssahil/PROJECTS/Mol_Feturizer/New_Systems/rnas/2lwk

>  <Rbt.Executable>
rbdock ($Id: //depot/dev/client3/rdock/2013.1/src/exe/rbdock.cxx#4 $)

>  <Rbt.Library>
libRbt.so (2013.1, Build901 2013/11/27)

>  <Rbt.Parameter_File>
/export/apps/rDock/src/rDock_2013.1_src/data/scripts/dock_solv.prm

>  <Rbt.Receptor>
prm/pocket_docking_2.prm

>  <SCORE>
-18.5676

>  <SCORE.INTER>
-13.4807

>  <SCORE.INTER.CONST>
1

>  <SCORE.INTER.POLAR>
-2.09934

>  <SCORE.INTER.ROT>
3

>  <SCORE.INTER.SOLV>
7.18853

>  <SCORE.INTER.VDW>
-9.9855

>  <SCORE.INTER.norm>
-0.641937

>  <SCORE.INTRA>
-5.08693

>  <SCORE.INTRA.DIHEDRAL>
0.639902

>  <SCORE.INTRA.DIHEDRAL.0>
8.84257

>  <SCORE.INTRA.POLAR>
0

>  <SCORE.INTRA.POLAR.0>
0

>  <SCORE.INTRA.REPUL>
0

>  <SCORE.INTRA.REPUL.0>
0

>  <SCORE.INTRA.SOLV>
0.0870771

>  <SCORE.INTRA.SOLV.lig_0>
-17.1313

>  <SCORE.INTRA.VDW>
-5.45042

>  <SCORE.INTRA.VDW.0>
6.34071

>  <SCORE.INTRA.norm>
-0.242235

>  <SCORE.RESTR>
0

>  <SCORE.RESTR.CAVITY>
0

>  <SCORE.RESTR.norm>
0

>  <SCORE.SYSTEM>
0

>  <SCORE.SYSTEM.CONST>
0

>  <SCORE.SYSTEM.DIHEDRAL>
0

>  <SCORE.SYSTEM.SOLV>
0

>  <SCORE.SYSTEM.norm>
0

>  <SCORE.heavy>
21

>  <SCORE.norm>
-0.884171

>  <RMSD>
1.237

$$$$
lig.pdb
 OpenBabel11021811453D
libRbt.so/2013.1/901 2013/11/27
 21 23  0  0  0  0  0  0  0  0999 V2000
   -6.3402    0.2813    3.7905 C   0  0  0  0  0  0  0  0  0  0  0  0
   -7.5682    0.2910    4.2968 N   0  0  0  0  0  0  0  0  0  0  0  0
   -8.3726   -0.7376    4.0975 C   0  0  0  0  0  0  0  0  0  0  0  0
   -7.9703   -1.7649    3.3223 C   0  0  0  0  0  0  0  0  0  0  0  0
   -6.7298   -1.7728    2.8164 C   0  0  0  0  0  0  0  0  0  0  0  0
   -6.3255   -2.7814    2.0451 N   0  0  0  0  0  0  0  0  0  0  0  0
   -5.9195   -0.7459    3.0512 N   0  0  0  0  0  0  0  0  0  0  0  0
   -9.6049   -0.7305    4.6326 C   0  0  0  0  0  0  0  0  0  0  0  0
  -10.4912   -1.7100    4.2759 C   0  0  0  0  0  0  0  0  0  0  0  0
  -11.8404   -1.3340    4.0720 O   0  0  0  0  0  0  0  0  0  0  0  0
  -10.0170   -2.8107    3.6696 C   0  0  0  0  0  0  0  0  0  0  0  0
  -10.7730   -4.0131    3.7014 O   0  0  0  0  0  0  0  0  0  0  0  0
   -8.7949   -2.7985    3.1022 C   0  0  0  0  0  0  0  0  0  0  0  0
   -5.5381    1.3087    4.0101 N   0  0  0  0  0  0  0  0  0  0  0  0
   -5.1855    1.5275    5.2805 C   0  0  0  0  0  0  0  0  0  0  0  0
   -6.3088    2.2400    6.0184 C   0  0  0  0  0  0  0  0  0  0  0  0
   -6.5575    3.4574    5.4191 N   0  0  0  0  0  0  0  0  0  0  0  0
   -6.9577    3.2002    4.1260 C   0  0  0  0  0  0  0  0  0  0  0  0
   -5.8357    2.4926    3.3848 C   0  0  0  0  0  0  0  0  0  0  0  0
  -12.5574   -1.6301    5.2431 C   0  0  0  0  0  0  0  0  0  0  0  0
  -10.1620   -4.9060    4.5957 C   0  0  0  0  0  0  0  0  0  0  0  0
  1 14  1  0  0  0  0
  1  2  2  0  0  0  0
  3  2  1  0  0  0  0
  3  8  2  0  0  0  0
  4  3  1  0  0  0  0
  5  7  2  0  0  0  0
  5  4  1  0  0  0  0
  6  5  1  0  0  0  0
  7  1  1  0  0  0  0
  9 10  1  0  0  0  0
  9  8  1  0  0  0  0
 11  9  2  0  0  0  0
 12 11  1  0  0  0  0
 13  4  2  0  0  0  0
 13 11  1  0  0  0  0
 14 15  1  0  0  0  0
 16 15  1  0  0  0  0
 17 16  1  0  0  0  0
 18 17  1  0  0  0  0
 18 19  1  0  0  0  0
 19 14  1  0  0  0  0
 20 10  1  0  0  0  0
 21 12  1  0  0  0  0
M  END
>  <CHROM.1>
64.24787073,-98.18493050,-106.11225603,-8.11695388,-0.62224203,4.05598777
-0.79101087,-0.32174659,-2.74793703

>  <Name>
lig.pdb

>  <RI>
2.6678e+07

>  <Rbt.Current_Directory>
/home/itssahil/PROJECTS/Mol_Feturizer/New_Systems/rnas/2lwk

>  <Rbt.Executable>
rbdock ($Id: //depot/dev/client3/rdock/2013.1/src/exe/rbdock.cxx#4 $)

>  <Rbt.Library>
libRbt.so (2013.1, Build901 2013/11/27)

>  <Rbt.Parameter_File>
/export/apps/rDock/src/rDock_2013.1_src/data/scripts/dock_solv.prm

>  <Rbt.Receptor>
prm/pocket_docking_2.prm

>  <SCORE>
-18.5985

>  <SCORE.INTER>
-13.5826

>  <SCORE.INTER.CONST>
1

>  <SCORE.INTER.POLAR>
-2.10711

>  <SCORE.INTER.ROT>
3

>  <SCORE.INTER.SOLV>
7.15349

>  <SCORE.INTER.VDW>
-10.0158

>  <SCORE.INTER.norm>
-0.646789

>  <SCORE.INTRA>
-5.01591

>  <SCORE.INTRA.DIHEDRAL>
0.53592

>  <SCORE.INTRA.DIHEDRAL.0>
8.84257

>  <SCORE.INTRA.POLAR>
0

>  <SCORE.INTRA.POLAR.0>
0

>  <SCORE.INTRA.REPUL>
0

>  <SCORE.INTRA.REPUL.0>
0

>  <SCORE.INTRA.SOLV>
0.0862293

>  <SCORE.INTRA.SOLV.lig_0>
-17.1313

>  <SCORE.INTRA.VDW>
-5.32698

>  <SCORE.INTRA.VDW.0>
6.34071

>  <SCORE.INTRA.norm>
-0.238853

>  <SCORE.RESTR>
0

>  <SCORE.RESTR.CAVITY>
0

>  <SCORE.RESTR.norm>
0

>  <SCORE.SYSTEM>
0

>  <SCORE.SYSTEM.CONST>
0

>  <SCORE.SYSTEM.DIHEDRAL>
0

>  <SCORE.SYSTEM.SOLV>
0

>  <SCORE.SYSTEM.norm>
0

>  <SCORE.heavy>
21

>  <SCORE.norm>
-0.885641

>  <RMSD>
1.238

$$$$
lig.pdb
 OpenBabel11021811453D
libRbt.so/2013.1/901 2013/11/27
 21 23  0  0  0  0  0  0  0  0999 V2000
   -6.2825    0.2875    3.8669 C   0  0  0  0  0  0  0  0  0  0  0  0
   -7.5185    0.2863    4.3534 N   0  0  0  0  0  0  0  0  0  0  0  0
   -8.3165   -0.7415    4.1259 C   0  0  0  0  0  0  0  0  0  0  0  0
   -7.8986   -1.7561    3.3423 C   0  0  0  0  0  0  0  0  0  0  0  0
   -6.6501   -1.7530    2.8564 C   0  0  0  0  0  0  0  0  0  0  0  0
   -6.2304   -2.7489    2.0769 N   0  0  0  0  0  0  0  0  0  0  0  0
   -5.8468   -0.7274    3.1193 N   0  0  0  0  0  0  0  0  0  0  0  0
   -9.5572   -0.7457    4.6411 C   0  0  0  0  0  0  0  0  0  0  0  0
  -10.4348   -1.7222    4.2557 C   0  0  0  0  0  0  0  0  0  0  0  0
  -11.7816   -1.3470    4.0357 O   0  0  0  0  0  0  0  0  0  0  0  0
   -9.9475   -2.8126    3.6409 C   0  0  0  0  0  0  0  0  0  0  0  0
  -10.7003   -4.0173    3.6428 O   0  0  0  0  0  0  0  0  0  0  0  0
   -8.7165   -2.7886    3.0937 C   0  0  0  0  0  0  0  0  0  0  0  0
   -5.4871    1.3138    4.1145 N   0  0  0  0  0  0  0  0  0  0  0  0
   -5.1683    1.5242    5.3952 C   0  0  0  0  0  0  0  0  0  0  0  0
   -6.3112    2.2311    6.1079 C   0  0  0  0  0  0  0  0  0  0  0  0
   -6.5448    3.4525    5.5105 N   0  0  0  0  0  0  0  0  0  0  0  0
   -6.9105    3.2038    4.2056 C   0  0  0  0  0  0  0  0  0  0  0  0
   -5.7688    2.5017    3.4896 C   0  0  0  0  0  0  0  0  0  0  0  0
  -12.5113   -1.6386    5.2000 C   0  0  0  0  0  0  0  0  0  0  0  0
  -10.1706   -4.8781    4.6169 C   0  0  0  0  0  0  0  0  0  0  0  0
  1 14  1  0  0  0  0
  1  2  2  0  0  0  0
  3  2  1  0  0  0  0
  3  8  2  0  0  0  0
  4  3  1  0  0  0  0
  5  7  2  0  0  0  0
  5  4  1  0  0  0  0
  6  5  1  0  0  0  0
  7  1  1  0  0  0  0
  9 10  1  0  0  0  0
  9  8  1  0  0  0  0
 11  9  2  0  0  0  0
 12 11  1  0  0  0  0
 13  4  2  0  0  0  0
 13 11  1  0  0  0  0
 14 15  1  0  0  0  0
 16 15  1  0  0  0  0
 17 16  1  0  0  0  0
 18 17  1  0  0  0  0
 18 19  1  0  0  0  0
 19 14  1  0  0  0  0
 20 10  1  0  0  0  0
 21 12  1  0  0  0  0
M  END
>  <CHROM.1>
63.48586166,-97.06326103,-101.07274508,-8.06524861,-0.61921868,4.09089937
-0.79668028,-0.31162758,-2.73745095

>  <Name>
lig.pdb

>  <RI>
2.6678e+07

>  <Rbt.Current_Directory>
/home/itssahil/PROJECTS/Mol_Feturizer/New_Systems/rnas/2lwk

>  <Rbt.Executable>
rbdock ($Id: //depot/dev/client3/rdock/2013.1/src/exe/rbdock.cxx#4 $)

>  <Rbt.Library>
libRbt.so (2013.1, Build901 2013/11/27)

>  <Rbt.Parameter_File>
/export/apps/rDock/src/rDock_2013.1_src/data/scripts/dock_solv.prm

>  <Rbt.Receptor>
prm/pocket_docking_2.prm

>  <SCORE>
-18.546

>  <SCORE.INTER>
-13.3834

>  <SCORE.INTER.CONST>
1

>  <SCORE.INTER.POLAR>
-2.08147

>  <SCORE.INTER.ROT>
3

>  <SCORE.INTER.SOLV>
6.99937

>  <SCORE.INTER.VDW>
-9.91713

>  <SCORE.INTER.norm>
-0.637303

>  <SCORE.INTRA>
-5.16262

>  <SCORE.INTRA.DIHEDRAL>
0.740063

>  <SCORE.INTRA.DIHEDRAL.0>
8.84257

>  <SCORE.INTRA.POLAR>
0

>  <SCORE.INTRA.POLAR.0>
0

>  <SCORE.INTRA.REPUL>
0

>  <SCORE.INTRA.REPUL.0>
0

>  <SCORE.INTRA.SOLV>
0.0872371

>  <SCORE.INTRA.SOLV.lig_0>
-17.1313

>  <SCORE.INTRA.VDW>
-5.57627

>  <SCORE.INTRA.VDW.0>
6.34071

>  <SCORE.INTRA.norm>
-0.245839

>  <SCORE.RESTR>
0

>  <SCORE.RESTR.CAVITY>
0

>  <SCORE.RESTR.norm>
0

>  <SCORE.SYSTEM>
0

>  <SCORE.SYSTEM.CONST>
0

>  <SCORE.SYSTEM.DIHEDRAL>
0

>  <SCORE.SYSTEM.SOLV>
0

>  <SCORE.SYSTEM.norm>
0

>  <SCORE.heavy>
21

>  <SCORE.norm>
-0.883142

>  <RMSD>
1.239

$$$$
lig.pdb
 OpenBabel11021811453D
libRbt.so/2013.1/901 2013/11/27
 21 23  0  0  0  0  0  0  0  0999 V2000
   -6.3480    0.2793    3.7991 C   0  0  0  0  0  0  0  0  0  0  0  0
   -7.5732    0.2875    4.3121 N   0  0  0  0  0  0  0  0  0  0  0  0
   -8.3816   -0.7369    4.1073 C   0  0  0  0  0  0  0  0  0  0  0  0
   -7.9863   -1.7579    3.3204 C   0  0  0  0  0  0  0  0  0  0  0  0
   -6.7486   -1.7645    2.8077 C   0  0  0  0  0  0  0  0  0  0  0  0
   -6.3513   -2.7668    2.0248 N   0  0  0  0  0  0  0  0  0  0  0  0
   -5.9341   -0.7421    3.0478 N   0  0  0  0  0  0  0  0  0  0  0  0
   -9.6109   -0.7314    4.6491 C   0  0  0  0  0  0  0  0  0  0  0  0
  -10.5020   -1.7049    4.2879 C   0  0  0  0  0  0  0  0  0  0  0  0
  -11.8512   -1.3233    4.0949 O   0  0  0  0  0  0  0  0  0  0  0  0
  -10.0341   -2.8012    3.6687 C   0  0  0  0  0  0  0  0  0  0  0  0
  -10.7934   -4.0017    3.6932 O   0  0  0  0  0  0  0  0  0  0  0  0
   -8.8150   -2.7871    3.0949 C   0  0  0  0  0  0  0  0  0  0  0  0
   -5.5418    1.3023    4.0240 N   0  0  0  0  0  0  0  0  0  0  0  0
   -5.1944    1.5176    5.2965 C   0  0  0  0  0  0  0  0  0  0  0  0
   -6.3178    2.2348    6.0297 C   0  0  0  0  0  0  0  0  0  0  0  0
   -6.5574    3.4543    5.4308 N   0  0  0  0  0  0  0  0  0  0  0  0
   -6.9524    3.2008    4.1354 C   0  0  0  0  0  0  0  0  0  0  0  0
   -5.8302    2.4884    3.3989 C   0  0  0  0  0  0  0  0  0  0  0  0
  -12.5649   -1.6382    5.2631 C   0  0  0  0  0  0  0  0  0  0  0  0
  -10.2044   -4.8887    4.6080 C   0  0  0  0  0  0  0  0  0  0  0  0
  1 14  1  0  0  0  0
  1  2  2  0  0  0  0
  3  2  1  0  0  0  0
  3  8  2  0  0  0  0
  4  3  1  0  0  0  0
  5  7  2  0  0  0  0
  5  4  1  0  0  0  0
  6  5  1  0  0  0  0
  7  1  1  0  0  0  0
  9 10  1  0  0  0  0
  9  8  1  0  0  0  0
 11  9  2  0  0  0  0
 12 11  1  0  0  0  0
 13  4  2  0  0  0  0
 13 11  1  0  0  0  0
 14 15  1  0  0  0  0
 16 15  1  0  0  0  0
 17 16  1  0  0  0  0
 18 17  1  0  0  0  0
 18 19  1  0  0  0  0
 19 14  1  0  0  0  0
 20 10  1  0  0  0  0
 21 12  1  0  0  0  0
M  END
>  <CHROM.1>
63.48220981,-98.64588457,-104.24117663,-8.12866759,-0.61942916,4.06284949
-0.78531864,-0.32715456,-2.73942020

>  <Name>
lig.pdb

>  <RI>
2.6678e+07

>  <Rbt.Current_Directory>
/home/itssahil/PROJECTS/Mol_Feturizer/New_Systems/rnas/2lwk

>  <Rbt.Executable>
rbdock ($Id: //depot/dev/client3/rdock/2013.1/src/exe/rbdock.cxx#4 $)

>  <Rbt.Library>
libRbt.so (2013.1, Build901 2013/11/27)

>  <Rbt.Parameter_File>
/export/apps/rDock/src/rDock_2013.1_src/data/scripts/dock_solv.prm

>  <Rbt.Receptor>
prm/pocket_docking_2.prm

>  <SCORE>
-18.5611

>  <SCORE.INTER>
-13.4867

>  <SCORE.INTER.CONST>
1

>  <SCORE.INTER.POLAR>
-2.08585

>  <SCORE.INTER.ROT>
3

>  <SCORE.INTER.SOLV>
7.18946

>  <SCORE.INTER.VDW>
-10.0348

>  <SCORE.INTER.norm>
-0.642223

>  <SCORE.INTRA>
-5.07443

>  <SCORE.INTRA.DIHEDRAL>
0.629045

>  <SCORE.INTRA.DIHEDRAL.0>
8.84257

>  <SCORE.INTRA.POLAR>
0

>  <SCORE.INTRA.POLAR.0>
0

>  <SCORE.INTRA.REPUL>
0

>  <SCORE.INTRA.REPUL.0>
0

>  <SCORE.INTRA.SOLV>
0.0873666

>  <SCORE.INTRA.SOLV.lig_0>
-17.1313

>  <SCORE.INTRA.VDW>
-5.43263

>  <SCORE.INTRA.VDW.0>
6.34071

>  <SCORE.INTRA.norm>
-0.241639

>  <SCORE.RESTR>
0

>  <SCORE.RESTR.CAVITY>
0

>  <SCORE.RESTR.norm>
0

>  <SCORE.SYSTEM>
0

>  <SCORE.SYSTEM.CONST>
0

>  <SCORE.SYSTEM.DIHEDRAL>
0

>  <SCORE.SYSTEM.SOLV>
0

>  <SCORE.SYSTEM.norm>
0

>  <SCORE.heavy>
21

>  <SCORE.norm>
-0.883862

>  <RMSD>
1.240

$$$$
lig.pdb
 OpenBabel11021811453D
libRbt.so/2013.1/901 2013/11/27
 21 23  0  0  0  0  0  0  0  0999 V2000
   -6.3408    0.2651    3.8353 C   0  0  0  0  0  0  0  0  0  0  0  0
   -7.5686    0.2705    4.3421 N   0  0  0  0  0  0  0  0  0  0  0  0
   -8.3754   -0.7534    4.1288 C   0  0  0  0  0  0  0  0  0  0  0  0
   -7.9756   -1.7707    3.3393 C   0  0  0  0  0  0  0  0  0  0  0  0
   -6.7353   -1.7744    2.8329 C   0  0  0  0  0  0  0  0  0  0  0  0
   -6.3335   -2.7730    2.0475 N   0  0  0  0  0  0  0  0  0  0  0  0
   -5.9226   -0.7526    3.0816 N   0  0  0  0  0  0  0  0  0  0  0  0
   -9.6074   -0.7510    4.6644 C   0  0  0  0  0  0  0  0  0  0  0  0
  -10.4961   -1.7234    4.2944 C   0  0  0  0  0  0  0  0  0  0  0  0
  -11.8445   -1.3416    4.0963 O   0  0  0  0  0  0  0  0  0  0  0  0
  -10.0246   -2.8167    3.6727 C   0  0  0  0  0  0  0  0  0  0  0  0
  -10.7833   -4.0176    3.6881 O   0  0  0  0  0  0  0  0  0  0  0  0
   -8.8026   -2.7993    3.1052 C   0  0  0  0  0  0  0  0  0  0  0  0
   -5.5363    1.2876    4.0688 N   0  0  0  0  0  0  0  0  0  0  0  0
   -5.2041    1.5040    5.3452 C   0  0  0  0  0  0  0  0  0  0  0  0
   -6.3356    2.2232    6.0639 C   0  0  0  0  0  0  0  0  0  0  0  0
   -6.5666    3.4422    5.4608 N   0  0  0  0  0  0  0  0  0  0  0  0
   -6.9462    3.1877    4.1610 C   0  0  0  0  0  0  0  0  0  0  0  0
   -5.8159    2.4733    3.4389 C   0  0  0  0  0  0  0  0  0  0  0  0
  -12.5630   -1.6580    5.2611 C   0  0  0  0  0  0  0  0  0  0  0  0
  -10.2073   -4.9026    4.6129 C   0  0  0  0  0  0  0  0  0  0  0  0
  1 14  1  0  0  0  0
  1  2  2  0  0  0  0
  3  2  1  0  0  0  0
  3  8  2  0  0  0  0
  4  3  1  0  0  0  0
  5  7  2  0  0  0  0
  5  4  1  0  0  0  0
  6  5  1  0  0  0  0
  7  1  1  0  0  0  0
  9 10  1  0  0  0  0
  9  8  1  0  0  0  0
 11  9  2  0  0  0  0
 12 11  1  0  0  0  0
 13  4  2  0  0  0  0
 13 11  1  0  0  0  0
 14 15  1  0  0  0  0
 16 15  1  0  0  0  0
 17 16  1  0  0  0  0
 18 17  1  0  0  0  0
 18 19  1  0  0  0  0
 19 14  1  0  0  0  0
 20 10  1  0  0  0  0
 21 12  1  0  0  0  0
M  END
>  <CHROM.1>
62.95852993,-98.45497681,-103.58359851,-8.12364935,-0.63372759,4.08391334
-0.78800007,-0.32346056,-2.73767155

>  <Name>
lig.pdb

>  <RI>
2.6678e+07

>  <Rbt.Current_Directory>
/home/itssahil/PROJECTS/Mol_Feturizer/New_Systems/rnas/2lwk

>  <Rbt.Executable>
rbdock ($Id: //depot/dev/client3/rdock/2013.1/src/exe/rbdock.cxx#4 $)

>  <Rbt.Library>
libRbt.so (2013.1, Build901 2013/11/27)

>  <Rbt.Parameter_File>
/export/apps/rDock/src/rDock_2013.1_src/data/scripts/dock_solv.prm

>  <Rbt.Receptor>
prm/pocket_docking_2.prm

>  <SCORE>
-18.5467

>  <SCORE.INTER>
-13.4592

>  <SCORE.INTER.CONST>
1

>  <SCORE.INTER.POLAR>
-2.09081

>  <SCORE.INTER.ROT>
3

>  <SCORE.INTER.SOLV>
7.12518

>  <SCORE.INTER.VDW>
-9.97847

>  <SCORE.INTER.norm>
-0.640912

>  <SCORE.INTRA>
-5.08754

>  <SCORE.INTRA.DIHEDRAL>
0.656382

>  <SCORE.INTRA.DIHEDRAL.0>
8.84257

>  <SCORE.INTRA.POLAR>
0

>  <SCORE.INTRA.POLAR.0>
0

>  <SCORE.INTRA.REPUL>
0

>  <SCORE.INTRA.REPUL.0>
0

>  <SCORE.INTRA.SOLV>
0.0873823

>  <SCORE.INTRA.SOLV.lig_0>
-17.1313

>  <SCORE.INTRA.VDW>
-5.45943

>  <SCORE.INTRA.VDW.0>
6.34071

>  <SCORE.INTRA.norm>
-0.242264

>  <SCORE.RESTR>
5.10402e-05

>  <SCORE.RESTR.CAVITY>
5.10402e-05

>  <SCORE.RESTR.norm>
2.43048e-06

>  <SCORE.SYSTEM>
0

>  <SCORE.SYSTEM.CONST>
0

>  <SCORE.SYSTEM.DIHEDRAL>
0

>  <SCORE.SYSTEM.SOLV>
0

>  <SCORE.SYSTEM.norm>
0

>  <SCORE.heavy>
21

>  <SCORE.norm>
-0.883174

>  <RMSD>
1.241

$$$$
lig.pdb
 OpenBabel11021811453D
libRbt.so/2013.1/901 2013/11/27
 21 23  0  0  0  0  0  0  0  0999 V2000
   -6.3479    0.2867    3.7882 C   0  0  0  0  0  0  0  0  0  0  0  0
   -7.5733    0.2904    4.3007 N   0  0  0  0  0  0  0  0  0  0  0  0
   -8.3788   -0.7357    4.0931 C   0  0  0  0  0  0  0  0  0  0  0  0
   -7.9805   -1.7537    3.3038 C   0  0  0  0  0  0  0  0  0  0  0  0
   -6.7425   -1.7556    2.7916 C   0  0  0  0  0  0  0  0  0  0  0  0
   -6.3422   -2.7550    2.0063 N   0  0  0  0  0  0  0  0  0  0  0  0
   -5.9309   -0.7316    3.0345 N   0  0  0  0  0  0  0  0  0  0  0  0
   -9.6083   -0.7349    4.6344 C   0  0  0  0  0  0  0  0  0  0  0  0
  -10.4966   -1.7100    4.2705 C   0  0  0  0  0  0  0  0  0  0  0  0
  -11.8468   -1.3316    4.0779 O   0  0  0  0  0  0  0  0  0  0  0  0
  -10.0255   -2.8035    3.6488 C   0  0  0  0  0  0  0  0  0  0  0  0
  -10.7815   -4.0061    3.6700 O   0  0  0  0  0  0  0  0  0  0  0  0
   -8.8063   -2.7846    3.0755 C   0  0  0  0  0  0  0  0  0  0  0  0
   -5.5445    1.3114    4.0159 N   0  0  0  0  0  0  0  0  0  0  0  0
   -5.1903    1.5186    5.2878 C   0  0  0  0  0  0  0  0  0  0  0  0
   -6.3121    2.2255    6.0333 C   0  0  0  0  0  0  0  0  0  0  0  0
   -6.5604    3.4484    5.4452 N   0  0  0  0  0  0  0  0  0  0  0  0
   -6.9623    3.2031    4.1503 C   0  0  0  0  0  0  0  0  0  0  0  0
   -5.8417    2.5010    3.4016 C   0  0  0  0  0  0  0  0  0  0  0  0
  -12.5564   -1.6349    5.2516 C   0  0  0  0  0  0  0  0  0  0  0  0
  -10.2192   -4.8750    4.6182 C   0  0  0  0  0  0  0  0  0  0  0  0
  1 14  1  0  0  0  0
  1  2  2  0  0  0  0
  3  2  1  0  0  0  0
  3  8  2  0  0  0  0
  4  3  1  0  0  0  0
  5  7  2  0  0  0  0
  5  4  1  0  0  0  0
  6  5  1  0  0  0  0
  7  1  1  0  0  0  0
  9 10  1  0  0  0  0
  9  8  1  0  0  0  0
 11  9  2  0  0  0  0
 12 11  1  0  0  0  0
 13  4  2  0  0  0  0
 13 11  1  0  0  0  0
 14 15  1  0  0  0  0
 16 15  1  0  0  0  0
 17 16  1  0  0  0  0
 18 17  1  0  0  0  0
 18 19  1  0  0  0  0
 19 14  1  0  0  0  0
 20 10  1  0  0  0  0
 21 12  1  0  0  0  0
M  END
>  <CHROM.1>
63.96232036,-97.87097084,-102.11777635,-8.12656587,-0.61693810,4.05383413
-0.78546656,-0.32897006,-2.73520350

>  <Name>
lig.pdb

>  <RI>
2.6678e+07

>  <Rbt.Current_Directory>
/home/itssahil/PROJECTS/Mol_Feturizer/New_Systems/rnas/2lwk

>  <Rbt.Executable>
rbdock ($Id: //depot/dev/client3/rdock/2013.1/src/exe/rbdock.cxx#4 $)

>  <Rbt.Library>
libRbt.so (2013.1, Build901 2013/11/27)

>  <Rbt.Parameter_File>
/export/apps/rDock/src/rDock_2013.1_src/data/scripts/dock_solv.prm

>  <Rbt.Receptor>
prm/pocket_docking_2.prm

>  <SCORE>
-18.5844

>  <SCORE.INTER>
-13.4422

>  <SCORE.INTER.CONST>
1

>  <SCORE.INTER.POLAR>
-2.10752

>  <SCORE.INTER.ROT>
3

>  <SCORE.INTER.SOLV>
7.23145

>  <SCORE.INTER.VDW>
-9.94689

>  <SCORE.INTER.norm>
-0.640105

>  <SCORE.INTRA>
-5.1438

>  <SCORE.INTRA.DIHEDRAL>
0.710162

>  <SCORE.INTRA.DIHEDRAL.0>
8.84257

>  <SCORE.INTRA.POLAR>
0

>  <SCORE.INTRA.POLAR.0>
0

>  <SCORE.INTRA.REPUL>
0

>  <SCORE.INTRA.REPUL.0>
0

>  <SCORE.INTRA.SOLV>
0.0876042

>  <SCORE.INTRA.SOLV.lig_0>
-17.1313

>  <SCORE.INTRA.VDW>
-5.54269

>  <SCORE.INTRA.VDW.0>
6.34071

>  <SCORE.INTRA.norm>
-0.244943

>  <SCORE.RESTR>
0.00162158

>  <SCORE.RESTR.CAVITY>
0.00162158

>  <SCORE.RESTR.norm>
7.7218e-05

>  <SCORE.SYSTEM>
0

>  <SCORE.SYSTEM.CONST>
0

>  <SCORE.SYSTEM.DIHEDRAL>
0

>  <SCORE.SYSTEM.SOLV>
0

>  <SCORE.SYSTEM.norm>
0

>  <SCORE.heavy>
21

>  <SCORE.norm>
-0.884971

>  <RMSD>
1.241

$$$$
lig.pdb
 OpenBabel11021811453D
libRbt.so/2013.1/901 2013/11/27
 21 23  0  0  0  0  0  0  0  0999 V2000
   -6.3422    0.2759    3.8067 C   0  0  0  0  0  0  0  0  0  0  0  0
   -7.5705    0.2862    4.3120 N   0  0  0  0  0  0  0  0  0  0  0  0
   -8.3770   -0.7398    4.1079 C   0  0  0  0  0  0  0  0  0  0  0  0
   -7.9763   -1.7649    3.3290 C   0  0  0  0  0  0  0  0  0  0  0  0
   -6.7354   -1.7735    2.8241 C   0  0  0  0  0  0  0  0  0  0  0  0
   -6.3327   -2.7799    2.0491 N   0  0  0  0  0  0  0  0  0  0  0  0
   -5.9231   -0.7493    3.0636 N   0  0  0  0  0  0  0  0  0  0  0  0
   -9.6097   -0.7321    4.6420 C   0  0  0  0  0  0  0  0  0  0  0  0
  -10.4979   -1.7081    4.2807 C   0  0  0  0  0  0  0  0  0  0  0  0
  -11.8461   -1.3284    4.0773 O   0  0  0  0  0  0  0  0  0  0  0  0
  -10.0256   -2.8075    3.6704 C   0  0  0  0  0  0  0  0  0  0  0  0
  -10.7843   -4.0083    3.6969 O   0  0  0  0  0  0  0  0  0  0  0  0
   -8.8030   -2.7957    3.1041 C   0  0  0  0  0  0  0  0  0  0  0  0
   -5.5379    1.3007    4.0309 N   0  0  0  0  0  0  0  0  0  0  0  0
   -5.1903    1.5169    5.3031 C   0  0  0  0  0  0  0  0  0  0  0  0
   -6.3147    2.2319    6.0369 C   0  0  0  0  0  0  0  0  0  0  0  0
   -6.5572    3.4508    5.4380 N   0  0  0  0  0  0  0  0  0  0  0  0
   -6.9524    3.1962    4.1428 C   0  0  0  0  0  0  0  0  0  0  0  0
   -5.8292    2.4861    3.4058 C   0  0  0  0  0  0  0  0  0  0  0  0
  -12.5671   -1.6384    5.2423 C   0  0  0  0  0  0  0  0  0  0  0  0
  -10.1928   -4.8950    4.6103 C   0  0  0  0  0  0  0  0  0  0  0  0
  1 14  1  0  0  0  0
  1  2  2  0  0  0  0
  3  2  1  0  0  0  0
  3  8  2  0  0  0  0
  4  3  1  0  0  0  0
  5  7  2  0  0  0  0
  5  4  1  0  0  0  0
  6  5  1  0  0  0  0
  7  1  1  0  0  0  0
  9 10  1  0  0  0  0
  9  8  1  0  0  0  0
 11  9  2  0  0  0  0
 12 11  1  0  0  0  0
 13  4  2  0  0  0  0
 13 11  1  0  0  0  0
 14 15  1  0  0  0  0
 16 15  1  0  0  0  0
 17 16  1  0  0  0  0
 18 17  1  0  0  0  0
 18 19  1  0  0  0  0
 19 14  1  0  0  0  0
 20 10  1  0  0  0  0
 21 12  1  0  0  0  0
M  END
>  <CHROM.1>
63.98286687,-98.69814466,-104.82158455,-8.12257190,-0.62406202,4.06656644
-0.78830431,-0.32104025,-2.74410246

>  <Name>
lig.pdb

>  <RI>
2.6678e+07

>  <Rbt.Current_Directory>
/home/itssahil/PROJECTS/Mol_Feturizer/New_Systems/rnas/2lwk

>  <Rbt.Executable>
rbdock ($Id: //depot/dev/client3/rdock/2013.1/src/exe/rbdock.cxx#4 $)

>  <Rbt.Library>
libRbt.so (2013.1, Build901 2013/11/27)

>  <Rbt.Parameter_File>
/export/apps/rDock/src/rDock_2013.1_src/data/scripts/dock_solv.prm

>  <Rbt.Receptor>
prm/pocket_docking_2.prm

>  <SCORE>
-18.5904

>  <SCORE.INTER>
-13.5287

>  <SCORE.INTER.CONST>
1

>  <SCORE.INTER.POLAR>
-2.09462

>  <SCORE.INTER.ROT>
3

>  <SCORE.INTER.SOLV>
7.15594

>  <SCORE.INTER.VDW>
-10.0224

>  <SCORE.INTER.norm>
-0.644226

>  <SCORE.INTRA>
-5.06165

>  <SCORE.INTRA.DIHEDRAL>
0.602861

>  <SCORE.INTRA.DIHEDRAL.0>
8.84257

>  <SCORE.INTRA.POLAR>
0

>  <SCORE.INTRA.POLAR.0>
0

>  <SCORE.INTRA.REPUL>
0

>  <SCORE.INTRA.REPUL.0>
0

>  <SCORE.INTRA.SOLV>
0.0872347

>  <SCORE.INTRA.SOLV.lig_0>
-17.1313

>  <SCORE.INTRA.VDW>
-5.4067

>  <SCORE.INTRA.VDW.0>
6.34071

>  <SCORE.INTRA.norm>
-0.241031

>  <SCORE.RESTR>
0

>  <SCORE.RESTR.CAVITY>
0

>  <SCORE.RESTR.norm>
0

>  <SCORE.SYSTEM>
0

>  <SCORE.SYSTEM.CONST>
0

>  <SCORE.SYSTEM.DIHEDRAL>
0

>  <SCORE.SYSTEM.SOLV>
0

>  <SCORE.SYSTEM.norm>
0

>  <SCORE.heavy>
21

>  <SCORE.norm>
-0.885257

>  <RMSD>
1.241

$$$$
lig.pdb
 OpenBabel11021811453D
libRbt.so/2013.1/901 2013/11/27
 21 23  0  0  0  0  0  0  0  0999 V2000
   -6.3400    0.2847    3.7912 C   0  0  0  0  0  0  0  0  0  0  0  0
   -7.5682    0.2942    4.2969 N   0  0  0  0  0  0  0  0  0  0  0  0
   -8.3722   -0.7347    4.0975 C   0  0  0  0  0  0  0  0  0  0  0  0
   -7.9691   -1.7622    3.3230 C   0  0  0  0  0  0  0  0  0  0  0  0
   -6.7284   -1.7699    2.8178 C   0  0  0  0  0  0  0  0  0  0  0  0
   -6.3233   -2.7787    2.0471 N   0  0  0  0  0  0  0  0  0  0  0  0
   -5.9185   -0.7426    3.0526 N   0  0  0  0  0  0  0  0  0  0  0  0
   -9.6047   -0.7277    4.6320 C   0  0  0  0  0  0  0  0  0  0  0  0
  -10.4906   -1.7076    4.2752 C   0  0  0  0  0  0  0  0  0  0  0  0
  -11.8398   -1.3322    4.0705 O   0  0  0  0  0  0  0  0  0  0  0  0
  -10.0157   -2.8085    3.6696 C   0  0  0  0  0  0  0  0  0  0  0  0
  -10.7714   -4.0111    3.7015 O   0  0  0  0  0  0  0  0  0  0  0  0
   -8.7933   -2.7961    3.1029 C   0  0  0  0  0  0  0  0  0  0  0  0
   -5.5383    1.3125    4.0107 N   0  0  0  0  0  0  0  0  0  0  0  0
   -5.1807    1.5277    5.2804 C   0  0  0  0  0  0  0  0  0  0  0  0
   -6.3019    2.2363    6.0252 C   0  0  0  0  0  0  0  0  0  0  0  0
   -6.5547    3.4553    5.4309 N   0  0  0  0  0  0  0  0  0  0  0  0
   -6.9599    3.2017    4.1387 C   0  0  0  0  0  0  0  0  0  0  0  0
   -5.8400    2.4979    3.3906 C   0  0  0  0  0  0  0  0  0  0  0  0
  -12.5592   -1.6366    5.2380 C   0  0  0  0  0  0  0  0  0  0  0  0
  -10.1751   -4.8938    4.6156 C   0  0  0  0  0  0  0  0  0  0  0  0
  1 14  1  0  0  0  0
  1  2  2  0  0  0  0
  3  2  1  0  0  0  0
  3  8  2  0  0  0  0
  4  3  1  0  0  0  0
  5  7  2  0  0  0  0
  5  4  1  0  0  0  0
  6  5  1  0  0  0  0
  7  1  1  0  0  0  0
  9 10  1  0  0  0  0
  9  8  1  0  0  0  0
 11  9  2  0  0  0  0
 12 11  1  0  0  0  0
 13  4  2  0  0  0  0
 13 11  1  0  0  0  0
 14 15  1  0  0  0  0
 16 15  1  0  0  0  0
 17 16  1  0  0  0  0
 18 17  1  0  0  0  0
 18 19  1  0  0  0  0
 19 14  1  0  0  0  0
 20 10  1  0  0  0  0
 21 12  1  0  0  0  0
M  END
>  <CHROM.1>
64.59335173,-98.58767776,-105.00046357,-8.11675944,-0.62011172,4.05882086
-0.78996873,-0.32180869,-2.74687595

>  <Name>
lig.pdb

>  <RI>
2.6678e+07

>  <Rbt.Current_Directory>
/home/itssahil/PROJECTS/Mol_Feturizer/New_Systems/rnas/2lwk

>  <Rbt.Executable>
rbdock ($Id: //depot/dev/client3/rdock/2013.1/src/exe/rbdock.cxx#4 $)

>  <Rbt.Library>
libRbt.so (2013.1, Build901 2013/11/27)

>  <Rbt.Parameter_File>
/export/apps/rDock/src/rDock_2013.1_src/data/scripts/dock_solv.prm

>  <Rbt.Receptor>
prm/pocket_docking_2.prm

>  <SCORE>
-18.6218

>  <SCORE.INTER>
-13.5593

>  <SCORE.INTER.CONST>
1

>  <SCORE.INTER.POLAR>
-2.09962

>  <SCORE.INTER.ROT>
3

>  <SCORE.INTER.SOLV>
7.15191

>  <SCORE.INTER.VDW>
-10.0248

>  <SCORE.INTER.norm>
-0.64568

>  <SCORE.INTRA>
-5.06252

>  <SCORE.INTRA.DIHEDRAL>
0.593191

>  <SCORE.INTRA.DIHEDRAL.0>
8.84257

>  <SCORE.INTRA.POLAR>
0

>  <SCORE.INTRA.POLAR.0>
0

>  <SCORE.INTRA.REPUL>
0

>  <SCORE.INTRA.REPUL.0>
0

>  <SCORE.INTRA.SOLV>
0.0871094

>  <SCORE.INTRA.SOLV.lig_0>
-17.1313

>  <SCORE.INTRA.VDW>
-5.40267

>  <SCORE.INTRA.VDW.0>
6.34071

>  <SCORE.INTRA.norm>
-0.241072

>  <SCORE.RESTR>
0

>  <SCORE.RESTR.CAVITY>
0

>  <SCORE.RESTR.norm>
0

>  <SCORE.SYSTEM>
0

>  <SCORE.SYSTEM.CONST>
0

>  <SCORE.SYSTEM.DIHEDRAL>
0

>  <SCORE.SYSTEM.SOLV>
0

>  <SCORE.SYSTEM.norm>
0

>  <SCORE.heavy>
21

>  <SCORE.norm>
-0.886753

>  <RMSD>
1.242

$$$$
lig.pdb
 OpenBabel11021811453D
libRbt.so/2013.1/901 2013/11/27
 21 23  0  0  0  0  0  0  0  0999 V2000
   -6.3417    0.2710    3.8190 C   0  0  0  0  0  0  0  0  0  0  0  0
   -7.5722    0.2838    4.3189 N   0  0  0  0  0  0  0  0  0  0  0  0
   -8.3788   -0.7419    4.1139 C   0  0  0  0  0  0  0  0  0  0  0  0
   -7.9757   -1.7694    3.3394 C   0  0  0  0  0  0  0  0  0  0  0  0
   -6.7326   -1.7805    2.8400 C   0  0  0  0  0  0  0  0  0  0  0  0
   -6.3275   -2.7893    2.0694 N   0  0  0  0  0  0  0  0  0  0  0  0
   -5.9203   -0.7565    3.0804 N   0  0  0  0  0  0  0  0  0  0  0  0
   -9.6138   -0.7317    4.6426 C   0  0  0  0  0  0  0  0  0  0  0  0
  -10.5014   -1.7078    4.2800 C   0  0  0  0  0  0  0  0  0  0  0  0
  -11.8483   -1.3273    4.0696 O   0  0  0  0  0  0  0  0  0  0  0  0
  -10.0275   -2.8092    3.6746 C   0  0  0  0  0  0  0  0  0  0  0  0
  -10.7874   -4.0092    3.7008 O   0  0  0  0  0  0  0  0  0  0  0  0
   -8.8024   -2.8001    3.1136 C   0  0  0  0  0  0  0  0  0  0  0  0
   -5.5374    1.2956    4.0441 N   0  0  0  0  0  0  0  0  0  0  0  0
   -5.1950    1.5147    5.3173 C   0  0  0  0  0  0  0  0  0  0  0  0
   -6.3219    2.2325    6.0445 C   0  0  0  0  0  0  0  0  0  0  0  0
   -6.5606    3.4501    5.4415 N   0  0  0  0  0  0  0  0  0  0  0  0
   -6.9506    3.1927    4.1453 C   0  0  0  0  0  0  0  0  0  0  0  0
   -5.8249    2.4797    3.4148 C   0  0  0  0  0  0  0  0  0  0  0  0
  -12.5723   -1.6231    5.2364 C   0  0  0  0  0  0  0  0  0  0  0  0
  -10.1984   -4.8957    4.6160 C   0  0  0  0  0  0  0  0  0  0  0  0
  1 14  1  0  0  0  0
  1  2  2  0  0  0  0
  3  2  1  0  0  0  0
  3  8  2  0  0  0  0
  4  3  1  0  0  0  0
  5  7  2  0  0  0  0
  5  4  1  0  0  0  0
  6  5  1  0  0  0  0
  7  1  1  0  0  0  0
  9 10  1  0  0  0  0
  9  8  1  0  0  0  0
 11  9  2  0  0  0  0
 12 11  1  0  0  0  0
 13  4  2  0  0  0  0
 13 11  1  0  0  0  0
 14 15  1  0  0  0  0
 16 15  1  0  0  0  0
 17 16  1  0  0  0  0
 18 17  1  0  0  0  0
 18 19  1  0  0  0  0
 19 14  1  0  0  0  0
 20 10  1  0  0  0  0
 21 12  1  0  0  0  0
M  END
>  <CHROM.1>
63.99237460,-98.20211429,-105.00258136,-8.12380746,-0.62613777,4.07351842
-0.78934720,-0.31655815,-2.74693380

>  <Name>
lig.pdb

>  <RI>
2.6678e+07

>  <Rbt.Current_Directory>
/home/itssahil/PROJECTS/Mol_Feturizer/New_Systems/rnas/2lwk

>  <Rbt.Executable>
rbdock ($Id: //depot/dev/client3/rdock/2013.1/src/exe/rbdock.cxx#4 $)

>  <Rbt.Library>
libRbt.so (2013.1, Build901 2013/11/27)

>  <Rbt.Parameter_File>
/export/apps/rDock/src/rDock_2013.1_src/data/scripts/dock_solv.prm

>  <Rbt.Receptor>
prm/pocket_docking_2.prm

>  <SCORE>
-18.6047

>  <SCORE.INTER>
-13.553

>  <SCORE.INTER.CONST>
1

>  <SCORE.INTER.POLAR>
-2.11687

>  <SCORE.INTER.ROT>
3

>  <SCORE.INTER.SOLV>
7.14505

>  <SCORE.INTER.VDW>
-9.96081

>  <SCORE.INTER.norm>
-0.645383

>  <SCORE.INTRA>
-5.05301

>  <SCORE.INTRA.DIHEDRAL>
0.589493

>  <SCORE.INTRA.DIHEDRAL.0>
8.84257

>  <SCORE.INTRA.POLAR>
0

>  <SCORE.INTRA.POLAR.0>
0

>  <SCORE.INTRA.REPUL>
0

>  <SCORE.INTRA.REPUL.0>
0

>  <SCORE.INTRA.SOLV>
0.0866769

>  <SCORE.INTRA.SOLV.lig_0>
-17.1313

>  <SCORE.INTRA.VDW>
-5.39109

>  <SCORE.INTRA.VDW.0>
6.34071

>  <SCORE.INTRA.norm>
-0.240619

>  <SCORE.RESTR>
0.00137443

>  <SCORE.RESTR.CAVITY>
0.00137443

>  <SCORE.RESTR.norm>
6.54489e-05

>  <SCORE.SYSTEM>
0

>  <SCORE.SYSTEM.CONST>
0

>  <SCORE.SYSTEM.DIHEDRAL>
0

>  <SCORE.SYSTEM.SOLV>
0

>  <SCORE.SYSTEM.norm>
0

>  <SCORE.heavy>
21

>  <SCORE.norm>
-0.885937

>  <RMSD>
1.243

$$$$
lig.pdb
 OpenBabel11021811453D
libRbt.so/2013.1/901 2013/11/27
 21 23  0  0  0  0  0  0  0  0999 V2000
   -6.3426    0.2785    3.8151 C   0  0  0  0  0  0  0  0  0  0  0  0
   -7.5717    0.2860    4.3186 N   0  0  0  0  0  0  0  0  0  0  0  0
   -8.3788   -0.7378    4.1057 C   0  0  0  0  0  0  0  0  0  0  0  0
   -7.9776   -1.7574    3.3198 C   0  0  0  0  0  0  0  0  0  0  0  0
   -6.7360   -1.7632    2.8167 C   0  0  0  0  0  0  0  0  0  0  0  0
   -6.3329   -2.7641    2.0349 N   0  0  0  0  0  0  0  0  0  0  0  0
   -5.9232   -0.7415    3.0651 N   0  0  0  0  0  0  0  0  0  0  0  0
   -9.6122   -0.7330    4.6379 C   0  0  0  0  0  0  0  0  0  0  0  0
  -10.5007   -1.7057    4.2680 C   0  0  0  0  0  0  0  0  0  0  0  0
  -11.8483   -1.3234    4.0653 O   0  0  0  0  0  0  0  0  0  0  0  0
  -10.0283   -2.8009    3.6503 C   0  0  0  0  0  0  0  0  0  0  0  0
  -10.7880   -4.0012    3.6666 O   0  0  0  0  0  0  0  0  0  0  0  0
   -8.8048   -2.7859    3.0860 C   0  0  0  0  0  0  0  0  0  0  0  0
   -5.5379    1.3009    4.0483 N   0  0  0  0  0  0  0  0  0  0  0  0
   -5.1945    1.5092    5.3229 C   0  0  0  0  0  0  0  0  0  0  0  0
   -6.3206    2.2213    6.0569 C   0  0  0  0  0  0  0  0  0  0  0  0
   -6.5595    3.4440    5.4643 N   0  0  0  0  0  0  0  0  0  0  0  0
   -6.9505    3.1975    4.1663 C   0  0  0  0  0  0  0  0  0  0  0  0
   -5.8255    2.4903    3.4291 C   0  0  0  0  0  0  0  0  0  0  0  0
  -12.5657   -1.6167    5.2368 C   0  0  0  0  0  0  0  0  0  0  0  0
  -10.2325   -4.8731    4.6161 C   0  0  0  0  0  0  0  0  0  0  0  0
  1 14  1  0  0  0  0
  1  2  2  0  0  0  0
  3  2  1  0  0  0  0
  3  8  2  0  0  0  0
  4  3  1  0  0  0  0
  5  7  2  0  0  0  0
  5  4  1  0  0  0  0
  6  5  1  0  0  0  0
  7  1  1  0  0  0  0
  9 10  1  0  0  0  0
  9  8  1  0  0  0  0
 11  9  2  0  0  0  0
 12 11  1  0  0  0  0
 13  4  2  0  0  0  0
 13 11  1  0  0  0  0
 14 15  1  0  0  0  0
 16 15  1  0  0  0  0
 17 16  1  0  0  0  0
 18 17  1  0  0  0  0
 18 19  1  0  0  0  0
 19 14  1  0  0  0  0
 20 10  1  0  0  0  0
 21 12  1  0  0  0  0
M  END
>  <CHROM.1>
63.83554027,-97.52726867,-102.31634771,-8.12589160,-0.61912672,4.06747095
-0.78604618,-0.32101973,-2.73633541

>  <Name>
lig.pdb

>  <RI>
2.6678e+07

>  <Rbt.Current_Directory>
/home/itssahil/PROJECTS/Mol_Feturizer/New_Systems/rnas/2lwk

>  <Rbt.Executable>
rbdock ($Id: //depot/dev/client3/rdock/2013.1/src/exe/rbdock.cxx#4 $)

>  <Rbt.Library>
libRbt.so (2013.1, Build901 2013/11/27)

>  <Rbt.Parameter_File>
/export/apps/rDock/src/rDock_2013.1_src/data/scripts/dock_solv.prm

>  <Rbt.Receptor>
prm/pocket_docking_2.prm

>  <SCORE>
-18.5657

>  <SCORE.INTER>
-13.4316

>  <SCORE.INTER.CONST>
1

>  <SCORE.INTER.POLAR>
-2.11863

>  <SCORE.INTER.ROT>
3

>  <SCORE.INTER.SOLV>
7.21137

>  <SCORE.INTER.VDW>
-9.8961

>  <SCORE.INTER.norm>
-0.639601

>  <SCORE.INTRA>
-5.1344

>  <SCORE.INTRA.DIHEDRAL>
0.698226

>  <SCORE.INTRA.DIHEDRAL.0>
8.84257

>  <SCORE.INTRA.POLAR>
0

>  <SCORE.INTRA.POLAR.0>
0

>  <SCORE.INTRA.REPUL>
0

>  <SCORE.INTRA.REPUL.0>
0

>  <SCORE.INTRA.SOLV>
0.0871667

>  <SCORE.INTRA.SOLV.lig_0>
-17.1313

>  <SCORE.INTRA.VDW>
-5.5271

>  <SCORE.INTRA.VDW.0>
6.34071

>  <SCORE.INTRA.norm>
-0.244495

>  <SCORE.RESTR>
0.000315229

>  <SCORE.RESTR.CAVITY>
0.000315229

>  <SCORE.RESTR.norm>
1.50109e-05

>  <SCORE.SYSTEM>
0

>  <SCORE.SYSTEM.CONST>
0

>  <SCORE.SYSTEM.DIHEDRAL>
0

>  <SCORE.SYSTEM.SOLV>
0

>  <SCORE.SYSTEM.norm>
0

>  <SCORE.heavy>
21

>  <SCORE.norm>
-0.884081

>  <RMSD>
1.244

$$$$
lig.pdb
 OpenBabel11021811453D
libRbt.so/2013.1/901 2013/11/27
 21 23  0  0  0  0  0  0  0  0999 V2000
   -6.2892    0.2922    3.8726 C   0  0  0  0  0  0  0  0  0  0  0  0
   -7.5258    0.3011    4.3574 N   0  0  0  0  0  0  0  0  0  0  0  0
   -8.3311   -0.7211    4.1309 C   0  0  0  0  0  0  0  0  0  0  0  0
   -7.9198   -1.7404    3.3498 C   0  0  0  0  0  0  0  0  0  0  0  0
   -6.6707   -1.7476    2.8656 C   0  0  0  0  0  0  0  0  0  0  0  0
   -6.2574   -2.7481    2.0887 N   0  0  0  0  0  0  0  0  0  0  0  0
   -5.8601   -0.7275    3.1276 N   0  0  0  0  0  0  0  0  0  0  0  0
   -9.5725   -0.7150    4.6444 C   0  0  0  0  0  0  0  0  0  0  0  0
  -10.4569   -1.6857    4.2597 C   0  0  0  0  0  0  0  0  0  0  0  0
  -11.8006   -1.3010    4.0372 O   0  0  0  0  0  0  0  0  0  0  0  0
   -9.9769   -2.7809    3.6478 C   0  0  0  0  0  0  0  0  0  0  0  0
  -10.7387   -3.9800    3.6510 O   0  0  0  0  0  0  0  0  0  0  0  0
   -8.7450   -2.7672    3.1021 C   0  0  0  0  0  0  0  0  0  0  0  0
   -5.4864    1.3129    4.1192 N   0  0  0  0  0  0  0  0  0  0  0  0
   -5.1653    1.5215    5.3997 C   0  0  0  0  0  0  0  0  0  0  0  0
   -6.3027    2.2367    6.1129 C   0  0  0  0  0  0  0  0  0  0  0  0
   -6.5282    3.4594    5.5152 N   0  0  0  0  0  0  0  0  0  0  0  0
   -6.8966    3.2129    4.2107 C   0  0  0  0  0  0  0  0  0  0  0  0
   -5.7603    2.5025    3.4941 C   0  0  0  0  0  0  0  0  0  0  0  0
  -12.5349   -1.5890    5.1994 C   0  0  0  0  0  0  0  0  0  0  0  0
  -10.2068   -4.8492    4.6163 C   0  0  0  0  0  0  0  0  0  0  0  0
  1 14  1  0  0  0  0
  1  2  2  0  0  0  0
  3  2  1  0  0  0  0
  3  8  2  0  0  0  0
  4  3  1  0  0  0  0
  5  7  2  0  0  0  0
  5  4  1  0  0  0  0
  6  5  1  0  0  0  0
  7  1  1  0  0  0  0
  9 10  1  0  0  0  0
  9  8  1  0  0  0  0
 11  9  2  0  0  0  0
 12 11  1  0  0  0  0
 13  4  2  0  0  0  0
 13 11  1  0  0  0  0
 14 15  1  0  0  0  0
 16 15  1  0  0  0  0
 17 16  1  0  0  0  0
 18 17  1  0  0  0  0
 18 19  1  0  0  0  0
 19 14  1  0  0  0  0
 20 10  1  0  0  0  0
 21 12  1  0  0  0  0
M  END
>  <CHROM.1>
63.63858831,-97.26482958,-101.77406625,-8.07819488,-0.60176610,4.09614249
-0.79050295,-0.30690841,-2.73705922

>  <Name>
lig.pdb

>  <RI>
2.6678e+07

>  <Rbt.Current_Directory>
/home/itssahil/PROJECTS/Mol_Feturizer/New_Systems/rnas/2lwk

>  <Rbt.Executable>
rbdock ($Id: //depot/dev/client3/rdock/2013.1/src/exe/rbdock.cxx#4 $)

>  <Rbt.Library>
libRbt.so (2013.1, Build901 2013/11/27)

>  <Rbt.Parameter_File>
/export/apps/rDock/src/rDock_2013.1_src/data/scripts/dock_solv.prm

>  <Rbt.Receptor>
prm/pocket_docking_2.prm

>  <SCORE>
-18.5077

>  <SCORE.INTER>
-13.3616

>  <SCORE.INTER.CONST>
1

>  <SCORE.INTER.POLAR>
-2.07596

>  <SCORE.INTER.ROT>
3

>  <SCORE.INTER.SOLV>
7.05057

>  <SCORE.INTER.VDW>
-9.93806

>  <SCORE.INTER.norm>
-0.636266

>  <SCORE.INTRA>
-5.14615

>  <SCORE.INTRA.DIHEDRAL>
0.716271

>  <SCORE.INTRA.DIHEDRAL.0>
8.84257

>  <SCORE.INTRA.POLAR>
0

>  <SCORE.INTRA.POLAR.0>
0

>  <SCORE.INTRA.REPUL>
0

>  <SCORE.INTRA.REPUL.0>
0

>  <SCORE.INTRA.SOLV>
0.0871321

>  <SCORE.INTRA.SOLV.lig_0>
-17.1313

>  <SCORE.INTRA.VDW>
-5.54785

>  <SCORE.INTRA.VDW.0>
6.34071

>  <SCORE.INTRA.norm>
-0.245055

>  <SCORE.RESTR>
0

>  <SCORE.RESTR.CAVITY>
0

>  <SCORE.RESTR.norm>
0

>  <SCORE.SYSTEM>
0

>  <SCORE.SYSTEM.CONST>
0

>  <SCORE.SYSTEM.DIHEDRAL>
0

>  <SCORE.SYSTEM.SOLV>
0

>  <SCORE.SYSTEM.norm>
0

>  <SCORE.heavy>
21

>  <SCORE.norm>
-0.881321

>  <RMSD>
1.247

$$$$
lig.pdb
 OpenBabel11021811453D
libRbt.so/2013.1/901 2013/11/27
 21 23  0  0  0  0  0  0  0  0999 V2000
   -6.3112    0.3936    3.7319 C   0  0  0  0  0  0  0  0  0  0  0  0
   -7.5304    0.5293    4.2410 N   0  0  0  0  0  0  0  0  0  0  0  0
   -8.3401   -0.5126    4.3024 C   0  0  0  0  0  0  0  0  0  0  0  0
   -7.9527   -1.6959    3.7848 C   0  0  0  0  0  0  0  0  0  0  0  0
   -6.7208   -1.8299    3.2754 C   0  0  0  0  0  0  0  0  0  0  0  0
   -6.3314   -2.9941    2.7572 N   0  0  0  0  0  0  0  0  0  0  0  0
   -5.9048   -0.7813    3.2488 N   0  0  0  0  0  0  0  0  0  0  0  0
   -9.5631   -0.3725    4.8402 C   0  0  0  0  0  0  0  0  0  0  0  0
  -10.4572   -1.4033    4.7384 C   0  0  0  0  0  0  0  0  0  0  0  0
  -11.8089   -1.0781    4.4731 O   0  0  0  0  0  0  0  0  0  0  0  0
   -9.9953   -2.6186    4.4010 C   0  0  0  0  0  0  0  0  0  0  0  0
  -10.7529   -3.7752    4.7272 O   0  0  0  0  0  0  0  0  0  0  0  0
   -8.7828   -2.7474    3.8275 C   0  0  0  0  0  0  0  0  0  0  0  0
   -5.5035    1.4391    3.6904 N   0  0  0  0  0  0  0  0  0  0  0  0
   -5.0195    1.8640    4.8615 C   0  0  0  0  0  0  0  0  0  0  0  0
   -6.0664    2.6947    5.5881 C   0  0  0  0  0  0  0  0  0  0  0  0
   -6.3937    3.7970    4.8260 N   0  0  0  0  0  0  0  0  0  0  0  0
   -6.9270    3.3307    3.6442 C   0  0  0  0  0  0  0  0  0  0  0  0
   -5.8817    2.5042    2.9136 C   0  0  0  0  0  0  0  0  0  0  0  0
  -12.6041   -1.6772    5.4640 C   0  0  0  0  0  0  0  0  0  0  0  0
  -11.0969   -4.4385    3.5389 C   0  0  0  0  0  0  0  0  0  0  0  0
  1 14  1  0  0  0  0
  1  2  2  0  0  0  0
  3  2  1  0  0  0  0
  3  8  2  0  0  0  0
  4  3  1  0  0  0  0
  5  7  2  0  0  0  0
  5  4  1  0  0  0  0
  6  5  1  0  0  0  0
  7  1  1  0  0  0  0
  9 10  1  0  0  0  0
  9  8  1  0  0  0  0
 11  9  2  0  0  0  0
 12 11  1  0  0  0  0
 13  4  2  0  0  0  0
 13 11  1  0  0  0  0
 14 15  1  0  0  0  0
 16 15  1  0  0  0  0
 17 16  1  0  0  0  0
 18 17  1  0  0  0  0
 18 19  1  0  0  0  0
 19 14  1  0  0  0  0
 20 10  1  0  0  0  0
 21 12  1  0  0  0  0
M  END
>  <CHROM.1>
70.90336362,-125.97297564,118.83972793,-8.12530396,-0.45260494,4.13995791
-0.75975131,-0.30592654,-2.87703349

>  <Name>
lig.pdb

>  <RI>
2.6678e+07

>  <Rbt.Current_Directory>
/home/itssahil/PROJECTS/Mol_Feturizer/New_Systems/rnas/2lwk

>  <Rbt.Executable>
rbdock ($Id: //depot/dev/client3/rdock/2013.1/src/exe/rbdock.cxx#4 $)

>  <Rbt.Library>
libRbt.so (2013.1, Build901 2013/11/27)

>  <Rbt.Parameter_File>
/export/apps/rDock/src/rDock_2013.1_src/data/scripts/dock_solv.prm

>  <Rbt.Receptor>
prm/pocket_docking_2.prm

>  <SCORE>
-17.6554

>  <SCORE.INTER>
-13.3341

>  <SCORE.INTER.CONST>
1

>  <SCORE.INTER.POLAR>
-1.70953

>  <SCORE.INTER.ROT>
3

>  <SCORE.INTER.SOLV>
6.07829

>  <SCORE.INTER.VDW>
-10.817

>  <SCORE.INTER.norm>
-0.634956

>  <SCORE.INTRA>
-4.45762

>  <SCORE.INTRA.DIHEDRAL>
-0.672518

>  <SCORE.INTRA.DIHEDRAL.0>
8.84257

>  <SCORE.INTRA.POLAR>
0

>  <SCORE.INTRA.POLAR.0>
0

>  <SCORE.INTRA.REPUL>
0

>  <SCORE.INTRA.REPUL.0>
0

>  <SCORE.INTRA.SOLV>
0.150374

>  <SCORE.INTRA.SOLV.lig_0>
-17.1313

>  <SCORE.INTRA.VDW>
-4.19655

>  <SCORE.INTRA.VDW.0>
6.34071

>  <SCORE.INTRA.norm>
-0.212268

>  <SCORE.RESTR>
0.136299

>  <SCORE.RESTR.CAVITY>
0.136299

>  <SCORE.RESTR.norm>
0.00649044

>  <SCORE.SYSTEM>
0

>  <SCORE.SYSTEM.CONST>
0

>  <SCORE.SYSTEM.DIHEDRAL>
0

>  <SCORE.SYSTEM.SOLV>
0

>  <SCORE.SYSTEM.norm>
0

>  <SCORE.heavy>
21

>  <SCORE.norm>
-0.840733

>  <RMSD>
1.250

$$$$
lig.pdb
 OpenBabel11021811453D
libRbt.so/2013.1/901 2013/11/27
 21 23  0  0  0  0  0  0  0  0999 V2000
   -6.3118    0.3491    3.7004 C   0  0  0  0  0  0  0  0  0  0  0  0
   -7.5700    0.4612    4.1109 N   0  0  0  0  0  0  0  0  0  0  0  0
   -8.3340   -0.6128    4.1987 C   0  0  0  0  0  0  0  0  0  0  0  0
   -7.8566   -1.8110    3.8056 C   0  0  0  0  0  0  0  0  0  0  0  0
   -6.5858   -1.9207    3.3956 C   0  0  0  0  0  0  0  0  0  0  0  0
   -6.1071   -3.0998    3.0005 N   0  0  0  0  0  0  0  0  0  0  0  0
   -5.8183   -0.8370    3.3423 N   0  0  0  0  0  0  0  0  0  0  0  0
   -9.5984   -0.4943    4.6370 C   0  0  0  0  0  0  0  0  0  0  0  0
  -10.4351   -1.5740    4.5558 C   0  0  0  0  0  0  0  0  0  0  0  0
  -11.7769   -1.3392    4.1718 O   0  0  0  0  0  0  0  0  0  0  0  0
   -9.8951   -2.7865    4.3496 C   0  0  0  0  0  0  0  0  0  0  0  0
  -10.6216   -3.9518    4.7135 O   0  0  0  0  0  0  0  0  0  0  0  0
   -8.6392   -2.8970    3.8742 C   0  0  0  0  0  0  0  0  0  0  0  0
   -5.5514    1.4281    3.6320 N   0  0  0  0  0  0  0  0  0  0  0  0
   -4.9937    1.8366    4.7758 C   0  0  0  0  0  0  0  0  0  0  0  0
   -6.0118    2.6004    5.6090 C   0  0  0  0  0  0  0  0  0  0  0  0
   -6.4409    3.7110    4.9122 N   0  0  0  0  0  0  0  0  0  0  0  0
   -7.0469    3.2594    3.7601 C   0  0  0  0  0  0  0  0  0  0  0  0
   -6.0309    2.4999    2.9234 C   0  0  0  0  0  0  0  0  0  0  0  0
  -12.6065   -1.6862    5.2509 C   0  0  0  0  0  0  0  0  0  0  0  0
  -11.1073   -4.5627    3.5468 C   0  0  0  0  0  0  0  0  0  0  0  0
  1 14  1  0  0  0  0
  1  2  2  0  0  0  0
  3  2  1  0  0  0  0
  3  8  2  0  0  0  0
  4  3  1  0  0  0  0
  5  7  2  0  0  0  0
  5  4  1  0  0  0  0
  6  5  1  0  0  0  0
  7  1  1  0  0  0  0
  9 10  1  0  0  0  0
  9  8  1  0  0  0  0
 11  9  2  0  0  0  0
 12 11  1  0  0  0  0
 13  4  2  0  0  0  0
 13 11  1  0  0  0  0
 14 15  1  0  0  0  0
 16 15  1  0  0  0  0
 17 16  1  0  0  0  0
 18 17  1  0  0  0  0
 18 19  1  0  0  0  0
 19 14  1  0  0  0  0
 20 10  1  0  0  0  0
 21 12  1  0  0  0  0
M  END
>  <CHROM.1>
81.58752470,-115.78241916,105.67186499,-8.09626920,-0.55090865,4.11191732
-0.79533058,-0.24293654,-2.92943727

>  <Name>
lig.pdb

>  <RI>
2.6678e+07

>  <Rbt.Current_Directory>
/home/itssahil/PROJECTS/Mol_Feturizer/New_Systems/rnas/2lwk

>  <Rbt.Executable>
rbdock ($Id: //depot/dev/client3/rdock/2013.1/src/exe/rbdock.cxx#4 $)

>  <Rbt.Library>
libRbt.so (2013.1, Build901 2013/11/27)

>  <Rbt.Parameter_File>
/export/apps/rDock/src/rDock_2013.1_src/data/scripts/dock_solv.prm

>  <Rbt.Receptor>
prm/pocket_docking_2.prm

>  <SCORE>
-17.9711

>  <SCORE.INTER>
-12.9239

>  <SCORE.INTER.CONST>
1

>  <SCORE.INTER.POLAR>
-1.82379

>  <SCORE.INTER.ROT>
3

>  <SCORE.INTER.SOLV>
6.10668

>  <SCORE.INTER.VDW>
-10.1722

>  <SCORE.INTER.norm>
-0.615424

>  <SCORE.INTRA>
-5.1321

>  <SCORE.INTRA.DIHEDRAL>
0.500922

>  <SCORE.INTRA.DIHEDRAL.0>
8.84257

>  <SCORE.INTRA.POLAR>
0

>  <SCORE.INTRA.POLAR.0>
0

>  <SCORE.INTRA.REPUL>
0

>  <SCORE.INTRA.REPUL.0>
0

>  <SCORE.INTRA.SOLV>
0.145728

>  <SCORE.INTRA.SOLV.lig_0>
-17.1313

>  <SCORE.INTRA.VDW>
-5.45543

>  <SCORE.INTRA.VDW.0>
6.34071

>  <SCORE.INTRA.norm>
-0.244386

>  <SCORE.RESTR>
0.0848644

>  <SCORE.RESTR.CAVITY>
0.0848644

>  <SCORE.RESTR.norm>
0.00404116

>  <SCORE.SYSTEM>
0

>  <SCORE.SYSTEM.CONST>
0

>  <SCORE.SYSTEM.DIHEDRAL>
0

>  <SCORE.SYSTEM.SOLV>
0

>  <SCORE.SYSTEM.norm>
0

>  <SCORE.heavy>
21

>  <SCORE.norm>
-0.855769

>  <RMSD>
1.258

$$$$
lig.pdb
 OpenBabel11021811453D
libRbt.so/2013.1/901 2013/11/27
 21 23  0  0  0  0  0  0  0  0999 V2000
   -6.3195    0.3603    3.7243 C   0  0  0  0  0  0  0  0  0  0  0  0
   -7.5739    0.4616    4.1489 N   0  0  0  0  0  0  0  0  0  0  0  0
   -8.3417   -0.6119    4.2023 C   0  0  0  0  0  0  0  0  0  0  0  0
   -7.8724   -1.7962    3.7602 C   0  0  0  0  0  0  0  0  0  0  0  0
   -6.6054   -1.8952    3.3360 C   0  0  0  0  0  0  0  0  0  0  0  0
   -6.1349   -3.0604    2.8926 N   0  0  0  0  0  0  0  0  0  0  0  0
   -5.8338   -0.8133    3.3174 N   0  0  0  0  0  0  0  0  0  0  0  0
   -9.6020   -0.5053    4.6551 C   0  0  0  0  0  0  0  0  0  0  0  0
  -10.4438   -1.5779    4.5399 C   0  0  0  0  0  0  0  0  0  0  0  0
  -11.7877   -1.3235    4.1760 O   0  0  0  0  0  0  0  0  0  0  0  0
   -9.9105   -2.7838    4.2836 C   0  0  0  0  0  0  0  0  0  0  0  0
  -10.6389   -3.9592    4.6090 O   0  0  0  0  0  0  0  0  0  0  0  0
   -8.6589   -2.8810    3.7940 C   0  0  0  0  0  0  0  0  0  0  0  0
   -5.5551    1.4382    3.6905 N   0  0  0  0  0  0  0  0  0  0  0  0
   -4.9736    1.7915    4.8408 C   0  0  0  0  0  0  0  0  0  0  0  0
   -5.9717    2.5205    5.7276 C   0  0  0  0  0  0  0  0  0  0  0  0
   -6.4086    3.6636    5.0908 N   0  0  0  0  0  0  0  0  0  0  0  0
   -7.0387    3.2678    3.9312 C   0  0  0  0  0  0  0  0  0  0  0  0
   -6.0428    2.5433    3.0410 C   0  0  0  0  0  0  0  0  0  0  0  0
  -12.6086   -1.6909    5.2550 C   0  0  0  0  0  0  0  0  0  0  0  0
  -11.1731   -4.4996    3.4288 C   0  0  0  0  0  0  0  0  0  0  0  0
  1 14  1  0  0  0  0
  1  2  2  0  0  0  0
  3  2  1  0  0  0  0
  3  8  2  0  0  0  0
  4  3  1  0  0  0  0
  5  7  2  0  0  0  0
  5  4  1  0  0  0  0
  6  5  1  0  0  0  0
  7  1  1  0  0  0  0
  9 10  1  0  0  0  0
  9  8  1  0  0  0  0
 11  9  2  0  0  0  0
 12 11  1  0  0  0  0
 13  4  2  0  0  0  0
 13 11  1  0  0  0  0
 14 15  1  0  0  0  0
 16 15  1  0  0  0  0
 17 16  1  0  0  0  0
 18 17  1  0  0  0  0
 18 19  1  0  0  0  0
 19 14  1  0  0  0  0
 20 10  1  0  0  0  0
 21 12  1  0  0  0  0
M  END
>  <CHROM.1>
82.37096699,-114.99123127,103.77769560,-8.10377205,-0.54720213,4.12064924
-0.78619357,-0.24929971,-2.88705733

>  <Name>
lig.pdb

>  <RI>
2.6678e+07

>  <Rbt.Current_Directory>
/home/itssahil/PROJECTS/Mol_Feturizer/New_Systems/rnas/2lwk

>  <Rbt.Executable>
rbdock ($Id: //depot/dev/client3/rdock/2013.1/src/exe/rbdock.cxx#4 $)

>  <Rbt.Library>
libRbt.so (2013.1, Build901 2013/11/27)

>  <Rbt.Parameter_File>
/export/apps/rDock/src/rDock_2013.1_src/data/scripts/dock_solv.prm

>  <Rbt.Receptor>
prm/pocket_docking_2.prm

>  <SCORE>
-17.7566

>  <SCORE.INTER>
-12.6507

>  <SCORE.INTER.CONST>
1

>  <SCORE.INTER.POLAR>
-1.83781

>  <SCORE.INTER.ROT>
3

>  <SCORE.INTER.SOLV>
6.25343

>  <SCORE.INTER.VDW>
-9.99225

>  <SCORE.INTER.norm>
-0.602415

>  <SCORE.INTRA>
-5.15383

>  <SCORE.INTRA.DIHEDRAL>
0.595581

>  <SCORE.INTRA.DIHEDRAL.0>
8.84257

>  <SCORE.INTRA.POLAR>
0

>  <SCORE.INTRA.POLAR.0>
0

>  <SCORE.INTRA.REPUL>
0

>  <SCORE.INTRA.REPUL.0>
0

>  <SCORE.INTRA.SOLV>
0.145907

>  <SCORE.INTRA.SOLV.lig_0>
-17.1313

>  <SCORE.INTRA.VDW>
-5.52457

>  <SCORE.INTRA.VDW.0>
6.34071

>  <SCORE.INTRA.norm>
-0.24542

>  <SCORE.RESTR>
0.0479567

>  <SCORE.RESTR.CAVITY>
0.0479567

>  <SCORE.RESTR.norm>
0.00228365

>  <SCORE.SYSTEM>
0

>  <SCORE.SYSTEM.CONST>
0

>  <SCORE.SYSTEM.DIHEDRAL>
0

>  <SCORE.SYSTEM.SOLV>
0

>  <SCORE.SYSTEM.norm>
0

>  <SCORE.heavy>
21

>  <SCORE.norm>
-0.845551

>  <RMSD>
1.261

$$$$
lig.pdb
 OpenBabel11021811453D
libRbt.so/2013.1/901 2013/11/27
 21 23  0  0  0  0  0  0  0  0999 V2000
   -6.3535    0.2625    3.7960 C   0  0  0  0  0  0  0  0  0  0  0  0
   -7.5865    0.2969    4.2887 N   0  0  0  0  0  0  0  0  0  0  0  0
   -8.3878   -0.7420    4.1359 C   0  0  0  0  0  0  0  0  0  0  0  0
   -7.9766   -1.8082    3.4202 C   0  0  0  0  0  0  0  0  0  0  0  0
   -6.7310   -1.8408    2.9279 C   0  0  0  0  0  0  0  0  0  0  0  0
   -6.3179   -2.8881    2.2151 N   0  0  0  0  0  0  0  0  0  0  0  0
   -5.9242   -0.8017    3.1162 N   0  0  0  0  0  0  0  0  0  0  0  0
   -9.6254   -0.7085    4.6575 C   0  0  0  0  0  0  0  0  0  0  0  0
  -10.5071   -1.7068    4.3442 C   0  0  0  0  0  0  0  0  0  0  0  0
  -11.8546   -1.3443    4.1072 O   0  0  0  0  0  0  0  0  0  0  0  0
  -10.0257   -2.8373    3.8016 C   0  0  0  0  0  0  0  0  0  0  0  0
  -10.7807   -4.0375    3.8894 O   0  0  0  0  0  0  0  0  0  0  0  0
   -8.7979   -2.8532    3.2468 C   0  0  0  0  0  0  0  0  0  0  0  0
   -5.5546    1.3013    3.9690 N   0  0  0  0  0  0  0  0  0  0  0  0
   -5.1642    1.5494    5.2228 C   0  0  0  0  0  0  0  0  0  0  0  0
   -6.2705    2.2670    5.9813 C   0  0  0  0  0  0  0  0  0  0  0  0
   -6.5496    3.4695    5.3655 N   0  0  0  0  0  0  0  0  0  0  0  0
   -6.9879    3.1821    4.0913 C   0  0  0  0  0  0  0  0  0  0  0  0
   -5.8830    2.4692    3.3295 C   0  0  0  0  0  0  0  0  0  0  0  0
  -12.6006   -1.6656    5.2532 C   0  0  0  0  0  0  0  0  0  0  0  0
  -10.4168   -4.7139    5.0642 C   0  0  0  0  0  0  0  0  0  0  0  0
  1 14  1  0  0  0  0
  1  2  2  0  0  0  0
  3  2  1  0  0  0  0
  3  8  2  0  0  0  0
  4  3  1  0  0  0  0
  5  7  2  0  0  0  0
  5  4  1  0  0  0  0
  6  5  1  0  0  0  0
  7  1  1  0  0  0  0
  9 10  1  0  0  0  0
  9  8  1  0  0  0  0
 11  9  2  0  0  0  0
 12 11  1  0  0  0  0
 13  4  2  0  0  0  0
 13 11  1  0  0  0  0
 14 15  1  0  0  0  0
 16 15  1  0  0  0  0
 17 16  1  0  0  0  0
 18 17  1  0  0  0  0
 18 19  1  0  0  0  0
 19 14  1  0  0  0  0
 20 10  1  0  0  0  0
 21 12  1  0  0  0  0
M  END
>  <CHROM.1>
67.30361190,-102.20792746,-90.09567262,-8.13917121,-0.63181768,4.11812588
-0.77520824,-0.32105133,-2.78319191

>  <Name>
lig.pdb

>  <RI>
3.31914e+07

>  <Rbt.Current_Directory>
/home/itssahil/PROJECTS/Mol_Feturizer/New_Systems/rnas/2lwk

>  <Rbt.Executable>
rbdock ($Id: //depot/dev/client3/rdock/2013.1/src/exe/rbdock.cxx#4 $)

>  <Rbt.Library>
libRbt.so (2013.1, Build901 2013/11/27)

>  <Rbt.Parameter_File>
/export/apps/rDock/src/rDock_2013.1_src/data/scripts/dock_solv.prm

>  <Rbt.Receptor>
prm/pocket_docking_3.prm

>  <SCORE>
-18.9564

>  <SCORE.INTER>
-13.5596

>  <SCORE.INTER.CONST>
1

>  <SCORE.INTER.POLAR>
-2.05773

>  <SCORE.INTER.ROT>
3

>  <SCORE.INTER.SOLV>
6.82034

>  <SCORE.INTER.VDW>
-10.0541

>  <SCORE.INTER.norm>
-0.645695

>  <SCORE.INTRA>
-5.39685

>  <SCORE.INTRA.DIHEDRAL>
1.01089

>  <SCORE.INTRA.DIHEDRAL.0>
8.84257

>  <SCORE.INTRA.POLAR>
0

>  <SCORE.INTRA.POLAR.0>
0

>  <SCORE.INTRA.REPUL>
0

>  <SCORE.INTRA.REPUL.0>
0

>  <SCORE.INTRA.SOLV>
0.0981091

>  <SCORE.INTRA.SOLV.lig_0>
-17.1313

>  <SCORE.INTRA.VDW>
-5.95135

>  <SCORE.INTRA.VDW.0>
6.34071

>  <SCORE.INTRA.norm>
-0.256993

>  <SCORE.RESTR>
0

>  <SCORE.RESTR.CAVITY>
0

>  <SCORE.RESTR.norm>
0

>  <SCORE.SYSTEM>
0

>  <SCORE.SYSTEM.CONST>
0

>  <SCORE.SYSTEM.DIHEDRAL>
0

>  <SCORE.SYSTEM.SOLV>
0

>  <SCORE.SYSTEM.norm>
0

>  <SCORE.heavy>
21

>  <SCORE.norm>
-0.902688

>  <RMSD>
1.273

$$$$
lig.pdb
 OpenBabel11021811453D
libRbt.so/2013.1/901 2013/11/27
 21 23  0  0  0  0  0  0  0  0999 V2000
   -6.3620    0.2669    3.7931 C   0  0  0  0  0  0  0  0  0  0  0  0
   -7.5936    0.2979    4.2893 N   0  0  0  0  0  0  0  0  0  0  0  0
   -8.3941   -0.7414    4.1345 C   0  0  0  0  0  0  0  0  0  0  0  0
   -7.9836   -1.8042    3.4132 C   0  0  0  0  0  0  0  0  0  0  0  0
   -6.7393   -1.8333    2.9174 C   0  0  0  0  0  0  0  0  0  0  0  0
   -6.3269   -2.8771    2.1991 N   0  0  0  0  0  0  0  0  0  0  0  0
   -5.9333   -0.7939    3.1077 N   0  0  0  0  0  0  0  0  0  0  0  0
   -9.6303   -0.7116    4.6596 C   0  0  0  0  0  0  0  0  0  0  0  0
  -10.5117   -1.7097    4.3446 C   0  0  0  0  0  0  0  0  0  0  0  0
  -11.8602   -1.3479    4.1128 O   0  0  0  0  0  0  0  0  0  0  0  0
  -10.0303   -2.8374    3.7961 C   0  0  0  0  0  0  0  0  0  0  0  0
  -10.7837   -4.0389    3.8809 O   0  0  0  0  0  0  0  0  0  0  0  0
   -8.8041   -2.8495    3.2377 C   0  0  0  0  0  0  0  0  0  0  0  0
   -5.5639    1.3060    3.9681 N   0  0  0  0  0  0  0  0  0  0  0  0
   -5.1693    1.5487    5.2217 C   0  0  0  0  0  0  0  0  0  0  0  0
   -6.2738    2.2612    5.9876 C   0  0  0  0  0  0  0  0  0  0  0  0
   -6.5568    3.4662    5.3786 N   0  0  0  0  0  0  0  0  0  0  0  0
   -6.9993    3.1842    4.1046 C   0  0  0  0  0  0  0  0  0  0  0  0
   -5.8962    2.4766    3.3354 C   0  0  0  0  0  0  0  0  0  0  0  0
  -12.6030   -1.6762    5.2590 C   0  0  0  0  0  0  0  0  0  0  0  0
  -10.4260   -4.7127    5.0592 C   0  0  0  0  0  0  0  0  0  0  0  0
  1 14  1  0  0  0  0
  1  2  2  0  0  0  0
  3  2  1  0  0  0  0
  3  8  2  0  0  0  0
  4  3  1  0  0  0  0
  5  7  2  0  0  0  0
  5  4  1  0  0  0  0
  6  5  1  0  0  0  0
  7  1  1  0  0  0  0
  9 10  1  0  0  0  0
  9  8  1  0  0  0  0
 11  9  2  0  0  0  0
 12 11  1  0  0  0  0
 13  4  2  0  0  0  0
 13 11  1  0  0  0  0
 14 15  1  0  0  0  0
 16 15  1  0  0  0  0
 17 16  1  0  0  0  0
 18 17  1  0  0  0  0
 18 19  1  0  0  0  0
 19 14  1  0  0  0  0
 20 10  1  0  0  0  0
 21 12  1  0  0  0  0
M  END
>  <CHROM.1>
67.36662782,-102.27289722,-89.47487807,-8.14607971,-0.63073752,4.11711293
-0.77462943,-0.32442754,-2.77850834

>  <Name>
lig.pdb

>  <RI>
3.31914e+07

>  <Rbt.Current_Directory>
/home/itssahil/PROJECTS/Mol_Feturizer/New_Systems/rnas/2lwk

>  <Rbt.Executable>
rbdock ($Id: //depot/dev/client3/rdock/2013.1/src/exe/rbdock.cxx#4 $)

>  <Rbt.Library>
libRbt.so (2013.1, Build901 2013/11/27)

>  <Rbt.Parameter_File>
/export/apps/rDock/src/rDock_2013.1_src/data/scripts/dock_solv.prm

>  <Rbt.Receptor>
prm/pocket_docking_3.prm

>  <SCORE>
-18.9504

>  <SCORE.INTER>
-13.5488

>  <SCORE.INTER.CONST>
1

>  <SCORE.INTER.POLAR>
-2.07287

>  <SCORE.INTER.ROT>
3

>  <SCORE.INTER.SOLV>
6.86442

>  <SCORE.INTER.VDW>
-10.0111

>  <SCORE.INTER.norm>
-0.645182

>  <SCORE.INTRA>
-5.40155

>  <SCORE.INTRA.DIHEDRAL>
1.01402

>  <SCORE.INTRA.DIHEDRAL.0>
8.84257

>  <SCORE.INTRA.POLAR>
0

>  <SCORE.INTRA.POLAR.0>
0

>  <SCORE.INTRA.REPUL>
0

>  <SCORE.INTRA.REPUL.0>
0

>  <SCORE.INTRA.SOLV>
0.0985301

>  <SCORE.INTRA.SOLV.lig_0>
-17.1313

>  <SCORE.INTRA.VDW>
-5.95783

>  <SCORE.INTRA.VDW.0>
6.34071

>  <SCORE.INTRA.norm>
-0.257217

>  <SCORE.RESTR>
0

>  <SCORE.RESTR.CAVITY>
0

>  <SCORE.RESTR.norm>
0

>  <SCORE.SYSTEM>
0

>  <SCORE.SYSTEM.CONST>
0

>  <SCORE.SYSTEM.DIHEDRAL>
0

>  <SCORE.SYSTEM.SOLV>
0

>  <SCORE.SYSTEM.norm>
0

>  <SCORE.heavy>
21

>  <SCORE.norm>
-0.902399

>  <RMSD>
1.275

$$$$
lig.pdb
 OpenBabel11021811453D
libRbt.so/2013.1/901 2013/11/27
 21 23  0  0  0  0  0  0  0  0999 V2000
   -6.3188    0.3524    3.7642 C   0  0  0  0  0  0  0  0  0  0  0  0
   -7.5793    0.4604    4.1689 N   0  0  0  0  0  0  0  0  0  0  0  0
   -8.3462   -0.6131    4.2337 C   0  0  0  0  0  0  0  0  0  0  0  0
   -7.8690   -1.8055    3.8230 C   0  0  0  0  0  0  0  0  0  0  0  0
   -6.5961   -1.9112    3.4189 C   0  0  0  0  0  0  0  0  0  0  0  0
   -6.1177   -3.0845    3.0065 N   0  0  0  0  0  0  0  0  0  0  0  0
   -5.8258   -0.8286    3.3887 N   0  0  0  0  0  0  0  0  0  0  0  0
   -9.6129   -0.4993    4.6663 C   0  0  0  0  0  0  0  0  0  0  0  0
  -10.4515   -1.5754    4.5616 C   0  0  0  0  0  0  0  0  0  0  0  0
  -11.7905   -1.3309    4.1736 O   0  0  0  0  0  0  0  0  0  0  0  0
   -9.9130   -2.7855    4.3380 C   0  0  0  0  0  0  0  0  0  0  0  0
  -10.6443   -3.9551    4.6775 O   0  0  0  0  0  0  0  0  0  0  0  0
   -8.6545   -2.8907    3.8683 C   0  0  0  0  0  0  0  0  0  0  0  0
   -5.5555    1.4306    3.7188 N   0  0  0  0  0  0  0  0  0  0  0  0
   -4.9716    1.7949    4.8644 C   0  0  0  0  0  0  0  0  0  0  0  0
   -5.9683    2.5310    5.7469 C   0  0  0  0  0  0  0  0  0  0  0  0
   -6.4078    3.6679    5.1008 N   0  0  0  0  0  0  0  0  0  0  0  0
   -7.0403    3.2610    3.9464 C   0  0  0  0  0  0  0  0  0  0  0  0
   -6.0458    2.5293    3.0605 C   0  0  0  0  0  0  0  0  0  0  0  0
  -12.6273   -1.6941    5.2418 C   0  0  0  0  0  0  0  0  0  0  0  0
  -11.1172   -4.5494    3.4970 C   0  0  0  0  0  0  0  0  0  0  0  0
  1 14  1  0  0  0  0
  1  2  2  0  0  0  0
  3  2  1  0  0  0  0
  3  8  2  0  0  0  0
  4  3  1  0  0  0  0
  5  7  2  0  0  0  0
  5  4  1  0  0  0  0
  6  5  1  0  0  0  0
  7  1  1  0  0  0  0
  9 10  1  0  0  0  0
  9  8  1  0  0  0  0
 11  9  2  0  0  0  0
 12 11  1  0  0  0  0
 13  4  2  0  0  0  0
 13 11  1  0  0  0  0
 14 15  1  0  0  0  0
 16 15  1  0  0  0  0
 17 16  1  0  0  0  0
 18 17  1  0  0  0  0
 18 19  1  0  0  0  0
 19 14  1  0  0  0  0
 20 10  1  0  0  0  0
 21 12  1  0  0  0  0
M  END
>  <CHROM.1>
83.53223343,-115.76770704,106.04048974,-8.10147866,-0.55433740,4.15959246
-0.79127984,-0.23572694,-2.90509565

>  <Name>
lig.pdb

>  <RI>
2.6678e+07

>  <Rbt.Current_Directory>
/home/itssahil/PROJECTS/Mol_Feturizer/New_Systems/rnas/2lwk

>  <Rbt.Executable>
rbdock ($Id: //depot/dev/client3/rdock/2013.1/src/exe/rbdock.cxx#4 $)

>  <Rbt.Library>
libRbt.so (2013.1, Build901 2013/11/27)

>  <Rbt.Parameter_File>
/export/apps/rDock/src/rDock_2013.1_src/data/scripts/dock_solv.prm

>  <Rbt.Receptor>
prm/pocket_docking_2.prm

>  <SCORE>
-17.9084

>  <SCORE.INTER>
-12.8845

>  <SCORE.INTER.CONST>
1

>  <SCORE.INTER.POLAR>
-1.84202

>  <SCORE.INTER.ROT>
3

>  <SCORE.INTER.SOLV>
6.15974

>  <SCORE.INTER.VDW>
-10.1028

>  <SCORE.INTER.norm>
-0.613548

>  <SCORE.INTRA>
-5.09148

>  <SCORE.INTRA.DIHEDRAL>
0.48635

>  <SCORE.INTRA.DIHEDRAL.0>
8.84257

>  <SCORE.INTRA.POLAR>
0

>  <SCORE.INTRA.POLAR.0>
0

>  <SCORE.INTRA.REPUL>
0

>  <SCORE.INTRA.REPUL.0>
0

>  <SCORE.INTRA.SOLV>
0.143567

>  <SCORE.INTRA.SOLV.lig_0>
-17.1313

>  <SCORE.INTRA.VDW>
-5.40644

>  <SCORE.INTRA.VDW.0>
6.34071

>  <SCORE.INTRA.norm>
-0.242451

>  <SCORE.RESTR>
0.0675664

>  <SCORE.RESTR.CAVITY>
0.0675664

>  <SCORE.RESTR.norm>
0.00321745

>  <SCORE.SYSTEM>
0

>  <SCORE.SYSTEM.CONST>
0

>  <SCORE.SYSTEM.DIHEDRAL>
0

>  <SCORE.SYSTEM.SOLV>
0

>  <SCORE.SYSTEM.norm>
0

>  <SCORE.heavy>
21

>  <SCORE.norm>
-0.852782

>  <RMSD>
1.284

$$$$
lig.pdb
 OpenBabel11021811453D
libRbt.so/2013.1/901 2013/11/27
 21 23  0  0  0  0  0  0  0  0999 V2000
   -6.0660    0.4210    4.0516 C   0  0  0  0  0  0  0  0  0  0  0  0
   -7.2834    0.4526    4.5818 N   0  0  0  0  0  0  0  0  0  0  0  0
   -8.1271   -0.5388    4.3576 C   0  0  0  0  0  0  0  0  0  0  0  0
   -7.7753   -1.5473    3.5346 C   0  0  0  0  0  0  0  0  0  0  0  0
   -6.5452   -1.5776    3.0047 C   0  0  0  0  0  0  0  0  0  0  0  0
   -6.1907   -2.5676    2.1863 N   0  0  0  0  0  0  0  0  0  0  0  0
   -5.6951   -0.5895    3.2641 N   0  0  0  0  0  0  0  0  0  0  0  0
   -9.3484   -0.5107    4.9165 C   0  0  0  0  0  0  0  0  0  0  0  0
  -10.2751   -1.4438    4.5386 C   0  0  0  0  0  0  0  0  0  0  0  0
  -11.6137   -1.0137    4.3761 O   0  0  0  0  0  0  0  0  0  0  0  0
   -9.8510   -2.5350    3.8800 C   0  0  0  0  0  0  0  0  0  0  0  0
  -10.6482   -3.7108    3.8789 O   0  0  0  0  0  0  0  0  0  0  0  0
   -8.6397   -2.5421    3.2899 C   0  0  0  0  0  0  0  0  0  0  0  0
   -5.2242    1.4104    4.2960 N   0  0  0  0  0  0  0  0  0  0  0  0
   -4.9674    1.6693    5.5818 C   0  0  0  0  0  0  0  0  0  0  0  0
   -6.1036    2.4790    6.1879 C   0  0  0  0  0  0  0  0  0  0  0  0
   -6.2265    3.6786    5.5177 N   0  0  0  0  0  0  0  0  0  0  0  0
   -6.5310    3.3830    4.2069 C   0  0  0  0  0  0  0  0  0  0  0  0
   -5.3955    2.5780    3.5972 C   0  0  0  0  0  0  0  0  0  0  0  0
  -12.4040   -1.6787    5.3281 C   0  0  0  0  0  0  0  0  0  0  0  0
  -10.0760   -4.6440    4.7576 C   0  0  0  0  0  0  0  0  0  0  0  0
  1 14  1  0  0  0  0
  1  2  2  0  0  0  0
  3  2  1  0  0  0  0
  3  8  2  0  0  0  0
  4  3  1  0  0  0  0
  5  7  2  0  0  0  0
  5  4  1  0  0  0  0
  6  5  1  0  0  0  0
  7  1  1  0  0  0  0
  9 10  1  0  0  0  0
  9  8  1  0  0  0  0
 11  9  2  0  0  0  0
 12 11  1  0  0  0  0
 13  4  2  0  0  0  0
 13 11  1  0  0  0  0
 14 15  1  0  0  0  0
 16 15  1  0  0  0  0
 17 16  1  0  0  0  0
 18 17  1  0  0  0  0
 18 19  1  0  0  0  0
 19 14  1  0  0  0  0
 20 10  1  0  0  0  0
 21 12  1  0  0  0  0
M  END
>  <CHROM.1>
56.38555166,-116.26316194,-104.26697510,-7.88637208,-0.42657392,4.26245167
-0.75808900,-0.32557079,-2.72826067

>  <Name>
lig.pdb

>  <RI>
2.6678e+07

>  <Rbt.Current_Directory>
/home/itssahil/PROJECTS/Mol_Feturizer/New_Systems/rnas/2lwk

>  <Rbt.Executable>
rbdock ($Id: //depot/dev/client3/rdock/2013.1/src/exe/rbdock.cxx#4 $)

>  <Rbt.Library>
libRbt.so (2013.1, Build901 2013/11/27)

>  <Rbt.Parameter_File>
/export/apps/rDock/src/rDock_2013.1_src/data/scripts/dock_solv.prm

>  <Rbt.Receptor>
prm/pocket_docking_2.prm

>  <SCORE>
-18.3294

>  <SCORE.INTER>
-13.5147

>  <SCORE.INTER.CONST>
1

>  <SCORE.INTER.POLAR>
-1.8005

>  <SCORE.INTER.ROT>
3

>  <SCORE.INTER.SOLV>
5.92618

>  <SCORE.INTER.VDW>
-10.5836

>  <SCORE.INTER.norm>
-0.643559

>  <SCORE.INTRA>
-4.81729

>  <SCORE.INTRA.DIHEDRAL>
0.390709

>  <SCORE.INTRA.DIHEDRAL.0>
8.84257

>  <SCORE.INTRA.POLAR>
0

>  <SCORE.INTRA.POLAR.0>
0

>  <SCORE.INTRA.REPUL>
0

>  <SCORE.INTRA.REPUL.0>
0

>  <SCORE.INTRA.SOLV>
0.102549

>  <SCORE.INTRA.SOLV.lig_0>
-17.1313

>  <SCORE.INTRA.VDW>
-5.06392

>  <SCORE.INTRA.VDW.0>
6.34071

>  <SCORE.INTRA.norm>
-0.229395

>  <SCORE.RESTR>
0.00261991

>  <SCORE.RESTR.CAVITY>
0.00261991

>  <SCORE.RESTR.norm>
0.000124758

>  <SCORE.SYSTEM>
0

>  <SCORE.SYSTEM.CONST>
0

>  <SCORE.SYSTEM.DIHEDRAL>
0

>  <SCORE.SYSTEM.SOLV>
0

>  <SCORE.SYSTEM.norm>
0

>  <SCORE.heavy>
21

>  <SCORE.norm>
-0.87283

>  <RMSD>
1.297

$$$$
lig.pdb
 OpenBabel11021811453D
libRbt.so/2013.1/901 2013/11/27
 21 23  0  0  0  0  0  0  0  0999 V2000
   -6.1000    0.4502    3.9912 C   0  0  0  0  0  0  0  0  0  0  0  0
   -7.3037    0.4715    4.5524 N   0  0  0  0  0  0  0  0  0  0  0  0
   -8.1525   -0.5163    4.3321 C   0  0  0  0  0  0  0  0  0  0  0  0
   -7.8214   -1.5098    3.4827 C   0  0  0  0  0  0  0  0  0  0  0  0
   -6.6051   -1.5299    2.9214 C   0  0  0  0  0  0  0  0  0  0  0  0
   -6.2712   -2.5050    2.0769 N   0  0  0  0  0  0  0  0  0  0  0  0
   -5.7490   -0.5459    3.1767 N   0  0  0  0  0  0  0  0  0  0  0  0
   -9.3593   -0.4990    4.9221 C   0  0  0  0  0  0  0  0  0  0  0  0
  -10.2950   -1.4260    4.5513 C   0  0  0  0  0  0  0  0  0  0  0  0
  -11.6373   -0.9940    4.4305 O   0  0  0  0  0  0  0  0  0  0  0  0
   -9.8874   -2.5050    3.8630 C   0  0  0  0  0  0  0  0  0  0  0  0
  -10.6841   -3.6812    3.8612 O   0  0  0  0  0  0  0  0  0  0  0  0
   -8.6914   -2.5008    3.2423 C   0  0  0  0  0  0  0  0  0  0  0  0
   -5.2526    1.4357    4.2317 N   0  0  0  0  0  0  0  0  0  0  0  0
   -4.9632    1.6718    5.5149 C   0  0  0  0  0  0  0  0  0  0  0  0
   -6.0839    2.4697    6.1642 C   0  0  0  0  0  0  0  0  0  0  0  0
   -6.2241    3.6809    5.5189 N   0  0  0  0  0  0  0  0  0  0  0  0
   -6.5619    3.4086    4.2112 C   0  0  0  0  0  0  0  0  0  0  0  0
   -5.4420    2.6155    3.5585 C   0  0  0  0  0  0  0  0  0  0  0  0
  -12.3959   -1.6465    5.4163 C   0  0  0  0  0  0  0  0  0  0  0  0
  -10.1180   -4.6102    4.7483 C   0  0  0  0  0  0  0  0  0  0  0  0
  1 14  1  0  0  0  0
  1  2  2  0  0  0  0
  3  2  1  0  0  0  0
  3  8  2  0  0  0  0
  4  3  1  0  0  0  0
  5  7  2  0  0  0  0
  5  4  1  0  0  0  0
  6  5  1  0  0  0  0
  7  1  1  0  0  0  0
  9 10  1  0  0  0  0
  9  8  1  0  0  0  0
 11  9  2  0  0  0  0
 12 11  1  0  0  0  0
 13  4  2  0  0  0  0
 13 11  1  0  0  0  0
 14 15  1  0  0  0  0
 16 15  1  0  0  0  0
 17 16  1  0  0  0  0
 18 17  1  0  0  0  0
 18 19  1  0  0  0  0
 19 14  1  0  0  0  0
 20 10  1  0  0  0  0
 21 12  1  0  0  0  0
M  END
>  <CHROM.1>
56.39742514,-114.53650408,-102.00083407,-7.91536197,-0.39977033,4.23643494
-0.74500705,-0.35103786,-2.70575995

>  <Name>
lig.pdb

>  <RI>
2.6678e+07

>  <Rbt.Current_Directory>
/home/itssahil/PROJECTS/Mol_Feturizer/New_Systems/rnas/2lwk

>  <Rbt.Executable>
rbdock ($Id: //depot/dev/client3/rdock/2013.1/src/exe/rbdock.cxx#4 $)

>  <Rbt.Library>
libRbt.so (2013.1, Build901 2013/11/27)

>  <Rbt.Parameter_File>
/export/apps/rDock/src/rDock_2013.1_src/data/scripts/dock_solv.prm

>  <Rbt.Receptor>
prm/pocket_docking_2.prm

>  <SCORE>
-18.287

>  <SCORE.INTER>
-13.3723

>  <SCORE.INTER.CONST>
1

>  <SCORE.INTER.POLAR>
-1.81681

>  <SCORE.INTER.ROT>
3

>  <SCORE.INTER.SOLV>
6.1129

>  <SCORE.INTER.VDW>
-10.4965

>  <SCORE.INTER.norm>
-0.636777

>  <SCORE.INTRA>
-4.91797

>  <SCORE.INTRA.DIHEDRAL>
0.544446

>  <SCORE.INTRA.DIHEDRAL.0>
8.84257

>  <SCORE.INTRA.POLAR>
0

>  <SCORE.INTRA.POLAR.0>
0

>  <SCORE.INTRA.REPUL>
0

>  <SCORE.INTRA.REPUL.0>
0

>  <SCORE.INTRA.SOLV>
0.101807

>  <SCORE.INTRA.SOLV.lig_0>
-17.1313

>  <SCORE.INTRA.VDW>
-5.2411

>  <SCORE.INTRA.VDW.0>
6.34071

>  <SCORE.INTRA.norm>
-0.234189

>  <SCORE.RESTR>
0.00329169

>  <SCORE.RESTR.CAVITY>
0.00329169

>  <SCORE.RESTR.norm>
0.000156747

>  <SCORE.SYSTEM>
0

>  <SCORE.SYSTEM.CONST>
0

>  <SCORE.SYSTEM.DIHEDRAL>
0

>  <SCORE.SYSTEM.SOLV>
0

>  <SCORE.SYSTEM.norm>
0

>  <SCORE.heavy>
21

>  <SCORE.norm>
-0.87081

>  <RMSD>
1.299

$$$$
lig.pdb
 OpenBabel11021811453D
libRbt.so/2013.1/901 2013/11/27
 21 23  0  0  0  0  0  0  0  0999 V2000
   -6.8894    1.1147    4.2795 C   0  0  0  0  0  0  0  0  0  0  0  0
   -8.1550    0.9193    4.6323 N   0  0  0  0  0  0  0  0  0  0  0  0
   -8.6675   -0.2978    4.6055 C   0  0  0  0  0  0  0  0  0  0  0  0
   -7.9258   -1.3294    4.1539 C   0  0  0  0  0  0  0  0  0  0  0  0
   -6.6486   -1.1291    3.8024 C   0  0  0  0  0  0  0  0  0  0  0  0
   -5.9098   -2.1417    3.3502 N   0  0  0  0  0  0  0  0  0  0  0  0
   -6.1359    0.0955    3.8645 N   0  0  0  0  0  0  0  0  0  0  0  0
   -9.9414   -0.4906    4.9861 C   0  0  0  0  0  0  0  0  0  0  0  0
  -10.5177   -1.7154    4.7868 C   0  0  0  0  0  0  0  0  0  0  0  0
  -11.8644   -1.7462    4.3525 O   0  0  0  0  0  0  0  0  0  0  0  0
   -9.7184   -2.7623    4.5237 C   0  0  0  0  0  0  0  0  0  0  0  0
  -10.1838   -4.0823    4.7674 O   0  0  0  0  0  0  0  0  0  0  0  0
   -8.4532   -2.5608    4.1061 C   0  0  0  0  0  0  0  0  0  0  0  0
   -6.3821    2.3344    4.3259 N   0  0  0  0  0  0  0  0  0  0  0  0
   -7.1272    3.3092    3.7962 C   0  0  0  0  0  0  0  0  0  0  0  0
   -6.9918    3.3047    2.2810 C   0  0  0  0  0  0  0  0  0  0  0  0
   -5.6751    3.5243    1.9330 N   0  0  0  0  0  0  0  0  0  0  0  0
   -4.9372    2.4849    2.4561 C   0  0  0  0  0  0  0  0  0  0  0  0
   -5.0667    2.4898    3.9702 C   0  0  0  0  0  0  0  0  0  0  0  0
  -12.6805   -1.9555    5.4765 C   0  0  0  0  0  0  0  0  0  0  0  0
  -10.8795   -4.5312    3.6339 C   0  0  0  0  0  0  0  0  0  0  0  0
  1 14  1  0  0  0  0
  1  2  2  0  0  0  0
  3  2  1  0  0  0  0
  3  8  2  0  0  0  0
  4  3  1  0  0  0  0
  5  7  2  0  0  0  0
  5  4  1  0  0  0  0
  6  5  1  0  0  0  0
  7  1  1  0  0  0  0
  9 10  1  0  0  0  0
  9  8  1  0  0  0  0
 11  9  2  0  0  0  0
 12 11  1  0  0  0  0
 13  4  2  0  0  0  0
 13 11  1  0  0  0  0
 14 15  1  0  0  0  0
 16 15  1  0  0  0  0
 17 16  1  0  0  0  0
 18 17  1  0  0  0  0
 18 19  1  0  0  0  0
 19 14  1  0  0  0  0
 20 10  1  0  0  0  0
 21 12  1  0  0  0  0
M  END
>  <CHROM.1>
-46.37994739,-98.00555769,86.75416468,-8.15072430,-0.26185942,3.98426571
0.82921178,0.25856738,-0.02494410

>  <Name>
lig.pdb

>  <RI>
2.6678e+07

>  <Rbt.Current_Directory>
/home/itssahil/PROJECTS/Mol_Feturizer/New_Systems/rnas/2lwk

>  <Rbt.Executable>
rbdock ($Id: //depot/dev/client3/rdock/2013.1/src/exe/rbdock.cxx#4 $)

>  <Rbt.Library>
libRbt.so (2013.1, Build901 2013/11/27)

>  <Rbt.Parameter_File>
/export/apps/rDock/src/rDock_2013.1_src/data/scripts/dock_solv.prm

>  <Rbt.Receptor>
prm/pocket_docking_2.prm

>  <SCORE>
-13.7458

>  <SCORE.INTER>
-10.0981

>  <SCORE.INTER.CONST>
1

>  <SCORE.INTER.POLAR>
-1.13524

>  <SCORE.INTER.ROT>
3

>  <SCORE.INTER.SOLV>
5.41755

>  <SCORE.INTER.VDW>
-10.3538

>  <SCORE.INTER.norm>
-0.480862

>  <SCORE.INTRA>
-3.73044

>  <SCORE.INTRA.DIHEDRAL>
0.950757

>  <SCORE.INTRA.DIHEDRAL.0>
8.84257

>  <SCORE.INTRA.POLAR>
0

>  <SCORE.INTRA.POLAR.0>
0

>  <SCORE.INTRA.REPUL>
0

>  <SCORE.INTRA.REPUL.0>
0

>  <SCORE.INTRA.SOLV>
0.0488885

>  <SCORE.INTRA.SOLV.lig_0>
-17.1313

>  <SCORE.INTRA.VDW>
-4.23026

>  <SCORE.INTRA.VDW.0>
6.34071

>  <SCORE.INTRA.norm>
-0.17764

>  <SCORE.RESTR>
0.0827403

>  <SCORE.RESTR.CAVITY>
0.0827403

>  <SCORE.RESTR.norm>
0.00394002

>  <SCORE.SYSTEM>
0

>  <SCORE.SYSTEM.CONST>
0

>  <SCORE.SYSTEM.DIHEDRAL>
0

>  <SCORE.SYSTEM.SOLV>
0

>  <SCORE.SYSTEM.norm>
0

>  <SCORE.heavy>
21

>  <SCORE.norm>
-0.654561

>  <RMSD>
1.313

$$$$
lig.pdb
 OpenBabel11021811453D
libRbt.so/2013.1/901 2013/11/27
 21 23  0  0  0  0  0  0  0  0999 V2000
   -6.0978    0.4473    4.0109 C   0  0  0  0  0  0  0  0  0  0  0  0
   -7.3064    0.4833    4.5607 N   0  0  0  0  0  0  0  0  0  0  0  0
   -8.1549   -0.5080    4.3556 C   0  0  0  0  0  0  0  0  0  0  0  0
   -7.8178   -1.5214    3.5323 C   0  0  0  0  0  0  0  0  0  0  0  0
   -6.5966   -1.5562    2.9826 C   0  0  0  0  0  0  0  0  0  0  0  0
   -6.2568   -2.5510    2.1638 N   0  0  0  0  0  0  0  0  0  0  0  0
   -5.7411   -0.5679    3.2228 N   0  0  0  0  0  0  0  0  0  0  0  0
   -9.3669   -0.4753    4.9341 C   0  0  0  0  0  0  0  0  0  0  0  0
  -10.3008   -1.4092    4.5764 C   0  0  0  0  0  0  0  0  0  0  0  0
  -11.6412   -0.9781    4.4336 O   0  0  0  0  0  0  0  0  0  0  0  0
   -9.8889   -2.5044    3.9168 C   0  0  0  0  0  0  0  0  0  0  0  0
  -10.6875   -3.6792    3.9350 O   0  0  0  0  0  0  0  0  0  0  0  0
   -8.6873   -2.5163    3.3071 C   0  0  0  0  0  0  0  0  0  0  0  0
   -5.2509    1.4369    4.2362 N   0  0  0  0  0  0  0  0  0  0  0  0
   -4.9486    1.6819    5.5148 C   0  0  0  0  0  0  0  0  0  0  0  0
   -6.0648    2.4805    6.1710 C   0  0  0  0  0  0  0  0  0  0  0  0
   -6.2156    3.6872    5.5197 N   0  0  0  0  0  0  0  0  0  0  0  0
   -6.5664    3.4056    4.2173 C   0  0  0  0  0  0  0  0  0  0  0  0
   -5.4510    2.6118    3.5577 C   0  0  0  0  0  0  0  0  0  0  0  0
  -12.4258   -1.6769    5.3660 C   0  0  0  0  0  0  0  0  0  0  0  0
  -10.0887   -4.6179    4.7897 C   0  0  0  0  0  0  0  0  0  0  0  0
  1 14  1  0  0  0  0
  1  2  2  0  0  0  0
  3  2  1  0  0  0  0
  3  8  2  0  0  0  0
  4  3  1  0  0  0  0
  5  7  2  0  0  0  0
  5  4  1  0  0  0  0
  6  5  1  0  0  0  0
  7  1  1  0  0  0  0
  9 10  1  0  0  0  0
  9  8  1  0  0  0  0
 11  9  2  0  0  0  0
 12 11  1  0  0  0  0
 13  4  2  0  0  0  0
 13 11  1  0  0  0  0
 14 15  1  0  0  0  0
 16 15  1  0  0  0  0
 17 16  1  0  0  0  0
 18 17  1  0  0  0  0
 18 19  1  0  0  0  0
 19 14  1  0  0  0  0
 20 10  1  0  0  0  0
 21 12  1  0  0  0  0
M  END
>  <CHROM.1>
57.90146253,-118.59787851,-105.36897382,-7.91319359,-0.40303992,4.26165806
-0.74982706,-0.33719470,-2.72583550

>  <Name>
lig.pdb

>  <RI>
2.6678e+07

>  <Rbt.Current_Directory>
/home/itssahil/PROJECTS/Mol_Feturizer/New_Systems/rnas/2lwk

>  <Rbt.Executable>
rbdock ($Id: //depot/dev/client3/rdock/2013.1/src/exe/rbdock.cxx#4 $)

>  <Rbt.Library>
libRbt.so (2013.1, Build901 2013/11/27)

>  <Rbt.Parameter_File>
/export/apps/rDock/src/rDock_2013.1_src/data/scripts/dock_solv.prm

>  <Rbt.Receptor>
prm/pocket_docking_2.prm

>  <SCORE>
-18.4086

>  <SCORE.INTER>
-13.668

>  <SCORE.INTER.CONST>
1

>  <SCORE.INTER.POLAR>
-1.82146

>  <SCORE.INTER.ROT>
3

>  <SCORE.INTER.SOLV>
5.99435

>  <SCORE.INTER.VDW>
-10.6386

>  <SCORE.INTER.norm>
-0.650858

>  <SCORE.INTRA>
-4.75785

>  <SCORE.INTRA.DIHEDRAL>
0.248929

>  <SCORE.INTRA.DIHEDRAL.0>
8.84257

>  <SCORE.INTRA.POLAR>
0

>  <SCORE.INTRA.POLAR.0>
0

>  <SCORE.INTRA.REPUL>
0

>  <SCORE.INTRA.REPUL.0>
0

>  <SCORE.INTRA.SOLV>
0.105209

>  <SCORE.INTRA.SOLV.lig_0>
-17.1313

>  <SCORE.INTRA.VDW>
-4.93492

>  <SCORE.INTRA.VDW.0>
6.34071

>  <SCORE.INTRA.norm>
-0.226564

>  <SCORE.RESTR>
0.0172402

>  <SCORE.RESTR.CAVITY>
0.0172402

>  <SCORE.RESTR.norm>
0.00082096

>  <SCORE.SYSTEM>
0

>  <SCORE.SYSTEM.CONST>
0

>  <SCORE.SYSTEM.DIHEDRAL>
0

>  <SCORE.SYSTEM.SOLV>
0

>  <SCORE.SYSTEM.norm>
0

>  <SCORE.heavy>
21

>  <SCORE.norm>
-0.876601

>  <RMSD>
1.314

$$$$
lig.pdb
 OpenBabel11021811453D
libRbt.so/2013.1/901 2013/11/27
 21 23  0  0  0  0  0  0  0  0999 V2000
   -6.4462   -0.2730    3.8931 C   0  0  0  0  0  0  0  0  0  0  0  0
   -7.6341   -0.2831    4.4873 N   0  0  0  0  0  0  0  0  0  0  0  0
   -8.5522   -1.1559    4.1129 C   0  0  0  0  0  0  0  0  0  0  0  0
   -8.3063   -1.9889    3.0815 C   0  0  0  0  0  0  0  0  0  0  0  0
   -7.1057   -1.9783    2.4871 C   0  0  0  0  0  0  0  0  0  0  0  0
   -6.8557   -2.7944    1.4639 N   0  0  0  0  0  0  0  0  0  0  0  0
   -6.1799   -1.1164    2.8949 N   0  0  0  0  0  0  0  0  0  0  0  0
   -9.7429   -1.1752    4.7346 C   0  0  0  0  0  0  0  0  0  0  0  0
  -10.7466   -1.9544    4.2268 C   0  0  0  0  0  0  0  0  0  0  0  0
  -12.0587   -1.4239    4.2332 O   0  0  0  0  0  0  0  0  0  0  0  0
  -10.4270   -2.9065    3.3349 C   0  0  0  0  0  0  0  0  0  0  0  0
  -11.3014   -4.0087    3.1379 O   0  0  0  0  0  0  0  0  0  0  0  0
   -9.2462   -2.8596    2.6875 C   0  0  0  0  0  0  0  0  0  0  0  0
   -5.5293    0.5939    4.2870 N   0  0  0  0  0  0  0  0  0  0  0  0
   -5.2904    0.6518    5.6006 C   0  0  0  0  0  0  0  0  0  0  0  0
   -6.3698    1.4714    6.2915 C   0  0  0  0  0  0  0  0  0  0  0  0
   -6.3670    2.7568    5.7908 N   0  0  0  0  0  0  0  0  0  0  0  0
   -6.6558    2.6704    4.4463 C   0  0  0  0  0  0  0  0  0  0  0  0
   -5.5766    1.8561    3.7526 C   0  0  0  0  0  0  0  0  0  0  0  0
  -12.6180   -1.6588    5.5001 C   0  0  0  0  0  0  0  0  0  0  0  0
  -11.0395   -4.9734    4.1233 C   0  0  0  0  0  0  0  0  0  0  0  0
  1 14  1  0  0  0  0
  1  2  2  0  0  0  0
  3  2  1  0  0  0  0
  3  8  2  0  0  0  0
  4  3  1  0  0  0  0
  5  7  2  0  0  0  0
  5  4  1  0  0  0  0
  6  5  1  0  0  0  0
  7  1  1  0  0  0  0
  9 10  1  0  0  0  0
  9  8  1  0  0  0  0
 11  9  2  0  0  0  0
 12 11  1  0  0  0  0
 13  4  2  0  0  0  0
 13 11  1  0  0  0  0
 14 15  1  0  0  0  0
 16 15  1  0  0  0  0
 17 16  1  0  0  0  0
 18 17  1  0  0  0  0
 18 19  1  0  0  0  0
 19 14  1  0  0  0  0
 20 10  1  0  0  0  0
 21 12  1  0  0  0  0
M  END
>  <CHROM.1>
50.23388822,-83.73741952,-83.46573765,-8.31833769,-0.98066362,4.03786307
-0.65696333,-0.35977473,-2.50166702

>  <Name>
lig.pdb

>  <RI>
2.6678e+07

>  <Rbt.Current_Directory>
/home/itssahil/PROJECTS/Mol_Feturizer/New_Systems/rnas/2lwk

>  <Rbt.Executable>
rbdock ($Id: //depot/dev/client3/rdock/2013.1/src/exe/rbdock.cxx#4 $)

>  <Rbt.Library>
libRbt.so (2013.1, Build901 2013/11/27)

>  <Rbt.Parameter_File>
/export/apps/rDock/src/rDock_2013.1_src/data/scripts/dock_solv.prm

>  <Rbt.Receptor>
prm/pocket_docking_2.prm

>  <SCORE>
-18.5344

>  <SCORE.INTER>
-13.6204

>  <SCORE.INTER.CONST>
1

>  <SCORE.INTER.POLAR>
-1.6504

>  <SCORE.INTER.ROT>
3

>  <SCORE.INTER.SOLV>
7.55306

>  <SCORE.INTER.VDW>
-11.6966

>  <SCORE.INTER.norm>
-0.648592

>  <SCORE.INTRA>
-4.93271

>  <SCORE.INTRA.DIHEDRAL>
0.555509

>  <SCORE.INTRA.DIHEDRAL.0>
8.84257

>  <SCORE.INTRA.POLAR>
0

>  <SCORE.INTRA.POLAR.0>
0

>  <SCORE.INTRA.REPUL>
0

>  <SCORE.INTRA.REPUL.0>
0

>  <SCORE.INTRA.SOLV>
0.0785294

>  <SCORE.INTRA.SOLV.lig_0>
-17.1313

>  <SCORE.INTRA.VDW>
-5.24973

>  <SCORE.INTRA.VDW.0>
6.34071

>  <SCORE.INTRA.norm>
-0.234891

>  <SCORE.RESTR>
0.0187072

>  <SCORE.RESTR.CAVITY>
0.0187072

>  <SCORE.RESTR.norm>
0.000890817

>  <SCORE.SYSTEM>
0

>  <SCORE.SYSTEM.CONST>
0

>  <SCORE.SYSTEM.DIHEDRAL>
0

>  <SCORE.SYSTEM.SOLV>
0

>  <SCORE.SYSTEM.norm>
0

>  <SCORE.heavy>
21

>  <SCORE.norm>
-0.882592

>  <RMSD>
1.389

$$$$
lig.pdb
 OpenBabel11021811453D
libRbt.so/2013.1/901 2013/11/27
 21 23  0  0  0  0  0  0  0  0999 V2000
   -6.4400   -0.2786    3.8902 C   0  0  0  0  0  0  0  0  0  0  0  0
   -7.6272   -0.2872    4.4859 N   0  0  0  0  0  0  0  0  0  0  0  0
   -8.5472   -1.1582    4.1120 C   0  0  0  0  0  0  0  0  0  0  0  0
   -8.3040   -1.9909    3.0797 C   0  0  0  0  0  0  0  0  0  0  0  0
   -7.1042   -1.9818    2.4838 C   0  0  0  0  0  0  0  0  0  0  0  0
   -6.8569   -2.7975    1.4596 N   0  0  0  0  0  0  0  0  0  0  0  0
   -6.1764   -1.1217    2.8910 N   0  0  0  0  0  0  0  0  0  0  0  0
   -9.7371   -1.1760    4.7353 C   0  0  0  0  0  0  0  0  0  0  0  0
  -10.7427   -1.9531    4.2282 C   0  0  0  0  0  0  0  0  0  0  0  0
  -12.0540   -1.4205    4.2367 O   0  0  0  0  0  0  0  0  0  0  0  0
  -10.4258   -2.9052    3.3352 C   0  0  0  0  0  0  0  0  0  0  0  0
  -11.3023   -4.0057    3.1385 O   0  0  0  0  0  0  0  0  0  0  0  0
   -9.2458   -2.8597    2.6863 C   0  0  0  0  0  0  0  0  0  0  0  0
   -5.5212    0.5865    4.2835 N   0  0  0  0  0  0  0  0  0  0  0  0
   -5.2814    0.6438    5.5970 C   0  0  0  0  0  0  0  0  0  0  0  0
   -6.3587    1.4654    6.2886 C   0  0  0  0  0  0  0  0  0  0  0  0
   -6.3537    2.7509    5.7880 N   0  0  0  0  0  0  0  0  0  0  0  0
   -6.6436    2.6652    4.4438 C   0  0  0  0  0  0  0  0  0  0  0  0
   -5.5664    1.8488    3.7492 C   0  0  0  0  0  0  0  0  0  0  0  0
  -12.6161   -1.6656    5.5004 C   0  0  0  0  0  0  0  0  0  0  0  0
  -11.0216   -4.9838    4.1054 C   0  0  0  0  0  0  0  0  0  0  0  0
  1 14  1  0  0  0  0
  1  2  2  0  0  0  0
  3  2  1  0  0  0  0
  3  8  2  0  0  0  0
  4  3  1  0  0  0  0
  5  7  2  0  0  0  0
  5  4  1  0  0  0  0
  6  5  1  0  0  0  0
  7  1  1  0  0  0  0
  9 10  1  0  0  0  0
  9  8  1  0  0  0  0
 11  9  2  0  0  0  0
 12 11  1  0  0  0  0
 13  4  2  0  0  0  0
 13 11  1  0  0  0  0
 14 15  1  0  0  0  0
 16 15  1  0  0  0  0
 17 16  1  0  0  0  0
 18 17  1  0  0  0  0
 18 19  1  0  0  0  0
 19 14  1  0  0  0  0
 20 10  1  0  0  0  0
 21 12  1  0  0  0  0
M  END
>  <CHROM.1>
50.17910291,-84.22999214,-84.69577958,-8.31241643,-0.98425895,4.03542546
-0.65603655,-0.35938593,-2.50106370

>  <Name>
lig.pdb

>  <RI>
2.6678e+07

>  <Rbt.Current_Directory>
/home/itssahil/PROJECTS/Mol_Feturizer/New_Systems/rnas/2lwk

>  <Rbt.Executable>
rbdock ($Id: //depot/dev/client3/rdock/2013.1/src/exe/rbdock.cxx#4 $)

>  <Rbt.Library>
libRbt.so (2013.1, Build901 2013/11/27)

>  <Rbt.Parameter_File>
/export/apps/rDock/src/rDock_2013.1_src/data/scripts/dock_solv.prm

>  <Rbt.Receptor>
prm/pocket_docking_2.prm

>  <SCORE>
-18.5271

>  <SCORE.INTER>
-13.6094

>  <SCORE.INTER.CONST>
1

>  <SCORE.INTER.POLAR>
-1.62797

>  <SCORE.INTER.ROT>
3

>  <SCORE.INTER.SOLV>
7.52328

>  <SCORE.INTER.VDW>
-11.7541

>  <SCORE.INTER.norm>
-0.648065

>  <SCORE.INTRA>
-4.93416

>  <SCORE.INTRA.DIHEDRAL>
0.591991

>  <SCORE.INTRA.DIHEDRAL.0>
8.84257

>  <SCORE.INTRA.POLAR>
0

>  <SCORE.INTRA.POLAR.0>
0

>  <SCORE.INTRA.REPUL>
0

>  <SCORE.INTRA.REPUL.0>
0

>  <SCORE.INTRA.SOLV>
0.0781442

>  <SCORE.INTRA.SOLV.lig_0>
-17.1313

>  <SCORE.INTRA.VDW>
-5.26923

>  <SCORE.INTRA.VDW.0>
6.34071

>  <SCORE.INTRA.norm>
-0.23496

>  <SCORE.RESTR>
0.016455

>  <SCORE.RESTR.CAVITY>
0.016455

>  <SCORE.RESTR.norm>
0.000783574

>  <SCORE.SYSTEM>
0

>  <SCORE.SYSTEM.CONST>
0

>  <SCORE.SYSTEM.DIHEDRAL>
0

>  <SCORE.SYSTEM.SOLV>
0

>  <SCORE.SYSTEM.norm>
0

>  <SCORE.heavy>
21

>  <SCORE.norm>
-0.882241

>  <RMSD>
1.389

$$$$
lig.pdb
 OpenBabel11021811453D
libRbt.so/2013.1/901 2013/11/27
 21 23  0  0  0  0  0  0  0  0999 V2000
   -6.4487   -0.2992    3.8881 C   0  0  0  0  0  0  0  0  0  0  0  0
   -7.6362   -0.3059    4.4832 N   0  0  0  0  0  0  0  0  0  0  0  0
   -8.5571   -1.1760    4.1095 C   0  0  0  0  0  0  0  0  0  0  0  0
   -8.3145   -2.0097    3.0779 C   0  0  0  0  0  0  0  0  0  0  0  0
   -7.1144   -2.0025    2.4825 C   0  0  0  0  0  0  0  0  0  0  0  0
   -6.8676   -2.8193    1.4590 N   0  0  0  0  0  0  0  0  0  0  0  0
   -6.1857   -1.1433    2.8896 N   0  0  0  0  0  0  0  0  0  0  0  0
   -9.7474   -1.1919    4.7322 C   0  0  0  0  0  0  0  0  0  0  0  0
  -10.7537   -1.9681    4.2252 C   0  0  0  0  0  0  0  0  0  0  0  0
  -12.0643   -1.4338    4.2327 O   0  0  0  0  0  0  0  0  0  0  0  0
  -10.4376   -2.9211    3.3330 C   0  0  0  0  0  0  0  0  0  0  0  0
  -11.3154   -4.0207    3.1366 O   0  0  0  0  0  0  0  0  0  0  0  0
   -9.2572   -2.8776    2.6846 C   0  0  0  0  0  0  0  0  0  0  0  0
   -5.5290    0.5649    4.2812 N   0  0  0  0  0  0  0  0  0  0  0  0
   -5.2962    0.6294    5.5957 C   0  0  0  0  0  0  0  0  0  0  0  0
   -6.3744    1.4591    6.2763 C   0  0  0  0  0  0  0  0  0  0  0  0
   -6.3620    2.7415    5.7679 N   0  0  0  0  0  0  0  0  0  0  0  0
   -6.6447    2.6486    4.4226 C   0  0  0  0  0  0  0  0  0  0  0  0
   -5.5667    1.8241    3.7391 C   0  0  0  0  0  0  0  0  0  0  0  0
  -12.6248   -1.6711    5.4986 C   0  0  0  0  0  0  0  0  0  0  0  0
  -11.0241   -5.0061    4.0928 C   0  0  0  0  0  0  0  0  0  0  0  0
  1 14  1  0  0  0  0
  1  2  2  0  0  0  0
  3  2  1  0  0  0  0
  3  8  2  0  0  0  0
  4  3  1  0  0  0  0
  5  7  2  0  0  0  0
  5  4  1  0  0  0  0
  6  5  1  0  0  0  0
  7  1  1  0  0  0  0
  9 10  1  0  0  0  0
  9  8  1  0  0  0  0
 11  9  2  0  0  0  0
 12 11  1  0  0  0  0
 13  4  2  0  0  0  0
 13 11  1  0  0  0  0
 14 15  1  0  0  0  0
 16 15  1  0  0  0  0
 17 16  1  0  0  0  0
 18 17  1  0  0  0  0
 18 19  1  0  0  0  0
 19 14  1  0  0  0  0
 20 10  1  0  0  0  0
 21 12  1  0  0  0  0
M  END
>  <CHROM.1>
49.73309193,-83.92780228,-85.49623215,-8.32169236,-1.00100655,4.03003596
-0.65652339,-0.35823238,-2.50373524

>  <Name>
lig.pdb

>  <RI>
2.6678e+07

>  <Rbt.Current_Directory>
/home/itssahil/PROJECTS/Mol_Feturizer/New_Systems/rnas/2lwk

>  <Rbt.Executable>
rbdock ($Id: //depot/dev/client3/rdock/2013.1/src/exe/rbdock.cxx#4 $)

>  <Rbt.Library>
libRbt.so (2013.1, Build901 2013/11/27)

>  <Rbt.Parameter_File>
/export/apps/rDock/src/rDock_2013.1_src/data/scripts/dock_solv.prm

>  <Rbt.Receptor>
prm/pocket_docking_2.prm

>  <SCORE>
-18.5355

>  <SCORE.INTER>
-13.6519

>  <SCORE.INTER.CONST>
1

>  <SCORE.INTER.POLAR>
-1.63737

>  <SCORE.INTER.ROT>
3

>  <SCORE.INTER.SOLV>
7.53242

>  <SCORE.INTER.VDW>
-11.7542

>  <SCORE.INTER.norm>
-0.650091

>  <SCORE.INTRA>
-4.9084

>  <SCORE.INTRA.DIHEDRAL>
0.585341

>  <SCORE.INTRA.DIHEDRAL.0>
8.84257

>  <SCORE.INTRA.POLAR>
0

>  <SCORE.INTRA.POLAR.0>
0

>  <SCORE.INTRA.REPUL>
0

>  <SCORE.INTRA.REPUL.0>
0

>  <SCORE.INTRA.SOLV>
0.0771073

>  <SCORE.INTRA.SOLV.lig_0>
-17.1313

>  <SCORE.INTRA.VDW>
-5.23962

>  <SCORE.INTRA.VDW.0>
6.34071

>  <SCORE.INTRA.norm>
-0.233733

>  <SCORE.RESTR>
0.0247893

>  <SCORE.RESTR.CAVITY>
0.0247893

>  <SCORE.RESTR.norm>
0.00118044

>  <SCORE.SYSTEM>
0

>  <SCORE.SYSTEM.CONST>
0

>  <SCORE.SYSTEM.DIHEDRAL>
0

>  <SCORE.SYSTEM.SOLV>
0

>  <SCORE.SYSTEM.norm>
0

>  <SCORE.heavy>
21

>  <SCORE.norm>
-0.882644

>  <RMSD>
1.390

$$$$
lig.pdb
 OpenBabel11021811453D
libRbt.so/2013.1/901 2013/11/27
 21 23  0  0  0  0  0  0  0  0999 V2000
   -6.4412   -0.2859    3.8917 C   0  0  0  0  0  0  0  0  0  0  0  0
   -7.6291   -0.2911    4.4860 N   0  0  0  0  0  0  0  0  0  0  0  0
   -8.5508   -1.1602    4.1118 C   0  0  0  0  0  0  0  0  0  0  0  0
   -8.3085   -1.9943    3.0804 C   0  0  0  0  0  0  0  0  0  0  0  0
   -7.1079   -1.9887    2.4859 C   0  0  0  0  0  0  0  0  0  0  0  0
   -6.8614   -2.8058    1.4627 N   0  0  0  0  0  0  0  0  0  0  0  0
   -6.1785   -1.1305    2.8935 N   0  0  0  0  0  0  0  0  0  0  0  0
   -9.7415   -1.1746    4.7336 C   0  0  0  0  0  0  0  0  0  0  0  0
  -10.7484   -1.9496    4.2260 C   0  0  0  0  0  0  0  0  0  0  0  0
  -12.0584   -1.4138    4.2324 O   0  0  0  0  0  0  0  0  0  0  0  0
  -10.4328   -2.9032    3.3341 C   0  0  0  0  0  0  0  0  0  0  0  0
  -11.3118   -4.0017    3.1373 O   0  0  0  0  0  0  0  0  0  0  0  0
   -9.2519   -2.8612    2.6866 C   0  0  0  0  0  0  0  0  0  0  0  0
   -5.5207    0.5772    4.2854 N   0  0  0  0  0  0  0  0  0  0  0  0
   -5.2771    0.6297    5.5984 C   0  0  0  0  0  0  0  0  0  0  0  0
   -6.3519    1.4496    6.2960 C   0  0  0  0  0  0  0  0  0  0  0  0
   -6.3476    2.7368    5.8000 N   0  0  0  0  0  0  0  0  0  0  0  0
   -6.6414    2.6560    4.4562 C   0  0  0  0  0  0  0  0  0  0  0  0
   -5.5667    1.8414    3.7557 C   0  0  0  0  0  0  0  0  0  0  0  0
  -12.6176   -1.6442    5.5002 C   0  0  0  0  0  0  0  0  0  0  0  0
  -11.0083   -4.9962    4.0803 C   0  0  0  0  0  0  0  0  0  0  0  0
  1 14  1  0  0  0  0
  1  2  2  0  0  0  0
  3  2  1  0  0  0  0
  3  8  2  0  0  0  0
  4  3  1  0  0  0  0
  5  7  2  0  0  0  0
  5  4  1  0  0  0  0
  6  5  1  0  0  0  0
  7  1  1  0  0  0  0
  9 10  1  0  0  0  0
  9  8  1  0  0  0  0
 11  9  2  0  0  0  0
 12 11  1  0  0  0  0
 13  4  2  0  0  0  0
 13 11  1  0  0  0  0
 14 15  1  0  0  0  0
 16 15  1  0  0  0  0
 17 16  1  0  0  0  0
 18 17  1  0  0  0  0
 18 19  1  0  0  0  0
 19 14  1  0  0  0  0
 20 10  1  0  0  0  0
 21 12  1  0  0  0  0
M  END
>  <CHROM.1>
50.53662470,-83.63132208,-86.41465774,-8.31358763,-0.98832099,4.03614426
-0.65660892,-0.35564367,-2.50120387

>  <Name>
lig.pdb

>  <RI>
2.6678e+07

>  <Rbt.Current_Directory>
/home/itssahil/PROJECTS/Mol_Feturizer/New_Systems/rnas/2lwk

>  <Rbt.Executable>
rbdock ($Id: //depot/dev/client3/rdock/2013.1/src/exe/rbdock.cxx#4 $)

>  <Rbt.Library>
libRbt.so (2013.1, Build901 2013/11/27)

>  <Rbt.Parameter_File>
/export/apps/rDock/src/rDock_2013.1_src/data/scripts/dock_solv.prm

>  <Rbt.Receptor>
prm/pocket_docking_2.prm

>  <SCORE>
-18.5412

>  <SCORE.INTER>
-13.6361

>  <SCORE.INTER.CONST>
1

>  <SCORE.INTER.POLAR>
-1.64627

>  <SCORE.INTER.ROT>
3

>  <SCORE.INTER.SOLV>
7.52575

>  <SCORE.INTER.VDW>
-11.7118

>  <SCORE.INTER.norm>
-0.649339

>  <SCORE.INTRA>
-4.92284

>  <SCORE.INTRA.DIHEDRAL>
0.577077

>  <SCORE.INTRA.DIHEDRAL.0>
8.84257

>  <SCORE.INTRA.POLAR>
0

>  <SCORE.INTRA.POLAR.0>
0

>  <SCORE.INTRA.REPUL>
0

>  <SCORE.INTRA.REPUL.0>
0

>  <SCORE.INTRA.SOLV>
0.076729

>  <SCORE.INTRA.SOLV.lig_0>
-17.1313

>  <SCORE.INTRA.VDW>
-5.24975

>  <SCORE.INTRA.VDW.0>
6.34071

>  <SCORE.INTRA.norm>
-0.234421

>  <SCORE.RESTR>
0.0177843

>  <SCORE.RESTR.CAVITY>
0.0177843

>  <SCORE.RESTR.norm>
0.00084687

>  <SCORE.SYSTEM>
0

>  <SCORE.SYSTEM.CONST>
0

>  <SCORE.SYSTEM.DIHEDRAL>
0

>  <SCORE.SYSTEM.SOLV>
0

>  <SCORE.SYSTEM.norm>
0

>  <SCORE.heavy>
21

>  <SCORE.norm>
-0.882914

>  <RMSD>
1.396

$$$$
lig.pdb
 OpenBabel11021811453D
libRbt.so/2013.1/901 2013/11/27
 21 23  0  0  0  0  0  0  0  0999 V2000
   -6.4271   -0.3142    3.8856 C   0  0  0  0  0  0  0  0  0  0  0  0
   -7.6142   -0.3173    4.4815 N   0  0  0  0  0  0  0  0  0  0  0  0
   -8.5392   -1.1824    4.1062 C   0  0  0  0  0  0  0  0  0  0  0  0
   -8.3009   -2.0145    3.0723 C   0  0  0  0  0  0  0  0  0  0  0  0
   -7.1011   -2.0110    2.4761 C   0  0  0  0  0  0  0  0  0  0  0  0
   -6.8586   -2.8262    1.4503 N   0  0  0  0  0  0  0  0  0  0  0  0
   -6.1685   -1.1569    2.8847 N   0  0  0  0  0  0  0  0  0  0  0  0
   -9.7291   -1.1947    4.7297 C   0  0  0  0  0  0  0  0  0  0  0  0
  -10.7391   -1.9652    4.2213 C   0  0  0  0  0  0  0  0  0  0  0  0
  -12.0473   -1.4253    4.2311 O   0  0  0  0  0  0  0  0  0  0  0  0
  -10.4278   -2.9173    3.3265 C   0  0  0  0  0  0  0  0  0  0  0  0
  -11.3105   -4.0126    3.1279 O   0  0  0  0  0  0  0  0  0  0  0  0
   -9.2476   -2.8773    2.6774 C   0  0  0  0  0  0  0  0  0  0  0  0
   -5.5034    0.5449    4.2803 N   0  0  0  0  0  0  0  0  0  0  0  0
   -5.2628    0.5983    5.5939 C   0  0  0  0  0  0  0  0  0  0  0  0
   -6.3353    1.4245    6.2874 C   0  0  0  0  0  0  0  0  0  0  0  0
   -6.3234    2.7110    5.7894 N   0  0  0  0  0  0  0  0  0  0  0  0
   -6.6141    2.6295    4.4451 C   0  0  0  0  0  0  0  0  0  0  0  0
   -5.5417    1.8085    3.7486 C   0  0  0  0  0  0  0  0  0  0  0  0
  -12.6027   -1.6505    5.5015 C   0  0  0  0  0  0  0  0  0  0  0  0
  -11.0548   -4.9813    4.1110 C   0  0  0  0  0  0  0  0  0  0  0  0
  1 14  1  0  0  0  0
  1  2  2  0  0  0  0
  3  2  1  0  0  0  0
  3  8  2  0  0  0  0
  4  3  1  0  0  0  0
  5  7  2  0  0  0  0
  5  4  1  0  0  0  0
  6  5  1  0  0  0  0
  7  1  1  0  0  0  0
  9 10  1  0  0  0  0
  9  8  1  0  0  0  0
 11  9  2  0  0  0  0
 12 11  1  0  0  0  0
 13  4  2  0  0  0  0
 13 11  1  0  0  0  0
 14 15  1  0  0  0  0
 16 15  1  0  0  0  0
 17 16  1  0  0  0  0
 18 17  1  0  0  0  0
 18 19  1  0  0  0  0
 19 14  1  0  0  0  0
 20 10  1  0  0  0  0
 21 12  1  0  0  0  0
M  END
>  <CHROM.1>
50.18876545,-83.29948067,-83.41818262,-8.30405489,-1.00802843,4.03123517
-0.64990670,-0.35661009,-2.49674422

>  <Name>
lig.pdb

>  <RI>
2.6678e+07

>  <Rbt.Current_Directory>
/home/itssahil/PROJECTS/Mol_Feturizer/New_Systems/rnas/2lwk

>  <Rbt.Executable>
rbdock ($Id: //depot/dev/client3/rdock/2013.1/src/exe/rbdock.cxx#4 $)

>  <Rbt.Library>
libRbt.so (2013.1, Build901 2013/11/27)

>  <Rbt.Parameter_File>
/export/apps/rDock/src/rDock_2013.1_src/data/scripts/dock_solv.prm

>  <Rbt.Receptor>
prm/pocket_docking_2.prm

>  <SCORE>
-18.4349

>  <SCORE.INTER>
-13.516

>  <SCORE.INTER.CONST>
1

>  <SCORE.INTER.POLAR>
-1.59445

>  <SCORE.INTER.ROT>
3

>  <SCORE.INTER.SOLV>
7.43136

>  <SCORE.INTER.VDW>
-11.7729

>  <SCORE.INTER.norm>
-0.643619

>  <SCORE.INTRA>
-4.92289

>  <SCORE.INTRA.DIHEDRAL>
0.534604

>  <SCORE.INTRA.DIHEDRAL.0>
8.84257

>  <SCORE.INTRA.POLAR>
0

>  <SCORE.INTRA.POLAR.0>
0

>  <SCORE.INTRA.REPUL>
0

>  <SCORE.INTRA.REPUL.0>
0

>  <SCORE.INTRA.SOLV>
0.0781459

>  <SCORE.INTRA.SOLV.lig_0>
-17.1313

>  <SCORE.INTRA.VDW>
-5.22926

>  <SCORE.INTRA.VDW.0>
6.34071

>  <SCORE.INTRA.norm>
-0.234423

>  <SCORE.RESTR>
0.00400648

>  <SCORE.RESTR.CAVITY>
0.00400648

>  <SCORE.RESTR.norm>
0.000190785

>  <SCORE.SYSTEM>
0

>  <SCORE.SYSTEM.CONST>
0

>  <SCORE.SYSTEM.DIHEDRAL>
0

>  <SCORE.SYSTEM.SOLV>
0

>  <SCORE.SYSTEM.norm>
0

>  <SCORE.heavy>
21

>  <SCORE.norm>
-0.877852

>  <RMSD>
1.399

$$$$
lig.pdb
 OpenBabel11021811453D
libRbt.so/2013.1/901 2013/11/27
 21 23  0  0  0  0  0  0  0  0999 V2000
   -6.4325   -0.2871    3.8994 C   0  0  0  0  0  0  0  0  0  0  0  0
   -7.6212   -0.2904    4.4920 N   0  0  0  0  0  0  0  0  0  0  0  0
   -8.5440   -1.1576    4.1161 C   0  0  0  0  0  0  0  0  0  0  0  0
   -8.3017   -1.9918    3.0847 C   0  0  0  0  0  0  0  0  0  0  0  0
   -7.1003   -1.9880    2.4919 C   0  0  0  0  0  0  0  0  0  0  0  0
   -6.8538   -2.8052    1.4687 N   0  0  0  0  0  0  0  0  0  0  0  0
   -6.1699   -1.1317    2.9012 N   0  0  0  0  0  0  0  0  0  0  0  0
   -9.7356   -1.1701    4.7363 C   0  0  0  0  0  0  0  0  0  0  0  0
  -10.7432   -1.9432    4.2269 C   0  0  0  0  0  0  0  0  0  0  0  0
  -12.0521   -1.4050    4.2317 O   0  0  0  0  0  0  0  0  0  0  0  0
  -10.4280   -2.8969    3.3350 C   0  0  0  0  0  0  0  0  0  0  0  0
  -11.3087   -3.9938    3.1365 O   0  0  0  0  0  0  0  0  0  0  0  0
   -9.2461   -2.8568    2.6892 C   0  0  0  0  0  0  0  0  0  0  0  0
   -5.5110    0.5742    4.2947 N   0  0  0  0  0  0  0  0  0  0  0  0
   -5.2634    0.6201    5.6073 C   0  0  0  0  0  0  0  0  0  0  0  0
   -6.3363    1.4361    6.3123 C   0  0  0  0  0  0  0  0  0  0  0  0
   -6.3338    2.7258    5.8228 N   0  0  0  0  0  0  0  0  0  0  0  0
   -6.6315    2.6519    4.4796 C   0  0  0  0  0  0  0  0  0  0  0  0
   -5.5588    1.8411    3.7717 C   0  0  0  0  0  0  0  0  0  0  0  0
  -12.6123   -1.6320    5.4997 C   0  0  0  0  0  0  0  0  0  0  0  0
  -10.9886   -5.0015    4.0597 C   0  0  0  0  0  0  0  0  0  0  0  0
  1 14  1  0  0  0  0
  1  2  2  0  0  0  0
  3  2  1  0  0  0  0
  3  8  2  0  0  0  0
  4  3  1  0  0  0  0
  5  7  2  0  0  0  0
  5  4  1  0  0  0  0
  6  5  1  0  0  0  0
  7  1  1  0  0  0  0
  9 10  1  0  0  0  0
  9  8  1  0  0  0  0
 11  9  2  0  0  0  0
 12 11  1  0  0  0  0
 13  4  2  0  0  0  0
 13 11  1  0  0  0  0
 14 15  1  0  0  0  0
 16 15  1  0  0  0  0
 17 16  1  0  0  0  0
 18 17  1  0  0  0  0
 18 19  1  0  0  0  0
 19 14  1  0  0  0  0
 20 10  1  0  0  0  0
 21 12  1  0  0  0  0
M  END
>  <CHROM.1>
50.92216786,-83.48817944,-87.73194644,-8.30489383,-0.98796672,4.04194625
-0.65726581,-0.35235182,-2.49989910

>  <Name>
lig.pdb

>  <RI>
2.6678e+07

>  <Rbt.Current_Directory>
/home/itssahil/PROJECTS/Mol_Feturizer/New_Systems/rnas/2lwk

>  <Rbt.Executable>
rbdock ($Id: //depot/dev/client3/rdock/2013.1/src/exe/rbdock.cxx#4 $)

>  <Rbt.Library>
libRbt.so (2013.1, Build901 2013/11/27)

>  <Rbt.Parameter_File>
/export/apps/rDock/src/rDock_2013.1_src/data/scripts/dock_solv.prm

>  <Rbt.Receptor>
prm/pocket_docking_2.prm

>  <SCORE>
-18.5219

>  <SCORE.INTER>
-13.6206

>  <SCORE.INTER.CONST>
1

>  <SCORE.INTER.POLAR>
-1.63856

>  <SCORE.INTER.ROT>
3

>  <SCORE.INTER.SOLV>
7.49113

>  <SCORE.INTER.VDW>
-11.7156

>  <SCORE.INTER.norm>
-0.648601

>  <SCORE.INTRA>
-4.92092

>  <SCORE.INTRA.DIHEDRAL>
0.574018

>  <SCORE.INTRA.DIHEDRAL.0>
8.84257

>  <SCORE.INTRA.POLAR>
0

>  <SCORE.INTRA.POLAR.0>
0

>  <SCORE.INTRA.REPUL>
0

>  <SCORE.INTRA.REPUL.0>
0

>  <SCORE.INTRA.SOLV>
0.0760014

>  <SCORE.INTRA.SOLV.lig_0>
-17.1313

>  <SCORE.INTRA.VDW>
-5.24593

>  <SCORE.INTRA.VDW.0>
6.34071

>  <SCORE.INTRA.norm>
-0.23433

>  <SCORE.RESTR>
0.019613

>  <SCORE.RESTR.CAVITY>
0.019613

>  <SCORE.RESTR.norm>
0.000933953

>  <SCORE.SYSTEM>
0

>  <SCORE.SYSTEM.CONST>
0

>  <SCORE.SYSTEM.DIHEDRAL>
0

>  <SCORE.SYSTEM.SOLV>
0

>  <SCORE.SYSTEM.norm>
0

>  <SCORE.heavy>
21

>  <SCORE.norm>
-0.881997

>  <RMSD>
1.402

$$$$
lig.pdb
 OpenBabel11021811453D
libRbt.so/2013.1/901 2013/11/27
 21 23  0  0  0  0  0  0  0  0999 V2000
   -6.4423   -0.2973    3.8931 C   0  0  0  0  0  0  0  0  0  0  0  0
   -7.6305   -0.3020    4.4867 N   0  0  0  0  0  0  0  0  0  0  0  0
   -8.5518   -1.1716    4.1130 C   0  0  0  0  0  0  0  0  0  0  0  0
   -8.3088   -2.0069    3.0827 C   0  0  0  0  0  0  0  0  0  0  0  0
   -7.1079   -2.0017    2.4889 C   0  0  0  0  0  0  0  0  0  0  0  0
   -6.8607   -2.8201    1.4667 N   0  0  0  0  0  0  0  0  0  0  0  0
   -6.1789   -1.1430    2.8960 N   0  0  0  0  0  0  0  0  0  0  0  0
   -9.7429   -1.1855    4.7342 C   0  0  0  0  0  0  0  0  0  0  0  0
  -10.7494   -1.9613    4.2269 C   0  0  0  0  0  0  0  0  0  0  0  0
  -12.0594   -1.4257    4.2320 O   0  0  0  0  0  0  0  0  0  0  0  0
  -10.4331   -2.9158    3.3363 C   0  0  0  0  0  0  0  0  0  0  0  0
  -11.3118   -4.0148    3.1403 O   0  0  0  0  0  0  0  0  0  0  0  0
   -9.2519   -2.8744    2.6894 C   0  0  0  0  0  0  0  0  0  0  0  0
   -5.5222    0.5665    4.2862 N   0  0  0  0  0  0  0  0  0  0  0  0
   -5.2755    0.6168    5.5988 C   0  0  0  0  0  0  0  0  0  0  0  0
   -6.3498    1.4337    6.3005 C   0  0  0  0  0  0  0  0  0  0  0  0
   -6.3487    2.7219    5.8070 N   0  0  0  0  0  0  0  0  0  0  0  0
   -6.6455    2.6433    4.4638 C   0  0  0  0  0  0  0  0  0  0  0  0
   -5.5713    1.8317    3.7592 C   0  0  0  0  0  0  0  0  0  0  0  0
  -12.6184   -1.6526    5.5005 C   0  0  0  0  0  0  0  0  0  0  0  0
  -11.1035   -4.9472    4.1686 C   0  0  0  0  0  0  0  0  0  0  0  0
  1 14  1  0  0  0  0
  1  2  2  0  0  0  0
  3  2  1  0  0  0  0
  3  8  2  0  0  0  0
  4  3  1  0  0  0  0
  5  7  2  0  0  0  0
  5  4  1  0  0  0  0
  6  5  1  0  0  0  0
  7  1  1  0  0  0  0
  9 10  1  0  0  0  0
  9  8  1  0  0  0  0
 11  9  2  0  0  0  0
 12 11  1  0  0  0  0
 13  4  2  0  0  0  0
 13 11  1  0  0  0  0
 14 15  1  0  0  0  0
 16 15  1  0  0  0  0
 17 16  1  0  0  0  0
 18 17  1  0  0  0  0
 18 19  1  0  0  0  0
 19 14  1  0  0  0  0
 20 10  1  0  0  0  0
 21 12  1  0  0  0  0
M  END
>  <CHROM.1>
50.79321090,-83.52649152,-80.35440658,-8.31926216,-0.99738832,4.04305823
-0.64998907,-0.35792980,-2.49760114

>  <Name>
lig.pdb

>  <RI>
2.6678e+07

>  <Rbt.Current_Directory>
/home/itssahil/PROJECTS/Mol_Feturizer/New_Systems/rnas/2lwk

>  <Rbt.Executable>
rbdock ($Id: //depot/dev/client3/rdock/2013.1/src/exe/rbdock.cxx#4 $)

>  <Rbt.Library>
libRbt.so (2013.1, Build901 2013/11/27)

>  <Rbt.Parameter_File>
/export/apps/rDock/src/rDock_2013.1_src/data/scripts/dock_solv.prm

>  <Rbt.Receptor>
prm/pocket_docking_2.prm

>  <SCORE>
-18.5416

>  <SCORE.INTER>
-13.6076

>  <SCORE.INTER.CONST>
1

>  <SCORE.INTER.POLAR>
-1.63936

>  <SCORE.INTER.ROT>
3

>  <SCORE.INTER.SOLV>
7.48185

>  <SCORE.INTER.VDW>
-11.7011

>  <SCORE.INTER.norm>
-0.647979

>  <SCORE.INTRA>
-4.95286

>  <SCORE.INTRA.DIHEDRAL>
0.490479

>  <SCORE.INTRA.DIHEDRAL.0>
8.84257

>  <SCORE.INTRA.POLAR>
0

>  <SCORE.INTRA.POLAR.0>
0

>  <SCORE.INTRA.REPUL>
0

>  <SCORE.INTRA.REPUL.0>
0

>  <SCORE.INTRA.SOLV>
0.0807259

>  <SCORE.INTRA.SOLV.lig_0>
-17.1313

>  <SCORE.INTRA.VDW>
-5.23846

>  <SCORE.INTRA.VDW.0>
6.34071

>  <SCORE.INTRA.norm>
-0.235851

>  <SCORE.RESTR>
0.0188667

>  <SCORE.RESTR.CAVITY>
0.0188667

>  <SCORE.RESTR.norm>
0.000898414

>  <SCORE.SYSTEM>
0

>  <SCORE.SYSTEM.CONST>
0

>  <SCORE.SYSTEM.DIHEDRAL>
0

>  <SCORE.SYSTEM.SOLV>
0

>  <SCORE.SYSTEM.norm>
0

>  <SCORE.heavy>
21

>  <SCORE.norm>
-0.882931

>  <RMSD>
1.403

$$$$
lig.pdb
 OpenBabel11021811453D
libRbt.so/2013.1/901 2013/11/27
 21 23  0  0  0  0  0  0  0  0999 V2000
   -6.1563   -0.2268    3.9007 C   0  0  0  0  0  0  0  0  0  0  0  0
   -7.3084   -0.1322    4.5549 N   0  0  0  0  0  0  0  0  0  0  0  0
   -8.2983   -0.9597    4.2718 C   0  0  0  0  0  0  0  0  0  0  0  0
   -8.1615   -1.8537    3.2716 C   0  0  0  0  0  0  0  0  0  0  0  0
   -6.9967   -1.9486    2.6166 C   0  0  0  0  0  0  0  0  0  0  0  0
   -6.8543   -2.8256    1.6235 N   0  0  0  0  0  0  0  0  0  0  0  0
   -5.9980   -1.1309    2.9331 N   0  0  0  0  0  0  0  0  0  0  0  0
   -9.4523   -0.8728    4.9540 C   0  0  0  0  0  0  0  0  0  0  0  0
  -10.5289   -1.6075    4.5376 C   0  0  0  0  0  0  0  0  0  0  0  0
  -11.8030   -0.9931    4.5850 O   0  0  0  0  0  0  0  0  0  0  0  0
  -10.3185   -2.6186    3.6787 C   0  0  0  0  0  0  0  0  0  0  0  0
  -11.2696   -3.6694    3.5816 O   0  0  0  0  0  0  0  0  0  0  0  0
   -9.1740   -2.6786    2.9700 C   0  0  0  0  0  0  0  0  0  0  0  0
   -5.1669    0.5958    4.2036 N   0  0  0  0  0  0  0  0  0  0  0  0
   -4.8396    0.6823    5.4965 C   0  0  0  0  0  0  0  0  0  0  0  0
   -5.8221    1.5876    6.2238 C   0  0  0  0  0  0  0  0  0  0  0  0
   -5.7776    2.8534    5.6772 N   0  0  0  0  0  0  0  0  0  0  0  0
   -6.1583    2.7405    4.3578 C   0  0  0  0  0  0  0  0  0  0  0  0
   -5.1759    1.8403    3.6274 C   0  0  0  0  0  0  0  0  0  0  0  0
  -12.5956   -1.7028    5.5022 C   0  0  0  0  0  0  0  0  0  0  0  0
  -10.8109   -4.7631    4.3325 C   0  0  0  0  0  0  0  0  0  0  0  0
  1 14  1  0  0  0  0
  1  2  2  0  0  0  0
  3  2  1  0  0  0  0
  3  8  2  0  0  0  0
  4  3  1  0  0  0  0
  5  7  2  0  0  0  0
  5  4  1  0  0  0  0
  6  5  1  0  0  0  0
  7  1  1  0  0  0  0
  9 10  1  0  0  0  0
  9  8  1  0  0  0  0
 11  9  2  0  0  0  0
 12 11  1  0  0  0  0
 13  4  2  0  0  0  0
 13 11  1  0  0  0  0
 14 15  1  0  0  0  0
 16 15  1  0  0  0  0
 17 16  1  0  0  0  0
 18 17  1  0  0  0  0
 18 19  1  0  0  0  0
 19 14  1  0  0  0  0
 20 10  1  0  0  0  0
 21 12  1  0  0  0  0
M  END
>  <CHROM.1>
51.27135663,-116.24703571,-99.55475119,-8.06179237,-0.84498544,4.14792075
-0.58519056,-0.35047199,-2.52792856

>  <Name>
lig.pdb

>  <RI>
2.6678e+07

>  <Rbt.Current_Directory>
/home/itssahil/PROJECTS/Mol_Feturizer/New_Systems/rnas/2lwk

>  <Rbt.Executable>
rbdock ($Id: //depot/dev/client3/rdock/2013.1/src/exe/rbdock.cxx#4 $)

>  <Rbt.Library>
libRbt.so (2013.1, Build901 2013/11/27)

>  <Rbt.Parameter_File>
/export/apps/rDock/src/rDock_2013.1_src/data/scripts/dock_solv.prm

>  <Rbt.Receptor>
prm/pocket_docking_2.prm

>  <SCORE>
-17.4375

>  <SCORE.INTER>
-12.6521

>  <SCORE.INTER.CONST>
1

>  <SCORE.INTER.POLAR>
-1.48736

>  <SCORE.INTER.ROT>
3

>  <SCORE.INTER.SOLV>
6.00131

>  <SCORE.INTER.VDW>
-11.0773

>  <SCORE.INTER.norm>
-0.602483

>  <SCORE.INTRA>
-4.78657

>  <SCORE.INTRA.DIHEDRAL>
0.576499

>  <SCORE.INTRA.DIHEDRAL.0>
8.84257

>  <SCORE.INTRA.POLAR>
0

>  <SCORE.INTRA.POLAR.0>
0

>  <SCORE.INTRA.REPUL>
0

>  <SCORE.INTRA.REPUL.0>
0

>  <SCORE.INTRA.SOLV>
0.101579

>  <SCORE.INTRA.SOLV.lig_0>
-17.1313

>  <SCORE.INTRA.VDW>
-5.12561

>  <SCORE.INTRA.VDW.0>
6.34071

>  <SCORE.INTRA.norm>
-0.227932

>  <SCORE.RESTR>
0.00120178

>  <SCORE.RESTR.CAVITY>
0.00120178

>  <SCORE.RESTR.norm>
5.72278e-05

>  <SCORE.SYSTEM>
0

>  <SCORE.SYSTEM.CONST>
0

>  <SCORE.SYSTEM.DIHEDRAL>
0

>  <SCORE.SYSTEM.SOLV>
0

>  <SCORE.SYSTEM.norm>
0

>  <SCORE.heavy>
21

>  <SCORE.norm>
-0.830358

>  <RMSD>
1.406

$$$$
lig.pdb
 OpenBabel11021811453D
libRbt.so/2013.1/901 2013/11/27
 21 23  0  0  0  0  0  0  0  0999 V2000
   -6.1717   -0.2318    3.8884 C   0  0  0  0  0  0  0  0  0  0  0  0
   -7.3236   -0.1368    4.5428 N   0  0  0  0  0  0  0  0  0  0  0  0
   -8.3125   -0.9666    4.2629 C   0  0  0  0  0  0  0  0  0  0  0  0
   -8.1749   -1.8635    3.2654 C   0  0  0  0  0  0  0  0  0  0  0  0
   -7.0104   -1.9588    2.6100 C   0  0  0  0  0  0  0  0  0  0  0  0
   -6.8672   -2.8387    1.6196 N   0  0  0  0  0  0  0  0  0  0  0  0
   -6.0127   -1.1387    2.9235 N   0  0  0  0  0  0  0  0  0  0  0  0
   -9.4662   -0.8793    4.9455 C   0  0  0  0  0  0  0  0  0  0  0  0
  -10.5420   -1.6169    4.5319 C   0  0  0  0  0  0  0  0  0  0  0  0
  -11.8169   -1.0041    4.5781 O   0  0  0  0  0  0  0  0  0  0  0  0
  -10.3306   -2.6303    3.6760 C   0  0  0  0  0  0  0  0  0  0  0  0
  -11.2802   -3.6828    3.5828 O   0  0  0  0  0  0  0  0  0  0  0  0
   -9.1864   -2.6908    2.9669 C   0  0  0  0  0  0  0  0  0  0  0  0
   -5.1834    0.5931    4.1881 N   0  0  0  0  0  0  0  0  0  0  0  0
   -4.8476    0.6752    5.4791 C   0  0  0  0  0  0  0  0  0  0  0  0
   -5.8285    1.5736    6.2171 C   0  0  0  0  0  0  0  0  0  0  0  0
   -5.7924    2.8420    5.6758 N   0  0  0  0  0  0  0  0  0  0  0  0
   -6.1817    2.7334    4.3586 C   0  0  0  0  0  0  0  0  0  0  0  0
   -5.2009    1.8401    3.6175 C   0  0  0  0  0  0  0  0  0  0  0  0
  -12.6072   -1.7107    5.4997 C   0  0  0  0  0  0  0  0  0  0  0  0
  -10.8142   -4.7774    4.3277 C   0  0  0  0  0  0  0  0  0  0  0  0
  1 14  1  0  0  0  0
  1  2  2  0  0  0  0
  3  2  1  0  0  0  0
  3  8  2  0  0  0  0
  4  3  1  0  0  0  0
  5  7  2  0  0  0  0
  5  4  1  0  0  0  0
  6  5  1  0  0  0  0
  7  1  1  0  0  0  0
  9 10  1  0  0  0  0
  9  8  1  0  0  0  0
 11  9  2  0  0  0  0
 12 11  1  0  0  0  0
 13  4  2  0  0  0  0
 13 11  1  0  0  0  0
 14 15  1  0  0  0  0
 16 15  1  0  0  0  0
 17 16  1  0  0  0  0
 18 17  1  0  0  0  0
 18 19  1  0  0  0  0
 19 14  1  0  0  0  0
 20 10  1  0  0  0  0
 21 12  1  0  0  0  0
M  END
>  <CHROM.1>
51.84703566,-116.14299305,-100.03760223,-8.07529457,-0.85394347,4.14125936
-0.58613721,-0.35088477,-2.52932399

>  <Name>
lig.pdb

>  <RI>
2.6678e+07

>  <Rbt.Current_Directory>
/home/itssahil/PROJECTS/Mol_Feturizer/New_Systems/rnas/2lwk

>  <Rbt.Executable>
rbdock ($Id: //depot/dev/client3/rdock/2013.1/src/exe/rbdock.cxx#4 $)

>  <Rbt.Library>
libRbt.so (2013.1, Build901 2013/11/27)

>  <Rbt.Parameter_File>
/export/apps/rDock/src/rDock_2013.1_src/data/scripts/dock_solv.prm

>  <Rbt.Receptor>
prm/pocket_docking_2.prm

>  <SCORE>
-17.4473

>  <SCORE.INTER>
-12.6568

>  <SCORE.INTER.CONST>
1

>  <SCORE.INTER.POLAR>
-1.47632

>  <SCORE.INTER.ROT>
3

>  <SCORE.INTER.SOLV>
6.05286

>  <SCORE.INTER.VDW>
-11.1344

>  <SCORE.INTER.norm>
-0.602705

>  <SCORE.INTRA>
-4.79776

>  <SCORE.INTRA.DIHEDRAL>
0.56391

>  <SCORE.INTRA.DIHEDRAL.0>
8.84257

>  <SCORE.INTRA.POLAR>
0

>  <SCORE.INTRA.POLAR.0>
0

>  <SCORE.INTRA.REPUL>
0

>  <SCORE.INTRA.REPUL.0>
0

>  <SCORE.INTRA.SOLV>
0.101561

>  <SCORE.INTRA.SOLV.lig_0>
-17.1313

>  <SCORE.INTRA.VDW>
-5.1305

>  <SCORE.INTRA.VDW.0>
6.34071

>  <SCORE.INTRA.norm>
-0.228465

>  <SCORE.RESTR>
0.00723071

>  <SCORE.RESTR.CAVITY>
0.00723071

>  <SCORE.RESTR.norm>
0.000344319

>  <SCORE.SYSTEM>
0

>  <SCORE.SYSTEM.CONST>
0

>  <SCORE.SYSTEM.DIHEDRAL>
0

>  <SCORE.SYSTEM.SOLV>
0

>  <SCORE.SYSTEM.norm>
0

>  <SCORE.heavy>
21

>  <SCORE.norm>
-0.830826

>  <RMSD>
1.408

$$$$
lig.pdb
 OpenBabel11021811453D
libRbt.so/2013.1/901 2013/11/27
 21 23  0  0  0  0  0  0  0  0999 V2000
   -6.1681   -0.2436    3.8895 C   0  0  0  0  0  0  0  0  0  0  0  0
   -7.3226   -0.1495    4.5395 N   0  0  0  0  0  0  0  0  0  0  0  0
   -8.3103   -0.9791    4.2544 C   0  0  0  0  0  0  0  0  0  0  0  0
   -8.1686   -1.8746    3.2564 C   0  0  0  0  0  0  0  0  0  0  0  0
   -7.0014   -1.9690    2.6055 C   0  0  0  0  0  0  0  0  0  0  0  0
   -6.8543   -2.8475    1.6145 N   0  0  0  0  0  0  0  0  0  0  0  0
   -6.0051   -1.1492    2.9241 N   0  0  0  0  0  0  0  0  0  0  0  0
   -9.4668   -0.8927    4.9325 C   0  0  0  0  0  0  0  0  0  0  0  0
  -10.5408   -1.6298    4.5136 C   0  0  0  0  0  0  0  0  0  0  0  0
  -11.8160   -1.0172    4.5556 O   0  0  0  0  0  0  0  0  0  0  0  0
  -10.3259   -2.6421    3.6573 C   0  0  0  0  0  0  0  0  0  0  0  0
  -11.2750   -3.6945    3.5588 O   0  0  0  0  0  0  0  0  0  0  0  0
   -9.1789   -2.7016    2.9527 C   0  0  0  0  0  0  0  0  0  0  0  0
   -5.1810    0.5810    4.1943 N   0  0  0  0  0  0  0  0  0  0  0  0
   -4.8483    0.6590    5.4864 C   0  0  0  0  0  0  0  0  0  0  0  0
   -5.8315    1.5542    6.2252 C   0  0  0  0  0  0  0  0  0  0  0  0
   -5.7951    2.8244    5.6882 N   0  0  0  0  0  0  0  0  0  0  0  0
   -6.1812    2.7200    4.3697 C   0  0  0  0  0  0  0  0  0  0  0  0
   -5.1981    1.8299    3.6279 C   0  0  0  0  0  0  0  0  0  0  0  0
  -12.5986   -1.7033    5.4990 C   0  0  0  0  0  0  0  0  0  0  0  0
  -10.8190   -4.7849    4.3160 C   0  0  0  0  0  0  0  0  0  0  0  0
  1 14  1  0  0  0  0
  1  2  2  0  0  0  0
  3  2  1  0  0  0  0
  3  8  2  0  0  0  0
  4  3  1  0  0  0  0
  5  7  2  0  0  0  0
  5  4  1  0  0  0  0
  6  5  1  0  0  0  0
  7  1  1  0  0  0  0
  9 10  1  0  0  0  0
  9  8  1  0  0  0  0
 11  9  2  0  0  0  0
 12 11  1  0  0  0  0
 13  4  2  0  0  0  0
 13 11  1  0  0  0  0
 14 15  1  0  0  0  0
 16 15  1  0  0  0  0
 17 16  1  0  0  0  0
 18 17  1  0  0  0  0
 18 19  1  0  0  0  0
 19 14  1  0  0  0  0
 20 10  1  0  0  0  0
 21 12  1  0  0  0  0
M  END
>  <CHROM.1>
52.00332399,-114.61031934,-99.40101956,-8.07221571,-0.86529798,4.13673896
-0.58752607,-0.34851491,-2.52740117

>  <Name>
lig.pdb

>  <RI>
2.6678e+07

>  <Rbt.Current_Directory>
/home/itssahil/PROJECTS/Mol_Feturizer/New_Systems/rnas/2lwk

>  <Rbt.Executable>
rbdock ($Id: //depot/dev/client3/rdock/2013.1/src/exe/rbdock.cxx#4 $)

>  <Rbt.Library>
libRbt.so (2013.1, Build901 2013/11/27)

>  <Rbt.Parameter_File>
/export/apps/rDock/src/rDock_2013.1_src/data/scripts/dock_solv.prm

>  <Rbt.Receptor>
prm/pocket_docking_2.prm

>  <SCORE>
-17.4271

>  <SCORE.INTER>
-12.5778

>  <SCORE.INTER.CONST>
1

>  <SCORE.INTER.POLAR>
-1.45236

>  <SCORE.INTER.ROT>
3

>  <SCORE.INTER.SOLV>
6.05509

>  <SCORE.INTER.VDW>
-11.1624

>  <SCORE.INTER.norm>
-0.598944

>  <SCORE.INTRA>
-4.84993

>  <SCORE.INTRA.DIHEDRAL>
0.636797

>  <SCORE.INTRA.DIHEDRAL.0>
8.84257

>  <SCORE.INTRA.POLAR>
0

>  <SCORE.INTRA.POLAR.0>
0

>  <SCORE.INTRA.REPUL>
0

>  <SCORE.INTRA.REPUL.0>
0

>  <SCORE.INTRA.SOLV>
0.100401

>  <SCORE.INTRA.SOLV.lig_0>
-17.1313

>  <SCORE.INTRA.VDW>
-5.21853

>  <SCORE.INTRA.VDW.0>
6.34071

>  <SCORE.INTRA.norm>
-0.230949

>  <SCORE.RESTR>
0.000656882

>  <SCORE.RESTR.CAVITY>
0.000656882

>  <SCORE.RESTR.norm>
3.12801e-05

>  <SCORE.SYSTEM>
0

>  <SCORE.SYSTEM.CONST>
0

>  <SCORE.SYSTEM.DIHEDRAL>
0

>  <SCORE.SYSTEM.SOLV>
0

>  <SCORE.SYSTEM.norm>
0

>  <SCORE.heavy>
21

>  <SCORE.norm>
-0.829862

>  <RMSD>
1.409

$$$$
lig.pdb
 OpenBabel11021811453D
libRbt.so/2013.1/901 2013/11/27
 21 23  0  0  0  0  0  0  0  0999 V2000
   -6.1622   -0.2321    3.8949 C   0  0  0  0  0  0  0  0  0  0  0  0
   -7.3150   -0.1377    4.5478 N   0  0  0  0  0  0  0  0  0  0  0  0
   -8.3038   -0.9667    4.2651 C   0  0  0  0  0  0  0  0  0  0  0  0
   -8.1651   -1.8621    3.2665 C   0  0  0  0  0  0  0  0  0  0  0  0
   -6.9996   -1.9568    2.6127 C   0  0  0  0  0  0  0  0  0  0  0  0
   -6.8553   -2.8352    1.6211 N   0  0  0  0  0  0  0  0  0  0  0  0
   -6.0020   -1.1375    2.9289 N   0  0  0  0  0  0  0  0  0  0  0  0
   -9.4585   -0.8800    4.9462 C   0  0  0  0  0  0  0  0  0  0  0  0
  -10.5338   -1.6166    4.5299 C   0  0  0  0  0  0  0  0  0  0  0  0
  -11.8087   -1.0035    4.5752 O   0  0  0  0  0  0  0  0  0  0  0  0
  -10.3215   -2.6288    3.6728 C   0  0  0  0  0  0  0  0  0  0  0  0
  -11.2714   -3.6808    3.5765 O   0  0  0  0  0  0  0  0  0  0  0  0
   -9.1764   -2.6886    2.9653 C   0  0  0  0  0  0  0  0  0  0  0  0
   -5.1740    0.5920    4.1974 N   0  0  0  0  0  0  0  0  0  0  0  0
   -4.8381    0.6698    5.4886 C   0  0  0  0  0  0  0  0  0  0  0  0
   -5.8191    1.5654    6.2298 C   0  0  0  0  0  0  0  0  0  0  0  0
   -5.7834    2.8356    5.6929 N   0  0  0  0  0  0  0  0  0  0  0  0
   -6.1728    2.7315    4.3753 C   0  0  0  0  0  0  0  0  0  0  0  0
   -5.1919    1.8410    3.6310 C   0  0  0  0  0  0  0  0  0  0  0  0
  -12.5990   -1.7083    5.4981 C   0  0  0  0  0  0  0  0  0  0  0  0
  -10.8083   -4.7757    4.3229 C   0  0  0  0  0  0  0  0  0  0  0  0
  1 14  1  0  0  0  0
  1  2  2  0  0  0  0
  3  2  1  0  0  0  0
  3  8  2  0  0  0  0
  4  3  1  0  0  0  0
  5  7  2  0  0  0  0
  5  4  1  0  0  0  0
  6  5  1  0  0  0  0
  7  1  1  0  0  0  0
  9 10  1  0  0  0  0
  9  8  1  0  0  0  0
 11  9  2  0  0  0  0
 12 11  1  0  0  0  0
 13  4  2  0  0  0  0
 13 11  1  0  0  0  0
 14 15  1  0  0  0  0
 16 15  1  0  0  0  0
 17 16  1  0  0  0  0
 18 17  1  0  0  0  0
 18 19  1  0  0  0  0
 19 14  1  0  0  0  0
 20 10  1  0  0  0  0
 21 12  1  0  0  0  0
M  END
>  <CHROM.1>
51.99233087,-115.93669349,-99.90547184,-8.06617848,-0.85422002,4.14515085
-0.58643934,-0.34948937,-2.52729139

>  <Name>
lig.pdb

>  <RI>
2.6678e+07

>  <Rbt.Current_Directory>
/home/itssahil/PROJECTS/Mol_Feturizer/New_Systems/rnas/2lwk

>  <Rbt.Executable>
rbdock ($Id: //depot/dev/client3/rdock/2013.1/src/exe/rbdock.cxx#4 $)

>  <Rbt.Library>
libRbt.so (2013.1, Build901 2013/11/27)

>  <Rbt.Parameter_File>
/export/apps/rDock/src/rDock_2013.1_src/data/scripts/dock_solv.prm

>  <Rbt.Receptor>
prm/pocket_docking_2.prm

>  <SCORE>
-17.4325

>  <SCORE.INTER>
-12.627

>  <SCORE.INTER.CONST>
1

>  <SCORE.INTER.POLAR>
-1.47086

>  <SCORE.INTER.ROT>
3

>  <SCORE.INTER.SOLV>
6.02033

>  <SCORE.INTER.VDW>
-11.1219

>  <SCORE.INTER.norm>
-0.601285

>  <SCORE.INTRA>
-4.81008

>  <SCORE.INTRA.DIHEDRAL>
0.575631

>  <SCORE.INTRA.DIHEDRAL.0>
8.84257

>  <SCORE.INTRA.POLAR>
0

>  <SCORE.INTRA.POLAR.0>
0

>  <SCORE.INTRA.REPUL>
0

>  <SCORE.INTRA.REPUL.0>
0

>  <SCORE.INTRA.SOLV>
0.1015

>  <SCORE.INTRA.SOLV.lig_0>
-17.1313

>  <SCORE.INTRA.VDW>
-5.14864

>  <SCORE.INTRA.VDW.0>
6.34071

>  <SCORE.INTRA.norm>
-0.229051

>  <SCORE.RESTR>
0.00450904

>  <SCORE.RESTR.CAVITY>
0.00450904

>  <SCORE.RESTR.norm>
0.000214716

>  <SCORE.SYSTEM>
0

>  <SCORE.SYSTEM.CONST>
0

>  <SCORE.SYSTEM.DIHEDRAL>
0

>  <SCORE.SYSTEM.SOLV>
0

>  <SCORE.SYSTEM.norm>
0

>  <SCORE.heavy>
21

>  <SCORE.norm>
-0.830121

>  <RMSD>
1.411

$$$$
lig.pdb
 OpenBabel11021811453D
libRbt.so/2013.1/901 2013/11/27
 21 23  0  0  0  0  0  0  0  0999 V2000
   -6.1762   -0.2223    3.9005 C   0  0  0  0  0  0  0  0  0  0  0  0
   -7.3334   -0.1361    4.5467 N   0  0  0  0  0  0  0  0  0  0  0  0
   -8.3160   -0.9694    4.2554 C   0  0  0  0  0  0  0  0  0  0  0  0
   -8.1665   -1.8609    3.2548 C   0  0  0  0  0  0  0  0  0  0  0  0
   -6.9966   -1.9473    2.6077 C   0  0  0  0  0  0  0  0  0  0  0  0
   -6.8416   -2.8217    1.6143 N   0  0  0  0  0  0  0  0  0  0  0  0
   -6.0053   -1.1238    2.9326 N   0  0  0  0  0  0  0  0  0  0  0  0
   -9.4753   -0.8910    4.9297 C   0  0  0  0  0  0  0  0  0  0  0  0
  -10.5442   -1.6319    4.5045 C   0  0  0  0  0  0  0  0  0  0  0  0
  -11.8225   -1.0257    4.5440 O   0  0  0  0  0  0  0  0  0  0  0  0
  -10.3213   -2.6402    3.6455 C   0  0  0  0  0  0  0  0  0  0  0  0
  -11.2650   -3.6969    3.5401 O   0  0  0  0  0  0  0  0  0  0  0  0
   -9.1716   -2.6917    2.9447 C   0  0  0  0  0  0  0  0  0  0  0  0
   -5.1942    0.6061    4.2116 N   0  0  0  0  0  0  0  0  0  0  0  0
   -4.8507    0.6639    5.5019 C   0  0  0  0  0  0  0  0  0  0  0  0
   -5.8357    1.5362    6.2653 C   0  0  0  0  0  0  0  0  0  0  0  0
   -5.8160    2.8162    5.7512 N   0  0  0  0  0  0  0  0  0  0  0  0
   -6.2128    2.7319    4.4344 C   0  0  0  0  0  0  0  0  0  0  0  0
   -5.2280    1.8647    3.6680 C   0  0  0  0  0  0  0  0  0  0  0  0
  -12.6015   -1.7118    5.4904 C   0  0  0  0  0  0  0  0  0  0  0  0
  -10.7691   -4.8143    4.2298 C   0  0  0  0  0  0  0  0  0  0  0  0
  1 14  1  0  0  0  0
  1  2  2  0  0  0  0
  3  2  1  0  0  0  0
  3  8  2  0  0  0  0
  4  3  1  0  0  0  0
  5  7  2  0  0  0  0
  5  4  1  0  0  0  0
  6  5  1  0  0  0  0
  7  1  1  0  0  0  0
  9 10  1  0  0  0  0
  9  8  1  0  0  0  0
 11  9  2  0  0  0  0
 12 11  1  0  0  0  0
 13  4  2  0  0  0  0
 13 11  1  0  0  0  0
 14 15  1  0  0  0  0
 16 15  1  0  0  0  0
 17 16  1  0  0  0  0
 18 17  1  0  0  0  0
 18 19  1  0  0  0  0
 19 14  1  0  0  0  0
 20 10  1  0  0  0  0
 21 12  1  0  0  0  0
M  END
>  <CHROM.1>
53.13163533,-114.12928036,-102.84522289,-8.07473142,-0.85887032,4.14195206
-0.59630584,-0.34555810,-2.52317699

>  <Name>
lig.pdb

>  <RI>
2.6678e+07

>  <Rbt.Current_Directory>
/home/itssahil/PROJECTS/Mol_Feturizer/New_Systems/rnas/2lwk

>  <Rbt.Executable>
rbdock ($Id: //depot/dev/client3/rdock/2013.1/src/exe/rbdock.cxx#4 $)

>  <Rbt.Library>
libRbt.so (2013.1, Build901 2013/11/27)

>  <Rbt.Parameter_File>
/export/apps/rDock/src/rDock_2013.1_src/data/scripts/dock_solv.prm

>  <Rbt.Receptor>
prm/pocket_docking_2.prm

>  <SCORE>
-17.4005

>  <SCORE.INTER>
-12.5926

>  <SCORE.INTER.CONST>
1

>  <SCORE.INTER.POLAR>
-1.4331

>  <SCORE.INTER.ROT>
3

>  <SCORE.INTER.SOLV>
6.1275

>  <SCORE.INTER.VDW>
-11.2606

>  <SCORE.INTER.norm>
-0.59965

>  <SCORE.INTRA>
-4.81135

>  <SCORE.INTRA.DIHEDRAL>
0.524557

>  <SCORE.INTRA.DIHEDRAL.0>
8.84257

>  <SCORE.INTRA.POLAR>
0

>  <SCORE.INTRA.POLAR.0>
0

>  <SCORE.INTRA.REPUL>
0

>  <SCORE.INTRA.REPUL.0>
0

>  <SCORE.INTRA.SOLV>
0.0989376

>  <SCORE.INTRA.SOLV.lig_0>
-17.1313

>  <SCORE.INTRA.VDW>
-5.12309

>  <SCORE.INTRA.VDW.0>
6.34071

>  <SCORE.INTRA.norm>
-0.229112

>  <SCORE.RESTR>
0.00352133

>  <SCORE.RESTR.CAVITY>
0.00352133

>  <SCORE.RESTR.norm>
0.000167682

>  <SCORE.SYSTEM>
0

>  <SCORE.SYSTEM.CONST>
0

>  <SCORE.SYSTEM.DIHEDRAL>
0

>  <SCORE.SYSTEM.SOLV>
0

>  <SCORE.SYSTEM.norm>
0

>  <SCORE.heavy>
21

>  <SCORE.norm>
-0.828594

>  <RMSD>
1.415

$$$$
lig.pdb
 OpenBabel11021811453D
libRbt.so/2013.1/901 2013/11/27
 21 23  0  0  0  0  0  0  0  0999 V2000
   -5.9935    0.7087    4.0189 C   0  0  0  0  0  0  0  0  0  0  0  0
   -7.2015    0.7709    4.5677 N   0  0  0  0  0  0  0  0  0  0  0  0
   -8.0318   -0.2501    4.4539 C   0  0  0  0  0  0  0  0  0  0  0  0
   -7.6776   -1.3258    3.7220 C   0  0  0  0  0  0  0  0  0  0  0  0
   -6.4571   -1.3865    3.1731 C   0  0  0  0  0  0  0  0  0  0  0  0
   -6.1005   -2.4433    2.4440 N   0  0  0  0  0  0  0  0  0  0  0  0
   -5.6196   -0.3653    3.3221 N   0  0  0  0  0  0  0  0  0  0  0  0
   -9.2430   -0.1887    5.0317 C   0  0  0  0  0  0  0  0  0  0  0  0
  -10.1601   -1.1675    4.7611 C   0  0  0  0  0  0  0  0  0  0  0  0
  -11.5087   -0.7753    4.5857 O   0  0  0  0  0  0  0  0  0  0  0  0
   -9.7293   -2.3089    4.1992 C   0  0  0  0  0  0  0  0  0  0  0  0
  -10.5059   -3.4919    4.3238 O   0  0  0  0  0  0  0  0  0  0  0  0
   -8.5290   -2.3524    3.5885 C   0  0  0  0  0  0  0  0  0  0  0  0
   -5.1648    1.7297    4.1530 N   0  0  0  0  0  0  0  0  0  0  0  0
   -4.8773    2.1023    5.4039 C   0  0  0  0  0  0  0  0  0  0  0  0
   -6.0117    2.9416    5.9719 C   0  0  0  0  0  0  0  0  0  0  0  0
   -6.1766    4.0769    5.2058 N   0  0  0  0  0  0  0  0  0  0  0  0
   -6.5118    3.6647    3.9345 C   0  0  0  0  0  0  0  0  0  0  0  0
   -5.3782    2.8298    3.3625 C   0  0  0  0  0  0  0  0  0  0  0  0
  -12.2861   -1.4459    5.5444 C   0  0  0  0  0  0  0  0  0  0  0  0
  -10.0294   -4.2305    5.4182 C   0  0  0  0  0  0  0  0  0  0  0  0
  1 14  1  0  0  0  0
  1  2  2  0  0  0  0
  3  2  1  0  0  0  0
  3  8  2  0  0  0  0
  4  3  1  0  0  0  0
  5  7  2  0  0  0  0
  5  4  1  0  0  0  0
  6  5  1  0  0  0  0
  7  1  1  0  0  0  0
  9 10  1  0  0  0  0
  9  8  1  0  0  0  0
 11  9  2  0  0  0  0
 12 11  1  0  0  0  0
 13  4  2  0  0  0  0
 13 11  1  0  0  0  0
 14 15  1  0  0  0  0
 16 15  1  0  0  0  0
 17 16  1  0  0  0  0
 18 17  1  0  0  0  0
 18 19  1  0  0  0  0
 19 14  1  0  0  0  0
 20 10  1  0  0  0  0
 21 12  1  0  0  0  0
M  END
>  <CHROM.1>
57.11610272,-120.97237387,-94.93369308,-7.80125697,-0.14429564,4.35227823
-0.75849554,-0.35199762,-2.81963604

>  <Name>
lig.pdb

>  <RI>
3.31914e+07

>  <Rbt.Current_Directory>
/home/itssahil/PROJECTS/Mol_Feturizer/New_Systems/rnas/2lwk

>  <Rbt.Executable>
rbdock ($Id: //depot/dev/client3/rdock/2013.1/src/exe/rbdock.cxx#4 $)

>  <Rbt.Library>
libRbt.so (2013.1, Build901 2013/11/27)

>  <Rbt.Parameter_File>
/export/apps/rDock/src/rDock_2013.1_src/data/scripts/dock_solv.prm

>  <Rbt.Receptor>
prm/pocket_docking_3.prm

>  <SCORE>
-18.8936

>  <SCORE.INTER>
-14.0372

>  <SCORE.INTER.CONST>
1

>  <SCORE.INTER.POLAR>
-1.993

>  <SCORE.INTER.ROT>
3

>  <SCORE.INTER.SOLV>
5.5287

>  <SCORE.INTER.VDW>
-10.1577

>  <SCORE.INTER.norm>
-0.668437

>  <SCORE.INTRA>
-4.85642

>  <SCORE.INTRA.DIHEDRAL>
0.501122

>  <SCORE.INTRA.DIHEDRAL.0>
8.84257

>  <SCORE.INTRA.POLAR>
0

>  <SCORE.INTRA.POLAR.0>
0

>  <SCORE.INTRA.REPUL>
0

>  <SCORE.INTRA.REPUL.0>
0

>  <SCORE.INTRA.SOLV>
0.112218

>  <SCORE.INTRA.SOLV.lig_0>
-17.1313

>  <SCORE.INTRA.VDW>
-5.16309

>  <SCORE.INTRA.VDW.0>
6.34071

>  <SCORE.INTRA.norm>
-0.231258

>  <SCORE.RESTR>
0

>  <SCORE.RESTR.CAVITY>
0

>  <SCORE.RESTR.norm>
0

>  <SCORE.SYSTEM>
0

>  <SCORE.SYSTEM.CONST>
0

>  <SCORE.SYSTEM.DIHEDRAL>
0

>  <SCORE.SYSTEM.SOLV>
0

>  <SCORE.SYSTEM.norm>
0

>  <SCORE.heavy>
21

>  <SCORE.norm>
-0.899695

>  <RMSD>
1.426

$$$$
lig.pdb
 OpenBabel11021811453D
libRbt.so/2013.1/901 2013/11/27
 21 23  0  0  0  0  0  0  0  0999 V2000
   -5.9620    0.7135    4.0485 C   0  0  0  0  0  0  0  0  0  0  0  0
   -7.1690    0.7703    4.6000 N   0  0  0  0  0  0  0  0  0  0  0  0
   -8.0034   -0.2452    4.4683 C   0  0  0  0  0  0  0  0  0  0  0  0
   -7.6544   -1.3084    3.7161 C   0  0  0  0  0  0  0  0  0  0  0  0
   -6.4348   -1.3637    3.1644 C   0  0  0  0  0  0  0  0  0  0  0  0
   -6.0833   -2.4081    2.4153 N   0  0  0  0  0  0  0  0  0  0  0  0
   -5.5932   -0.3487    3.3313 N   0  0  0  0  0  0  0  0  0  0  0  0
   -9.2137   -0.1899    5.0489 C   0  0  0  0  0  0  0  0  0  0  0  0
  -10.1350   -1.1598    4.7613 C   0  0  0  0  0  0  0  0  0  0  0  0
  -11.4822   -0.7592    4.5951 O   0  0  0  0  0  0  0  0  0  0  0  0
   -9.7093   -2.2922    4.1776 C   0  0  0  0  0  0  0  0  0  0  0  0
  -10.4903   -3.4744    4.2812 O   0  0  0  0  0  0  0  0  0  0  0  0
   -8.5099   -2.3291    3.5646 C   0  0  0  0  0  0  0  0  0  0  0  0
   -5.1290    1.7286    4.2005 N   0  0  0  0  0  0  0  0  0  0  0  0
   -4.8415    2.0793    5.4576 C   0  0  0  0  0  0  0  0  0  0  0  0
   -5.9730    2.9139    6.0382 C   0  0  0  0  0  0  0  0  0  0  0  0
   -6.1321    4.0624    5.2908 N   0  0  0  0  0  0  0  0  0  0  0  0
   -6.4675    3.6727    4.0125 C   0  0  0  0  0  0  0  0  0  0  0  0
   -5.3368    2.8426    3.4280 C   0  0  0  0  0  0  0  0  0  0  0  0
  -12.2618   -1.4488    5.5383 C   0  0  0  0  0  0  0  0  0  0  0  0
  -10.0498   -4.2095    5.3929 C   0  0  0  0  0  0  0  0  0  0  0  0
  1 14  1  0  0  0  0
  1  2  2  0  0  0  0
  3  2  1  0  0  0  0
  3  8  2  0  0  0  0
  4  3  1  0  0  0  0
  5  7  2  0  0  0  0
  5  4  1  0  0  0  0
  6  5  1  0  0  0  0
  7  1  1  0  0  0  0
  9 10  1  0  0  0  0
  9  8  1  0  0  0  0
 11  9  2  0  0  0  0
 12 11  1  0  0  0  0
 13  4  2  0  0  0  0
 13 11  1  0  0  0  0
 14 15  1  0  0  0  0
 16 15  1  0  0  0  0
 17 16  1  0  0  0  0
 18 17  1  0  0  0  0
 18 19  1  0  0  0  0
 19 14  1  0  0  0  0
 20 10  1  0  0  0  0
 21 12  1  0  0  0  0
M  END
>  <CHROM.1>
56.93016691,-121.22404697,-92.63182432,-7.77470290,-0.13694785,4.36874804
-0.75200527,-0.35338873,-2.79911267

>  <Name>
lig.pdb

>  <RI>
3.31914e+07

>  <Rbt.Current_Directory>
/home/itssahil/PROJECTS/Mol_Feturizer/New_Systems/rnas/2lwk

>  <Rbt.Executable>
rbdock ($Id: //depot/dev/client3/rdock/2013.1/src/exe/rbdock.cxx#4 $)

>  <Rbt.Library>
libRbt.so (2013.1, Build901 2013/11/27)

>  <Rbt.Parameter_File>
/export/apps/rDock/src/rDock_2013.1_src/data/scripts/dock_solv.prm

>  <Rbt.Receptor>
prm/pocket_docking_3.prm

>  <SCORE>
-18.8965

>  <SCORE.INTER>
-14.0602

>  <SCORE.INTER.CONST>
1

>  <SCORE.INTER.POLAR>
-2.01095

>  <SCORE.INTER.ROT>
3

>  <SCORE.INTER.SOLV>
5.4941

>  <SCORE.INTER.VDW>
-10.1017

>  <SCORE.INTER.norm>
-0.669533

>  <SCORE.INTRA>
-4.83626

>  <SCORE.INTRA.DIHEDRAL>
0.527793

>  <SCORE.INTRA.DIHEDRAL.0>
8.84257

>  <SCORE.INTRA.POLAR>
0

>  <SCORE.INTRA.POLAR.0>
0

>  <SCORE.INTRA.REPUL>
0

>  <SCORE.INTRA.REPUL.0>
0

>  <SCORE.INTRA.SOLV>
0.113635

>  <SCORE.INTRA.SOLV.lig_0>
-17.1313

>  <SCORE.INTRA.VDW>
-5.15698

>  <SCORE.INTRA.VDW.0>
6.34071

>  <SCORE.INTRA.norm>
-0.230298

>  <SCORE.RESTR>
0

>  <SCORE.RESTR.CAVITY>
0

>  <SCORE.RESTR.norm>
0

>  <SCORE.SYSTEM>
0

>  <SCORE.SYSTEM.CONST>
0

>  <SCORE.SYSTEM.DIHEDRAL>
0

>  <SCORE.SYSTEM.SOLV>
0

>  <SCORE.SYSTEM.norm>
0

>  <SCORE.heavy>
21

>  <SCORE.norm>
-0.899832

>  <RMSD>
1.439

$$$$
lig.pdb
 OpenBabel11021811453D
libRbt.so/2013.1/901 2013/11/27
 21 23  0  0  0  0  0  0  0  0999 V2000
   -6.3905   -0.1765    3.9632 C   0  0  0  0  0  0  0  0  0  0  0  0
   -7.5467   -0.0827    4.6102 N   0  0  0  0  0  0  0  0  0  0  0  0
   -8.5185   -0.9398    4.3535 C   0  0  0  0  0  0  0  0  0  0  0  0
   -8.3598   -1.8653    3.3858 C   0  0  0  0  0  0  0  0  0  0  0  0
   -7.1909   -1.9592    2.7379 C   0  0  0  0  0  0  0  0  0  0  0  0
   -7.0270   -2.8674    1.7766 N   0  0  0  0  0  0  0  0  0  0  0  0
   -6.2103   -1.1106    3.0284 N   0  0  0  0  0  0  0  0  0  0  0  0
   -9.6765   -0.8528    5.0289 C   0  0  0  0  0  0  0  0  0  0  0  0
  -10.7363   -1.6237    4.6354 C   0  0  0  0  0  0  0  0  0  0  0  0
  -12.0228   -1.0343    4.6575 O   0  0  0  0  0  0  0  0  0  0  0  0
  -10.5021   -2.6597    3.8132 C   0  0  0  0  0  0  0  0  0  0  0  0
  -11.4312   -3.7326    3.7503 O   0  0  0  0  0  0  0  0  0  0  0  0
   -9.3541   -2.7210    3.1104 C   0  0  0  0  0  0  0  0  0  0  0  0
   -5.4193    0.6763    4.2398 N   0  0  0  0  0  0  0  0  0  0  0  0
   -5.0616    0.7747    5.5238 C   0  0  0  0  0  0  0  0  0  0  0  0
   -6.0522    1.6507    6.2756 C   0  0  0  0  0  0  0  0  0  0  0  0
   -6.0605    2.9165    5.7271 N   0  0  0  0  0  0  0  0  0  0  0  0
   -6.4715    2.7900    4.4181 C   0  0  0  0  0  0  0  0  0  0  0  0
   -5.4811    1.9191    3.6632 C   0  0  0  0  0  0  0  0  0  0  0  0
  -12.8348   -1.7916    5.5179 C   0  0  0  0  0  0  0  0  0  0  0  0
  -10.9940   -4.7577    4.6038 C   0  0  0  0  0  0  0  0  0  0  0  0
  1 14  1  0  0  0  0
  1  2  2  0  0  0  0
  3  2  1  0  0  0  0
  3  8  2  0  0  0  0
  4  3  1  0  0  0  0
  5  7  2  0  0  0  0
  5  4  1  0  0  0  0
  6  5  1  0  0  0  0
  7  1  1  0  0  0  0
  9 10  1  0  0  0  0
  9  8  1  0  0  0  0
 11  9  2  0  0  0  0
 12 11  1  0  0  0  0
 13  4  2  0  0  0  0
 13 11  1  0  0  0  0
 14 15  1  0  0  0  0
 16 15  1  0  0  0  0
 17 16  1  0  0  0  0
 18 17  1  0  0  0  0
 18 19  1  0  0  0  0
 19 14  1  0  0  0  0
 20 10  1  0  0  0  0
 21 12  1  0  0  0  0
M  END
>  <CHROM.1>
53.89922207,-120.80588564,-96.02288674,-8.28456890,-0.83449209,4.23988451
-0.60079782,-0.35590140,-2.55966240

>  <Name>
lig.pdb

>  <RI>
3.31914e+07

>  <Rbt.Current_Directory>
/home/itssahil/PROJECTS/Mol_Feturizer/New_Systems/rnas/2lwk

>  <Rbt.Executable>
rbdock ($Id: //depot/dev/client3/rdock/2013.1/src/exe/rbdock.cxx#4 $)

>  <Rbt.Library>
libRbt.so (2013.1, Build901 2013/11/27)

>  <Rbt.Parameter_File>
/export/apps/rDock/src/rDock_2013.1_src/data/scripts/dock_solv.prm

>  <Rbt.Receptor>
prm/pocket_docking_3.prm

>  <SCORE>
-17.8248

>  <SCORE.INTER>
-13.0564

>  <SCORE.INTER.CONST>
1

>  <SCORE.INTER.POLAR>
-1.49106

>  <SCORE.INTER.ROT>
3

>  <SCORE.INTER.SOLV>
6.56297

>  <SCORE.INTER.VDW>
-11.5217

>  <SCORE.INTER.norm>
-0.621732

>  <SCORE.INTRA>
-4.76843

>  <SCORE.INTRA.DIHEDRAL>
0.486791

>  <SCORE.INTRA.DIHEDRAL.0>
8.84257

>  <SCORE.INTRA.POLAR>
0

>  <SCORE.INTRA.POLAR.0>
0

>  <SCORE.INTRA.REPUL>
0

>  <SCORE.INTRA.REPUL.0>
0

>  <SCORE.INTRA.SOLV>
0.109558

>  <SCORE.INTRA.SOLV.lig_0>
-17.1313

>  <SCORE.INTRA.VDW>
-5.06661

>  <SCORE.INTRA.VDW.0>
6.34071

>  <SCORE.INTRA.norm>
-0.227068

>  <SCORE.RESTR>
0

>  <SCORE.RESTR.CAVITY>
0

>  <SCORE.RESTR.norm>
0

>  <SCORE.SYSTEM>
0

>  <SCORE.SYSTEM.CONST>
0

>  <SCORE.SYSTEM.DIHEDRAL>
0

>  <SCORE.SYSTEM.SOLV>
0

>  <SCORE.SYSTEM.norm>
0

>  <SCORE.heavy>
21

>  <SCORE.norm>
-0.8488

>  <RMSD>
1.454

$$$$
lig.pdb
 OpenBabel11021811453D
libRbt.so/2013.1/901 2013/11/27
 21 23  0  0  0  0  0  0  0  0999 V2000
   -5.9582    0.7527    4.0469 C   0  0  0  0  0  0  0  0  0  0  0  0
   -7.1704    0.8137    4.5863 N   0  0  0  0  0  0  0  0  0  0  0  0
   -7.9962   -0.2109    4.4721 C   0  0  0  0  0  0  0  0  0  0  0  0
   -7.6328   -1.2894    3.7491 C   0  0  0  0  0  0  0  0  0  0  0  0
   -6.4080   -1.3489    3.2095 C   0  0  0  0  0  0  0  0  0  0  0  0
   -6.0422   -2.4085    2.4891 N   0  0  0  0  0  0  0  0  0  0  0  0
   -5.5753   -0.3239    3.3590 N   0  0  0  0  0  0  0  0  0  0  0  0
   -9.2119   -0.1506    5.0406 C   0  0  0  0  0  0  0  0  0  0  0  0
  -10.1235   -1.1342    4.7688 C   0  0  0  0  0  0  0  0  0  0  0  0
  -11.4721   -0.7478    4.5811 O   0  0  0  0  0  0  0  0  0  0  0  0
   -9.6844   -2.2772    4.2166 C   0  0  0  0  0  0  0  0  0  0  0  0
  -10.4578   -3.4622    4.3421 O   0  0  0  0  0  0  0  0  0  0  0  0
   -8.4795   -2.3199    3.6150 C   0  0  0  0  0  0  0  0  0  0  0  0
   -5.1341    1.7773    4.1813 N   0  0  0  0  0  0  0  0  0  0  0  0
   -4.8491    2.1516    5.4323 C   0  0  0  0  0  0  0  0  0  0  0  0
   -5.9877    2.9860    5.9993 C   0  0  0  0  0  0  0  0  0  0  0  0
   -6.1570    4.1203    5.2327 N   0  0  0  0  0  0  0  0  0  0  0  0
   -6.4895    3.7063    3.9613 C   0  0  0  0  0  0  0  0  0  0  0  0
   -5.3518    2.8764    3.3903 C   0  0  0  0  0  0  0  0  0  0  0  0
  -12.2568   -1.4305    5.5252 C   0  0  0  0  0  0  0  0  0  0  0  0
   -9.9785   -4.1992    5.4364 C   0  0  0  0  0  0  0  0  0  0  0  0
  1 14  1  0  0  0  0
  1  2  2  0  0  0  0
  3  2  1  0  0  0  0
  3  8  2  0  0  0  0
  4  3  1  0  0  0  0
  5  7  2  0  0  0  0
  5  4  1  0  0  0  0
  6  5  1  0  0  0  0
  7  1  1  0  0  0  0
  9 10  1  0  0  0  0
  9  8  1  0  0  0  0
 11  9  2  0  0  0  0
 12 11  1  0  0  0  0
 13  4  2  0  0  0  0
 13 11  1  0  0  0  0
 14 15  1  0  0  0  0
 16 15  1  0  0  0  0
 17 16  1  0  0  0  0
 18 17  1  0  0  0  0
 18 19  1  0  0  0  0
 19 14  1  0  0  0  0
 20 10  1  0  0  0  0
 21 12  1  0  0  0  0
M  END
>  <CHROM.1>
57.61325938,-121.81300558,-95.49899202,-7.76427679,-0.10694340,4.37351128
-0.76482912,-0.34494755,-2.82588274

>  <Name>
lig.pdb

>  <RI>
3.31914e+07

>  <Rbt.Current_Directory>
/home/itssahil/PROJECTS/Mol_Feturizer/New_Systems/rnas/2lwk

>  <Rbt.Executable>
rbdock ($Id: //depot/dev/client3/rdock/2013.1/src/exe/rbdock.cxx#4 $)

>  <Rbt.Library>
libRbt.so (2013.1, Build901 2013/11/27)

>  <Rbt.Parameter_File>
/export/apps/rDock/src/rDock_2013.1_src/data/scripts/dock_solv.prm

>  <Rbt.Receptor>
prm/pocket_docking_3.prm

>  <SCORE>
-18.8994

>  <SCORE.INTER>
-14.0731

>  <SCORE.INTER.CONST>
1

>  <SCORE.INTER.POLAR>
-2.01537

>  <SCORE.INTER.ROT>
3

>  <SCORE.INTER.SOLV>
5.50021

>  <SCORE.INTER.VDW>
-10.0975

>  <SCORE.INTER.norm>
-0.670147

>  <SCORE.INTRA>
-4.82632

>  <SCORE.INTRA.DIHEDRAL>
0.449388

>  <SCORE.INTRA.DIHEDRAL.0>
8.84257

>  <SCORE.INTRA.POLAR>
0

>  <SCORE.INTRA.POLAR.0>
0

>  <SCORE.INTRA.REPUL>
0

>  <SCORE.INTRA.REPUL.0>
0

>  <SCORE.INTRA.SOLV>
0.113015

>  <SCORE.INTRA.SOLV.lig_0>
-17.1313

>  <SCORE.INTRA.VDW>
-5.10752

>  <SCORE.INTRA.VDW.0>
6.34071

>  <SCORE.INTRA.norm>
-0.229825

>  <SCORE.RESTR>
0

>  <SCORE.RESTR.CAVITY>
0

>  <SCORE.RESTR.norm>
0

>  <SCORE.SYSTEM>
0

>  <SCORE.SYSTEM.CONST>
0

>  <SCORE.SYSTEM.DIHEDRAL>
0

>  <SCORE.SYSTEM.SOLV>
0

>  <SCORE.SYSTEM.norm>
0

>  <SCORE.heavy>
21

>  <SCORE.norm>
-0.899971

>  <RMSD>
1.455

$$$$
lig.pdb
 OpenBabel11021811453D
libRbt.so/2013.1/901 2013/11/27
 21 23  0  0  0  0  0  0  0  0999 V2000
   -5.9833    0.7488    4.0252 C   0  0  0  0  0  0  0  0  0  0  0  0
   -7.1922    0.8113    4.5719 N   0  0  0  0  0  0  0  0  0  0  0  0
   -8.0157   -0.2166    4.4724 C   0  0  0  0  0  0  0  0  0  0  0  0
   -7.6539   -1.3006    3.7568 C   0  0  0  0  0  0  0  0  0  0  0  0
   -6.4324   -1.3615    3.2099 C   0  0  0  0  0  0  0  0  0  0  0  0
   -6.0682   -2.4267    2.4968 N   0  0  0  0  0  0  0  0  0  0  0  0
   -5.6017   -0.3329    3.3447 N   0  0  0  0  0  0  0  0  0  0  0  0
   -9.2279   -0.1546    5.0482 C   0  0  0  0  0  0  0  0  0  0  0  0
  -10.1384   -1.1431    4.7912 C   0  0  0  0  0  0  0  0  0  0  0  0
  -11.4893   -0.7623    4.6088 O   0  0  0  0  0  0  0  0  0  0  0  0
   -9.6996   -2.2899    4.2466 C   0  0  0  0  0  0  0  0  0  0  0  0
  -10.4686   -3.4759    4.3879 O   0  0  0  0  0  0  0  0  0  0  0  0
   -8.4984   -2.3347    3.6377 C   0  0  0  0  0  0  0  0  0  0  0  0
   -5.1613    1.7770    4.1450 N   0  0  0  0  0  0  0  0  0  0  0  0
   -4.8518    2.1495    5.3906 C   0  0  0  0  0  0  0  0  0  0  0  0
   -5.9820    2.9770    5.9837 C   0  0  0  0  0  0  0  0  0  0  0  0
   -6.1727    4.1125    5.2238 N   0  0  0  0  0  0  0  0  0  0  0  0
   -6.5299    3.7002    3.9586 C   0  0  0  0  0  0  0  0  0  0  0  0
   -5.4007    2.8770    3.3616 C   0  0  0  0  0  0  0  0  0  0  0  0
  -12.2715   -1.4734    5.5338 C   0  0  0  0  0  0  0  0  0  0  0  0
   -9.9969   -4.1888    5.5013 C   0  0  0  0  0  0  0  0  0  0  0  0
  1 14  1  0  0  0  0
  1  2  2  0  0  0  0
  3  2  1  0  0  0  0
  3  8  2  0  0  0  0
  4  3  1  0  0  0  0
  5  7  2  0  0  0  0
  5  4  1  0  0  0  0
  6  5  1  0  0  0  0
  7  1  1  0  0  0  0
  9 10  1  0  0  0  0
  9  8  1  0  0  0  0
 11  9  2  0  0  0  0
 12 11  1  0  0  0  0
 13  4  2  0  0  0  0
 13 11  1  0  0  0  0
 14 15  1  0  0  0  0
 16 15  1  0  0  0  0
 17 16  1  0  0  0  0
 18 17  1  0  0  0  0
 18 19  1  0  0  0  0
 19 14  1  0  0  0  0
 20 10  1  0  0  0  0
 21 12  1  0  0  0  0
M  END
>  <CHROM.1>
58.68915566,-123.80742131,-94.36892612,-7.78420814,-0.11609146,4.37688294
-0.76379019,-0.35099658,-2.83082944

>  <Name>
lig.pdb

>  <RI>
3.31914e+07

>  <Rbt.Current_Directory>
/home/itssahil/PROJECTS/Mol_Feturizer/New_Systems/rnas/2lwk

>  <Rbt.Executable>
rbdock ($Id: //depot/dev/client3/rdock/2013.1/src/exe/rbdock.cxx#4 $)

>  <Rbt.Library>
libRbt.so (2013.1, Build901 2013/11/27)

>  <Rbt.Parameter_File>
/export/apps/rDock/src/rDock_2013.1_src/data/scripts/dock_solv.prm

>  <Rbt.Receptor>
prm/pocket_docking_3.prm

>  <SCORE>
-18.9048

>  <SCORE.INTER>
-14.1529

>  <SCORE.INTER.CONST>
1

>  <SCORE.INTER.POLAR>
-2.01094

>  <SCORE.INTER.ROT>
3

>  <SCORE.INTER.SOLV>
5.49939

>  <SCORE.INTER.VDW>
-10.1652

>  <SCORE.INTER.norm>
-0.673945

>  <SCORE.INTRA>
-4.75195

>  <SCORE.INTRA.DIHEDRAL>
0.371257

>  <SCORE.INTRA.DIHEDRAL.0>
8.84257

>  <SCORE.INTRA.POLAR>
0

>  <SCORE.INTRA.POLAR.0>
0

>  <SCORE.INTRA.REPUL>
0

>  <SCORE.INTRA.REPUL.0>
0

>  <SCORE.INTRA.SOLV>
0.116116

>  <SCORE.INTRA.SOLV.lig_0>
-17.1313

>  <SCORE.INTRA.VDW>
-4.99564

>  <SCORE.INTRA.VDW.0>
6.34071

>  <SCORE.INTRA.norm>
-0.226283

>  <SCORE.RESTR>
0

>  <SCORE.RESTR.CAVITY>
0

>  <SCORE.RESTR.norm>
0

>  <SCORE.SYSTEM>
0

>  <SCORE.SYSTEM.CONST>
0

>  <SCORE.SYSTEM.DIHEDRAL>
0

>  <SCORE.SYSTEM.SOLV>
0

>  <SCORE.SYSTEM.norm>
0

>  <SCORE.heavy>
21

>  <SCORE.norm>
-0.900229

>  <RMSD>
1.460

$$$$
lig.pdb
 OpenBabel11021811453D
libRbt.so/2013.1/901 2013/11/27
 21 23  0  0  0  0  0  0  0  0999 V2000
   -6.2246   -0.2305    3.9450 C   0  0  0  0  0  0  0  0  0  0  0  0
   -7.3686   -0.1169    4.6103 N   0  0  0  0  0  0  0  0  0  0  0  0
   -8.3678   -0.9411    4.3511 C   0  0  0  0  0  0  0  0  0  0  0  0
   -8.2489   -1.8515    3.3636 C   0  0  0  0  0  0  0  0  0  0  0  0
   -7.0922   -1.9656    2.6973 C   0  0  0  0  0  0  0  0  0  0  0  0
   -6.9675   -2.8589    1.7165 N   0  0  0  0  0  0  0  0  0  0  0  0
   -6.0839   -1.1508    2.9899 N   0  0  0  0  0  0  0  0  0  0  0  0
   -9.5134   -0.8347    5.0446 C   0  0  0  0  0  0  0  0  0  0  0  0
  -10.6000   -1.5676    4.6517 C   0  0  0  0  0  0  0  0  0  0  0  0
  -11.8688   -0.9427    4.7036 O   0  0  0  0  0  0  0  0  0  0  0  0
  -10.4068   -2.5934    3.8064 C   0  0  0  0  0  0  0  0  0  0  0  0
  -11.3668   -3.6383    3.7363 O   0  0  0  0  0  0  0  0  0  0  0  0
   -9.2708   -2.6732    3.0861 C   0  0  0  0  0  0  0  0  0  0  0  0
   -5.2257    0.5890    4.2240 N   0  0  0  0  0  0  0  0  0  0  0  0
   -4.8437    0.6476    5.5034 C   0  0  0  0  0  0  0  0  0  0  0  0
   -5.7970    1.5322    6.2925 C   0  0  0  0  0  0  0  0  0  0  0  0
   -5.7799    2.8102    5.7734 N   0  0  0  0  0  0  0  0  0  0  0  0
   -6.2163    2.7256    4.4693 C   0  0  0  0  0  0  0  0  0  0  0  0
   -5.2632    1.8462    3.6772 C   0  0  0  0  0  0  0  0  0  0  0  0
  -12.6994   -1.7105    5.5365 C   0  0  0  0  0  0  0  0  0  0  0  0
  -10.9476   -4.6916    4.5640 C   0  0  0  0  0  0  0  0  0  0  0  0
  1 14  1  0  0  0  0
  1  2  2  0  0  0  0
  3  2  1  0  0  0  0
  3  8  2  0  0  0  0
  4  3  1  0  0  0  0
  5  7  2  0  0  0  0
  5  4  1  0  0  0  0
  6  5  1  0  0  0  0
  7  1  1  0  0  0  0
  9 10  1  0  0  0  0
  9  8  1  0  0  0  0
 11  9  2  0  0  0  0
 12 11  1  0  0  0  0
 13  4  2  0  0  0  0
 13 11  1  0  0  0  0
 14 15  1  0  0  0  0
 16 15  1  0  0  0  0
 17 16  1  0  0  0  0
 18 17  1  0  0  0  0
 18 19  1  0  0  0  0
 19 14  1  0  0  0  0
 20 10  1  0  0  0  0
 21 12  1  0  0  0  0
M  END
>  <CHROM.1>
54.18904275,-122.13609781,-95.99093366,-8.13269972,-0.84199740,4.23650773
-0.56755015,-0.35056003,-2.52806478

>  <Name>
lig.pdb

>  <RI>
3.31914e+07

>  <Rbt.Current_Directory>
/home/itssahil/PROJECTS/Mol_Feturizer/New_Systems/rnas/2lwk

>  <Rbt.Executable>
rbdock ($Id: //depot/dev/client3/rdock/2013.1/src/exe/rbdock.cxx#4 $)

>  <Rbt.Library>
libRbt.so (2013.1, Build901 2013/11/27)

>  <Rbt.Parameter_File>
/export/apps/rDock/src/rDock_2013.1_src/data/scripts/dock_solv.prm

>  <Rbt.Receptor>
prm/pocket_docking_3.prm

>  <SCORE>
-17.7743

>  <SCORE.INTER>
-13.0577

>  <SCORE.INTER.CONST>
1

>  <SCORE.INTER.POLAR>
-1.59975

>  <SCORE.INTER.ROT>
3

>  <SCORE.INTER.SOLV>
5.93711

>  <SCORE.INTER.VDW>
-10.9517

>  <SCORE.INTER.norm>
-0.621797

>  <SCORE.INTRA>
-4.71659

>  <SCORE.INTRA.DIHEDRAL>
0.424235

>  <SCORE.INTRA.DIHEDRAL.0>
8.84257

>  <SCORE.INTRA.POLAR>
0

>  <SCORE.INTRA.POLAR.0>
0

>  <SCORE.INTRA.REPUL>
0

>  <SCORE.INTRA.REPUL.0>
0

>  <SCORE.INTRA.SOLV>
0.111121

>  <SCORE.INTRA.SOLV.lig_0>
-17.1313

>  <SCORE.INTRA.VDW>
-4.98427

>  <SCORE.INTRA.VDW.0>
6.34071

>  <SCORE.INTRA.norm>
-0.224599

>  <SCORE.RESTR>
0

>  <SCORE.RESTR.CAVITY>
0

>  <SCORE.RESTR.norm>
0

>  <SCORE.SYSTEM>
0

>  <SCORE.SYSTEM.CONST>
0

>  <SCORE.SYSTEM.DIHEDRAL>
0

>  <SCORE.SYSTEM.SOLV>
0

>  <SCORE.SYSTEM.norm>
0

>  <SCORE.heavy>
21

>  <SCORE.norm>
-0.846397

>  <RMSD>
1.477

$$$$
lig.pdb
 OpenBabel11021811453D
libRbt.so/2013.1/901 2013/11/27
 21 23  0  0  0  0  0  0  0  0999 V2000
   -6.8583    0.7205    4.8542 C   0  0  0  0  0  0  0  0  0  0  0  0
   -8.1112    0.5087    5.2409 N   0  0  0  0  0  0  0  0  0  0  0  0
   -8.7827   -0.5254    4.7670 C   0  0  0  0  0  0  0  0  0  0  0  0
   -8.2186   -1.3245    3.8388 C   0  0  0  0  0  0  0  0  0  0  0  0
   -6.9535   -1.1099    3.4539 C   0  0  0  0  0  0  0  0  0  0  0  0
   -6.3899   -1.8914    2.5335 N   0  0  0  0  0  0  0  0  0  0  0  0
   -6.2785   -0.0843    3.9626 N   0  0  0  0  0  0  0  0  0  0  0  0
  -10.0415   -0.7461    5.1810 C   0  0  0  0  0  0  0  0  0  0  0  0
  -10.7890   -1.7070    4.5562 C   0  0  0  0  0  0  0  0  0  0  0  0
  -12.1544   -1.4242    4.3138 O   0  0  0  0  0  0  0  0  0  0  0  0
  -10.1570   -2.6063    3.7843 C   0  0  0  0  0  0  0  0  0  0  0  0
  -10.7769   -3.8537    3.5049 O   0  0  0  0  0  0  0  0  0  0  0  0
   -8.9081   -2.3610    3.3419 C   0  0  0  0  0  0  0  0  0  0  0  0
   -6.1903    1.7490    5.3473 N   0  0  0  0  0  0  0  0  0  0  0  0
   -6.3244    2.9109    4.7006 C   0  0  0  0  0  0  0  0  0  0  0  0
   -5.4407    2.9237    3.4625 C   0  0  0  0  0  0  0  0  0  0  0  0
   -4.1200    2.7818    3.8346 N   0  0  0  0  0  0  0  0  0  0  0  0
   -4.0028    1.5602    4.4611 C   0  0  0  0  0  0  0  0  0  0  0  0
   -4.8810    1.5460    5.7012 C   0  0  0  0  0  0  0  0  0  0  0  0
  -12.8997   -1.9068    5.4022 C   0  0  0  0  0  0  0  0  0  0  0  0
  -10.5432   -4.7240    4.5811 C   0  0  0  0  0  0  0  0  0  0  0  0
  1 14  1  0  0  0  0
  1  2  2  0  0  0  0
  3  2  1  0  0  0  0
  3  8  2  0  0  0  0
  4  3  1  0  0  0  0
  5  7  2  0  0  0  0
  5  4  1  0  0  0  0
  6  5  1  0  0  0  0
  7  1  1  0  0  0  0
  9 10  1  0  0  0  0
  9  8  1  0  0  0  0
 11  9  2  0  0  0  0
 12 11  1  0  0  0  0
 13  4  2  0  0  0  0
 13 11  1  0  0  0  0
 14 15  1  0  0  0  0
 16 15  1  0  0  0  0
 17 16  1  0  0  0  0
 18 17  1  0  0  0  0
 18 19  1  0  0  0  0
 19 14  1  0  0  0  0
 20 10  1  0  0  0  0
 21 12  1  0  0  0  0
M  END
>  <CHROM.1>
-87.48450326,-92.24608760,-82.58124793,-8.04927457,-0.46925769,4.31406064
0.60784999,0.30176069,0.41795977

>  <Name>
lig.pdb

>  <RI>
2.6678e+07

>  <Rbt.Current_Directory>
/home/itssahil/PROJECTS/Mol_Feturizer/New_Systems/rnas/2lwk

>  <Rbt.Executable>
rbdock ($Id: //depot/dev/client3/rdock/2013.1/src/exe/rbdock.cxx#4 $)

>  <Rbt.Library>
libRbt.so (2013.1, Build901 2013/11/27)

>  <Rbt.Parameter_File>
/export/apps/rDock/src/rDock_2013.1_src/data/scripts/dock_solv.prm

>  <Rbt.Receptor>
prm/pocket_docking_2.prm

>  <SCORE>
-13.9376

>  <SCORE.INTER>
-9.74757

>  <SCORE.INTER.CONST>
1

>  <SCORE.INTER.POLAR>
-1.38246

>  <SCORE.INTER.ROT>
3

>  <SCORE.INTER.SOLV>
5.66008

>  <SCORE.INTER.VDW>
-9.37689

>  <SCORE.INTER.norm>
-0.46417

>  <SCORE.INTRA>
-5.09912

>  <SCORE.INTRA.DIHEDRAL>
0.852386

>  <SCORE.INTRA.DIHEDRAL.0>
8.84257

>  <SCORE.INTRA.POLAR>
0

>  <SCORE.INTRA.POLAR.0>
0

>  <SCORE.INTRA.REPUL>
0

>  <SCORE.INTRA.REPUL.0>
0

>  <SCORE.INTRA.SOLV>
0.0741835

>  <SCORE.INTRA.SOLV.lig_0>
-17.1313

>  <SCORE.INTRA.VDW>
-5.5624

>  <SCORE.INTRA.VDW.0>
6.34071

>  <SCORE.INTRA.norm>
-0.242815

>  <SCORE.RESTR>
0.909069

>  <SCORE.RESTR.CAVITY>
0.909069

>  <SCORE.RESTR.norm>
0.043289

>  <SCORE.SYSTEM>
0

>  <SCORE.SYSTEM.CONST>
0

>  <SCORE.SYSTEM.DIHEDRAL>
0

>  <SCORE.SYSTEM.SOLV>
0

>  <SCORE.SYSTEM.norm>
0

>  <SCORE.heavy>
21

>  <SCORE.norm>
-0.663696

>  <RMSD>
1.487

$$$$
lig.pdb
 OpenBabel11021811453D
libRbt.so/2013.1/901 2013/11/27
 21 23  0  0  0  0  0  0  0  0999 V2000
   -7.4839    0.6657    4.5486 C   0  0  0  0  0  0  0  0  0  0  0  0
   -8.7039    0.3660    4.9800 N   0  0  0  0  0  0  0  0  0  0  0  0
   -9.1752   -0.8587    4.8293 C   0  0  0  0  0  0  0  0  0  0  0  0
   -8.4442   -1.7843    4.1758 C   0  0  0  0  0  0  0  0  0  0  0  0
   -7.2127   -1.4794    3.7453 C   0  0  0  0  0  0  0  0  0  0  0  0
   -6.4853   -2.3862    3.0941 N   0  0  0  0  0  0  0  0  0  0  0  0
   -6.7382   -0.2521    3.9318 N   0  0  0  0  0  0  0  0  0  0  0  0
  -10.4009   -1.1599    5.2893 C   0  0  0  0  0  0  0  0  0  0  0  0
  -10.9516   -2.3719    4.9729 C   0  0  0  0  0  0  0  0  0  0  0  0
  -12.3310   -2.4059    4.6579 O   0  0  0  0  0  0  0  0  0  0  0  0
  -10.1451   -3.3355    4.4981 C   0  0  0  0  0  0  0  0  0  0  0  0
  -10.5410   -4.6963    4.5959 O   0  0  0  0  0  0  0  0  0  0  0  0
   -8.9318   -3.0209    4.0037 C   0  0  0  0  0  0  0  0  0  0  0  0
   -7.0160    1.8901    4.7194 N   0  0  0  0  0  0  0  0  0  0  0  0
   -7.1574    2.7301    3.6895 C   0  0  0  0  0  0  0  0  0  0  0  0
   -6.0848    2.4601    2.6452 C   0  0  0  0  0  0  0  0  0  0  0  0
   -4.8375    2.6572    3.2005 N   0  0  0  0  0  0  0  0  0  0  0  0
   -4.7033    1.7524    4.2309 C   0  0  0  0  0  0  0  0  0  0  0  0
   -5.7706    2.0226    5.2782 C   0  0  0  0  0  0  0  0  0  0  0  0
  -13.0549   -2.2710    5.8540 C   0  0  0  0  0  0  0  0  0  0  0  0
  -11.4149   -4.9885    3.5371 C   0  0  0  0  0  0  0  0  0  0  0  0
  1 14  1  0  0  0  0
  1  2  2  0  0  0  0
  3  2  1  0  0  0  0
  3  8  2  0  0  0  0
  4  3  1  0  0  0  0
  5  7  2  0  0  0  0
  5  4  1  0  0  0  0
  6  5  1  0  0  0  0
  7  1  1  0  0  0  0
  9 10  1  0  0  0  0
  9  8  1  0  0  0  0
 11  9  2  0  0  0  0
 12 11  1  0  0  0  0
 13  4  2  0  0  0  0
 13 11  1  0  0  0  0
 14 15  1  0  0  0  0
 16 15  1  0  0  0  0
 17 16  1  0  0  0  0
 18 17  1  0  0  0  0
 18 19  1  0  0  0  0
 19 14  1  0  0  0  0
 20 10  1  0  0  0  0
 21 12  1  0  0  0  0
M  END
>  <CHROM.1>
-95.58414114,-74.92104658,81.82763465,-8.46747571,-0.80018901,4.29334915
0.71150633,0.35678446,0.24474867

>  <Name>
lig.pdb

>  <RI>
2.6678e+07

>  <Rbt.Current_Directory>
/home/itssahil/PROJECTS/Mol_Feturizer/New_Systems/rnas/2lwk

>  <Rbt.Executable>
rbdock ($Id: //depot/dev/client3/rdock/2013.1/src/exe/rbdock.cxx#4 $)

>  <Rbt.Library>
libRbt.so (2013.1, Build901 2013/11/27)

>  <Rbt.Parameter_File>
/export/apps/rDock/src/rDock_2013.1_src/data/scripts/dock_solv.prm

>  <Rbt.Receptor>
prm/pocket_docking_2.prm

>  <SCORE>
-15.2281

>  <SCORE.INTER>
-11.499

>  <SCORE.INTER.CONST>
1

>  <SCORE.INTER.POLAR>
-1.57994

>  <SCORE.INTER.ROT>
3

>  <SCORE.INTER.SOLV>
5.38214

>  <SCORE.INTER.VDW>
-9.7936

>  <SCORE.INTER.norm>
-0.547572

>  <SCORE.INTRA>
-4.7074

>  <SCORE.INTRA.DIHEDRAL>
-0.0427229

>  <SCORE.INTRA.DIHEDRAL.0>
8.84257

>  <SCORE.INTRA.POLAR>
0

>  <SCORE.INTRA.POLAR.0>
0

>  <SCORE.INTRA.REPUL>
0

>  <SCORE.INTRA.REPUL.0>
0

>  <SCORE.INTRA.SOLV>
0.120308

>  <SCORE.INTRA.SOLV.lig_0>
-17.1313

>  <SCORE.INTRA.VDW>
-4.74619

>  <SCORE.INTRA.VDW.0>
6.34071

>  <SCORE.INTRA.norm>
-0.224162

>  <SCORE.RESTR>
0.978345

>  <SCORE.RESTR.CAVITY>
0.978345

>  <SCORE.RESTR.norm>
0.0465879

>  <SCORE.SYSTEM>
0

>  <SCORE.SYSTEM.CONST>
0

>  <SCORE.SYSTEM.DIHEDRAL>
0

>  <SCORE.SYSTEM.SOLV>
0

>  <SCORE.SYSTEM.norm>
0

>  <SCORE.heavy>
21

>  <SCORE.norm>
-0.725146

>  <RMSD>
1.521

$$$$
lig.pdb
 OpenBabel11021811453D
libRbt.so/2013.1/901 2013/11/27
 21 23  0  0  0  0  0  0  0  0999 V2000
   -6.8115    0.8219    4.8545 C   0  0  0  0  0  0  0  0  0  0  0  0
   -8.0771    0.6260    5.2066 N   0  0  0  0  0  0  0  0  0  0  0  0
   -8.7289   -0.4345    4.7645 C   0  0  0  0  0  0  0  0  0  0  0  0
   -8.1300   -1.2795    3.9010 C   0  0  0  0  0  0  0  0  0  0  0  0
   -6.8522   -1.0806    3.5510 C   0  0  0  0  0  0  0  0  0  0  0  0
   -6.2541   -1.9076    2.6943 N   0  0  0  0  0  0  0  0  0  0  0  0
   -6.1981   -0.0268    4.0284 N   0  0  0  0  0  0  0  0  0  0  0  0
  -10.0014   -0.6379    5.1441 C   0  0  0  0  0  0  0  0  0  0  0  0
  -10.7238   -1.6335    4.5448 C   0  0  0  0  0  0  0  0  0  0  0  0
  -12.0802   -1.3695    4.2387 O   0  0  0  0  0  0  0  0  0  0  0  0
  -10.0625   -2.5701    3.8450 C   0  0  0  0  0  0  0  0  0  0  0  0
  -10.6694   -3.8329    3.6103 O   0  0  0  0  0  0  0  0  0  0  0  0
   -8.7990   -2.3436    3.4354 C   0  0  0  0  0  0  0  0  0  0  0  0
   -6.1639    1.8778    5.3159 N   0  0  0  0  0  0  0  0  0  0  0  0
   -6.2539    2.9956    4.5889 C   0  0  0  0  0  0  0  0  0  0  0  0
   -5.3038    2.9245    3.4030 C   0  0  0  0  0  0  0  0  0  0  0  0
   -4.0064    2.8021    3.8556 N   0  0  0  0  0  0  0  0  0  0  0  0
   -3.9326    1.6234    4.5654 C   0  0  0  0  0  0  0  0  0  0  0  0
   -4.8773    1.6933    5.7536 C   0  0  0  0  0  0  0  0  0  0  0  0
  -12.8645   -1.8097    5.3176 C   0  0  0  0  0  0  0  0  0  0  0  0
  -10.3144   -4.7041    4.6521 C   0  0  0  0  0  0  0  0  0  0  0  0
  1 14  1  0  0  0  0
  1  2  2  0  0  0  0
  3  2  1  0  0  0  0
  3  8  2  0  0  0  0
  4  3  1  0  0  0  0
  5  7  2  0  0  0  0
  5  4  1  0  0  0  0
  6  5  1  0  0  0  0
  7  1  1  0  0  0  0
  9 10  1  0  0  0  0
  9  8  1  0  0  0  0
 11  9  2  0  0  0  0
 12 11  1  0  0  0  0
 13  4  2  0  0  0  0
 13 11  1  0  0  0  0
 14 15  1  0  0  0  0
 16 15  1  0  0  0  0
 17 16  1  0  0  0  0
 18 17  1  0  0  0  0
 18 19  1  0  0  0  0
 19 14  1  0  0  0  0
 20 10  1  0  0  0  0
 21 12  1  0  0  0  0
M  END
>  <CHROM.1>
-88.84875056,-92.86898706,-90.79975450,-7.96620399,-0.40856090,4.33552691
0.62721616,0.26353041,0.35853466

>  <Name>
lig.pdb

>  <RI>
3.31914e+07

>  <Rbt.Current_Directory>
/home/itssahil/PROJECTS/Mol_Feturizer/New_Systems/rnas/2lwk

>  <Rbt.Executable>
rbdock ($Id: //depot/dev/client3/rdock/2013.1/src/exe/rbdock.cxx#4 $)

>  <Rbt.Library>
libRbt.so (2013.1, Build901 2013/11/27)

>  <Rbt.Parameter_File>
/export/apps/rDock/src/rDock_2013.1_src/data/scripts/dock_solv.prm

>  <Rbt.Receptor>
prm/pocket_docking_3.prm

>  <SCORE>
-15.2272

>  <SCORE.INTER>
-10.1195

>  <SCORE.INTER.CONST>
1

>  <SCORE.INTER.POLAR>
-1.46282

>  <SCORE.INTER.ROT>
3

>  <SCORE.INTER.SOLV>
5.48843

>  <SCORE.INTER.VDW>
-9.29973

>  <SCORE.INTER.norm>
-0.48188

>  <SCORE.INTRA>
-5.10774

>  <SCORE.INTRA.DIHEDRAL>
0.899949

>  <SCORE.INTRA.DIHEDRAL.0>
8.84257

>  <SCORE.INTRA.POLAR>
0

>  <SCORE.INTRA.POLAR.0>
0

>  <SCORE.INTRA.REPUL>
0

>  <SCORE.INTRA.REPUL.0>
0

>  <SCORE.INTRA.SOLV>
0.0707046

>  <SCORE.INTRA.SOLV.lig_0>
-17.1313

>  <SCORE.INTRA.VDW>
-5.59306

>  <SCORE.INTRA.VDW.0>
6.34071

>  <SCORE.INTRA.norm>
-0.243226

>  <SCORE.RESTR>
0

>  <SCORE.RESTR.CAVITY>
0

>  <SCORE.RESTR.norm>
0

>  <SCORE.SYSTEM>
0

>  <SCORE.SYSTEM.CONST>
0

>  <SCORE.SYSTEM.DIHEDRAL>
0

>  <SCORE.SYSTEM.SOLV>
0

>  <SCORE.SYSTEM.norm>
0

>  <SCORE.heavy>
21

>  <SCORE.norm>
-0.725106

>  <RMSD>
1.536

$$$$
lig.pdb
 OpenBabel11021811453D
libRbt.so/2013.1/901 2013/11/27
 21 23  0  0  0  0  0  0  0  0999 V2000
   -7.2288    0.5593    4.7444 C   0  0  0  0  0  0  0  0  0  0  0  0
   -8.4097    0.0639    5.0967 N   0  0  0  0  0  0  0  0  0  0  0  0
   -8.8054   -1.1025    4.6194 C   0  0  0  0  0  0  0  0  0  0  0  0
   -8.0403   -1.7554    3.7214 C   0  0  0  0  0  0  0  0  0  0  0  0
   -6.8481   -1.2544    3.3713 C   0  0  0  0  0  0  0  0  0  0  0  0
   -6.0877   -1.8903    2.4807 N   0  0  0  0  0  0  0  0  0  0  0  0
   -6.4481   -0.0952    3.8836 N   0  0  0  0  0  0  0  0  0  0  0  0
   -9.9909   -1.6078    4.9988 C   0  0  0  0  0  0  0  0  0  0  0  0
  -10.4726   -2.7220    4.3673 C   0  0  0  0  0  0  0  0  0  0  0  0
  -11.8576   -2.7682    4.0795 O   0  0  0  0  0  0  0  0  0  0  0  0
   -9.6232   -3.4552    3.6291 C   0  0  0  0  0  0  0  0  0  0  0  0
   -9.9254   -4.8152    3.3512 O   0  0  0  0  0  0  0  0  0  0  0  0
   -8.4521   -2.9285    3.2205 C   0  0  0  0  0  0  0  0  0  0  0  0
   -6.8358    1.7196    5.2410 N   0  0  0  0  0  0  0  0  0  0  0  0
   -6.6176    2.7006    4.3600 C   0  0  0  0  0  0  0  0  0  0  0  0
   -5.2592    2.5168    3.7004 C   0  0  0  0  0  0  0  0  0  0  0  0
   -4.2685    2.5636    4.6593 N   0  0  0  0  0  0  0  0  0  0  0  0
   -4.4942    1.5188    5.5288 C   0  0  0  0  0  0  0  0  0  0  0  0
   -5.8486    1.7022    6.1929 C   0  0  0  0  0  0  0  0  0  0  0  0
  -12.4907   -3.4985    5.0988 C   0  0  0  0  0  0  0  0  0  0  0  0
   -9.5083   -5.6005    4.4372 C   0  0  0  0  0  0  0  0  0  0  0  0
  1 14  1  0  0  0  0
  1  2  2  0  0  0  0
  3  2  1  0  0  0  0
  3  8  2  0  0  0  0
  4  3  1  0  0  0  0
  5  7  2  0  0  0  0
  5  4  1  0  0  0  0
  6  5  1  0  0  0  0
  7  1  1  0  0  0  0
  9 10  1  0  0  0  0
  9  8  1  0  0  0  0
 11  9  2  0  0  0  0
 12 11  1  0  0  0  0
 13  4  2  0  0  0  0
 13 11  1  0  0  0  0
 14 15  1  0  0  0  0
 16 15  1  0  0  0  0
 17 16  1  0  0  0  0
 18 17  1  0  0  0  0
 18 19  1  0  0  0  0
 19 14  1  0  0  0  0
 20 10  1  0  0  0  0
 21 12  1  0  0  0  0
M  END
>  <CHROM.1>
-118.73432182,-97.01245548,-83.64998581,-7.97847201,-0.97955276,4.31699520
0.78744241,0.34795616,0.43309196

>  <Name>
lig.pdb

>  <RI>
2.6678e+07

>  <Rbt.Current_Directory>
/home/itssahil/PROJECTS/Mol_Feturizer/New_Systems/rnas/2lwk

>  <Rbt.Executable>
rbdock ($Id: //depot/dev/client3/rdock/2013.1/src/exe/rbdock.cxx#4 $)

>  <Rbt.Library>
libRbt.so (2013.1, Build901 2013/11/27)

>  <Rbt.Parameter_File>
/export/apps/rDock/src/rDock_2013.1_src/data/scripts/dock_solv.prm

>  <Rbt.Receptor>
prm/pocket_docking_2.prm

>  <SCORE>
-15.9712

>  <SCORE.INTER>
-10.7483

>  <SCORE.INTER.CONST>
1

>  <SCORE.INTER.POLAR>
-1.84934

>  <SCORE.INTER.ROT>
3

>  <SCORE.INTER.SOLV>
4.91304

>  <SCORE.INTER.VDW>
-8.23871

>  <SCORE.INTER.norm>
-0.511822

>  <SCORE.INTRA>
-5.40127

>  <SCORE.INTRA.DIHEDRAL>
0.949722

>  <SCORE.INTRA.DIHEDRAL.0>
8.84257

>  <SCORE.INTRA.POLAR>
0

>  <SCORE.INTRA.POLAR.0>
0

>  <SCORE.INTRA.REPUL>
0

>  <SCORE.INTRA.REPUL.0>
0

>  <SCORE.INTRA.SOLV>
0.0855342

>  <SCORE.INTRA.SOLV.lig_0>
-17.1313

>  <SCORE.INTRA.VDW>
-5.91889

>  <SCORE.INTRA.VDW.0>
6.34071

>  <SCORE.INTRA.norm>
-0.257203

>  <SCORE.RESTR>
0.17834

>  <SCORE.RESTR.CAVITY>
0.17834

>  <SCORE.RESTR.norm>
0.00849237

>  <SCORE.SYSTEM>
0

>  <SCORE.SYSTEM.CONST>
0

>  <SCORE.SYSTEM.DIHEDRAL>
0

>  <SCORE.SYSTEM.SOLV>
0

>  <SCORE.SYSTEM.norm>
0

>  <SCORE.heavy>
21

>  <SCORE.norm>
-0.760533

>  <RMSD>
1.569

$$$$
lig.pdb
 OpenBabel11021811453D
libRbt.so/2013.1/901 2013/11/27
 21 23  0  0  0  0  0  0  0  0999 V2000
   -7.2359    0.5547    4.7581 C   0  0  0  0  0  0  0  0  0  0  0  0
   -8.4183    0.0604    5.1070 N   0  0  0  0  0  0  0  0  0  0  0  0
   -8.8138   -1.1056    4.6286 C   0  0  0  0  0  0  0  0  0  0  0  0
   -8.0467   -1.7594    3.7329 C   0  0  0  0  0  0  0  0  0  0  0  0
   -6.8530   -1.2595    3.3862 C   0  0  0  0  0  0  0  0  0  0  0  0
   -6.0907   -1.8962    2.4979 N   0  0  0  0  0  0  0  0  0  0  0  0
   -6.4534   -0.1006    3.8996 N   0  0  0  0  0  0  0  0  0  0  0  0
  -10.0009   -1.6097    5.0047 C   0  0  0  0  0  0  0  0  0  0  0  0
  -10.4818   -2.7234    4.3719 C   0  0  0  0  0  0  0  0  0  0  0  0
  -11.8660   -2.7683    4.0801 O   0  0  0  0  0  0  0  0  0  0  0  0
   -9.6310   -3.4576    3.6361 C   0  0  0  0  0  0  0  0  0  0  0  0
   -9.9338   -4.8173    3.3574 O   0  0  0  0  0  0  0  0  0  0  0  0
   -8.4583   -2.9321    3.2309 C   0  0  0  0  0  0  0  0  0  0  0  0
   -6.8432    1.7146    5.2557 N   0  0  0  0  0  0  0  0  0  0  0  0
   -6.6238    2.6961    4.3755 C   0  0  0  0  0  0  0  0  0  0  0  0
   -5.2647    2.5123    3.7173 C   0  0  0  0  0  0  0  0  0  0  0  0
   -4.2751    2.5583    4.6773 N   0  0  0  0  0  0  0  0  0  0  0  0
   -4.5019    1.5132    5.5460 C   0  0  0  0  0  0  0  0  0  0  0  0
   -5.8571    1.6965    6.2087 C   0  0  0  0  0  0  0  0  0  0  0  0
  -12.5027   -3.4983    5.0974 C   0  0  0  0  0  0  0  0  0  0  0  0
   -9.5125   -5.6040    4.4409 C   0  0  0  0  0  0  0  0  0  0  0  0
  1 14  1  0  0  0  0
  1  2  2  0  0  0  0
  3  2  1  0  0  0  0
  3  8  2  0  0  0  0
  4  3  1  0  0  0  0
  5  7  2  0  0  0  0
  5  4  1  0  0  0  0
  6  5  1  0  0  0  0
  7  1  1  0  0  0  0
  9 10  1  0  0  0  0
  9  8  1  0  0  0  0
 11  9  2  0  0  0  0
 12 11  1  0  0  0  0
 13  4  2  0  0  0  0
 13 11  1  0  0  0  0
 14 15  1  0  0  0  0
 16 15  1  0  0  0  0
 17 16  1  0  0  0  0
 18 17  1  0  0  0  0
 18 19  1  0  0  0  0
 19 14  1  0  0  0  0
 20 10  1  0  0  0  0
 21 12  1  0  0  0  0
M  END
>  <CHROM.1>
-118.61780955,-97.03036025,-84.03791265,-7.98567241,-0.98320502,4.32780140
0.78824547,0.34458218,0.43212466

>  <Name>
lig.pdb

>  <RI>
2.6678e+07

>  <Rbt.Current_Directory>
/home/itssahil/PROJECTS/Mol_Feturizer/New_Systems/rnas/2lwk

>  <Rbt.Executable>
rbdock ($Id: //depot/dev/client3/rdock/2013.1/src/exe/rbdock.cxx#4 $)

>  <Rbt.Library>
libRbt.so (2013.1, Build901 2013/11/27)

>  <Rbt.Parameter_File>
/export/apps/rDock/src/rDock_2013.1_src/data/scripts/dock_solv.prm

>  <Rbt.Receptor>
prm/pocket_docking_2.prm

>  <SCORE>
-15.9595

>  <SCORE.INTER>
-10.7277

>  <SCORE.INTER.CONST>
1

>  <SCORE.INTER.POLAR>
-1.8502

>  <SCORE.INTER.ROT>
3

>  <SCORE.INTER.SOLV>
4.91114

>  <SCORE.INTER.VDW>
-8.22151

>  <SCORE.INTER.norm>
-0.510843

>  <SCORE.INTRA>
-5.40364

>  <SCORE.INTRA.DIHEDRAL>
0.95475

>  <SCORE.INTRA.DIHEDRAL.0>
8.84257

>  <SCORE.INTRA.POLAR>
0

>  <SCORE.INTRA.POLAR.0>
0

>  <SCORE.INTRA.REPUL>
0

>  <SCORE.INTRA.REPUL.0>
0

>  <SCORE.INTRA.SOLV>
0.0852286

>  <SCORE.INTRA.SOLV.lig_0>
-17.1313

>  <SCORE.INTRA.VDW>
-5.92363

>  <SCORE.INTRA.VDW.0>
6.34071

>  <SCORE.INTRA.norm>
-0.257316

>  <SCORE.RESTR>
0.171825

>  <SCORE.RESTR.CAVITY>
0.171825

>  <SCORE.RESTR.norm>
0.00818213

>  <SCORE.SYSTEM>
0

>  <SCORE.SYSTEM.CONST>
0

>  <SCORE.SYSTEM.DIHEDRAL>
0

>  <SCORE.SYSTEM.SOLV>
0

>  <SCORE.SYSTEM.norm>
0

>  <SCORE.heavy>
21

>  <SCORE.norm>
-0.759978

>  <RMSD>
1.576

$$$$
lig.pdb
 OpenBabel11021811453D
libRbt.so/2013.1/901 2013/11/27
 21 23  0  0  0  0  0  0  0  0999 V2000
   -7.2424    0.5674    4.7555 C   0  0  0  0  0  0  0  0  0  0  0  0
   -8.4205    0.0647    5.1071 N   0  0  0  0  0  0  0  0  0  0  0  0
   -8.8124   -1.1001    4.6229 C   0  0  0  0  0  0  0  0  0  0  0  0
   -8.0465   -1.7440    3.7190 C   0  0  0  0  0  0  0  0  0  0  0  0
   -6.8573   -1.2357    3.3695 C   0  0  0  0  0  0  0  0  0  0  0  0
   -6.0962   -1.8625    2.4731 N   0  0  0  0  0  0  0  0  0  0  0  0
   -6.4610   -0.0782    3.8886 N   0  0  0  0  0  0  0  0  0  0  0  0
   -9.9949   -1.6128    5.0016 C   0  0  0  0  0  0  0  0  0  0  0  0
  -10.4734   -2.7248    4.3638 C   0  0  0  0  0  0  0  0  0  0  0  0
  -11.8588   -2.7749    4.0788 O   0  0  0  0  0  0  0  0  0  0  0  0
   -9.6226   -3.4497    3.6189 C   0  0  0  0  0  0  0  0  0  0  0  0
   -9.9198   -4.8090    3.3326 O   0  0  0  0  0  0  0  0  0  0  0  0
   -8.4547   -2.9154    3.2113 C   0  0  0  0  0  0  0  0  0  0  0  0
   -6.8531    1.7260    5.2588 N   0  0  0  0  0  0  0  0  0  0  0  0
   -6.6169    2.7064    4.3819 C   0  0  0  0  0  0  0  0  0  0  0  0
   -5.2487    2.5176    3.7444 C   0  0  0  0  0  0  0  0  0  0  0  0
   -4.2735    2.5603    4.7193 N   0  0  0  0  0  0  0  0  0  0  0  0
   -4.5172    1.5161    5.5845 C   0  0  0  0  0  0  0  0  0  0  0  0
   -5.8816    1.7045    6.2266 C   0  0  0  0  0  0  0  0  0  0  0  0
  -12.4888   -3.5015    5.1027 C   0  0  0  0  0  0  0  0  0  0  0  0
   -9.5358   -5.5950    4.4304 C   0  0  0  0  0  0  0  0  0  0  0  0
  1 14  1  0  0  0  0
  1  2  2  0  0  0  0
  3  2  1  0  0  0  0
  3  8  2  0  0  0  0
  4  3  1  0  0  0  0
  5  7  2  0  0  0  0
  5  4  1  0  0  0  0
  6  5  1  0  0  0  0
  7  1  1  0  0  0  0
  9 10  1  0  0  0  0
  9  8  1  0  0  0  0
 11  9  2  0  0  0  0
 12 11  1  0  0  0  0
 13  4  2  0  0  0  0
 13 11  1  0  0  0  0
 14 15  1  0  0  0  0
 16 15  1  0  0  0  0
 17 16  1  0  0  0  0
 18 17  1  0  0  0  0
 18 19  1  0  0  0  0
 19 14  1  0  0  0  0
 20 10  1  0  0  0  0
 21 12  1  0  0  0  0
M  END
>  <CHROM.1>
-119.94015293,-96.34860103,-81.80164783,-7.98625650,-0.97444047,4.32717068
0.78700164,0.35333905,0.44506122

>  <Name>
lig.pdb

>  <RI>
2.6678e+07

>  <Rbt.Current_Directory>
/home/itssahil/PROJECTS/Mol_Feturizer/New_Systems/rnas/2lwk

>  <Rbt.Executable>
rbdock ($Id: //depot/dev/client3/rdock/2013.1/src/exe/rbdock.cxx#4 $)

>  <Rbt.Library>
libRbt.so (2013.1, Build901 2013/11/27)

>  <Rbt.Parameter_File>
/export/apps/rDock/src/rDock_2013.1_src/data/scripts/dock_solv.prm

>  <Rbt.Receptor>
prm/pocket_docking_2.prm

>  <SCORE>
-15.8709

>  <SCORE.INTER>
-10.6892

>  <SCORE.INTER.CONST>
1

>  <SCORE.INTER.POLAR>
-1.85906

>  <SCORE.INTER.ROT>
3

>  <SCORE.INTER.SOLV>
4.96007

>  <SCORE.INTER.VDW>
-8.18265

>  <SCORE.INTER.norm>
-0.509011

>  <SCORE.INTRA>
-5.35639

>  <SCORE.INTRA.DIHEDRAL>
0.910961

>  <SCORE.INTRA.DIHEDRAL.0>
8.84257

>  <SCORE.INTRA.POLAR>
0

>  <SCORE.INTRA.POLAR.0>
0

>  <SCORE.INTRA.REPUL>
0

>  <SCORE.INTRA.REPUL.0>
0

>  <SCORE.INTRA.SOLV>
0.0867803

>  <SCORE.INTRA.SOLV.lig_0>
-17.1313

>  <SCORE.INTRA.VDW>
-5.85526

>  <SCORE.INTRA.VDW.0>
6.34071

>  <SCORE.INTRA.norm>
-0.255066

>  <SCORE.RESTR>
0.17473

>  <SCORE.RESTR.CAVITY>
0.17473

>  <SCORE.RESTR.norm>
0.00832046

>  <SCORE.SYSTEM>
0

>  <SCORE.SYSTEM.CONST>
0

>  <SCORE.SYSTEM.DIHEDRAL>
0

>  <SCORE.SYSTEM.SOLV>
0

>  <SCORE.SYSTEM.norm>
0

>  <SCORE.heavy>
21

>  <SCORE.norm>
-0.755757

>  <RMSD>
1.576

$$$$
lig.pdb
 OpenBabel11021811453D
libRbt.so/2013.1/901 2013/11/27
 21 23  0  0  0  0  0  0  0  0999 V2000
   -6.9872    1.1677    4.7242 C   0  0  0  0  0  0  0  0  0  0  0  0
   -8.1254    0.5715    5.0606 N   0  0  0  0  0  0  0  0  0  0  0  0
   -8.3894   -0.6449    4.6184 C   0  0  0  0  0  0  0  0  0  0  0  0
   -7.5347   -1.2518    3.7703 C   0  0  0  0  0  0  0  0  0  0  0  0
   -6.3859   -0.6488    3.4361 C   0  0  0  0  0  0  0  0  0  0  0  0
   -5.5378   -1.2388    2.5946 N   0  0  0  0  0  0  0  0  0  0  0  0
   -6.1181    0.5622    3.9136 N   0  0  0  0  0  0  0  0  0  0  0  0
   -9.5322   -1.2504    4.9822 C   0  0  0  0  0  0  0  0  0  0  0  0
   -9.8816   -2.4290    4.3814 C   0  0  0  0  0  0  0  0  0  0  0  0
  -11.2451   -2.6221    4.0546 O   0  0  0  0  0  0  0  0  0  0  0  0
   -8.9406   -3.1015    3.6985 C   0  0  0  0  0  0  0  0  0  0  0  0
   -9.0995   -4.4940    3.4660 O   0  0  0  0  0  0  0  0  0  0  0  0
   -7.8133   -2.4773    3.3044 C   0  0  0  0  0  0  0  0  0  0  0  0
   -6.7260    2.3785    5.1857 N   0  0  0  0  0  0  0  0  0  0  0  0
   -6.6596    3.3590    4.2799 C   0  0  0  0  0  0  0  0  0  0  0  0
   -5.3106    3.3299    3.5775 C   0  0  0  0  0  0  0  0  0  0  0  0
   -4.3034    3.5203    4.5007 N   0  0  0  0  0  0  0  0  0  0  0  0
   -4.3695    2.4753    5.3963 C   0  0  0  0  0  0  0  0  0  0  0  0
   -5.7144    2.5046    6.1032 C   0  0  0  0  0  0  0  0  0  0  0  0
  -11.8531   -3.3173    5.1130 C   0  0  0  0  0  0  0  0  0  0  0  0
   -8.5226   -5.1980    4.5346 C   0  0  0  0  0  0  0  0  0  0  0  0
  1 14  1  0  0  0  0
  1  2  2  0  0  0  0
  3  2  1  0  0  0  0
  3  8  2  0  0  0  0
  4  3  1  0  0  0  0
  5  7  2  0  0  0  0
  5  4  1  0  0  0  0
  6  5  1  0  0  0  0
  7  1  1  0  0  0  0
  9 10  1  0  0  0  0
  9  8  1  0  0  0  0
 11  9  2  0  0  0  0
 12 11  1  0  0  0  0
 13  4  2  0  0  0  0
 13 11  1  0  0  0  0
 14 15  1  0  0  0  0
 16 15  1  0  0  0  0
 17 16  1  0  0  0  0
 18 17  1  0  0  0  0
 18 19  1  0  0  0  0
 19 14  1  0  0  0  0
 20 10  1  0  0  0  0
 21 12  1  0  0  0  0
M  END
>  <CHROM.1>
-114.59477323,-94.20084241,-89.50533110,-7.57325871,-0.43899788,4.31262595
0.90633739,0.35104993,0.33793770

>  <Name>
lig.pdb

>  <RI>
3.31914e+07

>  <Rbt.Current_Directory>
/home/itssahil/PROJECTS/Mol_Feturizer/New_Systems/rnas/2lwk

>  <Rbt.Executable>
rbdock ($Id: //depot/dev/client3/rdock/2013.1/src/exe/rbdock.cxx#4 $)

>  <Rbt.Library>
libRbt.so (2013.1, Build901 2013/11/27)

>  <Rbt.Parameter_File>
/export/apps/rDock/src/rDock_2013.1_src/data/scripts/dock_solv.prm

>  <Rbt.Receptor>
prm/pocket_docking_3.prm

>  <SCORE>
-18.7482

>  <SCORE.INTER>
-13.3154

>  <SCORE.INTER.CONST>
1

>  <SCORE.INTER.POLAR>
-2.37152

>  <SCORE.INTER.ROT>
3

>  <SCORE.INTER.SOLV>
4.83026

>  <SCORE.INTER.VDW>
-8.18198

>  <SCORE.INTER.norm>
-0.634068

>  <SCORE.INTRA>
-5.43752

>  <SCORE.INTRA.DIHEDRAL>
0.927629

>  <SCORE.INTRA.DIHEDRAL.0>
8.84257

>  <SCORE.INTRA.POLAR>
0

>  <SCORE.INTRA.POLAR.0>
0

>  <SCORE.INTRA.REPUL>
0

>  <SCORE.INTRA.REPUL.0>
0

>  <SCORE.INTRA.SOLV>
0.0799469

>  <SCORE.INTRA.SOLV.lig_0>
-17.1313

>  <SCORE.INTRA.VDW>
-5.9413

>  <SCORE.INTRA.VDW.0>
6.34071

>  <SCORE.INTRA.norm>
-0.258929

>  <SCORE.RESTR>
0.00474487

>  <SCORE.RESTR.CAVITY>
0.00474487

>  <SCORE.RESTR.norm>
0.000225946

>  <SCORE.SYSTEM>
0

>  <SCORE.SYSTEM.CONST>
0

>  <SCORE.SYSTEM.DIHEDRAL>
0

>  <SCORE.SYSTEM.SOLV>
0

>  <SCORE.SYSTEM.norm>
0

>  <SCORE.heavy>
21

>  <SCORE.norm>
-0.892771

>  <RMSD>
1.642

$$$$
lig.pdb
 OpenBabel11021811453D
libRbt.so/2013.1/901 2013/11/27
 21 23  0  0  0  0  0  0  0  0999 V2000
   -6.9891    1.1206    4.7388 C   0  0  0  0  0  0  0  0  0  0  0  0
   -8.1310    0.5218    5.0578 N   0  0  0  0  0  0  0  0  0  0  0  0
   -8.3809   -0.6993    4.6204 C   0  0  0  0  0  0  0  0  0  0  0  0
   -7.5071   -1.3089    3.7939 C   0  0  0  0  0  0  0  0  0  0  0  0
   -6.3548   -0.7033    3.4773 C   0  0  0  0  0  0  0  0  0  0  0  0
   -5.4878   -1.2960    2.6572 N   0  0  0  0  0  0  0  0  0  0  0  0
   -6.1017    0.5127    3.9502 N   0  0  0  0  0  0  0  0  0  0  0  0
   -9.5278   -1.3071    4.9667 C   0  0  0  0  0  0  0  0  0  0  0  0
   -9.8603   -2.4920    4.3688 C   0  0  0  0  0  0  0  0  0  0  0  0
  -11.2162   -2.6940    4.0171 O   0  0  0  0  0  0  0  0  0  0  0  0
   -8.9031   -3.1656    3.7097 C   0  0  0  0  0  0  0  0  0  0  0  0
   -9.0512   -4.5606    3.4853 O   0  0  0  0  0  0  0  0  0  0  0  0
   -7.7712   -2.5393    3.3326 C   0  0  0  0  0  0  0  0  0  0  0  0
   -6.7423    2.3362    5.1956 N   0  0  0  0  0  0  0  0  0  0  0  0
   -6.6621    3.3097    4.2834 C   0  0  0  0  0  0  0  0  0  0  0  0
   -5.2992    3.2809    3.6083 C   0  0  0  0  0  0  0  0  0  0  0  0
   -4.3115    3.4831    4.5498 N   0  0  0  0  0  0  0  0  0  0  0  0
   -4.3910    2.4451    5.4524 C   0  0  0  0  0  0  0  0  0  0  0  0
   -5.7499    2.4741    6.1320 C   0  0  0  0  0  0  0  0  0  0  0  0
  -11.8538   -3.3382    5.0902 C   0  0  0  0  0  0  0  0  0  0  0  0
   -8.5600   -5.2515    4.6040 C   0  0  0  0  0  0  0  0  0  0  0  0
  1 14  1  0  0  0  0
  1  2  2  0  0  0  0
  3  2  1  0  0  0  0
  3  8  2  0  0  0  0
  4  3  1  0  0  0  0
  5  7  2  0  0  0  0
  5  4  1  0  0  0  0
  6  5  1  0  0  0  0
  7  1  1  0  0  0  0
  9 10  1  0  0  0  0
  9  8  1  0  0  0  0
 11  9  2  0  0  0  0
 12 11  1  0  0  0  0
 13  4  2  0  0  0  0
 13 11  1  0  0  0  0
 14 15  1  0  0  0  0
 16 15  1  0  0  0  0
 17 16  1  0  0  0  0
 18 17  1  0  0  0  0
 18 19  1  0  0  0  0
 19 14  1  0  0  0  0
 20 10  1  0  0  0  0
 21 12  1  0  0  0  0
M  END
>  <CHROM.1>
-114.62648536,-91.99309283,-86.24496419,-7.56396947,-0.48963237,4.33187210
0.91465031,0.33742251,0.32837905

>  <Name>
lig.pdb

>  <RI>
3.31914e+07

>  <Rbt.Current_Directory>
/home/itssahil/PROJECTS/Mol_Feturizer/New_Systems/rnas/2lwk

>  <Rbt.Executable>
rbdock ($Id: //depot/dev/client3/rdock/2013.1/src/exe/rbdock.cxx#4 $)

>  <Rbt.Library>
libRbt.so (2013.1, Build901 2013/11/27)

>  <Rbt.Parameter_File>
/export/apps/rDock/src/rDock_2013.1_src/data/scripts/dock_solv.prm

>  <Rbt.Receptor>
prm/pocket_docking_3.prm

>  <SCORE>
-18.6944

>  <SCORE.INTER>
-13.2646

>  <SCORE.INTER.CONST>
1

>  <SCORE.INTER.POLAR>
-2.34827

>  <SCORE.INTER.ROT>
3

>  <SCORE.INTER.SOLV>
4.71942

>  <SCORE.INTER.VDW>
-8.18863

>  <SCORE.INTER.norm>
-0.631646

>  <SCORE.INTRA>
-5.42985

>  <SCORE.INTRA.DIHEDRAL>
0.873431

>  <SCORE.INTRA.DIHEDRAL.0>
8.84257

>  <SCORE.INTRA.POLAR>
0

>  <SCORE.INTRA.POLAR.0>
0

>  <SCORE.INTRA.REPUL>
0

>  <SCORE.INTRA.REPUL.0>
0

>  <SCORE.INTRA.SOLV>
0.0797999

>  <SCORE.INTRA.SOLV.lig_0>
-17.1313

>  <SCORE.INTRA.VDW>
-5.90646

>  <SCORE.INTRA.VDW.0>
6.34071

>  <SCORE.INTRA.norm>
-0.258564

>  <SCORE.RESTR>
0

>  <SCORE.RESTR.CAVITY>
0

>  <SCORE.RESTR.norm>
0

>  <SCORE.SYSTEM>
0

>  <SCORE.SYSTEM.CONST>
0

>  <SCORE.SYSTEM.DIHEDRAL>
0

>  <SCORE.SYSTEM.SOLV>
0

>  <SCORE.SYSTEM.norm>
0

>  <SCORE.heavy>
21

>  <SCORE.norm>
-0.89021

>  <RMSD>
1.647

$$$$
lig.pdb
 OpenBabel11021811453D
libRbt.so/2013.1/901 2013/11/27
 21 23  0  0  0  0  0  0  0  0999 V2000
   -7.0029    1.1587    4.7437 C   0  0  0  0  0  0  0  0  0  0  0  0
   -8.1422    0.5584    5.0693 N   0  0  0  0  0  0  0  0  0  0  0  0
   -8.3971   -0.6594    4.6257 C   0  0  0  0  0  0  0  0  0  0  0  0
   -7.5317   -1.2636    3.7866 C   0  0  0  0  0  0  0  0  0  0  0  0
   -6.3820   -0.6565    3.4633 C   0  0  0  0  0  0  0  0  0  0  0  0
   -5.5233   -1.2440    2.6308 N   0  0  0  0  0  0  0  0  0  0  0  0
   -6.1236    0.5559    3.9424 N   0  0  0  0  0  0  0  0  0  0  0  0
   -9.5411   -1.2689    4.9786 C   0  0  0  0  0  0  0  0  0  0  0  0
   -9.8801   -2.4494    4.3754 C   0  0  0  0  0  0  0  0  0  0  0  0
  -11.2395   -2.6479    4.0353 O   0  0  0  0  0  0  0  0  0  0  0  0
   -8.9297   -3.1188    3.7025 C   0  0  0  0  0  0  0  0  0  0  0  0
   -9.0809   -4.5121    3.4696 O   0  0  0  0  0  0  0  0  0  0  0  0
   -7.8010   -2.4906    3.3190 C   0  0  0  0  0  0  0  0  0  0  0  0
   -6.7510    2.3709    5.2067 N   0  0  0  0  0  0  0  0  0  0  0  0
   -6.6577    3.3472    4.2988 C   0  0  0  0  0  0  0  0  0  0  0  0
   -5.2904    3.3114    3.6330 C   0  0  0  0  0  0  0  0  0  0  0  0
   -4.3079    3.5034    4.5820 N   0  0  0  0  0  0  0  0  0  0  0  0
   -4.4008    2.4626    5.4801 C   0  0  0  0  0  0  0  0  0  0  0  0
   -5.7641    2.4985    6.1505 C   0  0  0  0  0  0  0  0  0  0  0  0
  -11.8592   -3.3299    5.0955 C   0  0  0  0  0  0  0  0  0  0  0  0
   -8.6617   -5.2083    4.6141 C   0  0  0  0  0  0  0  0  0  0  0  0
  1 14  1  0  0  0  0
  1  2  2  0  0  0  0
  3  2  1  0  0  0  0
  3  8  2  0  0  0  0
  4  3  1  0  0  0  0
  5  7  2  0  0  0  0
  5  4  1  0  0  0  0
  6  5  1  0  0  0  0
  7  1  1  0  0  0  0
  9 10  1  0  0  0  0
  9  8  1  0  0  0  0
 11  9  2  0  0  0  0
 12 11  1  0  0  0  0
 13  4  2  0  0  0  0
 13 11  1  0  0  0  0
 14 15  1  0  0  0  0
 16 15  1  0  0  0  0
 17 16  1  0  0  0  0
 18 17  1  0  0  0  0
 18 19  1  0  0  0  0
 19 14  1  0  0  0  0
 20 10  1  0  0  0  0
 21 12  1  0  0  0  0
M  END
>  <CHROM.1>
-115.65271275,-93.47904338,-82.38607883,-7.58404943,-0.45223754,4.33735003
0.90690178,0.35000950,0.34321581

>  <Name>
lig.pdb

>  <RI>
3.31914e+07

>  <Rbt.Current_Directory>
/home/itssahil/PROJECTS/Mol_Feturizer/New_Systems/rnas/2lwk

>  <Rbt.Executable>
rbdock ($Id: //depot/dev/client3/rdock/2013.1/src/exe/rbdock.cxx#4 $)

>  <Rbt.Library>
libRbt.so (2013.1, Build901 2013/11/27)

>  <Rbt.Parameter_File>
/export/apps/rDock/src/rDock_2013.1_src/data/scripts/dock_solv.prm

>  <Rbt.Receptor>
prm/pocket_docking_3.prm

>  <SCORE>
-18.7312

>  <SCORE.INTER>
-13.2946

>  <SCORE.INTER.CONST>
1

>  <SCORE.INTER.POLAR>
-2.37476

>  <SCORE.INTER.ROT>
3

>  <SCORE.INTER.SOLV>
4.8349

>  <SCORE.INTER.VDW>
-8.15887

>  <SCORE.INTER.norm>
-0.633078

>  <SCORE.INTRA>
-5.43658

>  <SCORE.INTRA.DIHEDRAL>
0.868014

>  <SCORE.INTRA.DIHEDRAL.0>
8.84257

>  <SCORE.INTRA.POLAR>
0

>  <SCORE.INTRA.POLAR.0>
0

>  <SCORE.INTRA.REPUL>
0

>  <SCORE.INTRA.REPUL.0>
0

>  <SCORE.INTRA.SOLV>
0.0834805

>  <SCORE.INTRA.SOLV.lig_0>
-17.1313

>  <SCORE.INTRA.VDW>
-5.91232

>  <SCORE.INTRA.VDW.0>
6.34071

>  <SCORE.INTRA.norm>
-0.258885

>  <SCORE.RESTR>
0

>  <SCORE.RESTR.CAVITY>
0

>  <SCORE.RESTR.norm>
0

>  <SCORE.SYSTEM>
0

>  <SCORE.SYSTEM.CONST>
0

>  <SCORE.SYSTEM.DIHEDRAL>
0

>  <SCORE.SYSTEM.SOLV>
0

>  <SCORE.SYSTEM.norm>
0

>  <SCORE.heavy>
21

>  <SCORE.norm>
-0.891963

>  <RMSD>
1.647

$$$$
lig.pdb
 OpenBabel11021811453D
libRbt.so/2013.1/901 2013/11/27
 21 23  0  0  0  0  0  0  0  0999 V2000
   -7.0154    1.0632    4.7832 C   0  0  0  0  0  0  0  0  0  0  0  0
   -8.1545    0.4647    5.1128 N   0  0  0  0  0  0  0  0  0  0  0  0
   -8.4171   -0.7490    4.6624 C   0  0  0  0  0  0  0  0  0  0  0  0
   -7.5599   -1.3504    3.8129 C   0  0  0  0  0  0  0  0  0  0  0  0
   -6.4104   -0.7452    3.4856 C   0  0  0  0  0  0  0  0  0  0  0  0
   -5.5599   -1.3299    2.6427 N   0  0  0  0  0  0  0  0  0  0  0  0
   -6.1441    0.4629    3.9713 N   0  0  0  0  0  0  0  0  0  0  0  0
   -9.5607   -1.3568    5.0194 C   0  0  0  0  0  0  0  0  0  0  0  0
   -9.9084   -2.5318    4.4104 C   0  0  0  0  0  0  0  0  0  0  0  0
  -11.2709   -2.7230    4.0786 O   0  0  0  0  0  0  0  0  0  0  0  0
   -8.9653   -3.1999    3.7258 C   0  0  0  0  0  0  0  0  0  0  0  0
   -9.1234   -4.5909    3.4843 O   0  0  0  0  0  0  0  0  0  0  0  0
   -7.8372   -2.5731    3.3387 C   0  0  0  0  0  0  0  0  0  0  0  0
   -6.7557    2.2711    5.2529 N   0  0  0  0  0  0  0  0  0  0  0  0
   -6.6692    3.2541    4.3516 C   0  0  0  0  0  0  0  0  0  0  0  0
   -5.3090    3.2202    3.6715 C   0  0  0  0  0  0  0  0  0  0  0  0
   -4.3162    3.4024    4.6119 N   0  0  0  0  0  0  0  0  0  0  0  0
   -4.4026    2.3550    5.5029 C   0  0  0  0  0  0  0  0  0  0  0  0
   -5.7588    2.3890    6.1874 C   0  0  0  0  0  0  0  0  0  0  0  0
  -11.8800   -3.4311    5.1278 C   0  0  0  0  0  0  0  0  0  0  0  0
   -8.6202   -5.2996    4.5864 C   0  0  0  0  0  0  0  0  0  0  0  0
  1 14  1  0  0  0  0
  1  2  2  0  0  0  0
  3  2  1  0  0  0  0
  3  8  2  0  0  0  0
  4  3  1  0  0  0  0
  5  7  2  0  0  0  0
  5  4  1  0  0  0  0
  6  5  1  0  0  0  0
  7  1  1  0  0  0  0
  9 10  1  0  0  0  0
  9  8  1  0  0  0  0
 11  9  2  0  0  0  0
 12 11  1  0  0  0  0
 13  4  2  0  0  0  0
 13 11  1  0  0  0  0
 14 15  1  0  0  0  0
 16 15  1  0  0  0  0
 17 16  1  0  0  0  0
 18 17  1  0  0  0  0
 18 19  1  0  0  0  0
 19 14  1  0  0  0  0
 20 10  1  0  0  0  0
 21 12  1  0  0  0  0
M  END
>  <CHROM.1>
-115.46293564,-94.51449791,-86.07016188,-7.60148544,-0.54349259,4.36638562
0.90390468,0.35171663,0.34899740

>  <Name>
lig.pdb

>  <RI>
3.31914e+07

>  <Rbt.Current_Directory>
/home/itssahil/PROJECTS/Mol_Feturizer/New_Systems/rnas/2lwk

>  <Rbt.Executable>
rbdock ($Id: //depot/dev/client3/rdock/2013.1/src/exe/rbdock.cxx#4 $)

>  <Rbt.Library>
libRbt.so (2013.1, Build901 2013/11/27)

>  <Rbt.Parameter_File>
/export/apps/rDock/src/rDock_2013.1_src/data/scripts/dock_solv.prm

>  <Rbt.Receptor>
prm/pocket_docking_3.prm

>  <SCORE>
-18.7131

>  <SCORE.INTER>
-13.2752

>  <SCORE.INTER.CONST>
1

>  <SCORE.INTER.POLAR>
-2.37469

>  <SCORE.INTER.ROT>
3

>  <SCORE.INTER.SOLV>
4.68721

>  <SCORE.INTER.VDW>
-8.09691

>  <SCORE.INTER.norm>
-0.632154

>  <SCORE.INTRA>
-5.43789

>  <SCORE.INTRA.DIHEDRAL>
0.931203

>  <SCORE.INTRA.DIHEDRAL.0>
8.84257

>  <SCORE.INTRA.POLAR>
0

>  <SCORE.INTRA.POLAR.0>
0

>  <SCORE.INTRA.REPUL>
0

>  <SCORE.INTRA.REPUL.0>
0

>  <SCORE.INTRA.SOLV>
0.0821527

>  <SCORE.INTRA.SOLV.lig_0>
-17.1313

>  <SCORE.INTRA.VDW>
-5.94457

>  <SCORE.INTRA.VDW.0>
6.34071

>  <SCORE.INTRA.norm>
-0.258947

>  <SCORE.RESTR>
0

>  <SCORE.RESTR.CAVITY>
0

>  <SCORE.RESTR.norm>
0

>  <SCORE.SYSTEM>
0

>  <SCORE.SYSTEM.CONST>
0

>  <SCORE.SYSTEM.DIHEDRAL>
0

>  <SCORE.SYSTEM.SOLV>
0

>  <SCORE.SYSTEM.norm>
0

>  <SCORE.heavy>
21

>  <SCORE.norm>
-0.891101

>  <RMSD>
1.647

$$$$
lig.pdb
 OpenBabel11021811453D
libRbt.so/2013.1/901 2013/11/27
 21 23  0  0  0  0  0  0  0  0999 V2000
   -7.2821    0.7553    4.8631 C   0  0  0  0  0  0  0  0  0  0  0  0
   -8.5153    0.4430    5.2452 N   0  0  0  0  0  0  0  0  0  0  0  0
   -9.0651   -0.6881    4.8415 C   0  0  0  0  0  0  0  0  0  0  0  0
   -8.3998   -1.4909    3.9863 C   0  0  0  0  0  0  0  0  0  0  0  0
   -7.1548   -1.1744    3.6060 C   0  0  0  0  0  0  0  0  0  0  0  0
   -6.4920   -1.9591    2.7572 N   0  0  0  0  0  0  0  0  0  0  0  0
   -6.6014   -0.0487    4.0451 N   0  0  0  0  0  0  0  0  0  0  0  0
  -10.3038   -1.0078    5.2513 C   0  0  0  0  0  0  0  0  0  0  0  0
  -10.9332   -2.0856    4.6905 C   0  0  0  0  0  0  0  0  0  0  0  0
  -12.3144   -1.9662    4.4056 O   0  0  0  0  0  0  0  0  0  0  0  0
  -10.1938   -2.9690    3.9998 C   0  0  0  0  0  0  0  0  0  0  0  0
  -10.6750   -4.2917    3.8072 O   0  0  0  0  0  0  0  0  0  0  0  0
   -8.9668   -2.6280    3.5596 C   0  0  0  0  0  0  0  0  0  0  0  0
   -6.7356    1.8820    5.2863 N   0  0  0  0  0  0  0  0  0  0  0  0
   -6.5190    2.8224    4.3617 C   0  0  0  0  0  0  0  0  0  0  0  0
   -5.2575    2.4998    3.5751 C   0  0  0  0  0  0  0  0  0  0  0  0
   -4.1743    2.4700    4.4288 N   0  0  0  0  0  0  0  0  0  0  0  0
   -4.4053    1.4667    5.3444 C   0  0  0  0  0  0  0  0  0  0  0  0
   -5.6624    1.7885    6.1351 C   0  0  0  0  0  0  0  0  0  0  0  0
  -13.0289   -2.2656    5.5773 C   0  0  0  0  0  0  0  0  0  0  0  0
  -10.2220   -5.0945    4.8658 C   0  0  0  0  0  0  0  0  0  0  0  0
  1 14  1  0  0  0  0
  1  2  2  0  0  0  0
  3  2  1  0  0  0  0
  3  8  2  0  0  0  0
  4  3  1  0  0  0  0
  5  7  2  0  0  0  0
  5  4  1  0  0  0  0
  6  5  1  0  0  0  0
  7  1  1  0  0  0  0
  9 10  1  0  0  0  0
  9  8  1  0  0  0  0
 11  9  2  0  0  0  0
 12 11  1  0  0  0  0
 13  4  2  0  0  0  0
 13 11  1  0  0  0  0
 14 15  1  0  0  0  0
 16 15  1  0  0  0  0
 17 16  1  0  0  0  0
 18 17  1  0  0  0  0
 18 19  1  0  0  0  0
 19 14  1  0  0  0  0
 20 10  1  0  0  0  0
 21 12  1  0  0  0  0
M  END
>  <CHROM.1>
-112.30471973,-84.24303164,-90.48160841,-8.23775337,-0.66307153,4.50042751
0.66761708,0.29714253,0.38384039

>  <Name>
lig.pdb

>  <RI>
3.31914e+07

>  <Rbt.Current_Directory>
/home/itssahil/PROJECTS/Mol_Feturizer/New_Systems/rnas/2lwk

>  <Rbt.Executable>
rbdock ($Id: //depot/dev/client3/rdock/2013.1/src/exe/rbdock.cxx#4 $)

>  <Rbt.Library>
libRbt.so (2013.1, Build901 2013/11/27)

>  <Rbt.Parameter_File>
/export/apps/rDock/src/rDock_2013.1_src/data/scripts/dock_solv.prm

>  <Rbt.Receptor>
prm/pocket_docking_3.prm

>  <SCORE>
-18.1323

>  <SCORE.INTER>
-12.7953

>  <SCORE.INTER.CONST>
1

>  <SCORE.INTER.POLAR>
-1.99571

>  <SCORE.INTER.ROT>
3

>  <SCORE.INTER.SOLV>
5.61135

>  <SCORE.INTER.VDW>
-9.34825

>  <SCORE.INTER.norm>
-0.609298

>  <SCORE.INTRA>
-5.33701

>  <SCORE.INTRA.DIHEDRAL>
0.592136

>  <SCORE.INTRA.DIHEDRAL.0>
8.84257

>  <SCORE.INTRA.POLAR>
0

>  <SCORE.INTRA.POLAR.0>
0

>  <SCORE.INTRA.REPUL>
0

>  <SCORE.INTRA.REPUL.0>
0

>  <SCORE.INTRA.SOLV>
0.0703581

>  <SCORE.INTRA.SOLV.lig_0>
-17.1313

>  <SCORE.INTRA.VDW>
-5.66826

>  <SCORE.INTRA.VDW.0>
6.34071

>  <SCORE.INTRA.norm>
-0.254143

>  <SCORE.RESTR>
0

>  <SCORE.RESTR.CAVITY>
0

>  <SCORE.RESTR.norm>
0

>  <SCORE.SYSTEM>
0

>  <SCORE.SYSTEM.CONST>
0

>  <SCORE.SYSTEM.DIHEDRAL>
0

>  <SCORE.SYSTEM.SOLV>
0

>  <SCORE.SYSTEM.norm>
0

>  <SCORE.heavy>
21

>  <SCORE.norm>
-0.863441

>  <RMSD>
1.650

$$$$
lig.pdb
 OpenBabel11021811453D
libRbt.so/2013.1/901 2013/11/27
 21 23  0  0  0  0  0  0  0  0999 V2000
   -7.5654    0.6768    4.5560 C   0  0  0  0  0  0  0  0  0  0  0  0
   -8.8020    0.4466    4.9829 N   0  0  0  0  0  0  0  0  0  0  0  0
   -9.3223   -0.7630    4.8777 C   0  0  0  0  0  0  0  0  0  0  0  0
   -8.6228   -1.7451    4.2741 C   0  0  0  0  0  0  0  0  0  0  0  0
   -7.3746   -1.5101    3.8481 C   0  0  0  0  0  0  0  0  0  0  0  0
   -6.6780   -2.4733    3.2460 N   0  0  0  0  0  0  0  0  0  0  0  0
   -6.8514   -0.2965    3.9890 N   0  0  0  0  0  0  0  0  0  0  0  0
  -10.5650   -0.9933    5.3332 C   0  0  0  0  0  0  0  0  0  0  0  0
  -11.1620   -2.1940    5.0608 C   0  0  0  0  0  0  0  0  0  0  0  0
  -12.5377   -2.1846    4.7286 O   0  0  0  0  0  0  0  0  0  0  0  0
  -10.3909   -3.2096    4.6385 C   0  0  0  0  0  0  0  0  0  0  0  0
  -10.8444   -4.5475    4.7883 O   0  0  0  0  0  0  0  0  0  0  0  0
   -9.1596   -2.9669    4.1479 C   0  0  0  0  0  0  0  0  0  0  0  0
   -7.0489    1.8871    4.6812 N   0  0  0  0  0  0  0  0  0  0  0  0
   -7.0487    2.6503    3.5841 C   0  0  0  0  0  0  0  0  0  0  0  0
   -5.9010    2.2492    2.6698 C   0  0  0  0  0  0  0  0  0  0  0  0
   -4.7011    2.4291    3.3263 N   0  0  0  0  0  0  0  0  0  0  0  0
   -4.7120    1.6017    4.4279 C   0  0  0  0  0  0  0  0  0  0  0  0
   -5.8548    2.0030    5.3457 C   0  0  0  0  0  0  0  0  0  0  0  0
  -13.2726   -2.3915    5.9077 C   0  0  0  0  0  0  0  0  0  0  0  0
  -11.5225   -4.9270    3.6193 C   0  0  0  0  0  0  0  0  0  0  0  0
  1 14  1  0  0  0  0
  1  2  2  0  0  0  0
  3  2  1  0  0  0  0
  3  8  2  0  0  0  0
  4  3  1  0  0  0  0
  5  7  2  0  0  0  0
  5  4  1  0  0  0  0
  6  5  1  0  0  0  0
  7  1  1  0  0  0  0
  9 10  1  0  0  0  0
  9  8  1  0  0  0  0
 11  9  2  0  0  0  0
 12 11  1  0  0  0  0
 13  4  2  0  0  0  0
 13 11  1  0  0  0  0
 14 15  1  0  0  0  0
 16 15  1  0  0  0  0
 17 16  1  0  0  0  0
 18 17  1  0  0  0  0
 18 19  1  0  0  0  0
 19 14  1  0  0  0  0
 20 10  1  0  0  0  0
 21 12  1  0  0  0  0
M  END
>  <CHROM.1>
-100.63674675,-93.14055236,92.08540374,-8.57846998,-0.79304220,4.36846388
0.66835706,0.34131840,0.24270551

>  <Name>
lig.pdb

>  <RI>
3.31914e+07

>  <Rbt.Current_Directory>
/home/itssahil/PROJECTS/Mol_Feturizer/New_Systems/rnas/2lwk

>  <Rbt.Executable>
rbdock ($Id: //depot/dev/client3/rdock/2013.1/src/exe/rbdock.cxx#4 $)

>  <Rbt.Library>
libRbt.so (2013.1, Build901 2013/11/27)

>  <Rbt.Parameter_File>
/export/apps/rDock/src/rDock_2013.1_src/data/scripts/dock_solv.prm

>  <Rbt.Receptor>
prm/pocket_docking_3.prm

>  <SCORE>
-17.025

>  <SCORE.INTER>
-11.6399

>  <SCORE.INTER.CONST>
1

>  <SCORE.INTER.POLAR>
-1.56067

>  <SCORE.INTER.ROT>
3

>  <SCORE.INTER.SOLV>
5.57167

>  <SCORE.INTER.VDW>
-10.0149

>  <SCORE.INTER.norm>
-0.55428

>  <SCORE.INTRA>
-5.38511

>  <SCORE.INTRA.DIHEDRAL>
0.913952

>  <SCORE.INTRA.DIHEDRAL.0>
8.84257

>  <SCORE.INTRA.POLAR>
0

>  <SCORE.INTRA.POLAR.0>
0

>  <SCORE.INTRA.REPUL>
0

>  <SCORE.INTRA.REPUL.0>
0

>  <SCORE.INTRA.SOLV>
0.130527

>  <SCORE.INTRA.SOLV.lig_0>
-17.1313

>  <SCORE.INTRA.VDW>
-5.90735

>  <SCORE.INTRA.VDW.0>
6.34071

>  <SCORE.INTRA.norm>
-0.256434

>  <SCORE.RESTR>
0

>  <SCORE.RESTR.CAVITY>
0

>  <SCORE.RESTR.norm>
0

>  <SCORE.SYSTEM>
0

>  <SCORE.SYSTEM.CONST>
0

>  <SCORE.SYSTEM.DIHEDRAL>
0

>  <SCORE.SYSTEM.SOLV>
0

>  <SCORE.SYSTEM.norm>
0

>  <SCORE.heavy>
21

>  <SCORE.norm>
-0.810714

>  <RMSD>
1.654

$$$$
lig.pdb
 OpenBabel11021811453D
libRbt.so/2013.1/901 2013/11/27
 21 23  0  0  0  0  0  0  0  0999 V2000
   -7.2815    0.7584    4.9203 C   0  0  0  0  0  0  0  0  0  0  0  0
   -8.5117    0.4472    5.3128 N   0  0  0  0  0  0  0  0  0  0  0  0
   -9.0771   -0.6692    4.8901 C   0  0  0  0  0  0  0  0  0  0  0  0
   -8.4313   -1.4564    4.0060 C   0  0  0  0  0  0  0  0  0  0  0  0
   -7.1893   -1.1412    3.6152 C   0  0  0  0  0  0  0  0  0  0  0  0
   -6.5457   -1.9105    2.7380 N   0  0  0  0  0  0  0  0  0  0  0  0
   -6.6198   -0.0311    4.0731 N   0  0  0  0  0  0  0  0  0  0  0  0
  -10.3125   -0.9884    5.3102 C   0  0  0  0  0  0  0  0  0  0  0  0
  -10.9593   -2.0470    4.7328 C   0  0  0  0  0  0  0  0  0  0  0  0
  -12.3434   -1.9092    4.4713 O   0  0  0  0  0  0  0  0  0  0  0  0
  -10.2376   -2.9195    4.0102 C   0  0  0  0  0  0  0  0  0  0  0  0
  -10.7330   -4.2331    3.7928 O   0  0  0  0  0  0  0  0  0  0  0  0
   -9.0143   -2.5781    3.5603 C   0  0  0  0  0  0  0  0  0  0  0  0
   -6.7192    1.8699    5.3625 N   0  0  0  0  0  0  0  0  0  0  0  0
   -6.4780    2.8179    4.4519 C   0  0  0  0  0  0  0  0  0  0  0  0
   -5.2155    2.4831    3.6721 C   0  0  0  0  0  0  0  0  0  0  0  0
   -4.1405    2.4236    4.5346 N   0  0  0  0  0  0  0  0  0  0  0  0
   -4.3971    1.4130    5.4354 C   0  0  0  0  0  0  0  0  0  0  0  0
   -5.6553    1.7469    6.2192 C   0  0  0  0  0  0  0  0  0  0  0  0
  -13.0444   -2.2556    5.6383 C   0  0  0  0  0  0  0  0  0  0  0  0
  -10.2875   -5.0608    4.8352 C   0  0  0  0  0  0  0  0  0  0  0  0
  1 14  1  0  0  0  0
  1  2  2  0  0  0  0
  3  2  1  0  0  0  0
  3  8  2  0  0  0  0
  4  3  1  0  0  0  0
  5  7  2  0  0  0  0
  5  4  1  0  0  0  0
  6  5  1  0  0  0  0
  7  1  1  0  0  0  0
  9 10  1  0  0  0  0
  9  8  1  0  0  0  0
 11  9  2  0  0  0  0
 12 11  1  0  0  0  0
 13  4  2  0  0  0  0
 13 11  1  0  0  0  0
 14 15  1  0  0  0  0
 16 15  1  0  0  0  0
 17 16  1  0  0  0  0
 18 17  1  0  0  0  0
 18 19  1  0  0  0  0
 19 14  1  0  0  0  0
 20 10  1  0  0  0  0
 21 12  1  0  0  0  0
M  END
>  <CHROM.1>
-113.88431842,-85.34561015,-89.64867574,-8.25179788,-0.64880217,4.54559033
0.65079493,0.30662843,0.41839306

>  <Name>
lig.pdb

>  <RI>
3.31914e+07

>  <Rbt.Current_Directory>
/home/itssahil/PROJECTS/Mol_Feturizer/New_Systems/rnas/2lwk

>  <Rbt.Executable>
rbdock ($Id: //depot/dev/client3/rdock/2013.1/src/exe/rbdock.cxx#4 $)

>  <Rbt.Library>
libRbt.so (2013.1, Build901 2013/11/27)

>  <Rbt.Parameter_File>
/export/apps/rDock/src/rDock_2013.1_src/data/scripts/dock_solv.prm

>  <Rbt.Receptor>
prm/pocket_docking_3.prm

>  <SCORE>
-18.1845

>  <SCORE.INTER>
-12.832

>  <SCORE.INTER.CONST>
1

>  <SCORE.INTER.POLAR>
-2.00739

>  <SCORE.INTER.ROT>
3

>  <SCORE.INTER.SOLV>
5.63883

>  <SCORE.INTER.VDW>
-9.34298

>  <SCORE.INTER.norm>
-0.611048

>  <SCORE.INTRA>
-5.35547

>  <SCORE.INTRA.DIHEDRAL>
0.644285

>  <SCORE.INTRA.DIHEDRAL.0>
8.84257

>  <SCORE.INTRA.POLAR>
0

>  <SCORE.INTRA.POLAR.0>
0

>  <SCORE.INTRA.REPUL>
0

>  <SCORE.INTRA.REPUL.0>
0

>  <SCORE.INTRA.SOLV>
0.071675

>  <SCORE.INTRA.SOLV.lig_0>
-17.1313

>  <SCORE.INTRA.VDW>
-5.71345

>  <SCORE.INTRA.VDW.0>
6.34071

>  <SCORE.INTRA.norm>
-0.255023

>  <SCORE.RESTR>
0.00293911

>  <SCORE.RESTR.CAVITY>
0.00293911

>  <SCORE.RESTR.norm>
0.000139958

>  <SCORE.SYSTEM>
0

>  <SCORE.SYSTEM.CONST>
0

>  <SCORE.SYSTEM.DIHEDRAL>
0

>  <SCORE.SYSTEM.SOLV>
0

>  <SCORE.SYSTEM.norm>
0

>  <SCORE.heavy>
21

>  <SCORE.norm>
-0.865931

>  <RMSD>
1.687

$$$$
lig.pdb
 OpenBabel11021811453D
libRbt.so/2013.1/901 2013/11/27
 21 23  0  0  0  0  0  0  0  0999 V2000
   -7.2721    0.7535    4.9488 C   0  0  0  0  0  0  0  0  0  0  0  0
   -8.5020    0.4313    5.3332 N   0  0  0  0  0  0  0  0  0  0  0  0
   -9.0623   -0.6800    4.8907 C   0  0  0  0  0  0  0  0  0  0  0  0
   -8.4116   -1.4502    3.9954 C   0  0  0  0  0  0  0  0  0  0  0  0
   -7.1698   -1.1240    3.6128 C   0  0  0  0  0  0  0  0  0  0  0  0
   -6.5213   -1.8764    2.7246 N   0  0  0  0  0  0  0  0  0  0  0  0
   -6.6055   -0.0195    4.0903 N   0  0  0  0  0  0  0  0  0  0  0  0
  -10.2975   -1.0107    5.3026 C   0  0  0  0  0  0  0  0  0  0  0  0
  -10.9391   -2.0619    4.7063 C   0  0  0  0  0  0  0  0  0  0  0  0
  -12.3231   -1.9248    4.4437 O   0  0  0  0  0  0  0  0  0  0  0  0
  -10.2125   -2.9197    3.9710 C   0  0  0  0  0  0  0  0  0  0  0  0
  -10.7025   -4.2313    3.7308 O   0  0  0  0  0  0  0  0  0  0  0  0
   -8.9893   -2.5665    3.5298 C   0  0  0  0  0  0  0  0  0  0  0  0
   -6.7150    1.8596    5.4107 N   0  0  0  0  0  0  0  0  0  0  0  0
   -6.4468    2.8111    4.5114 C   0  0  0  0  0  0  0  0  0  0  0  0
   -5.1674    2.4738    3.7607 C   0  0  0  0  0  0  0  0  0  0  0  0
   -4.1141    2.4039    4.6487 N   0  0  0  0  0  0  0  0  0  0  0  0
   -4.3977    1.3898    5.5374 C   0  0  0  0  0  0  0  0  0  0  0  0
   -5.6729    1.7262    6.2923 C   0  0  0  0  0  0  0  0  0  0  0  0
  -13.0251   -2.2838    5.6062 C   0  0  0  0  0  0  0  0  0  0  0  0
  -10.1713   -5.0955    4.7011 C   0  0  0  0  0  0  0  0  0  0  0  0
  1 14  1  0  0  0  0
  1  2  2  0  0  0  0
  3  2  1  0  0  0  0
  3  8  2  0  0  0  0
  4  3  1  0  0  0  0
  5  7  2  0  0  0  0
  5  4  1  0  0  0  0
  6  5  1  0  0  0  0
  7  1  1  0  0  0  0
  9 10  1  0  0  0  0
  9  8  1  0  0  0  0
 11  9  2  0  0  0  0
 12 11  1  0  0  0  0
 13  4  2  0  0  0  0
 13 11  1  0  0  0  0
 14 15  1  0  0  0  0
 16 15  1  0  0  0  0
 17 16  1  0  0  0  0
 18 17  1  0  0  0  0
 18 19  1  0  0  0  0
 19 14  1  0  0  0  0
 20 10  1  0  0  0  0
 21 12  1  0  0  0  0
M  END
>  <CHROM.1>
-115.38284507,-84.92786926,-94.21247889,-8.22858609,-0.65633636,4.55324934
0.65591068,0.30154527,0.43584755

>  <Name>
lig.pdb

>  <RI>
3.31914e+07

>  <Rbt.Current_Directory>
/home/itssahil/PROJECTS/Mol_Feturizer/New_Systems/rnas/2lwk

>  <Rbt.Executable>
rbdock ($Id: //depot/dev/client3/rdock/2013.1/src/exe/rbdock.cxx#4 $)

>  <Rbt.Library>
libRbt.so (2013.1, Build901 2013/11/27)

>  <Rbt.Parameter_File>
/export/apps/rDock/src/rDock_2013.1_src/data/scripts/dock_solv.prm

>  <Rbt.Receptor>
prm/pocket_docking_3.prm

>  <SCORE>
-18.1642

>  <SCORE.INTER>
-12.8909

>  <SCORE.INTER.CONST>
1

>  <SCORE.INTER.POLAR>
-2.01428

>  <SCORE.INTER.ROT>
3

>  <SCORE.INTER.SOLV>
5.66302

>  <SCORE.INTER.VDW>
-9.3673

>  <SCORE.INTER.norm>
-0.61385

>  <SCORE.INTRA>
-5.2757

>  <SCORE.INTRA.DIHEDRAL>
0.573933

>  <SCORE.INTRA.DIHEDRAL.0>
8.84257

>  <SCORE.INTRA.POLAR>
0

>  <SCORE.INTRA.POLAR.0>
0

>  <SCORE.INTRA.REPUL>
0

>  <SCORE.INTRA.REPUL.0>
0

>  <SCORE.INTRA.SOLV>
0.0684557

>  <SCORE.INTRA.SOLV.lig_0>
-17.1313

>  <SCORE.INTRA.VDW>
-5.59689

>  <SCORE.INTRA.VDW.0>
6.34071

>  <SCORE.INTRA.norm>
-0.251224

>  <SCORE.RESTR>
0.00233192

>  <SCORE.RESTR.CAVITY>
0.00233192

>  <SCORE.RESTR.norm>
0.000111044

>  <SCORE.SYSTEM>
0

>  <SCORE.SYSTEM.CONST>
0

>  <SCORE.SYSTEM.DIHEDRAL>
0

>  <SCORE.SYSTEM.SOLV>
0

>  <SCORE.SYSTEM.norm>
0

>  <SCORE.heavy>
21

>  <SCORE.norm>
-0.864963

>  <RMSD>
1.694

$$$$
lig.pdb
 OpenBabel11021811453D
libRbt.so/2013.1/901 2013/11/27
 21 23  0  0  0  0  0  0  0  0999 V2000
   -7.2883    0.7620    4.9296 C   0  0  0  0  0  0  0  0  0  0  0  0
   -8.5201    0.4666    5.3293 N   0  0  0  0  0  0  0  0  0  0  0  0
   -9.0940   -0.6532    4.9272 C   0  0  0  0  0  0  0  0  0  0  0  0
   -8.4551   -1.4605    4.0565 C   0  0  0  0  0  0  0  0  0  0  0  0
   -7.2114   -1.1611    3.6584 C   0  0  0  0  0  0  0  0  0  0  0  0
   -6.5746   -1.9505    2.7942 N   0  0  0  0  0  0  0  0  0  0  0  0
   -6.6334   -0.0472    4.0957 N   0  0  0  0  0  0  0  0  0  0  0  0
  -10.3310   -0.9561    5.3546 C   0  0  0  0  0  0  0  0  0  0  0  0
  -10.9862   -2.0201    4.7970 C   0  0  0  0  0  0  0  0  0  0  0  0
  -12.3696   -1.8771    4.5350 O   0  0  0  0  0  0  0  0  0  0  0  0
  -10.2718   -2.9104    4.0890 C   0  0  0  0  0  0  0  0  0  0  0  0
  -10.7768   -4.2241    3.8958 O   0  0  0  0  0  0  0  0  0  0  0  0
   -9.0467   -2.5858    3.6315 C   0  0  0  0  0  0  0  0  0  0  0  0
   -6.7175    1.8771    5.3512 N   0  0  0  0  0  0  0  0  0  0  0  0
   -6.4662    2.8049    4.4227 C   0  0  0  0  0  0  0  0  0  0  0  0
   -5.2049    2.4442    3.6527 C   0  0  0  0  0  0  0  0  0  0  0  0
   -4.1324    2.3924    4.5187 N   0  0  0  0  0  0  0  0  0  0  0  0
   -4.3995    1.4020    5.4385 C   0  0  0  0  0  0  0  0  0  0  0  0
   -5.6566    1.7619    6.2127 C   0  0  0  0  0  0  0  0  0  0  0  0
  -13.0734   -2.2483    5.6925 C   0  0  0  0  0  0  0  0  0  0  0  0
  -10.4591   -4.9992    5.0221 C   0  0  0  0  0  0  0  0  0  0  0  0
  1 14  1  0  0  0  0
  1  2  2  0  0  0  0
  3  2  1  0  0  0  0
  3  8  2  0  0  0  0
  4  3  1  0  0  0  0
  5  7  2  0  0  0  0
  5  4  1  0  0  0  0
  6  5  1  0  0  0  0
  7  1  1  0  0  0  0
  9 10  1  0  0  0  0
  9  8  1  0  0  0  0
 11  9  2  0  0  0  0
 12 11  1  0  0  0  0
 13  4  2  0  0  0  0
 13 11  1  0  0  0  0
 14 15  1  0  0  0  0
 16 15  1  0  0  0  0
 17 16  1  0  0  0  0
 18 17  1  0  0  0  0
 18 19  1  0  0  0  0
 19 14  1  0  0  0  0
 20 10  1  0  0  0  0
 21 12  1  0  0  0  0
M  END
>  <CHROM.1>
-114.13456830,-87.63161374,-83.32142303,-8.27505593,-0.64621865,4.58537287
0.63921267,0.30974362,0.40906431

>  <Name>
lig.pdb

>  <RI>
3.31914e+07

>  <Rbt.Current_Directory>
/home/itssahil/PROJECTS/Mol_Feturizer/New_Systems/rnas/2lwk

>  <Rbt.Executable>
rbdock ($Id: //depot/dev/client3/rdock/2013.1/src/exe/rbdock.cxx#4 $)

>  <Rbt.Library>
libRbt.so (2013.1, Build901 2013/11/27)

>  <Rbt.Parameter_File>
/export/apps/rDock/src/rDock_2013.1_src/data/scripts/dock_solv.prm

>  <Rbt.Receptor>
prm/pocket_docking_3.prm

>  <SCORE>
-18.1166

>  <SCORE.INTER>
-12.6983

>  <SCORE.INTER.CONST>
1

>  <SCORE.INTER.POLAR>
-2.0065

>  <SCORE.INTER.ROT>
3

>  <SCORE.INTER.SOLV>
5.53291

>  <SCORE.INTER.VDW>
-9.22153

>  <SCORE.INTER.norm>
-0.604683

>  <SCORE.INTRA>
-5.41879

>  <SCORE.INTRA.DIHEDRAL>
0.706612

>  <SCORE.INTRA.DIHEDRAL.0>
8.84257

>  <SCORE.INTRA.POLAR>
0

>  <SCORE.INTRA.POLAR.0>
0

>  <SCORE.INTRA.REPUL>
0

>  <SCORE.INTRA.REPUL.0>
0

>  <SCORE.INTRA.SOLV>
0.0776576

>  <SCORE.INTRA.SOLV.lig_0>
-17.1313

>  <SCORE.INTRA.VDW>
-5.81093

>  <SCORE.INTRA.VDW.0>
6.34071

>  <SCORE.INTRA.norm>
-0.258038

>  <SCORE.RESTR>
0.000508483

>  <SCORE.RESTR.CAVITY>
0.000508483

>  <SCORE.RESTR.norm>
2.42135e-05

>  <SCORE.SYSTEM>
0

>  <SCORE.SYSTEM.CONST>
0

>  <SCORE.SYSTEM.DIHEDRAL>
0

>  <SCORE.SYSTEM.SOLV>
0

>  <SCORE.SYSTEM.norm>
0

>  <SCORE.heavy>
21

>  <SCORE.norm>
-0.862696

>  <RMSD>
1.714

$$$$
lig.pdb
 OpenBabel11021811453D
libRbt.so/2013.1/901 2013/11/27
 21 23  0  0  0  0  0  0  0  0999 V2000
   -7.2865    0.7215    4.9634 C   0  0  0  0  0  0  0  0  0  0  0  0
   -8.5161    0.4094    5.3569 N   0  0  0  0  0  0  0  0  0  0  0  0
   -9.0903   -0.6952    4.9153 C   0  0  0  0  0  0  0  0  0  0  0  0
   -8.4542   -1.4682    4.0120 C   0  0  0  0  0  0  0  0  0  0  0  0
   -7.2126   -1.1522    3.6202 C   0  0  0  0  0  0  0  0  0  0  0  0
   -6.5785   -1.9074    2.7241 N   0  0  0  0  0  0  0  0  0  0  0  0
   -6.6342   -0.0546    4.0968 N   0  0  0  0  0  0  0  0  0  0  0  0
  -10.3251   -1.0159    5.3363 C   0  0  0  0  0  0  0  0  0  0  0  0
  -10.9812   -2.0591    4.7418 C   0  0  0  0  0  0  0  0  0  0  0  0
  -12.3660   -1.9084    4.4912 O   0  0  0  0  0  0  0  0  0  0  0  0
  -10.2688   -2.9210    3.9976 C   0  0  0  0  0  0  0  0  0  0  0  0
  -10.7729   -4.2272    3.7571 O   0  0  0  0  0  0  0  0  0  0  0  0
   -9.0461   -2.5775    3.5475 C   0  0  0  0  0  0  0  0  0  0  0  0
   -6.7154    1.8208    5.4244 N   0  0  0  0  0  0  0  0  0  0  0  0
   -6.3931    2.7488    4.5183 C   0  0  0  0  0  0  0  0  0  0  0  0
   -5.0997    2.3650    3.8157 C   0  0  0  0  0  0  0  0  0  0  0  0
   -4.0777    2.2836    4.7388 N   0  0  0  0  0  0  0  0  0  0  0  0
   -4.4167    1.2933    5.6348 C   0  0  0  0  0  0  0  0  0  0  0  0
   -5.7062    1.6762    6.3417 C   0  0  0  0  0  0  0  0  0  0  0  0
  -13.0613   -2.2563    5.6611 C   0  0  0  0  0  0  0  0  0  0  0  0
  -10.3130   -5.0815    4.7714 C   0  0  0  0  0  0  0  0  0  0  0  0
  1 14  1  0  0  0  0
  1  2  2  0  0  0  0
  3  2  1  0  0  0  0
  3  8  2  0  0  0  0
  4  3  1  0  0  0  0
  5  7  2  0  0  0  0
  5  4  1  0  0  0  0
  6  5  1  0  0  0  0
  7  1  1  0  0  0  0
  9 10  1  0  0  0  0
  9  8  1  0  0  0  0
 11  9  2  0  0  0  0
 12 11  1  0  0  0  0
 13  4  2  0  0  0  0
 13 11  1  0  0  0  0
 14 15  1  0  0  0  0
 16 15  1  0  0  0  0
 17 16  1  0  0  0  0
 18 17  1  0  0  0  0
 18 19  1  0  0  0  0
 19 14  1  0  0  0  0
 20 10  1  0  0  0  0
 21 12  1  0  0  0  0
M  END
>  <CHROM.1>
-118.18364686,-84.53981167,-90.34170288,-8.25730136,-0.68562614,4.58820375
0.63712432,0.30503127,0.45522780

>  <Name>
lig.pdb

>  <RI>
3.31914e+07

>  <Rbt.Current_Directory>
/home/itssahil/PROJECTS/Mol_Feturizer/New_Systems/rnas/2lwk

>  <Rbt.Executable>
rbdock ($Id: //depot/dev/client3/rdock/2013.1/src/exe/rbdock.cxx#4 $)

>  <Rbt.Library>
libRbt.so (2013.1, Build901 2013/11/27)

>  <Rbt.Parameter_File>
/export/apps/rDock/src/rDock_2013.1_src/data/scripts/dock_solv.prm

>  <Rbt.Receptor>
prm/pocket_docking_3.prm

>  <SCORE>
-18.1137

>  <SCORE.INTER>
-12.8368

>  <SCORE.INTER.CONST>
1

>  <SCORE.INTER.POLAR>
-2.01225

>  <SCORE.INTER.ROT>
3

>  <SCORE.INTER.SOLV>
5.62291

>  <SCORE.INTER.VDW>
-9.32466

>  <SCORE.INTER.norm>
-0.611276

>  <SCORE.INTRA>
-5.27695

>  <SCORE.INTRA.DIHEDRAL>
0.603261

>  <SCORE.INTRA.DIHEDRAL.0>
8.84257

>  <SCORE.INTRA.POLAR>
0

>  <SCORE.INTRA.POLAR.0>
0

>  <SCORE.INTRA.REPUL>
0

>  <SCORE.INTRA.REPUL.0>
0

>  <SCORE.INTRA.SOLV>
0.0694673

>  <SCORE.INTRA.SOLV.lig_0>
-17.1313

>  <SCORE.INTRA.VDW>
-5.61331

>  <SCORE.INTRA.VDW.0>
6.34071

>  <SCORE.INTRA.norm>
-0.251283

>  <SCORE.RESTR>
0

>  <SCORE.RESTR.CAVITY>
0

>  <SCORE.RESTR.norm>
0

>  <SCORE.SYSTEM>
0

>  <SCORE.SYSTEM.CONST>
0

>  <SCORE.SYSTEM.DIHEDRAL>
0

>  <SCORE.SYSTEM.SOLV>
0

>  <SCORE.SYSTEM.norm>
0

>  <SCORE.heavy>
21

>  <SCORE.norm>
-0.862559

>  <RMSD>
1.729

$$$$
lig.pdb
 OpenBabel11021811453D
libRbt.so/2013.1/901 2013/11/27
 21 23  0  0  0  0  0  0  0  0999 V2000
   -5.6624   -0.4150    3.9157 C   0  0  0  0  0  0  0  0  0  0  0  0
   -6.7362   -0.1114    4.6361 N   0  0  0  0  0  0  0  0  0  0  0  0
   -7.8666   -0.7677    4.4452 C   0  0  0  0  0  0  0  0  0  0  0  0
   -7.9478   -1.6970    3.4715 C   0  0  0  0  0  0  0  0  0  0  0  0
   -6.8616   -2.0030    2.7494 C   0  0  0  0  0  0  0  0  0  0  0  0
   -6.9340   -2.9163    1.7818 N   0  0  0  0  0  0  0  0  0  0  0  0
   -5.7220   -1.3571    2.9735 N   0  0  0  0  0  0  0  0  0  0  0  0
   -8.9416   -0.4707    5.1941 C   0  0  0  0  0  0  0  0  0  0  0  0
  -10.1508   -1.0243    4.8722 C   0  0  0  0  0  0  0  0  0  0  0  0
  -11.2990   -0.2034    4.9762 O   0  0  0  0  0  0  0  0  0  0  0  0
  -10.1695   -2.0778    4.0391 C   0  0  0  0  0  0  0  0  0  0  0  0
  -11.2863   -2.9558    4.0394 O   0  0  0  0  0  0  0  0  0  0  0  0
   -9.1012   -2.3473    3.2634 C   0  0  0  0  0  0  0  0  0  0  0  0
   -4.5321    0.2369    4.1265 N   0  0  0  0  0  0  0  0  0  0  0  0
   -4.1832    0.4257    5.4028 C   0  0  0  0  0  0  0  0  0  0  0  0
   -4.9692    1.5870    5.9921 C   0  0  0  0  0  0  0  0  0  0  0  0
   -4.6894    2.7402    5.2886 N   0  0  0  0  0  0  0  0  0  0  0  0
   -5.0960    2.5324    3.9886 C   0  0  0  0  0  0  0  0  0  0  0  0
   -4.3090    1.3756    3.3955 C   0  0  0  0  0  0  0  0  0  0  0  0
  -11.5512    0.0230    6.3394 C   0  0  0  0  0  0  0  0  0  0  0  0
  -11.1525   -3.8547    5.1091 C   0  0  0  0  0  0  0  0  0  0  0  0
  1 14  1  0  0  0  0
  1  2  2  0  0  0  0
  3  2  1  0  0  0  0
  3  8  2  0  0  0  0
  4  3  1  0  0  0  0
  5  7  2  0  0  0  0
  5  4  1  0  0  0  0
  6  5  1  0  0  0  0
  7  1  1  0  0  0  0
  9 10  1  0  0  0  0
  9  8  1  0  0  0  0
 11  9  2  0  0  0  0
 12 11  1  0  0  0  0
 13  4  2  0  0  0  0
 13 11  1  0  0  0  0
 14 15  1  0  0  0  0
 16 15  1  0  0  0  0
 17 16  1  0  0  0  0
 18 17  1  0  0  0  0
 18 19  1  0  0  0  0
 19 14  1  0  0  0  0
 20 10  1  0  0  0  0
 21 12  1  0  0  0  0
M  END
>  <CHROM.1>
44.25480779,-70.62392942,-80.84605114,-7.60697359,-0.62478830,4.29890334
-0.38739540,-0.32560926,-2.50989305

>  <Name>
lig.pdb

>  <RI>
3.31914e+07

>  <Rbt.Current_Directory>
/home/itssahil/PROJECTS/Mol_Feturizer/New_Systems/rnas/2lwk

>  <Rbt.Executable>
rbdock ($Id: //depot/dev/client3/rdock/2013.1/src/exe/rbdock.cxx#4 $)

>  <Rbt.Library>
libRbt.so (2013.1, Build901 2013/11/27)

>  <Rbt.Parameter_File>
/export/apps/rDock/src/rDock_2013.1_src/data/scripts/dock_solv.prm

>  <Rbt.Receptor>
prm/pocket_docking_3.prm

>  <SCORE>
-16.874

>  <SCORE.INTER>
-12.5845

>  <SCORE.INTER.CONST>
1

>  <SCORE.INTER.POLAR>
-2.05446

>  <SCORE.INTER.ROT>
3

>  <SCORE.INTER.SOLV>
4.21018

>  <SCORE.INTER.VDW>
-8.54486

>  <SCORE.INTER.norm>
-0.599261

>  <SCORE.INTRA>
-4.28951

>  <SCORE.INTRA.DIHEDRAL>
-0.247884

>  <SCORE.INTRA.DIHEDRAL.0>
8.84257

>  <SCORE.INTRA.POLAR>
0

>  <SCORE.INTRA.POLAR.0>
0

>  <SCORE.INTRA.REPUL>
0

>  <SCORE.INTRA.REPUL.0>
0

>  <SCORE.INTRA.SOLV>
0.0648454

>  <SCORE.INTRA.SOLV.lig_0>
-17.1313

>  <SCORE.INTRA.VDW>
-4.198

>  <SCORE.INTRA.VDW.0>
6.34071

>  <SCORE.INTRA.norm>
-0.204263

>  <SCORE.RESTR>
0

>  <SCORE.RESTR.CAVITY>
0

>  <SCORE.RESTR.norm>
0

>  <SCORE.SYSTEM>
0

>  <SCORE.SYSTEM.CONST>
0

>  <SCORE.SYSTEM.DIHEDRAL>
0

>  <SCORE.SYSTEM.SOLV>
0

>  <SCORE.SYSTEM.norm>
0

>  <SCORE.heavy>
21

>  <SCORE.norm>
-0.803523

>  <RMSD>
1.779

$$$$
lig.pdb
 OpenBabel11021811453D
libRbt.so/2013.1/901 2013/11/27
 21 23  0  0  0  0  0  0  0  0999 V2000
   -6.1155   -0.5465    3.8246 C   0  0  0  0  0  0  0  0  0  0  0  0
   -7.2559   -0.4197    4.4937 N   0  0  0  0  0  0  0  0  0  0  0  0
   -8.2933   -1.1745    4.1793 C   0  0  0  0  0  0  0  0  0  0  0  0
   -8.2146   -2.0234    3.1347 C   0  0  0  0  0  0  0  0  0  0  0  0
   -7.0616   -2.1512    2.4645 C   0  0  0  0  0  0  0  0  0  0  0  0
   -6.9763   -2.9838    1.4276 N   0  0  0  0  0  0  0  0  0  0  0  0
   -6.0157   -1.4084    2.8117 N   0  0  0  0  0  0  0  0  0  0  0  0
   -9.4358   -1.0567    4.8762 C   0  0  0  0  0  0  0  0  0  0  0  0
  -10.5554   -1.7074    4.4341 C   0  0  0  0  0  0  0  0  0  0  0  0
  -11.7920   -1.0249    4.5244 O   0  0  0  0  0  0  0  0  0  0  0  0
  -10.4089   -2.6843    3.5239 C   0  0  0  0  0  0  0  0  0  0  0  0
  -11.4191   -3.6733    3.3839 O   0  0  0  0  0  0  0  0  0  0  0  0
   -9.2746   -2.7734    2.8021 C   0  0  0  0  0  0  0  0  0  0  0  0
   -5.0787    0.2024    4.1584 N   0  0  0  0  0  0  0  0  0  0  0  0
   -4.3954   -0.1766    5.2426 C   0  0  0  0  0  0  0  0  0  0  0  0
   -5.1267    0.2654    6.5011 C   0  0  0  0  0  0  0  0  0  0  0  0
   -5.2371    1.6404    6.5140 N   0  0  0  0  0  0  0  0  0  0  0  0
   -5.9792    1.9994    5.4100 C   0  0  0  0  0  0  0  0  0  0  0  0
   -5.2488    1.5633    4.1509 C   0  0  0  0  0  0  0  0  0  0  0  0
  -12.6027   -1.7109    5.4437 C   0  0  0  0  0  0  0  0  0  0  0  0
  -11.0620   -4.7938    4.1503 C   0  0  0  0  0  0  0  0  0  0  0  0
  1 14  1  0  0  0  0
  1  2  2  0  0  0  0
  3  2  1  0  0  0  0
  3  8  2  0  0  0  0
  4  3  1  0  0  0  0
  5  7  2  0  0  0  0
  5  4  1  0  0  0  0
  6  5  1  0  0  0  0
  7  1  1  0  0  0  0
  9 10  1  0  0  0  0
  9  8  1  0  0  0  0
 11  9  2  0  0  0  0
 12 11  1  0  0  0  0
 13  4  2  0  0  0  0
 13 11  1  0  0  0  0
 14 15  1  0  0  0  0
 16 15  1  0  0  0  0
 17 16  1  0  0  0  0
 18 17  1  0  0  0  0
 18 19  1  0  0  0  0
 19 14  1  0  0  0  0
 20 10  1  0  0  0  0
 21 12  1  0  0  0  0
M  END
>  <CHROM.1>
78.02690451,-114.47893231,-95.53078997,-8.00690103,-1.17929074,4.17933591
-0.49319553,-0.28667028,-2.35716108

>  <Name>
lig.pdb

>  <RI>
3.31914e+07

>  <Rbt.Current_Directory>
/home/itssahil/PROJECTS/Mol_Feturizer/New_Systems/rnas/2lwk

>  <Rbt.Executable>
rbdock ($Id: //depot/dev/client3/rdock/2013.1/src/exe/rbdock.cxx#4 $)

>  <Rbt.Library>
libRbt.so (2013.1, Build901 2013/11/27)

>  <Rbt.Parameter_File>
/export/apps/rDock/src/rDock_2013.1_src/data/scripts/dock_solv.prm

>  <Rbt.Receptor>
prm/pocket_docking_3.prm

>  <SCORE>
-16.6213

>  <SCORE.INTER>
-11.4862

>  <SCORE.INTER.CONST>
1

>  <SCORE.INTER.POLAR>
-1.39019

>  <SCORE.INTER.ROT>
3

>  <SCORE.INTER.SOLV>
5.67996

>  <SCORE.INTER.VDW>
-10.5168

>  <SCORE.INTER.norm>
-0.546963

>  <SCORE.INTRA>
-5.19094

>  <SCORE.INTRA.DIHEDRAL>
0.732992

>  <SCORE.INTRA.DIHEDRAL.0>
8.84257

>  <SCORE.INTRA.POLAR>
0

>  <SCORE.INTRA.POLAR.0>
0

>  <SCORE.INTRA.REPUL>
0

>  <SCORE.INTRA.REPUL.0>
0

>  <SCORE.INTRA.SOLV>
0.103342

>  <SCORE.INTRA.SOLV.lig_0>
-17.1313

>  <SCORE.INTRA.VDW>
-5.60911

>  <SCORE.INTRA.VDW.0>
6.34071

>  <SCORE.INTRA.norm>
-0.247188

>  <SCORE.RESTR>
0.0559041

>  <SCORE.RESTR.CAVITY>
0.0559041

>  <SCORE.RESTR.norm>
0.0026621

>  <SCORE.SYSTEM>
0

>  <SCORE.SYSTEM.CONST>
0

>  <SCORE.SYSTEM.DIHEDRAL>
0

>  <SCORE.SYSTEM.SOLV>
0

>  <SCORE.SYSTEM.norm>
0

>  <SCORE.heavy>
21

>  <SCORE.norm>
-0.791489

>  <RMSD>
1.856

$$$$
lig.pdb
 OpenBabel11021811453D
libRbt.so/2013.1/901 2013/11/27
 21 23  0  0  0  0  0  0  0  0999 V2000
   -5.1632    1.2978    4.8364 C   0  0  0  0  0  0  0  0  0  0  0  0
   -6.4365    1.2683    5.2133 N   0  0  0  0  0  0  0  0  0  0  0  0
   -7.2223    0.2867    4.8084 C   0  0  0  0  0  0  0  0  0  0  0  0
   -6.7486   -0.6456    3.9572 C   0  0  0  0  0  0  0  0  0  0  0  0
   -5.4628   -0.6147    3.5822 C   0  0  0  0  0  0  0  0  0  0  0  0
   -4.9875   -1.5289    2.7374 N   0  0  0  0  0  0  0  0  0  0  0  0
   -4.6749    0.3608    4.0225 N   0  0  0  0  0  0  0  0  0  0  0  0
   -8.5029    0.2513    5.2130 C   0  0  0  0  0  0  0  0  0  0  0  0
   -9.3538   -0.6608    4.6505 C   0  0  0  0  0  0  0  0  0  0  0  0
  -10.6727   -0.2379    4.3592 O   0  0  0  0  0  0  0  0  0  0  0  0
   -8.8263   -1.6879    3.9643 C   0  0  0  0  0  0  0  0  0  0  0  0
   -9.5887   -2.8710    3.7711 O   0  0  0  0  0  0  0  0  0  0  0  0
   -7.5524   -1.6292    3.5293 C   0  0  0  0  0  0  0  0  0  0  0  0
   -4.3817    2.2757    5.2608 N   0  0  0  0  0  0  0  0  0  0  0  0
   -4.5058    2.6216    6.5458 C   0  0  0  0  0  0  0  0  0  0  0  0
   -5.7269    3.5095    6.7314 C   0  0  0  0  0  0  0  0  0  0  0  0
   -5.5819    4.6590    5.9826 N   0  0  0  0  0  0  0  0  0  0  0  0
   -5.4977    4.2762    4.6617 C   0  0  0  0  0  0  0  0  0  0  0  0
   -4.2760    3.3928    4.4721 C   0  0  0  0  0  0  0  0  0  0  0  0
  -11.5318   -0.7959    5.3203 C   0  0  0  0  0  0  0  0  0  0  0  0
  -10.2197   -2.8011    2.5192 C   0  0  0  0  0  0  0  0  0  0  0  0
  1 14  1  0  0  0  0
  1  2  2  0  0  0  0
  3  2  1  0  0  0  0
  3  8  2  0  0  0  0
  4  3  1  0  0  0  0
  5  7  2  0  0  0  0
  5  4  1  0  0  0  0
  6  5  1  0  0  0  0
  7  1  1  0  0  0  0
  9 10  1  0  0  0  0
  9  8  1  0  0  0  0
 11  9  2  0  0  0  0
 12 11  1  0  0  0  0
 13  4  2  0  0  0  0
 13 11  1  0  0  0  0
 14 15  1  0  0  0  0
 16 15  1  0  0  0  0
 17 16  1  0  0  0  0
 18 17  1  0  0  0  0
 18 19  1  0  0  0  0
 19 14  1  0  0  0  0
 20 10  1  0  0  0  0
 21 12  1  0  0  0  0
M  END
>  <CHROM.1>
42.44776554,-105.12223501,95.72037424,-7.03113496,0.51036414,4.57053237,-0.79888622
-0.21266901,-2.63019044

>  <Name>
lig.pdb

>  <RI>
1.4775e+07

>  <Rbt.Current_Directory>
/home/itssahil/PROJECTS/Mol_Feturizer/New_Systems/rnas/2lwk

>  <Rbt.Executable>
rbdock ($Id: //depot/dev/client3/rdock/2013.1/src/exe/rbdock.cxx#4 $)

>  <Rbt.Library>
libRbt.so (2013.1, Build901 2013/11/27)

>  <Rbt.Parameter_File>
/export/apps/rDock/src/rDock_2013.1_src/data/scripts/dock_solv.prm

>  <Rbt.Receptor>
prm/pocket_docking_4.prm

>  <SCORE>
-19.643

>  <SCORE.INTER>
-14.896

>  <SCORE.INTER.CONST>
1

>  <SCORE.INTER.POLAR>
-2.65285

>  <SCORE.INTER.ROT>
3

>  <SCORE.INTER.SOLV>
6.36697

>  <SCORE.INTER.VDW>
-8.81011

>  <SCORE.INTER.norm>
-0.709331

>  <SCORE.INTRA>
-4.747

>  <SCORE.INTRA.DIHEDRAL>
0.994852

>  <SCORE.INTRA.DIHEDRAL.0>
8.84257

>  <SCORE.INTRA.POLAR>
0

>  <SCORE.INTRA.POLAR.0>
0

>  <SCORE.INTRA.REPUL>
0

>  <SCORE.INTRA.REPUL.0>
0

>  <SCORE.INTRA.SOLV>
0.138942

>  <SCORE.INTRA.SOLV.lig_0>
-17.1313

>  <SCORE.INTRA.VDW>
-5.3139

>  <SCORE.INTRA.VDW.0>
6.34071

>  <SCORE.INTRA.norm>
-0.226048

>  <SCORE.RESTR>
0

>  <SCORE.RESTR.CAVITY>
0

>  <SCORE.RESTR.norm>
0

>  <SCORE.SYSTEM>
0

>  <SCORE.SYSTEM.CONST>
0

>  <SCORE.SYSTEM.DIHEDRAL>
0

>  <SCORE.SYSTEM.SOLV>
0

>  <SCORE.SYSTEM.norm>
0

>  <SCORE.heavy>
21

>  <SCORE.norm>
-0.935379

>  <RMSD>
2.040

$$$$
lig.pdb
 OpenBabel11021811453D
libRbt.so/2013.1/901 2013/11/27
 21 23  0  0  0  0  0  0  0  0999 V2000
   -7.5327    1.8633    3.6221 C   0  0  0  0  0  0  0  0  0  0  0  0
   -8.7897    1.4893    3.8326 N   0  0  0  0  0  0  0  0  0  0  0  0
   -9.0478    0.2966    4.3384 C   0  0  0  0  0  0  0  0  0  0  0  0
   -8.0385   -0.5654    4.5754 C   0  0  0  0  0  0  0  0  0  0  0  0
   -6.7717   -0.1833    4.3653 C   0  0  0  0  0  0  0  0  0  0  0  0
   -5.7684   -1.0303    4.5919 N   0  0  0  0  0  0  0  0  0  0  0  0
   -6.5243    1.0313    3.8859 N   0  0  0  0  0  0  0  0  0  0  0  0
  -10.3207   -0.0652    4.5701 C   0  0  0  0  0  0  0  0  0  0  0  0
  -10.5913   -1.3593    4.9228 C   0  0  0  0  0  0  0  0  0  0  0  0
  -11.7426   -1.9659    4.3665 O   0  0  0  0  0  0  0  0  0  0  0  0
   -9.5754   -2.1342    5.3371 C   0  0  0  0  0  0  0  0  0  0  0  0
   -9.8432   -3.2806    6.1323 O   0  0  0  0  0  0  0  0  0  0  0  0
   -8.3024   -1.7837    5.0681 C   0  0  0  0  0  0  0  0  0  0  0  0
   -7.2853    3.0653    3.1309 N   0  0  0  0  0  0  0  0  0  0  0  0
   -7.0145    3.1297    1.8238 C   0  0  0  0  0  0  0  0  0  0  0  0
   -5.5711    2.7228    1.5694 C   0  0  0  0  0  0  0  0  0  0  0  0
   -4.7229    3.5847    2.2333 N   0  0  0  0  0  0  0  0  0  0  0  0
   -4.9953    3.4675    3.5788 C   0  0  0  0  0  0  0  0  0  0  0  0
   -6.4355    3.8780    3.8368 C   0  0  0  0  0  0  0  0  0  0  0  0
  -12.7284   -2.0285    5.3652 C   0  0  0  0  0  0  0  0  0  0  0  0
   -9.8942   -2.8921    7.4802 C   0  0  0  0  0  0  0  0  0  0  0  0
  1 14  1  0  0  0  0
  1  2  2  0  0  0  0
  3  2  1  0  0  0  0
  3  8  2  0  0  0  0
  4  3  1  0  0  0  0
  5  7  2  0  0  0  0
  5  4  1  0  0  0  0
  6  5  1  0  0  0  0
  7  1  1  0  0  0  0
  9 10  1  0  0  0  0
  9  8  1  0  0  0  0
 11  9  2  0  0  0  0
 12 11  1  0  0  0  0
 13  4  2  0  0  0  0
 13 11  1  0  0  0  0
 14 15  1  0  0  0  0
 16 15  1  0  0  0  0
 17 16  1  0  0  0  0
 18 17  1  0  0  0  0
 18 19  1  0  0  0  0
 19 14  1  0  0  0  0
 20 10  1  0  0  0  0
 21 12  1  0  0  0  0
M  END
>  <CHROM.1>
-100.43474858,-105.13953348,-86.51516704,-8.16706085,0.32479350,4.22791441
0.89939102,-0.06809648,-0.54285612

>  <Name>
lig.pdb

>  <RI>
1.4775e+07

>  <Rbt.Current_Directory>
/home/itssahil/PROJECTS/Mol_Feturizer/New_Systems/rnas/2lwk

>  <Rbt.Executable>
rbdock ($Id: //depot/dev/client3/rdock/2013.1/src/exe/rbdock.cxx#4 $)

>  <Rbt.Library>
libRbt.so (2013.1, Build901 2013/11/27)

>  <Rbt.Parameter_File>
/export/apps/rDock/src/rDock_2013.1_src/data/scripts/dock_solv.prm

>  <Rbt.Receptor>
prm/pocket_docking_4.prm

>  <SCORE>
-12.8516

>  <SCORE.INTER>
-7.46731

>  <SCORE.INTER.CONST>
1

>  <SCORE.INTER.POLAR>
-0.959166

>  <SCORE.INTER.ROT>
3

>  <SCORE.INTER.SOLV>
6.395

>  <SCORE.INTER.VDW>
-9.51265

>  <SCORE.INTER.norm>
-0.355586

>  <SCORE.INTRA>
-5.38431

>  <SCORE.INTRA.DIHEDRAL>
1.00802

>  <SCORE.INTRA.DIHEDRAL.0>
8.84257

>  <SCORE.INTRA.POLAR>
0

>  <SCORE.INTRA.POLAR.0>
0

>  <SCORE.INTRA.REPUL>
0

>  <SCORE.INTRA.REPUL.0>
0

>  <SCORE.INTRA.SOLV>
0.0902442

>  <SCORE.INTRA.SOLV.lig_0>
-17.1313

>  <SCORE.INTRA.VDW>
-5.93344

>  <SCORE.INTRA.VDW.0>
6.34071

>  <SCORE.INTRA.norm>
-0.256396

>  <SCORE.RESTR>
0

>  <SCORE.RESTR.CAVITY>
0

>  <SCORE.RESTR.norm>
0

>  <SCORE.SYSTEM>
0

>  <SCORE.SYSTEM.CONST>
0

>  <SCORE.SYSTEM.DIHEDRAL>
0

>  <SCORE.SYSTEM.SOLV>
0

>  <SCORE.SYSTEM.norm>
0

>  <SCORE.heavy>
21

>  <SCORE.norm>
-0.611982

>  <RMSD>
2.401

$$$$
lig.pdb
 OpenBabel11021811453D
libRbt.so/2013.1/901 2013/11/27
 21 23  0  0  0  0  0  0  0  0999 V2000
   -6.5106    1.7131    4.8733 C   0  0  0  0  0  0  0  0  0  0  0  0
   -7.5958    0.9479    4.9048 N   0  0  0  0  0  0  0  0  0  0  0  0
   -7.5947   -0.2247    4.2966 C   0  0  0  0  0  0  0  0  0  0  0  0
   -6.5159   -0.6124    3.5866 C   0  0  0  0  0  0  0  0  0  0  0  0
   -5.4219    0.1604    3.5602 C   0  0  0  0  0  0  0  0  0  0  0  0
   -4.3532   -0.2123    2.8570 N   0  0  0  0  0  0  0  0  0  0  0  0
   -5.4253    1.3237    4.2030 N   0  0  0  0  0  0  0  0  0  0  0  0
   -8.6882   -1.0031    4.3529 C   0  0  0  0  0  0  0  0  0  0  0  0
   -8.7451   -2.1284    3.5765 C   0  0  0  0  0  0  0  0  0  0  0  0
   -9.9792   -2.4386    2.9568 O   0  0  0  0  0  0  0  0  0  0  0  0
   -7.6048   -2.5916    3.0385 C   0  0  0  0  0  0  0  0  0  0  0  0
   -7.5169   -3.9518    2.6383 O   0  0  0  0  0  0  0  0  0  0  0  0
   -6.5232   -1.7927    2.9514 C   0  0  0  0  0  0  0  0  0  0  0  0
   -6.5172    2.8773    5.4991 N   0  0  0  0  0  0  0  0  0  0  0  0
   -5.9844    3.9105    4.8396 C   0  0  0  0  0  0  0  0  0  0  0  0
   -4.4669    3.8626    4.9336 C   0  0  0  0  0  0  0  0  0  0  0  0
   -4.0818    3.9440    6.2557 N   0  0  0  0  0  0  0  0  0  0  0  0
   -4.6097    2.8473    6.9015 C   0  0  0  0  0  0  0  0  0  0  0  0
   -6.1260    2.8948    6.8135 C   0  0  0  0  0  0  0  0  0  0  0  0
  -10.5077   -3.5789    3.5841 C   0  0  0  0  0  0  0  0  0  0  0  0
   -7.2074   -4.7332    3.7625 C   0  0  0  0  0  0  0  0  0  0  0  0
  1 14  1  0  0  0  0
  1  2  2  0  0  0  0
  3  2  1  0  0  0  0
  3  8  2  0  0  0  0
  4  3  1  0  0  0  0
  5  7  2  0  0  0  0
  5  4  1  0  0  0  0
  6  5  1  0  0  0  0
  7  1  1  0  0  0  0
  9 10  1  0  0  0  0
  9  8  1  0  0  0  0
 11  9  2  0  0  0  0
 12 11  1  0  0  0  0
 13  4  2  0  0  0  0
 13 11  1  0  0  0  0
 14 15  1  0  0  0  0
 16 15  1  0  0  0  0
 17 16  1  0  0  0  0
 18 17  1  0  0  0  0
 18 19  1  0  0  0  0
 19 14  1  0  0  0  0
 20 10  1  0  0  0  0
 21 12  1  0  0  0  0
M  END
>  <CHROM.1>
-136.31162145,-109.83193044,-82.96351459,-6.75545720,0.03552253,4.30019382
1.09956716,0.23361904,0.47747507

>  <Name>
lig.pdb

>  <RI>
1.4775e+07

>  <Rbt.Current_Directory>
/home/itssahil/PROJECTS/Mol_Feturizer/New_Systems/rnas/2lwk

>  <Rbt.Executable>
rbdock ($Id: //depot/dev/client3/rdock/2013.1/src/exe/rbdock.cxx#4 $)

>  <Rbt.Library>
libRbt.so (2013.1, Build901 2013/11/27)

>  <Rbt.Parameter_File>
/export/apps/rDock/src/rDock_2013.1_src/data/scripts/dock_solv.prm

>  <Rbt.Receptor>
prm/pocket_docking_4.prm

>  <SCORE>
-20.4784

>  <SCORE.INTER>
-15.7409

>  <SCORE.INTER.CONST>
1

>  <SCORE.INTER.POLAR>
-2.64473

>  <SCORE.INTER.ROT>
3

>  <SCORE.INTER.SOLV>
6.12327

>  <SCORE.INTER.VDW>
-9.31925

>  <SCORE.INTER.norm>
-0.749567

>  <SCORE.INTRA>
-4.73751

>  <SCORE.INTRA.DIHEDRAL>
0.893204

>  <SCORE.INTRA.DIHEDRAL.0>
8.84257

>  <SCORE.INTRA.POLAR>
0

>  <SCORE.INTRA.POLAR.0>
0

>  <SCORE.INTRA.REPUL>
0

>  <SCORE.INTRA.REPUL.0>
0

>  <SCORE.INTRA.SOLV>
0.0951322

>  <SCORE.INTRA.SOLV.lig_0>
-17.1313

>  <SCORE.INTRA.VDW>
-5.23168

>  <SCORE.INTRA.VDW.0>
6.34071

>  <SCORE.INTRA.norm>
-0.225596

>  <SCORE.RESTR>
0

>  <SCORE.RESTR.CAVITY>
0

>  <SCORE.RESTR.norm>
0

>  <SCORE.SYSTEM>
0

>  <SCORE.SYSTEM.CONST>
0

>  <SCORE.SYSTEM.DIHEDRAL>
0

>  <SCORE.SYSTEM.SOLV>
0

>  <SCORE.SYSTEM.norm>
0

>  <SCORE.heavy>
21

>  <SCORE.norm>
-0.975163

>  <RMSD>
2.472

$$$$
lig.pdb
 OpenBabel11021811453D
libRbt.so/2013.1/901 2013/11/27
 21 23  0  0  0  0  0  0  0  0999 V2000
   -6.5248    1.7148    4.8531 C   0  0  0  0  0  0  0  0  0  0  0  0
   -7.6143    0.9556    4.8811 N   0  0  0  0  0  0  0  0  0  0  0  0
   -7.6123   -0.2242    4.2869 C   0  0  0  0  0  0  0  0  0  0  0  0
   -6.5275   -0.6257    3.5940 C   0  0  0  0  0  0  0  0  0  0  0  0
   -5.4292    0.1412    3.5711 C   0  0  0  0  0  0  0  0  0  0  0  0
   -4.3545   -0.2453    2.8847 N   0  0  0  0  0  0  0  0  0  0  0  0
   -5.4339    1.3120    4.2000 N   0  0  0  0  0  0  0  0  0  0  0  0
   -8.7105   -0.9962    4.3398 C   0  0  0  0  0  0  0  0  0  0  0  0
   -8.7643   -2.1304    3.5762 C   0  0  0  0  0  0  0  0  0  0  0  0
   -9.9928   -2.4417    2.9461 O   0  0  0  0  0  0  0  0  0  0  0  0
   -7.6204   -2.6057    3.0569 C   0  0  0  0  0  0  0  0  0  0  0  0
   -7.5350   -3.9711    2.6739 O   0  0  0  0  0  0  0  0  0  0  0  0
   -6.5337   -1.8135    2.9728 C   0  0  0  0  0  0  0  0  0  0  0  0
   -6.5326    2.8865    5.4649 N   0  0  0  0  0  0  0  0  0  0  0  0
   -5.9791    3.9071    4.8030 C   0  0  0  0  0  0  0  0  0  0  0  0
   -4.4640    3.8476    4.9247 C   0  0  0  0  0  0  0  0  0  0  0  0
   -4.1019    3.9415    6.2526 N   0  0  0  0  0  0  0  0  0  0  0  0
   -4.6507    2.8571    6.9016 C   0  0  0  0  0  0  0  0  0  0  0  0
   -6.1647    2.9164    6.7858 C   0  0  0  0  0  0  0  0  0  0  0  0
  -10.5170   -3.5927    3.5572 C   0  0  0  0  0  0  0  0  0  0  0  0
   -7.0505   -4.7147    3.7614 C   0  0  0  0  0  0  0  0  0  0  0  0
  1 14  1  0  0  0  0
  1  2  2  0  0  0  0
  3  2  1  0  0  0  0
  3  8  2  0  0  0  0
  4  3  1  0  0  0  0
  5  7  2  0  0  0  0
  5  4  1  0  0  0  0
  6  5  1  0  0  0  0
  7  1  1  0  0  0  0
  9 10  1  0  0  0  0
  9  8  1  0  0  0  0
 11  9  2  0  0  0  0
 12 11  1  0  0  0  0
 13  4  2  0  0  0  0
 13 11  1  0  0  0  0
 14 15  1  0  0  0  0
 16 15  1  0  0  0  0
 17 16  1  0  0  0  0
 18 17  1  0  0  0  0
 18 19  1  0  0  0  0
 19 14  1  0  0  0  0
 20 10  1  0  0  0  0
 21 12  1  0  0  0  0
M  END
>  <CHROM.1>
-136.72862735,-111.37601225,-91.58610221,-6.76119247,0.03088043,4.29563498
1.10583942,0.20920483,0.46199854

>  <Name>
lig.pdb

>  <RI>
1.4775e+07

>  <Rbt.Current_Directory>
/home/itssahil/PROJECTS/Mol_Feturizer/New_Systems/rnas/2lwk

>  <Rbt.Executable>
rbdock ($Id: //depot/dev/client3/rdock/2013.1/src/exe/rbdock.cxx#4 $)

>  <Rbt.Library>
libRbt.so (2013.1, Build901 2013/11/27)

>  <Rbt.Parameter_File>
/export/apps/rDock/src/rDock_2013.1_src/data/scripts/dock_solv.prm

>  <Rbt.Receptor>
prm/pocket_docking_4.prm

>  <SCORE>
-20.5828

>  <SCORE.INTER>
-15.834

>  <SCORE.INTER.CONST>
1

>  <SCORE.INTER.POLAR>
-2.62525

>  <SCORE.INTER.ROT>
3

>  <SCORE.INTER.SOLV>
6.1556

>  <SCORE.INTER.VDW>
-9.45707

>  <SCORE.INTER.norm>
-0.754002

>  <SCORE.INTRA>
-4.74875

>  <SCORE.INTRA.DIHEDRAL>
0.878139

>  <SCORE.INTRA.DIHEDRAL.0>
8.84257

>  <SCORE.INTRA.POLAR>
0

>  <SCORE.INTRA.POLAR.0>
0

>  <SCORE.INTRA.REPUL>
0

>  <SCORE.INTRA.REPUL.0>
0

>  <SCORE.INTRA.SOLV>
0.0910015

>  <SCORE.INTRA.SOLV.lig_0>
-17.1313

>  <SCORE.INTRA.VDW>
-5.23332

>  <SCORE.INTRA.VDW.0>
6.34071

>  <SCORE.INTRA.norm>
-0.226131

>  <SCORE.RESTR>
0

>  <SCORE.RESTR.CAVITY>
0

>  <SCORE.RESTR.norm>
0

>  <SCORE.SYSTEM>
0

>  <SCORE.SYSTEM.CONST>
0

>  <SCORE.SYSTEM.DIHEDRAL>
0

>  <SCORE.SYSTEM.SOLV>
0

>  <SCORE.SYSTEM.norm>
0

>  <SCORE.heavy>
21

>  <SCORE.norm>
-0.980133

>  <RMSD>
2.473

$$$$
lig.pdb
 OpenBabel11021811453D
libRbt.so/2013.1/901 2013/11/27
 21 23  0  0  0  0  0  0  0  0999 V2000
   -6.0645    0.6170    5.4186 C   0  0  0  0  0  0  0  0  0  0  0  0
   -7.3709    0.8403    5.3306 N   0  0  0  0  0  0  0  0  0  0  0  0
   -8.2226   -0.1596    5.4709 C   0  0  0  0  0  0  0  0  0  0  0  0
   -7.7622   -1.4164    5.6340 C   0  0  0  0  0  0  0  0  0  0  0  0
   -6.4441   -1.6373    5.7259 C   0  0  0  0  0  0  0  0  0  0  0  0
   -5.9801   -2.8766    5.8820 N   0  0  0  0  0  0  0  0  0  0  0  0
   -5.5992   -0.6174    5.6148 N   0  0  0  0  0  0  0  0  0  0  0  0
   -9.5430    0.0784    5.4039 C   0  0  0  0  0  0  0  0  0  0  0  0
  -10.4095   -0.9801    5.3703 C   0  0  0  0  0  0  0  0  0  0  0  0
  -11.5276   -0.8882    4.5075 O   0  0  0  0  0  0  0  0  0  0  0  0
   -9.9517   -2.1918    5.7259 C   0  0  0  0  0  0  0  0  0  0  0  0
  -10.8655   -3.1922    6.1528 O   0  0  0  0  0  0  0  0  0  0  0  0
   -8.6265   -2.4339    5.7545 C   0  0  0  0  0  0  0  0  0  0  0  0
   -5.2219    1.6276    5.2929 N   0  0  0  0  0  0  0  0  0  0  0  0
   -5.0139    2.3683    6.3857 C   0  0  0  0  0  0  0  0  0  0  0  0
   -6.1641    3.3445    6.5810 C   0  0  0  0  0  0  0  0  0  0  0  0
   -6.2462    4.1875    5.4921 N   0  0  0  0  0  0  0  0  0  0  0  0
   -6.5013    3.4030    4.3885 C   0  0  0  0  0  0  0  0  0  0  0  0
   -5.3515    2.4298    4.1881 C   0  0  0  0  0  0  0  0  0  0  0  0
  -12.6274   -1.4752    5.1547 C   0  0  0  0  0  0  0  0  0  0  0  0
  -10.8565   -3.2418    7.5555 C   0  0  0  0  0  0  0  0  0  0  0  0
  1 14  1  0  0  0  0
  1  2  2  0  0  0  0
  3  2  1  0  0  0  0
  3  8  2  0  0  0  0
  4  3  1  0  0  0  0
  5  7  2  0  0  0  0
  5  4  1  0  0  0  0
  6  5  1  0  0  0  0
  7  1  1  0  0  0  0
  9 10  1  0  0  0  0
  9  8  1  0  0  0  0
 11  9  2  0  0  0  0
 12 11  1  0  0  0  0
 13  4  2  0  0  0  0
 13 11  1  0  0  0  0
 14 15  1  0  0  0  0
 16 15  1  0  0  0  0
 17 16  1  0  0  0  0
 18 17  1  0  0  0  0
 18 19  1  0  0  0  0
 19 14  1  0  0  0  0
 20 10  1  0  0  0  0
 21 12  1  0  0  0  0
M  END
>  <CHROM.1>
82.25504615,-142.02637351,-99.76769324,-7.95303473,-0.10952841,5.57764466
-0.75920145,0.09065772,2.95500628

>  <Name>
lig.pdb

>  <RI>
1.4775e+07

>  <Rbt.Current_Directory>
/home/itssahil/PROJECTS/Mol_Feturizer/New_Systems/rnas/2lwk

>  <Rbt.Executable>
rbdock ($Id: //depot/dev/client3/rdock/2013.1/src/exe/rbdock.cxx#4 $)

>  <Rbt.Library>
libRbt.so (2013.1, Build901 2013/11/27)

>  <Rbt.Parameter_File>
/export/apps/rDock/src/rDock_2013.1_src/data/scripts/dock_solv.prm

>  <Rbt.Receptor>
prm/pocket_docking_4.prm

>  <SCORE>
-14.4831

>  <SCORE.INTER>
-11.9525

>  <SCORE.INTER.CONST>
1

>  <SCORE.INTER.POLAR>
-2.51267

>  <SCORE.INTER.ROT>
3

>  <SCORE.INTER.SOLV>
5.24926

>  <SCORE.INTER.VDW>
-6.94252

>  <SCORE.INTER.norm>
-0.569167

>  <SCORE.INTRA>
-2.53097

>  <SCORE.INTRA.DIHEDRAL>
-0.979664

>  <SCORE.INTRA.DIHEDRAL.0>
8.84257

>  <SCORE.INTRA.POLAR>
0

>  <SCORE.INTRA.POLAR.0>
0

>  <SCORE.INTRA.REPUL>
0

>  <SCORE.INTRA.REPUL.0>
0

>  <SCORE.INTRA.SOLV>
0.12452

>  <SCORE.INTRA.SOLV.lig_0>
-17.1313

>  <SCORE.INTRA.VDW>
-2.1034

>  <SCORE.INTRA.VDW.0>
6.34071

>  <SCORE.INTRA.norm>
-0.120522

>  <SCORE.RESTR>
0.000336417

>  <SCORE.RESTR.CAVITY>
0.000336417

>  <SCORE.RESTR.norm>
1.60198e-05

>  <SCORE.SYSTEM>
0

>  <SCORE.SYSTEM.CONST>
0

>  <SCORE.SYSTEM.DIHEDRAL>
0

>  <SCORE.SYSTEM.SOLV>
0

>  <SCORE.SYSTEM.norm>
0

>  <SCORE.heavy>
21

>  <SCORE.norm>
-0.689673

>  <RMSD>
2.501

$$$$
lig.pdb
 OpenBabel11021811453D
libRbt.so/2013.1/901 2013/11/27
 21 23  0  0  0  0  0  0  0  0999 V2000
   -6.7667    0.3154    5.0124 C   0  0  0  0  0  0  0  0  0  0  0  0
   -6.9254   -0.6797    4.1470 N   0  0  0  0  0  0  0  0  0  0  0  0
   -8.0574   -1.3600    4.1235 C   0  0  0  0  0  0  0  0  0  0  0  0
   -9.0233   -1.0886    5.0244 C   0  0  0  0  0  0  0  0  0  0  0  0
   -8.8611   -0.0819    5.8933 C   0  0  0  0  0  0  0  0  0  0  0  0
   -9.8081    0.1901    6.7904 N   0  0  0  0  0  0  0  0  0  0  0  0
   -7.7297    0.6154    5.8850 N   0  0  0  0  0  0  0  0  0  0  0  0
   -8.2190   -2.3497    3.2295 C   0  0  0  0  0  0  0  0  0  0  0  0
   -9.3148   -3.1633    3.3278 C   0  0  0  0  0  0  0  0  0  0  0  0
   -9.1321   -4.5455    3.0843 O   0  0  0  0  0  0  0  0  0  0  0  0
  -10.3423   -2.7612    4.0938 C   0  0  0  0  0  0  0  0  0  0  0  0
  -11.6382   -3.2998    3.8728 O   0  0  0  0  0  0  0  0  0  0  0  0
  -10.1631   -1.7938    5.0145 C   0  0  0  0  0  0  0  0  0  0  0  0
   -5.6361    1.0001    5.0160 N   0  0  0  0  0  0  0  0  0  0  0  0
   -5.6896    2.2344    5.5260 C   0  0  0  0  0  0  0  0  0  0  0  0
   -6.2751    3.1963    4.5034 C   0  0  0  0  0  0  0  0  0  0  0  0
   -5.4741    3.2229    3.3806 N   0  0  0  0  0  0  0  0  0  0  0  0
   -5.4702    1.9499    2.8534 C   0  0  0  0  0  0  0  0  0  0  0  0
   -4.8813    0.9872    3.8711 C   0  0  0  0  0  0  0  0  0  0  0  0
   -8.9510   -5.1861    4.3212 C   0  0  0  0  0  0  0  0  0  0  0  0
  -12.0352   -4.0038    5.0204 C   0  0  0  0  0  0  0  0  0  0  0  0
  1 14  1  0  0  0  0
  1  2  2  0  0  0  0
  3  2  1  0  0  0  0
  3  8  2  0  0  0  0
  4  3  1  0  0  0  0
  5  7  2  0  0  0  0
  5  4  1  0  0  0  0
  6  5  1  0  0  0  0
  7  1  1  0  0  0  0
  9 10  1  0  0  0  0
  9  8  1  0  0  0  0
 11  9  2  0  0  0  0
 12 11  1  0  0  0  0
 13  4  2  0  0  0  0
 13 11  1  0  0  0  0
 14 15  1  0  0  0  0
 16 15  1  0  0  0  0
 17 16  1  0  0  0  0
 18 17  1  0  0  0  0
 18 19  1  0  0  0  0
 19 14  1  0  0  0  0
 20 10  1  0  0  0  0
 21 12  1  0  0  0  0
M  END
>  <CHROM.1>
156.81470989,95.92451336,116.99479862,-8.13078705,-0.80442918,4.47627734
0.74234515,0.56072614,0.55202628

>  <Name>
lig.pdb

>  <RI>
2.6678e+07

>  <Rbt.Current_Directory>
/home/itssahil/PROJECTS/Mol_Feturizer/New_Systems/rnas/2lwk

>  <Rbt.Executable>
rbdock ($Id: //depot/dev/client3/rdock/2013.1/src/exe/rbdock.cxx#4 $)

>  <Rbt.Library>
libRbt.so (2013.1, Build901 2013/11/27)

>  <Rbt.Parameter_File>
/export/apps/rDock/src/rDock_2013.1_src/data/scripts/dock_solv.prm

>  <Rbt.Receptor>
prm/pocket_docking_2.prm

>  <SCORE>
-13.4595

>  <SCORE.INTER>
-13.4285

>  <SCORE.INTER.CONST>
1

>  <SCORE.INTER.POLAR>
-2.03436

>  <SCORE.INTER.ROT>
3

>  <SCORE.INTER.SOLV>
5.12009

>  <SCORE.INTER.VDW>
-9.47784

>  <SCORE.INTER.norm>
-0.639453

>  <SCORE.INTRA>
-1.31773

>  <SCORE.INTRA.DIHEDRAL>
-0.253724

>  <SCORE.INTRA.DIHEDRAL.0>
8.84257

>  <SCORE.INTRA.POLAR>
0

>  <SCORE.INTRA.POLAR.0>
0

>  <SCORE.INTRA.REPUL>
0

>  <SCORE.INTRA.REPUL.0>
0

>  <SCORE.INTRA.SOLV>
-0.0534036

>  <SCORE.INTRA.SOLV.lig_0>
-17.1313

>  <SCORE.INTRA.VDW>
-1.16417

>  <SCORE.INTRA.VDW.0>
6.34071

>  <SCORE.INTRA.norm>
-0.0627491

>  <SCORE.RESTR>
1.28678

>  <SCORE.RESTR.CAVITY>
1.28678

>  <SCORE.RESTR.norm>
0.0612751

>  <SCORE.SYSTEM>
0

>  <SCORE.SYSTEM.CONST>
0

>  <SCORE.SYSTEM.DIHEDRAL>
0

>  <SCORE.SYSTEM.SOLV>
0

>  <SCORE.SYSTEM.norm>
0

>  <SCORE.heavy>
21

>  <SCORE.norm>
-0.640927

>  <RMSD>
2.697

$$$$
lig.pdb
 OpenBabel11021811453D
libRbt.so/2013.1/901 2013/11/27
 21 23  0  0  0  0  0  0  0  0999 V2000
   -4.7832    0.7502    4.7615 C   0  0  0  0  0  0  0  0  0  0  0  0
   -6.0220    0.2766    4.6872 N   0  0  0  0  0  0  0  0  0  0  0  0
   -6.2663   -0.8295    4.0077 C   0  0  0  0  0  0  0  0  0  0  0  0
   -5.2696   -1.4377    3.3332 C   0  0  0  0  0  0  0  0  0  0  0  0
   -4.0209   -0.9592    3.4135 C   0  0  0  0  0  0  0  0  0  0  0  0
   -3.0308   -1.5507    2.7462 N   0  0  0  0  0  0  0  0  0  0  0  0
   -3.7834    0.1368    4.1268 N   0  0  0  0  0  0  0  0  0  0  0  0
   -7.5179   -1.3149    3.9568 C   0  0  0  0  0  0  0  0  0  0  0  0
   -7.7955   -2.3528    3.1095 C   0  0  0  0  0  0  0  0  0  0  0  0
   -9.0236   -2.3183    2.4068 O   0  0  0  0  0  0  0  0  0  0  0  0
   -6.7693   -3.0575    2.6050 C   0  0  0  0  0  0  0  0  0  0  0  0
   -6.9894   -4.3766    2.1256 O   0  0  0  0  0  0  0  0  0  0  0  0
   -5.5222   -2.5479    2.6258 C   0  0  0  0  0  0  0  0  0  0  0  0
   -4.5475    1.8487    5.4578 N   0  0  0  0  0  0  0  0  0  0  0  0
   -4.9295    1.8349    6.7385 C   0  0  0  0  0  0  0  0  0  0  0  0
   -6.4264    2.0858    6.8391 C   0  0  0  0  0  0  0  0  0  0  0  0
   -6.7254    3.3236    6.3083 N   0  0  0  0  0  0  0  0  0  0  0  0
   -6.3598    3.2958    4.9802 C   0  0  0  0  0  0  0  0  0  0  0  0
   -4.8638    3.0500    4.8765 C   0  0  0  0  0  0  0  0  0  0  0  0
  -10.0071   -2.9078    3.2182 C   0  0  0  0  0  0  0  0  0  0  0  0
   -6.6779   -5.2857    3.1487 C   0  0  0  0  0  0  0  0  0  0  0  0
  1 14  1  0  0  0  0
  1  2  2  0  0  0  0
  3  2  1  0  0  0  0
  3  8  2  0  0  0  0
  4  3  1  0  0  0  0
  5  7  2  0  0  0  0
  5  4  1  0  0  0  0
  6  5  1  0  0  0  0
  7  1  1  0  0  0  0
  9 10  1  0  0  0  0
  9  8  1  0  0  0  0
 11  9  2  0  0  0  0
 12 11  1  0  0  0  0
 13  4  2  0  0  0  0
 13 11  1  0  0  0  0
 14 15  1  0  0  0  0
 16 15  1  0  0  0  0
 17 16  1  0  0  0  0
 18 17  1  0  0  0  0
 18 19  1  0  0  0  0
 19 14  1  0  0  0  0
 20 10  1  0  0  0  0
 21 12  1  0  0  0  0
M  END
>  <CHROM.1>
56.01897795,-87.16662475,-95.33180118,-6.09107853,-0.60203027,4.06554671
-1.28206733,-0.09466455,-2.64405437

>  <Name>
lig.pdb

>  <RI>
1.4775e+07

>  <Rbt.Current_Directory>
/home/itssahil/PROJECTS/Mol_Feturizer/New_Systems/rnas/2lwk

>  <Rbt.Executable>
rbdock ($Id: //depot/dev/client3/rdock/2013.1/src/exe/rbdock.cxx#4 $)

>  <Rbt.Library>
libRbt.so (2013.1, Build901 2013/11/27)

>  <Rbt.Parameter_File>
/export/apps/rDock/src/rDock_2013.1_src/data/scripts/dock_solv.prm

>  <Rbt.Receptor>
prm/pocket_docking_4.prm

>  <SCORE>
-20.093

>  <SCORE.INTER>
-15.0361

>  <SCORE.INTER.CONST>
1

>  <SCORE.INTER.POLAR>
-2.80283

>  <SCORE.INTER.ROT>
3

>  <SCORE.INTER.SOLV>
5.34285

>  <SCORE.INTER.VDW>
-8.06223

>  <SCORE.INTER.norm>
-0.716004

>  <SCORE.INTRA>
-5.05695

>  <SCORE.INTRA.DIHEDRAL>
0.650766

>  <SCORE.INTRA.DIHEDRAL.0>
8.84257

>  <SCORE.INTRA.POLAR>
0

>  <SCORE.INTRA.POLAR.0>
0

>  <SCORE.INTRA.REPUL>
0

>  <SCORE.INTRA.REPUL.0>
0

>  <SCORE.INTRA.SOLV>
0.0781018

>  <SCORE.INTRA.SOLV.lig_0>
-17.1313

>  <SCORE.INTRA.VDW>
-5.42138

>  <SCORE.INTRA.VDW.0>
6.34071

>  <SCORE.INTRA.norm>
-0.240807

>  <SCORE.RESTR>
0

>  <SCORE.RESTR.CAVITY>
0

>  <SCORE.RESTR.norm>
0

>  <SCORE.SYSTEM>
0

>  <SCORE.SYSTEM.CONST>
0

>  <SCORE.SYSTEM.DIHEDRAL>
0

>  <SCORE.SYSTEM.SOLV>
0

>  <SCORE.SYSTEM.norm>
0

>  <SCORE.heavy>
21

>  <SCORE.norm>
-0.956811

>  <RMSD>
2.727

$$$$
lig.pdb
 OpenBabel11021811453D
libRbt.so/2013.1/901 2013/11/27
 21 23  0  0  0  0  0  0  0  0999 V2000
   -7.0038    2.0334    4.0923 C   0  0  0  0  0  0  0  0  0  0  0  0
   -8.2083    1.5824    3.7605 N   0  0  0  0  0  0  0  0  0  0  0  0
   -8.7203    0.5410    4.3916 C   0  0  0  0  0  0  0  0  0  0  0  0
   -7.9909   -0.1049    5.3238 C   0  0  0  0  0  0  0  0  0  0  0  0
   -6.7780    0.3551    5.6583 C   0  0  0  0  0  0  0  0  0  0  0  0
   -6.0481   -0.2798    6.5747 N   0  0  0  0  0  0  0  0  0  0  0  0
   -6.2878    1.4232    5.0375 N   0  0  0  0  0  0  0  0  0  0  0  0
   -9.9488    0.1054    4.0662 C   0  0  0  0  0  0  0  0  0  0  0  0
  -10.3981   -1.0745    4.5936 C   0  0  0  0  0  0  0  0  0  0  0  0
  -11.1349   -1.9359    3.7461 O   0  0  0  0  0  0  0  0  0  0  0  0
   -9.7491   -1.5900    5.6507 C   0  0  0  0  0  0  0  0  0  0  0  0
  -10.4128   -2.5127    6.5029 O   0  0  0  0  0  0  0  0  0  0  0  0
   -8.5022   -1.1749    5.9485 C   0  0  0  0  0  0  0  0  0  0  0  0
   -6.5081    3.0862    3.4653 N   0  0  0  0  0  0  0  0  0  0  0  0
   -5.7994    2.8409    2.3591 C   0  0  0  0  0  0  0  0  0  0  0  0
   -4.3937    2.3924    2.7289 C   0  0  0  0  0  0  0  0  0  0  0  0
   -3.7608    3.3912    3.4396 N   0  0  0  0  0  0  0  0  0  0  0  0
   -4.4884    3.5944    4.5918 C   0  0  0  0  0  0  0  0  0  0  0  0
   -5.8920    4.0471    4.2257 C   0  0  0  0  0  0  0  0  0  0  0  0
  -10.2272   -2.6035    2.9073 C   0  0  0  0  0  0  0  0  0  0  0  0
  -10.0875   -3.8161    6.0961 C   0  0  0  0  0  0  0  0  0  0  0  0
  1 14  1  0  0  0  0
  1  2  2  0  0  0  0
  3  2  1  0  0  0  0
  3  8  2  0  0  0  0
  4  3  1  0  0  0  0
  5  7  2  0  0  0  0
  5  4  1  0  0  0  0
  6  5  1  0  0  0  0
  7  1  1  0  0  0  0
  9 10  1  0  0  0  0
  9  8  1  0  0  0  0
 11  9  2  0  0  0  0
 12 11  1  0  0  0  0
 13  4  2  0  0  0  0
 13 11  1  0  0  0  0
 14 15  1  0  0  0  0
 16 15  1  0  0  0  0
 17 16  1  0  0  0  0
 18 17  1  0  0  0  0
 18 19  1  0  0  0  0
 19 14  1  0  0  0  0
 20 10  1  0  0  0  0
 21 12  1  0  0  0  0
M  END
>  <CHROM.1>
-89.46112747,77.86945386,95.66405806,-7.72069610,0.45966335,4.52958937,0.61504246
-0.58821511,-0.92202818

>  <Name>
lig.pdb

>  <RI>
3.31914e+07

>  <Rbt.Current_Directory>
/home/itssahil/PROJECTS/Mol_Feturizer/New_Systems/rnas/2lwk

>  <Rbt.Executable>
rbdock ($Id: //depot/dev/client3/rdock/2013.1/src/exe/rbdock.cxx#4 $)

>  <Rbt.Library>
libRbt.so (2013.1, Build901 2013/11/27)

>  <Rbt.Parameter_File>
/export/apps/rDock/src/rDock_2013.1_src/data/scripts/dock_solv.prm

>  <Rbt.Receptor>
prm/pocket_docking_3.prm

>  <SCORE>
-8.98923

>  <SCORE.INTER>
-5.31742

>  <SCORE.INTER.CONST>
1

>  <SCORE.INTER.POLAR>
-0.62604

>  <SCORE.INTER.ROT>
3

>  <SCORE.INTER.SOLV>
5.19099

>  <SCORE.INTER.VDW>
-8.78847

>  <SCORE.INTER.norm>
-0.25321

>  <SCORE.INTRA>
-3.67185

>  <SCORE.INTRA.DIHEDRAL>
1.00632

>  <SCORE.INTRA.DIHEDRAL.0>
8.84257

>  <SCORE.INTRA.POLAR>
0

>  <SCORE.INTRA.POLAR.0>
0

>  <SCORE.INTRA.REPUL>
0

>  <SCORE.INTRA.REPUL.0>
0

>  <SCORE.INTRA.SOLV>
0.0886414

>  <SCORE.INTRA.SOLV.lig_0>
-17.1313

>  <SCORE.INTRA.VDW>
-4.21933

>  <SCORE.INTRA.VDW.0>
6.34071

>  <SCORE.INTRA.norm>
-0.17485

>  <SCORE.RESTR>
3.05356e-05

>  <SCORE.RESTR.CAVITY>
3.05356e-05

>  <SCORE.RESTR.norm>
1.45408e-06

>  <SCORE.SYSTEM>
0

>  <SCORE.SYSTEM.CONST>
0

>  <SCORE.SYSTEM.DIHEDRAL>
0

>  <SCORE.SYSTEM.SOLV>
0

>  <SCORE.SYSTEM.norm>
0

>  <SCORE.heavy>
21

>  <SCORE.norm>
-0.428059

>  <RMSD>
2.728

$$$$
lig.pdb
 OpenBabel11021811453D
libRbt.so/2013.1/901 2013/11/27
 21 23  0  0  0  0  0  0  0  0999 V2000
   -6.1597    2.5621    4.8258 C   0  0  0  0  0  0  0  0  0  0  0  0
   -7.3022    1.8993    4.9659 N   0  0  0  0  0  0  0  0  0  0  0  0
   -7.4102    0.6654    4.5068 C   0  0  0  0  0  0  0  0  0  0  0  0
   -6.3833    0.1060    3.8356 C   0  0  0  0  0  0  0  0  0  0  0  0
   -5.2313    0.7762    3.6995 C   0  0  0  0  0  0  0  0  0  0  0  0
   -4.2131    0.2332    3.0332 N   0  0  0  0  0  0  0  0  0  0  0  0
   -5.1255    2.0052    4.1941 N   0  0  0  0  0  0  0  0  0  0  0  0
   -8.5615   -0.0067    4.6732 C   0  0  0  0  0  0  0  0  0  0  0  0
   -8.7274   -1.2094    4.0422 C   0  0  0  0  0  0  0  0  0  0  0  0
   -9.9967   -1.4891    3.4821 O   0  0  0  0  0  0  0  0  0  0  0  0
   -7.6413   -1.8278    3.5501 C   0  0  0  0  0  0  0  0  0  0  0  0
   -7.6730   -3.2292    3.3193 O   0  0  0  0  0  0  0  0  0  0  0  0
   -6.5010   -1.1381    3.3507 C   0  0  0  0  0  0  0  0  0  0  0  0
   -6.0575    3.7903    5.3035 N   0  0  0  0  0  0  0  0  0  0  0  0
   -5.5747    4.7154    4.4684 C   0  0  0  0  0  0  0  0  0  0  0  0
   -4.0588    4.6119    4.3954 C   0  0  0  0  0  0  0  0  0  0  0  0
   -3.5189    4.8293    5.6461 N   0  0  0  0  0  0  0  0  0  0  0  0
   -4.0003    3.8394    6.4748 C   0  0  0  0  0  0  0  0  0  0  0  0
   -5.5143    3.9432    6.5535 C   0  0  0  0  0  0  0  0  0  0  0  0
  -10.8022   -2.0513    4.4862 C   0  0  0  0  0  0  0  0  0  0  0  0
   -7.4074   -3.8911    4.5283 C   0  0  0  0  0  0  0  0  0  0  0  0
  1 14  1  0  0  0  0
  1  2  2  0  0  0  0
  3  2  1  0  0  0  0
  3  8  2  0  0  0  0
  4  3  1  0  0  0  0
  5  7  2  0  0  0  0
  5  4  1  0  0  0  0
  6  5  1  0  0  0  0
  7  1  1  0  0  0  0
  9 10  1  0  0  0  0
  9  8  1  0  0  0  0
 11  9  2  0  0  0  0
 12 11  1  0  0  0  0
 13  4  2  0  0  0  0
 13 11  1  0  0  0  0
 14 15  1  0  0  0  0
 16 15  1  0  0  0  0
 17 16  1  0  0  0  0
 18 17  1  0  0  0  0
 18 19  1  0  0  0  0
 19 14  1  0  0  0  0
 20 10  1  0  0  0  0
 21 12  1  0  0  0  0
M  END
>  <CHROM.1>
-130.17834191,-86.41138851,-82.69542366,-6.56224513,0.89069311,4.44288547
1.00650259,0.21523445,0.35273944

>  <Name>
lig.pdb

>  <RI>
1.4775e+07

>  <Rbt.Current_Directory>
/home/itssahil/PROJECTS/Mol_Feturizer/New_Systems/rnas/2lwk

>  <Rbt.Executable>
rbdock ($Id: //depot/dev/client3/rdock/2013.1/src/exe/rbdock.cxx#4 $)

>  <Rbt.Library>
libRbt.so (2013.1, Build901 2013/11/27)

>  <Rbt.Parameter_File>
/export/apps/rDock/src/rDock_2013.1_src/data/scripts/dock_solv.prm

>  <Rbt.Receptor>
prm/pocket_docking_4.prm

>  <SCORE>
-20.1423

>  <SCORE.INTER>
-15.1283

>  <SCORE.INTER.CONST>
1

>  <SCORE.INTER.POLAR>
-2.34207

>  <SCORE.INTER.ROT>
3

>  <SCORE.INTER.SOLV>
6.43384

>  <SCORE.INTER.VDW>
-10.0233

>  <SCORE.INTER.norm>
-0.720397

>  <SCORE.INTRA>
-5.01397

>  <SCORE.INTRA.DIHEDRAL>
0.64329

>  <SCORE.INTRA.DIHEDRAL.0>
8.84257

>  <SCORE.INTRA.POLAR>
0

>  <SCORE.INTRA.POLAR.0>
0

>  <SCORE.INTRA.REPUL>
0

>  <SCORE.INTRA.REPUL.0>
0

>  <SCORE.INTRA.SOLV>
0.0770565

>  <SCORE.INTRA.SOLV.lig_0>
-17.1313

>  <SCORE.INTRA.VDW>
-5.37414

>  <SCORE.INTRA.VDW.0>
6.34071

>  <SCORE.INTRA.norm>
-0.23876

>  <SCORE.RESTR>
0

>  <SCORE.RESTR.CAVITY>
0

>  <SCORE.RESTR.norm>
0

>  <SCORE.SYSTEM>
0

>  <SCORE.SYSTEM.CONST>
0

>  <SCORE.SYSTEM.DIHEDRAL>
0

>  <SCORE.SYSTEM.SOLV>
0

>  <SCORE.SYSTEM.norm>
0

>  <SCORE.heavy>
21

>  <SCORE.norm>
-0.959157

>  <RMSD>
2.768

$$$$
lig.pdb
 OpenBabel11021811453D
libRbt.so/2013.1/901 2013/11/27
 21 23  0  0  0  0  0  0  0  0999 V2000
   -6.1495    2.5870    4.8422 C   0  0  0  0  0  0  0  0  0  0  0  0
   -7.2774    1.9105    5.0280 N   0  0  0  0  0  0  0  0  0  0  0  0
   -7.3873    0.6737    4.5773 C   0  0  0  0  0  0  0  0  0  0  0  0
   -6.3798    0.1247    3.8690 C   0  0  0  0  0  0  0  0  0  0  0  0
   -5.2424    0.8088    3.6868 C   0  0  0  0  0  0  0  0  0  0  0  0
   -4.2436    0.2761    2.9837 N   0  0  0  0  0  0  0  0  0  0  0  0
   -5.1333    2.0408    4.1731 N   0  0  0  0  0  0  0  0  0  0  0  0
   -8.5227   -0.0121    4.7898 C   0  0  0  0  0  0  0  0  0  0  0  0
   -8.6975   -1.2191    4.1694 C   0  0  0  0  0  0  0  0  0  0  0  0
   -9.9837   -1.5167    3.6592 O   0  0  0  0  0  0  0  0  0  0  0  0
   -7.6232   -1.8256    3.6380 C   0  0  0  0  0  0  0  0  0  0  0  0
   -7.6461   -3.2282    3.4130 O   0  0  0  0  0  0  0  0  0  0  0  0
   -6.5002   -1.1225    3.3930 C   0  0  0  0  0  0  0  0  0  0  0  0
   -6.0447    3.8182    5.3118 N   0  0  0  0  0  0  0  0  0  0  0  0
   -5.5652    4.7378    4.4687 C   0  0  0  0  0  0  0  0  0  0  0  0
   -4.0497    4.6331    4.3895 C   0  0  0  0  0  0  0  0  0  0  0  0
   -3.5041    4.8581    5.6364 N   0  0  0  0  0  0  0  0  0  0  0  0
   -3.9821    3.8736    6.4734 C   0  0  0  0  0  0  0  0  0  0  0  0
   -5.4957    3.9786    6.5583 C   0  0  0  0  0  0  0  0  0  0  0  0
  -10.7358   -2.1057    4.6890 C   0  0  0  0  0  0  0  0  0  0  0  0
   -7.4419   -3.8843    4.6370 C   0  0  0  0  0  0  0  0  0  0  0  0
  1 14  1  0  0  0  0
  1  2  2  0  0  0  0
  3  2  1  0  0  0  0
  3  8  2  0  0  0  0
  4  3  1  0  0  0  0
  5  7  2  0  0  0  0
  5  4  1  0  0  0  0
  6  5  1  0  0  0  0
  7  1  1  0  0  0  0
  9 10  1  0  0  0  0
  9  8  1  0  0  0  0
 11  9  2  0  0  0  0
 12 11  1  0  0  0  0
 13  4  2  0  0  0  0
 13 11  1  0  0  0  0
 14 15  1  0  0  0  0
 16 15  1  0  0  0  0
 17 16  1  0  0  0  0
 18 17  1  0  0  0  0
 18 19  1  0  0  0  0
 19 14  1  0  0  0  0
 20 10  1  0  0  0  0
 21 12  1  0  0  0  0
M  END
>  <CHROM.1>
-132.25917830,-87.37861599,-77.59700444,-6.55038905,0.90341826,4.49352217
1.00112451,0.26372430,0.36144737

>  <Name>
lig.pdb

>  <RI>
1.4775e+07

>  <Rbt.Current_Directory>
/home/itssahil/PROJECTS/Mol_Feturizer/New_Systems/rnas/2lwk

>  <Rbt.Executable>
rbdock ($Id: //depot/dev/client3/rdock/2013.1/src/exe/rbdock.cxx#4 $)

>  <Rbt.Library>
libRbt.so (2013.1, Build901 2013/11/27)

>  <Rbt.Parameter_File>
/export/apps/rDock/src/rDock_2013.1_src/data/scripts/dock_solv.prm

>  <Rbt.Receptor>
prm/pocket_docking_4.prm

>  <SCORE>
-20.0946

>  <SCORE.INTER>
-15.1483

>  <SCORE.INTER.CONST>
1

>  <SCORE.INTER.POLAR>
-2.3732

>  <SCORE.INTER.ROT>
3

>  <SCORE.INTER.SOLV>
6.22509

>  <SCORE.INTER.VDW>
-9.86324

>  <SCORE.INTER.norm>
-0.721349

>  <SCORE.INTRA>
-4.94625

>  <SCORE.INTRA.DIHEDRAL>
0.564607

>  <SCORE.INTRA.DIHEDRAL.0>
8.84257

>  <SCORE.INTRA.POLAR>
0

>  <SCORE.INTRA.POLAR.0>
0

>  <SCORE.INTRA.REPUL>
0

>  <SCORE.INTRA.REPUL.0>
0

>  <SCORE.INTRA.SOLV>
0.0802751

>  <SCORE.INTRA.SOLV.lig_0>
-17.1313

>  <SCORE.INTRA.VDW>
-5.26869

>  <SCORE.INTRA.VDW.0>
6.34071

>  <SCORE.INTRA.norm>
-0.235536

>  <SCORE.RESTR>
0

>  <SCORE.RESTR.CAVITY>
0

>  <SCORE.RESTR.norm>
0

>  <SCORE.SYSTEM>
0

>  <SCORE.SYSTEM.CONST>
0

>  <SCORE.SYSTEM.DIHEDRAL>
0

>  <SCORE.SYSTEM.SOLV>
0

>  <SCORE.SYSTEM.norm>
0

>  <SCORE.heavy>
21

>  <SCORE.norm>
-0.956885

>  <RMSD>
2.783

$$$$
lig.pdb
 OpenBabel11021811453D
libRbt.so/2013.1/901 2013/11/27
 21 23  0  0  0  0  0  0  0  0999 V2000
   -6.9360    0.3751    4.7994 C   0  0  0  0  0  0  0  0  0  0  0  0
   -7.0092   -0.6784    3.9937 N   0  0  0  0  0  0  0  0  0  0  0  0
   -8.0968   -1.4280    3.9844 C   0  0  0  0  0  0  0  0  0  0  0  0
   -9.1027   -1.1633    4.8424 C   0  0  0  0  0  0  0  0  0  0  0  0
   -9.0267   -0.0978    5.6509 C   0  0  0  0  0  0  0  0  0  0  0  0
  -10.0138    0.1684    6.5055 N   0  0  0  0  0  0  0  0  0  0  0  0
   -7.9399    0.6668    5.6275 N   0  0  0  0  0  0  0  0  0  0  0  0
   -8.1724   -2.4781    3.1498 C   0  0  0  0  0  0  0  0  0  0  0  0
   -9.2192   -3.3509    3.2711 C   0  0  0  0  0  0  0  0  0  0  0  0
   -8.9462   -4.7312    3.1185 O   0  0  0  0  0  0  0  0  0  0  0  0
  -10.2907   -2.9679    3.9849 C   0  0  0  0  0  0  0  0  0  0  0  0
  -11.5447   -3.5985    3.7656 O   0  0  0  0  0  0  0  0  0  0  0  0
  -10.1970   -1.9374    4.8479 C   0  0  0  0  0  0  0  0  0  0  0  0
   -5.8495    1.1279    4.7886 N   0  0  0  0  0  0  0  0  0  0  0  0
   -5.4141    1.5613    5.9755 C   0  0  0  0  0  0  0  0  0  0  0  0
   -6.2420    2.7533    6.4313 C   0  0  0  0  0  0  0  0  0  0  0  0
   -6.1162    3.7806    5.5191 N   0  0  0  0  0  0  0  0  0  0  0  0
   -6.6093    3.3205    4.3176 C   0  0  0  0  0  0  0  0  0  0  0  0
   -5.7812    2.1324    3.8573 C   0  0  0  0  0  0  0  0  0  0  0  0
   -8.8016   -5.2913    4.3985 C   0  0  0  0  0  0  0  0  0  0  0  0
  -12.0081   -4.1163    4.9852 C   0  0  0  0  0  0  0  0  0  0  0  0
  1 14  1  0  0  0  0
  1  2  2  0  0  0  0
  3  2  1  0  0  0  0
  3  8  2  0  0  0  0
  4  3  1  0  0  0  0
  5  7  2  0  0  0  0
  5  4  1  0  0  0  0
  6  5  1  0  0  0  0
  7  1  1  0  0  0  0
  9 10  1  0  0  0  0
  9  8  1  0  0  0  0
 11  9  2  0  0  0  0
 12 11  1  0  0  0  0
 13  4  2  0  0  0  0
 13 11  1  0  0  0  0
 14 15  1  0  0  0  0
 16 15  1  0  0  0  0
 17 16  1  0  0  0  0
 18 17  1  0  0  0  0
 18 19  1  0  0  0  0
 19 14  1  0  0  0  0
 20 10  1  0  0  0  0
 21 12  1  0  0  0  0
M  END
>  <CHROM.1>
-139.73097555,97.65140861,124.06835891,-8.27165368,-0.77080643,4.67381690
-0.95501472,-0.42180147,-2.66948043

>  <Name>
lig.pdb

>  <RI>
2.6678e+07

>  <Rbt.Current_Directory>
/home/itssahil/PROJECTS/Mol_Feturizer/New_Systems/rnas/2lwk

>  <Rbt.Executable>
rbdock ($Id: //depot/dev/client3/rdock/2013.1/src/exe/rbdock.cxx#4 $)

>  <Rbt.Library>
libRbt.so (2013.1, Build901 2013/11/27)

>  <Rbt.Parameter_File>
/export/apps/rDock/src/rDock_2013.1_src/data/scripts/dock_solv.prm

>  <Rbt.Receptor>
prm/pocket_docking_2.prm

>  <SCORE>
-19.9917

>  <SCORE.INTER>
-19.1913

>  <SCORE.INTER.CONST>
1

>  <SCORE.INTER.POLAR>
-2.87089

>  <SCORE.INTER.ROT>
3

>  <SCORE.INTER.SOLV>
6.93182

>  <SCORE.INTER.VDW>
-11.1351

>  <SCORE.INTER.norm>
-0.913869

>  <SCORE.INTRA>
-2.29784

>  <SCORE.INTRA.DIHEDRAL>
-0.850037

>  <SCORE.INTRA.DIHEDRAL.0>
8.84257

>  <SCORE.INTRA.POLAR>
0

>  <SCORE.INTRA.POLAR.0>
0

>  <SCORE.INTRA.REPUL>
0

>  <SCORE.INTRA.REPUL.0>
0

>  <SCORE.INTRA.SOLV>
0.0768252

>  <SCORE.INTRA.SOLV.lig_0>
-17.1313

>  <SCORE.INTRA.VDW>
-1.91123

>  <SCORE.INTRA.VDW.0>
6.34071

>  <SCORE.INTRA.norm>
-0.109421

>  <SCORE.RESTR>
1.49739

>  <SCORE.RESTR.CAVITY>
1.49739

>  <SCORE.RESTR.norm>
0.0713041

>  <SCORE.SYSTEM>
0

>  <SCORE.SYSTEM.CONST>
0

>  <SCORE.SYSTEM.DIHEDRAL>
0

>  <SCORE.SYSTEM.SOLV>
0

>  <SCORE.SYSTEM.norm>
0

>  <SCORE.heavy>
21

>  <SCORE.norm>
-0.951986

>  <RMSD>
2.807

$$$$
lig.pdb
 OpenBabel11021811453D
libRbt.so/2013.1/901 2013/11/27
 21 23  0  0  0  0  0  0  0  0999 V2000
   -6.6919    0.4911    5.0599 C   0  0  0  0  0  0  0  0  0  0  0  0
   -6.7375   -0.5229    4.2031 N   0  0  0  0  0  0  0  0  0  0  0  0
   -7.8175   -1.2802    4.1334 C   0  0  0  0  0  0  0  0  0  0  0  0
   -8.8446   -1.0654    4.9803 C   0  0  0  0  0  0  0  0  0  0  0  0
   -8.7964   -0.0395    5.8405 C   0  0  0  0  0  0  0  0  0  0  0  0
   -9.8045    0.1771    6.6845 N   0  0  0  0  0  0  0  0  0  0  0  0
   -7.7165    0.7342    5.8783 N   0  0  0  0  0  0  0  0  0  0  0  0
   -7.8650   -2.2893    3.2479 C   0  0  0  0  0  0  0  0  0  0  0  0
   -8.9060   -3.1756    3.3036 C   0  0  0  0  0  0  0  0  0  0  0  0
   -8.6168   -4.5446    3.0910 O   0  0  0  0  0  0  0  0  0  0  0  0
   -9.9966   -2.8363    4.0107 C   0  0  0  0  0  0  0  0  0  0  0  0
  -11.2395   -3.4659    3.7332 O   0  0  0  0  0  0  0  0  0  0  0  0
   -9.9315   -1.8479    4.9240 C   0  0  0  0  0  0  0  0  0  0  0  0
   -5.6125    1.2525    5.1097 N   0  0  0  0  0  0  0  0  0  0  0  0
   -5.2982    1.7617    6.3047 C   0  0  0  0  0  0  0  0  0  0  0  0
   -6.1715    2.9711    6.6024 C   0  0  0  0  0  0  0  0  0  0  0  0
   -5.9600    3.9420    5.6455 N   0  0  0  0  0  0  0  0  0  0  0  0
   -6.3302    3.4047    4.4320 C   0  0  0  0  0  0  0  0  0  0  0  0
   -5.4562    2.1989    4.1295 C   0  0  0  0  0  0  0  0  0  0  0  0
   -8.0730   -5.0648    4.2771 C   0  0  0  0  0  0  0  0  0  0  0  0
  -11.4984   -4.4134    4.7360 C   0  0  0  0  0  0  0  0  0  0  0  0
  1 14  1  0  0  0  0
  1  2  2  0  0  0  0
  3  2  1  0  0  0  0
  3  8  2  0  0  0  0
  4  3  1  0  0  0  0
  5  7  2  0  0  0  0
  5  4  1  0  0  0  0
  6  5  1  0  0  0  0
  7  1  1  0  0  0  0
  9 10  1  0  0  0  0
  9  8  1  0  0  0  0
 11  9  2  0  0  0  0
 12 11  1  0  0  0  0
 13  4  2  0  0  0  0
 13 11  1  0  0  0  0
 14 15  1  0  0  0  0
 16 15  1  0  0  0  0
 17 16  1  0  0  0  0
 18 17  1  0  0  0  0
 18 19  1  0  0  0  0
 19 14  1  0  0  0  0
 20 10  1  0  0  0  0
 21 12  1  0  0  0  0
M  END
>  <CHROM.1>
-147.39013349,78.71634768,103.80169585,-7.98583786,-0.66097511,4.78953978
-0.99094148,-0.41151310,-2.65468111

>  <Name>
lig.pdb

>  <RI>
1.4775e+07

>  <Rbt.Current_Directory>
/home/itssahil/PROJECTS/Mol_Feturizer/New_Systems/rnas/2lwk

>  <Rbt.Executable>
rbdock ($Id: //depot/dev/client3/rdock/2013.1/src/exe/rbdock.cxx#4 $)

>  <Rbt.Library>
libRbt.so (2013.1, Build901 2013/11/27)

>  <Rbt.Parameter_File>
/export/apps/rDock/src/rDock_2013.1_src/data/scripts/dock_solv.prm

>  <Rbt.Receptor>
prm/pocket_docking_4.prm

>  <SCORE>
-23.6979

>  <SCORE.INTER>
-20.6721

>  <SCORE.INTER.CONST>
1

>  <SCORE.INTER.POLAR>
-3.10148

>  <SCORE.INTER.ROT>
3

>  <SCORE.INTER.SOLV>
6.45525

>  <SCORE.INTER.VDW>
-11.1949

>  <SCORE.INTER.norm>
-0.984385

>  <SCORE.INTRA>
-3.02586

>  <SCORE.INTRA.DIHEDRAL>
0.804667

>  <SCORE.INTRA.DIHEDRAL.0>
8.84257

>  <SCORE.INTRA.POLAR>
0

>  <SCORE.INTRA.POLAR.0>
0

>  <SCORE.INTRA.REPUL>
0

>  <SCORE.INTRA.REPUL.0>
0

>  <SCORE.INTRA.SOLV>
0.0655084

>  <SCORE.INTRA.SOLV.lig_0>
-17.1313

>  <SCORE.INTRA.VDW>
-3.46095

>  <SCORE.INTRA.VDW.0>
6.34071

>  <SCORE.INTRA.norm>
-0.144089

>  <SCORE.RESTR>
0

>  <SCORE.RESTR.CAVITY>
0

>  <SCORE.RESTR.norm>
0

>  <SCORE.SYSTEM>
0

>  <SCORE.SYSTEM.CONST>
0

>  <SCORE.SYSTEM.DIHEDRAL>
0

>  <SCORE.SYSTEM.SOLV>
0

>  <SCORE.SYSTEM.norm>
0

>  <SCORE.heavy>
21

>  <SCORE.norm>
-1.12847

>  <RMSD>
2.852

$$$$
lig.pdb
 OpenBabel11021811453D
libRbt.so/2013.1/901 2013/11/27
 21 23  0  0  0  0  0  0  0  0999 V2000
   -6.8353    0.4139    5.0426 C   0  0  0  0  0  0  0  0  0  0  0  0
   -6.9578   -0.5886    4.1799 N   0  0  0  0  0  0  0  0  0  0  0  0
   -8.0463   -1.3369    4.1875 C   0  0  0  0  0  0  0  0  0  0  0  0
   -9.0006   -1.1254    5.1164 C   0  0  0  0  0  0  0  0  0  0  0  0
   -8.8752   -0.1110    5.9825 C   0  0  0  0  0  0  0  0  0  0  0  0
   -9.8108    0.1021    6.9071 N   0  0  0  0  0  0  0  0  0  0  0  0
   -7.7892    0.6541    5.9433 N   0  0  0  0  0  0  0  0  0  0  0  0
   -8.1729   -2.3341    3.2963 C   0  0  0  0  0  0  0  0  0  0  0  0
   -9.2136   -3.2132    3.4242 C   0  0  0  0  0  0  0  0  0  0  0  0
   -8.9539   -4.5816    3.1725 O   0  0  0  0  0  0  0  0  0  0  0  0
  -10.2413   -2.8751    4.2204 C   0  0  0  0  0  0  0  0  0  0  0  0
  -11.5076   -3.4917    4.0355 O   0  0  0  0  0  0  0  0  0  0  0  0
  -10.0951   -1.8989    5.1377 C   0  0  0  0  0  0  0  0  0  0  0  0
   -5.7490    1.1665    5.0153 N   0  0  0  0  0  0  0  0  0  0  0  0
   -5.3494    1.6773    6.1839 C   0  0  0  0  0  0  0  0  0  0  0  0
   -6.1906    2.8949    6.5359 C   0  0  0  0  0  0  0  0  0  0  0  0
   -6.0375    3.8607    5.5628 N   0  0  0  0  0  0  0  0  0  0  0  0
   -6.4943    3.3222    4.3797 C   0  0  0  0  0  0  0  0  0  0  0  0
   -5.6528    2.1082    4.0229 C   0  0  0  0  0  0  0  0  0  0  0  0
   -8.4087   -5.1438    4.3386 C   0  0  0  0  0  0  0  0  0  0  0  0
  -11.7024   -4.4357    5.0560 C   0  0  0  0  0  0  0  0  0  0  0  0
  1 14  1  0  0  0  0
  1  2  2  0  0  0  0
  3  2  1  0  0  0  0
  3  8  2  0  0  0  0
  4  3  1  0  0  0  0
  5  7  2  0  0  0  0
  5  4  1  0  0  0  0
  6  5  1  0  0  0  0
  7  1  1  0  0  0  0
  9 10  1  0  0  0  0
  9  8  1  0  0  0  0
 11  9  2  0  0  0  0
 12 11  1  0  0  0  0
 13  4  2  0  0  0  0
 13 11  1  0  0  0  0
 14 15  1  0  0  0  0
 16 15  1  0  0  0  0
 17 16  1  0  0  0  0
 18 17  1  0  0  0  0
 18 19  1  0  0  0  0
 19 14  1  0  0  0  0
 20 10  1  0  0  0  0
 21 12  1  0  0  0  0
M  END
>  <CHROM.1>
-148.53037019,82.84750865,104.69355034,-8.16254461,-0.72402750,4.85786573
-0.93611104,-0.48598529,-2.61801979

>  <Name>
lig.pdb

>  <RI>
3.31914e+07

>  <Rbt.Current_Directory>
/home/itssahil/PROJECTS/Mol_Feturizer/New_Systems/rnas/2lwk

>  <Rbt.Executable>
rbdock ($Id: //depot/dev/client3/rdock/2013.1/src/exe/rbdock.cxx#4 $)

>  <Rbt.Library>
libRbt.so (2013.1, Build901 2013/11/27)

>  <Rbt.Parameter_File>
/export/apps/rDock/src/rDock_2013.1_src/data/scripts/dock_solv.prm

>  <Rbt.Receptor>
prm/pocket_docking_3.prm

>  <SCORE>
-23.3577

>  <SCORE.INTER>
-20.4219

>  <SCORE.INTER.CONST>
1

>  <SCORE.INTER.POLAR>
-3.09382

>  <SCORE.INTER.ROT>
3

>  <SCORE.INTER.SOLV>
6.18832

>  <SCORE.INTER.VDW>
-10.9646

>  <SCORE.INTER.norm>
-0.972472

>  <SCORE.INTRA>
-2.93787

>  <SCORE.INTRA.DIHEDRAL>
0.740987

>  <SCORE.INTRA.DIHEDRAL.0>
8.84257

>  <SCORE.INTRA.POLAR>
0

>  <SCORE.INTRA.POLAR.0>
0

>  <SCORE.INTRA.REPUL>
0

>  <SCORE.INTRA.REPUL.0>
0

>  <SCORE.INTRA.SOLV>
0.0636286

>  <SCORE.INTRA.SOLV.lig_0>
-17.1313

>  <SCORE.INTRA.VDW>
-3.34018

>  <SCORE.INTRA.VDW.0>
6.34071

>  <SCORE.INTRA.norm>
-0.139899

>  <SCORE.RESTR>
0.0021069

>  <SCORE.RESTR.CAVITY>
0.0021069

>  <SCORE.RESTR.norm>
0.000100328

>  <SCORE.SYSTEM>
0

>  <SCORE.SYSTEM.CONST>
0

>  <SCORE.SYSTEM.DIHEDRAL>
0

>  <SCORE.SYSTEM.SOLV>
0

>  <SCORE.SYSTEM.norm>
0

>  <SCORE.heavy>
21

>  <SCORE.norm>
-1.11227

>  <RMSD>
2.870

$$$$
lig.pdb
 OpenBabel11021811453D
libRbt.so/2013.1/901 2013/11/27
 21 23  0  0  0  0  0  0  0  0999 V2000
   -6.8396    0.4073    5.0625 C   0  0  0  0  0  0  0  0  0  0  0  0
   -6.9512   -0.5982    4.2017 N   0  0  0  0  0  0  0  0  0  0  0  0
   -8.0397   -1.3465    4.1981 C   0  0  0  0  0  0  0  0  0  0  0  0
   -9.0056   -1.1319    5.1143 C   0  0  0  0  0  0  0  0  0  0  0  0
   -8.8911   -0.1146    5.9785 C   0  0  0  0  0  0  0  0  0  0  0  0
   -9.8382    0.1016    6.8905 N   0  0  0  0  0  0  0  0  0  0  0  0
   -7.8047    0.6504    5.9502 N   0  0  0  0  0  0  0  0  0  0  0  0
   -8.1551   -2.3467    3.3088 C   0  0  0  0  0  0  0  0  0  0  0  0
   -9.1973   -3.2255    3.4267 C   0  0  0  0  0  0  0  0  0  0  0  0
   -8.9345   -4.5946    3.1828 O   0  0  0  0  0  0  0  0  0  0  0  0
  -10.2349   -2.8846    4.2087 C   0  0  0  0  0  0  0  0  0  0  0  0
  -11.4988   -3.5020    4.0101 O   0  0  0  0  0  0  0  0  0  0  0  0
  -10.1002   -1.9054    5.1245 C   0  0  0  0  0  0  0  0  0  0  0  0
   -5.7530    1.1598    5.0462 N   0  0  0  0  0  0  0  0  0  0  0  0
   -5.3522    1.6518    6.2224 C   0  0  0  0  0  0  0  0  0  0  0  0
   -6.1927    2.8639    6.5945 C   0  0  0  0  0  0  0  0  0  0  0  0
   -6.0401    3.8450    5.6368 N   0  0  0  0  0  0  0  0  0  0  0  0
   -6.4981    3.3256    4.4456 C   0  0  0  0  0  0  0  0  0  0  0  0
   -5.6573    2.1172    4.0689 C   0  0  0  0  0  0  0  0  0  0  0  0
   -8.4053   -5.1532    4.3580 C   0  0  0  0  0  0  0  0  0  0  0  0
  -11.7438   -4.3806    5.0771 C   0  0  0  0  0  0  0  0  0  0  0  0
  1 14  1  0  0  0  0
  1  2  2  0  0  0  0
  3  2  1  0  0  0  0
  3  8  2  0  0  0  0
  4  3  1  0  0  0  0
  5  7  2  0  0  0  0
  5  4  1  0  0  0  0
  6  5  1  0  0  0  0
  7  1  1  0  0  0  0
  9 10  1  0  0  0  0
  9  8  1  0  0  0  0
 11  9  2  0  0  0  0
 12 11  1  0  0  0  0
 13  4  2  0  0  0  0
 13 11  1  0  0  0  0
 14 15  1  0  0  0  0
 16 15  1  0  0  0  0
 17 16  1  0  0  0  0
 18 17  1  0  0  0  0
 18 19  1  0  0  0  0
 19 14  1  0  0  0  0
 20 10  1  0  0  0  0
 21 12  1  0  0  0  0
M  END
>  <CHROM.1>
-147.18433426,82.91216726,108.38462119,-8.16515677,-0.72973548,4.87567772
-0.94230190,-0.47092261,-2.62301402

>  <Name>
lig.pdb

>  <RI>
3.31914e+07

>  <Rbt.Current_Directory>
/home/itssahil/PROJECTS/Mol_Feturizer/New_Systems/rnas/2lwk

>  <Rbt.Executable>
rbdock ($Id: //depot/dev/client3/rdock/2013.1/src/exe/rbdock.cxx#4 $)

>  <Rbt.Library>
libRbt.so (2013.1, Build901 2013/11/27)

>  <Rbt.Parameter_File>
/export/apps/rDock/src/rDock_2013.1_src/data/scripts/dock_solv.prm

>  <Rbt.Receptor>
prm/pocket_docking_3.prm

>  <SCORE>
-23.3946

>  <SCORE.INTER>
-20.4131

>  <SCORE.INTER.CONST>
1

>  <SCORE.INTER.POLAR>
-3.08447

>  <SCORE.INTER.ROT>
3

>  <SCORE.INTER.SOLV>
6.23605

>  <SCORE.INTER.VDW>
-11.0059

>  <SCORE.INTER.norm>
-0.972055

>  <SCORE.INTRA>
-2.98307

>  <SCORE.INTRA.DIHEDRAL>
0.58978

>  <SCORE.INTRA.DIHEDRAL.0>
8.84257

>  <SCORE.INTRA.POLAR>
0

>  <SCORE.INTRA.POLAR.0>
0

>  <SCORE.INTRA.REPUL>
0

>  <SCORE.INTRA.REPUL.0>
0

>  <SCORE.INTRA.SOLV>
0.0632272

>  <SCORE.INTRA.SOLV.lig_0>
-17.1313

>  <SCORE.INTRA.VDW>
-3.30957

>  <SCORE.INTRA.VDW.0>
6.34071

>  <SCORE.INTRA.norm>
-0.142051

>  <SCORE.RESTR>
0.0016257

>  <SCORE.RESTR.CAVITY>
0.0016257

>  <SCORE.RESTR.norm>
7.74142e-05

>  <SCORE.SYSTEM>
0

>  <SCORE.SYSTEM.CONST>
0

>  <SCORE.SYSTEM.DIHEDRAL>
0

>  <SCORE.SYSTEM.SOLV>
0

>  <SCORE.SYSTEM.norm>
0

>  <SCORE.heavy>
21

>  <SCORE.norm>
-1.11403

>  <RMSD>
2.883

$$$$
lig.pdb
 OpenBabel11021811453D
libRbt.so/2013.1/901 2013/11/27
 21 23  0  0  0  0  0  0  0  0999 V2000
   -6.9384    0.5292    5.2173 C   0  0  0  0  0  0  0  0  0  0  0  0
   -6.9748   -0.4617    4.3336 N   0  0  0  0  0  0  0  0  0  0  0  0
   -8.0371   -1.2433    4.2614 C   0  0  0  0  0  0  0  0  0  0  0  0
   -9.0537   -1.0775    5.1317 C   0  0  0  0  0  0  0  0  0  0  0  0
   -9.0150   -0.0747    6.0192 C   0  0  0  0  0  0  0  0  0  0  0  0
  -10.0127    0.0935    6.8863 N   0  0  0  0  0  0  0  0  0  0  0  0
   -7.9537    0.7243    6.0598 N   0  0  0  0  0  0  0  0  0  0  0  0
   -8.0760   -2.2286    3.3491 C   0  0  0  0  0  0  0  0  0  0  0  0
   -9.0940   -3.1416    3.3981 C   0  0  0  0  0  0  0  0  0  0  0  0
   -8.7755   -4.4967    3.1424 O   0  0  0  0  0  0  0  0  0  0  0  0
  -10.1795   -2.8491    4.1332 C   0  0  0  0  0  0  0  0  0  0  0  0
  -11.4115   -3.5015    3.8598 O   0  0  0  0  0  0  0  0  0  0  0  0
  -10.1220   -1.8848    5.0725 C   0  0  0  0  0  0  0  0  0  0  0  0
   -5.8771    1.3155    5.2697 N   0  0  0  0  0  0  0  0  0  0  0  0
   -5.9864    2.5035    4.6674 C   0  0  0  0  0  0  0  0  0  0  0  0
   -5.8023    2.3460    3.1656 C   0  0  0  0  0  0  0  0  0  0  0  0
   -4.5467    1.8383    2.9036 N   0  0  0  0  0  0  0  0  0  0  0  0
   -4.4765    0.5983    3.5003 C   0  0  0  0  0  0  0  0  0  0  0  0
   -4.6554    0.7530    5.0014 C   0  0  0  0  0  0  0  0  0  0  0  0
   -8.2389   -5.0479    4.3178 C   0  0  0  0  0  0  0  0  0  0  0  0
  -11.6299   -4.4814    4.8409 C   0  0  0  0  0  0  0  0  0  0  0  0
  1 14  1  0  0  0  0
  1  2  2  0  0  0  0
  3  2  1  0  0  0  0
  3  8  2  0  0  0  0
  4  3  1  0  0  0  0
  5  7  2  0  0  0  0
  5  4  1  0  0  0  0
  6  5  1  0  0  0  0
  7  1  1  0  0  0  0
  9 10  1  0  0  0  0
  9  8  1  0  0  0  0
 11  9  2  0  0  0  0
 12 11  1  0  0  0  0
 13  4  2  0  0  0  0
 13 11  1  0  0  0  0
 14 15  1  0  0  0  0
 16 15  1  0  0  0  0
 17 16  1  0  0  0  0
 18 17  1  0  0  0  0
 18 19  1  0  0  0  0
 19 14  1  0  0  0  0
 20 10  1  0  0  0  0
 21 12  1  0  0  0  0
M  END
>  <CHROM.1>
100.49566671,80.64574155,103.86217790,-7.95104705,-0.96847269,4.49578024
0.69277734,0.51071454,0.52442256

>  <Name>
lig.pdb

>  <RI>
1.4775e+07

>  <Rbt.Current_Directory>
/home/itssahil/PROJECTS/Mol_Feturizer/New_Systems/rnas/2lwk

>  <Rbt.Executable>
rbdock ($Id: //depot/dev/client3/rdock/2013.1/src/exe/rbdock.cxx#4 $)

>  <Rbt.Library>
libRbt.so (2013.1, Build901 2013/11/27)

>  <Rbt.Parameter_File>
/export/apps/rDock/src/rDock_2013.1_src/data/scripts/dock_solv.prm

>  <Rbt.Receptor>
prm/pocket_docking_4.prm

>  <SCORE>
-16.1412

>  <SCORE.INTER>
-12.746

>  <SCORE.INTER.CONST>
1

>  <SCORE.INTER.POLAR>
-2.05679

>  <SCORE.INTER.ROT>
3

>  <SCORE.INTER.SOLV>
4.71813

>  <SCORE.INTER.VDW>
-8.81406

>  <SCORE.INTER.norm>
-0.606951

>  <SCORE.INTRA>
-3.39527

>  <SCORE.INTRA.DIHEDRAL>
0.792666

>  <SCORE.INTRA.DIHEDRAL.0>
8.84257

>  <SCORE.INTRA.POLAR>
0

>  <SCORE.INTRA.POLAR.0>
0

>  <SCORE.INTRA.REPUL>
0

>  <SCORE.INTRA.REPUL.0>
0

>  <SCORE.INTRA.SOLV>
0.0688497

>  <SCORE.INTRA.SOLV.lig_0>
-17.1313

>  <SCORE.INTRA.VDW>
-3.82603

>  <SCORE.INTRA.VDW.0>
6.34071

>  <SCORE.INTRA.norm>
-0.161679

>  <SCORE.RESTR>
0

>  <SCORE.RESTR.CAVITY>
0

>  <SCORE.RESTR.norm>
0

>  <SCORE.SYSTEM>
0

>  <SCORE.SYSTEM.CONST>
0

>  <SCORE.SYSTEM.DIHEDRAL>
0

>  <SCORE.SYSTEM.SOLV>
0

>  <SCORE.SYSTEM.norm>
0

>  <SCORE.heavy>
21

>  <SCORE.norm>
-0.76863

>  <RMSD>
2.914

$$$$
lig.pdb
 OpenBabel11021811453D
libRbt.so/2013.1/901 2013/11/27
 21 23  0  0  0  0  0  0  0  0999 V2000
   -5.6861    1.8140    6.0102 C   0  0  0  0  0  0  0  0  0  0  0  0
   -6.1462    0.7040    6.5764 N   0  0  0  0  0  0  0  0  0  0  0  0
   -7.1278    0.0295    6.0052 C   0  0  0  0  0  0  0  0  0  0  0  0
   -7.7077    0.5062    4.8851 C   0  0  0  0  0  0  0  0  0  0  0  0
   -7.2386    1.6241    4.3150 C   0  0  0  0  0  0  0  0  0  0  0  0
   -7.8088    2.1051    3.2109 N   0  0  0  0  0  0  0  0  0  0  0  0
   -6.2292    2.2759    4.8831 N   0  0  0  0  0  0  0  0  0  0  0  0
   -7.5717   -1.1048    6.5718 C   0  0  0  0  0  0  0  0  0  0  0  0
   -8.7005   -1.6989    6.0767 C   0  0  0  0  0  0  0  0  0  0  0  0
   -9.6163   -2.2485    7.0053 O   0  0  0  0  0  0  0  0  0  0  0  0
   -9.1394   -1.3250    4.8635 C   0  0  0  0  0  0  0  0  0  0  0  0
   -9.9834   -2.1940    4.1215 O   0  0  0  0  0  0  0  0  0  0  0  0
   -8.7184   -0.1671    4.3179 C   0  0  0  0  0  0  0  0  0  0  0  0
   -4.6925    2.4721    6.5819 N   0  0  0  0  0  0  0  0  0  0  0  0
   -5.0137    3.6082    7.2084 C   0  0  0  0  0  0  0  0  0  0  0  0
   -5.1831    4.7317    6.1970 C   0  0  0  0  0  0  0  0  0  0  0  0
   -3.9975    4.9277    5.5195 N   0  0  0  0  0  0  0  0  0  0  0  0
   -3.7124    3.7570    4.8513 C   0  0  0  0  0  0  0  0  0  0  0  0
   -3.5379    2.6335    5.8595 C   0  0  0  0  0  0  0  0  0  0  0  0
  -10.4551   -1.2151    7.4544 C   0  0  0  0  0  0  0  0  0  0  0  0
   -9.1917   -2.9476    3.2409 C   0  0  0  0  0  0  0  0  0  0  0  0
  1 14  1  0  0  0  0
  1  2  2  0  0  0  0
  3  2  1  0  0  0  0
  3  8  2  0  0  0  0
  4  3  1  0  0  0  0
  5  7  2  0  0  0  0
  5  4  1  0  0  0  0
  6  5  1  0  0  0  0
  7  1  1  0  0  0  0
  9 10  1  0  0  0  0
  9  8  1  0  0  0  0
 11  9  2  0  0  0  0
 12 11  1  0  0  0  0
 13  4  2  0  0  0  0
 13 11  1  0  0  0  0
 14 15  1  0  0  0  0
 16 15  1  0  0  0  0
 17 16  1  0  0  0  0
 18 17  1  0  0  0  0
 18 19  1  0  0  0  0
 19 14  1  0  0  0  0
 20 10  1  0  0  0  0
 21 12  1  0  0  0  0
M  END
>  <CHROM.1>
-105.48948901,84.07669589,-95.14296267,-7.04143531,0.87350444,5.50135419
-0.10900308,0.83968766,1.81008240

>  <Name>
lig.pdb

>  <RI>
1.4775e+07

>  <Rbt.Current_Directory>
/home/itssahil/PROJECTS/Mol_Feturizer/New_Systems/rnas/2lwk

>  <Rbt.Executable>
rbdock ($Id: //depot/dev/client3/rdock/2013.1/src/exe/rbdock.cxx#4 $)

>  <Rbt.Library>
libRbt.so (2013.1, Build901 2013/11/27)

>  <Rbt.Parameter_File>
/export/apps/rDock/src/rDock_2013.1_src/data/scripts/dock_solv.prm

>  <Rbt.Receptor>
prm/pocket_docking_4.prm

>  <SCORE>
-10.9643

>  <SCORE.INTER>
-6.78389

>  <SCORE.INTER.CONST>
1

>  <SCORE.INTER.POLAR>
-1.04234

>  <SCORE.INTER.ROT>
3

>  <SCORE.INTER.SOLV>
5.95432

>  <SCORE.INTER.VDW>
-8.6329

>  <SCORE.INTER.norm>
-0.323042

>  <SCORE.INTRA>
-4.18039

>  <SCORE.INTRA.DIHEDRAL>
0.894582

>  <SCORE.INTRA.DIHEDRAL.0>
8.84257

>  <SCORE.INTRA.POLAR>
0

>  <SCORE.INTRA.POLAR.0>
0

>  <SCORE.INTRA.REPUL>
0

>  <SCORE.INTRA.REPUL.0>
0

>  <SCORE.INTRA.SOLV>
0.0562909

>  <SCORE.INTRA.SOLV.lig_0>
-17.1313

>  <SCORE.INTRA.VDW>
-4.65582

>  <SCORE.INTRA.VDW.0>
6.34071

>  <SCORE.INTRA.norm>
-0.199066

>  <SCORE.RESTR>
0

>  <SCORE.RESTR.CAVITY>
0

>  <SCORE.RESTR.norm>
0

>  <SCORE.SYSTEM>
0

>  <SCORE.SYSTEM.CONST>
0

>  <SCORE.SYSTEM.DIHEDRAL>
0

>  <SCORE.SYSTEM.SOLV>
0

>  <SCORE.SYSTEM.norm>
0

>  <SCORE.heavy>
21

>  <SCORE.norm>
-0.522108

>  <RMSD>
3.010

$$$$
lig.pdb
 OpenBabel11021811453D
libRbt.so/2013.1/901 2013/11/27
 21 23  0  0  0  0  0  0  0  0999 V2000
   -6.9312    0.4325    5.1501 C   0  0  0  0  0  0  0  0  0  0  0  0
   -7.0273   -0.5727    4.2873 N   0  0  0  0  0  0  0  0  0  0  0  0
   -8.1093   -1.3303    4.2740 C   0  0  0  0  0  0  0  0  0  0  0  0
   -9.0843   -1.1251    5.1826 C   0  0  0  0  0  0  0  0  0  0  0  0
   -8.9855   -0.1080    6.0489 C   0  0  0  0  0  0  0  0  0  0  0  0
   -9.9417    0.0990    6.9535 N   0  0  0  0  0  0  0  0  0  0  0  0
   -7.9055    0.6663    6.0304 N   0  0  0  0  0  0  0  0  0  0  0  0
   -8.2090   -2.3304    3.3826 C   0  0  0  0  0  0  0  0  0  0  0  0
   -9.2446   -3.2181    3.4910 C   0  0  0  0  0  0  0  0  0  0  0  0
   -8.9681   -4.5846    3.2476 O   0  0  0  0  0  0  0  0  0  0  0  0
  -10.2913   -2.8871    4.2650 C   0  0  0  0  0  0  0  0  0  0  0  0
  -11.5483   -3.5150    4.0554 O   0  0  0  0  0  0  0  0  0  0  0  0
  -10.1724   -1.9080    5.1830 C   0  0  0  0  0  0  0  0  0  0  0  0
   -5.8510    1.1943    5.1436 N   0  0  0  0  0  0  0  0  0  0  0  0
   -5.8456    2.2117    4.2769 C   0  0  0  0  0  0  0  0  0  0  0  0
   -5.5051    1.7076    2.8827 C   0  0  0  0  0  0  0  0  0  0  0  0
   -4.2500    1.1352    2.8908 N   0  0  0  0  0  0  0  0  0  0  0  0
   -4.2957    0.0666    3.7594 C   0  0  0  0  0  0  0  0  0  0  0  0
   -4.6311    0.5677    5.1542 C   0  0  0  0  0  0  0  0  0  0  0  0
   -8.4002   -5.1287    4.4114 C   0  0  0  0  0  0  0  0  0  0  0  0
  -11.7482   -4.4708    5.0638 C   0  0  0  0  0  0  0  0  0  0  0  0
  1 14  1  0  0  0  0
  1  2  2  0  0  0  0
  3  2  1  0  0  0  0
  3  8  2  0  0  0  0
  4  3  1  0  0  0  0
  5  7  2  0  0  0  0
  5  4  1  0  0  0  0
  6  5  1  0  0  0  0
  7  1  1  0  0  0  0
  9 10  1  0  0  0  0
  9  8  1  0  0  0  0
 11  9  2  0  0  0  0
 12 11  1  0  0  0  0
 13  4  2  0  0  0  0
 13 11  1  0  0  0  0
 14 15  1  0  0  0  0
 16 15  1  0  0  0  0
 17 16  1  0  0  0  0
 18 17  1  0  0  0  0
 18 19  1  0  0  0  0
 19 14  1  0  0  0  0
 20 10  1  0  0  0  0
 21 12  1  0  0  0  0
M  END
>  <CHROM.1>
85.29789981,80.87849198,103.93307621,-7.95397160,-1.12910691,4.52626188,0.61515061
0.48830308,0.53133166

>  <Name>
lig.pdb

>  <RI>
3.31914e+07

>  <Rbt.Current_Directory>
/home/itssahil/PROJECTS/Mol_Feturizer/New_Systems/rnas/2lwk

>  <Rbt.Executable>
rbdock ($Id: //depot/dev/client3/rdock/2013.1/src/exe/rbdock.cxx#4 $)

>  <Rbt.Library>
libRbt.so (2013.1, Build901 2013/11/27)

>  <Rbt.Parameter_File>
/export/apps/rDock/src/rDock_2013.1_src/data/scripts/dock_solv.prm

>  <Rbt.Receptor>
prm/pocket_docking_3.prm

>  <SCORE>
-16.137

>  <SCORE.INTER>
-12.304

>  <SCORE.INTER.CONST>
1

>  <SCORE.INTER.POLAR>
-2.0914

>  <SCORE.INTER.ROT>
3

>  <SCORE.INTER.SOLV>
4.44629

>  <SCORE.INTER.VDW>
-8.31339

>  <SCORE.INTER.norm>
-0.585903

>  <SCORE.INTRA>
-3.83302

>  <SCORE.INTRA.DIHEDRAL>
0.790344

>  <SCORE.INTRA.DIHEDRAL.0>
8.84257

>  <SCORE.INTRA.POLAR>
0

>  <SCORE.INTRA.POLAR.0>
0

>  <SCORE.INTRA.REPUL>
0

>  <SCORE.INTRA.REPUL.0>
0

>  <SCORE.INTRA.SOLV>
0.0873439

>  <SCORE.INTRA.SOLV.lig_0>
-17.1313

>  <SCORE.INTRA.VDW>
-4.27187

>  <SCORE.INTRA.VDW.0>
6.34071

>  <SCORE.INTRA.norm>
-0.182525

>  <SCORE.RESTR>
0

>  <SCORE.RESTR.CAVITY>
0

>  <SCORE.RESTR.norm>
0

>  <SCORE.SYSTEM>
0

>  <SCORE.SYSTEM.CONST>
0

>  <SCORE.SYSTEM.DIHEDRAL>
0

>  <SCORE.SYSTEM.SOLV>
0

>  <SCORE.SYSTEM.norm>
0

>  <SCORE.heavy>
21

>  <SCORE.norm>
-0.768428

>  <RMSD>
3.017

$$$$
lig.pdb
 OpenBabel11021811453D
libRbt.so/2013.1/901 2013/11/27
 21 23  0  0  0  0  0  0  0  0999 V2000
   -6.9354    0.4197    5.1925 C   0  0  0  0  0  0  0  0  0  0  0  0
   -7.0274   -0.5797    4.3224 N   0  0  0  0  0  0  0  0  0  0  0  0
   -8.1144   -1.3296    4.2909 C   0  0  0  0  0  0  0  0  0  0  0  0
   -9.0994   -1.1232    5.1883 C   0  0  0  0  0  0  0  0  0  0  0  0
   -9.0045   -0.1120    6.0620 C   0  0  0  0  0  0  0  0  0  0  0  0
   -9.9707    0.0961    6.9558 N   0  0  0  0  0  0  0  0  0  0  0  0
   -7.9191    0.6549    6.0619 N   0  0  0  0  0  0  0  0  0  0  0  0
   -8.2096   -2.3236    3.3922 C   0  0  0  0  0  0  0  0  0  0  0  0
   -9.2526   -3.2048    3.4821 C   0  0  0  0  0  0  0  0  0  0  0  0
   -8.9824   -4.5717    3.2338 O   0  0  0  0  0  0  0  0  0  0  0  0
  -10.3067   -2.8712    4.2448 C   0  0  0  0  0  0  0  0  0  0  0  0
  -11.5652   -3.4891    4.0156 O   0  0  0  0  0  0  0  0  0  0  0  0
  -10.1927   -1.8985    5.1702 C   0  0  0  0  0  0  0  0  0  0  0  0
   -5.8500    1.1740    5.2043 N   0  0  0  0  0  0  0  0  0  0  0  0
   -5.7883    2.1422    4.2851 C   0  0  0  0  0  0  0  0  0  0  0  0
   -5.3760    1.5604    2.9414 C   0  0  0  0  0  0  0  0  0  0  0  0
   -4.1281    0.9824    3.0502 N   0  0  0  0  0  0  0  0  0  0  0  0
   -4.2306   -0.0366    3.9719 C   0  0  0  0  0  0  0  0  0  0  0  0
   -4.6379    0.5422    5.3166 C   0  0  0  0  0  0  0  0  0  0  0  0
   -8.4048   -5.1193    4.3912 C   0  0  0  0  0  0  0  0  0  0  0  0
  -11.7592   -4.4885    4.9820 C   0  0  0  0  0  0  0  0  0  0  0  0
  1 14  1  0  0  0  0
  1  2  2  0  0  0  0
  3  2  1  0  0  0  0
  3  8  2  0  0  0  0
  4  3  1  0  0  0  0
  5  7  2  0  0  0  0
  5  4  1  0  0  0  0
  6  5  1  0  0  0  0
  7  1  1  0  0  0  0
  9 10  1  0  0  0  0
  9  8  1  0  0  0  0
 11  9  2  0  0  0  0
 12 11  1  0  0  0  0
 13  4  2  0  0  0  0
 13 11  1  0  0  0  0
 14 15  1  0  0  0  0
 16 15  1  0  0  0  0
 17 16  1  0  0  0  0
 18 17  1  0  0  0  0
 18 19  1  0  0  0  0
 19 14  1  0  0  0  0
 20 10  1  0  0  0  0
 21 12  1  0  0  0  0
M  END
>  <CHROM.1>
81.04084451,79.55211018,101.46914184,-7.94426006,-1.15275772,4.55587588,0.61217875
0.45856692,0.53605569

>  <Name>
lig.pdb

>  <RI>
3.31914e+07

>  <Rbt.Current_Directory>
/home/itssahil/PROJECTS/Mol_Feturizer/New_Systems/rnas/2lwk

>  <Rbt.Executable>
rbdock ($Id: //depot/dev/client3/rdock/2013.1/src/exe/rbdock.cxx#4 $)

>  <Rbt.Library>
libRbt.so (2013.1, Build901 2013/11/27)

>  <Rbt.Parameter_File>
/export/apps/rDock/src/rDock_2013.1_src/data/scripts/dock_solv.prm

>  <Rbt.Receptor>
prm/pocket_docking_3.prm

>  <SCORE>
-16.1027

>  <SCORE.INTER>
-12.1843

>  <SCORE.INTER.CONST>
1

>  <SCORE.INTER.POLAR>
-2.07382

>  <SCORE.INTER.ROT>
3

>  <SCORE.INTER.SOLV>
4.47503

>  <SCORE.INTER.VDW>
-8.30183

>  <SCORE.INTER.norm>
-0.580206

>  <SCORE.INTRA>
-3.91836

>  <SCORE.INTRA.DIHEDRAL>
0.875791

>  <SCORE.INTRA.DIHEDRAL.0>
8.84257

>  <SCORE.INTRA.POLAR>
0

>  <SCORE.INTRA.POLAR.0>
0

>  <SCORE.INTRA.REPUL>
0

>  <SCORE.INTRA.REPUL.0>
0

>  <SCORE.INTRA.SOLV>
0.0932568

>  <SCORE.INTRA.SOLV.lig_0>
-17.1313

>  <SCORE.INTRA.VDW>
-4.40289

>  <SCORE.INTRA.VDW.0>
6.34071

>  <SCORE.INTRA.norm>
-0.186589

>  <SCORE.RESTR>
0

>  <SCORE.RESTR.CAVITY>
0

>  <SCORE.RESTR.norm>
0

>  <SCORE.SYSTEM>
0

>  <SCORE.SYSTEM.CONST>
0

>  <SCORE.SYSTEM.DIHEDRAL>
0

>  <SCORE.SYSTEM.SOLV>
0

>  <SCORE.SYSTEM.norm>
0

>  <SCORE.heavy>
21

>  <SCORE.norm>
-0.766794

>  <RMSD>
3.051

$$$$
lig.pdb
 OpenBabel11021811453D
libRbt.so/2013.1/901 2013/11/27
 21 23  0  0  0  0  0  0  0  0999 V2000
   -5.6511    1.8686    6.0005 C   0  0  0  0  0  0  0  0  0  0  0  0
   -6.0827    0.7498    6.5716 N   0  0  0  0  0  0  0  0  0  0  0  0
   -7.0510    0.0511    6.0067 C   0  0  0  0  0  0  0  0  0  0  0  0
   -7.6468    0.5111    4.8880 C   0  0  0  0  0  0  0  0  0  0  0  0
   -7.2063    1.6380    4.3128 C   0  0  0  0  0  0  0  0  0  0  0  0
   -7.7926    2.1027    3.2101 N   0  0  0  0  0  0  0  0  0  0  0  0
   -6.2099    2.3146    4.8746 N   0  0  0  0  0  0  0  0  0  0  0  0
   -7.4658   -1.0917    6.5783 C   0  0  0  0  0  0  0  0  0  0  0  0
   -8.5827   -1.7132    6.0898 C   0  0  0  0  0  0  0  0  0  0  0  0
   -9.4813   -2.2814    7.0241 O   0  0  0  0  0  0  0  0  0  0  0  0
   -9.0357   -1.3529    4.8777 C   0  0  0  0  0  0  0  0  0  0  0  0
   -9.8626   -2.2433    4.1419 O   0  0  0  0  0  0  0  0  0  0  0  0
   -8.6442   -0.1871    4.3271 C   0  0  0  0  0  0  0  0  0  0  0  0
   -4.6705    2.5512    6.5659 N   0  0  0  0  0  0  0  0  0  0  0  0
   -5.0096    3.7007    7.1573 C   0  0  0  0  0  0  0  0  0  0  0  0
   -5.1766    4.7948    6.1137 C   0  0  0  0  0  0  0  0  0  0  0  0
   -3.9846    4.9834    5.4454 N   0  0  0  0  0  0  0  0  0  0  0  0
   -3.6809    3.7977    4.8128 C   0  0  0  0  0  0  0  0  0  0  0  0
   -3.5087    2.7036    5.8532 C   0  0  0  0  0  0  0  0  0  0  0  0
   -9.2282   -3.6615    7.0890 C   0  0  0  0  0  0  0  0  0  0  0  0
   -9.0559   -2.9895    3.2684 C   0  0  0  0  0  0  0  0  0  0  0  0
  1 14  1  0  0  0  0
  1  2  2  0  0  0  0
  3  2  1  0  0  0  0
  3  8  2  0  0  0  0
  4  3  1  0  0  0  0
  5  7  2  0  0  0  0
  5  4  1  0  0  0  0
  6  5  1  0  0  0  0
  7  1  1  0  0  0  0
  9 10  1  0  0  0  0
  9  8  1  0  0  0  0
 11  9  2  0  0  0  0
 12 11  1  0  0  0  0
 13  4  2  0  0  0  0
 13 11  1  0  0  0  0
 14 15  1  0  0  0  0
 16 15  1  0  0  0  0
 17 16  1  0  0  0  0
 18 17  1  0  0  0  0
 18 19  1  0  0  0  0
 19 14  1  0  0  0  0
 20 10  1  0  0  0  0
 21 12  1  0  0  0  0
M  END
>  <CHROM.1>
-107.36732355,-99.46162800,-94.60488014,-6.92065081,0.76516166,5.47348689
-0.40103719,0.85031246,2.15084458

>  <Name>
lig.pdb

>  <RI>
1.4775e+07

>  <Rbt.Current_Directory>
/home/itssahil/PROJECTS/Mol_Feturizer/New_Systems/rnas/2lwk

>  <Rbt.Executable>
rbdock ($Id: //depot/dev/client3/rdock/2013.1/src/exe/rbdock.cxx#4 $)

>  <Rbt.Library>
libRbt.so (2013.1, Build901 2013/11/27)

>  <Rbt.Parameter_File>
/export/apps/rDock/src/rDock_2013.1_src/data/scripts/dock_solv.prm

>  <Rbt.Receptor>
prm/pocket_docking_4.prm

>  <SCORE>
-11.4583

>  <SCORE.INTER>
-6.02325

>  <SCORE.INTER.CONST>
1

>  <SCORE.INTER.POLAR>
-1.09381

>  <SCORE.INTER.ROT>
3

>  <SCORE.INTER.SOLV>
5.87555

>  <SCORE.INTER.VDW>
-7.92798

>  <SCORE.INTER.norm>
-0.286821

>  <SCORE.INTRA>
-5.43501

>  <SCORE.INTRA.DIHEDRAL>
0.94668

>  <SCORE.INTRA.DIHEDRAL.0>
8.84257

>  <SCORE.INTRA.POLAR>
0

>  <SCORE.INTRA.POLAR.0>
0

>  <SCORE.INTRA.REPUL>
0

>  <SCORE.INTRA.REPUL.0>
0

>  <SCORE.INTRA.SOLV>
0.0822587

>  <SCORE.INTRA.SOLV.lig_0>
-17.1313

>  <SCORE.INTRA.VDW>
-5.94948

>  <SCORE.INTRA.VDW.0>
6.34071

>  <SCORE.INTRA.norm>
-0.25881

>  <SCORE.RESTR>
0

>  <SCORE.RESTR.CAVITY>
0

>  <SCORE.RESTR.norm>
0

>  <SCORE.SYSTEM>
0

>  <SCORE.SYSTEM.CONST>
0

>  <SCORE.SYSTEM.DIHEDRAL>
0

>  <SCORE.SYSTEM.SOLV>
0

>  <SCORE.SYSTEM.norm>
0

>  <SCORE.heavy>
21

>  <SCORE.norm>
-0.545631

>  <RMSD>
3.092

$$$$
lig.pdb
 OpenBabel11021811453D
libRbt.so/2013.1/901 2013/11/27
 21 23  0  0  0  0  0  0  0  0999 V2000
   -6.6851    0.2993    4.3538 C   0  0  0  0  0  0  0  0  0  0  0  0
   -6.9600   -0.8634    3.7734 N   0  0  0  0  0  0  0  0  0  0  0  0
   -7.9696   -1.5960    4.2081 C   0  0  0  0  0  0  0  0  0  0  0  0
   -8.6761   -1.1952    5.2843 C   0  0  0  0  0  0  0  0  0  0  0  0
   -8.3983   -0.0201    5.8648 C   0  0  0  0  0  0  0  0  0  0  0  0
   -9.0879    0.3814    6.9319 N   0  0  0  0  0  0  0  0  0  0  0  0
   -7.3999    0.7221    5.3974 N   0  0  0  0  0  0  0  0  0  0  0  0
   -8.2557   -2.7596    3.6007 C   0  0  0  0  0  0  0  0  0  0  0  0
   -9.1821   -3.5944    4.1639 C   0  0  0  0  0  0  0  0  0  0  0  0
   -8.9163   -4.9844    4.1396 O   0  0  0  0  0  0  0  0  0  0  0  0
   -9.9994   -3.0981    5.1072 C   0  0  0  0  0  0  0  0  0  0  0  0
  -11.2358   -3.7432    5.3779 O   0  0  0  0  0  0  0  0  0  0  0  0
   -9.6867   -1.9495    5.7386 C   0  0  0  0  0  0  0  0  0  0  0  0
   -5.6827    1.0318    3.9001 N   0  0  0  0  0  0  0  0  0  0  0  0
   -5.8654    1.6213    2.7147 C   0  0  0  0  0  0  0  0  0  0  0  0
   -5.6461    0.6171    1.5934 C   0  0  0  0  0  0  0  0  0  0  0  0
   -4.3537    0.1375    1.6472 N   0  0  0  0  0  0  0  0  0  0  0  0
   -4.2063   -0.4995    2.8600 C   0  0  0  0  0  0  0  0  0  0  0  0
   -4.4203    0.5024    3.9824 C   0  0  0  0  0  0  0  0  0  0  0  0
  -10.0856   -5.6448    3.7278 C   0  0  0  0  0  0  0  0  0  0  0  0
  -12.2806   -2.8433    5.1153 C   0  0  0  0  0  0  0  0  0  0  0  0
  1 14  1  0  0  0  0
  1  2  2  0  0  0  0
  3  2  1  0  0  0  0
  3  8  2  0  0  0  0
  4  3  1  0  0  0  0
  5  7  2  0  0  0  0
  5  4  1  0  0  0  0
  6  5  1  0  0  0  0
  7  1  1  0  0  0  0
  9 10  1  0  0  0  0
  9  8  1  0  0  0  0
 11  9  2  0  0  0  0
 12 11  1  0  0  0  0
 13  4  2  0  0  0  0
 13 11  1  0  0  0  0
 14 15  1  0  0  0  0
 16 15  1  0  0  0  0
 17 16  1  0  0  0  0
 18 17  1  0  0  0  0
 18 19  1  0  0  0  0
 19 14  1  0  0  0  0
 20 10  1  0  0  0  0
 21 12  1  0  0  0  0
M  END
>  <CHROM.1>
71.38371864,-134.08183400,-119.04237489,-7.87224727,-1.33447025,4.25346384
0.40224181,0.62654741,0.53606431

>  <Name>
lig.pdb

>  <RI>
2.6678e+07

>  <Rbt.Current_Directory>
/home/itssahil/PROJECTS/Mol_Feturizer/New_Systems/rnas/2lwk

>  <Rbt.Executable>
rbdock ($Id: //depot/dev/client3/rdock/2013.1/src/exe/rbdock.cxx#4 $)

>  <Rbt.Library>
libRbt.so (2013.1, Build901 2013/11/27)

>  <Rbt.Parameter_File>
/export/apps/rDock/src/rDock_2013.1_src/data/scripts/dock_solv.prm

>  <Rbt.Receptor>
prm/pocket_docking_2.prm

>  <SCORE>
-0.148212

>  <SCORE.INTER>
0.79556

>  <SCORE.INTER.CONST>
1

>  <SCORE.INTER.POLAR>
-0.483796

>  <SCORE.INTER.ROT>
3

>  <SCORE.INTER.SOLV>
4.3578

>  <SCORE.INTER.VDW>
-4.90957

>  <SCORE.INTER.norm>
0.0378838

>  <SCORE.INTRA>
-3.19759

>  <SCORE.INTRA.DIHEDRAL>
-1.47414

>  <SCORE.INTRA.DIHEDRAL.0>
8.84257

>  <SCORE.INTRA.POLAR>
0

>  <SCORE.INTRA.POLAR.0>
0

>  <SCORE.INTRA.REPUL>
0

>  <SCORE.INTRA.REPUL.0>
0

>  <SCORE.INTRA.SOLV>
0.115204

>  <SCORE.INTRA.SOLV.lig_0>
-17.1313

>  <SCORE.INTRA.VDW>
-2.51812

>  <SCORE.INTRA.VDW.0>
6.34071

>  <SCORE.INTRA.norm>
-0.152266

>  <SCORE.RESTR>
2.25382

>  <SCORE.RESTR.CAVITY>
2.25382

>  <SCORE.RESTR.norm>
0.107325

>  <SCORE.SYSTEM>
0

>  <SCORE.SYSTEM.CONST>
0

>  <SCORE.SYSTEM.DIHEDRAL>
0

>  <SCORE.SYSTEM.SOLV>
0

>  <SCORE.SYSTEM.norm>
0

>  <SCORE.heavy>
21

>  <SCORE.norm>
-0.00705771

>  <RMSD>
3.121

$$$$
lig.pdb
 OpenBabel11021811453D
libRbt.so/2013.1/901 2013/11/27
 21 23  0  0  0  0  0  0  0  0999 V2000
   -6.7288    0.9255    4.9889 C   0  0  0  0  0  0  0  0  0  0  0  0
   -7.8679    0.5950    4.3910 N   0  0  0  0  0  0  0  0  0  0  0  0
   -8.7661   -0.1282    5.0352 C   0  0  0  0  0  0  0  0  0  0  0  0
   -8.4957   -0.5881    6.2736 C   0  0  0  0  0  0  0  0  0  0  0  0
   -7.3473   -0.2496    6.8748 C   0  0  0  0  0  0  0  0  0  0  0  0
   -7.0695   -0.7037    8.0963 N   0  0  0  0  0  0  0  0  0  0  0  0
   -6.4659    0.5052    6.2270 N   0  0  0  0  0  0  0  0  0  0  0  0
   -9.9256   -0.4386    4.4319 C   0  0  0  0  0  0  0  0  0  0  0  0
  -10.7701   -1.3323    5.0322 C   0  0  0  0  0  0  0  0  0  0  0  0
  -11.4301   -2.2719    4.2048 O   0  0  0  0  0  0  0  0  0  0  0  0
  -10.5776   -1.6205    6.3299 C   0  0  0  0  0  0  0  0  0  0  0  0
  -11.6494   -2.1445    7.1013 O   0  0  0  0  0  0  0  0  0  0  0  0
   -9.3984   -1.3403    6.9186 C   0  0  0  0  0  0  0  0  0  0  0  0
   -5.8442    1.6634    4.3406 N   0  0  0  0  0  0  0  0  0  0  0  0
   -4.9710    2.3419    5.0912 C   0  0  0  0  0  0  0  0  0  0  0  0
   -5.6244    3.6001    5.6426 C   0  0  0  0  0  0  0  0  0  0  0  0
   -6.0242    4.4096    4.5996 N   0  0  0  0  0  0  0  0  0  0  0  0
   -6.9525    3.7017    3.8678 C   0  0  0  0  0  0  0  0  0  0  0  0
   -6.3013    2.4463    3.3116 C   0  0  0  0  0  0  0  0  0  0  0  0
  -10.5623   -3.3571    3.9989 C   0  0  0  0  0  0  0  0  0  0  0  0
  -12.4130   -1.0757    7.5961 C   0  0  0  0  0  0  0  0  0  0  0  0
  1 14  1  0  0  0  0
  1  2  2  0  0  0  0
  3  2  1  0  0  0  0
  3  8  2  0  0  0  0
  4  3  1  0  0  0  0
  5  7  2  0  0  0  0
  5  4  1  0  0  0  0
  6  5  1  0  0  0  0
  7  1  1  0  0  0  0
  9 10  1  0  0  0  0
  9  8  1  0  0  0  0
 11  9  2  0  0  0  0
 12 11  1  0  0  0  0
 13  4  2  0  0  0  0
 13 11  1  0  0  0  0
 14 15  1  0  0  0  0
 16 15  1  0  0  0  0
 17 16  1  0  0  0  0
 18 17  1  0  0  0  0
 18 19  1  0  0  0  0
 19 14  1  0  0  0  0
 20 10  1  0  0  0  0
 21 12  1  0  0  0  0
M  END
>  <CHROM.1>
157.53134353,84.18303885,-85.82926549,-8.36059663,0.23159122,5.45312177,-0.40714001
0.67314756,1.92781887

>  <Name>
lig.pdb

>  <RI>
1.4775e+07

>  <Rbt.Current_Directory>
/home/itssahil/PROJECTS/Mol_Feturizer/New_Systems/rnas/2lwk

>  <Rbt.Executable>
rbdock ($Id: //depot/dev/client3/rdock/2013.1/src/exe/rbdock.cxx#4 $)

>  <Rbt.Library>
libRbt.so (2013.1, Build901 2013/11/27)

>  <Rbt.Parameter_File>
/export/apps/rDock/src/rDock_2013.1_src/data/scripts/dock_solv.prm

>  <Rbt.Receptor>
prm/pocket_docking_4.prm

>  <SCORE>
-17.6279

>  <SCORE.INTER>
-15.373

>  <SCORE.INTER.CONST>
1

>  <SCORE.INTER.POLAR>
-1.9352

>  <SCORE.INTER.ROT>
3

>  <SCORE.INTER.SOLV>
5.36996

>  <SCORE.INTER.VDW>
-11.188

>  <SCORE.INTER.norm>
-0.73205

>  <SCORE.INTRA>
-2.25485

>  <SCORE.INTRA.DIHEDRAL>
0.965587

>  <SCORE.INTRA.DIHEDRAL.0>
8.84257

>  <SCORE.INTRA.POLAR>
0

>  <SCORE.INTRA.POLAR.0>
0

>  <SCORE.INTRA.REPUL>
0

>  <SCORE.INTRA.REPUL.0>
0

>  <SCORE.INTRA.SOLV>
-0.0794485

>  <SCORE.INTRA.SOLV.lig_0>
-17.1313

>  <SCORE.INTRA.VDW>
-2.69792

>  <SCORE.INTRA.VDW.0>
6.34071

>  <SCORE.INTRA.norm>
-0.107374

>  <SCORE.RESTR>
0

>  <SCORE.RESTR.CAVITY>
0

>  <SCORE.RESTR.norm>
0

>  <SCORE.SYSTEM>
0

>  <SCORE.SYSTEM.CONST>
0

>  <SCORE.SYSTEM.DIHEDRAL>
0

>  <SCORE.SYSTEM.SOLV>
0

>  <SCORE.SYSTEM.norm>
0

>  <SCORE.heavy>
21

>  <SCORE.norm>
-0.839423

>  <RMSD>
3.166

$$$$
lig.pdb
 OpenBabel11021811453D
libRbt.so/2013.1/901 2013/11/27
 21 23  0  0  0  0  0  0  0  0999 V2000
   -6.0172    2.9990    4.5360 C   0  0  0  0  0  0  0  0  0  0  0  0
   -6.7245    2.1989    5.3258 N   0  0  0  0  0  0  0  0  0  0  0  0
   -6.7684    0.9014    5.0824 C   0  0  0  0  0  0  0  0  0  0  0  0
   -6.1517    0.4009    3.9928 C   0  0  0  0  0  0  0  0  0  0  0  0
   -5.4362    1.2104    3.2006 C   0  0  0  0  0  0  0  0  0  0  0  0
   -4.8277    0.7255    2.1188 N   0  0  0  0  0  0  0  0  0  0  0  0
   -5.3743    2.5093    3.4750 N   0  0  0  0  0  0  0  0  0  0  0  0
   -7.4669    0.0956    5.8995 C   0  0  0  0  0  0  0  0  0  0  0  0
   -7.6558   -1.2119    5.5432 C   0  0  0  0  0  0  0  0  0  0  0  0
   -8.9242   -1.7864    5.7968 O   0  0  0  0  0  0  0  0  0  0  0  0
   -6.8827   -1.7278    4.5735 C   0  0  0  0  0  0  0  0  0  0  0  0
   -6.7052   -3.1348    4.4883 O   0  0  0  0  0  0  0  0  0  0  0  0
   -6.2146   -0.9128    3.7340 C   0  0  0  0  0  0  0  0  0  0  0  0
   -5.9670    4.2936    4.7985 N   0  0  0  0  0  0  0  0  0  0  0  0
   -6.0239    5.1165    3.7470 C   0  0  0  0  0  0  0  0  0  0  0  0
   -4.6630    5.1952    3.0718 C   0  0  0  0  0  0  0  0  0  0  0  0
   -3.7322    5.6891    3.9621 N   0  0  0  0  0  0  0  0  0  0  0  0
   -3.6645    4.8018    5.0140 C   0  0  0  0  0  0  0  0  0  0  0  0
   -5.0215    4.7246    5.6935 C   0  0  0  0  0  0  0  0  0  0  0  0
   -8.8388   -2.5225    6.9902 C   0  0  0  0  0  0  0  0  0  0  0  0
   -7.5537   -3.6363    3.4890 C   0  0  0  0  0  0  0  0  0  0  0  0
  1 14  1  0  0  0  0
  1  2  2  0  0  0  0
  3  2  1  0  0  0  0
  3  8  2  0  0  0  0
  4  3  1  0  0  0  0
  5  7  2  0  0  0  0
  5  4  1  0  0  0  0
  6  5  1  0  0  0  0
  7  1  1  0  0  0  0
  9 10  1  0  0  0  0
  9  8  1  0  0  0  0
 11  9  2  0  0  0  0
 12 11  1  0  0  0  0
 13  4  2  0  0  0  0
 13 11  1  0  0  0  0
 14 15  1  0  0  0  0
 16 15  1  0  0  0  0
 17 16  1  0  0  0  0
 18 17  1  0  0  0  0
 18 19  1  0  0  0  0
 19 14  1  0  0  0  0
 20 10  1  0  0  0  0
 21 12  1  0  0  0  0
M  END
>  <CHROM.1>
-139.98100592,-98.66539786,100.09951070,-6.22013451,1.21294074,4.49340811
0.89926728,0.91516677,0.44095610

>  <Name>
lig.pdb

>  <RI>
2.98315e+07

>  <Rbt.Current_Directory>
/home/itssahil/PROJECTS/Mol_Feturizer/New_Systems/rnas/2lwk

>  <Rbt.Executable>
rbdock ($Id: //depot/dev/client3/rdock/2013.1/src/exe/rbdock.cxx#4 $)

>  <Rbt.Library>
libRbt.so (2013.1, Build901 2013/11/27)

>  <Rbt.Parameter_File>
/export/apps/rDock/src/rDock_2013.1_src/data/scripts/dock_solv.prm

>  <Rbt.Receptor>
prm/pocket_docking_5.prm

>  <SCORE>
-15.8235

>  <SCORE.INTER>
-11.0707

>  <SCORE.INTER.CONST>
1

>  <SCORE.INTER.POLAR>
-1.7381

>  <SCORE.INTER.ROT>
3

>  <SCORE.INTER.SOLV>
4.91855

>  <SCORE.INTER.VDW>
-8.82634

>  <SCORE.INTER.norm>
-0.527178

>  <SCORE.INTRA>
-4.75275

>  <SCORE.INTRA.DIHEDRAL>
0.894389

>  <SCORE.INTRA.DIHEDRAL.0>
8.84257

>  <SCORE.INTRA.POLAR>
0

>  <SCORE.INTRA.POLAR.0>
0

>  <SCORE.INTRA.REPUL>
0

>  <SCORE.INTRA.REPUL.0>
0

>  <SCORE.INTRA.SOLV>
0.122019

>  <SCORE.INTRA.SOLV.lig_0>
-17.1313

>  <SCORE.INTRA.VDW>
-5.26095

>  <SCORE.INTRA.VDW.0>
6.34071

>  <SCORE.INTRA.norm>
-0.226321

>  <SCORE.RESTR>
0

>  <SCORE.RESTR.CAVITY>
0

>  <SCORE.RESTR.norm>
0

>  <SCORE.SYSTEM>
0

>  <SCORE.SYSTEM.CONST>
0

>  <SCORE.SYSTEM.DIHEDRAL>
0

>  <SCORE.SYSTEM.SOLV>
0

>  <SCORE.SYSTEM.norm>
0

>  <SCORE.heavy>
21

>  <SCORE.norm>
-0.7535

>  <RMSD>
3.177

$$$$
lig.pdb
 OpenBabel11021811453D
libRbt.so/2013.1/901 2013/11/27
 21 23  0  0  0  0  0  0  0  0999 V2000
   -7.0129    1.3496    4.6998 C   0  0  0  0  0  0  0  0  0  0  0  0
   -8.1328    0.8905    4.1528 N   0  0  0  0  0  0  0  0  0  0  0  0
   -8.9391    0.1129    4.8528 C   0  0  0  0  0  0  0  0  0  0  0  0
   -8.5898   -0.2699    6.0977 C   0  0  0  0  0  0  0  0  0  0  0  0
   -7.4613    0.1982    6.6474 C   0  0  0  0  0  0  0  0  0  0  0  0
   -7.1057   -0.1788    7.8751 N   0  0  0  0  0  0  0  0  0  0  0  0
   -6.6748    1.0055    5.9432 N   0  0  0  0  0  0  0  0  0  0  0  0
  -10.0814   -0.3282    4.3003 C   0  0  0  0  0  0  0  0  0  0  0  0
  -10.8194   -1.2722    4.9611 C   0  0  0  0  0  0  0  0  0  0  0  0
  -11.4118   -2.3017    4.1914 O   0  0  0  0  0  0  0  0  0  0  0  0
  -10.5621   -1.4891    6.2615 C   0  0  0  0  0  0  0  0  0  0  0  0
  -11.5562   -2.0796    7.0869 O   0  0  0  0  0  0  0  0  0  0  0  0
   -9.3977   -1.0767    6.7998 C   0  0  0  0  0  0  0  0  0  0  0  0
   -6.2216    2.1403    3.9956 N   0  0  0  0  0  0  0  0  0  0  0  0
   -4.9946    1.6775    3.7378 C   0  0  0  0  0  0  0  0  0  0  0  0
   -4.1017    1.8598    4.9558 C   0  0  0  0  0  0  0  0  0  0  0  0
   -4.0060    3.2011    5.2635 N   0  0  0  0  0  0  0  0  0  0  0  0
   -5.2765    3.6412    5.5643 C   0  0  0  0  0  0  0  0  0  0  0  0
   -6.1698    3.4648    4.3477 C   0  0  0  0  0  0  0  0  0  0  0  0
  -10.4322   -3.2763    3.9390 C   0  0  0  0  0  0  0  0  0  0  0  0
  -12.3952   -1.0664    7.5768 C   0  0  0  0  0  0  0  0  0  0  0  0
  1 14  1  0  0  0  0
  1  2  2  0  0  0  0
  3  2  1  0  0  0  0
  3  8  2  0  0  0  0
  4  3  1  0  0  0  0
  5  7  2  0  0  0  0
  5  4  1  0  0  0  0
  6  5  1  0  0  0  0
  7  1  1  0  0  0  0
  9 10  1  0  0  0  0
  9  8  1  0  0  0  0
 11  9  2  0  0  0  0
 12 11  1  0  0  0  0
 13  4  2  0  0  0  0
 13 11  1  0  0  0  0
 14 15  1  0  0  0  0
 16 15  1  0  0  0  0
 17 16  1  0  0  0  0
 18 17  1  0  0  0  0
 18 19  1  0  0  0  0
 19 14  1  0  0  0  0
 20 10  1  0  0  0  0
 21 12  1  0  0  0  0
M  END
>  <CHROM.1>
-117.16187987,81.21360796,-86.36466793,-8.16111345,0.28063868,5.40763460
0.11357571,-0.63545497,-1.58886283

>  <Name>
lig.pdb

>  <RI>
1.4775e+07

>  <Rbt.Current_Directory>
/home/itssahil/PROJECTS/Mol_Feturizer/New_Systems/rnas/2lwk

>  <Rbt.Executable>
rbdock ($Id: //depot/dev/client3/rdock/2013.1/src/exe/rbdock.cxx#4 $)

>  <Rbt.Library>
libRbt.so (2013.1, Build901 2013/11/27)

>  <Rbt.Parameter_File>
/export/apps/rDock/src/rDock_2013.1_src/data/scripts/dock_solv.prm

>  <Rbt.Receptor>
prm/pocket_docking_4.prm

>  <SCORE>
-13.9406

>  <SCORE.INTER>
-9.73765

>  <SCORE.INTER.CONST>
1

>  <SCORE.INTER.POLAR>
-0.953675

>  <SCORE.INTER.ROT>
3

>  <SCORE.INTER.SOLV>
4.77179

>  <SCORE.INTER.VDW>
-10.5034

>  <SCORE.INTER.norm>
-0.463697

>  <SCORE.INTRA>
-4.20292

>  <SCORE.INTRA.DIHEDRAL>
0.994721

>  <SCORE.INTRA.DIHEDRAL.0>
8.84257

>  <SCORE.INTRA.POLAR>
0

>  <SCORE.INTRA.POLAR.0>
0

>  <SCORE.INTRA.REPUL>
0

>  <SCORE.INTRA.REPUL.0>
0

>  <SCORE.INTRA.SOLV>
0.0593113

>  <SCORE.INTRA.SOLV.lig_0>
-17.1313

>  <SCORE.INTRA.VDW>
-4.72994

>  <SCORE.INTRA.VDW.0>
6.34071

>  <SCORE.INTRA.norm>
-0.200139

>  <SCORE.RESTR>
0

>  <SCORE.RESTR.CAVITY>
0

>  <SCORE.RESTR.norm>
0

>  <SCORE.SYSTEM>
0

>  <SCORE.SYSTEM.CONST>
0

>  <SCORE.SYSTEM.DIHEDRAL>
0

>  <SCORE.SYSTEM.SOLV>
0

>  <SCORE.SYSTEM.norm>
0

>  <SCORE.heavy>
21

>  <SCORE.norm>
-0.663837

>  <RMSD>
3.260

$$$$
lig.pdb
 OpenBabel11021811453D
libRbt.so/2013.1/901 2013/11/27
 21 23  0  0  0  0  0  0  0  0999 V2000
   -7.1484    0.9388    4.9281 C   0  0  0  0  0  0  0  0  0  0  0  0
   -6.5635    0.1654    4.0203 N   0  0  0  0  0  0  0  0  0  0  0  0
   -6.9719   -1.0794    3.8516 C   0  0  0  0  0  0  0  0  0  0  0  0
   -7.9349   -1.5845    4.6488 C   0  0  0  0  0  0  0  0  0  0  0  0
   -8.5250   -0.8004    5.5609 C   0  0  0  0  0  0  0  0  0  0  0  0
   -9.4739   -1.2925    6.3565 N   0  0  0  0  0  0  0  0  0  0  0  0
   -8.1261    0.4599    5.6985 N   0  0  0  0  0  0  0  0  0  0  0  0
   -6.3909   -1.8478    2.9152 C   0  0  0  0  0  0  0  0  0  0  0  0
   -6.6926   -3.1816    2.8674 C   0  0  0  0  0  0  0  0  0  0  0  0
   -5.6366   -4.0860    2.6029 O   0  0  0  0  0  0  0  0  0  0  0  0
   -7.7790   -3.6148    3.5278 C   0  0  0  0  0  0  0  0  0  0  0  0
   -8.3911   -4.8397    3.1493 O   0  0  0  0  0  0  0  0  0  0  0  0
   -8.3339   -2.8545    4.4920 C   0  0  0  0  0  0  0  0  0  0  0  0
   -6.7427    2.1879    5.0771 N   0  0  0  0  0  0  0  0  0  0  0  0
   -6.9106    2.9973    4.0269 C   0  0  0  0  0  0  0  0  0  0  0  0
   -5.8122    2.7571    3.0023 C   0  0  0  0  0  0  0  0  0  0  0  0
   -4.5835    3.0268    3.5685 N   0  0  0  0  0  0  0  0  0  0  0  0
   -4.4196    2.1523    4.6206 C   0  0  0  0  0  0  0  0  0  0  0  0
   -5.5128    2.3931    5.6482 C   0  0  0  0  0  0  0  0  0  0  0  0
   -5.3870   -4.0728    1.2206 C   0  0  0  0  0  0  0  0  0  0  0  0
   -8.3976   -5.7015    4.2572 C   0  0  0  0  0  0  0  0  0  0  0  0
  1 14  1  0  0  0  0
  1  2  2  0  0  0  0
  3  2  1  0  0  0  0
  3  8  2  0  0  0  0
  4  3  1  0  0  0  0
  5  7  2  0  0  0  0
  5  4  1  0  0  0  0
  6  5  1  0  0  0  0
  7  1  1  0  0  0  0
  9 10  1  0  0  0  0
  9  8  1  0  0  0  0
 11  9  2  0  0  0  0
 12 11  1  0  0  0  0
 13  4  2  0  0  0  0
 13 11  1  0  0  0  0
 14 15  1  0  0  0  0
 16 15  1  0  0  0  0
 17 16  1  0  0  0  0
 18 17  1  0  0  0  0
 18 19  1  0  0  0  0
 19 14  1  0  0  0  0
 20 10  1  0  0  0  0
 21 12  1  0  0  0  0
M  END
>  <CHROM.1>
63.46520256,-79.15877077,121.58234466,-6.92463601,-0.87690928,4.08436045
1.26715799,0.69700450,0.36561092

>  <Name>
lig.pdb

>  <RI>
3.31914e+07

>  <Rbt.Current_Directory>
/home/itssahil/PROJECTS/Mol_Feturizer/New_Systems/rnas/2lwk

>  <Rbt.Executable>
rbdock ($Id: //depot/dev/client3/rdock/2013.1/src/exe/rbdock.cxx#4 $)

>  <Rbt.Library>
libRbt.so (2013.1, Build901 2013/11/27)

>  <Rbt.Parameter_File>
/export/apps/rDock/src/rDock_2013.1_src/data/scripts/dock_solv.prm

>  <Rbt.Receptor>
prm/pocket_docking_3.prm

>  <SCORE>
-15.6958

>  <SCORE.INTER>
-11.1989

>  <SCORE.INTER.CONST>
1

>  <SCORE.INTER.POLAR>
-1.9314

>  <SCORE.INTER.ROT>
3

>  <SCORE.INTER.SOLV>
4.11347

>  <SCORE.INTER.VDW>
-7.99911

>  <SCORE.INTER.norm>
-0.533283

>  <SCORE.INTRA>
-4.5021

>  <SCORE.INTRA.DIHEDRAL>
-0.820619

>  <SCORE.INTRA.DIHEDRAL.0>
8.84257

>  <SCORE.INTRA.POLAR>
0

>  <SCORE.INTRA.POLAR.0>
0

>  <SCORE.INTRA.REPUL>
0

>  <SCORE.INTRA.REPUL.0>
0

>  <SCORE.INTRA.SOLV>
0.104865

>  <SCORE.INTRA.SOLV.lig_0>
-17.1313

>  <SCORE.INTRA.VDW>
-4.14423

>  <SCORE.INTRA.VDW.0>
6.34071

>  <SCORE.INTRA.norm>
-0.214386

>  <SCORE.RESTR>
0.0052635

>  <SCORE.RESTR.CAVITY>
0.0052635

>  <SCORE.RESTR.norm>
0.000250643

>  <SCORE.SYSTEM>
0

>  <SCORE.SYSTEM.CONST>
0

>  <SCORE.SYSTEM.DIHEDRAL>
0

>  <SCORE.SYSTEM.SOLV>
0

>  <SCORE.SYSTEM.norm>
0

>  <SCORE.heavy>
21

>  <SCORE.norm>
-0.747418

>  <RMSD>
3.332

$$$$
lig.pdb
 OpenBabel11021811453D
libRbt.so/2013.1/901 2013/11/27
 21 23  0  0  0  0  0  0  0  0999 V2000
   -8.1333    0.2412    5.2705 C   0  0  0  0  0  0  0  0  0  0  0  0
   -7.9773   -0.8253    4.4942 N   0  0  0  0  0  0  0  0  0  0  0  0
   -8.9712   -1.6819    4.3416 C   0  0  0  0  0  0  0  0  0  0  0  0
  -10.1185   -1.5091    5.0286 C   0  0  0  0  0  0  0  0  0  0  0  0
  -10.2734   -0.4304    5.8078 C   0  0  0  0  0  0  0  0  0  0  0  0
  -11.4018   -0.2543    6.4944 N   0  0  0  0  0  0  0  0  0  0  0  0
   -9.2767    0.4405    5.9275 N   0  0  0  0  0  0  0  0  0  0  0  0
   -8.8135   -2.7455    3.5363 C   0  0  0  0  0  0  0  0  0  0  0  0
   -9.7753   -3.7186    3.5226 C   0  0  0  0  0  0  0  0  0  0  0  0
   -9.3474   -5.0659    3.4536 O   0  0  0  0  0  0  0  0  0  0  0  0
  -10.9765   -3.4370    4.0537 C   0  0  0  0  0  0  0  0  0  0  0  0
  -12.1134   -4.1950    3.6649 O   0  0  0  0  0  0  0  0  0  0  0  0
  -11.1189   -2.3905    4.8905 C   0  0  0  0  0  0  0  0  0  0  0  0
   -7.1376    1.1005    5.4030 N   0  0  0  0  0  0  0  0  0  0  0  0
   -6.7137    1.6971    4.2847 C   0  0  0  0  0  0  0  0  0  0  0  0
   -5.8065    0.7580    3.5042 C   0  0  0  0  0  0  0  0  0  0  0  0
   -4.7056    0.4346    4.2700 N   0  0  0  0  0  0  0  0  0  0  0  0
   -5.1683   -0.2141    5.3940 C   0  0  0  0  0  0  0  0  0  0  0  0
   -6.0712    0.7232    6.1785 C   0  0  0  0  0  0  0  0  0  0  0  0
   -8.8852   -5.4424    4.7256 C   0  0  0  0  0  0  0  0  0  0  0  0
  -12.3942   -5.1339    4.6699 C   0  0  0  0  0  0  0  0  0  0  0  0
  1 14  1  0  0  0  0
  1  2  2  0  0  0  0
  3  2  1  0  0  0  0
  3  8  2  0  0  0  0
  4  3  1  0  0  0  0
  5  7  2  0  0  0  0
  5  4  1  0  0  0  0
  6  5  1  0  0  0  0
  7  1  1  0  0  0  0
  9 10  1  0  0  0  0
  9  8  1  0  0  0  0
 11  9  2  0  0  0  0
 12 11  1  0  0  0  0
 13  4  2  0  0  0  0
 13 11  1  0  0  0  0
 14 15  1  0  0  0  0
 16 15  1  0  0  0  0
 17 16  1  0  0  0  0
 18 17  1  0  0  0  0
 18 19  1  0  0  0  0
 19 14  1  0  0  0  0
 20 10  1  0  0  0  0
 21 12  1  0  0  0  0
M  END
>  <CHROM.1>
60.23883427,76.66444752,101.40213495,-8.81600258,-1.54040680,4.71246838,0.77074189
0.25970047,0.39242966

>  <Name>
lig.pdb

>  <RI>
3.31914e+07

>  <Rbt.Current_Directory>
/home/itssahil/PROJECTS/Mol_Feturizer/New_Systems/rnas/2lwk

>  <Rbt.Executable>
rbdock ($Id: //depot/dev/client3/rdock/2013.1/src/exe/rbdock.cxx#4 $)

>  <Rbt.Library>
libRbt.so (2013.1, Build901 2013/11/27)

>  <Rbt.Parameter_File>
/export/apps/rDock/src/rDock_2013.1_src/data/scripts/dock_solv.prm

>  <Rbt.Receptor>
prm/pocket_docking_3.prm

>  <SCORE>
-20.7184

>  <SCORE.INTER>
-16.9252

>  <SCORE.INTER.CONST>
1

>  <SCORE.INTER.POLAR>
-2.82956

>  <SCORE.INTER.ROT>
3

>  <SCORE.INTER.SOLV>
6.14739

>  <SCORE.INTER.VDW>
-9.50073

>  <SCORE.INTER.norm>
-0.805963

>  <SCORE.INTRA>
-3.90156

>  <SCORE.INTRA.DIHEDRAL>
0.890347

>  <SCORE.INTRA.DIHEDRAL.0>
8.84257

>  <SCORE.INTRA.POLAR>
0

>  <SCORE.INTRA.POLAR.0>
0

>  <SCORE.INTRA.REPUL>
0

>  <SCORE.INTRA.REPUL.0>
0

>  <SCORE.INTRA.SOLV>
0.100237

>  <SCORE.INTRA.SOLV.lig_0>
-17.1313

>  <SCORE.INTRA.VDW>
-4.39685

>  <SCORE.INTRA.VDW.0>
6.34071

>  <SCORE.INTRA.norm>
-0.185788

>  <SCORE.RESTR>
0.108396

>  <SCORE.RESTR.CAVITY>
0.108396

>  <SCORE.RESTR.norm>
0.00516171

>  <SCORE.SYSTEM>
0

>  <SCORE.SYSTEM.CONST>
0

>  <SCORE.SYSTEM.DIHEDRAL>
0

>  <SCORE.SYSTEM.SOLV>
0

>  <SCORE.SYSTEM.norm>
0

>  <SCORE.heavy>
21

>  <SCORE.norm>
-0.986589

>  <RMSD>
3.332

$$$$
lig.pdb
 OpenBabel11021811453D
libRbt.so/2013.1/901 2013/11/27
 21 23  0  0  0  0  0  0  0  0999 V2000
   -7.2912    0.7291    5.3657 C   0  0  0  0  0  0  0  0  0  0  0  0
   -8.1743    0.2344    4.5057 N   0  0  0  0  0  0  0  0  0  0  0  0
   -9.2881   -0.3205    4.9489 C   0  0  0  0  0  0  0  0  0  0  0  0
   -9.4945   -0.4460    6.2755 C   0  0  0  0  0  0  0  0  0  0  0  0
   -8.6032    0.0574    7.1398 C   0  0  0  0  0  0  0  0  0  0  0  0
   -8.7965   -0.0666    8.4524 N   0  0  0  0  0  0  0  0  0  0  0  0
   -7.5017    0.6417    6.6798 N   0  0  0  0  0  0  0  0  0  0  0  0
  -10.1871   -0.7975    4.0720 C   0  0  0  0  0  0  0  0  0  0  0  0
  -11.2474   -1.5273    4.5360 C   0  0  0  0  0  0  0  0  0  0  0  0
  -11.6457   -2.6594    3.7857 O   0  0  0  0  0  0  0  0  0  0  0  0
  -11.5351   -1.4734    5.8470 C   0  0  0  0  0  0  0  0  0  0  0  0
  -12.8412   -1.8070    6.2954 O   0  0  0  0  0  0  0  0  0  0  0  0
  -10.6147   -1.0289    6.7249 C   0  0  0  0  0  0  0  0  0  0  0  0
   -6.1877    1.2969    4.9105 N   0  0  0  0  0  0  0  0  0  0  0  0
   -5.4255    1.9236    5.8119 C   0  0  0  0  0  0  0  0  0  0  0  0
   -6.0077    3.2936    6.1251 C   0  0  0  0  0  0  0  0  0  0  0  0
   -6.0407    4.0565    4.9762 N   0  0  0  0  0  0  0  0  0  0  0  0
   -6.8643    3.4091    4.0813 C   0  0  0  0  0  0  0  0  0  0  0  0
   -6.2828    2.0417    3.7628 C   0  0  0  0  0  0  0  0  0  0  0  0
  -10.7145   -3.6854    4.0166 C   0  0  0  0  0  0  0  0  0  0  0  0
  -12.8230   -3.1159    6.8021 C   0  0  0  0  0  0  0  0  0  0  0  0
  1 14  1  0  0  0  0
  1  2  2  0  0  0  0
  3  2  1  0  0  0  0
  3  8  2  0  0  0  0
  4  3  1  0  0  0  0
  5  7  2  0  0  0  0
  5  4  1  0  0  0  0
  6  5  1  0  0  0  0
  7  1  1  0  0  0  0
  9 10  1  0  0  0  0
  9  8  1  0  0  0  0
 11  9  2  0  0  0  0
 12 11  1  0  0  0  0
 13  4  2  0  0  0  0
 13 11  1  0  0  0  0
 14 15  1  0  0  0  0
 16 15  1  0  0  0  0
 17 16  1  0  0  0  0
 18 17  1  0  0  0  0
 18 19  1  0  0  0  0
 19 14  1  0  0  0  0
 20 10  1  0  0  0  0
 21 12  1  0  0  0  0
M  END
>  <CHROM.1>
171.74254202,75.35878865,100.71961807,-8.94651509,0.02397080,5.48828726,-0.03593097
-0.72837425,-1.68751722

>  <Name>
lig.pdb

>  <RI>
2.98315e+07

>  <Rbt.Current_Directory>
/home/itssahil/PROJECTS/Mol_Feturizer/New_Systems/rnas/2lwk

>  <Rbt.Executable>
rbdock ($Id: //depot/dev/client3/rdock/2013.1/src/exe/rbdock.cxx#4 $)

>  <Rbt.Library>
libRbt.so (2013.1, Build901 2013/11/27)

>  <Rbt.Parameter_File>
/export/apps/rDock/src/rDock_2013.1_src/data/scripts/dock_solv.prm

>  <Rbt.Receptor>
prm/pocket_docking_5.prm

>  <SCORE>
-19.3525

>  <SCORE.INTER>
-17.3206

>  <SCORE.INTER.CONST>
1

>  <SCORE.INTER.POLAR>
-1.93882

>  <SCORE.INTER.ROT>
3

>  <SCORE.INTER.SOLV>
6.87407

>  <SCORE.INTER.VDW>
-12.9757

>  <SCORE.INTER.norm>
-0.824792

>  <SCORE.INTRA>
-2.03189

>  <SCORE.INTRA.DIHEDRAL>
0.905612

>  <SCORE.INTRA.DIHEDRAL.0>
8.84257

>  <SCORE.INTRA.POLAR>
0

>  <SCORE.INTRA.POLAR.0>
0

>  <SCORE.INTRA.REPUL>
0

>  <SCORE.INTRA.REPUL.0>
0

>  <SCORE.INTRA.SOLV>
-0.0366848

>  <SCORE.INTRA.SOLV.lig_0>
-17.1313

>  <SCORE.INTRA.VDW>
-2.46635

>  <SCORE.INTRA.VDW.0>
6.34071

>  <SCORE.INTRA.norm>
-0.0967566

>  <SCORE.RESTR>
0

>  <SCORE.RESTR.CAVITY>
0

>  <SCORE.RESTR.norm>
0

>  <SCORE.SYSTEM>
0

>  <SCORE.SYSTEM.CONST>
0

>  <SCORE.SYSTEM.DIHEDRAL>
0

>  <SCORE.SYSTEM.SOLV>
0

>  <SCORE.SYSTEM.norm>
0

>  <SCORE.heavy>
21

>  <SCORE.norm>
-0.921549

>  <RMSD>
3.337

$$$$
lig.pdb
 OpenBabel11021811453D
libRbt.so/2013.1/901 2013/11/27
 21 23  0  0  0  0  0  0  0  0999 V2000
   -8.1399    0.2290    5.2851 C   0  0  0  0  0  0  0  0  0  0  0  0
   -7.9861   -0.8407    4.5127 N   0  0  0  0  0  0  0  0  0  0  0  0
   -8.9816   -1.6960    4.3635 C   0  0  0  0  0  0  0  0  0  0  0  0
  -10.1284   -1.5186    5.0501 C   0  0  0  0  0  0  0  0  0  0  0  0
  -10.2812   -0.4367    5.8253 C   0  0  0  0  0  0  0  0  0  0  0  0
  -11.4091   -0.2560    6.5114 N   0  0  0  0  0  0  0  0  0  0  0  0
   -9.2828    0.4328    5.9416 N   0  0  0  0  0  0  0  0  0  0  0  0
   -8.8260   -2.7629    3.5620 C   0  0  0  0  0  0  0  0  0  0  0  0
   -9.7896   -3.7343    3.5521 C   0  0  0  0  0  0  0  0  0  0  0  0
   -9.3642   -5.0826    3.4881 O   0  0  0  0  0  0  0  0  0  0  0  0
  -10.9902   -3.4485    4.0825 C   0  0  0  0  0  0  0  0  0  0  0  0
  -12.1285   -4.2058    3.6967 O   0  0  0  0  0  0  0  0  0  0  0  0
  -11.1305   -2.3986    4.9154 C   0  0  0  0  0  0  0  0  0  0  0  0
   -7.1427    1.0869    5.4142 N   0  0  0  0  0  0  0  0  0  0  0  0
   -6.7309    1.6933    4.2966 C   0  0  0  0  0  0  0  0  0  0  0  0
   -5.8326    0.7610    3.4979 C   0  0  0  0  0  0  0  0  0  0  0  0
   -4.7234    0.4307    4.2487 N   0  0  0  0  0  0  0  0  0  0  0  0
   -5.1739   -0.2279    5.3720 C   0  0  0  0  0  0  0  0  0  0  0  0
   -6.0679    0.7026    6.1745 C   0  0  0  0  0  0  0  0  0  0  0  0
   -8.9001   -5.4544    4.7607 C   0  0  0  0  0  0  0  0  0  0  0  0
  -12.4452   -5.1015    4.7300 C   0  0  0  0  0  0  0  0  0  0  0  0
  1 14  1  0  0  0  0
  1  2  2  0  0  0  0
  3  2  1  0  0  0  0
  3  8  2  0  0  0  0
  4  3  1  0  0  0  0
  5  7  2  0  0  0  0
  5  4  1  0  0  0  0
  6  5  1  0  0  0  0
  7  1  1  0  0  0  0
  9 10  1  0  0  0  0
  9  8  1  0  0  0  0
 11  9  2  0  0  0  0
 12 11  1  0  0  0  0
 13  4  2  0  0  0  0
 13 11  1  0  0  0  0
 14 15  1  0  0  0  0
 16 15  1  0  0  0  0
 17 16  1  0  0  0  0
 18 17  1  0  0  0  0
 18 19  1  0  0  0  0
 19 14  1  0  0  0  0
 20 10  1  0  0  0  0
 21 12  1  0  0  0  0
M  END
>  <CHROM.1>
61.19042533,76.55784971,103.88657244,-8.82936719,-1.54866940,4.72986870,0.76675972
0.26315162,0.38917109

>  <Name>
lig.pdb

>  <RI>
3.31914e+07

>  <Rbt.Current_Directory>
/home/itssahil/PROJECTS/Mol_Feturizer/New_Systems/rnas/2lwk

>  <Rbt.Executable>
rbdock ($Id: //depot/dev/client3/rdock/2013.1/src/exe/rbdock.cxx#4 $)

>  <Rbt.Library>
libRbt.so (2013.1, Build901 2013/11/27)

>  <Rbt.Parameter_File>
/export/apps/rDock/src/rDock_2013.1_src/data/scripts/dock_solv.prm

>  <Rbt.Receptor>
prm/pocket_docking_3.prm

>  <SCORE>
-20.717

>  <SCORE.INTER>
-16.9142

>  <SCORE.INTER.CONST>
1

>  <SCORE.INTER.POLAR>
-2.83095

>  <SCORE.INTER.ROT>
3

>  <SCORE.INTER.SOLV>
6.08667

>  <SCORE.INTER.VDW>
-9.46848

>  <SCORE.INTER.norm>
-0.805436

>  <SCORE.INTRA>
-3.91901

>  <SCORE.INTRA.DIHEDRAL>
0.81396

>  <SCORE.INTRA.DIHEDRAL.0>
8.84257

>  <SCORE.INTRA.POLAR>
0

>  <SCORE.INTRA.POLAR.0>
0

>  <SCORE.INTRA.REPUL>
0

>  <SCORE.INTRA.REPUL.0>
0

>  <SCORE.INTRA.SOLV>
0.0983042

>  <SCORE.INTRA.SOLV.lig_0>
-17.1313

>  <SCORE.INTRA.VDW>
-4.37514

>  <SCORE.INTRA.VDW.0>
6.34071

>  <SCORE.INTRA.norm>
-0.186619

>  <SCORE.RESTR>
0.116167

>  <SCORE.RESTR.CAVITY>
0.116167

>  <SCORE.RESTR.norm>
0.00553175

>  <SCORE.SYSTEM>
0

>  <SCORE.SYSTEM.CONST>
0

>  <SCORE.SYSTEM.DIHEDRAL>
0

>  <SCORE.SYSTEM.SOLV>
0

>  <SCORE.SYSTEM.norm>
0

>  <SCORE.heavy>
21

>  <SCORE.norm>
-0.986524

>  <RMSD>
3.342

$$$$
lig.pdb
 OpenBabel11021811453D
libRbt.so/2013.1/901 2013/11/27
 21 23  0  0  0  0  0  0  0  0999 V2000
   -8.1384    0.2313    5.2829 C   0  0  0  0  0  0  0  0  0  0  0  0
   -7.9843   -0.8378    4.5098 N   0  0  0  0  0  0  0  0  0  0  0  0
   -8.9792   -1.6938    4.3610 C   0  0  0  0  0  0  0  0  0  0  0  0
  -10.1256   -1.5179    5.0487 C   0  0  0  0  0  0  0  0  0  0  0  0
  -10.2786   -0.4365    5.8247 C   0  0  0  0  0  0  0  0  0  0  0  0
  -11.4060   -0.2572    6.5120 N   0  0  0  0  0  0  0  0  0  0  0  0
   -9.2808    0.4337    5.9406 N   0  0  0  0  0  0  0  0  0  0  0  0
   -8.8235   -2.7601    3.5588 C   0  0  0  0  0  0  0  0  0  0  0  0
   -9.7863   -3.7323    3.5492 C   0  0  0  0  0  0  0  0  0  0  0  0
   -9.3598   -5.0803    3.4839 O   0  0  0  0  0  0  0  0  0  0  0  0
  -10.9866   -3.4479    4.0807 C   0  0  0  0  0  0  0  0  0  0  0  0
  -12.1247   -4.2059    3.6955 O   0  0  0  0  0  0  0  0  0  0  0  0
  -11.1270   -2.3986    4.9144 C   0  0  0  0  0  0  0  0  0  0  0  0
   -7.1417    1.0899    5.4117 N   0  0  0  0  0  0  0  0  0  0  0  0
   -6.7109    1.6741    4.2895 C   0  0  0  0  0  0  0  0  0  0  0  0
   -5.8015    0.7252    3.5235 C   0  0  0  0  0  0  0  0  0  0  0  0
   -4.7052    0.4077    4.2983 N   0  0  0  0  0  0  0  0  0  0  0  0
   -5.1750   -0.2284    5.4266 C   0  0  0  0  0  0  0  0  0  0  0  0
   -6.0801    0.7187    6.1966 C   0  0  0  0  0  0  0  0  0  0  0  0
   -8.9567   -5.4730    4.7709 C   0  0  0  0  0  0  0  0  0  0  0  0
  -12.4775   -5.0582    4.7535 C   0  0  0  0  0  0  0  0  0  0  0  0
  1 14  1  0  0  0  0
  1  2  2  0  0  0  0
  3  2  1  0  0  0  0
  3  8  2  0  0  0  0
  4  3  1  0  0  0  0
  5  7  2  0  0  0  0
  5  4  1  0  0  0  0
  6  5  1  0  0  0  0
  7  1  1  0  0  0  0
  9 10  1  0  0  0  0
  9  8  1  0  0  0  0
 11  9  2  0  0  0  0
 12 11  1  0  0  0  0
 13  4  2  0  0  0  0
 13 11  1  0  0  0  0
 14 15  1  0  0  0  0
 16 15  1  0  0  0  0
 17 16  1  0  0  0  0
 18 17  1  0  0  0  0
 18 19  1  0  0  0  0
 19 14  1  0  0  0  0
 20 10  1  0  0  0  0
 21 12  1  0  0  0  0
M  END
>  <CHROM.1>
59.68411858,79.45095403,106.61813280,-8.82941757,-1.54965804,4.73757977,0.76393468
0.26026435,0.39154575

>  <Name>
lig.pdb

>  <RI>
3.31914e+07

>  <Rbt.Current_Directory>
/home/itssahil/PROJECTS/Mol_Feturizer/New_Systems/rnas/2lwk

>  <Rbt.Executable>
rbdock ($Id: //depot/dev/client3/rdock/2013.1/src/exe/rbdock.cxx#4 $)

>  <Rbt.Library>
libRbt.so (2013.1, Build901 2013/11/27)

>  <Rbt.Parameter_File>
/export/apps/rDock/src/rDock_2013.1_src/data/scripts/dock_solv.prm

>  <Rbt.Receptor>
prm/pocket_docking_3.prm

>  <SCORE>
-20.7401

>  <SCORE.INTER>
-16.9609

>  <SCORE.INTER.CONST>
1

>  <SCORE.INTER.POLAR>
-2.83398

>  <SCORE.INTER.ROT>
3

>  <SCORE.INTER.SOLV>
6.08369

>  <SCORE.INTER.VDW>
-9.48854

>  <SCORE.INTER.norm>
-0.807661

>  <SCORE.INTRA>
-3.89393

>  <SCORE.INTRA.DIHEDRAL>
0.710929

>  <SCORE.INTRA.DIHEDRAL.0>
8.84257

>  <SCORE.INTRA.POLAR>
0

>  <SCORE.INTRA.POLAR.0>
0

>  <SCORE.INTRA.REPUL>
0

>  <SCORE.INTRA.REPUL.0>
0

>  <SCORE.INTRA.SOLV>
0.0940332

>  <SCORE.INTRA.SOLV.lig_0>
-17.1313

>  <SCORE.INTRA.VDW>
-4.29641

>  <SCORE.INTRA.VDW.0>
6.34071

>  <SCORE.INTRA.norm>
-0.185425

>  <SCORE.RESTR>
0.114668

>  <SCORE.RESTR.CAVITY>
0.114668

>  <SCORE.RESTR.norm>
0.00546037

>  <SCORE.SYSTEM>
0

>  <SCORE.SYSTEM.CONST>
0

>  <SCORE.SYSTEM.DIHEDRAL>
0

>  <SCORE.SYSTEM.SOLV>
0

>  <SCORE.SYSTEM.norm>
0

>  <SCORE.heavy>
21

>  <SCORE.norm>
-0.987626

>  <RMSD>
3.345

$$$$
lig.pdb
 OpenBabel11021811453D
libRbt.so/2013.1/901 2013/11/27
 21 23  0  0  0  0  0  0  0  0999 V2000
   -8.1349    0.2375    5.2796 C   0  0  0  0  0  0  0  0  0  0  0  0
   -7.9781   -0.8289    4.5034 N   0  0  0  0  0  0  0  0  0  0  0  0
   -8.9721   -1.6850    4.3490 C   0  0  0  0  0  0  0  0  0  0  0  0
  -10.1205   -1.5119    5.0341 C   0  0  0  0  0  0  0  0  0  0  0  0
  -10.2763   -0.4332    5.8132 C   0  0  0  0  0  0  0  0  0  0  0  0
  -11.4057   -0.2568    6.4979 N   0  0  0  0  0  0  0  0  0  0  0  0
   -9.2793    0.4372    5.9347 N   0  0  0  0  0  0  0  0  0  0  0  0
   -8.8135   -2.7486    3.5437 C   0  0  0  0  0  0  0  0  0  0  0  0
   -9.7758   -3.7212    3.5282 C   0  0  0  0  0  0  0  0  0  0  0  0
   -9.3483   -5.0687    3.4597 O   0  0  0  0  0  0  0  0  0  0  0  0
  -10.9778   -3.4392    4.0574 C   0  0  0  0  0  0  0  0  0  0  0  0
  -12.1143   -4.1966    3.6665 O   0  0  0  0  0  0  0  0  0  0  0  0
  -11.1211   -2.3928    4.8940 C   0  0  0  0  0  0  0  0  0  0  0  0
   -7.1391    1.0963    5.4139 N   0  0  0  0  0  0  0  0  0  0  0  0
   -6.6740    1.6487    4.2893 C   0  0  0  0  0  0  0  0  0  0  0  0
   -5.7466    0.6768    3.5756 C   0  0  0  0  0  0  0  0  0  0  0  0
   -4.6743    0.3769    4.3900 N   0  0  0  0  0  0  0  0  0  0  0  0
   -5.1787   -0.2272    5.5210 C   0  0  0  0  0  0  0  0  0  0  0  0
   -6.1019    0.7432    6.2388 C   0  0  0  0  0  0  0  0  0  0  0  0
   -8.9052   -5.4511    4.7366 C   0  0  0  0  0  0  0  0  0  0  0  0
  -12.3982   -5.1345    4.6716 C   0  0  0  0  0  0  0  0  0  0  0  0
  1 14  1  0  0  0  0
  1  2  2  0  0  0  0
  3  2  1  0  0  0  0
  3  8  2  0  0  0  0
  4  3  1  0  0  0  0
  5  7  2  0  0  0  0
  5  4  1  0  0  0  0
  6  5  1  0  0  0  0
  7  1  1  0  0  0  0
  9 10  1  0  0  0  0
  9  8  1  0  0  0  0
 11  9  2  0  0  0  0
 12 11  1  0  0  0  0
 13  4  2  0  0  0  0
 13 11  1  0  0  0  0
 14 15  1  0  0  0  0
 16 15  1  0  0  0  0
 17 16  1  0  0  0  0
 18 17  1  0  0  0  0
 18 19  1  0  0  0  0
 19 14  1  0  0  0  0
 20 10  1  0  0  0  0
 21 12  1  0  0  0  0
M  END
>  <CHROM.1>
57.39048431,77.44157693,101.47583728,-8.81382596,-1.55171214,4.73607560,0.77008904
0.24748910,0.39424104

>  <Name>
lig.pdb

>  <RI>
3.31914e+07

>  <Rbt.Current_Directory>
/home/itssahil/PROJECTS/Mol_Feturizer/New_Systems/rnas/2lwk

>  <Rbt.Executable>
rbdock ($Id: //depot/dev/client3/rdock/2013.1/src/exe/rbdock.cxx#4 $)

>  <Rbt.Library>
libRbt.so (2013.1, Build901 2013/11/27)

>  <Rbt.Parameter_File>
/export/apps/rDock/src/rDock_2013.1_src/data/scripts/dock_solv.prm

>  <Rbt.Receptor>
prm/pocket_docking_3.prm

>  <SCORE>
-20.7278

>  <SCORE.INTER>
-16.9965

>  <SCORE.INTER.CONST>
1

>  <SCORE.INTER.POLAR>
-2.83517

>  <SCORE.INTER.ROT>
3

>  <SCORE.INTER.SOLV>
6.11777

>  <SCORE.INTER.VDW>
-9.5197

>  <SCORE.INTER.norm>
-0.809357

>  <SCORE.INTRA>
-3.84368

>  <SCORE.INTRA.DIHEDRAL>
0.891199

>  <SCORE.INTRA.DIHEDRAL.0>
8.84257

>  <SCORE.INTRA.POLAR>
0

>  <SCORE.INTRA.POLAR.0>
0

>  <SCORE.INTRA.REPUL>
0

>  <SCORE.INTRA.REPUL.0>
0

>  <SCORE.INTRA.SOLV>
0.0986492

>  <SCORE.INTRA.SOLV.lig_0>
-17.1313

>  <SCORE.INTRA.VDW>
-4.3386

>  <SCORE.INTRA.VDW.0>
6.34071

>  <SCORE.INTRA.norm>
-0.183032

>  <SCORE.RESTR>
0.112368

>  <SCORE.RESTR.CAVITY>
0.112368

>  <SCORE.RESTR.norm>
0.00535087

>  <SCORE.SYSTEM>
0

>  <SCORE.SYSTEM.CONST>
0

>  <SCORE.SYSTEM.DIHEDRAL>
0

>  <SCORE.SYSTEM.SOLV>
0

>  <SCORE.SYSTEM.norm>
0

>  <SCORE.heavy>
21

>  <SCORE.norm>
-0.987038

>  <RMSD>
3.345

$$$$
lig.pdb
 OpenBabel11021811453D
libRbt.so/2013.1/901 2013/11/27
 21 23  0  0  0  0  0  0  0  0999 V2000
   -8.1528    0.2067    5.3371 C   0  0  0  0  0  0  0  0  0  0  0  0
   -8.0011   -0.8553    4.5540 N   0  0  0  0  0  0  0  0  0  0  0  0
   -8.9983   -1.7072    4.3964 C   0  0  0  0  0  0  0  0  0  0  0  0
  -10.1446   -1.5347    5.0852 C   0  0  0  0  0  0  0  0  0  0  0  0
  -10.2951   -0.4603    5.8713 C   0  0  0  0  0  0  0  0  0  0  0  0
  -11.4225   -0.2845    6.5596 N   0  0  0  0  0  0  0  0  0  0  0  0
   -9.2951    0.4060    5.9960 N   0  0  0  0  0  0  0  0  0  0  0  0
   -8.8449   -2.7663    3.5842 C   0  0  0  0  0  0  0  0  0  0  0  0
   -9.8104   -3.7357    3.5648 C   0  0  0  0  0  0  0  0  0  0  0  0
   -9.3874   -5.0841    3.4870 O   0  0  0  0  0  0  0  0  0  0  0  0
  -11.0102   -3.4531    4.0984 C   0  0  0  0  0  0  0  0  0  0  0  0
  -12.1501   -4.2043    3.7054 O   0  0  0  0  0  0  0  0  0  0  0  0
  -11.1483   -2.4114    4.9419 C   0  0  0  0  0  0  0  0  0  0  0  0
   -7.1539    1.0614    5.4746 N   0  0  0  0  0  0  0  0  0  0  0  0
   -6.6800    1.6085    4.3510 C   0  0  0  0  0  0  0  0  0  0  0  0
   -5.7530    0.6304    3.6453 C   0  0  0  0  0  0  0  0  0  0  0  0
   -4.6866    0.3281    4.4665 N   0  0  0  0  0  0  0  0  0  0  0  0
   -5.2000   -0.2705    5.5963 C   0  0  0  0  0  0  0  0  0  0  0  0
   -6.1229    0.7060    6.3062 C   0  0  0  0  0  0  0  0  0  0  0  0
   -8.9498   -5.4782    4.7623 C   0  0  0  0  0  0  0  0  0  0  0  0
  -12.4906   -5.0837    4.7451 C   0  0  0  0  0  0  0  0  0  0  0  0
  1 14  1  0  0  0  0
  1  2  2  0  0  0  0
  3  2  1  0  0  0  0
  3  8  2  0  0  0  0
  4  3  1  0  0  0  0
  5  7  2  0  0  0  0
  5  4  1  0  0  0  0
  6  5  1  0  0  0  0
  7  1  1  0  0  0  0
  9 10  1  0  0  0  0
  9  8  1  0  0  0  0
 11  9  2  0  0  0  0
 12 11  1  0  0  0  0
 13  4  2  0  0  0  0
 13 11  1  0  0  0  0
 14 15  1  0  0  0  0
 16 15  1  0  0  0  0
 17 16  1  0  0  0  0
 18 17  1  0  0  0  0
 18 19  1  0  0  0  0
 19 14  1  0  0  0  0
 20 10  1  0  0  0  0
 21 12  1  0  0  0  0
M  END
>  <CHROM.1>
56.70240311,77.76689860,105.51221766,-8.84090607,-1.57551079,4.79002079,0.76188271
0.24647530,0.40272997

>  <Name>
lig.pdb

>  <RI>
2.59814e+07

>  <Rbt.Current_Directory>
/home/itssahil/PROJECTS/Mol_Feturizer/New_Systems/rnas/2lwk

>  <Rbt.Executable>
rbdock ($Id: //depot/dev/client3/rdock/2013.1/src/exe/rbdock.cxx#4 $)

>  <Rbt.Library>
libRbt.so (2013.1, Build901 2013/11/27)

>  <Rbt.Parameter_File>
/export/apps/rDock/src/rDock_2013.1_src/data/scripts/dock_solv.prm

>  <Rbt.Receptor>
prm/pocket_docking_6.prm

>  <SCORE>
-20.8879

>  <SCORE.INTER>
-17.062

>  <SCORE.INTER.CONST>
1

>  <SCORE.INTER.POLAR>
-2.83974

>  <SCORE.INTER.ROT>
3

>  <SCORE.INTER.SOLV>
5.99758

>  <SCORE.INTER.VDW>
-9.50809

>  <SCORE.INTER.norm>
-0.812478

>  <SCORE.INTRA>
-3.82587

>  <SCORE.INTRA.DIHEDRAL>
0.759665

>  <SCORE.INTRA.DIHEDRAL.0>
8.84257

>  <SCORE.INTRA.POLAR>
0

>  <SCORE.INTRA.POLAR.0>
0

>  <SCORE.INTRA.REPUL>
0

>  <SCORE.INTRA.REPUL.0>
0

>  <SCORE.INTRA.SOLV>
0.0944819

>  <SCORE.INTRA.SOLV.lig_0>
-17.1313

>  <SCORE.INTRA.VDW>
-4.25294

>  <SCORE.INTRA.VDW.0>
6.34071

>  <SCORE.INTRA.norm>
-0.182184

>  <SCORE.RESTR>
0

>  <SCORE.RESTR.CAVITY>
0

>  <SCORE.RESTR.norm>
0

>  <SCORE.SYSTEM>
0

>  <SCORE.SYSTEM.CONST>
0

>  <SCORE.SYSTEM.DIHEDRAL>
0

>  <SCORE.SYSTEM.SOLV>
0

>  <SCORE.SYSTEM.norm>
0

>  <SCORE.heavy>
21

>  <SCORE.norm>
-0.994662

>  <RMSD>
3.379

$$$$
lig.pdb
 OpenBabel11021811453D
libRbt.so/2013.1/901 2013/11/27
 21 23  0  0  0  0  0  0  0  0999 V2000
   -6.5457    1.4916    4.4605 C   0  0  0  0  0  0  0  0  0  0  0  0
   -5.9565    0.7982    3.4928 N   0  0  0  0  0  0  0  0  0  0  0  0
   -6.2567   -0.4761    3.3168 C   0  0  0  0  0  0  0  0  0  0  0  0
   -7.1089   -1.0887    4.1633 C   0  0  0  0  0  0  0  0  0  0  0  0
   -7.7040   -0.3852    5.1358 C   0  0  0  0  0  0  0  0  0  0  0  0
   -8.5436   -0.9835    5.9801 N   0  0  0  0  0  0  0  0  0  0  0  0
   -7.4168    0.9042    5.2819 N   0  0  0  0  0  0  0  0  0  0  0  0
   -5.6739   -1.1643    2.3211 C   0  0  0  0  0  0  0  0  0  0  0  0
   -5.8513   -2.5195    2.2558 C   0  0  0  0  0  0  0  0  0  0  0  0
   -4.7362   -3.3124    1.8937 O   0  0  0  0  0  0  0  0  0  0  0  0
   -6.8425   -3.0695    2.9764 C   0  0  0  0  0  0  0  0  0  0  0  0
   -7.3618   -4.3387    2.6056 O   0  0  0  0  0  0  0  0  0  0  0  0
   -7.3966   -2.3873    3.9977 C   0  0  0  0  0  0  0  0  0  0  0  0
   -6.2498    2.7703    4.6171 N   0  0  0  0  0  0  0  0  0  0  0  0
   -6.8338    3.6242    3.7709 C   0  0  0  0  0  0  0  0  0  0  0  0
   -6.1064    3.6140    2.4349 C   0  0  0  0  0  0  0  0  0  0  0  0
   -4.7970    4.0080    2.6174 N   0  0  0  0  0  0  0  0  0  0  0  0
   -4.2092    3.0892    3.4592 C   0  0  0  0  0  0  0  0  0  0  0  0
   -4.9308    3.1003    4.7965 C   0  0  0  0  0  0  0  0  0  0  0  0
   -4.9653   -3.8252    0.6062 C   0  0  0  0  0  0  0  0  0  0  0  0
   -6.9119   -5.2966    3.5278 C   0  0  0  0  0  0  0  0  0  0  0  0
  1 14  1  0  0  0  0
  1  2  2  0  0  0  0
  3  2  1  0  0  0  0
  3  8  2  0  0  0  0
  4  3  1  0  0  0  0
  5  7  2  0  0  0  0
  5  4  1  0  0  0  0
  6  5  1  0  0  0  0
  7  1  1  0  0  0  0
  9 10  1  0  0  0  0
  9  8  1  0  0  0  0
 11  9  2  0  0  0  0
 12 11  1  0  0  0  0
 13  4  2  0  0  0  0
 13 11  1  0  0  0  0
 14 15  1  0  0  0  0
 16 15  1  0  0  0  0
 17 16  1  0  0  0  0
 18 17  1  0  0  0  0
 18 19  1  0  0  0  0
 19 14  1  0  0  0  0
 20 10  1  0  0  0  0
 21 12  1  0  0  0  0
M  END
>  <CHROM.1>
78.67906693,-109.58624894,106.68843557,-6.29160141,-0.28504980,3.49311128
1.42112529,0.83698221,0.27227343

>  <Name>
lig.pdb

>  <RI>
1.4775e+07

>  <Rbt.Current_Directory>
/home/itssahil/PROJECTS/Mol_Feturizer/New_Systems/rnas/2lwk

>  <Rbt.Executable>
rbdock ($Id: //depot/dev/client3/rdock/2013.1/src/exe/rbdock.cxx#4 $)

>  <Rbt.Library>
libRbt.so (2013.1, Build901 2013/11/27)

>  <Rbt.Parameter_File>
/export/apps/rDock/src/rDock_2013.1_src/data/scripts/dock_solv.prm

>  <Rbt.Receptor>
prm/pocket_docking_4.prm

>  <SCORE>
-15.8362

>  <SCORE.INTER>
-10.5567

>  <SCORE.INTER.CONST>
1

>  <SCORE.INTER.POLAR>
-1.46464

>  <SCORE.INTER.ROT>
3

>  <SCORE.INTER.SOLV>
4.1383

>  <SCORE.INTER.VDW>
-9.13511

>  <SCORE.INTER.norm>
-0.5027

>  <SCORE.INTRA>
-5.27953

>  <SCORE.INTRA.DIHEDRAL>
0.630265

>  <SCORE.INTRA.DIHEDRAL.0>
8.84257

>  <SCORE.INTRA.POLAR>
0

>  <SCORE.INTRA.POLAR.0>
0

>  <SCORE.INTRA.REPUL>
0

>  <SCORE.INTRA.REPUL.0>
0

>  <SCORE.INTRA.SOLV>
0.141289

>  <SCORE.INTRA.SOLV.lig_0>
-17.1313

>  <SCORE.INTRA.VDW>
-5.6653

>  <SCORE.INTRA.VDW.0>
6.34071

>  <SCORE.INTRA.norm>
-0.251406

>  <SCORE.RESTR>
0

>  <SCORE.RESTR.CAVITY>
0

>  <SCORE.RESTR.norm>
0

>  <SCORE.SYSTEM>
0

>  <SCORE.SYSTEM.CONST>
0

>  <SCORE.SYSTEM.DIHEDRAL>
0

>  <SCORE.SYSTEM.SOLV>
0

>  <SCORE.SYSTEM.norm>
0

>  <SCORE.heavy>
21

>  <SCORE.norm>
-0.754106

>  <RMSD>
3.618

$$$$
lig.pdb
 OpenBabel11021811453D
libRbt.so/2013.1/901 2013/11/27
 21 23  0  0  0  0  0  0  0  0999 V2000
   -5.3294    1.3072    4.5192 C   0  0  0  0  0  0  0  0  0  0  0  0
   -5.6888    0.0318    4.6115 N   0  0  0  0  0  0  0  0  0  0  0  0
   -5.7451   -0.7185    3.5259 C   0  0  0  0  0  0  0  0  0  0  0  0
   -5.5047   -0.1708    2.3174 C   0  0  0  0  0  0  0  0  0  0  0  0
   -5.1389    1.1149    2.2287 C   0  0  0  0  0  0  0  0  0  0  0  0
   -4.9045    1.6658    1.0382 N   0  0  0  0  0  0  0  0  0  0  0  0
   -5.0554    1.8505    3.3324 N   0  0  0  0  0  0  0  0  0  0  0  0
   -6.0867   -2.0135    3.6306 C   0  0  0  0  0  0  0  0  0  0  0  0
   -6.3168   -2.7356    2.4913 C   0  0  0  0  0  0  0  0  0  0  0  0
   -7.3953   -3.6519    2.4995 O   0  0  0  0  0  0  0  0  0  0  0  0
   -5.8883   -2.2354    1.3206 C   0  0  0  0  0  0  0  0  0  0  0  0
   -5.6777   -3.1060    0.2179 O   0  0  0  0  0  0  0  0  0  0  0  0
   -5.5833   -0.9273    1.2137 C   0  0  0  0  0  0  0  0  0  0  0  0
   -5.2607    2.0445    5.6142 N   0  0  0  0  0  0  0  0  0  0  0  0
   -6.0308    3.1363    5.6457 C   0  0  0  0  0  0  0  0  0  0  0  0
   -5.3823    4.2554    4.8450 C   0  0  0  0  0  0  0  0  0  0  0  0
   -4.1574    4.5698    5.3963 N   0  0  0  0  0  0  0  0  0  0  0  0
   -3.3721    3.4407    5.3135 C   0  0  0  0  0  0  0  0  0  0  0  0
   -4.0151    2.3222    6.1165 C   0  0  0  0  0  0  0  0  0  0  0  0
   -6.9871   -4.7998    3.1986 C   0  0  0  0  0  0  0  0  0  0  0  0
   -4.5454   -3.8944    0.4762 C   0  0  0  0  0  0  0  0  0  0  0  0
  1 14  1  0  0  0  0
  1  2  2  0  0  0  0
  3  2  1  0  0  0  0
  3  8  2  0  0  0  0
  4  3  1  0  0  0  0
  5  7  2  0  0  0  0
  5  4  1  0  0  0  0
  6  5  1  0  0  0  0
  7  1  1  0  0  0  0
  9 10  1  0  0  0  0
  9  8  1  0  0  0  0
 11  9  2  0  0  0  0
 12 11  1  0  0  0  0
 13  4  2  0  0  0  0
 13 11  1  0  0  0  0
 14 15  1  0  0  0  0
 16 15  1  0  0  0  0
 17 16  1  0  0  0  0
 18 17  1  0  0  0  0
 18 19  1  0  0  0  0
 19 14  1  0  0  0  0
 20 10  1  0  0  0  0
 21 12  1  0  0  0  0
M  END
>  <CHROM.1>
-121.54116119,-77.89945182,-70.74027245,-5.42831892,0.06002384,3.29654103
1.07164857,1.17695279,0.95296174

>  <Name>
lig.pdb

>  <RI>
1.4775e+07

>  <Rbt.Current_Directory>
/home/itssahil/PROJECTS/Mol_Feturizer/New_Systems/rnas/2lwk

>  <Rbt.Executable>
rbdock ($Id: //depot/dev/client3/rdock/2013.1/src/exe/rbdock.cxx#4 $)

>  <Rbt.Library>
libRbt.so (2013.1, Build901 2013/11/27)

>  <Rbt.Parameter_File>
/export/apps/rDock/src/rDock_2013.1_src/data/scripts/dock_solv.prm

>  <Rbt.Receptor>
prm/pocket_docking_4.prm

>  <SCORE>
-15.766

>  <SCORE.INTER>
-10.7481

>  <SCORE.INTER.CONST>
1

>  <SCORE.INTER.POLAR>
-1.37892

>  <SCORE.INTER.ROT>
3

>  <SCORE.INTER.SOLV>
4.45128

>  <SCORE.INTER.VDW>
-9.65276

>  <SCORE.INTER.norm>
-0.511815

>  <SCORE.INTRA>
-5.01792

>  <SCORE.INTRA.DIHEDRAL>
-0.151802

>  <SCORE.INTRA.DIHEDRAL.0>
8.84257

>  <SCORE.INTRA.POLAR>
0

>  <SCORE.INTRA.POLAR.0>
0

>  <SCORE.INTRA.REPUL>
0

>  <SCORE.INTRA.REPUL.0>
0

>  <SCORE.INTRA.SOLV>
0.0785596

>  <SCORE.INTRA.SOLV.lig_0>
-17.1313

>  <SCORE.INTRA.VDW>
-4.9813

>  <SCORE.INTRA.VDW.0>
6.34071

>  <SCORE.INTRA.norm>
-0.238949

>  <SCORE.RESTR>
0

>  <SCORE.RESTR.CAVITY>
0

>  <SCORE.RESTR.norm>
0

>  <SCORE.SYSTEM>
0

>  <SCORE.SYSTEM.CONST>
0

>  <SCORE.SYSTEM.DIHEDRAL>
0

>  <SCORE.SYSTEM.SOLV>
0

>  <SCORE.SYSTEM.norm>
0

>  <SCORE.heavy>
21

>  <SCORE.norm>
-0.750764

>  <RMSD>
3.751

$$$$
lig.pdb
 OpenBabel11021811453D
libRbt.so/2013.1/901 2013/11/27
 21 23  0  0  0  0  0  0  0  0999 V2000
   -5.4822    3.0637    5.8188 C   0  0  0  0  0  0  0  0  0  0  0  0
   -5.5447    1.9349    6.5162 N   0  0  0  0  0  0  0  0  0  0  0  0
   -6.2555    0.9177    6.0636 C   0  0  0  0  0  0  0  0  0  0  0  0
   -6.9724    1.0508    4.9294 C   0  0  0  0  0  0  0  0  0  0  0  0
   -6.9040    2.1895    4.2269 C   0  0  0  0  0  0  0  0  0  0  0  0
   -7.6131    2.3316    3.1077 N   0  0  0  0  0  0  0  0  0  0  0  0
   -6.1596    3.1940    4.6774 N   0  0  0  0  0  0  0  0  0  0  0  0
   -6.2946   -0.2286    6.7631 C   0  0  0  0  0  0  0  0  0  0  0  0
   -7.1700   -1.2098    6.3849 C   0  0  0  0  0  0  0  0  0  0  0  0
   -7.8433   -1.9207    7.4068 O   0  0  0  0  0  0  0  0  0  0  0  0
   -7.7210   -1.1376    5.1620 C   0  0  0  0  0  0  0  0  0  0  0  0
   -8.2397   -2.3116    4.5530 O   0  0  0  0  0  0  0  0  0  0  0  0
   -7.7110    0.0256    4.4820 C   0  0  0  0  0  0  0  0  0  0  0  0
   -4.7547    4.0694    6.2730 N   0  0  0  0  0  0  0  0  0  0  0  0
   -4.3351    4.9573    5.3664 C   0  0  0  0  0  0  0  0  0  0  0  0
   -3.1257    4.4114    4.6225 C   0  0  0  0  0  0  0  0  0  0  0  0
   -2.0988    4.1803    5.5142 N   0  0  0  0  0  0  0  0  0  0  0  0
   -2.5437    3.2332    6.4106 C   0  0  0  0  0  0  0  0  0  0  0  0
   -3.7491    3.7776    7.1588 C   0  0  0  0  0  0  0  0  0  0  0  0
   -8.9350   -1.1452    7.8310 C   0  0  0  0  0  0  0  0  0  0  0  0
   -7.2600   -2.8490    3.7035 C   0  0  0  0  0  0  0  0  0  0  0  0
  1 14  1  0  0  0  0
  1  2  2  0  0  0  0
  3  2  1  0  0  0  0
  3  8  2  0  0  0  0
  4  3  1  0  0  0  0
  5  7  2  0  0  0  0
  5  4  1  0  0  0  0
  6  5  1  0  0  0  0
  7  1  1  0  0  0  0
  9 10  1  0  0  0  0
  9  8  1  0  0  0  0
 11  9  2  0  0  0  0
 12 11  1  0  0  0  0
 13  4  2  0  0  0  0
 13 11  1  0  0  0  0
 14 15  1  0  0  0  0
 16 15  1  0  0  0  0
 17 16  1  0  0  0  0
 18 17  1  0  0  0  0
 18 19  1  0  0  0  0
 19 14  1  0  0  0  0
 20 10  1  0  0  0  0
 21 12  1  0  0  0  0
M  END
>  <CHROM.1>
156.77249272,81.35055489,-95.93100446,-6.03659566,1.34016439,5.56353108,-0.43835038
0.84484633,2.14608342

>  <Name>
lig.pdb

>  <RI>
2.98315e+07

>  <Rbt.Current_Directory>
/home/itssahil/PROJECTS/Mol_Feturizer/New_Systems/rnas/2lwk

>  <Rbt.Executable>
rbdock ($Id: //depot/dev/client3/rdock/2013.1/src/exe/rbdock.cxx#4 $)

>  <Rbt.Library>
libRbt.so (2013.1, Build901 2013/11/27)

>  <Rbt.Parameter_File>
/export/apps/rDock/src/rDock_2013.1_src/data/scripts/dock_solv.prm

>  <Rbt.Receptor>
prm/pocket_docking_5.prm

>  <SCORE>
-10.3106

>  <SCORE.INTER>
-8.17626

>  <SCORE.INTER.CONST>
1

>  <SCORE.INTER.POLAR>
-1.02955

>  <SCORE.INTER.ROT>
3

>  <SCORE.INTER.SOLV>
5.39231

>  <SCORE.INTER.VDW>
-9.41643

>  <SCORE.INTER.norm>
-0.389346

>  <SCORE.INTRA>
-2.13437

>  <SCORE.INTRA.DIHEDRAL>
0.919599

>  <SCORE.INTRA.DIHEDRAL.0>
8.84257

>  <SCORE.INTRA.POLAR>
0

>  <SCORE.INTRA.POLAR.0>
0

>  <SCORE.INTRA.REPUL>
0

>  <SCORE.INTRA.REPUL.0>
0

>  <SCORE.INTRA.SOLV>
-0.088918

>  <SCORE.INTRA.SOLV.lig_0>
-17.1313

>  <SCORE.INTRA.VDW>
-2.54971

>  <SCORE.INTRA.VDW.0>
6.34071

>  <SCORE.INTRA.norm>
-0.101636

>  <SCORE.RESTR>
0

>  <SCORE.RESTR.CAVITY>
0

>  <SCORE.RESTR.norm>
0

>  <SCORE.SYSTEM>
0

>  <SCORE.SYSTEM.CONST>
0

>  <SCORE.SYSTEM.DIHEDRAL>
0

>  <SCORE.SYSTEM.SOLV>
0

>  <SCORE.SYSTEM.norm>
0

>  <SCORE.heavy>
21

>  <SCORE.norm>
-0.490982

>  <RMSD>
3.933

$$$$
lig.pdb
 OpenBabel11021811453D
libRbt.so/2013.1/901 2013/11/27
 21 23  0  0  0  0  0  0  0  0999 V2000
   -5.9104   -1.7889    2.7815 C   0  0  0  0  0  0  0  0  0  0  0  0
   -7.0903   -2.2968    2.4438 N   0  0  0  0  0  0  0  0  0  0  0  0
   -8.1798   -1.9220    3.0900 C   0  0  0  0  0  0  0  0  0  0  0  0
   -8.0831   -1.0773    4.1365 C   0  0  0  0  0  0  0  0  0  0  0  0
   -6.8918   -0.5643    4.4719 C   0  0  0  0  0  0  0  0  0  0  0  0
   -6.7862    0.2671    5.5078 N   0  0  0  0  0  0  0  0  0  0  0  0
   -5.8079   -0.9255    3.7929 N   0  0  0  0  0  0  0  0  0  0  0  0
   -9.3725   -2.4225    2.7270 C   0  0  0  0  0  0  0  0  0  0  0  0
  -10.4661   -2.1710    3.5099 C   0  0  0  0  0  0  0  0  0  0  0  0
  -11.3891   -3.2252    3.7094 O   0  0  0  0  0  0  0  0  0  0  0  0
  -10.3879   -1.1853    4.4190 C   0  0  0  0  0  0  0  0  0  0  0  0
  -11.5777   -0.5835    4.9092 O   0  0  0  0  0  0  0  0  0  0  0  0
   -9.1862   -0.7142    4.8059 C   0  0  0  0  0  0  0  0  0  0  0  0
   -4.8290   -2.1587    2.1174 N   0  0  0  0  0  0  0  0  0  0  0  0
   -4.6044   -1.5399    0.9543 C   0  0  0  0  0  0  0  0  0  0  0  0
   -5.4836   -2.1385   -0.1333 C   0  0  0  0  0  0  0  0  0  0  0  0
   -5.1846   -3.4765   -0.2864 N   0  0  0  0  0  0  0  0  0  0  0  0
   -5.4638   -4.0956    0.9124 C   0  0  0  0  0  0  0  0  0  0  0  0
   -4.5835   -3.5029    2.0001 C   0  0  0  0  0  0  0  0  0  0  0  0
  -10.8299   -4.1260    4.6307 C   0  0  0  0  0  0  0  0  0  0  0  0
  -11.7453   -0.9470    6.2546 C   0  0  0  0  0  0  0  0  0  0  0  0
  1 14  1  0  0  0  0
  1  2  2  0  0  0  0
  3  2  1  0  0  0  0
  3  8  2  0  0  0  0
  4  3  1  0  0  0  0
  5  7  2  0  0  0  0
  5  4  1  0  0  0  0
  6  5  1  0  0  0  0
  7  1  1  0  0  0  0
  9 10  1  0  0  0  0
  9  8  1  0  0  0  0
 11  9  2  0  0  0  0
 12 11  1  0  0  0  0
 13  4  2  0  0  0  0
 13 11  1  0  0  0  0
 14 15  1  0  0  0  0
 16 15  1  0  0  0  0
 17 16  1  0  0  0  0
 18 17  1  0  0  0  0
 18 19  1  0  0  0  0
 19 14  1  0  0  0  0
 20 10  1  0  0  0  0
 21 12  1  0  0  0  0
M  END
>  <CHROM.1>
81.58477292,75.88874023,110.84287977,-7.82627667,-1.94832106,3.18797131,-0.50794279
0.31928892,0.78864458

>  <Name>
lig.pdb

>  <RI>
1.4775e+07

>  <Rbt.Current_Directory>
/home/itssahil/PROJECTS/Mol_Feturizer/New_Systems/rnas/2lwk

>  <Rbt.Executable>
rbdock ($Id: //depot/dev/client3/rdock/2013.1/src/exe/rbdock.cxx#4 $)

>  <Rbt.Library>
libRbt.so (2013.1, Build901 2013/11/27)

>  <Rbt.Parameter_File>
/export/apps/rDock/src/rDock_2013.1_src/data/scripts/dock_solv.prm

>  <Rbt.Receptor>
prm/pocket_docking_4.prm

>  <SCORE>
-25.1948

>  <SCORE.INTER>
-21.3821

>  <SCORE.INTER.CONST>
1

>  <SCORE.INTER.POLAR>
-2.58119

>  <SCORE.INTER.ROT>
3

>  <SCORE.INTER.SOLV>
7.33895

>  <SCORE.INTER.VDW>
-13.6971

>  <SCORE.INTER.norm>
-1.0182

>  <SCORE.INTRA>
-3.81263

>  <SCORE.INTRA.DIHEDRAL>
0.504245

>  <SCORE.INTRA.DIHEDRAL.0>
8.84257

>  <SCORE.INTRA.POLAR>
0

>  <SCORE.INTRA.POLAR.0>
0

>  <SCORE.INTRA.REPUL>
0

>  <SCORE.INTRA.REPUL.0>
0

>  <SCORE.INTRA.SOLV>
0.0860996

>  <SCORE.INTRA.SOLV.lig_0>
-17.1313

>  <SCORE.INTRA.VDW>
-4.1078

>  <SCORE.INTRA.VDW.0>
6.34071

>  <SCORE.INTRA.norm>
-0.181554

>  <SCORE.RESTR>
0

>  <SCORE.RESTR.CAVITY>
0

>  <SCORE.RESTR.norm>
0

>  <SCORE.SYSTEM>
0

>  <SCORE.SYSTEM.CONST>
0

>  <SCORE.SYSTEM.DIHEDRAL>
0

>  <SCORE.SYSTEM.SOLV>
0

>  <SCORE.SYSTEM.norm>
0

>  <SCORE.heavy>
21

>  <SCORE.norm>
-1.19975

>  <RMSD>
4.221

$$$$
lig.pdb
 OpenBabel11021811453D
libRbt.so/2013.1/901 2013/11/27
 21 23  0  0  0  0  0  0  0  0999 V2000
   -7.0500   -2.3910    2.0349 C   0  0  0  0  0  0  0  0  0  0  0  0
   -8.3750   -2.4774    2.0682 N   0  0  0  0  0  0  0  0  0  0  0  0
   -9.0508   -1.8887    3.0385 C   0  0  0  0  0  0  0  0  0  0  0  0
   -8.3903   -1.2596    4.0316 C   0  0  0  0  0  0  0  0  0  0  0  0
   -7.0541   -1.1714    3.9926 C   0  0  0  0  0  0  0  0  0  0  0  0
   -6.3929   -0.5562    4.9723 N   0  0  0  0  0  0  0  0  0  0  0  0
   -6.3883   -1.7412    2.9934 N   0  0  0  0  0  0  0  0  0  0  0  0
  -10.3922   -1.9610    3.0522 C   0  0  0  0  0  0  0  0  0  0  0  0
  -11.0724   -1.5060    4.1489 C   0  0  0  0  0  0  0  0  0  0  0  0
  -12.1874   -2.2577    4.5902 O   0  0  0  0  0  0  0  0  0  0  0  0
  -10.4225   -0.7197    5.0227 C   0  0  0  0  0  0  0  0  0  0  0  0
  -11.1605    0.1345    5.8851 O   0  0  0  0  0  0  0  0  0  0  0  0
   -9.0756   -0.6811    5.0278 C   0  0  0  0  0  0  0  0  0  0  0  0
   -6.3849   -2.9701    1.0502 N   0  0  0  0  0  0  0  0  0  0  0  0
   -5.3864   -3.7846    1.4049 C   0  0  0  0  0  0  0  0  0  0  0  0
   -4.1530   -2.9710    1.7666 C   0  0  0  0  0  0  0  0  0  0  0  0
   -3.7471   -2.2342    0.6733 N   0  0  0  0  0  0  0  0  0  0  0  0
   -4.7775   -1.3764    0.3556 C   0  0  0  0  0  0  0  0  0  0  0  0
   -6.0099   -2.1864   -0.0109 C   0  0  0  0  0  0  0  0  0  0  0  0
  -11.7168   -3.2928    5.4150 C   0  0  0  0  0  0  0  0  0  0  0  0
  -11.1773   -0.4287    7.1708 C   0  0  0  0  0  0  0  0  0  0  0  0
  1 14  1  0  0  0  0
  1  2  2  0  0  0  0
  3  2  1  0  0  0  0
  3  8  2  0  0  0  0
  4  3  1  0  0  0  0
  5  7  2  0  0  0  0
  5  4  1  0  0  0  0
  6  5  1  0  0  0  0
  7  1  1  0  0  0  0
  9 10  1  0  0  0  0
  9  8  1  0  0  0  0
 11  9  2  0  0  0  0
 12 11  1  0  0  0  0
 13  4  2  0  0  0  0
 13 11  1  0  0  0  0
 14 15  1  0  0  0  0
 16 15  1  0  0  0  0
 17 16  1  0  0  0  0
 18 17  1  0  0  0  0
 18 19  1  0  0  0  0
 19 14  1  0  0  0  0
 20 10  1  0  0  0  0
 21 12  1  0  0  0  0
M  END
>  <CHROM.1>
-127.99804583,84.18610360,103.78884367,-8.11273727,-1.79562727,3.29781772
0.59187999,-0.25269213,-2.19149165

>  <Name>
lig.pdb

>  <RI>
1.4775e+07

>  <Rbt.Current_Directory>
/home/itssahil/PROJECTS/Mol_Feturizer/New_Systems/rnas/2lwk

>  <Rbt.Executable>
rbdock ($Id: //depot/dev/client3/rdock/2013.1/src/exe/rbdock.cxx#4 $)

>  <Rbt.Library>
libRbt.so (2013.1, Build901 2013/11/27)

>  <Rbt.Parameter_File>
/export/apps/rDock/src/rDock_2013.1_src/data/scripts/dock_solv.prm

>  <Rbt.Receptor>
prm/pocket_docking_4.prm

>  <SCORE>
-22.8122

>  <SCORE.INTER>
-19.2677

>  <SCORE.INTER.CONST>
1

>  <SCORE.INTER.POLAR>
-1.73282

>  <SCORE.INTER.ROT>
3

>  <SCORE.INTER.SOLV>
7.69773

>  <SCORE.INTER.VDW>
-15.235

>  <SCORE.INTER.norm>
-0.917507

>  <SCORE.INTRA>
-3.65081

>  <SCORE.INTRA.DIHEDRAL>
0.754286

>  <SCORE.INTRA.DIHEDRAL.0>
8.84257

>  <SCORE.INTRA.POLAR>
0

>  <SCORE.INTRA.POLAR.0>
0

>  <SCORE.INTRA.REPUL>
0

>  <SCORE.INTRA.REPUL.0>
0

>  <SCORE.INTRA.SOLV>
0.0907246

>  <SCORE.INTRA.SOLV.lig_0>
-17.1313

>  <SCORE.INTRA.VDW>
-4.07331

>  <SCORE.INTRA.VDW.0>
6.34071

>  <SCORE.INTRA.norm>
-0.173848

>  <SCORE.RESTR>
0.10626

>  <SCORE.RESTR.CAVITY>
0.10626

>  <SCORE.RESTR.norm>
0.00506

>  <SCORE.SYSTEM>
0

>  <SCORE.SYSTEM.CONST>
0

>  <SCORE.SYSTEM.DIHEDRAL>
0

>  <SCORE.SYSTEM.SOLV>
0

>  <SCORE.SYSTEM.norm>
0

>  <SCORE.heavy>
21

>  <SCORE.norm>
-1.0863

>  <RMSD>
4.289

$$$$
lig.pdb
 OpenBabel11021811453D
libRbt.so/2013.1/901 2013/11/27
 21 23  0  0  0  0  0  0  0  0999 V2000
   -4.0345    2.3469    3.9247 C   0  0  0  0  0  0  0  0  0  0  0  0
   -4.5505    1.1461    4.1614 N   0  0  0  0  0  0  0  0  0  0  0  0
   -4.9668    0.3965    3.1565 C   0  0  0  0  0  0  0  0  0  0  0  0
   -4.9312    0.8797    1.8982 C   0  0  0  0  0  0  0  0  0  0  0  0
   -4.4067    2.0898    1.6629 C   0  0  0  0  0  0  0  0  0  0  0  0
   -4.3721    2.5773    0.4233 N   0  0  0  0  0  0  0  0  0  0  0  0
   -3.9622    2.8207    2.6801 N   0  0  0  0  0  0  0  0  0  0  0  0
   -5.4658   -0.8263    3.4023 C   0  0  0  0  0  0  0  0  0  0  0  0
   -6.0573   -1.5213    2.3828 C   0  0  0  0  0  0  0  0  0  0  0  0
   -7.2302   -2.2553    2.6805 O   0  0  0  0  0  0  0  0  0  0  0  0
   -5.8393   -1.1142    1.1215 C   0  0  0  0  0  0  0  0  0  0  0  0
   -6.0209   -2.0249    0.0464 O   0  0  0  0  0  0  0  0  0  0  0  0
   -5.3740    0.1273    0.8810 C   0  0  0  0  0  0  0  0  0  0  0  0
   -3.6060    3.0817    4.9364 N   0  0  0  0  0  0  0  0  0  0  0  0
   -4.5447    3.6123    5.7260 C   0  0  0  0  0  0  0  0  0  0  0  0
   -5.1383    4.8504    5.0713 C   0  0  0  0  0  0  0  0  0  0  0  0
   -4.1486    5.7916    4.8775 N   0  0  0  0  0  0  0  0  0  0  0  0
   -3.2172    5.2339    4.0291 C   0  0  0  0  0  0  0  0  0  0  0  0
   -2.6189    3.9993    4.6825 C   0  0  0  0  0  0  0  0  0  0  0  0
   -6.8527   -3.5703    2.9987 C   0  0  0  0  0  0  0  0  0  0  0  0
   -5.0052   -2.9923    0.0989 C   0  0  0  0  0  0  0  0  0  0  0  0
  1 14  1  0  0  0  0
  1  2  2  0  0  0  0
  3  2  1  0  0  0  0
  3  8  2  0  0  0  0
  4  3  1  0  0  0  0
  5  7  2  0  0  0  0
  5  4  1  0  0  0  0
  6  5  1  0  0  0  0
  7  1  1  0  0  0  0
  9 10  1  0  0  0  0
  9  8  1  0  0  0  0
 11  9  2  0  0  0  0
 12 11  1  0  0  0  0
 13  4  2  0  0  0  0
 13 11  1  0  0  0  0
 14 15  1  0  0  0  0
 16 15  1  0  0  0  0
 17 16  1  0  0  0  0
 18 17  1  0  0  0  0
 18 19  1  0  0  0  0
 19 14  1  0  0  0  0
 20 10  1  0  0  0  0
 21 12  1  0  0  0  0
M  END
>  <CHROM.1>
-72.19836006,-93.14459996,-69.68227068,-4.88694989,1.16408925,2.88375124
0.79248399,1.14656719,1.17094797

>  <Name>
lig.pdb

>  <RI>
2.20372e+07

>  <Rbt.Current_Directory>
/home/itssahil/PROJECTS/Mol_Feturizer/New_Systems/rnas/2lwk

>  <Rbt.Executable>
rbdock ($Id: //depot/dev/client3/rdock/2013.1/src/exe/rbdock.cxx#4 $)

>  <Rbt.Library>
libRbt.so (2013.1, Build901 2013/11/27)

>  <Rbt.Parameter_File>
/export/apps/rDock/src/rDock_2013.1_src/data/scripts/dock_solv.prm

>  <Rbt.Receptor>
prm/pocket_docking_7.prm

>  <SCORE>
-17.8552

>  <SCORE.INTER>
-13.4678

>  <SCORE.INTER.CONST>
1

>  <SCORE.INTER.POLAR>
-1.99906

>  <SCORE.INTER.ROT>
3

>  <SCORE.INTER.SOLV>
4.81325

>  <SCORE.INTER.VDW>
-9.51941

>  <SCORE.INTER.norm>
-0.641323

>  <SCORE.INTRA>
-4.38742

>  <SCORE.INTRA.DIHEDRAL>
0.442297

>  <SCORE.INTRA.DIHEDRAL.0>
8.84257

>  <SCORE.INTRA.POLAR>
0

>  <SCORE.INTRA.POLAR.0>
0

>  <SCORE.INTRA.REPUL>
0

>  <SCORE.INTRA.REPUL.0>
0

>  <SCORE.INTRA.SOLV>
0.0613377

>  <SCORE.INTRA.SOLV.lig_0>
-17.1313

>  <SCORE.INTRA.VDW>
-4.63924

>  <SCORE.INTRA.VDW.0>
6.34071

>  <SCORE.INTRA.norm>
-0.208925

>  <SCORE.RESTR>
0

>  <SCORE.RESTR.CAVITY>
0

>  <SCORE.RESTR.norm>
0

>  <SCORE.SYSTEM>
0

>  <SCORE.SYSTEM.CONST>
0

>  <SCORE.SYSTEM.DIHEDRAL>
0

>  <SCORE.SYSTEM.SOLV>
0

>  <SCORE.SYSTEM.norm>
0

>  <SCORE.heavy>
21

>  <SCORE.norm>
-0.850248

>  <RMSD>
4.291

$$$$
lig.pdb
 OpenBabel11021811453D
libRbt.so/2013.1/901 2013/11/27
 21 23  0  0  0  0  0  0  0  0999 V2000
   -6.2392    2.6451    4.8917 C   0  0  0  0  0  0  0  0  0  0  0  0
   -5.7340    2.2858    3.7169 N   0  0  0  0  0  0  0  0  0  0  0  0
   -5.9211    1.0586    3.2654 C   0  0  0  0  0  0  0  0  0  0  0  0
   -6.5649    0.1526    4.0287 C   0  0  0  0  0  0  0  0  0  0  0  0
   -7.0762    0.5197    5.2114 C   0  0  0  0  0  0  0  0  0  0  0  0
   -7.7095   -0.3703    5.9746 N   0  0  0  0  0  0  0  0  0  0  0  0
   -6.9082    1.7666    5.6396 N   0  0  0  0  0  0  0  0  0  0  0  0
   -5.4270    0.7099    2.0658 C   0  0  0  0  0  0  0  0  0  0  0  0
   -5.4679   -0.6038    1.6852 C   0  0  0  0  0  0  0  0  0  0  0  0
   -4.3433   -1.1266    1.0032 O   0  0  0  0  0  0  0  0  0  0  0  0
   -6.2741   -1.4396    2.3603 C   0  0  0  0  0  0  0  0  0  0  0  0
   -6.7066   -2.6471    1.7496 O   0  0  0  0  0  0  0  0  0  0  0  0
   -6.7354   -1.0987    3.5795 C   0  0  0  0  0  0  0  0  0  0  0  0
   -6.0599    3.8805    5.3263 N   0  0  0  0  0  0  0  0  0  0  0  0
   -5.5400    4.7488    4.4535 C   0  0  0  0  0  0  0  0  0  0  0  0
   -4.0338    4.5570    4.3612 C   0  0  0  0  0  0  0  0  0  0  0  0
   -3.4614    4.7841    5.5956 N   0  0  0  0  0  0  0  0  0  0  0  0
   -3.9837    3.8507    6.4642 C   0  0  0  0  0  0  0  0  0  0  0  0
   -5.4879    4.0429    6.5622 C   0  0  0  0  0  0  0  0  0  0  0  0
   -4.6011   -1.0623   -0.3761 C   0  0  0  0  0  0  0  0  0  0  0  0
   -5.8471   -3.6845    2.1438 C   0  0  0  0  0  0  0  0  0  0  0  0
  1 14  1  0  0  0  0
  1  2  2  0  0  0  0
  3  2  1  0  0  0  0
  3  8  2  0  0  0  0
  4  3  1  0  0  0  0
  5  7  2  0  0  0  0
  5  4  1  0  0  0  0
  6  5  1  0  0  0  0
  7  1  1  0  0  0  0
  9 10  1  0  0  0  0
  9  8  1  0  0  0  0
 11  9  2  0  0  0  0
 12 11  1  0  0  0  0
 13  4  2  0  0  0  0
 13 11  1  0  0  0  0
 14 15  1  0  0  0  0
 16 15  1  0  0  0  0
 17 16  1  0  0  0  0
 18 17  1  0  0  0  0
 18 19  1  0  0  0  0
 19 14  1  0  0  0  0
 20 10  1  0  0  0  0
 21 12  1  0  0  0  0
M  END
>  <CHROM.1>
9.47311400,-96.15705775,95.19002563,-5.69629555,1.07059496,3.78220171,1.40052611
0.85676400,0.70420062

>  <Name>
lig.pdb

>  <RI>
1.4775e+07

>  <Rbt.Current_Directory>
/home/itssahil/PROJECTS/Mol_Feturizer/New_Systems/rnas/2lwk

>  <Rbt.Executable>
rbdock ($Id: //depot/dev/client3/rdock/2013.1/src/exe/rbdock.cxx#4 $)

>  <Rbt.Library>
libRbt.so (2013.1, Build901 2013/11/27)

>  <Rbt.Parameter_File>
/export/apps/rDock/src/rDock_2013.1_src/data/scripts/dock_solv.prm

>  <Rbt.Receptor>
prm/pocket_docking_4.prm

>  <SCORE>
-20.9688

>  <SCORE.INTER>
-17.3932

>  <SCORE.INTER.CONST>
1

>  <SCORE.INTER.POLAR>
-2.6395

>  <SCORE.INTER.ROT>
3

>  <SCORE.INTER.SOLV>
6.24733

>  <SCORE.INTER.VDW>
-10.4796

>  <SCORE.INTER.norm>
-0.828249

>  <SCORE.INTRA>
-3.57554

>  <SCORE.INTRA.DIHEDRAL>
0.954056

>  <SCORE.INTRA.DIHEDRAL.0>
8.84257

>  <SCORE.INTRA.POLAR>
0

>  <SCORE.INTRA.POLAR.0>
0

>  <SCORE.INTRA.REPUL>
0

>  <SCORE.INTRA.REPUL.0>
0

>  <SCORE.INTRA.SOLV>
0.0702178

>  <SCORE.INTRA.SOLV.lig_0>
-17.1313

>  <SCORE.INTRA.VDW>
-4.08768

>  <SCORE.INTRA.VDW.0>
6.34071

>  <SCORE.INTRA.norm>
-0.170264

>  <SCORE.RESTR>
0

>  <SCORE.RESTR.CAVITY>
0

>  <SCORE.RESTR.norm>
0

>  <SCORE.SYSTEM>
0

>  <SCORE.SYSTEM.CONST>
0

>  <SCORE.SYSTEM.DIHEDRAL>
0

>  <SCORE.SYSTEM.SOLV>
0

>  <SCORE.SYSTEM.norm>
0

>  <SCORE.heavy>
21

>  <SCORE.norm>
-0.998513

>  <RMSD>
4.417

$$$$
lig.pdb
 OpenBabel11021811453D
libRbt.so/2013.1/901 2013/11/27
 21 23  0  0  0  0  0  0  0  0999 V2000
   -6.6033   -3.3380    2.7372 C   0  0  0  0  0  0  0  0  0  0  0  0
   -7.9106   -3.5705    2.7032 N   0  0  0  0  0  0  0  0  0  0  0  0
   -8.7474   -2.7204    3.2706 C   0  0  0  0  0  0  0  0  0  0  0  0
   -8.2688   -1.6542    3.9432 C   0  0  0  0  0  0  0  0  0  0  0  0
   -6.9498   -1.4210    3.9722 C   0  0  0  0  0  0  0  0  0  0  0  0
   -6.4677   -0.3727    4.6387 N   0  0  0  0  0  0  0  0  0  0  0  0
   -6.1210   -2.2675    3.3699 N   0  0  0  0  0  0  0  0  0  0  0  0
  -10.0696   -2.9505    3.2116 C   0  0  0  0  0  0  0  0  0  0  0  0
  -10.9152   -2.1682    3.9499 C   0  0  0  0  0  0  0  0  0  0  0  0
  -12.0103   -2.8006    4.5854 O   0  0  0  0  0  0  0  0  0  0  0  0
  -10.4453   -1.0120    4.4467 C   0  0  0  0  0  0  0  0  0  0  0  0
  -11.3522    0.0235    4.7980 O   0  0  0  0  0  0  0  0  0  0  0  0
   -9.1172   -0.8035    4.5375 C   0  0  0  0  0  0  0  0  0  0  0  0
   -5.7762   -4.1869    2.1520 N   0  0  0  0  0  0  0  0  0  0  0  0
   -4.9845   -4.8989    2.9597 C   0  0  0  0  0  0  0  0  0  0  0  0
   -3.8043   -4.0526    3.4121 C   0  0  0  0  0  0  0  0  0  0  0  0
   -3.0673   -3.6607    2.3137 N   0  0  0  0  0  0  0  0  0  0  0  0
   -3.8945   -2.8959    1.5205 C   0  0  0  0  0  0  0  0  0  0  0  0
   -5.0722   -3.7402    1.0630 C   0  0  0  0  0  0  0  0  0  0  0  0
  -11.5469   -3.3810    5.7777 C   0  0  0  0  0  0  0  0  0  0  0  0
  -11.3740    0.1484    6.1960 C   0  0  0  0  0  0  0  0  0  0  0  0
  1 14  1  0  0  0  0
  1  2  2  0  0  0  0
  3  2  1  0  0  0  0
  3  8  2  0  0  0  0
  4  3  1  0  0  0  0
  5  7  2  0  0  0  0
  5  4  1  0  0  0  0
  6  5  1  0  0  0  0
  7  1  1  0  0  0  0
  9 10  1  0  0  0  0
  9  8  1  0  0  0  0
 11  9  2  0  0  0  0
 12 11  1  0  0  0  0
 13  4  2  0  0  0  0
 13 11  1  0  0  0  0
 14 15  1  0  0  0  0
 16 15  1  0  0  0  0
 17 16  1  0  0  0  0
 18 17  1  0  0  0  0
 18 19  1  0  0  0  0
 19 14  1  0  0  0  0
 20 10  1  0  0  0  0
 21 12  1  0  0  0  0
M  END
>  <CHROM.1>
-111.53694293,81.35959117,109.92757997,-7.83557773,-2.45281270,3.62570809
0.43090999,-0.21658736,-2.72238056

>  <Name>
lig.pdb

>  <RI>
2.98315e+07

>  <Rbt.Current_Directory>
/home/itssahil/PROJECTS/Mol_Feturizer/New_Systems/rnas/2lwk

>  <Rbt.Executable>
rbdock ($Id: //depot/dev/client3/rdock/2013.1/src/exe/rbdock.cxx#4 $)

>  <Rbt.Library>
libRbt.so (2013.1, Build901 2013/11/27)

>  <Rbt.Parameter_File>
/export/apps/rDock/src/rDock_2013.1_src/data/scripts/dock_solv.prm

>  <Rbt.Receptor>
prm/pocket_docking_5.prm

>  <SCORE>
-27.8903

>  <SCORE.INTER>
-23.8527

>  <SCORE.INTER.CONST>
1

>  <SCORE.INTER.POLAR>
-3.35176

>  <SCORE.INTER.ROT>
3

>  <SCORE.INTER.SOLV>
7.62415

>  <SCORE.INTER.VDW>
-12.8706

>  <SCORE.INTER.norm>
-1.13584

>  <SCORE.INTRA>
-4.03758

>  <SCORE.INTRA.DIHEDRAL>
0.545009

>  <SCORE.INTRA.DIHEDRAL.0>
8.84257

>  <SCORE.INTRA.POLAR>
0

>  <SCORE.INTRA.POLAR.0>
0

>  <SCORE.INTRA.REPUL>
0

>  <SCORE.INTRA.REPUL.0>
0

>  <SCORE.INTRA.SOLV>
0.0821509

>  <SCORE.INTRA.SOLV.lig_0>
-17.1313

>  <SCORE.INTRA.VDW>
-4.35116

>  <SCORE.INTRA.VDW.0>
6.34071

>  <SCORE.INTRA.norm>
-0.192266

>  <SCORE.RESTR>
0

>  <SCORE.RESTR.CAVITY>
0

>  <SCORE.RESTR.norm>
0

>  <SCORE.SYSTEM>
0

>  <SCORE.SYSTEM.CONST>
0

>  <SCORE.SYSTEM.DIHEDRAL>
0

>  <SCORE.SYSTEM.SOLV>
0

>  <SCORE.SYSTEM.norm>
0

>  <SCORE.heavy>
21

>  <SCORE.norm>
-1.32811

>  <RMSD>
4.592

$$$$
lig.pdb
 OpenBabel11021811453D
libRbt.so/2013.1/901 2013/11/27
 21 23  0  0  0  0  0  0  0  0999 V2000
   -5.2130   -2.1954    2.7435 C   0  0  0  0  0  0  0  0  0  0  0  0
   -6.3872   -2.6239    2.2942 N   0  0  0  0  0  0  0  0  0  0  0  0
   -7.5056   -2.1449    2.8085 C   0  0  0  0  0  0  0  0  0  0  0  0
   -7.4534   -1.2734    3.8360 C   0  0  0  0  0  0  0  0  0  0  0  0
   -6.2673   -0.8407    4.2841 C   0  0  0  0  0  0  0  0  0  0  0  0
   -6.2061    0.0165    5.3024 N   0  0  0  0  0  0  0  0  0  0  0  0
   -5.1498   -1.3069    3.7362 N   0  0  0  0  0  0  0  0  0  0  0  0
   -8.6892   -2.5660    2.3325 C   0  0  0  0  0  0  0  0  0  0  0  0
   -9.8361   -2.2047    2.9855 C   0  0  0  0  0  0  0  0  0  0  0  0
  -10.8555   -3.1781    3.1126 O   0  0  0  0  0  0  0  0  0  0  0  0
   -9.7764   -1.1962    3.8708 C   0  0  0  0  0  0  0  0  0  0  0  0
  -10.9599   -0.4888    4.2130 O   0  0  0  0  0  0  0  0  0  0  0  0
   -8.5888   -0.8042    4.3722 C   0  0  0  0  0  0  0  0  0  0  0  0
   -4.1002   -2.6694    2.2103 N   0  0  0  0  0  0  0  0  0  0  0  0
   -3.9933   -2.5824    0.8810 C   0  0  0  0  0  0  0  0  0  0  0  0
   -4.7910   -3.6960    0.2195 C   0  0  0  0  0  0  0  0  0  0  0  0
   -4.2953   -4.9203    0.6175 N   0  0  0  0  0  0  0  0  0  0  0  0
   -4.4554   -4.9994    1.9837 C   0  0  0  0  0  0  0  0  0  0  0  0
   -3.6558   -3.8909    2.6477 C   0  0  0  0  0  0  0  0  0  0  0  0
  -10.5027   -4.0449    4.1602 C   0  0  0  0  0  0  0  0  0  0  0  0
  -11.2995   -0.7942    5.5403 C   0  0  0  0  0  0  0  0  0  0  0  0
  1 14  1  0  0  0  0
  1  2  2  0  0  0  0
  3  2  1  0  0  0  0
  3  8  2  0  0  0  0
  4  3  1  0  0  0  0
  5  7  2  0  0  0  0
  5  4  1  0  0  0  0
  6  5  1  0  0  0  0
  7  1  1  0  0  0  0
  9 10  1  0  0  0  0
  9  8  1  0  0  0  0
 11  9  2  0  0  0  0
 12 11  1  0  0  0  0
 13  4  2  0  0  0  0
 13 11  1  0  0  0  0
 14 15  1  0  0  0  0
 16 15  1  0  0  0  0
 17 16  1  0  0  0  0
 18 17  1  0  0  0  0
 18 19  1  0  0  0  0
 19 14  1  0  0  0  0
 20 10  1  0  0  0  0
 21 12  1  0  0  0  0
M  END
>  <CHROM.1>
53.48762285,78.90589684,110.64167264,-7.16779122,-2.32309920,3.06674523,-0.49133081
0.14126554,0.66024454

>  <Name>
lig.pdb

>  <RI>
2.98315e+07

>  <Rbt.Current_Directory>
/home/itssahil/PROJECTS/Mol_Feturizer/New_Systems/rnas/2lwk

>  <Rbt.Executable>
rbdock ($Id: //depot/dev/client3/rdock/2013.1/src/exe/rbdock.cxx#4 $)

>  <Rbt.Library>
libRbt.so (2013.1, Build901 2013/11/27)

>  <Rbt.Parameter_File>
/export/apps/rDock/src/rDock_2013.1_src/data/scripts/dock_solv.prm

>  <Rbt.Receptor>
prm/pocket_docking_5.prm

>  <SCORE>
-25.2514

>  <SCORE.INTER>
-21.5668

>  <SCORE.INTER.CONST>
1

>  <SCORE.INTER.POLAR>
-2.43978

>  <SCORE.INTER.ROT>
3

>  <SCORE.INTER.SOLV>
9.1085

>  <SCORE.INTER.VDW>
-14.8814

>  <SCORE.INTER.norm>
-1.02699

>  <SCORE.INTRA>
-3.68465

>  <SCORE.INTRA.DIHEDRAL>
0.531058

>  <SCORE.INTRA.DIHEDRAL.0>
8.84257

>  <SCORE.INTRA.POLAR>
0

>  <SCORE.INTRA.POLAR.0>
0

>  <SCORE.INTRA.REPUL>
0

>  <SCORE.INTRA.REPUL.0>
0

>  <SCORE.INTRA.SOLV>
0.0874155

>  <SCORE.INTRA.SOLV.lig_0>
-17.1313

>  <SCORE.INTRA.VDW>
-3.99388

>  <SCORE.INTRA.VDW.0>
6.34071

>  <SCORE.INTRA.norm>
-0.175459

>  <SCORE.RESTR>
0

>  <SCORE.RESTR.CAVITY>
0

>  <SCORE.RESTR.norm>
0

>  <SCORE.SYSTEM>
0

>  <SCORE.SYSTEM.CONST>
0

>  <SCORE.SYSTEM.DIHEDRAL>
0

>  <SCORE.SYSTEM.SOLV>
0

>  <SCORE.SYSTEM.norm>
0

>  <SCORE.heavy>
21

>  <SCORE.norm>
-1.20245

>  <RMSD>
4.592

$$$$
lig.pdb
 OpenBabel11021811453D
libRbt.so/2013.1/901 2013/11/27
 21 23  0  0  0  0  0  0  0  0999 V2000
   -6.6938   -3.2254    2.6057 C   0  0  0  0  0  0  0  0  0  0  0  0
   -8.0084   -3.4128    2.5757 N   0  0  0  0  0  0  0  0  0  0  0  0
   -8.8107   -2.5630    3.1913 C   0  0  0  0  0  0  0  0  0  0  0  0
   -8.2902   -1.5459    3.9073 C   0  0  0  0  0  0  0  0  0  0  0  0
   -6.9639   -1.3580    3.9323 C   0  0  0  0  0  0  0  0  0  0  0  0
   -6.4405   -0.3586    4.6414 N   0  0  0  0  0  0  0  0  0  0  0  0
   -6.1698   -2.2023    3.2821 N   0  0  0  0  0  0  0  0  0  0  0  0
  -10.1404   -2.7463    3.1366 C   0  0  0  0  0  0  0  0  0  0  0  0
  -10.9521   -1.9719    3.9200 C   0  0  0  0  0  0  0  0  0  0  0  0
  -12.0616   -2.5969    4.5376 O   0  0  0  0  0  0  0  0  0  0  0  0
  -10.4390   -0.8564    4.4646 C   0  0  0  0  0  0  0  0  0  0  0  0
  -11.3072    0.1909    4.8739 O   0  0  0  0  0  0  0  0  0  0  0  0
   -9.1038   -0.6964    4.5501 C   0  0  0  0  0  0  0  0  0  0  0  0
   -5.9014   -4.0729    1.9724 N   0  0  0  0  0  0  0  0  0  0  0  0
   -5.2058   -4.9211    2.7358 C   0  0  0  0  0  0  0  0  0  0  0  0
   -3.9922   -4.2180    3.3247 C   0  0  0  0  0  0  0  0  0  0  0  0
   -3.1733   -3.7763    2.3061 N   0  0  0  0  0  0  0  0  0  0  0  0
   -3.9011   -2.8744    1.5610 C   0  0  0  0  0  0  0  0  0  0  0  0
   -5.1118   -3.5752    0.9675 C   0  0  0  0  0  0  0  0  0  0  0  0
  -11.6025   -3.2672    5.6835 C   0  0  0  0  0  0  0  0  0  0  0  0
  -11.4113    0.1688    6.2735 C   0  0  0  0  0  0  0  0  0  0  0  0
  1 14  1  0  0  0  0
  1  2  2  0  0  0  0
  3  2  1  0  0  0  0
  3  8  2  0  0  0  0
  4  3  1  0  0  0  0
  5  7  2  0  0  0  0
  5  4  1  0  0  0  0
  6  5  1  0  0  0  0
  7  1  1  0  0  0  0
  9 10  1  0  0  0  0
  9  8  1  0  0  0  0
 11  9  2  0  0  0  0
 12 11  1  0  0  0  0
 13  4  2  0  0  0  0
 13 11  1  0  0  0  0
 14 15  1  0  0  0  0
 16 15  1  0  0  0  0
 17 16  1  0  0  0  0
 18 17  1  0  0  0  0
 18 19  1  0  0  0  0
 19 14  1  0  0  0  0
 20 10  1  0  0  0  0
 21 12  1  0  0  0  0
M  END
>  <CHROM.1>
-106.34780994,80.33658040,104.34778718,-7.89168064,-2.36745321,3.57404739
0.46302355,-0.20543146,-2.68687445

>  <Name>
lig.pdb

>  <RI>
2.20372e+07

>  <Rbt.Current_Directory>
/home/itssahil/PROJECTS/Mol_Feturizer/New_Systems/rnas/2lwk

>  <Rbt.Executable>
rbdock ($Id: //depot/dev/client3/rdock/2013.1/src/exe/rbdock.cxx#4 $)

>  <Rbt.Library>
libRbt.so (2013.1, Build901 2013/11/27)

>  <Rbt.Parameter_File>
/export/apps/rDock/src/rDock_2013.1_src/data/scripts/dock_solv.prm

>  <Rbt.Receptor>
prm/pocket_docking_7.prm

>  <SCORE>
-27.7526

>  <SCORE.INTER>
-23.6719

>  <SCORE.INTER.CONST>
1

>  <SCORE.INTER.POLAR>
-3.21119

>  <SCORE.INTER.ROT>
3

>  <SCORE.INTER.SOLV>
8.18972

>  <SCORE.INTER.VDW>
-13.4072

>  <SCORE.INTER.norm>
-1.12723

>  <SCORE.INTRA>
-4.08066

>  <SCORE.INTRA.DIHEDRAL>
0.791209

>  <SCORE.INTRA.DIHEDRAL.0>
8.84257

>  <SCORE.INTRA.POLAR>
0

>  <SCORE.INTRA.POLAR.0>
0

>  <SCORE.INTRA.REPUL>
0

>  <SCORE.INTRA.REPUL.0>
0

>  <SCORE.INTRA.SOLV>
0.0857794

>  <SCORE.INTRA.SOLV.lig_0>
-17.1313

>  <SCORE.INTRA.VDW>
-4.51916

>  <SCORE.INTRA.VDW.0>
6.34071

>  <SCORE.INTRA.norm>
-0.194317

>  <SCORE.RESTR>
0

>  <SCORE.RESTR.CAVITY>
0

>  <SCORE.RESTR.norm>
0

>  <SCORE.SYSTEM>
0

>  <SCORE.SYSTEM.CONST>
0

>  <SCORE.SYSTEM.DIHEDRAL>
0

>  <SCORE.SYSTEM.SOLV>
0

>  <SCORE.SYSTEM.norm>
0

>  <SCORE.heavy>
21

>  <SCORE.norm>
-1.32155

>  <RMSD>
4.605

$$$$
lig.pdb
 OpenBabel11021811453D
libRbt.so/2013.1/901 2013/11/27
 21 23  0  0  0  0  0  0  0  0999 V2000
   -6.8208   -3.1536    2.5170 C   0  0  0  0  0  0  0  0  0  0  0  0
   -8.1417   -3.2923    2.5012 N   0  0  0  0  0  0  0  0  0  0  0  0
   -8.9014   -2.4583    3.1883 C   0  0  0  0  0  0  0  0  0  0  0  0
   -8.3314   -1.5106    3.9598 C   0  0  0  0  0  0  0  0  0  0  0  0
   -6.9990   -1.3714    3.9704 C   0  0  0  0  0  0  0  0  0  0  0  0
   -6.4270   -0.4411    4.7337 N   0  0  0  0  0  0  0  0  0  0  0  0
   -6.2479   -2.1973    3.2492 N   0  0  0  0  0  0  0  0  0  0  0  0
  -10.2376   -2.5908    3.1485 C   0  0  0  0  0  0  0  0  0  0  0  0
  -11.0065   -1.8429    3.9981 C   0  0  0  0  0  0  0  0  0  0  0  0
  -12.1267   -2.4688    4.5951 O   0  0  0  0  0  0  0  0  0  0  0  0
  -10.4435   -0.7853    4.6054 C   0  0  0  0  0  0  0  0  0  0  0  0
  -11.2655    0.2618    5.1012 O   0  0  0  0  0  0  0  0  0  0  0  0
   -9.1020   -0.6784    4.6742 C   0  0  0  0  0  0  0  0  0  0  0  0
   -6.0711   -3.9837    1.8126 N   0  0  0  0  0  0  0  0  0  0  0  0
   -5.3707   -4.8866    2.5055 C   0  0  0  0  0  0  0  0  0  0  0  0
   -4.1210   -4.2430    3.0870 C   0  0  0  0  0  0  0  0  0  0  0  0
   -3.3269   -3.7663    2.0647 N   0  0  0  0  0  0  0  0  0  0  0  0
   -4.0577   -2.8100    1.3939 C   0  0  0  0  0  0  0  0  0  0  0  0
   -5.3046   -3.4511    0.8078 C   0  0  0  0  0  0  0  0  0  0  0  0
  -11.6656   -3.2761    5.6480 C   0  0  0  0  0  0  0  0  0  0  0  0
  -11.4086    0.1040    6.4886 C   0  0  0  0  0  0  0  0  0  0  0  0
  1 14  1  0  0  0  0
  1  2  2  0  0  0  0
  3  2  1  0  0  0  0
  3  8  2  0  0  0  0
  4  3  1  0  0  0  0
  5  7  2  0  0  0  0
  5  4  1  0  0  0  0
  6  5  1  0  0  0  0
  7  1  1  0  0  0  0
  9 10  1  0  0  0  0
  9  8  1  0  0  0  0
 11  9  2  0  0  0  0
 12 11  1  0  0  0  0
 13  4  2  0  0  0  0
 13 11  1  0  0  0  0
 14 15  1  0  0  0  0
 16 15  1  0  0  0  0
 17 16  1  0  0  0  0
 18 17  1  0  0  0  0
 18 19  1  0  0  0  0
 19 14  1  0  0  0  0
 20 10  1  0  0  0  0
 21 12  1  0  0  0  0
M  END
>  <CHROM.1>
-107.75858546,77.82346629,100.97158058,-7.97189377,-2.32011570,3.55535891
0.50078634,-0.20936625,-2.61122009

>  <Name>
lig.pdb

>  <RI>
1.4775e+07

>  <Rbt.Current_Directory>
/home/itssahil/PROJECTS/Mol_Feturizer/New_Systems/rnas/2lwk

>  <Rbt.Executable>
rbdock ($Id: //depot/dev/client3/rdock/2013.1/src/exe/rbdock.cxx#4 $)

>  <Rbt.Library>
libRbt.so (2013.1, Build901 2013/11/27)

>  <Rbt.Parameter_File>
/export/apps/rDock/src/rDock_2013.1_src/data/scripts/dock_solv.prm

>  <Rbt.Receptor>
prm/pocket_docking_4.prm

>  <SCORE>
-27.3067

>  <SCORE.INTER>
-23.2278

>  <SCORE.INTER.CONST>
1

>  <SCORE.INTER.POLAR>
-2.88207

>  <SCORE.INTER.ROT>
3

>  <SCORE.INTER.SOLV>
8.29636

>  <SCORE.INTER.VDW>
-14.2438

>  <SCORE.INTER.norm>
-1.10609

>  <SCORE.INTRA>
-4.08153

>  <SCORE.INTRA.DIHEDRAL>
0.901987

>  <SCORE.INTRA.DIHEDRAL.0>
8.84257

>  <SCORE.INTRA.POLAR>
0

>  <SCORE.INTRA.POLAR.0>
0

>  <SCORE.INTRA.REPUL>
0

>  <SCORE.INTRA.REPUL.0>
0

>  <SCORE.INTRA.SOLV>
0.0906923

>  <SCORE.INTRA.SOLV.lig_0>
-17.1313

>  <SCORE.INTRA.VDW>
-4.57787

>  <SCORE.INTRA.VDW.0>
6.34071

>  <SCORE.INTRA.norm>
-0.194359

>  <SCORE.RESTR>
0.00265931

>  <SCORE.RESTR.CAVITY>
0.00265931

>  <SCORE.RESTR.norm>
0.000126634

>  <SCORE.SYSTEM>
0

>  <SCORE.SYSTEM.CONST>
0

>  <SCORE.SYSTEM.DIHEDRAL>
0

>  <SCORE.SYSTEM.SOLV>
0

>  <SCORE.SYSTEM.norm>
0

>  <SCORE.heavy>
21

>  <SCORE.norm>
-1.30032

>  <RMSD>
4.615

$$$$
lig.pdb
 OpenBabel11021811453D
libRbt.so/2013.1/901 2013/11/27
 21 23  0  0  0  0  0  0  0  0999 V2000
   -5.6265   -4.5057    2.1308 C   0  0  0  0  0  0  0  0  0  0  0  0
   -6.5575   -3.5695    2.2764 N   0  0  0  0  0  0  0  0  0  0  0  0
   -7.5598   -3.7600    3.1154 C   0  0  0  0  0  0  0  0  0  0  0  0
   -7.6738   -4.9329    3.7708 C   0  0  0  0  0  0  0  0  0  0  0  0
   -6.7309   -5.8733    3.6241 C   0  0  0  0  0  0  0  0  0  0  0  0
   -6.8380   -7.0373    4.2639 N   0  0  0  0  0  0  0  0  0  0  0  0
   -5.7106   -5.6558    2.8007 N   0  0  0  0  0  0  0  0  0  0  0  0
   -8.4846   -2.7987    3.2745 C   0  0  0  0  0  0  0  0  0  0  0  0
   -9.6098   -3.0715    4.0038 C   0  0  0  0  0  0  0  0  0  0  0  0
  -10.8412   -2.5590    3.5302 O   0  0  0  0  0  0  0  0  0  0  0  0
   -9.6105   -4.1566    4.7953 C   0  0  0  0  0  0  0  0  0  0  0  0
  -10.5173   -4.2317    5.8864 O   0  0  0  0  0  0  0  0  0  0  0  0
   -8.7030   -5.1344    4.6055 C   0  0  0  0  0  0  0  0  0  0  0  0
   -4.6191   -4.2976    1.3007 N   0  0  0  0  0  0  0  0  0  0  0  0
   -3.7071   -3.3994    1.6851 C   0  0  0  0  0  0  0  0  0  0  0  0
   -4.2198   -1.9911    1.4245 C   0  0  0  0  0  0  0  0  0  0  0  0
   -4.4531   -1.8254    0.0749 N   0  0  0  0  0  0  0  0  0  0  0  0
   -5.4245   -2.7340   -0.2846 C   0  0  0  0  0  0  0  0  0  0  0  0
   -4.9134   -4.1422   -0.0298 C   0  0  0  0  0  0  0  0  0  0  0  0
  -11.1358   -1.3925    4.2551 C   0  0  0  0  0  0  0  0  0  0  0  0
  -11.7008   -4.8453    5.4472 C   0  0  0  0  0  0  0  0  0  0  0  0
  1 14  1  0  0  0  0
  1  2  2  0  0  0  0
  3  2  1  0  0  0  0
  3  8  2  0  0  0  0
  4  3  1  0  0  0  0
  5  7  2  0  0  0  0
  5  4  1  0  0  0  0
  6  5  1  0  0  0  0
  7  1  1  0  0  0  0
  9 10  1  0  0  0  0
  9  8  1  0  0  0  0
 11  9  2  0  0  0  0
 12 11  1  0  0  0  0
 13  4  2  0  0  0  0
 13 11  1  0  0  0  0
 14 15  1  0  0  0  0
 16 15  1  0  0  0  0
 17 16  1  0  0  0  0
 18 17  1  0  0  0  0
 18 19  1  0  0  0  0
 19 14  1  0  0  0  0
 20 10  1  0  0  0  0
 21 12  1  0  0  0  0
M  END
>  <CHROM.1>
71.60429300,-99.41134281,90.70969741,-7.39451612,-3.88474300,2.95329268,-0.33702216
-0.50012594,2.63058653

>  <Name>
lig.pdb

>  <RI>
2.98315e+07

>  <Rbt.Current_Directory>
/home/itssahil/PROJECTS/Mol_Feturizer/New_Systems/rnas/2lwk

>  <Rbt.Executable>
rbdock ($Id: //depot/dev/client3/rdock/2013.1/src/exe/rbdock.cxx#4 $)

>  <Rbt.Library>
libRbt.so (2013.1, Build901 2013/11/27)

>  <Rbt.Parameter_File>
/export/apps/rDock/src/rDock_2013.1_src/data/scripts/dock_solv.prm

>  <Rbt.Receptor>
prm/pocket_docking_5.prm

>  <SCORE>
-18.081

>  <SCORE.INTER>
-12.6968

>  <SCORE.INTER.CONST>
1

>  <SCORE.INTER.POLAR>
-0.945711

>  <SCORE.INTER.ROT>
3

>  <SCORE.INTER.SOLV>
7.72742

>  <SCORE.INTER.VDW>
-13.488

>  <SCORE.INTER.norm>
-0.604609

>  <SCORE.INTRA>
-5.38422

>  <SCORE.INTRA.DIHEDRAL>
1.00209

>  <SCORE.INTRA.DIHEDRAL.0>
8.84257

>  <SCORE.INTRA.POLAR>
0

>  <SCORE.INTRA.POLAR.0>
0

>  <SCORE.INTRA.REPUL>
0

>  <SCORE.INTRA.REPUL.0>
0

>  <SCORE.INTRA.SOLV>
0.149264

>  <SCORE.INTRA.SOLV.lig_0>
-17.1313

>  <SCORE.INTRA.VDW>
-5.9599

>  <SCORE.INTRA.VDW.0>
6.34071

>  <SCORE.INTRA.norm>
-0.256392

>  <SCORE.RESTR>
0

>  <SCORE.RESTR.CAVITY>
0

>  <SCORE.RESTR.norm>
0

>  <SCORE.SYSTEM>
0

>  <SCORE.SYSTEM.CONST>
0

>  <SCORE.SYSTEM.DIHEDRAL>
0

>  <SCORE.SYSTEM.SOLV>
0

>  <SCORE.SYSTEM.norm>
0

>  <SCORE.heavy>
21

>  <SCORE.norm>
-0.861001

>  <RMSD>
4.616

$$$$
lig.pdb
 OpenBabel11021811453D
libRbt.so/2013.1/901 2013/11/27
 21 23  0  0  0  0  0  0  0  0999 V2000
   -7.5182   -4.7311    3.5026 C   0  0  0  0  0  0  0  0  0  0  0  0
   -7.9149   -3.5470    3.9551 N   0  0  0  0  0  0  0  0  0  0  0  0
   -9.1708   -3.3679    4.3234 C   0  0  0  0  0  0  0  0  0  0  0  0
  -10.0637   -4.3671    4.1741 C   0  0  0  0  0  0  0  0  0  0  0  0
   -9.6591   -5.5611    3.7207 C   0  0  0  0  0  0  0  0  0  0  0  0
  -10.5355   -6.5527    3.5652 N   0  0  0  0  0  0  0  0  0  0  0  0
   -8.3856   -5.7371    3.3837 N   0  0  0  0  0  0  0  0  0  0  0  0
   -9.5588   -2.1741    4.8020 C   0  0  0  0  0  0  0  0  0  0  0  0
  -10.8908   -1.9418    5.0113 C   0  0  0  0  0  0  0  0  0  0  0  0
  -11.3981   -0.6657    4.6686 O   0  0  0  0  0  0  0  0  0  0  0  0
  -11.7255   -2.9937    5.0434 C   0  0  0  0  0  0  0  0  0  0  0  0
  -12.9808   -2.8768    5.6982 O   0  0  0  0  0  0  0  0  0  0  0  0
  -11.3429   -4.1782    4.5274 C   0  0  0  0  0  0  0  0  0  0  0  0
   -6.2553   -4.9037    3.1524 N   0  0  0  0  0  0  0  0  0  0  0  0
   -5.3346   -4.5686    4.0613 C   0  0  0  0  0  0  0  0  0  0  0  0
   -5.1324   -3.0609    4.0677 C   0  0  0  0  0  0  0  0  0  0  0  0
   -4.6915   -2.6475    2.8277 N   0  0  0  0  0  0  0  0  0  0  0  0
   -5.6757   -2.9678    1.9183 C   0  0  0  0  0  0  0  0  0  0  0  0
   -5.8768   -4.4740    1.9062 C   0  0  0  0  0  0  0  0  0  0  0  0
  -11.2336    0.1812    5.7772 C   0  0  0  0  0  0  0  0  0  0  0  0
  -12.7769   -2.9723    7.0837 C   0  0  0  0  0  0  0  0  0  0  0  0
  1 14  1  0  0  0  0
  1  2  2  0  0  0  0
  3  2  1  0  0  0  0
  3  8  2  0  0  0  0
  4  3  1  0  0  0  0
  5  7  2  0  0  0  0
  5  4  1  0  0  0  0
  6  5  1  0  0  0  0
  7  1  1  0  0  0  0
  9 10  1  0  0  0  0
  9  8  1  0  0  0  0
 11  9  2  0  0  0  0
 12 11  1  0  0  0  0
 13  4  2  0  0  0  0
 13 11  1  0  0  0  0
 14 15  1  0  0  0  0
 16 15  1  0  0  0  0
 17 16  1  0  0  0  0
 18 17  1  0  0  0  0
 18 19  1  0  0  0  0
 19 14  1  0  0  0  0
 20 10  1  0  0  0  0
 21 12  1  0  0  0  0
M  END
>  <CHROM.1>
53.05704938,-87.60296680,-77.89803489,-8.97180978,-3.50095446,4.16159672
0.32495415,-0.32681759,-2.90624203

>  <Name>
lig.pdb

>  <RI>
1.4775e+07

>  <Rbt.Current_Directory>
/home/itssahil/PROJECTS/Mol_Feturizer/New_Systems/rnas/2lwk

>  <Rbt.Executable>
rbdock ($Id: //depot/dev/client3/rdock/2013.1/src/exe/rbdock.cxx#4 $)

>  <Rbt.Library>
libRbt.so (2013.1, Build901 2013/11/27)

>  <Rbt.Parameter_File>
/export/apps/rDock/src/rDock_2013.1_src/data/scripts/dock_solv.prm

>  <Rbt.Receptor>
prm/pocket_docking_4.prm

>  <SCORE>
-19.6874

>  <SCORE.INTER>
-14.6122

>  <SCORE.INTER.CONST>
1

>  <SCORE.INTER.POLAR>
-1.8681

>  <SCORE.INTER.ROT>
3

>  <SCORE.INTER.SOLV>
5.97619

>  <SCORE.INTER.VDW>
-11.1065

>  <SCORE.INTER.norm>
-0.695818

>  <SCORE.INTRA>
-5.07517

>  <SCORE.INTRA.DIHEDRAL>
0.597453

>  <SCORE.INTRA.DIHEDRAL.0>
8.84257

>  <SCORE.INTRA.POLAR>
0

>  <SCORE.INTRA.POLAR.0>
0

>  <SCORE.INTRA.REPUL>
0

>  <SCORE.INTRA.REPUL.0>
0

>  <SCORE.INTRA.SOLV>
0.0873503

>  <SCORE.INTRA.SOLV.lig_0>
-17.1313

>  <SCORE.INTRA.VDW>
-5.41757

>  <SCORE.INTRA.VDW.0>
6.34071

>  <SCORE.INTRA.norm>
-0.241675

>  <SCORE.RESTR>
0

>  <SCORE.RESTR.CAVITY>
0

>  <SCORE.RESTR.norm>
0

>  <SCORE.SYSTEM>
0

>  <SCORE.SYSTEM.CONST>
0

>  <SCORE.SYSTEM.DIHEDRAL>
0

>  <SCORE.SYSTEM.SOLV>
0

>  <SCORE.SYSTEM.norm>
0

>  <SCORE.heavy>
21

>  <SCORE.norm>
-0.937493

>  <RMSD>
4.824

$$$$
lig.pdb
 OpenBabel11021811453D
libRbt.so/2013.1/901 2013/11/27
 21 23  0  0  0  0  0  0  0  0999 V2000
  -10.9053   -1.6158    5.3194 C   0  0  0  0  0  0  0  0  0  0  0  0
  -10.1163   -2.4944    4.7113 N   0  0  0  0  0  0  0  0  0  0  0  0
  -10.5781   -3.6926    4.4013 C   0  0  0  0  0  0  0  0  0  0  0  0
  -11.8276   -4.0458    4.7647 C   0  0  0  0  0  0  0  0  0  0  0  0
  -12.6216   -3.1557    5.3747 C   0  0  0  0  0  0  0  0  0  0  0  0
  -13.8560   -3.4977    5.7420 N   0  0  0  0  0  0  0  0  0  0  0  0
  -12.1547   -1.9427    5.6523 N   0  0  0  0  0  0  0  0  0  0  0  0
   -9.7812   -4.5673    3.7653 C   0  0  0  0  0  0  0  0  0  0  0  0
  -10.2027   -5.8596    3.6083 C   0  0  0  0  0  0  0  0  0  0  0  0
   -9.2458   -6.8888    3.7762 O   0  0  0  0  0  0  0  0  0  0  0  0
  -11.5037   -6.1346    3.7976 C   0  0  0  0  0  0  0  0  0  0  0  0
  -12.0689   -7.3006    3.2152 O   0  0  0  0  0  0  0  0  0  0  0  0
  -12.2884   -5.2694    4.4694 C   0  0  0  0  0  0  0  0  0  0  0  0
  -10.4378   -0.4141    5.6102 N   0  0  0  0  0  0  0  0  0  0  0  0
   -9.7799    0.2205    4.6352 C   0  0  0  0  0  0  0  0  0  0  0  0
   -8.3591   -0.3131    4.5317 C   0  0  0  0  0  0  0  0  0  0  0  0
   -7.6943   -0.0940    5.7204 N   0  0  0  0  0  0  0  0  0  0  0  0
   -8.3690   -0.7915    6.6985 C   0  0  0  0  0  0  0  0  0  0  0  0
   -9.7875   -0.2575    6.8075 C   0  0  0  0  0  0  0  0  0  0  0  0
   -9.0496   -7.0815    5.1537 C   0  0  0  0  0  0  0  0  0  0  0  0
  -12.2197   -8.2754    4.2138 C   0  0  0  0  0  0  0  0  0  0  0  0
  1 14  1  0  0  0  0
  1  2  2  0  0  0  0
  3  2  1  0  0  0  0
  3  8  2  0  0  0  0
  4  3  1  0  0  0  0
  5  7  2  0  0  0  0
  5  4  1  0  0  0  0
  6  5  1  0  0  0  0
  7  1  1  0  0  0  0
  9 10  1  0  0  0  0
  9  8  1  0  0  0  0
 11  9  2  0  0  0  0
 12 11  1  0  0  0  0
 13  4  2  0  0  0  0
 13 11  1  0  0  0  0
 14 15  1  0  0  0  0
 16 15  1  0  0  0  0
 17 16  1  0  0  0  0
 18 17  1  0  0  0  0
 18 19  1  0  0  0  0
 19 14  1  0  0  0  0
 20 10  1  0  0  0  0
 21 12  1  0  0  0  0
M  END
>  <CHROM.1>
47.01763414,78.32116154,103.17772616,-10.59646709,-3.52880993,4.86471055
1.28483168,0.10470276,0.27721420

>  <Name>
lig.pdb

>  <RI>
2.98315e+07

>  <Rbt.Current_Directory>
/home/itssahil/PROJECTS/Mol_Feturizer/New_Systems/rnas/2lwk

>  <Rbt.Executable>
rbdock ($Id: //depot/dev/client3/rdock/2013.1/src/exe/rbdock.cxx#4 $)

>  <Rbt.Library>
libRbt.so (2013.1, Build901 2013/11/27)

>  <Rbt.Parameter_File>
/export/apps/rDock/src/rDock_2013.1_src/data/scripts/dock_solv.prm

>  <Rbt.Receptor>
prm/pocket_docking_5.prm

>  <SCORE>
-15.936

>  <SCORE.INTER>
-12.407

>  <SCORE.INTER.CONST>
1

>  <SCORE.INTER.POLAR>
-1.12902

>  <SCORE.INTER.ROT>
3

>  <SCORE.INTER.SOLV>
6.31094

>  <SCORE.INTER.VDW>
-12.2116

>  <SCORE.INTER.norm>
-0.590811

>  <SCORE.INTRA>
-3.52895

>  <SCORE.INTRA.DIHEDRAL>
0.844368

>  <SCORE.INTRA.DIHEDRAL.0>
8.84257

>  <SCORE.INTRA.POLAR>
0

>  <SCORE.INTRA.POLAR.0>
0

>  <SCORE.INTRA.REPUL>
0

>  <SCORE.INTRA.REPUL.0>
0

>  <SCORE.INTRA.SOLV>
0.0904017

>  <SCORE.INTRA.SOLV.lig_0>
-17.1313

>  <SCORE.INTRA.VDW>
-3.99633

>  <SCORE.INTRA.VDW.0>
6.34071

>  <SCORE.INTRA.norm>
-0.168045

>  <SCORE.RESTR>
0

>  <SCORE.RESTR.CAVITY>
0

>  <SCORE.RESTR.norm>
0

>  <SCORE.SYSTEM>
0

>  <SCORE.SYSTEM.CONST>
0

>  <SCORE.SYSTEM.DIHEDRAL>
0

>  <SCORE.SYSTEM.SOLV>
0

>  <SCORE.SYSTEM.norm>
0

>  <SCORE.heavy>
21

>  <SCORE.norm>
-0.758856

>  <RMSD>
5.109

$$$$
lig.pdb
 OpenBabel11021811453D
libRbt.so/2013.1/901 2013/11/27
 21 23  0  0  0  0  0  0  0  0999 V2000
   -6.3515    3.8196    3.3852 C   0  0  0  0  0  0  0  0  0  0  0  0
   -6.4648    2.4962    3.3835 N   0  0  0  0  0  0  0  0  0  0  0  0
   -6.3182    1.8195    4.5083 C   0  0  0  0  0  0  0  0  0  0  0  0
   -5.9852    2.4668    5.6434 C   0  0  0  0  0  0  0  0  0  0  0  0
   -5.8754    3.8020    5.6420 C   0  0  0  0  0  0  0  0  0  0  0  0
   -5.5417    4.4495    6.7578 N   0  0  0  0  0  0  0  0  0  0  0  0
   -6.0568    4.4736    4.5096 N   0  0  0  0  0  0  0  0  0  0  0  0
   -6.4575    0.4833    4.5026 C   0  0  0  0  0  0  0  0  0  0  0  0
   -6.1296   -0.2252    5.6263 C   0  0  0  0  0  0  0  0  0  0  0  0
   -5.4581   -1.4590    5.4537 O   0  0  0  0  0  0  0  0  0  0  0  0
   -5.9920    0.4415    6.7842 C   0  0  0  0  0  0  0  0  0  0  0  0
   -6.1176   -0.2542    8.0164 O   0  0  0  0  0  0  0  0  0  0  0  0
   -5.8150    1.7773    6.7801 C   0  0  0  0  0  0  0  0  0  0  0  0
   -6.5163    4.4881    2.2569 N   0  0  0  0  0  0  0  0  0  0  0  0
   -7.7568    4.5210    1.7606 C   0  0  0  0  0  0  0  0  0  0  0  0
   -8.0649    3.2174    1.0396 C   0  0  0  0  0  0  0  0  0  0  0  0
   -7.1814    3.0463   -0.0060 N   0  0  0  0  0  0  0  0  0  0  0  0
   -5.9172    2.9747    0.5372 C   0  0  0  0  0  0  0  0  0  0  0  0
   -5.6046    4.2775    1.2542 C   0  0  0  0  0  0  0  0  0  0  0  0
   -6.4063   -2.4900    5.5590 C   0  0  0  0  0  0  0  0  0  0  0  0
   -7.4607   -0.2131    8.4223 C   0  0  0  0  0  0  0  0  0  0  0  0
  1 14  1  0  0  0  0
  1  2  2  0  0  0  0
  3  2  1  0  0  0  0
  3  8  2  0  0  0  0
  4  3  1  0  0  0  0
  5  7  2  0  0  0  0
  5  4  1  0  0  0  0
  6  5  1  0  0  0  0
  7  1  1  0  0  0  0
  9 10  1  0  0  0  0
  9  8  1  0  0  0  0
 11  9  2  0  0  0  0
 12 11  1  0  0  0  0
 13  4  2  0  0  0  0
 13 11  1  0  0  0  0
 14 15  1  0  0  0  0
 16 15  1  0  0  0  0
 17 16  1  0  0  0  0
 18 17  1  0  0  0  0
 18 19  1  0  0  0  0
 19 14  1  0  0  0  0
 20 10  1  0  0  0  0
 21 12  1  0  0  0  0
M  END
>  <CHROM.1>
69.40038715,-99.25947985,-90.46791767,-6.36076692,2.05933992,4.37827166,-2.09012181
1.42583876,2.73953456

>  <Name>
lig.pdb

>  <RI>
2.59814e+07

>  <Rbt.Current_Directory>
/home/itssahil/PROJECTS/Mol_Feturizer/New_Systems/rnas/2lwk

>  <Rbt.Executable>
rbdock ($Id: //depot/dev/client3/rdock/2013.1/src/exe/rbdock.cxx#4 $)

>  <Rbt.Library>
libRbt.so (2013.1, Build901 2013/11/27)

>  <Rbt.Parameter_File>
/export/apps/rDock/src/rDock_2013.1_src/data/scripts/dock_solv.prm

>  <Rbt.Receptor>
prm/pocket_docking_6.prm

>  <SCORE>
-21.956

>  <SCORE.INTER>
-16.5506

>  <SCORE.INTER.CONST>
1

>  <SCORE.INTER.POLAR>
-2.48848

>  <SCORE.INTER.ROT>
3

>  <SCORE.INTER.SOLV>
6.80744

>  <SCORE.INTER.VDW>
-10.608

>  <SCORE.INTER.norm>
-0.788125

>  <SCORE.INTRA>
-5.40533

>  <SCORE.INTRA.DIHEDRAL>
0.995736

>  <SCORE.INTRA.DIHEDRAL.0>
8.84257

>  <SCORE.INTRA.POLAR>
0

>  <SCORE.INTRA.POLAR.0>
0

>  <SCORE.INTRA.REPUL>
0

>  <SCORE.INTRA.REPUL.0>
0

>  <SCORE.INTRA.SOLV>
0.0947022

>  <SCORE.INTRA.SOLV.lig_0>
-17.1313

>  <SCORE.INTRA.VDW>
-5.95055

>  <SCORE.INTRA.VDW.0>
6.34071

>  <SCORE.INTRA.norm>
-0.257397

>  <SCORE.RESTR>
0

>  <SCORE.RESTR.CAVITY>
0

>  <SCORE.RESTR.norm>
0

>  <SCORE.SYSTEM>
0

>  <SCORE.SYSTEM.CONST>
0

>  <SCORE.SYSTEM.DIHEDRAL>
0

>  <SCORE.SYSTEM.SOLV>
0

>  <SCORE.SYSTEM.norm>
0

>  <SCORE.heavy>
21

>  <SCORE.norm>
-1.04552

>  <RMSD>
5.227

$$$$
lig.pdb
 OpenBabel11021811453D
libRbt.so/2013.1/901 2013/11/27
 21 23  0  0  0  0  0  0  0  0999 V2000
   -6.3189    3.8179    3.4810 C   0  0  0  0  0  0  0  0  0  0  0  0
   -6.6055    2.5221    3.5368 N   0  0  0  0  0  0  0  0  0  0  0  0
   -6.5416    1.8809    4.6899 C   0  0  0  0  0  0  0  0  0  0  0  0
   -6.1187    2.5268    5.7954 C   0  0  0  0  0  0  0  0  0  0  0  0
   -5.8340    3.8346    5.7359 C   0  0  0  0  0  0  0  0  0  0  0  0
   -5.4105    4.4798    6.8221 N   0  0  0  0  0  0  0  0  0  0  0  0
   -5.9331    4.4750    4.5756 N   0  0  0  0  0  0  0  0  0  0  0  0
   -6.8556    0.5757    4.7423 C   0  0  0  0  0  0  0  0  0  0  0  0
   -6.6162   -0.1209    5.8954 C   0  0  0  0  0  0  0  0  0  0  0  0
   -6.1141   -1.4387    5.7759 O   0  0  0  0  0  0  0  0  0  0  0  0
   -6.3842    0.5710    7.0232 C   0  0  0  0  0  0  0  0  0  0  0  0
   -6.5920   -0.0486    8.2846 O   0  0  0  0  0  0  0  0  0  0  0  0
   -6.0330    1.8703    6.9609 C   0  0  0  0  0  0  0  0  0  0  0  0
   -6.4020    4.4532    2.3248 N   0  0  0  0  0  0  0  0  0  0  0  0
   -7.6274    4.5954    1.8107 C   0  0  0  0  0  0  0  0  0  0  0  0
   -8.0642    3.3029    1.1380 C   0  0  0  0  0  0  0  0  0  0  0  0
   -7.1938    2.9975    0.1122 N   0  0  0  0  0  0  0  0  0  0  0  0
   -5.9493    2.8162    0.6749 C   0  0  0  0  0  0  0  0  0  0  0  0
   -5.5081    4.1074    1.3438 C   0  0  0  0  0  0  0  0  0  0  0  0
   -7.2019   -2.3260    5.8258 C   0  0  0  0  0  0  0  0  0  0  0  0
   -5.4018   -0.6803    8.6778 C   0  0  0  0  0  0  0  0  0  0  0  0
  1 14  1  0  0  0  0
  1  2  2  0  0  0  0
  3  2  1  0  0  0  0
  3  8  2  0  0  0  0
  4  3  1  0  0  0  0
  5  7  2  0  0  0  0
  5  4  1  0  0  0  0
  6  5  1  0  0  0  0
  7  1  1  0  0  0  0
  9 10  1  0  0  0  0
  9  8  1  0  0  0  0
 11  9  2  0  0  0  0
 12 11  1  0  0  0  0
 13  4  2  0  0  0  0
 13 11  1  0  0  0  0
 14 15  1  0  0  0  0
 16 15  1  0  0  0  0
 17 16  1  0  0  0  0
 18 17  1  0  0  0  0
 18 19  1  0  0  0  0
 19 14  1  0  0  0  0
 20 10  1  0  0  0  0
 21 12  1  0  0  0  0
M  END
>  <CHROM.1>
67.61380552,-94.88262456,89.35703631,-6.41234253,2.07096624,4.54144943,-1.82128611
1.30342195,2.44471874

>  <Name>
lig.pdb

>  <RI>
2.98315e+07

>  <Rbt.Current_Directory>
/home/itssahil/PROJECTS/Mol_Feturizer/New_Systems/rnas/2lwk

>  <Rbt.Executable>
rbdock ($Id: //depot/dev/client3/rdock/2013.1/src/exe/rbdock.cxx#4 $)

>  <Rbt.Library>
libRbt.so (2013.1, Build901 2013/11/27)

>  <Rbt.Parameter_File>
/export/apps/rDock/src/rDock_2013.1_src/data/scripts/dock_solv.prm

>  <Rbt.Receptor>
prm/pocket_docking_5.prm

>  <SCORE>
-20.6742

>  <SCORE.INTER>
-15.3251

>  <SCORE.INTER.CONST>
1

>  <SCORE.INTER.POLAR>
-2.12529

>  <SCORE.INTER.ROT>
3

>  <SCORE.INTER.SOLV>
6.97172

>  <SCORE.INTER.VDW>
-11.0563

>  <SCORE.INTER.norm>
-0.729766

>  <SCORE.INTRA>
-5.34911

>  <SCORE.INTRA.DIHEDRAL>
0.935824

>  <SCORE.INTRA.DIHEDRAL.0>
8.84257

>  <SCORE.INTRA.POLAR>
0

>  <SCORE.INTRA.POLAR.0>
0

>  <SCORE.INTRA.REPUL>
0

>  <SCORE.INTRA.REPUL.0>
0

>  <SCORE.INTRA.SOLV>
0.147023

>  <SCORE.INTRA.SOLV.lig_0>
-17.1313

>  <SCORE.INTRA.VDW>
-5.89054

>  <SCORE.INTRA.VDW.0>
6.34071

>  <SCORE.INTRA.norm>
-0.25472

>  <SCORE.RESTR>
0

>  <SCORE.RESTR.CAVITY>
0

>  <SCORE.RESTR.norm>
0

>  <SCORE.SYSTEM>
0

>  <SCORE.SYSTEM.CONST>
0

>  <SCORE.SYSTEM.DIHEDRAL>
0

>  <SCORE.SYSTEM.SOLV>
0

>  <SCORE.SYSTEM.norm>
0

>  <SCORE.heavy>
21

>  <SCORE.norm>
-0.984486

>  <RMSD>
5.235

$$$$
lig.pdb
 OpenBabel11021811453D
libRbt.so/2013.1/901 2013/11/27
 21 23  0  0  0  0  0  0  0  0999 V2000
   -6.3183    3.7963    3.3921 C   0  0  0  0  0  0  0  0  0  0  0  0
   -6.4791    2.4785    3.4349 N   0  0  0  0  0  0  0  0  0  0  0  0
   -6.3568    1.8353    4.5821 C   0  0  0  0  0  0  0  0  0  0  0  0
   -6.0006    2.5082    5.6950 C   0  0  0  0  0  0  0  0  0  0  0  0
   -5.8427    3.8378    5.6487 C   0  0  0  0  0  0  0  0  0  0  0  0
   -5.4858    4.5102    6.7423 N   0  0  0  0  0  0  0  0  0  0  0  0
   -6.0000    4.4768    4.4940 N   0  0  0  0  0  0  0  0  0  0  0  0
   -6.5441    0.5056    4.6213 C   0  0  0  0  0  0  0  0  0  0  0  0
   -6.2417   -0.1759    5.7687 C   0  0  0  0  0  0  0  0  0  0  0  0
   -5.6150   -1.4382    5.6385 O   0  0  0  0  0  0  0  0  0  0  0  0
   -6.0800    0.5242    6.9036 C   0  0  0  0  0  0  0  0  0  0  0  0
   -6.2303   -0.1246    8.1584 O   0  0  0  0  0  0  0  0  0  0  0  0
   -5.8551    1.8518    6.8546 C   0  0  0  0  0  0  0  0  0  0  0  0
   -6.4592    4.4317    2.2416 N   0  0  0  0  0  0  0  0  0  0  0  0
   -7.7013    4.5133    1.7552 C   0  0  0  0  0  0  0  0  0  0  0  0
   -8.0862    3.2032    1.0848 C   0  0  0  0  0  0  0  0  0  0  0  0
   -7.2241    2.9475    0.0386 N   0  0  0  0  0  0  0  0  0  0  0  0
   -5.9599    2.8277    0.5730 C   0  0  0  0  0  0  0  0  0  0  0  0
   -5.5707    4.1367    1.2394 C   0  0  0  0  0  0  0  0  0  0  0  0
   -6.6005   -2.4302    5.7725 C   0  0  0  0  0  0  0  0  0  0  0  0
   -7.5620    0.0131    8.5802 C   0  0  0  0  0  0  0  0  0  0  0  0
  1 14  1  0  0  0  0
  1  2  2  0  0  0  0
  3  2  1  0  0  0  0
  3  8  2  0  0  0  0
  4  3  1  0  0  0  0
  5  7  2  0  0  0  0
  5  4  1  0  0  0  0
  6  5  1  0  0  0  0
  7  1  1  0  0  0  0
  9 10  1  0  0  0  0
  9  8  1  0  0  0  0
 11  9  2  0  0  0  0
 12 11  1  0  0  0  0
 13  4  2  0  0  0  0
 13 11  1  0  0  0  0
 14 15  1  0  0  0  0
 16 15  1  0  0  0  0
 17 16  1  0  0  0  0
 18 17  1  0  0  0  0
 18 19  1  0  0  0  0
 19 14  1  0  0  0  0
 20 10  1  0  0  0  0
 21 12  1  0  0  0  0
M  END
>  <CHROM.1>
70.56777751,-99.04020794,-92.21199962,-6.39746928,2.07503045,4.44623847,-1.90457967
1.40591718,2.52179420

>  <Name>
lig.pdb

>  <RI>
2.75338e+07

>  <Rbt.Current_Directory>
/home/itssahil/PROJECTS/Mol_Feturizer/New_Systems/rnas/2lwk

>  <Rbt.Executable>
rbdock ($Id: //depot/dev/client3/rdock/2013.1/src/exe/rbdock.cxx#4 $)

>  <Rbt.Library>
libRbt.so (2013.1, Build901 2013/11/27)

>  <Rbt.Parameter_File>
/export/apps/rDock/src/rDock_2013.1_src/data/scripts/dock_solv.prm

>  <Rbt.Receptor>
prm/pocket_docking_8.prm

>  <SCORE>
-22.0056

>  <SCORE.INTER>
-16.6179

>  <SCORE.INTER.CONST>
1

>  <SCORE.INTER.POLAR>
-2.36784

>  <SCORE.INTER.ROT>
3

>  <SCORE.INTER.SOLV>
6.88303

>  <SCORE.INTER.VDW>
-11.0801

>  <SCORE.INTER.norm>
-0.791327

>  <SCORE.INTRA>
-5.38774

>  <SCORE.INTRA.DIHEDRAL>
0.976555

>  <SCORE.INTRA.DIHEDRAL.0>
8.84257

>  <SCORE.INTRA.POLAR>
0

>  <SCORE.INTRA.POLAR.0>
0

>  <SCORE.INTRA.REPUL>
0

>  <SCORE.INTRA.REPUL.0>
0

>  <SCORE.INTRA.SOLV>
0.093229

>  <SCORE.INTRA.SOLV.lig_0>
-17.1313

>  <SCORE.INTRA.VDW>
-5.92263

>  <SCORE.INTRA.VDW.0>
6.34071

>  <SCORE.INTRA.norm>
-0.256559

>  <SCORE.RESTR>
0

>  <SCORE.RESTR.CAVITY>
0

>  <SCORE.RESTR.norm>
0

>  <SCORE.SYSTEM>
0

>  <SCORE.SYSTEM.CONST>
0

>  <SCORE.SYSTEM.DIHEDRAL>
0

>  <SCORE.SYSTEM.SOLV>
0

>  <SCORE.SYSTEM.norm>
0

>  <SCORE.heavy>
21

>  <SCORE.norm>
-1.04789

>  <RMSD>
5.239

$$$$
lig.pdb
 OpenBabel11021811453D
libRbt.so/2013.1/901 2013/11/27
 21 23  0  0  0  0  0  0  0  0999 V2000
   -9.8970   -0.5447    6.8192 C   0  0  0  0  0  0  0  0  0  0  0  0
  -10.0749   -1.8261    6.5181 N   0  0  0  0  0  0  0  0  0  0  0  0
   -9.4429   -2.3557    5.4861 C   0  0  0  0  0  0  0  0  0  0  0  0
   -8.6724   -1.5781    4.6989 C   0  0  0  0  0  0  0  0  0  0  0  0
   -8.4925   -0.2869    5.0079 C   0  0  0  0  0  0  0  0  0  0  0  0
   -7.7370    0.4901    4.2327 N   0  0  0  0  0  0  0  0  0  0  0  0
   -9.1094    0.2256    6.0676 N   0  0  0  0  0  0  0  0  0  0  0  0
   -9.6098   -3.6581    5.2021 C   0  0  0  0  0  0  0  0  0  0  0  0
   -9.0983   -4.1559    4.0347 C   0  0  0  0  0  0  0  0  0  0  0  0
   -9.8808   -5.0948    3.3209 O   0  0  0  0  0  0  0  0  0  0  0  0
   -8.1844   -3.4254    3.3750 C   0  0  0  0  0  0  0  0  0  0  0  0
   -7.3041   -4.0601    2.4583 O   0  0  0  0  0  0  0  0  0  0  0  0
   -8.0486   -2.1110    3.6389 C   0  0  0  0  0  0  0  0  0  0  0  0
  -10.5218   -0.0293    7.8638 N   0  0  0  0  0  0  0  0  0  0  0  0
  -10.0777   -0.4042    9.0673 C   0  0  0  0  0  0  0  0  0  0  0  0
  -10.6187   -1.7823    9.4170 C   0  0  0  0  0  0  0  0  0  0  0  0
  -11.9972   -1.7431    9.4537 N   0  0  0  0  0  0  0  0  0  0  0  0
  -12.4281   -1.3949    8.1921 C   0  0  0  0  0  0  0  0  0  0  0  0
  -11.8930   -0.0164    7.8419 C   0  0  0  0  0  0  0  0  0  0  0  0
   -9.8335   -6.3169    4.0118 C   0  0  0  0  0  0  0  0  0  0  0  0
   -6.3305   -4.7652    3.1831 C   0  0  0  0  0  0  0  0  0  0  0  0
  1 14  1  0  0  0  0
  1  2  2  0  0  0  0
  3  2  1  0  0  0  0
  3  8  2  0  0  0  0
  4  3  1  0  0  0  0
  5  7  2  0  0  0  0
  5  4  1  0  0  0  0
  6  5  1  0  0  0  0
  7  1  1  0  0  0  0
  9 10  1  0  0  0  0
  9  8  1  0  0  0  0
 11  9  2  0  0  0  0
 12 11  1  0  0  0  0
 13  4  2  0  0  0  0
 13 11  1  0  0  0  0
 14 15  1  0  0  0  0
 16 15  1  0  0  0  0
 17 16  1  0  0  0  0
 18 17  1  0  0  0  0
 18 19  1  0  0  0  0
 19 14  1  0  0  0  0
 20 10  1  0  0  0  0
 21 12  1  0  0  0  0
M  END
>  <CHROM.1>
71.98510304,-73.79278579,-74.92679638,-9.48861903,-2.16729728,5.70173060
-2.26238615,-0.83624318,-2.72301445

>  <Name>
lig.pdb

>  <RI>
2.20372e+07

>  <Rbt.Current_Directory>
/home/itssahil/PROJECTS/Mol_Feturizer/New_Systems/rnas/2lwk

>  <Rbt.Executable>
rbdock ($Id: //depot/dev/client3/rdock/2013.1/src/exe/rbdock.cxx#4 $)

>  <Rbt.Library>
libRbt.so (2013.1, Build901 2013/11/27)

>  <Rbt.Parameter_File>
/export/apps/rDock/src/rDock_2013.1_src/data/scripts/dock_solv.prm

>  <Rbt.Receptor>
prm/pocket_docking_7.prm

>  <SCORE>
-19.3899

>  <SCORE.INTER>
-14.3731

>  <SCORE.INTER.CONST>
1

>  <SCORE.INTER.POLAR>
-1.76462

>  <SCORE.INTER.ROT>
3

>  <SCORE.INTER.SOLV>
7.13787

>  <SCORE.INTER.VDW>
-11.6793

>  <SCORE.INTER.norm>
-0.684434

>  <SCORE.INTRA>
-5.0168

>  <SCORE.INTRA.DIHEDRAL>
-0.221595

>  <SCORE.INTRA.DIHEDRAL.0>
8.84257

>  <SCORE.INTRA.POLAR>
0

>  <SCORE.INTRA.POLAR.0>
0

>  <SCORE.INTRA.REPUL>
0

>  <SCORE.INTRA.REPUL.0>
0

>  <SCORE.INTRA.SOLV>
0.0812193

>  <SCORE.INTRA.SOLV.lig_0>
-17.1313

>  <SCORE.INTRA.VDW>
-4.94661

>  <SCORE.INTRA.VDW.0>
6.34071

>  <SCORE.INTRA.norm>
-0.238895

>  <SCORE.RESTR>
0

>  <SCORE.RESTR.CAVITY>
0

>  <SCORE.RESTR.norm>
0

>  <SCORE.SYSTEM>
0

>  <SCORE.SYSTEM.CONST>
0

>  <SCORE.SYSTEM.DIHEDRAL>
0

>  <SCORE.SYSTEM.SOLV>
0

>  <SCORE.SYSTEM.norm>
0

>  <SCORE.heavy>
21

>  <SCORE.norm>
-0.923329

>  <RMSD>
5.251

$$$$
lig.pdb
 OpenBabel11021811453D
libRbt.so/2013.1/901 2013/11/27
 21 23  0  0  0  0  0  0  0  0999 V2000
   -6.3327    3.8459    3.3254 C   0  0  0  0  0  0  0  0  0  0  0  0
   -6.3816    2.5187    3.3048 N   0  0  0  0  0  0  0  0  0  0  0  0
   -6.2117    1.8343    4.4217 C   0  0  0  0  0  0  0  0  0  0  0  0
   -5.9200    2.4811    5.5683 C   0  0  0  0  0  0  0  0  0  0  0  0
   -5.8751    3.8200    5.5860 C   0  0  0  0  0  0  0  0  0  0  0  0
   -5.5825    4.4673    6.7134 N   0  0  0  0  0  0  0  0  0  0  0  0
   -6.0795    4.4977    4.4611 N   0  0  0  0  0  0  0  0  0  0  0  0
   -6.2859    0.4932    4.3966 C   0  0  0  0  0  0  0  0  0  0  0  0
   -5.9332   -0.2141    5.5136 C   0  0  0  0  0  0  0  0  0  0  0  0
   -5.2012   -1.4115    5.3304 O   0  0  0  0  0  0  0  0  0  0  0  0
   -5.8378    0.4423    6.6816 C   0  0  0  0  0  0  0  0  0  0  0  0
   -5.9397   -0.2759    7.9031 O   0  0  0  0  0  0  0  0  0  0  0  0
   -5.7259    1.7849    6.6971 C   0  0  0  0  0  0  0  0  0  0  0  0
   -6.5205    4.5213    2.2048 N   0  0  0  0  0  0  0  0  0  0  0  0
   -7.7673    4.5415    1.7240 C   0  0  0  0  0  0  0  0  0  0  0  0
   -8.0669    3.2398    0.9961 C   0  0  0  0  0  0  0  0  0  0  0  0
   -7.1942    3.0891   -0.0616 N   0  0  0  0  0  0  0  0  0  0  0  0
   -5.9225    3.0302    0.4654 C   0  0  0  0  0  0  0  0  0  0  0  0
   -5.6185    4.3312    1.1893 C   0  0  0  0  0  0  0  0  0  0  0  0
   -6.1184   -2.4615    5.1588 C   0  0  0  0  0  0  0  0  0  0  0  0
   -7.2793   -0.6480    8.0966 C   0  0  0  0  0  0  0  0  0  0  0  0
  1 14  1  0  0  0  0
  1  2  2  0  0  0  0
  3  2  1  0  0  0  0
  3  8  2  0  0  0  0
  4  3  1  0  0  0  0
  5  7  2  0  0  0  0
  5  4  1  0  0  0  0
  6  5  1  0  0  0  0
  7  1  1  0  0  0  0
  9 10  1  0  0  0  0
  9  8  1  0  0  0  0
 11  9  2  0  0  0  0
 12 11  1  0  0  0  0
 13  4  2  0  0  0  0
 13 11  1  0  0  0  0
 14 15  1  0  0  0  0
 16 15  1  0  0  0  0
 17 16  1  0  0  0  0
 18 17  1  0  0  0  0
 18 19  1  0  0  0  0
 19 14  1  0  0  0  0
 20 10  1  0  0  0  0
 21 12  1  0  0  0  0
M  END
>  <CHROM.1>
71.76358559,-88.23295273,-73.28979514,-6.28003583,2.05845309,4.27401613,-2.34839205
1.42619718,3.02303193

>  <Name>
lig.pdb

>  <RI>
1.4775e+07

>  <Rbt.Current_Directory>
/home/itssahil/PROJECTS/Mol_Feturizer/New_Systems/rnas/2lwk

>  <Rbt.Executable>
rbdock ($Id: //depot/dev/client3/rdock/2013.1/src/exe/rbdock.cxx#4 $)

>  <Rbt.Library>
libRbt.so (2013.1, Build901 2013/11/27)

>  <Rbt.Parameter_File>
/export/apps/rDock/src/rDock_2013.1_src/data/scripts/dock_solv.prm

>  <Rbt.Receptor>
prm/pocket_docking_4.prm

>  <SCORE>
-21.6024

>  <SCORE.INTER>
-16.289

>  <SCORE.INTER.CONST>
1

>  <SCORE.INTER.POLAR>
-2.56489

>  <SCORE.INTER.ROT>
3

>  <SCORE.INTER.SOLV>
6.68479

>  <SCORE.INTER.VDW>
-10.1379

>  <SCORE.INTER.norm>
-0.775666

>  <SCORE.INTRA>
-5.31339

>  <SCORE.INTRA.DIHEDRAL>
0.449523

>  <SCORE.INTRA.DIHEDRAL.0>
8.84257

>  <SCORE.INTRA.POLAR>
0

>  <SCORE.INTRA.POLAR.0>
0

>  <SCORE.INTRA.REPUL>
0

>  <SCORE.INTRA.REPUL.0>
0

>  <SCORE.INTRA.SOLV>
0.0950197

>  <SCORE.INTRA.SOLV.lig_0>
-17.1313

>  <SCORE.INTRA.VDW>
-5.58566

>  <SCORE.INTRA.VDW.0>
6.34071

>  <SCORE.INTRA.norm>
-0.253019

>  <SCORE.RESTR>
0

>  <SCORE.RESTR.CAVITY>
0

>  <SCORE.RESTR.norm>
0

>  <SCORE.SYSTEM>
0

>  <SCORE.SYSTEM.CONST>
0

>  <SCORE.SYSTEM.DIHEDRAL>
0

>  <SCORE.SYSTEM.SOLV>
0

>  <SCORE.SYSTEM.norm>
0

>  <SCORE.heavy>
21

>  <SCORE.norm>
-1.02868

>  <RMSD>
5.253

$$$$
lig.pdb
 OpenBabel11021811453D
libRbt.so/2013.1/901 2013/11/27
 21 23  0  0  0  0  0  0  0  0999 V2000
   -6.3349    3.9050    3.3086 C   0  0  0  0  0  0  0  0  0  0  0  0
   -6.3995    2.5790    3.2668 N   0  0  0  0  0  0  0  0  0  0  0  0
   -6.2312    1.8746    4.3715 C   0  0  0  0  0  0  0  0  0  0  0  0
   -5.9254    2.4993    5.5267 C   0  0  0  0  0  0  0  0  0  0  0  0
   -5.8647    3.8371    5.5657 C   0  0  0  0  0  0  0  0  0  0  0  0
   -5.5582    4.4625    6.7017 N   0  0  0  0  0  0  0  0  0  0  0  0
   -6.0676    4.5353    4.4532 N   0  0  0  0  0  0  0  0  0  0  0  0
   -6.3213    0.5350    4.3252 C   0  0  0  0  0  0  0  0  0  0  0  0
   -5.9706   -0.1944    5.4285 C   0  0  0  0  0  0  0  0  0  0  0  0
   -5.2537   -1.3971    5.2217 O   0  0  0  0  0  0  0  0  0  0  0  0
   -5.8608    0.4418    6.6064 C   0  0  0  0  0  0  0  0  0  0  0  0
   -5.9642   -0.2948    7.8167 O   0  0  0  0  0  0  0  0  0  0  0  0
   -5.7331    1.7827    6.6430 C   0  0  0  0  0  0  0  0  0  0  0  0
   -6.5212    4.6006    2.2002 N   0  0  0  0  0  0  0  0  0  0  0  0
   -7.7447    4.5505    1.6647 C   0  0  0  0  0  0  0  0  0  0  0  0
   -7.9214    3.2547    0.8877 C   0  0  0  0  0  0  0  0  0  0  0  0
   -6.9959    3.1971   -0.1336 N   0  0  0  0  0  0  0  0  0  0  0  0
   -5.7469    3.2088    0.4480 C   0  0  0  0  0  0  0  0  0  0  0  0
   -5.5655    4.5044    1.2212 C   0  0  0  0  0  0  0  0  0  0  0  0
   -6.1724   -2.4597    5.2320 C   0  0  0  0  0  0  0  0  0  0  0  0
   -7.3224   -0.5073    8.1003 C   0  0  0  0  0  0  0  0  0  0  0  0
  1 14  1  0  0  0  0
  1  2  2  0  0  0  0
  3  2  1  0  0  0  0
  3  8  2  0  0  0  0
  4  3  1  0  0  0  0
  5  7  2  0  0  0  0
  5  4  1  0  0  0  0
  6  5  1  0  0  0  0
  7  1  1  0  0  0  0
  9 10  1  0  0  0  0
  9  8  1  0  0  0  0
 11  9  2  0  0  0  0
 12 11  1  0  0  0  0
 13  4  2  0  0  0  0
 13 11  1  0  0  0  0
 14 15  1  0  0  0  0
 16 15  1  0  0  0  0
 17 16  1  0  0  0  0
 18 17  1  0  0  0  0
 18 19  1  0  0  0  0
 19 14  1  0  0  0  0
 20 10  1  0  0  0  0
 21 12  1  0  0  0  0
M  END
>  <CHROM.1>
66.27616792,-96.63457204,-80.71621746,-6.26387687,2.10588725,4.23537927,-2.27195623
1.44430176,2.95613061

>  <Name>
lig.pdb

>  <RI>
1.4775e+07

>  <Rbt.Current_Directory>
/home/itssahil/PROJECTS/Mol_Feturizer/New_Systems/rnas/2lwk

>  <Rbt.Executable>
rbdock ($Id: //depot/dev/client3/rdock/2013.1/src/exe/rbdock.cxx#4 $)

>  <Rbt.Library>
libRbt.so (2013.1, Build901 2013/11/27)

>  <Rbt.Parameter_File>
/export/apps/rDock/src/rDock_2013.1_src/data/scripts/dock_solv.prm

>  <Rbt.Receptor>
prm/pocket_docking_4.prm

>  <SCORE>
-21.7054

>  <SCORE.INTER>
-16.3193

>  <SCORE.INTER.CONST>
1

>  <SCORE.INTER.POLAR>
-2.50231

>  <SCORE.INTER.ROT>
3

>  <SCORE.INTER.SOLV>
6.41974

>  <SCORE.INTER.VDW>
-10.2784

>  <SCORE.INTER.norm>
-0.777111

>  <SCORE.INTRA>
-5.38639

>  <SCORE.INTRA.DIHEDRAL>
0.898646

>  <SCORE.INTRA.DIHEDRAL.0>
8.84257

>  <SCORE.INTRA.POLAR>
0

>  <SCORE.INTRA.POLAR.0>
0

>  <SCORE.INTRA.REPUL>
0

>  <SCORE.INTRA.REPUL.0>
0

>  <SCORE.INTRA.SOLV>
0.0986006

>  <SCORE.INTRA.SOLV.lig_0>
-17.1313

>  <SCORE.INTRA.VDW>
-5.88501

>  <SCORE.INTRA.VDW.0>
6.34071

>  <SCORE.INTRA.norm>
-0.256495

>  <SCORE.RESTR>
0.000318628

>  <SCORE.RESTR.CAVITY>
0.000318628

>  <SCORE.RESTR.norm>
1.51728e-05

>  <SCORE.SYSTEM>
0

>  <SCORE.SYSTEM.CONST>
0

>  <SCORE.SYSTEM.DIHEDRAL>
0

>  <SCORE.SYSTEM.SOLV>
0

>  <SCORE.SYSTEM.norm>
0

>  <SCORE.heavy>
21

>  <SCORE.norm>
-1.03359

>  <RMSD>
5.255

$$$$
lig.pdb
 OpenBabel11021811453D
libRbt.so/2013.1/901 2013/11/27
 21 23  0  0  0  0  0  0  0  0999 V2000
   -6.3380    3.8968    3.3084 C   0  0  0  0  0  0  0  0  0  0  0  0
   -6.3953    2.5703    3.2713 N   0  0  0  0  0  0  0  0  0  0  0  0
   -6.2211    1.8707    4.3781 C   0  0  0  0  0  0  0  0  0  0  0  0
   -5.9166    2.5010    5.5305 C   0  0  0  0  0  0  0  0  0  0  0  0
   -5.8632    3.8392    5.5648 C   0  0  0  0  0  0  0  0  0  0  0  0
   -5.5579    4.4703    6.6981 N   0  0  0  0  0  0  0  0  0  0  0  0
   -6.0720    4.5325    4.4503 N   0  0  0  0  0  0  0  0  0  0  0  0
   -6.3039    0.5305    4.3365 C   0  0  0  0  0  0  0  0  0  0  0  0
   -5.9471   -0.1932    5.4416 C   0  0  0  0  0  0  0  0  0  0  0  0
   -5.2240   -1.3926    5.2375 O   0  0  0  0  0  0  0  0  0  0  0  0
   -5.8386    0.4476    6.6171 C   0  0  0  0  0  0  0  0  0  0  0  0
   -5.9356   -0.2854    7.8302 O   0  0  0  0  0  0  0  0  0  0  0  0
   -5.7182    1.7893    6.6489 C   0  0  0  0  0  0  0  0  0  0  0  0
   -6.5301    4.5875    2.1979 N   0  0  0  0  0  0  0  0  0  0  0  0
   -7.7575    4.5383    1.6714 C   0  0  0  0  0  0  0  0  0  0  0  0
   -7.9433    3.2393    0.9019 C   0  0  0  0  0  0  0  0  0  0  0  0
   -7.0251    3.1742   -0.1256 N   0  0  0  0  0  0  0  0  0  0  0  0
   -5.7720    3.1852    0.4471 C   0  0  0  0  0  0  0  0  0  0  0  0
   -5.5817    4.4840    1.2127 C   0  0  0  0  0  0  0  0  0  0  0  0
   -6.1490   -2.4358    5.0666 C   0  0  0  0  0  0  0  0  0  0  0  0
   -7.2889   -0.5571    8.0855 C   0  0  0  0  0  0  0  0  0  0  0  0
  1 14  1  0  0  0  0
  1  2  2  0  0  0  0
  3  2  1  0  0  0  0
  3  8  2  0  0  0  0
  4  3  1  0  0  0  0
  5  7  2  0  0  0  0
  5  4  1  0  0  0  0
  6  5  1  0  0  0  0
  7  1  1  0  0  0  0
  9 10  1  0  0  0  0
  9  8  1  0  0  0  0
 11  9  2  0  0  0  0
 12 11  1  0  0  0  0
 13  4  2  0  0  0  0
 13 11  1  0  0  0  0
 14 15  1  0  0  0  0
 16 15  1  0  0  0  0
 17 16  1  0  0  0  0
 18 17  1  0  0  0  0
 18 19  1  0  0  0  0
 19 14  1  0  0  0  0
 20 10  1  0  0  0  0
 21 12  1  0  0  0  0
M  END
>  <CHROM.1>
66.83922079,-88.53129700,-78.06449760,-6.25926140,2.09993006,4.23051008,-2.31376509
1.44000274,2.99559295

>  <Name>
lig.pdb

>  <RI>
1.4775e+07

>  <Rbt.Current_Directory>
/home/itssahil/PROJECTS/Mol_Feturizer/New_Systems/rnas/2lwk

>  <Rbt.Executable>
rbdock ($Id: //depot/dev/client3/rdock/2013.1/src/exe/rbdock.cxx#4 $)

>  <Rbt.Library>
libRbt.so (2013.1, Build901 2013/11/27)

>  <Rbt.Parameter_File>
/export/apps/rDock/src/rDock_2013.1_src/data/scripts/dock_solv.prm

>  <Rbt.Receptor>
prm/pocket_docking_4.prm

>  <SCORE>
-21.6722

>  <SCORE.INTER>
-16.3143

>  <SCORE.INTER.CONST>
1

>  <SCORE.INTER.POLAR>
-2.51541

>  <SCORE.INTER.ROT>
3

>  <SCORE.INTER.SOLV>
6.4638

>  <SCORE.INTER.VDW>
-10.2461

>  <SCORE.INTER.norm>
-0.776872

>  <SCORE.INTRA>
-5.35786

>  <SCORE.INTRA.DIHEDRAL>
0.62929

>  <SCORE.INTRA.DIHEDRAL.0>
8.84257

>  <SCORE.INTRA.POLAR>
0

>  <SCORE.INTRA.POLAR.0>
0

>  <SCORE.INTRA.REPUL>
0

>  <SCORE.INTRA.REPUL.0>
0

>  <SCORE.INTRA.SOLV>
0.0927721

>  <SCORE.INTRA.SOLV.lig_0>
-17.1313

>  <SCORE.INTRA.VDW>
-5.71889

>  <SCORE.INTRA.VDW.0>
6.34071

>  <SCORE.INTRA.norm>
-0.255136

>  <SCORE.RESTR>
0

>  <SCORE.RESTR.CAVITY>
0

>  <SCORE.RESTR.norm>
0

>  <SCORE.SYSTEM>
0

>  <SCORE.SYSTEM.CONST>
0

>  <SCORE.SYSTEM.DIHEDRAL>
0

>  <SCORE.SYSTEM.SOLV>
0

>  <SCORE.SYSTEM.norm>
0

>  <SCORE.heavy>
21

>  <SCORE.norm>
-1.03201

>  <RMSD>
5.259

$$$$
lig.pdb
 OpenBabel11021811453D
libRbt.so/2013.1/901 2013/11/27
 21 23  0  0  0  0  0  0  0  0999 V2000
   -6.3234    3.8921    3.3255 C   0  0  0  0  0  0  0  0  0  0  0  0
   -6.3894    2.5658    3.3000 N   0  0  0  0  0  0  0  0  0  0  0  0
   -6.2260    1.8750    4.4140 C   0  0  0  0  0  0  0  0  0  0  0  0
   -5.9236    2.5137    5.5624 C   0  0  0  0  0  0  0  0  0  0  0  0
   -5.8615    3.8518    5.5850 C   0  0  0  0  0  0  0  0  0  0  0  0
   -5.5583    4.4910    6.7141 N   0  0  0  0  0  0  0  0  0  0  0  0
   -6.0594    4.5363    4.4631 N   0  0  0  0  0  0  0  0  0  0  0  0
   -6.3175    0.5350    4.3840 C   0  0  0  0  0  0  0  0  0  0  0  0
   -5.9717   -0.1809    5.4976 C   0  0  0  0  0  0  0  0  0  0  0  0
   -5.2555   -1.3869    5.3084 O   0  0  0  0  0  0  0  0  0  0  0  0
   -5.8654    0.4697    6.6679 C   0  0  0  0  0  0  0  0  0  0  0  0
   -5.9741   -0.2516    7.8869 O   0  0  0  0  0  0  0  0  0  0  0  0
   -5.7362    1.8108    6.6882 C   0  0  0  0  0  0  0  0  0  0  0  0
   -6.5048    4.5740    2.2078 N   0  0  0  0  0  0  0  0  0  0  0  0
   -7.7314    4.5340    1.6787 C   0  0  0  0  0  0  0  0  0  0  0  0
   -7.9307    3.2297    0.9217 C   0  0  0  0  0  0  0  0  0  0  0  0
   -7.0109    3.1437   -0.1029 N   0  0  0  0  0  0  0  0  0  0  0  0
   -5.7592    3.1456    0.4728 C   0  0  0  0  0  0  0  0  0  0  0  0
   -5.5553    4.4496    1.2260 C   0  0  0  0  0  0  0  0  0  0  0  0
   -6.1850   -2.4359    5.2138 C   0  0  0  0  0  0  0  0  0  0  0  0
   -7.3232   -0.5749    8.1005 C   0  0  0  0  0  0  0  0  0  0  0  0
  1 14  1  0  0  0  0
  1  2  2  0  0  0  0
  3  2  1  0  0  0  0
  3  8  2  0  0  0  0
  4  3  1  0  0  0  0
  5  7  2  0  0  0  0
  5  4  1  0  0  0  0
  6  5  1  0  0  0  0
  7  1  1  0  0  0  0
  9 10  1  0  0  0  0
  9  8  1  0  0  0  0
 11  9  2  0  0  0  0
 12 11  1  0  0  0  0
 13  4  2  0  0  0  0
 13 11  1  0  0  0  0
 14 15  1  0  0  0  0
 16 15  1  0  0  0  0
 17 16  1  0  0  0  0
 18 17  1  0  0  0  0
 18 19  1  0  0  0  0
 19 14  1  0  0  0  0
 20 10  1  0  0  0  0
 21 12  1  0  0  0  0
M  END
>  <CHROM.1>
67.18636735,-91.66144240,-74.91193786,-6.26353775,2.09944616,4.26641187,-2.23859089
1.44023706,2.91514992

>  <Name>
lig.pdb

>  <RI>
1.4775e+07

>  <Rbt.Current_Directory>
/home/itssahil/PROJECTS/Mol_Feturizer/New_Systems/rnas/2lwk

>  <Rbt.Executable>
rbdock ($Id: //depot/dev/client3/rdock/2013.1/src/exe/rbdock.cxx#4 $)

>  <Rbt.Library>
libRbt.so (2013.1, Build901 2013/11/27)

>  <Rbt.Parameter_File>
/export/apps/rDock/src/rDock_2013.1_src/data/scripts/dock_solv.prm

>  <Rbt.Receptor>
prm/pocket_docking_4.prm

>  <SCORE>
-21.6744

>  <SCORE.INTER>
-16.3505

>  <SCORE.INTER.CONST>
1

>  <SCORE.INTER.POLAR>
-2.52864

>  <SCORE.INTER.ROT>
3

>  <SCORE.INTER.SOLV>
6.49177

>  <SCORE.INTER.VDW>
-10.2355

>  <SCORE.INTER.norm>
-0.778597

>  <SCORE.INTRA>
-5.32439

>  <SCORE.INTRA.DIHEDRAL>
0.623791

>  <SCORE.INTRA.DIHEDRAL.0>
8.84257

>  <SCORE.INTRA.POLAR>
0

>  <SCORE.INTRA.POLAR.0>
0

>  <SCORE.INTRA.REPUL>
0

>  <SCORE.INTRA.REPUL.0>
0

>  <SCORE.INTRA.SOLV>
0.0979206

>  <SCORE.INTRA.SOLV.lig_0>
-17.1313

>  <SCORE.INTRA.VDW>
-5.68525

>  <SCORE.INTRA.VDW.0>
6.34071

>  <SCORE.INTRA.norm>
-0.253542

>  <SCORE.RESTR>
0.00049464

>  <SCORE.RESTR.CAVITY>
0.00049464

>  <SCORE.RESTR.norm>
2.35543e-05

>  <SCORE.SYSTEM>
0

>  <SCORE.SYSTEM.CONST>
0

>  <SCORE.SYSTEM.DIHEDRAL>
0

>  <SCORE.SYSTEM.SOLV>
0

>  <SCORE.SYSTEM.norm>
0

>  <SCORE.heavy>
21

>  <SCORE.norm>
-1.03212

>  <RMSD>
5.260

$$$$
lig.pdb
 OpenBabel11021811453D
libRbt.so/2013.1/901 2013/11/27
 21 23  0  0  0  0  0  0  0  0999 V2000
   -6.2979    3.8344    3.4008 C   0  0  0  0  0  0  0  0  0  0  0  0
   -6.4565    2.5162    3.4417 N   0  0  0  0  0  0  0  0  0  0  0  0
   -6.3319    1.8715    4.5878 C   0  0  0  0  0  0  0  0  0  0  0  0
   -5.9758    2.5433    5.7014 C   0  0  0  0  0  0  0  0  0  0  0  0
   -5.8203    3.8732    5.6570 C   0  0  0  0  0  0  0  0  0  0  0  0
   -5.4635    4.5445    6.7513 N   0  0  0  0  0  0  0  0  0  0  0  0
   -5.9799    4.5138    4.5035 N   0  0  0  0  0  0  0  0  0  0  0  0
   -6.5168    0.5414    4.6251 C   0  0  0  0  0  0  0  0  0  0  0  0
   -6.2121   -0.1413    5.7711 C   0  0  0  0  0  0  0  0  0  0  0  0
   -5.5833   -1.4023    5.6384 O   0  0  0  0  0  0  0  0  0  0  0  0
   -6.0505    0.5573    6.9070 C   0  0  0  0  0  0  0  0  0  0  0  0
   -6.1985   -0.0937    8.1609 O   0  0  0  0  0  0  0  0  0  0  0  0
   -5.8280    1.8854    6.8598 C   0  0  0  0  0  0  0  0  0  0  0  0
   -6.4411    4.4714    2.2515 N   0  0  0  0  0  0  0  0  0  0  0  0
   -7.6841    4.5532    1.7673 C   0  0  0  0  0  0  0  0  0  0  0  0
   -8.0696    3.2439    1.0958 C   0  0  0  0  0  0  0  0  0  0  0  0
   -7.2093    2.9899    0.0477 N   0  0  0  0  0  0  0  0  0  0  0  0
   -5.9441    2.8698    0.5798 C   0  0  0  0  0  0  0  0  0  0  0  0
   -5.5542    4.1781    1.2473 C   0  0  0  0  0  0  0  0  0  0  0  0
   -6.5660   -2.3964    5.7774 C   0  0  0  0  0  0  0  0  0  0  0  0
   -7.5415   -0.0044    8.5593 C   0  0  0  0  0  0  0  0  0  0  0  0
  1 14  1  0  0  0  0
  1  2  2  0  0  0  0
  3  2  1  0  0  0  0
  3  8  2  0  0  0  0
  4  3  1  0  0  0  0
  5  7  2  0  0  0  0
  5  4  1  0  0  0  0
  6  5  1  0  0  0  0
  7  1  1  0  0  0  0
  9 10  1  0  0  0  0
  9  8  1  0  0  0  0
 11  9  2  0  0  0  0
 12 11  1  0  0  0  0
 13  4  2  0  0  0  0
 13 11  1  0  0  0  0
 14 15  1  0  0  0  0
 16 15  1  0  0  0  0
 17 16  1  0  0  0  0
 18 17  1  0  0  0  0
 18 19  1  0  0  0  0
 19 14  1  0  0  0  0
 20 10  1  0  0  0  0
 21 12  1  0  0  0  0
M  END
>  <CHROM.1>
70.65979252,-99.28622609,-89.92738164,-6.37420806,2.10911029,4.45146633,-1.91086877
1.40401664,2.53151165

>  <Name>
lig.pdb

>  <RI>
2.75338e+07

>  <Rbt.Current_Directory>
/home/itssahil/PROJECTS/Mol_Feturizer/New_Systems/rnas/2lwk

>  <Rbt.Executable>
rbdock ($Id: //depot/dev/client3/rdock/2013.1/src/exe/rbdock.cxx#4 $)

>  <Rbt.Library>
libRbt.so (2013.1, Build901 2013/11/27)

>  <Rbt.Parameter_File>
/export/apps/rDock/src/rDock_2013.1_src/data/scripts/dock_solv.prm

>  <Rbt.Receptor>
prm/pocket_docking_8.prm

>  <SCORE>
-22.0239

>  <SCORE.INTER>
-16.6114

>  <SCORE.INTER.CONST>
1

>  <SCORE.INTER.POLAR>
-2.36436

>  <SCORE.INTER.ROT>
3

>  <SCORE.INTER.SOLV>
6.86981

>  <SCORE.INTER.VDW>
-11.083

>  <SCORE.INTER.norm>
-0.79102

>  <SCORE.INTRA>
-5.41251

>  <SCORE.INTRA.DIHEDRAL>
0.9987

>  <SCORE.INTRA.DIHEDRAL.0>
8.84257

>  <SCORE.INTRA.POLAR>
0

>  <SCORE.INTRA.POLAR.0>
0

>  <SCORE.INTRA.REPUL>
0

>  <SCORE.INTRA.REPUL.0>
0

>  <SCORE.INTRA.SOLV>
0.0947453

>  <SCORE.INTRA.SOLV.lig_0>
-17.1313

>  <SCORE.INTRA.VDW>
-5.95923

>  <SCORE.INTRA.VDW.0>
6.34071

>  <SCORE.INTRA.norm>
-0.257739

>  <SCORE.RESTR>
0

>  <SCORE.RESTR.CAVITY>
0

>  <SCORE.RESTR.norm>
0

>  <SCORE.SYSTEM>
0

>  <SCORE.SYSTEM.CONST>
0

>  <SCORE.SYSTEM.DIHEDRAL>
0

>  <SCORE.SYSTEM.SOLV>
0

>  <SCORE.SYSTEM.norm>
0

>  <SCORE.heavy>
21

>  <SCORE.norm>
-1.04876

>  <RMSD>
5.263

$$$$
lig.pdb
 OpenBabel11021811453D
libRbt.so/2013.1/901 2013/11/27
 21 23  0  0  0  0  0  0  0  0999 V2000
   -6.3503    3.8571    3.3633 C   0  0  0  0  0  0  0  0  0  0  0  0
   -6.4878    2.5363    3.3924 N   0  0  0  0  0  0  0  0  0  0  0  0
   -6.3435    1.8824    4.5310 C   0  0  0  0  0  0  0  0  0  0  0  0
   -5.9886    2.5488    5.6482 C   0  0  0  0  0  0  0  0  0  0  0  0
   -5.8544    3.8813    5.6157 C   0  0  0  0  0  0  0  0  0  0  0  0
   -5.4989    4.5474    6.7137 N   0  0  0  0  0  0  0  0  0  0  0  0
   -6.0336    4.5306    4.4700 N   0  0  0  0  0  0  0  0  0  0  0  0
   -6.5073    0.5492    4.5566 C   0  0  0  0  0  0  0  0  0  0  0  0
   -6.1823   -0.1398    5.6933 C   0  0  0  0  0  0  0  0  0  0  0  0
   -5.5350   -1.3894    5.5429 O   0  0  0  0  0  0  0  0  0  0  0  0
   -6.0221    0.5501    6.8346 C   0  0  0  0  0  0  0  0  0  0  0  0
   -6.1494   -0.1154    8.0833 O   0  0  0  0  0  0  0  0  0  0  0  0
   -5.8208    1.8819    6.7988 C   0  0  0  0  0  0  0  0  0  0  0  0
   -6.5131    4.5030    2.2216 N   0  0  0  0  0  0  0  0  0  0  0  0
   -7.7540    4.5323    1.7262 C   0  0  0  0  0  0  0  0  0  0  0  0
   -8.0702    3.2159    1.0327 C   0  0  0  0  0  0  0  0  0  0  0  0
   -7.1890    3.0184   -0.0102 N   0  0  0  0  0  0  0  0  0  0  0  0
   -5.9244    2.9512    0.5328 C   0  0  0  0  0  0  0  0  0  0  0  0
   -5.6039    4.2668    1.2223 C   0  0  0  0  0  0  0  0  0  0  0  0
   -6.5011   -2.4000    5.6787 C   0  0  0  0  0  0  0  0  0  0  0  0
   -7.4912   -0.0559    8.4909 C   0  0  0  0  0  0  0  0  0  0  0  0
  1 14  1  0  0  0  0
  1  2  2  0  0  0  0
  3  2  1  0  0  0  0
  3  8  2  0  0  0  0
  4  3  1  0  0  0  0
  5  7  2  0  0  0  0
  5  4  1  0  0  0  0
  6  5  1  0  0  0  0
  7  1  1  0  0  0  0
  9 10  1  0  0  0  0
  9  8  1  0  0  0  0
 11  9  2  0  0  0  0
 12 11  1  0  0  0  0
 13  4  2  0  0  0  0
 13 11  1  0  0  0  0
 14 15  1  0  0  0  0
 16 15  1  0  0  0  0
 17 16  1  0  0  0  0
 18 17  1  0  0  0  0
 18 19  1  0  0  0  0
 19 14  1  0  0  0  0
 20 10  1  0  0  0  0
 21 12  1  0  0  0  0
M  END
>  <CHROM.1>
68.53567967,-99.22222898,-89.68463139,-6.37772110,2.11850650,4.39426935,-1.99485671
1.41221450,2.62293478

>  <Name>
lig.pdb

>  <RI>
2.98315e+07

>  <Rbt.Current_Directory>
/home/itssahil/PROJECTS/Mol_Feturizer/New_Systems/rnas/2lwk

>  <Rbt.Executable>
rbdock ($Id: //depot/dev/client3/rdock/2013.1/src/exe/rbdock.cxx#4 $)

>  <Rbt.Library>
libRbt.so (2013.1, Build901 2013/11/27)

>  <Rbt.Parameter_File>
/export/apps/rDock/src/rDock_2013.1_src/data/scripts/dock_solv.prm

>  <Rbt.Receptor>
prm/pocket_docking_5.prm

>  <SCORE>
-21.9639

>  <SCORE.INTER>
-16.5548

>  <SCORE.INTER.CONST>
1

>  <SCORE.INTER.POLAR>
-2.42704

>  <SCORE.INTER.ROT>
3

>  <SCORE.INTER.SOLV>
6.94917

>  <SCORE.INTER.VDW>
-10.8628

>  <SCORE.INTER.norm>
-0.788326

>  <SCORE.INTRA>
-5.40908

>  <SCORE.INTRA.DIHEDRAL>
1.00056

>  <SCORE.INTRA.DIHEDRAL.0>
8.84257

>  <SCORE.INTRA.POLAR>
0

>  <SCORE.INTRA.POLAR.0>
0

>  <SCORE.INTRA.REPUL>
0

>  <SCORE.INTRA.REPUL.0>
0

>  <SCORE.INTRA.SOLV>
0.0952704

>  <SCORE.INTRA.SOLV.lig_0>
-17.1313

>  <SCORE.INTRA.VDW>
-5.95699

>  <SCORE.INTRA.VDW.0>
6.34071

>  <SCORE.INTRA.norm>
-0.257575

>  <SCORE.RESTR>
0

>  <SCORE.RESTR.CAVITY>
0

>  <SCORE.RESTR.norm>
0

>  <SCORE.SYSTEM>
0

>  <SCORE.SYSTEM.CONST>
0

>  <SCORE.SYSTEM.DIHEDRAL>
0

>  <SCORE.SYSTEM.SOLV>
0

>  <SCORE.SYSTEM.norm>
0

>  <SCORE.heavy>
21

>  <SCORE.norm>
-1.0459

>  <RMSD>
5.266

$$$$
lig.pdb
 OpenBabel11021811453D
libRbt.so/2013.1/901 2013/11/27
 21 23  0  0  0  0  0  0  0  0999 V2000
   -6.3508    3.8477    3.3986 C   0  0  0  0  0  0  0  0  0  0  0  0
   -6.4935    2.5275    3.4306 N   0  0  0  0  0  0  0  0  0  0  0  0
   -6.3459    1.8749    4.5696 C   0  0  0  0  0  0  0  0  0  0  0  0
   -5.9824    2.5416    5.6838 C   0  0  0  0  0  0  0  0  0  0  0  0
   -5.8430    3.8736    5.6484 C   0  0  0  0  0  0  0  0  0  0  0  0
   -5.4790    4.5400    6.7434 N   0  0  0  0  0  0  0  0  0  0  0  0
   -6.0256    4.5217    4.5026 N   0  0  0  0  0  0  0  0  0  0  0  0
   -6.5150    0.5424    4.5982 C   0  0  0  0  0  0  0  0  0  0  0  0
   -6.1868   -0.1460    5.7343 C   0  0  0  0  0  0  0  0  0  0  0  0
   -5.5455   -1.3985    5.5825 O   0  0  0  0  0  0  0  0  0  0  0  0
   -6.0179    0.5450    6.8736 C   0  0  0  0  0  0  0  0  0  0  0  0
   -6.1413   -0.1179    8.1240 O   0  0  0  0  0  0  0  0  0  0  0  0
   -5.8113    1.8760    6.8346 C   0  0  0  0  0  0  0  0  0  0  0  0
   -6.5169    4.4924    2.2567 N   0  0  0  0  0  0  0  0  0  0  0  0
   -7.7606    4.5272    1.7685 C   0  0  0  0  0  0  0  0  0  0  0  0
   -8.0875    3.2112    1.0793 C   0  0  0  0  0  0  0  0  0  0  0  0
   -7.2135    3.0073    0.0316 N   0  0  0  0  0  0  0  0  0  0  0  0
   -5.9462    2.9345    0.5673 C   0  0  0  0  0  0  0  0  0  0  0  0
   -5.6148    4.2497    1.2526 C   0  0  0  0  0  0  0  0  0  0  0  0
   -6.5111   -2.4056    5.7456 C   0  0  0  0  0  0  0  0  0  0  0  0
   -7.4763   -0.0328    8.5493 C   0  0  0  0  0  0  0  0  0  0  0  0
  1 14  1  0  0  0  0
  1  2  2  0  0  0  0
  3  2  1  0  0  0  0
  3  8  2  0  0  0  0
  4  3  1  0  0  0  0
  5  7  2  0  0  0  0
  5  4  1  0  0  0  0
  6  5  1  0  0  0  0
  7  1  1  0  0  0  0
  9 10  1  0  0  0  0
  9  8  1  0  0  0  0
 11  9  2  0  0  0  0
 12 11  1  0  0  0  0
 13  4  2  0  0  0  0
 13 11  1  0  0  0  0
 14 15  1  0  0  0  0
 16 15  1  0  0  0  0
 17 16  1  0  0  0  0
 18 17  1  0  0  0  0
 18 19  1  0  0  0  0
 19 14  1  0  0  0  0
 20 10  1  0  0  0  0
 21 12  1  0  0  0  0
M  END
>  <CHROM.1>
68.60760739,-100.11657600,-90.66384532,-6.37989418,2.11194569,4.43432212
-1.99350605,1.40619750,2.61926711

>  <Name>
lig.pdb

>  <RI>
2.98315e+07

>  <Rbt.Current_Directory>
/home/itssahil/PROJECTS/Mol_Feturizer/New_Systems/rnas/2lwk

>  <Rbt.Executable>
rbdock ($Id: //depot/dev/client3/rdock/2013.1/src/exe/rbdock.cxx#4 $)

>  <Rbt.Library>
libRbt.so (2013.1, Build901 2013/11/27)

>  <Rbt.Parameter_File>
/export/apps/rDock/src/rDock_2013.1_src/data/scripts/dock_solv.prm

>  <Rbt.Receptor>
prm/pocket_docking_5.prm

>  <SCORE>
-22.007

>  <SCORE.INTER>
-16.6057

>  <SCORE.INTER.CONST>
1

>  <SCORE.INTER.POLAR>
-2.42364

>  <SCORE.INTER.ROT>
3

>  <SCORE.INTER.SOLV>
7.01017

>  <SCORE.INTER.VDW>
-10.9284

>  <SCORE.INTER.norm>
-0.790749

>  <SCORE.INTRA>
-5.40127

>  <SCORE.INTRA.DIHEDRAL>
1.00046

>  <SCORE.INTRA.DIHEDRAL.0>
8.84257

>  <SCORE.INTRA.POLAR>
0

>  <SCORE.INTRA.POLAR.0>
0

>  <SCORE.INTRA.REPUL>
0

>  <SCORE.INTRA.REPUL.0>
0

>  <SCORE.INTRA.SOLV>
0.0955688

>  <SCORE.INTRA.SOLV.lig_0>
-17.1313

>  <SCORE.INTRA.VDW>
-5.94929

>  <SCORE.INTRA.VDW.0>
6.34071

>  <SCORE.INTRA.norm>
-0.257204

>  <SCORE.RESTR>
0

>  <SCORE.RESTR.CAVITY>
0

>  <SCORE.RESTR.norm>
0

>  <SCORE.SYSTEM>
0

>  <SCORE.SYSTEM.CONST>
0

>  <SCORE.SYSTEM.DIHEDRAL>
0

>  <SCORE.SYSTEM.SOLV>
0

>  <SCORE.SYSTEM.norm>
0

>  <SCORE.heavy>
21

>  <SCORE.norm>
-1.04795

>  <RMSD>
5.270

$$$$
lig.pdb
 OpenBabel11021811453D
libRbt.so/2013.1/901 2013/11/27
 21 23  0  0  0  0  0  0  0  0999 V2000
   -6.3311    3.8681    3.3495 C   0  0  0  0  0  0  0  0  0  0  0  0
   -6.4133    2.5425    3.3350 N   0  0  0  0  0  0  0  0  0  0  0  0
   -6.2534    1.8587    4.4538 C   0  0  0  0  0  0  0  0  0  0  0  0
   -5.9383    2.5029    5.5956 C   0  0  0  0  0  0  0  0  0  0  0  0
   -5.8598    3.8402    5.6072 C   0  0  0  0  0  0  0  0  0  0  0  0
   -5.5439    4.4847    6.7299 N   0  0  0  0  0  0  0  0  0  0  0  0
   -6.0544    4.5181    4.4807 N   0  0  0  0  0  0  0  0  0  0  0  0
   -6.3613    0.5198    4.4350 C   0  0  0  0  0  0  0  0  0  0  0  0
   -6.0193   -0.1914    5.5528 C   0  0  0  0  0  0  0  0  0  0  0  0
   -5.3187   -1.4075    5.3702 O   0  0  0  0  0  0  0  0  0  0  0  0
   -5.9000    0.4673    6.7173 C   0  0  0  0  0  0  0  0  0  0  0  0
   -6.0120   -0.2429    7.9426 O   0  0  0  0  0  0  0  0  0  0  0  0
   -5.7544    1.8068    6.7263 C   0  0  0  0  0  0  0  0  0  0  0  0
   -6.5091    4.5432    2.2271 N   0  0  0  0  0  0  0  0  0  0  0  0
   -7.7374    4.5104    1.7014 C   0  0  0  0  0  0  0  0  0  0  0  0
   -7.9505    3.2023    0.9548 C   0  0  0  0  0  0  0  0  0  0  0  0
   -7.0343    3.1001   -0.0714 N   0  0  0  0  0  0  0  0  0  0  0  0
   -5.7810    3.0950    0.5011 C   0  0  0  0  0  0  0  0  0  0  0  0
   -5.5634    4.4027    1.2439 C   0  0  0  0  0  0  0  0  0  0  0  0
   -6.2421   -2.4616    5.4666 C   0  0  0  0  0  0  0  0  0  0  0  0
   -7.3527   -0.2172    8.3574 C   0  0  0  0  0  0  0  0  0  0  0  0
  1 14  1  0  0  0  0
  1  2  2  0  0  0  0
  3  2  1  0  0  0  0
  3  8  2  0  0  0  0
  4  3  1  0  0  0  0
  5  7  2  0  0  0  0
  5  4  1  0  0  0  0
  6  5  1  0  0  0  0
  7  1  1  0  0  0  0
  9 10  1  0  0  0  0
  9  8  1  0  0  0  0
 11  9  2  0  0  0  0
 12 11  1  0  0  0  0
 13  4  2  0  0  0  0
 13 11  1  0  0  0  0
 14 15  1  0  0  0  0
 16 15  1  0  0  0  0
 17 16  1  0  0  0  0
 18 17  1  0  0  0  0
 18 19  1  0  0  0  0
 19 14  1  0  0  0  0
 20 10  1  0  0  0  0
 21 12  1  0  0  0  0
M  END
>  <CHROM.1>
66.98369420,-99.39804636,-91.48206932,-6.28602097,2.09870772,4.32360862,-2.23323764
1.44519161,2.88883418

>  <Name>
lig.pdb

>  <RI>
2.98315e+07

>  <Rbt.Current_Directory>
/home/itssahil/PROJECTS/Mol_Feturizer/New_Systems/rnas/2lwk

>  <Rbt.Executable>
rbdock ($Id: //depot/dev/client3/rdock/2013.1/src/exe/rbdock.cxx#4 $)

>  <Rbt.Library>
libRbt.so (2013.1, Build901 2013/11/27)

>  <Rbt.Parameter_File>
/export/apps/rDock/src/rDock_2013.1_src/data/scripts/dock_solv.prm

>  <Rbt.Receptor>
prm/pocket_docking_5.prm

>  <SCORE>
-21.8536

>  <SCORE.INTER>
-16.4712

>  <SCORE.INTER.CONST>
1

>  <SCORE.INTER.POLAR>
-2.51317

>  <SCORE.INTER.ROT>
3

>  <SCORE.INTER.SOLV>
6.57004

>  <SCORE.INTER.VDW>
-10.3936

>  <SCORE.INTER.norm>
-0.784345

>  <SCORE.INTRA>
-5.38236

>  <SCORE.INTRA.DIHEDRAL>
0.989376

>  <SCORE.INTRA.DIHEDRAL.0>
8.84257

>  <SCORE.INTRA.POLAR>
0

>  <SCORE.INTRA.POLAR.0>
0

>  <SCORE.INTRA.REPUL>
0

>  <SCORE.INTRA.REPUL.0>
0

>  <SCORE.INTRA.SOLV>
0.0945728

>  <SCORE.INTRA.SOLV.lig_0>
-17.1313

>  <SCORE.INTRA.VDW>
-5.92434

>  <SCORE.INTRA.VDW.0>
6.34071

>  <SCORE.INTRA.norm>
-0.256303

>  <SCORE.RESTR>
0

>  <SCORE.RESTR.CAVITY>
0

>  <SCORE.RESTR.norm>
0

>  <SCORE.SYSTEM>
0

>  <SCORE.SYSTEM.CONST>
0

>  <SCORE.SYSTEM.DIHEDRAL>
0

>  <SCORE.SYSTEM.SOLV>
0

>  <SCORE.SYSTEM.norm>
0

>  <SCORE.heavy>
21

>  <SCORE.norm>
-1.04065

>  <RMSD>
5.272

$$$$
lig.pdb
 OpenBabel11021811453D
libRbt.so/2013.1/901 2013/11/27
 21 23  0  0  0  0  0  0  0  0999 V2000
   -6.3347    3.8390    3.3844 C   0  0  0  0  0  0  0  0  0  0  0  0
   -6.4288    2.5141    3.3918 N   0  0  0  0  0  0  0  0  0  0  0  0
   -6.2668    1.8469    4.5203 C   0  0  0  0  0  0  0  0  0  0  0  0
   -5.9378    2.5065    5.6494 C   0  0  0  0  0  0  0  0  0  0  0  0
   -5.8474    3.8431    5.6389 C   0  0  0  0  0  0  0  0  0  0  0  0
   -5.5177    4.5026    6.7488 N   0  0  0  0  0  0  0  0  0  0  0  0
   -6.0441    4.5045    4.5030 N   0  0  0  0  0  0  0  0  0  0  0  0
   -6.3867    0.5089    4.5239 C   0  0  0  0  0  0  0  0  0  0  0  0
   -6.0430   -0.1873    5.6505 C   0  0  0  0  0  0  0  0  0  0  0  0
   -5.3545   -1.4124    5.4826 O   0  0  0  0  0  0  0  0  0  0  0  0
   -5.9095    0.4888    6.8034 C   0  0  0  0  0  0  0  0  0  0  0  0
   -6.0189   -0.2006    8.0407 O   0  0  0  0  0  0  0  0  0  0  0  0
   -5.7520    1.8270    6.7898 C   0  0  0  0  0  0  0  0  0  0  0  0
   -6.5148    4.4975    2.2526 N   0  0  0  0  0  0  0  0  0  0  0  0
   -7.7632    4.5322    1.7765 C   0  0  0  0  0  0  0  0  0  0  0  0
   -8.0898    3.2235    1.0732 C   0  0  0  0  0  0  0  0  0  0  0  0
   -7.2246    3.0378    0.0149 N   0  0  0  0  0  0  0  0  0  0  0  0
   -5.9520    2.9648    0.5378 C   0  0  0  0  0  0  0  0  0  0  0  0
   -5.6209    4.2727    1.2371 C   0  0  0  0  0  0  0  0  0  0  0  0
   -6.2959   -2.4533    5.5407 C   0  0  0  0  0  0  0  0  0  0  0  0
   -7.3600   -0.1740    8.4543 C   0  0  0  0  0  0  0  0  0  0  0  0
  1 14  1  0  0  0  0
  1  2  2  0  0  0  0
  3  2  1  0  0  0  0
  3  8  2  0  0  0  0
  4  3  1  0  0  0  0
  5  7  2  0  0  0  0
  5  4  1  0  0  0  0
  6  5  1  0  0  0  0
  7  1  1  0  0  0  0
  9 10  1  0  0  0  0
  9  8  1  0  0  0  0
 11  9  2  0  0  0  0
 12 11  1  0  0  0  0
 13  4  2  0  0  0  0
 13 11  1  0  0  0  0
 14 15  1  0  0  0  0
 16 15  1  0  0  0  0
 17 16  1  0  0  0  0
 18 17  1  0  0  0  0
 18 19  1  0  0  0  0
 19 14  1  0  0  0  0
 20 10  1  0  0  0  0
 21 12  1  0  0  0  0
M  END
>  <CHROM.1>
70.72245714,-96.71402175,-90.58236800,-6.32213658,2.08650275,4.38773775,-2.20651205
1.42145345,2.84866952

>  <Name>
lig.pdb

>  <RI>
2.98315e+07

>  <Rbt.Current_Directory>
/home/itssahil/PROJECTS/Mol_Feturizer/New_Systems/rnas/2lwk

>  <Rbt.Executable>
rbdock ($Id: //depot/dev/client3/rdock/2013.1/src/exe/rbdock.cxx#4 $)

>  <Rbt.Library>
libRbt.so (2013.1, Build901 2013/11/27)

>  <Rbt.Parameter_File>
/export/apps/rDock/src/rDock_2013.1_src/data/scripts/dock_solv.prm

>  <Rbt.Receptor>
prm/pocket_docking_5.prm

>  <SCORE>
-21.903

>  <SCORE.INTER>
-16.5036

>  <SCORE.INTER.CONST>
1

>  <SCORE.INTER.POLAR>
-2.5081

>  <SCORE.INTER.ROT>
3

>  <SCORE.INTER.SOLV>
6.87545

>  <SCORE.INTER.VDW>
-10.5338

>  <SCORE.INTER.norm>
-0.785884

>  <SCORE.INTRA>
-5.3994

>  <SCORE.INTRA.DIHEDRAL>
0.965676

>  <SCORE.INTRA.DIHEDRAL.0>
8.84257

>  <SCORE.INTRA.POLAR>
0

>  <SCORE.INTRA.POLAR.0>
0

>  <SCORE.INTRA.REPUL>
0

>  <SCORE.INTRA.REPUL.0>
0

>  <SCORE.INTRA.SOLV>
0.0918495

>  <SCORE.INTRA.SOLV.lig_0>
-17.1313

>  <SCORE.INTRA.VDW>
-5.92817

>  <SCORE.INTRA.VDW.0>
6.34071

>  <SCORE.INTRA.norm>
-0.257114

>  <SCORE.RESTR>
0

>  <SCORE.RESTR.CAVITY>
0

>  <SCORE.RESTR.norm>
0

>  <SCORE.SYSTEM>
0

>  <SCORE.SYSTEM.CONST>
0

>  <SCORE.SYSTEM.DIHEDRAL>
0

>  <SCORE.SYSTEM.SOLV>
0

>  <SCORE.SYSTEM.norm>
0

>  <SCORE.heavy>
21

>  <SCORE.norm>
-1.043

>  <RMSD>
5.278

$$$$
lig.pdb
 OpenBabel11021811453D
libRbt.so/2013.1/901 2013/11/27
 21 23  0  0  0  0  0  0  0  0999 V2000
   -6.3248    3.9166    3.3038 C   0  0  0  0  0  0  0  0  0  0  0  0
   -6.3744    2.5900    3.2586 N   0  0  0  0  0  0  0  0  0  0  0  0
   -6.1976    1.8847    4.3614 C   0  0  0  0  0  0  0  0  0  0  0  0
   -5.8984    2.5099    5.5180 C   0  0  0  0  0  0  0  0  0  0  0  0
   -5.8529    3.8482    5.5605 C   0  0  0  0  0  0  0  0  0  0  0  0
   -5.5529    4.4742    6.6979 N   0  0  0  0  0  0  0  0  0  0  0  0
   -6.0641    4.5469    4.4498 N   0  0  0  0  0  0  0  0  0  0  0  0
   -6.2725    0.5443    4.3117 C   0  0  0  0  0  0  0  0  0  0  0  0
   -5.9130   -0.1839    5.4130 C   0  0  0  0  0  0  0  0  0  0  0  0
   -5.1826   -1.3778    5.2027 O   0  0  0  0  0  0  0  0  0  0  0  0
   -5.8099    0.4505    6.5924 C   0  0  0  0  0  0  0  0  0  0  0  0
   -5.9043   -0.2903    7.8009 O   0  0  0  0  0  0  0  0  0  0  0  0
   -5.6974    1.7927    6.6324 C   0  0  0  0  0  0  0  0  0  0  0  0
   -6.5194    4.6128    2.1971 N   0  0  0  0  0  0  0  0  0  0  0  0
   -7.7443    4.5552    1.6656 C   0  0  0  0  0  0  0  0  0  0  0  0
   -7.9147    3.2597    0.8868 C   0  0  0  0  0  0  0  0  0  0  0  0
   -6.9921    3.2103   -0.1376 N   0  0  0  0  0  0  0  0  0  0  0  0
   -5.7413    3.2295    0.4400 C   0  0  0  0  0  0  0  0  0  0  0  0
   -5.5664    4.5249    1.2149 C   0  0  0  0  0  0  0  0  0  0  0  0
   -6.0878   -2.4518    5.2210 C   0  0  0  0  0  0  0  0  0  0  0  0
   -7.2606   -0.4975    8.0977 C   0  0  0  0  0  0  0  0  0  0  0  0
  1 14  1  0  0  0  0
  1  2  2  0  0  0  0
  3  2  1  0  0  0  0
  3  8  2  0  0  0  0
  4  3  1  0  0  0  0
  5  7  2  0  0  0  0
  5  4  1  0  0  0  0
  6  5  1  0  0  0  0
  7  1  1  0  0  0  0
  9 10  1  0  0  0  0
  9  8  1  0  0  0  0
 11  9  2  0  0  0  0
 12 11  1  0  0  0  0
 13  4  2  0  0  0  0
 13 11  1  0  0  0  0
 14 15  1  0  0  0  0
 16 15  1  0  0  0  0
 17 16  1  0  0  0  0
 18 17  1  0  0  0  0
 18 19  1  0  0  0  0
 19 14  1  0  0  0  0
 20 10  1  0  0  0  0
 21 12  1  0  0  0  0
M  END
>  <CHROM.1>
66.58135302,-97.08088241,-81.80232786,-6.23479970,2.11709277,4.22742593,-2.36906902
1.44495088,3.05426377

>  <Name>
lig.pdb

>  <RI>
1.4775e+07

>  <Rbt.Current_Directory>
/home/itssahil/PROJECTS/Mol_Feturizer/New_Systems/rnas/2lwk

>  <Rbt.Executable>
rbdock ($Id: //depot/dev/client3/rdock/2013.1/src/exe/rbdock.cxx#4 $)

>  <Rbt.Library>
libRbt.so (2013.1, Build901 2013/11/27)

>  <Rbt.Parameter_File>
/export/apps/rDock/src/rDock_2013.1_src/data/scripts/dock_solv.prm

>  <Rbt.Receptor>
prm/pocket_docking_4.prm

>  <SCORE>
-21.7343

>  <SCORE.INTER>
-16.3392

>  <SCORE.INTER.CONST>
1

>  <SCORE.INTER.POLAR>
-2.51395

>  <SCORE.INTER.ROT>
3

>  <SCORE.INTER.SOLV>
6.38558

>  <SCORE.INTER.VDW>
-10.2415

>  <SCORE.INTER.norm>
-0.778058

>  <SCORE.INTRA>
-5.3951

>  <SCORE.INTRA.DIHEDRAL>
0.926077

>  <SCORE.INTRA.DIHEDRAL.0>
8.84257

>  <SCORE.INTRA.POLAR>
0

>  <SCORE.INTRA.POLAR.0>
0

>  <SCORE.INTRA.REPUL>
0

>  <SCORE.INTRA.REPUL.0>
0

>  <SCORE.INTRA.SOLV>
0.0982947

>  <SCORE.INTRA.SOLV.lig_0>
-17.1313

>  <SCORE.INTRA.VDW>
-5.90729

>  <SCORE.INTRA.VDW.0>
6.34071

>  <SCORE.INTRA.norm>
-0.256909

>  <SCORE.RESTR>
0

>  <SCORE.RESTR.CAVITY>
0

>  <SCORE.RESTR.norm>
0

>  <SCORE.SYSTEM>
0

>  <SCORE.SYSTEM.CONST>
0

>  <SCORE.SYSTEM.DIHEDRAL>
0

>  <SCORE.SYSTEM.SOLV>
0

>  <SCORE.SYSTEM.norm>
0

>  <SCORE.heavy>
21

>  <SCORE.norm>
-1.03497

>  <RMSD>
5.279

$$$$
lig.pdb
 OpenBabel11021811453D
libRbt.so/2013.1/901 2013/11/27
 21 23  0  0  0  0  0  0  0  0999 V2000
   -6.3825    3.9195    3.3204 C   0  0  0  0  0  0  0  0  0  0  0  0
   -6.5884    2.6073    3.3268 N   0  0  0  0  0  0  0  0  0  0  0  0
   -6.4830    1.9279    4.4547 C   0  0  0  0  0  0  0  0  0  0  0  0
   -6.0987    2.5562    5.5841 C   0  0  0  0  0  0  0  0  0  0  0  0
   -5.8954    3.8804    5.5746 C   0  0  0  0  0  0  0  0  0  0  0  0
   -5.5104    4.5087    6.6848 N   0  0  0  0  0  0  0  0  0  0  0  0
   -6.0359    4.5571    4.4394 N   0  0  0  0  0  0  0  0  0  0  0  0
   -6.7158    0.6048    4.4572 C   0  0  0  0  0  0  0  0  0  0  0  0
   -6.4317   -0.1190    5.5831 C   0  0  0  0  0  0  0  0  0  0  0  0
   -5.8495   -1.3979    5.4138 O   0  0  0  0  0  0  0  0  0  0  0  0
   -6.2408    0.5424    6.7365 C   0  0  0  0  0  0  0  0  0  0  0  0
   -6.4076   -0.1363    7.9733 O   0  0  0  0  0  0  0  0  0  0  0  0
   -5.9705    1.8624    6.7238 C   0  0  0  0  0  0  0  0  0  0  0  0
   -6.5067    4.5919    2.1892 N   0  0  0  0  0  0  0  0  0  0  0  0
   -7.7178    4.5869    1.6239 C   0  0  0  0  0  0  0  0  0  0  0  0
   -7.9397    3.2800    0.8777 C   0  0  0  0  0  0  0  0  0  0  0  0
   -6.9935    3.1484   -0.1175 N   0  0  0  0  0  0  0  0  0  0  0  0
   -5.7600    3.1152    0.4956 C   0  0  0  0  0  0  0  0  0  0  0  0
   -5.5334    4.4215    1.2382 C   0  0  0  0  0  0  0  0  0  0  0  0
   -6.8612   -2.3609    5.5628 C   0  0  0  0  0  0  0  0  0  0  0  0
   -5.1467   -0.5416    8.4385 C   0  0  0  0  0  0  0  0  0  0  0  0
  1 14  1  0  0  0  0
  1  2  2  0  0  0  0
  3  2  1  0  0  0  0
  3  8  2  0  0  0  0
  4  3  1  0  0  0  0
  5  7  2  0  0  0  0
  5  4  1  0  0  0  0
  6  5  1  0  0  0  0
  7  1  1  0  0  0  0
  9 10  1  0  0  0  0
  9  8  1  0  0  0  0
 11  9  2  0  0  0  0
 12 11  1  0  0  0  0
 13  4  2  0  0  0  0
 13 11  1  0  0  0  0
 14 15  1  0  0  0  0
 16 15  1  0  0  0  0
 17 16  1  0  0  0  0
 18 17  1  0  0  0  0
 18 19  1  0  0  0  0
 19 14  1  0  0  0  0
 20 10  1  0  0  0  0
 21 12  1  0  0  0  0
M  END
>  <CHROM.1>
62.38680411,-100.68647235,97.75455653,-6.33074886,2.13540721,4.31965713,-1.99230021
1.35139605,2.63882941

>  <Name>
lig.pdb

>  <RI>
1.4775e+07

>  <Rbt.Current_Directory>
/home/itssahil/PROJECTS/Mol_Feturizer/New_Systems/rnas/2lwk

>  <Rbt.Executable>
rbdock ($Id: //depot/dev/client3/rdock/2013.1/src/exe/rbdock.cxx#4 $)

>  <Rbt.Library>
libRbt.so (2013.1, Build901 2013/11/27)

>  <Rbt.Parameter_File>
/export/apps/rDock/src/rDock_2013.1_src/data/scripts/dock_solv.prm

>  <Rbt.Receptor>
prm/pocket_docking_4.prm

>  <SCORE>
-20.3665

>  <SCORE.INTER>
-15.5254

>  <SCORE.INTER.CONST>
1

>  <SCORE.INTER.POLAR>
-2.30792

>  <SCORE.INTER.ROT>
3

>  <SCORE.INTER.SOLV>
6.74255

>  <SCORE.INTER.VDW>
-10.5047

>  <SCORE.INTER.norm>
-0.739303

>  <SCORE.INTRA>
-5.36705

>  <SCORE.INTRA.DIHEDRAL>
0.967838

>  <SCORE.INTRA.DIHEDRAL.0>
8.84257

>  <SCORE.INTRA.POLAR>
0

>  <SCORE.INTRA.POLAR.0>
0

>  <SCORE.INTRA.REPUL>
0

>  <SCORE.INTRA.REPUL.0>
0

>  <SCORE.INTRA.SOLV>
0.144858

>  <SCORE.INTRA.SOLV.lig_0>
-17.1313

>  <SCORE.INTRA.VDW>
-5.9234

>  <SCORE.INTRA.VDW.0>
6.34071

>  <SCORE.INTRA.norm>
-0.255574

>  <SCORE.RESTR>
0.525865

>  <SCORE.RESTR.CAVITY>
0.525865

>  <SCORE.RESTR.norm>
0.0250412

>  <SCORE.SYSTEM>
0

>  <SCORE.SYSTEM.CONST>
0

>  <SCORE.SYSTEM.DIHEDRAL>
0

>  <SCORE.SYSTEM.SOLV>
0

>  <SCORE.SYSTEM.norm>
0

>  <SCORE.heavy>
21

>  <SCORE.norm>
-0.969835

>  <RMSD>
5.283

$$$$
lig.pdb
 OpenBabel11021811453D
libRbt.so/2013.1/901 2013/11/27
 21 23  0  0  0  0  0  0  0  0999 V2000
   -6.3156    3.8513    3.3499 C   0  0  0  0  0  0  0  0  0  0  0  0
   -6.3637    2.5239    3.3417 N   0  0  0  0  0  0  0  0  0  0  0  0
   -6.1894    1.8501    4.4644 C   0  0  0  0  0  0  0  0  0  0  0  0
   -5.8940    2.5078    5.6039 C   0  0  0  0  0  0  0  0  0  0  0  0
   -5.8499    3.8468    5.6089 C   0  0  0  0  0  0  0  0  0  0  0  0
   -5.5537    4.5047    6.7291 N   0  0  0  0  0  0  0  0  0  0  0  0
   -6.0587    4.5138    4.4785 N   0  0  0  0  0  0  0  0  0  0  0  0
   -6.2628    0.5087    4.4521 C   0  0  0  0  0  0  0  0  0  0  0  0
   -5.9058   -0.1879    5.5744 C   0  0  0  0  0  0  0  0  0  0  0  0
   -5.1737   -1.3865    5.3998 O   0  0  0  0  0  0  0  0  0  0  0  0
   -5.8067    0.4794    6.7359 C   0  0  0  0  0  0  0  0  0  0  0  0
   -5.9038   -0.2273    7.9644 O   0  0  0  0  0  0  0  0  0  0  0  0
   -5.6955    1.8223    6.7385 C   0  0  0  0  0  0  0  0  0  0  0  0
   -6.5077    4.5160    2.2236 N   0  0  0  0  0  0  0  0  0  0  0  0
   -7.7567    4.5327    1.7482 C   0  0  0  0  0  0  0  0  0  0  0  0
   -8.0606    3.2244    1.0341 C   0  0  0  0  0  0  0  0  0  0  0  0
   -7.1927    3.0628   -0.0259 N   0  0  0  0  0  0  0  0  0  0  0  0
   -5.9187    3.0078    0.4960 C   0  0  0  0  0  0  0  0  0  0  0  0
   -5.6104    4.3155    1.2060 C   0  0  0  0  0  0  0  0  0  0  0  0
   -6.0715   -2.4630    5.4900 C   0  0  0  0  0  0  0  0  0  0  0  0
   -7.2365   -0.1872    8.4032 C   0  0  0  0  0  0  0  0  0  0  0  0
  1 14  1  0  0  0  0
  1  2  2  0  0  0  0
  3  2  1  0  0  0  0
  3  8  2  0  0  0  0
  4  3  1  0  0  0  0
  5  7  2  0  0  0  0
  5  4  1  0  0  0  0
  6  5  1  0  0  0  0
  7  1  1  0  0  0  0
  9 10  1  0  0  0  0
  9  8  1  0  0  0  0
 11  9  2  0  0  0  0
 12 11  1  0  0  0  0
 13  4  2  0  0  0  0
 13 11  1  0  0  0  0
 14 15  1  0  0  0  0
 16 15  1  0  0  0  0
 17 16  1  0  0  0  0
 18 17  1  0  0  0  0
 18 19  1  0  0  0  0
 19 14  1  0  0  0  0
 20 10  1  0  0  0  0
 21 12  1  0  0  0  0
M  END
>  <CHROM.1>
71.86286545,-99.00474384,-93.85699399,-6.25771670,2.09293940,4.34026711,-2.45809613
1.43420821,3.10714068

>  <Name>
lig.pdb

>  <RI>
2.98315e+07

>  <Rbt.Current_Directory>
/home/itssahil/PROJECTS/Mol_Feturizer/New_Systems/rnas/2lwk

>  <Rbt.Executable>
rbdock ($Id: //depot/dev/client3/rdock/2013.1/src/exe/rbdock.cxx#4 $)

>  <Rbt.Library>
libRbt.so (2013.1, Build901 2013/11/27)

>  <Rbt.Parameter_File>
/export/apps/rDock/src/rDock_2013.1_src/data/scripts/dock_solv.prm

>  <Rbt.Receptor>
prm/pocket_docking_5.prm

>  <SCORE>
-21.9557

>  <SCORE.INTER>
-16.5802

>  <SCORE.INTER.CONST>
1

>  <SCORE.INTER.POLAR>
-2.57396

>  <SCORE.INTER.ROT>
3

>  <SCORE.INTER.SOLV>
6.72968

>  <SCORE.INTER.VDW>
-10.3168

>  <SCORE.INTER.norm>
-0.789534

>  <SCORE.INTRA>
-5.37547

>  <SCORE.INTRA.DIHEDRAL>
0.951708

>  <SCORE.INTRA.DIHEDRAL.0>
8.84257

>  <SCORE.INTRA.POLAR>
0

>  <SCORE.INTRA.POLAR.0>
0

>  <SCORE.INTRA.REPUL>
0

>  <SCORE.INTRA.REPUL.0>
0

>  <SCORE.INTRA.SOLV>
0.0919005

>  <SCORE.INTRA.SOLV.lig_0>
-17.1313

>  <SCORE.INTRA.VDW>
-5.89728

>  <SCORE.INTRA.VDW.0>
6.34071

>  <SCORE.INTRA.norm>
-0.255975

>  <SCORE.RESTR>
0

>  <SCORE.RESTR.CAVITY>
0

>  <SCORE.RESTR.norm>
0

>  <SCORE.SYSTEM>
0

>  <SCORE.SYSTEM.CONST>
0

>  <SCORE.SYSTEM.DIHEDRAL>
0

>  <SCORE.SYSTEM.SOLV>
0

>  <SCORE.SYSTEM.norm>
0

>  <SCORE.heavy>
21

>  <SCORE.norm>
-1.04551

>  <RMSD>
5.315

$$$$
lig.pdb
 OpenBabel11021811453D
libRbt.so/2013.1/901 2013/11/27
 21 23  0  0  0  0  0  0  0  0999 V2000
   -9.0783   -2.8992    5.1698 C   0  0  0  0  0  0  0  0  0  0  0  0
   -8.7270   -2.2848    4.0457 N   0  0  0  0  0  0  0  0  0  0  0  0
   -7.8556   -2.8495    3.2293 C   0  0  0  0  0  0  0  0  0  0  0  0
   -7.2720   -4.0158    3.5718 C   0  0  0  0  0  0  0  0  0  0  0  0
   -7.6316   -4.6342    4.7045 C   0  0  0  0  0  0  0  0  0  0  0  0
   -7.0564   -5.7845    5.0534 N   0  0  0  0  0  0  0  0  0  0  0  0
   -8.5333   -4.0703    5.5016 N   0  0  0  0  0  0  0  0  0  0  0  0
   -7.5232   -2.2327    2.0831 C   0  0  0  0  0  0  0  0  0  0  0  0
   -6.4932   -2.7316    1.3331 C   0  0  0  0  0  0  0  0  0  0  0  0
   -5.6091   -1.8051    0.7304 O   0  0  0  0  0  0  0  0  0  0  0  0
   -6.0653   -3.9796    1.5854 C   0  0  0  0  0  0  0  0  0  0  0  0
   -5.3603   -4.6983    0.5830 O   0  0  0  0  0  0  0  0  0  0  0  0
   -6.3714   -4.5777    2.7533 C   0  0  0  0  0  0  0  0  0  0  0  0
   -9.9636   -2.3326    5.9714 N   0  0  0  0  0  0  0  0  0  0  0  0
  -11.2504   -2.5104    5.6572 C   0  0  0  0  0  0  0  0  0  0  0  0
  -11.6497   -1.5619    4.5370 C   0  0  0  0  0  0  0  0  0  0  0  0
  -11.4784   -0.2573    4.9514 N   0  0  0  0  0  0  0  0  0  0  0  0
  -10.1390   -0.0911    5.2288 C   0  0  0  0  0  0  0  0  0  0  0  0
   -9.7381   -1.0341    6.3509 C   0  0  0  0  0  0  0  0  0  0  0  0
   -5.7681   -1.8932   -0.6624 C   0  0  0  0  0  0  0  0  0  0  0  0
   -3.9866   -4.4533    0.7350 C   0  0  0  0  0  0  0  0  0  0  0  0
  1 14  1  0  0  0  0
  1  2  2  0  0  0  0
  3  2  1  0  0  0  0
  3  8  2  0  0  0  0
  4  3  1  0  0  0  0
  5  7  2  0  0  0  0
  5  4  1  0  0  0  0
  6  5  1  0  0  0  0
  7  1  1  0  0  0  0
  9 10  1  0  0  0  0
  9  8  1  0  0  0  0
 11  9  2  0  0  0  0
 12 11  1  0  0  0  0
 13  4  2  0  0  0  0
 13 11  1  0  0  0  0
 14 15  1  0  0  0  0
 16 15  1  0  0  0  0
 17 16  1  0  0  0  0
 18 17  1  0  0  0  0
 18 19  1  0  0  0  0
 19 14  1  0  0  0  0
 20 10  1  0  0  0  0
 21 12  1  0  0  0  0
M  END
>  <CHROM.1>
82.49310508,-113.59275735,90.75490741,-7.96062049,-2.88004956,3.45417017
-2.92263481,0.75153762,-0.73594362

>  <Name>
lig.pdb

>  <RI>
2.98315e+07

>  <Rbt.Current_Directory>
/home/itssahil/PROJECTS/Mol_Feturizer/New_Systems/rnas/2lwk

>  <Rbt.Executable>
rbdock ($Id: //depot/dev/client3/rdock/2013.1/src/exe/rbdock.cxx#4 $)

>  <Rbt.Library>
libRbt.so (2013.1, Build901 2013/11/27)

>  <Rbt.Parameter_File>
/export/apps/rDock/src/rDock_2013.1_src/data/scripts/dock_solv.prm

>  <Rbt.Receptor>
prm/pocket_docking_5.prm

>  <SCORE>
-23.4884

>  <SCORE.INTER>
-18.5016

>  <SCORE.INTER.CONST>
1

>  <SCORE.INTER.POLAR>
-1.99912

>  <SCORE.INTER.ROT>
3

>  <SCORE.INTER.SOLV>
6.78158

>  <SCORE.INTER.VDW>
-13.5312

>  <SCORE.INTER.norm>
-0.881027

>  <SCORE.INTRA>
-4.98682

>  <SCORE.INTRA.DIHEDRAL>
0.837647

>  <SCORE.INTRA.DIHEDRAL.0>
8.84257

>  <SCORE.INTRA.POLAR>
0

>  <SCORE.INTRA.POLAR.0>
0

>  <SCORE.INTRA.REPUL>
0

>  <SCORE.INTRA.REPUL.0>
0

>  <SCORE.INTRA.SOLV>
0.155841

>  <SCORE.INTRA.SOLV.lig_0>
-17.1313

>  <SCORE.INTRA.VDW>
-5.48356

>  <SCORE.INTRA.VDW.0>
6.34071

>  <SCORE.INTRA.norm>
-0.237467

>  <SCORE.RESTR>
0

>  <SCORE.RESTR.CAVITY>
0

>  <SCORE.RESTR.norm>
0

>  <SCORE.SYSTEM>
0

>  <SCORE.SYSTEM.CONST>
0

>  <SCORE.SYSTEM.DIHEDRAL>
0

>  <SCORE.SYSTEM.SOLV>
0

>  <SCORE.SYSTEM.norm>
0

>  <SCORE.heavy>
21

>  <SCORE.norm>
-1.11849

>  <RMSD>
5.360

$$$$
lig.pdb
 OpenBabel11021811453D
libRbt.so/2013.1/901 2013/11/27
 21 23  0  0  0  0  0  0  0  0999 V2000
   -6.3177    3.9227    3.3176 C   0  0  0  0  0  0  0  0  0  0  0  0
   -6.3699    2.5958    3.2842 N   0  0  0  0  0  0  0  0  0  0  0  0
   -6.1892    1.8999    4.3923 C   0  0  0  0  0  0  0  0  0  0  0  0
   -5.8834    2.5347    5.5420 C   0  0  0  0  0  0  0  0  0  0  0  0
   -5.8353    3.8732    5.5725 C   0  0  0  0  0  0  0  0  0  0  0  0
   -5.5289    4.5085    6.7030 N   0  0  0  0  0  0  0  0  0  0  0  0
   -6.0505    4.5625    4.4568 N   0  0  0  0  0  0  0  0  0  0  0  0
   -6.2667    0.5593    4.3547 C   0  0  0  0  0  0  0  0  0  0  0  0
   -5.9034   -0.1599    5.4606 C   0  0  0  0  0  0  0  0  0  0  0  0
   -5.1762   -1.3570    5.2574 O   0  0  0  0  0  0  0  0  0  0  0  0
   -5.7937    0.4846    6.6340 C   0  0  0  0  0  0  0  0  0  0  0  0
   -5.8837   -0.2455    7.8493 O   0  0  0  0  0  0  0  0  0  0  0  0
   -5.6785    1.8268    6.6617 C   0  0  0  0  0  0  0  0  0  0  0  0
   -6.5163    4.6095    2.2058 N   0  0  0  0  0  0  0  0  0  0  0  0
   -7.7457    4.5555    1.6845 C   0  0  0  0  0  0  0  0  0  0  0  0
   -7.9314    3.2538    0.9198 C   0  0  0  0  0  0  0  0  0  0  0  0
   -7.0174    3.1879   -0.1114 N   0  0  0  0  0  0  0  0  0  0  0  0
   -5.7619    3.2039    0.4560 C   0  0  0  0  0  0  0  0  0  0  0  0
   -5.5717    4.5055    1.2169 C   0  0  0  0  0  0  0  0  0  0  0  0
   -3.8154   -1.0269    5.1459 C   0  0  0  0  0  0  0  0  0  0  0  0
   -7.2287   -0.5760    8.0778 C   0  0  0  0  0  0  0  0  0  0  0  0
  1 14  1  0  0  0  0
  1  2  2  0  0  0  0
  3  2  1  0  0  0  0
  3  8  2  0  0  0  0
  4  3  1  0  0  0  0
  5  7  2  0  0  0  0
  5  4  1  0  0  0  0
  6  5  1  0  0  0  0
  7  1  1  0  0  0  0
  9 10  1  0  0  0  0
  9  8  1  0  0  0  0
 11  9  2  0  0  0  0
 12 11  1  0  0  0  0
 13  4  2  0  0  0  0
 13 11  1  0  0  0  0
 14 15  1  0  0  0  0
 16 15  1  0  0  0  0
 17 16  1  0  0  0  0
 18 17  1  0  0  0  0
 18 19  1  0  0  0  0
 19 14  1  0  0  0  0
 20 10  1  0  0  0  0
 21 12  1  0  0  0  0
M  END
>  <CHROM.1>
66.93843836,84.90030664,-75.34268788,-6.11047157,2.19741455,4.24550341,2.82998159
1.42158650,-2.18459848

>  <Name>
lig.pdb

>  <RI>
1.4775e+07

>  <Rbt.Current_Directory>
/home/itssahil/PROJECTS/Mol_Feturizer/New_Systems/rnas/2lwk

>  <Rbt.Executable>
rbdock ($Id: //depot/dev/client3/rdock/2013.1/src/exe/rbdock.cxx#4 $)

>  <Rbt.Library>
libRbt.so (2013.1, Build901 2013/11/27)

>  <Rbt.Parameter_File>
/export/apps/rDock/src/rDock_2013.1_src/data/scripts/dock_solv.prm

>  <Rbt.Receptor>
prm/pocket_docking_4.prm

>  <SCORE>
-20.4511

>  <SCORE.INTER>
-16.2302

>  <SCORE.INTER.CONST>
1

>  <SCORE.INTER.POLAR>
-2.51148

>  <SCORE.INTER.ROT>
3

>  <SCORE.INTER.SOLV>
6.45827

>  <SCORE.INTER.VDW>
-10.2013

>  <SCORE.INTER.norm>
-0.772864

>  <SCORE.INTRA>
-4.22095

>  <SCORE.INTRA.DIHEDRAL>
0.719143

>  <SCORE.INTRA.DIHEDRAL.0>
8.84257

>  <SCORE.INTRA.POLAR>
0

>  <SCORE.INTRA.POLAR.0>
0

>  <SCORE.INTRA.REPUL>
0

>  <SCORE.INTRA.REPUL.0>
0

>  <SCORE.INTRA.SOLV>
0.0834784

>  <SCORE.INTRA.SOLV.lig_0>
-17.1313

>  <SCORE.INTRA.VDW>
-4.62226

>  <SCORE.INTRA.VDW.0>
6.34071

>  <SCORE.INTRA.norm>
-0.200998

>  <SCORE.RESTR>
0

>  <SCORE.RESTR.CAVITY>
0

>  <SCORE.RESTR.norm>
0

>  <SCORE.SYSTEM>
0

>  <SCORE.SYSTEM.CONST>
0

>  <SCORE.SYSTEM.DIHEDRAL>
0

>  <SCORE.SYSTEM.SOLV>
0

>  <SCORE.SYSTEM.norm>
0

>  <SCORE.heavy>
21

>  <SCORE.norm>
-0.973862

>  <RMSD>
5.424

$$$$
lig.pdb
 OpenBabel11021811453D
libRbt.so/2013.1/901 2013/11/27
 21 23  0  0  0  0  0  0  0  0999 V2000
   -6.6631    3.2203    3.6944 C   0  0  0  0  0  0  0  0  0  0  0  0
   -6.7552    1.9263    3.9799 N   0  0  0  0  0  0  0  0  0  0  0  0
   -6.4597    1.4952    5.1931 C   0  0  0  0  0  0  0  0  0  0  0  0
   -5.9987    2.3597    6.1195 C   0  0  0  0  0  0  0  0  0  0  0  0
   -5.9107    3.6646    5.8290 C   0  0  0  0  0  0  0  0  0  0  0  0
   -5.4513    4.5252    6.7367 N   0  0  0  0  0  0  0  0  0  0  0  0
   -6.2415    4.0894    4.6140 N   0  0  0  0  0  0  0  0  0  0  0  0
   -6.5778    0.1883    5.4805 C   0  0  0  0  0  0  0  0  0  0  0  0
   -6.1020   -0.2760    6.6765 C   0  0  0  0  0  0  0  0  0  0  0  0
   -5.4379   -1.5258    6.6800 O   0  0  0  0  0  0  0  0  0  0  0  0
   -5.8323    0.6142    7.6456 C   0  0  0  0  0  0  0  0  0  0  0  0
   -5.7933    0.1895    9.0007 O   0  0  0  0  0  0  0  0  0  0  0  0
   -5.6780    1.9183    7.3439 C   0  0  0  0  0  0  0  0  0  0  0  0
   -6.9771    3.6427    2.4819 N   0  0  0  0  0  0  0  0  0  0  0  0
   -6.4077    2.9958    1.4604 C   0  0  0  0  0  0  0  0  0  0  0  0
   -4.9795    3.4821    1.2659 C   0  0  0  0  0  0  0  0  0  0  0  0
   -4.9847    4.8314    0.9789 N   0  0  0  0  0  0  0  0  0  0  0  0
   -5.5381    5.4760    2.0636 C   0  0  0  0  0  0  0  0  0  0  0  0
   -6.9667    4.9957    2.2576 C   0  0  0  0  0  0  0  0  0  0  0  0
   -6.3449   -2.5004    7.1281 C   0  0  0  0  0  0  0  0  0  0  0  0
   -7.0202    0.5025    9.6065 C   0  0  0  0  0  0  0  0  0  0  0  0
  1 14  1  0  0  0  0
  1  2  2  0  0  0  0
  3  2  1  0  0  0  0
  3  8  2  0  0  0  0
  4  3  1  0  0  0  0
  5  7  2  0  0  0  0
  5  4  1  0  0  0  0
  6  5  1  0  0  0  0
  7  1  1  0  0  0  0
  9 10  1  0  0  0  0
  9  8  1  0  0  0  0
 11  9  2  0  0  0  0
 12 11  1  0  0  0  0
 13  4  2  0  0  0  0
 13 11  1  0  0  0  0
 14 15  1  0  0  0  0
 16 15  1  0  0  0  0
 17 16  1  0  0  0  0
 18 17  1  0  0  0  0
 18 19  1  0  0  0  0
 19 14  1  0  0  0  0
 20 10  1  0  0  0  0
 21 12  1  0  0  0  0
M  END
>  <CHROM.1>
-50.40410484,-99.94413136,-98.71162947,-6.08707958,2.17082988,5.07406165
0.94664953,-1.52636320,-1.51809326

>  <Name>
lig.pdb

>  <RI>
2.98315e+07

>  <Rbt.Current_Directory>
/home/itssahil/PROJECTS/Mol_Feturizer/New_Systems/rnas/2lwk

>  <Rbt.Executable>
rbdock ($Id: //depot/dev/client3/rdock/2013.1/src/exe/rbdock.cxx#4 $)

>  <Rbt.Library>
libRbt.so (2013.1, Build901 2013/11/27)

>  <Rbt.Parameter_File>
/export/apps/rDock/src/rDock_2013.1_src/data/scripts/dock_solv.prm

>  <Rbt.Receptor>
prm/pocket_docking_5.prm

>  <SCORE>
-19.8341

>  <SCORE.INTER>
-16.0284

>  <SCORE.INTER.CONST>
1

>  <SCORE.INTER.POLAR>
-2.49475

>  <SCORE.INTER.ROT>
3

>  <SCORE.INTER.SOLV>
5.75045

>  <SCORE.INTER.VDW>
-9.88657

>  <SCORE.INTER.norm>
-0.763257

>  <SCORE.INTRA>
-3.81222

>  <SCORE.INTRA.DIHEDRAL>
0.844605

>  <SCORE.INTRA.DIHEDRAL.0>
8.84257

>  <SCORE.INTRA.POLAR>
0

>  <SCORE.INTRA.POLAR.0>
0

>  <SCORE.INTRA.REPUL>
0

>  <SCORE.INTRA.REPUL.0>
0

>  <SCORE.INTRA.SOLV>
-0.00225084

>  <SCORE.INTRA.SOLV.lig_0>
-17.1313

>  <SCORE.INTRA.VDW>
-4.2334

>  <SCORE.INTRA.VDW.0>
6.34071

>  <SCORE.INTRA.norm>
-0.181534

>  <SCORE.RESTR>
0.00652347

>  <SCORE.RESTR.CAVITY>
0.00652347

>  <SCORE.RESTR.norm>
0.000310641

>  <SCORE.SYSTEM>
0

>  <SCORE.SYSTEM.CONST>
0

>  <SCORE.SYSTEM.DIHEDRAL>
0

>  <SCORE.SYSTEM.SOLV>
0

>  <SCORE.SYSTEM.norm>
0

>  <SCORE.heavy>
21

>  <SCORE.norm>
-0.944481

>  <RMSD>
5.434

$$$$
lig.pdb
 OpenBabel11021811453D
libRbt.so/2013.1/901 2013/11/27
 21 23  0  0  0  0  0  0  0  0999 V2000
   -6.3337    3.9803    3.2878 C   0  0  0  0  0  0  0  0  0  0  0  0
   -6.3698    2.6539    3.2287 N   0  0  0  0  0  0  0  0  0  0  0  0
   -6.1699    1.9386    4.3211 C   0  0  0  0  0  0  0  0  0  0  0  0
   -5.8610    2.5544    5.4802 C   0  0  0  0  0  0  0  0  0  0  0  0
   -5.8290    3.8925    5.5368 C   0  0  0  0  0  0  0  0  0  0  0  0
   -5.5196    4.5093    6.6767 N   0  0  0  0  0  0  0  0  0  0  0  0
   -6.0634    4.6009    4.4370 N   0  0  0  0  0  0  0  0  0  0  0  0
   -6.2313    0.5981    4.2577 C   0  0  0  0  0  0  0  0  0  0  0  0
   -5.8486   -0.1381    5.3457 C   0  0  0  0  0  0  0  0  0  0  0  0
   -5.1087   -1.3217    5.1121 O   0  0  0  0  0  0  0  0  0  0  0  0
   -5.7355    0.4845    6.5306 C   0  0  0  0  0  0  0  0  0  0  0  0
   -5.8049   -0.2704    7.7320 O   0  0  0  0  0  0  0  0  0  0  0  0
   -5.6366    1.8273    6.5837 C   0  0  0  0  0  0  0  0  0  0  0  0
   -6.5513    4.6864    2.1918 N   0  0  0  0  0  0  0  0  0  0  0  0
   -7.7607    4.5649    1.6360 C   0  0  0  0  0  0  0  0  0  0  0  0
   -7.8367    3.2779    0.8285 C   0  0  0  0  0  0  0  0  0  0  0  0
   -6.8948    3.3069   -0.1790 N   0  0  0  0  0  0  0  0  0  0  0  0
   -5.6581    3.3909    0.4225 C   0  0  0  0  0  0  0  0  0  0  0  0
   -5.5774    4.6780    1.2263 C   0  0  0  0  0  0  0  0  0  0  0  0
   -5.9963   -2.4090    5.1675 C   0  0  0  0  0  0  0  0  0  0  0  0
   -4.5053   -0.6523    8.0999 C   0  0  0  0  0  0  0  0  0  0  0  0
  1 14  1  0  0  0  0
  1  2  2  0  0  0  0
  3  2  1  0  0  0  0
  3  8  2  0  0  0  0
  4  3  1  0  0  0  0
  5  7  2  0  0  0  0
  5  4  1  0  0  0  0
  6  5  1  0  0  0  0
  7  1  1  0  0  0  0
  9 10  1  0  0  0  0
  9  8  1  0  0  0  0
 11  9  2  0  0  0  0
 12 11  1  0  0  0  0
 13  4  2  0  0  0  0
 13 11  1  0  0  0  0
 14 15  1  0  0  0  0
 16 15  1  0  0  0  0
 17 16  1  0  0  0  0
 18 17  1  0  0  0  0
 18 19  1  0  0  0  0
 19 14  1  0  0  0  0
 20 10  1  0  0  0  0
 21 12  1  0  0  0  0
M  END
>  <CHROM.1>
63.07044516,-98.66144120,91.67144132,-6.05156607,2.16416039,4.19091903,-2.61557000
1.36867584,-2.97820938

>  <Name>
lig.pdb

>  <RI>
2.98315e+07

>  <Rbt.Current_Directory>
/home/itssahil/PROJECTS/Mol_Feturizer/New_Systems/rnas/2lwk

>  <Rbt.Executable>
rbdock ($Id: //depot/dev/client3/rdock/2013.1/src/exe/rbdock.cxx#4 $)

>  <Rbt.Library>
libRbt.so (2013.1, Build901 2013/11/27)

>  <Rbt.Parameter_File>
/export/apps/rDock/src/rDock_2013.1_src/data/scripts/dock_solv.prm

>  <Rbt.Receptor>
prm/pocket_docking_5.prm

>  <SCORE>
-20.9959

>  <SCORE.INTER>
-15.6538

>  <SCORE.INTER.CONST>
1

>  <SCORE.INTER.POLAR>
-2.48268

>  <SCORE.INTER.ROT>
3

>  <SCORE.INTER.SOLV>
6.28921

>  <SCORE.INTER.VDW>
-9.85667

>  <SCORE.INTER.norm>
-0.74542

>  <SCORE.INTRA>
-5.34208

>  <SCORE.INTRA.DIHEDRAL>
1.00238

>  <SCORE.INTRA.DIHEDRAL.0>
8.84257

>  <SCORE.INTRA.POLAR>
0

>  <SCORE.INTRA.POLAR.0>
0

>  <SCORE.INTRA.REPUL>
0

>  <SCORE.INTRA.REPUL.0>
0

>  <SCORE.INTRA.SOLV>
0.148401

>  <SCORE.INTRA.SOLV.lig_0>
-17.1313

>  <SCORE.INTRA.VDW>
-5.91747

>  <SCORE.INTRA.VDW.0>
6.34071

>  <SCORE.INTRA.norm>
-0.254385

>  <SCORE.RESTR>
0

>  <SCORE.RESTR.CAVITY>
0

>  <SCORE.RESTR.norm>
0

>  <SCORE.SYSTEM>
0

>  <SCORE.SYSTEM.CONST>
0

>  <SCORE.SYSTEM.DIHEDRAL>
0

>  <SCORE.SYSTEM.SOLV>
0

>  <SCORE.SYSTEM.norm>
0

>  <SCORE.heavy>
21

>  <SCORE.norm>
-0.999805

>  <RMSD>
5.448

$$$$
lig.pdb
 OpenBabel11021811453D
libRbt.so/2013.1/901 2013/11/27
 21 23  0  0  0  0  0  0  0  0999 V2000
   -5.9207    2.8187    6.1996 C   0  0  0  0  0  0  0  0  0  0  0  0
   -5.3268    1.6977    5.8060 N   0  0  0  0  0  0  0  0  0  0  0  0
   -5.3383    1.3574    4.5297 C   0  0  0  0  0  0  0  0  0  0  0  0
   -6.0121    2.1129    3.6390 C   0  0  0  0  0  0  0  0  0  0  0  0
   -6.6068    3.2448    4.0391 C   0  0  0  0  0  0  0  0  0  0  0  0
   -7.2792    3.9948    3.1667 N   0  0  0  0  0  0  0  0  0  0  0  0
   -6.5605    3.5919    5.3211 N   0  0  0  0  0  0  0  0  0  0  0  0
   -4.7153    0.2341    4.1362 C   0  0  0  0  0  0  0  0  0  0  0  0
   -4.8822   -0.2044    2.8509 C   0  0  0  0  0  0  0  0  0  0  0  0
   -5.0262   -1.5971    2.6442 O   0  0  0  0  0  0  0  0  0  0  0  0
   -5.3855    0.6499    1.9448 C   0  0  0  0  0  0  0  0  0  0  0  0
   -5.1509    0.4278    0.5614 O   0  0  0  0  0  0  0  0  0  0  0  0
   -6.0420    1.7556    2.3474 C   0  0  0  0  0  0  0  0  0  0  0  0
   -5.8889    3.1578    7.4768 N   0  0  0  0  0  0  0  0  0  0  0  0
   -4.7641    3.7338    7.9117 C   0  0  0  0  0  0  0  0  0  0  0  0
   -3.6991    2.6765    8.1604 C   0  0  0  0  0  0  0  0  0  0  0  0
   -4.1386    1.7943    9.1256 N   0  0  0  0  0  0  0  0  0  0  0  0
   -5.2734    1.1863    8.6347 C   0  0  0  0  0  0  0  0  0  0  0  0
   -6.3410    2.2396    8.3897 C   0  0  0  0  0  0  0  0  0  0  0  0
   -6.3753   -1.9311    2.8478 C   0  0  0  0  0  0  0  0  0  0  0  0
   -3.8319    0.8032    0.2620 C   0  0  0  0  0  0  0  0  0  0  0  0
  1 14  1  0  0  0  0
  1  2  2  0  0  0  0
  3  2  1  0  0  0  0
  3  8  2  0  0  0  0
  4  3  1  0  0  0  0
  5  7  2  0  0  0  0
  5  4  1  0  0  0  0
  6  5  1  0  0  0  0
  7  1  1  0  0  0  0
  9 10  1  0  0  0  0
  9  8  1  0  0  0  0
 11  9  2  0  0  0  0
 12 11  1  0  0  0  0
 13  4  2  0  0  0  0
 13 11  1  0  0  0  0
 14 15  1  0  0  0  0
 16 15  1  0  0  0  0
 17 16  1  0  0  0  0
 18 17  1  0  0  0  0
 18 19  1  0  0  0  0
 19 14  1  0  0  0  0
 20 10  1  0  0  0  0
 21 12  1  0  0  0  0
M  END
>  <CHROM.1>
80.01099255,84.05398594,-76.12646477,-5.44812099,1.58369889,4.74889963,1.53617845
-1.17601513,1.17508119

>  <Name>
lig.pdb

>  <RI>
2.75338e+07

>  <Rbt.Current_Directory>
/home/itssahil/PROJECTS/Mol_Feturizer/New_Systems/rnas/2lwk

>  <Rbt.Executable>
rbdock ($Id: //depot/dev/client3/rdock/2013.1/src/exe/rbdock.cxx#4 $)

>  <Rbt.Library>
libRbt.so (2013.1, Build901 2013/11/27)

>  <Rbt.Parameter_File>
/export/apps/rDock/src/rDock_2013.1_src/data/scripts/dock_solv.prm

>  <Rbt.Receptor>
prm/pocket_docking_8.prm

>  <SCORE>
-22.6678

>  <SCORE.INTER>
-18.5007

>  <SCORE.INTER.CONST>
1

>  <SCORE.INTER.POLAR>
-2.75614

>  <SCORE.INTER.ROT>
3

>  <SCORE.INTER.SOLV>
6.50618

>  <SCORE.INTER.VDW>
-10.9154

>  <SCORE.INTER.norm>
-0.880985

>  <SCORE.INTRA>
-4.16716

>  <SCORE.INTRA.DIHEDRAL>
0.754933

>  <SCORE.INTRA.DIHEDRAL.0>
8.84257

>  <SCORE.INTRA.POLAR>
0

>  <SCORE.INTRA.POLAR.0>
0

>  <SCORE.INTRA.REPUL>
0

>  <SCORE.INTRA.REPUL.0>
0

>  <SCORE.INTRA.SOLV>
0.0764005

>  <SCORE.INTRA.SOLV.lig_0>
-17.1313

>  <SCORE.INTRA.VDW>
-4.58282

>  <SCORE.INTRA.VDW.0>
6.34071

>  <SCORE.INTRA.norm>
-0.198436

>  <SCORE.RESTR>
0

>  <SCORE.RESTR.CAVITY>
0

>  <SCORE.RESTR.norm>
0

>  <SCORE.SYSTEM>
0

>  <SCORE.SYSTEM.CONST>
0

>  <SCORE.SYSTEM.DIHEDRAL>
0

>  <SCORE.SYSTEM.SOLV>
0

>  <SCORE.SYSTEM.norm>
0

>  <SCORE.heavy>
21

>  <SCORE.norm>
-1.07942

>  <RMSD>
5.508

$$$$
lig.pdb
 OpenBabel11021811453D
libRbt.so/2013.1/901 2013/11/27
 21 23  0  0  0  0  0  0  0  0999 V2000
  -10.2415   -1.3232    6.6069 C   0  0  0  0  0  0  0  0  0  0  0  0
  -10.4811   -2.6279    6.5400 N   0  0  0  0  0  0  0  0  0  0  0  0
   -9.8509   -3.3700    5.6473 C   0  0  0  0  0  0  0  0  0  0  0  0
   -9.0172   -2.7906    4.7600 C   0  0  0  0  0  0  0  0  0  0  0  0
   -8.7752   -1.4749    4.8329 C   0  0  0  0  0  0  0  0  0  0  0  0
   -7.9569   -0.8930    3.9569 N   0  0  0  0  0  0  0  0  0  0  0  0
   -9.3921   -0.7451    5.7566 N   0  0  0  0  0  0  0  0  0  0  0  0
  -10.0813   -4.6927    5.6015 C   0  0  0  0  0  0  0  0  0  0  0  0
   -9.5658   -5.4228    4.5654 C   0  0  0  0  0  0  0  0  0  0  0  0
  -10.3786   -6.4384    4.0076 O   0  0  0  0  0  0  0  0  0  0  0  0
   -8.5951   -4.8730    3.8174 C   0  0  0  0  0  0  0  0  0  0  0  0
   -7.7260   -5.7091    3.0665 O   0  0  0  0  0  0  0  0  0  0  0  0
   -8.3945   -3.5408    3.8401 C   0  0  0  0  0  0  0  0  0  0  0  0
  -10.8656   -0.5929    7.5149 N   0  0  0  0  0  0  0  0  0  0  0  0
  -10.2931   -0.5259    8.7207 C   0  0  0  0  0  0  0  0  0  0  0  0
  -10.6008   -1.7862    9.5150 C   0  0  0  0  0  0  0  0  0  0  0  0
  -11.9645   -1.9047    9.6859 N   0  0  0  0  0  0  0  0  0  0  0  0
  -12.5238   -2.0131    8.4313 C   0  0  0  0  0  0  0  0  0  0  0  0
  -12.2222   -0.7533    7.6369 C   0  0  0  0  0  0  0  0  0  0  0  0
   -9.9339   -7.6748    4.5041 C   0  0  0  0  0  0  0  0  0  0  0  0
   -6.5662   -5.9464    3.8207 C   0  0  0  0  0  0  0  0  0  0  0  0
  1 14  1  0  0  0  0
  1  2  2  0  0  0  0
  3  2  1  0  0  0  0
  3  8  2  0  0  0  0
  4  3  1  0  0  0  0
  5  7  2  0  0  0  0
  5  4  1  0  0  0  0
  6  5  1  0  0  0  0
  7  1  1  0  0  0  0
  9 10  1  0  0  0  0
  9  8  1  0  0  0  0
 11  9  2  0  0  0  0
 12 11  1  0  0  0  0
 13  4  2  0  0  0  0
 13 11  1  0  0  0  0
 14 15  1  0  0  0  0
 16 15  1  0  0  0  0
 17 16  1  0  0  0  0
 18 17  1  0  0  0  0
 18 19  1  0  0  0  0
 19 14  1  0  0  0  0
 20 10  1  0  0  0  0
 21 12  1  0  0  0  0
M  END
>  <CHROM.1>
86.53970344,-102.13986201,-94.85567276,-9.77798525,-3.13215329,5.84745059
-2.18444708,-0.83055679,-2.83907020

>  <Name>
lig.pdb

>  <RI>
2.59814e+07

>  <Rbt.Current_Directory>
/home/itssahil/PROJECTS/Mol_Feturizer/New_Systems/rnas/2lwk

>  <Rbt.Executable>
rbdock ($Id: //depot/dev/client3/rdock/2013.1/src/exe/rbdock.cxx#4 $)

>  <Rbt.Library>
libRbt.so (2013.1, Build901 2013/11/27)

>  <Rbt.Parameter_File>
/export/apps/rDock/src/rDock_2013.1_src/data/scripts/dock_solv.prm

>  <Rbt.Receptor>
prm/pocket_docking_6.prm

>  <SCORE>
-20.1091

>  <SCORE.INTER>
-14.9482

>  <SCORE.INTER.CONST>
1

>  <SCORE.INTER.POLAR>
-2.63535

>  <SCORE.INTER.ROT>
3

>  <SCORE.INTER.SOLV>
5.42195

>  <SCORE.INTER.VDW>
-8.58829

>  <SCORE.INTER.norm>
-0.711819

>  <SCORE.INTRA>
-5.16086

>  <SCORE.INTRA.DIHEDRAL>
0.940947

>  <SCORE.INTRA.DIHEDRAL.0>
8.84257

>  <SCORE.INTRA.POLAR>
0

>  <SCORE.INTRA.POLAR.0>
0

>  <SCORE.INTRA.REPUL>
0

>  <SCORE.INTRA.REPUL.0>
0

>  <SCORE.INTRA.SOLV>
0.0834479

>  <SCORE.INTRA.SOLV.lig_0>
-17.1313

>  <SCORE.INTRA.VDW>
-5.67306

>  <SCORE.INTRA.VDW.0>
6.34071

>  <SCORE.INTRA.norm>
-0.245755

>  <SCORE.RESTR>
0

>  <SCORE.RESTR.CAVITY>
0

>  <SCORE.RESTR.norm>
0

>  <SCORE.SYSTEM>
0

>  <SCORE.SYSTEM.CONST>
0

>  <SCORE.SYSTEM.DIHEDRAL>
0

>  <SCORE.SYSTEM.SOLV>
0

>  <SCORE.SYSTEM.norm>
0

>  <SCORE.heavy>
21

>  <SCORE.norm>
-0.957574

>  <RMSD>
5.541

$$$$
lig.pdb
 OpenBabel11021811453D
libRbt.so/2013.1/901 2013/11/27
 21 23  0  0  0  0  0  0  0  0999 V2000
  -10.8701   -2.1449    5.2251 C   0  0  0  0  0  0  0  0  0  0  0  0
  -11.1088   -3.4500    5.1620 N   0  0  0  0  0  0  0  0  0  0  0  0
  -10.1533   -4.2783    4.7801 C   0  0  0  0  0  0  0  0  0  0  0  0
   -8.9585   -3.7910    4.3886 C   0  0  0  0  0  0  0  0  0  0  0  0
   -8.7203   -2.4744    4.4571 C   0  0  0  0  0  0  0  0  0  0  0  0
   -7.5443   -1.9835    4.0674 N   0  0  0  0  0  0  0  0  0  0  0  0
   -9.6804   -1.6552    4.8734 N   0  0  0  0  0  0  0  0  0  0  0  0
  -10.3955   -5.5991    4.7414 C   0  0  0  0  0  0  0  0  0  0  0  0
   -9.4663   -6.4301    4.1774 C   0  0  0  0  0  0  0  0  0  0  0  0
   -9.9381   -7.4983    3.3776 O   0  0  0  0  0  0  0  0  0  0  0  0
   -8.2248   -5.9580    3.9773 C   0  0  0  0  0  0  0  0  0  0  0  0
   -7.1393   -6.8649    3.8462 O   0  0  0  0  0  0  0  0  0  0  0  0
   -7.9963   -4.6300    3.9803 C   0  0  0  0  0  0  0  0  0  0  0  0
  -11.8286   -1.3269    5.6242 N   0  0  0  0  0  0  0  0  0  0  0  0
  -11.4551   -0.0846    5.9458 C   0  0  0  0  0  0  0  0  0  0  0  0
  -10.8509   -0.0664    7.3417 C   0  0  0  0  0  0  0  0  0  0  0  0
  -11.7903   -0.4903    8.2587 N   0  0  0  0  0  0  0  0  0  0  0  0
  -12.1261   -1.7851    7.9281 C   0  0  0  0  0  0  0  0  0  0  0  0
  -12.7345   -1.8059    6.5358 C   0  0  0  0  0  0  0  0  0  0  0  0
  -10.1649   -8.6030    4.2151 C   0  0  0  0  0  0  0  0  0  0  0  0
   -6.5838   -7.0893    5.1156 C   0  0  0  0  0  0  0  0  0  0  0  0
  1 14  1  0  0  0  0
  1  2  2  0  0  0  0
  3  2  1  0  0  0  0
  3  8  2  0  0  0  0
  4  3  1  0  0  0  0
  5  7  2  0  0  0  0
  5  4  1  0  0  0  0
  6  5  1  0  0  0  0
  7  1  1  0  0  0  0
  9 10  1  0  0  0  0
  9  8  1  0  0  0  0
 11  9  2  0  0  0  0
 12 11  1  0  0  0  0
 13  4  2  0  0  0  0
 13 11  1  0  0  0  0
 14 15  1  0  0  0  0
 16 15  1  0  0  0  0
 17 16  1  0  0  0  0
 18 17  1  0  0  0  0
 18 19  1  0  0  0  0
 19 14  1  0  0  0  0
 20 10  1  0  0  0  0
 21 12  1  0  0  0  0
M  END
>  <CHROM.1>
165.85917597,-88.49433739,-91.10102185,-9.87789277,-3.73544321,5.15498414
2.04401808,0.40445038,0.21962057

>  <Name>
lig.pdb

>  <RI>
2.98315e+07

>  <Rbt.Current_Directory>
/home/itssahil/PROJECTS/Mol_Feturizer/New_Systems/rnas/2lwk

>  <Rbt.Executable>
rbdock ($Id: //depot/dev/client3/rdock/2013.1/src/exe/rbdock.cxx#4 $)

>  <Rbt.Library>
libRbt.so (2013.1, Build901 2013/11/27)

>  <Rbt.Parameter_File>
/export/apps/rDock/src/rDock_2013.1_src/data/scripts/dock_solv.prm

>  <Rbt.Receptor>
prm/pocket_docking_5.prm

>  <SCORE>
-13.9844

>  <SCORE.INTER>
-10.6246

>  <SCORE.INTER.CONST>
1

>  <SCORE.INTER.POLAR>
-1.1035

>  <SCORE.INTER.ROT>
3

>  <SCORE.INTER.SOLV>
6.03874

>  <SCORE.INTER.VDW>
-11.0176

>  <SCORE.INTER.norm>
-0.505932

>  <SCORE.INTRA>
-3.35984

>  <SCORE.INTRA.DIHEDRAL>
0.76645

>  <SCORE.INTRA.DIHEDRAL.0>
8.84257

>  <SCORE.INTRA.POLAR>
0

>  <SCORE.INTRA.POLAR.0>
0

>  <SCORE.INTRA.REPUL>
0

>  <SCORE.INTRA.REPUL.0>
0

>  <SCORE.INTRA.SOLV>
-0.0695875

>  <SCORE.INTRA.SOLV.lig_0>
-17.1313

>  <SCORE.INTRA.VDW>
-3.70827

>  <SCORE.INTRA.VDW.0>
6.34071

>  <SCORE.INTRA.norm>
-0.159992

>  <SCORE.RESTR>
0

>  <SCORE.RESTR.CAVITY>
0

>  <SCORE.RESTR.norm>
0

>  <SCORE.SYSTEM>
0

>  <SCORE.SYSTEM.CONST>
0

>  <SCORE.SYSTEM.DIHEDRAL>
0

>  <SCORE.SYSTEM.SOLV>
0

>  <SCORE.SYSTEM.norm>
0

>  <SCORE.heavy>
21

>  <SCORE.norm>
-0.665924

>  <RMSD>
5.551

$$$$
lig.pdb
 OpenBabel11021811453D
libRbt.so/2013.1/901 2013/11/27
 21 23  0  0  0  0  0  0  0  0999 V2000
   -9.7755   -2.8841    5.5064 C   0  0  0  0  0  0  0  0  0  0  0  0
   -8.8462   -3.7880    5.7955 N   0  0  0  0  0  0  0  0  0  0  0  0
   -8.9442   -5.0135    5.3123 C   0  0  0  0  0  0  0  0  0  0  0  0
  -10.0232   -5.3640    4.5835 C   0  0  0  0  0  0  0  0  0  0  0  0
  -10.9566   -4.4486    4.2910 C   0  0  0  0  0  0  0  0  0  0  0  0
  -12.0286   -4.7874    3.5758 N   0  0  0  0  0  0  0  0  0  0  0  0
  -10.8294   -3.2105    4.7572 N   0  0  0  0  0  0  0  0  0  0  0  0
   -7.9880   -5.9153    5.5900 C   0  0  0  0  0  0  0  0  0  0  0  0
   -8.1843   -7.2232    5.2389 C   0  0  0  0  0  0  0  0  0  0  0  0
   -7.7617   -8.2198    6.1507 O   0  0  0  0  0  0  0  0  0  0  0  0
   -9.1564   -7.5089    4.3570 C   0  0  0  0  0  0  0  0  0  0  0  0
   -9.1051   -8.7233    3.6217 O   0  0  0  0  0  0  0  0  0  0  0  0
  -10.1331   -6.6138    4.1116 C   0  0  0  0  0  0  0  0  0  0  0  0
   -9.6587   -1.6563    5.9819 N   0  0  0  0  0  0  0  0  0  0  0  0
  -10.6858   -1.1975    6.7036 C   0  0  0  0  0  0  0  0  0  0  0  0
  -11.8072   -0.7402    5.7831 C   0  0  0  0  0  0  0  0  0  0  0  0
  -11.3540    0.2798    4.9723 N   0  0  0  0  0  0  0  0  0  0  0  0
  -10.3249   -0.2314    4.2120 C   0  0  0  0  0  0  0  0  0  0  0  0
   -9.2010   -0.6849    5.1288 C   0  0  0  0  0  0  0  0  0  0  0  0
   -6.4175   -8.5209    5.8756 C   0  0  0  0  0  0  0  0  0  0  0  0
  -10.0260   -9.6255    4.1770 C   0  0  0  0  0  0  0  0  0  0  0  0
  1 14  1  0  0  0  0
  1  2  2  0  0  0  0
  3  2  1  0  0  0  0
  3  8  2  0  0  0  0
  4  3  1  0  0  0  0
  5  7  2  0  0  0  0
  5  4  1  0  0  0  0
  6  5  1  0  0  0  0
  7  1  1  0  0  0  0
  9 10  1  0  0  0  0
  9  8  1  0  0  0  0
 11  9  2  0  0  0  0
 12 11  1  0  0  0  0
 13  4  2  0  0  0  0
 13 11  1  0  0  0  0
 14 15  1  0  0  0  0
 16 15  1  0  0  0  0
 17 16  1  0  0  0  0
 18 17  1  0  0  0  0
 18 19  1  0  0  0  0
 19 14  1  0  0  0  0
 20 10  1  0  0  0  0
 21 12  1  0  0  0  0
M  END
>  <CHROM.1>
-123.89121014,-88.19460519,103.54546082,-9.68521390,-4.59592618,5.02927752
-1.90115882,0.54773446,-2.90406826

>  <Name>
lig.pdb

>  <RI>
2.59814e+07

>  <Rbt.Current_Directory>
/home/itssahil/PROJECTS/Mol_Feturizer/New_Systems/rnas/2lwk

>  <Rbt.Executable>
rbdock ($Id: //depot/dev/client3/rdock/2013.1/src/exe/rbdock.cxx#4 $)

>  <Rbt.Library>
libRbt.so (2013.1, Build901 2013/11/27)

>  <Rbt.Parameter_File>
/export/apps/rDock/src/rDock_2013.1_src/data/scripts/dock_solv.prm

>  <Rbt.Receptor>
prm/pocket_docking_6.prm

>  <SCORE>
-22.7197

>  <SCORE.INTER>
-17.5381

>  <SCORE.INTER.CONST>
1

>  <SCORE.INTER.POLAR>
-2.49902

>  <SCORE.INTER.ROT>
3

>  <SCORE.INTER.SOLV>
7.38795

>  <SCORE.INTER.VDW>
-11.4246

>  <SCORE.INTER.norm>
-0.835148

>  <SCORE.INTRA>
-5.18293

>  <SCORE.INTRA.DIHEDRAL>
0.561814

>  <SCORE.INTRA.DIHEDRAL.0>
8.84257

>  <SCORE.INTRA.POLAR>
0

>  <SCORE.INTRA.POLAR.0>
0

>  <SCORE.INTRA.REPUL>
0

>  <SCORE.INTRA.REPUL.0>
0

>  <SCORE.INTRA.SOLV>
0.119227

>  <SCORE.INTRA.SOLV.lig_0>
-17.1313

>  <SCORE.INTRA.VDW>
-5.52345

>  <SCORE.INTRA.VDW.0>
6.34071

>  <SCORE.INTRA.norm>
-0.246806

>  <SCORE.RESTR>
0.00131341

>  <SCORE.RESTR.CAVITY>
0.00131341

>  <SCORE.RESTR.norm>
6.25435e-05

>  <SCORE.SYSTEM>
0

>  <SCORE.SYSTEM.CONST>
0

>  <SCORE.SYSTEM.DIHEDRAL>
0

>  <SCORE.SYSTEM.SOLV>
0

>  <SCORE.SYSTEM.norm>
0

>  <SCORE.heavy>
21

>  <SCORE.norm>
-1.08189

>  <RMSD>
5.596

$$$$
lig.pdb
 OpenBabel11021811453D
libRbt.so/2013.1/901 2013/11/27
 21 23  0  0  0  0  0  0  0  0999 V2000
   -5.7918    3.1798    3.4326 C   0  0  0  0  0  0  0  0  0  0  0  0
   -5.9804    1.9223    3.8164 N   0  0  0  0  0  0  0  0  0  0  0  0
   -6.0378    1.6261    5.1024 C   0  0  0  0  0  0  0  0  0  0  0  0
   -5.8357    2.5898    6.0236 C   0  0  0  0  0  0  0  0  0  0  0  0
   -5.6494    3.8576    5.6327 C   0  0  0  0  0  0  0  0  0  0  0  0
   -5.4437    4.8155    6.5358 N   0  0  0  0  0  0  0  0  0  0  0  0
   -5.6255    4.1470    4.3358 N   0  0  0  0  0  0  0  0  0  0  0  0
   -6.2523    0.3555    5.4823 C   0  0  0  0  0  0  0  0  0  0  0  0
   -6.1322    0.0268    6.8051 C   0  0  0  0  0  0  0  0  0  0  0  0
   -5.5157   -1.2068    7.1234 O   0  0  0  0  0  0  0  0  0  0  0  0
   -6.1253    1.0181    7.7115 C   0  0  0  0  0  0  0  0  0  0  0  0
   -6.4682    0.7398    9.0618 O   0  0  0  0  0  0  0  0  0  0  0  0
   -5.8723    2.2848    7.3283 C   0  0  0  0  0  0  0  0  0  0  0  0
   -5.7524    3.4673    2.1430 N   0  0  0  0  0  0  0  0  0  0  0  0
   -5.0908    4.5769    1.8007 C   0  0  0  0  0  0  0  0  0  0  0  0
   -5.9589    5.8005    2.0524 C   0  0  0  0  0  0  0  0  0  0  0  0
   -7.1036    5.7217    1.2867 N   0  0  0  0  0  0  0  0  0  0  0  0
   -7.7850    4.5935    1.6884 C   0  0  0  0  0  0  0  0  0  0  0  0
   -6.9221    3.3689    1.4337 C   0  0  0  0  0  0  0  0  0  0  0  0
   -4.1247   -1.0116    7.1246 C   0  0  0  0  0  0  0  0  0  0  0  0
   -7.8576    0.5584    9.1456 C   0  0  0  0  0  0  0  0  0  0  0  0
  1 14  1  0  0  0  0
  1  2  2  0  0  0  0
  3  2  1  0  0  0  0
  3  8  2  0  0  0  0
  4  3  1  0  0  0  0
  5  7  2  0  0  0  0
  5  4  1  0  0  0  0
  6  5  1  0  0  0  0
  7  1  1  0  0  0  0
  9 10  1  0  0  0  0
  9  8  1  0  0  0  0
 11  9  2  0  0  0  0
 12 11  1  0  0  0  0
 13  4  2  0  0  0  0
 13 11  1  0  0  0  0
 14 15  1  0  0  0  0
 16 15  1  0  0  0  0
 17 16  1  0  0  0  0
 18 17  1  0  0  0  0
 18 19  1  0  0  0  0
 19 14  1  0  0  0  0
 20 10  1  0  0  0  0
 21 12  1  0  0  0  0
M  END
>  <CHROM.1>
-155.84730723,83.85717188,-74.53588159,-6.06585917,2.49752857,5.02182182
-1.91123177,-1.43363325,1.88877964

>  <Name>
lig.pdb

>  <RI>
2.98315e+07

>  <Rbt.Current_Directory>
/home/itssahil/PROJECTS/Mol_Feturizer/New_Systems/rnas/2lwk

>  <Rbt.Executable>
rbdock ($Id: //depot/dev/client3/rdock/2013.1/src/exe/rbdock.cxx#4 $)

>  <Rbt.Library>
libRbt.so (2013.1, Build901 2013/11/27)

>  <Rbt.Parameter_File>
/export/apps/rDock/src/rDock_2013.1_src/data/scripts/dock_solv.prm

>  <Rbt.Receptor>
prm/pocket_docking_5.prm

>  <SCORE>
-20.0291

>  <SCORE.INTER>
-17.0992

>  <SCORE.INTER.CONST>
1

>  <SCORE.INTER.POLAR>
-2.43542

>  <SCORE.INTER.ROT>
3

>  <SCORE.INTER.SOLV>
5.78831

>  <SCORE.INTER.VDW>
-10.8108

>  <SCORE.INTER.norm>
-0.814247

>  <SCORE.INTRA>
-2.92994

>  <SCORE.INTRA.DIHEDRAL>
0.699541

>  <SCORE.INTRA.DIHEDRAL.0>
8.84257

>  <SCORE.INTRA.POLAR>
0

>  <SCORE.INTRA.POLAR.0>
0

>  <SCORE.INTRA.REPUL>
0

>  <SCORE.INTRA.REPUL.0>
0

>  <SCORE.INTRA.SOLV>
0.0292334

>  <SCORE.INTRA.SOLV.lig_0>
-17.1313

>  <SCORE.INTRA.VDW>
-3.29433

>  <SCORE.INTRA.VDW.0>
6.34071

>  <SCORE.INTRA.norm>
-0.139521

>  <SCORE.RESTR>
0

>  <SCORE.RESTR.CAVITY>
0

>  <SCORE.RESTR.norm>
0

>  <SCORE.SYSTEM>
0

>  <SCORE.SYSTEM.CONST>
0

>  <SCORE.SYSTEM.DIHEDRAL>
0

>  <SCORE.SYSTEM.SOLV>
0

>  <SCORE.SYSTEM.norm>
0

>  <SCORE.heavy>
21

>  <SCORE.norm>
-0.953768

>  <RMSD>
5.603

$$$$
lig.pdb
 OpenBabel11021811453D
libRbt.so/2013.1/901 2013/11/27
 21 23  0  0  0  0  0  0  0  0999 V2000
   -5.5802    2.8716    8.0760 C   0  0  0  0  0  0  0  0  0  0  0  0
   -6.3414    2.0800    7.3287 N   0  0  0  0  0  0  0  0  0  0  0  0
   -7.1790    1.2354    7.9030 C   0  0  0  0  0  0  0  0  0  0  0  0
   -7.2100    1.1291    9.2468 C   0  0  0  0  0  0  0  0  0  0  0  0
   -6.4435    1.9317    9.9973 C   0  0  0  0  0  0  0  0  0  0  0  0
   -6.4638    1.8299   11.3257 N   0  0  0  0  0  0  0  0  0  0  0  0
   -5.6282    2.7994    9.4068 N   0  0  0  0  0  0  0  0  0  0  0  0
   -7.9623    0.4549    7.1401 C   0  0  0  0  0  0  0  0  0  0  0  0
   -8.6927   -0.5382    7.7338 C   0  0  0  0  0  0  0  0  0  0  0  0
   -8.7862   -1.7792    7.0597 O   0  0  0  0  0  0  0  0  0  0  0  0
   -8.8581   -0.5001    9.0663 C   0  0  0  0  0  0  0  0  0  0  0  0
   -9.9462   -1.1936    9.6607 O   0  0  0  0  0  0  0  0  0  0  0  0
   -8.0444    0.2562    9.8287 C   0  0  0  0  0  0  0  0  0  0  0  0
   -4.7575    3.7246    7.4905 N   0  0  0  0  0  0  0  0  0  0  0  0
   -5.2329    4.3724    6.4226 C   0  0  0  0  0  0  0  0  0  0  0  0
   -5.1780    3.4710    5.1985 C   0  0  0  0  0  0  0  0  0  0  0  0
   -3.8700    3.1135    4.9448 N   0  0  0  0  0  0  0  0  0  0  0  0
   -3.4194    2.4132    6.0426 C   0  0  0  0  0  0  0  0  0  0  0  0
   -3.4686    3.3128    7.2664 C   0  0  0  0  0  0  0  0  0  0  0  0
   -9.9689   -1.7759    6.3020 C   0  0  0  0  0  0  0  0  0  0  0  0
  -11.1079   -0.4194    9.5144 C   0  0  0  0  0  0  0  0  0  0  0  0
  1 14  1  0  0  0  0
  1  2  2  0  0  0  0
  3  2  1  0  0  0  0
  3  8  2  0  0  0  0
  4  3  1  0  0  0  0
  5  7  2  0  0  0  0
  5  4  1  0  0  0  0
  6  5  1  0  0  0  0
  7  1  1  0  0  0  0
  9 10  1  0  0  0  0
  9  8  1  0  0  0  0
 11  9  2  0  0  0  0
 12 11  1  0  0  0  0
 13  4  2  0  0  0  0
 13 11  1  0  0  0  0
 14 15  1  0  0  0  0
 16 15  1  0  0  0  0
 17 16  1  0  0  0  0
 18 17  1  0  0  0  0
 18 19  1  0  0  0  0
 19 14  1  0  0  0  0
 20 10  1  0  0  0  0
 21 12  1  0  0  0  0
M  END
>  <CHROM.1>
41.52122789,-94.73133341,-79.85069652,-6.88139807,1.34739620,7.93676175,-0.17468656
0.72207341,1.37374412

>  <Name>
lig.pdb

>  <RI>
2.20372e+07

>  <Rbt.Current_Directory>
/home/itssahil/PROJECTS/Mol_Feturizer/New_Systems/rnas/2lwk

>  <Rbt.Executable>
rbdock ($Id: //depot/dev/client3/rdock/2013.1/src/exe/rbdock.cxx#4 $)

>  <Rbt.Library>
libRbt.so (2013.1, Build901 2013/11/27)

>  <Rbt.Parameter_File>
/export/apps/rDock/src/rDock_2013.1_src/data/scripts/dock_solv.prm

>  <Rbt.Receptor>
prm/pocket_docking_7.prm

>  <SCORE>
-18.3188

>  <SCORE.INTER>
-13.6189

>  <SCORE.INTER.CONST>
1

>  <SCORE.INTER.POLAR>
-0.951724

>  <SCORE.INTER.ROT>
3

>  <SCORE.INTER.SOLV>
7.88804

>  <SCORE.INTER.VDW>
-14.1362

>  <SCORE.INTER.norm>
-0.64852

>  <SCORE.INTRA>
-4.69987

>  <SCORE.INTRA.DIHEDRAL>
0.855602

>  <SCORE.INTRA.DIHEDRAL.0>
8.84257

>  <SCORE.INTRA.POLAR>
0

>  <SCORE.INTRA.POLAR.0>
0

>  <SCORE.INTRA.REPUL>
0

>  <SCORE.INTRA.REPUL.0>
0

>  <SCORE.INTRA.SOLV>
0.0841031

>  <SCORE.INTRA.SOLV.lig_0>
-17.1313

>  <SCORE.INTRA.VDW>
-5.16972

>  <SCORE.INTRA.VDW.0>
6.34071

>  <SCORE.INTRA.norm>
-0.223803

>  <SCORE.RESTR>
0

>  <SCORE.RESTR.CAVITY>
0

>  <SCORE.RESTR.norm>
0

>  <SCORE.SYSTEM>
0

>  <SCORE.SYSTEM.CONST>
0

>  <SCORE.SYSTEM.DIHEDRAL>
0

>  <SCORE.SYSTEM.SOLV>
0

>  <SCORE.SYSTEM.norm>
0

>  <SCORE.heavy>
21

>  <SCORE.norm>
-0.872324

>  <RMSD>
5.622

$$$$
lig.pdb
 OpenBabel11021811453D
libRbt.so/2013.1/901 2013/11/27
 21 23  0  0  0  0  0  0  0  0999 V2000
  -11.1273   -2.6683    4.5595 C   0  0  0  0  0  0  0  0  0  0  0  0
  -10.1165   -3.5212    4.6823 N   0  0  0  0  0  0  0  0  0  0  0  0
  -10.3088   -4.8091    4.4605 C   0  0  0  0  0  0  0  0  0  0  0  0
  -11.5459   -5.2648    4.1775 C   0  0  0  0  0  0  0  0  0  0  0  0
  -12.5621   -4.4011    4.0509 C   0  0  0  0  0  0  0  0  0  0  0  0
  -13.7889   -4.8430    3.7765 N   0  0  0  0  0  0  0  0  0  0  0  0
  -12.3481   -3.1039    4.2456 N   0  0  0  0  0  0  0  0  0  0  0  0
   -9.2762   -5.6622    4.5639 C   0  0  0  0  0  0  0  0  0  0  0  0
   -9.5166   -7.0082    4.5100 C   0  0  0  0  0  0  0  0  0  0  0  0
   -8.7873   -7.8427    5.3902 O   0  0  0  0  0  0  0  0  0  0  0  0
  -10.7031   -7.4268    4.0396 C   0  0  0  0  0  0  0  0  0  0  0  0
  -10.8333   -8.7477    3.5331 O   0  0  0  0  0  0  0  0  0  0  0  0
  -11.7448   -6.5747    3.9740 C   0  0  0  0  0  0  0  0  0  0  0  0
  -10.9198   -1.3796    4.7678 N   0  0  0  0  0  0  0  0  0  0  0  0
   -9.9691   -0.8025    4.0267 C   0  0  0  0  0  0  0  0  0  0  0  0
   -8.5962   -1.1215    4.5987 C   0  0  0  0  0  0  0  0  0  0  0  0
   -8.5046   -0.6304    5.8846 N   0  0  0  0  0  0  0  0  0  0  0  0
   -9.4668   -1.2712    6.6343 C   0  0  0  0  0  0  0  0  0  0  0  0
  -10.8401   -0.9505    6.0680 C   0  0  0  0  0  0  0  0  0  0  0  0
   -7.6345   -8.2828    4.7190 C   0  0  0  0  0  0  0  0  0  0  0  0
  -11.4979   -9.5330    4.4880 C   0  0  0  0  0  0  0  0  0  0  0  0
  1 14  1  0  0  0  0
  1  2  2  0  0  0  0
  3  2  1  0  0  0  0
  3  8  2  0  0  0  0
  4  3  1  0  0  0  0
  5  7  2  0  0  0  0
  5  4  1  0  0  0  0
  6  5  1  0  0  0  0
  7  1  1  0  0  0  0
  9 10  1  0  0  0  0
  9  8  1  0  0  0  0
 11  9  2  0  0  0  0
 12 11  1  0  0  0  0
 13  4  2  0  0  0  0
 13 11  1  0  0  0  0
 14 15  1  0  0  0  0
 16 15  1  0  0  0  0
 17 16  1  0  0  0  0
 18 17  1  0  0  0  0
 18 19  1  0  0  0  0
 19 14  1  0  0  0  0
 20 10  1  0  0  0  0
 21 12  1  0  0  0  0
M  END
>  <CHROM.1>
56.36143419,-92.61749552,103.72860110,-10.46331078,-4.59170942,4.63808071
1.52054752,-0.27549986,0.11645592

>  <Name>
lig.pdb

>  <RI>
2.98315e+07

>  <Rbt.Current_Directory>
/home/itssahil/PROJECTS/Mol_Feturizer/New_Systems/rnas/2lwk

>  <Rbt.Executable>
rbdock ($Id: //depot/dev/client3/rdock/2013.1/src/exe/rbdock.cxx#4 $)

>  <Rbt.Library>
libRbt.so (2013.1, Build901 2013/11/27)

>  <Rbt.Parameter_File>
/export/apps/rDock/src/rDock_2013.1_src/data/scripts/dock_solv.prm

>  <Rbt.Receptor>
prm/pocket_docking_5.prm

>  <SCORE>
-20.6835

>  <SCORE.INTER>
-15.9542

>  <SCORE.INTER.CONST>
1

>  <SCORE.INTER.POLAR>
-1.89219

>  <SCORE.INTER.ROT>
3

>  <SCORE.INTER.SOLV>
7.38568

>  <SCORE.INTER.VDW>
-12.3908

>  <SCORE.INTER.norm>
-0.759726

>  <SCORE.INTRA>
-5.16784

>  <SCORE.INTRA.DIHEDRAL>
0.702054

>  <SCORE.INTRA.DIHEDRAL.0>
8.84257

>  <SCORE.INTRA.POLAR>
0

>  <SCORE.INTRA.POLAR.0>
0

>  <SCORE.INTRA.REPUL>
0

>  <SCORE.INTRA.REPUL.0>
0

>  <SCORE.INTRA.SOLV>
0.129766

>  <SCORE.INTRA.SOLV.lig_0>
-17.1313

>  <SCORE.INTRA.VDW>
-5.58375

>  <SCORE.INTRA.VDW.0>
6.34071

>  <SCORE.INTRA.norm>
-0.246088

>  <SCORE.RESTR>
0.438598

>  <SCORE.RESTR.CAVITY>
0.438598

>  <SCORE.RESTR.norm>
0.0208856

>  <SCORE.SYSTEM>
0

>  <SCORE.SYSTEM.CONST>
0

>  <SCORE.SYSTEM.DIHEDRAL>
0

>  <SCORE.SYSTEM.SOLV>
0

>  <SCORE.SYSTEM.norm>
0

>  <SCORE.heavy>
21

>  <SCORE.norm>
-0.984928

>  <RMSD>
5.714

$$$$
lig.pdb
 OpenBabel11021811453D
libRbt.so/2013.1/901 2013/11/27
 21 23  0  0  0  0  0  0  0  0999 V2000
  -11.7673   -1.9366    5.7703 C   0  0  0  0  0  0  0  0  0  0  0  0
  -10.8316   -2.6181    5.1189 N   0  0  0  0  0  0  0  0  0  0  0  0
  -11.1148   -3.8008    4.6032 C   0  0  0  0  0  0  0  0  0  0  0  0
  -12.3330   -4.3447    4.7987 C   0  0  0  0  0  0  0  0  0  0  0  0
  -13.2753   -3.6528    5.4531 C   0  0  0  0  0  0  0  0  0  0  0  0
  -14.4802   -4.1846    5.6553 N   0  0  0  0  0  0  0  0  0  0  0  0
  -12.9865   -2.4501    5.9394 N   0  0  0  0  0  0  0  0  0  0  0  0
  -10.1697   -4.4734    3.9256 C   0  0  0  0  0  0  0  0  0  0  0  0
  -10.4124   -5.7669    3.5512 C   0  0  0  0  0  0  0  0  0  0  0  0
   -9.3483   -6.6938    3.6590 O   0  0  0  0  0  0  0  0  0  0  0  0
  -11.6788   -6.2138    3.5813 C   0  0  0  0  0  0  0  0  0  0  0  0
  -12.0484   -7.3357    2.7921 O   0  0  0  0  0  0  0  0  0  0  0  0
  -12.6132   -5.5545    4.2939 C   0  0  0  0  0  0  0  0  0  0  0  0
  -11.4775   -0.7469    6.2681 N   0  0  0  0  0  0  0  0  0  0  0  0
  -10.7816    0.0756    5.4772 C   0  0  0  0  0  0  0  0  0  0  0  0
   -9.3077   -0.2997    5.5021 C   0  0  0  0  0  0  0  0  0  0  0  0
   -8.8216   -0.1831    6.7879 N   0  0  0  0  0  0  0  0  0  0  0  0
   -9.5273   -1.0697    7.5717 C   0  0  0  0  0  0  0  0  0  0  0  0
  -10.9997   -0.6943    7.5526 C   0  0  0  0  0  0  0  0  0  0  0  0
   -9.2478   -7.0881    5.0035 C   0  0  0  0  0  0  0  0  0  0  0  0
  -12.1927   -8.4503    3.6331 C   0  0  0  0  0  0  0  0  0  0  0  0
  1 14  1  0  0  0  0
  1  2  2  0  0  0  0
  3  2  1  0  0  0  0
  3  8  2  0  0  0  0
  4  3  1  0  0  0  0
  5  7  2  0  0  0  0
  5  4  1  0  0  0  0
  6  5  1  0  0  0  0
  7  1  1  0  0  0  0
  9 10  1  0  0  0  0
  9  8  1  0  0  0  0
 11  9  2  0  0  0  0
 12 11  1  0  0  0  0
 13  4  2  0  0  0  0
 13 11  1  0  0  0  0
 14 15  1  0  0  0  0
 16 15  1  0  0  0  0
 17 16  1  0  0  0  0
 18 17  1  0  0  0  0
 18 19  1  0  0  0  0
 19 14  1  0  0  0  0
 20 10  1  0  0  0  0
 21 12  1  0  0  0  0
M  END
>  <CHROM.1>
44.04837004,79.48084056,105.18394676,-11.19231860,-3.71919398,5.09908377
1.42627394,0.06120410,0.41964080

>  <Name>
lig.pdb

>  <RI>
2.98315e+07

>  <Rbt.Current_Directory>
/home/itssahil/PROJECTS/Mol_Feturizer/New_Systems/rnas/2lwk

>  <Rbt.Executable>
rbdock ($Id: //depot/dev/client3/rdock/2013.1/src/exe/rbdock.cxx#4 $)

>  <Rbt.Library>
libRbt.so (2013.1, Build901 2013/11/27)

>  <Rbt.Parameter_File>
/export/apps/rDock/src/rDock_2013.1_src/data/scripts/dock_solv.prm

>  <Rbt.Receptor>
prm/pocket_docking_5.prm

>  <SCORE>
-15.7609

>  <SCORE.INTER>
-12.3448

>  <SCORE.INTER.CONST>
1

>  <SCORE.INTER.POLAR>
-0.649428

>  <SCORE.INTER.ROT>
3

>  <SCORE.INTER.SOLV>
7.26518

>  <SCORE.INTER.VDW>
-14.0868

>  <SCORE.INTER.norm>
-0.587847

>  <SCORE.INTRA>
-3.4161

>  <SCORE.INTRA.DIHEDRAL>
0.772221

>  <SCORE.INTRA.DIHEDRAL.0>
8.84257

>  <SCORE.INTRA.POLAR>
0

>  <SCORE.INTRA.POLAR.0>
0

>  <SCORE.INTRA.REPUL>
0

>  <SCORE.INTRA.REPUL.0>
0

>  <SCORE.INTRA.SOLV>
0.085598

>  <SCORE.INTRA.SOLV.lig_0>
-17.1313

>  <SCORE.INTRA.VDW>
-3.84501

>  <SCORE.INTRA.VDW.0>
6.34071

>  <SCORE.INTRA.norm>
-0.162671

>  <SCORE.RESTR>
0

>  <SCORE.RESTR.CAVITY>
0

>  <SCORE.RESTR.norm>
0

>  <SCORE.SYSTEM>
0

>  <SCORE.SYSTEM.CONST>
0

>  <SCORE.SYSTEM.DIHEDRAL>
0

>  <SCORE.SYSTEM.SOLV>
0

>  <SCORE.SYSTEM.norm>
0

>  <SCORE.heavy>
21

>  <SCORE.norm>
-0.750519

>  <RMSD>
5.728

$$$$
lig.pdb
 OpenBabel11021811453D
libRbt.so/2013.1/901 2013/11/27
 21 23  0  0  0  0  0  0  0  0999 V2000
   -6.0999    2.7890    5.6464 C   0  0  0  0  0  0  0  0  0  0  0  0
   -5.4829    1.7619    5.0731 N   0  0  0  0  0  0  0  0  0  0  0  0
   -5.5201    1.6184    3.7605 C   0  0  0  0  0  0  0  0  0  0  0  0
   -6.2422    2.4757    3.0111 C   0  0  0  0  0  0  0  0  0  0  0  0
   -6.8602    3.5125    3.5925 C   0  0  0  0  0  0  0  0  0  0  0  0
   -7.5802    4.3617    2.8603 N   0  0  0  0  0  0  0  0  0  0  0  0
   -6.7882    3.6631    4.9110 N   0  0  0  0  0  0  0  0  0  0  0  0
   -4.8739    0.5901    3.1863 C   0  0  0  0  0  0  0  0  0  0  0  0
   -5.0635    0.3454    1.8535 C   0  0  0  0  0  0  0  0  0  0  0  0
   -5.1699   -1.0043    1.4408 O   0  0  0  0  0  0  0  0  0  0  0  0
   -5.6188    1.3087    1.0999 C   0  0  0  0  0  0  0  0  0  0  0  0
   -5.4169    1.3067   -0.3063 O   0  0  0  0  0  0  0  0  0  0  0  0
   -6.2977    2.3170    1.6813 C   0  0  0  0  0  0  0  0  0  0  0  0
   -6.0424    2.9319    6.9592 N   0  0  0  0  0  0  0  0  0  0  0  0
   -4.8604    3.2939    7.4671 C   0  0  0  0  0  0  0  0  0  0  0  0
   -3.9378    2.0874    7.5527 C   0  0  0  0  0  0  0  0  0  0  0  0
   -4.4954    1.1358    8.3813 N   0  0  0  0  0  0  0  0  0  0  0  0
   -5.6905    0.7518    7.8134 C   0  0  0  0  0  0  0  0  0  0  0  0
   -6.6162    1.9541    7.7309 C   0  0  0  0  0  0  0  0  0  0  0  0
   -3.9541   -1.3746    0.8427 C   0  0  0  0  0  0  0  0  0  0  0  0
   -4.2650    2.0542   -0.5972 C   0  0  0  0  0  0  0  0  0  0  0  0
  1 14  1  0  0  0  0
  1  2  2  0  0  0  0
  3  2  1  0  0  0  0
  3  8  2  0  0  0  0
  4  3  1  0  0  0  0
  5  7  2  0  0  0  0
  5  4  1  0  0  0  0
  6  5  1  0  0  0  0
  7  1  1  0  0  0  0
  9 10  1  0  0  0  0
  9  8  1  0  0  0  0
 11  9  2  0  0  0  0
 12 11  1  0  0  0  0
 13  4  2  0  0  0  0
 13 11  1  0  0  0  0
 14 15  1  0  0  0  0
 16 15  1  0  0  0  0
 17 16  1  0  0  0  0
 18 17  1  0  0  0  0
 18 19  1  0  0  0  0
 19 14  1  0  0  0  0
 20 10  1  0  0  0  0
 21 12  1  0  0  0  0
M  END
>  <CHROM.1>
70.79161978,-103.57786895,-89.98751613,-5.54940717,1.78294840,3.97858357
1.66782987,-1.02944892,1.45544468

>  <Name>
lig.pdb

>  <RI>
1.4775e+07

>  <Rbt.Current_Directory>
/home/itssahil/PROJECTS/Mol_Feturizer/New_Systems/rnas/2lwk

>  <Rbt.Executable>
rbdock ($Id: //depot/dev/client3/rdock/2013.1/src/exe/rbdock.cxx#4 $)

>  <Rbt.Library>
libRbt.so (2013.1, Build901 2013/11/27)

>  <Rbt.Parameter_File>
/export/apps/rDock/src/rDock_2013.1_src/data/scripts/dock_solv.prm

>  <Rbt.Receptor>
prm/pocket_docking_4.prm

>  <SCORE>
-18.3188

>  <SCORE.INTER>
-13.1995

>  <SCORE.INTER.CONST>
1

>  <SCORE.INTER.POLAR>
-1.67391

>  <SCORE.INTER.ROT>
3

>  <SCORE.INTER.SOLV>
6.36027

>  <SCORE.INTER.VDW>
-10.94

>  <SCORE.INTER.norm>
-0.628546

>  <SCORE.INTRA>
-5.40568

>  <SCORE.INTRA.DIHEDRAL>
1.00723

>  <SCORE.INTRA.DIHEDRAL.0>
8.84257

>  <SCORE.INTRA.POLAR>
0

>  <SCORE.INTRA.POLAR.0>
0

>  <SCORE.INTRA.REPUL>
0

>  <SCORE.INTRA.REPUL.0>
0

>  <SCORE.INTRA.SOLV>
0.0989081

>  <SCORE.INTRA.SOLV.lig_0>
-17.1313

>  <SCORE.INTRA.VDW>
-5.95875

>  <SCORE.INTRA.VDW.0>
6.34071

>  <SCORE.INTRA.norm>
-0.257414

>  <SCORE.RESTR>
0.286312

>  <SCORE.RESTR.CAVITY>
0.286312

>  <SCORE.RESTR.norm>
0.0136339

>  <SCORE.SYSTEM>
0

>  <SCORE.SYSTEM.CONST>
0

>  <SCORE.SYSTEM.DIHEDRAL>
0

>  <SCORE.SYSTEM.SOLV>
0

>  <SCORE.SYSTEM.norm>
0

>  <SCORE.heavy>
21

>  <SCORE.norm>
-0.872326

>  <RMSD>
5.780

$$$$
lig.pdb
 OpenBabel11021811453D
libRbt.so/2013.1/901 2013/11/27
 21 23  0  0  0  0  0  0  0  0999 V2000
  -11.6007   -2.4812    5.0083 C   0  0  0  0  0  0  0  0  0  0  0  0
  -10.4690   -3.1731    4.9378 N   0  0  0  0  0  0  0  0  0  0  0  0
  -10.4832   -4.4191    4.4995 C   0  0  0  0  0  0  0  0  0  0  0  0
  -11.6555   -5.0093    4.1902 C   0  0  0  0  0  0  0  0  0  0  0  0
  -12.7944   -4.3071    4.2591 C   0  0  0  0  0  0  0  0  0  0  0  0
  -13.9579   -4.8837    3.9603 N   0  0  0  0  0  0  0  0  0  0  0  0
  -12.7619   -3.0441    4.6715 N   0  0  0  0  0  0  0  0  0  0  0  0
   -9.3313   -5.1044    4.4090 C   0  0  0  0  0  0  0  0  0  0  0  0
   -9.3732   -6.4428    4.1276 C   0  0  0  0  0  0  0  0  0  0  0  0
   -8.4714   -7.2887    4.8164 O   0  0  0  0  0  0  0  0  0  0  0  0
  -10.5135   -6.9573    3.6384 C   0  0  0  0  0  0  0  0  0  0  0  0
  -10.4806   -8.1777    2.9119 O   0  0  0  0  0  0  0  0  0  0  0  0
  -11.6718   -6.2808    3.7664 C   0  0  0  0  0  0  0  0  0  0  0  0
  -11.5725   -1.2298    5.4328 N   0  0  0  0  0  0  0  0  0  0  0  0
  -10.6616   -0.4306    4.8692 C   0  0  0  0  0  0  0  0  0  0  0  0
   -9.2951   -0.6777    5.4903 C   0  0  0  0  0  0  0  0  0  0  0  0
   -9.3430   -0.3998    6.8407 N   0  0  0  0  0  0  0  0  0  0  0  0
  -10.2577   -1.2640    7.4018 C   0  0  0  0  0  0  0  0  0  0  0  0
  -11.6250   -1.0163    6.7866 C   0  0  0  0  0  0  0  0  0  0  0  0
   -9.0105   -7.5604    6.0847 C   0  0  0  0  0  0  0  0  0  0  0  0
  -10.9835   -9.2023    3.7291 C   0  0  0  0  0  0  0  0  0  0  0  0
  1 14  1  0  0  0  0
  1  2  2  0  0  0  0
  3  2  1  0  0  0  0
  3  8  2  0  0  0  0
  4  3  1  0  0  0  0
  5  7  2  0  0  0  0
  5  4  1  0  0  0  0
  6  5  1  0  0  0  0
  7  1  1  0  0  0  0
  9 10  1  0  0  0  0
  9  8  1  0  0  0  0
 11  9  2  0  0  0  0
 12 11  1  0  0  0  0
 13  4  2  0  0  0  0
 13 11  1  0  0  0  0
 14 15  1  0  0  0  0
 16 15  1  0  0  0  0
 17 16  1  0  0  0  0
 18 17  1  0  0  0  0
 18 19  1  0  0  0  0
 19 14  1  0  0  0  0
 20 10  1  0  0  0  0
 21 12  1  0  0  0  0
M  END
>  <CHROM.1>
49.06735235,81.17645491,104.98123276,-10.76329772,-4.28212662,4.86572925
1.62046395,-0.35576814,0.31128379

>  <Name>
lig.pdb

>  <RI>
2.98315e+07

>  <Rbt.Current_Directory>
/home/itssahil/PROJECTS/Mol_Feturizer/New_Systems/rnas/2lwk

>  <Rbt.Executable>
rbdock ($Id: //depot/dev/client3/rdock/2013.1/src/exe/rbdock.cxx#4 $)

>  <Rbt.Library>
libRbt.so (2013.1, Build901 2013/11/27)

>  <Rbt.Parameter_File>
/export/apps/rDock/src/rDock_2013.1_src/data/scripts/dock_solv.prm

>  <Rbt.Receptor>
prm/pocket_docking_5.prm

>  <SCORE>
-18.3806

>  <SCORE.INTER>
-14.8957

>  <SCORE.INTER.CONST>
1

>  <SCORE.INTER.POLAR>
-1.46649

>  <SCORE.INTER.ROT>
3

>  <SCORE.INTER.SOLV>
8.29329

>  <SCORE.INTER.VDW>
-13.4066

>  <SCORE.INTER.norm>
-0.709317

>  <SCORE.INTRA>
-3.58723

>  <SCORE.INTRA.DIHEDRAL>
0.767064

>  <SCORE.INTRA.DIHEDRAL.0>
8.84257

>  <SCORE.INTRA.POLAR>
0

>  <SCORE.INTRA.POLAR.0>
0

>  <SCORE.INTRA.REPUL>
0

>  <SCORE.INTRA.REPUL.0>
0

>  <SCORE.INTRA.SOLV>
0.0903287

>  <SCORE.INTRA.SOLV.lig_0>
-17.1313

>  <SCORE.INTRA.VDW>
-4.01592

>  <SCORE.INTRA.VDW.0>
6.34071

>  <SCORE.INTRA.norm>
-0.17082

>  <SCORE.RESTR>
0.102251

>  <SCORE.RESTR.CAVITY>
0.102251

>  <SCORE.RESTR.norm>
0.00486908

>  <SCORE.SYSTEM>
0

>  <SCORE.SYSTEM.CONST>
0

>  <SCORE.SYSTEM.DIHEDRAL>
0

>  <SCORE.SYSTEM.SOLV>
0

>  <SCORE.SYSTEM.norm>
0

>  <SCORE.heavy>
21

>  <SCORE.norm>
-0.875268

>  <RMSD>
5.783

$$$$
lig.pdb
 OpenBabel11021811453D
libRbt.so/2013.1/901 2013/11/27
 21 23  0  0  0  0  0  0  0  0999 V2000
  -11.5436   -2.5016    5.0336 C   0  0  0  0  0  0  0  0  0  0  0  0
  -10.4252   -3.2177    5.0588 N   0  0  0  0  0  0  0  0  0  0  0  0
  -10.4313   -4.4669    4.6298 C   0  0  0  0  0  0  0  0  0  0  0  0
  -11.5876   -5.0351    4.2318 C   0  0  0  0  0  0  0  0  0  0  0  0
  -12.7129   -4.3086    4.2043 C   0  0  0  0  0  0  0  0  0  0  0  0
  -13.8610   -4.8633    3.8174 N   0  0  0  0  0  0  0  0  0  0  0  0
  -12.6861   -3.0429    4.6089 N   0  0  0  0  0  0  0  0  0  0  0  0
   -9.2909   -5.1771    4.6367 C   0  0  0  0  0  0  0  0  0  0  0  0
   -9.3392   -6.5167    4.3623 C   0  0  0  0  0  0  0  0  0  0  0  0
   -8.5138   -7.3752    5.1272 O   0  0  0  0  0  0  0  0  0  0  0  0
  -10.4476   -7.0115    3.7872 C   0  0  0  0  0  0  0  0  0  0  0  0
  -10.3831   -8.2386    3.0744 O   0  0  0  0  0  0  0  0  0  0  0  0
  -11.5975   -6.3097    3.8171 C   0  0  0  0  0  0  0  0  0  0  0  0
  -11.5224   -1.2473    5.4501 N   0  0  0  0  0  0  0  0  0  0  0  0
  -10.6136   -0.4476    4.8838 C   0  0  0  0  0  0  0  0  0  0  0  0
   -9.2478   -0.6843    5.5103 C   0  0  0  0  0  0  0  0  0  0  0  0
   -9.3008   -0.3979    6.8587 N   0  0  0  0  0  0  0  0  0  0  0  0
  -10.2131   -1.2627    7.4228 C   0  0  0  0  0  0  0  0  0  0  0  0
  -11.5797   -1.0253    6.8022 C   0  0  0  0  0  0  0  0  0  0  0  0
   -7.2069   -7.2903    4.6192 C   0  0  0  0  0  0  0  0  0  0  0  0
  -10.9315   -9.2536    3.8741 C   0  0  0  0  0  0  0  0  0  0  0  0
  1 14  1  0  0  0  0
  1  2  2  0  0  0  0
  3  2  1  0  0  0  0
  3  8  2  0  0  0  0
  4  3  1  0  0  0  0
  5  7  2  0  0  0  0
  5  4  1  0  0  0  0
  6  5  1  0  0  0  0
  7  1  1  0  0  0  0
  9 10  1  0  0  0  0
  9  8  1  0  0  0  0
 11  9  2  0  0  0  0
 12 11  1  0  0  0  0
 13  4  2  0  0  0  0
 13 11  1  0  0  0  0
 14 15  1  0  0  0  0
 16 15  1  0  0  0  0
 17 16  1  0  0  0  0
 18 17  1  0  0  0  0
 18 19  1  0  0  0  0
 19 14  1  0  0  0  0
 20 10  1  0  0  0  0
 21 12  1  0  0  0  0
M  END
>  <CHROM.1>
53.73726631,-78.77357717,103.04591665,-10.61900664,-4.29591293,4.85752066
1.66855768,-0.28059126,0.32419802

>  <Name>
lig.pdb

>  <RI>
2.98315e+07

>  <Rbt.Current_Directory>
/home/itssahil/PROJECTS/Mol_Feturizer/New_Systems/rnas/2lwk

>  <Rbt.Executable>
rbdock ($Id: //depot/dev/client3/rdock/2013.1/src/exe/rbdock.cxx#4 $)

>  <Rbt.Library>
libRbt.so (2013.1, Build901 2013/11/27)

>  <Rbt.Parameter_File>
/export/apps/rDock/src/rDock_2013.1_src/data/scripts/dock_solv.prm

>  <Rbt.Receptor>
prm/pocket_docking_5.prm

>  <SCORE>
-20.0848

>  <SCORE.INTER>
-15.373

>  <SCORE.INTER.CONST>
1

>  <SCORE.INTER.POLAR>
-1.38786

>  <SCORE.INTER.ROT>
3

>  <SCORE.INTER.SOLV>
8.27427

>  <SCORE.INTER.VDW>
-13.9805

>  <SCORE.INTER.norm>
-0.732046

>  <SCORE.INTRA>
-4.86543

>  <SCORE.INTRA.DIHEDRAL>
0.15517

>  <SCORE.INTRA.DIHEDRAL.0>
8.84257

>  <SCORE.INTRA.POLAR>
0

>  <SCORE.INTRA.POLAR.0>
0

>  <SCORE.INTRA.REPUL>
0

>  <SCORE.INTRA.REPUL.0>
0

>  <SCORE.INTRA.SOLV>
0.116203

>  <SCORE.INTRA.SOLV.lig_0>
-17.1313

>  <SCORE.INTRA.VDW>
-5.00111

>  <SCORE.INTRA.VDW.0>
6.34071

>  <SCORE.INTRA.norm>
-0.231687

>  <SCORE.RESTR>
0.153557

>  <SCORE.RESTR.CAVITY>
0.153557

>  <SCORE.RESTR.norm>
0.00731225

>  <SCORE.SYSTEM>
0

>  <SCORE.SYSTEM.CONST>
0

>  <SCORE.SYSTEM.DIHEDRAL>
0

>  <SCORE.SYSTEM.SOLV>
0

>  <SCORE.SYSTEM.norm>
0

>  <SCORE.heavy>
21

>  <SCORE.norm>
-0.956421

>  <RMSD>
5.789

$$$$
lig.pdb
 OpenBabel11021811453D
libRbt.so/2013.1/901 2013/11/27
 21 23  0  0  0  0  0  0  0  0999 V2000
  -11.6088   -2.4945    5.1338 C   0  0  0  0  0  0  0  0  0  0  0  0
  -10.4833   -3.1999    5.1313 N   0  0  0  0  0  0  0  0  0  0  0  0
  -10.4797   -4.4359    4.6653 C   0  0  0  0  0  0  0  0  0  0  0  0
  -11.6328   -5.0034    4.2573 C   0  0  0  0  0  0  0  0  0  0  0  0
  -12.7653   -4.2877    4.2579 C   0  0  0  0  0  0  0  0  0  0  0  0
  -13.9103   -4.8420    3.8613 N   0  0  0  0  0  0  0  0  0  0  0  0
  -12.7485   -3.0344    4.6998 N   0  0  0  0  0  0  0  0  0  0  0  0
   -9.3324   -5.1345    4.6445 C   0  0  0  0  0  0  0  0  0  0  0  0
   -9.3693   -6.4658    4.3308 C   0  0  0  0  0  0  0  0  0  0  0  0
   -8.5309   -7.3383    5.0649 O   0  0  0  0  0  0  0  0  0  0  0  0
  -10.4763   -6.9543    3.7475 C   0  0  0  0  0  0  0  0  0  0  0  0
  -10.4041   -8.1591    2.9982 O   0  0  0  0  0  0  0  0  0  0  0  0
  -11.6327   -6.2652    3.8050 C   0  0  0  0  0  0  0  0  0  0  0  0
  -11.5973   -1.2530    5.5872 N   0  0  0  0  0  0  0  0  0  0  0  0
  -10.7555   -0.4074    4.9852 C   0  0  0  0  0  0  0  0  0  0  0  0
   -9.3426   -0.6171    5.5082 C   0  0  0  0  0  0  0  0  0  0  0  0
   -9.3099   -0.3723    6.8654 N   0  0  0  0  0  0  0  0  0  0  0  0
  -10.1533   -1.2830    7.4635 C   0  0  0  0  0  0  0  0  0  0  0  0
  -11.5667   -1.0728    6.9465 C   0  0  0  0  0  0  0  0  0  0  0  0
   -7.2120   -7.1549    4.6177 C   0  0  0  0  0  0  0  0  0  0  0  0
  -10.8962   -9.2106    3.7872 C   0  0  0  0  0  0  0  0  0  0  0  0
  1 14  1  0  0  0  0
  1  2  2  0  0  0  0
  3  2  1  0  0  0  0
  3  8  2  0  0  0  0
  4  3  1  0  0  0  0
  5  7  2  0  0  0  0
  5  4  1  0  0  0  0
  6  5  1  0  0  0  0
  7  1  1  0  0  0  0
  9 10  1  0  0  0  0
  9  8  1  0  0  0  0
 11  9  2  0  0  0  0
 12 11  1  0  0  0  0
 13  4  2  0  0  0  0
 13 11  1  0  0  0  0
 14 15  1  0  0  0  0
 16 15  1  0  0  0  0
 17 16  1  0  0  0  0
 18 17  1  0  0  0  0
 18 19  1  0  0  0  0
 19 14  1  0  0  0  0
 20 10  1  0  0  0  0
 21 12  1  0  0  0  0
M  END
>  <CHROM.1>
57.59942082,-74.58660091,101.08778042,-10.65485008,-4.26266334,4.88221969
1.67079746,-0.26833138,0.34254675

>  <Name>
lig.pdb

>  <RI>
2.98315e+07

>  <Rbt.Current_Directory>
/home/itssahil/PROJECTS/Mol_Feturizer/New_Systems/rnas/2lwk

>  <Rbt.Executable>
rbdock ($Id: //depot/dev/client3/rdock/2013.1/src/exe/rbdock.cxx#4 $)

>  <Rbt.Library>
libRbt.so (2013.1, Build901 2013/11/27)

>  <Rbt.Parameter_File>
/export/apps/rDock/src/rDock_2013.1_src/data/scripts/dock_solv.prm

>  <Rbt.Receptor>
prm/pocket_docking_5.prm

>  <SCORE>
-19.8377

>  <SCORE.INTER>
-15.1002

>  <SCORE.INTER.CONST>
1

>  <SCORE.INTER.POLAR>
-1.36508

>  <SCORE.INTER.ROT>
3

>  <SCORE.INTER.SOLV>
8.31582

>  <SCORE.INTER.VDW>
-13.8885

>  <SCORE.INTER.norm>
-0.71906

>  <SCORE.INTRA>
-4.84801

>  <SCORE.INTRA.DIHEDRAL>
-0.038183

>  <SCORE.INTRA.DIHEDRAL.0>
8.84257

>  <SCORE.INTRA.POLAR>
0

>  <SCORE.INTRA.POLAR.0>
0

>  <SCORE.INTRA.REPUL>
0

>  <SCORE.INTRA.REPUL.0>
0

>  <SCORE.INTRA.SOLV>
0.116577

>  <SCORE.INTRA.SOLV.lig_0>
-17.1313

>  <SCORE.INTRA.VDW>
-4.88721

>  <SCORE.INTRA.VDW.0>
6.34071

>  <SCORE.INTRA.norm>
-0.230858

>  <SCORE.RESTR>
0.110589

>  <SCORE.RESTR.CAVITY>
0.110589

>  <SCORE.RESTR.norm>
0.00526615

>  <SCORE.SYSTEM>
0

>  <SCORE.SYSTEM.CONST>
0

>  <SCORE.SYSTEM.DIHEDRAL>
0

>  <SCORE.SYSTEM.SOLV>
0

>  <SCORE.SYSTEM.norm>
0

>  <SCORE.heavy>
21

>  <SCORE.norm>
-0.944651

>  <RMSD>
5.803

$$$$
lig.pdb
 OpenBabel11021811453D
libRbt.so/2013.1/901 2013/11/27
 21 23  0  0  0  0  0  0  0  0999 V2000
  -11.2059   -0.7490    6.7181 C   0  0  0  0  0  0  0  0  0  0  0  0
  -10.9082   -2.0257    6.5045 N   0  0  0  0  0  0  0  0  0  0  0  0
  -10.2100   -2.3714    5.4378 C   0  0  0  0  0  0  0  0  0  0  0  0
   -9.8601   -1.4361    4.5317 C   0  0  0  0  0  0  0  0  0  0  0  0
  -10.1590   -0.1489    4.7524 C   0  0  0  0  0  0  0  0  0  0  0  0
   -9.8217    0.7814    3.8599 N   0  0  0  0  0  0  0  0  0  0  0  0
  -10.8345    0.1891    5.8459 N   0  0  0  0  0  0  0  0  0  0  0  0
   -9.8929   -3.6619    5.2411 C   0  0  0  0  0  0  0  0  0  0  0  0
   -9.3289   -4.0351    4.0516 C   0  0  0  0  0  0  0  0  0  0  0  0
   -9.7525   -5.2574    3.4773 O   0  0  0  0  0  0  0  0  0  0  0  0
   -8.8185   -3.0785    3.2587 C   0  0  0  0  0  0  0  0  0  0  0  0
   -7.8420   -3.4186    2.2845 O   0  0  0  0  0  0  0  0  0  0  0  0
   -9.1705   -1.7904    3.4383 C   0  0  0  0  0  0  0  0  0  0  0  0
  -11.8910   -0.4126    7.7972 N   0  0  0  0  0  0  0  0  0  0  0  0
  -11.1866   -0.2427    8.9203 C   0  0  0  0  0  0  0  0  0  0  0  0
  -10.8612   -1.5928    9.5411 C   0  0  0  0  0  0  0  0  0  0  0  0
  -12.0314   -2.2520    9.8560 N   0  0  0  0  0  0  0  0  0  0  0  0
  -12.7168   -2.4498    8.6772 C   0  0  0  0  0  0  0  0  0  0  0  0
  -13.0475   -1.1026    8.0568 C   0  0  0  0  0  0  0  0  0  0  0  0
   -9.2782   -6.3054    4.2834 C   0  0  0  0  0  0  0  0  0  0  0  0
   -6.6141   -3.6284    2.9314 C   0  0  0  0  0  0  0  0  0  0  0  0
  1 14  1  0  0  0  0
  1  2  2  0  0  0  0
  3  2  1  0  0  0  0
  3  8  2  0  0  0  0
  4  3  1  0  0  0  0
  5  7  2  0  0  0  0
  5  4  1  0  0  0  0
  6  5  1  0  0  0  0
  7  1  1  0  0  0  0
  9 10  1  0  0  0  0
  9  8  1  0  0  0  0
 11  9  2  0  0  0  0
 12 11  1  0  0  0  0
 13  4  2  0  0  0  0
 13 11  1  0  0  0  0
 14 15  1  0  0  0  0
 16 15  1  0  0  0  0
 17 16  1  0  0  0  0
 18 17  1  0  0  0  0
 18 19  1  0  0  0  0
 19 14  1  0  0  0  0
 20 10  1  0  0  0  0
 21 12  1  0  0  0  0
M  END
>  <CHROM.1>
84.11535357,-69.07070806,-75.56158187,-10.24512130,-2.17205071,5.68483666
-2.88337590,-1.03547351,2.97408776

>  <Name>
lig.pdb

>  <RI>
2.59814e+07

>  <Rbt.Current_Directory>
/home/itssahil/PROJECTS/Mol_Feturizer/New_Systems/rnas/2lwk

>  <Rbt.Executable>
rbdock ($Id: //depot/dev/client3/rdock/2013.1/src/exe/rbdock.cxx#4 $)

>  <Rbt.Library>
libRbt.so (2013.1, Build901 2013/11/27)

>  <Rbt.Parameter_File>
/export/apps/rDock/src/rDock_2013.1_src/data/scripts/dock_solv.prm

>  <Rbt.Receptor>
prm/pocket_docking_6.prm

>  <SCORE>
-20.7446

>  <SCORE.INTER>
-16.0974

>  <SCORE.INTER.CONST>
1

>  <SCORE.INTER.POLAR>
-1.35296

>  <SCORE.INTER.ROT>
3

>  <SCORE.INTER.SOLV>
9.80137

>  <SCORE.INTER.VDW>
-15.0888

>  <SCORE.INTER.norm>
-0.766541

>  <SCORE.INTRA>
-4.64724

>  <SCORE.INTRA.DIHEDRAL>
-0.520416

>  <SCORE.INTRA.DIHEDRAL.0>
8.84257

>  <SCORE.INTRA.POLAR>
0

>  <SCORE.INTRA.POLAR.0>
0

>  <SCORE.INTRA.REPUL>
0

>  <SCORE.INTRA.REPUL.0>
0

>  <SCORE.INTRA.SOLV>
0.0685851

>  <SCORE.INTRA.SOLV.lig_0>
-17.1313

>  <SCORE.INTRA.VDW>
-4.42133

>  <SCORE.INTRA.VDW.0>
6.34071

>  <SCORE.INTRA.norm>
-0.221297

>  <SCORE.RESTR>
0

>  <SCORE.RESTR.CAVITY>
0

>  <SCORE.RESTR.norm>
0

>  <SCORE.SYSTEM>
0

>  <SCORE.SYSTEM.CONST>
0

>  <SCORE.SYSTEM.DIHEDRAL>
0

>  <SCORE.SYSTEM.SOLV>
0

>  <SCORE.SYSTEM.norm>
0

>  <SCORE.heavy>
21

>  <SCORE.norm>
-0.987838

>  <RMSD>
5.819

$$$$
lig.pdb
 OpenBabel11021811453D
libRbt.so/2013.1/901 2013/11/27
 21 23  0  0  0  0  0  0  0  0999 V2000
   -5.3284    5.1649    2.9342 C   0  0  0  0  0  0  0  0  0  0  0  0
   -5.6590    3.9248    2.5919 N   0  0  0  0  0  0  0  0  0  0  0  0
   -5.9171    3.0283    3.5271 C   0  0  0  0  0  0  0  0  0  0  0  0
   -5.7769    3.3548    4.8278 C   0  0  0  0  0  0  0  0  0  0  0  0
   -5.4468    4.6076    5.1692 C   0  0  0  0  0  0  0  0  0  0  0  0
   -5.3011    4.9378    6.4519 N   0  0  0  0  0  0  0  0  0  0  0  0
   -5.2209    5.5083    4.2185 N   0  0  0  0  0  0  0  0  0  0  0  0
   -6.2736    1.7826    3.1725 C   0  0  0  0  0  0  0  0  0  0  0  0
   -6.3639    0.8160    4.1368 C   0  0  0  0  0  0  0  0  0  0  0  0
   -5.8885   -0.4783    3.8178 O   0  0  0  0  0  0  0  0  0  0  0  0
   -6.4125    1.1996    5.4232 C   0  0  0  0  0  0  0  0  0  0  0  0
   -6.9602    0.3242    6.3988 O   0  0  0  0  0  0  0  0  0  0  0  0
   -6.0176    2.4386    5.7761 C   0  0  0  0  0  0  0  0  0  0  0  0
   -5.0882    6.0582    1.9900 N   0  0  0  0  0  0  0  0  0  0  0  0
   -4.4177    5.6253    0.9180 C   0  0  0  0  0  0  0  0  0  0  0  0
   -2.9308    5.5468    1.2294 C   0  0  0  0  0  0  0  0  0  0  0  0
   -2.4602    6.8004    1.5611 N   0  0  0  0  0  0  0  0  0  0  0  0
   -3.1381    7.2038    2.6907 C   0  0  0  0  0  0  0  0  0  0  0  0
   -4.6235    7.2877    2.3814 C   0  0  0  0  0  0  0  0  0  0  0  0
   -6.9884   -1.3515    3.7866 C   0  0  0  0  0  0  0  0  0  0  0  0
   -5.9074   -0.2852    7.0992 C   0  0  0  0  0  0  0  0  0  0  0  0
  1 14  1  0  0  0  0
  1  2  2  0  0  0  0
  3  2  1  0  0  0  0
  3  8  2  0  0  0  0
  4  3  1  0  0  0  0
  5  7  2  0  0  0  0
  5  4  1  0  0  0  0
  6  5  1  0  0  0  0
  7  1  1  0  0  0  0
  9 10  1  0  0  0  0
  9  8  1  0  0  0  0
 11  9  2  0  0  0  0
 12 11  1  0  0  0  0
 13  4  2  0  0  0  0
 13 11  1  0  0  0  0
 14 15  1  0  0  0  0
 16 15  1  0  0  0  0
 17 16  1  0  0  0  0
 18 17  1  0  0  0  0
 18 19  1  0  0  0  0
 19 14  1  0  0  0  0
 20 10  1  0  0  0  0
 21 12  1  0  0  0  0
M  END
>  <CHROM.1>
-39.29074523,-113.14521786,101.76323912,-5.32267274,3.47435852,3.82844271
-0.10116887,-1.21818122,-2.14677699

>  <Name>
lig.pdb

>  <RI>
2.75338e+07

>  <Rbt.Current_Directory>
/home/itssahil/PROJECTS/Mol_Feturizer/New_Systems/rnas/2lwk

>  <Rbt.Executable>
rbdock ($Id: //depot/dev/client3/rdock/2013.1/src/exe/rbdock.cxx#4 $)

>  <Rbt.Library>
libRbt.so (2013.1, Build901 2013/11/27)

>  <Rbt.Parameter_File>
/export/apps/rDock/src/rDock_2013.1_src/data/scripts/dock_solv.prm

>  <Rbt.Receptor>
prm/pocket_docking_8.prm

>  <SCORE>
-19.0617

>  <SCORE.INTER>
-15.4915

>  <SCORE.INTER.CONST>
1

>  <SCORE.INTER.POLAR>
-2.60557

>  <SCORE.INTER.ROT>
3

>  <SCORE.INTER.SOLV>
5.71247

>  <SCORE.INTER.VDW>
-9.14659

>  <SCORE.INTER.norm>
-0.737691

>  <SCORE.INTRA>
-3.57018

>  <SCORE.INTRA.DIHEDRAL>
0.71482

>  <SCORE.INTRA.DIHEDRAL.0>
8.84257

>  <SCORE.INTRA.POLAR>
0

>  <SCORE.INTRA.POLAR.0>
0

>  <SCORE.INTRA.REPUL>
0

>  <SCORE.INTRA.REPUL.0>
0

>  <SCORE.INTRA.SOLV>
0.0315493

>  <SCORE.INTRA.SOLV.lig_0>
-17.1313

>  <SCORE.INTRA.VDW>
-3.94337

>  <SCORE.INTRA.VDW.0>
6.34071

>  <SCORE.INTRA.norm>
-0.170009

>  <SCORE.RESTR>
0

>  <SCORE.RESTR.CAVITY>
0

>  <SCORE.RESTR.norm>
0

>  <SCORE.SYSTEM>
0

>  <SCORE.SYSTEM.CONST>
0

>  <SCORE.SYSTEM.DIHEDRAL>
0

>  <SCORE.SYSTEM.SOLV>
0

>  <SCORE.SYSTEM.norm>
0

>  <SCORE.heavy>
21

>  <SCORE.norm>
-0.9077

>  <RMSD>
5.841

$$$$
lig.pdb
 OpenBabel11021811453D
libRbt.so/2013.1/901 2013/11/27
 21 23  0  0  0  0  0  0  0  0999 V2000
  -11.2846   -2.4069    5.5535 C   0  0  0  0  0  0  0  0  0  0  0  0
  -10.5942   -3.2668    6.2939 N   0  0  0  0  0  0  0  0  0  0  0  0
  -10.7344   -4.5659    6.1003 C   0  0  0  0  0  0  0  0  0  0  0  0
  -11.6295   -5.0182    5.1990 C   0  0  0  0  0  0  0  0  0  0  0  0
  -12.3213   -4.1479    4.4515 C   0  0  0  0  0  0  0  0  0  0  0  0
  -13.2116   -4.5858    3.5620 N   0  0  0  0  0  0  0  0  0  0  0  0
  -12.1472   -2.8431    4.6346 N   0  0  0  0  0  0  0  0  0  0  0  0
  -10.0151   -5.4286    6.8373 C   0  0  0  0  0  0  0  0  0  0  0  0
  -10.2944   -6.7658    6.7582 C   0  0  0  0  0  0  0  0  0  0  0  0
  -10.2606   -7.5171    7.9571 O   0  0  0  0  0  0  0  0  0  0  0  0
  -11.0391   -7.2030    5.7294 C   0  0  0  0  0  0  0  0  0  0  0  0
  -10.9706   -8.5677    5.3406 O   0  0  0  0  0  0  0  0  0  0  0  0
  -11.7873   -6.3369    5.0183 C   0  0  0  0  0  0  0  0  0  0  0  0
  -11.1242   -1.1088    5.7446 N   0  0  0  0  0  0  0  0  0  0  0  0
  -10.0909   -0.5383    5.1179 C   0  0  0  0  0  0  0  0  0  0  0  0
   -8.8025   -0.8148    5.8779 C   0  0  0  0  0  0  0  0  0  0  0  0
   -8.8903   -0.2824    7.1475 N   0  0  0  0  0  0  0  0  0  0  0  0
   -9.9354   -0.9165    7.7833 C   0  0  0  0  0  0  0  0  0  0  0  0
  -11.2248   -0.6381    7.0288 C   0  0  0  0  0  0  0  0  0  0  0  0
   -9.0016   -8.1330    8.0505 C   0  0  0  0  0  0  0  0  0  0  0  0
   -9.8784   -8.7353    4.4750 C   0  0  0  0  0  0  0  0  0  0  0  0
  1 14  1  0  0  0  0
  1  2  2  0  0  0  0
  3  2  1  0  0  0  0
  3  8  2  0  0  0  0
  4  3  1  0  0  0  0
  5  7  2  0  0  0  0
  5  4  1  0  0  0  0
  6  5  1  0  0  0  0
  7  1  1  0  0  0  0
  9 10  1  0  0  0  0
  9  8  1  0  0  0  0
 11  9  2  0  0  0  0
 12 11  1  0  0  0  0
 13  4  2  0  0  0  0
 13 11  1  0  0  0  0
 14 15  1  0  0  0  0
 16 15  1  0  0  0  0
 17 16  1  0  0  0  0
 18 17  1  0  0  0  0
 18 19  1  0  0  0  0
 19 14  1  0  0  0  0
 20 10  1  0  0  0  0
 21 12  1  0  0  0  0
M  END
>  <CHROM.1>
83.87514471,-96.64098178,-84.46493639,-10.70615257,-4.30186102,5.94685640
1.51643992,-0.84677959,-0.00753769

>  <Name>
lig.pdb

>  <RI>
2.20372e+07

>  <Rbt.Current_Directory>
/home/itssahil/PROJECTS/Mol_Feturizer/New_Systems/rnas/2lwk

>  <Rbt.Executable>
rbdock ($Id: //depot/dev/client3/rdock/2013.1/src/exe/rbdock.cxx#4 $)

>  <Rbt.Library>
libRbt.so (2013.1, Build901 2013/11/27)

>  <Rbt.Parameter_File>
/export/apps/rDock/src/rDock_2013.1_src/data/scripts/dock_solv.prm

>  <Rbt.Receptor>
prm/pocket_docking_7.prm

>  <SCORE>
-21.7626

>  <SCORE.INTER>
-16.4878

>  <SCORE.INTER.CONST>
1

>  <SCORE.INTER.POLAR>
-2.8829

>  <SCORE.INTER.ROT>
3

>  <SCORE.INTER.SOLV>
5.45727

>  <SCORE.INTER.VDW>
-8.80126

>  <SCORE.INTER.norm>
-0.785132

>  <SCORE.INTRA>
-5.27487

>  <SCORE.INTRA.DIHEDRAL>
0.949614

>  <SCORE.INTRA.DIHEDRAL.0>
8.84257

>  <SCORE.INTRA.POLAR>
0

>  <SCORE.INTRA.POLAR.0>
0

>  <SCORE.INTRA.REPUL>
0

>  <SCORE.INTRA.REPUL.0>
0

>  <SCORE.INTRA.SOLV>
0.0869948

>  <SCORE.INTRA.SOLV.lig_0>
-17.1313

>  <SCORE.INTRA.VDW>
-5.79317

>  <SCORE.INTRA.VDW.0>
6.34071

>  <SCORE.INTRA.norm>
-0.251184

>  <SCORE.RESTR>
0

>  <SCORE.RESTR.CAVITY>
0

>  <SCORE.RESTR.norm>
0

>  <SCORE.SYSTEM>
0

>  <SCORE.SYSTEM.CONST>
0

>  <SCORE.SYSTEM.DIHEDRAL>
0

>  <SCORE.SYSTEM.SOLV>
0

>  <SCORE.SYSTEM.norm>
0

>  <SCORE.heavy>
21

>  <SCORE.norm>
-1.03632

>  <RMSD>
5.868

$$$$
lig.pdb
 OpenBabel11021811453D
libRbt.so/2013.1/901 2013/11/27
 21 23  0  0  0  0  0  0  0  0999 V2000
   -8.4490   -5.6155    3.7503 C   0  0  0  0  0  0  0  0  0  0  0  0
   -8.5909   -4.3537    4.1404 N   0  0  0  0  0  0  0  0  0  0  0  0
   -9.7912   -3.8818    4.4254 C   0  0  0  0  0  0  0  0  0  0  0  0
  -10.8779   -4.6613    4.2533 C   0  0  0  0  0  0  0  0  0  0  0  0
  -10.7306   -5.9344    3.8632 C   0  0  0  0  0  0  0  0  0  0  0  0
  -11.7992   -6.7104    3.6855 N   0  0  0  0  0  0  0  0  0  0  0  0
   -9.5140   -6.4060    3.6102 N   0  0  0  0  0  0  0  0  0  0  0  0
   -9.9237   -2.6114    4.8418 C   0  0  0  0  0  0  0  0  0  0  0  0
  -11.1778   -2.0776    4.9620 C   0  0  0  0  0  0  0  0  0  0  0  0
  -11.3646   -0.7368    4.5490 O   0  0  0  0  0  0  0  0  0  0  0  0
  -12.2292   -2.9134    4.9760 C   0  0  0  0  0  0  0  0  0  0  0  0
  -13.4581   -2.4894    5.5489 O   0  0  0  0  0  0  0  0  0  0  0  0
  -12.0979   -4.1751    4.5217 C   0  0  0  0  0  0  0  0  0  0  0  0
   -7.2413   -6.0819    3.4834 N   0  0  0  0  0  0  0  0  0  0  0  0
   -6.6338   -6.7565    4.4643 C   0  0  0  0  0  0  0  0  0  0  0  0
   -6.0416   -5.7865    5.4754 C   0  0  0  0  0  0  0  0  0  0  0  0
   -5.1071   -4.9836    4.8548 N   0  0  0  0  0  0  0  0  0  0  0  0
   -5.7675   -4.2711    3.8778 C   0  0  0  0  0  0  0  0  0  0  0  0
   -6.3563   -5.2374    2.8634 C   0  0  0  0  0  0  0  0  0  0  0  0
  -11.0194    0.1020    5.6216 C   0  0  0  0  0  0  0  0  0  0  0  0
  -13.3234   -2.4768    6.9460 C   0  0  0  0  0  0  0  0  0  0  0  0
  1 14  1  0  0  0  0
  1  2  2  0  0  0  0
  3  2  1  0  0  0  0
  3  8  2  0  0  0  0
  4  3  1  0  0  0  0
  5  7  2  0  0  0  0
  5  4  1  0  0  0  0
  6  5  1  0  0  0  0
  7  1  1  0  0  0  0
  9 10  1  0  0  0  0
  9  8  1  0  0  0  0
 11  9  2  0  0  0  0
 12 11  1  0  0  0  0
 13  4  2  0  0  0  0
 13 11  1  0  0  0  0
 14 15  1  0  0  0  0
 16 15  1  0  0  0  0
 17 16  1  0  0  0  0
 18 17  1  0  0  0  0
 18 19  1  0  0  0  0
 19 14  1  0  0  0  0
 20 10  1  0  0  0  0
 21 12  1  0  0  0  0
M  END
>  <CHROM.1>
96.88167463,-85.25915537,-73.80497685,-9.60163259,-4.16644978,4.52893686
0.57347332,-0.04987572,-2.86798670

>  <Name>
lig.pdb

>  <RI>
2.59814e+07

>  <Rbt.Current_Directory>
/home/itssahil/PROJECTS/Mol_Feturizer/New_Systems/rnas/2lwk

>  <Rbt.Executable>
rbdock ($Id: //depot/dev/client3/rdock/2013.1/src/exe/rbdock.cxx#4 $)

>  <Rbt.Library>
libRbt.so (2013.1, Build901 2013/11/27)

>  <Rbt.Parameter_File>
/export/apps/rDock/src/rDock_2013.1_src/data/scripts/dock_solv.prm

>  <Rbt.Receptor>
prm/pocket_docking_6.prm

>  <SCORE>
-21.7957

>  <SCORE.INTER>
-16.9985

>  <SCORE.INTER.CONST>
1

>  <SCORE.INTER.POLAR>
-2.26568

>  <SCORE.INTER.ROT>
3

>  <SCORE.INTER.SOLV>
6.62387

>  <SCORE.INTER.VDW>
-11.588

>  <SCORE.INTER.norm>
-0.809453

>  <SCORE.INTRA>
-4.79718

>  <SCORE.INTRA.DIHEDRAL>
0.345944

>  <SCORE.INTRA.DIHEDRAL.0>
8.84257

>  <SCORE.INTRA.POLAR>
0

>  <SCORE.INTRA.POLAR.0>
0

>  <SCORE.INTRA.REPUL>
0

>  <SCORE.INTRA.REPUL.0>
0

>  <SCORE.INTRA.SOLV>
0.0691743

>  <SCORE.INTRA.SOLV.lig_0>
-17.1313

>  <SCORE.INTRA.VDW>
-5.00474

>  <SCORE.INTRA.VDW.0>
6.34071

>  <SCORE.INTRA.norm>
-0.228437

>  <SCORE.RESTR>
0

>  <SCORE.RESTR.CAVITY>
0

>  <SCORE.RESTR.norm>
0

>  <SCORE.SYSTEM>
0

>  <SCORE.SYSTEM.CONST>
0

>  <SCORE.SYSTEM.DIHEDRAL>
0

>  <SCORE.SYSTEM.SOLV>
0

>  <SCORE.SYSTEM.norm>
0

>  <SCORE.heavy>
21

>  <SCORE.norm>
-1.03789

>  <RMSD>
5.888

$$$$
lig.pdb
 OpenBabel11021811453D
libRbt.so/2013.1/901 2013/11/27
 21 23  0  0  0  0  0  0  0  0999 V2000
   -5.2410    5.1770    2.9047 C   0  0  0  0  0  0  0  0  0  0  0  0
   -5.3929    3.9075    2.5448 N   0  0  0  0  0  0  0  0  0  0  0  0
   -5.5802    2.9783    3.4647 C   0  0  0  0  0  0  0  0  0  0  0  0
   -5.5476    3.3101    4.7713 C   0  0  0  0  0  0  0  0  0  0  0  0
   -5.3979    4.5921    5.1303 C   0  0  0  0  0  0  0  0  0  0  0  0
   -5.3594    4.9285    6.4191 N   0  0  0  0  0  0  0  0  0  0  0  0
   -5.2422    5.5215    4.1931 N   0  0  0  0  0  0  0  0  0  0  0  0
   -5.7563    1.6999    3.0913 C   0  0  0  0  0  0  0  0  0  0  0  0
   -5.7699    0.7225    4.0487 C   0  0  0  0  0  0  0  0  0  0  0  0
   -5.1176   -0.4981    3.7523 O   0  0  0  0  0  0  0  0  0  0  0  0
   -5.9309    1.0869    5.3314 C   0  0  0  0  0  0  0  0  0  0  0  0
   -6.4098    0.1413    6.2773 O   0  0  0  0  0  0  0  0  0  0  0  0
   -5.7159    2.3635    5.7052 C   0  0  0  0  0  0  0  0  0  0  0  0
   -5.0706    6.1008    1.9747 N   0  0  0  0  0  0  0  0  0  0  0  0
   -4.4476    5.7129    0.8578 C   0  0  0  0  0  0  0  0  0  0  0  0
   -2.9450    5.6615    1.0896 C   0  0  0  0  0  0  0  0  0  0  0  0
   -2.4859    6.9166    1.4316 N   0  0  0  0  0  0  0  0  0  0  0  0
   -3.1126    7.2732    2.6056 C   0  0  0  0  0  0  0  0  0  0  0  0
   -4.6137    7.3301    2.3760 C   0  0  0  0  0  0  0  0  0  0  0  0
   -6.0528   -1.3583    3.1535 C   0  0  0  0  0  0  0  0  0  0  0  0
   -7.7512   -0.1500    5.9836 C   0  0  0  0  0  0  0  0  0  0  0  0
  1 14  1  0  0  0  0
  1  2  2  0  0  0  0
  3  2  1  0  0  0  0
  3  8  2  0  0  0  0
  4  3  1  0  0  0  0
  5  7  2  0  0  0  0
  5  4  1  0  0  0  0
  6  5  1  0  0  0  0
  7  1  1  0  0  0  0
  9 10  1  0  0  0  0
  9  8  1  0  0  0  0
 11  9  2  0  0  0  0
 12 11  1  0  0  0  0
 13  4  2  0  0  0  0
 13 11  1  0  0  0  0
 14 15  1  0  0  0  0
 16 15  1  0  0  0  0
 17 16  1  0  0  0  0
 18 17  1  0  0  0  0
 18 19  1  0  0  0  0
 19 14  1  0  0  0  0
 20 10  1  0  0  0  0
 21 12  1  0  0  0  0
M  END
>  <CHROM.1>
-30.79036286,-90.09949972,-68.56267159,-5.17889927,3.47278783,3.67832977
0.58270199,1.16983180,0.52369744

>  <Name>
lig.pdb

>  <RI>
2.20372e+07

>  <Rbt.Current_Directory>
/home/itssahil/PROJECTS/Mol_Feturizer/New_Systems/rnas/2lwk

>  <Rbt.Executable>
rbdock ($Id: //depot/dev/client3/rdock/2013.1/src/exe/rbdock.cxx#4 $)

>  <Rbt.Library>
libRbt.so (2013.1, Build901 2013/11/27)

>  <Rbt.Parameter_File>
/export/apps/rDock/src/rDock_2013.1_src/data/scripts/dock_solv.prm

>  <Rbt.Receptor>
prm/pocket_docking_7.prm

>  <SCORE>
-19.3662

>  <SCORE.INTER>
-16.1055

>  <SCORE.INTER.CONST>
1

>  <SCORE.INTER.POLAR>
-2.83051

>  <SCORE.INTER.ROT>
3

>  <SCORE.INTER.SOLV>
5.33458

>  <SCORE.INTER.VDW>
-8.68018

>  <SCORE.INTER.norm>
-0.766929

>  <SCORE.INTRA>
-3.26065

>  <SCORE.INTRA.DIHEDRAL>
0.283326

>  <SCORE.INTRA.DIHEDRAL.0>
8.84257

>  <SCORE.INTRA.POLAR>
0

>  <SCORE.INTRA.POLAR.0>
0

>  <SCORE.INTRA.REPUL>
0

>  <SCORE.INTRA.REPUL.0>
0

>  <SCORE.INTRA.SOLV>
-0.0395782

>  <SCORE.INTRA.SOLV.lig_0>
-17.1313

>  <SCORE.INTRA.VDW>
-3.38253

>  <SCORE.INTRA.VDW.0>
6.34071

>  <SCORE.INTRA.norm>
-0.155269

>  <SCORE.RESTR>
0

>  <SCORE.RESTR.CAVITY>
0

>  <SCORE.RESTR.norm>
0

>  <SCORE.SYSTEM>
0

>  <SCORE.SYSTEM.CONST>
0

>  <SCORE.SYSTEM.DIHEDRAL>
0

>  <SCORE.SYSTEM.SOLV>
0

>  <SCORE.SYSTEM.norm>
0

>  <SCORE.heavy>
21

>  <SCORE.norm>
-0.922198

>  <RMSD>
5.896

$$$$
lig.pdb
 OpenBabel11021811453D
libRbt.so/2013.1/901 2013/11/27
 21 23  0  0  0  0  0  0  0  0999 V2000
   -5.3448    5.0936    2.7695 C   0  0  0  0  0  0  0  0  0  0  0  0
   -5.6941    3.8336    2.5355 N   0  0  0  0  0  0  0  0  0  0  0  0
   -5.9521    3.0216    3.5449 C   0  0  0  0  0  0  0  0  0  0  0  0
   -5.7932    3.4536    4.8122 C   0  0  0  0  0  0  0  0  0  0  0  0
   -5.4443    4.7261    5.0444 C   0  0  0  0  0  0  0  0  0  0  0  0
   -5.2800    5.1602    6.2935 N   0  0  0  0  0  0  0  0  0  0  0  0
   -5.2186    5.5414    4.0194 N   0  0  0  0  0  0  0  0  0  0  0  0
   -6.3275    1.7553    3.2993 C   0  0  0  0  0  0  0  0  0  0  0  0
   -6.4182    0.8737    4.3419 C   0  0  0  0  0  0  0  0  0  0  0  0
   -5.9620   -0.4487    4.1270 O   0  0  0  0  0  0  0  0  0  0  0  0
   -6.4475    1.3639    5.5921 C   0  0  0  0  0  0  0  0  0  0  0  0
   -6.9943    0.5799    6.6431 O   0  0  0  0  0  0  0  0  0  0  0  0
   -6.0339    2.6228    5.8362 C   0  0  0  0  0  0  0  0  0  0  0  0
   -5.1049    5.9019    1.7515 N   0  0  0  0  0  0  0  0  0  0  0  0
   -3.8290    6.2468    1.5534 C   0  0  0  0  0  0  0  0  0  0  0  0
   -3.4283    7.3449    2.5268 C   0  0  0  0  0  0  0  0  0  0  0  0
   -4.2176    8.4574    2.3206 N   0  0  0  0  0  0  0  0  0  0  0  0
   -5.5201    8.0842    2.5711 C   0  0  0  0  0  0  0  0  0  0  0  0
   -5.9249    6.9903    1.5970 C   0  0  0  0  0  0  0  0  0  0  0  0
   -7.0803   -1.2985    4.1100 C   0  0  0  0  0  0  0  0  0  0  0  0
   -5.9427    0.0847    7.4300 C   0  0  0  0  0  0  0  0  0  0  0  0
  1 14  1  0  0  0  0
  1  2  2  0  0  0  0
  3  2  1  0  0  0  0
  3  8  2  0  0  0  0
  4  3  1  0  0  0  0
  5  7  2  0  0  0  0
  5  4  1  0  0  0  0
  6  5  1  0  0  0  0
  7  1  1  0  0  0  0
  9 10  1  0  0  0  0
  9  8  1  0  0  0  0
 11  9  2  0  0  0  0
 12 11  1  0  0  0  0
 13  4  2  0  0  0  0
 13 11  1  0  0  0  0
 14 15  1  0  0  0  0
 16 15  1  0  0  0  0
 17 16  1  0  0  0  0
 18 17  1  0  0  0  0
 18 19  1  0  0  0  0
 19 14  1  0  0  0  0
 20 10  1  0  0  0  0
 21 12  1  0  0  0  0
M  END
>  <CHROM.1>
-108.75328158,-110.08204052,105.34779923,-5.61117178,3.76759522,3.96133443
0.34639352,-1.32582521,-1.63681197

>  <Name>
lig.pdb

>  <RI>
2.20372e+07

>  <Rbt.Current_Directory>
/home/itssahil/PROJECTS/Mol_Feturizer/New_Systems/rnas/2lwk

>  <Rbt.Executable>
rbdock ($Id: //depot/dev/client3/rdock/2013.1/src/exe/rbdock.cxx#4 $)

>  <Rbt.Library>
libRbt.so (2013.1, Build901 2013/11/27)

>  <Rbt.Parameter_File>
/export/apps/rDock/src/rDock_2013.1_src/data/scripts/dock_solv.prm

>  <Rbt.Receptor>
prm/pocket_docking_7.prm

>  <SCORE>
-25.0924

>  <SCORE.INTER>
-19.6747

>  <SCORE.INTER.CONST>
1

>  <SCORE.INTER.POLAR>
-3.42597

>  <SCORE.INTER.ROT>
3

>  <SCORE.INTER.SOLV>
7.01621

>  <SCORE.INTER.VDW>
-9.63533

>  <SCORE.INTER.norm>
-0.936892

>  <SCORE.INTRA>
-5.41763

>  <SCORE.INTRA.DIHEDRAL>
0.680439

>  <SCORE.INTRA.DIHEDRAL.0>
8.84257

>  <SCORE.INTRA.POLAR>
0

>  <SCORE.INTRA.POLAR.0>
0

>  <SCORE.INTRA.REPUL>
0

>  <SCORE.INTRA.REPUL.0>
0

>  <SCORE.INTRA.SOLV>
0.137537

>  <SCORE.INTRA.SOLV.lig_0>
-17.1313

>  <SCORE.INTRA.VDW>
-5.82662

>  <SCORE.INTRA.VDW.0>
6.34071

>  <SCORE.INTRA.norm>
-0.257982

>  <SCORE.RESTR>
0

>  <SCORE.RESTR.CAVITY>
0

>  <SCORE.RESTR.norm>
0

>  <SCORE.SYSTEM>
0

>  <SCORE.SYSTEM.CONST>
0

>  <SCORE.SYSTEM.DIHEDRAL>
0

>  <SCORE.SYSTEM.SOLV>
0

>  <SCORE.SYSTEM.norm>
0

>  <SCORE.heavy>
21

>  <SCORE.norm>
-1.19487

>  <RMSD>
5.917

$$$$
lig.pdb
 OpenBabel11021811453D
libRbt.so/2013.1/901 2013/11/27
 21 23  0  0  0  0  0  0  0  0999 V2000
   -8.1902   -2.3901    3.6514 C   0  0  0  0  0  0  0  0  0  0  0  0
   -8.1189   -1.4000    4.5341 N   0  0  0  0  0  0  0  0  0  0  0  0
   -7.2107   -0.4517    4.3904 C   0  0  0  0  0  0  0  0  0  0  0  0
   -6.3129   -0.5275    3.3872 C   0  0  0  0  0  0  0  0  0  0  0  0
   -6.3904   -1.5255    2.4968 C   0  0  0  0  0  0  0  0  0  0  0  0
   -5.5043   -1.6112    1.5053 N   0  0  0  0  0  0  0  0  0  0  0  0
   -7.3292   -2.4559    2.6350 N   0  0  0  0  0  0  0  0  0  0  0  0
   -7.1601    0.5588    5.2743 C   0  0  0  0  0  0  0  0  0  0  0  0
   -6.1106    1.4353    5.2242 C   0  0  0  0  0  0  0  0  0  0  0  0
   -5.5601    1.8736    6.4522 O   0  0  0  0  0  0  0  0  0  0  0  0
   -5.3496    1.4579    4.1176 C   0  0  0  0  0  0  0  0  0  0  0  0
   -4.5784    2.6126    3.8170 O   0  0  0  0  0  0  0  0  0  0  0  0
   -5.3776    0.4235    3.2546 C   0  0  0  0  0  0  0  0  0  0  0  0
   -9.1136   -3.3248    3.7958 N   0  0  0  0  0  0  0  0  0  0  0  0
  -10.3317   -3.0353    3.3282 C   0  0  0  0  0  0  0  0  0  0  0  0
  -11.0712   -2.1448    4.3152 C   0  0  0  0  0  0  0  0  0  0  0  0
  -11.2116   -2.8041    5.5188 N   0  0  0  0  0  0  0  0  0  0  0  0
   -9.9435   -3.0531    5.9967 C   0  0  0  0  0  0  0  0  0  0  0  0
   -9.2037   -3.9465    5.0149 C   0  0  0  0  0  0  0  0  0  0  0  0
   -5.8642    3.2365    6.6046 C   0  0  0  0  0  0  0  0  0  0  0  0
   -5.3961    3.5402    3.1528 C   0  0  0  0  0  0  0  0  0  0  0  0
  1 14  1  0  0  0  0
  1  2  2  0  0  0  0
  3  2  1  0  0  0  0
  3  8  2  0  0  0  0
  4  3  1  0  0  0  0
  5  7  2  0  0  0  0
  5  4  1  0  0  0  0
  6  5  1  0  0  0  0
  7  1  1  0  0  0  0
  9 10  1  0  0  0  0
  9  8  1  0  0  0  0
 11  9  2  0  0  0  0
 12 11  1  0  0  0  0
 13  4  2  0  0  0  0
 13 11  1  0  0  0  0
 14 15  1  0  0  0  0
 16 15  1  0  0  0  0
 17 16  1  0  0  0  0
 18 17  1  0  0  0  0
 18 19  1  0  0  0  0
 19 14  1  0  0  0  0
 20 10  1  0  0  0  0
 21 12  1  0  0  0  0
M  END
>  <CHROM.1>
82.69381298,-111.40339237,-83.84710885,-7.39388738,-0.61427756,4.22705571
-2.57667072,0.68979287,0.80338574

>  <Name>
lig.pdb

>  <RI>
2.6678e+07

>  <Rbt.Current_Directory>
/home/itssahil/PROJECTS/Mol_Feturizer/New_Systems/rnas/2lwk

>  <Rbt.Executable>
rbdock ($Id: //depot/dev/client3/rdock/2013.1/src/exe/rbdock.cxx#4 $)

>  <Rbt.Library>
libRbt.so (2013.1, Build901 2013/11/27)

>  <Rbt.Parameter_File>
/export/apps/rDock/src/rDock_2013.1_src/data/scripts/dock_solv.prm

>  <Rbt.Receptor>
prm/pocket_docking_2.prm

>  <SCORE>
-4.82699

>  <SCORE.INTER>
0.100821

>  <SCORE.INTER.CONST>
1

>  <SCORE.INTER.POLAR>
0

>  <SCORE.INTER.ROT>
3

>  <SCORE.INTER.SOLV>
3.55644

>  <SCORE.INTER.VDW>
-6.71827

>  <SCORE.INTER.norm>
0.00480099

>  <SCORE.INTRA>
-5.14896

>  <SCORE.INTRA.DIHEDRAL>
0.872855

>  <SCORE.INTRA.DIHEDRAL.0>
8.84257

>  <SCORE.INTRA.POLAR>
0

>  <SCORE.INTRA.POLAR.0>
0

>  <SCORE.INTRA.REPUL>
0

>  <SCORE.INTRA.REPUL.0>
0

>  <SCORE.INTRA.SOLV>
0.10323

>  <SCORE.INTRA.SOLV.lig_0>
-17.1313

>  <SCORE.INTRA.VDW>
-5.637

>  <SCORE.INTRA.VDW.0>
6.34071

>  <SCORE.INTRA.norm>
-0.245189

>  <SCORE.RESTR>
0.221151

>  <SCORE.RESTR.CAVITY>
0.221151

>  <SCORE.RESTR.norm>
0.010531

>  <SCORE.SYSTEM>
0

>  <SCORE.SYSTEM.CONST>
0

>  <SCORE.SYSTEM.DIHEDRAL>
0

>  <SCORE.SYSTEM.SOLV>
0

>  <SCORE.SYSTEM.norm>
0

>  <SCORE.heavy>
21

>  <SCORE.norm>
-0.229857

>  <RMSD>
5.940

$$$$
lig.pdb
 OpenBabel11021811453D
libRbt.so/2013.1/901 2013/11/27
 21 23  0  0  0  0  0  0  0  0999 V2000
  -10.9892   -2.1673    6.0378 C   0  0  0  0  0  0  0  0  0  0  0  0
  -10.3101   -1.6815    5.0048 N   0  0  0  0  0  0  0  0  0  0  0  0
   -9.4382   -2.4443    4.3702 C   0  0  0  0  0  0  0  0  0  0  0  0
   -9.1886   -3.6925    4.8152 C   0  0  0  0  0  0  0  0  0  0  0  0
   -9.8781   -4.1803    5.8551 C   0  0  0  0  0  0  0  0  0  0  0  0
   -9.6343   -5.4108    6.3047 N   0  0  0  0  0  0  0  0  0  0  0  0
  -10.7755   -3.4126    6.4647 N   0  0  0  0  0  0  0  0  0  0  0  0
   -8.7725   -1.9530    3.3119 C   0  0  0  0  0  0  0  0  0  0  0  0
   -7.7473   -2.6818    2.7733 C   0  0  0  0  0  0  0  0  0  0  0  0
   -6.5904   -1.9815    2.3559 O   0  0  0  0  0  0  0  0  0  0  0  0
   -7.6471   -3.9810    3.0994 C   0  0  0  0  0  0  0  0  0  0  0  0
   -6.9319   -4.8670    2.2497 O   0  0  0  0  0  0  0  0  0  0  0  0
   -8.2877   -4.4587    4.1842 C   0  0  0  0  0  0  0  0  0  0  0  0
  -11.8711   -1.4003    6.6552 N   0  0  0  0  0  0  0  0  0  0  0  0
  -11.3775   -0.4009    7.3926 C   0  0  0  0  0  0  0  0  0  0  0  0
  -10.8929   -0.9320    8.7332 C   0  0  0  0  0  0  0  0  0  0  0  0
  -11.9493   -1.4976    9.4167 N   0  0  0  0  0  0  0  0  0  0  0  0
  -12.4112   -2.5483    8.6544 C   0  0  0  0  0  0  0  0  0  0  0  0
  -12.9005   -2.0203    7.3161 C   0  0  0  0  0  0  0  0  0  0  0  0
   -6.4459   -2.1644    0.9707 C   0  0  0  0  0  0  0  0  0  0  0  0
   -5.6455   -5.0578    2.7780 C   0  0  0  0  0  0  0  0  0  0  0  0
  1 14  1  0  0  0  0
  1  2  2  0  0  0  0
  3  2  1  0  0  0  0
  3  8  2  0  0  0  0
  4  3  1  0  0  0  0
  5  7  2  0  0  0  0
  5  4  1  0  0  0  0
  6  5  1  0  0  0  0
  7  1  1  0  0  0  0
  9 10  1  0  0  0  0
  9  8  1  0  0  0  0
 11  9  2  0  0  0  0
 12 11  1  0  0  0  0
 13  4  2  0  0  0  0
 13 11  1  0  0  0  0
 14 15  1  0  0  0  0
 16 15  1  0  0  0  0
 17 16  1  0  0  0  0
 18 17  1  0  0  0  0
 18 19  1  0  0  0  0
 19 14  1  0  0  0  0
 20 10  1  0  0  0  0
 21 12  1  0  0  0  0
M  END
>  <CHROM.1>
-71.11530498,-117.62073868,99.24215410,-9.47974983,-2.81627868,5.17946461
3.12509356,-0.86832548,2.80566680

>  <Name>
lig.pdb

>  <RI>
2.59814e+07

>  <Rbt.Current_Directory>
/home/itssahil/PROJECTS/Mol_Feturizer/New_Systems/rnas/2lwk

>  <Rbt.Executable>
rbdock ($Id: //depot/dev/client3/rdock/2013.1/src/exe/rbdock.cxx#4 $)

>  <Rbt.Library>
libRbt.so (2013.1, Build901 2013/11/27)

>  <Rbt.Parameter_File>
/export/apps/rDock/src/rDock_2013.1_src/data/scripts/dock_solv.prm

>  <Rbt.Receptor>
prm/pocket_docking_6.prm

>  <SCORE>
-15.6823

>  <SCORE.INTER>
-11.3855

>  <SCORE.INTER.CONST>
1

>  <SCORE.INTER.POLAR>
-1.56272

>  <SCORE.INTER.ROT>
3

>  <SCORE.INTER.SOLV>
4.74876

>  <SCORE.INTER.VDW>
-9.56417

>  <SCORE.INTER.norm>
-0.542166

>  <SCORE.INTRA>
-4.29684

>  <SCORE.INTRA.DIHEDRAL>
0.640028

>  <SCORE.INTRA.DIHEDRAL.0>
8.84257

>  <SCORE.INTRA.POLAR>
0

>  <SCORE.INTRA.POLAR.0>
0

>  <SCORE.INTRA.REPUL>
0

>  <SCORE.INTRA.REPUL.0>
0

>  <SCORE.INTRA.SOLV>
0.116144

>  <SCORE.INTRA.SOLV.lig_0>
-17.1313

>  <SCORE.INTRA.VDW>
-4.67493

>  <SCORE.INTRA.VDW.0>
6.34071

>  <SCORE.INTRA.norm>
-0.204612

>  <SCORE.RESTR>
0

>  <SCORE.RESTR.CAVITY>
0

>  <SCORE.RESTR.norm>
0

>  <SCORE.SYSTEM>
0

>  <SCORE.SYSTEM.CONST>
0

>  <SCORE.SYSTEM.DIHEDRAL>
0

>  <SCORE.SYSTEM.SOLV>
0

>  <SCORE.SYSTEM.norm>
0

>  <SCORE.heavy>
21

>  <SCORE.norm>
-0.746778

>  <RMSD>
5.940

$$$$
lig.pdb
 OpenBabel11021811453D
libRbt.so/2013.1/901 2013/11/27
 21 23  0  0  0  0  0  0  0  0999 V2000
   -6.2604    5.2716    2.7872 C   0  0  0  0  0  0  0  0  0  0  0  0
   -6.3455    3.9875    2.4582 N   0  0  0  0  0  0  0  0  0  0  0  0
   -6.1148    3.0566    3.3664 C   0  0  0  0  0  0  0  0  0  0  0  0
   -5.7256    3.4108    4.6078 C   0  0  0  0  0  0  0  0  0  0  0  0
   -5.6444    4.7069    4.9370 C   0  0  0  0  0  0  0  0  0  0  0  0
   -5.2556    5.0662    6.1598 N   0  0  0  0  0  0  0  0  0  0  0  0
   -5.9102    5.6336    4.0221 N   0  0  0  0  0  0  0  0  0  0  0  0
   -6.2259    1.7603    3.0317 C   0  0  0  0  0  0  0  0  0  0  0  0
   -5.8136    0.8054    3.9209 C   0  0  0  0  0  0  0  0  0  0  0  0
   -5.1281   -0.3208    3.4063 O   0  0  0  0  0  0  0  0  0  0  0  0
   -5.6183    1.1656    5.2001 C   0  0  0  0  0  0  0  0  0  0  0  0
   -5.6521    0.1795    6.2222 O   0  0  0  0  0  0  0  0  0  0  0  0
   -5.4703    2.4654    5.5230 C   0  0  0  0  0  0  0  0  0  0  0  0
   -6.5094    6.1948    1.8745 N   0  0  0  0  0  0  0  0  0  0  0  0
   -6.7096    5.7594    0.6269 C   0  0  0  0  0  0  0  0  0  0  0  0
   -5.3767    5.4529   -0.0389 C   0  0  0  0  0  0  0  0  0  0  0  0
   -4.6123    6.6000   -0.0949 N   0  0  0  0  0  0  0  0  0  0  0  0
   -4.3873    7.0027    1.2034 C   0  0  0  0  0  0  0  0  0  0  0  0
   -5.7170    7.3141    1.8698 C   0  0  0  0  0  0  0  0  0  0  0  0
   -6.0379   -1.3885    3.3319 C   0  0  0  0  0  0  0  0  0  0  0  0
   -6.9716    0.0549    6.6846 C   0  0  0  0  0  0  0  0  0  0  0  0
  1 14  1  0  0  0  0
  1  2  2  0  0  0  0
  3  2  1  0  0  0  0
  3  8  2  0  0  0  0
  4  3  1  0  0  0  0
  5  7  2  0  0  0  0
  5  4  1  0  0  0  0
  6  5  1  0  0  0  0
  7  1  1  0  0  0  0
  9 10  1  0  0  0  0
  9  8  1  0  0  0  0
 11  9  2  0  0  0  0
 12 11  1  0  0  0  0
 13  4  2  0  0  0  0
 13 11  1  0  0  0  0
 14 15  1  0  0  0  0
 16 15  1  0  0  0  0
 17 16  1  0  0  0  0
 18 17  1  0  0  0  0
 18 19  1  0  0  0  0
 19 14  1  0  0  0  0
 20 10  1  0  0  0  0
 21 12  1  0  0  0  0
M  END
>  <CHROM.1>
-6.26463186,-100.71603621,-89.59364164,-5.77308905,3.50727547,3.38709750
0.04494214,1.51606229,0.96744855

>  <Name>
lig.pdb

>  <RI>
2.98315e+07

>  <Rbt.Current_Directory>
/home/itssahil/PROJECTS/Mol_Feturizer/New_Systems/rnas/2lwk

>  <Rbt.Executable>
rbdock ($Id: //depot/dev/client3/rdock/2013.1/src/exe/rbdock.cxx#4 $)

>  <Rbt.Library>
libRbt.so (2013.1, Build901 2013/11/27)

>  <Rbt.Parameter_File>
/export/apps/rDock/src/rDock_2013.1_src/data/scripts/dock_solv.prm

>  <Rbt.Receptor>
prm/pocket_docking_5.prm

>  <SCORE>
-19.4113

>  <SCORE.INTER>
-16.0975

>  <SCORE.INTER.CONST>
1

>  <SCORE.INTER.POLAR>
-2.91796

>  <SCORE.INTER.ROT>
3

>  <SCORE.INTER.SOLV>
6.07904

>  <SCORE.INTER.VDW>
-8.63151

>  <SCORE.INTER.norm>
-0.76655

>  <SCORE.INTRA>
-3.32647

>  <SCORE.INTRA.DIHEDRAL>
1.00369

>  <SCORE.INTRA.DIHEDRAL.0>
8.84257

>  <SCORE.INTRA.POLAR>
0

>  <SCORE.INTRA.POLAR.0>
0

>  <SCORE.INTRA.REPUL>
0

>  <SCORE.INTRA.REPUL.0>
0

>  <SCORE.INTRA.SOLV>
-0.0219075

>  <SCORE.INTRA.SOLV.lig_0>
-17.1313

>  <SCORE.INTRA.VDW>
-3.81736

>  <SCORE.INTRA.VDW.0>
6.34071

>  <SCORE.INTRA.norm>
-0.158403

>  <SCORE.RESTR>
0.0127392

>  <SCORE.RESTR.CAVITY>
0.0127392

>  <SCORE.RESTR.norm>
0.000606627

>  <SCORE.SYSTEM>
0

>  <SCORE.SYSTEM.CONST>
0

>  <SCORE.SYSTEM.DIHEDRAL>
0

>  <SCORE.SYSTEM.SOLV>
0

>  <SCORE.SYSTEM.norm>
0

>  <SCORE.heavy>
21

>  <SCORE.norm>
-0.924346

>  <RMSD>
5.942

$$$$
lig.pdb
 OpenBabel11021811453D
libRbt.so/2013.1/901 2013/11/27
 21 23  0  0  0  0  0  0  0  0999 V2000
  -11.0259   -3.0278    4.4635 C   0  0  0  0  0  0  0  0  0  0  0  0
  -10.1395   -4.0112    4.5718 N   0  0  0  0  0  0  0  0  0  0  0  0
  -10.4990   -5.2556    4.3129 C   0  0  0  0  0  0  0  0  0  0  0  0
  -11.7822   -5.5343    4.0065 C   0  0  0  0  0  0  0  0  0  0  0  0
  -12.6725   -4.5395    3.8946 C   0  0  0  0  0  0  0  0  0  0  0  0
  -13.9437   -4.8062    3.5973 N   0  0  0  0  0  0  0  0  0  0  0  0
  -12.2899   -3.2881    4.1268 N   0  0  0  0  0  0  0  0  0  0  0  0
   -9.5908   -6.2415    4.4021 C   0  0  0  0  0  0  0  0  0  0  0  0
  -10.0079   -7.5413    4.3090 C   0  0  0  0  0  0  0  0  0  0  0  0
   -9.4075   -8.4885    5.1724 O   0  0  0  0  0  0  0  0  0  0  0  0
  -11.2337   -7.7852    3.8167 C   0  0  0  0  0  0  0  0  0  0  0  0
  -11.5325   -9.0631    3.2729 O   0  0  0  0  0  0  0  0  0  0  0  0
  -12.1515   -6.8001    3.7653 C   0  0  0  0  0  0  0  0  0  0  0  0
  -10.6510   -1.7843    4.7090 N   0  0  0  0  0  0  0  0  0  0  0  0
   -9.8335   -1.2215    3.8140 C   0  0  0  0  0  0  0  0  0  0  0  0
   -8.4071   -1.7011    4.0363 C   0  0  0  0  0  0  0  0  0  0  0  0
   -7.9877   -1.3373    5.2991 N   0  0  0  0  0  0  0  0  0  0  0  0
   -8.8208   -1.9631    6.2006 C   0  0  0  0  0  0  0  0  0  0  0  0
  -10.2460   -1.4824    5.9841 C   0  0  0  0  0  0  0  0  0  0  0  0
   -8.3314   -9.0798    4.4902 C   0  0  0  0  0  0  0  0  0  0  0  0
  -12.2154   -9.8162    4.2409 C   0  0  0  0  0  0  0  0  0  0  0  0
  1 14  1  0  0  0  0
  1  2  2  0  0  0  0
  3  2  1  0  0  0  0
  3  8  2  0  0  0  0
  4  3  1  0  0  0  0
  5  7  2  0  0  0  0
  5  4  1  0  0  0  0
  6  5  1  0  0  0  0
  7  1  1  0  0  0  0
  9 10  1  0  0  0  0
  9  8  1  0  0  0  0
 11  9  2  0  0  0  0
 12 11  1  0  0  0  0
 13  4  2  0  0  0  0
 13 11  1  0  0  0  0
 14 15  1  0  0  0  0
 16 15  1  0  0  0  0
 17 16  1  0  0  0  0
 18 17  1  0  0  0  0
 18 19  1  0  0  0  0
 19 14  1  0  0  0  0
 20 10  1  0  0  0  0
 21 12  1  0  0  0  0
M  END
>  <CHROM.1>
70.44661052,-93.75177549,99.05858402,-10.59358790,-5.01885553,4.41211590
1.37491419,-0.26487111,0.06656328

>  <Name>
lig.pdb

>  <RI>
2.59814e+07

>  <Rbt.Current_Directory>
/home/itssahil/PROJECTS/Mol_Feturizer/New_Systems/rnas/2lwk

>  <Rbt.Executable>
rbdock ($Id: //depot/dev/client3/rdock/2013.1/src/exe/rbdock.cxx#4 $)

>  <Rbt.Library>
libRbt.so (2013.1, Build901 2013/11/27)

>  <Rbt.Parameter_File>
/export/apps/rDock/src/rDock_2013.1_src/data/scripts/dock_solv.prm

>  <Rbt.Receptor>
prm/pocket_docking_6.prm

>  <SCORE>
-22.3595

>  <SCORE.INTER>
-17.0136

>  <SCORE.INTER.CONST>
1

>  <SCORE.INTER.POLAR>
-2.21183

>  <SCORE.INTER.ROT>
3

>  <SCORE.INTER.SOLV>
7.10048

>  <SCORE.INTER.VDW>
-11.9365

>  <SCORE.INTER.norm>
-0.810172

>  <SCORE.INTRA>
-5.40322

>  <SCORE.INTRA.DIHEDRAL>
0.847814

>  <SCORE.INTRA.DIHEDRAL.0>
8.84257

>  <SCORE.INTRA.POLAR>
0

>  <SCORE.INTRA.POLAR.0>
0

>  <SCORE.INTRA.REPUL>
0

>  <SCORE.INTRA.REPUL.0>
0

>  <SCORE.INTRA.SOLV>
0.136947

>  <SCORE.INTRA.SOLV.lig_0>
-17.1313

>  <SCORE.INTRA.VDW>
-5.8956

>  <SCORE.INTRA.VDW.0>
6.34071

>  <SCORE.INTRA.norm>
-0.257296

>  <SCORE.RESTR>
0.0573055

>  <SCORE.RESTR.CAVITY>
0.0573055

>  <SCORE.RESTR.norm>
0.00272883

>  <SCORE.SYSTEM>
0

>  <SCORE.SYSTEM.CONST>
0

>  <SCORE.SYSTEM.DIHEDRAL>
0

>  <SCORE.SYSTEM.SOLV>
0

>  <SCORE.SYSTEM.norm>
0

>  <SCORE.heavy>
21

>  <SCORE.norm>
-1.06474

>  <RMSD>
5.949

$$$$
lig.pdb
 OpenBabel11021811453D
libRbt.so/2013.1/901 2013/11/27
 21 23  0  0  0  0  0  0  0  0999 V2000
   -8.1585   -2.6415    3.2294 C   0  0  0  0  0  0  0  0  0  0  0  0
   -8.1799   -1.7169    4.1827 N   0  0  0  0  0  0  0  0  0  0  0  0
   -7.3186   -0.7159    4.1511 C   0  0  0  0  0  0  0  0  0  0  0  0
   -6.3743   -0.6721    3.1895 C   0  0  0  0  0  0  0  0  0  0  0  0
   -6.3582   -1.6045    2.2276 C   0  0  0  0  0  0  0  0  0  0  0  0
   -5.4256   -1.5719    1.2764 N   0  0  0  0  0  0  0  0  0  0  0  0
   -7.2508   -2.5888    2.2536 N   0  0  0  0  0  0  0  0  0  0  0  0
   -7.3619    0.2279    5.1061 C   0  0  0  0  0  0  0  0  0  0  0  0
   -6.3599    1.1576    5.1693 C   0  0  0  0  0  0  0  0  0  0  0  0
   -5.8890    1.5314    6.4506 O   0  0  0  0  0  0  0  0  0  0  0  0
   -5.5527    1.3001    4.1052 C   0  0  0  0  0  0  0  0  0  0  0  0
   -4.8323    2.5112    3.9252 O   0  0  0  0  0  0  0  0  0  0  0  0
   -5.4866    0.3320    3.1703 C   0  0  0  0  0  0  0  0  0  0  0  0
   -9.0356   -3.6298    3.2620 N   0  0  0  0  0  0  0  0  0  0  0  0
  -10.3183   -3.2928    3.0964 C   0  0  0  0  0  0  0  0  0  0  0  0
  -10.8844   -2.7403    4.3957 C   0  0  0  0  0  0  0  0  0  0  0  0
  -10.8105   -3.7040    5.3800 N   0  0  0  0  0  0  0  0  0  0  0  0
   -9.4772   -4.0020    5.5583 C   0  0  0  0  0  0  0  0  0  0  0  0
   -8.9099   -4.5587    4.2631 C   0  0  0  0  0  0  0  0  0  0  0  0
   -6.0935    2.9126    6.6045 C   0  0  0  0  0  0  0  0  0  0  0  0
   -5.6398    3.4149    3.2170 C   0  0  0  0  0  0  0  0  0  0  0  0
  1 14  1  0  0  0  0
  1  2  2  0  0  0  0
  3  2  1  0  0  0  0
  3  8  2  0  0  0  0
  4  3  1  0  0  0  0
  5  7  2  0  0  0  0
  5  4  1  0  0  0  0
  6  5  1  0  0  0  0
  7  1  1  0  0  0  0
  9 10  1  0  0  0  0
  9  8  1  0  0  0  0
 11  9  2  0  0  0  0
 12 11  1  0  0  0  0
 13  4  2  0  0  0  0
 13 11  1  0  0  0  0
 14 15  1  0  0  0  0
 16 15  1  0  0  0  0
 17 16  1  0  0  0  0
 18 17  1  0  0  0  0
 18 19  1  0  0  0  0
 19 14  1  0  0  0  0
 20 10  1  0  0  0  0
 21 12  1  0  0  0  0
M  END
>  <CHROM.1>
65.66991067,-120.10368406,-87.44360412,-7.41126549,-0.92779556,4.02886154
-2.50958988,0.76453298,0.83038626

>  <Name>
lig.pdb

>  <RI>
2.6678e+07

>  <Rbt.Current_Directory>
/home/itssahil/PROJECTS/Mol_Feturizer/New_Systems/rnas/2lwk

>  <Rbt.Executable>
rbdock ($Id: //depot/dev/client3/rdock/2013.1/src/exe/rbdock.cxx#4 $)

>  <Rbt.Library>
libRbt.so (2013.1, Build901 2013/11/27)

>  <Rbt.Parameter_File>
/export/apps/rDock/src/rDock_2013.1_src/data/scripts/dock_solv.prm

>  <Rbt.Receptor>
prm/pocket_docking_2.prm

>  <SCORE>
-7.13779

>  <SCORE.INTER>
-2.37735

>  <SCORE.INTER.CONST>
1

>  <SCORE.INTER.POLAR>
-0.217304

>  <SCORE.INTER.ROT>
3

>  <SCORE.INTER.SOLV>
4.11865

>  <SCORE.INTER.VDW>
-7.83343

>  <SCORE.INTER.norm>
-0.113207

>  <SCORE.INTRA>
-4.98919

>  <SCORE.INTRA.DIHEDRAL>
0.605081

>  <SCORE.INTRA.DIHEDRAL.0>
8.84257

>  <SCORE.INTRA.POLAR>
0

>  <SCORE.INTRA.POLAR.0>
0

>  <SCORE.INTRA.REPUL>
0

>  <SCORE.INTRA.REPUL.0>
0

>  <SCORE.INTRA.SOLV>
0.11784

>  <SCORE.INTRA.SOLV.lig_0>
-17.1313

>  <SCORE.INTRA.VDW>
-5.35065

>  <SCORE.INTRA.VDW.0>
6.34071

>  <SCORE.INTRA.norm>
-0.23758

>  <SCORE.RESTR>
0.22875

>  <SCORE.RESTR.CAVITY>
0.22875

>  <SCORE.RESTR.norm>
0.0108928

>  <SCORE.SYSTEM>
0

>  <SCORE.SYSTEM.CONST>
0

>  <SCORE.SYSTEM.DIHEDRAL>
0

>  <SCORE.SYSTEM.SOLV>
0

>  <SCORE.SYSTEM.norm>
0

>  <SCORE.heavy>
21

>  <SCORE.norm>
-0.339895

>  <RMSD>
5.954

$$$$
lig.pdb
 OpenBabel11021811453D
libRbt.so/2013.1/901 2013/11/27
 21 23  0  0  0  0  0  0  0  0999 V2000
  -11.2078   -3.3409    4.0876 C   0  0  0  0  0  0  0  0  0  0  0  0
  -12.2086   -4.1862    3.8682 N   0  0  0  0  0  0  0  0  0  0  0  0
  -11.9628   -5.4750    3.7153 C   0  0  0  0  0  0  0  0  0  0  0  0
  -10.6902   -5.9207    3.7130 C   0  0  0  0  0  0  0  0  0  0  0  0
   -9.6837   -5.0657    3.9382 C   0  0  0  0  0  0  0  0  0  0  0  0
   -8.4227   -5.4964    3.9326 N   0  0  0  0  0  0  0  0  0  0  0  0
   -9.9476   -3.7762    4.1222 N   0  0  0  0  0  0  0  0  0  0  0  0
  -12.9827   -6.3267    3.5171 C   0  0  0  0  0  0  0  0  0  0  0  0
  -12.7104   -7.6251    3.1822 C   0  0  0  0  0  0  0  0  0  0  0  0
  -13.5334   -8.2402    2.2088 O   0  0  0  0  0  0  0  0  0  0  0  0
  -11.4637   -8.0865    3.3752 C   0  0  0  0  0  0  0  0  0  0  0  0
  -11.2409   -9.4846    3.4934 O   0  0  0  0  0  0  0  0  0  0  0  0
  -10.4398   -7.2255    3.5358 C   0  0  0  0  0  0  0  0  0  0  0  0
  -11.4669   -2.0557    4.2556 N   0  0  0  0  0  0  0  0  0  0  0  0
  -10.5978   -1.1976    3.7128 C   0  0  0  0  0  0  0  0  0  0  0  0
   -9.3676   -1.0709    4.5985 C   0  0  0  0  0  0  0  0  0  0  0  0
   -9.7368   -0.5917    5.8384 N   0  0  0  0  0  0  0  0  0  0  0  0
  -10.5986   -1.5139    6.3908 C   0  0  0  0  0  0  0  0  0  0  0  0
  -11.8310   -1.6392    5.5105 C   0  0  0  0  0  0  0  0  0  0  0  0
  -14.7430   -8.6006    2.8252 C   0  0  0  0  0  0  0  0  0  0  0  0
  -11.2154   -9.8233    4.8553 C   0  0  0  0  0  0  0  0  0  0  0  0
  1 14  1  0  0  0  0
  1  2  2  0  0  0  0
  3  2  1  0  0  0  0
  3  8  2  0  0  0  0
  4  3  1  0  0  0  0
  5  7  2  0  0  0  0
  5  4  1  0  0  0  0
  6  5  1  0  0  0  0
  7  1  1  0  0  0  0
  9 10  1  0  0  0  0
  9  8  1  0  0  0  0
 11  9  2  0  0  0  0
 12 11  1  0  0  0  0
 13  4  2  0  0  0  0
 13 11  1  0  0  0  0
 14 15  1  0  0  0  0
 16 15  1  0  0  0  0
 17 16  1  0  0  0  0
 18 17  1  0  0  0  0
 18 19  1  0  0  0  0
 19 14  1  0  0  0  0
 20 10  1  0  0  0  0
 21 12  1  0  0  0  0
M  END
>  <CHROM.1>
-141.77790361,-77.67080673,-95.59014730,-11.23598127,-5.10212943,4.03931460
1.29244100,-0.20916979,0.17268534

>  <Name>
lig.pdb

>  <RI>
2.59814e+07

>  <Rbt.Current_Directory>
/home/itssahil/PROJECTS/Mol_Feturizer/New_Systems/rnas/2lwk

>  <Rbt.Executable>
rbdock ($Id: //depot/dev/client3/rdock/2013.1/src/exe/rbdock.cxx#4 $)

>  <Rbt.Library>
libRbt.so (2013.1, Build901 2013/11/27)

>  <Rbt.Parameter_File>
/export/apps/rDock/src/rDock_2013.1_src/data/scripts/dock_solv.prm

>  <Rbt.Receptor>
prm/pocket_docking_6.prm

>  <SCORE>
-23.1782

>  <SCORE.INTER>
-18.8971

>  <SCORE.INTER.CONST>
1

>  <SCORE.INTER.POLAR>
-1.64901

>  <SCORE.INTER.ROT>
3

>  <SCORE.INTER.SOLV>
8.65015

>  <SCORE.INTER.VDW>
-15.5848

>  <SCORE.INTER.norm>
-0.899864

>  <SCORE.INTRA>
-4.28163

>  <SCORE.INTRA.DIHEDRAL>
0.169981

>  <SCORE.INTRA.DIHEDRAL.0>
8.84257

>  <SCORE.INTRA.POLAR>
0

>  <SCORE.INTRA.POLAR.0>
0

>  <SCORE.INTRA.REPUL>
0

>  <SCORE.INTRA.REPUL.0>
0

>  <SCORE.INTRA.SOLV>
0.04992

>  <SCORE.INTRA.SOLV.lig_0>
-17.1313

>  <SCORE.INTRA.VDW>
-4.39158

>  <SCORE.INTRA.VDW.0>
6.34071

>  <SCORE.INTRA.norm>
-0.203887

>  <SCORE.RESTR>
0.000564877

>  <SCORE.RESTR.CAVITY>
0.000564877

>  <SCORE.RESTR.norm>
2.68989e-05

>  <SCORE.SYSTEM>
0

>  <SCORE.SYSTEM.CONST>
0

>  <SCORE.SYSTEM.DIHEDRAL>
0

>  <SCORE.SYSTEM.SOLV>
0

>  <SCORE.SYSTEM.norm>
0

>  <SCORE.heavy>
21

>  <SCORE.norm>
-1.10372

>  <RMSD>
5.960

$$$$
lig.pdb
 OpenBabel11021811453D
libRbt.so/2013.1/901 2013/11/27
 21 23  0  0  0  0  0  0  0  0999 V2000
   -8.2833   -2.6582    4.5430 C   0  0  0  0  0  0  0  0  0  0  0  0
   -8.0033   -1.5116    5.1522 N   0  0  0  0  0  0  0  0  0  0  0  0
   -7.1941   -0.6394    4.5783 C   0  0  0  0  0  0  0  0  0  0  0  0
   -6.5992   -0.9443    3.4074 C   0  0  0  0  0  0  0  0  0  0  0  0
   -6.8868   -2.1002    2.7941 C   0  0  0  0  0  0  0  0  0  0  0  0
   -6.2997   -2.4120    1.6393 N   0  0  0  0  0  0  0  0  0  0  0  0
   -7.7275   -2.9550    3.3675 N   0  0  0  0  0  0  0  0  0  0  0  0
   -6.9344    0.5281    5.1902 C   0  0  0  0  0  0  0  0  0  0  0  0
   -5.9620    1.3448    4.6808 C   0  0  0  0  0  0  0  0  0  0  0  0
   -5.1124    2.0079    5.5982 O   0  0  0  0  0  0  0  0  0  0  0  0
   -5.5292    1.1192    3.4293 C   0  0  0  0  0  0  0  0  0  0  0  0
   -4.9000    2.1652    2.7027 O   0  0  0  0  0  0  0  0  0  0  0  0
   -5.7610   -0.0682    2.8360 C   0  0  0  0  0  0  0  0  0  0  0  0
   -9.1073   -3.5165    5.1189 N   0  0  0  0  0  0  0  0  0  0  0  0
   -9.5587   -4.5138    4.3523 C   0  0  0  0  0  0  0  0  0  0  0  0
  -10.6886   -4.0177    3.4628 C   0  0  0  0  0  0  0  0  0  0  0  0
  -11.7298   -3.5642    4.2460 N   0  0  0  0  0  0  0  0  0  0  0  0
  -11.2479   -2.5122    4.9941 C   0  0  0  0  0  0  0  0  0  0  0  0
  -10.1220   -3.0058    5.8873 C   0  0  0  0  0  0  0  0  0  0  0  0
   -5.7282    3.2148    5.9690 C   0  0  0  0  0  0  0  0  0  0  0  0
   -5.8922    2.9882    2.1472 C   0  0  0  0  0  0  0  0  0  0  0  0
  1 14  1  0  0  0  0
  1  2  2  0  0  0  0
  3  2  1  0  0  0  0
  3  8  2  0  0  0  0
  4  3  1  0  0  0  0
  5  7  2  0  0  0  0
  5  4  1  0  0  0  0
  6  5  1  0  0  0  0
  7  1  1  0  0  0  0
  9 10  1  0  0  0  0
  9  8  1  0  0  0  0
 11  9  2  0  0  0  0
 12 11  1  0  0  0  0
 13  4  2  0  0  0  0
 13 11  1  0  0  0  0
 14 15  1  0  0  0  0
 16 15  1  0  0  0  0
 17 16  1  0  0  0  0
 18 17  1  0  0  0  0
 18 19  1  0  0  0  0
 19 14  1  0  0  0  0
 20 10  1  0  0  0  0
 21 12  1  0  0  0  0
M  END
>  <CHROM.1>
166.95939926,-87.18294937,-81.84794153,-7.58617867,-0.97649914,4.09090365
2.63473614,-0.74555005,-2.34525489

>  <Name>
lig.pdb

>  <RI>
2.6678e+07

>  <Rbt.Current_Directory>
/home/itssahil/PROJECTS/Mol_Feturizer/New_Systems/rnas/2lwk

>  <Rbt.Executable>
rbdock ($Id: //depot/dev/client3/rdock/2013.1/src/exe/rbdock.cxx#4 $)

>  <Rbt.Library>
libRbt.so (2013.1, Build901 2013/11/27)

>  <Rbt.Parameter_File>
/export/apps/rDock/src/rDock_2013.1_src/data/scripts/dock_solv.prm

>  <Rbt.Receptor>
prm/pocket_docking_2.prm

>  <SCORE>
-9.04047

>  <SCORE.INTER>
-5.6463

>  <SCORE.INTER.CONST>
1

>  <SCORE.INTER.POLAR>
-0.959166

>  <SCORE.INTER.ROT>
3

>  <SCORE.INTER.SOLV>
3.78429

>  <SCORE.INTER.VDW>
-7.42841

>  <SCORE.INTER.norm>
-0.268871

>  <SCORE.INTRA>
-3.3942

>  <SCORE.INTRA.DIHEDRAL>
0.676218

>  <SCORE.INTRA.DIHEDRAL.0>
8.84257

>  <SCORE.INTRA.POLAR>
0

>  <SCORE.INTRA.POLAR.0>
0

>  <SCORE.INTRA.REPUL>
0

>  <SCORE.INTRA.REPUL.0>
0

>  <SCORE.INTRA.SOLV>
-0.0650979

>  <SCORE.INTRA.SOLV.lig_0>
-17.1313

>  <SCORE.INTRA.VDW>
-3.69976

>  <SCORE.INTRA.VDW.0>
6.34071

>  <SCORE.INTRA.norm>
-0.161628

>  <SCORE.RESTR>
2.32261e-05

>  <SCORE.RESTR.CAVITY>
2.32261e-05

>  <SCORE.RESTR.norm>
1.106e-06

>  <SCORE.SYSTEM>
0

>  <SCORE.SYSTEM.CONST>
0

>  <SCORE.SYSTEM.DIHEDRAL>
0

>  <SCORE.SYSTEM.SOLV>
0

>  <SCORE.SYSTEM.norm>
0

>  <SCORE.heavy>
21

>  <SCORE.norm>
-0.430498

>  <RMSD>
5.974

$$$$
lig.pdb
 OpenBabel11021811453D
libRbt.so/2013.1/901 2013/11/27
 21 23  0  0  0  0  0  0  0  0999 V2000
  -11.2140   -3.0003    4.5320 C   0  0  0  0  0  0  0  0  0  0  0  0
  -10.2603   -3.9214    4.6103 N   0  0  0  0  0  0  0  0  0  0  0  0
  -10.5357   -5.1825    4.3302 C   0  0  0  0  0  0  0  0  0  0  0  0
  -11.8003   -5.5440    4.0326 C   0  0  0  0  0  0  0  0  0  0  0  0
  -12.7588   -4.6115    3.9510 C   0  0  0  0  0  0  0  0  0  0  0  0
  -14.0121   -4.9603    3.6626 N   0  0  0  0  0  0  0  0  0  0  0  0
  -12.4611   -3.3413    4.2044 N   0  0  0  0  0  0  0  0  0  0  0  0
   -9.5602   -6.1043    4.3891 C   0  0  0  0  0  0  0  0  0  0  0  0
   -9.8872   -7.4280    4.2743 C   0  0  0  0  0  0  0  0  0  0  0  0
   -9.2116   -8.3477    5.1114 O   0  0  0  0  0  0  0  0  0  0  0  0
  -11.0992   -7.7470    3.7909 C   0  0  0  0  0  0  0  0  0  0  0  0
  -11.3154   -9.0318    3.2246 O   0  0  0  0  0  0  0  0  0  0  0  0
  -12.0838   -6.8274    3.7698 C   0  0  0  0  0  0  0  0  0  0  0  0
  -10.9233   -1.7387    4.7986 N   0  0  0  0  0  0  0  0  0  0  0  0
  -10.1809   -1.0949    3.8928 C   0  0  0  0  0  0  0  0  0  0  0  0
   -8.7163   -1.4723    4.0553 C   0  0  0  0  0  0  0  0  0  0  0  0
   -8.2812   -1.1094    5.3131 N   0  0  0  0  0  0  0  0  0  0  0  0
   -9.0343   -1.8173    6.2241 C   0  0  0  0  0  0  0  0  0  0  0  0
  -10.4977   -1.4388    6.0674 C   0  0  0  0  0  0  0  0  0  0  0  0
   -8.1380   -8.8904    4.3861 C   0  0  0  0  0  0  0  0  0  0  0  0
  -11.7720   -9.8969    4.2313 C   0  0  0  0  0  0  0  0  0  0  0  0
  1 14  1  0  0  0  0
  1  2  2  0  0  0  0
  3  2  1  0  0  0  0
  3  8  2  0  0  0  0
  4  3  1  0  0  0  0
  5  7  2  0  0  0  0
  5  4  1  0  0  0  0
  6  5  1  0  0  0  0
  7  1  1  0  0  0  0
  9 10  1  0  0  0  0
  9  8  1  0  0  0  0
 11  9  2  0  0  0  0
 12 11  1  0  0  0  0
 13  4  2  0  0  0  0
 13 11  1  0  0  0  0
 14 15  1  0  0  0  0
 16 15  1  0  0  0  0
 17 16  1  0  0  0  0
 18 17  1  0  0  0  0
 18 19  1  0  0  0  0
 19 14  1  0  0  0  0
 20 10  1  0  0  0  0
 21 12  1  0  0  0  0
M  END
>  <CHROM.1>
71.76313264,-96.14022107,91.57921321,-10.63722101,-4.95816612,4.42855571
1.45235230,-0.24561565,0.10036446

>  <Name>
lig.pdb

>  <RI>
2.59814e+07

>  <Rbt.Current_Directory>
/home/itssahil/PROJECTS/Mol_Feturizer/New_Systems/rnas/2lwk

>  <Rbt.Executable>
rbdock ($Id: //depot/dev/client3/rdock/2013.1/src/exe/rbdock.cxx#4 $)

>  <Rbt.Library>
libRbt.so (2013.1, Build901 2013/11/27)

>  <Rbt.Parameter_File>
/export/apps/rDock/src/rDock_2013.1_src/data/scripts/dock_solv.prm

>  <Rbt.Receptor>
prm/pocket_docking_6.prm

>  <SCORE>
-22.3219

>  <SCORE.INTER>
-16.9255

>  <SCORE.INTER.CONST>
1

>  <SCORE.INTER.POLAR>
-1.99015

>  <SCORE.INTER.ROT>
3

>  <SCORE.INTER.SOLV>
7.52738

>  <SCORE.INTER.VDW>
-12.759

>  <SCORE.INTER.norm>
-0.805978

>  <SCORE.INTRA>
-5.39631

>  <SCORE.INTRA.DIHEDRAL>
0.965614

>  <SCORE.INTRA.DIHEDRAL.0>
8.84257

>  <SCORE.INTRA.POLAR>
0

>  <SCORE.INTRA.POLAR.0>
0

>  <SCORE.INTRA.REPUL>
0

>  <SCORE.INTRA.REPUL.0>
0

>  <SCORE.INTRA.SOLV>
0.145365

>  <SCORE.INTRA.SOLV.lig_0>
-17.1313

>  <SCORE.INTRA.VDW>
-5.9518

>  <SCORE.INTRA.VDW.0>
6.34071

>  <SCORE.INTRA.norm>
-0.256967

>  <SCORE.RESTR>
0

>  <SCORE.RESTR.CAVITY>
0

>  <SCORE.RESTR.norm>
0

>  <SCORE.SYSTEM>
0

>  <SCORE.SYSTEM.CONST>
0

>  <SCORE.SYSTEM.DIHEDRAL>
0

>  <SCORE.SYSTEM.SOLV>
0

>  <SCORE.SYSTEM.norm>
0

>  <SCORE.heavy>
21

>  <SCORE.norm>
-1.06295

>  <RMSD>
5.976

$$$$
lig.pdb
 OpenBabel11021811453D
libRbt.so/2013.1/901 2013/11/27
 21 23  0  0  0  0  0  0  0  0999 V2000
   -5.7655    6.1377    3.0549 C   0  0  0  0  0  0  0  0  0  0  0  0
   -5.5256    5.3844    4.1223 N   0  0  0  0  0  0  0  0  0  0  0  0
   -6.0257    4.1640    4.1949 C   0  0  0  0  0  0  0  0  0  0  0  0
   -6.8360    3.7106    3.2171 C   0  0  0  0  0  0  0  0  0  0  0  0
   -7.0727    4.4719    2.1405 C   0  0  0  0  0  0  0  0  0  0  0  0
   -7.8762    4.0340    1.1719 N   0  0  0  0  0  0  0  0  0  0  0  0
   -6.5372    5.6860    2.0655 N   0  0  0  0  0  0  0  0  0  0  0  0
   -5.7592    3.3997    5.2671 C   0  0  0  0  0  0  0  0  0  0  0  0
   -6.4219    2.2124    5.4197 C   0  0  0  0  0  0  0  0  0  0  0  0
   -6.8444    1.8574    6.7230 O   0  0  0  0  0  0  0  0  0  0  0  0
   -7.0639    1.6981    4.3579 C   0  0  0  0  0  0  0  0  0  0  0  0
   -7.3541    0.3081    4.3160 O   0  0  0  0  0  0  0  0  0  0  0  0
   -7.3611    2.4802    3.3017 C   0  0  0  0  0  0  0  0  0  0  0  0
   -5.2464    7.3514    2.9854 N   0  0  0  0  0  0  0  0  0  0  0  0
   -6.0263    8.3031    2.4638 C   0  0  0  0  0  0  0  0  0  0  0  0
   -6.0208    8.2080    0.9456 C   0  0  0  0  0  0  0  0  0  0  0  0
   -4.7369    8.3897    0.4747 N   0  0  0  0  0  0  0  0  0  0  0  0
   -3.9653    7.3733    0.9942 C   0  0  0  0  0  0  0  0  0  0  0  0
   -3.9650    7.4685    2.5108 C   0  0  0  0  0  0  0  0  0  0  0  0
   -5.8231    1.1013    7.3218 C   0  0  0  0  0  0  0  0  0  0  0  0
   -8.7000    0.1180    4.6664 C   0  0  0  0  0  0  0  0  0  0  0  0
  1 14  1  0  0  0  0
  1  2  2  0  0  0  0
  3  2  1  0  0  0  0
  3  8  2  0  0  0  0
  4  3  1  0  0  0  0
  5  7  2  0  0  0  0
  5  4  1  0  0  0  0
  6  5  1  0  0  0  0
  7  1  1  0  0  0  0
  9 10  1  0  0  0  0
  9  8  1  0  0  0  0
 11  9  2  0  0  0  0
 12 11  1  0  0  0  0
 13  4  2  0  0  0  0
 13 11  1  0  0  0  0
 14 15  1  0  0  0  0
 16 15  1  0  0  0  0
 17 16  1  0  0  0  0
 18 17  1  0  0  0  0
 18 19  1  0  0  0  0
 19 14  1  0  0  0  0
 20 10  1  0  0  0  0
 21 12  1  0  0  0  0
M  END
>  <CHROM.1>
-140.77444210,-91.23384623,100.76869335,-6.24598815,4.44995742,3.41435455
-1.17349814,0.87054685,2.30151428

>  <Name>
lig.pdb

>  <RI>
2.75338e+07

>  <Rbt.Current_Directory>
/home/itssahil/PROJECTS/Mol_Feturizer/New_Systems/rnas/2lwk

>  <Rbt.Executable>
rbdock ($Id: //depot/dev/client3/rdock/2013.1/src/exe/rbdock.cxx#4 $)

>  <Rbt.Library>
libRbt.so (2013.1, Build901 2013/11/27)

>  <Rbt.Parameter_File>
/export/apps/rDock/src/rDock_2013.1_src/data/scripts/dock_solv.prm

>  <Rbt.Receptor>
prm/pocket_docking_8.prm

>  <SCORE>
-25.2628

>  <SCORE.INTER>
-20.5969

>  <SCORE.INTER.CONST>
1

>  <SCORE.INTER.POLAR>
-2.68517

>  <SCORE.INTER.ROT>
3

>  <SCORE.INTER.SOLV>
8.0206

>  <SCORE.INTER.VDW>
-13.0542

>  <SCORE.INTER.norm>
-0.980804

>  <SCORE.INTRA>
-4.66589

>  <SCORE.INTRA.DIHEDRAL>
0.73624

>  <SCORE.INTRA.DIHEDRAL.0>
8.84257

>  <SCORE.INTRA.POLAR>
0

>  <SCORE.INTRA.POLAR.0>
0

>  <SCORE.INTRA.REPUL>
0

>  <SCORE.INTRA.REPUL.0>
0

>  <SCORE.INTRA.SOLV>
0.113265

>  <SCORE.INTRA.SOLV.lig_0>
-17.1313

>  <SCORE.INTRA.VDW>
-5.09065

>  <SCORE.INTRA.VDW.0>
6.34071

>  <SCORE.INTRA.norm>
-0.222185

>  <SCORE.RESTR>
0

>  <SCORE.RESTR.CAVITY>
0

>  <SCORE.RESTR.norm>
0

>  <SCORE.SYSTEM>
0

>  <SCORE.SYSTEM.CONST>
0

>  <SCORE.SYSTEM.DIHEDRAL>
0

>  <SCORE.SYSTEM.SOLV>
0

>  <SCORE.SYSTEM.norm>
0

>  <SCORE.heavy>
21

>  <SCORE.norm>
-1.20299

>  <RMSD>
5.978

$$$$
lig.pdb
 OpenBabel11021811453D
libRbt.so/2013.1/901 2013/11/27
 21 23  0  0  0  0  0  0  0  0999 V2000
  -10.3052   -3.0761    4.0437 C   0  0  0  0  0  0  0  0  0  0  0  0
   -9.9706   -4.2789    4.4970 N   0  0  0  0  0  0  0  0  0  0  0  0
   -8.7876   -4.7889    4.2050 C   0  0  0  0  0  0  0  0  0  0  0  0
   -7.9491   -4.1176    3.3899 C   0  0  0  0  0  0  0  0  0  0  0  0
   -8.2886   -2.9031    2.9376 C   0  0  0  0  0  0  0  0  0  0  0  0
   -7.4685   -2.2347    2.1275 N   0  0  0  0  0  0  0  0  0  0  0  0
   -9.4691   -2.3879    3.2651 N   0  0  0  0  0  0  0  0  0  0  0  0
   -8.4476   -5.9960    4.6867 C   0  0  0  0  0  0  0  0  0  0  0  0
   -7.3018   -6.5936    4.2370 C   0  0  0  0  0  0  0  0  0  0  0  0
   -7.3371   -7.9882    3.9980 O   0  0  0  0  0  0  0  0  0  0  0  0
   -6.3993   -5.8385    3.5892 C   0  0  0  0  0  0  0  0  0  0  0  0
   -5.0456   -6.2636    3.5198 O   0  0  0  0  0  0  0  0  0  0  0  0
   -6.7577   -4.6453    3.0760 C   0  0  0  0  0  0  0  0  0  0  0  0
  -11.4851   -2.5684    4.3557 N   0  0  0  0  0  0  0  0  0  0  0  0
  -11.4912   -1.3105    4.8070 C   0  0  0  0  0  0  0  0  0  0  0  0
  -11.0845   -1.2800    6.2725 C   0  0  0  0  0  0  0  0  0  0  0  0
  -11.9830   -2.0149    7.0179 N   0  0  0  0  0  0  0  0  0  0  0  0
  -11.9261   -3.3131    6.5597 C   0  0  0  0  0  0  0  0  0  0  0  0
  -12.3364   -3.3474    5.0970 C   0  0  0  0  0  0  0  0  0  0  0  0
   -7.2145   -8.6457    5.2332 C   0  0  0  0  0  0  0  0  0  0  0  0
   -4.3417   -5.7040    4.5976 C   0  0  0  0  0  0  0  0  0  0  0  0
  1 14  1  0  0  0  0
  1  2  2  0  0  0  0
  3  2  1  0  0  0  0
  3  8  2  0  0  0  0
  4  3  1  0  0  0  0
  5  7  2  0  0  0  0
  5  4  1  0  0  0  0
  6  5  1  0  0  0  0
  7  1  1  0  0  0  0
  9 10  1  0  0  0  0
  9  8  1  0  0  0  0
 11  9  2  0  0  0  0
 12 11  1  0  0  0  0
 13  4  2  0  0  0  0
 13 11  1  0  0  0  0
 14 15  1  0  0  0  0
 16 15  1  0  0  0  0
 17 16  1  0  0  0  0
 18 17  1  0  0  0  0
 18 19  1  0  0  0  0
 19 14  1  0  0  0  0
 20 10  1  0  0  0  0
 21 12  1  0  0  0  0
M  END
>  <CHROM.1>
131.76113158,-79.33148883,-92.20073232,-8.80895439,-4.26723118,4.37522838
-2.64925598,-0.53440172,2.69847920

>  <Name>
lig.pdb

>  <RI>
2.59814e+07

>  <Rbt.Current_Directory>
/home/itssahil/PROJECTS/Mol_Feturizer/New_Systems/rnas/2lwk

>  <Rbt.Executable>
rbdock ($Id: //depot/dev/client3/rdock/2013.1/src/exe/rbdock.cxx#4 $)

>  <Rbt.Library>
libRbt.so (2013.1, Build901 2013/11/27)

>  <Rbt.Parameter_File>
/export/apps/rDock/src/rDock_2013.1_src/data/scripts/dock_solv.prm

>  <Rbt.Receptor>
prm/pocket_docking_6.prm

>  <SCORE>
-18.7611

>  <SCORE.INTER>
-15.2116

>  <SCORE.INTER.CONST>
1

>  <SCORE.INTER.POLAR>
-1.85359

>  <SCORE.INTER.ROT>
3

>  <SCORE.INTER.SOLV>
6.28299

>  <SCORE.INTER.VDW>
-11.6568

>  <SCORE.INTER.norm>
-0.724362

>  <SCORE.INTRA>
-3.54949

>  <SCORE.INTRA.DIHEDRAL>
0.332937

>  <SCORE.INTRA.DIHEDRAL.0>
8.84257

>  <SCORE.INTRA.POLAR>
0

>  <SCORE.INTRA.POLAR.0>
0

>  <SCORE.INTRA.REPUL>
0

>  <SCORE.INTRA.REPUL.0>
0

>  <SCORE.INTRA.SOLV>
-0.024976

>  <SCORE.INTRA.SOLV.lig_0>
-17.1313

>  <SCORE.INTRA.VDW>
-3.70347

>  <SCORE.INTRA.VDW.0>
6.34071

>  <SCORE.INTRA.norm>
-0.169023

>  <SCORE.RESTR>
0

>  <SCORE.RESTR.CAVITY>
0

>  <SCORE.RESTR.norm>
0

>  <SCORE.SYSTEM>
0

>  <SCORE.SYSTEM.CONST>
0

>  <SCORE.SYSTEM.DIHEDRAL>
0

>  <SCORE.SYSTEM.SOLV>
0

>  <SCORE.SYSTEM.norm>
0

>  <SCORE.heavy>
21

>  <SCORE.norm>
-0.893385

>  <RMSD>
5.979

$$$$
lig.pdb
 OpenBabel11021811453D
libRbt.so/2013.1/901 2013/11/27
 21 23  0  0  0  0  0  0  0  0999 V2000
  -11.2130   -3.0126    4.5561 C   0  0  0  0  0  0  0  0  0  0  0  0
  -10.2631   -3.9375    4.6361 N   0  0  0  0  0  0  0  0  0  0  0  0
  -10.5414   -5.1964    4.3489 C   0  0  0  0  0  0  0  0  0  0  0  0
  -11.8054   -5.5519    4.0421 C   0  0  0  0  0  0  0  0  0  0  0  0
  -12.7601   -4.6157    3.9587 C   0  0  0  0  0  0  0  0  0  0  0  0
  -14.0128   -4.9586    3.6612 N   0  0  0  0  0  0  0  0  0  0  0  0
  -12.4593   -3.3477    4.2194 N   0  0  0  0  0  0  0  0  0  0  0  0
   -9.5696   -6.1220    4.4096 C   0  0  0  0  0  0  0  0  0  0  0  0
   -9.9007   -7.4440    4.2870 C   0  0  0  0  0  0  0  0  0  0  0  0
   -9.2336   -8.3698    5.1242 O   0  0  0  0  0  0  0  0  0  0  0  0
  -11.1109   -7.7564    3.7949 C   0  0  0  0  0  0  0  0  0  0  0  0
  -11.3283   -9.0380    3.2217 O   0  0  0  0  0  0  0  0  0  0  0  0
  -12.0920   -6.8332    3.7720 C   0  0  0  0  0  0  0  0  0  0  0  0
  -10.9194   -1.7532    4.8299 N   0  0  0  0  0  0  0  0  0  0  0  0
  -10.1607   -1.1113    3.9364 C   0  0  0  0  0  0  0  0  0  0  0  0
   -8.7006   -1.4970    4.1188 C   0  0  0  0  0  0  0  0  0  0  0  0
   -8.2815   -1.1394    5.3835 N   0  0  0  0  0  0  0  0  0  0  0  0
   -9.0514   -1.8455    6.2820 C   0  0  0  0  0  0  0  0  0  0  0  0
  -10.5103   -1.4587    6.1054 C   0  0  0  0  0  0  0  0  0  0  0  0
   -8.1714   -8.9300    4.3955 C   0  0  0  0  0  0  0  0  0  0  0  0
  -11.7588   -9.9152    4.2295 C   0  0  0  0  0  0  0  0  0  0  0  0
  1 14  1  0  0  0  0
  1  2  2  0  0  0  0
  3  2  1  0  0  0  0
  3  8  2  0  0  0  0
  4  3  1  0  0  0  0
  5  7  2  0  0  0  0
  5  4  1  0  0  0  0
  6  5  1  0  0  0  0
  7  1  1  0  0  0  0
  9 10  1  0  0  0  0
  9  8  1  0  0  0  0
 11  9  2  0  0  0  0
 12 11  1  0  0  0  0
 13  4  2  0  0  0  0
 13 11  1  0  0  0  0
 14 15  1  0  0  0  0
 16 15  1  0  0  0  0
 17 16  1  0  0  0  0
 18 17  1  0  0  0  0
 18 19  1  0  0  0  0
 19 14  1  0  0  0  0
 20 10  1  0  0  0  0
 21 12  1  0  0  0  0
M  END
>  <CHROM.1>
71.27007586,-97.12998747,89.96752457,-10.64209120,-4.97399316,4.45060825
1.45108011,-0.25373992,0.10533377

>  <Name>
lig.pdb

>  <RI>
2.59814e+07

>  <Rbt.Current_Directory>
/home/itssahil/PROJECTS/Mol_Feturizer/New_Systems/rnas/2lwk

>  <Rbt.Executable>
rbdock ($Id: //depot/dev/client3/rdock/2013.1/src/exe/rbdock.cxx#4 $)

>  <Rbt.Library>
libRbt.so (2013.1, Build901 2013/11/27)

>  <Rbt.Parameter_File>
/export/apps/rDock/src/rDock_2013.1_src/data/scripts/dock_solv.prm

>  <Rbt.Receptor>
prm/pocket_docking_6.prm

>  <SCORE>
-22.322

>  <SCORE.INTER>
-16.9476

>  <SCORE.INTER.CONST>
1

>  <SCORE.INTER.POLAR>
-1.99045

>  <SCORE.INTER.ROT>
3

>  <SCORE.INTER.SOLV>
7.40892

>  <SCORE.INTER.VDW>
-12.7332

>  <SCORE.INTER.norm>
-0.807028

>  <SCORE.INTRA>
-5.3744

>  <SCORE.INTRA.DIHEDRAL>
0.974867

>  <SCORE.INTRA.DIHEDRAL.0>
8.84257

>  <SCORE.INTRA.POLAR>
0

>  <SCORE.INTRA.POLAR.0>
0

>  <SCORE.INTRA.REPUL>
0

>  <SCORE.INTRA.REPUL.0>
0

>  <SCORE.INTRA.SOLV>
0.147864

>  <SCORE.INTRA.SOLV.lig_0>
-17.1313

>  <SCORE.INTRA.VDW>
-5.93576

>  <SCORE.INTRA.VDW.0>
6.34071

>  <SCORE.INTRA.norm>
-0.255924

>  <SCORE.RESTR>
0

>  <SCORE.RESTR.CAVITY>
0

>  <SCORE.RESTR.norm>
0

>  <SCORE.SYSTEM>
0

>  <SCORE.SYSTEM.CONST>
0

>  <SCORE.SYSTEM.DIHEDRAL>
0

>  <SCORE.SYSTEM.SOLV>
0

>  <SCORE.SYSTEM.norm>
0

>  <SCORE.heavy>
21

>  <SCORE.norm>
-1.06295

>  <RMSD>
5.990

$$$$
lig.pdb
 OpenBabel11021811453D
libRbt.so/2013.1/901 2013/11/27
 21 23  0  0  0  0  0  0  0  0999 V2000
   -5.7760    6.1544    3.0485 C   0  0  0  0  0  0  0  0  0  0  0  0
   -5.5332    5.4054    4.1182 N   0  0  0  0  0  0  0  0  0  0  0  0
   -6.0273    4.1827    4.1940 C   0  0  0  0  0  0  0  0  0  0  0  0
   -6.8345    3.7225    3.2168 C   0  0  0  0  0  0  0  0  0  0  0  0
   -7.0741    4.4795    2.1377 C   0  0  0  0  0  0  0  0  0  0  0  0
   -7.8746    4.0348    1.1697 N   0  0  0  0  0  0  0  0  0  0  0  0
   -6.5446    5.6960    2.0597 N   0  0  0  0  0  0  0  0  0  0  0  0
   -5.7579    3.4229    5.2686 C   0  0  0  0  0  0  0  0  0  0  0  0
   -6.4147    2.2327    5.4240 C   0  0  0  0  0  0  0  0  0  0  0  0
   -6.8365    1.8793    6.7280 O   0  0  0  0  0  0  0  0  0  0  0  0
   -7.0533    1.7121    4.3631 C   0  0  0  0  0  0  0  0  0  0  0  0
   -7.3365    0.3206    4.3250 O   0  0  0  0  0  0  0  0  0  0  0  0
   -7.3535    2.4897    3.3044 C   0  0  0  0  0  0  0  0  0  0  0  0
   -5.2629    7.3705    2.9759 N   0  0  0  0  0  0  0  0  0  0  0  0
   -6.0568    8.3224    2.4761 C   0  0  0  0  0  0  0  0  0  0  0  0
   -6.0818    8.2365    0.9576 C   0  0  0  0  0  0  0  0  0  0  0  0
   -4.8085    8.4260    0.4618 N   0  0  0  0  0  0  0  0  0  0  0  0
   -4.0227    7.4094    0.9593 C   0  0  0  0  0  0  0  0  0  0  0  0
   -3.9919    7.4954    2.4761 C   0  0  0  0  0  0  0  0  0  0  0  0
   -5.8257    1.1025    7.3179 C   0  0  0  0  0  0  0  0  0  0  0  0
   -8.6925    0.1281    4.6326 C   0  0  0  0  0  0  0  0  0  0  0  0
  1 14  1  0  0  0  0
  1  2  2  0  0  0  0
  3  2  1  0  0  0  0
  3  8  2  0  0  0  0
  4  3  1  0  0  0  0
  5  7  2  0  0  0  0
  5  4  1  0  0  0  0
  6  5  1  0  0  0  0
  7  1  1  0  0  0  0
  9 10  1  0  0  0  0
  9  8  1  0  0  0  0
 11  9  2  0  0  0  0
 12 11  1  0  0  0  0
 13  4  2  0  0  0  0
 13 11  1  0  0  0  0
 14 15  1  0  0  0  0
 16 15  1  0  0  0  0
 17 16  1  0  0  0  0
 18 17  1  0  0  0  0
 18 19  1  0  0  0  0
 19 14  1  0  0  0  0
 20 10  1  0  0  0  0
 21 12  1  0  0  0  0
M  END
>  <CHROM.1>
-139.45399186,-92.64933274,102.65229397,-6.25737485,4.46733473,3.40940250
-1.18135289,0.87805328,2.30587089

>  <Name>
lig.pdb

>  <RI>
2.20372e+07

>  <Rbt.Current_Directory>
/home/itssahil/PROJECTS/Mol_Feturizer/New_Systems/rnas/2lwk

>  <Rbt.Executable>
rbdock ($Id: //depot/dev/client3/rdock/2013.1/src/exe/rbdock.cxx#4 $)

>  <Rbt.Library>
libRbt.so (2013.1, Build901 2013/11/27)

>  <Rbt.Parameter_File>
/export/apps/rDock/src/rDock_2013.1_src/data/scripts/dock_solv.prm

>  <Rbt.Receptor>
prm/pocket_docking_7.prm

>  <SCORE>
-25.2495

>  <SCORE.INTER>
-20.5402

>  <SCORE.INTER.CONST>
1

>  <SCORE.INTER.POLAR>
-2.71283

>  <SCORE.INTER.ROT>
3

>  <SCORE.INTER.SOLV>
8.07393

>  <SCORE.INTER.VDW>
-12.942

>  <SCORE.INTER.norm>
-0.978106

>  <SCORE.INTRA>
-4.70926

>  <SCORE.INTRA.DIHEDRAL>
0.721702

>  <SCORE.INTRA.DIHEDRAL.0>
8.84257

>  <SCORE.INTRA.POLAR>
0

>  <SCORE.INTRA.POLAR.0>
0

>  <SCORE.INTRA.REPUL>
0

>  <SCORE.INTRA.REPUL.0>
0

>  <SCORE.INTRA.SOLV>
0.114794

>  <SCORE.INTRA.SOLV.lig_0>
-17.1313

>  <SCORE.INTRA.VDW>
-5.1275

>  <SCORE.INTRA.VDW.0>
6.34071

>  <SCORE.INTRA.norm>
-0.22425

>  <SCORE.RESTR>
0

>  <SCORE.RESTR.CAVITY>
0

>  <SCORE.RESTR.norm>
0

>  <SCORE.SYSTEM>
0

>  <SCORE.SYSTEM.CONST>
0

>  <SCORE.SYSTEM.DIHEDRAL>
0

>  <SCORE.SYSTEM.SOLV>
0

>  <SCORE.SYSTEM.norm>
0

>  <SCORE.heavy>
21

>  <SCORE.norm>
-1.20236

>  <RMSD>
5.992

$$$$
lig.pdb
 OpenBabel11021811453D
libRbt.so/2013.1/901 2013/11/27
 21 23  0  0  0  0  0  0  0  0999 V2000
  -11.2204   -3.3820    4.1309 C   0  0  0  0  0  0  0  0  0  0  0  0
  -12.2059   -4.2456    3.9133 N   0  0  0  0  0  0  0  0  0  0  0  0
  -11.9362   -5.5290    3.7551 C   0  0  0  0  0  0  0  0  0  0  0  0
  -10.6553   -5.9502    3.7456 C   0  0  0  0  0  0  0  0  0  0  0  0
   -9.6643   -5.0767    3.9689 C   0  0  0  0  0  0  0  0  0  0  0  0
   -8.3953   -5.4832    3.9562 N   0  0  0  0  0  0  0  0  0  0  0  0
   -9.9520   -3.7931    4.1583 N   0  0  0  0  0  0  0  0  0  0  0  0
  -12.9405   -6.3994    3.5589 C   0  0  0  0  0  0  0  0  0  0  0  0
  -12.6448   -7.6913    3.2186 C   0  0  0  0  0  0  0  0  0  0  0  0
  -13.4604   -8.3190    2.2470 O   0  0  0  0  0  0  0  0  0  0  0  0
  -11.3887   -8.1294    3.4044 C   0  0  0  0  0  0  0  0  0  0  0  0
  -11.1386   -9.5233    3.5171 O   0  0  0  0  0  0  0  0  0  0  0  0
  -10.3807   -7.2494    3.5631 C   0  0  0  0  0  0  0  0  0  0  0  0
  -11.5033   -2.1025    4.3041 N   0  0  0  0  0  0  0  0  0  0  0  0
  -10.6677   -1.2264    3.7381 C   0  0  0  0  0  0  0  0  0  0  0  0
   -9.4180   -1.0712    4.5914 C   0  0  0  0  0  0  0  0  0  0  0  0
   -9.7654   -0.5982    5.8399 N   0  0  0  0  0  0  0  0  0  0  0  0
  -10.5921   -1.5382    6.4155 C   0  0  0  0  0  0  0  0  0  0  0  0
  -11.8438   -1.6921    5.5676 C   0  0  0  0  0  0  0  0  0  0  0  0
  -14.4974   -8.9901    2.9158 C   0  0  0  0  0  0  0  0  0  0  0  0
  -11.3547   -9.9137    4.8480 C   0  0  0  0  0  0  0  0  0  0  0  0
  1 14  1  0  0  0  0
  1  2  2  0  0  0  0
  3  2  1  0  0  0  0
  3  8  2  0  0  0  0
  4  3  1  0  0  0  0
  5  7  2  0  0  0  0
  5  4  1  0  0  0  0
  6  5  1  0  0  0  0
  7  1  1  0  0  0  0
  9 10  1  0  0  0  0
  9  8  1  0  0  0  0
 11  9  2  0  0  0  0
 12 11  1  0  0  0  0
 13  4  2  0  0  0  0
 13 11  1  0  0  0  0
 14 15  1  0  0  0  0
 16 15  1  0  0  0  0
 17 16  1  0  0  0  0
 18 17  1  0  0  0  0
 18 19  1  0  0  0  0
 19 14  1  0  0  0  0
 20 10  1  0  0  0  0
 21 12  1  0  0  0  0
M  END
>  <CHROM.1>
-140.51631726,-91.96195775,-84.33925152,-11.21551956,-5.15873073,4.07147384
1.30785790,-0.18423651,0.17718592

>  <Name>
lig.pdb

>  <RI>
2.20372e+07

>  <Rbt.Current_Directory>
/home/itssahil/PROJECTS/Mol_Feturizer/New_Systems/rnas/2lwk

>  <Rbt.Executable>
rbdock ($Id: //depot/dev/client3/rdock/2013.1/src/exe/rbdock.cxx#4 $)

>  <Rbt.Library>
libRbt.so (2013.1, Build901 2013/11/27)

>  <Rbt.Parameter_File>
/export/apps/rDock/src/rDock_2013.1_src/data/scripts/dock_solv.prm

>  <Rbt.Receptor>
prm/pocket_docking_7.prm

>  <SCORE>
-23.5986

>  <SCORE.INTER>
-18.909

>  <SCORE.INTER.CONST>
1

>  <SCORE.INTER.POLAR>
-1.68482

>  <SCORE.INTER.ROT>
3

>  <SCORE.INTER.SOLV>
8.36768

>  <SCORE.INTER.VDW>
-15.3792

>  <SCORE.INTER.norm>
-0.90043

>  <SCORE.INTRA>
-4.68955

>  <SCORE.INTRA.DIHEDRAL>
0.848609

>  <SCORE.INTRA.DIHEDRAL.0>
8.84257

>  <SCORE.INTRA.POLAR>
0

>  <SCORE.INTRA.POLAR.0>
0

>  <SCORE.INTRA.REPUL>
0

>  <SCORE.INTRA.REPUL.0>
0

>  <SCORE.INTRA.SOLV>
0.0713334

>  <SCORE.INTRA.SOLV.lig_0>
-17.1313

>  <SCORE.INTRA.VDW>
-5.14952

>  <SCORE.INTRA.VDW.0>
6.34071

>  <SCORE.INTRA.norm>
-0.223312

>  <SCORE.RESTR>
0

>  <SCORE.RESTR.CAVITY>
0

>  <SCORE.RESTR.norm>
0

>  <SCORE.SYSTEM>
0

>  <SCORE.SYSTEM.CONST>
0

>  <SCORE.SYSTEM.DIHEDRAL>
0

>  <SCORE.SYSTEM.SOLV>
0

>  <SCORE.SYSTEM.norm>
0

>  <SCORE.heavy>
21

>  <SCORE.norm>
-1.12374

>  <RMSD>
6.004

$$$$
lig.pdb
 OpenBabel11021811453D
libRbt.so/2013.1/901 2013/11/27
 21 23  0  0  0  0  0  0  0  0999 V2000
   -9.0940   -5.2885    3.7643 C   0  0  0  0  0  0  0  0  0  0  0  0
   -9.1791   -4.0810    4.3110 N   0  0  0  0  0  0  0  0  0  0  0  0
  -10.3583   -3.5906    4.6483 C   0  0  0  0  0  0  0  0  0  0  0  0
  -11.4794   -4.2876    4.3737 C   0  0  0  0  0  0  0  0  0  0  0  0
  -11.3893   -5.5068    3.8256 C   0  0  0  0  0  0  0  0  0  0  0  0
  -12.4921   -6.2006    3.5460 N   0  0  0  0  0  0  0  0  0  0  0  0
  -10.1943   -6.0016    3.5202 N   0  0  0  0  0  0  0  0  0  0  0  0
  -10.4339   -2.3782    5.2221 C   0  0  0  0  0  0  0  0  0  0  0  0
  -11.6621   -1.8030    5.4036 C   0  0  0  0  0  0  0  0  0  0  0  0
  -11.7797   -0.4131    5.1635 O   0  0  0  0  0  0  0  0  0  0  0  0
  -12.7526   -2.5812    5.3066 C   0  0  0  0  0  0  0  0  0  0  0  0
  -13.9657   -2.1734    5.9232 O   0  0  0  0  0  0  0  0  0  0  0  0
  -12.6773   -3.7801    4.6962 C   0  0  0  0  0  0  0  0  0  0  0  0
   -7.9074   -5.7761    3.4457 N   0  0  0  0  0  0  0  0  0  0  0  0
   -7.3555   -6.6196    4.3233 C   0  0  0  0  0  0  0  0  0  0  0  0
   -6.7333   -5.8424    5.4735 C   0  0  0  0  0  0  0  0  0  0  0  0
   -5.7460   -5.0095    4.9892 N   0  0  0  0  0  0  0  0  0  0  0  0
   -6.3488   -4.1262    4.1204 C   0  0  0  0  0  0  0  0  0  0  0  0
   -6.9673   -4.8994    2.9677 C   0  0  0  0  0  0  0  0  0  0  0  0
  -11.3291    0.2666    6.3072 C   0  0  0  0  0  0  0  0  0  0  0  0
  -13.9078   -2.4955    7.2882 C   0  0  0  0  0  0  0  0  0  0  0  0
  1 14  1  0  0  0  0
  1  2  2  0  0  0  0
  3  2  1  0  0  0  0
  3  8  2  0  0  0  0
  4  3  1  0  0  0  0
  5  7  2  0  0  0  0
  5  4  1  0  0  0  0
  6  5  1  0  0  0  0
  7  1  1  0  0  0  0
  9 10  1  0  0  0  0
  9  8  1  0  0  0  0
 11  9  2  0  0  0  0
 12 11  1  0  0  0  0
 13  4  2  0  0  0  0
 13 11  1  0  0  0  0
 14 15  1  0  0  0  0
 16 15  1  0  0  0  0
 17 16  1  0  0  0  0
 18 17  1  0  0  0  0
 18 19  1  0  0  0  0
 19 14  1  0  0  0  0
 20 10  1  0  0  0  0
 21 12  1  0  0  0  0
M  END
>  <CHROM.1>
98.18186025,-81.74236023,-80.91993282,-10.18426748,-3.90915075,4.71812739
0.61256051,-0.02799161,-2.74688504

>  <Name>
lig.pdb

>  <RI>
2.59814e+07

>  <Rbt.Current_Directory>
/home/itssahil/PROJECTS/Mol_Feturizer/New_Systems/rnas/2lwk

>  <Rbt.Executable>
rbdock ($Id: //depot/dev/client3/rdock/2013.1/src/exe/rbdock.cxx#4 $)

>  <Rbt.Library>
libRbt.so (2013.1, Build901 2013/11/27)

>  <Rbt.Parameter_File>
/export/apps/rDock/src/rDock_2013.1_src/data/scripts/dock_solv.prm

>  <Rbt.Receptor>
prm/pocket_docking_6.prm

>  <SCORE>
-22.6007

>  <SCORE.INTER>
-17.8636

>  <SCORE.INTER.CONST>
1

>  <SCORE.INTER.POLAR>
-2.85543

>  <SCORE.INTER.ROT>
3

>  <SCORE.INTER.SOLV>
7.53053

>  <SCORE.INTER.VDW>
-10.5012

>  <SCORE.INTER.norm>
-0.850649

>  <SCORE.INTRA>
-4.73712

>  <SCORE.INTRA.DIHEDRAL>
0.398862

>  <SCORE.INTRA.DIHEDRAL.0>
8.84257

>  <SCORE.INTRA.POLAR>
0

>  <SCORE.INTRA.POLAR.0>
0

>  <SCORE.INTRA.REPUL>
0

>  <SCORE.INTRA.REPUL.0>
0

>  <SCORE.INTRA.SOLV>
0.059172

>  <SCORE.INTRA.SOLV.lig_0>
-17.1313

>  <SCORE.INTRA.VDW>
-4.96614

>  <SCORE.INTRA.VDW.0>
6.34071

>  <SCORE.INTRA.norm>
-0.225577

>  <SCORE.RESTR>
0

>  <SCORE.RESTR.CAVITY>
0

>  <SCORE.RESTR.norm>
0

>  <SCORE.SYSTEM>
0

>  <SCORE.SYSTEM.CONST>
0

>  <SCORE.SYSTEM.DIHEDRAL>
0

>  <SCORE.SYSTEM.SOLV>
0

>  <SCORE.SYSTEM.norm>
0

>  <SCORE.heavy>
21

>  <SCORE.norm>
-1.07623

>  <RMSD>
6.005

$$$$
lig.pdb
 OpenBabel11021811453D
libRbt.so/2013.1/901 2013/11/27
 21 23  0  0  0  0  0  0  0  0999 V2000
   -7.8764   -1.0733    4.4135 C   0  0  0  0  0  0  0  0  0  0  0  0
   -8.0396    0.2446    4.4391 N   0  0  0  0  0  0  0  0  0  0  0  0
   -7.0483    1.0398    4.0786 C   0  0  0  0  0  0  0  0  0  0  0  0
   -5.8504    0.5144    3.7516 C   0  0  0  0  0  0  0  0  0  0  0  0
   -5.6906   -0.8155    3.7234 C   0  0  0  0  0  0  0  0  0  0  0  0
   -4.5089   -1.3434    3.4064 N   0  0  0  0  0  0  0  0  0  0  0  0
   -6.7061   -1.6050    4.0579 N   0  0  0  0  0  0  0  0  0  0  0  0
   -7.2289    2.3710    4.0848 C   0  0  0  0  0  0  0  0  0  0  0  0
   -6.1512    3.1900    3.8850 C   0  0  0  0  0  0  0  0  0  0  0  0
   -6.0653    4.3670    4.6664 O   0  0  0  0  0  0  0  0  0  0  0  0
   -5.0289    2.6561    3.3756 C   0  0  0  0  0  0  0  0  0  0  0  0
   -4.0815    3.4938    2.7283 O   0  0  0  0  0  0  0  0  0  0  0  0
   -4.8382    1.3226    3.4069 C   0  0  0  0  0  0  0  0  0  0  0  0
   -8.8803   -1.8599    4.7607 N   0  0  0  0  0  0  0  0  0  0  0  0
   -9.7162   -2.2242    3.7836 C   0  0  0  0  0  0  0  0  0  0  0  0
  -10.6944   -1.0976    3.4869 C   0  0  0  0  0  0  0  0  0  0  0  0
  -11.4376   -0.8202    4.6155 N   0  0  0  0  0  0  0  0  0  0  0  0
  -10.5566   -0.4088    5.5918 C   0  0  0  0  0  0  0  0  0  0  0  0
   -9.5809   -1.5340    5.8937 C   0  0  0  0  0  0  0  0  0  0  0  0
   -5.4380    4.0400    5.8800 C   0  0  0  0  0  0  0  0  0  0  0  0
   -4.5953    3.8730    1.4783 C   0  0  0  0  0  0  0  0  0  0  0  0
  1 14  1  0  0  0  0
  1  2  2  0  0  0  0
  3  2  1  0  0  0  0
  3  8  2  0  0  0  0
  4  3  1  0  0  0  0
  5  7  2  0  0  0  0
  5  4  1  0  0  0  0
  6  5  1  0  0  0  0
  7  1  1  0  0  0  0
  9 10  1  0  0  0  0
  9  8  1  0  0  0  0
 11  9  2  0  0  0  0
 12 11  1  0  0  0  0
 13  4  2  0  0  0  0
 13 11  1  0  0  0  0
 14 15  1  0  0  0  0
 16 15  1  0  0  0  0
 17 16  1  0  0  0  0
 18 17  1  0  0  0  0
 18 19  1  0  0  0  0
 19 14  1  0  0  0  0
 20 10  1  0  0  0  0
 21 12  1  0  0  0  0
M  END
>  <CHROM.1>
89.16249594,86.04168526,-73.43588090,-7.14034260,0.70914065,4.07185294,-2.43693311
0.35032560,0.13738161

>  <Name>
lig.pdb

>  <RI>
3.31914e+07

>  <Rbt.Current_Directory>
/home/itssahil/PROJECTS/Mol_Feturizer/New_Systems/rnas/2lwk

>  <Rbt.Executable>
rbdock ($Id: //depot/dev/client3/rdock/2013.1/src/exe/rbdock.cxx#4 $)

>  <Rbt.Library>
libRbt.so (2013.1, Build901 2013/11/27)

>  <Rbt.Parameter_File>
/export/apps/rDock/src/rDock_2013.1_src/data/scripts/dock_solv.prm

>  <Rbt.Receptor>
prm/pocket_docking_3.prm

>  <SCORE>
-15.1918

>  <SCORE.INTER>
-11.2481

>  <SCORE.INTER.CONST>
1

>  <SCORE.INTER.POLAR>
-1.99191

>  <SCORE.INTER.ROT>
3

>  <SCORE.INTER.SOLV>
5.70881

>  <SCORE.INTER.VDW>
-8.36198

>  <SCORE.INTER.norm>
-0.535625

>  <SCORE.INTRA>
-3.94984

>  <SCORE.INTRA.DIHEDRAL>
0.613596

>  <SCORE.INTRA.DIHEDRAL.0>
8.84257

>  <SCORE.INTRA.POLAR>
0

>  <SCORE.INTRA.POLAR.0>
0

>  <SCORE.INTRA.REPUL>
0

>  <SCORE.INTRA.REPUL.0>
0

>  <SCORE.INTRA.SOLV>
0.0714926

>  <SCORE.INTRA.SOLV.lig_0>
-17.1313

>  <SCORE.INTRA.VDW>
-4.29238

>  <SCORE.INTRA.VDW.0>
6.34071

>  <SCORE.INTRA.norm>
-0.188087

>  <SCORE.RESTR>
0.00620963

>  <SCORE.RESTR.CAVITY>
0.00620963

>  <SCORE.RESTR.norm>
0.000295697

>  <SCORE.SYSTEM>
0

>  <SCORE.SYSTEM.CONST>
0

>  <SCORE.SYSTEM.DIHEDRAL>
0

>  <SCORE.SYSTEM.SOLV>
0

>  <SCORE.SYSTEM.norm>
0

>  <SCORE.heavy>
21

>  <SCORE.norm>
-0.723417

>  <RMSD>
6.006

$$$$
lig.pdb
 OpenBabel11021811453D
libRbt.so/2013.1/901 2013/11/27
 21 23  0  0  0  0  0  0  0  0999 V2000
  -11.1595   -3.1008    4.5548 C   0  0  0  0  0  0  0  0  0  0  0  0
  -10.2456   -4.0625    4.6187 N   0  0  0  0  0  0  0  0  0  0  0  0
  -10.5718   -5.3049    4.3109 C   0  0  0  0  0  0  0  0  0  0  0  0
  -11.8485   -5.6068    3.9994 C   0  0  0  0  0  0  0  0  0  0  0  0
  -12.7668   -4.6335    3.9324 C   0  0  0  0  0  0  0  0  0  0  0  0
  -14.0318   -4.9234    3.6303 N   0  0  0  0  0  0  0  0  0  0  0  0
  -12.4177   -3.3824    4.2137 N   0  0  0  0  0  0  0  0  0  0  0  0
   -9.6361   -6.2678    4.3555 C   0  0  0  0  0  0  0  0  0  0  0  0
  -10.0174   -7.5739    4.2114 C   0  0  0  0  0  0  0  0  0  0  0  0
   -9.3859   -8.5383    5.0326 O   0  0  0  0  0  0  0  0  0  0  0  0
  -11.2387   -7.8318    3.7153 C   0  0  0  0  0  0  0  0  0  0  0  0
  -11.5051   -9.0944    3.1212 O   0  0  0  0  0  0  0  0  0  0  0  0
  -12.1839   -6.8715    3.7084 C   0  0  0  0  0  0  0  0  0  0  0  0
  -10.8180   -1.8582    4.8492 N   0  0  0  0  0  0  0  0  0  0  0  0
  -10.1641   -1.1803    3.9010 C   0  0  0  0  0  0  0  0  0  0  0  0
   -8.6980   -1.5857    3.8869 C   0  0  0  0  0  0  0  0  0  0  0  0
   -8.1245   -1.2922    5.1068 N   0  0  0  0  0  0  0  0  0  0  0  0
   -8.7897   -2.0342    6.0582 C   0  0  0  0  0  0  0  0  0  0  0  0
  -10.2539   -1.6281    6.0779 C   0  0  0  0  0  0  0  0  0  0  0  0
   -8.2273   -8.9810    4.3732 C   0  0  0  0  0  0  0  0  0  0  0  0
  -11.9974   -9.9622    4.1086 C   0  0  0  0  0  0  0  0  0  0  0  0
  1 14  1  0  0  0  0
  1  2  2  0  0  0  0
  3  2  1  0  0  0  0
  3  8  2  0  0  0  0
  4  3  1  0  0  0  0
  5  7  2  0  0  0  0
  5  4  1  0  0  0  0
  6  5  1  0  0  0  0
  7  1  1  0  0  0  0
  9 10  1  0  0  0  0
  9  8  1  0  0  0  0
 11  9  2  0  0  0  0
 12 11  1  0  0  0  0
 13  4  2  0  0  0  0
 13 11  1  0  0  0  0
 14 15  1  0  0  0  0
 16 15  1  0  0  0  0
 17 16  1  0  0  0  0
 18 17  1  0  0  0  0
 18 19  1  0  0  0  0
 19 14  1  0  0  0  0
 20 10  1  0  0  0  0
 21 12  1  0  0  0  0
M  END
>  <CHROM.1>
78.58014375,-88.37234209,91.30096790,-10.65394627,-5.06323773,4.37497510
1.40807934,-0.23933777,0.09156295

>  <Name>
lig.pdb

>  <RI>
2.59814e+07

>  <Rbt.Current_Directory>
/home/itssahil/PROJECTS/Mol_Feturizer/New_Systems/rnas/2lwk

>  <Rbt.Executable>
rbdock ($Id: //depot/dev/client3/rdock/2013.1/src/exe/rbdock.cxx#4 $)

>  <Rbt.Library>
libRbt.so (2013.1, Build901 2013/11/27)

>  <Rbt.Parameter_File>
/export/apps/rDock/src/rDock_2013.1_src/data/scripts/dock_solv.prm

>  <Rbt.Receptor>
prm/pocket_docking_6.prm

>  <SCORE>
-22.3773

>  <SCORE.INTER>
-17.0787

>  <SCORE.INTER.CONST>
1

>  <SCORE.INTER.POLAR>
-2.07404

>  <SCORE.INTER.ROT>
3

>  <SCORE.INTER.SOLV>
7.39644

>  <SCORE.INTER.VDW>
-12.5378

>  <SCORE.INTER.norm>
-0.81327

>  <SCORE.INTRA>
-5.29866

>  <SCORE.INTRA.DIHEDRAL>
0.76068

>  <SCORE.INTRA.DIHEDRAL.0>
8.84257

>  <SCORE.INTRA.POLAR>
0

>  <SCORE.INTRA.POLAR.0>
0

>  <SCORE.INTRA.REPUL>
0

>  <SCORE.INTRA.REPUL.0>
0

>  <SCORE.INTRA.SOLV>
0.13481

>  <SCORE.INTRA.SOLV.lig_0>
-17.1313

>  <SCORE.INTRA.VDW>
-5.7464

>  <SCORE.INTRA.VDW.0>
6.34071

>  <SCORE.INTRA.norm>
-0.252317

>  <SCORE.RESTR>
0

>  <SCORE.RESTR.CAVITY>
0

>  <SCORE.RESTR.norm>
0

>  <SCORE.SYSTEM>
0

>  <SCORE.SYSTEM.CONST>
0

>  <SCORE.SYSTEM.DIHEDRAL>
0

>  <SCORE.SYSTEM.SOLV>
0

>  <SCORE.SYSTEM.norm>
0

>  <SCORE.heavy>
21

>  <SCORE.norm>
-1.06559

>  <RMSD>
6.028

$$$$
lig.pdb
 OpenBabel11021811453D
libRbt.so/2013.1/901 2013/11/27
 21 23  0  0  0  0  0  0  0  0999 V2000
  -12.0031   -1.8717    4.9311 C   0  0  0  0  0  0  0  0  0  0  0  0
  -11.5637   -2.9286    4.2573 N   0  0  0  0  0  0  0  0  0  0  0  0
  -12.1472   -4.1028    4.4171 C   0  0  0  0  0  0  0  0  0  0  0  0
  -13.1430   -4.2415    5.3157 C   0  0  0  0  0  0  0  0  0  0  0  0
  -13.5859   -3.1724    5.9908 C   0  0  0  0  0  0  0  0  0  0  0  0
  -14.5659   -3.3012    6.8844 N   0  0  0  0  0  0  0  0  0  0  0  0
  -13.0106   -1.9901    5.7969 N   0  0  0  0  0  0  0  0  0  0  0  0
  -11.7120   -5.1619    3.7144 C   0  0  0  0  0  0  0  0  0  0  0  0
  -12.1982   -6.4052    4.0144 C   0  0  0  0  0  0  0  0  0  0  0  0
  -11.2884   -7.4893    3.9972 O   0  0  0  0  0  0  0  0  0  0  0  0
  -13.3108   -6.4928    4.7619 C   0  0  0  0  0  0  0  0  0  0  0  0
  -14.1005   -7.6728    4.7133 O   0  0  0  0  0  0  0  0  0  0  0  0
  -13.7203   -5.4381    5.4935 C   0  0  0  0  0  0  0  0  0  0  0  0
  -11.4222   -0.6980    4.7511 N   0  0  0  0  0  0  0  0  0  0  0  0
  -10.3868   -0.6699    3.9065 C   0  0  0  0  0  0  0  0  0  0  0  0
   -9.1353   -1.1892    4.5978 C   0  0  0  0  0  0  0  0  0  0  0  0
   -8.8372   -0.3872    5.6799 N   0  0  0  0  0  0  0  0  0  0  0  0
   -9.9015   -0.4673    6.5513 C   0  0  0  0  0  0  0  0  0  0  0  0
  -11.1525    0.0553    5.8649 C   0  0  0  0  0  0  0  0  0  0  0  0
  -10.5455   -7.4541    5.1888 C   0  0  0  0  0  0  0  0  0  0  0  0
  -14.5692   -7.8475    3.4019 C   0  0  0  0  0  0  0  0  0  0  0  0
  1 14  1  0  0  0  0
  1  2  2  0  0  0  0
  3  2  1  0  0  0  0
  3  8  2  0  0  0  0
  4  3  1  0  0  0  0
  5  7  2  0  0  0  0
  5  4  1  0  0  0  0
  6  5  1  0  0  0  0
  7  1  1  0  0  0  0
  9 10  1  0  0  0  0
  9  8  1  0  0  0  0
 11  9  2  0  0  0  0
 12 11  1  0  0  0  0
 13  4  2  0  0  0  0
 13 11  1  0  0  0  0
 14 15  1  0  0  0  0
 16 15  1  0  0  0  0
 17 16  1  0  0  0  0
 18 17  1  0  0  0  0
 18 19  1  0  0  0  0
 19 14  1  0  0  0  0
 20 10  1  0  0  0  0
 21 12  1  0  0  0  0
M  END
>  <CHROM.1>
-1.65874974,78.41197248,-61.35918174,-12.00038605,-3.78376099,4.97276938
1.15551982,0.30608929,0.27365479

>  <Name>
lig.pdb

>  <RI>
2.98315e+07

>  <Rbt.Current_Directory>
/home/itssahil/PROJECTS/Mol_Feturizer/New_Systems/rnas/2lwk

>  <Rbt.Executable>
rbdock ($Id: //depot/dev/client3/rdock/2013.1/src/exe/rbdock.cxx#4 $)

>  <Rbt.Library>
libRbt.so (2013.1, Build901 2013/11/27)

>  <Rbt.Parameter_File>
/export/apps/rDock/src/rDock_2013.1_src/data/scripts/dock_solv.prm

>  <Rbt.Receptor>
prm/pocket_docking_5.prm

>  <SCORE>
-17.4411

>  <SCORE.INTER>
-15.5449

>  <SCORE.INTER.CONST>
1

>  <SCORE.INTER.POLAR>
-1.38293

>  <SCORE.INTER.ROT>
3

>  <SCORE.INTER.SOLV>
7.73767

>  <SCORE.INTER.VDW>
-13.9328

>  <SCORE.INTER.norm>
-0.740235

>  <SCORE.INTRA>
-1.89664

>  <SCORE.INTRA.DIHEDRAL>
0.0466777

>  <SCORE.INTRA.DIHEDRAL.0>
8.84257

>  <SCORE.INTRA.POLAR>
0

>  <SCORE.INTRA.POLAR.0>
0

>  <SCORE.INTRA.REPUL>
0

>  <SCORE.INTRA.REPUL.0>
0

>  <SCORE.INTRA.SOLV>
-0.0131848

>  <SCORE.INTRA.SOLV.lig_0>
-17.1313

>  <SCORE.INTRA.VDW>
-1.91339

>  <SCORE.INTRA.VDW.0>
6.34071

>  <SCORE.INTRA.norm>
-0.0903161

>  <SCORE.RESTR>
0.00045443

>  <SCORE.RESTR.CAVITY>
0.00045443

>  <SCORE.RESTR.norm>
2.16395e-05

>  <SCORE.SYSTEM>
0

>  <SCORE.SYSTEM.CONST>
0

>  <SCORE.SYSTEM.DIHEDRAL>
0

>  <SCORE.SYSTEM.SOLV>
0

>  <SCORE.SYSTEM.norm>
0

>  <SCORE.heavy>
21

>  <SCORE.norm>
-0.83053

>  <RMSD>
6.051

$$$$
lig.pdb
 OpenBabel11021811453D
libRbt.so/2013.1/901 2013/11/27
 21 23  0  0  0  0  0  0  0  0999 V2000
  -11.7668   -2.6448    5.3597 C   0  0  0  0  0  0  0  0  0  0  0  0
  -10.5646   -3.0833    5.7160 N   0  0  0  0  0  0  0  0  0  0  0  0
  -10.1255   -4.2450    5.2661 C   0  0  0  0  0  0  0  0  0  0  0  0
  -10.9259   -5.0156    4.5020 C   0  0  0  0  0  0  0  0  0  0  0  0
  -12.1363   -4.5684    4.1418 C   0  0  0  0  0  0  0  0  0  0  0  0
  -12.9359   -5.3254    3.3913 N   0  0  0  0  0  0  0  0  0  0  0  0
  -12.5532   -3.3834    4.5756 N   0  0  0  0  0  0  0  0  0  0  0  0
   -8.8992   -4.6707    5.6121 C   0  0  0  0  0  0  0  0  0  0  0  0
   -8.5225   -5.9467    5.2924 C   0  0  0  0  0  0  0  0  0  0  0  0
   -7.7760   -6.6722    6.2513 O   0  0  0  0  0  0  0  0  0  0  0  0
   -9.2442   -6.6156    4.3782 C   0  0  0  0  0  0  0  0  0  0  0  0
   -8.6607   -7.7083    3.6827 O   0  0  0  0  0  0  0  0  0  0  0  0
  -10.4882   -6.2043    4.0637 C   0  0  0  0  0  0  0  0  0  0  0  0
  -12.1894   -1.4733    5.8026 N   0  0  0  0  0  0  0  0  0  0  0  0
  -11.3524   -0.4426    5.6509 C   0  0  0  0  0  0  0  0  0  0  0  0
  -10.2852   -0.4733    6.7345 C   0  0  0  0  0  0  0  0  0  0  0  0
  -10.8811   -0.3721    7.9745 N   0  0  0  0  0  0  0  0  0  0  0  0
  -11.7053   -1.4665    8.1204 C   0  0  0  0  0  0  0  0  0  0  0  0
  -12.7755   -1.4360    7.0420 C   0  0  0  0  0  0  0  0  0  0  0  0
   -6.4122   -6.5055    5.9594 C   0  0  0  0  0  0  0  0  0  0  0  0
   -9.1956   -8.9028    4.1900 C   0  0  0  0  0  0  0  0  0  0  0  0
  1 14  1  0  0  0  0
  1  2  2  0  0  0  0
  3  2  1  0  0  0  0
  3  8  2  0  0  0  0
  4  3  1  0  0  0  0
  5  7  2  0  0  0  0
  5  4  1  0  0  0  0
  6  5  1  0  0  0  0
  7  1  1  0  0  0  0
  9 10  1  0  0  0  0
  9  8  1  0  0  0  0
 11  9  2  0  0  0  0
 12 11  1  0  0  0  0
 13  4  2  0  0  0  0
 13 11  1  0  0  0  0
 14 15  1  0  0  0  0
 16 15  1  0  0  0  0
 17 16  1  0  0  0  0
 18 17  1  0  0  0  0
 18 19  1  0  0  0  0
 19 14  1  0  0  0  0
 20 10  1  0  0  0  0
 21 12  1  0  0  0  0
M  END
>  <CHROM.1>
50.01611740,-94.14405841,105.76343011,-10.42528153,-4.17304828,5.42871937
2.06421060,-0.46400698,0.55680968

>  <Name>
lig.pdb

>  <RI>
2.98315e+07

>  <Rbt.Current_Directory>
/home/itssahil/PROJECTS/Mol_Feturizer/New_Systems/rnas/2lwk

>  <Rbt.Executable>
rbdock ($Id: //depot/dev/client3/rdock/2013.1/src/exe/rbdock.cxx#4 $)

>  <Rbt.Library>
libRbt.so (2013.1, Build901 2013/11/27)

>  <Rbt.Parameter_File>
/export/apps/rDock/src/rDock_2013.1_src/data/scripts/dock_solv.prm

>  <Rbt.Receptor>
prm/pocket_docking_5.prm

>  <SCORE>
-24.714

>  <SCORE.INTER>
-19.9068

>  <SCORE.INTER.CONST>
1

>  <SCORE.INTER.POLAR>
-2.83895

>  <SCORE.INTER.ROT>
3

>  <SCORE.INTER.SOLV>
7.2924

>  <SCORE.INTER.VDW>
-11.8388

>  <SCORE.INTER.norm>
-0.947942

>  <SCORE.INTRA>
-4.95849

>  <SCORE.INTRA.DIHEDRAL>
0.666441

>  <SCORE.INTRA.DIHEDRAL.0>
8.84257

>  <SCORE.INTRA.POLAR>
0

>  <SCORE.INTRA.POLAR.0>
0

>  <SCORE.INTRA.REPUL>
0

>  <SCORE.INTRA.REPUL.0>
0

>  <SCORE.INTRA.SOLV>
0.125655

>  <SCORE.INTRA.SOLV.lig_0>
-17.1313

>  <SCORE.INTRA.VDW>
-5.35454

>  <SCORE.INTRA.VDW.0>
6.34071

>  <SCORE.INTRA.norm>
-0.236119

>  <SCORE.RESTR>
0.151312

>  <SCORE.RESTR.CAVITY>
0.151312

>  <SCORE.RESTR.norm>
0.00720535

>  <SCORE.SYSTEM>
0

>  <SCORE.SYSTEM.CONST>
0

>  <SCORE.SYSTEM.DIHEDRAL>
0

>  <SCORE.SYSTEM.SOLV>
0

>  <SCORE.SYSTEM.norm>
0

>  <SCORE.heavy>
21

>  <SCORE.norm>
-1.17686

>  <RMSD>
6.054

$$$$
lig.pdb
 OpenBabel11021811453D
libRbt.so/2013.1/901 2013/11/27
 21 23  0  0  0  0  0  0  0  0999 V2000
  -11.7997   -2.5415    5.4756 C   0  0  0  0  0  0  0  0  0  0  0  0
  -10.5739   -2.8832    5.8564 N   0  0  0  0  0  0  0  0  0  0  0  0
  -10.0306   -4.0006    5.4079 C   0  0  0  0  0  0  0  0  0  0  0  0
  -10.7474   -4.8269    4.6195 C   0  0  0  0  0  0  0  0  0  0  0  0
  -11.9821   -4.4772    4.2346 C   0  0  0  0  0  0  0  0  0  0  0  0
  -12.6995   -5.2899    3.4598 N   0  0  0  0  0  0  0  0  0  0  0  0
  -12.5048   -3.3346    4.6677 N   0  0  0  0  0  0  0  0  0  0  0  0
   -8.7816   -4.3274    5.7791 C   0  0  0  0  0  0  0  0  0  0  0  0
   -8.2941   -5.5651    5.4584 C   0  0  0  0  0  0  0  0  0  0  0  0
   -7.5122   -6.2360    6.4288 O   0  0  0  0  0  0  0  0  0  0  0  0
   -8.9374   -6.2822    4.5225 C   0  0  0  0  0  0  0  0  0  0  0  0
   -8.2503   -7.3165    3.8323 O   0  0  0  0  0  0  0  0  0  0  0  0
  -10.2036   -5.9714    4.1823 C   0  0  0  0  0  0  0  0  0  0  0  0
  -12.3272   -1.4130    5.9176 N   0  0  0  0  0  0  0  0  0  0  0  0
  -11.5353   -0.3366    5.8940 C   0  0  0  0  0  0  0  0  0  0  0  0
  -10.5839   -0.3630    7.0807 C   0  0  0  0  0  0  0  0  0  0  0  0
  -11.3076   -0.3462    8.2550 N   0  0  0  0  0  0  0  0  0  0  0  0
  -12.0827   -1.4852    8.2716 C   0  0  0  0  0  0  0  0  0  0  0  0
  -13.0376   -1.4595    7.0898 C   0  0  0  0  0  0  0  0  0  0  0  0
   -8.3513   -6.5844    7.5001 C   0  0  0  0  0  0  0  0  0  0  0  0
   -8.4274   -8.5202    4.5325 C   0  0  0  0  0  0  0  0  0  0  0  0
  1 14  1  0  0  0  0
  1  2  2  0  0  0  0
  3  2  1  0  0  0  0
  3  8  2  0  0  0  0
  4  3  1  0  0  0  0
  5  7  2  0  0  0  0
  5  4  1  0  0  0  0
  6  5  1  0  0  0  0
  7  1  1  0  0  0  0
  9 10  1  0  0  0  0
  9  8  1  0  0  0  0
 11  9  2  0  0  0  0
 12 11  1  0  0  0  0
 13  4  2  0  0  0  0
 13 11  1  0  0  0  0
 14 15  1  0  0  0  0
 16 15  1  0  0  0  0
 17 16  1  0  0  0  0
 18 17  1  0  0  0  0
 18 19  1  0  0  0  0
 19 14  1  0  0  0  0
 20 10  1  0  0  0  0
 21 12  1  0  0  0  0
M  END
>  <CHROM.1>
44.74206838,68.26566649,90.80602522,-10.46035564,-4.00336876,5.66312772,2.17291533
-0.59571651,0.68867248

>  <Name>
lig.pdb

>  <RI>
2.98315e+07

>  <Rbt.Current_Directory>
/home/itssahil/PROJECTS/Mol_Feturizer/New_Systems/rnas/2lwk

>  <Rbt.Executable>
rbdock ($Id: //depot/dev/client3/rdock/2013.1/src/exe/rbdock.cxx#4 $)

>  <Rbt.Library>
libRbt.so (2013.1, Build901 2013/11/27)

>  <Rbt.Parameter_File>
/export/apps/rDock/src/rDock_2013.1_src/data/scripts/dock_solv.prm

>  <Rbt.Receptor>
prm/pocket_docking_5.prm

>  <SCORE>
-22.6635

>  <SCORE.INTER>
-19.7998

>  <SCORE.INTER.CONST>
1

>  <SCORE.INTER.POLAR>
-2.93063

>  <SCORE.INTER.ROT>
3

>  <SCORE.INTER.SOLV>
7.41059

>  <SCORE.INTER.VDW>
-11.5013

>  <SCORE.INTER.norm>
-0.942847

>  <SCORE.INTRA>
-3.08463

>  <SCORE.INTRA.DIHEDRAL>
0.904743

>  <SCORE.INTRA.DIHEDRAL.0>
8.84257

>  <SCORE.INTRA.POLAR>
0

>  <SCORE.INTRA.POLAR.0>
0

>  <SCORE.INTRA.REPUL>
0

>  <SCORE.INTRA.REPUL.0>
0

>  <SCORE.INTRA.SOLV>
0.104895

>  <SCORE.INTRA.SOLV.lig_0>
-17.1313

>  <SCORE.INTRA.VDW>
-3.58945

>  <SCORE.INTRA.VDW.0>
6.34071

>  <SCORE.INTRA.norm>
-0.146887

>  <SCORE.RESTR>
0.220889

>  <SCORE.RESTR.CAVITY>
0.220889

>  <SCORE.RESTR.norm>
0.0105185

>  <SCORE.SYSTEM>
0

>  <SCORE.SYSTEM.CONST>
0

>  <SCORE.SYSTEM.DIHEDRAL>
0

>  <SCORE.SYSTEM.SOLV>
0

>  <SCORE.SYSTEM.norm>
0

>  <SCORE.heavy>
21

>  <SCORE.norm>
-1.07922

>  <RMSD>
6.057

$$$$
lig.pdb
 OpenBabel11021811453D
libRbt.so/2013.1/901 2013/11/27
 21 23  0  0  0  0  0  0  0  0999 V2000
   -7.7684   -3.5699    2.9807 C   0  0  0  0  0  0  0  0  0  0  0  0
   -7.5376   -2.3899    3.5450 N   0  0  0  0  0  0  0  0  0  0  0  0
   -6.6124   -1.5895    3.0468 C   0  0  0  0  0  0  0  0  0  0  0  0
   -5.8563   -2.0007    2.0089 C   0  0  0  0  0  0  0  0  0  0  0  0
   -6.0944   -3.1901    1.4401 C   0  0  0  0  0  0  0  0  0  0  0  0
   -5.3488   -3.6067    0.4173 N   0  0  0  0  0  0  0  0  0  0  0  0
   -7.0499   -3.9722    1.9316 N   0  0  0  0  0  0  0  0  0  0  0  0
   -6.4012   -0.3878    3.6090 C   0  0  0  0  0  0  0  0  0  0  0  0
   -5.3272    0.3571    3.2040 C   0  0  0  0  0  0  0  0  0  0  0  0
   -4.6029    1.0608    4.1957 O   0  0  0  0  0  0  0  0  0  0  0  0
   -4.7152    0.0240    2.0557 C   0  0  0  0  0  0  0  0  0  0  0  0
   -3.9364    0.9917    1.3664 O   0  0  0  0  0  0  0  0  0  0  0  0
   -4.9027   -1.1970    1.5175 C   0  0  0  0  0  0  0  0  0  0  0  0
   -8.7079   -4.3559    3.4776 N   0  0  0  0  0  0  0  0  0  0  0  0
   -9.9459   -3.8536    3.5143 C   0  0  0  0  0  0  0  0  0  0  0  0
  -10.0935   -2.9164    4.7034 C   0  0  0  0  0  0  0  0  0  0  0  0
   -9.8709   -3.6134    5.8729 N   0  0  0  0  0  0  0  0  0  0  0  0
   -8.5768   -4.0841    5.8261 C   0  0  0  0  0  0  0  0  0  0  0  0
   -8.4275   -5.0244    4.6417 C   0  0  0  0  0  0  0  0  0  0  0  0
   -5.1396    2.3554    4.2915 C   0  0  0  0  0  0  0  0  0  0  0  0
   -4.7676    1.6861    0.4735 C   0  0  0  0  0  0  0  0  0  0  0  0
  1 14  1  0  0  0  0
  1  2  2  0  0  0  0
  3  2  1  0  0  0  0
  3  8  2  0  0  0  0
  4  3  1  0  0  0  0
  5  7  2  0  0  0  0
  5  4  1  0  0  0  0
  6  5  1  0  0  0  0
  7  1  1  0  0  0  0
  9 10  1  0  0  0  0
  9  8  1  0  0  0  0
 11  9  2  0  0  0  0
 12 11  1  0  0  0  0
 13  4  2  0  0  0  0
 13 11  1  0  0  0  0
 14 15  1  0  0  0  0
 16 15  1  0  0  0  0
 17 16  1  0  0  0  0
 18 17  1  0  0  0  0
 18 19  1  0  0  0  0
 19 14  1  0  0  0  0
 20 10  1  0  0  0  0
 21 12  1  0  0  0  0
M  END
>  <CHROM.1>
58.80598140,-92.54151209,-89.46202039,-6.73819442,-1.84076001,3.06323805
-2.79238031,0.82923417,0.68254172

>  <Name>
lig.pdb

>  <RI>
3.31914e+07

>  <Rbt.Current_Directory>
/home/itssahil/PROJECTS/Mol_Feturizer/New_Systems/rnas/2lwk

>  <Rbt.Executable>
rbdock ($Id: //depot/dev/client3/rdock/2013.1/src/exe/rbdock.cxx#4 $)

>  <Rbt.Library>
libRbt.so (2013.1, Build901 2013/11/27)

>  <Rbt.Parameter_File>
/export/apps/rDock/src/rDock_2013.1_src/data/scripts/dock_solv.prm

>  <Rbt.Receptor>
prm/pocket_docking_3.prm

>  <SCORE>
-12.4891

>  <SCORE.INTER>
-7.2412

>  <SCORE.INTER.CONST>
1

>  <SCORE.INTER.POLAR>
-1.26653

>  <SCORE.INTER.ROT>
3

>  <SCORE.INTER.SOLV>
4.0231

>  <SCORE.INTER.VDW>
-7.54674

>  <SCORE.INTER.norm>
-0.344819

>  <SCORE.INTRA>
-5.24792

>  <SCORE.INTRA.DIHEDRAL>
0.895024

>  <SCORE.INTRA.DIHEDRAL.0>
8.84257

>  <SCORE.INTRA.POLAR>
0

>  <SCORE.INTRA.POLAR.0>
0

>  <SCORE.INTRA.REPUL>
0

>  <SCORE.INTRA.REPUL.0>
0

>  <SCORE.INTRA.SOLV>
0.0877191

>  <SCORE.INTRA.SOLV.lig_0>
-17.1313

>  <SCORE.INTRA.VDW>
-5.73929

>  <SCORE.INTRA.VDW.0>
6.34071

>  <SCORE.INTRA.norm>
-0.249901

>  <SCORE.RESTR>
0

>  <SCORE.RESTR.CAVITY>
0

>  <SCORE.RESTR.norm>
0

>  <SCORE.SYSTEM>
0

>  <SCORE.SYSTEM.CONST>
0

>  <SCORE.SYSTEM.DIHEDRAL>
0

>  <SCORE.SYSTEM.SOLV>
0

>  <SCORE.SYSTEM.norm>
0

>  <SCORE.heavy>
21

>  <SCORE.norm>
-0.59472

>  <RMSD>
6.070

$$$$
lig.pdb
 OpenBabel11021811453D
libRbt.so/2013.1/901 2013/11/27
 21 23  0  0  0  0  0  0  0  0999 V2000
   -6.1421    5.5070    2.7884 C   0  0  0  0  0  0  0  0  0  0  0  0
   -6.1707    4.2564    2.3416 N   0  0  0  0  0  0  0  0  0  0  0  0
   -5.9596    3.2528    3.1740 C   0  0  0  0  0  0  0  0  0  0  0  0
   -5.6469    3.5024    4.4617 C   0  0  0  0  0  0  0  0  0  0  0  0
   -5.6225    4.7648    4.9096 C   0  0  0  0  0  0  0  0  0  0  0  0
   -5.3094    5.0210    6.1792 N   0  0  0  0  0  0  0  0  0  0  0  0
   -5.8681    5.7638    4.0682 N   0  0  0  0  0  0  0  0  0  0  0  0
   -6.0134    1.9900    2.7191 C   0  0  0  0  0  0  0  0  0  0  0  0
   -5.6194    0.9690    3.5404 C   0  0  0  0  0  0  0  0  0  0  0  0
   -4.8739   -0.0878    2.9654 O   0  0  0  0  0  0  0  0  0  0  0  0
   -5.5024    1.2161    4.8555 C   0  0  0  0  0  0  0  0  0  0  0  0
   -5.5596    0.1404    5.7818 O   0  0  0  0  0  0  0  0  0  0  0  0
   -5.4111    2.4844    5.3012 C   0  0  0  0  0  0  0  0  0  0  0  0
   -6.3709    6.5027    1.9498 N   0  0  0  0  0  0  0  0  0  0  0  0
   -6.2161    6.2335    0.6499 C   0  0  0  0  0  0  0  0  0  0  0  0
   -4.7396    6.2579    0.2844 C   0  0  0  0  0  0  0  0  0  0  0  0
   -4.2212    7.5116    0.5348 N   0  0  0  0  0  0  0  0  0  0  0  0
   -4.3565    7.7454    1.8859 C   0  0  0  0  0  0  0  0  0  0  0  0
   -5.8309    7.7263    2.2532 C   0  0  0  0  0  0  0  0  0  0  0  0
   -5.7478   -1.1632    2.7356 C   0  0  0  0  0  0  0  0  0  0  0  0
   -6.9060   -0.1545    6.0471 C   0  0  0  0  0  0  0  0  0  0  0  0
  1 14  1  0  0  0  0
  1  2  2  0  0  0  0
  3  2  1  0  0  0  0
  3  8  2  0  0  0  0
  4  3  1  0  0  0  0
  5  7  2  0  0  0  0
  5  4  1  0  0  0  0
  6  5  1  0  0  0  0
  7  1  1  0  0  0  0
  9 10  1  0  0  0  0
  9  8  1  0  0  0  0
 11  9  2  0  0  0  0
 12 11  1  0  0  0  0
 13  4  2  0  0  0  0
 13 11  1  0  0  0  0
 14 15  1  0  0  0  0
 16 15  1  0  0  0  0
 17 16  1  0  0  0  0
 18 17  1  0  0  0  0
 18 19  1  0  0  0  0
 19 14  1  0  0  0  0
 20 10  1  0  0  0  0
 21 12  1  0  0  0  0
M  END
>  <CHROM.1>
-19.79365800,-100.23426302,-83.28385865,-5.60965250,3.75996431,3.30769904
0.81899830,1.47294792,0.33109962

>  <Name>
lig.pdb

>  <RI>
2.20372e+07

>  <Rbt.Current_Directory>
/home/itssahil/PROJECTS/Mol_Feturizer/New_Systems/rnas/2lwk

>  <Rbt.Executable>
rbdock ($Id: //depot/dev/client3/rdock/2013.1/src/exe/rbdock.cxx#4 $)

>  <Rbt.Library>
libRbt.so (2013.1, Build901 2013/11/27)

>  <Rbt.Parameter_File>
/export/apps/rDock/src/rDock_2013.1_src/data/scripts/dock_solv.prm

>  <Rbt.Receptor>
prm/pocket_docking_7.prm

>  <SCORE>
-20.1587

>  <SCORE.INTER>
-16.8048

>  <SCORE.INTER.CONST>
1

>  <SCORE.INTER.POLAR>
-2.95422

>  <SCORE.INTER.ROT>
3

>  <SCORE.INTER.SOLV>
6.33686

>  <SCORE.INTER.VDW>
-9.0681

>  <SCORE.INTER.norm>
-0.80023

>  <SCORE.INTRA>
-3.35384

>  <SCORE.INTRA.DIHEDRAL>
0.968934

>  <SCORE.INTRA.DIHEDRAL.0>
8.84257

>  <SCORE.INTRA.POLAR>
0

>  <SCORE.INTRA.POLAR.0>
0

>  <SCORE.INTRA.REPUL>
0

>  <SCORE.INTRA.REPUL.0>
0

>  <SCORE.INTRA.SOLV>
-0.0396778

>  <SCORE.INTRA.SOLV.lig_0>
-17.1313

>  <SCORE.INTRA.VDW>
-3.81847

>  <SCORE.INTRA.VDW.0>
6.34071

>  <SCORE.INTRA.norm>
-0.159707

>  <SCORE.RESTR>
0

>  <SCORE.RESTR.CAVITY>
0

>  <SCORE.RESTR.norm>
0

>  <SCORE.SYSTEM>
0

>  <SCORE.SYSTEM.CONST>
0

>  <SCORE.SYSTEM.DIHEDRAL>
0

>  <SCORE.SYSTEM.SOLV>
0

>  <SCORE.SYSTEM.norm>
0

>  <SCORE.heavy>
21

>  <SCORE.norm>
-0.959936

>  <RMSD>
6.091

$$$$
lig.pdb
 OpenBabel11021811453D
libRbt.so/2013.1/901 2013/11/27
 21 23  0  0  0  0  0  0  0  0999 V2000
   -8.7579   -3.5417    4.2049 C   0  0  0  0  0  0  0  0  0  0  0  0
   -8.5244   -2.4147    4.8679 N   0  0  0  0  0  0  0  0  0  0  0  0
   -7.6900   -1.5183    4.3730 C   0  0  0  0  0  0  0  0  0  0  0  0
   -7.0239   -1.7792    3.2300 C   0  0  0  0  0  0  0  0  0  0  0  0
   -7.2647   -2.9154    2.5622 C   0  0  0  0  0  0  0  0  0  0  0  0
   -6.6073   -3.1839    1.4347 N   0  0  0  0  0  0  0  0  0  0  0  0
   -8.1307   -3.7947    3.0553 N   0  0  0  0  0  0  0  0  0  0  0  0
   -7.4771   -0.3706    5.0381 C   0  0  0  0  0  0  0  0  0  0  0  0
   -6.4830    0.4693    4.6154 C   0  0  0  0  0  0  0  0  0  0  0  0
   -5.6952    1.1063    5.6037 O   0  0  0  0  0  0  0  0  0  0  0  0
   -5.9748    0.2892    3.3851 C   0  0  0  0  0  0  0  0  0  0  0  0
   -5.3125    1.3635    2.7329 O   0  0  0  0  0  0  0  0  0  0  0  0
   -6.1607   -0.8787    2.7394 C   0  0  0  0  0  0  0  0  0  0  0  0
   -9.6072   -4.4245    4.7014 N   0  0  0  0  0  0  0  0  0  0  0  0
  -10.2308   -5.2116    3.8194 C   0  0  0  0  0  0  0  0  0  0  0  0
  -11.3833   -4.4588    3.1721 C   0  0  0  0  0  0  0  0  0  0  0  0
  -12.2921   -4.0823    4.1392 N   0  0  0  0  0  0  0  0  0  0  0  0
  -11.6345   -3.2407    5.0097 C   0  0  0  0  0  0  0  0  0  0  0  0
  -10.4853   -3.9914    5.6617 C   0  0  0  0  0  0  0  0  0  0  0  0
   -6.0435    2.4669    5.6289 C   0  0  0  0  0  0  0  0  0  0  0  0
   -3.9681    1.3756    3.1364 C   0  0  0  0  0  0  0  0  0  0  0  0
  1 14  1  0  0  0  0
  1  2  2  0  0  0  0
  3  2  1  0  0  0  0
  3  8  2  0  0  0  0
  4  3  1  0  0  0  0
  5  7  2  0  0  0  0
  5  4  1  0  0  0  0
  6  5  1  0  0  0  0
  7  1  1  0  0  0  0
  9 10  1  0  0  0  0
  9  8  1  0  0  0  0
 11  9  2  0  0  0  0
 12 11  1  0  0  0  0
 13  4  2  0  0  0  0
 13 11  1  0  0  0  0
 14 15  1  0  0  0  0
 16 15  1  0  0  0  0
 17 16  1  0  0  0  0
 18 17  1  0  0  0  0
 18 19  1  0  0  0  0
 19 14  1  0  0  0  0
 20 10  1  0  0  0  0
 21 12  1  0  0  0  0
M  END
>  <CHROM.1>
152.59548978,-108.32216182,85.73672305,-7.93140231,-1.81895734,3.95508854
-2.61053486,0.61945614,0.74111066

>  <Name>
lig.pdb

>  <RI>
2.6678e+07

>  <Rbt.Current_Directory>
/home/itssahil/PROJECTS/Mol_Feturizer/New_Systems/rnas/2lwk

>  <Rbt.Executable>
rbdock ($Id: //depot/dev/client3/rdock/2013.1/src/exe/rbdock.cxx#4 $)

>  <Rbt.Library>
libRbt.so (2013.1, Build901 2013/11/27)

>  <Rbt.Parameter_File>
/export/apps/rDock/src/rDock_2013.1_src/data/scripts/dock_solv.prm

>  <Rbt.Receptor>
prm/pocket_docking_2.prm

>  <SCORE>
-8.65246

>  <SCORE.INTER>
-6.20939

>  <SCORE.INTER.CONST>
1

>  <SCORE.INTER.POLAR>
-1.52246

>  <SCORE.INTER.ROT>
3

>  <SCORE.INTER.SOLV>
5.01854

>  <SCORE.INTER.VDW>
-6.33758

>  <SCORE.INTER.norm>
-0.295685

>  <SCORE.INTRA>
-3.14258

>  <SCORE.INTRA.DIHEDRAL>
0.920708

>  <SCORE.INTRA.DIHEDRAL.0>
8.84257

>  <SCORE.INTRA.POLAR>
0

>  <SCORE.INTRA.POLAR.0>
0

>  <SCORE.INTRA.REPUL>
0

>  <SCORE.INTRA.REPUL.0>
0

>  <SCORE.INTRA.SOLV>
0.00990609

>  <SCORE.INTRA.SOLV.lig_0>
-17.1313

>  <SCORE.INTRA.VDW>
-3.60789

>  <SCORE.INTRA.VDW.0>
6.34071

>  <SCORE.INTRA.norm>
-0.149647

>  <SCORE.RESTR>
0.699517

>  <SCORE.RESTR.CAVITY>
0.699517

>  <SCORE.RESTR.norm>
0.0333103

>  <SCORE.SYSTEM>
0

>  <SCORE.SYSTEM.CONST>
0

>  <SCORE.SYSTEM.DIHEDRAL>
0

>  <SCORE.SYSTEM.SOLV>
0

>  <SCORE.SYSTEM.norm>
0

>  <SCORE.heavy>
21

>  <SCORE.norm>
-0.412022

>  <RMSD>
6.106

$$$$
lig.pdb
 OpenBabel11021811453D
libRbt.so/2013.1/901 2013/11/27
 21 23  0  0  0  0  0  0  0  0999 V2000
   -7.7425   -3.1574    2.5727 C   0  0  0  0  0  0  0  0  0  0  0  0
   -7.2811   -1.9484    2.8724 N   0  0  0  0  0  0  0  0  0  0  0  0
   -6.0984   -1.5640    2.4272 C   0  0  0  0  0  0  0  0  0  0  0  0
   -5.3317   -2.4247    1.7275 C   0  0  0  0  0  0  0  0  0  0  0  0
   -5.8019   -3.6419    1.4241 C   0  0  0  0  0  0  0  0  0  0  0  0
   -5.0491   -4.5007    0.7375 N   0  0  0  0  0  0  0  0  0  0  0  0
   -7.0070   -4.0045    1.8514 N   0  0  0  0  0  0  0  0  0  0  0  0
   -5.6490   -0.3312    2.7150 C   0  0  0  0  0  0  0  0  0  0  0  0
   -4.3567   -0.0046    2.4060 C   0  0  0  0  0  0  0  0  0  0  0  0
   -3.6341    0.7762    3.3394 O   0  0  0  0  0  0  0  0  0  0  0  0
   -3.6860   -0.7926    1.5496 C   0  0  0  0  0  0  0  0  0  0  0  0
   -2.5630   -0.2761    0.8495 O   0  0  0  0  0  0  0  0  0  0  0  0
   -4.1223   -2.0417    1.2946 C   0  0  0  0  0  0  0  0  0  0  0  0
   -8.9344   -3.5255    3.0098 N   0  0  0  0  0  0  0  0  0  0  0  0
   -9.9694   -2.7760    2.6183 C   0  0  0  0  0  0  0  0  0  0  0  0
  -10.0454   -1.5112    3.4600 C   0  0  0  0  0  0  0  0  0  0  0  0
  -10.2271   -1.8471    4.7856 N   0  0  0  0  0  0  0  0  0  0  0  0
   -9.1285   -2.5829    5.1732 C   0  0  0  0  0  0  0  0  0  0  0  0
   -9.0526   -3.8496    4.3372 C   0  0  0  0  0  0  0  0  0  0  0  0
   -3.7595    2.1254    2.9692 C   0  0  0  0  0  0  0  0  0  0  0  0
   -3.0106    0.3346   -0.3324 C   0  0  0  0  0  0  0  0  0  0  0  0
  1 14  1  0  0  0  0
  1  2  2  0  0  0  0
  3  2  1  0  0  0  0
  3  8  2  0  0  0  0
  4  3  1  0  0  0  0
  5  7  2  0  0  0  0
  5  4  1  0  0  0  0
  6  5  1  0  0  0  0
  7  1  1  0  0  0  0
  9 10  1  0  0  0  0
  9  8  1  0  0  0  0
 11  9  2  0  0  0  0
 12 11  1  0  0  0  0
 13  4  2  0  0  0  0
 13 11  1  0  0  0  0
 14 15  1  0  0  0  0
 16 15  1  0  0  0  0
 17 16  1  0  0  0  0
 18 17  1  0  0  0  0
 18 19  1  0  0  0  0
 19 14  1  0  0  0  0
 20 10  1  0  0  0  0
 21 12  1  0  0  0  0
M  END
>  <CHROM.1>
59.59862445,-94.09178738,-87.44268888,-6.29221526,-1.75916549,2.47013568
-2.92424526,0.50945914,0.48432039

>  <Name>
lig.pdb

>  <RI>
2.98315e+07

>  <Rbt.Current_Directory>
/home/itssahil/PROJECTS/Mol_Feturizer/New_Systems/rnas/2lwk

>  <Rbt.Executable>
rbdock ($Id: //depot/dev/client3/rdock/2013.1/src/exe/rbdock.cxx#4 $)

>  <Rbt.Library>
libRbt.so (2013.1, Build901 2013/11/27)

>  <Rbt.Parameter_File>
/export/apps/rDock/src/rDock_2013.1_src/data/scripts/dock_solv.prm

>  <Rbt.Receptor>
prm/pocket_docking_5.prm

>  <SCORE>
-13.9224

>  <SCORE.INTER>
-8.64563

>  <SCORE.INTER.CONST>
1

>  <SCORE.INTER.POLAR>
-0.975036

>  <SCORE.INTER.ROT>
3

>  <SCORE.INTER.SOLV>
5.5228

>  <SCORE.INTER.VDW>
-9.95457

>  <SCORE.INTER.norm>
-0.411697

>  <SCORE.INTRA>
-5.27673

>  <SCORE.INTRA.DIHEDRAL>
0.933254

>  <SCORE.INTRA.DIHEDRAL.0>
8.84257

>  <SCORE.INTRA.POLAR>
0

>  <SCORE.INTRA.POLAR.0>
0

>  <SCORE.INTRA.REPUL>
0

>  <SCORE.INTRA.REPUL.0>
0

>  <SCORE.INTRA.SOLV>
0.0907009

>  <SCORE.INTRA.SOLV.lig_0>
-17.1313

>  <SCORE.INTRA.VDW>
-5.78871

>  <SCORE.INTRA.VDW.0>
6.34071

>  <SCORE.INTRA.norm>
-0.251273

>  <SCORE.RESTR>
0

>  <SCORE.RESTR.CAVITY>
0

>  <SCORE.RESTR.norm>
0

>  <SCORE.SYSTEM>
0

>  <SCORE.SYSTEM.CONST>
0

>  <SCORE.SYSTEM.DIHEDRAL>
0

>  <SCORE.SYSTEM.SOLV>
0

>  <SCORE.SYSTEM.norm>
0

>  <SCORE.heavy>
21

>  <SCORE.norm>
-0.66297

>  <RMSD>
6.119

$$$$
lig.pdb
 OpenBabel11021811453D
libRbt.so/2013.1/901 2013/11/27
 21 23  0  0  0  0  0  0  0  0999 V2000
  -11.8419   -2.6516    5.5648 C   0  0  0  0  0  0  0  0  0  0  0  0
  -10.6729   -3.1145    5.9930 N   0  0  0  0  0  0  0  0  0  0  0  0
  -10.1964   -4.2493    5.5134 C   0  0  0  0  0  0  0  0  0  0  0  0
  -10.9295   -4.9707    4.6415 C   0  0  0  0  0  0  0  0  0  0  0  0
  -12.1064   -4.4988    4.2091 C   0  0  0  0  0  0  0  0  0  0  0  0
  -12.8399   -5.2074    3.3515 N   0  0  0  0  0  0  0  0  0  0  0  0
  -12.5595   -3.3399    4.6759 N   0  0  0  0  0  0  0  0  0  0  0  0
   -9.0024   -4.6988    5.9343 C   0  0  0  0  0  0  0  0  0  0  0  0
   -8.5987   -5.9551    5.5722 C   0  0  0  0  0  0  0  0  0  0  0  0
   -7.9334   -6.7385    6.5453 O   0  0  0  0  0  0  0  0  0  0  0  0
   -9.2411   -6.5666    4.5634 C   0  0  0  0  0  0  0  0  0  0  0  0
   -8.6003   -7.6184    3.8555 O   0  0  0  0  0  0  0  0  0  0  0  0
  -10.4553   -6.1331    4.1717 C   0  0  0  0  0  0  0  0  0  0  0  0
  -12.3015   -1.5067    6.0394 N   0  0  0  0  0  0  0  0  0  0  0  0
  -11.5126   -0.4390    5.8849 C   0  0  0  0  0  0  0  0  0  0  0  0
  -10.4170   -0.4428    6.9401 C   0  0  0  0  0  0  0  0  0  0  0  0
  -10.9838   -0.3880    8.1966 N   0  0  0  0  0  0  0  0  0  0  0  0
  -11.7573   -1.5186    8.3438 C   0  0  0  0  0  0  0  0  0  0  0  0
  -12.8558   -1.5153    7.2938 C   0  0  0  0  0  0  0  0  0  0  0  0
   -6.5688   -6.7784    6.2145 C   0  0  0  0  0  0  0  0  0  0  0  0
   -9.0374   -8.8454    4.3788 C   0  0  0  0  0  0  0  0  0  0  0  0
  1 14  1  0  0  0  0
  1  2  2  0  0  0  0
  3  2  1  0  0  0  0
  3  8  2  0  0  0  0
  4  3  1  0  0  0  0
  5  7  2  0  0  0  0
  5  4  1  0  0  0  0
  6  5  1  0  0  0  0
  7  1  1  0  0  0  0
  9 10  1  0  0  0  0
  9  8  1  0  0  0  0
 11  9  2  0  0  0  0
 12 11  1  0  0  0  0
 13  4  2  0  0  0  0
 13 11  1  0  0  0  0
 14 15  1  0  0  0  0
 16 15  1  0  0  0  0
 17 16  1  0  0  0  0
 18 17  1  0  0  0  0
 18 19  1  0  0  0  0
 19 14  1  0  0  0  0
 20 10  1  0  0  0  0
 21 12  1  0  0  0  0
M  END
>  <CHROM.1>
57.14773574,-105.90577014,97.52482703,-10.47319474,-4.17500185,5.62682744
2.10575508,-0.53530966,0.61316407

>  <Name>
lig.pdb

>  <RI>
2.20372e+07

>  <Rbt.Current_Directory>
/home/itssahil/PROJECTS/Mol_Feturizer/New_Systems/rnas/2lwk

>  <Rbt.Executable>
rbdock ($Id: //depot/dev/client3/rdock/2013.1/src/exe/rbdock.cxx#4 $)

>  <Rbt.Library>
libRbt.so (2013.1, Build901 2013/11/27)

>  <Rbt.Parameter_File>
/export/apps/rDock/src/rDock_2013.1_src/data/scripts/dock_solv.prm

>  <Rbt.Receptor>
prm/pocket_docking_7.prm

>  <SCORE>
-25.9603

>  <SCORE.INTER>
-20.7227

>  <SCORE.INTER.CONST>
1

>  <SCORE.INTER.POLAR>
-2.92266

>  <SCORE.INTER.ROT>
3

>  <SCORE.INTER.SOLV>
7.08951

>  <SCORE.INTER.VDW>
-12.0361

>  <SCORE.INTER.norm>
-0.986798

>  <SCORE.INTRA>
-5.23756

>  <SCORE.INTRA.DIHEDRAL>
0.959121

>  <SCORE.INTRA.DIHEDRAL.0>
8.84257

>  <SCORE.INTRA.POLAR>
0

>  <SCORE.INTRA.POLAR.0>
0

>  <SCORE.INTRA.REPUL>
0

>  <SCORE.INTRA.REPUL.0>
0

>  <SCORE.INTRA.SOLV>
0.148187

>  <SCORE.INTRA.SOLV.lig_0>
-17.1313

>  <SCORE.INTRA.VDW>
-5.79122

>  <SCORE.INTRA.VDW.0>
6.34071

>  <SCORE.INTRA.norm>
-0.249408

>  <SCORE.RESTR>
0

>  <SCORE.RESTR.CAVITY>
0

>  <SCORE.RESTR.norm>
0

>  <SCORE.SYSTEM>
0

>  <SCORE.SYSTEM.CONST>
0

>  <SCORE.SYSTEM.DIHEDRAL>
0

>  <SCORE.SYSTEM.SOLV>
0

>  <SCORE.SYSTEM.norm>
0

>  <SCORE.heavy>
21

>  <SCORE.norm>
-1.23621

>  <RMSD>
6.141

$$$$
lig.pdb
 OpenBabel11021811453D
libRbt.so/2013.1/901 2013/11/27
 21 23  0  0  0  0  0  0  0  0999 V2000
  -10.6930   -3.4527    4.1623 C   0  0  0  0  0  0  0  0  0  0  0  0
   -9.9411   -4.5395    4.2965 N   0  0  0  0  0  0  0  0  0  0  0  0
  -10.4683   -5.7351    4.1028 C   0  0  0  0  0  0  0  0  0  0  0  0
  -11.7849   -5.8539    3.8371 C   0  0  0  0  0  0  0  0  0  0  0  0
  -12.5392   -4.7553    3.6989 C   0  0  0  0  0  0  0  0  0  0  0  0
  -13.8422   -4.8634    3.4416 N   0  0  0  0  0  0  0  0  0  0  0  0
  -11.9890   -3.5571    3.8653 N   0  0  0  0  0  0  0  0  0  0  0  0
   -9.6956   -6.8280    4.2174 C   0  0  0  0  0  0  0  0  0  0  0  0
  -10.2825   -8.0638    4.1930 C   0  0  0  0  0  0  0  0  0  0  0  0
   -9.7885   -9.0447    5.0858 O   0  0  0  0  0  0  0  0  0  0  0  0
  -11.5427   -8.1636    3.7389 C   0  0  0  0  0  0  0  0  0  0  0  0
  -12.0219   -9.4126    3.2608 O   0  0  0  0  0  0  0  0  0  0  0  0
  -12.3240   -7.0685    3.6622 C   0  0  0  0  0  0  0  0  0  0  0  0
  -10.1512   -2.2606    4.3425 N   0  0  0  0  0  0  0  0  0  0  0  0
   -9.3243   -1.8318    3.3840 C   0  0  0  0  0  0  0  0  0  0  0  0
   -7.9587   -2.4826    3.5436 C   0  0  0  0  0  0  0  0  0  0  0  0
   -7.4224   -2.1398    4.7675 N   0  0  0  0  0  0  0  0  0  0  0  0
   -8.2722   -2.6289    5.7355 C   0  0  0  0  0  0  0  0  0  0  0  0
   -9.6362   -1.9770    5.5816 C   0  0  0  0  0  0  0  0  0  0  0  0
   -8.5790   -9.5363    4.5678 C   0  0  0  0  0  0  0  0  0  0  0  0
  -12.6905  -10.0688    4.3062 C   0  0  0  0  0  0  0  0  0  0  0  0
  1 14  1  0  0  0  0
  1  2  2  0  0  0  0
  3  2  1  0  0  0  0
  3  8  2  0  0  0  0
  4  3  1  0  0  0  0
  5  7  2  0  0  0  0
  5  4  1  0  0  0  0
  6  5  1  0  0  0  0
  7  1  1  0  0  0  0
  9 10  1  0  0  0  0
  9  8  1  0  0  0  0
 11  9  2  0  0  0  0
 12 11  1  0  0  0  0
 13  4  2  0  0  0  0
 13 11  1  0  0  0  0
 14 15  1  0  0  0  0
 16 15  1  0  0  0  0
 17 16  1  0  0  0  0
 18 17  1  0  0  0  0
 18 19  1  0  0  0  0
 19 14  1  0  0  0  0
 20 10  1  0  0  0  0
 21 12  1  0  0  0  0
M  END
>  <CHROM.1>
72.50803652,-76.87740705,94.92829478,-10.50918517,-5.47132286,4.18991803
1.23555190,-0.24414787,-0.02250754

>  <Name>
lig.pdb

>  <RI>
2.75338e+07

>  <Rbt.Current_Directory>
/home/itssahil/PROJECTS/Mol_Feturizer/New_Systems/rnas/2lwk

>  <Rbt.Executable>
rbdock ($Id: //depot/dev/client3/rdock/2013.1/src/exe/rbdock.cxx#4 $)

>  <Rbt.Library>
libRbt.so (2013.1, Build901 2013/11/27)

>  <Rbt.Parameter_File>
/export/apps/rDock/src/rDock_2013.1_src/data/scripts/dock_solv.prm

>  <Rbt.Receptor>
prm/pocket_docking_8.prm

>  <SCORE>
-23.4864

>  <SCORE.INTER>
-18.3761

>  <SCORE.INTER.CONST>
1

>  <SCORE.INTER.POLAR>
-2.47947

>  <SCORE.INTER.ROT>
3

>  <SCORE.INTER.SOLV>
7.21056

>  <SCORE.INTER.VDW>
-11.9894

>  <SCORE.INTER.norm>
-0.875053

>  <SCORE.INTRA>
-5.11026

>  <SCORE.INTRA.DIHEDRAL>
0.201253

>  <SCORE.INTRA.DIHEDRAL.0>
8.84257

>  <SCORE.INTRA.POLAR>
0

>  <SCORE.INTRA.POLAR.0>
0

>  <SCORE.INTRA.REPUL>
0

>  <SCORE.INTRA.REPUL.0>
0

>  <SCORE.INTRA.SOLV>
0.124716

>  <SCORE.INTRA.SOLV.lig_0>
-17.1313

>  <SCORE.INTRA.VDW>
-5.27324

>  <SCORE.INTRA.VDW.0>
6.34071

>  <SCORE.INTRA.norm>
-0.243346

>  <SCORE.RESTR>
0

>  <SCORE.RESTR.CAVITY>
0

>  <SCORE.RESTR.norm>
0

>  <SCORE.SYSTEM>
0

>  <SCORE.SYSTEM.CONST>
0

>  <SCORE.SYSTEM.DIHEDRAL>
0

>  <SCORE.SYSTEM.SOLV>
0

>  <SCORE.SYSTEM.norm>
0

>  <SCORE.heavy>
21

>  <SCORE.norm>
-1.1184

>  <RMSD>
6.165

$$$$
lig.pdb
 OpenBabel11021811453D
libRbt.so/2013.1/901 2013/11/27
 21 23  0  0  0  0  0  0  0  0999 V2000
   -4.6465    5.8372    3.4269 C   0  0  0  0  0  0  0  0  0  0  0  0
   -5.0958    4.7799    2.7602 N   0  0  0  0  0  0  0  0  0  0  0  0
   -5.6411    3.7699    3.4140 C   0  0  0  0  0  0  0  0  0  0  0  0
   -5.6777    3.7835    4.7618 C   0  0  0  0  0  0  0  0  0  0  0  0
   -5.2269    4.8533    5.4306 C   0  0  0  0  0  0  0  0  0  0  0  0
   -5.2545    4.8731    6.7627 N   0  0  0  0  0  0  0  0  0  0  0  0
   -4.7096    5.8765    4.7585 N   0  0  0  0  0  0  0  0  0  0  0  0
   -6.1144    2.7145    2.7308 C   0  0  0  0  0  0  0  0  0  0  0  0
   -6.5117    1.6002    3.4183 C   0  0  0  0  0  0  0  0  0  0  0  0
   -6.1882    0.3371    2.8677 O   0  0  0  0  0  0  0  0  0  0  0  0
   -6.7212    1.7065    4.7408 C   0  0  0  0  0  0  0  0  0  0  0  0
   -7.5523    0.7616    5.4001 O   0  0  0  0  0  0  0  0  0  0  0  0
   -6.2113    2.7487    5.4260 C   0  0  0  0  0  0  0  0  0  0  0  0
   -4.1176    6.8493    2.7612 N   0  0  0  0  0  0  0  0  0  0  0  0
   -4.9753    7.7322    2.2406 C   0  0  0  0  0  0  0  0  0  0  0  0
   -5.5673    7.1859    0.9502 C   0  0  0  0  0  0  0  0  0  0  0  0
   -4.5590    6.9656    0.0348 N   0  0  0  0  0  0  0  0  0  0  0  0
   -3.7140    6.0233    0.5791 C   0  0  0  0  0  0  0  0  0  0  0  0
   -3.1173    6.5682    1.8661 C   0  0  0  0  0  0  0  0  0  0  0  0
   -4.8444    0.0610    3.1697 C   0  0  0  0  0  0  0  0  0  0  0  0
   -6.7391   -0.1359    6.1098 C   0  0  0  0  0  0  0  0  0  0  0  0
  1 14  1  0  0  0  0
  1  2  2  0  0  0  0
  3  2  1  0  0  0  0
  3  8  2  0  0  0  0
  4  3  1  0  0  0  0
  5  7  2  0  0  0  0
  5  4  1  0  0  0  0
  6  5  1  0  0  0  0
  7  1  1  0  0  0  0
  9 10  1  0  0  0  0
  9  8  1  0  0  0  0
 11  9  2  0  0  0  0
 12 11  1  0  0  0  0
 13  4  2  0  0  0  0
 13 11  1  0  0  0  0
 14 15  1  0  0  0  0
 16 15  1  0  0  0  0
 17 16  1  0  0  0  0
 18 17  1  0  0  0  0
 18 19  1  0  0  0  0
 19 14  1  0  0  0  0
 20 10  1  0  0  0  0
 21 12  1  0  0  0  0
M  END
>  <CHROM.1>
82.19691374,79.45187958,103.91266979,-5.38789404,4.01257698,3.50123925,0.02523511
1.27102126,1.05906204

>  <Name>
lig.pdb

>  <RI>
2.20372e+07

>  <Rbt.Current_Directory>
/home/itssahil/PROJECTS/Mol_Feturizer/New_Systems/rnas/2lwk

>  <Rbt.Executable>
rbdock ($Id: //depot/dev/client3/rdock/2013.1/src/exe/rbdock.cxx#4 $)

>  <Rbt.Library>
libRbt.so (2013.1, Build901 2013/11/27)

>  <Rbt.Parameter_File>
/export/apps/rDock/src/rDock_2013.1_src/data/scripts/dock_solv.prm

>  <Rbt.Receptor>
prm/pocket_docking_7.prm

>  <SCORE>
-20.59

>  <SCORE.INTER>
-16.6805

>  <SCORE.INTER.CONST>
1

>  <SCORE.INTER.POLAR>
-2.78172

>  <SCORE.INTER.ROT>
3

>  <SCORE.INTER.SOLV>
6.95777

>  <SCORE.INTER.VDW>
-9.7672

>  <SCORE.INTER.norm>
-0.794311

>  <SCORE.INTRA>
-3.90949

>  <SCORE.INTRA.DIHEDRAL>
0.801145

>  <SCORE.INTRA.DIHEDRAL.0>
8.84257

>  <SCORE.INTRA.POLAR>
0

>  <SCORE.INTRA.POLAR.0>
0

>  <SCORE.INTRA.REPUL>
0

>  <SCORE.INTRA.REPUL.0>
0

>  <SCORE.INTRA.SOLV>
0.0900474

>  <SCORE.INTRA.SOLV.lig_0>
-17.1313

>  <SCORE.INTRA.VDW>
-4.35509

>  <SCORE.INTRA.VDW.0>
6.34071

>  <SCORE.INTRA.norm>
-0.186166

>  <SCORE.RESTR>
0

>  <SCORE.RESTR.CAVITY>
0

>  <SCORE.RESTR.norm>
0

>  <SCORE.SYSTEM>
0

>  <SCORE.SYSTEM.CONST>
0

>  <SCORE.SYSTEM.DIHEDRAL>
0

>  <SCORE.SYSTEM.SOLV>
0

>  <SCORE.SYSTEM.norm>
0

>  <SCORE.heavy>
21

>  <SCORE.norm>
-0.980478

>  <RMSD>
6.175

$$$$
lig.pdb
 OpenBabel11021811453D
libRbt.so/2013.1/901 2013/11/27
 21 23  0  0  0  0  0  0  0  0999 V2000
   -9.6287   -0.0439    4.5336 C   0  0  0  0  0  0  0  0  0  0  0  0
   -9.1989    1.1184    4.0553 N   0  0  0  0  0  0  0  0  0  0  0  0
   -7.9048    1.3275    3.8930 C   0  0  0  0  0  0  0  0  0  0  0  0
   -7.0186    0.3869    4.2779 C   0  0  0  0  0  0  0  0  0  0  0  0
   -7.4560   -0.7855    4.7564 C   0  0  0  0  0  0  0  0  0  0  0  0
   -6.5874   -1.7187    5.1441 N   0  0  0  0  0  0  0  0  0  0  0  0
   -8.7621   -0.9949    4.8849 N   0  0  0  0  0  0  0  0  0  0  0  0
   -7.4794    2.4969    3.3867 C   0  0  0  0  0  0  0  0  0  0  0  0
   -6.1397    2.7753    3.3888 C   0  0  0  0  0  0  0  0  0  0  0  0
   -5.7428    4.0972    3.7021 O   0  0  0  0  0  0  0  0  0  0  0  0
   -5.2777    1.7652    3.5903 C   0  0  0  0  0  0  0  0  0  0  0  0
   -3.9321    1.8898    3.1519 O   0  0  0  0  0  0  0  0  0  0  0  0
   -5.7045    0.6082    4.1333 C   0  0  0  0  0  0  0  0  0  0  0  0
  -10.9267   -0.2484    4.6765 N   0  0  0  0  0  0  0  0  0  0  0  0
  -11.4770    0.1920    5.8121 C   0  0  0  0  0  0  0  0  0  0  0  0
  -11.1930   -0.7854    6.9426 C   0  0  0  0  0  0  0  0  0  0  0  0
  -11.7411   -2.0148    6.6407 N   0  0  0  0  0  0  0  0  0  0  0  0
  -11.1276   -2.4626    5.4912 C   0  0  0  0  0  0  0  0  0  0  0  0
  -11.4134   -1.4905    4.3586 C   0  0  0  0  0  0  0  0  0  0  0  0
   -6.0225    4.9113    2.5920 C   0  0  0  0  0  0  0  0  0  0  0  0
   -3.8935    1.7126    1.7600 C   0  0  0  0  0  0  0  0  0  0  0  0
  1 14  1  0  0  0  0
  1  2  2  0  0  0  0
  3  2  1  0  0  0  0
  3  8  2  0  0  0  0
  4  3  1  0  0  0  0
  5  7  2  0  0  0  0
  5  4  1  0  0  0  0
  6  5  1  0  0  0  0
  7  1  1  0  0  0  0
  9 10  1  0  0  0  0
  9  8  1  0  0  0  0
 11  9  2  0  0  0  0
 12 11  1  0  0  0  0
 13  4  2  0  0  0  0
 13 11  1  0  0  0  0
 14 15  1  0  0  0  0
 16 15  1  0  0  0  0
 17 16  1  0  0  0  0
 18 17  1  0  0  0  0
 18 19  1  0  0  0  0
 19 14  1  0  0  0  0
 20 10  1  0  0  0  0
 21 12  1  0  0  0  0
M  END
>  <CHROM.1>
-84.97677579,-74.66603870,-76.27212815,-8.01168565,0.61112183,4.34388009
2.49658386,-0.24631914,2.87077435

>  <Name>
lig.pdb

>  <RI>
3.31914e+07

>  <Rbt.Current_Directory>
/home/itssahil/PROJECTS/Mol_Feturizer/New_Systems/rnas/2lwk

>  <Rbt.Executable>
rbdock ($Id: //depot/dev/client3/rdock/2013.1/src/exe/rbdock.cxx#4 $)

>  <Rbt.Library>
libRbt.so (2013.1, Build901 2013/11/27)

>  <Rbt.Parameter_File>
/export/apps/rDock/src/rDock_2013.1_src/data/scripts/dock_solv.prm

>  <Rbt.Receptor>
prm/pocket_docking_3.prm

>  <SCORE>
-10.9607

>  <SCORE.INTER>
-6.30899

>  <SCORE.INTER.CONST>
1

>  <SCORE.INTER.POLAR>
-0.987234

>  <SCORE.INTER.ROT>
3

>  <SCORE.INTER.SOLV>
6.47775

>  <SCORE.INTER.VDW>
-8.67446

>  <SCORE.INTER.norm>
-0.300428

>  <SCORE.INTRA>
-4.68536

>  <SCORE.INTRA.DIHEDRAL>
-0.106941

>  <SCORE.INTRA.DIHEDRAL.0>
8.84257

>  <SCORE.INTRA.POLAR>
0

>  <SCORE.INTRA.POLAR.0>
0

>  <SCORE.INTRA.REPUL>
0

>  <SCORE.INTRA.REPUL.0>
0

>  <SCORE.INTRA.SOLV>
0.060553

>  <SCORE.INTRA.SOLV.lig_0>
-17.1313

>  <SCORE.INTRA.VDW>
-4.66216

>  <SCORE.INTRA.VDW.0>
6.34071

>  <SCORE.INTRA.norm>
-0.223112

>  <SCORE.RESTR>
0.0336182

>  <SCORE.RESTR.CAVITY>
0.0336182

>  <SCORE.RESTR.norm>
0.00160087

>  <SCORE.SYSTEM>
0

>  <SCORE.SYSTEM.CONST>
0

>  <SCORE.SYSTEM.DIHEDRAL>
0

>  <SCORE.SYSTEM.SOLV>
0

>  <SCORE.SYSTEM.norm>
0

>  <SCORE.heavy>
21

>  <SCORE.norm>
-0.52194

>  <RMSD>
6.217

$$$$
lig.pdb
 OpenBabel11021811453D
libRbt.so/2013.1/901 2013/11/27
 21 23  0  0  0  0  0  0  0  0999 V2000
   -9.6380   -0.0418    4.5428 C   0  0  0  0  0  0  0  0  0  0  0  0
   -9.2077    1.1158    4.0540 N   0  0  0  0  0  0  0  0  0  0  0  0
   -7.9123    1.3326    3.9134 C   0  0  0  0  0  0  0  0  0  0  0  0
   -7.0268    0.4054    4.3310 C   0  0  0  0  0  0  0  0  0  0  0  0
   -7.4646   -0.7625    4.8201 C   0  0  0  0  0  0  0  0  0  0  0  0
   -6.5967   -1.6824    5.2399 N   0  0  0  0  0  0  0  0  0  0  0  0
   -8.7713   -0.9801    4.9265 N   0  0  0  0  0  0  0  0  0  0  0  0
   -7.4859    2.4969    3.3964 C   0  0  0  0  0  0  0  0  0  0  0  0
   -6.1487    2.7859    3.4200 C   0  0  0  0  0  0  0  0  0  0  0  0
   -5.7680    4.1158    3.7192 O   0  0  0  0  0  0  0  0  0  0  0  0
   -5.2831    1.7859    3.6548 C   0  0  0  0  0  0  0  0  0  0  0  0
   -3.9303    1.9140    3.2407 O   0  0  0  0  0  0  0  0  0  0  0  0
   -5.7118    0.6347    4.2084 C   0  0  0  0  0  0  0  0  0  0  0  0
  -10.9370   -0.2542    4.6638 N   0  0  0  0  0  0  0  0  0  0  0  0
  -11.5047    0.1618    5.8000 C   0  0  0  0  0  0  0  0  0  0  0  0
  -11.2322   -0.8362    6.9152 C   0  0  0  0  0  0  0  0  0  0  0  0
  -11.7708   -2.0617    6.5820 N   0  0  0  0  0  0  0  0  0  0  0  0
  -11.1397   -2.4846    5.4325 C   0  0  0  0  0  0  0  0  0  0  0  0
  -11.4140   -1.4918    4.3152 C   0  0  0  0  0  0  0  0  0  0  0  0
   -6.0246    4.9079    2.5879 C   0  0  0  0  0  0  0  0  0  0  0  0
   -3.8751    1.8078    1.8421 C   0  0  0  0  0  0  0  0  0  0  0  0
  1 14  1  0  0  0  0
  1  2  2  0  0  0  0
  3  2  1  0  0  0  0
  3  8  2  0  0  0  0
  4  3  1  0  0  0  0
  5  7  2  0  0  0  0
  5  4  1  0  0  0  0
  6  5  1  0  0  0  0
  7  1  1  0  0  0  0
  9 10  1  0  0  0  0
  9  8  1  0  0  0  0
 11  9  2  0  0  0  0
 12 11  1  0  0  0  0
 13  4  2  0  0  0  0
 13 11  1  0  0  0  0
 14 15  1  0  0  0  0
 16 15  1  0  0  0  0
 17 16  1  0  0  0  0
 18 17  1  0  0  0  0
 18 19  1  0  0  0  0
 19 14  1  0  0  0  0
 20 10  1  0  0  0  0
 21 12  1  0  0  0  0
M  END
>  <CHROM.1>
-87.06344165,-75.01324442,-72.18900742,-8.02203578,0.61760819,4.36441404
2.48797440,-0.21669072,2.85014995

>  <Name>
lig.pdb

>  <RI>
3.31914e+07

>  <Rbt.Current_Directory>
/home/itssahil/PROJECTS/Mol_Feturizer/New_Systems/rnas/2lwk

>  <Rbt.Executable>
rbdock ($Id: //depot/dev/client3/rdock/2013.1/src/exe/rbdock.cxx#4 $)

>  <Rbt.Library>
libRbt.so (2013.1, Build901 2013/11/27)

>  <Rbt.Parameter_File>
/export/apps/rDock/src/rDock_2013.1_src/data/scripts/dock_solv.prm

>  <Rbt.Receptor>
prm/pocket_docking_3.prm

>  <SCORE>
-10.866

>  <SCORE.INTER>
-6.15098

>  <SCORE.INTER.CONST>
1

>  <SCORE.INTER.POLAR>
-1.02474

>  <SCORE.INTER.ROT>
3

>  <SCORE.INTER.SOLV>
6.50157

>  <SCORE.INTER.VDW>
-8.45206

>  <SCORE.INTER.norm>
-0.292904

>  <SCORE.INTRA>
-4.72414

>  <SCORE.INTRA.DIHEDRAL>
-0.243518

>  <SCORE.INTRA.DIHEDRAL.0>
8.84257

>  <SCORE.INTRA.POLAR>
0

>  <SCORE.INTRA.POLAR.0>
0

>  <SCORE.INTRA.REPUL>
0

>  <SCORE.INTRA.REPUL.0>
0

>  <SCORE.INTRA.SOLV>
0.0658392

>  <SCORE.INTRA.SOLV.lig_0>
-17.1313

>  <SCORE.INTRA.VDW>
-4.6353

>  <SCORE.INTRA.VDW.0>
6.34071

>  <SCORE.INTRA.norm>
-0.224959

>  <SCORE.RESTR>
0.00913857

>  <SCORE.RESTR.CAVITY>
0.00913857

>  <SCORE.RESTR.norm>
0.00043517

>  <SCORE.SYSTEM>
0

>  <SCORE.SYSTEM.CONST>
0

>  <SCORE.SYSTEM.DIHEDRAL>
0

>  <SCORE.SYSTEM.SOLV>
0

>  <SCORE.SYSTEM.norm>
0

>  <SCORE.heavy>
21

>  <SCORE.norm>
-0.517428

>  <RMSD>
6.236

$$$$
lig.pdb
 OpenBabel11021811453D
libRbt.so/2013.1/901 2013/11/27
 21 23  0  0  0  0  0  0  0  0999 V2000
   -7.9043   -0.5742    5.3264 C   0  0  0  0  0  0  0  0  0  0  0  0
   -8.0844    0.6064    4.7449 N   0  0  0  0  0  0  0  0  0  0  0  0
   -7.0491    1.3940    4.5153 C   0  0  0  0  0  0  0  0  0  0  0  0
   -5.8207    1.0283    4.9340 C   0  0  0  0  0  0  0  0  0  0  0  0
   -5.6424   -0.1648    5.5168 C   0  0  0  0  0  0  0  0  0  0  0  0
   -4.4330   -0.5323    5.9384 N   0  0  0  0  0  0  0  0  0  0  0  0
   -6.6881   -0.9612    5.7132 N   0  0  0  0  0  0  0  0  0  0  0  0
   -7.2364    2.5764    3.9056 C   0  0  0  0  0  0  0  0  0  0  0  0
   -6.1945    3.4603    3.8326 C   0  0  0  0  0  0  0  0  0  0  0  0
   -6.4806    4.8324    4.0291 O   0  0  0  0  0  0  0  0  0  0  0  0
   -4.9537    3.0065    4.0749 C   0  0  0  0  0  0  0  0  0  0  0  0
   -3.8325    3.7212    3.5745 O   0  0  0  0  0  0  0  0  0  0  0  0
   -4.7737    1.8375    4.7204 C   0  0  0  0  0  0  0  0  0  0  0  0
   -8.9453   -1.3612    5.5365 N   0  0  0  0  0  0  0  0  0  0  0  0
   -9.4557   -1.9721    4.4630 C   0  0  0  0  0  0  0  0  0  0  0  0
  -10.3358   -1.0073    3.6829 C   0  0  0  0  0  0  0  0  0  0  0  0
  -11.3787   -0.5836    4.4804 N   0  0  0  0  0  0  0  0  0  0  0  0
  -10.8262    0.0771    5.5558 C   0  0  0  0  0  0  0  0  0  0  0  0
   -9.9500   -0.8856    6.3399 C   0  0  0  0  0  0  0  0  0  0  0  0
   -6.1950    5.5130    2.8340 C   0  0  0  0  0  0  0  0  0  0  0  0
   -3.4787    3.1873    2.3255 C   0  0  0  0  0  0  0  0  0  0  0  0
  1 14  1  0  0  0  0
  1  2  2  0  0  0  0
  3  2  1  0  0  0  0
  3  8  2  0  0  0  0
  4  3  1  0  0  0  0
  5  7  2  0  0  0  0
  5  4  1  0  0  0  0
  6  5  1  0  0  0  0
  7  1  1  0  0  0  0
  9 10  1  0  0  0  0
  9  8  1  0  0  0  0
 11  9  2  0  0  0  0
 12 11  1  0  0  0  0
 13  4  2  0  0  0  0
 13 11  1  0  0  0  0
 14 15  1  0  0  0  0
 16 15  1  0  0  0  0
 17 16  1  0  0  0  0
 18 17  1  0  0  0  0
 18 19  1  0  0  0  0
 19 14  1  0  0  0  0
 20 10  1  0  0  0  0
 21 12  1  0  0  0  0
M  END
>  <CHROM.1>
73.90082254,-115.99472049,-92.91405087,-7.12306686,1.13231832,4.55625999
-2.36262105,-0.08841391,-0.41162401

>  <Name>
lig.pdb

>  <RI>
3.31914e+07

>  <Rbt.Current_Directory>
/home/itssahil/PROJECTS/Mol_Feturizer/New_Systems/rnas/2lwk

>  <Rbt.Executable>
rbdock ($Id: //depot/dev/client3/rdock/2013.1/src/exe/rbdock.cxx#4 $)

>  <Rbt.Library>
libRbt.so (2013.1, Build901 2013/11/27)

>  <Rbt.Parameter_File>
/export/apps/rDock/src/rDock_2013.1_src/data/scripts/dock_solv.prm

>  <Rbt.Receptor>
prm/pocket_docking_3.prm

>  <SCORE>
-17.8138

>  <SCORE.INTER>
-12.6121

>  <SCORE.INTER.CONST>
1

>  <SCORE.INTER.POLAR>
-1.79162

>  <SCORE.INTER.ROT>
3

>  <SCORE.INTER.SOLV>
5.77734

>  <SCORE.INTER.VDW>
-9.96181

>  <SCORE.INTER.norm>
-0.600577

>  <SCORE.INTRA>
-5.20166

>  <SCORE.INTRA.DIHEDRAL>
0.731062

>  <SCORE.INTRA.DIHEDRAL.0>
8.84257

>  <SCORE.INTRA.POLAR>
0

>  <SCORE.INTRA.POLAR.0>
0

>  <SCORE.INTRA.REPUL>
0

>  <SCORE.INTRA.REPUL.0>
0

>  <SCORE.INTRA.SOLV>
0.108653

>  <SCORE.INTRA.SOLV.lig_0>
-17.1313

>  <SCORE.INTRA.VDW>
-5.62152

>  <SCORE.INTRA.VDW.0>
6.34071

>  <SCORE.INTRA.norm>
-0.247698

>  <SCORE.RESTR>
0

>  <SCORE.RESTR.CAVITY>
0

>  <SCORE.RESTR.norm>
0

>  <SCORE.SYSTEM>
0

>  <SCORE.SYSTEM.CONST>
0

>  <SCORE.SYSTEM.DIHEDRAL>
0

>  <SCORE.SYSTEM.SOLV>
0

>  <SCORE.SYSTEM.norm>
0

>  <SCORE.heavy>
21

>  <SCORE.norm>
-0.848275

>  <RMSD>
6.251

$$$$
lig.pdb
 OpenBabel11021811453D
libRbt.so/2013.1/901 2013/11/27
 21 23  0  0  0  0  0  0  0  0999 V2000
  -11.6820   -2.7052    5.6188 C   0  0  0  0  0  0  0  0  0  0  0  0
  -11.6961   -3.9502    6.0815 N   0  0  0  0  0  0  0  0  0  0  0  0
  -10.9649   -4.8809    5.4950 C   0  0  0  0  0  0  0  0  0  0  0  0
  -10.2594   -4.5811    4.3857 C   0  0  0  0  0  0  0  0  0  0  0  0
  -10.2447   -3.3235    3.9241 C   0  0  0  0  0  0  0  0  0  0  0  0
   -9.5545   -3.0193    2.8257 N   0  0  0  0  0  0  0  0  0  0  0  0
  -10.9600   -2.3897    4.5428 N   0  0  0  0  0  0  0  0  0  0  0  0
  -10.9665   -6.1325    5.9832 C   0  0  0  0  0  0  0  0  0  0  0  0
  -10.3531   -7.1261    5.2700 C   0  0  0  0  0  0  0  0  0  0  0  0
  -10.9905   -8.3887    5.2184 O   0  0  0  0  0  0  0  0  0  0  0  0
   -9.5049   -6.7776    4.2885 C   0  0  0  0  0  0  0  0  0  0  0  0
   -8.5197   -7.7016    3.8483 O   0  0  0  0  0  0  0  0  0  0  0  0
   -9.5348   -5.5310    3.7779 C   0  0  0  0  0  0  0  0  0  0  0  0
  -12.4048   -1.7784    6.2235 N   0  0  0  0  0  0  0  0  0  0  0  0
  -11.7350   -0.7412    6.7352 C   0  0  0  0  0  0  0  0  0  0  0  0
  -11.1096   -1.1296    8.0664 C   0  0  0  0  0  0  0  0  0  0  0  0
  -12.1004   -1.4904    8.9559 N   0  0  0  0  0  0  0  0  0  0  0  0
  -12.7465   -2.5846    8.4235 C   0  0  0  0  0  0  0  0  0  0  0  0
  -13.3764   -2.1984    7.0956 C   0  0  0  0  0  0  0  0  0  0  0  0
  -11.9023   -8.3737    4.1500 C   0  0  0  0  0  0  0  0  0  0  0  0
   -7.5048   -7.7730    4.8154 C   0  0  0  0  0  0  0  0  0  0  0  0
  1 14  1  0  0  0  0
  1  2  2  0  0  0  0
  3  2  1  0  0  0  0
  3  8  2  0  0  0  0
  4  3  1  0  0  0  0
  5  7  2  0  0  0  0
  5  4  1  0  0  0  0
  6  5  1  0  0  0  0
  7  1  1  0  0  0  0
  9 10  1  0  0  0  0
  9  8  1  0  0  0  0
 11  9  2  0  0  0  0
 12 11  1  0  0  0  0
 13  4  2  0  0  0  0
 13 11  1  0  0  0  0
 14 15  1  0  0  0  0
 16 15  1  0  0  0  0
 17 16  1  0  0  0  0
 18 17  1  0  0  0  0
 18 19  1  0  0  0  0
 19 14  1  0  0  0  0
 20 10  1  0  0  0  0
 21 12  1  0  0  0  0
M  END
>  <CHROM.1>
119.19894720,86.82173994,-74.55493800,-10.85373604,-4.43054650,5.51489168
-2.21393978,-0.92889688,3.07309811

>  <Name>
lig.pdb

>  <RI>
2.98315e+07

>  <Rbt.Current_Directory>
/home/itssahil/PROJECTS/Mol_Feturizer/New_Systems/rnas/2lwk

>  <Rbt.Executable>
rbdock ($Id: //depot/dev/client3/rdock/2013.1/src/exe/rbdock.cxx#4 $)

>  <Rbt.Library>
libRbt.so (2013.1, Build901 2013/11/27)

>  <Rbt.Parameter_File>
/export/apps/rDock/src/rDock_2013.1_src/data/scripts/dock_solv.prm

>  <Rbt.Receptor>
prm/pocket_docking_5.prm

>  <SCORE>
-15.3195

>  <SCORE.INTER>
-12.3048

>  <SCORE.INTER.CONST>
1

>  <SCORE.INTER.POLAR>
-1.42913

>  <SCORE.INTER.ROT>
3

>  <SCORE.INTER.SOLV>
6.2072

>  <SCORE.INTER.VDW>
-11.1085

>  <SCORE.INTER.norm>
-0.585945

>  <SCORE.INTRA>
-3.01462

>  <SCORE.INTRA.DIHEDRAL>
0.644676

>  <SCORE.INTRA.DIHEDRAL.0>
8.84257

>  <SCORE.INTRA.POLAR>
0

>  <SCORE.INTRA.POLAR.0>
0

>  <SCORE.INTRA.REPUL>
0

>  <SCORE.INTRA.REPUL.0>
0

>  <SCORE.INTRA.SOLV>
0.019296

>  <SCORE.INTRA.SOLV.lig_0>
-17.1313

>  <SCORE.INTRA.VDW>
-3.3466

>  <SCORE.INTRA.VDW.0>
6.34071

>  <SCORE.INTRA.norm>
-0.143553

>  <SCORE.RESTR>
0

>  <SCORE.RESTR.CAVITY>
0

>  <SCORE.RESTR.norm>
0

>  <SCORE.SYSTEM>
0

>  <SCORE.SYSTEM.CONST>
0

>  <SCORE.SYSTEM.DIHEDRAL>
0

>  <SCORE.SYSTEM.SOLV>
0

>  <SCORE.SYSTEM.norm>
0

>  <SCORE.heavy>
21

>  <SCORE.norm>
-0.729498

>  <RMSD>
6.262

$$$$
lig.pdb
 OpenBabel11021811453D
libRbt.so/2013.1/901 2013/11/27
 21 23  0  0  0  0  0  0  0  0999 V2000
   -9.2581   -5.5315    4.0803 C   0  0  0  0  0  0  0  0  0  0  0  0
   -9.2770   -4.4236    4.8128 N   0  0  0  0  0  0  0  0  0  0  0  0
  -10.4275   -3.8424    5.1013 C   0  0  0  0  0  0  0  0  0  0  0  0
  -11.5753   -4.3357    4.5938 C   0  0  0  0  0  0  0  0  0  0  0  0
  -11.5526   -5.4553    3.8585 C   0  0  0  0  0  0  0  0  0  0  0  0
  -12.6814   -5.9469    3.3488 N   0  0  0  0  0  0  0  0  0  0  0  0
  -10.3910   -6.0479    3.6023 N   0  0  0  0  0  0  0  0  0  0  0  0
  -10.4400   -2.7354    5.8622 C   0  0  0  0  0  0  0  0  0  0  0  0
  -11.6096   -2.0403    6.0073 C   0  0  0  0  0  0  0  0  0  0  0  0
  -11.5407   -0.6267    5.9968 O   0  0  0  0  0  0  0  0  0  0  0  0
  -12.7588   -2.6448    5.6633 C   0  0  0  0  0  0  0  0  0  0  0  0
  -13.9873   -2.1837    6.2077 O   0  0  0  0  0  0  0  0  0  0  0  0
  -12.7405   -3.7329    4.8688 C   0  0  0  0  0  0  0  0  0  0  0  0
   -8.1023   -6.1138    3.8114 N   0  0  0  0  0  0  0  0  0  0  0  0
   -7.6494   -6.9845    4.7186 C   0  0  0  0  0  0  0  0  0  0  0  0
   -7.0104   -6.2410    5.8817 C   0  0  0  0  0  0  0  0  0  0  0  0
   -5.9446   -5.4940    5.4244 N   0  0  0  0  0  0  0  0  0  0  0  0
   -6.4454   -4.5795    4.5236 C   0  0  0  0  0  0  0  0  0  0  0  0
   -7.0804   -5.3194    3.3580 C   0  0  0  0  0  0  0  0  0  0  0  0
  -11.5679   -0.1789    7.3279 C   0  0  0  0  0  0  0  0  0  0  0  0
  -14.1830   -2.7923    7.4573 C   0  0  0  0  0  0  0  0  0  0  0  0
  1 14  1  0  0  0  0
  1  2  2  0  0  0  0
  3  2  1  0  0  0  0
  3  8  2  0  0  0  0
  4  3  1  0  0  0  0
  5  7  2  0  0  0  0
  5  4  1  0  0  0  0
  6  5  1  0  0  0  0
  7  1  1  0  0  0  0
  9 10  1  0  0  0  0
  9  8  1  0  0  0  0
 11  9  2  0  0  0  0
 12 11  1  0  0  0  0
 13  4  2  0  0  0  0
 13 11  1  0  0  0  0
 14 15  1  0  0  0  0
 16 15  1  0  0  0  0
 17 16  1  0  0  0  0
 18 17  1  0  0  0  0
 18 19  1  0  0  0  0
 19 14  1  0  0  0  0
 20 10  1  0  0  0  0
 21 12  1  0  0  0  0
M  END
>  <CHROM.1>
86.67452701,-99.20281588,-84.93142838,-10.30307535,-4.13227633,5.09518802
0.64635539,0.09279851,-2.57981311

>  <Name>
lig.pdb

>  <RI>
2.98315e+07

>  <Rbt.Current_Directory>
/home/itssahil/PROJECTS/Mol_Feturizer/New_Systems/rnas/2lwk

>  <Rbt.Executable>
rbdock ($Id: //depot/dev/client3/rdock/2013.1/src/exe/rbdock.cxx#4 $)

>  <Rbt.Library>
libRbt.so (2013.1, Build901 2013/11/27)

>  <Rbt.Parameter_File>
/export/apps/rDock/src/rDock_2013.1_src/data/scripts/dock_solv.prm

>  <Rbt.Receptor>
prm/pocket_docking_5.prm

>  <SCORE>
-21.2109

>  <SCORE.INTER>
-15.9991

>  <SCORE.INTER.CONST>
1

>  <SCORE.INTER.POLAR>
-1.97013

>  <SCORE.INTER.ROT>
3

>  <SCORE.INTER.SOLV>
6.67612

>  <SCORE.INTER.VDW>
-11.9244

>  <SCORE.INTER.norm>
-0.761862

>  <SCORE.INTRA>
-5.21181

>  <SCORE.INTRA.DIHEDRAL>
0.982417

>  <SCORE.INTRA.DIHEDRAL.0>
8.84257

>  <SCORE.INTRA.POLAR>
0

>  <SCORE.INTRA.POLAR.0>
0

>  <SCORE.INTRA.REPUL>
0

>  <SCORE.INTRA.REPUL.0>
0

>  <SCORE.INTRA.SOLV>
0.0862041

>  <SCORE.INTRA.SOLV.lig_0>
-17.1313

>  <SCORE.INTRA.VDW>
-5.74613

>  <SCORE.INTRA.VDW.0>
6.34071

>  <SCORE.INTRA.norm>
-0.248182

>  <SCORE.RESTR>
0

>  <SCORE.RESTR.CAVITY>
0

>  <SCORE.RESTR.norm>
0

>  <SCORE.SYSTEM>
0

>  <SCORE.SYSTEM.CONST>
0

>  <SCORE.SYSTEM.DIHEDRAL>
0

>  <SCORE.SYSTEM.SOLV>
0

>  <SCORE.SYSTEM.norm>
0

>  <SCORE.heavy>
21

>  <SCORE.norm>
-1.01004

>  <RMSD>
6.285

$$$$
lig.pdb
 OpenBabel11021811453D
libRbt.so/2013.1/901 2013/11/27
 21 23  0  0  0  0  0  0  0  0999 V2000
   -7.9826   -0.5914    5.3637 C   0  0  0  0  0  0  0  0  0  0  0  0
   -8.1548    0.5905    4.7824 N   0  0  0  0  0  0  0  0  0  0  0  0
   -7.1115    1.3603    4.5298 C   0  0  0  0  0  0  0  0  0  0  0  0
   -5.8812    0.9755    4.9251 C   0  0  0  0  0  0  0  0  0  0  0  0
   -5.7109   -0.2188    5.5078 C   0  0  0  0  0  0  0  0  0  0  0  0
   -4.4995   -0.6050    5.9063 N   0  0  0  0  0  0  0  0  0  0  0  0
   -6.7654   -0.9974    5.7274 N   0  0  0  0  0  0  0  0  0  0  0  0
   -7.2916    2.5439    3.9204 C   0  0  0  0  0  0  0  0  0  0  0  0
   -6.2370    3.4104    3.8241 C   0  0  0  0  0  0  0  0  0  0  0  0
   -6.4965    4.7876    4.0222 O   0  0  0  0  0  0  0  0  0  0  0  0
   -4.9992    2.9369    4.0429 C   0  0  0  0  0  0  0  0  0  0  0  0
   -3.8766    3.6317    3.5182 O   0  0  0  0  0  0  0  0  0  0  0  0
   -4.8255    1.7668    4.6882 C   0  0  0  0  0  0  0  0  0  0  0  0
   -9.0319   -1.3606    5.5968 N   0  0  0  0  0  0  0  0  0  0  0  0
   -9.5531   -1.9923    4.5406 C   0  0  0  0  0  0  0  0  0  0  0  0
  -10.4247   -1.0371    3.7394 C   0  0  0  0  0  0  0  0  0  0  0  0
  -11.4598   -0.5812    4.5292 N   0  0  0  0  0  0  0  0  0  0  0  0
  -10.8958    0.0997    5.5859 C   0  0  0  0  0  0  0  0  0  0  0  0
  -10.0282   -0.8532    6.3912 C   0  0  0  0  0  0  0  0  0  0  0  0
   -6.1816    5.4661    2.8333 C   0  0  0  0  0  0  0  0  0  0  0  0
   -3.0470    4.0169    4.5830 C   0  0  0  0  0  0  0  0  0  0  0  0
  1 14  1  0  0  0  0
  1  2  2  0  0  0  0
  3  2  1  0  0  0  0
  3  8  2  0  0  0  0
  4  3  1  0  0  0  0
  5  7  2  0  0  0  0
  5  4  1  0  0  0  0
  6  5  1  0  0  0  0
  7  1  1  0  0  0  0
  9 10  1  0  0  0  0
  9  8  1  0  0  0  0
 11  9  2  0  0  0  0
 12 11  1  0  0  0  0
 13  4  2  0  0  0  0
 13 11  1  0  0  0  0
 14 15  1  0  0  0  0
 16 15  1  0  0  0  0
 17 16  1  0  0  0  0
 18 17  1  0  0  0  0
 18 19  1  0  0  0  0
 19 14  1  0  0  0  0
 20 10  1  0  0  0  0
 21 12  1  0  0  0  0
M  END
>  <CHROM.1>
75.51737862,-117.91066320,120.08715099,-7.15836198,1.14327162,4.68560242
-2.39130822,-0.14334009,-0.39100840

>  <Name>
lig.pdb

>  <RI>
3.31914e+07

>  <Rbt.Current_Directory>
/home/itssahil/PROJECTS/Mol_Feturizer/New_Systems/rnas/2lwk

>  <Rbt.Executable>
rbdock ($Id: //depot/dev/client3/rdock/2013.1/src/exe/rbdock.cxx#4 $)

>  <Rbt.Library>
libRbt.so (2013.1, Build901 2013/11/27)

>  <Rbt.Parameter_File>
/export/apps/rDock/src/rDock_2013.1_src/data/scripts/dock_solv.prm

>  <Rbt.Receptor>
prm/pocket_docking_3.prm

>  <SCORE>
-17.1782

>  <SCORE.INTER>
-13.0657

>  <SCORE.INTER.CONST>
1

>  <SCORE.INTER.POLAR>
-1.79494

>  <SCORE.INTER.ROT>
3

>  <SCORE.INTER.SOLV>
5.94301

>  <SCORE.INTER.VDW>
-10.3083

>  <SCORE.INTER.norm>
-0.622176

>  <SCORE.INTRA>
-4.74657

>  <SCORE.INTRA.DIHEDRAL>
-0.370725

>  <SCORE.INTRA.DIHEDRAL.0>
8.84257

>  <SCORE.INTRA.POLAR>
0

>  <SCORE.INTRA.POLAR.0>
0

>  <SCORE.INTRA.REPUL>
0

>  <SCORE.INTRA.REPUL.0>
0

>  <SCORE.INTRA.SOLV>
0.139948

>  <SCORE.INTRA.SOLV.lig_0>
-17.1313

>  <SCORE.INTRA.VDW>
-4.63118

>  <SCORE.INTRA.VDW.0>
6.34071

>  <SCORE.INTRA.norm>
-0.226027

>  <SCORE.RESTR>
0.634055

>  <SCORE.RESTR.CAVITY>
0.634055

>  <SCORE.RESTR.norm>
0.0301931

>  <SCORE.SYSTEM>
0

>  <SCORE.SYSTEM.CONST>
0

>  <SCORE.SYSTEM.DIHEDRAL>
0

>  <SCORE.SYSTEM.SOLV>
0

>  <SCORE.SYSTEM.norm>
0

>  <SCORE.heavy>
21

>  <SCORE.norm>
-0.81801

>  <RMSD>
6.325

$$$$
lig.pdb
 OpenBabel11021811453D
libRbt.so/2013.1/901 2013/11/27
 21 23  0  0  0  0  0  0  0  0999 V2000
  -10.7118   -4.0939    3.7663 C   0  0  0  0  0  0  0  0  0  0  0  0
   -9.5231   -4.4781    4.2175 N   0  0  0  0  0  0  0  0  0  0  0  0
   -9.2253   -5.7633    4.2822 C   0  0  0  0  0  0  0  0  0  0  0  0
  -10.1534   -6.6853    3.9556 C   0  0  0  0  0  0  0  0  0  0  0  0
  -11.3500   -6.2940    3.4974 C   0  0  0  0  0  0  0  0  0  0  0  0
  -12.2750   -7.1981    3.1772 N   0  0  0  0  0  0  0  0  0  0  0  0
  -11.6253   -4.9969    3.4073 N   0  0  0  0  0  0  0  0  0  0  0  0
   -8.0124   -6.1430    4.7176 C   0  0  0  0  0  0  0  0  0  0  0  0
   -7.7743   -7.4699    4.9514 C   0  0  0  0  0  0  0  0  0  0  0  0
   -7.0068   -7.8099    6.0909 O   0  0  0  0  0  0  0  0  0  0  0  0
   -8.6295   -8.3718    4.4421 C   0  0  0  0  0  0  0  0  0  0  0  0
   -8.2049   -9.7137    4.2486 O   0  0  0  0  0  0  0  0  0  0  0  0
   -9.8582   -7.9900    4.0422 C   0  0  0  0  0  0  0  0  0  0  0  0
  -10.9931   -2.8046    3.6904 N   0  0  0  0  0  0  0  0  0  0  0  0
  -10.1724   -2.0595    2.9437 C   0  0  0  0  0  0  0  0  0  0  0  0
   -8.9037   -1.7424    3.7208 C   0  0  0  0  0  0  0  0  0  0  0  0
   -9.2232   -1.0317    4.8592 N   0  0  0  0  0  0  0  0  0  0  0  0
  -10.0346   -1.8376    5.6276 C   0  0  0  0  0  0  0  0  0  0  0  0
  -11.3052   -2.1523    4.8557 C   0  0  0  0  0  0  0  0  0  0  0  0
   -5.6893   -8.0579    5.6713 C   0  0  0  0  0  0  0  0  0  0  0  0
   -8.6915  -10.4973    5.3066 C   0  0  0  0  0  0  0  0  0  0  0  0
  1 14  1  0  0  0  0
  1  2  2  0  0  0  0
  3  2  1  0  0  0  0
  3  8  2  0  0  0  0
  4  3  1  0  0  0  0
  5  7  2  0  0  0  0
  5  4  1  0  0  0  0
  6  5  1  0  0  0  0
  7  1  1  0  0  0  0
  9 10  1  0  0  0  0
  9  8  1  0  0  0  0
 11  9  2  0  0  0  0
 12 11  1  0  0  0  0
 13  4  2  0  0  0  0
 13 11  1  0  0  0  0
 14 15  1  0  0  0  0
 16 15  1  0  0  0  0
 17 16  1  0  0  0  0
 18 17  1  0  0  0  0
 18 19  1  0  0  0  0
 19 14  1  0  0  0  0
 20 10  1  0  0  0  0
 21 12  1  0  0  0  0
M  END
>  <CHROM.1>
57.60890459,-99.50724397,100.55796870,-9.47071712,-5.59802727,4.37574053
1.92139255,-0.42238937,0.03611407

>  <Name>
lig.pdb

>  <RI>
2.20372e+07

>  <Rbt.Current_Directory>
/home/itssahil/PROJECTS/Mol_Feturizer/New_Systems/rnas/2lwk

>  <Rbt.Executable>
rbdock ($Id: //depot/dev/client3/rdock/2013.1/src/exe/rbdock.cxx#4 $)

>  <Rbt.Library>
libRbt.so (2013.1, Build901 2013/11/27)

>  <Rbt.Parameter_File>
/export/apps/rDock/src/rDock_2013.1_src/data/scripts/dock_solv.prm

>  <Rbt.Receptor>
prm/pocket_docking_7.prm

>  <SCORE>
-21.8313

>  <SCORE.INTER>
-16.5557

>  <SCORE.INTER.CONST>
1

>  <SCORE.INTER.POLAR>
-1.76056

>  <SCORE.INTER.ROT>
3

>  <SCORE.INTER.SOLV>
7.12835

>  <SCORE.INTER.VDW>
-13.1447

>  <SCORE.INTER.norm>
-0.788365

>  <SCORE.INTRA>
-5.27566

>  <SCORE.INTRA.DIHEDRAL>
0.905338

>  <SCORE.INTRA.DIHEDRAL.0>
8.84257

>  <SCORE.INTRA.POLAR>
0

>  <SCORE.INTRA.POLAR.0>
0

>  <SCORE.INTRA.REPUL>
0

>  <SCORE.INTRA.REPUL.0>
0

>  <SCORE.INTRA.SOLV>
0.139659

>  <SCORE.INTRA.SOLV.lig_0>
-17.1313

>  <SCORE.INTRA.VDW>
-5.79815

>  <SCORE.INTRA.VDW.0>
6.34071

>  <SCORE.INTRA.norm>
-0.251222

>  <SCORE.RESTR>
0

>  <SCORE.RESTR.CAVITY>
0

>  <SCORE.RESTR.norm>
0

>  <SCORE.SYSTEM>
0

>  <SCORE.SYSTEM.CONST>
0

>  <SCORE.SYSTEM.DIHEDRAL>
0

>  <SCORE.SYSTEM.SOLV>
0

>  <SCORE.SYSTEM.norm>
0

>  <SCORE.heavy>
21

>  <SCORE.norm>
-1.03959

>  <RMSD>
6.338

$$$$
lig.pdb
 OpenBabel11021811453D
libRbt.so/2013.1/901 2013/11/27
 21 23  0  0  0  0  0  0  0  0999 V2000
  -10.2302   -4.0000    3.4353 C   0  0  0  0  0  0  0  0  0  0  0  0
   -9.6961   -5.1817    3.7229 N   0  0  0  0  0  0  0  0  0  0  0  0
  -10.4729   -6.2407    3.8640 C   0  0  0  0  0  0  0  0  0  0  0  0
  -11.8123   -6.1068    3.7844 C   0  0  0  0  0  0  0  0  0  0  0  0
  -12.3472   -4.9141    3.4907 C   0  0  0  0  0  0  0  0  0  0  0  0
  -13.6699   -4.7716    3.4151 N   0  0  0  0  0  0  0  0  0  0  0  0
  -11.5518   -3.8632    3.3197 N   0  0  0  0  0  0  0  0  0  0  0  0
   -9.9230   -7.4368    4.1316 C   0  0  0  0  0  0  0  0  0  0  0  0
  -10.7385   -8.4876    4.4526 C   0  0  0  0  0  0  0  0  0  0  0  0
  -10.3113   -9.3622    5.4800 O   0  0  0  0  0  0  0  0  0  0  0  0
  -12.0498   -8.3851    4.1799 C   0  0  0  0  0  0  0  0  0  0  0  0
  -12.8364   -9.5612    4.0524 O   0  0  0  0  0  0  0  0  0  0  0  0
  -12.6015   -7.1776    3.9494 C   0  0  0  0  0  0  0  0  0  0  0  0
   -9.4420   -2.9504    3.2801 N   0  0  0  0  0  0  0  0  0  0  0  0
   -8.5334   -2.7417    4.2378 C   0  0  0  0  0  0  0  0  0  0  0  0
   -9.1868   -2.0799    5.4415 C   0  0  0  0  0  0  0  0  0  0  0  0
   -9.7160   -0.8613    5.0697 N   0  0  0  0  0  0  0  0  0  0  0  0
  -10.6763   -1.1096    4.1134 C   0  0  0  0  0  0  0  0  0  0  0  0
  -10.0257   -1.7666    2.9075 C   0  0  0  0  0  0  0  0  0  0  0  0
   -9.2175  -10.1001    4.9979 C   0  0  0  0  0  0  0  0  0  0  0  0
  -13.3572   -9.6159    2.7500 C   0  0  0  0  0  0  0  0  0  0  0  0
  1 14  1  0  0  0  0
  1  2  2  0  0  0  0
  3  2  1  0  0  0  0
  3  8  2  0  0  0  0
  4  3  1  0  0  0  0
  5  7  2  0  0  0  0
  5  4  1  0  0  0  0
  6  5  1  0  0  0  0
  7  1  1  0  0  0  0
  9 10  1  0  0  0  0
  9  8  1  0  0  0  0
 11  9  2  0  0  0  0
 12 11  1  0  0  0  0
 13  4  2  0  0  0  0
 13 11  1  0  0  0  0
 14 15  1  0  0  0  0
 16 15  1  0  0  0  0
 17 16  1  0  0  0  0
 18 17  1  0  0  0  0
 18 19  1  0  0  0  0
 19 14  1  0  0  0  0
 20 10  1  0  0  0  0
 21 12  1  0  0  0  0
M  END
>  <CHROM.1>
-49.26008494,-70.16756460,-118.18281014,-10.88572620,-5.57123000,4.01749770
-1.31771313,0.36043008,3.03861117

>  <Name>
lig.pdb

>  <RI>
2.59814e+07

>  <Rbt.Current_Directory>
/home/itssahil/PROJECTS/Mol_Feturizer/New_Systems/rnas/2lwk

>  <Rbt.Executable>
rbdock ($Id: //depot/dev/client3/rdock/2013.1/src/exe/rbdock.cxx#4 $)

>  <Rbt.Library>
libRbt.so (2013.1, Build901 2013/11/27)

>  <Rbt.Parameter_File>
/export/apps/rDock/src/rDock_2013.1_src/data/scripts/dock_solv.prm

>  <Rbt.Receptor>
prm/pocket_docking_6.prm

>  <SCORE>
-22.9361

>  <SCORE.INTER>
-20.6573

>  <SCORE.INTER.CONST>
1

>  <SCORE.INTER.POLAR>
-2.3726

>  <SCORE.INTER.ROT>
3

>  <SCORE.INTER.SOLV>
8.94683

>  <SCORE.INTER.VDW>
-14.4452

>  <SCORE.INTER.norm>
-0.983683

>  <SCORE.INTRA>
-2.27885

>  <SCORE.INTRA.DIHEDRAL>
-1.42321

>  <SCORE.INTRA.DIHEDRAL.0>
8.84257

>  <SCORE.INTRA.POLAR>
0

>  <SCORE.INTRA.POLAR.0>
0

>  <SCORE.INTRA.REPUL>
0

>  <SCORE.INTRA.REPUL.0>
0

>  <SCORE.INTRA.SOLV>
-0.0408428

>  <SCORE.INTRA.SOLV.lig_0>
-17.1313

>  <SCORE.INTRA.VDW>
-1.54683

>  <SCORE.INTRA.VDW.0>
6.34071

>  <SCORE.INTRA.norm>
-0.108517

>  <SCORE.RESTR>
7.16095e-05

>  <SCORE.RESTR.CAVITY>
7.16095e-05

>  <SCORE.RESTR.norm>
3.40997e-06

>  <SCORE.SYSTEM>
0

>  <SCORE.SYSTEM.CONST>
0

>  <SCORE.SYSTEM.DIHEDRAL>
0

>  <SCORE.SYSTEM.SOLV>
0

>  <SCORE.SYSTEM.norm>
0

>  <SCORE.heavy>
21

>  <SCORE.norm>
-1.0922

>  <RMSD>
6.347

$$$$
lig.pdb
 OpenBabel11021811453D
libRbt.so/2013.1/901 2013/11/27
 21 23  0  0  0  0  0  0  0  0999 V2000
   -7.7518   -0.5231    5.7091 C   0  0  0  0  0  0  0  0  0  0  0  0
   -7.8246    0.6777    5.1460 N   0  0  0  0  0  0  0  0  0  0  0  0
   -6.7299    1.3995    4.9864 C   0  0  0  0  0  0  0  0  0  0  0  0
   -5.5510    0.9455    5.4580 C   0  0  0  0  0  0  0  0  0  0  0  0
   -5.4809   -0.2676    6.0220 C   0  0  0  0  0  0  0  0  0  0  0  0
   -4.3212   -0.7221    6.4955 N   0  0  0  0  0  0  0  0  0  0  0  0
   -6.5848   -0.9969    6.1478 N   0  0  0  0  0  0  0  0  0  0  0  0
   -6.8083    2.6030    4.3947 C   0  0  0  0  0  0  0  0  0  0  0  0
   -5.7088    3.4175    4.3940 C   0  0  0  0  0  0  0  0  0  0  0  0
   -5.9150    4.8015    4.6067 O   0  0  0  0  0  0  0  0  0  0  0  0
   -4.5142    2.8783    4.6880 C   0  0  0  0  0  0  0  0  0  0  0  0
   -3.3247    3.5268    4.2607 O   0  0  0  0  0  0  0  0  0  0  0  0
   -4.4441    1.6878    5.3153 C   0  0  0  0  0  0  0  0  0  0  0  0
   -8.8511   -1.2436    5.8490 N   0  0  0  0  0  0  0  0  0  0  0  0
   -9.2068   -1.9956    4.8030 C   0  0  0  0  0  0  0  0  0  0  0  0
   -9.8966   -1.1370    3.7538 C   0  0  0  0  0  0  0  0  0  0  0  0
  -11.0346   -0.5727    4.2921 N   0  0  0  0  0  0  0  0  0  0  0  0
  -10.6352    0.2277    5.3400 C   0  0  0  0  0  0  0  0  0  0  0  0
   -9.9498   -0.6281    6.3922 C   0  0  0  0  0  0  0  0  0  0  0  0
   -5.9931    5.4286    3.3522 C   0  0  0  0  0  0  0  0  0  0  0  0
   -2.9993    3.0694    2.9742 C   0  0  0  0  0  0  0  0  0  0  0  0
  1 14  1  0  0  0  0
  1  2  2  0  0  0  0
  3  2  1  0  0  0  0
  3  8  2  0  0  0  0
  4  3  1  0  0  0  0
  5  7  2  0  0  0  0
  5  4  1  0  0  0  0
  6  5  1  0  0  0  0
  7  1  1  0  0  0  0
  9 10  1  0  0  0  0
  9  8  1  0  0  0  0
 11  9  2  0  0  0  0
 12 11  1  0  0  0  0
 13  4  2  0  0  0  0
 13 11  1  0  0  0  0
 14 15  1  0  0  0  0
 16 15  1  0  0  0  0
 17 16  1  0  0  0  0
 18 17  1  0  0  0  0
 18 19  1  0  0  0  0
 19 14  1  0  0  0  0
 20 10  1  0  0  0  0
 21 12  1  0  0  0  0
M  END
>  <CHROM.1>
85.82350609,-95.26310810,-88.41939245,-6.82981036,1.10113453,4.95111144,-2.42756229
-0.15728426,-0.40251851

>  <Name>
lig.pdb

>  <RI>
1.4775e+07

>  <Rbt.Current_Directory>
/home/itssahil/PROJECTS/Mol_Feturizer/New_Systems/rnas/2lwk

>  <Rbt.Executable>
rbdock ($Id: //depot/dev/client3/rdock/2013.1/src/exe/rbdock.cxx#4 $)

>  <Rbt.Library>
libRbt.so (2013.1, Build901 2013/11/27)

>  <Rbt.Parameter_File>
/export/apps/rDock/src/rDock_2013.1_src/data/scripts/dock_solv.prm

>  <Rbt.Receptor>
prm/pocket_docking_4.prm

>  <SCORE>
-20.0935

>  <SCORE.INTER>
-14.884

>  <SCORE.INTER.CONST>
1

>  <SCORE.INTER.POLAR>
-2.50304

>  <SCORE.INTER.ROT>
3

>  <SCORE.INTER.SOLV>
5.23153

>  <SCORE.INTER.VDW>
-8.92305

>  <SCORE.INTER.norm>
-0.708762

>  <SCORE.INTRA>
-5.2095

>  <SCORE.INTRA.DIHEDRAL>
0.944516

>  <SCORE.INTRA.DIHEDRAL.0>
8.84257

>  <SCORE.INTRA.POLAR>
0

>  <SCORE.INTRA.POLAR.0>
0

>  <SCORE.INTRA.REPUL>
0

>  <SCORE.INTRA.REPUL.0>
0

>  <SCORE.INTRA.SOLV>
0.0811491

>  <SCORE.INTRA.SOLV.lig_0>
-17.1313

>  <SCORE.INTRA.VDW>
-5.72233

>  <SCORE.INTRA.VDW.0>
6.34071

>  <SCORE.INTRA.norm>
-0.248071

>  <SCORE.RESTR>
0

>  <SCORE.RESTR.CAVITY>
0

>  <SCORE.RESTR.norm>
0

>  <SCORE.SYSTEM>
0

>  <SCORE.SYSTEM.CONST>
0

>  <SCORE.SYSTEM.DIHEDRAL>
0

>  <SCORE.SYSTEM.SOLV>
0

>  <SCORE.SYSTEM.norm>
0

>  <SCORE.heavy>
21

>  <SCORE.norm>
-0.956833

>  <RMSD>
6.363

$$$$
lig.pdb
 OpenBabel11021811453D
libRbt.so/2013.1/901 2013/11/27
 21 23  0  0  0  0  0  0  0  0999 V2000
  -10.5375   -3.9195    4.5098 C   0  0  0  0  0  0  0  0  0  0  0  0
   -9.9670   -5.1190    4.5073 N   0  0  0  0  0  0  0  0  0  0  0  0
  -10.6503   -6.1742    4.1016 C   0  0  0  0  0  0  0  0  0  0  0  0
  -11.9472   -6.0429    3.7565 C   0  0  0  0  0  0  0  0  0  0  0  0
  -12.5180   -4.8309    3.7568 C   0  0  0  0  0  0  0  0  0  0  0  0
  -13.8004   -4.6925    3.4222 N   0  0  0  0  0  0  0  0  0  0  0  0
  -11.8096   -3.7726    4.1370 N   0  0  0  0  0  0  0  0  0  0  0  0
  -10.0589   -7.3802    4.0799 C   0  0  0  0  0  0  0  0  0  0  0  0
  -10.8194   -8.4904    3.8320 C   0  0  0  0  0  0  0  0  0  0  0  0
  -10.5427   -9.6584    4.5818 O   0  0  0  0  0  0  0  0  0  0  0  0
  -12.0441   -8.3214    3.3068 C   0  0  0  0  0  0  0  0  0  0  0  0
  -12.6674   -9.3941    2.6146 O   0  0  0  0  0  0  0  0  0  0  0  0
  -12.6465   -7.1176    3.3658 C   0  0  0  0  0  0  0  0  0  0  0  0
   -9.8392   -2.8680    4.9022 N   0  0  0  0  0  0  0  0  0  0  0  0
  -10.3269   -2.1841    5.9417 C   0  0  0  0  0  0  0  0  0  0  0  0
  -11.4539   -1.2712    5.4831 C   0  0  0  0  0  0  0  0  0  0  0  0
  -10.9722   -0.3704    4.5559 N   0  0  0  0  0  0  0  0  0  0  0  0
  -10.5145   -1.0994    3.4801 C   0  0  0  0  0  0  0  0  0  0  0  0
   -9.3852   -2.0091    3.9342 C   0  0  0  0  0  0  0  0  0  0  0  0
  -11.2390   -9.5708    5.7986 C   0  0  0  0  0  0  0  0  0  0  0  0
  -13.9442   -9.6008    3.1600 C   0  0  0  0  0  0  0  0  0  0  0  0
  1 14  1  0  0  0  0
  1  2  2  0  0  0  0
  3  2  1  0  0  0  0
  3  8  2  0  0  0  0
  4  3  1  0  0  0  0
  5  7  2  0  0  0  0
  5  4  1  0  0  0  0
  6  5  1  0  0  0  0
  7  1  1  0  0  0  0
  9 10  1  0  0  0  0
  9  8  1  0  0  0  0
 11  9  2  0  0  0  0
 12 11  1  0  0  0  0
 13  4  2  0  0  0  0
 13 11  1  0  0  0  0
 14 15  1  0  0  0  0
 16 15  1  0  0  0  0
 17 16  1  0  0  0  0
 18 17  1  0  0  0  0
 18 19  1  0  0  0  0
 19 14  1  0  0  0  0
 20 10  1  0  0  0  0
 21 12  1  0  0  0  0
M  END
>  <CHROM.1>
-120.97783347,84.79255895,127.41155377,-11.34411751,-5.43385964,4.15946180
-1.36659625,0.45085907,-3.12279890

>  <Name>
lig.pdb

>  <RI>
2.59814e+07

>  <Rbt.Current_Directory>
/home/itssahil/PROJECTS/Mol_Feturizer/New_Systems/rnas/2lwk

>  <Rbt.Executable>
rbdock ($Id: //depot/dev/client3/rdock/2013.1/src/exe/rbdock.cxx#4 $)

>  <Rbt.Library>
libRbt.so (2013.1, Build901 2013/11/27)

>  <Rbt.Parameter_File>
/export/apps/rDock/src/rDock_2013.1_src/data/scripts/dock_solv.prm

>  <Rbt.Receptor>
prm/pocket_docking_6.prm

>  <SCORE>
-30.4541

>  <SCORE.INTER>
-27.2593

>  <SCORE.INTER.CONST>
1

>  <SCORE.INTER.POLAR>
-3.59955

>  <SCORE.INTER.ROT>
3

>  <SCORE.INTER.SOLV>
9.02385

>  <SCORE.INTER.VDW>
-14.7823

>  <SCORE.INTER.norm>
-1.29806

>  <SCORE.INTRA>
-3.19556

>  <SCORE.INTRA.DIHEDRAL>
-0.662941

>  <SCORE.INTRA.DIHEDRAL.0>
8.84257

>  <SCORE.INTRA.POLAR>
0

>  <SCORE.INTRA.POLAR.0>
0

>  <SCORE.INTRA.REPUL>
0

>  <SCORE.INTRA.REPUL.0>
0

>  <SCORE.INTRA.SOLV>
0.0708379

>  <SCORE.INTRA.SOLV.lig_0>
-17.1313

>  <SCORE.INTRA.VDW>
-2.8995

>  <SCORE.INTRA.VDW.0>
6.34071

>  <SCORE.INTRA.norm>
-0.152169

>  <SCORE.RESTR>
0.00082664

>  <SCORE.RESTR.CAVITY>
0.00082664

>  <SCORE.RESTR.norm>
3.93638e-05

>  <SCORE.SYSTEM>
0

>  <SCORE.SYSTEM.CONST>
0

>  <SCORE.SYSTEM.DIHEDRAL>
0

>  <SCORE.SYSTEM.SOLV>
0

>  <SCORE.SYSTEM.norm>
0

>  <SCORE.heavy>
21

>  <SCORE.norm>
-1.45019

>  <RMSD>
6.382

$$$$
lig.pdb
 OpenBabel11021811453D
libRbt.so/2013.1/901 2013/11/27
 21 23  0  0  0  0  0  0  0  0999 V2000
  -10.2218   -4.0693    3.5945 C   0  0  0  0  0  0  0  0  0  0  0  0
   -9.7312   -5.2764    3.8523 N   0  0  0  0  0  0  0  0  0  0  0  0
  -10.5435   -6.3144    3.9390 C   0  0  0  0  0  0  0  0  0  0  0  0
  -11.8759   -6.1356    3.8345 C   0  0  0  0  0  0  0  0  0  0  0  0
  -12.3666   -4.9172    3.5708 C   0  0  0  0  0  0  0  0  0  0  0  0
  -13.6822   -4.7303    3.4709 N   0  0  0  0  0  0  0  0  0  0  0  0
  -11.5355   -3.8867    3.4544 N   0  0  0  0  0  0  0  0  0  0  0  0
  -10.0372   -7.5359    4.1768 C   0  0  0  0  0  0  0  0  0  0  0  0
  -10.8920   -8.5707    4.4426 C   0  0  0  0  0  0  0  0  0  0  0  0
  -10.5160   -9.4931    5.4481 O   0  0  0  0  0  0  0  0  0  0  0  0
  -12.1927   -8.4174    4.1446 C   0  0  0  0  0  0  0  0  0  0  0  0
  -13.0121   -9.5629    3.9586 O   0  0  0  0  0  0  0  0  0  0  0  0
  -12.7014   -7.1859    3.9444 C   0  0  0  0  0  0  0  0  0  0  0  0
   -9.3981   -3.0404    3.4936 N   0  0  0  0  0  0  0  0  0  0  0  0
   -8.6792   -2.7449    4.5809 C   0  0  0  0  0  0  0  0  0  0  0  0
   -9.5317   -1.9718    5.5757 C   0  0  0  0  0  0  0  0  0  0  0  0
   -9.9587   -0.7924    5.0016 N   0  0  0  0  0  0  0  0  0  0  0  0
  -10.7295   -1.1270    3.9097 C   0  0  0  0  0  0  0  0  0  0  0  0
   -9.8793   -1.8955    2.9118 C   0  0  0  0  0  0  0  0  0  0  0  0
   -9.3786  -10.1857    5.0013 C   0  0  0  0  0  0  0  0  0  0  0  0
  -13.4386   -9.5996    2.6218 C   0  0  0  0  0  0  0  0  0  0  0  0
  1 14  1  0  0  0  0
  1  2  2  0  0  0  0
  3  2  1  0  0  0  0
  3  8  2  0  0  0  0
  4  3  1  0  0  0  0
  5  7  2  0  0  0  0
  5  4  1  0  0  0  0
  6  5  1  0  0  0  0
  7  1  1  0  0  0  0
  9 10  1  0  0  0  0
  9  8  1  0  0  0  0
 11  9  2  0  0  0  0
 12 11  1  0  0  0  0
 13  4  2  0  0  0  0
 13 11  1  0  0  0  0
 14 15  1  0  0  0  0
 16 15  1  0  0  0  0
 17 16  1  0  0  0  0
 18 17  1  0  0  0  0
 18 19  1  0  0  0  0
 19 14  1  0  0  0  0
 20 10  1  0  0  0  0
 21 12  1  0  0  0  0
M  END
>  <CHROM.1>
-61.26751245,-66.23964135,-114.67781645,-10.97852369,-5.60521520,4.05537620
-1.31577996,0.36946137,3.05009789

>  <Name>
lig.pdb

>  <RI>
2.59814e+07

>  <Rbt.Current_Directory>
/home/itssahil/PROJECTS/Mol_Feturizer/New_Systems/rnas/2lwk

>  <Rbt.Executable>
rbdock ($Id: //depot/dev/client3/rdock/2013.1/src/exe/rbdock.cxx#4 $)

>  <Rbt.Library>
libRbt.so (2013.1, Build901 2013/11/27)

>  <Rbt.Parameter_File>
/export/apps/rDock/src/rDock_2013.1_src/data/scripts/dock_solv.prm

>  <Rbt.Receptor>
prm/pocket_docking_6.prm

>  <SCORE>
-23.0684

>  <SCORE.INTER>
-20.525

>  <SCORE.INTER.CONST>
1

>  <SCORE.INTER.POLAR>
-2.34165

>  <SCORE.INTER.ROT>
3

>  <SCORE.INTER.SOLV>
8.57178

>  <SCORE.INTER.VDW>
-14.3351

>  <SCORE.INTER.norm>
-0.977383

>  <SCORE.INTRA>
-2.62929

>  <SCORE.INTRA.DIHEDRAL>
-1.44974

>  <SCORE.INTRA.DIHEDRAL.0>
8.84257

>  <SCORE.INTRA.POLAR>
0

>  <SCORE.INTRA.POLAR.0>
0

>  <SCORE.INTRA.REPUL>
0

>  <SCORE.INTRA.REPUL.0>
0

>  <SCORE.INTRA.SOLV>
-0.013362

>  <SCORE.INTRA.SOLV.lig_0>
-17.1313

>  <SCORE.INTRA.VDW>
-1.89774

>  <SCORE.INTRA.VDW.0>
6.34071

>  <SCORE.INTRA.norm>
-0.125204

>  <SCORE.RESTR>
0.085974

>  <SCORE.RESTR.CAVITY>
0.085974

>  <SCORE.RESTR.norm>
0.004094

>  <SCORE.SYSTEM>
0

>  <SCORE.SYSTEM.CONST>
0

>  <SCORE.SYSTEM.DIHEDRAL>
0

>  <SCORE.SYSTEM.SOLV>
0

>  <SCORE.SYSTEM.norm>
0

>  <SCORE.heavy>
21

>  <SCORE.norm>
-1.09849

>  <RMSD>
6.402

$$$$
lig.pdb
 OpenBabel11021811453D
libRbt.so/2013.1/901 2013/11/27
 21 23  0  0  0  0  0  0  0  0999 V2000
   -9.0567   -0.3162    4.3487 C   0  0  0  0  0  0  0  0  0  0  0  0
   -8.7864    0.9390    4.0086 N   0  0  0  0  0  0  0  0  0  0  0  0
   -7.5636    1.4152    4.1595 C   0  0  0  0  0  0  0  0  0  0  0  0
   -6.6086    0.6481    4.7231 C   0  0  0  0  0  0  0  0  0  0  0  0
   -6.8841   -0.6186    5.0616 C   0  0  0  0  0  0  0  0  0  0  0  0
   -5.9480   -1.3822    5.6238 N   0  0  0  0  0  0  0  0  0  0  0  0
   -8.1106   -1.0951    4.8749 N   0  0  0  0  0  0  0  0  0  0  0  0
   -7.2926    2.6785    3.7913 C   0  0  0  0  0  0  0  0  0  0  0  0
   -6.0783    3.2201    4.1141 C   0  0  0  0  0  0  0  0  0  0  0  0
   -6.0518    4.5700    4.5386 O   0  0  0  0  0  0  0  0  0  0  0  0
   -5.0900    2.3928    4.4924 C   0  0  0  0  0  0  0  0  0  0  0  0
   -3.7381    2.8158    4.3856 O   0  0  0  0  0  0  0  0  0  0  0  0
   -5.3734    1.1389    4.8963 C   0  0  0  0  0  0  0  0  0  0  0  0
  -10.2799   -0.7873    4.1781 N   0  0  0  0  0  0  0  0  0  0  0  0
  -11.0397   -0.8810    5.2736 C   0  0  0  0  0  0  0  0  0  0  0  0
  -10.6647   -2.1258    6.0635 C   0  0  0  0  0  0  0  0  0  0  0  0
  -10.8765   -3.2473    5.2887 N   0  0  0  0  0  0  0  0  0  0  0  0
  -10.0524   -3.1441    4.1894 C   0  0  0  0  0  0  0  0  0  0  0  0
  -10.4277   -1.9039    3.3956 C   0  0  0  0  0  0  0  0  0  0  0  0
   -5.9615    5.3843    3.3976 C   0  0  0  0  0  0  0  0  0  0  0  0
   -3.3061    2.6149    3.0652 C   0  0  0  0  0  0  0  0  0  0  0  0
  1 14  1  0  0  0  0
  1  2  2  0  0  0  0
  3  2  1  0  0  0  0
  3  8  2  0  0  0  0
  4  3  1  0  0  0  0
  5  7  2  0  0  0  0
  5  4  1  0  0  0  0
  6  5  1  0  0  0  0
  7  1  1  0  0  0  0
  9 10  1  0  0  0  0
  9  8  1  0  0  0  0
 11  9  2  0  0  0  0
 12 11  1  0  0  0  0
 13  4  2  0  0  0  0
 13 11  1  0  0  0  0
 14 15  1  0  0  0  0
 16 15  1  0  0  0  0
 17 16  1  0  0  0  0
 18 17  1  0  0  0  0
 18 19  1  0  0  0  0
 19 14  1  0  0  0  0
 20 10  1  0  0  0  0
 21 12  1  0  0  0  0
M  END
>  <CHROM.1>
-102.81043580,-86.63197669,-82.35783399,-7.56184923,0.59133901,4.47334949
2.33210890,0.08486249,2.91141670

>  <Name>
lig.pdb

>  <RI>
3.31914e+07

>  <Rbt.Current_Directory>
/home/itssahil/PROJECTS/Mol_Feturizer/New_Systems/rnas/2lwk

>  <Rbt.Executable>
rbdock ($Id: //depot/dev/client3/rdock/2013.1/src/exe/rbdock.cxx#4 $)

>  <Rbt.Library>
libRbt.so (2013.1, Build901 2013/11/27)

>  <Rbt.Parameter_File>
/export/apps/rDock/src/rDock_2013.1_src/data/scripts/dock_solv.prm

>  <Rbt.Receptor>
prm/pocket_docking_3.prm

>  <SCORE>
-12.8614

>  <SCORE.INTER>
-7.47807

>  <SCORE.INTER.CONST>
1

>  <SCORE.INTER.POLAR>
-0.917639

>  <SCORE.INTER.ROT>
3

>  <SCORE.INTER.SOLV>
5.73407

>  <SCORE.INTER.VDW>
-9.43794

>  <SCORE.INTER.norm>
-0.356099

>  <SCORE.INTRA>
-5.38514

>  <SCORE.INTRA.DIHEDRAL>
0.659516

>  <SCORE.INTRA.DIHEDRAL.0>
8.84257

>  <SCORE.INTRA.POLAR>
0

>  <SCORE.INTRA.POLAR.0>
0

>  <SCORE.INTRA.REPUL>
0

>  <SCORE.INTRA.REPUL.0>
0

>  <SCORE.INTRA.SOLV>
0.0760569

>  <SCORE.INTRA.SOLV.lig_0>
-17.1313

>  <SCORE.INTRA.VDW>
-5.75293

>  <SCORE.INTRA.VDW.0>
6.34071

>  <SCORE.INTRA.norm>
-0.256435

>  <SCORE.RESTR>
0.00180569

>  <SCORE.RESTR.CAVITY>
0.00180569

>  <SCORE.RESTR.norm>
8.59854e-05

>  <SCORE.SYSTEM>
0

>  <SCORE.SYSTEM.CONST>
0

>  <SCORE.SYSTEM.DIHEDRAL>
0

>  <SCORE.SYSTEM.SOLV>
0

>  <SCORE.SYSTEM.norm>
0

>  <SCORE.heavy>
21

>  <SCORE.norm>
-0.612448

>  <RMSD>
6.404

$$$$
lig.pdb
 OpenBabel11021811453D
libRbt.so/2013.1/901 2013/11/27
 21 23  0  0  0  0  0  0  0  0999 V2000
   -9.0694   -0.3611    4.3219 C   0  0  0  0  0  0  0  0  0  0  0  0
   -8.7704    0.8857    3.9749 N   0  0  0  0  0  0  0  0  0  0  0  0
   -7.5554    1.3574    4.1894 C   0  0  0  0  0  0  0  0  0  0  0  0
   -6.6411    0.5956    4.8233 C   0  0  0  0  0  0  0  0  0  0  0  0
   -6.9452   -0.6627    5.1685 C   0  0  0  0  0  0  0  0  0  0  0  0
   -6.0497   -1.4210    5.7998 N   0  0  0  0  0  0  0  0  0  0  0  0
   -8.1618   -1.1354    4.9181 N   0  0  0  0  0  0  0  0  0  0  0  0
   -7.2541    2.6117    3.8143 C   0  0  0  0  0  0  0  0  0  0  0  0
   -6.0573    3.1522    4.1986 C   0  0  0  0  0  0  0  0  0  0  0  0
   -6.0465    4.5099    4.5984 O   0  0  0  0  0  0  0  0  0  0  0  0
   -5.0992    2.3265    4.6507 C   0  0  0  0  0  0  0  0  0  0  0  0
   -3.7403    2.7393    4.6166 O   0  0  0  0  0  0  0  0  0  0  0  0
   -5.4149    1.0823    5.0605 C   0  0  0  0  0  0  0  0  0  0  0  0
  -10.2836   -0.8280    4.0876 N   0  0  0  0  0  0  0  0  0  0  0  0
  -11.0291   -1.1121    5.1598 C   0  0  0  0  0  0  0  0  0  0  0  0
  -10.6179   -2.4570    5.7396 C   0  0  0  0  0  0  0  0  0  0  0  0
  -10.8132   -3.4464    4.7983 N   0  0  0  0  0  0  0  0  0  0  0  0
  -10.0036   -3.1508    3.7234 C   0  0  0  0  0  0  0  0  0  0  0  0
  -10.4151   -1.8098    3.1390 C   0  0  0  0  0  0  0  0  0  0  0  0
   -5.8385    5.2995    3.4555 C   0  0  0  0  0  0  0  0  0  0  0  0
   -3.2265    2.4929    3.3338 C   0  0  0  0  0  0  0  0  0  0  0  0
  1 14  1  0  0  0  0
  1  2  2  0  0  0  0
  3  2  1  0  0  0  0
  3  8  2  0  0  0  0
  4  3  1  0  0  0  0
  5  7  2  0  0  0  0
  5  4  1  0  0  0  0
  6  5  1  0  0  0  0
  7  1  1  0  0  0  0
  9 10  1  0  0  0  0
  9  8  1  0  0  0  0
 11  9  2  0  0  0  0
 12 11  1  0  0  0  0
 13  4  2  0  0  0  0
 13 11  1  0  0  0  0
 14 15  1  0  0  0  0
 16 15  1  0  0  0  0
 17 16  1  0  0  0  0
 18 17  1  0  0  0  0
 18 19  1  0  0  0  0
 19 14  1  0  0  0  0
 20 10  1  0  0  0  0
 21 12  1  0  0  0  0
M  END
>  <CHROM.1>
-113.88336613,-88.54940043,-83.18197835,-7.55343337,0.51165363,4.45778258
2.34507457,0.17768879,2.89548106

>  <Name>
lig.pdb

>  <RI>
3.31914e+07

>  <Rbt.Current_Directory>
/home/itssahil/PROJECTS/Mol_Feturizer/New_Systems/rnas/2lwk

>  <Rbt.Executable>
rbdock ($Id: //depot/dev/client3/rdock/2013.1/src/exe/rbdock.cxx#4 $)

>  <Rbt.Library>
libRbt.so (2013.1, Build901 2013/11/27)

>  <Rbt.Parameter_File>
/export/apps/rDock/src/rDock_2013.1_src/data/scripts/dock_solv.prm

>  <Rbt.Receptor>
prm/pocket_docking_3.prm

>  <SCORE>
-13.0398

>  <SCORE.INTER>
-7.60728

>  <SCORE.INTER.CONST>
1

>  <SCORE.INTER.POLAR>
-0.957217

>  <SCORE.INTER.ROT>
3

>  <SCORE.INTER.SOLV>
6.00882

>  <SCORE.INTER.VDW>
-9.48374

>  <SCORE.INTER.norm>
-0.362252

>  <SCORE.INTRA>
-5.43256

>  <SCORE.INTRA.DIHEDRAL>
0.737938

>  <SCORE.INTRA.DIHEDRAL.0>
8.84257

>  <SCORE.INTRA.POLAR>
0

>  <SCORE.INTRA.POLAR.0>
0

>  <SCORE.INTRA.REPUL>
0

>  <SCORE.INTRA.REPUL.0>
0

>  <SCORE.INTRA.SOLV>
0.0786374

>  <SCORE.INTRA.SOLV.lig_0>
-17.1313

>  <SCORE.INTRA.VDW>
-5.84085

>  <SCORE.INTRA.VDW.0>
6.34071

>  <SCORE.INTRA.norm>
-0.258693

>  <SCORE.RESTR>
0

>  <SCORE.RESTR.CAVITY>
0

>  <SCORE.RESTR.norm>
0

>  <SCORE.SYSTEM>
0

>  <SCORE.SYSTEM.CONST>
0

>  <SCORE.SYSTEM.DIHEDRAL>
0

>  <SCORE.SYSTEM.SOLV>
0

>  <SCORE.SYSTEM.norm>
0

>  <SCORE.heavy>
21

>  <SCORE.norm>
-0.620945

>  <RMSD>
6.407

$$$$
lig.pdb
 OpenBabel11021811453D
libRbt.so/2013.1/901 2013/11/27
 21 23  0  0  0  0  0  0  0  0999 V2000
   -9.0677   -0.3643    4.3224 C   0  0  0  0  0  0  0  0  0  0  0  0
   -8.7696    0.8831    3.9771 N   0  0  0  0  0  0  0  0  0  0  0  0
   -7.5545    1.3550    4.1910 C   0  0  0  0  0  0  0  0  0  0  0  0
   -6.6392    0.5924    4.8225 C   0  0  0  0  0  0  0  0  0  0  0  0
   -6.9424   -0.6665    5.1661 C   0  0  0  0  0  0  0  0  0  0  0  0
   -6.0458   -1.4255    5.7951 N   0  0  0  0  0  0  0  0  0  0  0  0
   -8.1591   -1.1393    4.9163 N   0  0  0  0  0  0  0  0  0  0  0  0
   -7.2541    2.6099    3.8175 C   0  0  0  0  0  0  0  0  0  0  0  0
   -6.0570    3.1503    4.2013 C   0  0  0  0  0  0  0  0  0  0  0  0
   -6.0462    4.5073    4.6033 O   0  0  0  0  0  0  0  0  0  0  0  0
   -5.0981    2.3241    4.6509 C   0  0  0  0  0  0  0  0  0  0  0  0
   -3.7393    2.7375    4.6159 O   0  0  0  0  0  0  0  0  0  0  0  0
   -5.4129    1.0792    5.0591 C   0  0  0  0  0  0  0  0  0  0  0  0
  -10.2820   -0.8313    4.0888 N   0  0  0  0  0  0  0  0  0  0  0  0
  -11.0353   -1.0935    5.1612 C   0  0  0  0  0  0  0  0  0  0  0  0
  -10.6325   -2.4291    5.7678 C   0  0  0  0  0  0  0  0  0  0  0  0
  -10.8252   -3.4347    4.8433 N   0  0  0  0  0  0  0  0  0  0  0  0
  -10.0078   -3.1613    3.7684 C   0  0  0  0  0  0  0  0  0  0  0  0
  -10.4109   -1.8296    3.1573 C   0  0  0  0  0  0  0  0  0  0  0  0
   -5.8652    5.3000    3.4579 C   0  0  0  0  0  0  0  0  0  0  0  0
   -3.2457    2.5533    3.3148 C   0  0  0  0  0  0  0  0  0  0  0  0
  1 14  1  0  0  0  0
  1  2  2  0  0  0  0
  3  2  1  0  0  0  0
  3  8  2  0  0  0  0
  4  3  1  0  0  0  0
  5  7  2  0  0  0  0
  5  4  1  0  0  0  0
  6  5  1  0  0  0  0
  7  1  1  0  0  0  0
  9 10  1  0  0  0  0
  9  8  1  0  0  0  0
 11  9  2  0  0  0  0
 12 11  1  0  0  0  0
 13  4  2  0  0  0  0
 13 11  1  0  0  0  0
 14 15  1  0  0  0  0
 16 15  1  0  0  0  0
 17 16  1  0  0  0  0
 18 17  1  0  0  0  0
 18 19  1  0  0  0  0
 19 14  1  0  0  0  0
 20 10  1  0  0  0  0
 21 12  1  0  0  0  0
M  END
>  <CHROM.1>
-112.65571850,-87.44972468,-80.37426383,-7.55645402,0.51432513,4.46394312
2.34388517,0.17470222,2.89419129

>  <Name>
lig.pdb

>  <RI>
3.31914e+07

>  <Rbt.Current_Directory>
/home/itssahil/PROJECTS/Mol_Feturizer/New_Systems/rnas/2lwk

>  <Rbt.Executable>
rbdock ($Id: //depot/dev/client3/rdock/2013.1/src/exe/rbdock.cxx#4 $)

>  <Rbt.Library>
libRbt.so (2013.1, Build901 2013/11/27)

>  <Rbt.Parameter_File>
/export/apps/rDock/src/rDock_2013.1_src/data/scripts/dock_solv.prm

>  <Rbt.Receptor>
prm/pocket_docking_3.prm

>  <SCORE>
-13.0472

>  <SCORE.INTER>
-7.61739

>  <SCORE.INTER.CONST>
1

>  <SCORE.INTER.POLAR>
-0.959892

>  <SCORE.INTER.ROT>
3

>  <SCORE.INTER.SOLV>
5.98311

>  <SCORE.INTER.VDW>
-9.47299

>  <SCORE.INTER.norm>
-0.362733

>  <SCORE.INTRA>
-5.42997

>  <SCORE.INTRA.DIHEDRAL>
0.647842

>  <SCORE.INTRA.DIHEDRAL.0>
8.84257

>  <SCORE.INTRA.POLAR>
0

>  <SCORE.INTRA.POLAR.0>
0

>  <SCORE.INTRA.REPUL>
0

>  <SCORE.INTRA.REPUL.0>
0

>  <SCORE.INTRA.SOLV>
0.0796377

>  <SCORE.INTRA.SOLV.lig_0>
-17.1313

>  <SCORE.INTRA.VDW>
-5.79371

>  <SCORE.INTRA.VDW.0>
6.34071

>  <SCORE.INTRA.norm>
-0.25857

>  <SCORE.RESTR>
0.000206852

>  <SCORE.RESTR.CAVITY>
0.000206852

>  <SCORE.RESTR.norm>
9.8501e-06

>  <SCORE.SYSTEM>
0

>  <SCORE.SYSTEM.CONST>
0

>  <SCORE.SYSTEM.DIHEDRAL>
0

>  <SCORE.SYSTEM.SOLV>
0

>  <SCORE.SYSTEM.norm>
0

>  <SCORE.heavy>
21

>  <SCORE.norm>
-0.621293

>  <RMSD>
6.408

$$$$
lig.pdb
 OpenBabel11021811453D
libRbt.so/2013.1/901 2013/11/27
 21 23  0  0  0  0  0  0  0  0999 V2000
   -9.0552   -0.3507    4.3293 C   0  0  0  0  0  0  0  0  0  0  0  0
   -8.7563    0.8935    3.9728 N   0  0  0  0  0  0  0  0  0  0  0  0
   -7.5434    1.3692    4.1903 C   0  0  0  0  0  0  0  0  0  0  0  0
   -6.6315    0.6147    4.8363 C   0  0  0  0  0  0  0  0  0  0  0  0
   -6.9355   -0.6409    5.1910 C   0  0  0  0  0  0  0  0  0  0  0  0
   -6.0424   -1.3919    5.8344 N   0  0  0  0  0  0  0  0  0  0  0  0
   -8.1498   -1.1180    4.9377 N   0  0  0  0  0  0  0  0  0  0  0  0
   -7.2420    2.6206    3.8056 C   0  0  0  0  0  0  0  0  0  0  0  0
   -6.0484    3.1667    4.1921 C   0  0  0  0  0  0  0  0  0  0  0  0
   -6.0423    4.5279    4.5797 O   0  0  0  0  0  0  0  0  0  0  0  0
   -5.0915    2.3467    4.6572 C   0  0  0  0  0  0  0  0  0  0  0  0
   -3.7332    2.7616    4.6274 O   0  0  0  0  0  0  0  0  0  0  0  0
   -5.4076    1.1057    5.0763 C   0  0  0  0  0  0  0  0  0  0  0  0
  -10.2672   -0.8219    4.0920 N   0  0  0  0  0  0  0  0  0  0  0  0
  -11.0174   -1.1005    5.1624 C   0  0  0  0  0  0  0  0  0  0  0  0
  -10.6061   -2.4407    5.7531 C   0  0  0  0  0  0  0  0  0  0  0  0
  -10.7945   -3.4367    4.8174 N   0  0  0  0  0  0  0  0  0  0  0  0
   -9.9802   -3.1464    3.7445 C   0  0  0  0  0  0  0  0  0  0  0  0
  -10.3918   -1.8101    3.1493 C   0  0  0  0  0  0  0  0  0  0  0  0
   -5.8798    5.3097    3.4241 C   0  0  0  0  0  0  0  0  0  0  0  0
   -3.2172    2.5230    3.3440 C   0  0  0  0  0  0  0  0  0  0  0  0
  1 14  1  0  0  0  0
  1  2  2  0  0  0  0
  3  2  1  0  0  0  0
  3  8  2  0  0  0  0
  4  3  1  0  0  0  0
  5  7  2  0  0  0  0
  5  4  1  0  0  0  0
  6  5  1  0  0  0  0
  7  1  1  0  0  0  0
  9 10  1  0  0  0  0
  9  8  1  0  0  0  0
 11  9  2  0  0  0  0
 12 11  1  0  0  0  0
 13  4  2  0  0  0  0
 13 11  1  0  0  0  0
 14 15  1  0  0  0  0
 16 15  1  0  0  0  0
 17 16  1  0  0  0  0
 18 17  1  0  0  0  0
 18 19  1  0  0  0  0
 19 14  1  0  0  0  0
 20 10  1  0  0  0  0
 21 12  1  0  0  0  0
M  END
>  <CHROM.1>
-114.03315061,-86.34271858,-82.31369574,-7.54416907,0.52667692,4.46468102
2.34382087,0.18500906,2.88597551

>  <Name>
lig.pdb

>  <RI>
3.31914e+07

>  <Rbt.Current_Directory>
/home/itssahil/PROJECTS/Mol_Feturizer/New_Systems/rnas/2lwk

>  <Rbt.Executable>
rbdock ($Id: //depot/dev/client3/rdock/2013.1/src/exe/rbdock.cxx#4 $)

>  <Rbt.Library>
libRbt.so (2013.1, Build901 2013/11/27)

>  <Rbt.Parameter_File>
/export/apps/rDock/src/rDock_2013.1_src/data/scripts/dock_solv.prm

>  <Rbt.Receptor>
prm/pocket_docking_3.prm

>  <SCORE>
-13.0204

>  <SCORE.INTER>
-7.61597

>  <SCORE.INTER.CONST>
1

>  <SCORE.INTER.POLAR>
-0.946511

>  <SCORE.INTER.ROT>
3

>  <SCORE.INTER.SOLV>
5.97128

>  <SCORE.INTER.VDW>
-9.5127

>  <SCORE.INTER.norm>
-0.362665

>  <SCORE.INTRA>
-5.40445

>  <SCORE.INTRA.DIHEDRAL>
0.641591

>  <SCORE.INTRA.DIHEDRAL.0>
8.84257

>  <SCORE.INTRA.POLAR>
0

>  <SCORE.INTRA.POLAR.0>
0

>  <SCORE.INTRA.REPUL>
0

>  <SCORE.INTRA.REPUL.0>
0

>  <SCORE.INTRA.SOLV>
0.0771508

>  <SCORE.INTRA.SOLV.lig_0>
-17.1313

>  <SCORE.INTRA.VDW>
-5.76382

>  <SCORE.INTRA.VDW.0>
6.34071

>  <SCORE.INTRA.norm>
-0.257355

>  <SCORE.RESTR>
0

>  <SCORE.RESTR.CAVITY>
0

>  <SCORE.RESTR.norm>
0

>  <SCORE.SYSTEM>
0

>  <SCORE.SYSTEM.CONST>
0

>  <SCORE.SYSTEM.DIHEDRAL>
0

>  <SCORE.SYSTEM.SOLV>
0

>  <SCORE.SYSTEM.norm>
0

>  <SCORE.heavy>
21

>  <SCORE.norm>
-0.62002

>  <RMSD>
6.412

$$$$
lig.pdb
 OpenBabel11021811453D
libRbt.so/2013.1/901 2013/11/27
 21 23  0  0  0  0  0  0  0  0999 V2000
   -9.0654   -0.3549    4.3460 C   0  0  0  0  0  0  0  0  0  0  0  0
   -8.7674    0.8865    3.9791 N   0  0  0  0  0  0  0  0  0  0  0  0
   -7.5560    1.3663    4.1962 C   0  0  0  0  0  0  0  0  0  0  0  0
   -6.6450    0.6193    4.8520 C   0  0  0  0  0  0  0  0  0  0  0  0
   -6.9480   -0.6336    5.2172 C   0  0  0  0  0  0  0  0  0  0  0  0
   -6.0557   -1.3771    5.8703 N   0  0  0  0  0  0  0  0  0  0  0  0
   -8.1606   -1.1151    4.9643 N   0  0  0  0  0  0  0  0  0  0  0  0
   -7.2555    2.6147    3.8011 C   0  0  0  0  0  0  0  0  0  0  0  0
   -6.0641    3.1663    4.1865 C   0  0  0  0  0  0  0  0  0  0  0  0
   -6.0616    4.5310    4.5617 O   0  0  0  0  0  0  0  0  0  0  0  0
   -5.1074    2.3522    4.6621 C   0  0  0  0  0  0  0  0  0  0  0  0
   -3.7497    2.7692    4.6329 O   0  0  0  0  0  0  0  0  0  0  0  0
   -5.4227    1.1146    5.0915 C   0  0  0  0  0  0  0  0  0  0  0  0
  -10.2758   -0.8303    4.1091 N   0  0  0  0  0  0  0  0  0  0  0  0
  -11.0147   -1.1369    5.1797 C   0  0  0  0  0  0  0  0  0  0  0  0
  -10.5884   -2.4858    5.7389 C   0  0  0  0  0  0  0  0  0  0  0  0
  -10.7773   -3.4636    4.7843 N   0  0  0  0  0  0  0  0  0  0  0  0
   -9.9744   -3.1449    3.7110 C   0  0  0  0  0  0  0  0  0  0  0  0
  -10.4009   -1.7998    3.1471 C   0  0  0  0  0  0  0  0  0  0  0  0
   -5.8890    5.3023    3.4005 C   0  0  0  0  0  0  0  0  0  0  0  0
   -3.2198    2.4902    3.3634 C   0  0  0  0  0  0  0  0  0  0  0  0
  1 14  1  0  0  0  0
  1  2  2  0  0  0  0
  3  2  1  0  0  0  0
  3  8  2  0  0  0  0
  4  3  1  0  0  0  0
  5  7  2  0  0  0  0
  5  4  1  0  0  0  0
  6  5  1  0  0  0  0
  7  1  1  0  0  0  0
  9 10  1  0  0  0  0
  9  8  1  0  0  0  0
 11  9  2  0  0  0  0
 12 11  1  0  0  0  0
 13  4  2  0  0  0  0
 13 11  1  0  0  0  0
 14 15  1  0  0  0  0
 16 15  1  0  0  0  0
 17 16  1  0  0  0  0
 18 17  1  0  0  0  0
 18 19  1  0  0  0  0
 19 14  1  0  0  0  0
 20 10  1  0  0  0  0
 21 12  1  0  0  0  0
M  END
>  <CHROM.1>
-115.90086816,-86.67621310,-83.71773420,-7.55188470,0.52117271,4.46804746
2.34264065,0.19396589,2.87904971

>  <Name>
lig.pdb

>  <RI>
3.31914e+07

>  <Rbt.Current_Directory>
/home/itssahil/PROJECTS/Mol_Feturizer/New_Systems/rnas/2lwk

>  <Rbt.Executable>
rbdock ($Id: //depot/dev/client3/rdock/2013.1/src/exe/rbdock.cxx#4 $)

>  <Rbt.Library>
libRbt.so (2013.1, Build901 2013/11/27)

>  <Rbt.Parameter_File>
/export/apps/rDock/src/rDock_2013.1_src/data/scripts/dock_solv.prm

>  <Rbt.Receptor>
prm/pocket_docking_3.prm

>  <SCORE>
-13.0016

>  <SCORE.INTER>
-7.61896

>  <SCORE.INTER.CONST>
1

>  <SCORE.INTER.POLAR>
-0.933882

>  <SCORE.INTER.ROT>
3

>  <SCORE.INTER.SOLV>
5.96891

>  <SCORE.INTER.VDW>
-9.556

>  <SCORE.INTER.norm>
-0.362807

>  <SCORE.INTRA>
-5.38495

>  <SCORE.INTRA.DIHEDRAL>
0.674322

>  <SCORE.INTRA.DIHEDRAL.0>
8.84257

>  <SCORE.INTRA.POLAR>
0

>  <SCORE.INTRA.POLAR.0>
0

>  <SCORE.INTRA.REPUL>
0

>  <SCORE.INTRA.REPUL.0>
0

>  <SCORE.INTRA.SOLV>
0.0761662

>  <SCORE.INTRA.SOLV.lig_0>
-17.1313

>  <SCORE.INTRA.VDW>
-5.76019

>  <SCORE.INTRA.VDW.0>
6.34071

>  <SCORE.INTRA.norm>
-0.256426

>  <SCORE.RESTR>
0.00230318

>  <SCORE.RESTR.CAVITY>
0.00230318

>  <SCORE.RESTR.norm>
0.000109675

>  <SCORE.SYSTEM>
0

>  <SCORE.SYSTEM.CONST>
0

>  <SCORE.SYSTEM.DIHEDRAL>
0

>  <SCORE.SYSTEM.SOLV>
0

>  <SCORE.SYSTEM.norm>
0

>  <SCORE.heavy>
21

>  <SCORE.norm>
-0.619124

>  <RMSD>
6.413

$$$$
lig.pdb
 OpenBabel11021811453D
libRbt.so/2013.1/901 2013/11/27
 21 23  0  0  0  0  0  0  0  0999 V2000
   -9.0812   -0.3519    4.3468 C   0  0  0  0  0  0  0  0  0  0  0  0
   -8.7762    0.8898    3.9870 N   0  0  0  0  0  0  0  0  0  0  0  0
   -7.5613    1.3606    4.2043 C   0  0  0  0  0  0  0  0  0  0  0  0
   -6.6536    0.6038    4.8535 C   0  0  0  0  0  0  0  0  0  0  0  0
   -6.9637   -0.6494    5.2115 C   0  0  0  0  0  0  0  0  0  0  0  0
   -6.0747   -1.4026    5.8580 N   0  0  0  0  0  0  0  0  0  0  0  0
   -8.1799   -1.1217    4.9583 N   0  0  0  0  0  0  0  0  0  0  0  0
   -7.2538    2.6094    3.8163 C   0  0  0  0  0  0  0  0  0  0  0  0
   -6.0581    3.1512    4.2025 C   0  0  0  0  0  0  0  0  0  0  0  0
   -6.0461    4.5134    4.5862 O   0  0  0  0  0  0  0  0  0  0  0  0
   -5.1055    2.3281    4.6709 C   0  0  0  0  0  0  0  0  0  0  0  0
   -3.7452    2.7367    4.6413 O   0  0  0  0  0  0  0  0  0  0  0  0
   -5.4277    1.0898    5.0933 C   0  0  0  0  0  0  0  0  0  0  0  0
  -10.2951   -0.8183    4.1097 N   0  0  0  0  0  0  0  0  0  0  0  0
  -11.0453   -1.0963    5.1802 C   0  0  0  0  0  0  0  0  0  0  0  0
  -10.6384   -2.4391    5.7679 C   0  0  0  0  0  0  0  0  0  0  0  0
  -10.8313   -3.4326    4.8304 N   0  0  0  0  0  0  0  0  0  0  0  0
  -10.0169   -3.1432    3.7574 C   0  0  0  0  0  0  0  0  0  0  0  0
  -10.4241   -1.8043    3.1652 C   0  0  0  0  0  0  0  0  0  0  0  0
   -5.8622    5.2904    3.4305 C   0  0  0  0  0  0  0  0  0  0  0  0
   -3.2396    2.5264    3.3488 C   0  0  0  0  0  0  0  0  0  0  0  0
  1 14  1  0  0  0  0
  1  2  2  0  0  0  0
  3  2  1  0  0  0  0
  3  8  2  0  0  0  0
  4  3  1  0  0  0  0
  5  7  2  0  0  0  0
  5  4  1  0  0  0  0
  6  5  1  0  0  0  0
  7  1  1  0  0  0  0
  9 10  1  0  0  0  0
  9  8  1  0  0  0  0
 11  9  2  0  0  0  0
 12 11  1  0  0  0  0
 13  4  2  0  0  0  0
 13 11  1  0  0  0  0
 14 15  1  0  0  0  0
 16 15  1  0  0  0  0
 17 16  1  0  0  0  0
 18 17  1  0  0  0  0
 18 19  1  0  0  0  0
 19 14  1  0  0  0  0
 20 10  1  0  0  0  0
 21 12  1  0  0  0  0
M  END
>  <CHROM.1>
-114.33539817,-87.06457594,-80.70069494,-7.56537005,0.51999514,4.47901503
2.34822764,0.18722841,2.88073769

>  <Name>
lig.pdb

>  <RI>
3.31914e+07

>  <Rbt.Current_Directory>
/home/itssahil/PROJECTS/Mol_Feturizer/New_Systems/rnas/2lwk

>  <Rbt.Executable>
rbdock ($Id: //depot/dev/client3/rdock/2013.1/src/exe/rbdock.cxx#4 $)

>  <Rbt.Library>
libRbt.so (2013.1, Build901 2013/11/27)

>  <Rbt.Parameter_File>
/export/apps/rDock/src/rDock_2013.1_src/data/scripts/dock_solv.prm

>  <Rbt.Receptor>
prm/pocket_docking_3.prm

>  <SCORE>
-13.021

>  <SCORE.INTER>
-7.61427

>  <SCORE.INTER.CONST>
1

>  <SCORE.INTER.POLAR>
-0.951282

>  <SCORE.INTER.ROT>
3

>  <SCORE.INTER.SOLV>
5.97634

>  <SCORE.INTER.VDW>
-9.49735

>  <SCORE.INTER.norm>
-0.362584

>  <SCORE.INTRA>
-5.41157

>  <SCORE.INTRA.DIHEDRAL>
0.639369

>  <SCORE.INTRA.DIHEDRAL.0>
8.84257

>  <SCORE.INTRA.POLAR>
0

>  <SCORE.INTRA.POLAR.0>
0

>  <SCORE.INTRA.REPUL>
0

>  <SCORE.INTRA.REPUL.0>
0

>  <SCORE.INTRA.SOLV>
0.078848

>  <SCORE.INTRA.SOLV.lig_0>
-17.1313

>  <SCORE.INTRA.VDW>
-5.77067

>  <SCORE.INTRA.VDW.0>
6.34071

>  <SCORE.INTRA.norm>
-0.257694

>  <SCORE.RESTR>
0.00479287

>  <SCORE.RESTR.CAVITY>
0.00479287

>  <SCORE.RESTR.norm>
0.000228232

>  <SCORE.SYSTEM>
0

>  <SCORE.SYSTEM.CONST>
0

>  <SCORE.SYSTEM.DIHEDRAL>
0

>  <SCORE.SYSTEM.SOLV>
0

>  <SCORE.SYSTEM.norm>
0

>  <SCORE.heavy>
21

>  <SCORE.norm>
-0.62005

>  <RMSD>
6.413

$$$$
lig.pdb
 OpenBabel11021811453D
libRbt.so/2013.1/901 2013/11/27
 21 23  0  0  0  0  0  0  0  0999 V2000
   -9.0838   -0.3199    4.3243 C   0  0  0  0  0  0  0  0  0  0  0  0
   -8.7818    0.9205    3.9576 N   0  0  0  0  0  0  0  0  0  0  0  0
   -7.5698    1.3975    4.1775 C   0  0  0  0  0  0  0  0  0  0  0  0
   -6.6623    0.6485    4.8361 C   0  0  0  0  0  0  0  0  0  0  0  0
   -6.9694   -0.6034    5.2012 C   0  0  0  0  0  0  0  0  0  0  0  0
   -6.0807   -1.3488    5.8570 N   0  0  0  0  0  0  0  0  0  0  0  0
   -8.1826   -1.0820    4.9454 N   0  0  0  0  0  0  0  0  0  0  0  0
   -7.2651    2.6448    3.7825 C   0  0  0  0  0  0  0  0  0  0  0  0
   -6.0734    3.1937    4.1707 C   0  0  0  0  0  0  0  0  0  0  0  0
   -6.0684    4.5586    4.5452 O   0  0  0  0  0  0  0  0  0  0  0  0
   -5.1199    2.3775    4.6493 C   0  0  0  0  0  0  0  0  0  0  0  0
   -3.7611    2.7911    4.6234 O   0  0  0  0  0  0  0  0  0  0  0  0
   -5.4394    1.1409    5.0785 C   0  0  0  0  0  0  0  0  0  0  0  0
  -10.2948   -0.7924    4.0845 N   0  0  0  0  0  0  0  0  0  0  0  0
  -11.0854   -0.9702    5.1473 C   0  0  0  0  0  0  0  0  0  0  0  0
  -10.7169   -2.2618    5.8614 C   0  0  0  0  0  0  0  0  0  0  0  0
  -10.8901   -3.3299    5.0057 N   0  0  0  0  0  0  0  0  0  0  0  0
  -10.0352   -3.1416    3.9417 C   0  0  0  0  0  0  0  0  0  0  0  0
  -10.4039   -1.8543    3.2234 C   0  0  0  0  0  0  0  0  0  0  0  0
   -5.9788    5.3314    3.3757 C   0  0  0  0  0  0  0  0  0  0  0  0
   -3.2596    2.6101    3.3249 C   0  0  0  0  0  0  0  0  0  0  0  0
  1 14  1  0  0  0  0
  1  2  2  0  0  0  0
  3  2  1  0  0  0  0
  3  8  2  0  0  0  0
  4  3  1  0  0  0  0
  5  7  2  0  0  0  0
  5  4  1  0  0  0  0
  6  5  1  0  0  0  0
  7  1  1  0  0  0  0
  9 10  1  0  0  0  0
  9  8  1  0  0  0  0
 11  9  2  0  0  0  0
 12 11  1  0  0  0  0
 13  4  2  0  0  0  0
 13 11  1  0  0  0  0
 14 15  1  0  0  0  0
 16 15  1  0  0  0  0
 17 16  1  0  0  0  0
 18 17  1  0  0  0  0
 18 19  1  0  0  0  0
 19 14  1  0  0  0  0
 20 10  1  0  0  0  0
 21 12  1  0  0  0  0
M  END
>  <CHROM.1>
-109.41798151,-82.88326913,-79.01714992,-7.58732810,0.57164393,4.48454086
2.34687890,0.17712223,2.87147940

>  <Name>
lig.pdb

>  <RI>
3.31914e+07

>  <Rbt.Current_Directory>
/home/itssahil/PROJECTS/Mol_Feturizer/New_Systems/rnas/2lwk

>  <Rbt.Executable>
rbdock ($Id: //depot/dev/client3/rdock/2013.1/src/exe/rbdock.cxx#4 $)

>  <Rbt.Library>
libRbt.so (2013.1, Build901 2013/11/27)

>  <Rbt.Parameter_File>
/export/apps/rDock/src/rDock_2013.1_src/data/scripts/dock_solv.prm

>  <Rbt.Receptor>
prm/pocket_docking_3.prm

>  <SCORE>
-12.9622

>  <SCORE.INTER>
-7.59269

>  <SCORE.INTER.CONST>
1

>  <SCORE.INTER.POLAR>
-0.919772

>  <SCORE.INTER.ROT>
3

>  <SCORE.INTER.SOLV>
6.01981

>  <SCORE.INTER.VDW>
-9.60249

>  <SCORE.INTER.norm>
-0.361557

>  <SCORE.INTRA>
-5.3695

>  <SCORE.INTRA.DIHEDRAL>
0.421943

>  <SCORE.INTRA.DIHEDRAL.0>
8.84257

>  <SCORE.INTRA.POLAR>
0

>  <SCORE.INTRA.POLAR.0>
0

>  <SCORE.INTRA.REPUL>
0

>  <SCORE.INTRA.REPUL.0>
0

>  <SCORE.INTRA.SOLV>
0.0764562

>  <SCORE.INTRA.SOLV.lig_0>
-17.1313

>  <SCORE.INTRA.VDW>
-5.6187

>  <SCORE.INTRA.VDW.0>
6.34071

>  <SCORE.INTRA.norm>
-0.25569

>  <SCORE.RESTR>
0

>  <SCORE.RESTR.CAVITY>
0

>  <SCORE.RESTR.norm>
0

>  <SCORE.SYSTEM>
0

>  <SCORE.SYSTEM.CONST>
0

>  <SCORE.SYSTEM.DIHEDRAL>
0

>  <SCORE.SYSTEM.SOLV>
0

>  <SCORE.SYSTEM.norm>
0

>  <SCORE.heavy>
21

>  <SCORE.norm>
-0.617247

>  <RMSD>
6.419

$$$$
lig.pdb
 OpenBabel11021811453D
libRbt.so/2013.1/901 2013/11/27
 21 23  0  0  0  0  0  0  0  0999 V2000
  -10.2634   -3.8975    3.8270 C   0  0  0  0  0  0  0  0  0  0  0  0
   -9.6920   -5.0751    4.0528 N   0  0  0  0  0  0  0  0  0  0  0  0
  -10.4116   -6.1810    3.9902 C   0  0  0  0  0  0  0  0  0  0  0  0
  -11.7390   -6.1070    3.7654 C   0  0  0  0  0  0  0  0  0  0  0  0
  -12.3111   -4.9178    3.5344 C   0  0  0  0  0  0  0  0  0  0  0  0
  -13.6231   -4.8348    3.3164 N   0  0  0  0  0  0  0  0  0  0  0  0
  -11.5693   -3.8156    3.5690 N   0  0  0  0  0  0  0  0  0  0  0  0
   -9.8213   -7.3700    4.1968 C   0  0  0  0  0  0  0  0  0  0  0  0
  -10.6002   -8.4895    4.3079 C   0  0  0  0  0  0  0  0  0  0  0  0
  -10.2380   -9.4490    5.2833 O   0  0  0  0  0  0  0  0  0  0  0  0
  -11.8759   -8.4240    3.8925 C   0  0  0  0  0  0  0  0  0  0  0  0
  -12.5673   -9.6172    3.5513 O   0  0  0  0  0  0  0  0  0  0  0  0
  -12.4728   -7.2279    3.7235 C   0  0  0  0  0  0  0  0  0  0  0  0
   -9.5303   -2.7987    3.8762 N   0  0  0  0  0  0  0  0  0  0  0  0
   -8.6539   -2.6230    2.8825 C   0  0  0  0  0  0  0  0  0  0  0  0
   -7.4129   -3.4683    3.1261 C   0  0  0  0  0  0  0  0  0  0  0  0
   -6.8148   -3.0833    4.3080 N   0  0  0  0  0  0  0  0  0  0  0  0
   -7.7237   -3.3131    5.3177 C   0  0  0  0  0  0  0  0  0  0  0  0
   -8.9629   -2.4663    5.0797 C   0  0  0  0  0  0  0  0  0  0  0  0
   -9.6634  -10.5473    4.6224 C   0  0  0  0  0  0  0  0  0  0  0  0
  -13.3858   -9.9877    4.6297 C   0  0  0  0  0  0  0  0  0  0  0  0
  1 14  1  0  0  0  0
  1  2  2  0  0  0  0
  3  2  1  0  0  0  0
  3  8  2  0  0  0  0
  4  3  1  0  0  0  0
  5  7  2  0  0  0  0
  5  4  1  0  0  0  0
  6  5  1  0  0  0  0
  7  1  1  0  0  0  0
  9 10  1  0  0  0  0
  9  8  1  0  0  0  0
 11  9  2  0  0  0  0
 12 11  1  0  0  0  0
 13  4  2  0  0  0  0
 13 11  1  0  0  0  0
 14 15  1  0  0  0  0
 16 15  1  0  0  0  0
 17 16  1  0  0  0  0
 18 17  1  0  0  0  0
 18 19  1  0  0  0  0
 19 14  1  0  0  0  0
 20 10  1  0  0  0  0
 21 12  1  0  0  0  0
M  END
>  <CHROM.1>
70.65218850,-105.46405917,100.09941993,-10.43970499,-5.92222152,4.05223307
1.07265106,-0.20122911,-0.14656246

>  <Name>
lig.pdb

>  <RI>
2.75338e+07

>  <Rbt.Current_Directory>
/home/itssahil/PROJECTS/Mol_Feturizer/New_Systems/rnas/2lwk

>  <Rbt.Executable>
rbdock ($Id: //depot/dev/client3/rdock/2013.1/src/exe/rbdock.cxx#4 $)

>  <Rbt.Library>
libRbt.so (2013.1, Build901 2013/11/27)

>  <Rbt.Parameter_File>
/export/apps/rDock/src/rDock_2013.1_src/data/scripts/dock_solv.prm

>  <Rbt.Receptor>
prm/pocket_docking_8.prm

>  <SCORE>
-23.8723

>  <SCORE.INTER>
-18.4402

>  <SCORE.INTER.CONST>
1

>  <SCORE.INTER.POLAR>
-2.50362

>  <SCORE.INTER.ROT>
3

>  <SCORE.INTER.SOLV>
7.02047

>  <SCORE.INTER.VDW>
-11.8882

>  <SCORE.INTER.norm>
-0.878107

>  <SCORE.INTRA>
-5.4321

>  <SCORE.INTRA.DIHEDRAL>
0.905478

>  <SCORE.INTRA.DIHEDRAL.0>
8.84257

>  <SCORE.INTRA.POLAR>
0

>  <SCORE.INTRA.POLAR.0>
0

>  <SCORE.INTRA.REPUL>
0

>  <SCORE.INTRA.REPUL.0>
0

>  <SCORE.INTRA.SOLV>
0.147076

>  <SCORE.INTRA.SOLV.lig_0>
-17.1313

>  <SCORE.INTRA.VDW>
-5.95838

>  <SCORE.INTRA.VDW.0>
6.34071

>  <SCORE.INTRA.norm>
-0.258671

>  <SCORE.RESTR>
0

>  <SCORE.RESTR.CAVITY>
0

>  <SCORE.RESTR.norm>
0

>  <SCORE.SYSTEM>
0

>  <SCORE.SYSTEM.CONST>
0

>  <SCORE.SYSTEM.DIHEDRAL>
0

>  <SCORE.SYSTEM.SOLV>
0

>  <SCORE.SYSTEM.norm>
0

>  <SCORE.heavy>
21

>  <SCORE.norm>
-1.13678

>  <RMSD>
6.422

$$$$
lig.pdb
 OpenBabel11021811453D
libRbt.so/2013.1/901 2013/11/27
 21 23  0  0  0  0  0  0  0  0999 V2000
   -9.4632    0.2280    4.5146 C   0  0  0  0  0  0  0  0  0  0  0  0
   -9.0890    1.2953    3.8181 N   0  0  0  0  0  0  0  0  0  0  0  0
   -7.8238    1.6748    3.8203 C   0  0  0  0  0  0  0  0  0  0  0  0
   -6.9270    1.0192    4.5846 C   0  0  0  0  0  0  0  0  0  0  0  0
   -7.3074   -0.0590    5.2828 C   0  0  0  0  0  0  0  0  0  0  0  0
   -6.4291   -0.7098    6.0449 N   0  0  0  0  0  0  0  0  0  0  0  0
   -8.5774   -0.4490    5.2466 N   0  0  0  0  0  0  0  0  0  0  0  0
   -7.4491    2.7415    3.0946 C   0  0  0  0  0  0  0  0  0  0  0  0
   -6.1812    3.2346    3.2416 C   0  0  0  0  0  0  0  0  0  0  0  0
   -6.0186    4.6405    3.2478 O   0  0  0  0  0  0  0  0  0  0  0  0
   -5.2623    2.4641    3.8467 C   0  0  0  0  0  0  0  0  0  0  0  0
   -3.8810    2.7047    3.6182 O   0  0  0  0  0  0  0  0  0  0  0  0
   -5.6474    1.4180    4.6037 C   0  0  0  0  0  0  0  0  0  0  0  0
  -10.7289   -0.1524    4.4921 N   0  0  0  0  0  0  0  0  0  0  0  0
  -11.4082   -0.0274    5.6363 C   0  0  0  0  0  0  0  0  0  0  0  0
  -11.0729   -1.1799    6.5707 C   0  0  0  0  0  0  0  0  0  0  0  0
  -11.4301   -2.3742    5.9799 N   0  0  0  0  0  0  0  0  0  0  0  0
  -10.6863   -2.4961    4.8265 C   0  0  0  0  0  0  0  0  0  0  0  0
  -11.0227   -1.3485    3.8889 C   0  0  0  0  0  0  0  0  0  0  0  0
   -5.9584    5.0785    1.9145 C   0  0  0  0  0  0  0  0  0  0  0  0
   -3.5215    2.1326    2.3878 C   0  0  0  0  0  0  0  0  0  0  0  0
  1 14  1  0  0  0  0
  1  2  2  0  0  0  0
  3  2  1  0  0  0  0
  3  8  2  0  0  0  0
  4  3  1  0  0  0  0
  5  7  2  0  0  0  0
  5  4  1  0  0  0  0
  6  5  1  0  0  0  0
  7  1  1  0  0  0  0
  9 10  1  0  0  0  0
  9  8  1  0  0  0  0
 11  9  2  0  0  0  0
 12 11  1  0  0  0  0
 13  4  2  0  0  0  0
 13 11  1  0  0  0  0
 14 15  1  0  0  0  0
 16 15  1  0  0  0  0
 17 16  1  0  0  0  0
 18 17  1  0  0  0  0
 18 19  1  0  0  0  0
 19 14  1  0  0  0  0
 20 10  1  0  0  0  0
 21 12  1  0  0  0  0
M  END
>  <CHROM.1>
-112.45944539,-83.57045150,-79.84917029,-7.88006459,0.94699387,4.31700819
2.40566764,0.06923181,2.60649321

>  <Name>
lig.pdb

>  <RI>
3.31914e+07

>  <Rbt.Current_Directory>
/home/itssahil/PROJECTS/Mol_Feturizer/New_Systems/rnas/2lwk

>  <Rbt.Executable>
rbdock ($Id: //depot/dev/client3/rdock/2013.1/src/exe/rbdock.cxx#4 $)

>  <Rbt.Library>
libRbt.so (2013.1, Build901 2013/11/27)

>  <Rbt.Parameter_File>
/export/apps/rDock/src/rDock_2013.1_src/data/scripts/dock_solv.prm

>  <Rbt.Receptor>
prm/pocket_docking_3.prm

>  <SCORE>
-11.9884

>  <SCORE.INTER>
-6.81157

>  <SCORE.INTER.CONST>
1

>  <SCORE.INTER.POLAR>
-0.896354

>  <SCORE.INTER.ROT>
3

>  <SCORE.INTER.SOLV>
6.59351

>  <SCORE.INTER.VDW>
-9.35103

>  <SCORE.INTER.norm>
-0.32436

>  <SCORE.INTRA>
-5.37217

>  <SCORE.INTRA.DIHEDRAL>
0.473166

>  <SCORE.INTRA.DIHEDRAL.0>
8.84257

>  <SCORE.INTRA.POLAR>
0

>  <SCORE.INTRA.POLAR.0>
0

>  <SCORE.INTRA.REPUL>
0

>  <SCORE.INTRA.REPUL.0>
0

>  <SCORE.INTRA.SOLV>
0.0764848

>  <SCORE.INTRA.SOLV.lig_0>
-17.1313

>  <SCORE.INTRA.VDW>
-5.647

>  <SCORE.INTRA.VDW.0>
6.34071

>  <SCORE.INTRA.norm>
-0.255818

>  <SCORE.RESTR>
0.195317

>  <SCORE.RESTR.CAVITY>
0.195317

>  <SCORE.RESTR.norm>
0.0093008

>  <SCORE.SYSTEM>
0

>  <SCORE.SYSTEM.CONST>
0

>  <SCORE.SYSTEM.DIHEDRAL>
0

>  <SCORE.SYSTEM.SOLV>
0

>  <SCORE.SYSTEM.norm>
0

>  <SCORE.heavy>
21

>  <SCORE.norm>
-0.570877

>  <RMSD>
6.427

$$$$
lig.pdb
 OpenBabel11021811453D
libRbt.so/2013.1/901 2013/11/27
 21 23  0  0  0  0  0  0  0  0999 V2000
   -9.0093   -0.2678    4.3314 C   0  0  0  0  0  0  0  0  0  0  0  0
   -8.6874    0.9706    3.9749 N   0  0  0  0  0  0  0  0  0  0  0  0
   -7.4797    1.4392    4.2331 C   0  0  0  0  0  0  0  0  0  0  0  0
   -6.5985    0.6839    4.9196 C   0  0  0  0  0  0  0  0  0  0  0  0
   -6.9255   -0.5660    5.2743 C   0  0  0  0  0  0  0  0  0  0  0  0
   -6.0630   -1.3176    5.9574 N   0  0  0  0  0  0  0  0  0  0  0  0
   -8.1333   -1.0362    4.9802 N   0  0  0  0  0  0  0  0  0  0  0  0
   -7.1542    2.6845    3.8485 C   0  0  0  0  0  0  0  0  0  0  0  0
   -5.9715    3.2251    4.2742 C   0  0  0  0  0  0  0  0  0  0  0  0
   -5.9691    4.5898    4.6493 O   0  0  0  0  0  0  0  0  0  0  0  0
   -5.0392    2.4023    4.7822 C   0  0  0  0  0  0  0  0  0  0  0  0
   -3.6774    2.8066    4.7993 O   0  0  0  0  0  0  0  0  0  0  0  0
   -5.3805    1.1678    5.2006 C   0  0  0  0  0  0  0  0  0  0  0  0
  -10.2153   -0.7320    4.0534 N   0  0  0  0  0  0  0  0  0  0  0  0
  -11.0506   -0.8749    5.0868 C   0  0  0  0  0  0  0  0  0  0  0  0
  -10.7277   -2.1531    5.8457 C   0  0  0  0  0  0  0  0  0  0  0  0
  -10.8793   -3.2394    5.0091 N   0  0  0  0  0  0  0  0  0  0  0  0
   -9.9795   -3.0868    3.9770 C   0  0  0  0  0  0  0  0  0  0  0  0
  -10.3025   -1.8130    3.2139 C   0  0  0  0  0  0  0  0  0  0  0  0
   -5.8641    5.3630    3.4812 C   0  0  0  0  0  0  0  0  0  0  0  0
   -3.1341    2.6138    3.5195 C   0  0  0  0  0  0  0  0  0  0  0  0
  1 14  1  0  0  0  0
  1  2  2  0  0  0  0
  3  2  1  0  0  0  0
  3  8  2  0  0  0  0
  4  3  1  0  0  0  0
  5  7  2  0  0  0  0
  5  4  1  0  0  0  0
  6  5  1  0  0  0  0
  7  1  1  0  0  0  0
  9 10  1  0  0  0  0
  9  8  1  0  0  0  0
 11  9  2  0  0  0  0
 12 11  1  0  0  0  0
 13  4  2  0  0  0  0
 13 11  1  0  0  0  0
 14 15  1  0  0  0  0
 16 15  1  0  0  0  0
 17 16  1  0  0  0  0
 18 17  1  0  0  0  0
 18 19  1  0  0  0  0
 19 14  1  0  0  0  0
 20 10  1  0  0  0  0
 21 12  1  0  0  0  0
M  END
>  <CHROM.1>
-107.90097229,-81.72966043,-79.41823556,-7.51714069,0.61684732,4.54727307
2.36310619,0.20004902,2.86891968

>  <Name>
lig.pdb

>  <RI>
2.75338e+07

>  <Rbt.Current_Directory>
/home/itssahil/PROJECTS/Mol_Feturizer/New_Systems/rnas/2lwk

>  <Rbt.Executable>
rbdock ($Id: //depot/dev/client3/rdock/2013.1/src/exe/rbdock.cxx#4 $)

>  <Rbt.Library>
libRbt.so (2013.1, Build901 2013/11/27)

>  <Rbt.Parameter_File>
/export/apps/rDock/src/rDock_2013.1_src/data/scripts/dock_solv.prm

>  <Rbt.Receptor>
prm/pocket_docking_8.prm

>  <SCORE>
-13.1727

>  <SCORE.INTER>
-7.82626

>  <SCORE.INTER.CONST>
1

>  <SCORE.INTER.POLAR>
-0.978456

>  <SCORE.INTER.ROT>
3

>  <SCORE.INTER.SOLV>
6.00488

>  <SCORE.INTER.VDW>
-9.55762

>  <SCORE.INTER.norm>
-0.372679

>  <SCORE.INTRA>
-5.34642

>  <SCORE.INTRA.DIHEDRAL>
0.376537

>  <SCORE.INTRA.DIHEDRAL.0>
8.84257

>  <SCORE.INTRA.POLAR>
0

>  <SCORE.INTRA.POLAR.0>
0

>  <SCORE.INTRA.REPUL>
0

>  <SCORE.INTRA.REPUL.0>
0

>  <SCORE.INTRA.SOLV>
0.07499

>  <SCORE.INTRA.SOLV.lig_0>
-17.1313

>  <SCORE.INTRA.VDW>
-5.57219

>  <SCORE.INTRA.VDW.0>
6.34071

>  <SCORE.INTRA.norm>
-0.254592

>  <SCORE.RESTR>
0

>  <SCORE.RESTR.CAVITY>
0

>  <SCORE.RESTR.norm>
0

>  <SCORE.SYSTEM>
0

>  <SCORE.SYSTEM.CONST>
0

>  <SCORE.SYSTEM.DIHEDRAL>
0

>  <SCORE.SYSTEM.SOLV>
0

>  <SCORE.SYSTEM.norm>
0

>  <SCORE.heavy>
21

>  <SCORE.norm>
-0.627271

>  <RMSD>
6.441

$$$$
lig.pdb
 OpenBabel11021811453D
libRbt.so/2013.1/901 2013/11/27
 21 23  0  0  0  0  0  0  0  0999 V2000
   -9.5255    0.3205    4.4882 C   0  0  0  0  0  0  0  0  0  0  0  0
   -9.1922    1.3505    3.7186 N   0  0  0  0  0  0  0  0  0  0  0  0
   -7.9395    1.7679    3.6802 C   0  0  0  0  0  0  0  0  0  0  0  0
   -7.0148    1.1921    4.4748 C   0  0  0  0  0  0  0  0  0  0  0  0
   -7.3539    0.1512    5.2470 C   0  0  0  0  0  0  0  0  0  0  0  0
   -6.4479   -0.4206    6.0393 N   0  0  0  0  0  0  0  0  0  0  0  0
   -8.6114   -0.2791    5.2522 N   0  0  0  0  0  0  0  0  0  0  0  0
   -7.6060    2.7953    2.8814 C   0  0  0  0  0  0  0  0  0  0  0  0
   -6.3528    3.3357    2.9800 C   0  0  0  0  0  0  0  0  0  0  0  0
   -6.2344    4.7433    2.8918 O   0  0  0  0  0  0  0  0  0  0  0  0
   -5.4040    2.6354    3.6230 C   0  0  0  0  0  0  0  0  0  0  0  0
   -4.0333    2.9026    3.3621 O   0  0  0  0  0  0  0  0  0  0  0  0
   -5.7483    1.6303    4.4518 C   0  0  0  0  0  0  0  0  0  0  0  0
  -10.7788   -0.0991    4.5065 N   0  0  0  0  0  0  0  0  0  0  0  0
  -11.4226    0.0001    5.6734 C   0  0  0  0  0  0  0  0  0  0  0  0
  -11.0202   -1.1452    6.5902 C   0  0  0  0  0  0  0  0  0  0  0  0
  -11.3599   -2.3477    6.0057 N   0  0  0  0  0  0  0  0  0  0  0  0
  -10.6520   -2.4416    4.8274 C   0  0  0  0  0  0  0  0  0  0  0  0
  -11.0554   -1.3014    3.9074 C   0  0  0  0  0  0  0  0  0  0  0  0
   -6.2268    5.0960    1.5321 C   0  0  0  0  0  0  0  0  0  0  0  0
   -3.6870    2.3211    2.1324 C   0  0  0  0  0  0  0  0  0  0  0  0
  1 14  1  0  0  0  0
  1  2  2  0  0  0  0
  3  2  1  0  0  0  0
  3  8  2  0  0  0  0
  4  3  1  0  0  0  0
  5  7  2  0  0  0  0
  5  4  1  0  0  0  0
  6  5  1  0  0  0  0
  7  1  1  0  0  0  0
  9 10  1  0  0  0  0
  9  8  1  0  0  0  0
 11  9  2  0  0  0  0
 12 11  1  0  0  0  0
 13  4  2  0  0  0  0
 13 11  1  0  0  0  0
 14 15  1  0  0  0  0
 16 15  1  0  0  0  0
 17 16  1  0  0  0  0
 18 17  1  0  0  0  0
 18 19  1  0  0  0  0
 19 14  1  0  0  0  0
 20 10  1  0  0  0  0
 21 12  1  0  0  0  0
M  END
>  <CHROM.1>
-116.69620728,-82.49128884,-76.77371747,-7.96494846,1.06012338,4.20155580
2.37016156,0.09377395,2.54141275

>  <Name>
lig.pdb

>  <RI>
3.31914e+07

>  <Rbt.Current_Directory>
/home/itssahil/PROJECTS/Mol_Feturizer/New_Systems/rnas/2lwk

>  <Rbt.Executable>
rbdock ($Id: //depot/dev/client3/rdock/2013.1/src/exe/rbdock.cxx#4 $)

>  <Rbt.Library>
libRbt.so (2013.1, Build901 2013/11/27)

>  <Rbt.Parameter_File>
/export/apps/rDock/src/rDock_2013.1_src/data/scripts/dock_solv.prm

>  <Rbt.Receptor>
prm/pocket_docking_3.prm

>  <SCORE>
-12.1793

>  <SCORE.INTER>
-7.13347

>  <SCORE.INTER.CONST>
1

>  <SCORE.INTER.POLAR>
-1.09106

>  <SCORE.INTER.ROT>
3

>  <SCORE.INTER.SOLV>
7.02956

>  <SCORE.INTER.VDW>
-9.06198

>  <SCORE.INTER.norm>
-0.339689

>  <SCORE.INTRA>
-5.29636

>  <SCORE.INTRA.DIHEDRAL>
0.334354

>  <SCORE.INTRA.DIHEDRAL.0>
8.84257

>  <SCORE.INTRA.POLAR>
0

>  <SCORE.INTRA.POLAR.0>
0

>  <SCORE.INTRA.REPUL>
0

>  <SCORE.INTRA.REPUL.0>
0

>  <SCORE.INTRA.SOLV>
0.076931

>  <SCORE.INTRA.SOLV.lig_0>
-17.1313

>  <SCORE.INTRA.VDW>
-5.502

>  <SCORE.INTRA.VDW.0>
6.34071

>  <SCORE.INTRA.norm>
-0.252208

>  <SCORE.RESTR>
0.25051

>  <SCORE.RESTR.CAVITY>
0.25051

>  <SCORE.RESTR.norm>
0.0119291

>  <SCORE.SYSTEM>
0

>  <SCORE.SYSTEM.CONST>
0

>  <SCORE.SYSTEM.DIHEDRAL>
0

>  <SCORE.SYSTEM.SOLV>
0

>  <SCORE.SYSTEM.norm>
0

>  <SCORE.heavy>
21

>  <SCORE.norm>
-0.579967

>  <RMSD>
6.447

$$$$
lig.pdb
 OpenBabel11021811453D
libRbt.so/2013.1/901 2013/11/27
 21 23  0  0  0  0  0  0  0  0999 V2000
   -9.3030    0.0732    4.2394 C   0  0  0  0  0  0  0  0  0  0  0  0
   -8.9955    1.3121    3.8722 N   0  0  0  0  0  0  0  0  0  0  0  0
   -7.7559    1.7502    3.9996 C   0  0  0  0  0  0  0  0  0  0  0  0
   -6.8199    0.9624    4.5666 C   0  0  0  0  0  0  0  0  0  0  0  0
   -7.1328   -0.2879    4.9324 C   0  0  0  0  0  0  0  0  0  0  0  0
   -6.2156   -1.0716    5.4981 N   0  0  0  0  0  0  0  0  0  0  0  0
   -8.3766   -0.7268    4.7692 N   0  0  0  0  0  0  0  0  0  0  0  0
   -7.4480    2.9966    3.6042 C   0  0  0  0  0  0  0  0  0  0  0  0
   -6.2125    3.5035    3.9023 C   0  0  0  0  0  0  0  0  0  0  0  0
   -6.1362    4.8595    4.3005 O   0  0  0  0  0  0  0  0  0  0  0  0
   -5.2475    2.6510    4.2847 C   0  0  0  0  0  0  0  0  0  0  0  0
   -3.8837    3.0268    4.1539 O   0  0  0  0  0  0  0  0  0  0  0  0
   -5.5671    1.4150    4.7158 C   0  0  0  0  0  0  0  0  0  0  0  0
  -10.5431   -0.3601    4.0922 N   0  0  0  0  0  0  0  0  0  0  0  0
  -11.2547   -0.5193    5.2122 C   0  0  0  0  0  0  0  0  0  0  0  0
  -10.8731   -1.8259    5.8913 C   0  0  0  0  0  0  0  0  0  0  0  0
  -11.1452   -2.8831    5.0479 N   0  0  0  0  0  0  0  0  0  0  0  0
  -10.3692   -2.7153    3.9218 C   0  0  0  0  0  0  0  0  0  0  0  0
  -10.7515   -1.4130    3.2384 C   0  0  0  0  0  0  0  0  0  0  0  0
   -5.9500    5.6424    3.1492 C   0  0  0  0  0  0  0  0  0  0  0  0
   -3.4836    2.8156    2.8251 C   0  0  0  0  0  0  0  0  0  0  0  0
  1 14  1  0  0  0  0
  1  2  2  0  0  0  0
  3  2  1  0  0  0  0
  3  8  2  0  0  0  0
  4  3  1  0  0  0  0
  5  7  2  0  0  0  0
  5  4  1  0  0  0  0
  6  5  1  0  0  0  0
  7  1  1  0  0  0  0
  9 10  1  0  0  0  0
  9  8  1  0  0  0  0
 11  9  2  0  0  0  0
 12 11  1  0  0  0  0
 13  4  2  0  0  0  0
 13 11  1  0  0  0  0
 14 15  1  0  0  0  0
 16 15  1  0  0  0  0
 17 16  1  0  0  0  0
 18 17  1  0  0  0  0
 18 19  1  0  0  0  0
 19 14  1  0  0  0  0
 20 10  1  0  0  0  0
 21 12  1  0  0  0  0
M  END
>  <CHROM.1>
-108.47299803,-90.22228521,-81.02466544,-7.76449386,0.91830287,4.29781989
2.35716224,0.08495071,2.89135836

>  <Name>
lig.pdb

>  <RI>
1.4775e+07

>  <Rbt.Current_Directory>
/home/itssahil/PROJECTS/Mol_Feturizer/New_Systems/rnas/2lwk

>  <Rbt.Executable>
rbdock ($Id: //depot/dev/client3/rdock/2013.1/src/exe/rbdock.cxx#4 $)

>  <Rbt.Library>
libRbt.so (2013.1, Build901 2013/11/27)

>  <Rbt.Parameter_File>
/export/apps/rDock/src/rDock_2013.1_src/data/scripts/dock_solv.prm

>  <Rbt.Receptor>
prm/pocket_docking_4.prm

>  <SCORE>
-13.004

>  <SCORE.INTER>
-7.54809

>  <SCORE.INTER.CONST>
1

>  <SCORE.INTER.POLAR>
-1.28055

>  <SCORE.INTER.ROT>
3

>  <SCORE.INTER.SOLV>
7.41338

>  <SCORE.INTER.VDW>
-8.83468

>  <SCORE.INTER.norm>
-0.359433

>  <SCORE.INTRA>
-5.45586

>  <SCORE.INTRA.DIHEDRAL>
0.75896

>  <SCORE.INTRA.DIHEDRAL.0>
8.84257

>  <SCORE.INTRA.POLAR>
0

>  <SCORE.INTRA.POLAR.0>
0

>  <SCORE.INTRA.REPUL>
0

>  <SCORE.INTRA.REPUL.0>
0

>  <SCORE.INTRA.SOLV>
0.0817131

>  <SCORE.INTRA.SOLV.lig_0>
-17.1313

>  <SCORE.INTRA.VDW>
-5.87619

>  <SCORE.INTRA.VDW.0>
6.34071

>  <SCORE.INTRA.norm>
-0.259803

>  <SCORE.RESTR>
0

>  <SCORE.RESTR.CAVITY>
0

>  <SCORE.RESTR.norm>
0

>  <SCORE.SYSTEM>
0

>  <SCORE.SYSTEM.CONST>
0

>  <SCORE.SYSTEM.DIHEDRAL>
0

>  <SCORE.SYSTEM.SOLV>
0

>  <SCORE.SYSTEM.norm>
0

>  <SCORE.heavy>
21

>  <SCORE.norm>
-0.619236

>  <RMSD>
6.452

$$$$
lig.pdb
 OpenBabel11021811453D
libRbt.so/2013.1/901 2013/11/27
 21 23  0  0  0  0  0  0  0  0999 V2000
   -6.1030    6.0695    2.5616 C   0  0  0  0  0  0  0  0  0  0  0  0
   -6.8110    4.9471    2.6178 N   0  0  0  0  0  0  0  0  0  0  0  0
   -6.5296    4.0339    3.5297 C   0  0  0  0  0  0  0  0  0  0  0  0
   -5.4799    4.2118    4.3571 C   0  0  0  0  0  0  0  0  0  0  0  0
   -4.7703    5.3467    4.2999 C   0  0  0  0  0  0  0  0  0  0  0  0
   -3.7283    5.5288    5.1102 N   0  0  0  0  0  0  0  0  0  0  0  0
   -5.0842    6.2714    3.3984 N   0  0  0  0  0  0  0  0  0  0  0  0
   -7.2654    2.9118    3.5951 C   0  0  0  0  0  0  0  0  0  0  0  0
   -6.8596    1.8965    4.4177 C   0  0  0  0  0  0  0  0  0  0  0  0
   -6.9943    0.5703    3.9419 O   0  0  0  0  0  0  0  0  0  0  0  0
   -5.9415    2.1663    5.3603 C   0  0  0  0  0  0  0  0  0  0  0  0
   -5.8326    1.3235    6.4987 O   0  0  0  0  0  0  0  0  0  0  0  0
   -5.1811    3.2749    5.2680 C   0  0  0  0  0  0  0  0  0  0  0  0
   -6.4038    6.9837    1.6556 N   0  0  0  0  0  0  0  0  0  0  0  0
   -6.1495    6.6661    0.3825 C   0  0  0  0  0  0  0  0  0  0  0  0
   -4.6692    6.8504    0.0847 C   0  0  0  0  0  0  0  0  0  0  0  0
   -4.3173    8.1693    0.2836 N   0  0  0  0  0  0  0  0  0  0  0  0
   -4.5508    8.4570    1.6107 C   0  0  0  0  0  0  0  0  0  0  0  0
   -6.0298    8.2784    1.9102 C   0  0  0  0  0  0  0  0  0  0  0  0
   -8.0258   -0.0501    4.6661 C   0  0  0  0  0  0  0  0  0  0  0  0
   -4.7375    0.4637    6.3197 C   0  0  0  0  0  0  0  0  0  0  0  0
  1 14  1  0  0  0  0
  1  2  2  0  0  0  0
  3  2  1  0  0  0  0
  3  8  2  0  0  0  0
  4  3  1  0  0  0  0
  5  7  2  0  0  0  0
  5  4  1  0  0  0  0
  6  5  1  0  0  0  0
  7  1  1  0  0  0  0
  9 10  1  0  0  0  0
  9  8  1  0  0  0  0
 11  9  2  0  0  0  0
 12 11  1  0  0  0  0
 13  4  2  0  0  0  0
 13 11  1  0  0  0  0
 14 15  1  0  0  0  0
 16 15  1  0  0  0  0
 17 16  1  0  0  0  0
 18 17  1  0  0  0  0
 18 19  1  0  0  0  0
 19 14  1  0  0  0  0
 20 10  1  0  0  0  0
 21 12  1  0  0  0  0
M  END
>  <CHROM.1>
-69.09550826,-109.10804812,101.32429927,-5.76585131,4.47018930,3.42728852
1.36673919,-0.76868504,-0.70428212

>  <Name>
lig.pdb

>  <RI>
2.75338e+07

>  <Rbt.Current_Directory>
/home/itssahil/PROJECTS/Mol_Feturizer/New_Systems/rnas/2lwk

>  <Rbt.Executable>
rbdock ($Id: //depot/dev/client3/rdock/2013.1/src/exe/rbdock.cxx#4 $)

>  <Rbt.Library>
libRbt.so (2013.1, Build901 2013/11/27)

>  <Rbt.Parameter_File>
/export/apps/rDock/src/rDock_2013.1_src/data/scripts/dock_solv.prm

>  <Rbt.Receptor>
prm/pocket_docking_8.prm

>  <SCORE>
-19.8246

>  <SCORE.INTER>
-15.3422

>  <SCORE.INTER.CONST>
1

>  <SCORE.INTER.POLAR>
-1.97158

>  <SCORE.INTER.ROT>
3

>  <SCORE.INTER.SOLV>
6.4508

>  <SCORE.INTER.VDW>
-11.4065

>  <SCORE.INTER.norm>
-0.730581

>  <SCORE.INTRA>
-4.48238

>  <SCORE.INTRA.DIHEDRAL>
0.83507

>  <SCORE.INTRA.DIHEDRAL.0>
8.84257

>  <SCORE.INTRA.POLAR>
0

>  <SCORE.INTRA.POLAR.0>
0

>  <SCORE.INTRA.REPUL>
0

>  <SCORE.INTRA.REPUL.0>
0

>  <SCORE.INTRA.SOLV>
0.101364

>  <SCORE.INTRA.SOLV.lig_0>
-17.1313

>  <SCORE.INTRA.VDW>
-4.9506

>  <SCORE.INTRA.VDW.0>
6.34071

>  <SCORE.INTRA.norm>
-0.213447

>  <SCORE.RESTR>
0

>  <SCORE.RESTR.CAVITY>
0

>  <SCORE.RESTR.norm>
0

>  <SCORE.SYSTEM>
0

>  <SCORE.SYSTEM.CONST>
0

>  <SCORE.SYSTEM.DIHEDRAL>
0

>  <SCORE.SYSTEM.SOLV>
0

>  <SCORE.SYSTEM.norm>
0

>  <SCORE.heavy>
21

>  <SCORE.norm>
-0.944027

>  <RMSD>
6.457

$$$$
lig.pdb
 OpenBabel11021811453D
libRbt.so/2013.1/901 2013/11/27
 21 23  0  0  0  0  0  0  0  0999 V2000
   -5.8644    6.5315    2.5977 C   0  0  0  0  0  0  0  0  0  0  0  0
   -5.5687    5.8643    3.7075 N   0  0  0  0  0  0  0  0  0  0  0  0
   -6.0204    4.6349    3.8789 C   0  0  0  0  0  0  0  0  0  0  0  0
   -6.8380    4.0851    2.9585 C   0  0  0  0  0  0  0  0  0  0  0  0
   -7.1311    4.7597    1.8387 C   0  0  0  0  0  0  0  0  0  0  0  0
   -7.9424    4.2262    0.9261 N   0  0  0  0  0  0  0  0  0  0  0  0
   -6.6439    5.9839    1.6644 N   0  0  0  0  0  0  0  0  0  0  0  0
   -5.6975    3.9581    4.9936 C   0  0  0  0  0  0  0  0  0  0  0  0
   -6.3107    2.7615    5.2471 C   0  0  0  0  0  0  0  0  0  0  0  0
   -6.6856    2.4843    6.5834 O   0  0  0  0  0  0  0  0  0  0  0  0
   -6.9602    2.1511    4.2422 C   0  0  0  0  0  0  0  0  0  0  0  0
   -7.1988    0.7520    4.3052 O   0  0  0  0  0  0  0  0  0  0  0  0
   -7.3140    2.8457    3.1431 C   0  0  0  0  0  0  0  0  0  0  0  0
   -5.3934    7.7551    2.4293 N   0  0  0  0  0  0  0  0  0  0  0  0
   -6.2522    8.6634    1.9565 C   0  0  0  0  0  0  0  0  0  0  0  0
   -6.3999    8.5073    0.4505 C   0  0  0  0  0  0  0  0  0  0  0  0
   -5.1776    8.7048   -0.1578 N   0  0  0  0  0  0  0  0  0  0  0  0
   -4.3252    7.7316    0.3163 C   0  0  0  0  0  0  0  0  0  0  0  0
   -4.1719    7.8879    1.8200 C   0  0  0  0  0  0  0  0  0  0  0  0
   -5.5773    1.9243    7.2401 C   0  0  0  0  0  0  0  0  0  0  0  0
   -6.0137    0.0774    3.9722 C   0  0  0  0  0  0  0  0  0  0  0  0
  1 14  1  0  0  0  0
  1  2  2  0  0  0  0
  3  2  1  0  0  0  0
  3  8  2  0  0  0  0
  4  3  1  0  0  0  0
  5  7  2  0  0  0  0
  5  4  1  0  0  0  0
  6  5  1  0  0  0  0
  7  1  1  0  0  0  0
  9 10  1  0  0  0  0
  9  8  1  0  0  0  0
 11  9  2  0  0  0  0
 12 11  1  0  0  0  0
 13  4  2  0  0  0  0
 13 11  1  0  0  0  0
 14 15  1  0  0  0  0
 16 15  1  0  0  0  0
 17 16  1  0  0  0  0
 18 17  1  0  0  0  0
 18 19  1  0  0  0  0
 19 14  1  0  0  0  0
 20 10  1  0  0  0  0
 21 12  1  0  0  0  0
M  END
>  <CHROM.1>
-136.02969217,-85.72267012,-77.97009786,-6.16669381,4.85003734,3.05104054
-1.31204237,1.03608030,2.33323659

>  <Name>
lig.pdb

>  <RI>
2.20372e+07

>  <Rbt.Current_Directory>
/home/itssahil/PROJECTS/Mol_Feturizer/New_Systems/rnas/2lwk

>  <Rbt.Executable>
rbdock ($Id: //depot/dev/client3/rdock/2013.1/src/exe/rbdock.cxx#4 $)

>  <Rbt.Library>
libRbt.so (2013.1, Build901 2013/11/27)

>  <Rbt.Parameter_File>
/export/apps/rDock/src/rDock_2013.1_src/data/scripts/dock_solv.prm

>  <Rbt.Receptor>
prm/pocket_docking_7.prm

>  <SCORE>
-25.7279

>  <SCORE.INTER>
-20.9305

>  <SCORE.INTER.CONST>
1

>  <SCORE.INTER.POLAR>
-2.5784

>  <SCORE.INTER.ROT>
3

>  <SCORE.INTER.SOLV>
7.74951

>  <SCORE.INTER.VDW>
-13.5422

>  <SCORE.INTER.norm>
-0.996693

>  <SCORE.INTRA>
-4.79736

>  <SCORE.INTRA.DIHEDRAL>
0.509041

>  <SCORE.INTRA.DIHEDRAL.0>
8.84257

>  <SCORE.INTRA.POLAR>
0

>  <SCORE.INTRA.POLAR.0>
0

>  <SCORE.INTRA.REPUL>
0

>  <SCORE.INTRA.REPUL.0>
0

>  <SCORE.INTRA.SOLV>
0.075337

>  <SCORE.INTRA.SOLV.lig_0>
-17.1313

>  <SCORE.INTRA.VDW>
-5.08955

>  <SCORE.INTRA.VDW.0>
6.34071

>  <SCORE.INTRA.norm>
-0.228446

>  <SCORE.RESTR>
0

>  <SCORE.RESTR.CAVITY>
0

>  <SCORE.RESTR.norm>
0

>  <SCORE.SYSTEM>
0

>  <SCORE.SYSTEM.CONST>
0

>  <SCORE.SYSTEM.DIHEDRAL>
0

>  <SCORE.SYSTEM.SOLV>
0

>  <SCORE.SYSTEM.norm>
0

>  <SCORE.heavy>
21

>  <SCORE.norm>
-1.22514

>  <RMSD>
6.473

$$$$
lig.pdb
 OpenBabel11021811453D
libRbt.so/2013.1/901 2013/11/27
 21 23  0  0  0  0  0  0  0  0999 V2000
  -12.1813   -1.7412    5.1001 C   0  0  0  0  0  0  0  0  0  0  0  0
  -12.2149   -2.8252    4.3332 N   0  0  0  0  0  0  0  0  0  0  0  0
  -13.0353   -3.8175    4.6283 C   0  0  0  0  0  0  0  0  0  0  0  0
  -13.7868   -3.7582    5.7463 C   0  0  0  0  0  0  0  0  0  0  0  0
  -13.7529   -2.6617    6.5154 C   0  0  0  0  0  0  0  0  0  0  0  0
  -14.4882   -2.5965    7.6247 N   0  0  0  0  0  0  0  0  0  0  0  0
  -12.9463   -1.6570    6.1894 N   0  0  0  0  0  0  0  0  0  0  0  0
  -13.0803   -4.9004    3.8345 C   0  0  0  0  0  0  0  0  0  0  0  0
  -13.7947   -5.9944    4.2407 C   0  0  0  0  0  0  0  0  0  0  0  0
  -13.2395   -7.2723    3.9921 O   0  0  0  0  0  0  0  0  0  0  0  0
  -14.6778   -5.8450    5.2417 C   0  0  0  0  0  0  0  0  0  0  0  0
  -15.7419   -6.7749    5.3864 O   0  0  0  0  0  0  0  0  0  0  0  0
  -14.6030   -4.7749    6.0572 C   0  0  0  0  0  0  0  0  0  0  0  0
  -11.3684   -0.7473    4.7862 N   0  0  0  0  0  0  0  0  0  0  0  0
  -10.1280   -1.0856    4.4214 C   0  0  0  0  0  0  0  0  0  0  0  0
   -9.2875   -1.3914    5.6519 C   0  0  0  0  0  0  0  0  0  0  0  0
   -9.2159   -0.2713    6.4540 N   0  0  0  0  0  0  0  0  0  0  0  0
  -10.5014    0.0300    6.8479 C   0  0  0  0  0  0  0  0  0  0  0  0
  -11.3424    0.3406    5.6209 C   0  0  0  0  0  0  0  0  0  0  0  0
  -13.8857   -7.8180    2.8706 C   0  0  0  0  0  0  0  0  0  0  0  0
  -16.7191   -6.4958    4.4181 C   0  0  0  0  0  0  0  0  0  0  0  0
  1 14  1  0  0  0  0
  1  2  2  0  0  0  0
  3  2  1  0  0  0  0
  3  8  2  0  0  0  0
  4  3  1  0  0  0  0
  5  7  2  0  0  0  0
  5  4  1  0  0  0  0
  6  5  1  0  0  0  0
  7  1  1  0  0  0  0
  9 10  1  0  0  0  0
  9  8  1  0  0  0  0
 11  9  2  0  0  0  0
 12 11  1  0  0  0  0
 13  4  2  0  0  0  0
 13 11  1  0  0  0  0
 14 15  1  0  0  0  0
 16 15  1  0  0  0  0
 17 16  1  0  0  0  0
 18 17  1  0  0  0  0
 18 19  1  0  0  0  0
 19 14  1  0  0  0  0
 20 10  1  0  0  0  0
 21 12  1  0  0  0  0
M  END
>  <CHROM.1>
-44.10475404,-101.61314499,-76.39933199,-12.85949696,-3.45492937,5.24190352
-0.86795116,-0.50089550,-2.53171923

>  <Name>
lig.pdb

>  <RI>
2.59814e+07

>  <Rbt.Current_Directory>
/home/itssahil/PROJECTS/Mol_Feturizer/New_Systems/rnas/2lwk

>  <Rbt.Executable>
rbdock ($Id: //depot/dev/client3/rdock/2013.1/src/exe/rbdock.cxx#4 $)

>  <Rbt.Library>
libRbt.so (2013.1, Build901 2013/11/27)

>  <Rbt.Parameter_File>
/export/apps/rDock/src/rDock_2013.1_src/data/scripts/dock_solv.prm

>  <Rbt.Receptor>
prm/pocket_docking_6.prm

>  <SCORE>
-22.9035

>  <SCORE.INTER>
-19.4869

>  <SCORE.INTER.CONST>
1

>  <SCORE.INTER.POLAR>
-1.81886

>  <SCORE.INTER.ROT>
3

>  <SCORE.INTER.SOLV>
9.67582

>  <SCORE.INTER.VDW>
-15.7537

>  <SCORE.INTER.norm>
-0.927946

>  <SCORE.INTRA>
-3.67843

>  <SCORE.INTRA.DIHEDRAL>
0.817514

>  <SCORE.INTRA.DIHEDRAL.0>
8.84257

>  <SCORE.INTRA.POLAR>
0

>  <SCORE.INTRA.POLAR.0>
0

>  <SCORE.INTRA.REPUL>
0

>  <SCORE.INTRA.REPUL.0>
0

>  <SCORE.INTRA.SOLV>
-0.00310245

>  <SCORE.INTRA.SOLV.lig_0>
-17.1313

>  <SCORE.INTRA.VDW>
-4.08564

>  <SCORE.INTRA.VDW.0>
6.34071

>  <SCORE.INTRA.norm>
-0.175163

>  <SCORE.RESTR>
0.261785

>  <SCORE.RESTR.CAVITY>
0.261785

>  <SCORE.RESTR.norm>
0.012466

>  <SCORE.SYSTEM>
0

>  <SCORE.SYSTEM.CONST>
0

>  <SCORE.SYSTEM.DIHEDRAL>
0

>  <SCORE.SYSTEM.SOLV>
0

>  <SCORE.SYSTEM.norm>
0

>  <SCORE.heavy>
21

>  <SCORE.norm>
-1.09064

>  <RMSD>
6.491

$$$$
lig.pdb
 OpenBabel11021811453D
libRbt.so/2013.1/901 2013/11/27
 21 23  0  0  0  0  0  0  0  0999 V2000
   -9.4812    0.2248    4.4851 C   0  0  0  0  0  0  0  0  0  0  0  0
   -9.1210    1.3061    3.8031 N   0  0  0  0  0  0  0  0  0  0  0  0
   -7.8508    1.6657    3.7582 C   0  0  0  0  0  0  0  0  0  0  0  0
   -6.9315    0.9742    4.4617 C   0  0  0  0  0  0  0  0  0  0  0  0
   -7.2980   -0.1181    5.1454 C   0  0  0  0  0  0  0  0  0  0  0  0
   -6.3972   -0.8045    5.8476 N   0  0  0  0  0  0  0  0  0  0  0  0
   -8.5747   -0.4870    5.1562 N   0  0  0  0  0  0  0  0  0  0  0  0
   -7.4914    2.7473    3.0470 C   0  0  0  0  0  0  0  0  0  0  0  0
   -6.2101    3.2161    3.1498 C   0  0  0  0  0  0  0  0  0  0  0  0
   -6.0237    4.6186    3.1888 O   0  0  0  0  0  0  0  0  0  0  0  0
   -5.2778    2.4140    3.6900 C   0  0  0  0  0  0  0  0  0  0  0  0
   -3.9044    2.6398    3.4055 O   0  0  0  0  0  0  0  0  0  0  0  0
   -5.6458    1.3523    4.4335 C   0  0  0  0  0  0  0  0  0  0  0  0
  -10.7529   -0.1351    4.5097 N   0  0  0  0  0  0  0  0  0  0  0  0
  -11.3994    0.0429    5.6658 C   0  0  0  0  0  0  0  0  0  0  0  0
  -11.0573   -1.0803    6.6330 C   0  0  0  0  0  0  0  0  0  0  0  0
  -11.4488   -2.2892    6.0961 N   0  0  0  0  0  0  0  0  0  0  0  0
  -10.7380   -2.4654    4.9290 C   0  0  0  0  0  0  0  0  0  0  0  0
  -11.0813   -1.3474    3.9588 C   0  0  0  0  0  0  0  0  0  0  0  0
   -5.9514    5.0859    1.8661 C   0  0  0  0  0  0  0  0  0  0  0  0
   -3.3631    3.4527    4.4137 C   0  0  0  0  0  0  0  0  0  0  0  0
  1 14  1  0  0  0  0
  1  2  2  0  0  0  0
  3  2  1  0  0  0  0
  3  8  2  0  0  0  0
  4  3  1  0  0  0  0
  5  7  2  0  0  0  0
  5  4  1  0  0  0  0
  6  5  1  0  0  0  0
  7  1  1  0  0  0  0
  9 10  1  0  0  0  0
  9  8  1  0  0  0  0
 11  9  2  0  0  0  0
 12 11  1  0  0  0  0
 13  4  2  0  0  0  0
 13 11  1  0  0  0  0
 14 15  1  0  0  0  0
 16 15  1  0  0  0  0
 17 16  1  0  0  0  0
 18 17  1  0  0  0  0
 18 19  1  0  0  0  0
 19 14  1  0  0  0  0
 20 10  1  0  0  0  0
 21 12  1  0  0  0  0
M  END
>  <CHROM.1>
-108.54069893,-86.39132389,93.59440546,-7.88429198,1.00923221,4.37364534
2.41719077,0.15299488,2.56823626

>  <Name>
lig.pdb

>  <RI>
3.31914e+07

>  <Rbt.Current_Directory>
/home/itssahil/PROJECTS/Mol_Feturizer/New_Systems/rnas/2lwk

>  <Rbt.Executable>
rbdock ($Id: //depot/dev/client3/rdock/2013.1/src/exe/rbdock.cxx#4 $)

>  <Rbt.Library>
libRbt.so (2013.1, Build901 2013/11/27)

>  <Rbt.Parameter_File>
/export/apps/rDock/src/rDock_2013.1_src/data/scripts/dock_solv.prm

>  <Rbt.Receptor>
prm/pocket_docking_3.prm

>  <SCORE>
-12.2005

>  <SCORE.INTER>
-6.99974

>  <SCORE.INTER.CONST>
1

>  <SCORE.INTER.POLAR>
-0.954557

>  <SCORE.INTER.ROT>
3

>  <SCORE.INTER.SOLV>
6.68173

>  <SCORE.INTER.VDW>
-9.31188

>  <SCORE.INTER.norm>
-0.333321

>  <SCORE.INTRA>
-5.40945

>  <SCORE.INTRA.DIHEDRAL>
0.6901

>  <SCORE.INTRA.DIHEDRAL.0>
8.84257

>  <SCORE.INTRA.POLAR>
0

>  <SCORE.INTRA.POLAR.0>
0

>  <SCORE.INTRA.REPUL>
0

>  <SCORE.INTRA.REPUL.0>
0

>  <SCORE.INTRA.SOLV>
0.125325

>  <SCORE.INTRA.SOLV.lig_0>
-17.1313

>  <SCORE.INTRA.VDW>
-5.81716

>  <SCORE.INTRA.VDW.0>
6.34071

>  <SCORE.INTRA.norm>
-0.257593

>  <SCORE.RESTR>
0.208707

>  <SCORE.RESTR.CAVITY>
0.208707

>  <SCORE.RESTR.norm>
0.00993841

>  <SCORE.SYSTEM>
0

>  <SCORE.SYSTEM.CONST>
0

>  <SCORE.SYSTEM.DIHEDRAL>
0

>  <SCORE.SYSTEM.SOLV>
0

>  <SCORE.SYSTEM.norm>
0

>  <SCORE.heavy>
21

>  <SCORE.norm>
-0.580975

>  <RMSD>
6.492

$$$$
lig.pdb
 OpenBabel11021811453D
libRbt.so/2013.1/901 2013/11/27
 21 23  0  0  0  0  0  0  0  0999 V2000
  -10.3495   -4.0933    3.3991 C   0  0  0  0  0  0  0  0  0  0  0  0
   -9.8284   -5.2931    3.6298 N   0  0  0  0  0  0  0  0  0  0  0  0
  -10.6202   -6.3410    3.7697 C   0  0  0  0  0  0  0  0  0  0  0  0
  -11.9587   -6.1796    3.7471 C   0  0  0  0  0  0  0  0  0  0  0  0
  -12.4806   -4.9686    3.5105 C   0  0  0  0  0  0  0  0  0  0  0  0
  -13.8021   -4.7989    3.4915 N   0  0  0  0  0  0  0  0  0  0  0  0
  -11.6716   -3.9281    3.3399 N   0  0  0  0  0  0  0  0  0  0  0  0
  -10.0844   -7.5550    3.9796 C   0  0  0  0  0  0  0  0  0  0  0  0
  -10.9077   -8.5996    4.3008 C   0  0  0  0  0  0  0  0  0  0  0  0
  -10.4584   -9.5132    5.2840 O   0  0  0  0  0  0  0  0  0  0  0  0
  -12.2262   -8.4641    4.0833 C   0  0  0  0  0  0  0  0  0  0  0  0
  -13.0406   -9.6206    3.9517 O   0  0  0  0  0  0  0  0  0  0  0  0
  -12.7622   -7.2399    3.9110 C   0  0  0  0  0  0  0  0  0  0  0  0
   -9.5470   -3.0544    3.2444 N   0  0  0  0  0  0  0  0  0  0  0  0
   -8.5336   -2.9512    4.1096 C   0  0  0  0  0  0  0  0  0  0  0  0
   -9.0300   -2.3783    5.4285 C   0  0  0  0  0  0  0  0  0  0  0  0
   -9.5540   -1.1195    5.2187 N   0  0  0  0  0  0  0  0  0  0  0  0
  -10.6201   -1.2609    4.3574 C   0  0  0  0  0  0  0  0  0  0  0  0
  -10.1265   -1.8288    3.0371 C   0  0  0  0  0  0  0  0  0  0  0  0
   -9.8570  -10.5997    4.6274 C   0  0  0  0  0  0  0  0  0  0  0  0
  -13.4793   -9.7139    2.6216 C   0  0  0  0  0  0  0  0  0  0  0  0
  1 14  1  0  0  0  0
  1  2  2  0  0  0  0
  3  2  1  0  0  0  0
  3  8  2  0  0  0  0
  4  3  1  0  0  0  0
  5  7  2  0  0  0  0
  5  4  1  0  0  0  0
  6  5  1  0  0  0  0
  7  1  1  0  0  0  0
  9 10  1  0  0  0  0
  9  8  1  0  0  0  0
 11  9  2  0  0  0  0
 12 11  1  0  0  0  0
 13  4  2  0  0  0  0
 13 11  1  0  0  0  0
 14 15  1  0  0  0  0
 16 15  1  0  0  0  0
 17 16  1  0  0  0  0
 18 17  1  0  0  0  0
 18 19  1  0  0  0  0
 19 14  1  0  0  0  0
 20 10  1  0  0  0  0
 21 12  1  0  0  0  0
M  END
>  <CHROM.1>
-44.14719794,-95.37095561,-110.97448059,-11.00699625,-5.70669796,3.96824571
1.28710470,-0.32947978,-0.07472545

>  <Name>
lig.pdb

>  <RI>
2.20372e+07

>  <Rbt.Current_Directory>
/home/itssahil/PROJECTS/Mol_Feturizer/New_Systems/rnas/2lwk

>  <Rbt.Executable>
rbdock ($Id: //depot/dev/client3/rdock/2013.1/src/exe/rbdock.cxx#4 $)

>  <Rbt.Library>
libRbt.so (2013.1, Build901 2013/11/27)

>  <Rbt.Parameter_File>
/export/apps/rDock/src/rDock_2013.1_src/data/scripts/dock_solv.prm

>  <Rbt.Receptor>
prm/pocket_docking_7.prm

>  <SCORE>
-23.7934

>  <SCORE.INTER>
-20.5883

>  <SCORE.INTER.CONST>
1

>  <SCORE.INTER.POLAR>
-2.26751

>  <SCORE.INTER.ROT>
3

>  <SCORE.INTER.SOLV>
8.91499

>  <SCORE.INTER.VDW>
-14.7388

>  <SCORE.INTER.norm>
-0.980397

>  <SCORE.INTRA>
-3.20502

>  <SCORE.INTRA.DIHEDRAL>
0.223098

>  <SCORE.INTRA.DIHEDRAL.0>
8.84257

>  <SCORE.INTRA.POLAR>
0

>  <SCORE.INTRA.POLAR.0>
0

>  <SCORE.INTRA.REPUL>
0

>  <SCORE.INTRA.REPUL.0>
0

>  <SCORE.INTRA.SOLV>
-0.0277699

>  <SCORE.INTRA.SOLV.lig_0>
-17.1313

>  <SCORE.INTRA.VDW>
-3.30269

>  <SCORE.INTRA.VDW.0>
6.34071

>  <SCORE.INTRA.norm>
-0.15262

>  <SCORE.RESTR>
0

>  <SCORE.RESTR.CAVITY>
0

>  <SCORE.RESTR.norm>
0

>  <SCORE.SYSTEM>
0

>  <SCORE.SYSTEM.CONST>
0

>  <SCORE.SYSTEM.DIHEDRAL>
0

>  <SCORE.SYSTEM.SOLV>
0

>  <SCORE.SYSTEM.norm>
0

>  <SCORE.heavy>
21

>  <SCORE.norm>
-1.13302

>  <RMSD>
6.495

$$$$
lig.pdb
 OpenBabel11021811453D
libRbt.so/2013.1/901 2013/11/27
 21 23  0  0  0  0  0  0  0  0999 V2000
  -10.5309   -3.9788    4.5236 C   0  0  0  0  0  0  0  0  0  0  0  0
  -10.0014   -5.1891    4.6622 N   0  0  0  0  0  0  0  0  0  0  0  0
  -10.7040   -6.2586    4.3347 C   0  0  0  0  0  0  0  0  0  0  0  0
  -11.9818   -6.1238    3.9260 C   0  0  0  0  0  0  0  0  0  0  0  0
  -12.5113   -4.9014    3.7840 C   0  0  0  0  0  0  0  0  0  0  0  0
  -13.7748   -4.7589    3.3855 N   0  0  0  0  0  0  0  0  0  0  0  0
  -11.7825   -3.8321    4.0868 N   0  0  0  0  0  0  0  0  0  0  0  0
  -10.1530   -7.4778    4.4556 C   0  0  0  0  0  0  0  0  0  0  0  0
  -10.9405   -8.5840    4.2873 C   0  0  0  0  0  0  0  0  0  0  0  0
  -10.7315   -9.6794    5.1589 O   0  0  0  0  0  0  0  0  0  0  0  0
  -12.1383   -8.4319    3.6987 C   0  0  0  0  0  0  0  0  0  0  0  0
  -12.7708   -9.5491    3.0905 O   0  0  0  0  0  0  0  0  0  0  0  0
  -12.7017   -7.2108    3.6146 C   0  0  0  0  0  0  0  0  0  0  0  0
   -9.8129   -2.9147    4.8389 N   0  0  0  0  0  0  0  0  0  0  0  0
  -10.2533   -2.1830    5.8670 C   0  0  0  0  0  0  0  0  0  0  0  0
  -11.3960   -1.2854    5.4168 C   0  0  0  0  0  0  0  0  0  0  0  0
  -10.9514   -0.4289    4.4310 N   0  0  0  0  0  0  0  0  0  0  0  0
  -10.5427   -1.2071    3.3699 C   0  0  0  0  0  0  0  0  0  0  0  0
   -9.3980   -2.1017    3.8153 C   0  0  0  0  0  0  0  0  0  0  0  0
   -9.9993  -10.6561    4.4639 C   0  0  0  0  0  0  0  0  0  0  0  0
  -13.6321  -10.1436    4.0259 C   0  0  0  0  0  0  0  0  0  0  0  0
  1 14  1  0  0  0  0
  1  2  2  0  0  0  0
  3  2  1  0  0  0  0
  3  8  2  0  0  0  0
  4  3  1  0  0  0  0
  5  7  2  0  0  0  0
  5  4  1  0  0  0  0
  6  5  1  0  0  0  0
  7  1  1  0  0  0  0
  9 10  1  0  0  0  0
  9  8  1  0  0  0  0
 11  9  2  0  0  0  0
 12 11  1  0  0  0  0
 13  4  2  0  0  0  0
 13 11  1  0  0  0  0
 14 15  1  0  0  0  0
 16 15  1  0  0  0  0
 17 16  1  0  0  0  0
 18 17  1  0  0  0  0
 18 19  1  0  0  0  0
 19 14  1  0  0  0  0
 20 10  1  0  0  0  0
 21 12  1  0  0  0  0
M  END
>  <CHROM.1>
-115.11393856,-102.25378400,93.34941904,-11.29051042,-5.58306316,4.25017209
-1.41558653,0.34951880,-3.14012468

>  <Name>
lig.pdb

>  <RI>
2.75338e+07

>  <Rbt.Current_Directory>
/home/itssahil/PROJECTS/Mol_Feturizer/New_Systems/rnas/2lwk

>  <Rbt.Executable>
rbdock ($Id: //depot/dev/client3/rdock/2013.1/src/exe/rbdock.cxx#4 $)

>  <Rbt.Library>
libRbt.so (2013.1, Build901 2013/11/27)

>  <Rbt.Parameter_File>
/export/apps/rDock/src/rDock_2013.1_src/data/scripts/dock_solv.prm

>  <Rbt.Receptor>
prm/pocket_docking_8.prm

>  <SCORE>
-32.0028

>  <SCORE.INTER>
-26.558

>  <SCORE.INTER.CONST>
1

>  <SCORE.INTER.POLAR>
-3.70945

>  <SCORE.INTER.ROT>
3

>  <SCORE.INTER.SOLV>
8.34494

>  <SCORE.INTER.VDW>
-13.7221

>  <SCORE.INTER.norm>
-1.26466

>  <SCORE.INTRA>
-5.44485

>  <SCORE.INTRA.DIHEDRAL>
1.01267

>  <SCORE.INTRA.DIHEDRAL.0>
8.84257

>  <SCORE.INTRA.POLAR>
0

>  <SCORE.INTRA.POLAR.0>
0

>  <SCORE.INTRA.REPUL>
0

>  <SCORE.INTRA.REPUL.0>
0

>  <SCORE.INTRA.SOLV>
0.140183

>  <SCORE.INTRA.SOLV.lig_0>
-17.1313

>  <SCORE.INTRA.VDW>
-6.02127

>  <SCORE.INTRA.VDW.0>
6.34071

>  <SCORE.INTRA.norm>
-0.259278

>  <SCORE.RESTR>
0

>  <SCORE.RESTR.CAVITY>
0

>  <SCORE.RESTR.norm>
0

>  <SCORE.SYSTEM>
0

>  <SCORE.SYSTEM.CONST>
0

>  <SCORE.SYSTEM.DIHEDRAL>
0

>  <SCORE.SYSTEM.SOLV>
0

>  <SCORE.SYSTEM.norm>
0

>  <SCORE.heavy>
21

>  <SCORE.norm>
-1.52394

>  <RMSD>
6.514

$$$$
lig.pdb
 OpenBabel11021811453D
libRbt.so/2013.1/901 2013/11/27
 21 23  0  0  0  0  0  0  0  0999 V2000
   -9.5109    0.2800    4.4762 C   0  0  0  0  0  0  0  0  0  0  0  0
   -9.1736    1.3331    3.7404 N   0  0  0  0  0  0  0  0  0  0  0  0
   -7.9163    1.7364    3.7021 C   0  0  0  0  0  0  0  0  0  0  0  0
   -6.9898    1.1210    4.4643 C   0  0  0  0  0  0  0  0  0  0  0  0
   -7.3330    0.0569    5.2024 C   0  0  0  0  0  0  0  0  0  0  0  0
   -6.4251   -0.5542    5.9626 N   0  0  0  0  0  0  0  0  0  0  0  0
   -8.5956   -0.3579    5.2070 N   0  0  0  0  0  0  0  0  0  0  0  0
   -7.5792    2.7880    2.9371 C   0  0  0  0  0  0  0  0  0  0  0  0
   -6.3182    3.3092    3.0401 C   0  0  0  0  0  0  0  0  0  0  0  0
   -6.1832    4.7176    3.0015 O   0  0  0  0  0  0  0  0  0  0  0  0
   -5.3709    2.5746    3.6460 C   0  0  0  0  0  0  0  0  0  0  0  0
   -4.0001    2.8345    3.3786 O   0  0  0  0  0  0  0  0  0  0  0  0
   -5.7182    1.5444    4.4420 C   0  0  0  0  0  0  0  0  0  0  0  0
  -10.7691   -0.1248    4.4943 N   0  0  0  0  0  0  0  0  0  0  0  0
  -11.4185    0.0025    5.6554 C   0  0  0  0  0  0  0  0  0  0  0  0
  -11.0348   -1.1309    6.5947 C   0  0  0  0  0  0  0  0  0  0  0  0
  -11.3850   -2.3396    6.0295 N   0  0  0  0  0  0  0  0  0  0  0  0
  -10.6714   -2.4626    4.8572 C   0  0  0  0  0  0  0  0  0  0  0  0
  -11.0561   -1.3343    3.9149 C   0  0  0  0  0  0  0  0  0  0  0  0
   -6.0489    5.1061    1.6583 C   0  0  0  0  0  0  0  0  0  0  0  0
   -3.4645    3.5714    4.4465 C   0  0  0  0  0  0  0  0  0  0  0  0
  1 14  1  0  0  0  0
  1  2  2  0  0  0  0
  3  2  1  0  0  0  0
  3  8  2  0  0  0  0
  4  3  1  0  0  0  0
  5  7  2  0  0  0  0
  5  4  1  0  0  0  0
  6  5  1  0  0  0  0
  7  1  1  0  0  0  0
  9 10  1  0  0  0  0
  9  8  1  0  0  0  0
 11  9  2  0  0  0  0
 12 11  1  0  0  0  0
 13  4  2  0  0  0  0
 13 11  1  0  0  0  0
 14 15  1  0  0  0  0
 16 15  1  0  0  0  0
 17 16  1  0  0  0  0
 18 17  1  0  0  0  0
 18 19  1  0  0  0  0
 19 14  1  0  0  0  0
 20 10  1  0  0  0  0
 21 12  1  0  0  0  0
M  END
>  <CHROM.1>
-113.44428207,-88.44096009,101.64727182,-7.93001720,1.08802479,4.33530236
2.40382020,0.20972291,2.51224383

>  <Name>
lig.pdb

>  <RI>
3.31914e+07

>  <Rbt.Current_Directory>
/home/itssahil/PROJECTS/Mol_Feturizer/New_Systems/rnas/2lwk

>  <Rbt.Executable>
rbdock ($Id: //depot/dev/client3/rdock/2013.1/src/exe/rbdock.cxx#4 $)

>  <Rbt.Library>
libRbt.so (2013.1, Build901 2013/11/27)

>  <Rbt.Parameter_File>
/export/apps/rDock/src/rDock_2013.1_src/data/scripts/dock_solv.prm

>  <Rbt.Receptor>
prm/pocket_docking_3.prm

>  <SCORE>
-12.3501

>  <SCORE.INTER>
-7.17613

>  <SCORE.INTER.CONST>
1

>  <SCORE.INTER.POLAR>
-1.0425

>  <SCORE.INTER.ROT>
3

>  <SCORE.INTER.SOLV>
6.92978

>  <SCORE.INTER.VDW>
-9.219

>  <SCORE.INTER.norm>
-0.34172

>  <SCORE.INTRA>
-5.40757

>  <SCORE.INTRA.DIHEDRAL>
0.633206

>  <SCORE.INTRA.DIHEDRAL.0>
8.84257

>  <SCORE.INTRA.POLAR>
0

>  <SCORE.INTRA.POLAR.0>
0

>  <SCORE.INTRA.REPUL>
0

>  <SCORE.INTRA.REPUL.0>
0

>  <SCORE.INTRA.SOLV>
0.120096

>  <SCORE.INTRA.SOLV.lig_0>
-17.1313

>  <SCORE.INTRA.VDW>
-5.78422

>  <SCORE.INTRA.VDW.0>
6.34071

>  <SCORE.INTRA.norm>
-0.257503

>  <SCORE.RESTR>
0.233588

>  <SCORE.RESTR.CAVITY>
0.233588

>  <SCORE.RESTR.norm>
0.0111232

>  <SCORE.SYSTEM>
0

>  <SCORE.SYSTEM.CONST>
0

>  <SCORE.SYSTEM.DIHEDRAL>
0

>  <SCORE.SYSTEM.SOLV>
0

>  <SCORE.SYSTEM.norm>
0

>  <SCORE.heavy>
21

>  <SCORE.norm>
-0.588101

>  <RMSD>
6.525

$$$$
lig.pdb
 OpenBabel11021811453D
libRbt.so/2013.1/901 2013/11/27
 21 23  0  0  0  0  0  0  0  0999 V2000
  -10.6373   -4.0094    3.4291 C   0  0  0  0  0  0  0  0  0  0  0  0
  -10.8604   -5.2798    3.1116 N   0  0  0  0  0  0  0  0  0  0  0  0
  -11.9462   -5.8895    3.5521 C   0  0  0  0  0  0  0  0  0  0  0  0
  -12.7911   -5.2423    4.3800 C   0  0  0  0  0  0  0  0  0  0  0  0
  -12.5647   -3.9600    4.6950 C   0  0  0  0  0  0  0  0  0  0  0  0
  -13.3915   -3.3142    5.5165 N   0  0  0  0  0  0  0  0  0  0  0  0
  -11.4847   -3.3488    4.2191 N   0  0  0  0  0  0  0  0  0  0  0  0
  -12.1764   -7.1673    3.2073 C   0  0  0  0  0  0  0  0  0  0  0  0
  -13.2024   -7.8445    3.8082 C   0  0  0  0  0  0  0  0  0  0  0  0
  -12.9808   -9.1973    4.1605 O   0  0  0  0  0  0  0  0  0  0  0  0
  -14.1340   -7.1376    4.4689 C   0  0  0  0  0  0  0  0  0  0  0  0
  -15.4170   -7.7035    4.6967 O   0  0  0  0  0  0  0  0  0  0  0  0
  -13.8816   -5.8684    4.8444 C   0  0  0  0  0  0  0  0  0  0  0  0
   -9.5557   -3.4044    2.9693 N   0  0  0  0  0  0  0  0  0  0  0  0
   -8.4469   -3.5271    3.7053 C   0  0  0  0  0  0  0  0  0  0  0  0
   -8.4924   -2.5636    4.8816 C   0  0  0  0  0  0  0  0  0  0  0  0
   -8.5653   -1.2671    4.4159 N   0  0  0  0  0  0  0  0  0  0  0  0
   -9.7356   -1.1583    3.6968 C   0  0  0  0  0  0  0  0  0  0  0  0
   -9.6911   -2.1164    2.5181 C   0  0  0  0  0  0  0  0  0  0  0  0
  -13.2208   -9.9886    3.0250 C   0  0  0  0  0  0  0  0  0  0  0  0
  -16.1462   -7.6641    3.4979 C   0  0  0  0  0  0  0  0  0  0  0  0
  1 14  1  0  0  0  0
  1  2  2  0  0  0  0
  3  2  1  0  0  0  0
  3  8  2  0  0  0  0
  4  3  1  0  0  0  0
  5  7  2  0  0  0  0
  5  4  1  0  0  0  0
  6  5  1  0  0  0  0
  7  1  1  0  0  0  0
  9 10  1  0  0  0  0
  9  8  1  0  0  0  0
 11  9  2  0  0  0  0
 12 11  1  0  0  0  0
 13  4  2  0  0  0  0
 13 11  1  0  0  0  0
 14 15  1  0  0  0  0
 16 15  1  0  0  0  0
 17 16  1  0  0  0  0
 18 17  1  0  0  0  0
 18 19  1  0  0  0  0
 19 14  1  0  0  0  0
 20 10  1  0  0  0  0
 21 12  1  0  0  0  0
M  END
>  <CHROM.1>
-87.36014978,-83.69581985,-75.63784719,-11.88629485,-5.13587814,3.95282195
-0.82817486,-0.32564772,-2.87219718

>  <Name>
lig.pdb

>  <RI>
2.59814e+07

>  <Rbt.Current_Directory>
/home/itssahil/PROJECTS/Mol_Feturizer/New_Systems/rnas/2lwk

>  <Rbt.Executable>
rbdock ($Id: //depot/dev/client3/rdock/2013.1/src/exe/rbdock.cxx#4 $)

>  <Rbt.Library>
libRbt.so (2013.1, Build901 2013/11/27)

>  <Rbt.Parameter_File>
/export/apps/rDock/src/rDock_2013.1_src/data/scripts/dock_solv.prm

>  <Rbt.Receptor>
prm/pocket_docking_6.prm

>  <SCORE>
-16.4051

>  <SCORE.INTER>
-11.7937

>  <SCORE.INTER.CONST>
1

>  <SCORE.INTER.POLAR>
-1.37698

>  <SCORE.INTER.ROT>
3

>  <SCORE.INTER.SOLV>
7.85762

>  <SCORE.INTER.VDW>
-11.4918

>  <SCORE.INTER.norm>
-0.561606

>  <SCORE.INTRA>
-4.98826

>  <SCORE.INTRA.DIHEDRAL>
0.365076

>  <SCORE.INTRA.DIHEDRAL.0>
8.84257

>  <SCORE.INTRA.POLAR>
0

>  <SCORE.INTRA.POLAR.0>
0

>  <SCORE.INTRA.REPUL>
0

>  <SCORE.INTRA.REPUL.0>
0

>  <SCORE.INTRA.SOLV>
0.0710074

>  <SCORE.INTRA.SOLV.lig_0>
-17.1313

>  <SCORE.INTRA.VDW>
-5.2063

>  <SCORE.INTRA.VDW.0>
6.34071

>  <SCORE.INTRA.norm>
-0.237536

>  <SCORE.RESTR>
0.376854

>  <SCORE.RESTR.CAVITY>
0.376854

>  <SCORE.RESTR.norm>
0.0179455

>  <SCORE.SYSTEM>
0

>  <SCORE.SYSTEM.CONST>
0

>  <SCORE.SYSTEM.DIHEDRAL>
0

>  <SCORE.SYSTEM.SOLV>
0

>  <SCORE.SYSTEM.norm>
0

>  <SCORE.heavy>
21

>  <SCORE.norm>
-0.781197

>  <RMSD>
6.525

$$$$
lig.pdb
 OpenBabel11021811453D
libRbt.so/2013.1/901 2013/11/27
 21 23  0  0  0  0  0  0  0  0999 V2000
   -9.0206   -0.2560    4.3596 C   0  0  0  0  0  0  0  0  0  0  0  0
   -8.6807    0.9684    3.9729 N   0  0  0  0  0  0  0  0  0  0  0  0
   -7.4818    1.4426    4.2606 C   0  0  0  0  0  0  0  0  0  0  0  0
   -6.6304    0.7095    5.0060 C   0  0  0  0  0  0  0  0  0  0  0  0
   -6.9754   -0.5265    5.3911 C   0  0  0  0  0  0  0  0  0  0  0  0
   -6.1424   -1.2560    6.1322 N   0  0  0  0  0  0  0  0  0  0  0  0
   -8.1729   -1.0036    5.0676 N   0  0  0  0  0  0  0  0  0  0  0  0
   -7.1372    2.6730    3.8457 C   0  0  0  0  0  0  0  0  0  0  0  0
   -5.9695    3.2251    4.2972 C   0  0  0  0  0  0  0  0  0  0  0  0
   -5.9761    4.6021    4.6246 O   0  0  0  0  0  0  0  0  0  0  0  0
   -5.0604    2.4181    4.8686 C   0  0  0  0  0  0  0  0  0  0  0  0
   -3.6987    2.8193    4.9236 O   0  0  0  0  0  0  0  0  0  0  0  0
   -5.4221    1.1998    5.3163 C   0  0  0  0  0  0  0  0  0  0  0  0
  -10.2170   -0.7265    4.0521 N   0  0  0  0  0  0  0  0  0  0  0  0
  -11.0634   -0.9112    5.0698 C   0  0  0  0  0  0  0  0  0  0  0  0
  -10.7337   -2.2077    5.7939 C   0  0  0  0  0  0  0  0  0  0  0  0
  -10.8608   -3.2699    4.9229 N   0  0  0  0  0  0  0  0  0  0  0  0
   -9.9500   -3.0748    3.9076 C   0  0  0  0  0  0  0  0  0  0  0  0
  -10.2797   -1.7825    3.1793 C   0  0  0  0  0  0  0  0  0  0  0  0
   -5.7771    5.3326    3.4414 C   0  0  0  0  0  0  0  0  0  0  0  0
   -3.4990    3.5776    6.0878 C   0  0  0  0  0  0  0  0  0  0  0  0
  1 14  1  0  0  0  0
  1  2  2  0  0  0  0
  3  2  1  0  0  0  0
  3  8  2  0  0  0  0
  4  3  1  0  0  0  0
  5  7  2  0  0  0  0
  5  4  1  0  0  0  0
  6  5  1  0  0  0  0
  7  1  1  0  0  0  0
  9 10  1  0  0  0  0
  9  8  1  0  0  0  0
 11  9  2  0  0  0  0
 12 11  1  0  0  0  0
 13  4  2  0  0  0  0
 13 11  1  0  0  0  0
 14 15  1  0  0  0  0
 16 15  1  0  0  0  0
 17 16  1  0  0  0  0
 18 17  1  0  0  0  0
 18 19  1  0  0  0  0
 19 14  1  0  0  0  0
 20 10  1  0  0  0  0
 21 12  1  0  0  0  0
M  END
>  <CHROM.1>
-112.00129234,-83.75038278,87.59067037,-7.54254419,0.67291192,4.70552097
2.40475469,0.39229988,2.76862352

>  <Name>
lig.pdb

>  <RI>
1.4775e+07

>  <Rbt.Current_Directory>
/home/itssahil/PROJECTS/Mol_Feturizer/New_Systems/rnas/2lwk

>  <Rbt.Executable>
rbdock ($Id: //depot/dev/client3/rdock/2013.1/src/exe/rbdock.cxx#4 $)

>  <Rbt.Library>
libRbt.so (2013.1, Build901 2013/11/27)

>  <Rbt.Parameter_File>
/export/apps/rDock/src/rDock_2013.1_src/data/scripts/dock_solv.prm

>  <Rbt.Receptor>
prm/pocket_docking_4.prm

>  <SCORE>
-13.9206

>  <SCORE.INTER>
-8.63402

>  <SCORE.INTER.CONST>
1

>  <SCORE.INTER.POLAR>
-0.963375

>  <SCORE.INTER.ROT>
3

>  <SCORE.INTER.SOLV>
6.1466

>  <SCORE.INTER.VDW>
-10.1936

>  <SCORE.INTER.norm>
-0.411144

>  <SCORE.INTRA>
-5.28658

>  <SCORE.INTRA.DIHEDRAL>
0.550834

>  <SCORE.INTRA.DIHEDRAL.0>
8.84257

>  <SCORE.INTRA.POLAR>
0

>  <SCORE.INTRA.POLAR.0>
0

>  <SCORE.INTRA.REPUL>
0

>  <SCORE.INTRA.REPUL.0>
0

>  <SCORE.INTRA.SOLV>
0.128292

>  <SCORE.INTRA.SOLV.lig_0>
-17.1313

>  <SCORE.INTRA.VDW>
-5.62614

>  <SCORE.INTRA.VDW.0>
6.34071

>  <SCORE.INTRA.norm>
-0.251742

>  <SCORE.RESTR>
0

>  <SCORE.RESTR.CAVITY>
0

>  <SCORE.RESTR.norm>
0

>  <SCORE.SYSTEM>
0

>  <SCORE.SYSTEM.CONST>
0

>  <SCORE.SYSTEM.DIHEDRAL>
0

>  <SCORE.SYSTEM.SOLV>
0

>  <SCORE.SYSTEM.norm>
0

>  <SCORE.heavy>
21

>  <SCORE.norm>
-0.662886

>  <RMSD>
6.528

$$$$
lig.pdb
 OpenBabel11021811453D
libRbt.so/2013.1/901 2013/11/27
 21 23  0  0  0  0  0  0  0  0999 V2000
  -10.5889   -3.9636    4.5762 C   0  0  0  0  0  0  0  0  0  0  0  0
  -10.0588   -5.1760    4.6919 N   0  0  0  0  0  0  0  0  0  0  0  0
  -10.7611   -6.2395    4.3448 C   0  0  0  0  0  0  0  0  0  0  0  0
  -12.0392   -6.0977    3.9391 C   0  0  0  0  0  0  0  0  0  0  0  0
  -12.5692   -4.8730    3.8201 C   0  0  0  0  0  0  0  0  0  0  0  0
  -13.8329   -4.7237    3.4249 N   0  0  0  0  0  0  0  0  0  0  0  0
  -11.8407   -3.8092    4.1426 N   0  0  0  0  0  0  0  0  0  0  0  0
  -10.2095   -7.4605    4.4427 C   0  0  0  0  0  0  0  0  0  0  0  0
  -10.9967   -8.5638    4.2541 C   0  0  0  0  0  0  0  0  0  0  0  0
  -10.7868   -9.6751    5.1050 O   0  0  0  0  0  0  0  0  0  0  0  0
  -12.1947   -8.4012    3.6688 C   0  0  0  0  0  0  0  0  0  0  0  0
  -12.8270   -9.5071    3.0401 O   0  0  0  0  0  0  0  0  0  0  0  0
  -12.7587   -7.1790    3.6078 C   0  0  0  0  0  0  0  0  0  0  0  0
   -9.8713   -2.9052    4.9110 N   0  0  0  0  0  0  0  0  0  0  0  0
  -10.3198   -2.1845    5.9433 C   0  0  0  0  0  0  0  0  0  0  0  0
  -11.4556   -1.2785    5.4925 C   0  0  0  0  0  0  0  0  0  0  0  0
  -10.9991   -0.4117    4.5213 N   0  0  0  0  0  0  0  0  0  0  0  0
  -10.5821   -1.1784    3.4552 C   0  0  0  0  0  0  0  0  0  0  0  0
   -9.4441   -2.0814    3.9012 C   0  0  0  0  0  0  0  0  0  0  0  0
  -10.1721  -10.6900    4.3531 C   0  0  0  0  0  0  0  0  0  0  0  0
  -13.8083  -10.0164    3.9049 C   0  0  0  0  0  0  0  0  0  0  0  0
  1 14  1  0  0  0  0
  1  2  2  0  0  0  0
  3  2  1  0  0  0  0
  3  8  2  0  0  0  0
  4  3  1  0  0  0  0
  5  7  2  0  0  0  0
  5  4  1  0  0  0  0
  6  5  1  0  0  0  0
  7  1  1  0  0  0  0
  9 10  1  0  0  0  0
  9  8  1  0  0  0  0
 11  9  2  0  0  0  0
 12 11  1  0  0  0  0
 13  4  2  0  0  0  0
 13 11  1  0  0  0  0
 14 15  1  0  0  0  0
 16 15  1  0  0  0  0
 17 16  1  0  0  0  0
 18 17  1  0  0  0  0
 18 19  1  0  0  0  0
 19 14  1  0  0  0  0
 20 10  1  0  0  0  0
 21 12  1  0  0  0  0
M  END
>  <CHROM.1>
-115.84153899,-108.01145939,100.65389612,-11.35854782,-5.55994846,4.26372773
-1.40977657,0.34657574,-3.12228041

>  <Name>
lig.pdb

>  <RI>
2.75338e+07

>  <Rbt.Current_Directory>
/home/itssahil/PROJECTS/Mol_Feturizer/New_Systems/rnas/2lwk

>  <Rbt.Executable>
rbdock ($Id: //depot/dev/client3/rdock/2013.1/src/exe/rbdock.cxx#4 $)

>  <Rbt.Library>
libRbt.so (2013.1, Build901 2013/11/27)

>  <Rbt.Parameter_File>
/export/apps/rDock/src/rDock_2013.1_src/data/scripts/dock_solv.prm

>  <Rbt.Receptor>
prm/pocket_docking_8.prm

>  <SCORE>
-32.1905

>  <SCORE.INTER>
-26.7559

>  <SCORE.INTER.CONST>
1

>  <SCORE.INTER.POLAR>
-3.73056

>  <SCORE.INTER.ROT>
3

>  <SCORE.INTER.SOLV>
8.30399

>  <SCORE.INTER.VDW>
-13.77

>  <SCORE.INTER.norm>
-1.27409

>  <SCORE.INTRA>
-5.43464

>  <SCORE.INTRA.DIHEDRAL>
0.861267

>  <SCORE.INTRA.DIHEDRAL.0>
8.84257

>  <SCORE.INTRA.POLAR>
0

>  <SCORE.INTRA.POLAR.0>
0

>  <SCORE.INTRA.REPUL>
0

>  <SCORE.INTRA.REPUL.0>
0

>  <SCORE.INTRA.SOLV>
0.139149

>  <SCORE.INTRA.SOLV.lig_0>
-17.1313

>  <SCORE.INTRA.VDW>
-5.93485

>  <SCORE.INTRA.VDW.0>
6.34071

>  <SCORE.INTRA.norm>
-0.258793

>  <SCORE.RESTR>
0

>  <SCORE.RESTR.CAVITY>
0

>  <SCORE.RESTR.norm>
0

>  <SCORE.SYSTEM>
0

>  <SCORE.SYSTEM.CONST>
0

>  <SCORE.SYSTEM.DIHEDRAL>
0

>  <SCORE.SYSTEM.SOLV>
0

>  <SCORE.SYSTEM.norm>
0

>  <SCORE.heavy>
21

>  <SCORE.norm>
-1.53288

>  <RMSD>
6.531

$$$$
lig.pdb
 OpenBabel11021811453D
libRbt.so/2013.1/901 2013/11/27
 21 23  0  0  0  0  0  0  0  0999 V2000
  -12.4380   -1.6148    5.3055 C   0  0  0  0  0  0  0  0  0  0  0  0
  -12.2968   -2.6744    4.5171 N   0  0  0  0  0  0  0  0  0  0  0  0
  -13.0459   -3.7452    4.7096 C   0  0  0  0  0  0  0  0  0  0  0  0
  -13.9038   -3.7870    5.7490 C   0  0  0  0  0  0  0  0  0  0  0  0
  -14.0461   -2.7150    6.5399 C   0  0  0  0  0  0  0  0  0  0  0  0
  -14.8878   -2.7492    7.5724 N   0  0  0  0  0  0  0  0  0  0  0  0
  -13.3088   -1.6322    6.3155 N   0  0  0  0  0  0  0  0  0  0  0  0
  -12.9134   -4.8039    3.8933 C   0  0  0  0  0  0  0  0  0  0  0  0
  -13.5588   -5.9696    4.2048 C   0  0  0  0  0  0  0  0  0  0  0  0
  -12.8657   -7.1841    3.9862 O   0  0  0  0  0  0  0  0  0  0  0  0
  -14.5441   -5.9302    5.1167 C   0  0  0  0  0  0  0  0  0  0  0  0
  -15.5262   -6.9565    5.1369 O   0  0  0  0  0  0  0  0  0  0  0  0
  -14.6480   -4.8821    5.9572 C   0  0  0  0  0  0  0  0  0  0  0  0
  -11.6947   -0.5426    5.0935 N   0  0  0  0  0  0  0  0  0  0  0  0
  -10.6177   -0.7087    4.3198 C   0  0  0  0  0  0  0  0  0  0  0  0
   -9.4900   -1.3381    5.1236 C   0  0  0  0  0  0  0  0  0  0  0  0
   -9.1497   -0.5089    6.1722 N   0  0  0  0  0  0  0  0  0  0  0  0
  -10.2639   -0.3886    6.9738 C   0  0  0  0  0  0  0  0  0  0  0  0
  -11.3909    0.2444    6.1748 C   0  0  0  0  0  0  0  0  0  0  0  0
  -13.4205   -7.8053    2.8550 C   0  0  0  0  0  0  0  0  0  0  0  0
  -16.6411   -6.5278    4.3997 C   0  0  0  0  0  0  0  0  0  0  0  0
  1 14  1  0  0  0  0
  1  2  2  0  0  0  0
  3  2  1  0  0  0  0
  3  8  2  0  0  0  0
  4  3  1  0  0  0  0
  5  7  2  0  0  0  0
  5  4  1  0  0  0  0
  6  5  1  0  0  0  0
  7  1  1  0  0  0  0
  9 10  1  0  0  0  0
  9  8  1  0  0  0  0
 11  9  2  0  0  0  0
 12 11  1  0  0  0  0
 13  4  2  0  0  0  0
 13 11  1  0  0  0  0
 14 15  1  0  0  0  0
 16 15  1  0  0  0  0
 17 16  1  0  0  0  0
 18 17  1  0  0  0  0
 18 19  1  0  0  0  0
 19 14  1  0  0  0  0
 20 10  1  0  0  0  0
 21 12  1  0  0  0  0
M  END
>  <CHROM.1>
-16.45785861,-106.24254946,-95.30142356,-12.88689414,-3.46573202,5.24539601
0.92462521,0.46134541,0.55045229

>  <Name>
lig.pdb

>  <RI>
2.59814e+07

>  <Rbt.Current_Directory>
/home/itssahil/PROJECTS/Mol_Feturizer/New_Systems/rnas/2lwk

>  <Rbt.Executable>
rbdock ($Id: //depot/dev/client3/rdock/2013.1/src/exe/rbdock.cxx#4 $)

>  <Rbt.Library>
libRbt.so (2013.1, Build901 2013/11/27)

>  <Rbt.Parameter_File>
/export/apps/rDock/src/rDock_2013.1_src/data/scripts/dock_solv.prm

>  <Rbt.Receptor>
prm/pocket_docking_6.prm

>  <SCORE>
-27.3534

>  <SCORE.INTER>
-24.2099

>  <SCORE.INTER.CONST>
1

>  <SCORE.INTER.POLAR>
-2.34364

>  <SCORE.INTER.ROT>
3

>  <SCORE.INTER.SOLV>
10.2005

>  <SCORE.INTER.VDW>
-17.3279

>  <SCORE.INTER.norm>
-1.15285

>  <SCORE.INTRA>
-3.25022

>  <SCORE.INTRA.DIHEDRAL>
0.909142

>  <SCORE.INTRA.DIHEDRAL.0>
8.84257

>  <SCORE.INTRA.POLAR>
0

>  <SCORE.INTRA.POLAR.0>
0

>  <SCORE.INTRA.REPUL>
0

>  <SCORE.INTRA.REPUL.0>
0

>  <SCORE.INTRA.SOLV>
-0.0405398

>  <SCORE.INTRA.SOLV.lig_0>
-17.1313

>  <SCORE.INTRA.VDW>
-3.68452

>  <SCORE.INTRA.VDW.0>
6.34071

>  <SCORE.INTRA.norm>
-0.154772

>  <SCORE.RESTR>
0.106708

>  <SCORE.RESTR.CAVITY>
0.106708

>  <SCORE.RESTR.norm>
0.00508132

>  <SCORE.SYSTEM>
0

>  <SCORE.SYSTEM.CONST>
0

>  <SCORE.SYSTEM.DIHEDRAL>
0

>  <SCORE.SYSTEM.SOLV>
0

>  <SCORE.SYSTEM.norm>
0

>  <SCORE.heavy>
21

>  <SCORE.norm>
-1.30254

>  <RMSD>
6.553

$$$$
lig.pdb
 OpenBabel11021811453D
libRbt.so/2013.1/901 2013/11/27
 21 23  0  0  0  0  0  0  0  0999 V2000
   -9.6367   -1.0708    4.5523 C   0  0  0  0  0  0  0  0  0  0  0  0
   -9.2388    0.0473    3.9559 N   0  0  0  0  0  0  0  0  0  0  0  0
   -8.1694    0.6858    4.3959 C   0  0  0  0  0  0  0  0  0  0  0  0
   -7.5241    0.2393    5.4924 C   0  0  0  0  0  0  0  0  0  0  0  0
   -7.9261   -0.8909    6.0891 C   0  0  0  0  0  0  0  0  0  0  0  0
   -7.2976   -1.3367    7.1762 N   0  0  0  0  0  0  0  0  0  0  0  0
   -8.9848   -1.5408    5.6167 N   0  0  0  0  0  0  0  0  0  0  0  0
   -7.7597    1.8032    3.7728 C   0  0  0  0  0  0  0  0  0  0  0  0
   -6.7652    2.5541    4.3378 C   0  0  0  0  0  0  0  0  0  0  0  0
   -6.8923    3.9627    4.2830 O   0  0  0  0  0  0  0  0  0  0  0  0
   -6.0169    1.9990    5.3053 C   0  0  0  0  0  0  0  0  0  0  0  0
   -4.7276    2.5249    5.5873 O   0  0  0  0  0  0  0  0  0  0  0  0
   -6.4519    0.8997    5.9517 C   0  0  0  0  0  0  0  0  0  0  0  0
  -10.6986   -1.7104    4.0934 N   0  0  0  0  0  0  0  0  0  0  0  0
  -11.8043   -1.6405    4.8408 C   0  0  0  0  0  0  0  0  0  0  0  0
  -11.7112   -2.6177    6.0028 C   0  0  0  0  0  0  0  0  0  0  0  0
  -11.5933   -3.9039    5.5181 N   0  0  0  0  0  0  0  0  0  0  0  0
  -10.4265   -3.9578    4.7873 C   0  0  0  0  0  0  0  0  0  0  0  0
  -10.5183   -2.9859    3.6227 C   0  0  0  0  0  0  0  0  0  0  0  0
   -6.3523    4.4021    3.0629 C   0  0  0  0  0  0  0  0  0  0  0  0
   -4.8600    3.5682    6.5169 C   0  0  0  0  0  0  0  0  0  0  0  0
  1 14  1  0  0  0  0
  1  2  2  0  0  0  0
  3  2  1  0  0  0  0
  3  8  2  0  0  0  0
  4  3  1  0  0  0  0
  5  7  2  0  0  0  0
  5  4  1  0  0  0  0
  6  5  1  0  0  0  0
  7  1  1  0  0  0  0
  9 10  1  0  0  0  0
  9  8  1  0  0  0  0
 11  9  2  0  0  0  0
 12 11  1  0  0  0  0
 13  4  2  0  0  0  0
 13 11  1  0  0  0  0
 14 15  1  0  0  0  0
 16 15  1  0  0  0  0
 17 16  1  0  0  0  0
 18 17  1  0  0  0  0
 18 19  1  0  0  0  0
 19 14  1  0  0  0  0
 20 10  1  0  0  0  0
 21 12  1  0  0  0  0
M  END
>  <CHROM.1>
-107.60788757,-86.45885577,87.08624372,-8.33822779,0.06294814,5.01394218
2.49622261,0.63206867,2.46235672

>  <Name>
lig.pdb

>  <RI>
3.31914e+07

>  <Rbt.Current_Directory>
/home/itssahil/PROJECTS/Mol_Feturizer/New_Systems/rnas/2lwk

>  <Rbt.Executable>
rbdock ($Id: //depot/dev/client3/rdock/2013.1/src/exe/rbdock.cxx#4 $)

>  <Rbt.Library>
libRbt.so (2013.1, Build901 2013/11/27)

>  <Rbt.Parameter_File>
/export/apps/rDock/src/rDock_2013.1_src/data/scripts/dock_solv.prm

>  <Rbt.Receptor>
prm/pocket_docking_3.prm

>  <SCORE>
-10.0514

>  <SCORE.INTER>
-5.52966

>  <SCORE.INTER.CONST>
1

>  <SCORE.INTER.POLAR>
-0.601497

>  <SCORE.INTER.ROT>
3

>  <SCORE.INTER.SOLV>
5.87255

>  <SCORE.INTER.VDW>
-9.23897

>  <SCORE.INTER.norm>
-0.263317

>  <SCORE.INTRA>
-5.32934

>  <SCORE.INTRA.DIHEDRAL>
0.662469

>  <SCORE.INTRA.DIHEDRAL.0>
8.84257

>  <SCORE.INTRA.POLAR>
0

>  <SCORE.INTRA.POLAR.0>
0

>  <SCORE.INTRA.REPUL>
0

>  <SCORE.INTRA.REPUL.0>
0

>  <SCORE.INTRA.SOLV>
0.130969

>  <SCORE.INTRA.SOLV.lig_0>
-17.1313

>  <SCORE.INTRA.VDW>
-5.72606

>  <SCORE.INTRA.VDW.0>
6.34071

>  <SCORE.INTRA.norm>
-0.253778

>  <SCORE.RESTR>
0.807646

>  <SCORE.RESTR.CAVITY>
0.807646

>  <SCORE.RESTR.norm>
0.0384593

>  <SCORE.SYSTEM>
0

>  <SCORE.SYSTEM.CONST>
0

>  <SCORE.SYSTEM.DIHEDRAL>
0

>  <SCORE.SYSTEM.SOLV>
0

>  <SCORE.SYSTEM.norm>
0

>  <SCORE.heavy>
21

>  <SCORE.norm>
-0.478636

>  <RMSD>
6.565

$$$$
lig.pdb
 OpenBabel11021811453D
libRbt.so/2013.1/901 2013/11/27
 21 23  0  0  0  0  0  0  0  0999 V2000
   -5.3646    5.7679    1.7212 C   0  0  0  0  0  0  0  0  0  0  0  0
   -6.1874    4.7277    1.7933 N   0  0  0  0  0  0  0  0  0  0  0  0
   -6.2669    4.0247    2.9088 C   0  0  0  0  0  0  0  0  0  0  0  0
   -5.4620    4.3218    3.9490 C   0  0  0  0  0  0  0  0  0  0  0  0
   -4.6359    5.3739    3.8739 C   0  0  0  0  0  0  0  0  0  0  0  0
   -3.8333    5.6718    4.8950 N   0  0  0  0  0  0  0  0  0  0  0  0
   -4.5890    6.0921    2.7566 N   0  0  0  0  0  0  0  0  0  0  0  0
   -7.1187    2.9885    2.9815 C   0  0  0  0  0  0  0  0  0  0  0  0
   -7.0672    2.1593    4.0688 C   0  0  0  0  0  0  0  0  0  0  0  0
   -7.2235    0.7705    3.8452 O   0  0  0  0  0  0  0  0  0  0  0  0
   -6.4082    2.5789    5.1614 C   0  0  0  0  0  0  0  0  0  0  0  0
   -6.7048    2.0044    6.4264 O   0  0  0  0  0  0  0  0  0  0  0  0
   -5.5273    3.5946    5.0731 C   0  0  0  0  0  0  0  0  0  0  0  0
   -5.3052    6.4742    0.6055 N   0  0  0  0  0  0  0  0  0  0  0  0
   -4.1229    7.0234    0.3112 C   0  0  0  0  0  0  0  0  0  0  0  0
   -3.9173    8.2890    1.1297 C   0  0  0  0  0  0  0  0  0  0  0  0
   -4.9083    9.2007    0.8297 N   0  0  0  0  0  0  0  0  0  0  0  0
   -6.1101    8.6254    1.1806 C   0  0  0  0  0  0  0  0  0  0  0  0
   -6.3205    7.3632    0.3611 C   0  0  0  0  0  0  0  0  0  0  0  0
   -8.3778    0.3467    4.5243 C   0  0  0  0  0  0  0  0  0  0  0  0
   -5.6726    1.1181    6.7719 C   0  0  0  0  0  0  0  0  0  0  0  0
  1 14  1  0  0  0  0
  1  2  2  0  0  0  0
  3  2  1  0  0  0  0
  3  8  2  0  0  0  0
  4  3  1  0  0  0  0
  5  7  2  0  0  0  0
  5  4  1  0  0  0  0
  6  5  1  0  0  0  0
  7  1  1  0  0  0  0
  9 10  1  0  0  0  0
  9  8  1  0  0  0  0
 11  9  2  0  0  0  0
 12 11  1  0  0  0  0
 13  4  2  0  0  0  0
 13 11  1  0  0  0  0
 14 15  1  0  0  0  0
 16 15  1  0  0  0  0
 17 16  1  0  0  0  0
 18 17  1  0  0  0  0
 18 19  1  0  0  0  0
 19 14  1  0  0  0  0
 20 10  1  0  0  0  0
 21 12  1  0  0  0  0
M  END
>  <CHROM.1>
-148.23283833,-117.73520469,104.40912820,-5.76633148,4.68021756,3.12543027
1.21702713,-0.81567084,-0.85512535

>  <Name>
lig.pdb

>  <RI>
2.20372e+07

>  <Rbt.Current_Directory>
/home/itssahil/PROJECTS/Mol_Feturizer/New_Systems/rnas/2lwk

>  <Rbt.Executable>
rbdock ($Id: //depot/dev/client3/rdock/2013.1/src/exe/rbdock.cxx#4 $)

>  <Rbt.Library>
libRbt.so (2013.1, Build901 2013/11/27)

>  <Rbt.Parameter_File>
/export/apps/rDock/src/rDock_2013.1_src/data/scripts/dock_solv.prm

>  <Rbt.Receptor>
prm/pocket_docking_7.prm

>  <SCORE>
-15.404

>  <SCORE.INTER>
-11.254

>  <SCORE.INTER.CONST>
1

>  <SCORE.INTER.POLAR>
-1.65596

>  <SCORE.INTER.ROT>
3

>  <SCORE.INTER.SOLV>
4.95529

>  <SCORE.INTER.VDW>
-9.23455

>  <SCORE.INTER.norm>
-0.535905

>  <SCORE.INTRA>
-4.14998

>  <SCORE.INTRA.DIHEDRAL>
0.472156

>  <SCORE.INTRA.DIHEDRAL.0>
8.84257

>  <SCORE.INTRA.POLAR>
0

>  <SCORE.INTRA.POLAR.0>
0

>  <SCORE.INTRA.REPUL>
0

>  <SCORE.INTRA.REPUL.0>
0

>  <SCORE.INTRA.SOLV>
0.121913

>  <SCORE.INTRA.SOLV.lig_0>
-17.1313

>  <SCORE.INTRA.VDW>
-4.44701

>  <SCORE.INTRA.VDW.0>
6.34071

>  <SCORE.INTRA.norm>
-0.197618

>  <SCORE.RESTR>
0

>  <SCORE.RESTR.CAVITY>
0

>  <SCORE.RESTR.norm>
0

>  <SCORE.SYSTEM>
0

>  <SCORE.SYSTEM.CONST>
0

>  <SCORE.SYSTEM.DIHEDRAL>
0

>  <SCORE.SYSTEM.SOLV>
0

>  <SCORE.SYSTEM.norm>
0

>  <SCORE.heavy>
21

>  <SCORE.norm>
-0.733523

>  <RMSD>
6.570

$$$$
lig.pdb
 OpenBabel11021811453D
libRbt.so/2013.1/901 2013/11/27
 21 23  0  0  0  0  0  0  0  0999 V2000
  -10.6531   -4.0026    4.5818 C   0  0  0  0  0  0  0  0  0  0  0  0
  -10.1355   -5.2217    4.6830 N   0  0  0  0  0  0  0  0  0  0  0  0
  -10.8460   -6.2732    4.3161 C   0  0  0  0  0  0  0  0  0  0  0  0
  -12.1201   -6.1129    3.9048 C   0  0  0  0  0  0  0  0  0  0  0  0
  -12.6374   -4.8815    3.8007 C   0  0  0  0  0  0  0  0  0  0  0  0
  -13.8972   -4.7140    3.4001 N   0  0  0  0  0  0  0  0  0  0  0  0
  -11.9007   -3.8297    4.1431 N   0  0  0  0  0  0  0  0  0  0  0  0
  -10.3069   -7.5008    4.3994 C   0  0  0  0  0  0  0  0  0  0  0  0
  -11.1036   -8.5934    4.1899 C   0  0  0  0  0  0  0  0  0  0  0  0
  -10.9098   -9.7191    5.0256 O   0  0  0  0  0  0  0  0  0  0  0  0
  -12.2963   -8.4105    3.5999 C   0  0  0  0  0  0  0  0  0  0  0  0
  -12.9355   -9.5009    2.9513 O   0  0  0  0  0  0  0  0  0  0  0  0
  -12.8480   -7.1821    3.5534 C   0  0  0  0  0  0  0  0  0  0  0  0
   -9.9273   -2.9564    4.9364 N   0  0  0  0  0  0  0  0  0  0  0  0
  -10.3952   -2.2242    5.9519 C   0  0  0  0  0  0  0  0  0  0  0  0
  -11.4994   -1.2992    5.4627 C   0  0  0  0  0  0  0  0  0  0  0  0
  -10.9965   -0.4441    4.5041 N   0  0  0  0  0  0  0  0  0  0  0  0
  -10.5598   -1.2218    3.4539 C   0  0  0  0  0  0  0  0  0  0  0  0
   -9.4533   -2.1438    3.9385 C   0  0  0  0  0  0  0  0  0  0  0  0
  -10.2977  -10.7279    4.2635 C   0  0  0  0  0  0  0  0  0  0  0  0
  -14.0344   -9.9045    3.7258 C   0  0  0  0  0  0  0  0  0  0  0  0
  1 14  1  0  0  0  0
  1  2  2  0  0  0  0
  3  2  1  0  0  0  0
  3  8  2  0  0  0  0
  4  3  1  0  0  0  0
  5  7  2  0  0  0  0
  5  4  1  0  0  0  0
  6  5  1  0  0  0  0
  7  1  1  0  0  0  0
  9 10  1  0  0  0  0
  9  8  1  0  0  0  0
 11  9  2  0  0  0  0
 12 11  1  0  0  0  0
 13  4  2  0  0  0  0
 13 11  1  0  0  0  0
 14 15  1  0  0  0  0
 16 15  1  0  0  0  0
 17 16  1  0  0  0  0
 18 17  1  0  0  0  0
 18 19  1  0  0  0  0
 19 14  1  0  0  0  0
 20 10  1  0  0  0  0
 21 12  1  0  0  0  0
M  END
>  <CHROM.1>
-117.69683731,-107.88452042,108.02912812,-11.43691249,-5.58063948,4.22665754
-1.39490239,0.34819232,-3.11434457

>  <Name>
lig.pdb

>  <RI>
2.75338e+07

>  <Rbt.Current_Directory>
/home/itssahil/PROJECTS/Mol_Feturizer/New_Systems/rnas/2lwk

>  <Rbt.Executable>
rbdock ($Id: //depot/dev/client3/rdock/2013.1/src/exe/rbdock.cxx#4 $)

>  <Rbt.Library>
libRbt.so (2013.1, Build901 2013/11/27)

>  <Rbt.Parameter_File>
/export/apps/rDock/src/rDock_2013.1_src/data/scripts/dock_solv.prm

>  <Rbt.Receptor>
prm/pocket_docking_8.prm

>  <SCORE>
-32.1648

>  <SCORE.INTER>
-26.8415

>  <SCORE.INTER.CONST>
1

>  <SCORE.INTER.POLAR>
-3.72378

>  <SCORE.INTER.ROT>
3

>  <SCORE.INTER.SOLV>
8.50571

>  <SCORE.INTER.VDW>
-13.917

>  <SCORE.INTER.norm>
-1.27817

>  <SCORE.INTRA>
-5.32327

>  <SCORE.INTRA.DIHEDRAL>
0.604903

>  <SCORE.INTRA.DIHEDRAL.0>
8.84257

>  <SCORE.INTRA.POLAR>
0

>  <SCORE.INTRA.POLAR.0>
0

>  <SCORE.INTRA.REPUL>
0

>  <SCORE.INTRA.REPUL.0>
0

>  <SCORE.INTRA.SOLV>
0.132085

>  <SCORE.INTRA.SOLV.lig_0>
-17.1313

>  <SCORE.INTRA.VDW>
-5.69176

>  <SCORE.INTRA.VDW.0>
6.34071

>  <SCORE.INTRA.norm>
-0.253489

>  <SCORE.RESTR>
0

>  <SCORE.RESTR.CAVITY>
0

>  <SCORE.RESTR.norm>
0

>  <SCORE.SYSTEM>
0

>  <SCORE.SYSTEM.CONST>
0

>  <SCORE.SYSTEM.DIHEDRAL>
0

>  <SCORE.SYSTEM.SOLV>
0

>  <SCORE.SYSTEM.norm>
0

>  <SCORE.heavy>
21

>  <SCORE.norm>
-1.53166

>  <RMSD>
6.577

$$$$
lig.pdb
 OpenBabel11021811453D
libRbt.so/2013.1/901 2013/11/27
 21 23  0  0  0  0  0  0  0  0999 V2000
   -7.9275    0.4021    5.2552 C   0  0  0  0  0  0  0  0  0  0  0  0
   -8.1062    1.0779    4.1258 N   0  0  0  0  0  0  0  0  0  0  0  0
   -7.3747    2.1487    3.8743 C   0  0  0  0  0  0  0  0  0  0  0  0
   -6.4964    2.5939    4.7954 C   0  0  0  0  0  0  0  0  0  0  0  0
   -6.3163    1.9075    5.9318 C   0  0  0  0  0  0  0  0  0  0  0  0
   -5.4542    2.3429    6.8499 N   0  0  0  0  0  0  0  0  0  0  0  0
   -7.0364    0.8137    6.1582 N   0  0  0  0  0  0  0  0  0  0  0  0
   -7.5452    2.8132    2.7192 C   0  0  0  0  0  0  0  0  0  0  0  0
   -6.9168    4.0160    2.5441 C   0  0  0  0  0  0  0  0  0  0  0  0
   -7.6382    5.0472    1.8966 O   0  0  0  0  0  0  0  0  0  0  0  0
   -5.9121    4.3387    3.3751 C   0  0  0  0  0  0  0  0  0  0  0  0
   -4.9504    5.3049    2.9751 O   0  0  0  0  0  0  0  0  0  0  0  0
   -5.7699    3.6931    4.5492 C   0  0  0  0  0  0  0  0  0  0  0  0
   -8.6537   -0.6774    5.4891 N   0  0  0  0  0  0  0  0  0  0  0  0
   -9.0041   -1.4015    4.4219 C   0  0  0  0  0  0  0  0  0  0  0  0
  -10.1856   -0.7530    3.7166 C   0  0  0  0  0  0  0  0  0  0  0  0
  -11.2629   -0.6940    4.5763 N   0  0  0  0  0  0  0  0  0  0  0  0
  -10.8880    0.0906    5.6451 C   0  0  0  0  0  0  0  0  0  0  0  0
   -9.7107   -0.5573    6.3546 C   0  0  0  0  0  0  0  0  0  0  0  0
   -7.4869    4.8810    0.5100 C   0  0  0  0  0  0  0  0  0  0  0  0
   -3.9264    4.6554    2.2682 C   0  0  0  0  0  0  0  0  0  0  0  0
  1 14  1  0  0  0  0
  1  2  2  0  0  0  0
  3  2  1  0  0  0  0
  3  8  2  0  0  0  0
  4  3  1  0  0  0  0
  5  7  2  0  0  0  0
  5  4  1  0  0  0  0
  6  5  1  0  0  0  0
  7  1  1  0  0  0  0
  9 10  1  0  0  0  0
  9  8  1  0  0  0  0
 11  9  2  0  0  0  0
 12 11  1  0  0  0  0
 13  4  2  0  0  0  0
 13 11  1  0  0  0  0
 14 15  1  0  0  0  0
 16 15  1  0  0  0  0
 17 16  1  0  0  0  0
 18 17  1  0  0  0  0
 18 19  1  0  0  0  0
 19 14  1  0  0  0  0
 20 10  1  0  0  0  0
 21 12  1  0  0  0  0
M  END
>  <CHROM.1>
32.46452213,-85.05494712,-87.47991521,-7.55486828,2.02388636,4.17053496,-2.29385702
-0.56960996,-0.91167313

>  <Name>
lig.pdb

>  <RI>
1.4775e+07

>  <Rbt.Current_Directory>
/home/itssahil/PROJECTS/Mol_Feturizer/New_Systems/rnas/2lwk

>  <Rbt.Executable>
rbdock ($Id: //depot/dev/client3/rdock/2013.1/src/exe/rbdock.cxx#4 $)

>  <Rbt.Library>
libRbt.so (2013.1, Build901 2013/11/27)

>  <Rbt.Parameter_File>
/export/apps/rDock/src/rDock_2013.1_src/data/scripts/dock_solv.prm

>  <Rbt.Receptor>
prm/pocket_docking_4.prm

>  <SCORE>
-17.4649

>  <SCORE.INTER>
-13.2012

>  <SCORE.INTER.CONST>
1

>  <SCORE.INTER.POLAR>
-1.2387

>  <SCORE.INTER.ROT>
3

>  <SCORE.INTER.SOLV>
7.47502

>  <SCORE.INTER.VDW>
-12.7634

>  <SCORE.INTER.norm>
-0.628627

>  <SCORE.INTRA>
-4.26379

>  <SCORE.INTRA.DIHEDRAL>
0.645701

>  <SCORE.INTRA.DIHEDRAL.0>
8.84257

>  <SCORE.INTRA.POLAR>
0

>  <SCORE.INTRA.POLAR.0>
0

>  <SCORE.INTRA.REPUL>
0

>  <SCORE.INTRA.REPUL.0>
0

>  <SCORE.INTRA.SOLV>
0.0586289

>  <SCORE.INTRA.SOLV.lig_0>
-17.1313

>  <SCORE.INTRA.VDW>
-4.61595

>  <SCORE.INTRA.VDW.0>
6.34071

>  <SCORE.INTRA.norm>
-0.203037

>  <SCORE.RESTR>
0

>  <SCORE.RESTR.CAVITY>
0

>  <SCORE.RESTR.norm>
0

>  <SCORE.SYSTEM>
0

>  <SCORE.SYSTEM.CONST>
0

>  <SCORE.SYSTEM.DIHEDRAL>
0

>  <SCORE.SYSTEM.SOLV>
0

>  <SCORE.SYSTEM.norm>
0

>  <SCORE.heavy>
21

>  <SCORE.norm>
-0.831664

>  <RMSD>
6.592

$$$$
lig.pdb
 OpenBabel11021811453D
libRbt.so/2013.1/901 2013/11/27
 21 23  0  0  0  0  0  0  0  0999 V2000
   -4.8294    4.7470    5.5793 C   0  0  0  0  0  0  0  0  0  0  0  0
   -5.8708    4.0072    5.9432 N   0  0  0  0  0  0  0  0  0  0  0  0
   -5.7845    3.2206    7.0009 C   0  0  0  0  0  0  0  0  0  0  0  0
   -4.6174    3.1177    7.6683 C   0  0  0  0  0  0  0  0  0  0  0  0
   -3.5703    3.8681    7.3004 C   0  0  0  0  0  0  0  0  0  0  0  0
   -2.4115    3.7691    7.9509 N   0  0  0  0  0  0  0  0  0  0  0  0
   -3.6806    4.6792    6.2534 N   0  0  0  0  0  0  0  0  0  0  0  0
   -6.8498    2.4933    7.3763 C   0  0  0  0  0  0  0  0  0  0  0  0
   -6.7005    1.5515    8.3577 C   0  0  0  0  0  0  0  0  0  0  0  0
   -7.3769    0.3189    8.1952 O   0  0  0  0  0  0  0  0  0  0  0  0
   -5.6022    1.6016    9.1294 C   0  0  0  0  0  0  0  0  0  0  0  0
   -5.6114    0.9825   10.4080 O   0  0  0  0  0  0  0  0  0  0  0  0
   -4.5237    2.3028    8.7284 C   0  0  0  0  0  0  0  0  0  0  0  0
   -4.9322    5.5428    4.5289 N   0  0  0  0  0  0  0  0  0  0  0  0
   -5.8093    5.1775    3.5891 C   0  0  0  0  0  0  0  0  0  0  0  0
   -5.2107    4.0883    2.7120 C   0  0  0  0  0  0  0  0  0  0  0  0
   -4.0772    4.5669    2.0880 N   0  0  0  0  0  0  0  0  0  0  0  0
   -3.1767    4.8967    3.0773 C   0  0  0  0  0  0  0  0  0  0  0  0
   -3.7701    5.9881    3.9525 C   0  0  0  0  0  0  0  0  0  0  0  0
   -8.4446    0.2839    9.1073 C   0  0  0  0  0  0  0  0  0  0  0  0
   -6.4828    1.6945   11.2471 C   0  0  0  0  0  0  0  0  0  0  0  0
  1 14  1  0  0  0  0
  1  2  2  0  0  0  0
  3  2  1  0  0  0  0
  3  8  2  0  0  0  0
  4  3  1  0  0  0  0
  5  7  2  0  0  0  0
  5  4  1  0  0  0  0
  6  5  1  0  0  0  0
  7  1  1  0  0  0  0
  9 10  1  0  0  0  0
  9  8  1  0  0  0  0
 11  9  2  0  0  0  0
 12 11  1  0  0  0  0
 13  4  2  0  0  0  0
 13 11  1  0  0  0  0
 14 15  1  0  0  0  0
 16 15  1  0  0  0  0
 17 16  1  0  0  0  0
 18 17  1  0  0  0  0
 18 19  1  0  0  0  0
 19 14  1  0  0  0  0
 20 10  1  0  0  0  0
 21 12  1  0  0  0  0
M  END
>  <CHROM.1>
-27.20839798,-107.67977289,-68.29129793,-5.21146115,3.25562486,6.68415375
-1.21768439,0.50079389,1.96753032

>  <Name>
lig.pdb

>  <RI>
2.75338e+07

>  <Rbt.Current_Directory>
/home/itssahil/PROJECTS/Mol_Feturizer/New_Systems/rnas/2lwk

>  <Rbt.Executable>
rbdock ($Id: //depot/dev/client3/rdock/2013.1/src/exe/rbdock.cxx#4 $)

>  <Rbt.Library>
libRbt.so (2013.1, Build901 2013/11/27)

>  <Rbt.Parameter_File>
/export/apps/rDock/src/rDock_2013.1_src/data/scripts/dock_solv.prm

>  <Rbt.Receptor>
prm/pocket_docking_8.prm

>  <SCORE>
-19.8797

>  <SCORE.INTER>
-17.2021

>  <SCORE.INTER.CONST>
1

>  <SCORE.INTER.POLAR>
-1.8757

>  <SCORE.INTER.ROT>
3

>  <SCORE.INTER.SOLV>
9.2468

>  <SCORE.INTER.VDW>
-13.898

>  <SCORE.INTER.norm>
-0.819146

>  <SCORE.INTRA>
-2.67761

>  <SCORE.INTRA.DIHEDRAL>
0.421209

>  <SCORE.INTRA.DIHEDRAL.0>
8.84257

>  <SCORE.INTRA.POLAR>
0

>  <SCORE.INTRA.POLAR.0>
0

>  <SCORE.INTRA.REPUL>
0

>  <SCORE.INTRA.REPUL.0>
0

>  <SCORE.INTRA.SOLV>
-0.0219243

>  <SCORE.INTRA.SOLV.lig_0>
-17.1313

>  <SCORE.INTRA.VDW>
-2.87725

>  <SCORE.INTRA.VDW.0>
6.34071

>  <SCORE.INTRA.norm>
-0.127505

>  <SCORE.RESTR>
0

>  <SCORE.RESTR.CAVITY>
0

>  <SCORE.RESTR.norm>
0

>  <SCORE.SYSTEM>
0

>  <SCORE.SYSTEM.CONST>
0

>  <SCORE.SYSTEM.DIHEDRAL>
0

>  <SCORE.SYSTEM.SOLV>
0

>  <SCORE.SYSTEM.norm>
0

>  <SCORE.heavy>
21

>  <SCORE.norm>
-0.946652

>  <RMSD>
6.630

$$$$
lig.pdb
 OpenBabel11021811453D
libRbt.so/2013.1/901 2013/11/27
 21 23  0  0  0  0  0  0  0  0999 V2000
   -6.0667    6.1882    2.5014 C   0  0  0  0  0  0  0  0  0  0  0  0
   -6.7550    5.0562    2.5970 N   0  0  0  0  0  0  0  0  0  0  0  0
   -6.4381    4.1667    3.5207 C   0  0  0  0  0  0  0  0  0  0  0  0
   -5.3728    4.3784    4.3198 C   0  0  0  0  0  0  0  0  0  0  0  0
   -4.6832    5.5229    4.2229 C   0  0  0  0  0  0  0  0  0  0  0  0
   -3.6260    5.7382    5.0050 N   0  0  0  0  0  0  0  0  0  0  0  0
   -5.0325    6.4235    3.3101 N   0  0  0  0  0  0  0  0  0  0  0  0
   -7.1539    3.0348    3.6261 C   0  0  0  0  0  0  0  0  0  0  0  0
   -6.7130    2.0434    4.4597 C   0  0  0  0  0  0  0  0  0  0  0  0
   -6.8370    0.7057    4.0145 O   0  0  0  0  0  0  0  0  0  0  0  0
   -5.7782    2.3473    5.3752 C   0  0  0  0  0  0  0  0  0  0  0  0
   -5.6296    1.5302    6.5277 O   0  0  0  0  0  0  0  0  0  0  0  0
   -5.0382    3.4655    5.2425 C   0  0  0  0  0  0  0  0  0  0  0  0
   -6.4029    7.0784    1.5840 N   0  0  0  0  0  0  0  0  0  0  0  0
   -6.1099    6.7676    0.3176 C   0  0  0  0  0  0  0  0  0  0  0  0
   -4.6374    7.0325    0.0427 C   0  0  0  0  0  0  0  0  0  0  0  0
   -4.3631    8.3703    0.2379 N   0  0  0  0  0  0  0  0  0  0  0  0
   -4.6345    8.6528    1.5589 C   0  0  0  0  0  0  0  0  0  0  0  0
   -6.1061    8.3936    1.8354 C   0  0  0  0  0  0  0  0  0  0  0  0
   -7.8640    0.0940    4.7522 C   0  0  0  0  0  0  0  0  0  0  0  0
   -4.5396    0.6679    6.3314 C   0  0  0  0  0  0  0  0  0  0  0  0
  1 14  1  0  0  0  0
  1  2  2  0  0  0  0
  3  2  1  0  0  0  0
  3  8  2  0  0  0  0
  4  3  1  0  0  0  0
  5  7  2  0  0  0  0
  5  4  1  0  0  0  0
  6  5  1  0  0  0  0
  7  1  1  0  0  0  0
  9 10  1  0  0  0  0
  9  8  1  0  0  0  0
 11  9  2  0  0  0  0
 12 11  1  0  0  0  0
 13  4  2  0  0  0  0
 13 11  1  0  0  0  0
 14 15  1  0  0  0  0
 16 15  1  0  0  0  0
 17 16  1  0  0  0  0
 18 17  1  0  0  0  0
 18 19  1  0  0  0  0
 19 14  1  0  0  0  0
 20 10  1  0  0  0  0
 21 12  1  0  0  0  0
M  END
>  <CHROM.1>
-72.41192258,-107.67406683,100.29697851,-5.68536026,4.62769879,3.40461547
1.40338113,-0.75494675,-0.68883450

>  <Name>
lig.pdb

>  <RI>
2.20372e+07

>  <Rbt.Current_Directory>
/home/itssahil/PROJECTS/Mol_Feturizer/New_Systems/rnas/2lwk

>  <Rbt.Executable>
rbdock ($Id: //depot/dev/client3/rdock/2013.1/src/exe/rbdock.cxx#4 $)

>  <Rbt.Library>
libRbt.so (2013.1, Build901 2013/11/27)

>  <Rbt.Parameter_File>
/export/apps/rDock/src/rDock_2013.1_src/data/scripts/dock_solv.prm

>  <Rbt.Receptor>
prm/pocket_docking_7.prm

>  <SCORE>
-20.0146

>  <SCORE.INTER>
-15.4049

>  <SCORE.INTER.CONST>
1

>  <SCORE.INTER.POLAR>
-2.02926

>  <SCORE.INTER.ROT>
3

>  <SCORE.INTER.SOLV>
6.53021

>  <SCORE.INTER.VDW>
-11.2825

>  <SCORE.INTER.norm>
-0.733569

>  <SCORE.INTRA>
-4.60961

>  <SCORE.INTRA.DIHEDRAL>
0.885543

>  <SCORE.INTRA.DIHEDRAL.0>
8.84257

>  <SCORE.INTRA.POLAR>
0

>  <SCORE.INTRA.POLAR.0>
0

>  <SCORE.INTRA.REPUL>
0

>  <SCORE.INTRA.REPUL.0>
0

>  <SCORE.INTRA.SOLV>
0.108612

>  <SCORE.INTRA.SOLV.lig_0>
-17.1313

>  <SCORE.INTRA.VDW>
-5.10668

>  <SCORE.INTRA.VDW.0>
6.34071

>  <SCORE.INTRA.norm>
-0.219505

>  <SCORE.RESTR>
0

>  <SCORE.RESTR.CAVITY>
0

>  <SCORE.RESTR.norm>
0

>  <SCORE.SYSTEM>
0

>  <SCORE.SYSTEM.CONST>
0

>  <SCORE.SYSTEM.DIHEDRAL>
0

>  <SCORE.SYSTEM.SOLV>
0

>  <SCORE.SYSTEM.norm>
0

>  <SCORE.heavy>
21

>  <SCORE.norm>
-0.953074

>  <RMSD>
6.632

$$$$
lig.pdb
 OpenBabel11021811453D
libRbt.so/2013.1/901 2013/11/27
 21 23  0  0  0  0  0  0  0  0999 V2000
   -6.0666    6.1783    2.5101 C   0  0  0  0  0  0  0  0  0  0  0  0
   -6.7510    5.0441    2.6076 N   0  0  0  0  0  0  0  0  0  0  0  0
   -6.4293    4.1561    3.5311 C   0  0  0  0  0  0  0  0  0  0  0  0
   -5.3631    4.3716    4.3280 C   0  0  0  0  0  0  0  0  0  0  0  0
   -4.6775    5.5184    4.2292 C   0  0  0  0  0  0  0  0  0  0  0  0
   -3.6195    5.7376    5.0090 N   0  0  0  0  0  0  0  0  0  0  0  0
   -5.0317    6.4174    3.3166 N   0  0  0  0  0  0  0  0  0  0  0  0
   -7.1412    3.0219    3.6384 C   0  0  0  0  0  0  0  0  0  0  0  0
   -6.6953    2.0323    4.4716 C   0  0  0  0  0  0  0  0  0  0  0  0
   -6.8158    0.6940    4.0273 O   0  0  0  0  0  0  0  0  0  0  0  0
   -5.7597    2.3397    5.3851 C   0  0  0  0  0  0  0  0  0  0  0  0
   -5.6061    1.5237    6.5377 O   0  0  0  0  0  0  0  0  0  0  0  0
   -5.0236    3.4603    5.2504 C   0  0  0  0  0  0  0  0  0  0  0  0
   -6.4076    7.0670    1.5930 N   0  0  0  0  0  0  0  0  0  0  0  0
   -6.1135    6.7578    0.3265 C   0  0  0  0  0  0  0  0  0  0  0  0
   -4.6425    7.0302    0.0511 C   0  0  0  0  0  0  0  0  0  0  0  0
   -4.3748    8.3693    0.2464 N   0  0  0  0  0  0  0  0  0  0  0  0
   -4.6472    8.6502    1.5675 C   0  0  0  0  0  0  0  0  0  0  0  0
   -6.1173    8.3835    1.8445 C   0  0  0  0  0  0  0  0  0  0  0  0
   -7.8591    0.0879    4.7466 C   0  0  0  0  0  0  0  0  0  0  0  0
   -6.3438    2.0875    7.5905 C   0  0  0  0  0  0  0  0  0  0  0  0
  1 14  1  0  0  0  0
  1  2  2  0  0  0  0
  3  2  1  0  0  0  0
  3  8  2  0  0  0  0
  4  3  1  0  0  0  0
  5  7  2  0  0  0  0
  5  4  1  0  0  0  0
  6  5  1  0  0  0  0
  7  1  1  0  0  0  0
  9 10  1  0  0  0  0
  9  8  1  0  0  0  0
 11  9  2  0  0  0  0
 12 11  1  0  0  0  0
 13  4  2  0  0  0  0
 13 11  1  0  0  0  0
 14 15  1  0  0  0  0
 16 15  1  0  0  0  0
 17 16  1  0  0  0  0
 18 17  1  0  0  0  0
 18 19  1  0  0  0  0
 19 14  1  0  0  0  0
 20 10  1  0  0  0  0
 21 12  1  0  0  0  0
M  END
>  <CHROM.1>
-72.55525387,-106.38738303,-95.35813705,-5.77448092,4.69451326,3.47782872
1.30667507,-0.88871640,-0.82452198

>  <Name>
lig.pdb

>  <RI>
2.20372e+07

>  <Rbt.Current_Directory>
/home/itssahil/PROJECTS/Mol_Feturizer/New_Systems/rnas/2lwk

>  <Rbt.Executable>
rbdock ($Id: //depot/dev/client3/rdock/2013.1/src/exe/rbdock.cxx#4 $)

>  <Rbt.Library>
libRbt.so (2013.1, Build901 2013/11/27)

>  <Rbt.Parameter_File>
/export/apps/rDock/src/rDock_2013.1_src/data/scripts/dock_solv.prm

>  <Rbt.Receptor>
prm/pocket_docking_7.prm

>  <SCORE>
-21.3613

>  <SCORE.INTER>
-16.8165

>  <SCORE.INTER.CONST>
1

>  <SCORE.INTER.POLAR>
-2.03351

>  <SCORE.INTER.ROT>
3

>  <SCORE.INTER.SOLV>
6.78781

>  <SCORE.INTER.VDW>
-12.2952

>  <SCORE.INTER.norm>
-0.800787

>  <SCORE.INTRA>
-4.54479

>  <SCORE.INTRA.DIHEDRAL>
0.924655

>  <SCORE.INTRA.DIHEDRAL.0>
8.84257

>  <SCORE.INTRA.POLAR>
0

>  <SCORE.INTRA.POLAR.0>
0

>  <SCORE.INTRA.REPUL>
0

>  <SCORE.INTRA.REPUL.0>
0

>  <SCORE.INTRA.SOLV>
0.0582883

>  <SCORE.INTRA.SOLV.lig_0>
-17.1313

>  <SCORE.INTRA.VDW>
-5.03626

>  <SCORE.INTRA.VDW.0>
6.34071

>  <SCORE.INTRA.norm>
-0.216418

>  <SCORE.RESTR>
0

>  <SCORE.RESTR.CAVITY>
0

>  <SCORE.RESTR.norm>
0

>  <SCORE.SYSTEM>
0

>  <SCORE.SYSTEM.CONST>
0

>  <SCORE.SYSTEM.DIHEDRAL>
0

>  <SCORE.SYSTEM.SOLV>
0

>  <SCORE.SYSTEM.norm>
0

>  <SCORE.heavy>
21

>  <SCORE.norm>
-1.01721

>  <RMSD>
6.649

$$$$
lig.pdb
 OpenBabel11021811453D
libRbt.so/2013.1/901 2013/11/27
 21 23  0  0  0  0  0  0  0  0999 V2000
   -8.5829   -0.6557    4.4412 C   0  0  0  0  0  0  0  0  0  0  0  0
   -8.0403    0.5102    4.1084 N   0  0  0  0  0  0  0  0  0  0  0  0
   -7.1179    1.0539    4.8819 C   0  0  0  0  0  0  0  0  0  0  0  0
   -6.7787    0.4586    6.0432 C   0  0  0  0  0  0  0  0  0  0  0  0
   -7.3254   -0.7190    6.3737 C   0  0  0  0  0  0  0  0  0  0  0  0
   -7.0000   -1.3119    7.5218 N   0  0  0  0  0  0  0  0  0  0  0  0
   -8.2292   -1.2707    5.5705 N   0  0  0  0  0  0  0  0  0  0  0  0
   -6.5571    2.2217    4.5263 C   0  0  0  0  0  0  0  0  0  0  0  0
   -5.7387    2.8650    5.4145 C   0  0  0  0  0  0  0  0  0  0  0  0
   -5.8417    4.2738    5.5028 O   0  0  0  0  0  0  0  0  0  0  0  0
   -5.2671    2.1734    6.4650 C   0  0  0  0  0  0  0  0  0  0  0  0
   -4.0920    2.6162    7.1292 O   0  0  0  0  0  0  0  0  0  0  0  0
   -5.8584    1.0217    6.8386 C   0  0  0  0  0  0  0  0  0  0  0  0
   -9.4933   -1.1985    3.6514 N   0  0  0  0  0  0  0  0  0  0  0  0
  -10.7481   -1.2121    4.1112 C   0  0  0  0  0  0  0  0  0  0  0  0
  -10.9266   -2.3483    5.1068 C   0  0  0  0  0  0  0  0  0  0  0  0
  -10.6775   -3.5536    4.4836 N   0  0  0  0  0  0  0  0  0  0  0  0
   -9.3677   -3.5280    4.0568 C   0  0  0  0  0  0  0  0  0  0  0  0
   -9.1874   -2.3967    3.0583 C   0  0  0  0  0  0  0  0  0  0  0  0
   -4.7748    4.8351    4.7819 C   0  0  0  0  0  0  0  0  0  0  0  0
   -4.4523    3.5684    8.0955 C   0  0  0  0  0  0  0  0  0  0  0  0
  1 14  1  0  0  0  0
  1  2  2  0  0  0  0
  3  2  1  0  0  0  0
  3  8  2  0  0  0  0
  4  3  1  0  0  0  0
  5  7  2  0  0  0  0
  5  4  1  0  0  0  0
  6  5  1  0  0  0  0
  7  1  1  0  0  0  0
  9 10  1  0  0  0  0
  9  8  1  0  0  0  0
 11  9  2  0  0  0  0
 12 11  1  0  0  0  0
 13  4  2  0  0  0  0
 13 11  1  0  0  0  0
 14 15  1  0  0  0  0
 16 15  1  0  0  0  0
 17 16  1  0  0  0  0
 18 17  1  0  0  0  0
 18 19  1  0  0  0  0
 19 14  1  0  0  0  0
 20 10  1  0  0  0  0
 21 12  1  0  0  0  0
M  END
>  <CHROM.1>
-109.45219538,-101.28334590,85.81541035,-7.42233548,0.36385631,5.36182114
2.74617094,0.82409841,2.41919177

>  <Name>
lig.pdb

>  <RI>
1.4775e+07

>  <Rbt.Current_Directory>
/home/itssahil/PROJECTS/Mol_Feturizer/New_Systems/rnas/2lwk

>  <Rbt.Executable>
rbdock ($Id: //depot/dev/client3/rdock/2013.1/src/exe/rbdock.cxx#4 $)

>  <Rbt.Library>
libRbt.so (2013.1, Build901 2013/11/27)

>  <Rbt.Parameter_File>
/export/apps/rDock/src/rDock_2013.1_src/data/scripts/dock_solv.prm

>  <Rbt.Receptor>
prm/pocket_docking_4.prm

>  <SCORE>
-15.6918

>  <SCORE.INTER>
-10.3819

>  <SCORE.INTER.CONST>
1

>  <SCORE.INTER.POLAR>
-0.979796

>  <SCORE.INTER.ROT>
3

>  <SCORE.INTER.SOLV>
5.5062

>  <SCORE.INTER.VDW>
-11.0907

>  <SCORE.INTER.norm>
-0.494374

>  <SCORE.INTRA>
-5.31125

>  <SCORE.INTRA.DIHEDRAL>
0.962274

>  <SCORE.INTRA.DIHEDRAL.0>
8.84257

>  <SCORE.INTRA.POLAR>
0

>  <SCORE.INTRA.POLAR.0>
0

>  <SCORE.INTRA.REPUL>
0

>  <SCORE.INTRA.REPUL.0>
0

>  <SCORE.INTRA.SOLV>
0.146209

>  <SCORE.INTRA.SOLV.lig_0>
-17.1313

>  <SCORE.INTRA.VDW>
-5.86549

>  <SCORE.INTRA.VDW.0>
6.34071

>  <SCORE.INTRA.norm>
-0.252917

>  <SCORE.RESTR>
0.00132872

>  <SCORE.RESTR.CAVITY>
0.00132872

>  <SCORE.RESTR.norm>
6.32724e-05

>  <SCORE.SYSTEM>
0

>  <SCORE.SYSTEM.CONST>
0

>  <SCORE.SYSTEM.DIHEDRAL>
0

>  <SCORE.SYSTEM.SOLV>
0

>  <SCORE.SYSTEM.norm>
0

>  <SCORE.heavy>
21

>  <SCORE.norm>
-0.747228

>  <RMSD>
6.655

$$$$
lig.pdb
 OpenBabel11021811453D
libRbt.so/2013.1/901 2013/11/27
 21 23  0  0  0  0  0  0  0  0999 V2000
   -6.0641    6.1692    2.4934 C   0  0  0  0  0  0  0  0  0  0  0  0
   -6.7499    5.0369    2.6025 N   0  0  0  0  0  0  0  0  0  0  0  0
   -6.4309    4.1592    3.5366 C   0  0  0  0  0  0  0  0  0  0  0  0
   -5.3660    4.3825    4.3330 C   0  0  0  0  0  0  0  0  0  0  0  0
   -4.6789    5.5273    4.2224 C   0  0  0  0  0  0  0  0  0  0  0  0
   -3.6221    5.7542    5.0017 N   0  0  0  0  0  0  0  0  0  0  0  0
   -5.0303    6.4163    3.2991 N   0  0  0  0  0  0  0  0  0  0  0  0
   -7.1443    3.0270    3.6555 C   0  0  0  0  0  0  0  0  0  0  0  0
   -6.7011    2.0465    4.5007 C   0  0  0  0  0  0  0  0  0  0  0  0
   -6.8224    0.7033    4.0714 O   0  0  0  0  0  0  0  0  0  0  0  0
   -5.7668    2.3632    5.4124 C   0  0  0  0  0  0  0  0  0  0  0  0
   -5.6164    1.5601    6.5745 O   0  0  0  0  0  0  0  0  0  0  0  0
   -5.0293    3.4814    5.2664 C   0  0  0  0  0  0  0  0  0  0  0  0
   -6.4024    7.0478    1.5656 N   0  0  0  0  0  0  0  0  0  0  0  0
   -6.1018    6.7262    0.3037 C   0  0  0  0  0  0  0  0  0  0  0  0
   -4.6299    6.9984    0.0324 C   0  0  0  0  0  0  0  0  0  0  0  0
   -4.3656    8.3399    0.2152 N   0  0  0  0  0  0  0  0  0  0  0  0
   -4.6446    8.6339    1.5321 C   0  0  0  0  0  0  0  0  0  0  0  0
   -6.1156    8.3674    1.8049 C   0  0  0  0  0  0  0  0  0  0  0  0
   -7.8261    0.0892    4.8385 C   0  0  0  0  0  0  0  0  0  0  0  0
   -6.3482    2.1415    7.6218 C   0  0  0  0  0  0  0  0  0  0  0  0
  1 14  1  0  0  0  0
  1  2  2  0  0  0  0
  3  2  1  0  0  0  0
  3  8  2  0  0  0  0
  4  3  1  0  0  0  0
  5  7  2  0  0  0  0
  5  4  1  0  0  0  0
  6  5  1  0  0  0  0
  7  1  1  0  0  0  0
  9 10  1  0  0  0  0
  9  8  1  0  0  0  0
 11  9  2  0  0  0  0
 12 11  1  0  0  0  0
 13  4  2  0  0  0  0
 13 11  1  0  0  0  0
 14 15  1  0  0  0  0
 16 15  1  0  0  0  0
 17 16  1  0  0  0  0
 18 17  1  0  0  0  0
 18 19  1  0  0  0  0
 19 14  1  0  0  0  0
 20 10  1  0  0  0  0
 21 12  1  0  0  0  0
M  END
>  <CHROM.1>
-72.79607490,-109.05912703,-95.74227528,-5.77289558,4.69664347,3.48187795
1.30464678,-0.89104983,-0.83760065

>  <Name>
lig.pdb

>  <RI>
2.20372e+07

>  <Rbt.Current_Directory>
/home/itssahil/PROJECTS/Mol_Feturizer/New_Systems/rnas/2lwk

>  <Rbt.Executable>
rbdock ($Id: //depot/dev/client3/rdock/2013.1/src/exe/rbdock.cxx#4 $)

>  <Rbt.Library>
libRbt.so (2013.1, Build901 2013/11/27)

>  <Rbt.Parameter_File>
/export/apps/rDock/src/rDock_2013.1_src/data/scripts/dock_solv.prm

>  <Rbt.Receptor>
prm/pocket_docking_7.prm

>  <SCORE>
-21.3379

>  <SCORE.INTER>
-16.812

>  <SCORE.INTER.CONST>
1

>  <SCORE.INTER.POLAR>
-2.03619

>  <SCORE.INTER.ROT>
3

>  <SCORE.INTER.SOLV>
6.75682

>  <SCORE.INTER.VDW>
-12.273

>  <SCORE.INTER.norm>
-0.800573

>  <SCORE.INTRA>
-4.52588

>  <SCORE.INTRA.DIHEDRAL>
0.877458

>  <SCORE.INTRA.DIHEDRAL.0>
8.84257

>  <SCORE.INTRA.POLAR>
0

>  <SCORE.INTRA.POLAR.0>
0

>  <SCORE.INTRA.REPUL>
0

>  <SCORE.INTRA.REPUL.0>
0

>  <SCORE.INTRA.SOLV>
0.0613142

>  <SCORE.INTRA.SOLV.lig_0>
-17.1313

>  <SCORE.INTRA.VDW>
-4.99526

>  <SCORE.INTRA.VDW.0>
6.34071

>  <SCORE.INTRA.norm>
-0.215518

>  <SCORE.RESTR>
0

>  <SCORE.RESTR.CAVITY>
0

>  <SCORE.RESTR.norm>
0

>  <SCORE.SYSTEM>
0

>  <SCORE.SYSTEM.CONST>
0

>  <SCORE.SYSTEM.DIHEDRAL>
0

>  <SCORE.SYSTEM.SOLV>
0

>  <SCORE.SYSTEM.norm>
0

>  <SCORE.heavy>
21

>  <SCORE.norm>
-1.01609

>  <RMSD>
6.658

$$$$
lig.pdb
 OpenBabel11021811453D
libRbt.so/2013.1/901 2013/11/27
 21 23  0  0  0  0  0  0  0  0999 V2000
   -8.0011   -1.0949    4.3994 C   0  0  0  0  0  0  0  0  0  0  0  0
   -7.3446    0.0237    4.1130 N   0  0  0  0  0  0  0  0  0  0  0  0
   -6.9261    0.8115    5.0872 C   0  0  0  0  0  0  0  0  0  0  0  0
   -7.2264    0.5142    6.3677 C   0  0  0  0  0  0  0  0  0  0  0  0
   -7.8855   -0.6168    6.6529 C   0  0  0  0  0  0  0  0  0  0  0  0
   -8.1910   -0.9160    7.9149 N   0  0  0  0  0  0  0  0  0  0  0  0
   -8.2731   -1.4167    5.6648 N   0  0  0  0  0  0  0  0  0  0  0  0
   -6.2424    1.9291    4.7903 C   0  0  0  0  0  0  0  0  0  0  0  0
   -5.9698    2.8272    5.7860 C   0  0  0  0  0  0  0  0  0  0  0  0
   -6.0788    4.2043    5.4780 O   0  0  0  0  0  0  0  0  0  0  0  0
   -6.1017    2.4266    7.0612 C   0  0  0  0  0  0  0  0  0  0  0  0
   -5.4116    3.1193    8.0918 O   0  0  0  0  0  0  0  0  0  0  0  0
   -6.8205    1.3253    7.3546 C   0  0  0  0  0  0  0  0  0  0  0  0
   -8.4008   -1.8841    3.4173 N   0  0  0  0  0  0  0  0  0  0  0  0
   -9.7183   -1.9435    3.2004 C   0  0  0  0  0  0  0  0  0  0  0  0
  -10.3730   -2.8672    4.2164 C   0  0  0  0  0  0  0  0  0  0  0  0
   -9.8525   -4.1385    4.0895 N   0  0  0  0  0  0  0  0  0  0  0  0
   -8.5037   -4.0545    4.3580 C   0  0  0  0  0  0  0  0  0  0  0  0
   -7.8460   -3.1360    3.3417 C   0  0  0  0  0  0  0  0  0  0  0  0
   -4.7958    4.6846    5.1675 C   0  0  0  0  0  0  0  0  0  0  0  0
   -4.0647    2.7244    8.0765 C   0  0  0  0  0  0  0  0  0  0  0  0
  1 14  1  0  0  0  0
  1  2  2  0  0  0  0
  3  2  1  0  0  0  0
  3  8  2  0  0  0  0
  4  3  1  0  0  0  0
  5  7  2  0  0  0  0
  5  4  1  0  0  0  0
  6  5  1  0  0  0  0
  7  1  1  0  0  0  0
  9 10  1  0  0  0  0
  9  8  1  0  0  0  0
 11  9  2  0  0  0  0
 12 11  1  0  0  0  0
 13  4  2  0  0  0  0
 13 11  1  0  0  0  0
 14 15  1  0  0  0  0
 16 15  1  0  0  0  0
 17 16  1  0  0  0  0
 18 17  1  0  0  0  0
 18 19  1  0  0  0  0
 19 14  1  0  0  0  0
 20 10  1  0  0  0  0
 21 12  1  0  0  0  0
M  END
>  <CHROM.1>
-110.30958917,-96.90256511,-77.37912925,-7.32775885,0.12972799,5.47540003
-2.99906587,1.06251389,1.80040888

>  <Name>
lig.pdb

>  <RI>
1.4775e+07

>  <Rbt.Current_Directory>
/home/itssahil/PROJECTS/Mol_Feturizer/New_Systems/rnas/2lwk

>  <Rbt.Executable>
rbdock ($Id: //depot/dev/client3/rdock/2013.1/src/exe/rbdock.cxx#4 $)

>  <Rbt.Library>
libRbt.so (2013.1, Build901 2013/11/27)

>  <Rbt.Parameter_File>
/export/apps/rDock/src/rDock_2013.1_src/data/scripts/dock_solv.prm

>  <Rbt.Receptor>
prm/pocket_docking_4.prm

>  <SCORE>
-16.7815

>  <SCORE.INTER>
-11.3437

>  <SCORE.INTER.CONST>
1

>  <SCORE.INTER.POLAR>
-0.979796

>  <SCORE.INTER.ROT>
3

>  <SCORE.INTER.SOLV>
5.26685

>  <SCORE.INTER.VDW>
-11.6521

>  <SCORE.INTER.norm>
-0.540177

>  <SCORE.INTRA>
-5.43775

>  <SCORE.INTRA.DIHEDRAL>
0.816847

>  <SCORE.INTRA.DIHEDRAL.0>
8.84257

>  <SCORE.INTRA.POLAR>
0

>  <SCORE.INTRA.POLAR.0>
0

>  <SCORE.INTRA.REPUL>
0

>  <SCORE.INTRA.REPUL.0>
0

>  <SCORE.INTRA.SOLV>
0.0907641

>  <SCORE.INTRA.SOLV.lig_0>
-17.1313

>  <SCORE.INTRA.VDW>
-5.89155

>  <SCORE.INTRA.VDW.0>
6.34071

>  <SCORE.INTRA.norm>
-0.25894

>  <SCORE.RESTR>
0

>  <SCORE.RESTR.CAVITY>
0

>  <SCORE.RESTR.norm>
0

>  <SCORE.SYSTEM>
0

>  <SCORE.SYSTEM.CONST>
0

>  <SCORE.SYSTEM.DIHEDRAL>
0

>  <SCORE.SYSTEM.SOLV>
0

>  <SCORE.SYSTEM.norm>
0

>  <SCORE.heavy>
21

>  <SCORE.norm>
-0.799118

>  <RMSD>
6.664

$$$$
lig.pdb
 OpenBabel11021811453D
libRbt.so/2013.1/901 2013/11/27
 21 23  0  0  0  0  0  0  0  0999 V2000
   -6.0054    1.3792    5.6271 C   0  0  0  0  0  0  0  0  0  0  0  0
   -6.4082    1.4679    4.3645 N   0  0  0  0  0  0  0  0  0  0  0  0
   -6.4602    2.6460    3.7693 C   0  0  0  0  0  0  0  0  0  0  0  0
   -6.1707    3.7639    4.4655 C   0  0  0  0  0  0  0  0  0  0  0  0
   -5.7612    3.6701    5.7377 C   0  0  0  0  0  0  0  0  0  0  0  0
   -5.4780    4.7698    6.4348 N   0  0  0  0  0  0  0  0  0  0  0  0
   -5.6829    2.4755    6.3148 N   0  0  0  0  0  0  0  0  0  0  0  0
   -6.8462    2.7248    2.4850 C   0  0  0  0  0  0  0  0  0  0  0  0
   -7.0696    3.9559    1.9312 C   0  0  0  0  0  0  0  0  0  0  0  0
   -8.1771    4.0949    1.0611 O   0  0  0  0  0  0  0  0  0  0  0  0
   -6.5946    5.0387    2.5686 C   0  0  0  0  0  0  0  0  0  0  0  0
   -6.3834    6.2441    1.8471 O   0  0  0  0  0  0  0  0  0  0  0  0
   -6.2447    4.9612    3.8675 C   0  0  0  0  0  0  0  0  0  0  0  0
   -5.9415    0.1934    6.2077 N   0  0  0  0  0  0  0  0  0  0  0  0
   -5.3454   -0.7789    5.5109 C   0  0  0  0  0  0  0  0  0  0  0  0
   -6.3026   -1.3352    4.4677 C   0  0  0  0  0  0  0  0  0  0  0  0
   -7.4126   -1.8645    5.0929 N   0  0  0  0  0  0  0  0  0  0  0  0
   -8.0291   -0.8340    5.7685 C   0  0  0  0  0  0  0  0  0  0  0  0
   -7.0769   -0.2792    6.8147 C   0  0  0  0  0  0  0  0  0  0  0  0
   -7.8459    3.4960   -0.1656 C   0  0  0  0  0  0  0  0  0  0  0  0
   -5.1889    6.1300    1.1189 C   0  0  0  0  0  0  0  0  0  0  0  0
  1 14  1  0  0  0  0
  1  2  2  0  0  0  0
  3  2  1  0  0  0  0
  3  8  2  0  0  0  0
  4  3  1  0  0  0  0
  5  7  2  0  0  0  0
  5  4  1  0  0  0  0
  6  5  1  0  0  0  0
  7  1  1  0  0  0  0
  9 10  1  0  0  0  0
  9  8  1  0  0  0  0
 11  9  2  0  0  0  0
 12 11  1  0  0  0  0
 13  4  2  0  0  0  0
 13 11  1  0  0  0  0
 14 15  1  0  0  0  0
 16 15  1  0  0  0  0
 17 16  1  0  0  0  0
 18 17  1  0  0  0  0
 18 19  1  0  0  0  0
 19 14  1  0  0  0  0
 20 10  1  0  0  0  0
 21 12  1  0  0  0  0
M  END
>  <CHROM.1>
47.08660995,-75.33175977,-78.08059384,-6.50841683,2.47778269,4.03196313,-1.56628481
-1.14888743,-0.61840294

>  <Name>
lig.pdb

>  <RI>
1.4775e+07

>  <Rbt.Current_Directory>
/home/itssahil/PROJECTS/Mol_Feturizer/New_Systems/rnas/2lwk

>  <Rbt.Executable>
rbdock ($Id: //depot/dev/client3/rdock/2013.1/src/exe/rbdock.cxx#4 $)

>  <Rbt.Library>
libRbt.so (2013.1, Build901 2013/11/27)

>  <Rbt.Parameter_File>
/export/apps/rDock/src/rDock_2013.1_src/data/scripts/dock_solv.prm

>  <Rbt.Receptor>
prm/pocket_docking_4.prm

>  <SCORE>
-19.9973

>  <SCORE.INTER>
-15.4097

>  <SCORE.INTER.CONST>
1

>  <SCORE.INTER.POLAR>
-1.8318

>  <SCORE.INTER.ROT>
3

>  <SCORE.INTER.SOLV>
6.64107

>  <SCORE.INTER.VDW>
-11.9808

>  <SCORE.INTER.norm>
-0.733796

>  <SCORE.INTRA>
-4.60119

>  <SCORE.INTRA.DIHEDRAL>
-0.01083

>  <SCORE.INTRA.DIHEDRAL.0>
8.84257

>  <SCORE.INTRA.POLAR>
0

>  <SCORE.INTRA.POLAR.0>
0

>  <SCORE.INTRA.REPUL>
0

>  <SCORE.INTRA.REPUL.0>
0

>  <SCORE.INTRA.SOLV>
0.072916

>  <SCORE.INTRA.SOLV.lig_0>
-17.1313

>  <SCORE.INTRA.VDW>
-4.63223

>  <SCORE.INTRA.VDW.0>
6.34071

>  <SCORE.INTRA.norm>
-0.219104

>  <SCORE.RESTR>
0.0136124

>  <SCORE.RESTR.CAVITY>
0.0136124

>  <SCORE.RESTR.norm>
0.00064821

>  <SCORE.SYSTEM>
0

>  <SCORE.SYSTEM.CONST>
0

>  <SCORE.SYSTEM.DIHEDRAL>
0

>  <SCORE.SYSTEM.SOLV>
0

>  <SCORE.SYSTEM.norm>
0

>  <SCORE.heavy>
21

>  <SCORE.norm>
-0.952252

>  <RMSD>
6.664

$$$$
lig.pdb
 OpenBabel11021811453D
libRbt.so/2013.1/901 2013/11/27
 21 23  0  0  0  0  0  0  0  0999 V2000
   -6.4187    1.4197    6.0884 C   0  0  0  0  0  0  0  0  0  0  0  0
   -6.7759    1.4476    4.8093 N   0  0  0  0  0  0  0  0  0  0  0  0
   -6.6231    2.5546    4.1051 C   0  0  0  0  0  0  0  0  0  0  0  0
   -6.1695    3.6745    4.7037 C   0  0  0  0  0  0  0  0  0  0  0  0
   -5.8068    3.6416    5.9929 C   0  0  0  0  0  0  0  0  0  0  0  0
   -5.3624    4.7447    6.5939 N   0  0  0  0  0  0  0  0  0  0  0  0
   -5.9360    2.5123    6.6817 N   0  0  0  0  0  0  0  0  0  0  0  0
   -6.9649    2.5678    2.8060 C   0  0  0  0  0  0  0  0  0  0  0  0
   -6.9733    3.7584    2.1318 C   0  0  0  0  0  0  0  0  0  0  0  0
   -8.0254    3.9871    1.2131 O   0  0  0  0  0  0  0  0  0  0  0  0
   -6.3413    4.8084    2.6818 C   0  0  0  0  0  0  0  0  0  0  0  0
   -5.9218    5.8877    1.8588 O   0  0  0  0  0  0  0  0  0  0  0  0
   -6.0352    4.8036    3.9940 C   0  0  0  0  0  0  0  0  0  0  0  0
   -6.5608    0.3018    6.7792 N   0  0  0  0  0  0  0  0  0  0  0  0
   -5.7976   -0.7297    6.4055 C   0  0  0  0  0  0  0  0  0  0  0  0
   -6.3958   -1.4044    5.1804 C   0  0  0  0  0  0  0  0  0  0  0  0
   -7.6549   -1.8805    5.4822 N   0  0  0  0  0  0  0  0  0  0  0  0
   -8.4298   -0.7936    5.8236 C   0  0  0  0  0  0  0  0  0  0  0  0
   -7.8373   -0.1202    7.0502 C   0  0  0  0  0  0  0  0  0  0  0  0
   -7.6040    3.5442   -0.0516 C   0  0  0  0  0  0  0  0  0  0  0  0
   -4.6179    5.6298    1.4074 C   0  0  0  0  0  0  0  0  0  0  0  0
  1 14  1  0  0  0  0
  1  2  2  0  0  0  0
  3  2  1  0  0  0  0
  3  8  2  0  0  0  0
  4  3  1  0  0  0  0
  5  7  2  0  0  0  0
  5  4  1  0  0  0  0
  6  5  1  0  0  0  0
  7  1  1  0  0  0  0
  9 10  1  0  0  0  0
  9  8  1  0  0  0  0
 11  9  2  0  0  0  0
 12 11  1  0  0  0  0
 13  4  2  0  0  0  0
 13 11  1  0  0  0  0
 14 15  1  0  0  0  0
 16 15  1  0  0  0  0
 17 16  1  0  0  0  0
 18 17  1  0  0  0  0
 18 19  1  0  0  0  0
 19 14  1  0  0  0  0
 20 10  1  0  0  0  0
 21 12  1  0  0  0  0
M  END
>  <CHROM.1>
65.87466215,-91.56922600,-90.18764159,-6.58852142,2.40241734,4.33671847,-1.79315177
-1.10218583,-0.88517139

>  <Name>
lig.pdb

>  <RI>
1.4775e+07

>  <Rbt.Current_Directory>
/home/itssahil/PROJECTS/Mol_Feturizer/New_Systems/rnas/2lwk

>  <Rbt.Executable>
rbdock ($Id: //depot/dev/client3/rdock/2013.1/src/exe/rbdock.cxx#4 $)

>  <Rbt.Library>
libRbt.so (2013.1, Build901 2013/11/27)

>  <Rbt.Parameter_File>
/export/apps/rDock/src/rDock_2013.1_src/data/scripts/dock_solv.prm

>  <Rbt.Receptor>
prm/pocket_docking_4.prm

>  <SCORE>
-19.1325

>  <SCORE.INTER>
-13.7884

>  <SCORE.INTER.CONST>
1

>  <SCORE.INTER.POLAR>
-1.36558

>  <SCORE.INTER.ROT>
3

>  <SCORE.INTER.SOLV>
6.68692

>  <SCORE.INTER.VDW>
-12.4693

>  <SCORE.INTER.norm>
-0.656591

>  <SCORE.INTRA>
-5.34406

>  <SCORE.INTRA.DIHEDRAL>
0.861936

>  <SCORE.INTRA.DIHEDRAL.0>
8.84257

>  <SCORE.INTRA.POLAR>
0

>  <SCORE.INTRA.POLAR.0>
0

>  <SCORE.INTRA.REPUL>
0

>  <SCORE.INTRA.REPUL.0>
0

>  <SCORE.INTRA.SOLV>
0.0878324

>  <SCORE.INTRA.SOLV.lig_0>
-17.1313

>  <SCORE.INTRA.VDW>
-5.81894

>  <SCORE.INTRA.VDW.0>
6.34071

>  <SCORE.INTRA.norm>
-0.254479

>  <SCORE.RESTR>
0

>  <SCORE.RESTR.CAVITY>
0

>  <SCORE.RESTR.norm>
0

>  <SCORE.SYSTEM>
0

>  <SCORE.SYSTEM.CONST>
0

>  <SCORE.SYSTEM.DIHEDRAL>
0

>  <SCORE.SYSTEM.SOLV>
0

>  <SCORE.SYSTEM.norm>
0

>  <SCORE.heavy>
21

>  <SCORE.norm>
-0.91107

>  <RMSD>
6.675

$$$$
lig.pdb
 OpenBabel11021811453D
libRbt.so/2013.1/901 2013/11/27
 21 23  0  0  0  0  0  0  0  0999 V2000
  -10.5101   -4.3252    3.6127 C   0  0  0  0  0  0  0  0  0  0  0  0
  -11.0060   -5.4809    3.1852 N   0  0  0  0  0  0  0  0  0  0  0  0
  -12.2476   -5.8178    3.4848 C   0  0  0  0  0  0  0  0  0  0  0  0
  -12.9865   -5.0200    4.2821 C   0  0  0  0  0  0  0  0  0  0  0  0
  -12.4842   -3.8535    4.7084 C   0  0  0  0  0  0  0  0  0  0  0  0
  -13.2053   -3.0613    5.5008 N   0  0  0  0  0  0  0  0  0  0  0  0
  -11.2443   -3.5120    4.3732 N   0  0  0  0  0  0  0  0  0  0  0  0
  -12.7494   -6.9776    3.0289 C   0  0  0  0  0  0  0  0  0  0  0  0
  -13.9662   -7.4028    3.4882 C   0  0  0  0  0  0  0  0  0  0  0  0
  -14.1218   -8.7833    3.7583 O   0  0  0  0  0  0  0  0  0  0  0  0
  -14.7570   -6.5171    4.1162 C   0  0  0  0  0  0  0  0  0  0  0  0
  -16.1562   -6.7515    4.1908 O   0  0  0  0  0  0  0  0  0  0  0  0
  -14.2389   -5.3728    4.6039 C   0  0  0  0  0  0  0  0  0  0  0  0
   -9.2718   -3.9908    3.2932 N   0  0  0  0  0  0  0  0  0  0  0  0
   -8.3238   -4.2981    4.1837 C   0  0  0  0  0  0  0  0  0  0  0  0
   -8.3151   -3.2757    5.3101 C   0  0  0  0  0  0  0  0  0  0  0  0
   -8.0426   -2.0242    4.7976 N   0  0  0  0  0  0  0  0  0  0  0  0
   -9.0553   -1.7165    3.9154 C   0  0  0  0  0  0  0  0  0  0  0  0
   -9.0636   -2.7335    2.7864 C   0  0  0  0  0  0  0  0  0  0  0  0
  -14.9047   -9.3425    2.7347 C   0  0  0  0  0  0  0  0  0  0  0  0
  -16.4680   -7.2106    5.4801 C   0  0  0  0  0  0  0  0  0  0  0  0
  1 14  1  0  0  0  0
  1  2  2  0  0  0  0
  3  2  1  0  0  0  0
  3  8  2  0  0  0  0
  4  3  1  0  0  0  0
  5  7  2  0  0  0  0
  5  4  1  0  0  0  0
  6  5  1  0  0  0  0
  7  1  1  0  0  0  0
  9 10  1  0  0  0  0
  9  8  1  0  0  0  0
 11  9  2  0  0  0  0
 12 11  1  0  0  0  0
 13  4  2  0  0  0  0
 13 11  1  0  0  0  0
 14 15  1  0  0  0  0
 16 15  1  0  0  0  0
 17 16  1  0  0  0  0
 18 17  1  0  0  0  0
 18 19  1  0  0  0  0
 19 14  1  0  0  0  0
 20 10  1  0  0  0  0
 21 12  1  0  0  0  0
M  END
>  <CHROM.1>
-94.42917728,-105.88480659,103.03224864,-12.07149336,-5.12528912,4.05858199
-0.58087828,-0.30871559,-2.67311358

>  <Name>
lig.pdb

>  <RI>
2.75338e+07

>  <Rbt.Current_Directory>
/home/itssahil/PROJECTS/Mol_Feturizer/New_Systems/rnas/2lwk

>  <Rbt.Executable>
rbdock ($Id: //depot/dev/client3/rdock/2013.1/src/exe/rbdock.cxx#4 $)

>  <Rbt.Library>
libRbt.so (2013.1, Build901 2013/11/27)

>  <Rbt.Parameter_File>
/export/apps/rDock/src/rDock_2013.1_src/data/scripts/dock_solv.prm

>  <Rbt.Receptor>
prm/pocket_docking_8.prm

>  <SCORE>
-21.3718

>  <SCORE.INTER>
-16.1022

>  <SCORE.INTER.CONST>
1

>  <SCORE.INTER.POLAR>
-1.57537

>  <SCORE.INTER.ROT>
3

>  <SCORE.INTER.SOLV>
7.27502

>  <SCORE.INTER.VDW>
-13.5085

>  <SCORE.INTER.norm>
-0.76677

>  <SCORE.INTRA>
-5.26959

>  <SCORE.INTRA.DIHEDRAL>
0.83069

>  <SCORE.INTRA.DIHEDRAL.0>
8.84257

>  <SCORE.INTRA.POLAR>
0

>  <SCORE.INTRA.POLAR.0>
0

>  <SCORE.INTRA.REPUL>
0

>  <SCORE.INTRA.REPUL.0>
0

>  <SCORE.INTRA.SOLV>
0.1303

>  <SCORE.INTRA.SOLV.lig_0>
-17.1313

>  <SCORE.INTRA.VDW>
-5.75008

>  <SCORE.INTRA.VDW.0>
6.34071

>  <SCORE.INTRA.norm>
-0.250933

>  <SCORE.RESTR>
0

>  <SCORE.RESTR.CAVITY>
0

>  <SCORE.RESTR.norm>
0

>  <SCORE.SYSTEM>
0

>  <SCORE.SYSTEM.CONST>
0

>  <SCORE.SYSTEM.DIHEDRAL>
0

>  <SCORE.SYSTEM.SOLV>
0

>  <SCORE.SYSTEM.norm>
0

>  <SCORE.heavy>
21

>  <SCORE.norm>
-1.0177

>  <RMSD>
6.675

$$$$
lig.pdb
 OpenBabel11021811453D
libRbt.so/2013.1/901 2013/11/27
 21 23  0  0  0  0  0  0  0  0999 V2000
   -8.0055   -1.0596    4.4317 C   0  0  0  0  0  0  0  0  0  0  0  0
   -7.3505    0.0599    4.1453 N   0  0  0  0  0  0  0  0  0  0  0  0
   -6.9204    0.8409    5.1199 C   0  0  0  0  0  0  0  0  0  0  0  0
   -7.2074    0.5360    6.4016 C   0  0  0  0  0  0  0  0  0  0  0  0
   -7.8651   -0.5957    6.6868 C   0  0  0  0  0  0  0  0  0  0  0  0
   -8.1576   -0.9024    7.9501 N   0  0  0  0  0  0  0  0  0  0  0  0
   -8.2645   -1.3888    5.6979 N   0  0  0  0  0  0  0  0  0  0  0  0
   -6.2382    1.9594    4.8226 C   0  0  0  0  0  0  0  0  0  0  0  0
   -5.9535    2.8508    5.8209 C   0  0  0  0  0  0  0  0  0  0  0  0
   -6.0637    4.2300    5.5227 O   0  0  0  0  0  0  0  0  0  0  0  0
   -6.0723    2.4424    7.0950 C   0  0  0  0  0  0  0  0  0  0  0  0
   -5.3702    3.1277    8.1224 O   0  0  0  0  0  0  0  0  0  0  0  0
   -6.7897    1.3404    7.3891 C   0  0  0  0  0  0  0  0  0  0  0  0
   -8.4171   -1.8420    3.4490 N   0  0  0  0  0  0  0  0  0  0  0  0
   -9.7378   -1.9111    3.2568 C   0  0  0  0  0  0  0  0  0  0  0  0
  -10.3647   -2.8513    4.2751 C   0  0  0  0  0  0  0  0  0  0  0  0
   -9.8355   -4.1164    4.1248 N   0  0  0  0  0  0  0  0  0  0  0  0
   -8.4826   -4.0230    4.3684 C   0  0  0  0  0  0  0  0  0  0  0  0
   -7.8526   -3.0879    3.3496 C   0  0  0  0  0  0  0  0  0  0  0  0
   -4.7846    4.7087    5.1942 C   0  0  0  0  0  0  0  0  0  0  0  0
   -4.0222    2.7380    8.0841 C   0  0  0  0  0  0  0  0  0  0  0  0
  1 14  1  0  0  0  0
  1  2  2  0  0  0  0
  3  2  1  0  0  0  0
  3  8  2  0  0  0  0
  4  3  1  0  0  0  0
  5  7  2  0  0  0  0
  5  4  1  0  0  0  0
  6  5  1  0  0  0  0
  7  1  1  0  0  0  0
  9 10  1  0  0  0  0
  9  8  1  0  0  0  0
 11  9  2  0  0  0  0
 12 11  1  0  0  0  0
 13  4  2  0  0  0  0
 13 11  1  0  0  0  0
 14 15  1  0  0  0  0
 16 15  1  0  0  0  0
 17 16  1  0  0  0  0
 18 17  1  0  0  0  0
 18 19  1  0  0  0  0
 19 14  1  0  0  0  0
 20 10  1  0  0  0  0
 21 12  1  0  0  0  0
M  END
>  <CHROM.1>
-111.11944762,-96.57953273,-76.96733944,-7.31442974,0.15495886,5.50766631
-3.01561246,1.06030475,1.81911888

>  <Name>
lig.pdb

>  <RI>
1.4775e+07

>  <Rbt.Current_Directory>
/home/itssahil/PROJECTS/Mol_Feturizer/New_Systems/rnas/2lwk

>  <Rbt.Executable>
rbdock ($Id: //depot/dev/client3/rdock/2013.1/src/exe/rbdock.cxx#4 $)

>  <Rbt.Library>
libRbt.so (2013.1, Build901 2013/11/27)

>  <Rbt.Parameter_File>
/export/apps/rDock/src/rDock_2013.1_src/data/scripts/dock_solv.prm

>  <Rbt.Receptor>
prm/pocket_docking_4.prm

>  <SCORE>
-16.8181

>  <SCORE.INTER>
-11.3883

>  <SCORE.INTER.CONST>
1

>  <SCORE.INTER.POLAR>
-0.979796

>  <SCORE.INTER.ROT>
3

>  <SCORE.INTER.SOLV>
5.24692

>  <SCORE.INTER.VDW>
-11.6752

>  <SCORE.INTER.norm>
-0.5423

>  <SCORE.INTRA>
-5.42979

>  <SCORE.INTRA.DIHEDRAL>
0.799009

>  <SCORE.INTRA.DIHEDRAL.0>
8.84257

>  <SCORE.INTRA.POLAR>
0

>  <SCORE.INTRA.POLAR.0>
0

>  <SCORE.INTRA.REPUL>
0

>  <SCORE.INTRA.REPUL.0>
0

>  <SCORE.INTRA.SOLV>
0.0907495

>  <SCORE.INTRA.SOLV.lig_0>
-17.1313

>  <SCORE.INTRA.VDW>
-5.87467

>  <SCORE.INTRA.VDW.0>
6.34071

>  <SCORE.INTRA.norm>
-0.258561

>  <SCORE.RESTR>
0

>  <SCORE.RESTR.CAVITY>
0

>  <SCORE.RESTR.norm>
0

>  <SCORE.SYSTEM>
0

>  <SCORE.SYSTEM.CONST>
0

>  <SCORE.SYSTEM.DIHEDRAL>
0

>  <SCORE.SYSTEM.SOLV>
0

>  <SCORE.SYSTEM.norm>
0

>  <SCORE.heavy>
21

>  <SCORE.norm>
-0.800861

>  <RMSD>
6.677

$$$$
lig.pdb
 OpenBabel11021811453D
libRbt.so/2013.1/901 2013/11/27
 21 23  0  0  0  0  0  0  0  0999 V2000
   -5.2688    5.7235    3.7334 C   0  0  0  0  0  0  0  0  0  0  0  0
   -4.7420    5.4274    4.9162 N   0  0  0  0  0  0  0  0  0  0  0  0
   -5.0321    4.2781    5.4991 C   0  0  0  0  0  0  0  0  0  0  0  0
   -5.9167    3.4379    4.9248 C   0  0  0  0  0  0  0  0  0  0  0  0
   -6.4432    3.7383    3.7301 C   0  0  0  0  0  0  0  0  0  0  0  0
   -7.3220    2.9164    3.1576 N   0  0  0  0  0  0  0  0  0  0  0  0
   -6.1181    4.8838    3.1397 N   0  0  0  0  0  0  0  0  0  0  0  0
   -4.4768    3.9758    6.6844 C   0  0  0  0  0  0  0  0  0  0  0  0
   -4.9169    2.8725    7.3638 C   0  0  0  0  0  0  0  0  0  0  0  0
   -5.0561    2.9768    8.7684 O   0  0  0  0  0  0  0  0  0  0  0  0
   -5.6425    1.9594    6.6975 C   0  0  0  0  0  0  0  0  0  0  0  0
   -5.7216    0.6285    7.1882 O   0  0  0  0  0  0  0  0  0  0  0  0
   -6.2276    2.2815    5.5272 C   0  0  0  0  0  0  0  0  0  0  0  0
   -4.9587    6.8692    3.1517 N   0  0  0  0  0  0  0  0  0  0  0  0
   -5.8706    7.3795    2.3185 C   0  0  0  0  0  0  0  0  0  0  0  0
   -5.8023    6.6720    0.9736 C   0  0  0  0  0  0  0  0  0  0  0  0
   -4.5531    6.8542    0.4173 N   0  0  0  0  0  0  0  0  0  0  0  0
   -3.6384    6.2837    1.2754 C   0  0  0  0  0  0  0  0  0  0  0  0
   -3.7010    6.9916    2.6185 C   0  0  0  0  0  0  0  0  0  0  0  0
   -3.7757    3.1386    9.3227 C   0  0  0  0  0  0  0  0  0  0  0  0
   -4.5435   -0.0508    6.8402 C   0  0  0  0  0  0  0  0  0  0  0  0
  1 14  1  0  0  0  0
  1  2  2  0  0  0  0
  3  2  1  0  0  0  0
  3  8  2  0  0  0  0
  4  3  1  0  0  0  0
  5  7  2  0  0  0  0
  5  4  1  0  0  0  0
  6  5  1  0  0  0  0
  7  1  1  0  0  0  0
  9 10  1  0  0  0  0
  9  8  1  0  0  0  0
 11  9  2  0  0  0  0
 12 11  1  0  0  0  0
 13  4  2  0  0  0  0
 13 11  1  0  0  0  0
 14 15  1  0  0  0  0
 16 15  1  0  0  0  0
 17 16  1  0  0  0  0
 18 17  1  0  0  0  0
 18 19  1  0  0  0  0
 19 14  1  0  0  0  0
 20 10  1  0  0  0  0
 21 12  1  0  0  0  0
M  END
>  <CHROM.1>
-152.56037132,-66.58246515,-78.75113811,-5.21971412,4.22965618,4.68242452
-1.56010889,0.95361136,2.24192289

>  <Name>
lig.pdb

>  <RI>
2.20372e+07

>  <Rbt.Current_Directory>
/home/itssahil/PROJECTS/Mol_Feturizer/New_Systems/rnas/2lwk

>  <Rbt.Executable>
rbdock ($Id: //depot/dev/client3/rdock/2013.1/src/exe/rbdock.cxx#4 $)

>  <Rbt.Library>
libRbt.so (2013.1, Build901 2013/11/27)

>  <Rbt.Parameter_File>
/export/apps/rDock/src/rDock_2013.1_src/data/scripts/dock_solv.prm

>  <Rbt.Receptor>
prm/pocket_docking_7.prm

>  <SCORE>
-22.6983

>  <SCORE.INTER>
-19.2262

>  <SCORE.INTER.CONST>
1

>  <SCORE.INTER.POLAR>
-2.62642

>  <SCORE.INTER.ROT>
3

>  <SCORE.INTER.SOLV>
7.60076

>  <SCORE.INTER.VDW>
-12.1963

>  <SCORE.INTER.norm>
-0.915535

>  <SCORE.INTRA>
-3.47208

>  <SCORE.INTRA.DIHEDRAL>
-0.59955

>  <SCORE.INTRA.DIHEDRAL.0>
8.84257

>  <SCORE.INTRA.POLAR>
0

>  <SCORE.INTRA.POLAR.0>
0

>  <SCORE.INTRA.REPUL>
0

>  <SCORE.INTRA.REPUL.0>
0

>  <SCORE.INTRA.SOLV>
0.0290428

>  <SCORE.INTRA.SOLV.lig_0>
-17.1313

>  <SCORE.INTRA.VDW>
-3.18683

>  <SCORE.INTRA.VDW.0>
6.34071

>  <SCORE.INTRA.norm>
-0.165337

>  <SCORE.RESTR>
0

>  <SCORE.RESTR.CAVITY>
0

>  <SCORE.RESTR.norm>
0

>  <SCORE.SYSTEM>
0

>  <SCORE.SYSTEM.CONST>
0

>  <SCORE.SYSTEM.DIHEDRAL>
0

>  <SCORE.SYSTEM.SOLV>
0

>  <SCORE.SYSTEM.norm>
0

>  <SCORE.heavy>
21

>  <SCORE.norm>
-1.08087

>  <RMSD>
6.681

$$$$
lig.pdb
 OpenBabel11021811453D
libRbt.so/2013.1/901 2013/11/27
 21 23  0  0  0  0  0  0  0  0999 V2000
   -5.7192    1.3904    5.4626 C   0  0  0  0  0  0  0  0  0  0  0  0
   -6.1431    1.4800    4.2069 N   0  0  0  0  0  0  0  0  0  0  0  0
   -6.2946    2.6655    3.6442 C   0  0  0  0  0  0  0  0  0  0  0  0
   -6.0852    3.7842    4.3673 C   0  0  0  0  0  0  0  0  0  0  0  0
   -5.6543    3.6898    5.6323 C   0  0  0  0  0  0  0  0  0  0  0  0
   -5.4497    4.7899    6.3559 N   0  0  0  0  0  0  0  0  0  0  0  0
   -5.4755    2.4904    6.1762 N   0  0  0  0  0  0  0  0  0  0  0  0
   -6.7012    2.7470    2.3664 C   0  0  0  0  0  0  0  0  0  0  0  0
   -7.0272    3.9707    1.8483 C   0  0  0  0  0  0  0  0  0  0  0  0
   -8.1527    4.0447    0.9934 O   0  0  0  0  0  0  0  0  0  0  0  0
   -6.6310    5.0706    2.5097 C   0  0  0  0  0  0  0  0  0  0  0  0
   -6.5237    6.3073    1.8189 O   0  0  0  0  0  0  0  0  0  0  0  0
   -6.2602    4.9871    3.8025 C   0  0  0  0  0  0  0  0  0  0  0  0
   -5.5555    0.1987    6.0103 N   0  0  0  0  0  0  0  0  0  0  0  0
   -4.6023   -0.5739    5.4805 C   0  0  0  0  0  0  0  0  0  0  0  0
   -5.1089   -1.2249    4.2024 C   0  0  0  0  0  0  0  0  0  0  0  0
   -6.2026   -2.0158    4.4875 N   0  0  0  0  0  0  0  0  0  0  0  0
   -7.1821   -1.1889    4.9927 C   0  0  0  0  0  0  0  0  0  0  0  0
   -6.6806   -0.5406    6.2723 C   0  0  0  0  0  0  0  0  0  0  0  0
   -7.7920    3.5013   -0.2506 C   0  0  0  0  0  0  0  0  0  0  0  0
   -5.1916    6.4825    1.4126 C   0  0  0  0  0  0  0  0  0  0  0  0
  1 14  1  0  0  0  0
  1  2  2  0  0  0  0
  3  2  1  0  0  0  0
  3  8  2  0  0  0  0
  4  3  1  0  0  0  0
  5  7  2  0  0  0  0
  5  4  1  0  0  0  0
  6  5  1  0  0  0  0
  7  1  1  0  0  0  0
  9 10  1  0  0  0  0
  9  8  1  0  0  0  0
 11  9  2  0  0  0  0
 12 11  1  0  0  0  0
 13  4  2  0  0  0  0
 13 11  1  0  0  0  0
 14 15  1  0  0  0  0
 16 15  1  0  0  0  0
 17 16  1  0  0  0  0
 18 17  1  0  0  0  0
 18 19  1  0  0  0  0
 19 14  1  0  0  0  0
 20 10  1  0  0  0  0
 21 12  1  0  0  0  0
M  END
>  <CHROM.1>
65.17826578,-75.11544932,-95.61977647,-6.21923703,2.48436931,3.86498767,-1.25350216
-1.18949372,-0.25901972

>  <Name>
lig.pdb

>  <RI>
1.4775e+07

>  <Rbt.Current_Directory>
/home/itssahil/PROJECTS/Mol_Feturizer/New_Systems/rnas/2lwk

>  <Rbt.Executable>
rbdock ($Id: //depot/dev/client3/rdock/2013.1/src/exe/rbdock.cxx#4 $)

>  <Rbt.Library>
libRbt.so (2013.1, Build901 2013/11/27)

>  <Rbt.Parameter_File>
/export/apps/rDock/src/rDock_2013.1_src/data/scripts/dock_solv.prm

>  <Rbt.Receptor>
prm/pocket_docking_4.prm

>  <SCORE>
-21.261

>  <SCORE.INTER>
-16.3942

>  <SCORE.INTER.CONST>
1

>  <SCORE.INTER.POLAR>
-2.08443

>  <SCORE.INTER.ROT>
3

>  <SCORE.INTER.SOLV>
6.14791

>  <SCORE.INTER.VDW>
-11.6307

>  <SCORE.INTER.norm>
-0.780678

>  <SCORE.INTRA>
-4.91421

>  <SCORE.INTRA.DIHEDRAL>
0.0278573

>  <SCORE.INTRA.DIHEDRAL.0>
8.84257

>  <SCORE.INTRA.POLAR>
0

>  <SCORE.INTRA.POLAR.0>
0

>  <SCORE.INTRA.REPUL>
0

>  <SCORE.INTRA.REPUL.0>
0

>  <SCORE.INTRA.SOLV>
0.0702127

>  <SCORE.INTRA.SOLV.lig_0>
-17.1313

>  <SCORE.INTRA.VDW>
-4.96324

>  <SCORE.INTRA.VDW.0>
6.34071

>  <SCORE.INTRA.norm>
-0.23401

>  <SCORE.RESTR>
0.0474201

>  <SCORE.RESTR.CAVITY>
0.0474201

>  <SCORE.RESTR.norm>
0.0022581

>  <SCORE.SYSTEM>
0

>  <SCORE.SYSTEM.CONST>
0

>  <SCORE.SYSTEM.DIHEDRAL>
0

>  <SCORE.SYSTEM.SOLV>
0

>  <SCORE.SYSTEM.norm>
0

>  <SCORE.heavy>
21

>  <SCORE.norm>
-1.01243

>  <RMSD>
6.685

$$$$
lig.pdb
 OpenBabel11021811453D
libRbt.so/2013.1/901 2013/11/27
 21 23  0  0  0  0  0  0  0  0999 V2000
   -4.8395    2.1908    6.7529 C   0  0  0  0  0  0  0  0  0  0  0  0
   -4.7056    3.3502    6.1187 N   0  0  0  0  0  0  0  0  0  0  0  0
   -5.4636    3.6213    5.0714 C   0  0  0  0  0  0  0  0  0  0  0  0
   -6.3233    2.6927    4.6059 C   0  0  0  0  0  0  0  0  0  0  0  0
   -6.4582    1.5260    5.2503 C   0  0  0  0  0  0  0  0  0  0  0  0
   -7.3017    0.6006    4.7944 N   0  0  0  0  0  0  0  0  0  0  0  0
   -5.7119    1.2788    6.3219 N   0  0  0  0  0  0  0  0  0  0  0  0
   -5.3384    4.8056    4.4497 C   0  0  0  0  0  0  0  0  0  0  0  0
   -5.9936    5.0085    3.2658 C   0  0  0  0  0  0  0  0  0  0  0  0
   -5.3100    5.7161    2.2483 O   0  0  0  0  0  0  0  0  0  0  0  0
   -6.9800    4.1616    2.9282 C   0  0  0  0  0  0  0  0  0  0  0  0
   -7.9703    4.5702    1.9952 O   0  0  0  0  0  0  0  0  0  0  0  0
   -7.0767    2.9598    3.5299 C   0  0  0  0  0  0  0  0  0  0  0  0
   -4.0872    1.9368    7.8097 N   0  0  0  0  0  0  0  0  0  0  0  0
   -4.5162    2.4263    8.9770 C   0  0  0  0  0  0  0  0  0  0  0  0
   -4.1723    3.9045    9.0808 C   0  0  0  0  0  0  0  0  0  0  0  0
   -2.8039    4.0674    9.0161 N   0  0  0  0  0  0  0  0  0  0  0  0
   -2.3953    3.5931    7.7888 C   0  0  0  0  0  0  0  0  0  0  0  0
   -2.7333    2.1153    7.6839 C   0  0  0  0  0  0  0  0  0  0  0  0
   -5.5603    7.0868    2.4267 C   0  0  0  0  0  0  0  0  0  0  0  0
   -7.6374    4.0581    0.7314 C   0  0  0  0  0  0  0  0  0  0  0  0
  1 14  1  0  0  0  0
  1  2  2  0  0  0  0
  3  2  1  0  0  0  0
  3  8  2  0  0  0  0
  4  3  1  0  0  0  0
  5  7  2  0  0  0  0
  5  4  1  0  0  0  0
  6  5  1  0  0  0  0
  7  1  1  0  0  0  0
  9 10  1  0  0  0  0
  9  8  1  0  0  0  0
 11  9  2  0  0  0  0
 12 11  1  0  0  0  0
 13  4  2  0  0  0  0
 13 11  1  0  0  0  0
 14 15  1  0  0  0  0
 16 15  1  0  0  0  0
 17 16  1  0  0  0  0
 18 17  1  0  0  0  0
 18 19  1  0  0  0  0
 19 14  1  0  0  0  0
 20 10  1  0  0  0  0
 21 12  1  0  0  0  0
M  END
>  <CHROM.1>
83.41359523,-88.35062706,98.60276664,-5.39780981,3.43698465,5.25582461,0.84049085
0.82987797,2.45354157

>  <Name>
lig.pdb

>  <RI>
2.75338e+07

>  <Rbt.Current_Directory>
/home/itssahil/PROJECTS/Mol_Feturizer/New_Systems/rnas/2lwk

>  <Rbt.Executable>
rbdock ($Id: //depot/dev/client3/rdock/2013.1/src/exe/rbdock.cxx#4 $)

>  <Rbt.Library>
libRbt.so (2013.1, Build901 2013/11/27)

>  <Rbt.Parameter_File>
/export/apps/rDock/src/rDock_2013.1_src/data/scripts/dock_solv.prm

>  <Rbt.Receptor>
prm/pocket_docking_8.prm

>  <SCORE>
-20.521

>  <SCORE.INTER>
-15.2915

>  <SCORE.INTER.CONST>
1

>  <SCORE.INTER.POLAR>
-0.552715

>  <SCORE.INTER.ROT>
3

>  <SCORE.INTER.SOLV>
9.62238

>  <SCORE.INTER.VDW>
-17.1594

>  <SCORE.INTER.norm>
-0.728168

>  <SCORE.INTRA>
-5.22951

>  <SCORE.INTRA.DIHEDRAL>
0.694677

>  <SCORE.INTRA.DIHEDRAL.0>
8.84257

>  <SCORE.INTRA.POLAR>
0

>  <SCORE.INTRA.POLAR.0>
0

>  <SCORE.INTRA.REPUL>
0

>  <SCORE.INTRA.REPUL.0>
0

>  <SCORE.INTRA.SOLV>
0.124243

>  <SCORE.INTRA.SOLV.lig_0>
-17.1313

>  <SCORE.INTRA.VDW>
-5.63897

>  <SCORE.INTRA.VDW.0>
6.34071

>  <SCORE.INTRA.norm>
-0.249024

>  <SCORE.RESTR>
0

>  <SCORE.RESTR.CAVITY>
0

>  <SCORE.RESTR.norm>
0

>  <SCORE.SYSTEM>
0

>  <SCORE.SYSTEM.CONST>
0

>  <SCORE.SYSTEM.DIHEDRAL>
0

>  <SCORE.SYSTEM.SOLV>
0

>  <SCORE.SYSTEM.norm>
0

>  <SCORE.heavy>
21

>  <SCORE.norm>
-0.977193

>  <RMSD>
6.691

$$$$
lig.pdb
 OpenBabel11021811453D
libRbt.so/2013.1/901 2013/11/27
 21 23  0  0  0  0  0  0  0  0999 V2000
   -5.1892    4.7736    3.2777 C   0  0  0  0  0  0  0  0  0  0  0  0
   -4.2320    4.1466    2.6032 N   0  0  0  0  0  0  0  0  0  0  0  0
   -4.5450    3.3645    1.5857 C   0  0  0  0  0  0  0  0  0  0  0  0
   -5.8399    3.1494    1.2772 C   0  0  0  0  0  0  0  0  0  0  0  0
   -6.8024    3.7864    1.9574 C   0  0  0  0  0  0  0  0  0  0  0  0
   -8.0847    3.5759    1.6627 N   0  0  0  0  0  0  0  0  0  0  0  0
   -6.4718    4.5954    2.9587 N   0  0  0  0  0  0  0  0  0  0  0  0
   -3.5696    2.7524    0.8940 C   0  0  0  0  0  0  0  0  0  0  0  0
   -3.9059    1.8088   -0.0382 C   0  0  0  0  0  0  0  0  0  0  0  0
   -3.0978    0.6499   -0.1227 O   0  0  0  0  0  0  0  0  0  0  0  0
   -5.1798    1.7539   -0.4606 C   0  0  0  0  0  0  0  0  0  0  0  0
   -5.4816    1.1500   -1.7106 O   0  0  0  0  0  0  0  0  0  0  0  0
   -6.1579    2.3384    0.2585 C   0  0  0  0  0  0  0  0  0  0  0  0
   -4.8633    5.5667    4.2837 N   0  0  0  0  0  0  0  0  0  0  0  0
   -3.7308    6.2635    4.1494 C   0  0  0  0  0  0  0  0  0  0  0  0
   -2.5333    5.3763    4.4539 C   0  0  0  0  0  0  0  0  0  0  0  0
   -2.6131    4.9203    5.7534 N   0  0  0  0  0  0  0  0  0  0  0  0
   -3.7663    4.1729    5.8522 C   0  0  0  0  0  0  0  0  0  0  0  0
   -4.9650    5.0577    5.5531 C   0  0  0  0  0  0  0  0  0  0  0  0
   -2.0864    0.8914   -1.0670 C   0  0  0  0  0  0  0  0  0  0  0  0
   -5.4048   -0.2442   -1.5677 C   0  0  0  0  0  0  0  0  0  0  0  0
  1 14  1  0  0  0  0
  1  2  2  0  0  0  0
  3  2  1  0  0  0  0
  3  8  2  0  0  0  0
  4  3  1  0  0  0  0
  5  7  2  0  0  0  0
  5  4  1  0  0  0  0
  6  5  1  0  0  0  0
  7  1  1  0  0  0  0
  9 10  1  0  0  0  0
  9  8  1  0  0  0  0
 11  9  2  0  0  0  0
 12 11  1  0  0  0  0
 13  4  2  0  0  0  0
 13 11  1  0  0  0  0
 14 15  1  0  0  0  0
 16 15  1  0  0  0  0
 17 16  1  0  0  0  0
 18 17  1  0  0  0  0
 18 19  1  0  0  0  0
 19 14  1  0  0  0  0
 20 10  1  0  0  0  0
 21 12  1  0  0  0  0
M  END
>  <CHROM.1>
35.49812516,-91.23215851,75.76192342,-4.67391613,3.29540573,1.96812345,1.48995351
-0.17761387,0.92904648

>  <Name>
lig.pdb

>  <RI>
2.59814e+07

>  <Rbt.Current_Directory>
/home/itssahil/PROJECTS/Mol_Feturizer/New_Systems/rnas/2lwk

>  <Rbt.Executable>
rbdock ($Id: //depot/dev/client3/rdock/2013.1/src/exe/rbdock.cxx#4 $)

>  <Rbt.Library>
libRbt.so (2013.1, Build901 2013/11/27)

>  <Rbt.Parameter_File>
/export/apps/rDock/src/rDock_2013.1_src/data/scripts/dock_solv.prm

>  <Rbt.Receptor>
prm/pocket_docking_6.prm

>  <SCORE>
-17.5635

>  <SCORE.INTER>
-13.7661

>  <SCORE.INTER.CONST>
1

>  <SCORE.INTER.POLAR>
-2.2933

>  <SCORE.INTER.ROT>
3

>  <SCORE.INTER.SOLV>
8.10436

>  <SCORE.INTER.VDW>
-9.83454

>  <SCORE.INTER.norm>
-0.655531

>  <SCORE.INTRA>
-3.79731

>  <SCORE.INTRA.DIHEDRAL>
0.495288

>  <SCORE.INTRA.DIHEDRAL.0>
8.84257

>  <SCORE.INTRA.POLAR>
0

>  <SCORE.INTRA.POLAR.0>
0

>  <SCORE.INTRA.REPUL>
0

>  <SCORE.INTRA.REPUL.0>
0

>  <SCORE.INTRA.SOLV>
0.134874

>  <SCORE.INTRA.SOLV.lig_0>
-17.1313

>  <SCORE.INTRA.VDW>
-4.1124

>  <SCORE.INTRA.VDW.0>
6.34071

>  <SCORE.INTRA.norm>
-0.180825

>  <SCORE.RESTR>
0

>  <SCORE.RESTR.CAVITY>
0

>  <SCORE.RESTR.norm>
0

>  <SCORE.SYSTEM>
0

>  <SCORE.SYSTEM.CONST>
0

>  <SCORE.SYSTEM.DIHEDRAL>
0

>  <SCORE.SYSTEM.SOLV>
0

>  <SCORE.SYSTEM.norm>
0

>  <SCORE.heavy>
21

>  <SCORE.norm>
-0.836355

>  <RMSD>
6.694

$$$$
lig.pdb
 OpenBabel11021811453D
libRbt.so/2013.1/901 2013/11/27
 21 23  0  0  0  0  0  0  0  0999 V2000
   -6.0492    6.2160    2.4706 C   0  0  0  0  0  0  0  0  0  0  0  0
   -6.7256    5.0787    2.5864 N   0  0  0  0  0  0  0  0  0  0  0  0
   -6.3809    4.1963    3.5070 C   0  0  0  0  0  0  0  0  0  0  0  0
   -5.3003    4.4207    4.2816 C   0  0  0  0  0  0  0  0  0  0  0  0
   -4.6228    5.5706    4.1644 C   0  0  0  0  0  0  0  0  0  0  0  0
   -3.5507    5.7985    4.9222 N   0  0  0  0  0  0  0  0  0  0  0  0
   -4.9997    6.4638    3.2554 N   0  0  0  0  0  0  0  0  0  0  0  0
   -7.0846    3.0589    3.6332 C   0  0  0  0  0  0  0  0  0  0  0  0
   -6.6171    2.0752    4.4614 C   0  0  0  0  0  0  0  0  0  0  0  0
   -6.7394    0.7344    4.0251 O   0  0  0  0  0  0  0  0  0  0  0  0
   -5.6651    2.3913    5.3548 C   0  0  0  0  0  0  0  0  0  0  0  0
   -5.4845    1.5810    6.5076 O   0  0  0  0  0  0  0  0  0  0  0  0
   -4.9378    3.5151    5.2009 C   0  0  0  0  0  0  0  0  0  0  0  0
   -6.4130    7.0990    1.5568 N   0  0  0  0  0  0  0  0  0  0  0  0
   -6.1486    6.7829    0.2854 C   0  0  0  0  0  0  0  0  0  0  0  0
   -4.6848    7.0554   -0.0263 C   0  0  0  0  0  0  0  0  0  0  0  0
   -4.4144    8.3960    0.1550 N   0  0  0  0  0  0  0  0  0  0  0  0
   -4.6557    8.6841    1.4805 C   0  0  0  0  0  0  0  0  0  0  0  0
   -6.1185    8.4173    1.7938 C   0  0  0  0  0  0  0  0  0  0  0  0
   -7.7293    0.1113    4.8028 C   0  0  0  0  0  0  0  0  0  0  0  0
   -6.2589    2.1065    7.5536 C   0  0  0  0  0  0  0  0  0  0  0  0
  1 14  1  0  0  0  0
  1  2  2  0  0  0  0
  3  2  1  0  0  0  0
  3  8  2  0  0  0  0
  4  3  1  0  0  0  0
  5  7  2  0  0  0  0
  5  4  1  0  0  0  0
  6  5  1  0  0  0  0
  7  1  1  0  0  0  0
  9 10  1  0  0  0  0
  9  8  1  0  0  0  0
 11  9  2  0  0  0  0
 12 11  1  0  0  0  0
 13  4  2  0  0  0  0
 13 11  1  0  0  0  0
 14 15  1  0  0  0  0
 16 15  1  0  0  0  0
 17 16  1  0  0  0  0
 18 17  1  0  0  0  0
 18 19  1  0  0  0  0
 19 14  1  0  0  0  0
 20 10  1  0  0  0  0
 21 12  1  0  0  0  0
M  END
>  <CHROM.1>
-72.22665427,-108.63368994,-92.34450053,-5.73114990,4.73358383,3.43789207
1.33434898,-0.87928043,-0.80792501

>  <Name>
lig.pdb

>  <RI>
2.75338e+07

>  <Rbt.Current_Directory>
/home/itssahil/PROJECTS/Mol_Feturizer/New_Systems/rnas/2lwk

>  <Rbt.Executable>
rbdock ($Id: //depot/dev/client3/rdock/2013.1/src/exe/rbdock.cxx#4 $)

>  <Rbt.Library>
libRbt.so (2013.1, Build901 2013/11/27)

>  <Rbt.Parameter_File>
/export/apps/rDock/src/rDock_2013.1_src/data/scripts/dock_solv.prm

>  <Rbt.Receptor>
prm/pocket_docking_8.prm

>  <SCORE>
-21.302

>  <SCORE.INTER>
-16.7613

>  <SCORE.INTER.CONST>
1

>  <SCORE.INTER.POLAR>
-2.01094

>  <SCORE.INTER.ROT>
3

>  <SCORE.INTER.SOLV>
6.64591

>  <SCORE.INTER.VDW>
-12.2864

>  <SCORE.INTER.norm>
-0.798157

>  <SCORE.INTRA>
-4.54074

>  <SCORE.INTRA.DIHEDRAL>
0.943866

>  <SCORE.INTRA.DIHEDRAL.0>
8.84257

>  <SCORE.INTRA.POLAR>
0

>  <SCORE.INTRA.POLAR.0>
0

>  <SCORE.INTRA.REPUL>
0

>  <SCORE.INTRA.REPUL.0>
0

>  <SCORE.INTRA.SOLV>
0.0614754

>  <SCORE.INTRA.SOLV.lig_0>
-17.1313

>  <SCORE.INTRA.VDW>
-5.04341

>  <SCORE.INTRA.VDW.0>
6.34071

>  <SCORE.INTRA.norm>
-0.216226

>  <SCORE.RESTR>
0

>  <SCORE.RESTR.CAVITY>
0

>  <SCORE.RESTR.norm>
0

>  <SCORE.SYSTEM>
0

>  <SCORE.SYSTEM.CONST>
0

>  <SCORE.SYSTEM.DIHEDRAL>
0

>  <SCORE.SYSTEM.SOLV>
0

>  <SCORE.SYSTEM.norm>
0

>  <SCORE.heavy>
21

>  <SCORE.norm>
-1.01438

>  <RMSD>
6.709

$$$$
lig.pdb
 OpenBabel11021811453D
libRbt.so/2013.1/901 2013/11/27
 21 23  0  0  0  0  0  0  0  0999 V2000
   -5.7483    6.5636    2.7791 C   0  0  0  0  0  0  0  0  0  0  0  0
   -5.3001    6.0073    3.8990 N   0  0  0  0  0  0  0  0  0  0  0  0
   -5.6881    4.7895    4.2325 C   0  0  0  0  0  0  0  0  0  0  0  0
   -6.5922    4.1404    3.4713 C   0  0  0  0  0  0  0  0  0  0  0  0
   -7.0392    4.7031    2.3407 C   0  0  0  0  0  0  0  0  0  0  0  0
   -7.9365    4.0710    1.5851 N   0  0  0  0  0  0  0  0  0  0  0  0
   -6.6162    5.9162    2.0004 N   0  0  0  0  0  0  0  0  0  0  0  0
   -5.2121    4.2248    5.3547 C   0  0  0  0  0  0  0  0  0  0  0  0
   -5.7516    3.0437    5.7862 C   0  0  0  0  0  0  0  0  0  0  0  0
   -5.9543    2.8823    7.1776 O   0  0  0  0  0  0  0  0  0  0  0  0
   -6.4970    2.3301    4.9264 C   0  0  0  0  0  0  0  0  0  0  0  0
   -6.6811    0.9380    5.1416 O   0  0  0  0  0  0  0  0  0  0  0  0
   -7.0024    2.9133    3.8218 C   0  0  0  0  0  0  0  0  0  0  0  0
   -5.3406    7.7763    2.4468 N   0  0  0  0  0  0  0  0  0  0  0  0
   -6.2677    8.6001    1.9489 C   0  0  0  0  0  0  0  0  0  0  0  0
   -6.5196    8.2774    0.4838 C   0  0  0  0  0  0  0  0  0  0  0  0
   -5.3544    8.4472   -0.2348 N   0  0  0  0  0  0  0  0  0  0  0  0
   -4.4310    7.5588    0.2715 C   0  0  0  0  0  0  0  0  0  0  0  0
   -4.1737    7.8816    1.7340 C   0  0  0  0  0  0  0  0  0  0  0  0
   -4.7447    2.4516    7.7474 C   0  0  0  0  0  0  0  0  0  0  0  0
   -5.5844    0.2494    4.5999 C   0  0  0  0  0  0  0  0  0  0  0  0
  1 14  1  0  0  0  0
  1  2  2  0  0  0  0
  3  2  1  0  0  0  0
  3  8  2  0  0  0  0
  4  3  1  0  0  0  0
  5  7  2  0  0  0  0
  5  4  1  0  0  0  0
  6  5  1  0  0  0  0
  7  1  1  0  0  0  0
  9 10  1  0  0  0  0
  9  8  1  0  0  0  0
 11  9  2  0  0  0  0
 12 11  1  0  0  0  0
 13  4  2  0  0  0  0
 13 11  1  0  0  0  0
 14 15  1  0  0  0  0
 16 15  1  0  0  0  0
 17 16  1  0  0  0  0
 18 17  1  0  0  0  0
 18 19  1  0  0  0  0
 19 14  1  0  0  0  0
 20 10  1  0  0  0  0
 21 12  1  0  0  0  0
M  END
>  <CHROM.1>
-138.87514850,-83.77439927,-84.06553324,-5.92522096,4.92008467,3.40477968
-1.48889052,0.96883320,2.39142364

>  <Name>
lig.pdb

>  <RI>
2.59814e+07

>  <Rbt.Current_Directory>
/home/itssahil/PROJECTS/Mol_Feturizer/New_Systems/rnas/2lwk

>  <Rbt.Executable>
rbdock ($Id: //depot/dev/client3/rdock/2013.1/src/exe/rbdock.cxx#4 $)

>  <Rbt.Library>
libRbt.so (2013.1, Build901 2013/11/27)

>  <Rbt.Parameter_File>
/export/apps/rDock/src/rDock_2013.1_src/data/scripts/dock_solv.prm

>  <Rbt.Receptor>
prm/pocket_docking_6.prm

>  <SCORE>
-23.981

>  <SCORE.INTER>
-19.4537

>  <SCORE.INTER.CONST>
1

>  <SCORE.INTER.POLAR>
-2.18528

>  <SCORE.INTER.ROT>
3

>  <SCORE.INTER.SOLV>
7.69639

>  <SCORE.INTER.VDW>
-13.8503

>  <SCORE.INTER.norm>
-0.926366

>  <SCORE.INTRA>
-4.66225

>  <SCORE.INTRA.DIHEDRAL>
0.54686

>  <SCORE.INTRA.DIHEDRAL.0>
8.84257

>  <SCORE.INTRA.POLAR>
0

>  <SCORE.INTRA.POLAR.0>
0

>  <SCORE.INTRA.REPUL>
0

>  <SCORE.INTRA.REPUL.0>
0

>  <SCORE.INTRA.SOLV>
0.066172

>  <SCORE.INTRA.SOLV.lig_0>
-17.1313

>  <SCORE.INTRA.VDW>
-4.96877

>  <SCORE.INTRA.VDW.0>
6.34071

>  <SCORE.INTRA.norm>
-0.222012

>  <SCORE.RESTR>
0.134923

>  <SCORE.RESTR.CAVITY>
0.134923

>  <SCORE.RESTR.norm>
0.00642491

>  <SCORE.SYSTEM>
0

>  <SCORE.SYSTEM.CONST>
0

>  <SCORE.SYSTEM.DIHEDRAL>
0

>  <SCORE.SYSTEM.SOLV>
0

>  <SCORE.SYSTEM.norm>
0

>  <SCORE.heavy>
21

>  <SCORE.norm>
-1.14195

>  <RMSD>
6.713

$$$$
lig.pdb
 OpenBabel11021811453D
libRbt.so/2013.1/901 2013/11/27
 21 23  0  0  0  0  0  0  0  0999 V2000
  -12.5460   -1.7131    5.3237 C   0  0  0  0  0  0  0  0  0  0  0  0
  -12.4790   -2.8110    4.5791 N   0  0  0  0  0  0  0  0  0  0  0  0
  -13.2489   -3.8471    4.8599 C   0  0  0  0  0  0  0  0  0  0  0  0
  -14.0510   -3.8142    5.9432 C   0  0  0  0  0  0  0  0  0  0  0  0
  -14.1185   -2.7037    6.6897 C   0  0  0  0  0  0  0  0  0  0  0  0
  -14.9045   -2.6641    7.7649 N   0  0  0  0  0  0  0  0  0  0  0  0
  -13.3618   -1.6568    6.3773 N   0  0  0  0  0  0  0  0  0  0  0  0
  -13.1922   -4.9451    4.0879 C   0  0  0  0  0  0  0  0  0  0  0  0
  -13.8550   -6.0739    4.4863 C   0  0  0  0  0  0  0  0  0  0  0  0
  -13.2117   -7.3190    4.2887 O   0  0  0  0  0  0  0  0  0  0  0  0
  -14.7887   -5.9615    5.4453 C   0  0  0  0  0  0  0  0  0  0  0  0
  -15.7989   -6.9533    5.5641 O   0  0  0  0  0  0  0  0  0  0  0  0
  -14.8159   -4.8740    6.2404 C   0  0  0  0  0  0  0  0  0  0  0  0
  -11.7829   -0.6763    5.0238 N   0  0  0  0  0  0  0  0  0  0  0  0
  -10.7385   -0.9173    4.2254 C   0  0  0  0  0  0  0  0  0  0  0  0
   -9.5999   -1.5304    5.0266 C   0  0  0  0  0  0  0  0  0  0  0  0
   -9.2014   -0.6514    6.0124 N   0  0  0  0  0  0  0  0  0  0  0  0
  -10.2831   -0.4535    6.8425 C   0  0  0  0  0  0  0  0  0  0  0  0
  -11.4208    0.1634    6.0459 C   0  0  0  0  0  0  0  0  0  0  0  0
  -13.5287   -7.7738    2.9981 C   0  0  0  0  0  0  0  0  0  0  0  0
  -16.8036   -6.6884    4.6203 C   0  0  0  0  0  0  0  0  0  0  0  0
  1 14  1  0  0  0  0
  1  2  2  0  0  0  0
  3  2  1  0  0  0  0
  3  8  2  0  0  0  0
  4  3  1  0  0  0  0
  5  7  2  0  0  0  0
  5  4  1  0  0  0  0
  6  5  1  0  0  0  0
  7  1  1  0  0  0  0
  9 10  1  0  0  0  0
  9  8  1  0  0  0  0
 11  9  2  0  0  0  0
 12 11  1  0  0  0  0
 13  4  2  0  0  0  0
 13 11  1  0  0  0  0
 14 15  1  0  0  0  0
 16 15  1  0  0  0  0
 17 16  1  0  0  0  0
 18 17  1  0  0  0  0
 18 19  1  0  0  0  0
 19 14  1  0  0  0  0
 20 10  1  0  0  0  0
 21 12  1  0  0  0  0
M  END
>  <CHROM.1>
-17.75979530,-87.58878722,-81.20080956,-13.03237512,-3.54368738,5.35571020
0.87269854,0.49860044,0.54845771

>  <Name>
lig.pdb

>  <RI>
2.20372e+07

>  <Rbt.Current_Directory>
/home/itssahil/PROJECTS/Mol_Feturizer/New_Systems/rnas/2lwk

>  <Rbt.Executable>
rbdock ($Id: //depot/dev/client3/rdock/2013.1/src/exe/rbdock.cxx#4 $)

>  <Rbt.Library>
libRbt.so (2013.1, Build901 2013/11/27)

>  <Rbt.Parameter_File>
/export/apps/rDock/src/rDock_2013.1_src/data/scripts/dock_solv.prm

>  <Rbt.Receptor>
prm/pocket_docking_7.prm

>  <SCORE>
-29.0799

>  <SCORE.INTER>
-25.7934

>  <SCORE.INTER.CONST>
1

>  <SCORE.INTER.POLAR>
-2.51744

>  <SCORE.INTER.ROT>
3

>  <SCORE.INTER.SOLV>
10.0428

>  <SCORE.INTER.VDW>
-17.7517

>  <SCORE.INTER.norm>
-1.22826

>  <SCORE.INTRA>
-3.28654

>  <SCORE.INTRA.DIHEDRAL>
0.660763

>  <SCORE.INTRA.DIHEDRAL.0>
8.84257

>  <SCORE.INTRA.POLAR>
0

>  <SCORE.INTRA.POLAR.0>
0

>  <SCORE.INTRA.REPUL>
0

>  <SCORE.INTRA.REPUL.0>
0

>  <SCORE.INTRA.SOLV>
-0.0502401

>  <SCORE.INTRA.SOLV.lig_0>
-17.1313

>  <SCORE.INTRA.VDW>
-3.5918

>  <SCORE.INTRA.VDW.0>
6.34071

>  <SCORE.INTRA.norm>
-0.156502

>  <SCORE.RESTR>
0

>  <SCORE.RESTR.CAVITY>
0

>  <SCORE.RESTR.norm>
0

>  <SCORE.SYSTEM>
0

>  <SCORE.SYSTEM.CONST>
0

>  <SCORE.SYSTEM.DIHEDRAL>
0

>  <SCORE.SYSTEM.SOLV>
0

>  <SCORE.SYSTEM.norm>
0

>  <SCORE.heavy>
21

>  <SCORE.norm>
-1.38476

>  <RMSD>
6.718

$$$$
lig.pdb
 OpenBabel11021811453D
libRbt.so/2013.1/901 2013/11/27
 21 23  0  0  0  0  0  0  0  0999 V2000
   -6.0484    6.2383    2.4619 C   0  0  0  0  0  0  0  0  0  0  0  0
   -6.7296    5.1042    2.5803 N   0  0  0  0  0  0  0  0  0  0  0  0
   -6.3822    4.2179    3.4961 C   0  0  0  0  0  0  0  0  0  0  0  0
   -5.2943    4.4350    4.2626 C   0  0  0  0  0  0  0  0  0  0  0  0
   -4.6120    5.5817    4.1428 C   0  0  0  0  0  0  0  0  0  0  0  0
   -3.5328    5.8024    4.8926 N   0  0  0  0  0  0  0  0  0  0  0  0
   -4.9915    6.4790    3.2389 N   0  0  0  0  0  0  0  0  0  0  0  0
   -7.0906    3.0837    3.6251 C   0  0  0  0  0  0  0  0  0  0  0  0
   -6.6215    2.0957    4.4474 C   0  0  0  0  0  0  0  0  0  0  0  0
   -6.7540    0.7566    4.0089 O   0  0  0  0  0  0  0  0  0  0  0  0
   -5.6609    2.4049    5.3339 C   0  0  0  0  0  0  0  0  0  0  0  0
   -5.4752    1.5909    6.4833 O   0  0  0  0  0  0  0  0  0  0  0  0
   -4.9291    3.5253    5.1769 C   0  0  0  0  0  0  0  0  0  0  0  0
   -6.4150    7.1253    1.5530 N   0  0  0  0  0  0  0  0  0  0  0  0
   -6.1414    6.8214    0.2806 C   0  0  0  0  0  0  0  0  0  0  0  0
   -4.6784    7.1087   -0.0213 C   0  0  0  0  0  0  0  0  0  0  0  0
   -4.4203    8.4500    0.1718 N   0  0  0  0  0  0  0  0  0  0  0  0
   -4.6708    8.7257    1.4983 C   0  0  0  0  0  0  0  0  0  0  0  0
   -6.1329    8.4442    1.8018 C   0  0  0  0  0  0  0  0  0  0  0  0
   -7.7232    0.1295    4.8093 C   0  0  0  0  0  0  0  0  0  0  0  0
   -6.2468    2.1119    7.5338 C   0  0  0  0  0  0  0  0  0  0  0  0
  1 14  1  0  0  0  0
  1  2  2  0  0  0  0
  3  2  1  0  0  0  0
  3  8  2  0  0  0  0
  4  3  1  0  0  0  0
  5  7  2  0  0  0  0
  5  4  1  0  0  0  0
  6  5  1  0  0  0  0
  7  1  1  0  0  0  0
  9 10  1  0  0  0  0
  9  8  1  0  0  0  0
 11  9  2  0  0  0  0
 12 11  1  0  0  0  0
 13  4  2  0  0  0  0
 13 11  1  0  0  0  0
 14 15  1  0  0  0  0
 16 15  1  0  0  0  0
 17 16  1  0  0  0  0
 18 17  1  0  0  0  0
 18 19  1  0  0  0  0
 19 14  1  0  0  0  0
 20 10  1  0  0  0  0
 21 12  1  0  0  0  0
M  END
>  <CHROM.1>
-73.34917078,-109.71301227,-91.89871866,-5.72968156,4.75644561,3.42878038
1.33818610,-0.86954910,-0.79928668

>  <Name>
lig.pdb

>  <RI>
2.75338e+07

>  <Rbt.Current_Directory>
/home/itssahil/PROJECTS/Mol_Feturizer/New_Systems/rnas/2lwk

>  <Rbt.Executable>
rbdock ($Id: //depot/dev/client3/rdock/2013.1/src/exe/rbdock.cxx#4 $)

>  <Rbt.Library>
libRbt.so (2013.1, Build901 2013/11/27)

>  <Rbt.Parameter_File>
/export/apps/rDock/src/rDock_2013.1_src/data/scripts/dock_solv.prm

>  <Rbt.Receptor>
prm/pocket_docking_8.prm

>  <SCORE>
-21.3012

>  <SCORE.INTER>
-16.7336

>  <SCORE.INTER.CONST>
1

>  <SCORE.INTER.POLAR>
-1.99252

>  <SCORE.INTER.ROT>
3

>  <SCORE.INTER.SOLV>
6.65829

>  <SCORE.INTER.VDW>
-12.3334

>  <SCORE.INTER.norm>
-0.796837

>  <SCORE.INTRA>
-4.56764

>  <SCORE.INTRA.DIHEDRAL>
0.929648

>  <SCORE.INTRA.DIHEDRAL.0>
8.84257

>  <SCORE.INTRA.POLAR>
0

>  <SCORE.INTRA.POLAR.0>
0

>  <SCORE.INTRA.REPUL>
0

>  <SCORE.INTRA.REPUL.0>
0

>  <SCORE.INTRA.SOLV>
0.0652369

>  <SCORE.INTRA.SOLV.lig_0>
-17.1313

>  <SCORE.INTRA.VDW>
-5.06508

>  <SCORE.INTRA.VDW.0>
6.34071

>  <SCORE.INTRA.norm>
-0.217507

>  <SCORE.RESTR>
0

>  <SCORE.RESTR.CAVITY>
0

>  <SCORE.RESTR.norm>
0

>  <SCORE.SYSTEM>
0

>  <SCORE.SYSTEM.CONST>
0

>  <SCORE.SYSTEM.DIHEDRAL>
0

>  <SCORE.SYSTEM.SOLV>
0

>  <SCORE.SYSTEM.norm>
0

>  <SCORE.heavy>
21

>  <SCORE.norm>
-1.01434

>  <RMSD>
6.724

$$$$
lig.pdb
 OpenBabel11021811453D
libRbt.so/2013.1/901 2013/11/27
 21 23  0  0  0  0  0  0  0  0999 V2000
   -6.3622    1.4146    5.8397 C   0  0  0  0  0  0  0  0  0  0  0  0
   -6.6722    1.4849    4.5501 N   0  0  0  0  0  0  0  0  0  0  0  0
   -6.5307    2.6250    3.8982 C   0  0  0  0  0  0  0  0  0  0  0  0
   -6.1378    3.7326    4.5592 C   0  0  0  0  0  0  0  0  0  0  0  0
   -5.8226    3.6571    5.8591 C   0  0  0  0  0  0  0  0  0  0  0  0
   -5.4384    4.7476    6.5214 N   0  0  0  0  0  0  0  0  0  0  0  0
   -5.9391    2.4962    6.4955 N   0  0  0  0  0  0  0  0  0  0  0  0
   -6.8241    2.6820    2.5884 C   0  0  0  0  0  0  0  0  0  0  0  0
   -6.8475    3.8992    1.9638 C   0  0  0  0  0  0  0  0  0  0  0  0
   -7.8718    4.1324    1.0152 O   0  0  0  0  0  0  0  0  0  0  0  0
   -6.2723    4.9448    2.5803 C   0  0  0  0  0  0  0  0  0  0  0  0
   -5.8591    6.0708    1.8190 O   0  0  0  0  0  0  0  0  0  0  0  0
   -6.0153    4.8945    3.9020 C   0  0  0  0  0  0  0  0  0  0  0  0
   -6.4922    0.2646    6.4782 N   0  0  0  0  0  0  0  0  0  0  0  0
   -5.8965   -0.7950    5.9227 C   0  0  0  0  0  0  0  0  0  0  0  0
   -6.7436   -1.3289    4.7776 C   0  0  0  0  0  0  0  0  0  0  0  0
   -7.9755   -1.7231    5.2573 N   0  0  0  0  0  0  0  0  0  0  0  0
   -8.5829   -0.6052    5.7861 C   0  0  0  0  0  0  0  0  0  0  0  0
   -7.7412   -0.0722    6.9336 C   0  0  0  0  0  0  0  0  0  0  0  0
   -7.4731    3.5639   -0.2058 C   0  0  0  0  0  0  0  0  0  0  0  0
   -4.5829    5.8155    1.2933 C   0  0  0  0  0  0  0  0  0  0  0  0
  1 14  1  0  0  0  0
  1  2  2  0  0  0  0
  3  2  1  0  0  0  0
  3  8  2  0  0  0  0
  4  3  1  0  0  0  0
  5  7  2  0  0  0  0
  5  4  1  0  0  0  0
  6  5  1  0  0  0  0
  7  1  1  0  0  0  0
  9 10  1  0  0  0  0
  9  8  1  0  0  0  0
 11  9  2  0  0  0  0
 12 11  1  0  0  0  0
 13  4  2  0  0  0  0
 13 11  1  0  0  0  0
 14 15  1  0  0  0  0
 16 15  1  0  0  0  0
 17 16  1  0  0  0  0
 18 17  1  0  0  0  0
 18 19  1  0  0  0  0
 19 14  1  0  0  0  0
 20 10  1  0  0  0  0
 21 12  1  0  0  0  0
M  END
>  <CHROM.1>
52.29835361,-82.32636684,-84.19709844,-6.58295410,2.47712286,4.15183347,-1.87382274
-1.11349795,-0.93604012

>  <Name>
lig.pdb

>  <RI>
1.4775e+07

>  <Rbt.Current_Directory>
/home/itssahil/PROJECTS/Mol_Feturizer/New_Systems/rnas/2lwk

>  <Rbt.Executable>
rbdock ($Id: //depot/dev/client3/rdock/2013.1/src/exe/rbdock.cxx#4 $)

>  <Rbt.Library>
libRbt.so (2013.1, Build901 2013/11/27)

>  <Rbt.Parameter_File>
/export/apps/rDock/src/rDock_2013.1_src/data/scripts/dock_solv.prm

>  <Rbt.Receptor>
prm/pocket_docking_4.prm

>  <SCORE>
-19.3809

>  <SCORE.INTER>
-14.4133

>  <SCORE.INTER.CONST>
1

>  <SCORE.INTER.POLAR>
-1.46406

>  <SCORE.INTER.ROT>
3

>  <SCORE.INTER.SOLV>
6.50028

>  <SCORE.INTER.VDW>
-12.4954

>  <SCORE.INTER.norm>
-0.686349

>  <SCORE.INTRA>
-4.96755

>  <SCORE.INTRA.DIHEDRAL>
0.496938

>  <SCORE.INTRA.DIHEDRAL.0>
8.84257

>  <SCORE.INTRA.POLAR>
0

>  <SCORE.INTRA.POLAR.0>
0

>  <SCORE.INTRA.REPUL>
0

>  <SCORE.INTRA.REPUL.0>
0

>  <SCORE.INTRA.SOLV>
0.0779491

>  <SCORE.INTRA.SOLV.lig_0>
-17.1313

>  <SCORE.INTRA.VDW>
-5.25499

>  <SCORE.INTRA.VDW.0>
6.34071

>  <SCORE.INTRA.norm>
-0.23655

>  <SCORE.RESTR>
0

>  <SCORE.RESTR.CAVITY>
0

>  <SCORE.RESTR.norm>
0

>  <SCORE.SYSTEM>
0

>  <SCORE.SYSTEM.CONST>
0

>  <SCORE.SYSTEM.DIHEDRAL>
0

>  <SCORE.SYSTEM.SOLV>
0

>  <SCORE.SYSTEM.norm>
0

>  <SCORE.heavy>
21

>  <SCORE.norm>
-0.922899

>  <RMSD>
6.727

$$$$
lig.pdb
 OpenBabel11021811453D
libRbt.so/2013.1/901 2013/11/27
 21 23  0  0  0  0  0  0  0  0999 V2000
  -12.2947   -1.2584    6.8979 C   0  0  0  0  0  0  0  0  0  0  0  0
  -12.2443   -2.2348    5.9988 N   0  0  0  0  0  0  0  0  0  0  0  0
  -13.1387   -3.2063    6.0283 C   0  0  0  0  0  0  0  0  0  0  0  0
  -14.0593   -3.2424    7.0129 C   0  0  0  0  0  0  0  0  0  0  0  0
  -14.1093   -2.2538    7.9158 C   0  0  0  0  0  0  0  0  0  0  0  0
  -15.0124   -2.2839    8.8952 N   0  0  0  0  0  0  0  0  0  0  0  0
  -13.2229   -1.2654    7.8555 N   0  0  0  0  0  0  0  0  0  0  0  0
  -13.0951   -4.1777    5.1013 C   0  0  0  0  0  0  0  0  0  0  0  0
  -13.9070   -5.2699    5.2427 C   0  0  0  0  0  0  0  0  0  0  0  0
  -13.3676   -6.5374    4.9176 O   0  0  0  0  0  0  0  0  0  0  0  0
  -14.9348   -5.1945    6.1042 C   0  0  0  0  0  0  0  0  0  0  0  0
  -16.0429   -6.0713    5.9566 O   0  0  0  0  0  0  0  0  0  0  0  0
  -14.9532   -4.2403    7.0554 C   0  0  0  0  0  0  0  0  0  0  0  0
  -11.4045   -0.2825    6.8489 N   0  0  0  0  0  0  0  0  0  0  0  0
  -11.2308    0.3055    5.6613 C   0  0  0  0  0  0  0  0  0  0  0  0
  -10.3424   -0.5566    4.7774 C   0  0  0  0  0  0  0  0  0  0  0  0
   -9.1073   -0.7110    5.3722 N   0  0  0  0  0  0  0  0  0  0  0  0
   -9.3116   -1.3550    6.5730 C   0  0  0  0  0  0  0  0  0  0  0  0
  -10.1951   -0.4939    7.4602 C   0  0  0  0  0  0  0  0  0  0  0  0
  -13.4906   -6.7208    3.5304 C   0  0  0  0  0  0  0  0  0  0  0  0
  -16.7731   -5.6874    4.8210 C   0  0  0  0  0  0  0  0  0  0  0  0
  1 14  1  0  0  0  0
  1  2  2  0  0  0  0
  3  2  1  0  0  0  0
  3  8  2  0  0  0  0
  4  3  1  0  0  0  0
  5  7  2  0  0  0  0
  5  4  1  0  0  0  0
  6  5  1  0  0  0  0
  7  1  1  0  0  0  0
  9 10  1  0  0  0  0
  9  8  1  0  0  0  0
 11  9  2  0  0  0  0
 12 11  1  0  0  0  0
 13  4  2  0  0  0  0
 13 11  1  0  0  0  0
 14 15  1  0  0  0  0
 16 15  1  0  0  0  0
 17 16  1  0  0  0  0
 18 17  1  0  0  0  0
 18 19  1  0  0  0  0
 19 14  1  0  0  0  0
 20 10  1  0  0  0  0
 21 12  1  0  0  0  0
M  END
>  <CHROM.1>
49.90411793,-83.84738076,-71.23928462,-12.96393043,-3.01429265,6.17207672
0.71539298,0.52348546,0.70122607

>  <Name>
lig.pdb

>  <RI>
2.75338e+07

>  <Rbt.Current_Directory>
/home/itssahil/PROJECTS/Mol_Feturizer/New_Systems/rnas/2lwk

>  <Rbt.Executable>
rbdock ($Id: //depot/dev/client3/rdock/2013.1/src/exe/rbdock.cxx#4 $)

>  <Rbt.Library>
libRbt.so (2013.1, Build901 2013/11/27)

>  <Rbt.Parameter_File>
/export/apps/rDock/src/rDock_2013.1_src/data/scripts/dock_solv.prm

>  <Rbt.Receptor>
prm/pocket_docking_8.prm

>  <SCORE>
-21.2005

>  <SCORE.INTER>
-16.3555

>  <SCORE.INTER.CONST>
1

>  <SCORE.INTER.POLAR>
-0.745607

>  <SCORE.INTER.ROT>
3

>  <SCORE.INTER.SOLV>
10.3759

>  <SCORE.INTER.VDW>
-17.4769

>  <SCORE.INTER.norm>
-0.778834

>  <SCORE.INTRA>
-4.84495

>  <SCORE.INTRA.DIHEDRAL>
0.191258

>  <SCORE.INTRA.DIHEDRAL.0>
8.84257

>  <SCORE.INTRA.POLAR>
0

>  <SCORE.INTRA.POLAR.0>
0

>  <SCORE.INTRA.REPUL>
0

>  <SCORE.INTRA.REPUL.0>
0

>  <SCORE.INTRA.SOLV>
0.0871424

>  <SCORE.INTRA.SOLV.lig_0>
-17.1313

>  <SCORE.INTRA.VDW>
-4.98415

>  <SCORE.INTRA.VDW.0>
6.34071

>  <SCORE.INTRA.norm>
-0.230712

>  <SCORE.RESTR>
0

>  <SCORE.RESTR.CAVITY>
0

>  <SCORE.RESTR.norm>
0

>  <SCORE.SYSTEM>
0

>  <SCORE.SYSTEM.CONST>
0

>  <SCORE.SYSTEM.DIHEDRAL>
0

>  <SCORE.SYSTEM.SOLV>
0

>  <SCORE.SYSTEM.norm>
0

>  <SCORE.heavy>
21

>  <SCORE.norm>
-1.00955

>  <RMSD>
6.755

$$$$
lig.pdb
 OpenBabel11021811453D
libRbt.so/2013.1/901 2013/11/27
 21 23  0  0  0  0  0  0  0  0999 V2000
   -6.0496    6.1831    2.4471 C   0  0  0  0  0  0  0  0  0  0  0  0
   -6.7355    5.0569    2.6066 N   0  0  0  0  0  0  0  0  0  0  0  0
   -6.3921    4.2034    3.5545 C   0  0  0  0  0  0  0  0  0  0  0  0
   -5.3038    4.4441    4.3134 C   0  0  0  0  0  0  0  0  0  0  0  0
   -4.6167    5.5828    4.1520 C   0  0  0  0  0  0  0  0  0  0  0  0
   -3.5370    5.8265    4.8939 N   0  0  0  0  0  0  0  0  0  0  0  0
   -4.9921    6.4479    3.2155 N   0  0  0  0  0  0  0  0  0  0  0  0
   -7.1053    3.0777    3.7247 C   0  0  0  0  0  0  0  0  0  0  0  0
   -6.6407    2.1186    4.5830 C   0  0  0  0  0  0  0  0  0  0  0  0
   -6.7785    0.7648    4.1939 O   0  0  0  0  0  0  0  0  0  0  0  0
   -5.6793    2.4562    5.4582 C   0  0  0  0  0  0  0  0  0  0  0  0
   -5.4976    1.6842    6.6368 O   0  0  0  0  0  0  0  0  0  0  0  0
   -4.9429    3.5672    5.2607 C   0  0  0  0  0  0  0  0  0  0  0  0
   -6.4120    7.0377    1.5060 N   0  0  0  0  0  0  0  0  0  0  0  0
   -6.1037    6.7045    0.2490 C   0  0  0  0  0  0  0  0  0  0  0  0
   -4.6399    7.0119   -0.0281 C   0  0  0  0  0  0  0  0  0  0  0  0
   -4.4116    8.3628    0.1333 N   0  0  0  0  0  0  0  0  0  0  0  0
   -4.6975    8.6697    1.4457 C   0  0  0  0  0  0  0  0  0  0  0  0
   -6.1606    8.3681    1.7244 C   0  0  0  0  0  0  0  0  0  0  0  0
   -5.6684    0.4229    3.4039 C   0  0  0  0  0  0  0  0  0  0  0  0
   -6.3610    2.1700    7.6313 C   0  0  0  0  0  0  0  0  0  0  0  0
  1 14  1  0  0  0  0
  1  2  2  0  0  0  0
  3  2  1  0  0  0  0
  3  8  2  0  0  0  0
  4  3  1  0  0  0  0
  5  7  2  0  0  0  0
  5  4  1  0  0  0  0
  6  5  1  0  0  0  0
  7  1  1  0  0  0  0
  9 10  1  0  0  0  0
  9  8  1  0  0  0  0
 11  9  2  0  0  0  0
 12 11  1  0  0  0  0
 13  4  2  0  0  0  0
 13 11  1  0  0  0  0
 14 15  1  0  0  0  0
 16 15  1  0  0  0  0
 17 16  1  0  0  0  0
 18 17  1  0  0  0  0
 18 19  1  0  0  0  0
 19 14  1  0  0  0  0
 20 10  1  0  0  0  0
 21 12  1  0  0  0  0
M  END
>  <CHROM.1>
-75.25538619,86.03716003,-86.46640522,-5.63421255,4.75454704,3.39053168,1.35159040
-1.06086699,-0.83467373

>  <Name>
lig.pdb

>  <RI>
2.20372e+07

>  <Rbt.Current_Directory>
/home/itssahil/PROJECTS/Mol_Feturizer/New_Systems/rnas/2lwk

>  <Rbt.Executable>
rbdock ($Id: //depot/dev/client3/rdock/2013.1/src/exe/rbdock.cxx#4 $)

>  <Rbt.Library>
libRbt.so (2013.1, Build901 2013/11/27)

>  <Rbt.Parameter_File>
/export/apps/rDock/src/rDock_2013.1_src/data/scripts/dock_solv.prm

>  <Rbt.Receptor>
prm/pocket_docking_7.prm

>  <SCORE>
-19.6888

>  <SCORE.INTER>
-16.1998

>  <SCORE.INTER.CONST>
1

>  <SCORE.INTER.POLAR>
-2.02124

>  <SCORE.INTER.ROT>
3

>  <SCORE.INTER.SOLV>
6.53319

>  <SCORE.INTER.VDW>
-11.8401

>  <SCORE.INTER.norm>
-0.771418

>  <SCORE.INTRA>
-3.49164

>  <SCORE.INTRA.DIHEDRAL>
0.932646

>  <SCORE.INTRA.DIHEDRAL.0>
8.84257

>  <SCORE.INTRA.POLAR>
0

>  <SCORE.INTRA.POLAR.0>
0

>  <SCORE.INTRA.REPUL>
0

>  <SCORE.INTRA.REPUL.0>
0

>  <SCORE.INTRA.SOLV>
0.0395655

>  <SCORE.INTRA.SOLV.lig_0>
-17.1313

>  <SCORE.INTRA.VDW>
-3.97775

>  <SCORE.INTRA.VDW.0>
6.34071

>  <SCORE.INTRA.norm>
-0.166269

>  <SCORE.RESTR>
0.00265912

>  <SCORE.RESTR.CAVITY>
0.00265912

>  <SCORE.RESTR.norm>
0.000126625

>  <SCORE.SYSTEM>
0

>  <SCORE.SYSTEM.CONST>
0

>  <SCORE.SYSTEM.DIHEDRAL>
0

>  <SCORE.SYSTEM.SOLV>
0

>  <SCORE.SYSTEM.norm>
0

>  <SCORE.heavy>
21

>  <SCORE.norm>
-0.93756

>  <RMSD>
6.793

$$$$
lig.pdb
 OpenBabel11021811453D
libRbt.so/2013.1/901 2013/11/27
 21 23  0  0  0  0  0  0  0  0999 V2000
   -5.9572    6.1735    1.2483 C   0  0  0  0  0  0  0  0  0  0  0  0
   -5.5186    5.9434    2.4807 N   0  0  0  0  0  0  0  0  0  0  0  0
   -5.9421    4.8831    3.1451 C   0  0  0  0  0  0  0  0  0  0  0  0
   -6.8716    4.0742    2.5974 C   0  0  0  0  0  0  0  0  0  0  0  0
   -7.3088    4.3074    1.3527 C   0  0  0  0  0  0  0  0  0  0  0  0
   -8.2309    3.5163    0.8056 N   0  0  0  0  0  0  0  0  0  0  0  0
   -6.8505    5.3601    0.6833 N   0  0  0  0  0  0  0  0  0  0  0  0
   -5.4759    4.6446    4.3822 C   0  0  0  0  0  0  0  0  0  0  0  0
   -6.0490    3.6522    5.1298 C   0  0  0  0  0  0  0  0  0  0  0  0
   -6.2465    3.8983    6.5095 O   0  0  0  0  0  0  0  0  0  0  0  0
   -6.8225    2.7484    4.5061 C   0  0  0  0  0  0  0  0  0  0  0  0
   -7.0485    1.4810    5.1068 O   0  0  0  0  0  0  0  0  0  0  0  0
   -7.3174    3.0106    3.2806 C   0  0  0  0  0  0  0  0  0  0  0  0
   -5.5142    7.2285    0.5866 N   0  0  0  0  0  0  0  0  0  0  0  0
   -4.1873    7.3565    0.4902 C   0  0  0  0  0  0  0  0  0  0  0  0
   -3.6226    7.9238    1.7837 C   0  0  0  0  0  0  0  0  0  0  0  0
   -4.1649    9.1704    2.0184 N   0  0  0  0  0  0  0  0  0  0  0  0
   -5.5258    9.0032    2.1541 C   0  0  0  0  0  0  0  0  0  0  0  0
   -6.0936    8.4408    0.8616 C   0  0  0  0  0  0  0  0  0  0  0  0
   -5.1245    3.4162    7.2035 C   0  0  0  0  0  0  0  0  0  0  0  0
   -5.9554    0.6470    4.8241 C   0  0  0  0  0  0  0  0  0  0  0  0
  1 14  1  0  0  0  0
  1  2  2  0  0  0  0
  3  2  1  0  0  0  0
  3  8  2  0  0  0  0
  4  3  1  0  0  0  0
  5  7  2  0  0  0  0
  5  4  1  0  0  0  0
  6  5  1  0  0  0  0
  7  1  1  0  0  0  0
  9 10  1  0  0  0  0
  9  8  1  0  0  0  0
 11  9  2  0  0  0  0
 12 11  1  0  0  0  0
 13  4  2  0  0  0  0
 13 11  1  0  0  0  0
 14 15  1  0  0  0  0
 16 15  1  0  0  0  0
 17 16  1  0  0  0  0
 18 17  1  0  0  0  0
 18 19  1  0  0  0  0
 19 14  1  0  0  0  0
 20 10  1  0  0  0  0
 21 12  1  0  0  0  0
M  END
>  <CHROM.1>
53.52262004,-92.72351967,-82.01210963,-5.98431227,5.08047931,2.94248520,1.22595024
-0.96201988,-0.90928467

>  <Name>
lig.pdb

>  <RI>
2.20372e+07

>  <Rbt.Current_Directory>
/home/itssahil/PROJECTS/Mol_Feturizer/New_Systems/rnas/2lwk

>  <Rbt.Executable>
rbdock ($Id: //depot/dev/client3/rdock/2013.1/src/exe/rbdock.cxx#4 $)

>  <Rbt.Library>
libRbt.so (2013.1, Build901 2013/11/27)

>  <Rbt.Parameter_File>
/export/apps/rDock/src/rDock_2013.1_src/data/scripts/dock_solv.prm

>  <Rbt.Receptor>
prm/pocket_docking_7.prm

>  <SCORE>
-30.1703

>  <SCORE.INTER>
-25.3759

>  <SCORE.INTER.CONST>
1

>  <SCORE.INTER.POLAR>
-3.57364

>  <SCORE.INTER.ROT>
3

>  <SCORE.INTER.SOLV>
7.67443

>  <SCORE.INTER.VDW>
-13.1633

>  <SCORE.INTER.norm>
-1.20837

>  <SCORE.INTRA>
-5.12922

>  <SCORE.INTRA.DIHEDRAL>
0.852154

>  <SCORE.INTRA.DIHEDRAL.0>
8.84257

>  <SCORE.INTRA.POLAR>
0

>  <SCORE.INTRA.POLAR.0>
0

>  <SCORE.INTRA.REPUL>
0

>  <SCORE.INTRA.REPUL.0>
0

>  <SCORE.INTRA.SOLV>
0.0896028

>  <SCORE.INTRA.SOLV.lig_0>
-17.1313

>  <SCORE.INTRA.VDW>
-5.6001

>  <SCORE.INTRA.VDW.0>
6.34071

>  <SCORE.INTRA.norm>
-0.244249

>  <SCORE.RESTR>
0.334814

>  <SCORE.RESTR.CAVITY>
0.334814

>  <SCORE.RESTR.norm>
0.0159435

>  <SCORE.SYSTEM>
0

>  <SCORE.SYSTEM.CONST>
0

>  <SCORE.SYSTEM.DIHEDRAL>
0

>  <SCORE.SYSTEM.SOLV>
0

>  <SCORE.SYSTEM.norm>
0

>  <SCORE.heavy>
21

>  <SCORE.norm>
-1.43668

>  <RMSD>
6.799

$$$$
lig.pdb
 OpenBabel11021811453D
libRbt.so/2013.1/901 2013/11/27
 21 23  0  0  0  0  0  0  0  0999 V2000
   -7.5996   -0.0604    5.8000 C   0  0  0  0  0  0  0  0  0  0  0  0
   -7.5271    1.0131    5.0210 N   0  0  0  0  0  0  0  0  0  0  0  0
   -6.5621    1.8966    5.2026 C   0  0  0  0  0  0  0  0  0  0  0  0
   -5.6935    1.7429    6.2224 C   0  0  0  0  0  0  0  0  0  0  0  0
   -5.7675    0.6571    7.0037 C   0  0  0  0  0  0  0  0  0  0  0  0
   -4.9166    0.4996    8.0169 N   0  0  0  0  0  0  0  0  0  0  0  0
   -6.7242   -0.2403    6.7900 N   0  0  0  0  0  0  0  0  0  0  0  0
   -6.4819    2.9676    4.3956 C   0  0  0  0  0  0  0  0  0  0  0  0
   -5.5954    3.9648    4.6988 C   0  0  0  0  0  0  0  0  0  0  0  0
   -6.0166    5.3018    4.5030 O   0  0  0  0  0  0  0  0  0  0  0  0
   -4.6223    3.7059    5.5879 C   0  0  0  0  0  0  0  0  0  0  0  0
   -3.4430    4.4980    5.5915 O   0  0  0  0  0  0  0  0  0  0  0  0
   -4.7277    2.6512    6.4198 C   0  0  0  0  0  0  0  0  0  0  0  0
   -8.5597   -0.9464    5.5988 N   0  0  0  0  0  0  0  0  0  0  0  0
   -9.0267   -1.0446    4.3505 C   0  0  0  0  0  0  0  0  0  0  0  0
  -10.0041    0.0864    4.0686 C   0  0  0  0  0  0  0  0  0  0  0  0
  -11.0700    0.0056    4.9406 N   0  0  0  0  0  0  0  0  0  0  0  0
  -10.5656    0.1507    6.2145 C   0  0  0  0  0  0  0  0  0  0  0  0
   -9.5923   -0.9806    6.5007 C   0  0  0  0  0  0  0  0  0  0  0  0
   -5.9056    5.5979    3.1344 C   0  0  0  0  0  0  0  0  0  0  0  0
   -2.5992    4.0545    4.5611 C   0  0  0  0  0  0  0  0  0  0  0  0
  1 14  1  0  0  0  0
  1  2  2  0  0  0  0
  3  2  1  0  0  0  0
  3  8  2  0  0  0  0
  4  3  1  0  0  0  0
  5  7  2  0  0  0  0
  5  4  1  0  0  0  0
  6  5  1  0  0  0  0
  7  1  1  0  0  0  0
  9 10  1  0  0  0  0
  9  8  1  0  0  0  0
 11  9  2  0  0  0  0
 12 11  1  0  0  0  0
 13  4  2  0  0  0  0
 13 11  1  0  0  0  0
 14 15  1  0  0  0  0
 16 15  1  0  0  0  0
 17 16  1  0  0  0  0
 18 17  1  0  0  0  0
 18 19  1  0  0  0  0
 19 14  1  0  0  0  0
 20 10  1  0  0  0  0
 21 12  1  0  0  0  0
M  END
>  <CHROM.1>
27.98002846,-79.35445824,-79.59156237,-6.80824748,1.72051340,5.44733017,-2.50723144
-0.42835840,-0.62691548

>  <Name>
lig.pdb

>  <RI>
1.4775e+07

>  <Rbt.Current_Directory>
/home/itssahil/PROJECTS/Mol_Feturizer/New_Systems/rnas/2lwk

>  <Rbt.Executable>
rbdock ($Id: //depot/dev/client3/rdock/2013.1/src/exe/rbdock.cxx#4 $)

>  <Rbt.Library>
libRbt.so (2013.1, Build901 2013/11/27)

>  <Rbt.Parameter_File>
/export/apps/rDock/src/rDock_2013.1_src/data/scripts/dock_solv.prm

>  <Rbt.Receptor>
prm/pocket_docking_4.prm

>  <SCORE>
-20.6863

>  <SCORE.INTER>
-16.7039

>  <SCORE.INTER.CONST>
1

>  <SCORE.INTER.POLAR>
-2.33244

>  <SCORE.INTER.ROT>
3

>  <SCORE.INTER.SOLV>
6.27863

>  <SCORE.INTER.VDW>
-11.054

>  <SCORE.INTER.norm>
-0.795425

>  <SCORE.INTRA>
-3.98275

>  <SCORE.INTRA.DIHEDRAL>
0.26292

>  <SCORE.INTRA.DIHEDRAL.0>
8.84257

>  <SCORE.INTRA.POLAR>
0

>  <SCORE.INTRA.POLAR.0>
0

>  <SCORE.INTRA.REPUL>
0

>  <SCORE.INTRA.REPUL.0>
0

>  <SCORE.INTRA.SOLV>
0.0514741

>  <SCORE.INTRA.SOLV.lig_0>
-17.1313

>  <SCORE.INTRA.VDW>
-4.13994

>  <SCORE.INTRA.VDW.0>
6.34071

>  <SCORE.INTRA.norm>
-0.189655

>  <SCORE.RESTR>
0.000368743

>  <SCORE.RESTR.CAVITY>
0.000368743

>  <SCORE.RESTR.norm>
1.75592e-05

>  <SCORE.SYSTEM>
0

>  <SCORE.SYSTEM.CONST>
0

>  <SCORE.SYSTEM.DIHEDRAL>
0

>  <SCORE.SYSTEM.SOLV>
0

>  <SCORE.SYSTEM.norm>
0

>  <SCORE.heavy>
21

>  <SCORE.norm>
-0.985062

>  <RMSD>
6.806

$$$$
lig.pdb
 OpenBabel11021811453D
libRbt.so/2013.1/901 2013/11/27
 21 23  0  0  0  0  0  0  0  0999 V2000
   -8.3965    0.3951    4.4900 C   0  0  0  0  0  0  0  0  0  0  0  0
   -8.1756    1.5969    3.9694 N   0  0  0  0  0  0  0  0  0  0  0  0
   -7.0385    2.2233    4.2136 C   0  0  0  0  0  0  0  0  0  0  0  0
   -6.1331    1.6718    5.0469 C   0  0  0  0  0  0  0  0  0  0  0  0
   -6.3579    0.4579    5.5671 C   0  0  0  0  0  0  0  0  0  0  0  0
   -5.4711   -0.0925    6.3955 N   0  0  0  0  0  0  0  0  0  0  0  0
   -7.4926   -0.1752    5.2877 N   0  0  0  0  0  0  0  0  0  0  0  0
   -6.8128    3.4283    3.6644 C   0  0  0  0  0  0  0  0  0  0  0  0
   -5.7184    4.1469    4.0621 C   0  0  0  0  0  0  0  0  0  0  0  0
   -5.8736    5.5436    4.2297 O   0  0  0  0  0  0  0  0  0  0  0  0
   -4.7442    3.5089    4.7315 C   0  0  0  0  0  0  0  0  0  0  0  0
   -3.4325    4.0539    4.7546 O   0  0  0  0  0  0  0  0  0  0  0  0
   -4.9888    2.3176    5.3118 C   0  0  0  0  0  0  0  0  0  0  0  0
   -9.5311   -0.2296    4.2257 N   0  0  0  0  0  0  0  0  0  0  0  0
  -10.5193   -0.0684    5.1109 C   0  0  0  0  0  0  0  0  0  0  0  0
  -10.2952   -0.9727    6.3134 C   0  0  0  0  0  0  0  0  0  0  0  0
  -10.2853   -2.2908    5.9063 N   0  0  0  0  0  0  0  0  0  0  0  0
   -9.2339   -2.4374    5.0280 C   0  0  0  0  0  0  0  0  0  0  0  0
   -9.4573   -1.5386    3.8233 C   0  0  0  0  0  0  0  0  0  0  0  0
   -5.7191    6.1535    2.9738 C   0  0  0  0  0  0  0  0  0  0  0  0
   -3.0670    4.2923    6.0888 C   0  0  0  0  0  0  0  0  0  0  0  0
  1 14  1  0  0  0  0
  1  2  2  0  0  0  0
  3  2  1  0  0  0  0
  3  8  2  0  0  0  0
  4  3  1  0  0  0  0
  5  7  2  0  0  0  0
  5  4  1  0  0  0  0
  6  5  1  0  0  0  0
  7  1  1  0  0  0  0
  9 10  1  0  0  0  0
  9  8  1  0  0  0  0
 11  9  2  0  0  0  0
 12 11  1  0  0  0  0
 13  4  2  0  0  0  0
 13 11  1  0  0  0  0
 14 15  1  0  0  0  0
 16 15  1  0  0  0  0
 17 16  1  0  0  0  0
 18 17  1  0  0  0  0
 18 19  1  0  0  0  0
 19 14  1  0  0  0  0
 20 10  1  0  0  0  0
 21 12  1  0  0  0  0
M  END
>  <CHROM.1>
-93.99873162,-83.98132708,120.92705522,-7.06829313,1.53442093,4.83625398
2.34003059,0.39169571,2.67389648

>  <Name>
lig.pdb

>  <RI>
2.98315e+07

>  <Rbt.Current_Directory>
/home/itssahil/PROJECTS/Mol_Feturizer/New_Systems/rnas/2lwk

>  <Rbt.Executable>
rbdock ($Id: //depot/dev/client3/rdock/2013.1/src/exe/rbdock.cxx#4 $)

>  <Rbt.Library>
libRbt.so (2013.1, Build901 2013/11/27)

>  <Rbt.Parameter_File>
/export/apps/rDock/src/rDock_2013.1_src/data/scripts/dock_solv.prm

>  <Rbt.Receptor>
prm/pocket_docking_5.prm

>  <SCORE>
-12.7768

>  <SCORE.INTER>
-8.21814

>  <SCORE.INTER.CONST>
1

>  <SCORE.INTER.POLAR>
-0.786012

>  <SCORE.INTER.ROT>
3

>  <SCORE.INTER.SOLV>
6.11527

>  <SCORE.INTER.VDW>
-10.4971

>  <SCORE.INTER.norm>
-0.39134

>  <SCORE.INTRA>
-4.55863

>  <SCORE.INTRA.DIHEDRAL>
-0.525417

>  <SCORE.INTRA.DIHEDRAL.0>
8.84257

>  <SCORE.INTRA.POLAR>
0

>  <SCORE.INTRA.POLAR.0>
0

>  <SCORE.INTRA.REPUL>
0

>  <SCORE.INTRA.REPUL.0>
0

>  <SCORE.INTRA.SOLV>
0.0943108

>  <SCORE.INTRA.SOLV.lig_0>
-17.1313

>  <SCORE.INTRA.VDW>
-4.34308

>  <SCORE.INTRA.VDW.0>
6.34071

>  <SCORE.INTRA.norm>
-0.217078

>  <SCORE.RESTR>
0

>  <SCORE.RESTR.CAVITY>
0

>  <SCORE.RESTR.norm>
0

>  <SCORE.SYSTEM>
0

>  <SCORE.SYSTEM.CONST>
0

>  <SCORE.SYSTEM.DIHEDRAL>
0

>  <SCORE.SYSTEM.SOLV>
0

>  <SCORE.SYSTEM.norm>
0

>  <SCORE.heavy>
21

>  <SCORE.norm>
-0.608418

>  <RMSD>
6.809

$$$$
lig.pdb
 OpenBabel11021811453D
libRbt.so/2013.1/901 2013/11/27
 21 23  0  0  0  0  0  0  0  0999 V2000
  -12.4564   -1.3192    6.9441 C   0  0  0  0  0  0  0  0  0  0  0  0
  -12.3138   -2.2614    6.0188 N   0  0  0  0  0  0  0  0  0  0  0  0
  -13.1582   -3.2762    5.9742 C   0  0  0  0  0  0  0  0  0  0  0  0
  -14.1215   -3.3904    6.9108 C   0  0  0  0  0  0  0  0  0  0  0  0
  -14.2645   -2.4362    7.8403 C   0  0  0  0  0  0  0  0  0  0  0  0
  -15.2103   -2.5434    8.7728 N   0  0  0  0  0  0  0  0  0  0  0  0
  -13.4275   -1.4040    7.8543 N   0  0  0  0  0  0  0  0  0  0  0  0
  -13.0214   -4.2127    5.0208 C   0  0  0  0  0  0  0  0  0  0  0  0
  -13.7827   -5.3477    5.0882 C   0  0  0  0  0  0  0  0  0  0  0  0
  -13.1648   -6.5755    4.7508 O   0  0  0  0  0  0  0  0  0  0  0  0
  -14.8528   -5.3518    5.9001 C   0  0  0  0  0  0  0  0  0  0  0  0
  -15.9066   -6.2765    5.6712 O   0  0  0  0  0  0  0  0  0  0  0  0
  -14.9646   -4.4319    6.8783 C   0  0  0  0  0  0  0  0  0  0  0  0
  -11.6155   -0.2997    6.9692 N   0  0  0  0  0  0  0  0  0  0  0  0
  -11.2869    0.2299    5.7869 C   0  0  0  0  0  0  0  0  0  0  0  0
  -10.2330   -0.6295    5.1052 C   0  0  0  0  0  0  0  0  0  0  0  0
   -9.0995   -0.6816    5.8896 N   0  0  0  0  0  0  0  0  0  0  0  0
   -9.4578   -1.2680    7.0839 C   0  0  0  0  0  0  0  0  0  0  0  0
  -10.5072   -0.4092    7.7696 C   0  0  0  0  0  0  0  0  0  0  0  0
  -13.4327   -6.8412    3.3978 C   0  0  0  0  0  0  0  0  0  0  0  0
  -16.7783   -5.7378    4.7119 C   0  0  0  0  0  0  0  0  0  0  0  0
  1 14  1  0  0  0  0
  1  2  2  0  0  0  0
  3  2  1  0  0  0  0
  3  8  2  0  0  0  0
  4  3  1  0  0  0  0
  5  7  2  0  0  0  0
  5  4  1  0  0  0  0
  6  5  1  0  0  0  0
  7  1  1  0  0  0  0
  9 10  1  0  0  0  0
  9  8  1  0  0  0  0
 11  9  2  0  0  0  0
 12 11  1  0  0  0  0
 13  4  2  0  0  0  0
 13 11  1  0  0  0  0
 14 15  1  0  0  0  0
 16 15  1  0  0  0  0
 17 16  1  0  0  0  0
 18 17  1  0  0  0  0
 18 19  1  0  0  0  0
 19 14  1  0  0  0  0
 20 10  1  0  0  0  0
 21 12  1  0  0  0  0
M  END
>  <CHROM.1>
41.84692103,-94.85299736,-84.51912118,-13.00154933,-3.09635873,6.18895222
0.79427568,0.48146146,0.69077686

>  <Name>
lig.pdb

>  <RI>
2.75338e+07

>  <Rbt.Current_Directory>
/home/itssahil/PROJECTS/Mol_Feturizer/New_Systems/rnas/2lwk

>  <Rbt.Executable>
rbdock ($Id: //depot/dev/client3/rdock/2013.1/src/exe/rbdock.cxx#4 $)

>  <Rbt.Library>
libRbt.so (2013.1, Build901 2013/11/27)

>  <Rbt.Parameter_File>
/export/apps/rDock/src/rDock_2013.1_src/data/scripts/dock_solv.prm

>  <Rbt.Receptor>
prm/pocket_docking_8.prm

>  <SCORE>
-20.9242

>  <SCORE.INTER>
-16.1987

>  <SCORE.INTER.CONST>
1

>  <SCORE.INTER.POLAR>
-0.637349

>  <SCORE.INTER.ROT>
3

>  <SCORE.INTER.SOLV>
10.019

>  <SCORE.INTER.VDW>
-17.6143

>  <SCORE.INTER.norm>
-0.771369

>  <SCORE.INTRA>
-4.72542

>  <SCORE.INTRA.DIHEDRAL>
0.936953

>  <SCORE.INTRA.DIHEDRAL.0>
8.84257

>  <SCORE.INTRA.POLAR>
0

>  <SCORE.INTRA.POLAR.0>
0

>  <SCORE.INTRA.REPUL>
0

>  <SCORE.INTRA.REPUL.0>
0

>  <SCORE.INTRA.SOLV>
0.081467

>  <SCORE.INTRA.SOLV.lig_0>
-17.1313

>  <SCORE.INTRA.VDW>
-5.23463

>  <SCORE.INTRA.VDW.0>
6.34071

>  <SCORE.INTRA.norm>
-0.22502

>  <SCORE.RESTR>
0

>  <SCORE.RESTR.CAVITY>
0

>  <SCORE.RESTR.norm>
0

>  <SCORE.SYSTEM>
0

>  <SCORE.SYSTEM.CONST>
0

>  <SCORE.SYSTEM.DIHEDRAL>
0

>  <SCORE.SYSTEM.SOLV>
0

>  <SCORE.SYSTEM.norm>
0

>  <SCORE.heavy>
21

>  <SCORE.norm>
-0.996389

>  <RMSD>
6.825

$$$$
lig.pdb
 OpenBabel11021811453D
libRbt.so/2013.1/901 2013/11/27
 21 23  0  0  0  0  0  0  0  0999 V2000
   -5.9292    6.1942    1.2583 C   0  0  0  0  0  0  0  0  0  0  0  0
   -5.4882    5.9746    2.4918 N   0  0  0  0  0  0  0  0  0  0  0  0
   -5.9069    4.9175    3.1642 C   0  0  0  0  0  0  0  0  0  0  0  0
   -6.8339    4.1011    2.6235 C   0  0  0  0  0  0  0  0  0  0  0  0
   -7.2736    4.3238    1.3778 C   0  0  0  0  0  0  0  0  0  0  0  0
   -8.1933    3.5252    0.8375 N   0  0  0  0  0  0  0  0  0  0  0  0
   -6.8201    5.3734    0.7003 N   0  0  0  0  0  0  0  0  0  0  0  0
   -5.4383    4.6897    4.4025 C   0  0  0  0  0  0  0  0  0  0  0  0
   -6.0066    3.7005    5.1579 C   0  0  0  0  0  0  0  0  0  0  0  0
   -6.2034    3.9557    6.5360 O   0  0  0  0  0  0  0  0  0  0  0  0
   -6.7775    2.7893    4.5416 C   0  0  0  0  0  0  0  0  0  0  0  0
   -6.9979    1.5254    5.1517 O   0  0  0  0  0  0  0  0  0  0  0  0
   -7.2748    3.0408    3.3148 C   0  0  0  0  0  0  0  0  0  0  0  0
   -5.4910    7.2462    0.5885 N   0  0  0  0  0  0  0  0  0  0  0  0
   -4.1647    7.3795    0.4913 C   0  0  0  0  0  0  0  0  0  0  0  0
   -3.6029    7.9595    1.7805 C   0  0  0  0  0  0  0  0  0  0  0  0
   -4.1510    9.2053    2.0054 N   0  0  0  0  0  0  0  0  0  0  0  0
   -5.5111    9.0328    2.1422 C   0  0  0  0  0  0  0  0  0  0  0  0
   -6.0761    8.4578    0.8541 C   0  0  0  0  0  0  0  0  0  0  0  0
   -5.0243    3.6094    7.2164 C   0  0  0  0  0  0  0  0  0  0  0  0
   -6.0587    0.6119    4.6479 C   0  0  0  0  0  0  0  0  0  0  0  0
  1 14  1  0  0  0  0
  1  2  2  0  0  0  0
  3  2  1  0  0  0  0
  3  8  2  0  0  0  0
  4  3  1  0  0  0  0
  5  7  2  0  0  0  0
  5  4  1  0  0  0  0
  6  5  1  0  0  0  0
  7  1  1  0  0  0  0
  9 10  1  0  0  0  0
  9  8  1  0  0  0  0
 11  9  2  0  0  0  0
 12 11  1  0  0  0  0
 13  4  2  0  0  0  0
 13 11  1  0  0  0  0
 14 15  1  0  0  0  0
 16 15  1  0  0  0  0
 17 16  1  0  0  0  0
 18 17  1  0  0  0  0
 18 19  1  0  0  0  0
 19 14  1  0  0  0  0
 20 10  1  0  0  0  0
 21 12  1  0  0  0  0
M  END
>  <CHROM.1>
53.42406405,-86.77129739,-94.39122169,-5.95592928,5.11588908,2.94785066,1.21353258
-0.97379815,-0.91887333

>  <Name>
lig.pdb

>  <RI>
2.20372e+07

>  <Rbt.Current_Directory>
/home/itssahil/PROJECTS/Mol_Feturizer/New_Systems/rnas/2lwk

>  <Rbt.Executable>
rbdock ($Id: //depot/dev/client3/rdock/2013.1/src/exe/rbdock.cxx#4 $)

>  <Rbt.Library>
libRbt.so (2013.1, Build901 2013/11/27)

>  <Rbt.Parameter_File>
/export/apps/rDock/src/rDock_2013.1_src/data/scripts/dock_solv.prm

>  <Rbt.Receptor>
prm/pocket_docking_7.prm

>  <SCORE>
-30.3447

>  <SCORE.INTER>
-25.7186

>  <SCORE.INTER.CONST>
1

>  <SCORE.INTER.POLAR>
-3.58319

>  <SCORE.INTER.ROT>
3

>  <SCORE.INTER.SOLV>
7.65216

>  <SCORE.INTER.VDW>
-13.3525

>  <SCORE.INTER.norm>
-1.22469

>  <SCORE.INTRA>
-4.9952

>  <SCORE.INTRA.DIHEDRAL>
0.655086

>  <SCORE.INTRA.DIHEDRAL.0>
8.84257

>  <SCORE.INTRA.POLAR>
0

>  <SCORE.INTRA.POLAR.0>
0

>  <SCORE.INTRA.REPUL>
0

>  <SCORE.INTRA.REPUL.0>
0

>  <SCORE.INTRA.SOLV>
0.0765782

>  <SCORE.INTRA.SOLV.lig_0>
-17.1313

>  <SCORE.INTRA.VDW>
-5.36103

>  <SCORE.INTRA.VDW.0>
6.34071

>  <SCORE.INTRA.norm>
-0.237867

>  <SCORE.RESTR>
0.369045

>  <SCORE.RESTR.CAVITY>
0.369045

>  <SCORE.RESTR.norm>
0.0175736

>  <SCORE.SYSTEM>
0

>  <SCORE.SYSTEM.CONST>
0

>  <SCORE.SYSTEM.DIHEDRAL>
0

>  <SCORE.SYSTEM.SOLV>
0

>  <SCORE.SYSTEM.norm>
0

>  <SCORE.heavy>
21

>  <SCORE.norm>
-1.44499

>  <RMSD>
6.834

$$$$
lig.pdb
 OpenBabel11021811453D
libRbt.so/2013.1/901 2013/11/27
 21 23  0  0  0  0  0  0  0  0999 V2000
   -6.5140    1.3562    6.1438 C   0  0  0  0  0  0  0  0  0  0  0  0
   -6.6736    1.4060    4.8261 N   0  0  0  0  0  0  0  0  0  0  0  0
   -6.3308    2.4941    4.1602 C   0  0  0  0  0  0  0  0  0  0  0  0
   -5.8843    3.5774    4.8273 C   0  0  0  0  0  0  0  0  0  0  0  0
   -5.7212    3.5222    6.1559 C   0  0  0  0  0  0  0  0  0  0  0  0
   -5.2854    4.5896    6.8240 N   0  0  0  0  0  0  0  0  0  0  0  0
   -6.0401    2.4100    6.8099 N   0  0  0  0  0  0  0  0  0  0  0  0
   -6.4735    2.5280    2.8248 C   0  0  0  0  0  0  0  0  0  0  0  0
   -6.2875    3.7123    2.1652 C   0  0  0  0  0  0  0  0  0  0  0  0
   -7.1699    4.0190    1.1020 O   0  0  0  0  0  0  0  0  0  0  0  0
   -5.6634    4.7116    2.8103 C   0  0  0  0  0  0  0  0  0  0  0  0
   -5.0423    5.7503    2.0664 O   0  0  0  0  0  0  0  0  0  0  0  0
   -5.5572    4.6890    4.1534 C   0  0  0  0  0  0  0  0  0  0  0  0
   -6.8450    0.2564    6.7980 N   0  0  0  0  0  0  0  0  0  0  0  0
   -6.2466   -0.8724    6.4055 C   0  0  0  0  0  0  0  0  0  0  0  0
   -6.9184   -1.4099    5.1510 C   0  0  0  0  0  0  0  0  0  0  0  0
   -8.2428   -1.6887    5.4179 N   0  0  0  0  0  0  0  0  0  0  0  0
   -8.8434   -0.5025    5.7796 C   0  0  0  0  0  0  0  0  0  0  0  0
   -8.1774    0.0346    7.0354 C   0  0  0  0  0  0  0  0  0  0  0  0
   -6.7030    3.3703   -0.0532 C   0  0  0  0  0  0  0  0  0  0  0  0
   -5.6982    6.9593    2.3465 C   0  0  0  0  0  0  0  0  0  0  0  0
  1 14  1  0  0  0  0
  1  2  2  0  0  0  0
  3  2  1  0  0  0  0
  3  8  2  0  0  0  0
  4  3  1  0  0  0  0
  5  7  2  0  0  0  0
  5  4  1  0  0  0  0
  6  5  1  0  0  0  0
  7  1  1  0  0  0  0
  9 10  1  0  0  0  0
  9  8  1  0  0  0  0
 11  9  2  0  0  0  0
 12 11  1  0  0  0  0
 13  4  2  0  0  0  0
 13 11  1  0  0  0  0
 14 15  1  0  0  0  0
 16 15  1  0  0  0  0
 17 16  1  0  0  0  0
 18 17  1  0  0  0  0
 18 19  1  0  0  0  0
 19 14  1  0  0  0  0
 20 10  1  0  0  0  0
 21 12  1  0  0  0  0
M  END
>  <CHROM.1>
56.96378396,-83.00629558,115.99137925,-6.50236184,2.43619112,4.43513848,-2.12440844
-1.14495473,-1.14550389

>  <Name>
lig.pdb

>  <RI>
2.59814e+07

>  <Rbt.Current_Directory>
/home/itssahil/PROJECTS/Mol_Feturizer/New_Systems/rnas/2lwk

>  <Rbt.Executable>
rbdock ($Id: //depot/dev/client3/rdock/2013.1/src/exe/rbdock.cxx#4 $)

>  <Rbt.Library>
libRbt.so (2013.1, Build901 2013/11/27)

>  <Rbt.Parameter_File>
/export/apps/rDock/src/rDock_2013.1_src/data/scripts/dock_solv.prm

>  <Rbt.Receptor>
prm/pocket_docking_6.prm

>  <SCORE>
-18.2558

>  <SCORE.INTER>
-13.5314

>  <SCORE.INTER.CONST>
1

>  <SCORE.INTER.POLAR>
-1.42801

>  <SCORE.INTER.ROT>
3

>  <SCORE.INTER.SOLV>
5.72955

>  <SCORE.INTER.VDW>
-11.7708

>  <SCORE.INTER.norm>
-0.644354

>  <SCORE.INTRA>
-4.72436

>  <SCORE.INTRA.DIHEDRAL>
-0.244545

>  <SCORE.INTRA.DIHEDRAL.0>
8.84257

>  <SCORE.INTRA.POLAR>
0

>  <SCORE.INTRA.POLAR.0>
0

>  <SCORE.INTRA.REPUL>
0

>  <SCORE.INTRA.REPUL.0>
0

>  <SCORE.INTRA.SOLV>
0.110772

>  <SCORE.INTRA.SOLV.lig_0>
-17.1313

>  <SCORE.INTRA.VDW>
-4.65748

>  <SCORE.INTRA.VDW.0>
6.34071

>  <SCORE.INTRA.norm>
-0.22497

>  <SCORE.RESTR>
0

>  <SCORE.RESTR.CAVITY>
0

>  <SCORE.RESTR.norm>
0

>  <SCORE.SYSTEM>
0

>  <SCORE.SYSTEM.CONST>
0

>  <SCORE.SYSTEM.DIHEDRAL>
0

>  <SCORE.SYSTEM.SOLV>
0

>  <SCORE.SYSTEM.norm>
0

>  <SCORE.heavy>
21

>  <SCORE.norm>
-0.869323

>  <RMSD>
6.840

$$$$
lig.pdb
 OpenBabel11021811453D
libRbt.so/2013.1/901 2013/11/27
 21 23  0  0  0  0  0  0  0  0999 V2000
   -5.9600    1.5139    5.1717 C   0  0  0  0  0  0  0  0  0  0  0  0
   -6.3832    1.7147    3.9288 N   0  0  0  0  0  0  0  0  0  0  0  0
   -6.4443    2.9411    3.4421 C   0  0  0  0  0  0  0  0  0  0  0  0
   -6.1431    3.9927    4.2306 C   0  0  0  0  0  0  0  0  0  0  0  0
   -5.7132    3.7861    5.4825 C   0  0  0  0  0  0  0  0  0  0  0  0
   -5.4182    4.8194    6.2704 N   0  0  0  0  0  0  0  0  0  0  0  0
   -5.6260    2.5448    5.9493 N   0  0  0  0  0  0  0  0  0  0  0  0
   -6.8511    3.1339    2.1763 C   0  0  0  0  0  0  0  0  0  0  0  0
   -7.0828    4.4093    1.7384 C   0  0  0  0  0  0  0  0  0  0  0  0
   -8.2043    4.6244    0.9022 O   0  0  0  0  0  0  0  0  0  0  0  0
   -6.5972    5.4313    2.4622 C   0  0  0  0  0  0  0  0  0  0  0  0
   -6.3972    6.6966    1.8479 O   0  0  0  0  0  0  0  0  0  0  0  0
   -6.2263    5.2385    3.7431 C   0  0  0  0  0  0  0  0  0  0  0  0
   -5.8873    0.2811    5.6430 N   0  0  0  0  0  0  0  0  0  0  0  0
   -5.0591   -0.5517    5.0053 C   0  0  0  0  0  0  0  0  0  0  0  0
   -5.7165   -1.0702    3.7353 C   0  0  0  0  0  0  0  0  0  0  0  0
   -6.8664   -1.7609    4.0577 N   0  0  0  0  0  0  0  0  0  0  0  0
   -7.7165   -0.8698    4.6755 C   0  0  0  0  0  0  0  0  0  0  0  0
   -7.0643   -0.3536    5.9473 C   0  0  0  0  0  0  0  0  0  0  0  0
   -7.7876    4.4806   -0.4316 C   0  0  0  0  0  0  0  0  0  0  0  0
   -5.1587    6.6860    1.1873 C   0  0  0  0  0  0  0  0  0  0  0  0
  1 14  1  0  0  0  0
  1  2  2  0  0  0  0
  3  2  1  0  0  0  0
  3  8  2  0  0  0  0
  4  3  1  0  0  0  0
  5  7  2  0  0  0  0
  5  4  1  0  0  0  0
  6  5  1  0  0  0  0
  7  1  1  0  0  0  0
  9 10  1  0  0  0  0
  9  8  1  0  0  0  0
 11  9  2  0  0  0  0
 12 11  1  0  0  0  0
 13  4  2  0  0  0  0
 13 11  1  0  0  0  0
 14 15  1  0  0  0  0
 16 15  1  0  0  0  0
 17 16  1  0  0  0  0
 18 17  1  0  0  0  0
 18 19  1  0  0  0  0
 19 14  1  0  0  0  0
 20 10  1  0  0  0  0
 21 12  1  0  0  0  0
M  END
>  <CHROM.1>
61.33259134,-90.94876236,-83.05899023,-6.40411757,2.75618264,3.64418425,-1.45431158
-1.16569125,-0.40153512

>  <Name>
lig.pdb

>  <RI>
2.59814e+07

>  <Rbt.Current_Directory>
/home/itssahil/PROJECTS/Mol_Feturizer/New_Systems/rnas/2lwk

>  <Rbt.Executable>
rbdock ($Id: //depot/dev/client3/rdock/2013.1/src/exe/rbdock.cxx#4 $)

>  <Rbt.Library>
libRbt.so (2013.1, Build901 2013/11/27)

>  <Rbt.Parameter_File>
/export/apps/rDock/src/rDock_2013.1_src/data/scripts/dock_solv.prm

>  <Rbt.Receptor>
prm/pocket_docking_6.prm

>  <SCORE>
-22.4679

>  <SCORE.INTER>
-17.1625

>  <SCORE.INTER.CONST>
1

>  <SCORE.INTER.POLAR>
-2.08992

>  <SCORE.INTER.ROT>
3

>  <SCORE.INTER.SOLV>
6.69995

>  <SCORE.INTER.VDW>
-12.3086

>  <SCORE.INTER.norm>
-0.817263

>  <SCORE.INTRA>
-5.30535

>  <SCORE.INTRA.DIHEDRAL>
0.817373

>  <SCORE.INTRA.DIHEDRAL.0>
8.84257

>  <SCORE.INTRA.POLAR>
0

>  <SCORE.INTRA.POLAR.0>
0

>  <SCORE.INTRA.REPUL>
0

>  <SCORE.INTRA.REPUL.0>
0

>  <SCORE.INTRA.SOLV>
0.0910416

>  <SCORE.INTRA.SOLV.lig_0>
-17.1313

>  <SCORE.INTRA.VDW>
-5.75955

>  <SCORE.INTRA.VDW.0>
6.34071

>  <SCORE.INTRA.norm>
-0.252636

>  <SCORE.RESTR>
0

>  <SCORE.RESTR.CAVITY>
0

>  <SCORE.RESTR.norm>
0

>  <SCORE.SYSTEM>
0

>  <SCORE.SYSTEM.CONST>
0

>  <SCORE.SYSTEM.DIHEDRAL>
0

>  <SCORE.SYSTEM.SOLV>
0

>  <SCORE.SYSTEM.norm>
0

>  <SCORE.heavy>
21

>  <SCORE.norm>
-1.0699

>  <RMSD>
6.842

$$$$
lig.pdb
 OpenBabel11021811453D
libRbt.so/2013.1/901 2013/11/27
 21 23  0  0  0  0  0  0  0  0999 V2000
   -5.9679    1.5110    5.1613 C   0  0  0  0  0  0  0  0  0  0  0  0
   -6.3883    1.7177    3.9185 N   0  0  0  0  0  0  0  0  0  0  0  0
   -6.4470    2.9464    3.4371 C   0  0  0  0  0  0  0  0  0  0  0  0
   -6.1460    3.9941    4.2309 C   0  0  0  0  0  0  0  0  0  0  0  0
   -5.7189    3.7814    5.4827 C   0  0  0  0  0  0  0  0  0  0  0  0
   -5.4242    4.8109    6.2758 N   0  0  0  0  0  0  0  0  0  0  0  0
   -5.6342    2.5379    5.9441 N   0  0  0  0  0  0  0  0  0  0  0  0
   -6.8510    3.1453    2.1714 C   0  0  0  0  0  0  0  0  0  0  0  0
   -7.0803    4.4230    1.7387 C   0  0  0  0  0  0  0  0  0  0  0  0
   -8.1998    4.6431    0.9012 O   0  0  0  0  0  0  0  0  0  0  0  0
   -6.5948    5.4412    2.4680 C   0  0  0  0  0  0  0  0  0  0  0  0
   -6.3921    6.7089    1.8597 O   0  0  0  0  0  0  0  0  0  0  0  0
   -6.2267    5.2422    3.7488 C   0  0  0  0  0  0  0  0  0  0  0  0
   -5.8976    0.2760    5.6272 N   0  0  0  0  0  0  0  0  0  0  0  0
   -5.1000   -0.5660    4.9631 C   0  0  0  0  0  0  0  0  0  0  0  0
   -5.8019   -1.0722    3.7121 C   0  0  0  0  0  0  0  0  0  0  0  0
   -6.9508   -1.7484    4.0670 N   0  0  0  0  0  0  0  0  0  0  0  0
   -7.7700   -0.8479    4.7122 C   0  0  0  0  0  0  0  0  0  0  0  0
   -7.0733   -0.3439    5.9651 C   0  0  0  0  0  0  0  0  0  0  0  0
   -7.7945    4.4461   -0.4293 C   0  0  0  0  0  0  0  0  0  0  0  0
   -5.1604    6.6938    1.1866 C   0  0  0  0  0  0  0  0  0  0  0  0
  1 14  1  0  0  0  0
  1  2  2  0  0  0  0
  3  2  1  0  0  0  0
  3  8  2  0  0  0  0
  4  3  1  0  0  0  0
  5  7  2  0  0  0  0
  5  4  1  0  0  0  0
  6  5  1  0  0  0  0
  7  1  1  0  0  0  0
  9 10  1  0  0  0  0
  9  8  1  0  0  0  0
 11  9  2  0  0  0  0
 12 11  1  0  0  0  0
 13  4  2  0  0  0  0
 13 11  1  0  0  0  0
 14 15  1  0  0  0  0
 16 15  1  0  0  0  0
 17 16  1  0  0  0  0
 18 17  1  0  0  0  0
 18 19  1  0  0  0  0
 19 14  1  0  0  0  0
 20 10  1  0  0  0  0
 21 12  1  0  0  0  0
M  END
>  <CHROM.1>
59.37460679,-88.35813266,-82.28282875,-6.41965149,2.75861352,3.64326157,-1.47330727
-1.16331540,-0.41755635

>  <Name>
lig.pdb

>  <RI>
2.98315e+07

>  <Rbt.Current_Directory>
/home/itssahil/PROJECTS/Mol_Feturizer/New_Systems/rnas/2lwk

>  <Rbt.Executable>
rbdock ($Id: //depot/dev/client3/rdock/2013.1/src/exe/rbdock.cxx#4 $)

>  <Rbt.Library>
libRbt.so (2013.1, Build901 2013/11/27)

>  <Rbt.Parameter_File>
/export/apps/rDock/src/rDock_2013.1_src/data/scripts/dock_solv.prm

>  <Rbt.Receptor>
prm/pocket_docking_5.prm

>  <SCORE>
-22.4786

>  <SCORE.INTER>
-17.2192

>  <SCORE.INTER.CONST>
1

>  <SCORE.INTER.POLAR>
-2.09599

>  <SCORE.INTER.ROT>
3

>  <SCORE.INTER.SOLV>
6.73105

>  <SCORE.INTER.VDW>
-12.3365

>  <SCORE.INTER.norm>
-0.819962

>  <SCORE.INTRA>
-5.25943

>  <SCORE.INTRA.DIHEDRAL>
0.722391

>  <SCORE.INTRA.DIHEDRAL.0>
8.84257

>  <SCORE.INTRA.POLAR>
0

>  <SCORE.INTRA.POLAR.0>
0

>  <SCORE.INTRA.REPUL>
0

>  <SCORE.INTRA.REPUL.0>
0

>  <SCORE.INTRA.SOLV>
0.0885266

>  <SCORE.INTRA.SOLV.lig_0>
-17.1313

>  <SCORE.INTRA.VDW>
-5.66489

>  <SCORE.INTRA.VDW.0>
6.34071

>  <SCORE.INTRA.norm>
-0.250449

>  <SCORE.RESTR>
0

>  <SCORE.RESTR.CAVITY>
0

>  <SCORE.RESTR.norm>
0

>  <SCORE.SYSTEM>
0

>  <SCORE.SYSTEM.CONST>
0

>  <SCORE.SYSTEM.DIHEDRAL>
0

>  <SCORE.SYSTEM.SOLV>
0

>  <SCORE.SYSTEM.norm>
0

>  <SCORE.heavy>
21

>  <SCORE.norm>
-1.07041

>  <RMSD>
6.843

$$$$
lig.pdb
 OpenBabel11021811453D
libRbt.so/2013.1/901 2013/11/27
 21 23  0  0  0  0  0  0  0  0999 V2000
   -5.9601    1.5152    5.1724 C   0  0  0  0  0  0  0  0  0  0  0  0
   -6.3809    1.7147    3.9285 N   0  0  0  0  0  0  0  0  0  0  0  0
   -6.4429    2.9408    3.4410 C   0  0  0  0  0  0  0  0  0  0  0  0
   -6.1451    3.9932    4.2297 C   0  0  0  0  0  0  0  0  0  0  0  0
   -5.7175    3.7879    5.4826 C   0  0  0  0  0  0  0  0  0  0  0  0
   -5.4259    4.8221    6.2706 N   0  0  0  0  0  0  0  0  0  0  0  0
   -5.6294    2.5470    5.9502 N   0  0  0  0  0  0  0  0  0  0  0  0
   -6.8473    3.1323    2.1743 C   0  0  0  0  0  0  0  0  0  0  0  0
   -7.0801    4.4072    1.7353 C   0  0  0  0  0  0  0  0  0  0  0  0
   -8.2000    4.6201    0.8965 O   0  0  0  0  0  0  0  0  0  0  0  0
   -6.5976    5.4303    2.4596 C   0  0  0  0  0  0  0  0  0  0  0  0
   -6.3982    6.6956    1.8451 O   0  0  0  0  0  0  0  0  0  0  0  0
   -6.2291    5.2387    3.7414 C   0  0  0  0  0  0  0  0  0  0  0  0
   -5.8865    0.2828    5.6444 N   0  0  0  0  0  0  0  0  0  0  0  0
   -5.0996   -0.5649    4.9747 C   0  0  0  0  0  0  0  0  0  0  0  0
   -5.8190   -1.0765    3.7359 C   0  0  0  0  0  0  0  0  0  0  0  0
   -6.9646   -1.7480    4.1098 N   0  0  0  0  0  0  0  0  0  0  0  0
   -7.7733   -0.8420    4.7605 C   0  0  0  0  0  0  0  0  0  0  0  0
   -7.0591   -0.3325    6.0012 C   0  0  0  0  0  0  0  0  0  0  0  0
   -7.7754    4.4995   -0.4370 C   0  0  0  0  0  0  0  0  0  0  0  0
   -5.1312    6.7086    1.2412 C   0  0  0  0  0  0  0  0  0  0  0  0
  1 14  1  0  0  0  0
  1  2  2  0  0  0  0
  3  2  1  0  0  0  0
  3  8  2  0  0  0  0
  4  3  1  0  0  0  0
  5  7  2  0  0  0  0
  5  4  1  0  0  0  0
  6  5  1  0  0  0  0
  7  1  1  0  0  0  0
  9 10  1  0  0  0  0
  9  8  1  0  0  0  0
 11  9  2  0  0  0  0
 12 11  1  0  0  0  0
 13  4  2  0  0  0  0
 13 11  1  0  0  0  0
 14 15  1  0  0  0  0
 16 15  1  0  0  0  0
 17 16  1  0  0  0  0
 18 17  1  0  0  0  0
 18 19  1  0  0  0  0
 19 14  1  0  0  0  0
 20 10  1  0  0  0  0
 21 12  1  0  0  0  0
M  END
>  <CHROM.1>
58.55877451,-91.96311819,-85.83545154,-6.41690835,2.76043351,3.65386718,-1.47642981
-1.16045536,-0.42429895

>  <Name>
lig.pdb

>  <RI>
2.98315e+07

>  <Rbt.Current_Directory>
/home/itssahil/PROJECTS/Mol_Feturizer/New_Systems/rnas/2lwk

>  <Rbt.Executable>
rbdock ($Id: //depot/dev/client3/rdock/2013.1/src/exe/rbdock.cxx#4 $)

>  <Rbt.Library>
libRbt.so (2013.1, Build901 2013/11/27)

>  <Rbt.Parameter_File>
/export/apps/rDock/src/rDock_2013.1_src/data/scripts/dock_solv.prm

>  <Rbt.Receptor>
prm/pocket_docking_5.prm

>  <SCORE>
-22.4873

>  <SCORE.INTER>
-17.2383

>  <SCORE.INTER.CONST>
1

>  <SCORE.INTER.POLAR>
-2.09592

>  <SCORE.INTER.ROT>
3

>  <SCORE.INTER.SOLV>
6.7118

>  <SCORE.INTER.VDW>
-12.3431

>  <SCORE.INTER.norm>
-0.820869

>  <SCORE.INTRA>
-5.24905

>  <SCORE.INTRA.DIHEDRAL>
0.876044

>  <SCORE.INTRA.DIHEDRAL.0>
8.84257

>  <SCORE.INTRA.POLAR>
0

>  <SCORE.INTRA.POLAR.0>
0

>  <SCORE.INTRA.REPUL>
0

>  <SCORE.INTRA.REPUL.0>
0

>  <SCORE.INTRA.SOLV>
0.0892683

>  <SCORE.INTRA.SOLV.lig_0>
-17.1313

>  <SCORE.INTRA.VDW>
-5.73171

>  <SCORE.INTRA.VDW.0>
6.34071

>  <SCORE.INTRA.norm>
-0.249955

>  <SCORE.RESTR>
0

>  <SCORE.RESTR.CAVITY>
0

>  <SCORE.RESTR.norm>
0

>  <SCORE.SYSTEM>
0

>  <SCORE.SYSTEM.CONST>
0

>  <SCORE.SYSTEM.DIHEDRAL>
0

>  <SCORE.SYSTEM.SOLV>
0

>  <SCORE.SYSTEM.norm>
0

>  <SCORE.heavy>
21

>  <SCORE.norm>
-1.07082

>  <RMSD>
6.846

$$$$
lig.pdb
 OpenBabel11021811453D
libRbt.so/2013.1/901 2013/11/27
 21 23  0  0  0  0  0  0  0  0999 V2000
   -5.9625    1.5150    5.1675 C   0  0  0  0  0  0  0  0  0  0  0  0
   -6.3819    1.7166    3.9234 N   0  0  0  0  0  0  0  0  0  0  0  0
   -6.4428    2.9435    3.4378 C   0  0  0  0  0  0  0  0  0  0  0  0
   -6.1453    3.9945    4.2283 C   0  0  0  0  0  0  0  0  0  0  0  0
   -5.7192    3.7871    5.4814 C   0  0  0  0  0  0  0  0  0  0  0  0
   -5.4280    4.8199    6.2713 N   0  0  0  0  0  0  0  0  0  0  0  0
   -5.6322    2.5454    5.9472 N   0  0  0  0  0  0  0  0  0  0  0  0
   -6.8457    3.1371    2.1709 C   0  0  0  0  0  0  0  0  0  0  0  0
   -7.0774    4.4127    1.7335 C   0  0  0  0  0  0  0  0  0  0  0  0
   -8.1964    4.6274    0.8939 O   0  0  0  0  0  0  0  0  0  0  0  0
   -6.5953    5.4346    2.4599 C   0  0  0  0  0  0  0  0  0  0  0  0
   -6.3946    6.7007    1.8476 O   0  0  0  0  0  0  0  0  0  0  0  0
   -6.2283    5.2408    3.7419 C   0  0  0  0  0  0  0  0  0  0  0  0
   -5.8900    0.2818    5.6376 N   0  0  0  0  0  0  0  0  0  0  0  0
   -5.0485   -0.5457    5.0103 C   0  0  0  0  0  0  0  0  0  0  0  0
   -5.6854   -1.0654    3.7303 C   0  0  0  0  0  0  0  0  0  0  0  0
   -6.8360   -1.7626    4.0354 N   0  0  0  0  0  0  0  0  0  0  0  0
   -7.6993   -0.8770    4.6427 C   0  0  0  0  0  0  0  0  0  0  0  0
   -7.0678   -0.3596    5.9244 C   0  0  0  0  0  0  0  0  0  0  0  0
   -7.7756    4.4843   -0.4386 C   0  0  0  0  0  0  0  0  0  0  0  0
   -5.1385    6.7043    1.2212 C   0  0  0  0  0  0  0  0  0  0  0  0
  1 14  1  0  0  0  0
  1  2  2  0  0  0  0
  3  2  1  0  0  0  0
  3  8  2  0  0  0  0
  4  3  1  0  0  0  0
  5  7  2  0  0  0  0
  5  4  1  0  0  0  0
  6  5  1  0  0  0  0
  7  1  1  0  0  0  0
  9 10  1  0  0  0  0
  9  8  1  0  0  0  0
 11  9  2  0  0  0  0
 12 11  1  0  0  0  0
 13  4  2  0  0  0  0
 13 11  1  0  0  0  0
 14 15  1  0  0  0  0
 16 15  1  0  0  0  0
 17 16  1  0  0  0  0
 18 17  1  0  0  0  0
 18 19  1  0  0  0  0
 19 14  1  0  0  0  0
 20 10  1  0  0  0  0
 21 12  1  0  0  0  0
M  END
>  <CHROM.1>
61.99538082,-90.89064483,-84.61225830,-6.39844538,2.75848460,3.63958522,-1.45160029
-1.16911152,-0.39583417

>  <Name>
lig.pdb

>  <RI>
2.98315e+07

>  <Rbt.Current_Directory>
/home/itssahil/PROJECTS/Mol_Feturizer/New_Systems/rnas/2lwk

>  <Rbt.Executable>
rbdock ($Id: //depot/dev/client3/rdock/2013.1/src/exe/rbdock.cxx#4 $)

>  <Rbt.Library>
libRbt.so (2013.1, Build901 2013/11/27)

>  <Rbt.Parameter_File>
/export/apps/rDock/src/rDock_2013.1_src/data/scripts/dock_solv.prm

>  <Rbt.Receptor>
prm/pocket_docking_5.prm

>  <SCORE>
-22.4897

>  <SCORE.INTER>
-17.1771

>  <SCORE.INTER.CONST>
1

>  <SCORE.INTER.POLAR>
-2.09546

>  <SCORE.INTER.ROT>
3

>  <SCORE.INTER.SOLV>
6.70096

>  <SCORE.INTER.VDW>
-12.3002

>  <SCORE.INTER.norm>
-0.817957

>  <SCORE.INTRA>
-5.31264

>  <SCORE.INTRA.DIHEDRAL>
0.834289

>  <SCORE.INTRA.DIHEDRAL.0>
8.84257

>  <SCORE.INTRA.POLAR>
0

>  <SCORE.INTRA.POLAR.0>
0

>  <SCORE.INTRA.REPUL>
0

>  <SCORE.INTRA.REPUL.0>
0

>  <SCORE.INTRA.SOLV>
0.0901466

>  <SCORE.INTRA.SOLV.lig_0>
-17.1313

>  <SCORE.INTRA.VDW>
-5.77486

>  <SCORE.INTRA.VDW.0>
6.34071

>  <SCORE.INTRA.norm>
-0.252983

>  <SCORE.RESTR>
0

>  <SCORE.RESTR.CAVITY>
0

>  <SCORE.RESTR.norm>
0

>  <SCORE.SYSTEM>
0

>  <SCORE.SYSTEM.CONST>
0

>  <SCORE.SYSTEM.DIHEDRAL>
0

>  <SCORE.SYSTEM.SOLV>
0

>  <SCORE.SYSTEM.norm>
0

>  <SCORE.heavy>
21

>  <SCORE.norm>
-1.07094

>  <RMSD>
6.846

$$$$
lig.pdb
 OpenBabel11021811453D
libRbt.so/2013.1/901 2013/11/27
 21 23  0  0  0  0  0  0  0  0999 V2000
   -8.4012    0.6029    4.3551 C   0  0  0  0  0  0  0  0  0  0  0  0
   -8.1650    1.7952    3.8195 N   0  0  0  0  0  0  0  0  0  0  0  0
   -7.0057    2.3938    4.0260 C   0  0  0  0  0  0  0  0  0  0  0  0
   -6.0908    1.8249    4.8368 C   0  0  0  0  0  0  0  0  0  0  0  0
   -6.3312    0.6206    5.3723 C   0  0  0  0  0  0  0  0  0  0  0  0
   -5.4350    0.0533    6.1789 N   0  0  0  0  0  0  0  0  0  0  0  0
   -7.4892    0.0150    5.1306 N   0  0  0  0  0  0  0  0  0  0  0  0
   -6.7656    3.5890    3.4615 C   0  0  0  0  0  0  0  0  0  0  0  0
   -5.6421    4.2819    3.8221 C   0  0  0  0  0  0  0  0  0  0  0  0
   -5.7568    5.6833    3.9838 O   0  0  0  0  0  0  0  0  0  0  0  0
   -4.6654    3.6236    4.4678 C   0  0  0  0  0  0  0  0  0  0  0  0
   -3.3401    4.1349    4.4490 O   0  0  0  0  0  0  0  0  0  0  0  0
   -4.9233    2.4430    5.0637 C   0  0  0  0  0  0  0  0  0  0  0  0
   -9.5585    0.0058    4.1284 N   0  0  0  0  0  0  0  0  0  0  0  0
  -10.5098    0.1821    5.0504 C   0  0  0  0  0  0  0  0  0  0  0  0
  -10.2623   -0.7363    6.2376 C   0  0  0  0  0  0  0  0  0  0  0  0
  -10.2970   -2.0510    5.8212 N   0  0  0  0  0  0  0  0  0  0  0  0
   -9.2820   -2.2143    4.9039 C   0  0  0  0  0  0  0  0  0  0  0  0
   -9.5290   -1.3014    3.7144 C   0  0  0  0  0  0  0  0  0  0  0  0
   -5.5424    6.2856    2.7331 C   0  0  0  0  0  0  0  0  0  0  0  0
   -2.9905    4.5287    5.7501 C   0  0  0  0  0  0  0  0  0  0  0  0
  1 14  1  0  0  0  0
  1  2  2  0  0  0  0
  3  2  1  0  0  0  0
  3  8  2  0  0  0  0
  4  3  1  0  0  0  0
  5  7  2  0  0  0  0
  5  4  1  0  0  0  0
  6  5  1  0  0  0  0
  7  1  1  0  0  0  0
  9 10  1  0  0  0  0
  9  8  1  0  0  0  0
 11  9  2  0  0  0  0
 12 11  1  0  0  0  0
 13  4  2  0  0  0  0
 13 11  1  0  0  0  0
 14 15  1  0  0  0  0
 16 15  1  0  0  0  0
 17 16  1  0  0  0  0
 18 17  1  0  0  0  0
 18 19  1  0  0  0  0
 19 14  1  0  0  0  0
 20 10  1  0  0  0  0
 21 12  1  0  0  0  0
M  END
>  <CHROM.1>
-94.95166804,-87.51362724,113.66602789,-7.03108827,1.71450267,4.65041073
2.34752528,0.36034109,2.66277394

>  <Name>
lig.pdb

>  <RI>
2.98315e+07

>  <Rbt.Current_Directory>
/home/itssahil/PROJECTS/Mol_Feturizer/New_Systems/rnas/2lwk

>  <Rbt.Executable>
rbdock ($Id: //depot/dev/client3/rdock/2013.1/src/exe/rbdock.cxx#4 $)

>  <Rbt.Library>
libRbt.so (2013.1, Build901 2013/11/27)

>  <Rbt.Parameter_File>
/export/apps/rDock/src/rDock_2013.1_src/data/scripts/dock_solv.prm

>  <Rbt.Receptor>
prm/pocket_docking_5.prm

>  <SCORE>
-12.7466

>  <SCORE.INTER>
-7.80024

>  <SCORE.INTER.CONST>
1

>  <SCORE.INTER.POLAR>
-0.646457

>  <SCORE.INTER.ROT>
3

>  <SCORE.INTER.SOLV>
6.57246

>  <SCORE.INTER.VDW>
-10.8361

>  <SCORE.INTER.norm>
-0.37144

>  <SCORE.INTRA>
-4.9464

>  <SCORE.INTRA.DIHEDRAL>
0.0887603

>  <SCORE.INTRA.DIHEDRAL.0>
8.84257

>  <SCORE.INTRA.POLAR>
0

>  <SCORE.INTRA.POLAR.0>
0

>  <SCORE.INTRA.REPUL>
0

>  <SCORE.INTRA.REPUL.0>
0

>  <SCORE.INTRA.SOLV>
0.103741

>  <SCORE.INTRA.SOLV.lig_0>
-17.1313

>  <SCORE.INTRA.VDW>
-5.04265

>  <SCORE.INTRA.VDW.0>
6.34071

>  <SCORE.INTRA.norm>
-0.235543

>  <SCORE.RESTR>
0

>  <SCORE.RESTR.CAVITY>
0

>  <SCORE.RESTR.norm>
0

>  <SCORE.SYSTEM>
0

>  <SCORE.SYSTEM.CONST>
0

>  <SCORE.SYSTEM.DIHEDRAL>
0

>  <SCORE.SYSTEM.SOLV>
0

>  <SCORE.SYSTEM.norm>
0

>  <SCORE.heavy>
21

>  <SCORE.norm>
-0.606983

>  <RMSD>
6.847

$$$$
lig.pdb
 OpenBabel11021811453D
libRbt.so/2013.1/901 2013/11/27
 21 23  0  0  0  0  0  0  0  0999 V2000
   -5.9646    1.5104    5.1667 C   0  0  0  0  0  0  0  0  0  0  0  0
   -6.3853    1.7151    3.9236 N   0  0  0  0  0  0  0  0  0  0  0  0
   -6.4452    2.9430    3.4406 C   0  0  0  0  0  0  0  0  0  0  0  0
   -6.1451    3.9920    4.2329 C   0  0  0  0  0  0  0  0  0  0  0  0
   -5.7177    3.7814    5.4850 C   0  0  0  0  0  0  0  0  0  0  0  0
   -5.4240    4.8123    6.2766 N   0  0  0  0  0  0  0  0  0  0  0  0
   -5.6318    2.5387    5.9481 N   0  0  0  0  0  0  0  0  0  0  0  0
   -6.8494    3.1398    2.1746 C   0  0  0  0  0  0  0  0  0  0  0  0
   -7.0800    4.4167    1.7402 C   0  0  0  0  0  0  0  0  0  0  0  0
   -8.1997    4.6346    0.9024 O   0  0  0  0  0  0  0  0  0  0  0  0
   -6.5954    5.4363    2.4680 C   0  0  0  0  0  0  0  0  0  0  0  0
   -6.3938    6.7034    1.8581 O   0  0  0  0  0  0  0  0  0  0  0  0
   -6.2270    5.2394    3.7491 C   0  0  0  0  0  0  0  0  0  0  0  0
   -5.8931    0.2761    5.6343 N   0  0  0  0  0  0  0  0  0  0  0  0
   -5.0699   -0.5573    4.9908 C   0  0  0  0  0  0  0  0  0  0  0  0
   -5.7342   -1.0705    3.7222 C   0  0  0  0  0  0  0  0  0  0  0  0
   -6.8845   -1.7590    4.0476 N   0  0  0  0  0  0  0  0  0  0  0  0
   -7.7295   -0.8674    4.6716 C   0  0  0  0  0  0  0  0  0  0  0  0
   -7.0705   -0.3564    5.9420 C   0  0  0  0  0  0  0  0  0  0  0  0
   -7.7808    4.4938   -0.4309 C   0  0  0  0  0  0  0  0  0  0  0  0
   -5.1218    6.7207    1.2649 C   0  0  0  0  0  0  0  0  0  0  0  0
  1 14  1  0  0  0  0
  1  2  2  0  0  0  0
  3  2  1  0  0  0  0
  3  8  2  0  0  0  0
  4  3  1  0  0  0  0
  5  7  2  0  0  0  0
  5  4  1  0  0  0  0
  6  5  1  0  0  0  0
  7  1  1  0  0  0  0
  9 10  1  0  0  0  0
  9  8  1  0  0  0  0
 11  9  2  0  0  0  0
 12 11  1  0  0  0  0
 13  4  2  0  0  0  0
 13 11  1  0  0  0  0
 14 15  1  0  0  0  0
 16 15  1  0  0  0  0
 17 16  1  0  0  0  0
 18 17  1  0  0  0  0
 18 19  1  0  0  0  0
 19 14  1  0  0  0  0
 20 10  1  0  0  0  0
 21 12  1  0  0  0  0
M  END
>  <CHROM.1>
60.94856852,-90.89888434,-86.38902263,-6.40591581,2.75902336,3.64656532,-1.46353020
-1.16378505,-0.40476218

>  <Name>
lig.pdb

>  <RI>
2.59814e+07

>  <Rbt.Current_Directory>
/home/itssahil/PROJECTS/Mol_Feturizer/New_Systems/rnas/2lwk

>  <Rbt.Executable>
rbdock ($Id: //depot/dev/client3/rdock/2013.1/src/exe/rbdock.cxx#4 $)

>  <Rbt.Library>
libRbt.so (2013.1, Build901 2013/11/27)

>  <Rbt.Parameter_File>
/export/apps/rDock/src/rDock_2013.1_src/data/scripts/dock_solv.prm

>  <Rbt.Receptor>
prm/pocket_docking_6.prm

>  <SCORE>
-22.4991

>  <SCORE.INTER>
-17.2136

>  <SCORE.INTER.CONST>
1

>  <SCORE.INTER.POLAR>
-2.0965

>  <SCORE.INTER.ROT>
3

>  <SCORE.INTER.SOLV>
6.71443

>  <SCORE.INTER.VDW>
-12.3255

>  <SCORE.INTER.norm>
-0.819694

>  <SCORE.INTRA>
-5.28549

>  <SCORE.INTRA.DIHEDRAL>
0.848158

>  <SCORE.INTRA.DIHEDRAL.0>
8.84257

>  <SCORE.INTRA.POLAR>
0

>  <SCORE.INTRA.POLAR.0>
0

>  <SCORE.INTRA.REPUL>
0

>  <SCORE.INTRA.REPUL.0>
0

>  <SCORE.INTRA.SOLV>
0.0887708

>  <SCORE.INTRA.SOLV.lig_0>
-17.1313

>  <SCORE.INTRA.VDW>
-5.75396

>  <SCORE.INTRA.VDW.0>
6.34071

>  <SCORE.INTRA.norm>
-0.25169

>  <SCORE.RESTR>
0

>  <SCORE.RESTR.CAVITY>
0

>  <SCORE.RESTR.norm>
0

>  <SCORE.SYSTEM>
0

>  <SCORE.SYSTEM.CONST>
0

>  <SCORE.SYSTEM.DIHEDRAL>
0

>  <SCORE.SYSTEM.SOLV>
0

>  <SCORE.SYSTEM.norm>
0

>  <SCORE.heavy>
21

>  <SCORE.norm>
-1.07138

>  <RMSD>
6.847

$$$$
lig.pdb
 OpenBabel11021811453D
libRbt.so/2013.1/901 2013/11/27
 21 23  0  0  0  0  0  0  0  0999 V2000
   -5.9167    1.5062    5.1585 C   0  0  0  0  0  0  0  0  0  0  0  0
   -6.3292    1.7102    3.9125 N   0  0  0  0  0  0  0  0  0  0  0  0
   -6.4025    2.9393    3.4342 C   0  0  0  0  0  0  0  0  0  0  0  0
   -6.1247    3.9891    4.2335 C   0  0  0  0  0  0  0  0  0  0  0  0
   -5.7054    3.7792    5.4885 C   0  0  0  0  0  0  0  0  0  0  0  0
   -5.4336    4.8107    6.2871 N   0  0  0  0  0  0  0  0  0  0  0  0
   -5.6057    2.5358    5.9471 N   0  0  0  0  0  0  0  0  0  0  0  0
   -6.7982    3.1357    2.1655 C   0  0  0  0  0  0  0  0  0  0  0  0
   -7.0433    4.4110    1.7344 C   0  0  0  0  0  0  0  0  0  0  0  0
   -8.1586    4.6164    0.8875 O   0  0  0  0  0  0  0  0  0  0  0  0
   -6.5800    5.4343    2.4708 C   0  0  0  0  0  0  0  0  0  0  0  0
   -6.3913    6.7068    1.8680 O   0  0  0  0  0  0  0  0  0  0  0  0
   -6.2202    5.2372    3.7543 C   0  0  0  0  0  0  0  0  0  0  0  0
   -5.8315    0.2711    5.6215 N   0  0  0  0  0  0  0  0  0  0  0  0
   -4.9024   -0.5109    5.0634 C   0  0  0  0  0  0  0  0  0  0  0  0
   -5.4003   -1.0404    3.7271 C   0  0  0  0  0  0  0  0  0  0  0  0
   -6.5415   -1.7905    3.9222 N   0  0  0  0  0  0  0  0  0  0  0  0
   -7.4933   -0.9512    4.4590 C   0  0  0  0  0  0  0  0  0  0  0  0
   -7.0006   -0.4243    5.7965 C   0  0  0  0  0  0  0  0  0  0  0  0
   -7.7410    4.4196   -0.4391 C   0  0  0  0  0  0  0  0  0  0  0  0
   -5.0774    6.7839    1.3802 C   0  0  0  0  0  0  0  0  0  0  0  0
  1 14  1  0  0  0  0
  1  2  2  0  0  0  0
  3  2  1  0  0  0  0
  3  8  2  0  0  0  0
  4  3  1  0  0  0  0
  5  7  2  0  0  0  0
  5  4  1  0  0  0  0
  6  5  1  0  0  0  0
  7  1  1  0  0  0  0
  9 10  1  0  0  0  0
  9  8  1  0  0  0  0
 11  9  2  0  0  0  0
 12 11  1  0  0  0  0
 13  4  2  0  0  0  0
 13 11  1  0  0  0  0
 14 15  1  0  0  0  0
 16 15  1  0  0  0  0
 17 16  1  0  0  0  0
 18 17  1  0  0  0  0
 18 19  1  0  0  0  0
 19 14  1  0  0  0  0
 20 10  1  0  0  0  0
 21 12  1  0  0  0  0
M  END
>  <CHROM.1>
66.96455311,-87.91301060,-91.05034099,-6.32590136,2.75052072,3.63040846,-1.39340957
-1.18393754,-0.32402461

>  <Name>
lig.pdb

>  <RI>
2.59814e+07

>  <Rbt.Current_Directory>
/home/itssahil/PROJECTS/Mol_Feturizer/New_Systems/rnas/2lwk

>  <Rbt.Executable>
rbdock ($Id: //depot/dev/client3/rdock/2013.1/src/exe/rbdock.cxx#4 $)

>  <Rbt.Library>
libRbt.so (2013.1, Build901 2013/11/27)

>  <Rbt.Parameter_File>
/export/apps/rDock/src/rDock_2013.1_src/data/scripts/dock_solv.prm

>  <Rbt.Receptor>
prm/pocket_docking_6.prm

>  <SCORE>
-22.327

>  <SCORE.INTER>
-17.0111

>  <SCORE.INTER.CONST>
1

>  <SCORE.INTER.POLAR>
-2.11894

>  <SCORE.INTER.ROT>
3

>  <SCORE.INTER.SOLV>
6.56812

>  <SCORE.INTER.VDW>
-12.067

>  <SCORE.INTER.norm>
-0.810051

>  <SCORE.INTRA>
-5.31594

>  <SCORE.INTRA.DIHEDRAL>
0.73732

>  <SCORE.INTRA.DIHEDRAL.0>
8.84257

>  <SCORE.INTRA.POLAR>
0

>  <SCORE.INTRA.POLAR.0>
0

>  <SCORE.INTRA.REPUL>
0

>  <SCORE.INTRA.REPUL.0>
0

>  <SCORE.INTRA.SOLV>
0.0839102

>  <SCORE.INTRA.SOLV.lig_0>
-17.1313

>  <SCORE.INTRA.VDW>
-5.72656

>  <SCORE.INTRA.VDW.0>
6.34071

>  <SCORE.INTRA.norm>
-0.25314

>  <SCORE.RESTR>
0

>  <SCORE.RESTR.CAVITY>
0

>  <SCORE.RESTR.norm>
0

>  <SCORE.SYSTEM>
0

>  <SCORE.SYSTEM.CONST>
0

>  <SCORE.SYSTEM.DIHEDRAL>
0

>  <SCORE.SYSTEM.SOLV>
0

>  <SCORE.SYSTEM.norm>
0

>  <SCORE.heavy>
21

>  <SCORE.norm>
-1.06319

>  <RMSD>
6.855

$$$$
lig.pdb
 OpenBabel11021811453D
libRbt.so/2013.1/901 2013/11/27
 21 23  0  0  0  0  0  0  0  0999 V2000
   -5.9950    1.5231    5.1419 C   0  0  0  0  0  0  0  0  0  0  0  0
   -6.4141    1.7403    3.9003 N   0  0  0  0  0  0  0  0  0  0  0  0
   -6.4645    2.9723    3.4265 C   0  0  0  0  0  0  0  0  0  0  0  0
   -6.1567    4.0130    4.2266 C   0  0  0  0  0  0  0  0  0  0  0  0
   -5.7309    3.7898    5.4772 C   0  0  0  0  0  0  0  0  0  0  0  0
   -5.4295    4.8124    6.2765 N   0  0  0  0  0  0  0  0  0  0  0  0
   -5.6545    2.5430    5.9309 N   0  0  0  0  0  0  0  0  0  0  0  0
   -6.8672    3.1816    2.1620 C   0  0  0  0  0  0  0  0  0  0  0  0
   -7.0880    4.4634    1.7372 C   0  0  0  0  0  0  0  0  0  0  0  0
   -8.2060    4.6961    0.9010 O   0  0  0  0  0  0  0  0  0  0  0  0
   -6.5958    5.4739    2.4727 C   0  0  0  0  0  0  0  0  0  0  0  0
   -6.3845    6.7439    1.8722 O   0  0  0  0  0  0  0  0  0  0  0  0
   -6.2290    5.2646    3.7522 C   0  0  0  0  0  0  0  0  0  0  0  0
   -5.9330    0.2849    5.6002 N   0  0  0  0  0  0  0  0  0  0  0  0
   -5.1741   -0.5690    4.9065 C   0  0  0  0  0  0  0  0  0  0  0  0
   -5.9266   -1.0559    3.6774 C   0  0  0  0  0  0  0  0  0  0  0  0
   -7.0758   -1.7118    4.0676 N   0  0  0  0  0  0  0  0  0  0  0  0
   -7.8559   -0.7990    4.7432 C   0  0  0  0  0  0  0  0  0  0  0  0
   -7.1086   -0.3142    5.9744 C   0  0  0  0  0  0  0  0  0  0  0  0
   -7.8021    4.5045   -0.4306 C   0  0  0  0  0  0  0  0  0  0  0  0
   -5.0925    6.7740    1.3244 C   0  0  0  0  0  0  0  0  0  0  0  0
  1 14  1  0  0  0  0
  1  2  2  0  0  0  0
  3  2  1  0  0  0  0
  3  8  2  0  0  0  0
  4  3  1  0  0  0  0
  5  7  2  0  0  0  0
  5  4  1  0  0  0  0
  6  5  1  0  0  0  0
  7  1  1  0  0  0  0
  9 10  1  0  0  0  0
  9  8  1  0  0  0  0
 11  9  2  0  0  0  0
 12 11  1  0  0  0  0
 13  4  2  0  0  0  0
 13 11  1  0  0  0  0
 14 15  1  0  0  0  0
 16 15  1  0  0  0  0
 17 16  1  0  0  0  0
 18 17  1  0  0  0  0
 18 19  1  0  0  0  0
 19 14  1  0  0  0  0
 20 10  1  0  0  0  0
 21 12  1  0  0  0  0
M  END
>  <CHROM.1>
57.34340928,-88.34988029,-88.65328571,-6.44667148,2.78724350,3.64401903,-1.50928010
-1.15109858,-0.44224281

>  <Name>
lig.pdb

>  <RI>
2.20372e+07

>  <Rbt.Current_Directory>
/home/itssahil/PROJECTS/Mol_Feturizer/New_Systems/rnas/2lwk

>  <Rbt.Executable>
rbdock ($Id: //depot/dev/client3/rdock/2013.1/src/exe/rbdock.cxx#4 $)

>  <Rbt.Library>
libRbt.so (2013.1, Build901 2013/11/27)

>  <Rbt.Parameter_File>
/export/apps/rDock/src/rDock_2013.1_src/data/scripts/dock_solv.prm

>  <Rbt.Receptor>
prm/pocket_docking_7.prm

>  <SCORE>
-22.4322

>  <SCORE.INTER>
-17.2551

>  <SCORE.INTER.CONST>
1

>  <SCORE.INTER.POLAR>
-2.09848

>  <SCORE.INTER.ROT>
3

>  <SCORE.INTER.SOLV>
6.85841

>  <SCORE.INTER.VDW>
-12.3946

>  <SCORE.INTER.norm>
-0.821671

>  <SCORE.INTRA>
-5.17709

>  <SCORE.INTRA.DIHEDRAL>
0.770546

>  <SCORE.INTRA.DIHEDRAL.0>
8.84257

>  <SCORE.INTRA.POLAR>
0

>  <SCORE.INTRA.POLAR.0>
0

>  <SCORE.INTRA.REPUL>
0

>  <SCORE.INTRA.REPUL.0>
0

>  <SCORE.INTRA.SOLV>
0.0836314

>  <SCORE.INTRA.SOLV.lig_0>
-17.1313

>  <SCORE.INTRA.VDW>
-5.60418

>  <SCORE.INTRA.VDW.0>
6.34071

>  <SCORE.INTRA.norm>
-0.246528

>  <SCORE.RESTR>
0

>  <SCORE.RESTR.CAVITY>
0

>  <SCORE.RESTR.norm>
0

>  <SCORE.SYSTEM>
0

>  <SCORE.SYSTEM.CONST>
0

>  <SCORE.SYSTEM.DIHEDRAL>
0

>  <SCORE.SYSTEM.SOLV>
0

>  <SCORE.SYSTEM.norm>
0

>  <SCORE.heavy>
21

>  <SCORE.norm>
-1.0682

>  <RMSD>
6.863

$$$$
lig.pdb
 OpenBabel11021811453D
libRbt.so/2013.1/901 2013/11/27
 21 23  0  0  0  0  0  0  0  0999 V2000
   -8.2341    0.2438    4.5979 C   0  0  0  0  0  0  0  0  0  0  0  0
   -7.9314    1.3913    4.0015 N   0  0  0  0  0  0  0  0  0  0  0  0
   -6.9414    2.1342    4.4630 C   0  0  0  0  0  0  0  0  0  0  0  0
   -6.2851    1.7603    5.5800 C   0  0  0  0  0  0  0  0  0  0  0  0
   -6.5908    0.6004    6.1766 C   0  0  0  0  0  0  0  0  0  0  0  0
   -5.9509    0.2256    7.2837 N   0  0  0  0  0  0  0  0  0  0  0  0
   -7.5681   -0.1530    5.6832 N   0  0  0  0  0  0  0  0  0  0  0  0
   -6.6262    3.2820    3.8402 C   0  0  0  0  0  0  0  0  0  0  0  0
   -5.7250    4.1304    4.4236 C   0  0  0  0  0  0  0  0  0  0  0  0
   -5.9873    5.5193    4.3523 O   0  0  0  0  0  0  0  0  0  0  0  0
   -4.9521    3.6576    5.4153 C   0  0  0  0  0  0  0  0  0  0  0  0
   -3.7283    4.3088    5.7255 O   0  0  0  0  0  0  0  0  0  0  0  0
   -5.2950    2.5255    6.0606 C   0  0  0  0  0  0  0  0  0  0  0  0
   -9.2160   -0.4996    4.1177 N   0  0  0  0  0  0  0  0  0  0  0  0
  -10.3987   -0.3916    4.7309 C   0  0  0  0  0  0  0  0  0  0  0  0
  -10.3983   -1.2105    6.0128 C   0  0  0  0  0  0  0  0  0  0  0  0
  -10.1823   -2.5397    5.7133 N   0  0  0  0  0  0  0  0  0  0  0  0
   -8.9415   -2.6268    5.1208 C   0  0  0  0  0  0  0  0  0  0  0  0
   -8.9401   -1.8134    3.8372 C   0  0  0  0  0  0  0  0  0  0  0  0
   -5.6780    5.9554    3.0533 C   0  0  0  0  0  0  0  0  0  0  0  0
   -2.7801    3.9768    4.7452 C   0  0  0  0  0  0  0  0  0  0  0  0
  1 14  1  0  0  0  0
  1  2  2  0  0  0  0
  3  2  1  0  0  0  0
  3  8  2  0  0  0  0
  4  3  1  0  0  0  0
  5  7  2  0  0  0  0
  5  4  1  0  0  0  0
  6  5  1  0  0  0  0
  7  1  1  0  0  0  0
  9 10  1  0  0  0  0
  9  8  1  0  0  0  0
 11  9  2  0  0  0  0
 12 11  1  0  0  0  0
 13  4  2  0  0  0  0
 13 11  1  0  0  0  0
 14 15  1  0  0  0  0
 16 15  1  0  0  0  0
 17 16  1  0  0  0  0
 18 17  1  0  0  0  0
 18 19  1  0  0  0  0
 19 14  1  0  0  0  0
 20 10  1  0  0  0  0
 21 12  1  0  0  0  0
M  END
>  <CHROM.1>
-98.76328198,-76.16817549,-75.73247359,-7.05133019,1.46154972,5.00525102
2.37114987,0.54253445,2.57371208

>  <Name>
lig.pdb

>  <RI>
1.4775e+07

>  <Rbt.Current_Directory>
/home/itssahil/PROJECTS/Mol_Feturizer/New_Systems/rnas/2lwk

>  <Rbt.Executable>
rbdock ($Id: //depot/dev/client3/rdock/2013.1/src/exe/rbdock.cxx#4 $)

>  <Rbt.Library>
libRbt.so (2013.1, Build901 2013/11/27)

>  <Rbt.Parameter_File>
/export/apps/rDock/src/rDock_2013.1_src/data/scripts/dock_solv.prm

>  <Rbt.Receptor>
prm/pocket_docking_4.prm

>  <SCORE>
-14.3307

>  <SCORE.INTER>
-9.25353

>  <SCORE.INTER.CONST>
1

>  <SCORE.INTER.POLAR>
-1.00238

>  <SCORE.INTER.ROT>
3

>  <SCORE.INTER.SOLV>
5.71878

>  <SCORE.INTER.VDW>
-10.334

>  <SCORE.INTER.norm>
-0.440644

>  <SCORE.INTRA>
-5.08006

>  <SCORE.INTRA.DIHEDRAL>
-0.0365106

>  <SCORE.INTRA.DIHEDRAL.0>
8.84257

>  <SCORE.INTRA.POLAR>
0

>  <SCORE.INTRA.POLAR.0>
0

>  <SCORE.INTRA.REPUL>
0

>  <SCORE.INTRA.REPUL.0>
0

>  <SCORE.INTRA.SOLV>
0.0694952

>  <SCORE.INTRA.SOLV.lig_0>
-17.1313

>  <SCORE.INTRA.VDW>
-5.09655

>  <SCORE.INTRA.VDW.0>
6.34071

>  <SCORE.INTRA.norm>
-0.241908

>  <SCORE.RESTR>
0.00283696

>  <SCORE.RESTR.CAVITY>
0.00283696

>  <SCORE.RESTR.norm>
0.000135093

>  <SCORE.SYSTEM>
0

>  <SCORE.SYSTEM.CONST>
0

>  <SCORE.SYSTEM.DIHEDRAL>
0

>  <SCORE.SYSTEM.SOLV>
0

>  <SCORE.SYSTEM.norm>
0

>  <SCORE.heavy>
21

>  <SCORE.norm>
-0.682417

>  <RMSD>
6.864

$$$$
lig.pdb
 OpenBabel11021811453D
libRbt.so/2013.1/901 2013/11/27
 21 23  0  0  0  0  0  0  0  0999 V2000
   -8.1227    0.2329    4.6336 C   0  0  0  0  0  0  0  0  0  0  0  0
   -7.8719    1.3839    4.0201 N   0  0  0  0  0  0  0  0  0  0  0  0
   -6.8864    2.1558    4.4418 C   0  0  0  0  0  0  0  0  0  0  0  0
   -6.1812    1.8070    5.5369 C   0  0  0  0  0  0  0  0  0  0  0  0
   -6.4347    0.6435    6.1508 C   0  0  0  0  0  0  0  0  0  0  0  0
   -5.7463    0.2932    7.2366 N   0  0  0  0  0  0  0  0  0  0  0  0
   -7.4085   -0.1388    5.6968 N   0  0  0  0  0  0  0  0  0  0  0  0
   -6.6241    3.3073    3.8014 C   0  0  0  0  0  0  0  0  0  0  0  0
   -5.7257    4.1830    4.3475 C   0  0  0  0  0  0  0  0  0  0  0  0
   -6.0272    5.5641    4.2774 O   0  0  0  0  0  0  0  0  0  0  0  0
   -4.9059    3.7376    5.3138 C   0  0  0  0  0  0  0  0  0  0  0  0
   -3.6896    4.4230    5.5765 O   0  0  0  0  0  0  0  0  0  0  0  0
   -5.1955    2.6012    5.9775 C   0  0  0  0  0  0  0  0  0  0  0  0
   -9.1009   -0.5394    4.1930 N   0  0  0  0  0  0  0  0  0  0  0  0
  -10.3358   -0.2226    4.5942 C   0  0  0  0  0  0  0  0  0  0  0  0
  -10.5693   -0.7257    6.0106 C   0  0  0  0  0  0  0  0  0  0  0  0
  -10.4396   -2.0988    6.0418 N   0  0  0  0  0  0  0  0  0  0  0  0
   -9.1478   -2.3941    5.6643 C   0  0  0  0  0  0  0  0  0  0  0  0
   -8.9129   -1.8968    4.2477 C   0  0  0  0  0  0  0  0  0  0  0  0
   -5.7694    6.0008    2.9674 C   0  0  0  0  0  0  0  0  0  0  0  0
   -2.7366    4.0309    4.6235 C   0  0  0  0  0  0  0  0  0  0  0  0
  1 14  1  0  0  0  0
  1  2  2  0  0  0  0
  3  2  1  0  0  0  0
  3  8  2  0  0  0  0
  4  3  1  0  0  0  0
  5  7  2  0  0  0  0
  5  4  1  0  0  0  0
  6  5  1  0  0  0  0
  7  1  1  0  0  0  0
  9 10  1  0  0  0  0
  9  8  1  0  0  0  0
 11  9  2  0  0  0  0
 12 11  1  0  0  0  0
 13  4  2  0  0  0  0
 13 11  1  0  0  0  0
 14 15  1  0  0  0  0
 16 15  1  0  0  0  0
 17 16  1  0  0  0  0
 18 17  1  0  0  0  0
 18 19  1  0  0  0  0
 19 14  1  0  0  0  0
 20 10  1  0  0  0  0
 21 12  1  0  0  0  0
M  END
>  <CHROM.1>
-81.78283545,-76.45876561,-80.16476675,-7.02931901,1.55365834,5.02615017
2.35452090,0.47359888,2.58704315

>  <Name>
lig.pdb

>  <RI>
1.4775e+07

>  <Rbt.Current_Directory>
/home/itssahil/PROJECTS/Mol_Feturizer/New_Systems/rnas/2lwk

>  <Rbt.Executable>
rbdock ($Id: //depot/dev/client3/rdock/2013.1/src/exe/rbdock.cxx#4 $)

>  <Rbt.Library>
libRbt.so (2013.1, Build901 2013/11/27)

>  <Rbt.Parameter_File>
/export/apps/rDock/src/rDock_2013.1_src/data/scripts/dock_solv.prm

>  <Rbt.Receptor>
prm/pocket_docking_4.prm

>  <SCORE>
-14.2707

>  <SCORE.INTER>
-9.61021

>  <SCORE.INTER.CONST>
1

>  <SCORE.INTER.POLAR>
-0.918502

>  <SCORE.INTER.ROT>
3

>  <SCORE.INTER.SOLV>
5.65647

>  <SCORE.INTER.VDW>
-10.8306

>  <SCORE.INTER.norm>
-0.457629

>  <SCORE.INTRA>
-4.66051

>  <SCORE.INTRA.DIHEDRAL>
0.11198

>  <SCORE.INTRA.DIHEDRAL.0>
8.84257

>  <SCORE.INTRA.POLAR>
0

>  <SCORE.INTRA.POLAR.0>
0

>  <SCORE.INTRA.REPUL>
0

>  <SCORE.INTRA.REPUL.0>
0

>  <SCORE.INTRA.SOLV>
0.0555306

>  <SCORE.INTRA.SOLV.lig_0>
-17.1313

>  <SCORE.INTRA.VDW>
-4.74427

>  <SCORE.INTRA.VDW.0>
6.34071

>  <SCORE.INTRA.norm>
-0.221929

>  <SCORE.RESTR>
0

>  <SCORE.RESTR.CAVITY>
0

>  <SCORE.RESTR.norm>
0

>  <SCORE.SYSTEM>
0

>  <SCORE.SYSTEM.CONST>
0

>  <SCORE.SYSTEM.DIHEDRAL>
0

>  <SCORE.SYSTEM.SOLV>
0

>  <SCORE.SYSTEM.norm>
0

>  <SCORE.heavy>
21

>  <SCORE.norm>
-0.679558

>  <RMSD>
6.872

$$$$
lig.pdb
 OpenBabel11021811453D
libRbt.so/2013.1/901 2013/11/27
 21 23  0  0  0  0  0  0  0  0999 V2000
   -8.0756    0.2278    4.7188 C   0  0  0  0  0  0  0  0  0  0  0  0
   -7.8415    1.3733    4.0886 N   0  0  0  0  0  0  0  0  0  0  0  0
   -6.8569    2.1577    4.4887 C   0  0  0  0  0  0  0  0  0  0  0  0
   -6.1355    1.8276    5.5790 C   0  0  0  0  0  0  0  0  0  0  0  0
   -6.3722    0.6696    6.2099 C   0  0  0  0  0  0  0  0  0  0  0  0
   -5.6677    0.3378    7.2912 N   0  0  0  0  0  0  0  0  0  0  0  0
   -7.3453   -0.1255    5.7774 N   0  0  0  0  0  0  0  0  0  0  0  0
   -6.6115    3.3034    3.8314 C   0  0  0  0  0  0  0  0  0  0  0  0
   -5.7134    4.1926    4.3558 C   0  0  0  0  0  0  0  0  0  0  0  0
   -6.0265    5.5703    4.2730 O   0  0  0  0  0  0  0  0  0  0  0  0
   -4.8783    3.7651    5.3171 C   0  0  0  0  0  0  0  0  0  0  0  0
   -3.6642    4.4630    5.5564 O   0  0  0  0  0  0  0  0  0  0  0  0
   -5.1507    2.6346    5.9978 C   0  0  0  0  0  0  0  0  0  0  0  0
   -9.0530   -0.5572    4.2997 N   0  0  0  0  0  0  0  0  0  0  0  0
  -10.2963   -0.0889    4.4453 C   0  0  0  0  0  0  0  0  0  0  0  0
  -10.7579   -0.2728    5.8831 C   0  0  0  0  0  0  0  0  0  0  0  0
  -10.7575   -1.6150    6.2017 N   0  0  0  0  0  0  0  0  0  0  0  0
   -9.4592   -2.0609    6.0831 C   0  0  0  0  0  0  0  0  0  0  0  0
   -8.9968   -1.8829    4.6465 C   0  0  0  0  0  0  0  0  0  0  0  0
   -5.7842    5.9943    2.9559 C   0  0  0  0  0  0  0  0  0  0  0  0
   -2.7007    4.0193    4.6371 C   0  0  0  0  0  0  0  0  0  0  0  0
  1 14  1  0  0  0  0
  1  2  2  0  0  0  0
  3  2  1  0  0  0  0
  3  8  2  0  0  0  0
  4  3  1  0  0  0  0
  5  7  2  0  0  0  0
  5  4  1  0  0  0  0
  6  5  1  0  0  0  0
  7  1  1  0  0  0  0
  9 10  1  0  0  0  0
  9  8  1  0  0  0  0
 11  9  2  0  0  0  0
 12 11  1  0  0  0  0
 13  4  2  0  0  0  0
 13 11  1  0  0  0  0
 14 15  1  0  0  0  0
 16 15  1  0  0  0  0
 17 16  1  0  0  0  0
 18 17  1  0  0  0  0
 18 19  1  0  0  0  0
 19 14  1  0  0  0  0
 20 10  1  0  0  0  0
 21 12  1  0  0  0  0
M  END
>  <CHROM.1>
-66.92015151,-76.64965896,-82.98902531,-7.04649730,1.63202407,5.08730418
2.37570889,0.43031616,2.57955807

>  <Name>
lig.pdb

>  <RI>
1.4775e+07

>  <Rbt.Current_Directory>
/home/itssahil/PROJECTS/Mol_Feturizer/New_Systems/rnas/2lwk

>  <Rbt.Executable>
rbdock ($Id: //depot/dev/client3/rdock/2013.1/src/exe/rbdock.cxx#4 $)

>  <Rbt.Library>
libRbt.so (2013.1, Build901 2013/11/27)

>  <Rbt.Parameter_File>
/export/apps/rDock/src/rDock_2013.1_src/data/scripts/dock_solv.prm

>  <Rbt.Receptor>
prm/pocket_docking_4.prm

>  <SCORE>
-14.4046

>  <SCORE.INTER>
-10.2558

>  <SCORE.INTER.CONST>
1

>  <SCORE.INTER.POLAR>
-0.910541

>  <SCORE.INTER.ROT>
3

>  <SCORE.INTER.SOLV>
5.77678

>  <SCORE.INTER.VDW>
-11.3276

>  <SCORE.INTER.norm>
-0.48837

>  <SCORE.INTRA>
-4.14881

>  <SCORE.INTRA.DIHEDRAL>
0.172982

>  <SCORE.INTRA.DIHEDRAL.0>
8.84257

>  <SCORE.INTRA.POLAR>
0

>  <SCORE.INTRA.POLAR.0>
0

>  <SCORE.INTRA.REPUL>
0

>  <SCORE.INTRA.REPUL.0>
0

>  <SCORE.INTRA.SOLV>
0.0238676

>  <SCORE.INTRA.SOLV.lig_0>
-17.1313

>  <SCORE.INTRA.VDW>
-4.24724

>  <SCORE.INTRA.VDW.0>
6.34071

>  <SCORE.INTRA.norm>
-0.197562

>  <SCORE.RESTR>
0

>  <SCORE.RESTR.CAVITY>
0

>  <SCORE.RESTR.norm>
0

>  <SCORE.SYSTEM>
0

>  <SCORE.SYSTEM.CONST>
0

>  <SCORE.SYSTEM.DIHEDRAL>
0

>  <SCORE.SYSTEM.SOLV>
0

>  <SCORE.SYSTEM.norm>
0

>  <SCORE.heavy>
21

>  <SCORE.norm>
-0.685933

>  <RMSD>
6.882

$$$$
lig.pdb
 OpenBabel11021811453D
libRbt.so/2013.1/901 2013/11/27
 21 23  0  0  0  0  0  0  0  0999 V2000
  -10.7708   -4.4959    3.4960 C   0  0  0  0  0  0  0  0  0  0  0  0
  -11.2577   -3.3415    3.9371 N   0  0  0  0  0  0  0  0  0  0  0  0
  -10.4362   -2.3930    4.3497 C   0  0  0  0  0  0  0  0  0  0  0  0
   -9.1082   -2.6238    4.3874 C   0  0  0  0  0  0  0  0  0  0  0  0
   -8.6206   -3.7880    3.9382 C   0  0  0  0  0  0  0  0  0  0  0  0
   -7.3102   -4.0268    3.9766 N   0  0  0  0  0  0  0  0  0  0  0  0
   -9.4564   -4.7220    3.4961 N   0  0  0  0  0  0  0  0  0  0  0  0
  -10.9354   -1.2195    4.7723 C   0  0  0  0  0  0  0  0  0  0  0  0
  -10.0973   -0.3136    5.3632 C   0  0  0  0  0  0  0  0  0  0  0  0
  -10.5853    0.4016    6.4827 O   0  0  0  0  0  0  0  0  0  0  0  0
   -8.7724   -0.4777    5.2149 C   0  0  0  0  0  0  0  0  0  0  0  0
   -7.9019    0.6317    5.3872 O   0  0  0  0  0  0  0  0  0  0  0  0
   -8.2765   -1.6689    4.8267 C   0  0  0  0  0  0  0  0  0  0  0  0
  -11.6014   -5.4319    3.0703 N   0  0  0  0  0  0  0  0  0  0  0  0
  -12.8625   -5.3510    3.5052 C   0  0  0  0  0  0  0  0  0  0  0  0
  -12.9622   -5.8989    4.9208 C   0  0  0  0  0  0  0  0  0  0  0  0
  -12.5813   -7.2247    4.9323 N   0  0  0  0  0  0  0  0  0  0  0  0
  -11.2676   -7.2742    4.5198 C   0  0  0  0  0  0  0  0  0  0  0  0
  -11.1655   -6.7318    3.1039 C   0  0  0  0  0  0  0  0  0  0  0  0
  -10.5711   -0.4609    7.5913 C   0  0  0  0  0  0  0  0  0  0  0  0
   -7.0970    0.4021    6.5140 C   0  0  0  0  0  0  0  0  0  0  0  0
  1 14  1  0  0  0  0
  1  2  2  0  0  0  0
  3  2  1  0  0  0  0
  3  8  2  0  0  0  0
  4  3  1  0  0  0  0
  5  7  2  0  0  0  0
  5  4  1  0  0  0  0
  6  5  1  0  0  0  0
  7  1  1  0  0  0  0
  9 10  1  0  0  0  0
  9  8  1  0  0  0  0
 11  9  2  0  0  0  0
 12 11  1  0  0  0  0
 13  4  2  0  0  0  0
 13 11  1  0  0  0  0
 14 15  1  0  0  0  0
 16 15  1  0  0  0  0
 17 16  1  0  0  0  0
 18 17  1  0  0  0  0
 18 19  1  0  0  0  0
 19 14  1  0  0  0  0
 20 10  1  0  0  0  0
 21 12  1  0  0  0  0
M  END
>  <CHROM.1>
-21.42261735,75.98103966,114.24749865,-10.16482529,-3.13951228,4.69317065
-2.02277382,0.27957232,0.43856239

>  <Name>
lig.pdb

>  <RI>
2.59814e+07

>  <Rbt.Current_Directory>
/home/itssahil/PROJECTS/Mol_Feturizer/New_Systems/rnas/2lwk

>  <Rbt.Executable>
rbdock ($Id: //depot/dev/client3/rdock/2013.1/src/exe/rbdock.cxx#4 $)

>  <Rbt.Library>
libRbt.so (2013.1, Build901 2013/11/27)

>  <Rbt.Parameter_File>
/export/apps/rDock/src/rDock_2013.1_src/data/scripts/dock_solv.prm

>  <Rbt.Receptor>
prm/pocket_docking_6.prm

>  <SCORE>
-16.4588

>  <SCORE.INTER>
-14.6777

>  <SCORE.INTER.CONST>
1

>  <SCORE.INTER.POLAR>
-1.96457

>  <SCORE.INTER.ROT>
3

>  <SCORE.INTER.SOLV>
6.51146

>  <SCORE.INTER.VDW>
-11.0071

>  <SCORE.INTER.norm>
-0.698939

>  <SCORE.INTRA>
-1.78109

>  <SCORE.INTRA.DIHEDRAL>
0.31421

>  <SCORE.INTRA.DIHEDRAL.0>
8.84257

>  <SCORE.INTRA.POLAR>
0

>  <SCORE.INTRA.POLAR.0>
0

>  <SCORE.INTRA.REPUL>
0

>  <SCORE.INTRA.REPUL.0>
0

>  <SCORE.INTRA.SOLV>
-0.0496436

>  <SCORE.INTRA.SOLV.lig_0>
-17.1313

>  <SCORE.INTRA.VDW>
-1.91338

>  <SCORE.INTRA.VDW.0>
6.34071

>  <SCORE.INTRA.norm>
-0.084814

>  <SCORE.RESTR>
0

>  <SCORE.RESTR.CAVITY>
0

>  <SCORE.RESTR.norm>
0

>  <SCORE.SYSTEM>
0

>  <SCORE.SYSTEM.CONST>
0

>  <SCORE.SYSTEM.DIHEDRAL>
0

>  <SCORE.SYSTEM.SOLV>
0

>  <SCORE.SYSTEM.norm>
0

>  <SCORE.heavy>
21

>  <SCORE.norm>
-0.783753

>  <RMSD>
6.885

$$$$
lig.pdb
 OpenBabel11021811453D
libRbt.so/2013.1/901 2013/11/27
 21 23  0  0  0  0  0  0  0  0999 V2000
   -7.3121    0.5293    5.3721 C   0  0  0  0  0  0  0  0  0  0  0  0
   -7.4023    1.2234    4.2432 N   0  0  0  0  0  0  0  0  0  0  0  0
   -6.8374    2.4140    4.1533 C   0  0  0  0  0  0  0  0  0  0  0  0
   -6.2296    2.9524    5.2298 C   0  0  0  0  0  0  0  0  0  0  0  0
   -6.1374    2.2478    6.3655 C   0  0  0  0  0  0  0  0  0  0  0  0
   -5.5430    2.7739    7.4358 N   0  0  0  0  0  0  0  0  0  0  0  0
   -6.6828    1.0377    6.4324 N   0  0  0  0  0  0  0  0  0  0  0  0
   -6.9131    3.0996    3.0005 C   0  0  0  0  0  0  0  0  0  0  0  0
   -6.4848    4.3988    2.9692 C   0  0  0  0  0  0  0  0  0  0  0  0
   -7.2489    5.3258    2.2208 O   0  0  0  0  0  0  0  0  0  0  0  0
   -5.7170    4.8428    3.9780 C   0  0  0  0  0  0  0  0  0  0  0  0
   -4.8844    5.9771    3.7825 O   0  0  0  0  0  0  0  0  0  0  0  0
   -5.6754    4.1699    5.1446 C   0  0  0  0  0  0  0  0  0  0  0  0
   -7.8671   -0.6681    5.4456 N   0  0  0  0  0  0  0  0  0  0  0  0
   -8.5193   -1.0894    4.3578 C   0  0  0  0  0  0  0  0  0  0  0  0
   -9.8975   -0.4485    4.2949 C   0  0  0  0  0  0  0  0  0  0  0  0
  -10.6276   -0.8098    5.4082 N   0  0  0  0  0  0  0  0  0  0  0  0
   -9.9548   -0.3282    6.5099 C   0  0  0  0  0  0  0  0  0  0  0  0
   -8.5792   -0.9703    6.5781 C   0  0  0  0  0  0  0  0  0  0  0  0
   -6.8600    5.2256    0.8748 C   0  0  0  0  0  0  0  0  0  0  0  0
   -3.6298    5.5421    3.3274 C   0  0  0  0  0  0  0  0  0  0  0  0
  1 14  1  0  0  0  0
  1  2  2  0  0  0  0
  3  2  1  0  0  0  0
  3  8  2  0  0  0  0
  4  3  1  0  0  0  0
  5  7  2  0  0  0  0
  5  4  1  0  0  0  0
  6  5  1  0  0  0  0
  7  1  1  0  0  0  0
  9 10  1  0  0  0  0
  9  8  1  0  0  0  0
 11  9  2  0  0  0  0
 12 11  1  0  0  0  0
 13  4  2  0  0  0  0
 13 11  1  0  0  0  0
 14 15  1  0  0  0  0
 16 15  1  0  0  0  0
 17 16  1  0  0  0  0
 18 17  1  0  0  0  0
 18 19  1  0  0  0  0
 19 14  1  0  0  0  0
 20 10  1  0  0  0  0
 21 12  1  0  0  0  0
M  END
>  <CHROM.1>
-1.40484521,-82.93656277,-90.40708254,-7.10197425,2.28261892,4.61177014,-2.27924944
-0.73065477,-0.92546730

>  <Name>
lig.pdb

>  <RI>
1.4775e+07

>  <Rbt.Current_Directory>
/home/itssahil/PROJECTS/Mol_Feturizer/New_Systems/rnas/2lwk

>  <Rbt.Executable>
rbdock ($Id: //depot/dev/client3/rdock/2013.1/src/exe/rbdock.cxx#4 $)

>  <Rbt.Library>
libRbt.so (2013.1, Build901 2013/11/27)

>  <Rbt.Parameter_File>
/export/apps/rDock/src/rDock_2013.1_src/data/scripts/dock_solv.prm

>  <Rbt.Receptor>
prm/pocket_docking_4.prm

>  <SCORE>
-16.8067

>  <SCORE.INTER>
-13.6111

>  <SCORE.INTER.CONST>
1

>  <SCORE.INTER.POLAR>
-1.14811

>  <SCORE.INTER.ROT>
3

>  <SCORE.INTER.SOLV>
6.46539

>  <SCORE.INTER.VDW>
-13.0021

>  <SCORE.INTER.norm>
-0.648147

>  <SCORE.INTRA>
-3.20593

>  <SCORE.INTRA.DIHEDRAL>
0.527748

>  <SCORE.INTRA.DIHEDRAL.0>
8.84257

>  <SCORE.INTRA.POLAR>
0

>  <SCORE.INTRA.POLAR.0>
0

>  <SCORE.INTRA.REPUL>
0

>  <SCORE.INTRA.REPUL.0>
0

>  <SCORE.INTRA.SOLV>
-0.0242135

>  <SCORE.INTRA.SOLV.lig_0>
-17.1313

>  <SCORE.INTRA.VDW>
-3.4577

>  <SCORE.INTRA.VDW.0>
6.34071

>  <SCORE.INTRA.norm>
-0.152663

>  <SCORE.RESTR>
0.0102971

>  <SCORE.RESTR.CAVITY>
0.0102971

>  <SCORE.RESTR.norm>
0.000490336

>  <SCORE.SYSTEM>
0

>  <SCORE.SYSTEM.CONST>
0

>  <SCORE.SYSTEM.DIHEDRAL>
0

>  <SCORE.SYSTEM.SOLV>
0

>  <SCORE.SYSTEM.norm>
0

>  <SCORE.heavy>
21

>  <SCORE.norm>
-0.80032

>  <RMSD>
6.893

$$$$
lig.pdb
 OpenBabel11021811453D
libRbt.so/2013.1/901 2013/11/27
 21 23  0  0  0  0  0  0  0  0999 V2000
   -5.8361    1.4693    5.2276 C   0  0  0  0  0  0  0  0  0  0  0  0
   -6.2515    1.6336    3.9767 N   0  0  0  0  0  0  0  0  0  0  0  0
   -6.3545    2.8489    3.4695 C   0  0  0  0  0  0  0  0  0  0  0  0
   -6.1042    3.9237    4.2442 C   0  0  0  0  0  0  0  0  0  0  0  0
   -5.6819    3.7540    5.5042 C   0  0  0  0  0  0  0  0  0  0  0  0
   -5.4372    4.8105    6.2785 N   0  0  0  0  0  0  0  0  0  0  0  0
   -5.5522    2.5246    5.9921 N   0  0  0  0  0  0  0  0  0  0  0  0
   -6.7529    3.0054    2.1961 C   0  0  0  0  0  0  0  0  0  0  0  0
   -7.0289    4.2637    1.7348 C   0  0  0  0  0  0  0  0  0  0  0  0
   -8.1475    4.4214    0.8821 O   0  0  0  0  0  0  0  0  0  0  0  0
   -6.5924    5.3153    2.4474 C   0  0  0  0  0  0  0  0  0  0  0  0
   -6.4344    6.5776    1.8149 O   0  0  0  0  0  0  0  0  0  0  0  0
   -6.2300    5.1575    3.7355 C   0  0  0  0  0  0  0  0  0  0  0  0
   -5.7211    0.2479    5.7197 N   0  0  0  0  0  0  0  0  0  0  0  0
   -6.6939   -0.1564    6.5421 C   0  0  0  0  0  0  0  0  0  0  0  0
   -6.4805    0.4287    7.9300 C   0  0  0  0  0  0  0  0  0  0  0  0
   -5.2731   -0.0069    8.4356 N   0  0  0  0  0  0  0  0  0  0  0  0
   -4.2875    0.4578    7.5924 C   0  0  0  0  0  0  0  0  0  0  0  0
   -4.4953   -0.1288    6.2061 C   0  0  0  0  0  0  0  0  0  0  0  0
   -7.7211    4.2124   -0.4399 C   0  0  0  0  0  0  0  0  0  0  0  0
   -5.1722    6.6197    1.2022 C   0  0  0  0  0  0  0  0  0  0  0  0
  1 14  1  0  0  0  0
  1  2  2  0  0  0  0
  3  2  1  0  0  0  0
  3  8  2  0  0  0  0
  4  3  1  0  0  0  0
  5  7  2  0  0  0  0
  5  4  1  0  0  0  0
  6  5  1  0  0  0  0
  7  1  1  0  0  0  0
  9 10  1  0  0  0  0
  9  8  1  0  0  0  0
 11  9  2  0  0  0  0
 12 11  1  0  0  0  0
 13  4  2  0  0  0  0
 13 11  1  0  0  0  0
 14 15  1  0  0  0  0
 16 15  1  0  0  0  0
 17 16  1  0  0  0  0
 18 17  1  0  0  0  0
 18 19  1  0  0  0  0
 19 14  1  0  0  0  0
 20 10  1  0  0  0  0
 21 12  1  0  0  0  0
M  END
>  <CHROM.1>
-102.60911335,-88.29086911,-84.77070365,-6.10791995,2.94192833,4.31364936
1.15793056,1.12034942,2.64033830

>  <Name>
lig.pdb

>  <RI>
2.75338e+07

>  <Rbt.Current_Directory>
/home/itssahil/PROJECTS/Mol_Feturizer/New_Systems/rnas/2lwk

>  <Rbt.Executable>
rbdock ($Id: //depot/dev/client3/rdock/2013.1/src/exe/rbdock.cxx#4 $)

>  <Rbt.Library>
libRbt.so (2013.1, Build901 2013/11/27)

>  <Rbt.Parameter_File>
/export/apps/rDock/src/rDock_2013.1_src/data/scripts/dock_solv.prm

>  <Rbt.Receptor>
prm/pocket_docking_8.prm

>  <SCORE>
-22.275

>  <SCORE.INTER>
-16.8778

>  <SCORE.INTER.CONST>
1

>  <SCORE.INTER.POLAR>
-2.11736

>  <SCORE.INTER.ROT>
3

>  <SCORE.INTER.SOLV>
6.00748

>  <SCORE.INTER.VDW>
-11.7965

>  <SCORE.INTER.norm>
-0.803704

>  <SCORE.INTRA>
-5.39724

>  <SCORE.INTRA.DIHEDRAL>
0.753239

>  <SCORE.INTRA.DIHEDRAL.0>
8.84257

>  <SCORE.INTRA.POLAR>
0

>  <SCORE.INTRA.POLAR.0>
0

>  <SCORE.INTRA.REPUL>
0

>  <SCORE.INTRA.REPUL.0>
0

>  <SCORE.INTRA.SOLV>
0.07594

>  <SCORE.INTRA.SOLV.lig_0>
-17.1313

>  <SCORE.INTRA.VDW>
-5.81183

>  <SCORE.INTRA.VDW.0>
6.34071

>  <SCORE.INTRA.norm>
-0.257011

>  <SCORE.RESTR>
0

>  <SCORE.RESTR.CAVITY>
0

>  <SCORE.RESTR.norm>
0

>  <SCORE.SYSTEM>
0

>  <SCORE.SYSTEM.CONST>
0

>  <SCORE.SYSTEM.DIHEDRAL>
0

>  <SCORE.SYSTEM.SOLV>
0

>  <SCORE.SYSTEM.norm>
0

>  <SCORE.heavy>
21

>  <SCORE.norm>
-1.06072

>  <RMSD>
6.909

$$$$
lig.pdb
 OpenBabel11021811453D
libRbt.so/2013.1/901 2013/11/27
 21 23  0  0  0  0  0  0  0  0999 V2000
   -6.0044    1.5291    5.1463 C   0  0  0  0  0  0  0  0  0  0  0  0
   -6.4417    1.7525    3.9122 N   0  0  0  0  0  0  0  0  0  0  0  0
   -6.4833    2.9852    3.4395 C   0  0  0  0  0  0  0  0  0  0  0  0
   -6.1473    4.0213    4.2343 C   0  0  0  0  0  0  0  0  0  0  0  0
   -5.7032    3.7918    5.4773 C   0  0  0  0  0  0  0  0  0  0  0  0
   -5.3739    4.8099    6.2714 N   0  0  0  0  0  0  0  0  0  0  0  0
   -5.6362    2.5439    5.9295 N   0  0  0  0  0  0  0  0  0  0  0  0
   -6.9048    3.2005    2.1822 C   0  0  0  0  0  0  0  0  0  0  0  0
   -7.1151    4.4854    1.7613 C   0  0  0  0  0  0  0  0  0  0  0  0
   -8.2440    4.7339    0.9446 O   0  0  0  0  0  0  0  0  0  0  0  0
   -6.5964    5.4887    2.4884 C   0  0  0  0  0  0  0  0  0  0  0  0
   -6.3781    6.7559    1.8845 O   0  0  0  0  0  0  0  0  0  0  0  0
   -6.2106    5.2739    3.7614 C   0  0  0  0  0  0  0  0  0  0  0  0
   -5.9515    0.2899    5.6033 N   0  0  0  0  0  0  0  0  0  0  0  0
   -6.6768   -0.6188    4.9442 C   0  0  0  0  0  0  0  0  0  0  0  0
   -8.1369   -0.5221    5.3598 C   0  0  0  0  0  0  0  0  0  0  0  0
   -8.2511   -0.7705    6.7119 N   0  0  0  0  0  0  0  0  0  0  0  0
   -7.5291    0.2032    7.3669 C   0  0  0  0  0  0  0  0  0  0  0  0
   -6.0690    0.1061    6.9573 C   0  0  0  0  0  0  0  0  0  0  0  0
   -7.8292    4.6941   -0.3968 C   0  0  0  0  0  0  0  0  0  0  0  0
   -5.0800    6.7831    1.3509 C   0  0  0  0  0  0  0  0  0  0  0  0
  1 14  1  0  0  0  0
  1  2  2  0  0  0  0
  3  2  1  0  0  0  0
  3  8  2  0  0  0  0
  4  3  1  0  0  0  0
  5  7  2  0  0  0  0
  5  4  1  0  0  0  0
  6  5  1  0  0  0  0
  7  1  1  0  0  0  0
  9 10  1  0  0  0  0
  9  8  1  0  0  0  0
 11  9  2  0  0  0  0
 12 11  1  0  0  0  0
 13  4  2  0  0  0  0
 13 11  1  0  0  0  0
 14 15  1  0  0  0  0
 16 15  1  0  0  0  0
 17 16  1  0  0  0  0
 18 17  1  0  0  0  0
 18 19  1  0  0  0  0
 19 14  1  0  0  0  0
 20 10  1  0  0  0  0
 21 12  1  0  0  0  0
M  END
>  <CHROM.1>
-17.93717713,-95.27180748,-90.47134694,-6.62379604,2.94626193,4.04988594
-1.64669528,-0.99423835,-0.76957195

>  <Name>
lig.pdb

>  <RI>
2.98315e+07

>  <Rbt.Current_Directory>
/home/itssahil/PROJECTS/Mol_Feturizer/New_Systems/rnas/2lwk

>  <Rbt.Executable>
rbdock ($Id: //depot/dev/client3/rdock/2013.1/src/exe/rbdock.cxx#4 $)

>  <Rbt.Library>
libRbt.so (2013.1, Build901 2013/11/27)

>  <Rbt.Parameter_File>
/export/apps/rDock/src/rDock_2013.1_src/data/scripts/dock_solv.prm

>  <Rbt.Receptor>
prm/pocket_docking_5.prm

>  <SCORE>
-21.088

>  <SCORE.INTER>
-17.7823

>  <SCORE.INTER.CONST>
1

>  <SCORE.INTER.POLAR>
-2.05025

>  <SCORE.INTER.ROT>
3

>  <SCORE.INTER.SOLV>
6.89894

>  <SCORE.INTER.VDW>
-12.9203

>  <SCORE.INTER.norm>
-0.846774

>  <SCORE.INTRA>
-3.30571

>  <SCORE.INTRA.DIHEDRAL>
0.934627

>  <SCORE.INTRA.DIHEDRAL.0>
8.84257

>  <SCORE.INTRA.POLAR>
0

>  <SCORE.INTRA.POLAR.0>
0

>  <SCORE.INTRA.REPUL>
0

>  <SCORE.INTRA.REPUL.0>
0

>  <SCORE.INTRA.SOLV>
-0.0488064

>  <SCORE.INTRA.SOLV.lig_0>
-17.1313

>  <SCORE.INTRA.VDW>
-3.74862

>  <SCORE.INTRA.VDW.0>
6.34071

>  <SCORE.INTRA.norm>
-0.157415

>  <SCORE.RESTR>
0

>  <SCORE.RESTR.CAVITY>
0

>  <SCORE.RESTR.norm>
0

>  <SCORE.SYSTEM>
0

>  <SCORE.SYSTEM.CONST>
0

>  <SCORE.SYSTEM.DIHEDRAL>
0

>  <SCORE.SYSTEM.SOLV>
0

>  <SCORE.SYSTEM.norm>
0

>  <SCORE.heavy>
21

>  <SCORE.norm>
-1.00419

>  <RMSD>
6.944

$$$$
lig.pdb
 OpenBabel11021811453D
libRbt.so/2013.1/901 2013/11/27
 21 23  0  0  0  0  0  0  0  0999 V2000
   -5.9640    1.5380    5.2309 C   0  0  0  0  0  0  0  0  0  0  0  0
   -6.3837    1.7078    3.9822 N   0  0  0  0  0  0  0  0  0  0  0  0
   -6.4515    2.9226    3.4679 C   0  0  0  0  0  0  0  0  0  0  0  0
   -6.1608    3.9936    4.2337 C   0  0  0  0  0  0  0  0  0  0  0  0
   -5.7344    3.8182    5.4916 C   0  0  0  0  0  0  0  0  0  0  0  0
   -5.4499    4.8710    6.2572 N   0  0  0  0  0  0  0  0  0  0  0  0
   -5.6404    2.5883    5.9864 N   0  0  0  0  0  0  0  0  0  0  0  0
   -6.8546    3.0840    2.1966 C   0  0  0  0  0  0  0  0  0  0  0  0
   -7.0936    4.3477    1.7293 C   0  0  0  0  0  0  0  0  0  0  0  0
   -8.2132    4.5359    0.8842 O   0  0  0  0  0  0  0  0  0  0  0  0
   -6.6180    5.3891    2.4318 C   0  0  0  0  0  0  0  0  0  0  0  0
   -6.4245    6.6416    1.7901 O   0  0  0  0  0  0  0  0  0  0  0  0
   -6.2508    5.2276    3.7181 C   0  0  0  0  0  0  0  0  0  0  0  0
   -5.8845    0.3166    5.7299 N   0  0  0  0  0  0  0  0  0  0  0  0
   -7.0110   -0.1937    6.2367 C   0  0  0  0  0  0  0  0  0  0  0  0
   -7.2564    0.3653    7.6300 C   0  0  0  0  0  0  0  0  0  0  0  0
   -6.2094    0.0192    8.4590 N   0  0  0  0  0  0  0  0  0  0  0  0
   -5.0703    0.5915    7.9363 C   0  0  0  0  0  0  0  0  0  0  0  0
   -4.8198    0.0313    6.5461 C   0  0  0  0  0  0  0  0  0  0  0  0
   -7.7760    4.4382   -0.4471 C   0  0  0  0  0  0  0  0  0  0  0  0
   -5.1251    6.6807    1.2607 C   0  0  0  0  0  0  0  0  0  0  0  0
  1 14  1  0  0  0  0
  1  2  2  0  0  0  0
  3  2  1  0  0  0  0
  3  8  2  0  0  0  0
  4  3  1  0  0  0  0
  5  7  2  0  0  0  0
  5  4  1  0  0  0  0
  6  5  1  0  0  0  0
  7  1  1  0  0  0  0
  9 10  1  0  0  0  0
  9  8  1  0  0  0  0
 11  9  2  0  0  0  0
 12 11  1  0  0  0  0
 13  4  2  0  0  0  0
 13 11  1  0  0  0  0
 14 15  1  0  0  0  0
 16 15  1  0  0  0  0
 17 16  1  0  0  0  0
 18 17  1  0  0  0  0
 18 19  1  0  0  0  0
 19 14  1  0  0  0  0
 20 10  1  0  0  0  0
 21 12  1  0  0  0  0
M  END
>  <CHROM.1>
-84.10066502,-94.13630568,-89.51751026,-6.30901987,3.01549046,4.31682337
1.34310443,1.07273602,2.47224345

>  <Name>
lig.pdb

>  <RI>
2.98315e+07

>  <Rbt.Current_Directory>
/home/itssahil/PROJECTS/Mol_Feturizer/New_Systems/rnas/2lwk

>  <Rbt.Executable>
rbdock ($Id: //depot/dev/client3/rdock/2013.1/src/exe/rbdock.cxx#4 $)

>  <Rbt.Library>
libRbt.so (2013.1, Build901 2013/11/27)

>  <Rbt.Parameter_File>
/export/apps/rDock/src/rDock_2013.1_src/data/scripts/dock_solv.prm

>  <Rbt.Receptor>
prm/pocket_docking_5.prm

>  <SCORE>
-22.259

>  <SCORE.INTER>
-17.2627

>  <SCORE.INTER.CONST>
1

>  <SCORE.INTER.POLAR>
-2.09322

>  <SCORE.INTER.ROT>
3

>  <SCORE.INTER.SOLV>
6.4513

>  <SCORE.INTER.VDW>
-12.2815

>  <SCORE.INTER.norm>
-0.822035

>  <SCORE.INTRA>
-4.99625

>  <SCORE.INTRA.DIHEDRAL>
0.93737

>  <SCORE.INTRA.DIHEDRAL.0>
8.84257

>  <SCORE.INTRA.POLAR>
0

>  <SCORE.INTRA.POLAR.0>
0

>  <SCORE.INTRA.REPUL>
0

>  <SCORE.INTRA.REPUL.0>
0

>  <SCORE.INTRA.SOLV>
0.0684429

>  <SCORE.INTRA.SOLV.lig_0>
-17.1313

>  <SCORE.INTRA.VDW>
-5.49916

>  <SCORE.INTRA.VDW.0>
6.34071

>  <SCORE.INTRA.norm>
-0.237917

>  <SCORE.RESTR>
0

>  <SCORE.RESTR.CAVITY>
0

>  <SCORE.RESTR.norm>
0

>  <SCORE.SYSTEM>
0

>  <SCORE.SYSTEM.CONST>
0

>  <SCORE.SYSTEM.DIHEDRAL>
0

>  <SCORE.SYSTEM.SOLV>
0

>  <SCORE.SYSTEM.norm>
0

>  <SCORE.heavy>
21

>  <SCORE.norm>
-1.05995

>  <RMSD>
6.947

$$$$
lig.pdb
 OpenBabel11021811453D
libRbt.so/2013.1/901 2013/11/27
 21 23  0  0  0  0  0  0  0  0999 V2000
   -5.9578    1.5415    5.2318 C   0  0  0  0  0  0  0  0  0  0  0  0
   -6.3800    1.7092    3.9836 N   0  0  0  0  0  0  0  0  0  0  0  0
   -6.4490    2.9231    3.4674 C   0  0  0  0  0  0  0  0  0  0  0  0
   -6.1569    3.9955    4.2309 C   0  0  0  0  0  0  0  0  0  0  0  0
   -5.7279    3.8222    5.4882 C   0  0  0  0  0  0  0  0  0  0  0  0
   -5.4419    4.8763    6.2515 N   0  0  0  0  0  0  0  0  0  0  0  0
   -5.6327    2.5932    5.9849 N   0  0  0  0  0  0  0  0  0  0  0  0
   -6.8547    3.0824    2.1967 C   0  0  0  0  0  0  0  0  0  0  0  0
   -7.0947    4.3452    1.7277 C   0  0  0  0  0  0  0  0  0  0  0  0
   -8.2161    4.5319    0.8846 O   0  0  0  0  0  0  0  0  0  0  0  0
   -6.6179    5.3879    2.4275 C   0  0  0  0  0  0  0  0  0  0  0  0
   -6.4258    6.6394    1.7833 O   0  0  0  0  0  0  0  0  0  0  0  0
   -6.2481    5.2286    3.7134 C   0  0  0  0  0  0  0  0  0  0  0  0
   -5.8771    0.3209    5.7327 N   0  0  0  0  0  0  0  0  0  0  0  0
   -7.0168   -0.2154    6.1796 C   0  0  0  0  0  0  0  0  0  0  0  0
   -7.3464    0.3348    7.5590 C   0  0  0  0  0  0  0  0  0  0  0  0
   -6.3365    0.0099    8.4408 N   0  0  0  0  0  0  0  0  0  0  0  0
   -5.1847    0.6085    7.9787 C   0  0  0  0  0  0  0  0  0  0  0  0
   -4.8502    0.0574    6.6026 C   0  0  0  0  0  0  0  0  0  0  0  0
   -7.7720    4.4898   -0.4474 C   0  0  0  0  0  0  0  0  0  0  0  0
   -5.1153    6.6922    1.2830 C   0  0  0  0  0  0  0  0  0  0  0  0
  1 14  1  0  0  0  0
  1  2  2  0  0  0  0
  3  2  1  0  0  0  0
  3  8  2  0  0  0  0
  4  3  1  0  0  0  0
  5  7  2  0  0  0  0
  5  4  1  0  0  0  0
  6  5  1  0  0  0  0
  7  1  1  0  0  0  0
  9 10  1  0  0  0  0
  9  8  1  0  0  0  0
 11  9  2  0  0  0  0
 12 11  1  0  0  0  0
 13  4  2  0  0  0  0
 13 11  1  0  0  0  0
 14 15  1  0  0  0  0
 16 15  1  0  0  0  0
 17 16  1  0  0  0  0
 18 17  1  0  0  0  0
 18 19  1  0  0  0  0
 19 14  1  0  0  0  0
 20 10  1  0  0  0  0
 21 12  1  0  0  0  0
M  END
>  <CHROM.1>
-80.75646190,-96.64908493,-91.10702803,-6.32454696,3.01852630,4.31437150
1.36308169,1.06530809,2.45624853

>  <Name>
lig.pdb

>  <RI>
2.20372e+07

>  <Rbt.Current_Directory>
/home/itssahil/PROJECTS/Mol_Feturizer/New_Systems/rnas/2lwk

>  <Rbt.Executable>
rbdock ($Id: //depot/dev/client3/rdock/2013.1/src/exe/rbdock.cxx#4 $)

>  <Rbt.Library>
libRbt.so (2013.1, Build901 2013/11/27)

>  <Rbt.Parameter_File>
/export/apps/rDock/src/rDock_2013.1_src/data/scripts/dock_solv.prm

>  <Rbt.Receptor>
prm/pocket_docking_7.prm

>  <SCORE>
-22.225

>  <SCORE.INTER>
-17.3341

>  <SCORE.INTER.CONST>
1

>  <SCORE.INTER.POLAR>
-2.08617

>  <SCORE.INTER.ROT>
3

>  <SCORE.INTER.SOLV>
6.44824

>  <SCORE.INTER.VDW>
-12.3516

>  <SCORE.INTER.norm>
-0.825436

>  <SCORE.INTRA>
-4.89082

>  <SCORE.INTRA.DIHEDRAL>
0.972016

>  <SCORE.INTRA.DIHEDRAL.0>
8.84257

>  <SCORE.INTRA.POLAR>
0

>  <SCORE.INTRA.POLAR.0>
0

>  <SCORE.INTRA.REPUL>
0

>  <SCORE.INTRA.REPUL.0>
0

>  <SCORE.INTRA.SOLV>
0.0657116

>  <SCORE.INTRA.SOLV.lig_0>
-17.1313

>  <SCORE.INTRA.VDW>
-5.40969

>  <SCORE.INTRA.VDW.0>
6.34071

>  <SCORE.INTRA.norm>
-0.232896

>  <SCORE.RESTR>
0

>  <SCORE.RESTR.CAVITY>
0

>  <SCORE.RESTR.norm>
0

>  <SCORE.SYSTEM>
0

>  <SCORE.SYSTEM.CONST>
0

>  <SCORE.SYSTEM.DIHEDRAL>
0

>  <SCORE.SYSTEM.SOLV>
0

>  <SCORE.SYSTEM.norm>
0

>  <SCORE.heavy>
21

>  <SCORE.norm>
-1.05833

>  <RMSD>
6.951

$$$$
lig.pdb
 OpenBabel11021811453D
libRbt.so/2013.1/901 2013/11/27
 21 23  0  0  0  0  0  0  0  0999 V2000
   -5.6822    5.7411    2.9633 C   0  0  0  0  0  0  0  0  0  0  0  0
   -5.0029    5.6741    4.1027 N   0  0  0  0  0  0  0  0  0  0  0  0
   -5.1651    4.6399    4.9083 C   0  0  0  0  0  0  0  0  0  0  0  0
   -6.0712    3.6883    4.6058 C   0  0  0  0  0  0  0  0  0  0  0  0
   -6.7518    3.7574    3.4540 C   0  0  0  0  0  0  0  0  0  0  0  0
   -7.6529    2.8242    3.1494 N   0  0  0  0  0  0  0  0  0  0  0  0
   -6.5557    4.7874    2.6373 N   0  0  0  0  0  0  0  0  0  0  0  0
   -4.4570    4.5681    6.0477 C   0  0  0  0  0  0  0  0  0  0  0  0
   -4.7584    3.5925    6.9585 C   0  0  0  0  0  0  0  0  0  0  0  0
   -4.7319    3.9416    8.3298 O   0  0  0  0  0  0  0  0  0  0  0  0
   -5.5145    2.5568    6.5586 C   0  0  0  0  0  0  0  0  0  0  0  0
   -5.4699    1.3330    7.2787 O   0  0  0  0  0  0  0  0  0  0  0  0
   -6.2513    2.6501    5.4343 C   0  0  0  0  0  0  0  0  0  0  0  0
   -5.4999    6.7725    2.1570 N   0  0  0  0  0  0  0  0  0  0  0  0
   -5.7948    6.5794    0.8678 C   0  0  0  0  0  0  0  0  0  0  0  0
   -4.6614    5.8340    0.1794 C   0  0  0  0  0  0  0  0  0  0  0  0
   -3.5034    6.5799    0.2547 N   0  0  0  0  0  0  0  0  0  0  0  0
   -3.2012    6.7282    1.5908 C   0  0  0  0  0  0  0  0  0  0  0  0
   -4.3296    7.4768    2.2804 C   0  0  0  0  0  0  0  0  0  0  0  0
   -3.5339    3.4569    8.8802 C   0  0  0  0  0  0  0  0  0  0  0  0
   -4.3909    0.5704    6.8048 C   0  0  0  0  0  0  0  0  0  0  0  0
  1 14  1  0  0  0  0
  1  2  2  0  0  0  0
  3  2  1  0  0  0  0
  3  8  2  0  0  0  0
  4  3  1  0  0  0  0
  5  7  2  0  0  0  0
  5  4  1  0  0  0  0
  6  5  1  0  0  0  0
  7  1  1  0  0  0  0
  9 10  1  0  0  0  0
  9  8  1  0  0  0  0
 11  9  2  0  0  0  0
 12 11  1  0  0  0  0
 13  4  2  0  0  0  0
 13 11  1  0  0  0  0
 14 15  1  0  0  0  0
 16 15  1  0  0  0  0
 17 16  1  0  0  0  0
 18 17  1  0  0  0  0
 18 19  1  0  0  0  0
 19 14  1  0  0  0  0
 20 10  1  0  0  0  0
 21 12  1  0  0  0  0
M  END
>  <CHROM.1>
156.33306325,-101.97646799,-84.95817062,-5.17220673,4.44392336,4.27106329
1.54608739,-0.77002732,-1.01381791

>  <Name>
lig.pdb

>  <RI>
2.59814e+07

>  <Rbt.Current_Directory>
/home/itssahil/PROJECTS/Mol_Feturizer/New_Systems/rnas/2lwk

>  <Rbt.Executable>
rbdock ($Id: //depot/dev/client3/rdock/2013.1/src/exe/rbdock.cxx#4 $)

>  <Rbt.Library>
libRbt.so (2013.1, Build901 2013/11/27)

>  <Rbt.Parameter_File>
/export/apps/rDock/src/rDock_2013.1_src/data/scripts/dock_solv.prm

>  <Rbt.Receptor>
prm/pocket_docking_6.prm

>  <SCORE>
-21.5843

>  <SCORE.INTER>
-18.1438

>  <SCORE.INTER.CONST>
1

>  <SCORE.INTER.POLAR>
-2.01903

>  <SCORE.INTER.ROT>
3

>  <SCORE.INTER.SOLV>
7.33146

>  <SCORE.INTER.VDW>
-13.4096

>  <SCORE.INTER.norm>
-0.863989

>  <SCORE.INTRA>
-3.44058

>  <SCORE.INTRA.DIHEDRAL>
1.01305

>  <SCORE.INTRA.DIHEDRAL.0>
8.84257

>  <SCORE.INTRA.POLAR>
0

>  <SCORE.INTRA.POLAR.0>
0

>  <SCORE.INTRA.REPUL>
0

>  <SCORE.INTRA.REPUL.0>
0

>  <SCORE.INTRA.SOLV>
-0.0525093

>  <SCORE.INTRA.SOLV.lig_0>
-17.1313

>  <SCORE.INTRA.VDW>
-3.92085

>  <SCORE.INTRA.VDW.0>
6.34071

>  <SCORE.INTRA.norm>
-0.163837

>  <SCORE.RESTR>
0

>  <SCORE.RESTR.CAVITY>
0

>  <SCORE.RESTR.norm>
0

>  <SCORE.SYSTEM>
0

>  <SCORE.SYSTEM.CONST>
0

>  <SCORE.SYSTEM.DIHEDRAL>
0

>  <SCORE.SYSTEM.SOLV>
0

>  <SCORE.SYSTEM.norm>
0

>  <SCORE.heavy>
21

>  <SCORE.norm>
-1.02783

>  <RMSD>
6.969

$$$$
lig.pdb
 OpenBabel11021811453D
libRbt.so/2013.1/901 2013/11/27
 21 23  0  0  0  0  0  0  0  0999 V2000
   -7.5810    0.5462    5.2181 C   0  0  0  0  0  0  0  0  0  0  0  0
   -6.6736    1.2092    5.9262 N   0  0  0  0  0  0  0  0  0  0  0  0
   -6.2260    2.3761    5.4985 C   0  0  0  0  0  0  0  0  0  0  0  0
   -6.6395    2.8595    4.3096 C   0  0  0  0  0  0  0  0  0  0  0  0
   -7.5575    2.1897    3.6000 C   0  0  0  0  0  0  0  0  0  0  0  0
   -7.9681    2.6574    2.4217 N   0  0  0  0  0  0  0  0  0  0  0  0
   -8.0231    1.0320    4.0574 N   0  0  0  0  0  0  0  0  0  0  0  0
   -5.3257    3.0515    6.2320 C   0  0  0  0  0  0  0  0  0  0  0  0
   -4.7353    4.1657    5.7008 C   0  0  0  0  0  0  0  0  0  0  0  0
   -3.3557    4.3611    5.9490 O   0  0  0  0  0  0  0  0  0  0  0  0
   -5.2946    4.7302    4.6179 C   0  0  0  0  0  0  0  0  0  0  0  0
   -5.0263    6.0922    4.3160 O   0  0  0  0  0  0  0  0  0  0  0  0
   -6.1686    4.0333    3.8655 C   0  0  0  0  0  0  0  0  0  0  0  0
   -8.0339   -0.6129    5.6638 N   0  0  0  0  0  0  0  0  0  0  0  0
   -7.4919   -1.7100    5.1263 C   0  0  0  0  0  0  0  0  0  0  0  0
   -8.1122   -1.9849    3.7649 C   0  0  0  0  0  0  0  0  0  0  0  0
   -9.4684   -2.1937    3.9073 N   0  0  0  0  0  0  0  0  0  0  0  0
  -10.0063   -1.0351    4.4237 C   0  0  0  0  0  0  0  0  0  0  0  0
   -9.3919   -0.7602    5.7861 C   0  0  0  0  0  0  0  0  0  0  0  0
   -2.6327    3.5932    5.0213 C   0  0  0  0  0  0  0  0  0  0  0  0
   -4.4985    6.1704    3.0177 C   0  0  0  0  0  0  0  0  0  0  0  0
  1 14  1  0  0  0  0
  1  2  2  0  0  0  0
  3  2  1  0  0  0  0
  3  8  2  0  0  0  0
  4  3  1  0  0  0  0
  5  7  2  0  0  0  0
  5  4  1  0  0  0  0
  6  5  1  0  0  0  0
  7  1  1  0  0  0  0
  9 10  1  0  0  0  0
  9  8  1  0  0  0  0
 11  9  2  0  0  0  0
 12 11  1  0  0  0  0
 13  4  2  0  0  0  0
 13 11  1  0  0  0  0
 14 15  1  0  0  0  0
 16 15  1  0  0  0  0
 17 16  1  0  0  0  0
 18 17  1  0  0  0  0
 18 19  1  0  0  0  0
 19 14  1  0  0  0  0
 20 10  1  0  0  0  0
 21 12  1  0  0  0  0
M  END
>  <CHROM.1>
-99.44806631,82.41652078,123.45513426,-6.66219478,1.94850411,4.65983497,-2.40651741
-0.66181679,-0.59113756

>  <Name>
lig.pdb

>  <RI>
1.4775e+07

>  <Rbt.Current_Directory>
/home/itssahil/PROJECTS/Mol_Feturizer/New_Systems/rnas/2lwk

>  <Rbt.Executable>
rbdock ($Id: //depot/dev/client3/rdock/2013.1/src/exe/rbdock.cxx#4 $)

>  <Rbt.Library>
libRbt.so (2013.1, Build901 2013/11/27)

>  <Rbt.Parameter_File>
/export/apps/rDock/src/rDock_2013.1_src/data/scripts/dock_solv.prm

>  <Rbt.Receptor>
prm/pocket_docking_4.prm

>  <SCORE>
-15.6718

>  <SCORE.INTER>
-12.2955

>  <SCORE.INTER.CONST>
1

>  <SCORE.INTER.POLAR>
-1.32944

>  <SCORE.INTER.ROT>
3

>  <SCORE.INTER.SOLV>
7.37678

>  <SCORE.INTER.VDW>
-11.8245

>  <SCORE.INTER.norm>
-0.5855

>  <SCORE.INTRA>
-3.50633

>  <SCORE.INTRA.DIHEDRAL>
-0.311759

>  <SCORE.INTRA.DIHEDRAL.0>
8.84257

>  <SCORE.INTRA.POLAR>
0

>  <SCORE.INTRA.POLAR.0>
0

>  <SCORE.INTRA.REPUL>
0

>  <SCORE.INTRA.REPUL.0>
0

>  <SCORE.INTRA.SOLV>
0.0686041

>  <SCORE.INTRA.SOLV.lig_0>
-17.1313

>  <SCORE.INTRA.VDW>
-3.38475

>  <SCORE.INTRA.VDW.0>
6.34071

>  <SCORE.INTRA.norm>
-0.166968

>  <SCORE.RESTR>
0.130072

>  <SCORE.RESTR.CAVITY>
0.130072

>  <SCORE.RESTR.norm>
0.00619393

>  <SCORE.SYSTEM>
0

>  <SCORE.SYSTEM.CONST>
0

>  <SCORE.SYSTEM.DIHEDRAL>
0

>  <SCORE.SYSTEM.SOLV>
0

>  <SCORE.SYSTEM.norm>
0

>  <SCORE.heavy>
21

>  <SCORE.norm>
-0.746274

>  <RMSD>
6.980

$$$$
lig.pdb
 OpenBabel11021811453D
libRbt.so/2013.1/901 2013/11/27
 21 23  0  0  0  0  0  0  0  0999 V2000
   -5.8858    6.3441    1.2667 C   0  0  0  0  0  0  0  0  0  0  0  0
   -5.4246    6.1164    2.4913 N   0  0  0  0  0  0  0  0  0  0  0  0
   -5.8424    5.0621    3.1687 C   0  0  0  0  0  0  0  0  0  0  0  0
   -6.7880    4.2573    2.6431 C   0  0  0  0  0  0  0  0  0  0  0  0
   -7.2481    4.4881    1.4062 C   0  0  0  0  0  0  0  0  0  0  0  0
   -8.1863    3.7011    0.8810 N   0  0  0  0  0  0  0  0  0  0  0  0
   -6.7958    5.5346    0.7232 N   0  0  0  0  0  0  0  0  0  0  0  0
   -5.3535    4.8258    4.3975 C   0  0  0  0  0  0  0  0  0  0  0  0
   -5.9187    3.8408    5.1607 C   0  0  0  0  0  0  0  0  0  0  0  0
   -6.0873    4.0944    6.5429 O   0  0  0  0  0  0  0  0  0  0  0  0
   -6.7107    2.9397    4.5566 C   0  0  0  0  0  0  0  0  0  0  0  0
   -6.9336    1.6766    5.1674 O   0  0  0  0  0  0  0  0  0  0  0  0
   -7.2277    3.2000    3.3398 C   0  0  0  0  0  0  0  0  0  0  0  0
   -5.4486    7.3931    0.5916 N   0  0  0  0  0  0  0  0  0  0  0  0
   -4.1235    7.5039    0.4569 C   0  0  0  0  0  0  0  0  0  0  0  0
   -3.5145    8.0646    1.7331 C   0  0  0  0  0  0  0  0  0  0  0  0
   -4.0337    9.3182    1.9822 N   0  0  0  0  0  0  0  0  0  0  0  0
   -5.3922    9.1685    2.1573 C   0  0  0  0  0  0  0  0  0  0  0  0
   -6.0042    8.6128    0.8822 C   0  0  0  0  0  0  0  0  0  0  0  0
   -4.9686    3.5814    7.2201 C   0  0  0  0  0  0  0  0  0  0  0  0
   -5.8209    0.8561    4.9247 C   0  0  0  0  0  0  0  0  0  0  0  0
  1 14  1  0  0  0  0
  1  2  2  0  0  0  0
  3  2  1  0  0  0  0
  3  8  2  0  0  0  0
  4  3  1  0  0  0  0
  5  7  2  0  0  0  0
  5  4  1  0  0  0  0
  6  5  1  0  0  0  0
  7  1  1  0  0  0  0
  9 10  1  0  0  0  0
  9  8  1  0  0  0  0
 11  9  2  0  0  0  0
 12 11  1  0  0  0  0
 13  4  2  0  0  0  0
 13 11  1  0  0  0  0
 14 15  1  0  0  0  0
 16 15  1  0  0  0  0
 17 16  1  0  0  0  0
 18 17  1  0  0  0  0
 18 19  1  0  0  0  0
 19 14  1  0  0  0  0
 20 10  1  0  0  0  0
 21 12  1  0  0  0  0
M  END
>  <CHROM.1>
54.18210762,-93.99077311,-79.02640654,-5.88265357,5.25666778,2.96843075,1.24671657
-0.93983629,-0.89929439

>  <Name>
lig.pdb

>  <RI>
2.75338e+07

>  <Rbt.Current_Directory>
/home/itssahil/PROJECTS/Mol_Feturizer/New_Systems/rnas/2lwk

>  <Rbt.Executable>
rbdock ($Id: //depot/dev/client3/rdock/2013.1/src/exe/rbdock.cxx#4 $)

>  <Rbt.Library>
libRbt.so (2013.1, Build901 2013/11/27)

>  <Rbt.Parameter_File>
/export/apps/rDock/src/rDock_2013.1_src/data/scripts/dock_solv.prm

>  <Rbt.Receptor>
prm/pocket_docking_8.prm

>  <SCORE>
-31.0169

>  <SCORE.INTER>
-25.879

>  <SCORE.INTER.CONST>
1

>  <SCORE.INTER.POLAR>
-3.57404

>  <SCORE.INTER.ROT>
3

>  <SCORE.INTER.SOLV>
7.58579

>  <SCORE.INTER.VDW>
-13.4678

>  <SCORE.INTER.norm>
-1.23233

>  <SCORE.INTRA>
-5.13788

>  <SCORE.INTRA.DIHEDRAL>
0.816634

>  <SCORE.INTRA.DIHEDRAL.0>
8.84257

>  <SCORE.INTRA.POLAR>
0

>  <SCORE.INTRA.POLAR.0>
0

>  <SCORE.INTRA.REPUL>
0

>  <SCORE.INTRA.REPUL.0>
0

>  <SCORE.INTRA.SOLV>
0.0932839

>  <SCORE.INTRA.SOLV.lig_0>
-17.1313

>  <SCORE.INTRA.VDW>
-5.59284

>  <SCORE.INTRA.VDW.0>
6.34071

>  <SCORE.INTRA.norm>
-0.244661

>  <SCORE.RESTR>
0

>  <SCORE.RESTR.CAVITY>
0

>  <SCORE.RESTR.norm>
0

>  <SCORE.SYSTEM>
0

>  <SCORE.SYSTEM.CONST>
0

>  <SCORE.SYSTEM.DIHEDRAL>
0

>  <SCORE.SYSTEM.SOLV>
0

>  <SCORE.SYSTEM.norm>
0

>  <SCORE.heavy>
21

>  <SCORE.norm>
-1.47699

>  <RMSD>
6.989

$$$$
lig.pdb
 OpenBabel11021811453D
libRbt.so/2013.1/901 2013/11/27
 21 23  0  0  0  0  0  0  0  0999 V2000
   -5.6066    4.7228    2.6541 C   0  0  0  0  0  0  0  0  0  0  0  0
   -5.7568    3.5630    3.2838 N   0  0  0  0  0  0  0  0  0  0  0  0
   -5.1565    3.3583    4.4425 C   0  0  0  0  0  0  0  0  0  0  0  0
   -4.3368    4.3008    4.9504 C   0  0  0  0  0  0  0  0  0  0  0  0
   -4.1907    5.4708    4.3142 C   0  0  0  0  0  0  0  0  0  0  0  0
   -3.3787    6.4058    4.8060 N   0  0  0  0  0  0  0  0  0  0  0  0
   -4.8257    5.6758    3.1648 N   0  0  0  0  0  0  0  0  0  0  0  0
   -5.3323    2.1914    5.0845 C   0  0  0  0  0  0  0  0  0  0  0  0
   -4.5708    1.9172    6.1878 C   0  0  0  0  0  0  0  0  0  0  0  0
   -4.0877    0.5959    6.3421 O   0  0  0  0  0  0  0  0  0  0  0  0
   -3.9158    2.9297    6.7796 C   0  0  0  0  0  0  0  0  0  0  0  0
   -3.5137    2.8103    8.1368 O   0  0  0  0  0  0  0  0  0  0  0  0
   -3.7106    4.0840    6.1155 C   0  0  0  0  0  0  0  0  0  0  0  0
   -6.2251    4.9229    1.5031 N   0  0  0  0  0  0  0  0  0  0  0  0
   -7.5519    4.7628    1.5050 C   0  0  0  0  0  0  0  0  0  0  0  0
   -7.8990    3.2832    1.4404 C   0  0  0  0  0  0  0  0  0  0  0  0
   -7.3959    2.7398    0.2765 N   0  0  0  0  0  0  0  0  0  0  0  0
   -6.0260    2.8815    0.3202 C   0  0  0  0  0  0  0  0  0  0  0  0
   -5.6761    4.3590    0.3800 C   0  0  0  0  0  0  0  0  0  0  0  0
   -4.9581   -0.0885    7.2065 C   0  0  0  0  0  0  0  0  0  0  0  0
   -4.5021    3.3839    8.9518 C   0  0  0  0  0  0  0  0  0  0  0  0
  1 14  1  0  0  0  0
  1  2  2  0  0  0  0
  3  2  1  0  0  0  0
  3  8  2  0  0  0  0
  4  3  1  0  0  0  0
  5  7  2  0  0  0  0
  5  4  1  0  0  0  0
  6  5  1  0  0  0  0
  7  1  1  0  0  0  0
  9 10  1  0  0  0  0
  9  8  1  0  0  0  0
 11  9  2  0  0  0  0
 12 11  1  0  0  0  0
 13  4  2  0  0  0  0
 13 11  1  0  0  0  0
 14 15  1  0  0  0  0
 16 15  1  0  0  0  0
 17 16  1  0  0  0  0
 18 17  1  0  0  0  0
 18 19  1  0  0  0  0
 19 14  1  0  0  0  0
 20 10  1  0  0  0  0
 21 12  1  0  0  0  0
M  END
>  <CHROM.1>
55.93941850,-97.13824996,-94.27714546,-5.17235290,3.51100484,4.20214863,-2.33479806
1.02949358,2.51552134

>  <Name>
lig.pdb

>  <RI>
2.20372e+07

>  <Rbt.Current_Directory>
/home/itssahil/PROJECTS/Mol_Feturizer/New_Systems/rnas/2lwk

>  <Rbt.Executable>
rbdock ($Id: //depot/dev/client3/rdock/2013.1/src/exe/rbdock.cxx#4 $)

>  <Rbt.Library>
libRbt.so (2013.1, Build901 2013/11/27)

>  <Rbt.Parameter_File>
/export/apps/rDock/src/rDock_2013.1_src/data/scripts/dock_solv.prm

>  <Rbt.Receptor>
prm/pocket_docking_7.prm

>  <SCORE>
-18.6103

>  <SCORE.INTER>
-13.4541

>  <SCORE.INTER.CONST>
1

>  <SCORE.INTER.POLAR>
-1.36266

>  <SCORE.INTER.ROT>
3

>  <SCORE.INTER.SOLV>
6.86755

>  <SCORE.INTER.VDW>
-12.3164

>  <SCORE.INTER.norm>
-0.640673

>  <SCORE.INTRA>
-5.15613

>  <SCORE.INTRA.DIHEDRAL>
0.93181

>  <SCORE.INTRA.DIHEDRAL.0>
8.84257

>  <SCORE.INTRA.POLAR>
0

>  <SCORE.INTRA.POLAR.0>
0

>  <SCORE.INTRA.REPUL>
0

>  <SCORE.INTRA.REPUL.0>
0

>  <SCORE.INTRA.SOLV>
0.0880124

>  <SCORE.INTRA.SOLV.lig_0>
-17.1313

>  <SCORE.INTRA.VDW>
-5.66604

>  <SCORE.INTRA.VDW.0>
6.34071

>  <SCORE.INTRA.norm>
-0.24553

>  <SCORE.RESTR>
0

>  <SCORE.RESTR.CAVITY>
0

>  <SCORE.RESTR.norm>
0

>  <SCORE.SYSTEM>
0

>  <SCORE.SYSTEM.CONST>
0

>  <SCORE.SYSTEM.DIHEDRAL>
0

>  <SCORE.SYSTEM.SOLV>
0

>  <SCORE.SYSTEM.norm>
0

>  <SCORE.heavy>
21

>  <SCORE.norm>
-0.886203

>  <RMSD>
6.990

$$$$
lig.pdb
 OpenBabel11021811453D
libRbt.so/2013.1/901 2013/11/27
 21 23  0  0  0  0  0  0  0  0999 V2000
   -6.5471    1.4376    5.6538 C   0  0  0  0  0  0  0  0  0  0  0  0
   -6.6766    1.6249    4.3452 N   0  0  0  0  0  0  0  0  0  0  0  0
   -6.3348    2.7817    3.8068 C   0  0  0  0  0  0  0  0  0  0  0  0
   -5.9205    3.7937    4.5956 C   0  0  0  0  0  0  0  0  0  0  0  0
   -5.7876    3.5998    5.9146 C   0  0  0  0  0  0  0  0  0  0  0  0
   -5.3837    4.5957    6.7024 N   0  0  0  0  0  0  0  0  0  0  0  0
   -6.1049    2.4207    6.4391 N   0  0  0  0  0  0  0  0  0  0  0  0
   -6.4467    2.9553    2.4793 C   0  0  0  0  0  0  0  0  0  0  0  0
   -6.2633    4.2051    1.9535 C   0  0  0  0  0  0  0  0  0  0  0  0
   -7.1251    4.6118    0.9071 O   0  0  0  0  0  0  0  0  0  0  0  0
   -5.6697    5.1381    2.7160 C   0  0  0  0  0  0  0  0  0  0  0  0
   -5.0471    6.2576    2.1018 O   0  0  0  0  0  0  0  0  0  0  0  0
   -5.5946    4.9745    4.0514 C   0  0  0  0  0  0  0  0  0  0  0  0
   -6.8767    0.2705    6.1796 N   0  0  0  0  0  0  0  0  0  0  0  0
   -6.2345   -0.7999    5.7020 C   0  0  0  0  0  0  0  0  0  0  0  0
   -6.8408   -1.2217    4.3722 C   0  0  0  0  0  0  0  0  0  0  0  0
   -8.1676   -1.5538    4.5526 N   0  0  0  0  0  0  0  0  0  0  0  0
   -8.8121   -0.4232    5.0050 C   0  0  0  0  0  0  0  0  0  0  0  0
   -8.2117   -0.0020    6.3360 C   0  0  0  0  0  0  0  0  0  0  0  0
   -6.5122    4.2863   -0.3141 C   0  0  0  0  0  0  0  0  0  0  0  0
   -5.7629    7.4154    2.4444 C   0  0  0  0  0  0  0  0  0  0  0  0
  1 14  1  0  0  0  0
  1  2  2  0  0  0  0
  3  2  1  0  0  0  0
  3  8  2  0  0  0  0
  4  3  1  0  0  0  0
  5  7  2  0  0  0  0
  5  4  1  0  0  0  0
  6  5  1  0  0  0  0
  7  1  1  0  0  0  0
  9 10  1  0  0  0  0
  9  8  1  0  0  0  0
 11  9  2  0  0  0  0
 12 11  1  0  0  0  0
 13  4  2  0  0  0  0
 13 11  1  0  0  0  0
 14 15  1  0  0  0  0
 16 15  1  0  0  0  0
 17 16  1  0  0  0  0
 18 17  1  0  0  0  0
 18 19  1  0  0  0  0
 19 14  1  0  0  0  0
 20 10  1  0  0  0  0
 21 12  1  0  0  0  0
M  END
>  <CHROM.1>
58.15482192,-92.49138931,113.42470104,-6.50136269,2.69953974,4.06421311,-2.15818523
-1.17333632,-1.07379849

>  <Name>
lig.pdb

>  <RI>
2.59814e+07

>  <Rbt.Current_Directory>
/home/itssahil/PROJECTS/Mol_Feturizer/New_Systems/rnas/2lwk

>  <Rbt.Executable>
rbdock ($Id: //depot/dev/client3/rdock/2013.1/src/exe/rbdock.cxx#4 $)

>  <Rbt.Library>
libRbt.so (2013.1, Build901 2013/11/27)

>  <Rbt.Parameter_File>
/export/apps/rDock/src/rDock_2013.1_src/data/scripts/dock_solv.prm

>  <Rbt.Receptor>
prm/pocket_docking_6.prm

>  <SCORE>
-18.4906

>  <SCORE.INTER>
-13.5101

>  <SCORE.INTER.CONST>
1

>  <SCORE.INTER.POLAR>
-1.53264

>  <SCORE.INTER.ROT>
3

>  <SCORE.INTER.SOLV>
6.26229

>  <SCORE.INTER.VDW>
-11.5854

>  <SCORE.INTER.norm>
-0.643338

>  <SCORE.INTRA>
-4.98048

>  <SCORE.INTRA.DIHEDRAL>
0.256221

>  <SCORE.INTRA.DIHEDRAL.0>
8.84257

>  <SCORE.INTRA.POLAR>
0

>  <SCORE.INTRA.POLAR.0>
0

>  <SCORE.INTRA.REPUL>
0

>  <SCORE.INTRA.REPUL.0>
0

>  <SCORE.INTRA.SOLV>
0.122191

>  <SCORE.INTRA.SOLV.lig_0>
-17.1313

>  <SCORE.INTRA.VDW>
-5.16968

>  <SCORE.INTRA.VDW.0>
6.34071

>  <SCORE.INTRA.norm>
-0.237166

>  <SCORE.RESTR>
0

>  <SCORE.RESTR.CAVITY>
0

>  <SCORE.RESTR.norm>
0

>  <SCORE.SYSTEM>
0

>  <SCORE.SYSTEM.CONST>
0

>  <SCORE.SYSTEM.DIHEDRAL>
0

>  <SCORE.SYSTEM.SOLV>
0

>  <SCORE.SYSTEM.norm>
0

>  <SCORE.heavy>
21

>  <SCORE.norm>
-0.880503

>  <RMSD>
6.994

$$$$
lig.pdb
 OpenBabel11021811453D
libRbt.so/2013.1/901 2013/11/27
 21 23  0  0  0  0  0  0  0  0999 V2000
   -7.4729    0.5210    5.0052 C   0  0  0  0  0  0  0  0  0  0  0  0
   -7.4765    1.2818    3.9165 N   0  0  0  0  0  0  0  0  0  0  0  0
   -6.8665    2.4534    3.9278 C   0  0  0  0  0  0  0  0  0  0  0  0
   -6.3008    2.9055    5.0652 C   0  0  0  0  0  0  0  0  0  0  0  0
   -6.2960    2.1337    6.1603 C   0  0  0  0  0  0  0  0  0  0  0  0
   -5.7439    2.5744    7.2901 N   0  0  0  0  0  0  0  0  0  0  0  0
   -6.8859    0.9433    6.1259 N   0  0  0  0  0  0  0  0  0  0  0  0
   -6.8545    3.2067    2.8155 C   0  0  0  0  0  0  0  0  0  0  0  0
   -6.3803    4.4884    2.8845 C   0  0  0  0  0  0  0  0  0  0  0  0
   -7.0693    5.4851    2.1531 O   0  0  0  0  0  0  0  0  0  0  0  0
   -5.6546    4.8441    3.9573 C   0  0  0  0  0  0  0  0  0  0  0  0
   -4.7736    5.9554    3.8743 O   0  0  0  0  0  0  0  0  0  0  0  0
   -5.7009    4.1040    5.0823 C   0  0  0  0  0  0  0  0  0  0  0  0
   -8.0724   -0.6568    4.9777 N   0  0  0  0  0  0  0  0  0  0  0  0
   -9.2830   -0.6951    4.4128 C   0  0  0  0  0  0  0  0  0  0  0  0
  -10.3303   -0.1789    5.3879 C   0  0  0  0  0  0  0  0  0  0  0  0
  -10.3487   -0.9768    6.5131 N   0  0  0  0  0  0  0  0  0  0  0  0
   -9.1038   -0.8861    7.0966 C   0  0  0  0  0  0  0  0  0  0  0  0
   -8.0559   -1.4056    6.1265 C   0  0  0  0  0  0  0  0  0  0  0  0
   -6.3911    5.6822    0.9388 C   0  0  0  0  0  0  0  0  0  0  0  0
   -3.4985    5.4936    3.5121 C   0  0  0  0  0  0  0  0  0  0  0  0
  1 14  1  0  0  0  0
  1  2  2  0  0  0  0
  3  2  1  0  0  0  0
  3  8  2  0  0  0  0
  4  3  1  0  0  0  0
  5  7  2  0  0  0  0
  5  4  1  0  0  0  0
  6  5  1  0  0  0  0
  7  1  1  0  0  0  0
  9 10  1  0  0  0  0
  9  8  1  0  0  0  0
 11  9  2  0  0  0  0
 12 11  1  0  0  0  0
 13  4  2  0  0  0  0
 13 11  1  0  0  0  0
 14 15  1  0  0  0  0
 16 15  1  0  0  0  0
 17 16  1  0  0  0  0
 18 17  1  0  0  0  0
 18 19  1  0  0  0  0
 19 14  1  0  0  0  0
 20 10  1  0  0  0  0
 21 12  1  0  0  0  0
M  END
>  <CHROM.1>
-44.96862730,-97.56406908,-92.68055535,-7.07543231,2.27465710,4.62853898
2.23709575,0.71049867,2.21318028

>  <Name>
lig.pdb

>  <RI>
1.4775e+07

>  <Rbt.Current_Directory>
/home/itssahil/PROJECTS/Mol_Feturizer/New_Systems/rnas/2lwk

>  <Rbt.Executable>
rbdock ($Id: //depot/dev/client3/rdock/2013.1/src/exe/rbdock.cxx#4 $)

>  <Rbt.Library>
libRbt.so (2013.1, Build901 2013/11/27)

>  <Rbt.Parameter_File>
/export/apps/rDock/src/rDock_2013.1_src/data/scripts/dock_solv.prm

>  <Rbt.Receptor>
prm/pocket_docking_4.prm

>  <SCORE>
-16.8429

>  <SCORE.INTER>
-13.1756

>  <SCORE.INTER.CONST>
1

>  <SCORE.INTER.POLAR>
-1.23145

>  <SCORE.INTER.ROT>
3

>  <SCORE.INTER.SOLV>
6.11913

>  <SCORE.INTER.VDW>
-12.3186

>  <SCORE.INTER.norm>
-0.627412

>  <SCORE.INTRA>
-3.7735

>  <SCORE.INTRA.DIHEDRAL>
0.952965

>  <SCORE.INTRA.DIHEDRAL.0>
8.84257

>  <SCORE.INTRA.POLAR>
0

>  <SCORE.INTRA.POLAR.0>
0

>  <SCORE.INTRA.REPUL>
0

>  <SCORE.INTRA.REPUL.0>
0

>  <SCORE.INTRA.SOLV>
-0.0152226

>  <SCORE.INTRA.SOLV.lig_0>
-17.1313

>  <SCORE.INTRA.VDW>
-4.24237

>  <SCORE.INTRA.VDW.0>
6.34071

>  <SCORE.INTRA.norm>
-0.17969

>  <SCORE.RESTR>
0.106243

>  <SCORE.RESTR.CAVITY>
0.106243

>  <SCORE.RESTR.norm>
0.0050592

>  <SCORE.SYSTEM>
0

>  <SCORE.SYSTEM.CONST>
0

>  <SCORE.SYSTEM.DIHEDRAL>
0

>  <SCORE.SYSTEM.SOLV>
0

>  <SCORE.SYSTEM.norm>
0

>  <SCORE.heavy>
21

>  <SCORE.norm>
-0.802043

>  <RMSD>
6.999

$$$$
lig.pdb
 OpenBabel11021811453D
libRbt.so/2013.1/901 2013/11/27
 21 23  0  0  0  0  0  0  0  0999 V2000
   -8.0248    0.5934    4.5890 C   0  0  0  0  0  0  0  0  0  0  0  0
   -7.7077    1.6827    3.8982 N   0  0  0  0  0  0  0  0  0  0  0  0
   -6.7004    2.4424    4.2891 C   0  0  0  0  0  0  0  0  0  0  0  0
   -6.0399    2.1491    5.4275 C   0  0  0  0  0  0  0  0  0  0  0  0
   -6.3601    1.0476    6.1195 C   0  0  0  0  0  0  0  0  0  0  0  0
   -5.7162    0.7528    7.2483 N   0  0  0  0  0  0  0  0  0  0  0  0
   -7.3553    0.2745    5.6975 N   0  0  0  0  0  0  0  0  0  0  0  0
   -6.3711    3.5296    3.5719 C   0  0  0  0  0  0  0  0  0  0  0  0
   -5.4494    4.4061    4.0765 C   0  0  0  0  0  0  0  0  0  0  0  0
   -5.6879    5.7892    3.8939 O   0  0  0  0  0  0  0  0  0  0  0  0
   -4.6754    4.0018    5.0971 C   0  0  0  0  0  0  0  0  0  0  0  0
   -3.4373    4.6536    5.3428 O   0  0  0  0  0  0  0  0  0  0  0  0
   -5.0318    2.9326    5.8356 C   0  0  0  0  0  0  0  0  0  0  0  0
   -9.0243   -0.1685    4.1794 N   0  0  0  0  0  0  0  0  0  0  0  0
  -10.2520    0.2139    4.5436 C   0  0  0  0  0  0  0  0  0  0  0  0
  -10.5210   -0.1978    5.9831 C   0  0  0  0  0  0  0  0  0  0  0  0
  -10.4407   -1.5704    6.0951 N   0  0  0  0  0  0  0  0  0  0  0  0
   -9.1557   -1.9320    5.7540 C   0  0  0  0  0  0  0  0  0  0  0  0
   -8.8855   -1.5262    4.3147 C   0  0  0  0  0  0  0  0  0  0  0  0
   -5.2638    6.1379    2.6009 C   0  0  0  0  0  0  0  0  0  0  0  0
   -2.4583    4.0905    4.5092 C   0  0  0  0  0  0  0  0  0  0  0  0
  1 14  1  0  0  0  0
  1  2  2  0  0  0  0
  3  2  1  0  0  0  0
  3  8  2  0  0  0  0
  4  3  1  0  0  0  0
  5  7  2  0  0  0  0
  5  4  1  0  0  0  0
  6  5  1  0  0  0  0
  7  1  1  0  0  0  0
  9 10  1  0  0  0  0
  9  8  1  0  0  0  0
 11  9  2  0  0  0  0
 12 11  1  0  0  0  0
 13  4  2  0  0  0  0
 13 11  1  0  0  0  0
 14 15  1  0  0  0  0
 16 15  1  0  0  0  0
 17 16  1  0  0  0  0
 18 17  1  0  0  0  0
 18 19  1  0  0  0  0
 19 14  1  0  0  0  0
 20 10  1  0  0  0  0
 21 12  1  0  0  0  0
M  END
>  <CHROM.1>
-83.16994285,-81.70261725,-83.88127567,-6.87231227,1.88463011,4.91694163
2.41109653,0.47385466,2.48719319

>  <Name>
lig.pdb

>  <RI>
1.4775e+07

>  <Rbt.Current_Directory>
/home/itssahil/PROJECTS/Mol_Feturizer/New_Systems/rnas/2lwk

>  <Rbt.Executable>
rbdock ($Id: //depot/dev/client3/rdock/2013.1/src/exe/rbdock.cxx#4 $)

>  <Rbt.Library>
libRbt.so (2013.1, Build901 2013/11/27)

>  <Rbt.Parameter_File>
/export/apps/rDock/src/rDock_2013.1_src/data/scripts/dock_solv.prm

>  <Rbt.Receptor>
prm/pocket_docking_4.prm

>  <SCORE>
-14.3642

>  <SCORE.INTER>
-9.5252

>  <SCORE.INTER.CONST>
1

>  <SCORE.INTER.POLAR>
-0.690249

>  <SCORE.INTER.ROT>
3

>  <SCORE.INTER.SOLV>
5.91269

>  <SCORE.INTER.VDW>
-11.6202

>  <SCORE.INTER.norm>
-0.453581

>  <SCORE.INTRA>
-4.83902

>  <SCORE.INTRA.DIHEDRAL>
0.465228

>  <SCORE.INTRA.DIHEDRAL.0>
8.84257

>  <SCORE.INTRA.POLAR>
0

>  <SCORE.INTRA.POLAR.0>
0

>  <SCORE.INTRA.REPUL>
0

>  <SCORE.INTRA.REPUL.0>
0

>  <SCORE.INTRA.SOLV>
0.0593412

>  <SCORE.INTRA.SOLV.lig_0>
-17.1313

>  <SCORE.INTRA.VDW>
-5.10131

>  <SCORE.INTRA.VDW.0>
6.34071

>  <SCORE.INTRA.norm>
-0.23043

>  <SCORE.RESTR>
0

>  <SCORE.RESTR.CAVITY>
0

>  <SCORE.RESTR.norm>
0

>  <SCORE.SYSTEM>
0

>  <SCORE.SYSTEM.CONST>
0

>  <SCORE.SYSTEM.DIHEDRAL>
0

>  <SCORE.SYSTEM.SOLV>
0

>  <SCORE.SYSTEM.norm>
0

>  <SCORE.heavy>
21

>  <SCORE.norm>
-0.684011

>  <RMSD>
7.000

$$$$
lig.pdb
 OpenBabel11021811453D
libRbt.so/2013.1/901 2013/11/27
 21 23  0  0  0  0  0  0  0  0999 V2000
   -6.7535    1.3181    4.7032 C   0  0  0  0  0  0  0  0  0  0  0  0
   -7.1566    1.7789    3.5245 N   0  0  0  0  0  0  0  0  0  0  0  0
   -6.9505    3.0438    3.2045 C   0  0  0  0  0  0  0  0  0  0  0  0
   -6.3936    3.8818    4.1021 C   0  0  0  0  0  0  0  0  0  0  0  0
   -5.9849    3.4125    5.2886 C   0  0  0  0  0  0  0  0  0  0  0  0
   -5.4382    4.2345    6.1837 N   0  0  0  0  0  0  0  0  0  0  0  0
   -6.1697    2.1303    5.5854 N   0  0  0  0  0  0  0  0  0  0  0  0
   -7.3402    3.4964    2.0011 C   0  0  0  0  0  0  0  0  0  0  0  0
   -7.2875    4.8397    1.7461 C   0  0  0  0  0  0  0  0  0  0  0  0
   -8.3546    5.4129    1.0141 O   0  0  0  0  0  0  0  0  0  0  0  0
   -6.5597    5.6173    2.5647 C   0  0  0  0  0  0  0  0  0  0  0  0
   -6.0944    6.8793    2.1075 O   0  0  0  0  0  0  0  0  0  0  0  0
   -6.2045    5.1704    3.7852 C   0  0  0  0  0  0  0  0  0  0  0  0
   -6.9502    0.0466    5.0064 N   0  0  0  0  0  0  0  0  0  0  0  0
   -8.0478   -0.5230    4.4994 C   0  0  0  0  0  0  0  0  0  0  0  0
   -9.2659   -0.1327    5.3227 C   0  0  0  0  0  0  0  0  0  0  0  0
   -9.1073   -0.5709    6.6211 N   0  0  0  0  0  0  0  0  0  0  0  0
   -7.9949    0.0622    7.1312 C   0  0  0  0  0  0  0  0  0  0  0  0
   -6.7754   -0.3296    6.3136 C   0  0  0  0  0  0  0  0  0  0  0  0
   -7.9675    5.4890   -0.3340 C   0  0  0  0  0  0  0  0  0  0  0  0
   -4.8424    6.7040    1.4977 C   0  0  0  0  0  0  0  0  0  0  0  0
  1 14  1  0  0  0  0
  1  2  2  0  0  0  0
  3  2  1  0  0  0  0
  3  8  2  0  0  0  0
  4  3  1  0  0  0  0
  5  7  2  0  0  0  0
  5  4  1  0  0  0  0
  6  5  1  0  0  0  0
  7  1  1  0  0  0  0
  9 10  1  0  0  0  0
  9  8  1  0  0  0  0
 11  9  2  0  0  0  0
 12 11  1  0  0  0  0
 13  4  2  0  0  0  0
 13 11  1  0  0  0  0
 14 15  1  0  0  0  0
 16 15  1  0  0  0  0
 17 16  1  0  0  0  0
 18 17  1  0  0  0  0
 18 19  1  0  0  0  0
 19 14  1  0  0  0  0
 20 10  1  0  0  0  0
 21 12  1  0  0  0  0
M  END
>  <CHROM.1>
-32.54523130,-96.70975371,-89.10361115,-7.04135443,2.97156953,3.89085613
-1.80779608,-0.82172305,-0.81274808

>  <Name>
lig.pdb

>  <RI>
2.20372e+07

>  <Rbt.Current_Directory>
/home/itssahil/PROJECTS/Mol_Feturizer/New_Systems/rnas/2lwk

>  <Rbt.Executable>
rbdock ($Id: //depot/dev/client3/rdock/2013.1/src/exe/rbdock.cxx#4 $)

>  <Rbt.Library>
libRbt.so (2013.1, Build901 2013/11/27)

>  <Rbt.Parameter_File>
/export/apps/rDock/src/rDock_2013.1_src/data/scripts/dock_solv.prm

>  <Rbt.Receptor>
prm/pocket_docking_7.prm

>  <SCORE>
-20.5301

>  <SCORE.INTER>
-17.0179

>  <SCORE.INTER.CONST>
1

>  <SCORE.INTER.POLAR>
-1.60655

>  <SCORE.INTER.ROT>
3

>  <SCORE.INTER.SOLV>
7.8467

>  <SCORE.INTER.VDW>
-14.2057

>  <SCORE.INTER.norm>
-0.810376

>  <SCORE.INTRA>
-3.51216

>  <SCORE.INTRA.DIHEDRAL>
0.966393

>  <SCORE.INTRA.DIHEDRAL.0>
8.84257

>  <SCORE.INTRA.POLAR>
0

>  <SCORE.INTRA.POLAR.0>
0

>  <SCORE.INTRA.REPUL>
0

>  <SCORE.INTRA.REPUL.0>
0

>  <SCORE.INTRA.SOLV>
-0.0476991

>  <SCORE.INTRA.SOLV.lig_0>
-17.1313

>  <SCORE.INTRA.VDW>
-3.9715

>  <SCORE.INTRA.VDW.0>
6.34071

>  <SCORE.INTRA.norm>
-0.167246

>  <SCORE.RESTR>
0

>  <SCORE.RESTR.CAVITY>
0

>  <SCORE.RESTR.norm>
0

>  <SCORE.SYSTEM>
0

>  <SCORE.SYSTEM.CONST>
0

>  <SCORE.SYSTEM.DIHEDRAL>
0

>  <SCORE.SYSTEM.SOLV>
0

>  <SCORE.SYSTEM.norm>
0

>  <SCORE.heavy>
21

>  <SCORE.norm>
-0.977622

>  <RMSD>
7.012

$$$$
lig.pdb
 OpenBabel11021811453D
libRbt.so/2013.1/901 2013/11/27
 21 23  0  0  0  0  0  0  0  0999 V2000
   -7.4878    0.5588    5.4355 C   0  0  0  0  0  0  0  0  0  0  0  0
   -6.5928    1.2673    6.1146 N   0  0  0  0  0  0  0  0  0  0  0  0
   -6.1658    2.4228    5.6378 C   0  0  0  0  0  0  0  0  0  0  0  0
   -6.5871    2.8479    4.4295 C   0  0  0  0  0  0  0  0  0  0  0  0
   -7.4926    2.1324    3.7491 C   0  0  0  0  0  0  0  0  0  0  0  0
   -7.9106    2.5422    2.5521 N   0  0  0  0  0  0  0  0  0  0  0  0
   -7.9377    0.9870    4.2553 N   0  0  0  0  0  0  0  0  0  0  0  0
   -5.2782    3.1446    6.3419 C   0  0  0  0  0  0  0  0  0  0  0  0
   -4.7074    4.2457    5.7639 C   0  0  0  0  0  0  0  0  0  0  0  0
   -3.3316    4.4760    6.0034 O   0  0  0  0  0  0  0  0  0  0  0  0
   -5.2760    4.7537    4.6580 C   0  0  0  0  0  0  0  0  0  0  0  0
   -5.0317    6.1063    4.2986 O   0  0  0  0  0  0  0  0  0  0  0  0
   -6.1369    4.0100    3.9360 C   0  0  0  0  0  0  0  0  0  0  0  0
   -7.9203   -0.5882    5.9300 N   0  0  0  0  0  0  0  0  0  0  0  0
   -7.7101   -1.6757    5.1820 C   0  0  0  0  0  0  0  0  0  0  0  0
   -8.7491   -1.7554    4.0739 C   0  0  0  0  0  0  0  0  0  0  0  0
  -10.0100   -1.8435    4.6266 N   0  0  0  0  0  0  0  0  0  0  0  0
  -10.2153   -0.6934    5.3571 C   0  0  0  0  0  0  0  0  0  0  0  0
   -9.1815   -0.6133    6.4680 C   0  0  0  0  0  0  0  0  0  0  0  0
   -2.5945    3.6091    5.1799 C   0  0  0  0  0  0  0  0  0  0  0  0
   -4.4885    6.1376    3.0047 C   0  0  0  0  0  0  0  0  0  0  0  0
  1 14  1  0  0  0  0
  1  2  2  0  0  0  0
  3  2  1  0  0  0  0
  3  8  2  0  0  0  0
  4  3  1  0  0  0  0
  5  7  2  0  0  0  0
  5  4  1  0  0  0  0
  6  5  1  0  0  0  0
  7  1  1  0  0  0  0
  9 10  1  0  0  0  0
  9  8  1  0  0  0  0
 11  9  2  0  0  0  0
 12 11  1  0  0  0  0
 13  4  2  0  0  0  0
 13 11  1  0  0  0  0
 14 15  1  0  0  0  0
 16 15  1  0  0  0  0
 17 16  1  0  0  0  0
 18 17  1  0  0  0  0
 18 19  1  0  0  0  0
 19 14  1  0  0  0  0
 20 10  1  0  0  0  0
 21 12  1  0  0  0  0
M  END
>  <CHROM.1>
-120.45793364,78.03900802,122.70470872,-6.69462614,2.01175862,4.87996838
-2.45239152,-0.65075056,-0.70095429

>  <Name>
lig.pdb

>  <RI>
1.4775e+07

>  <Rbt.Current_Directory>
/home/itssahil/PROJECTS/Mol_Feturizer/New_Systems/rnas/2lwk

>  <Rbt.Executable>
rbdock ($Id: //depot/dev/client3/rdock/2013.1/src/exe/rbdock.cxx#4 $)

>  <Rbt.Library>
libRbt.so (2013.1, Build901 2013/11/27)

>  <Rbt.Parameter_File>
/export/apps/rDock/src/rDock_2013.1_src/data/scripts/dock_solv.prm

>  <Rbt.Receptor>
prm/pocket_docking_4.prm

>  <SCORE>
-16.0038

>  <SCORE.INTER>
-12.6759

>  <SCORE.INTER.CONST>
1

>  <SCORE.INTER.POLAR>
-1.40583

>  <SCORE.INTER.ROT>
3

>  <SCORE.INTER.SOLV>
6.989

>  <SCORE.INTER.VDW>
-11.6942

>  <SCORE.INTER.norm>
-0.603615

>  <SCORE.INTRA>
-3.45631

>  <SCORE.INTRA.DIHEDRAL>
-0.238258

>  <SCORE.INTRA.DIHEDRAL.0>
8.84257

>  <SCORE.INTRA.POLAR>
0

>  <SCORE.INTRA.POLAR.0>
0

>  <SCORE.INTRA.REPUL>
0

>  <SCORE.INTRA.REPUL.0>
0

>  <SCORE.INTRA.SOLV>
0.0717883

>  <SCORE.INTRA.SOLV.lig_0>
-17.1313

>  <SCORE.INTRA.VDW>
-3.37308

>  <SCORE.INTRA.VDW.0>
6.34071

>  <SCORE.INTRA.norm>
-0.164586

>  <SCORE.RESTR>
0.128411

>  <SCORE.RESTR.CAVITY>
0.128411

>  <SCORE.RESTR.norm>
0.00611479

>  <SCORE.SYSTEM>
0

>  <SCORE.SYSTEM.CONST>
0

>  <SCORE.SYSTEM.DIHEDRAL>
0

>  <SCORE.SYSTEM.SOLV>
0

>  <SCORE.SYSTEM.norm>
0

>  <SCORE.heavy>
21

>  <SCORE.norm>
-0.762086

>  <RMSD>
7.019

$$$$
lig.pdb
 OpenBabel11021811453D
libRbt.so/2013.1/901 2013/11/27
 21 23  0  0  0  0  0  0  0  0999 V2000
   -7.8693    0.3042    5.2125 C   0  0  0  0  0  0  0  0  0  0  0  0
   -6.9982    0.7875    6.0911 N   0  0  0  0  0  0  0  0  0  0  0  0
   -6.3815    1.9303    5.8491 C   0  0  0  0  0  0  0  0  0  0  0  0
   -6.5855    2.5693    4.6794 C   0  0  0  0  0  0  0  0  0  0  0  0
   -7.4676    2.0806    3.7973 C   0  0  0  0  0  0  0  0  0  0  0  0
   -7.6716    2.7027    2.6367 N   0  0  0  0  0  0  0  0  0  0  0  0
   -8.1049    0.9461    4.0675 N   0  0  0  0  0  0  0  0  0  0  0  0
   -5.5195    2.4243    6.7533 C   0  0  0  0  0  0  0  0  0  0  0  0
   -4.7539    3.5084    6.4204 C   0  0  0  0  0  0  0  0  0  0  0  0
   -3.4054    3.5187    6.8501 O   0  0  0  0  0  0  0  0  0  0  0  0
   -5.1071    4.2343    5.3468 C   0  0  0  0  0  0  0  0  0  0  0  0
   -4.6634    5.5787    5.2290 O   0  0  0  0  0  0  0  0  0  0  0  0
   -5.9429    3.7178    4.4248 C   0  0  0  0  0  0  0  0  0  0  0  0
   -8.4928   -0.8320    5.4725 N   0  0  0  0  0  0  0  0  0  0  0  0
   -9.6329   -1.0501    4.8101 C   0  0  0  0  0  0  0  0  0  0  0  0
  -10.7690   -0.2725    5.4569 C   0  0  0  0  0  0  0  0  0  0  0  0
  -10.9348   -0.6927    6.7604 N   0  0  0  0  0  0  0  0  0  0  0  0
   -9.7614   -0.4188    7.4286 C   0  0  0  0  0  0  0  0  0  0  0  0
   -8.6252   -1.1981    6.7875 C   0  0  0  0  0  0  0  0  0  0  0  0
   -3.3950    3.6096    8.2517 C   0  0  0  0  0  0  0  0  0  0  0  0
   -3.4845    5.5991    4.4673 C   0  0  0  0  0  0  0  0  0  0  0  0
  1 14  1  0  0  0  0
  1  2  2  0  0  0  0
  3  2  1  0  0  0  0
  3  8  2  0  0  0  0
  4  3  1  0  0  0  0
  5  7  2  0  0  0  0
  5  4  1  0  0  0  0
  6  5  1  0  0  0  0
  7  1  1  0  0  0  0
  9 10  1  0  0  0  0
  9  8  1  0  0  0  0
 11  9  2  0  0  0  0
 12 11  1  0  0  0  0
 13  4  2  0  0  0  0
 13 11  1  0  0  0  0
 14 15  1  0  0  0  0
 16 15  1  0  0  0  0
 17 16  1  0  0  0  0
 18 17  1  0  0  0  0
 18 19  1  0  0  0  0
 19 14  1  0  0  0  0
 20 10  1  0  0  0  0
 21 12  1  0  0  0  0
M  END
>  <CHROM.1>
158.97056861,-66.78816711,94.29722292,-6.92085553,1.87854054,5.56935186,2.79852946
0.67015200,2.08008510

>  <Name>
lig.pdb

>  <RI>
2.98315e+07

>  <Rbt.Current_Directory>
/home/itssahil/PROJECTS/Mol_Feturizer/New_Systems/rnas/2lwk

>  <Rbt.Executable>
rbdock ($Id: //depot/dev/client3/rdock/2013.1/src/exe/rbdock.cxx#4 $)

>  <Rbt.Library>
libRbt.so (2013.1, Build901 2013/11/27)

>  <Rbt.Parameter_File>
/export/apps/rDock/src/rDock_2013.1_src/data/scripts/dock_solv.prm

>  <Rbt.Receptor>
prm/pocket_docking_5.prm

>  <SCORE>
-16.8509

>  <SCORE.INTER>
-14.1968

>  <SCORE.INTER.CONST>
1

>  <SCORE.INTER.POLAR>
-1.01015

>  <SCORE.INTER.ROT>
3

>  <SCORE.INTER.SOLV>
7.85697

>  <SCORE.INTER.VDW>
-14.3164

>  <SCORE.INTER.norm>
-0.67604

>  <SCORE.INTRA>
-2.65902

>  <SCORE.INTRA.DIHEDRAL>
-0.449432

>  <SCORE.INTRA.DIHEDRAL.0>
8.84257

>  <SCORE.INTRA.POLAR>
0

>  <SCORE.INTRA.POLAR.0>
0

>  <SCORE.INTRA.REPUL>
0

>  <SCORE.INTRA.REPUL.0>
0

>  <SCORE.INTRA.SOLV>
-0.0356621

>  <SCORE.INTRA.SOLV.lig_0>
-17.1313

>  <SCORE.INTRA.VDW>
-2.41647

>  <SCORE.INTRA.VDW.0>
6.34071

>  <SCORE.INTRA.norm>
-0.12662

>  <SCORE.RESTR>
0.00500472

>  <SCORE.RESTR.CAVITY>
0.00500472

>  <SCORE.RESTR.norm>
0.00023832

>  <SCORE.SYSTEM>
0

>  <SCORE.SYSTEM.CONST>
0

>  <SCORE.SYSTEM.DIHEDRAL>
0

>  <SCORE.SYSTEM.SOLV>
0

>  <SCORE.SYSTEM.norm>
0

>  <SCORE.heavy>
21

>  <SCORE.norm>
-0.802421

>  <RMSD>
7.035

$$$$
lig.pdb
 OpenBabel11021811453D
libRbt.so/2013.1/901 2013/11/27
 21 23  0  0  0  0  0  0  0  0999 V2000
   -4.8258    5.3249    3.0596 C   0  0  0  0  0  0  0  0  0  0  0  0
   -4.2073    5.2338    4.2315 N   0  0  0  0  0  0  0  0  0  0  0  0
   -4.6543    4.3970    5.1507 C   0  0  0  0  0  0  0  0  0  0  0  0
   -5.7783    3.6876    4.9238 C   0  0  0  0  0  0  0  0  0  0  0  0
   -6.3973    3.7795    3.7393 C   0  0  0  0  0  0  0  0  0  0  0  0
   -7.5115    3.0860    3.5082 N   0  0  0  0  0  0  0  0  0  0  0  0
   -5.9186    4.6018    2.8114 N   0  0  0  0  0  0  0  0  0  0  0  0
   -4.0093    4.2936    6.3246 C   0  0  0  0  0  0  0  0  0  0  0  0
   -4.5762    3.5637    7.3336 C   0  0  0  0  0  0  0  0  0  0  0  0
   -4.4779    4.0739    8.6502 O   0  0  0  0  0  0  0  0  0  0  0  0
   -5.5768    2.7213    7.0283 C   0  0  0  0  0  0  0  0  0  0  0  0
   -5.8744    1.6373    7.8971 O   0  0  0  0  0  0  0  0  0  0  0  0
   -6.2440    2.8548    5.8653 C   0  0  0  0  0  0  0  0  0  0  0  0
   -4.3602    6.1536    2.1411 N   0  0  0  0  0  0  0  0  0  0  0  0
   -4.3133    7.4468    2.4752 C   0  0  0  0  0  0  0  0  0  0  0  0
   -5.6949    8.0698    2.3446 C   0  0  0  0  0  0  0  0  0  0  0  0
   -6.1252    7.9726    1.0375 N   0  0  0  0  0  0  0  0  0  0  0  0
   -6.2035    6.6310    0.7337 C   0  0  0  0  0  0  0  0  0  0  0  0
   -4.8237    6.0067    0.8587 C   0  0  0  0  0  0  0  0  0  0  0  0
   -3.3365    3.5164    9.2498 C   0  0  0  0  0  0  0  0  0  0  0  0
   -4.9804    0.5883    7.6311 C   0  0  0  0  0  0  0  0  0  0  0  0
  1 14  1  0  0  0  0
  1  2  2  0  0  0  0
  3  2  1  0  0  0  0
  3  8  2  0  0  0  0
  4  3  1  0  0  0  0
  5  7  2  0  0  0  0
  5  4  1  0  0  0  0
  6  5  1  0  0  0  0
  7  1  1  0  0  0  0
  9 10  1  0  0  0  0
  9  8  1  0  0  0  0
 11  9  2  0  0  0  0
 12 11  1  0  0  0  0
 13  4  2  0  0  0  0
 13 11  1  0  0  0  0
 14 15  1  0  0  0  0
 16 15  1  0  0  0  0
 17 16  1  0  0  0  0
 18 17  1  0  0  0  0
 18 19  1  0  0  0  0
 19 14  1  0  0  0  0
 20 10  1  0  0  0  0
 21 12  1  0  0  0  0
M  END
>  <CHROM.1>
-60.01007690,-93.09822323,-81.49105651,-5.24282092,4.54909995,4.63786473
-1.68866464,0.85302464,2.25606128

>  <Name>
lig.pdb

>  <RI>
2.75338e+07

>  <Rbt.Current_Directory>
/home/itssahil/PROJECTS/Mol_Feturizer/New_Systems/rnas/2lwk

>  <Rbt.Executable>
rbdock ($Id: //depot/dev/client3/rdock/2013.1/src/exe/rbdock.cxx#4 $)

>  <Rbt.Library>
libRbt.so (2013.1, Build901 2013/11/27)

>  <Rbt.Parameter_File>
/export/apps/rDock/src/rDock_2013.1_src/data/scripts/dock_solv.prm

>  <Rbt.Receptor>
prm/pocket_docking_8.prm

>  <SCORE>
-18.323

>  <SCORE.INTER>
-14.1048

>  <SCORE.INTER.CONST>
1

>  <SCORE.INTER.POLAR>
-1.03889

>  <SCORE.INTER.ROT>
3

>  <SCORE.INTER.SOLV>
7.50661

>  <SCORE.INTER.VDW>
-14.0424

>  <SCORE.INTER.norm>
-0.671657

>  <SCORE.INTRA>
-4.21823

>  <SCORE.INTRA.DIHEDRAL>
0.84896

>  <SCORE.INTRA.DIHEDRAL.0>
8.84257

>  <SCORE.INTRA.POLAR>
0

>  <SCORE.INTRA.POLAR.0>
0

>  <SCORE.INTRA.REPUL>
0

>  <SCORE.INTRA.REPUL.0>
0

>  <SCORE.INTRA.SOLV>
0.0243444

>  <SCORE.INTRA.SOLV.lig_0>
-17.1313

>  <SCORE.INTRA.VDW>
-4.65488

>  <SCORE.INTRA.VDW.0>
6.34071

>  <SCORE.INTRA.norm>
-0.200868

>  <SCORE.RESTR>
0

>  <SCORE.RESTR.CAVITY>
0

>  <SCORE.RESTR.norm>
0

>  <SCORE.SYSTEM>
0

>  <SCORE.SYSTEM.CONST>
0

>  <SCORE.SYSTEM.DIHEDRAL>
0

>  <SCORE.SYSTEM.SOLV>
0

>  <SCORE.SYSTEM.norm>
0

>  <SCORE.heavy>
21

>  <SCORE.norm>
-0.872525

>  <RMSD>
7.037

$$$$
lig.pdb
 OpenBabel11021811453D
libRbt.so/2013.1/901 2013/11/27
 21 23  0  0  0  0  0  0  0  0999 V2000
  -11.2984   -3.5637    4.9628 C   0  0  0  0  0  0  0  0  0  0  0  0
  -10.0365   -3.4635    4.5605 N   0  0  0  0  0  0  0  0  0  0  0  0
   -9.3690   -2.3402    4.7541 C   0  0  0  0  0  0  0  0  0  0  0  0
   -9.9910   -1.2741    5.2972 C   0  0  0  0  0  0  0  0  0  0  0  0
  -11.2627   -1.3802    5.7050 C   0  0  0  0  0  0  0  0  0  0  0  0
  -11.8868   -0.3304    6.2380 N   0  0  0  0  0  0  0  0  0  0  0  0
  -11.9129   -2.5265    5.5330 N   0  0  0  0  0  0  0  0  0  0  0  0
   -8.0859   -2.2546    4.3655 C   0  0  0  0  0  0  0  0  0  0  0  0
   -7.4580   -1.0395    4.4046 C   0  0  0  0  0  0  0  0  0  0  0  0
   -6.5911   -0.7120    3.3348 O   0  0  0  0  0  0  0  0  0  0  0  0
   -8.0217   -0.0519    5.1195 C   0  0  0  0  0  0  0  0  0  0  0  0
   -7.2241    1.0327    5.5730 O   0  0  0  0  0  0  0  0  0  0  0  0
   -9.3196   -0.1275    5.4735 C   0  0  0  0  0  0  0  0  0  0  0  0
  -11.9516   -4.6980    4.7786 N   0  0  0  0  0  0  0  0  0  0  0  0
  -11.9563   -5.5552    5.8040 C   0  0  0  0  0  0  0  0  0  0  0  0
  -10.6396   -6.3154    5.8545 C   0  0  0  0  0  0  0  0  0  0  0  0
  -10.4737   -7.0324    4.6877 N   0  0  0  0  0  0  0  0  0  0  0  0
  -10.4313   -6.1227    3.6537 C   0  0  0  0  0  0  0  0  0  0  0  0
  -11.7472   -5.3649    3.5978 C   0  0  0  0  0  0  0  0  0  0  0  0
   -5.2788   -1.0258    3.7253 C   0  0  0  0  0  0  0  0  0  0  0  0
   -6.5361    0.6333    6.7295 C   0  0  0  0  0  0  0  0  0  0  0  0
  1 14  1  0  0  0  0
  1  2  2  0  0  0  0
  3  2  1  0  0  0  0
  3  8  2  0  0  0  0
  4  3  1  0  0  0  0
  5  7  2  0  0  0  0
  5  4  1  0  0  0  0
  6  5  1  0  0  0  0
  7  1  1  0  0  0  0
  9 10  1  0  0  0  0
  9  8  1  0  0  0  0
 11  9  2  0  0  0  0
 12 11  1  0  0  0  0
 13  4  2  0  0  0  0
 13 11  1  0  0  0  0
 14 15  1  0  0  0  0
 16 15  1  0  0  0  0
 17 16  1  0  0  0  0
 18 17  1  0  0  0  0
 18 19  1  0  0  0  0
 19 14  1  0  0  0  0
 20 10  1  0  0  0  0
 21 12  1  0  0  0  0
M  END
>  <CHROM.1>
94.78584873,-96.40749245,-80.51851826,-9.56092469,-2.54365215,4.96040439
2.26390836,-0.33817485,-2.83507935

>  <Name>
lig.pdb

>  <RI>
1.4775e+07

>  <Rbt.Current_Directory>
/home/itssahil/PROJECTS/Mol_Feturizer/New_Systems/rnas/2lwk

>  <Rbt.Executable>
rbdock ($Id: //depot/dev/client3/rdock/2013.1/src/exe/rbdock.cxx#4 $)

>  <Rbt.Library>
libRbt.so (2013.1, Build901 2013/11/27)

>  <Rbt.Parameter_File>
/export/apps/rDock/src/rDock_2013.1_src/data/scripts/dock_solv.prm

>  <Rbt.Receptor>
prm/pocket_docking_4.prm

>  <SCORE>
-16.3428

>  <SCORE.INTER>
-11.3698

>  <SCORE.INTER.CONST>
1

>  <SCORE.INTER.POLAR>
-1.8198

>  <SCORE.INTER.ROT>
3

>  <SCORE.INTER.SOLV>
4.75389

>  <SCORE.INTER.VDW>
-8.69846

>  <SCORE.INTER.norm>
-0.541417

>  <SCORE.INTRA>
-4.97308

>  <SCORE.INTRA.DIHEDRAL>
0.880364

>  <SCORE.INTRA.DIHEDRAL.0>
8.84257

>  <SCORE.INTRA.POLAR>
0

>  <SCORE.INTRA.POLAR.0>
0

>  <SCORE.INTRA.REPUL>
0

>  <SCORE.INTRA.REPUL.0>
0

>  <SCORE.INTRA.SOLV>
0.0775338

>  <SCORE.INTRA.SOLV.lig_0>
-17.1313

>  <SCORE.INTRA.VDW>
-5.45203

>  <SCORE.INTRA.VDW.0>
6.34071

>  <SCORE.INTRA.norm>
-0.236813

>  <SCORE.RESTR>
0

>  <SCORE.RESTR.CAVITY>
0

>  <SCORE.RESTR.norm>
0

>  <SCORE.SYSTEM>
0

>  <SCORE.SYSTEM.CONST>
0

>  <SCORE.SYSTEM.DIHEDRAL>
0

>  <SCORE.SYSTEM.SOLV>
0

>  <SCORE.SYSTEM.norm>
0

>  <SCORE.heavy>
21

>  <SCORE.norm>
-0.778231

>  <RMSD>
7.046

$$$$
lig.pdb
 OpenBabel11021811453D
libRbt.so/2013.1/901 2013/11/27
 21 23  0  0  0  0  0  0  0  0999 V2000
   -6.2559    5.1783    2.7789 C   0  0  0  0  0  0  0  0  0  0  0  0
   -6.6042    4.1632    3.5616 N   0  0  0  0  0  0  0  0  0  0  0  0
   -5.9085    3.9026    4.6538 C   0  0  0  0  0  0  0  0  0  0  0  0
   -4.8049    4.6243    4.9356 C   0  0  0  0  0  0  0  0  0  0  0  0
   -4.4588    5.6497    4.1459 C   0  0  0  0  0  0  0  0  0  0  0  0
   -3.3670    6.3650    4.4138 N   0  0  0  0  0  0  0  0  0  0  0  0
   -5.1862    5.9208    3.0671 N   0  0  0  0  0  0  0  0  0  0  0  0
   -6.2812    2.8888    5.4525 C   0  0  0  0  0  0  0  0  0  0  0  0
   -5.4582    2.5126    6.4789 C   0  0  0  0  0  0  0  0  0  0  0  0
   -5.3169    1.1279    6.7354 O   0  0  0  0  0  0  0  0  0  0  0  0
   -4.4808    3.3538    6.8550 C   0  0  0  0  0  0  0  0  0  0  0  0
   -3.9217    3.2464    8.1565 O   0  0  0  0  0  0  0  0  0  0  0  0
   -4.0866    4.3456    6.0324 C   0  0  0  0  0  0  0  0  0  0  0  0
   -6.9690    5.4401    1.6972 N   0  0  0  0  0  0  0  0  0  0  0  0
   -7.9958    4.6214    1.4489 C   0  0  0  0  0  0  0  0  0  0  0  0
   -7.4943    3.3336    0.8132 C   0  0  0  0  0  0  0  0  0  0  0  0
   -6.8667    3.6205   -0.3813 N   0  0  0  0  0  0  0  0  0  0  0  0
   -5.7905    4.4305   -0.0913 C   0  0  0  0  0  0  0  0  0  0  0  0
   -6.2888    5.7200    0.5397 C   0  0  0  0  0  0  0  0  0  0  0  0
   -6.1686    0.7926    7.8009 C   0  0  0  0  0  0  0  0  0  0  0  0
   -2.6862    2.5868    8.0632 C   0  0  0  0  0  0  0  0  0  0  0  0
  1 14  1  0  0  0  0
  1  2  2  0  0  0  0
  3  2  1  0  0  0  0
  3  8  2  0  0  0  0
  4  3  1  0  0  0  0
  5  7  2  0  0  0  0
  5  4  1  0  0  0  0
  6  5  1  0  0  0  0
  7  1  1  0  0  0  0
  9 10  1  0  0  0  0
  9  8  1  0  0  0  0
 11  9  2  0  0  0  0
 12 11  1  0  0  0  0
 13  4  2  0  0  0  0
 13 11  1  0  0  0  0
 14 15  1  0  0  0  0
 16 15  1  0  0  0  0
 17 16  1  0  0  0  0
 18 17  1  0  0  0  0
 18 19  1  0  0  0  0
 19 14  1  0  0  0  0
 20 10  1  0  0  0  0
 21 12  1  0  0  0  0
M  END
>  <CHROM.1>
-1.58393197,-98.58019487,101.82266256,-5.52621634,3.96232066,4.16065340,-2.03523037
0.81176985,2.24141061

>  <Name>
lig.pdb

>  <RI>
2.59814e+07

>  <Rbt.Current_Directory>
/home/itssahil/PROJECTS/Mol_Feturizer/New_Systems/rnas/2lwk

>  <Rbt.Executable>
rbdock ($Id: //depot/dev/client3/rdock/2013.1/src/exe/rbdock.cxx#4 $)

>  <Rbt.Library>
libRbt.so (2013.1, Build901 2013/11/27)

>  <Rbt.Parameter_File>
/export/apps/rDock/src/rDock_2013.1_src/data/scripts/dock_solv.prm

>  <Rbt.Receptor>
prm/pocket_docking_6.prm

>  <SCORE>
-18.2385

>  <SCORE.INTER>
-14.8593

>  <SCORE.INTER.CONST>
1

>  <SCORE.INTER.POLAR>
-1.30105

>  <SCORE.INTER.ROT>
3

>  <SCORE.INTER.SOLV>
7.73506

>  <SCORE.INTER.VDW>
-13.7477

>  <SCORE.INTER.norm>
-0.707588

>  <SCORE.INTRA>
-3.37916

>  <SCORE.INTRA.DIHEDRAL>
0.85439

>  <SCORE.INTRA.DIHEDRAL.0>
8.84257

>  <SCORE.INTRA.POLAR>
0

>  <SCORE.INTRA.POLAR.0>
0

>  <SCORE.INTRA.REPUL>
0

>  <SCORE.INTRA.REPUL.0>
0

>  <SCORE.INTRA.SOLV>
0.0353319

>  <SCORE.INTRA.SOLV.lig_0>
-17.1313

>  <SCORE.INTRA.VDW>
-3.82402

>  <SCORE.INTRA.VDW.0>
6.34071

>  <SCORE.INTRA.norm>
-0.160912

>  <SCORE.RESTR>
0

>  <SCORE.RESTR.CAVITY>
0

>  <SCORE.RESTR.norm>
0

>  <SCORE.SYSTEM>
0

>  <SCORE.SYSTEM.CONST>
0

>  <SCORE.SYSTEM.DIHEDRAL>
0

>  <SCORE.SYSTEM.SOLV>
0

>  <SCORE.SYSTEM.norm>
0

>  <SCORE.heavy>
21

>  <SCORE.norm>
-0.8685

>  <RMSD>
7.049

$$$$
lig.pdb
 OpenBabel11021811453D
libRbt.so/2013.1/901 2013/11/27
 21 23  0  0  0  0  0  0  0  0999 V2000
   -5.8771    6.1813    2.3748 C   0  0  0  0  0  0  0  0  0  0  0  0
   -6.2180    4.8994    2.3060 N   0  0  0  0  0  0  0  0  0  0  0  0
   -5.6784    4.0272    3.1384 C   0  0  0  0  0  0  0  0  0  0  0  0
   -4.7311    4.4278    4.0103 C   0  0  0  0  0  0  0  0  0  0  0  0
   -4.3925    5.7222    4.0792 C   0  0  0  0  0  0  0  0  0  0  0  0
   -3.4537    6.1262    4.9342 N   0  0  0  0  0  0  0  0  0  0  0  0
   -4.9665    6.5946    3.2572 N   0  0  0  0  0  0  0  0  0  0  0  0
   -6.0459    2.7364    3.0780 C   0  0  0  0  0  0  0  0  0  0  0  0
   -5.3569    1.8128    3.8159 C   0  0  0  0  0  0  0  0  0  0  0  0
   -5.0889    0.5590    3.2165 O   0  0  0  0  0  0  0  0  0  0  0  0
   -4.5629    2.2505    4.8070 C   0  0  0  0  0  0  0  0  0  0  0  0
   -4.2093    1.3720    5.8659 O   0  0  0  0  0  0  0  0  0  0  0  0
   -4.1679    3.5384    4.8400 C   0  0  0  0  0  0  0  0  0  0  0  0
   -6.4355    7.0481    1.5477 N   0  0  0  0  0  0  0  0  0  0  0  0
   -6.3870    6.7456    0.2468 C   0  0  0  0  0  0  0  0  0  0  0  0
   -5.0151    7.0838   -0.3166 C   0  0  0  0  0  0  0  0  0  0  0  0
   -4.7759    8.4349   -0.1740 N   0  0  0  0  0  0  0  0  0  0  0  0
   -4.7909    8.7105    1.1759 C   0  0  0  0  0  0  0  0  0  0  0  0
   -6.1619    8.3781    1.7408 C   0  0  0  0  0  0  0  0  0  0  0  0
   -5.9697   -0.3856    3.7689 C   0  0  0  0  0  0  0  0  0  0  0  0
   -2.9071    0.8981    5.6425 C   0  0  0  0  0  0  0  0  0  0  0  0
  1 14  1  0  0  0  0
  1  2  2  0  0  0  0
  3  2  1  0  0  0  0
  3  8  2  0  0  0  0
  4  3  1  0  0  0  0
  5  7  2  0  0  0  0
  5  4  1  0  0  0  0
  6  5  1  0  0  0  0
  7  1  1  0  0  0  0
  9 10  1  0  0  0  0
  9  8  1  0  0  0  0
 11  9  2  0  0  0  0
 12 11  1  0  0  0  0
 13  4  2  0  0  0  0
 13 11  1  0  0  0  0
 14 15  1  0  0  0  0
 16 15  1  0  0  0  0
 17 16  1  0  0  0  0
 18 17  1  0  0  0  0
 18 19  1  0  0  0  0
 19 14  1  0  0  0  0
 20 10  1  0  0  0  0
 21 12  1  0  0  0  0
M  END
>  <CHROM.1>
-52.12144836,-104.16047557,101.34417004,-5.08023915,4.60633787,3.01674399
1.76916368,-0.97112930,-0.34455237

>  <Name>
lig.pdb

>  <RI>
2.20372e+07

>  <Rbt.Current_Directory>
/home/itssahil/PROJECTS/Mol_Feturizer/New_Systems/rnas/2lwk

>  <Rbt.Executable>
rbdock ($Id: //depot/dev/client3/rdock/2013.1/src/exe/rbdock.cxx#4 $)

>  <Rbt.Library>
libRbt.so (2013.1, Build901 2013/11/27)

>  <Rbt.Parameter_File>
/export/apps/rDock/src/rDock_2013.1_src/data/scripts/dock_solv.prm

>  <Rbt.Receptor>
prm/pocket_docking_7.prm

>  <SCORE>
-19.6989

>  <SCORE.INTER>
-15.6926

>  <SCORE.INTER.CONST>
1

>  <SCORE.INTER.POLAR>
-3.01745

>  <SCORE.INTER.ROT>
3

>  <SCORE.INTER.SOLV>
5.1877

>  <SCORE.INTER.VDW>
-7.73282

>  <SCORE.INTER.norm>
-0.747268

>  <SCORE.INTRA>
-4.00632

>  <SCORE.INTRA.DIHEDRAL>
0.884632

>  <SCORE.INTRA.DIHEDRAL.0>
8.84257

>  <SCORE.INTRA.POLAR>
0

>  <SCORE.INTRA.POLAR.0>
0

>  <SCORE.INTRA.REPUL>
0

>  <SCORE.INTRA.REPUL.0>
0

>  <SCORE.INTRA.SOLV>
0.0565175

>  <SCORE.INTRA.SOLV.lig_0>
-17.1313

>  <SCORE.INTRA.VDW>
-4.4769

>  <SCORE.INTRA.VDW.0>
6.34071

>  <SCORE.INTRA.norm>
-0.190777

>  <SCORE.RESTR>
0

>  <SCORE.RESTR.CAVITY>
0

>  <SCORE.RESTR.norm>
0

>  <SCORE.SYSTEM>
0

>  <SCORE.SYSTEM.CONST>
0

>  <SCORE.SYSTEM.DIHEDRAL>
0

>  <SCORE.SYSTEM.SOLV>
0

>  <SCORE.SYSTEM.norm>
0

>  <SCORE.heavy>
21

>  <SCORE.norm>
-0.938045

>  <RMSD>
7.060

$$$$
lig.pdb
 OpenBabel11021811453D
libRbt.so/2013.1/901 2013/11/27
 21 23  0  0  0  0  0  0  0  0999 V2000
  -10.2085   -4.9368    4.1834 C   0  0  0  0  0  0  0  0  0  0  0  0
   -9.7359   -6.1721    4.3059 N   0  0  0  0  0  0  0  0  0  0  0  0
  -10.5208   -7.2064    4.0630 C   0  0  0  0  0  0  0  0  0  0  0  0
  -11.8192   -7.0077    3.7586 C   0  0  0  0  0  0  0  0  0  0  0  0
  -12.2914   -5.7603    3.6323 C   0  0  0  0  0  0  0  0  0  0  0  0
  -13.5743   -5.5546    3.3368 N   0  0  0  0  0  0  0  0  0  0  0  0
  -11.4826   -4.7282    3.8485 N   0  0  0  0  0  0  0  0  0  0  0  0
  -10.0287   -8.4522    4.1664 C   0  0  0  0  0  0  0  0  0  0  0  0
  -10.8867   -9.5153    4.0899 C   0  0  0  0  0  0  0  0  0  0  0  0
  -10.6650  -10.6042    4.9666 O   0  0  0  0  0  0  0  0  0  0  0  0
  -12.1196   -9.3072    3.5992 C   0  0  0  0  0  0  0  0  0  0  0  0
  -12.8610  -10.3983    3.0720 O   0  0  0  0  0  0  0  0  0  0  0  0
  -12.6208   -8.0582    3.5336 C   0  0  0  0  0  0  0  0  0  0  0  0
   -9.4097   -3.9090    4.4130 N   0  0  0  0  0  0  0  0  0  0  0  0
   -9.8190   -3.0315    5.3342 C   0  0  0  0  0  0  0  0  0  0  0  0
  -10.8598   -2.0962    4.7378 C   0  0  0  0  0  0  0  0  0  0  0  0
  -10.3056   -1.3971    3.6856 N   0  0  0  0  0  0  0  0  0  0  0  0
   -9.9309   -2.3216    2.7352 C   0  0  0  0  0  0  0  0  0  0  0  0
   -8.8875   -3.2546    3.3267 C   0  0  0  0  0  0  0  0  0  0  0  0
  -10.0006  -11.6130    4.2497 C   0  0  0  0  0  0  0  0  0  0  0  0
  -13.8187  -10.7922    4.0196 C   0  0  0  0  0  0  0  0  0  0  0  0
  1 14  1  0  0  0  0
  1  2  2  0  0  0  0
  3  2  1  0  0  0  0
  3  8  2  0  0  0  0
  4  3  1  0  0  0  0
  5  7  2  0  0  0  0
  5  4  1  0  0  0  0
  6  5  1  0  0  0  0
  7  1  1  0  0  0  0
  9 10  1  0  0  0  0
  9  8  1  0  0  0  0
 11  9  2  0  0  0  0
 12 11  1  0  0  0  0
 13  4  2  0  0  0  0
 13 11  1  0  0  0  0
 14 15  1  0  0  0  0
 16 15  1  0  0  0  0
 17 16  1  0  0  0  0
 18 17  1  0  0  0  0
 18 19  1  0  0  0  0
 19 14  1  0  0  0  0
 20 10  1  0  0  0  0
 21 12  1  0  0  0  0
M  END
>  <CHROM.1>
-124.08932622,-99.96216965,102.43270285,-11.05937292,-6.49669257,3.95549356
-1.34769936,0.24058891,3.08604304

>  <Name>
lig.pdb

>  <RI>
2.75338e+07

>  <Rbt.Current_Directory>
/home/itssahil/PROJECTS/Mol_Feturizer/New_Systems/rnas/2lwk

>  <Rbt.Executable>
rbdock ($Id: //depot/dev/client3/rdock/2013.1/src/exe/rbdock.cxx#4 $)

>  <Rbt.Library>
libRbt.so (2013.1, Build901 2013/11/27)

>  <Rbt.Parameter_File>
/export/apps/rDock/src/rDock_2013.1_src/data/scripts/dock_solv.prm

>  <Rbt.Receptor>
prm/pocket_docking_8.prm

>  <SCORE>
-20.3573

>  <SCORE.INTER>
-15.0836

>  <SCORE.INTER.CONST>
1

>  <SCORE.INTER.POLAR>
-1.50212

>  <SCORE.INTER.ROT>
3

>  <SCORE.INTER.SOLV>
8.00527

>  <SCORE.INTER.VDW>
-13.3171

>  <SCORE.INTER.norm>
-0.718266

>  <SCORE.INTRA>
-5.27373

>  <SCORE.INTRA.DIHEDRAL>
0.846374

>  <SCORE.INTRA.DIHEDRAL.0>
8.84257

>  <SCORE.INTRA.POLAR>
0

>  <SCORE.INTRA.POLAR.0>
0

>  <SCORE.INTRA.REPUL>
0

>  <SCORE.INTRA.REPUL.0>
0

>  <SCORE.INTRA.SOLV>
0.131336

>  <SCORE.INTRA.SOLV.lig_0>
-17.1313

>  <SCORE.INTRA.VDW>
-5.76259

>  <SCORE.INTRA.VDW.0>
6.34071

>  <SCORE.INTRA.norm>
-0.25113

>  <SCORE.RESTR>
0

>  <SCORE.RESTR.CAVITY>
0

>  <SCORE.RESTR.norm>
0

>  <SCORE.SYSTEM>
0

>  <SCORE.SYSTEM.CONST>
0

>  <SCORE.SYSTEM.DIHEDRAL>
0

>  <SCORE.SYSTEM.SOLV>
0

>  <SCORE.SYSTEM.norm>
0

>  <SCORE.heavy>
21

>  <SCORE.norm>
-0.969396

>  <RMSD>
7.074

$$$$
lig.pdb
 OpenBabel11021811453D
libRbt.so/2013.1/901 2013/11/27
 21 23  0  0  0  0  0  0  0  0999 V2000
   -5.8862    6.2685    2.4759 C   0  0  0  0  0  0  0  0  0  0  0  0
   -6.3801    5.0395    2.5757 N   0  0  0  0  0  0  0  0  0  0  0  0
   -5.8963    4.2047    3.4778 C   0  0  0  0  0  0  0  0  0  0  0  0
   -4.8553    4.5784    4.2491 C   0  0  0  0  0  0  0  0  0  0  0  0
   -4.3622    5.8200    4.1482 C   0  0  0  0  0  0  0  0  0  0  0  0
   -3.3303    6.1962    4.9027 N   0  0  0  0  0  0  0  0  0  0  0  0
   -4.8794    6.6604    3.2580 N   0  0  0  0  0  0  0  0  0  0  0  0
   -6.4170    2.9713    3.5882 C   0  0  0  0  0  0  0  0  0  0  0  0
   -5.7972    2.0567    4.3954 C   0  0  0  0  0  0  0  0  0  0  0  0
   -5.7177    0.7204    3.9358 O   0  0  0  0  0  0  0  0  0  0  0  0
   -4.8962    2.4993    5.2879 C   0  0  0  0  0  0  0  0  0  0  0  0
   -4.5833    1.7068    6.4246 O   0  0  0  0  0  0  0  0  0  0  0  0
   -4.3503    3.7234    5.1494 C   0  0  0  0  0  0  0  0  0  0  0  0
   -6.3890    7.1009    1.5806 N   0  0  0  0  0  0  0  0  0  0  0  0
   -6.3657    6.6917    0.3086 C   0  0  0  0  0  0  0  0  0  0  0  0
   -4.9765    6.8911   -0.2783 C   0  0  0  0  0  0  0  0  0  0  0  0
   -4.6475    8.2304   -0.2451 N   0  0  0  0  0  0  0  0  0  0  0  0
   -4.6389    8.6146    1.0781 C   0  0  0  0  0  0  0  0  0  0  0  0
   -6.0268    8.4209    1.6659 C   0  0  0  0  0  0  0  0  0  0  0  0
   -4.6055    0.6177    3.0839 C   0  0  0  0  0  0  0  0  0  0  0  0
   -5.5627    1.9214    7.4070 C   0  0  0  0  0  0  0  0  0  0  0  0
  1 14  1  0  0  0  0
  1  2  2  0  0  0  0
  3  2  1  0  0  0  0
  3  8  2  0  0  0  0
  4  3  1  0  0  0  0
  5  7  2  0  0  0  0
  5  4  1  0  0  0  0
  6  5  1  0  0  0  0
  7  1  1  0  0  0  0
  9 10  1  0  0  0  0
  9  8  1  0  0  0  0
 11  9  2  0  0  0  0
 12 11  1  0  0  0  0
 13  4  2  0  0  0  0
 13 11  1  0  0  0  0
 14 15  1  0  0  0  0
 16 15  1  0  0  0  0
 17 16  1  0  0  0  0
 18 17  1  0  0  0  0
 18 19  1  0  0  0  0
 19 14  1  0  0  0  0
 20 10  1  0  0  0  0
 21 12  1  0  0  0  0
M  END
>  <CHROM.1>
-57.00701711,83.54960451,-82.19991803,-5.24377818,4.79083761,3.26074323,-1.64458712
1.17611394,2.56770179

>  <Name>
lig.pdb

>  <RI>
2.75338e+07

>  <Rbt.Current_Directory>
/home/itssahil/PROJECTS/Mol_Feturizer/New_Systems/rnas/2lwk

>  <Rbt.Executable>
rbdock ($Id: //depot/dev/client3/rdock/2013.1/src/exe/rbdock.cxx#4 $)

>  <Rbt.Library>
libRbt.so (2013.1, Build901 2013/11/27)

>  <Rbt.Parameter_File>
/export/apps/rDock/src/rDock_2013.1_src/data/scripts/dock_solv.prm

>  <Rbt.Receptor>
prm/pocket_docking_8.prm

>  <SCORE>
-18.6163

>  <SCORE.INTER>
-15.6591

>  <SCORE.INTER.CONST>
1

>  <SCORE.INTER.POLAR>
-2.61938

>  <SCORE.INTER.ROT>
3

>  <SCORE.INTER.SOLV>
5.9088

>  <SCORE.INTER.VDW>
-9.27774

>  <SCORE.INTER.norm>
-0.745673

>  <SCORE.INTRA>
-2.95712

>  <SCORE.INTRA.DIHEDRAL>
0.925789

>  <SCORE.INTRA.DIHEDRAL.0>
8.84257

>  <SCORE.INTRA.POLAR>
0

>  <SCORE.INTRA.POLAR.0>
0

>  <SCORE.INTRA.REPUL>
0

>  <SCORE.INTRA.REPUL.0>
0

>  <SCORE.INTRA.SOLV>
-0.0012271

>  <SCORE.INTRA.SOLV.lig_0>
-17.1313

>  <SCORE.INTRA.VDW>
-3.41941

>  <SCORE.INTRA.VDW.0>
6.34071

>  <SCORE.INTRA.norm>
-0.140815

>  <SCORE.RESTR>
0

>  <SCORE.RESTR.CAVITY>
0

>  <SCORE.RESTR.norm>
0

>  <SCORE.SYSTEM>
0

>  <SCORE.SYSTEM.CONST>
0

>  <SCORE.SYSTEM.DIHEDRAL>
0

>  <SCORE.SYSTEM.SOLV>
0

>  <SCORE.SYSTEM.norm>
0

>  <SCORE.heavy>
21

>  <SCORE.norm>
-0.886488

>  <RMSD>
7.084

$$$$
lig.pdb
 OpenBabel11021811453D
libRbt.so/2013.1/901 2013/11/27
 21 23  0  0  0  0  0  0  0  0999 V2000
   -8.0753   -0.3180    6.5926 C   0  0  0  0  0  0  0  0  0  0  0  0
   -7.5991    0.6157    5.7768 N   0  0  0  0  0  0  0  0  0  0  0  0
   -6.7217    1.4968    6.2225 C   0  0  0  0  0  0  0  0  0  0  0  0
   -6.3635    1.4899    7.5224 C   0  0  0  0  0  0  0  0  0  0  0  0
   -6.8432    0.5444    8.3414 C   0  0  0  0  0  0  0  0  0  0  0  0
   -6.4987    0.5330    9.6285 N   0  0  0  0  0  0  0  0  0  0  0  0
   -7.7010   -0.3557    7.8722 N   0  0  0  0  0  0  0  0  0  0  0  0
   -6.2271    2.4235    5.3850 C   0  0  0  0  0  0  0  0  0  0  0  0
   -5.4612    3.4379    5.8918 C   0  0  0  0  0  0  0  0  0  0  0  0
   -5.6498    4.7348    5.3575 O   0  0  0  0  0  0  0  0  0  0  0  0
   -4.9636    3.3041    7.1322 C   0  0  0  0  0  0  0  0  0  0  0  0
   -3.8264    4.0621    7.5201 O   0  0  0  0  0  0  0  0  0  0  0  0
   -5.4898    2.3979    7.9793 C   0  0  0  0  0  0  0  0  0  0  0  0
   -8.9405   -1.2048    6.1317 N   0  0  0  0  0  0  0  0  0  0  0  0
   -9.0809   -1.2646    4.8040 C   0  0  0  0  0  0  0  0  0  0  0  0
   -9.9762   -0.1330    4.3226 C   0  0  0  0  0  0  0  0  0  0  0  0
  -11.2239   -0.2524    4.8988 N   0  0  0  0  0  0  0  0  0  0  0  0
  -11.0544   -0.1462    6.2620 C   0  0  0  0  0  0  0  0  0  0  0  0
  -10.1641   -1.2783    6.7467 C   0  0  0  0  0  0  0  0  0  0  0  0
   -4.7976    4.8784    4.2501 C   0  0  0  0  0  0  0  0  0  0  0  0
   -2.6971    3.5481    6.8639 C   0  0  0  0  0  0  0  0  0  0  0  0
  1 14  1  0  0  0  0
  1  2  2  0  0  0  0
  3  2  1  0  0  0  0
  3  8  2  0  0  0  0
  4  3  1  0  0  0  0
  5  7  2  0  0  0  0
  5  4  1  0  0  0  0
  6  5  1  0  0  0  0
  7  1  1  0  0  0  0
  9 10  1  0  0  0  0
  9  8  1  0  0  0  0
 11  9  2  0  0  0  0
 12 11  1  0  0  0  0
 13  4  2  0  0  0  0
 13 11  1  0  0  0  0
 14 15  1  0  0  0  0
 16 15  1  0  0  0  0
 17 16  1  0  0  0  0
 18 17  1  0  0  0  0
 18 19  1  0  0  0  0
 19 14  1  0  0  0  0
 20 10  1  0  0  0  0
 21 12  1  0  0  0  0
M  END
>  <CHROM.1>
12.79656906,-88.57060048,-71.84869262,-7.10551385,1.38583626,6.44236083,-2.86707837
-0.64773265,-0.98761172

>  <Name>
lig.pdb

>  <RI>
2.98315e+07

>  <Rbt.Current_Directory>
/home/itssahil/PROJECTS/Mol_Feturizer/New_Systems/rnas/2lwk

>  <Rbt.Executable>
rbdock ($Id: //depot/dev/client3/rdock/2013.1/src/exe/rbdock.cxx#4 $)

>  <Rbt.Library>
libRbt.so (2013.1, Build901 2013/11/27)

>  <Rbt.Parameter_File>
/export/apps/rDock/src/rDock_2013.1_src/data/scripts/dock_solv.prm

>  <Rbt.Receptor>
prm/pocket_docking_5.prm

>  <SCORE>
-22.8216

>  <SCORE.INTER>
-19.4656

>  <SCORE.INTER.CONST>
1

>  <SCORE.INTER.POLAR>
-2.36509

>  <SCORE.INTER.ROT>
3

>  <SCORE.INTER.SOLV>
6.22267

>  <SCORE.INTER.VDW>
-12.7677

>  <SCORE.INTER.norm>
-0.926935

>  <SCORE.INTRA>
-3.5418

>  <SCORE.INTRA.DIHEDRAL>
0.404371

>  <SCORE.INTRA.DIHEDRAL.0>
8.84257

>  <SCORE.INTRA.POLAR>
0

>  <SCORE.INTRA.POLAR.0>
0

>  <SCORE.INTRA.REPUL>
0

>  <SCORE.INTRA.REPUL.0>
0

>  <SCORE.INTRA.SOLV>
0.0328549

>  <SCORE.INTRA.SOLV.lig_0>
-17.1313

>  <SCORE.INTRA.VDW>
-3.76041

>  <SCORE.INTRA.VDW.0>
6.34071

>  <SCORE.INTRA.norm>
-0.168657

>  <SCORE.RESTR>
0.185781

>  <SCORE.RESTR.CAVITY>
0.185781

>  <SCORE.RESTR.norm>
0.0088467

>  <SCORE.SYSTEM>
0

>  <SCORE.SYSTEM.CONST>
0

>  <SCORE.SYSTEM.DIHEDRAL>
0

>  <SCORE.SYSTEM.SOLV>
0

>  <SCORE.SYSTEM.norm>
0

>  <SCORE.heavy>
21

>  <SCORE.norm>
-1.08675

>  <RMSD>
7.099

$$$$
lig.pdb
 OpenBabel11021811453D
libRbt.so/2013.1/901 2013/11/27
 21 23  0  0  0  0  0  0  0  0999 V2000
   -7.2388    0.6659    5.3558 C   0  0  0  0  0  0  0  0  0  0  0  0
   -6.3190    1.3587    6.0180 N   0  0  0  0  0  0  0  0  0  0  0  0
   -5.9178    2.5305    5.5590 C   0  0  0  0  0  0  0  0  0  0  0  0
   -6.3917    2.9896    4.3831 C   0  0  0  0  0  0  0  0  0  0  0  0
   -7.3220    2.2898    3.7200 C   0  0  0  0  0  0  0  0  0  0  0  0
   -7.7921    2.7334    2.5547 N   0  0  0  0  0  0  0  0  0  0  0  0
   -7.7402    1.1271    4.2092 N   0  0  0  0  0  0  0  0  0  0  0  0
   -5.0044    3.2357    6.2468 C   0  0  0  0  0  0  0  0  0  0  0  0
   -4.4635    4.3571    5.6791 C   0  0  0  0  0  0  0  0  0  0  0  0
   -3.0799    4.5879    5.8673 O   0  0  0  0  0  0  0  0  0  0  0  0
   -5.0806    4.8951    4.6142 C   0  0  0  0  0  0  0  0  0  0  0  0
   -4.8578    6.2593    4.2863 O   0  0  0  0  0  0  0  0  0  0  0  0
   -5.9680    4.1687    3.9068 C   0  0  0  0  0  0  0  0  0  0  0  0
   -7.6449   -0.4980    5.8329 N   0  0  0  0  0  0  0  0  0  0  0  0
   -7.3290   -1.5790    5.1131 C   0  0  0  0  0  0  0  0  0  0  0  0
   -8.2847   -1.7210    3.9383 C   0  0  0  0  0  0  0  0  0  0  0  0
   -9.5742   -1.8698    4.4054 N   0  0  0  0  0  0  0  0  0  0  0  0
   -9.8872   -0.7262    5.1073 C   0  0  0  0  0  0  0  0  0  0  0  0
   -8.9369   -0.5841    6.2846 C   0  0  0  0  0  0  0  0  0  0  0  0
   -2.3748    3.7636    4.9748 C   0  0  0  0  0  0  0  0  0  0  0  0
   -4.0305    6.3212    3.1540 C   0  0  0  0  0  0  0  0  0  0  0  0
  1 14  1  0  0  0  0
  1  2  2  0  0  0  0
  3  2  1  0  0  0  0
  3  8  2  0  0  0  0
  4  3  1  0  0  0  0
  5  7  2  0  0  0  0
  5  4  1  0  0  0  0
  6  5  1  0  0  0  0
  7  1  1  0  0  0  0
  9 10  1  0  0  0  0
  9  8  1  0  0  0  0
 11  9  2  0  0  0  0
 12 11  1  0  0  0  0
 13  4  2  0  0  0  0
 13 11  1  0  0  0  0
 14 15  1  0  0  0  0
 16 15  1  0  0  0  0
 17 16  1  0  0  0  0
 18 17  1  0  0  0  0
 18 19  1  0  0  0  0
 19 14  1  0  0  0  0
 20 10  1  0  0  0  0
 21 12  1  0  0  0  0
M  END
>  <CHROM.1>
-113.23579849,78.81480739,106.03915566,-6.42787983,2.11805880,4.79443053
-2.40509202,-0.62582404,-0.62263272

>  <Name>
lig.pdb

>  <RI>
2.98315e+07

>  <Rbt.Current_Directory>
/home/itssahil/PROJECTS/Mol_Feturizer/New_Systems/rnas/2lwk

>  <Rbt.Executable>
rbdock ($Id: //depot/dev/client3/rdock/2013.1/src/exe/rbdock.cxx#4 $)

>  <Rbt.Library>
libRbt.so (2013.1, Build901 2013/11/27)

>  <Rbt.Parameter_File>
/export/apps/rDock/src/rDock_2013.1_src/data/scripts/dock_solv.prm

>  <Rbt.Receptor>
prm/pocket_docking_5.prm

>  <SCORE>
-17.9452

>  <SCORE.INTER>
-13.8771

>  <SCORE.INTER.CONST>
1

>  <SCORE.INTER.POLAR>
-1.35846

>  <SCORE.INTER.ROT>
3

>  <SCORE.INTER.SOLV>
6.66736

>  <SCORE.INTER.VDW>
-12.5456

>  <SCORE.INTER.norm>
-0.660814

>  <SCORE.INTRA>
-4.06807

>  <SCORE.INTRA.DIHEDRAL>
0.731933

>  <SCORE.INTRA.DIHEDRAL.0>
8.84257

>  <SCORE.INTRA.POLAR>
0

>  <SCORE.INTRA.POLAR.0>
0

>  <SCORE.INTRA.REPUL>
0

>  <SCORE.INTRA.REPUL.0>
0

>  <SCORE.INTRA.SOLV>
0.0853622

>  <SCORE.INTRA.SOLV.lig_0>
-17.1313

>  <SCORE.INTRA.VDW>
-4.47672

>  <SCORE.INTRA.VDW.0>
6.34071

>  <SCORE.INTRA.norm>
-0.193718

>  <SCORE.RESTR>
0

>  <SCORE.RESTR.CAVITY>
0

>  <SCORE.RESTR.norm>
0

>  <SCORE.SYSTEM>
0

>  <SCORE.SYSTEM.CONST>
0

>  <SCORE.SYSTEM.DIHEDRAL>
0

>  <SCORE.SYSTEM.SOLV>
0

>  <SCORE.SYSTEM.norm>
0

>  <SCORE.heavy>
21

>  <SCORE.norm>
-0.854532

>  <RMSD>
7.117

$$$$
lig.pdb
 OpenBabel11021811453D
libRbt.so/2013.1/901 2013/11/27
 21 23  0  0  0  0  0  0  0  0999 V2000
   -5.5926    6.7540    2.3112 C   0  0  0  0  0  0  0  0  0  0  0  0
   -5.1029    6.2978    3.4586 N   0  0  0  0  0  0  0  0  0  0  0  0
   -5.5751    5.1797    3.9799 C   0  0  0  0  0  0  0  0  0  0  0  0
   -6.6009    4.5404    3.3822 C   0  0  0  0  0  0  0  0  0  0  0  0
   -7.0897    5.0015    2.2232 C   0  0  0  0  0  0  0  0  0  0  0  0
   -8.1066    4.3791    1.6281 N   0  0  0  0  0  0  0  0  0  0  0  0
   -6.5838    6.1104    1.6932 N   0  0  0  0  0  0  0  0  0  0  0  0
   -5.0585    4.7125    5.1286 C   0  0  0  0  0  0  0  0  0  0  0  0
   -5.6687    3.6590    5.7532 C   0  0  0  0  0  0  0  0  0  0  0  0
   -5.7625    3.6956    7.1649 O   0  0  0  0  0  0  0  0  0  0  0  0
   -6.5520    2.9268    5.0547 C   0  0  0  0  0  0  0  0  0  0  0  0
   -6.8491    1.6003    5.4671 O   0  0  0  0  0  0  0  0  0  0  0  0
   -7.0944    3.4177    3.9231 C   0  0  0  0  0  0  0  0  0  0  0  0
   -5.1013    7.8651    1.7904 N   0  0  0  0  0  0  0  0  0  0  0  0
   -5.8530    8.9632    1.9138 C   0  0  0  0  0  0  0  0  0  0  0  0
   -6.9602    8.9575    0.8708 C   0  0  0  0  0  0  0  0  0  0  0  0
   -6.4064    8.9480   -0.3926 N   0  0  0  0  0  0  0  0  0  0  0  0
   -5.6721    7.7878   -0.5063 C   0  0  0  0  0  0  0  0  0  0  0  0
   -4.5620    7.7928    0.5314 C   0  0  0  0  0  0  0  0  0  0  0  0
   -4.5787    3.1562    7.6948 C   0  0  0  0  0  0  0  0  0  0  0  0
   -5.8494    0.7429    4.9816 C   0  0  0  0  0  0  0  0  0  0  0  0
  1 14  1  0  0  0  0
  1  2  2  0  0  0  0
  3  2  1  0  0  0  0
  3  8  2  0  0  0  0
  4  3  1  0  0  0  0
  5  7  2  0  0  0  0
  5  4  1  0  0  0  0
  6  5  1  0  0  0  0
  7  1  1  0  0  0  0
  9 10  1  0  0  0  0
  9  8  1  0  0  0  0
 11  9  2  0  0  0  0
 12 11  1  0  0  0  0
 13  4  2  0  0  0  0
 13 11  1  0  0  0  0
 14 15  1  0  0  0  0
 16 15  1  0  0  0  0
 17 16  1  0  0  0  0
 18 17  1  0  0  0  0
 18 19  1  0  0  0  0
 19 14  1  0  0  0  0
 20 10  1  0  0  0  0
 21 12  1  0  0  0  0
M  END
>  <CHROM.1>
-104.15489137,-86.43434284,-81.98793274,-6.03797428,5.33988894,3.24622139
-1.58363583,0.92002797,2.39170332

>  <Name>
lig.pdb

>  <RI>
2.20372e+07

>  <Rbt.Current_Directory>
/home/itssahil/PROJECTS/Mol_Feturizer/New_Systems/rnas/2lwk

>  <Rbt.Executable>
rbdock ($Id: //depot/dev/client3/rdock/2013.1/src/exe/rbdock.cxx#4 $)

>  <Rbt.Library>
libRbt.so (2013.1, Build901 2013/11/27)

>  <Rbt.Parameter_File>
/export/apps/rDock/src/rDock_2013.1_src/data/scripts/dock_solv.prm

>  <Rbt.Receptor>
prm/pocket_docking_7.prm

>  <SCORE>
-28.6448

>  <SCORE.INTER>
-23.2499

>  <SCORE.INTER.CONST>
1

>  <SCORE.INTER.POLAR>
-2.68439

>  <SCORE.INTER.ROT>
3

>  <SCORE.INTER.SOLV>
7.73716

>  <SCORE.INTER.VDW>
-14.731

>  <SCORE.INTER.norm>
-1.10714

>  <SCORE.INTRA>
-5.39481

>  <SCORE.INTRA.DIHEDRAL>
0.644759

>  <SCORE.INTRA.DIHEDRAL.0>
8.84257

>  <SCORE.INTRA.POLAR>
0

>  <SCORE.INTRA.POLAR.0>
0

>  <SCORE.INTRA.REPUL>
0

>  <SCORE.INTRA.REPUL.0>
0

>  <SCORE.INTRA.SOLV>
0.076601

>  <SCORE.INTRA.SOLV.lig_0>
-17.1313

>  <SCORE.INTRA.VDW>
-5.75549

>  <SCORE.INTRA.VDW.0>
6.34071

>  <SCORE.INTRA.norm>
-0.256896

>  <SCORE.RESTR>
0

>  <SCORE.RESTR.CAVITY>
0

>  <SCORE.RESTR.norm>
0

>  <SCORE.SYSTEM>
0

>  <SCORE.SYSTEM.CONST>
0

>  <SCORE.SYSTEM.DIHEDRAL>
0

>  <SCORE.SYSTEM.SOLV>
0

>  <SCORE.SYSTEM.norm>
0

>  <SCORE.heavy>
21

>  <SCORE.norm>
-1.36404

>  <RMSD>
7.119

$$$$
lig.pdb
 OpenBabel11021811453D
libRbt.so/2013.1/901 2013/11/27
 21 23  0  0  0  0  0  0  0  0999 V2000
   -5.6044    6.7640    2.3135 C   0  0  0  0  0  0  0  0  0  0  0  0
   -5.1139    6.3058    3.4596 N   0  0  0  0  0  0  0  0  0  0  0  0
   -5.5847    5.1860    3.9787 C   0  0  0  0  0  0  0  0  0  0  0  0
   -6.6100    4.5470    3.3799 C   0  0  0  0  0  0  0  0  0  0  0  0
   -7.0998    5.0102    2.2221 C   0  0  0  0  0  0  0  0  0  0  0  0
   -8.1163    4.3881    1.6261 N   0  0  0  0  0  0  0  0  0  0  0  0
   -6.5953    6.1208    1.6944 N   0  0  0  0  0  0  0  0  0  0  0  0
   -5.0671    4.7168    5.1261 C   0  0  0  0  0  0  0  0  0  0  0  0
   -5.6760    3.6613    5.7486 C   0  0  0  0  0  0  0  0  0  0  0  0
   -5.7692    3.6947    7.1605 O   0  0  0  0  0  0  0  0  0  0  0  0
   -6.5588    2.9298    5.0488 C   0  0  0  0  0  0  0  0  0  0  0  0
   -6.8544    1.6020    5.4584 O   0  0  0  0  0  0  0  0  0  0  0  0
   -7.1022    3.4226    3.9186 C   0  0  0  0  0  0  0  0  0  0  0  0
   -5.1145    7.8767    1.7949 N   0  0  0  0  0  0  0  0  0  0  0  0
   -5.8486    8.9819    1.9560 C   0  0  0  0  0  0  0  0  0  0  0  0
   -6.9853    9.0050    0.9453 C   0  0  0  0  0  0  0  0  0  0  0  0
   -6.4681    9.0077   -0.3336 N   0  0  0  0  0  0  0  0  0  0  0  0
   -5.7518    7.8405   -0.4853 C   0  0  0  0  0  0  0  0  0  0  0  0
   -4.6125    7.8167    0.5200 C   0  0  0  0  0  0  0  0  0  0  0  0
   -4.5658    3.1992    7.6889 C   0  0  0  0  0  0  0  0  0  0  0  0
   -5.9667    0.7243    4.8166 C   0  0  0  0  0  0  0  0  0  0  0  0
  1 14  1  0  0  0  0
  1  2  2  0  0  0  0
  3  2  1  0  0  0  0
  3  8  2  0  0  0  0
  4  3  1  0  0  0  0
  5  7  2  0  0  0  0
  5  4  1  0  0  0  0
  6  5  1  0  0  0  0
  7  1  1  0  0  0  0
  9 10  1  0  0  0  0
  9  8  1  0  0  0  0
 11  9  2  0  0  0  0
 12 11  1  0  0  0  0
 13  4  2  0  0  0  0
 13 11  1  0  0  0  0
 14 15  1  0  0  0  0
 16 15  1  0  0  0  0
 17 16  1  0  0  0  0
 18 17  1  0  0  0  0
 18 19  1  0  0  0  0
 19 14  1  0  0  0  0
 20 10  1  0  0  0  0
 21 12  1  0  0  0  0
M  END
>  <CHROM.1>
-102.22274214,-84.38545341,-90.27758096,-6.05984987,5.35513302,3.24518011
-1.58579003,0.93233462,2.40226123

>  <Name>
lig.pdb

>  <RI>
2.75338e+07

>  <Rbt.Current_Directory>
/home/itssahil/PROJECTS/Mol_Feturizer/New_Systems/rnas/2lwk

>  <Rbt.Executable>
rbdock ($Id: //depot/dev/client3/rdock/2013.1/src/exe/rbdock.cxx#4 $)

>  <Rbt.Library>
libRbt.so (2013.1, Build901 2013/11/27)

>  <Rbt.Parameter_File>
/export/apps/rDock/src/rDock_2013.1_src/data/scripts/dock_solv.prm

>  <Rbt.Receptor>
prm/pocket_docking_8.prm

>  <SCORE>
-28.6816

>  <SCORE.INTER>
-23.3823

>  <SCORE.INTER.CONST>
1

>  <SCORE.INTER.POLAR>
-2.68837

>  <SCORE.INTER.ROT>
3

>  <SCORE.INTER.SOLV>
7.85523

>  <SCORE.INTER.VDW>
-14.8454

>  <SCORE.INTER.norm>
-1.11344

>  <SCORE.INTRA>
-5.29928

>  <SCORE.INTRA.DIHEDRAL>
0.604931

>  <SCORE.INTRA.DIHEDRAL.0>
8.84257

>  <SCORE.INTRA.POLAR>
0

>  <SCORE.INTRA.POLAR.0>
0

>  <SCORE.INTRA.REPUL>
0

>  <SCORE.INTRA.REPUL.0>
0

>  <SCORE.INTRA.SOLV>
0.0688472

>  <SCORE.INTRA.SOLV.lig_0>
-17.1313

>  <SCORE.INTRA.VDW>
-5.63617

>  <SCORE.INTRA.VDW.0>
6.34071

>  <SCORE.INTRA.norm>
-0.252347

>  <SCORE.RESTR>
0

>  <SCORE.RESTR.CAVITY>
0

>  <SCORE.RESTR.norm>
0

>  <SCORE.SYSTEM>
0

>  <SCORE.SYSTEM.CONST>
0

>  <SCORE.SYSTEM.DIHEDRAL>
0

>  <SCORE.SYSTEM.SOLV>
0

>  <SCORE.SYSTEM.norm>
0

>  <SCORE.heavy>
21

>  <SCORE.norm>
-1.36579

>  <RMSD>
7.119

$$$$
lig.pdb
 OpenBabel11021811453D
libRbt.so/2013.1/901 2013/11/27
 21 23  0  0  0  0  0  0  0  0999 V2000
   -5.6061    6.7420    2.3005 C   0  0  0  0  0  0  0  0  0  0  0  0
   -5.1090    6.2948    3.4482 N   0  0  0  0  0  0  0  0  0  0  0  0
   -5.5755    5.1791    3.9796 C   0  0  0  0  0  0  0  0  0  0  0  0
   -6.6031    4.5333    3.3919 C   0  0  0  0  0  0  0  0  0  0  0  0
   -7.0994    4.9855    2.2326 C   0  0  0  0  0  0  0  0  0  0  0  0
   -8.1181    4.3566    1.6475 N   0  0  0  0  0  0  0  0  0  0  0  0
   -6.5992    6.0919    1.6924 N   0  0  0  0  0  0  0  0  0  0  0  0
   -5.0514    4.7208    5.1285 C   0  0  0  0  0  0  0  0  0  0  0  0
   -5.6555    3.6702    5.7636 C   0  0  0  0  0  0  0  0  0  0  0  0
   -5.7415    3.7161    7.1755 O   0  0  0  0  0  0  0  0  0  0  0  0
   -6.5410    2.9312    5.0750 C   0  0  0  0  0  0  0  0  0  0  0  0
   -6.8326    1.6067    5.4979 O   0  0  0  0  0  0  0  0  0  0  0  0
   -7.0908    3.4131    3.9432 C   0  0  0  0  0  0  0  0  0  0  0  0
   -5.1204    7.8508    1.7694 N   0  0  0  0  0  0  0  0  0  0  0  0
   -5.8186    8.9696    1.9858 C   0  0  0  0  0  0  0  0  0  0  0  0
   -7.0093    9.0324    1.0413 C   0  0  0  0  0  0  0  0  0  0  0  0
   -6.5647    9.0416   -0.2646 N   0  0  0  0  0  0  0  0  0  0  0  0
   -5.8852    7.8610   -0.4714 C   0  0  0  0  0  0  0  0  0  0  0  0
   -4.6922    7.7975    0.4676 C   0  0  0  0  0  0  0  0  0  0  0  0
   -4.5494    3.1922    7.7024 C   0  0  0  0  0  0  0  0  0  0  0  0
   -5.8739    0.7383    4.9529 C   0  0  0  0  0  0  0  0  0  0  0  0
  1 14  1  0  0  0  0
  1  2  2  0  0  0  0
  3  2  1  0  0  0  0
  3  8  2  0  0  0  0
  4  3  1  0  0  0  0
  5  7  2  0  0  0  0
  5  4  1  0  0  0  0
  6  5  1  0  0  0  0
  7  1  1  0  0  0  0
  9 10  1  0  0  0  0
  9  8  1  0  0  0  0
 11  9  2  0  0  0  0
 12 11  1  0  0  0  0
 13  4  2  0  0  0  0
 13 11  1  0  0  0  0
 14 15  1  0  0  0  0
 16 15  1  0  0  0  0
 17 16  1  0  0  0  0
 18 17  1  0  0  0  0
 18 19  1  0  0  0  0
 19 14  1  0  0  0  0
 20 10  1  0  0  0  0
 21 12  1  0  0  0  0
M  END
>  <CHROM.1>
-98.74022361,-86.00452439,-85.12657998,-6.06342739,5.35191688,3.26643517
-1.60432742,0.93112089,2.41554887

>  <Name>
lig.pdb

>  <RI>
2.20372e+07

>  <Rbt.Current_Directory>
/home/itssahil/PROJECTS/Mol_Feturizer/New_Systems/rnas/2lwk

>  <Rbt.Executable>
rbdock ($Id: //depot/dev/client3/rdock/2013.1/src/exe/rbdock.cxx#4 $)

>  <Rbt.Library>
libRbt.so (2013.1, Build901 2013/11/27)

>  <Rbt.Parameter_File>
/export/apps/rDock/src/rDock_2013.1_src/data/scripts/dock_solv.prm

>  <Rbt.Receptor>
prm/pocket_docking_7.prm

>  <SCORE>
-28.8129

>  <SCORE.INTER>
-23.5009

>  <SCORE.INTER.CONST>
1

>  <SCORE.INTER.POLAR>
-2.68324

>  <SCORE.INTER.ROT>
3

>  <SCORE.INTER.SOLV>
7.82013

>  <SCORE.INTER.VDW>
-14.9298

>  <SCORE.INTER.norm>
-1.11909

>  <SCORE.INTRA>
-5.31199

>  <SCORE.INTRA.DIHEDRAL>
0.67057

>  <SCORE.INTRA.DIHEDRAL.0>
8.84257

>  <SCORE.INTRA.POLAR>
0

>  <SCORE.INTRA.POLAR.0>
0

>  <SCORE.INTRA.REPUL>
0

>  <SCORE.INTRA.REPUL.0>
0

>  <SCORE.INTRA.SOLV>
0.0717076

>  <SCORE.INTRA.SOLV.lig_0>
-17.1313

>  <SCORE.INTRA.VDW>
-5.68313

>  <SCORE.INTRA.VDW.0>
6.34071

>  <SCORE.INTRA.norm>
-0.252952

>  <SCORE.RESTR>
0

>  <SCORE.RESTR.CAVITY>
0

>  <SCORE.RESTR.norm>
0

>  <SCORE.SYSTEM>
0

>  <SCORE.SYSTEM.CONST>
0

>  <SCORE.SYSTEM.DIHEDRAL>
0

>  <SCORE.SYSTEM.SOLV>
0

>  <SCORE.SYSTEM.norm>
0

>  <SCORE.heavy>
21

>  <SCORE.norm>
-1.37204

>  <RMSD>
7.124

$$$$
lig.pdb
 OpenBabel11021811453D
libRbt.so/2013.1/901 2013/11/27
 21 23  0  0  0  0  0  0  0  0999 V2000
   -6.5619    1.2275    5.9845 C   0  0  0  0  0  0  0  0  0  0  0  0
   -6.7736    1.7253    4.7714 N   0  0  0  0  0  0  0  0  0  0  0  0
   -6.3267    2.9299    4.4648 C   0  0  0  0  0  0  0  0  0  0  0  0
   -5.7171    3.6798    5.4051 C   0  0  0  0  0  0  0  0  0  0  0  0
   -5.5022    3.1730    6.6265 C   0  0  0  0  0  0  0  0  0  0  0  0
   -4.9052    3.9088    7.5634 N   0  0  0  0  0  0  0  0  0  0  0  0
   -5.9291    1.9472    6.9120 N   0  0  0  0  0  0  0  0  0  0  0  0
   -6.5244    3.4168    3.2284 C   0  0  0  0  0  0  0  0  0  0  0  0
   -6.2204    4.7260    2.9720 C   0  0  0  0  0  0  0  0  0  0  0  0
   -7.1043    5.4565    2.1424 O   0  0  0  0  0  0  0  0  0  0  0  0
   -5.4465    5.3858    3.8496 C   0  0  0  0  0  0  0  0  0  0  0  0
   -4.7335    6.5407    3.4301 O   0  0  0  0  0  0  0  0  0  0  0  0
   -5.2832    4.9107    5.0999 C   0  0  0  0  0  0  0  0  0  0  0  0
   -6.9993    0.0145    6.2753 N   0  0  0  0  0  0  0  0  0  0  0  0
   -6.4121   -0.9997    5.6327 C   0  0  0  0  0  0  0  0  0  0  0  0
   -6.9805   -1.1258    4.2273 C   0  0  0  0  0  0  0  0  0  0  0  0
   -8.3348   -1.3791    4.2964 N   0  0  0  0  0  0  0  0  0  0  0  0
   -8.9188   -0.3013    4.9254 C   0  0  0  0  0  0  0  0  0  0  0  0
   -8.3563   -0.1756    6.3314 C   0  0  0  0  0  0  0  0  0  0  0  0
   -6.7458    5.2170    0.8056 C   0  0  0  0  0  0  0  0  0  0  0  0
   -3.4886    6.1411    2.9196 C   0  0  0  0  0  0  0  0  0  0  0  0
  1 14  1  0  0  0  0
  1  2  2  0  0  0  0
  3  2  1  0  0  0  0
  3  8  2  0  0  0  0
  4  3  1  0  0  0  0
  5  7  2  0  0  0  0
  5  4  1  0  0  0  0
  6  5  1  0  0  0  0
  7  1  1  0  0  0  0
  9 10  1  0  0  0  0
  9  8  1  0  0  0  0
 11  9  2  0  0  0  0
 12 11  1  0  0  0  0
 13  4  2  0  0  0  0
 13 11  1  0  0  0  0
 14 15  1  0  0  0  0
 16 15  1  0  0  0  0
 17 16  1  0  0  0  0
 18 17  1  0  0  0  0
 18 19  1  0  0  0  0
 19 14  1  0  0  0  0
 20 10  1  0  0  0  0
 21 12  1  0  0  0  0
M  END
>  <CHROM.1>
67.05939078,-85.05856147,-88.22026199,-6.34689942,2.70100413,4.63111929,-2.16894622
-0.97703519,-0.88709608

>  <Name>
lig.pdb

>  <RI>
2.59814e+07

>  <Rbt.Current_Directory>
/home/itssahil/PROJECTS/Mol_Feturizer/New_Systems/rnas/2lwk

>  <Rbt.Executable>
rbdock ($Id: //depot/dev/client3/rdock/2013.1/src/exe/rbdock.cxx#4 $)

>  <Rbt.Library>
libRbt.so (2013.1, Build901 2013/11/27)

>  <Rbt.Parameter_File>
/export/apps/rDock/src/rDock_2013.1_src/data/scripts/dock_solv.prm

>  <Rbt.Receptor>
prm/pocket_docking_6.prm

>  <SCORE>
-20.3279

>  <SCORE.INTER>
-15.0403

>  <SCORE.INTER.CONST>
1

>  <SCORE.INTER.POLAR>
-1.73898

>  <SCORE.INTER.ROT>
3

>  <SCORE.INTER.SOLV>
6.33315

>  <SCORE.INTER.VDW>
-11.9413

>  <SCORE.INTER.norm>
-0.716204

>  <SCORE.INTRA>
-5.28759

>  <SCORE.INTRA.DIHEDRAL>
0.636912

>  <SCORE.INTRA.DIHEDRAL.0>
8.84257

>  <SCORE.INTRA.POLAR>
0

>  <SCORE.INTRA.POLAR.0>
0

>  <SCORE.INTRA.REPUL>
0

>  <SCORE.INTRA.REPUL.0>
0

>  <SCORE.INTRA.SOLV>
0.082969

>  <SCORE.INTRA.SOLV.lig_0>
-17.1313

>  <SCORE.INTRA.VDW>
-5.64753

>  <SCORE.INTRA.VDW.0>
6.34071

>  <SCORE.INTRA.norm>
-0.25179

>  <SCORE.RESTR>
0

>  <SCORE.RESTR.CAVITY>
0

>  <SCORE.RESTR.norm>
0

>  <SCORE.SYSTEM>
0

>  <SCORE.SYSTEM.CONST>
0

>  <SCORE.SYSTEM.DIHEDRAL>
0

>  <SCORE.SYSTEM.SOLV>
0

>  <SCORE.SYSTEM.norm>
0

>  <SCORE.heavy>
21

>  <SCORE.norm>
-0.967994

>  <RMSD>
7.126

$$$$
lig.pdb
 OpenBabel11021811453D
libRbt.so/2013.1/901 2013/11/27
 21 23  0  0  0  0  0  0  0  0999 V2000
   -5.8531    6.3030    1.0151 C   0  0  0  0  0  0  0  0  0  0  0  0
   -5.3384    6.1436    2.2292 N   0  0  0  0  0  0  0  0  0  0  0  0
   -5.7432    5.1439    2.9918 C   0  0  0  0  0  0  0  0  0  0  0  0
   -6.7278    4.3282    2.5637 C   0  0  0  0  0  0  0  0  0  0  0  0
   -7.2419    4.4899    1.3372 C   0  0  0  0  0  0  0  0  0  0  0  0
   -8.2187    3.6917    0.9079 N   0  0  0  0  0  0  0  0  0  0  0  0
   -6.8029    5.4806    0.5677 N   0  0  0  0  0  0  0  0  0  0  0  0
   -5.2009    4.9757    4.2094 C   0  0  0  0  0  0  0  0  0  0  0  0
   -5.7475    4.0537    5.0600 C   0  0  0  0  0  0  0  0  0  0  0  0
   -5.8453    4.3984    6.4292 O   0  0  0  0  0  0  0  0  0  0  0  0
   -6.5842    3.1336    4.5526 C   0  0  0  0  0  0  0  0  0  0  0  0
   -6.8015    1.9171    5.2533 O   0  0  0  0  0  0  0  0  0  0  0  0
   -7.1536    3.3271    3.3468 C   0  0  0  0  0  0  0  0  0  0  0  0
   -5.4288    7.2971    0.2542 N   0  0  0  0  0  0  0  0  0  0  0  0
   -4.3774    7.0396   -0.5296 C   0  0  0  0  0  0  0  0  0  0  0  0
   -3.0928    7.1058    0.2824 C   0  0  0  0  0  0  0  0  0  0  0  0
   -2.9433    8.3715    0.8105 N   0  0  0  0  0  0  0  0  0  0  0  0
   -4.0173    8.5938    1.6444 C   0  0  0  0  0  0  0  0  0  0  0  0
   -5.3020    8.5330    0.8351 C   0  0  0  0  0  0  0  0  0  0  0  0
   -4.7552    3.8228    7.1027 C   0  0  0  0  0  0  0  0  0  0  0  0
   -5.7638    1.0252    4.9404 C   0  0  0  0  0  0  0  0  0  0  0  0
  1 14  1  0  0  0  0
  1  2  2  0  0  0  0
  3  2  1  0  0  0  0
  3  8  2  0  0  0  0
  4  3  1  0  0  0  0
  5  7  2  0  0  0  0
  5  4  1  0  0  0  0
  6  5  1  0  0  0  0
  7  1  1  0  0  0  0
  9 10  1  0  0  0  0
  9  8  1  0  0  0  0
 11  9  2  0  0  0  0
 12 11  1  0  0  0  0
 13  4  2  0  0  0  0
 13 11  1  0  0  0  0
 14 15  1  0  0  0  0
 16 15  1  0  0  0  0
 17 16  1  0  0  0  0
 18 17  1  0  0  0  0
 18 19  1  0  0  0  0
 19 14  1  0  0  0  0
 20 10  1  0  0  0  0
 21 12  1  0  0  0  0
M  END
>  <CHROM.1>
89.19459541,-98.18504695,-83.00800234,-5.64893391,5.18570621,2.68406212,1.21743656
-0.78637771,-1.04312882

>  <Name>
lig.pdb

>  <RI>
2.20372e+07

>  <Rbt.Current_Directory>
/home/itssahil/PROJECTS/Mol_Feturizer/New_Systems/rnas/2lwk

>  <Rbt.Executable>
rbdock ($Id: //depot/dev/client3/rdock/2013.1/src/exe/rbdock.cxx#4 $)

>  <Rbt.Library>
libRbt.so (2013.1, Build901 2013/11/27)

>  <Rbt.Parameter_File>
/export/apps/rDock/src/rDock_2013.1_src/data/scripts/dock_solv.prm

>  <Rbt.Receptor>
prm/pocket_docking_7.prm

>  <SCORE>
-25.8152

>  <SCORE.INTER>
-20.6694

>  <SCORE.INTER.CONST>
1

>  <SCORE.INTER.POLAR>
-2.85414

>  <SCORE.INTER.ROT>
3

>  <SCORE.INTER.SOLV>
6.25454

>  <SCORE.INTER.VDW>
-11.9506

>  <SCORE.INTER.norm>
-0.984256

>  <SCORE.INTRA>
-5.14581

>  <SCORE.INTRA.DIHEDRAL>
0.949537

>  <SCORE.INTRA.DIHEDRAL.0>
8.84257

>  <SCORE.INTRA.POLAR>
0

>  <SCORE.INTRA.POLAR.0>
0

>  <SCORE.INTRA.REPUL>
0

>  <SCORE.INTRA.REPUL.0>
0

>  <SCORE.INTRA.SOLV>
0.0838911

>  <SCORE.INTRA.SOLV.lig_0>
-17.1313

>  <SCORE.INTRA.VDW>
-5.66252

>  <SCORE.INTRA.VDW.0>
6.34071

>  <SCORE.INTRA.norm>
-0.245039

>  <SCORE.RESTR>
0

>  <SCORE.RESTR.CAVITY>
0

>  <SCORE.RESTR.norm>
0

>  <SCORE.SYSTEM>
0

>  <SCORE.SYSTEM.CONST>
0

>  <SCORE.SYSTEM.DIHEDRAL>
0

>  <SCORE.SYSTEM.SOLV>
0

>  <SCORE.SYSTEM.norm>
0

>  <SCORE.heavy>
21

>  <SCORE.norm>
-1.22929

>  <RMSD>
7.126

$$$$
lig.pdb
 OpenBabel11021811453D
libRbt.so/2013.1/901 2013/11/27
 21 23  0  0  0  0  0  0  0  0999 V2000
   -5.6023    6.7562    2.2891 C   0  0  0  0  0  0  0  0  0  0  0  0
   -5.1087    6.3034    3.4361 N   0  0  0  0  0  0  0  0  0  0  0  0
   -5.5784    5.1864    3.9619 C   0  0  0  0  0  0  0  0  0  0  0  0
   -6.6056    4.5449    3.3692 C   0  0  0  0  0  0  0  0  0  0  0  0
   -7.0985    5.0025    2.2105 C   0  0  0  0  0  0  0  0  0  0  0  0
   -8.1169    4.3778    1.6204 N   0  0  0  0  0  0  0  0  0  0  0  0
   -6.5951    6.1103    1.6759 N   0  0  0  0  0  0  0  0  0  0  0  0
   -5.0577    4.7226    5.1102 C   0  0  0  0  0  0  0  0  0  0  0  0
   -5.6652    3.6704    5.7395 C   0  0  0  0  0  0  0  0  0  0  0  0
   -5.7545    3.7108    7.1515 O   0  0  0  0  0  0  0  0  0  0  0  0
   -6.5503    2.9358    5.0458 C   0  0  0  0  0  0  0  0  0  0  0  0
   -6.8451    1.6101    5.4627 O   0  0  0  0  0  0  0  0  0  0  0  0
   -7.0966    3.4233    3.9147 C   0  0  0  0  0  0  0  0  0  0  0  0
   -5.1135    7.8662    1.7636 N   0  0  0  0  0  0  0  0  0  0  0  0
   -5.8577    8.9677    1.9013 C   0  0  0  0  0  0  0  0  0  0  0  0
   -6.9807    8.9702    0.8753 C   0  0  0  0  0  0  0  0  0  0  0  0
   -6.4462    8.9614   -0.3965 N   0  0  0  0  0  0  0  0  0  0  0  0
   -5.7195    7.7978   -0.5243 C   0  0  0  0  0  0  0  0  0  0  0  0
   -4.5938    7.7946    0.4965 C   0  0  0  0  0  0  0  0  0  0  0  0
   -4.5602    3.1924    7.6790 C   0  0  0  0  0  0  0  0  0  0  0  0
   -5.8541    0.7501    4.9643 C   0  0  0  0  0  0  0  0  0  0  0  0
  1 14  1  0  0  0  0
  1  2  2  0  0  0  0
  3  2  1  0  0  0  0
  3  8  2  0  0  0  0
  4  3  1  0  0  0  0
  5  7  2  0  0  0  0
  5  4  1  0  0  0  0
  6  5  1  0  0  0  0
  7  1  1  0  0  0  0
  9 10  1  0  0  0  0
  9  8  1  0  0  0  0
 11  9  2  0  0  0  0
 12 11  1  0  0  0  0
 13  4  2  0  0  0  0
 13 11  1  0  0  0  0
 14 15  1  0  0  0  0
 16 15  1  0  0  0  0
 17 16  1  0  0  0  0
 18 17  1  0  0  0  0
 18 19  1  0  0  0  0
 19 14  1  0  0  0  0
 20 10  1  0  0  0  0
 21 12  1  0  0  0  0
M  END
>  <CHROM.1>
-103.33730540,-85.55034002,-82.61259886,-6.04666037,5.34803334,3.23183612
-1.59001763,0.92047825,2.39600073

>  <Name>
lig.pdb

>  <RI>
2.75338e+07

>  <Rbt.Current_Directory>
/home/itssahil/PROJECTS/Mol_Feturizer/New_Systems/rnas/2lwk

>  <Rbt.Executable>
rbdock ($Id: //depot/dev/client3/rdock/2013.1/src/exe/rbdock.cxx#4 $)

>  <Rbt.Library>
libRbt.so (2013.1, Build901 2013/11/27)

>  <Rbt.Parameter_File>
/export/apps/rDock/src/rDock_2013.1_src/data/scripts/dock_solv.prm

>  <Rbt.Receptor>
prm/pocket_docking_8.prm

>  <SCORE>
-28.6398

>  <SCORE.INTER>
-23.2662

>  <SCORE.INTER.CONST>
1

>  <SCORE.INTER.POLAR>
-2.67817

>  <SCORE.INTER.ROT>
3

>  <SCORE.INTER.SOLV>
7.72702

>  <SCORE.INTER.VDW>
-14.7592

>  <SCORE.INTER.norm>
-1.10791

>  <SCORE.INTRA>
-5.37363

>  <SCORE.INTRA.DIHEDRAL>
0.619351

>  <SCORE.INTRA.DIHEDRAL.0>
8.84257

>  <SCORE.INTRA.POLAR>
0

>  <SCORE.INTRA.POLAR.0>
0

>  <SCORE.INTRA.REPUL>
0

>  <SCORE.INTRA.REPUL.0>
0

>  <SCORE.INTRA.SOLV>
0.0750978

>  <SCORE.INTRA.SOLV.lig_0>
-17.1313

>  <SCORE.INTRA.VDW>
-5.72086

>  <SCORE.INTRA.VDW.0>
6.34071

>  <SCORE.INTRA.norm>
-0.255887

>  <SCORE.RESTR>
0

>  <SCORE.RESTR.CAVITY>
0

>  <SCORE.RESTR.norm>
0

>  <SCORE.SYSTEM>
0

>  <SCORE.SYSTEM.CONST>
0

>  <SCORE.SYSTEM.DIHEDRAL>
0

>  <SCORE.SYSTEM.SOLV>
0

>  <SCORE.SYSTEM.norm>
0

>  <SCORE.heavy>
21

>  <SCORE.norm>
-1.3638

>  <RMSD>
7.128

$$$$
lig.pdb
 OpenBabel11021811453D
libRbt.so/2013.1/901 2013/11/27
 21 23  0  0  0  0  0  0  0  0999 V2000
   -5.9004    6.3613    1.1858 C   0  0  0  0  0  0  0  0  0  0  0  0
   -5.4131    6.1517    2.4036 N   0  0  0  0  0  0  0  0  0  0  0  0
   -5.8187    5.1095    3.1066 C   0  0  0  0  0  0  0  0  0  0  0  0
   -6.7776    4.2992    2.6146 C   0  0  0  0  0  0  0  0  0  0  0  0
   -7.2640    4.5117    1.3845 C   0  0  0  0  0  0  0  0  0  0  0  0
   -8.2155    3.7192    0.8925 N   0  0  0  0  0  0  0  0  0  0  0  0
   -6.8240    5.5459    0.6752 N   0  0  0  0  0  0  0  0  0  0  0  0
   -5.3037    4.8913    4.3280 C   0  0  0  0  0  0  0  0  0  0  0  0
   -5.8546    3.9201    5.1190 C   0  0  0  0  0  0  0  0  0  0  0  0
   -5.9923    4.1961    6.5003 O   0  0  0  0  0  0  0  0  0  0  0  0
   -6.6619    3.0119    4.5466 C   0  0  0  0  0  0  0  0  0  0  0  0
   -6.8746    1.7593    5.1822 O   0  0  0  0  0  0  0  0  0  0  0  0
   -7.2047    3.2543    3.3374 C   0  0  0  0  0  0  0  0  0  0  0  0
   -5.4753    7.3982    0.4848 N   0  0  0  0  0  0  0  0  0  0  0  0
   -5.3772    8.5592    1.1395 C   0  0  0  0  0  0  0  0  0  0  0  0
   -6.7495    9.2026    1.2691 C   0  0  0  0  0  0  0  0  0  0  0  0
   -7.2646    9.4521    0.0139 N   0  0  0  0  0  0  0  0  0  0  0  0
   -7.3933    8.2366   -0.6221 C   0  0  0  0  0  0  0  0  0  0  0  0
   -6.0231    7.5934   -0.7573 C   0  0  0  0  0  0  0  0  0  0  0  0
   -4.8729    3.6677    7.1643 C   0  0  0  0  0  0  0  0  0  0  0  0
   -5.8190    0.8978    4.8448 C   0  0  0  0  0  0  0  0  0  0  0  0
  1 14  1  0  0  0  0
  1  2  2  0  0  0  0
  3  2  1  0  0  0  0
  3  8  2  0  0  0  0
  4  3  1  0  0  0  0
  5  7  2  0  0  0  0
  5  4  1  0  0  0  0
  6  5  1  0  0  0  0
  7  1  1  0  0  0  0
  9 10  1  0  0  0  0
  9  8  1  0  0  0  0
 11  9  2  0  0  0  0
 12 11  1  0  0  0  0
 13  4  2  0  0  0  0
 13 11  1  0  0  0  0
 14 15  1  0  0  0  0
 16 15  1  0  0  0  0
 17 16  1  0  0  0  0
 18 17  1  0  0  0  0
 18 19  1  0  0  0  0
 19 14  1  0  0  0  0
 20 10  1  0  0  0  0
 21 12  1  0  0  0  0
M  END
>  <CHROM.1>
-44.28613315,-95.12099872,-83.46005218,-6.34777228,5.31277041,2.62977250
1.70315126,-1.06853625,-0.65501193

>  <Name>
lig.pdb

>  <RI>
2.20372e+07

>  <Rbt.Current_Directory>
/home/itssahil/PROJECTS/Mol_Feturizer/New_Systems/rnas/2lwk

>  <Rbt.Executable>
rbdock ($Id: //depot/dev/client3/rdock/2013.1/src/exe/rbdock.cxx#4 $)

>  <Rbt.Library>
libRbt.so (2013.1, Build901 2013/11/27)

>  <Rbt.Parameter_File>
/export/apps/rDock/src/rDock_2013.1_src/data/scripts/dock_solv.prm

>  <Rbt.Receptor>
prm/pocket_docking_7.prm

>  <SCORE>
-25.8446

>  <SCORE.INTER>
-22.0506

>  <SCORE.INTER.CONST>
1

>  <SCORE.INTER.POLAR>
-2.83722

>  <SCORE.INTER.ROT>
3

>  <SCORE.INTER.SOLV>
6.66262

>  <SCORE.INTER.VDW>
-13.0638

>  <SCORE.INTER.norm>
-1.05003

>  <SCORE.INTRA>
-3.79402

>  <SCORE.INTRA.DIHEDRAL>
0.915721

>  <SCORE.INTRA.DIHEDRAL.0>
8.84257

>  <SCORE.INTRA.POLAR>
0

>  <SCORE.INTRA.POLAR.0>
0

>  <SCORE.INTRA.REPUL>
0

>  <SCORE.INTRA.REPUL.0>
0

>  <SCORE.INTRA.SOLV>
-0.0138175

>  <SCORE.INTRA.SOLV.lig_0>
-17.1313

>  <SCORE.INTRA.VDW>
-4.24497

>  <SCORE.INTRA.VDW.0>
6.34071

>  <SCORE.INTRA.norm>
-0.180668

>  <SCORE.RESTR>
0

>  <SCORE.RESTR.CAVITY>
0

>  <SCORE.RESTR.norm>
0

>  <SCORE.SYSTEM>
0

>  <SCORE.SYSTEM.CONST>
0

>  <SCORE.SYSTEM.DIHEDRAL>
0

>  <SCORE.SYSTEM.SOLV>
0

>  <SCORE.SYSTEM.norm>
0

>  <SCORE.heavy>
21

>  <SCORE.norm>
-1.2307

>  <RMSD>
7.130

$$$$
lig.pdb
 OpenBabel11021811453D
libRbt.so/2013.1/901 2013/11/27
 21 23  0  0  0  0  0  0  0  0999 V2000
   -6.2345    5.1909    2.9968 C   0  0  0  0  0  0  0  0  0  0  0  0
   -6.5395    4.1558    3.7713 N   0  0  0  0  0  0  0  0  0  0  0  0
   -5.7775    3.8605    4.8090 C   0  0  0  0  0  0  0  0  0  0  0  0
   -4.6530    4.5680    5.0399 C   0  0  0  0  0  0  0  0  0  0  0  0
   -4.3506    5.6135    4.2587 C   0  0  0  0  0  0  0  0  0  0  0  0
   -3.2388    6.3150    4.4763 N   0  0  0  0  0  0  0  0  0  0  0  0
   -5.1432    5.9192    3.2366 N   0  0  0  0  0  0  0  0  0  0  0  0
   -6.1058    2.8264    5.6012 C   0  0  0  0  0  0  0  0  0  0  0  0
   -5.2218    2.4168    6.5619 C   0  0  0  0  0  0  0  0  0  0  0  0
   -5.0744    1.0246    6.7699 O   0  0  0  0  0  0  0  0  0  0  0  0
   -4.2164    3.2416    6.8982 C   0  0  0  0  0  0  0  0  0  0  0  0
   -3.5762    3.0943    8.1578 O   0  0  0  0  0  0  0  0  0  0  0  0
   -3.8683    4.2542    6.0803 C   0  0  0  0  0  0  0  0  0  0  0  0
   -7.0132    5.4872    1.9706 N   0  0  0  0  0  0  0  0  0  0  0  0
   -7.9107    4.5618    1.6180 C   0  0  0  0  0  0  0  0  0  0  0  0
   -7.2394    3.4690    0.8000 C   0  0  0  0  0  0  0  0  0  0  0  0
   -6.7011    4.0138   -0.3475 N   0  0  0  0  0  0  0  0  0  0  0  0
   -5.7522    4.9325    0.0447 C   0  0  0  0  0  0  0  0  0  0  0  0
   -6.4207    6.0282    0.8583 C   0  0  0  0  0  0  0  0  0  0  0  0
   -4.1822    0.5313    5.8035 C   0  0  0  0  0  0  0  0  0  0  0  0
   -4.4045    3.6405    9.1508 C   0  0  0  0  0  0  0  0  0  0  0  0
  1 14  1  0  0  0  0
  1  2  2  0  0  0  0
  3  2  1  0  0  0  0
  3  8  2  0  0  0  0
  4  3  1  0  0  0  0
  5  7  2  0  0  0  0
  5  4  1  0  0  0  0
  6  5  1  0  0  0  0
  7  1  1  0  0  0  0
  9 10  1  0  0  0  0
  9  8  1  0  0  0  0
 11  9  2  0  0  0  0
 12 11  1  0  0  0  0
 13  4  2  0  0  0  0
 13 11  1  0  0  0  0
 14 15  1  0  0  0  0
 16 15  1  0  0  0  0
 17 16  1  0  0  0  0
 18 17  1  0  0  0  0
 18 19  1  0  0  0  0
 19 14  1  0  0  0  0
 20 10  1  0  0  0  0
 21 12  1  0  0  0  0
M  END
>  <CHROM.1>
-13.16051013,82.35573042,-77.02418104,-5.39357412,4.03122448,4.22037900,-2.21594738
0.99663375,2.46023032

>  <Name>
lig.pdb

>  <RI>
2.20372e+07

>  <Rbt.Current_Directory>
/home/itssahil/PROJECTS/Mol_Feturizer/New_Systems/rnas/2lwk

>  <Rbt.Executable>
rbdock ($Id: //depot/dev/client3/rdock/2013.1/src/exe/rbdock.cxx#4 $)

>  <Rbt.Library>
libRbt.so (2013.1, Build901 2013/11/27)

>  <Rbt.Parameter_File>
/export/apps/rDock/src/rDock_2013.1_src/data/scripts/dock_solv.prm

>  <Rbt.Receptor>
prm/pocket_docking_7.prm

>  <SCORE>
-17.8338

>  <SCORE.INTER>
-15.6998

>  <SCORE.INTER.CONST>
1

>  <SCORE.INTER.POLAR>
-1.35706

>  <SCORE.INTER.ROT>
3

>  <SCORE.INTER.SOLV>
7.76272

>  <SCORE.INTER.VDW>
-14.1306

>  <SCORE.INTER.norm>
-0.747611

>  <SCORE.INTRA>
-2.13397

>  <SCORE.INTRA.DIHEDRAL>
0.805656

>  <SCORE.INTRA.DIHEDRAL.0>
8.84257

>  <SCORE.INTRA.POLAR>
0

>  <SCORE.INTRA.POLAR.0>
0

>  <SCORE.INTRA.REPUL>
0

>  <SCORE.INTRA.REPUL.0>
0

>  <SCORE.INTRA.SOLV>
-0.0604045

>  <SCORE.INTRA.SOLV.lig_0>
-17.1313

>  <SCORE.INTRA.VDW>
-2.5066

>  <SCORE.INTRA.VDW.0>
6.34071

>  <SCORE.INTRA.norm>
-0.101618

>  <SCORE.RESTR>
0

>  <SCORE.RESTR.CAVITY>
0

>  <SCORE.RESTR.norm>
0

>  <SCORE.SYSTEM>
0

>  <SCORE.SYSTEM.CONST>
0

>  <SCORE.SYSTEM.DIHEDRAL>
0

>  <SCORE.SYSTEM.SOLV>
0

>  <SCORE.SYSTEM.norm>
0

>  <SCORE.heavy>
21

>  <SCORE.norm>
-0.849228

>  <RMSD>
7.131

$$$$
lig.pdb
 OpenBabel11021811453D
libRbt.so/2013.1/901 2013/11/27
 21 23  0  0  0  0  0  0  0  0999 V2000
   -5.5974    6.7526    2.2976 C   0  0  0  0  0  0  0  0  0  0  0  0
   -5.1043    6.2987    3.4444 N   0  0  0  0  0  0  0  0  0  0  0  0
   -5.5754    5.1821    3.9698 C   0  0  0  0  0  0  0  0  0  0  0  0
   -6.6035    4.5421    3.3769 C   0  0  0  0  0  0  0  0  0  0  0  0
   -7.0959    5.0009    2.2185 C   0  0  0  0  0  0  0  0  0  0  0  0
   -8.1151    4.3778    1.6282 N   0  0  0  0  0  0  0  0  0  0  0  0
   -6.5911    6.1082    1.6843 N   0  0  0  0  0  0  0  0  0  0  0  0
   -5.0552    4.7172    5.1178 C   0  0  0  0  0  0  0  0  0  0  0  0
   -5.6640    3.6655    5.7468 C   0  0  0  0  0  0  0  0  0  0  0  0
   -5.7531    3.7053    7.1587 O   0  0  0  0  0  0  0  0  0  0  0  0
   -6.5500    2.9323    5.0529 C   0  0  0  0  0  0  0  0  0  0  0  0
   -6.8466    1.6068    5.4692 O   0  0  0  0  0  0  0  0  0  0  0  0
   -7.0959    3.4209    3.9220 C   0  0  0  0  0  0  0  0  0  0  0  0
   -5.1072    7.8622    1.7726 N   0  0  0  0  0  0  0  0  0  0  0  0
   -5.7915    8.9855    2.0097 C   0  0  0  0  0  0  0  0  0  0  0  0
   -6.9930    9.0704    1.0807 C   0  0  0  0  0  0  0  0  0  0  0  0
   -6.5644    9.0895   -0.2304 N   0  0  0  0  0  0  0  0  0  0  0  0
   -5.8993    7.9046   -0.4584 C   0  0  0  0  0  0  0  0  0  0  0  0
   -4.6955    7.8190    0.4651 C   0  0  0  0  0  0  0  0  0  0  0  0
   -4.5429    3.2251    7.6858 C   0  0  0  0  0  0  0  0  0  0  0  0
   -5.8645    0.7437    4.9585 C   0  0  0  0  0  0  0  0  0  0  0  0
  1 14  1  0  0  0  0
  1  2  2  0  0  0  0
  3  2  1  0  0  0  0
  3  8  2  0  0  0  0
  4  3  1  0  0  0  0
  5  7  2  0  0  0  0
  5  4  1  0  0  0  0
  6  5  1  0  0  0  0
  7  1  1  0  0  0  0
  9 10  1  0  0  0  0
  9  8  1  0  0  0  0
 11  9  2  0  0  0  0
 12 11  1  0  0  0  0
 13  4  2  0  0  0  0
 13 11  1  0  0  0  0
 14 15  1  0  0  0  0
 16 15  1  0  0  0  0
 17 16  1  0  0  0  0
 18 17  1  0  0  0  0
 18 19  1  0  0  0  0
 19 14  1  0  0  0  0
 20 10  1  0  0  0  0
 21 12  1  0  0  0  0
M  END
>  <CHROM.1>
-97.74443364,-83.69738528,-83.22606693,-6.06192317,5.36590006,3.26243465
-1.60182154,0.93088957,2.41932044

>  <Name>
lig.pdb

>  <RI>
2.75338e+07

>  <Rbt.Current_Directory>
/home/itssahil/PROJECTS/Mol_Feturizer/New_Systems/rnas/2lwk

>  <Rbt.Executable>
rbdock ($Id: //depot/dev/client3/rdock/2013.1/src/exe/rbdock.cxx#4 $)

>  <Rbt.Library>
libRbt.so (2013.1, Build901 2013/11/27)

>  <Rbt.Parameter_File>
/export/apps/rDock/src/rDock_2013.1_src/data/scripts/dock_solv.prm

>  <Rbt.Receptor>
prm/pocket_docking_8.prm

>  <SCORE>
-28.813

>  <SCORE.INTER>
-23.5598

>  <SCORE.INTER.CONST>
1

>  <SCORE.INTER.POLAR>
-2.67964

>  <SCORE.INTER.ROT>
3

>  <SCORE.INTER.SOLV>
7.81303

>  <SCORE.INTER.VDW>
-14.9787

>  <SCORE.INTER.norm>
-1.1219

>  <SCORE.INTRA>
-5.25317

>  <SCORE.INTRA.DIHEDRAL>
0.549418

>  <SCORE.INTRA.DIHEDRAL.0>
8.84257

>  <SCORE.INTRA.POLAR>
0

>  <SCORE.INTRA.POLAR.0>
0

>  <SCORE.INTRA.REPUL>
0

>  <SCORE.INTRA.REPUL.0>
0

>  <SCORE.INTRA.SOLV>
0.0702367

>  <SCORE.INTRA.SOLV.lig_0>
-17.1313

>  <SCORE.INTRA.VDW>
-5.563

>  <SCORE.INTRA.VDW.0>
6.34071

>  <SCORE.INTRA.norm>
-0.250151

>  <SCORE.RESTR>
0

>  <SCORE.RESTR.CAVITY>
0

>  <SCORE.RESTR.norm>
0

>  <SCORE.SYSTEM>
0

>  <SCORE.SYSTEM.CONST>
0

>  <SCORE.SYSTEM.DIHEDRAL>
0

>  <SCORE.SYSTEM.SOLV>
0

>  <SCORE.SYSTEM.norm>
0

>  <SCORE.heavy>
21

>  <SCORE.norm>
-1.37205

>  <RMSD>
7.131

$$$$
lig.pdb
 OpenBabel11021811453D
libRbt.so/2013.1/901 2013/11/27
 21 23  0  0  0  0  0  0  0  0999 V2000
   -6.8980    1.0123    5.1352 C   0  0  0  0  0  0  0  0  0  0  0  0
   -7.0057    1.6473    3.9736 N   0  0  0  0  0  0  0  0  0  0  0  0
   -6.5332    2.8741    3.8455 C   0  0  0  0  0  0  0  0  0  0  0  0
   -6.0046    3.5055    4.9132 C   0  0  0  0  0  0  0  0  0  0  0  0
   -5.8943    2.8605    6.0823 C   0  0  0  0  0  0  0  0  0  0  0  0
   -5.3779    3.4783    7.1440 N   0  0  0  0  0  0  0  0  0  0  0  0
   -6.3451    1.6148    6.1888 N   0  0  0  0  0  0  0  0  0  0  0  0
   -6.6251    3.5008    2.6607 C   0  0  0  0  0  0  0  0  0  0  0  0
   -6.2991    4.8274    2.5823 C   0  0  0  0  0  0  0  0  0  0  0  0
   -7.1089    5.6571    1.7705 O   0  0  0  0  0  0  0  0  0  0  0  0
   -5.6016    5.3746    3.5914 C   0  0  0  0  0  0  0  0  0  0  0  0
   -4.8545    6.5621    3.3682 O   0  0  0  0  0  0  0  0  0  0  0  0
   -5.5451    4.7584    4.7884 C   0  0  0  0  0  0  0  0  0  0  0  0
   -7.3596   -0.2212    5.2475 N   0  0  0  0  0  0  0  0  0  0  0  0
   -8.3552   -0.5613    4.4233 C   0  0  0  0  0  0  0  0  0  0  0  0
   -9.6749   -0.0141    4.9457 C   0  0  0  0  0  0  0  0  0  0  0  0
   -9.9376   -0.5481    6.1903 N   0  0  0  0  0  0  0  0  0  0  0  0
   -8.9191   -0.1484    7.0277 C   0  0  0  0  0  0  0  0  0  0  0  0
   -7.5998   -0.6976    6.5110 C   0  0  0  0  0  0  0  0  0  0  0  0
   -6.7158    5.4771    0.4340 C   0  0  0  0  0  0  0  0  0  0  0  0
   -3.8908    6.3090    2.3795 C   0  0  0  0  0  0  0  0  0  0  0  0
  1 14  1  0  0  0  0
  1  2  2  0  0  0  0
  3  2  1  0  0  0  0
  3  8  2  0  0  0  0
  4  3  1  0  0  0  0
  5  7  2  0  0  0  0
  5  4  1  0  0  0  0
  6  5  1  0  0  0  0
  7  1  1  0  0  0  0
  9 10  1  0  0  0  0
  9  8  1  0  0  0  0
 11  9  2  0  0  0  0
 12 11  1  0  0  0  0
 13  4  2  0  0  0  0
 13 11  1  0  0  0  0
 14 15  1  0  0  0  0
 16 15  1  0  0  0  0
 17 16  1  0  0  0  0
 18 17  1  0  0  0  0
 18 19  1  0  0  0  0
 19 14  1  0  0  0  0
 20 10  1  0  0  0  0
 21 12  1  0  0  0  0
M  END
>  <CHROM.1>
-26.56167593,-79.91511217,-60.49354680,-6.79654879,2.74959169,4.42744129
-2.16940778,-0.80390418,-0.97630950

>  <Name>
lig.pdb

>  <RI>
2.98315e+07

>  <Rbt.Current_Directory>
/home/itssahil/PROJECTS/Mol_Feturizer/New_Systems/rnas/2lwk

>  <Rbt.Executable>
rbdock ($Id: //depot/dev/client3/rdock/2013.1/src/exe/rbdock.cxx#4 $)

>  <Rbt.Library>
libRbt.so (2013.1, Build901 2013/11/27)

>  <Rbt.Parameter_File>
/export/apps/rDock/src/rDock_2013.1_src/data/scripts/dock_solv.prm

>  <Rbt.Receptor>
prm/pocket_docking_5.prm

>  <SCORE>
-19.326

>  <SCORE.INTER>
-16.4915

>  <SCORE.INTER.CONST>
1

>  <SCORE.INTER.POLAR>
-2.00973

>  <SCORE.INTER.ROT>
3

>  <SCORE.INTER.SOLV>
6.46396

>  <SCORE.INTER.VDW>
-12.0499

>  <SCORE.INTER.norm>
-0.785311

>  <SCORE.INTRA>
-2.83446

>  <SCORE.INTRA.DIHEDRAL>
-0.645803

>  <SCORE.INTRA.DIHEDRAL.0>
8.84257

>  <SCORE.INTRA.POLAR>
0

>  <SCORE.INTRA.POLAR.0>
0

>  <SCORE.INTRA.REPUL>
0

>  <SCORE.INTRA.REPUL.0>
0

>  <SCORE.INTRA.SOLV>
-0.0416703

>  <SCORE.INTRA.SOLV.lig_0>
-17.1313

>  <SCORE.INTRA.VDW>
-2.49072

>  <SCORE.INTRA.VDW.0>
6.34071

>  <SCORE.INTRA.norm>
-0.134974

>  <SCORE.RESTR>
0

>  <SCORE.RESTR.CAVITY>
0

>  <SCORE.RESTR.norm>
0

>  <SCORE.SYSTEM>
0

>  <SCORE.SYSTEM.CONST>
0

>  <SCORE.SYSTEM.DIHEDRAL>
0

>  <SCORE.SYSTEM.SOLV>
0

>  <SCORE.SYSTEM.norm>
0

>  <SCORE.heavy>
21

>  <SCORE.norm>
-0.920285

>  <RMSD>
7.132

$$$$
lig.pdb
 OpenBabel11021811453D
libRbt.so/2013.1/901 2013/11/27
 21 23  0  0  0  0  0  0  0  0999 V2000
   -5.9036    6.8004    2.4025 C   0  0  0  0  0  0  0  0  0  0  0  0
   -5.2576    6.3576    3.4753 N   0  0  0  0  0  0  0  0  0  0  0  0
   -5.4462    5.1195    3.8953 C   0  0  0  0  0  0  0  0  0  0  0  0
   -6.3463    4.3296    3.2756 C   0  0  0  0  0  0  0  0  0  0  0  0
   -6.9932    4.7785    2.1918 C   0  0  0  0  0  0  0  0  0  0  0  0
   -7.8882    4.0066    1.5762 N   0  0  0  0  0  0  0  0  0  0  0  0
   -6.7704    6.0158    1.7608 N   0  0  0  0  0  0  0  0  0  0  0  0
   -4.7714    4.6717    4.9672 C   0  0  0  0  0  0  0  0  0  0  0  0
   -5.1020    3.4565    5.5021 C   0  0  0  0  0  0  0  0  0  0  0  0
   -5.1139    3.3397    6.9126 O   0  0  0  0  0  0  0  0  0  0  0  0
   -5.8496    2.6170    4.7669 C   0  0  0  0  0  0  0  0  0  0  0  0
   -5.8297    1.2250    5.0498 O   0  0  0  0  0  0  0  0  0  0  0  0
   -6.5535    3.0805    3.7155 C   0  0  0  0  0  0  0  0  0  0  0  0
   -5.6948    8.0358    1.9814 N   0  0  0  0  0  0  0  0  0  0  0  0
   -6.6302    8.5583    1.1826 C   0  0  0  0  0  0  0  0  0  0  0  0
   -6.4537    8.0391   -0.2363 C   0  0  0  0  0  0  0  0  0  0  0  0
   -5.2145    8.4110   -0.7149 N   0  0  0  0  0  0  0  0  0  0  0  0
   -4.2709    7.8262    0.1013 C   0  0  0  0  0  0  0  0  0  0  0  0
   -4.4417    8.3466    1.5187 C   0  0  0  0  0  0  0  0  0  0  0  0
   -3.7868    3.1945    7.3494 C   0  0  0  0  0  0  0  0  0  0  0  0
   -6.6006    0.9876    6.1986 C   0  0  0  0  0  0  0  0  0  0  0  0
  1 14  1  0  0  0  0
  1  2  2  0  0  0  0
  3  2  1  0  0  0  0
  3  8  2  0  0  0  0
  4  3  1  0  0  0  0
  5  7  2  0  0  0  0
  5  4  1  0  0  0  0
  6  5  1  0  0  0  0
  7  1  1  0  0  0  0
  9 10  1  0  0  0  0
  9  8  1  0  0  0  0
 11  9  2  0  0  0  0
 12 11  1  0  0  0  0
 13  4  2  0  0  0  0
 13 11  1  0  0  0  0
 14 15  1  0  0  0  0
 16 15  1  0  0  0  0
 17 16  1  0  0  0  0
 18 17  1  0  0  0  0
 18 19  1  0  0  0  0
 19 14  1  0  0  0  0
 20 10  1  0  0  0  0
 21 12  1  0  0  0  0
M  END
>  <CHROM.1>
-160.41906868,-79.08847338,76.23714520,-5.75790996,5.17991413,3.19219920
-1.59720985,0.79205419,2.39895552

>  <Name>
lig.pdb

>  <RI>
2.75338e+07

>  <Rbt.Current_Directory>
/home/itssahil/PROJECTS/Mol_Feturizer/New_Systems/rnas/2lwk

>  <Rbt.Executable>
rbdock ($Id: //depot/dev/client3/rdock/2013.1/src/exe/rbdock.cxx#4 $)

>  <Rbt.Library>
libRbt.so (2013.1, Build901 2013/11/27)

>  <Rbt.Parameter_File>
/export/apps/rDock/src/rDock_2013.1_src/data/scripts/dock_solv.prm

>  <Rbt.Receptor>
prm/pocket_docking_8.prm

>  <SCORE>
-22.0768

>  <SCORE.INTER>
-18.8625

>  <SCORE.INTER.CONST>
1

>  <SCORE.INTER.POLAR>
-2.36566

>  <SCORE.INTER.ROT>
3

>  <SCORE.INTER.SOLV>
6.45113

>  <SCORE.INTER.VDW>
-12.4399

>  <SCORE.INTER.norm>
-0.898214

>  <SCORE.INTRA>
-3.21431

>  <SCORE.INTRA.DIHEDRAL>
-0.015055

>  <SCORE.INTRA.DIHEDRAL.0>
8.84257

>  <SCORE.INTRA.POLAR>
0

>  <SCORE.INTRA.POLAR.0>
0

>  <SCORE.INTRA.REPUL>
0

>  <SCORE.INTRA.REPUL.0>
0

>  <SCORE.INTRA.SOLV>
0.0773247

>  <SCORE.INTRA.SOLV.lig_0>
-17.1313

>  <SCORE.INTRA.VDW>
-3.24544

>  <SCORE.INTRA.VDW.0>
6.34071

>  <SCORE.INTRA.norm>
-0.153062

>  <SCORE.RESTR>
0

>  <SCORE.RESTR.CAVITY>
0

>  <SCORE.RESTR.norm>
0

>  <SCORE.SYSTEM>
0

>  <SCORE.SYSTEM.CONST>
0

>  <SCORE.SYSTEM.DIHEDRAL>
0

>  <SCORE.SYSTEM.SOLV>
0

>  <SCORE.SYSTEM.norm>
0

>  <SCORE.heavy>
21

>  <SCORE.norm>
-1.05128

>  <RMSD>
7.133

$$$$
lig.pdb
 OpenBabel11021811453D
libRbt.so/2013.1/901 2013/11/27
 21 23  0  0  0  0  0  0  0  0999 V2000
   -5.6017    6.7311    2.2710 C   0  0  0  0  0  0  0  0  0  0  0  0
   -5.1077    6.2939    3.4239 N   0  0  0  0  0  0  0  0  0  0  0  0
   -5.5744    5.1819    3.9628 C   0  0  0  0  0  0  0  0  0  0  0  0
   -6.5991    4.5299    3.3770 C   0  0  0  0  0  0  0  0  0  0  0  0
   -7.0922    4.9719    2.2124 C   0  0  0  0  0  0  0  0  0  0  0  0
   -8.1081    4.3369    1.6290 N   0  0  0  0  0  0  0  0  0  0  0  0
   -6.5918    6.0747    1.6649 N   0  0  0  0  0  0  0  0  0  0  0  0
   -5.0534    4.7338    5.1171 C   0  0  0  0  0  0  0  0  0  0  0  0
   -5.6582    3.6874    5.7587 C   0  0  0  0  0  0  0  0  0  0  0  0
   -5.7489    3.7446    7.1700 O   0  0  0  0  0  0  0  0  0  0  0  0
   -6.5402    2.9416    5.0732 C   0  0  0  0  0  0  0  0  0  0  0  0
   -6.8313    1.6202    5.5059 O   0  0  0  0  0  0  0  0  0  0  0  0
   -7.0871    3.4135    3.9357 C   0  0  0  0  0  0  0  0  0  0  0  0
   -5.1158    7.8362    1.7325 N   0  0  0  0  0  0  0  0  0  0  0  0
   -5.8327    8.9500    1.9107 C   0  0  0  0  0  0  0  0  0  0  0  0
   -6.9994    8.9811    0.9351 C   0  0  0  0  0  0  0  0  0  0  0  0
   -6.5214    8.9727   -0.3590 N   0  0  0  0  0  0  0  0  0  0  0  0
   -5.8227    7.7971   -0.5270 C   0  0  0  0  0  0  0  0  0  0  0  0
   -4.6536    7.7652    0.4433 C   0  0  0  0  0  0  0  0  0  0  0  0
   -4.5149    3.3372    7.7032 C   0  0  0  0  0  0  0  0  0  0  0  0
   -5.8270    0.7602    5.0347 C   0  0  0  0  0  0  0  0  0  0  0  0
  1 14  1  0  0  0  0
  1  2  2  0  0  0  0
  3  2  1  0  0  0  0
  3  8  2  0  0  0  0
  4  3  1  0  0  0  0
  5  7  2  0  0  0  0
  5  4  1  0  0  0  0
  6  5  1  0  0  0  0
  7  1  1  0  0  0  0
  9 10  1  0  0  0  0
  9  8  1  0  0  0  0
 11  9  2  0  0  0  0
 12 11  1  0  0  0  0
 13  4  2  0  0  0  0
 13 11  1  0  0  0  0
 14 15  1  0  0  0  0
 16 15  1  0  0  0  0
 17 16  1  0  0  0  0
 18 17  1  0  0  0  0
 18 19  1  0  0  0  0
 19 14  1  0  0  0  0
 20 10  1  0  0  0  0
 21 12  1  0  0  0  0
M  END
>  <CHROM.1>
-100.27024797,-80.92221802,-81.79013065,-6.05069090,5.34924899,3.24347627
-1.60163690,0.92891457,2.39911779

>  <Name>
lig.pdb

>  <RI>
2.20372e+07

>  <Rbt.Current_Directory>
/home/itssahil/PROJECTS/Mol_Feturizer/New_Systems/rnas/2lwk

>  <Rbt.Executable>
rbdock ($Id: //depot/dev/client3/rdock/2013.1/src/exe/rbdock.cxx#4 $)

>  <Rbt.Library>
libRbt.so (2013.1, Build901 2013/11/27)

>  <Rbt.Parameter_File>
/export/apps/rDock/src/rDock_2013.1_src/data/scripts/dock_solv.prm

>  <Rbt.Receptor>
prm/pocket_docking_7.prm

>  <SCORE>
-28.6581

>  <SCORE.INTER>
-23.4092

>  <SCORE.INTER.CONST>
1

>  <SCORE.INTER.POLAR>
-2.68693

>  <SCORE.INTER.ROT>
3

>  <SCORE.INTER.SOLV>
7.71994

>  <SCORE.INTER.VDW>
-14.823

>  <SCORE.INTER.norm>
-1.11472

>  <SCORE.INTRA>
-5.24893

>  <SCORE.INTRA.DIHEDRAL>
0.389934

>  <SCORE.INTRA.DIHEDRAL.0>
8.84257

>  <SCORE.INTRA.POLAR>
0

>  <SCORE.INTRA.POLAR.0>
0

>  <SCORE.INTRA.REPUL>
0

>  <SCORE.INTRA.REPUL.0>
0

>  <SCORE.INTRA.SOLV>
0.0701613

>  <SCORE.INTRA.SOLV.lig_0>
-17.1313

>  <SCORE.INTRA.VDW>
-5.47897

>  <SCORE.INTRA.VDW.0>
6.34071

>  <SCORE.INTRA.norm>
-0.249949

>  <SCORE.RESTR>
0

>  <SCORE.RESTR.CAVITY>
0

>  <SCORE.RESTR.norm>
0

>  <SCORE.SYSTEM>
0

>  <SCORE.SYSTEM.CONST>
0

>  <SCORE.SYSTEM.DIHEDRAL>
0

>  <SCORE.SYSTEM.SOLV>
0

>  <SCORE.SYSTEM.norm>
0

>  <SCORE.heavy>
21

>  <SCORE.norm>
-1.36467

>  <RMSD>
7.134

$$$$
lig.pdb
 OpenBabel11021811453D
libRbt.so/2013.1/901 2013/11/27
 21 23  0  0  0  0  0  0  0  0999 V2000
   -5.6030    6.7397    2.2945 C   0  0  0  0  0  0  0  0  0  0  0  0
   -5.1092    6.2979    3.4457 N   0  0  0  0  0  0  0  0  0  0  0  0
   -5.5757    5.1835    3.9799 C   0  0  0  0  0  0  0  0  0  0  0  0
   -6.5998    4.5335    3.3910 C   0  0  0  0  0  0  0  0  0  0  0  0
   -7.0927    4.9801    2.2281 C   0  0  0  0  0  0  0  0  0  0  0  0
   -8.1081    4.3470    1.6417 N   0  0  0  0  0  0  0  0  0  0  0  0
   -6.5926    6.0853    1.6853 N   0  0  0  0  0  0  0  0  0  0  0  0
   -5.0549    4.7308    5.1325 C   0  0  0  0  0  0  0  0  0  0  0  0
   -5.6594    3.6815    5.7696 C   0  0  0  0  0  0  0  0  0  0  0  0
   -5.7507    3.7329    7.1810 O   0  0  0  0  0  0  0  0  0  0  0  0
   -6.5409    2.9382    5.0806 C   0  0  0  0  0  0  0  0  0  0  0  0
   -6.8316    1.6148    5.5078 O   0  0  0  0  0  0  0  0  0  0  0  0
   -7.0875    3.4146    3.9449 C   0  0  0  0  0  0  0  0  0  0  0  0
   -5.1174    7.8472    1.7608 N   0  0  0  0  0  0  0  0  0  0  0  0
   -5.7977    8.9719    2.0021 C   0  0  0  0  0  0  0  0  0  0  0  0
   -7.0094    9.0554    1.0862 C   0  0  0  0  0  0  0  0  0  0  0  0
   -6.5953    9.0702   -0.2296 N   0  0  0  0  0  0  0  0  0  0  0  0
   -5.9342    7.8838   -0.4614 C   0  0  0  0  0  0  0  0  0  0  0  0
   -4.7203    7.7997    0.4489 C   0  0  0  0  0  0  0  0  0  0  0  0
   -4.5164    3.3247    7.7130 C   0  0  0  0  0  0  0  0  0  0  0  0
   -5.8429    0.7527    5.0083 C   0  0  0  0  0  0  0  0  0  0  0  0
  1 14  1  0  0  0  0
  1  2  2  0  0  0  0
  3  2  1  0  0  0  0
  3  8  2  0  0  0  0
  4  3  1  0  0  0  0
  5  7  2  0  0  0  0
  5  4  1  0  0  0  0
  6  5  1  0  0  0  0
  7  1  1  0  0  0  0
  9 10  1  0  0  0  0
  9  8  1  0  0  0  0
 11  9  2  0  0  0  0
 12 11  1  0  0  0  0
 13  4  2  0  0  0  0
 13 11  1  0  0  0  0
 14 15  1  0  0  0  0
 16 15  1  0  0  0  0
 17 16  1  0  0  0  0
 18 17  1  0  0  0  0
 18 19  1  0  0  0  0
 19 14  1  0  0  0  0
 20 10  1  0  0  0  0
 21 12  1  0  0  0  0
M  END
>  <CHROM.1>
-96.88970870,-80.87907437,-83.09328283,-6.06347631,5.36509709,3.27414384
-1.60884782,0.93696182,2.41798537

>  <Name>
lig.pdb

>  <RI>
2.75338e+07

>  <Rbt.Current_Directory>
/home/itssahil/PROJECTS/Mol_Feturizer/New_Systems/rnas/2lwk

>  <Rbt.Executable>
rbdock ($Id: //depot/dev/client3/rdock/2013.1/src/exe/rbdock.cxx#4 $)

>  <Rbt.Library>
libRbt.so (2013.1, Build901 2013/11/27)

>  <Rbt.Parameter_File>
/export/apps/rDock/src/rDock_2013.1_src/data/scripts/dock_solv.prm

>  <Rbt.Receptor>
prm/pocket_docking_8.prm

>  <SCORE>
-28.7767

>  <SCORE.INTER>
-23.616

>  <SCORE.INTER.CONST>
1

>  <SCORE.INTER.POLAR>
-2.69377

>  <SCORE.INTER.ROT>
3

>  <SCORE.INTER.SOLV>
7.84118

>  <SCORE.INTER.VDW>
-14.9785

>  <SCORE.INTER.norm>
-1.12457

>  <SCORE.INTRA>
-5.16067

>  <SCORE.INTRA.DIHEDRAL>
0.410157

>  <SCORE.INTRA.DIHEDRAL.0>
8.84257

>  <SCORE.INTRA.POLAR>
0

>  <SCORE.INTRA.POLAR.0>
0

>  <SCORE.INTRA.REPUL>
0

>  <SCORE.INTRA.REPUL.0>
0

>  <SCORE.INTRA.SOLV>
0.0672617

>  <SCORE.INTRA.SOLV.lig_0>
-17.1313

>  <SCORE.INTRA.VDW>
-5.39938

>  <SCORE.INTRA.VDW.0>
6.34071

>  <SCORE.INTRA.norm>
-0.245746

>  <SCORE.RESTR>
0

>  <SCORE.RESTR.CAVITY>
0

>  <SCORE.RESTR.norm>
0

>  <SCORE.SYSTEM>
0

>  <SCORE.SYSTEM.CONST>
0

>  <SCORE.SYSTEM.DIHEDRAL>
0

>  <SCORE.SYSTEM.SOLV>
0

>  <SCORE.SYSTEM.norm>
0

>  <SCORE.heavy>
21

>  <SCORE.norm>
-1.37032

>  <RMSD>
7.135

$$$$
lig.pdb
 OpenBabel11021811453D
libRbt.so/2013.1/901 2013/11/27
 21 23  0  0  0  0  0  0  0  0999 V2000
   -5.5918    6.7566    2.2919 C   0  0  0  0  0  0  0  0  0  0  0  0
   -5.1020    6.3046    3.4408 N   0  0  0  0  0  0  0  0  0  0  0  0
   -5.5730    5.1876    3.9655 C   0  0  0  0  0  0  0  0  0  0  0  0
   -6.5978    4.5452    3.3694 C   0  0  0  0  0  0  0  0  0  0  0  0
   -7.0868    5.0021    2.2088 C   0  0  0  0  0  0  0  0  0  0  0  0
   -8.1028    4.3766    1.6154 N   0  0  0  0  0  0  0  0  0  0  0  0
   -6.5821    6.1099    1.6756 N   0  0  0  0  0  0  0  0  0  0  0  0
   -5.0562    4.7245    5.1158 C   0  0  0  0  0  0  0  0  0  0  0  0
   -5.6653    3.6723    5.7435 C   0  0  0  0  0  0  0  0  0  0  0  0
   -5.7596    3.7132    7.1551 O   0  0  0  0  0  0  0  0  0  0  0  0
   -6.5475    2.9369    5.0470 C   0  0  0  0  0  0  0  0  0  0  0  0
   -6.8432    1.6113    5.4634 O   0  0  0  0  0  0  0  0  0  0  0  0
   -7.0902    3.4236    3.9137 C   0  0  0  0  0  0  0  0  0  0  0  0
   -5.1017    7.8666    1.7677 N   0  0  0  0  0  0  0  0  0  0  0  0
   -5.7711    8.9937    2.0280 C   0  0  0  0  0  0  0  0  0  0  0  0
   -6.9893    9.0978    1.1229 C   0  0  0  0  0  0  0  0  0  0  0  0
   -6.5855    9.1252   -0.1959 N   0  0  0  0  0  0  0  0  0  0  0  0
   -5.9357    7.9366   -0.4473 C   0  0  0  0  0  0  0  0  0  0  0  0
   -4.7154    7.8318    0.4522 C   0  0  0  0  0  0  0  0  0  0  0  0
   -4.5482    3.2414    7.6870 C   0  0  0  0  0  0  0  0  0  0  0  0
   -5.8600    0.7489    4.9536 C   0  0  0  0  0  0  0  0  0  0  0  0
  1 14  1  0  0  0  0
  1  2  2  0  0  0  0
  3  2  1  0  0  0  0
  3  8  2  0  0  0  0
  4  3  1  0  0  0  0
  5  7  2  0  0  0  0
  5  4  1  0  0  0  0
  6  5  1  0  0  0  0
  7  1  1  0  0  0  0
  9 10  1  0  0  0  0
  9  8  1  0  0  0  0
 11  9  2  0  0  0  0
 12 11  1  0  0  0  0
 13  4  2  0  0  0  0
 13 11  1  0  0  0  0
 14 15  1  0  0  0  0
 16 15  1  0  0  0  0
 17 16  1  0  0  0  0
 18 17  1  0  0  0  0
 18 19  1  0  0  0  0
 19 14  1  0  0  0  0
 20 10  1  0  0  0  0
 21 12  1  0  0  0  0
M  END
>  <CHROM.1>
-96.19428888,-83.43074259,-83.40835982,-6.06207130,5.37544566,3.26282883
-1.60338651,0.93780517,2.42365615

>  <Name>
lig.pdb

>  <RI>
2.75338e+07

>  <Rbt.Current_Directory>
/home/itssahil/PROJECTS/Mol_Feturizer/New_Systems/rnas/2lwk

>  <Rbt.Executable>
rbdock ($Id: //depot/dev/client3/rdock/2013.1/src/exe/rbdock.cxx#4 $)

>  <Rbt.Library>
libRbt.so (2013.1, Build901 2013/11/27)

>  <Rbt.Parameter_File>
/export/apps/rDock/src/rDock_2013.1_src/data/scripts/dock_solv.prm

>  <Rbt.Receptor>
prm/pocket_docking_8.prm

>  <SCORE>
-28.7888

>  <SCORE.INTER>
-23.5867

>  <SCORE.INTER.CONST>
1

>  <SCORE.INTER.POLAR>
-2.67354

>  <SCORE.INTER.ROT>
3

>  <SCORE.INTER.SOLV>
7.79987

>  <SCORE.INTER.VDW>
-15.0126

>  <SCORE.INTER.norm>
-1.12318

>  <SCORE.INTRA>
-5.20216

>  <SCORE.INTRA.DIHEDRAL>
0.540154

>  <SCORE.INTRA.DIHEDRAL.0>
8.84257

>  <SCORE.INTRA.POLAR>
0

>  <SCORE.INTRA.POLAR.0>
0

>  <SCORE.INTRA.REPUL>
0

>  <SCORE.INTRA.REPUL.0>
0

>  <SCORE.INTRA.SOLV>
0.0688441

>  <SCORE.INTRA.SOLV.lig_0>
-17.1313

>  <SCORE.INTRA.VDW>
-5.50666

>  <SCORE.INTRA.VDW.0>
6.34071

>  <SCORE.INTRA.norm>
-0.247722

>  <SCORE.RESTR>
0

>  <SCORE.RESTR.CAVITY>
0

>  <SCORE.RESTR.norm>
0

>  <SCORE.SYSTEM>
0

>  <SCORE.SYSTEM.CONST>
0

>  <SCORE.SYSTEM.DIHEDRAL>
0

>  <SCORE.SYSTEM.SOLV>
0

>  <SCORE.SYSTEM.norm>
0

>  <SCORE.heavy>
21

>  <SCORE.norm>
-1.3709

>  <RMSD>
7.136

$$$$
lig.pdb
 OpenBabel11021811453D
libRbt.so/2013.1/901 2013/11/27
 21 23  0  0  0  0  0  0  0  0999 V2000
   -5.6152    6.7512    2.2922 C   0  0  0  0  0  0  0  0  0  0  0  0
   -5.1140    6.3068    3.4392 N   0  0  0  0  0  0  0  0  0  0  0  0
   -5.5769    5.1911    3.9738 C   0  0  0  0  0  0  0  0  0  0  0  0
   -6.6047    4.5423    3.3900 C   0  0  0  0  0  0  0  0  0  0  0  0
   -7.1052    4.9915    2.2313 C   0  0  0  0  0  0  0  0  0  0  0  0
   -8.1242    4.3596    1.6500 N   0  0  0  0  0  0  0  0  0  0  0  0
   -6.6087    6.0980    1.6879 N   0  0  0  0  0  0  0  0  0  0  0  0
   -5.0486    4.7358    5.1220 C   0  0  0  0  0  0  0  0  0  0  0  0
   -5.6489    3.6849    5.7604 C   0  0  0  0  0  0  0  0  0  0  0  0
   -5.7311    3.7330    7.1725 O   0  0  0  0  0  0  0  0  0  0  0  0
   -6.5347    2.9430    5.0755 C   0  0  0  0  0  0  0  0  0  0  0  0
   -6.8224    1.6187    5.5014 O   0  0  0  0  0  0  0  0  0  0  0  0
   -7.0887    3.4220    3.9444 C   0  0  0  0  0  0  0  0  0  0  0  0
   -5.1333    7.8600    1.7579 N   0  0  0  0  0  0  0  0  0  0  0  0
   -5.8336    8.9777    1.9737 C   0  0  0  0  0  0  0  0  0  0  0  0
   -7.0265    9.0358    1.0315 C   0  0  0  0  0  0  0  0  0  0  0  0
   -6.5847    9.0436   -0.2753 N   0  0  0  0  0  0  0  0  0  0  0  0
   -5.9029    7.8641   -0.4813 C   0  0  0  0  0  0  0  0  0  0  0  0
   -4.7077    7.8052    0.4553 C   0  0  0  0  0  0  0  0  0  0  0  0
   -4.5179    3.2568    7.6965 C   0  0  0  0  0  0  0  0  0  0  0  0
   -5.8317    0.7592    5.0014 C   0  0  0  0  0  0  0  0  0  0  0  0
  1 14  1  0  0  0  0
  1  2  2  0  0  0  0
  3  2  1  0  0  0  0
  3  8  2  0  0  0  0
  4  3  1  0  0  0  0
  5  7  2  0  0  0  0
  5  4  1  0  0  0  0
  6  5  1  0  0  0  0
  7  1  1  0  0  0  0
  9 10  1  0  0  0  0
  9  8  1  0  0  0  0
 11  9  2  0  0  0  0
 12 11  1  0  0  0  0
 13  4  2  0  0  0  0
 13 11  1  0  0  0  0
 14 15  1  0  0  0  0
 16 15  1  0  0  0  0
 17 16  1  0  0  0  0
 18 17  1  0  0  0  0
 18 19  1  0  0  0  0
 19 14  1  0  0  0  0
 20 10  1  0  0  0  0
 21 12  1  0  0  0  0
M  END
>  <CHROM.1>
-98.78281867,-83.93932354,-82.68521560,-6.06431265,5.36429573,3.26384690
-1.61159842,0.92797430,2.41828070

>  <Name>
lig.pdb

>  <RI>
2.20372e+07

>  <Rbt.Current_Directory>
/home/itssahil/PROJECTS/Mol_Feturizer/New_Systems/rnas/2lwk

>  <Rbt.Executable>
rbdock ($Id: //depot/dev/client3/rdock/2013.1/src/exe/rbdock.cxx#4 $)

>  <Rbt.Library>
libRbt.so (2013.1, Build901 2013/11/27)

>  <Rbt.Parameter_File>
/export/apps/rDock/src/rDock_2013.1_src/data/scripts/dock_solv.prm

>  <Rbt.Receptor>
prm/pocket_docking_7.prm

>  <SCORE>
-28.8073

>  <SCORE.INTER>
-23.5193

>  <SCORE.INTER.CONST>
1

>  <SCORE.INTER.POLAR>
-2.67858

>  <SCORE.INTER.ROT>
3

>  <SCORE.INTER.SOLV>
7.83988

>  <SCORE.INTER.VDW>
-14.9642

>  <SCORE.INTER.norm>
-1.11997

>  <SCORE.INTRA>
-5.28805

>  <SCORE.INTRA.DIHEDRAL>
0.552098

>  <SCORE.INTRA.DIHEDRAL.0>
8.84257

>  <SCORE.INTRA.POLAR>
0

>  <SCORE.INTRA.POLAR.0>
0

>  <SCORE.INTRA.REPUL>
0

>  <SCORE.INTRA.REPUL.0>
0

>  <SCORE.INTRA.SOLV>
0.0714389

>  <SCORE.INTRA.SOLV.lig_0>
-17.1313

>  <SCORE.INTRA.VDW>
-5.59982

>  <SCORE.INTRA.VDW.0>
6.34071

>  <SCORE.INTRA.norm>
-0.251812

>  <SCORE.RESTR>
0

>  <SCORE.RESTR.CAVITY>
0

>  <SCORE.RESTR.norm>
0

>  <SCORE.SYSTEM>
0

>  <SCORE.SYSTEM.CONST>
0

>  <SCORE.SYSTEM.DIHEDRAL>
0

>  <SCORE.SYSTEM.SOLV>
0

>  <SCORE.SYSTEM.norm>
0

>  <SCORE.heavy>
21

>  <SCORE.norm>
-1.37178

>  <RMSD>
7.140

$$$$
lig.pdb
 OpenBabel11021811453D
libRbt.so/2013.1/901 2013/11/27
 21 23  0  0  0  0  0  0  0  0999 V2000
   -5.6173    6.7555    2.2787 C   0  0  0  0  0  0  0  0  0  0  0  0
   -5.1167    6.3099    3.4255 N   0  0  0  0  0  0  0  0  0  0  0  0
   -5.5801    5.1939    3.9589 C   0  0  0  0  0  0  0  0  0  0  0  0
   -6.6080    4.5460    3.3742 C   0  0  0  0  0  0  0  0  0  0  0  0
   -7.1078    4.9964    2.2157 C   0  0  0  0  0  0  0  0  0  0  0  0
   -8.1269    4.3654    1.6335 N   0  0  0  0  0  0  0  0  0  0  0  0
   -6.6108    6.1032    1.6734 N   0  0  0  0  0  0  0  0  0  0  0  0
   -5.0524    4.7374    5.1069 C   0  0  0  0  0  0  0  0  0  0  0  0
   -5.6533    3.6862    5.7443 C   0  0  0  0  0  0  0  0  0  0  0  0
   -5.7360    3.7331    7.1564 O   0  0  0  0  0  0  0  0  0  0  0  0
   -6.5391    2.9453    5.0583 C   0  0  0  0  0  0  0  0  0  0  0  0
   -6.8275    1.6206    5.4830 O   0  0  0  0  0  0  0  0  0  0  0  0
   -7.0925    3.4254    3.9275 C   0  0  0  0  0  0  0  0  0  0  0  0
   -5.1347    7.8646    1.7456 N   0  0  0  0  0  0  0  0  0  0  0  0
   -5.8329    8.9829    1.9648 C   0  0  0  0  0  0  0  0  0  0  0  0
   -7.0276    9.0446    1.0252 C   0  0  0  0  0  0  0  0  0  0  0  0
   -6.5884    9.0542   -0.2825 N   0  0  0  0  0  0  0  0  0  0  0  0
   -5.9088    7.8741   -0.4921 C   0  0  0  0  0  0  0  0  0  0  0  0
   -4.7118    7.8117    0.4420 C   0  0  0  0  0  0  0  0  0  0  0  0
   -4.5196    3.2651    7.6803 C   0  0  0  0  0  0  0  0  0  0  0  0
   -5.8136    0.7679    5.0193 C   0  0  0  0  0  0  0  0  0  0  0  0
  1 14  1  0  0  0  0
  1  2  2  0  0  0  0
  3  2  1  0  0  0  0
  3  8  2  0  0  0  0
  4  3  1  0  0  0  0
  5  7  2  0  0  0  0
  5  4  1  0  0  0  0
  6  5  1  0  0  0  0
  7  1  1  0  0  0  0
  9 10  1  0  0  0  0
  9  8  1  0  0  0  0
 11  9  2  0  0  0  0
 12 11  1  0  0  0  0
 13  4  2  0  0  0  0
 13 11  1  0  0  0  0
 14 15  1  0  0  0  0
 16 15  1  0  0  0  0
 17 16  1  0  0  0  0
 18 17  1  0  0  0  0
 18 19  1  0  0  0  0
 19 14  1  0  0  0  0
 20 10  1  0  0  0  0
 21 12  1  0  0  0  0
M  END
>  <CHROM.1>
-98.62260516,-83.52261556,-80.79038028,-6.06633911,5.36928927,3.25157552
-1.61214083,0.92634817,2.41919865

>  <Name>
lig.pdb

>  <RI>
2.20372e+07

>  <Rbt.Current_Directory>
/home/itssahil/PROJECTS/Mol_Feturizer/New_Systems/rnas/2lwk

>  <Rbt.Executable>
rbdock ($Id: //depot/dev/client3/rdock/2013.1/src/exe/rbdock.cxx#4 $)

>  <Rbt.Library>
libRbt.so (2013.1, Build901 2013/11/27)

>  <Rbt.Parameter_File>
/export/apps/rDock/src/rDock_2013.1_src/data/scripts/dock_solv.prm

>  <Rbt.Receptor>
prm/pocket_docking_7.prm

>  <SCORE>
-28.8024

>  <SCORE.INTER>
-23.5219

>  <SCORE.INTER.CONST>
1

>  <SCORE.INTER.POLAR>
-2.67424

>  <SCORE.INTER.ROT>
3

>  <SCORE.INTER.SOLV>
7.80846

>  <SCORE.INTER.VDW>
-14.9699

>  <SCORE.INTER.norm>
-1.12009

>  <SCORE.INTRA>
-5.28054

>  <SCORE.INTRA.DIHEDRAL>
0.498534

>  <SCORE.INTRA.DIHEDRAL.0>
8.84257

>  <SCORE.INTRA.POLAR>
0

>  <SCORE.INTRA.POLAR.0>
0

>  <SCORE.INTRA.REPUL>
0

>  <SCORE.INTRA.REPUL.0>
0

>  <SCORE.INTRA.SOLV>
0.0722402

>  <SCORE.INTRA.SOLV.lig_0>
-17.1313

>  <SCORE.INTRA.VDW>
-5.56593

>  <SCORE.INTRA.VDW.0>
6.34071

>  <SCORE.INTRA.norm>
-0.251454

>  <SCORE.RESTR>
0

>  <SCORE.RESTR.CAVITY>
0

>  <SCORE.RESTR.norm>
0

>  <SCORE.SYSTEM>
0

>  <SCORE.SYSTEM.CONST>
0

>  <SCORE.SYSTEM.DIHEDRAL>
0

>  <SCORE.SYSTEM.SOLV>
0

>  <SCORE.SYSTEM.norm>
0

>  <SCORE.heavy>
21

>  <SCORE.norm>
-1.37154

>  <RMSD>
7.144

$$$$
lig.pdb
 OpenBabel11021811453D
libRbt.so/2013.1/901 2013/11/27
 21 23  0  0  0  0  0  0  0  0999 V2000
   -7.8901    0.5504    4.8045 C   0  0  0  0  0  0  0  0  0  0  0  0
   -7.3282    1.5474    4.1305 N   0  0  0  0  0  0  0  0  0  0  0  0
   -6.4303    2.3180    4.7177 C   0  0  0  0  0  0  0  0  0  0  0  0
   -6.1367    2.1345    6.0209 C   0  0  0  0  0  0  0  0  0  0  0  0
   -6.7027    1.1255    6.6965 C   0  0  0  0  0  0  0  0  0  0  0  0
   -6.4224    0.9399    7.9859 N   0  0  0  0  0  0  0  0  0  0  0  0
   -7.5810    0.3379    6.0844 N   0  0  0  0  0  0  0  0  0  0  0  0
   -5.8493    3.3096    4.0221 C   0  0  0  0  0  0  0  0  0  0  0  0
   -5.0588    4.2110    4.6815 C   0  0  0  0  0  0  0  0  0  0  0  0
   -5.1554    5.5714    4.3032 O   0  0  0  0  0  0  0  0  0  0  0  0
   -4.6296    3.9012    5.9160 C   0  0  0  0  0  0  0  0  0  0  0  0
   -3.4760    4.5421    6.4419 O   0  0  0  0  0  0  0  0  0  0  0  0
   -5.2416    2.9305    6.6224 C   0  0  0  0  0  0  0  0  0  0  0  0
   -8.7754   -0.2246    4.2020 N   0  0  0  0  0  0  0  0  0  0  0  0
  -10.0475    0.1831    4.2414 C   0  0  0  0  0  0  0  0  0  0  0  0
  -10.6621   -0.1551    5.5912 C   0  0  0  0  0  0  0  0  0  0  0  0
  -10.6359   -1.5210    5.7830 N   0  0  0  0  0  0  0  0  0  0  0  0
   -9.3133   -1.9071    5.7788 C   0  0  0  0  0  0  0  0  0  0  0  0
   -8.6977   -1.5747    4.4298 C   0  0  0  0  0  0  0  0  0  0  0  0
   -4.1784    5.8227    3.3257 C   0  0  0  0  0  0  0  0  0  0  0  0
   -2.3358    3.9643    5.8618 C   0  0  0  0  0  0  0  0  0  0  0  0
  1 14  1  0  0  0  0
  1  2  2  0  0  0  0
  3  2  1  0  0  0  0
  3  8  2  0  0  0  0
  4  3  1  0  0  0  0
  5  7  2  0  0  0  0
  5  4  1  0  0  0  0
  6  5  1  0  0  0  0
  7  1  1  0  0  0  0
  9 10  1  0  0  0  0
  9  8  1  0  0  0  0
 11  9  2  0  0  0  0
 12 11  1  0  0  0  0
 13  4  2  0  0  0  0
 13 11  1  0  0  0  0
 14 15  1  0  0  0  0
 16 15  1  0  0  0  0
 17 16  1  0  0  0  0
 18 17  1  0  0  0  0
 18 19  1  0  0  0  0
 19 14  1  0  0  0  0
 20 10  1  0  0  0  0
 21 12  1  0  0  0  0
M  END
>  <CHROM.1>
-87.76646058,-92.71790943,-77.04907701,-6.77734945,1.82330119,5.32715948
2.68616098,0.66496020,2.22091922

>  <Name>
lig.pdb

>  <RI>
2.98315e+07

>  <Rbt.Current_Directory>
/home/itssahil/PROJECTS/Mol_Feturizer/New_Systems/rnas/2lwk

>  <Rbt.Executable>
rbdock ($Id: //depot/dev/client3/rdock/2013.1/src/exe/rbdock.cxx#4 $)

>  <Rbt.Library>
libRbt.so (2013.1, Build901 2013/11/27)

>  <Rbt.Parameter_File>
/export/apps/rDock/src/rDock_2013.1_src/data/scripts/dock_solv.prm

>  <Rbt.Receptor>
prm/pocket_docking_5.prm

>  <SCORE>
-16.8673

>  <SCORE.INTER>
-11.7916

>  <SCORE.INTER.CONST>
1

>  <SCORE.INTER.POLAR>
-0.922111

>  <SCORE.INTER.ROT>
3

>  <SCORE.INTER.SOLV>
6.02911

>  <SCORE.INTER.VDW>
-12.3971

>  <SCORE.INTER.norm>
-0.561504

>  <SCORE.INTRA>
-5.07574

>  <SCORE.INTRA.DIHEDRAL>
0.733721

>  <SCORE.INTRA.DIHEDRAL.0>
8.84257

>  <SCORE.INTRA.POLAR>
0

>  <SCORE.INTRA.POLAR.0>
0

>  <SCORE.INTRA.REPUL>
0

>  <SCORE.INTRA.REPUL.0>
0

>  <SCORE.INTRA.SOLV>
0.0786529

>  <SCORE.INTRA.SOLV.lig_0>
-17.1313

>  <SCORE.INTRA.VDW>
-5.48193

>  <SCORE.INTRA.VDW.0>
6.34071

>  <SCORE.INTRA.norm>
-0.241702

>  <SCORE.RESTR>
0

>  <SCORE.RESTR.CAVITY>
0

>  <SCORE.RESTR.norm>
0

>  <SCORE.SYSTEM>
0

>  <SCORE.SYSTEM.CONST>
0

>  <SCORE.SYSTEM.DIHEDRAL>
0

>  <SCORE.SYSTEM.SOLV>
0

>  <SCORE.SYSTEM.norm>
0

>  <SCORE.heavy>
21

>  <SCORE.norm>
-0.803206

>  <RMSD>
7.149

$$$$
lig.pdb
 OpenBabel11021811453D
libRbt.so/2013.1/901 2013/11/27
 21 23  0  0  0  0  0  0  0  0999 V2000
   -5.8935    6.1033    0.8500 C   0  0  0  0  0  0  0  0  0  0  0  0
   -5.3479    6.0284    2.0587 N   0  0  0  0  0  0  0  0  0  0  0  0
   -5.7309    5.0836    2.8986 C   0  0  0  0  0  0  0  0  0  0  0  0
   -6.7242    4.2397    2.5530 C   0  0  0  0  0  0  0  0  0  0  0  0
   -7.2695    4.3159    1.3317 C   0  0  0  0  0  0  0  0  0  0  0  0
   -8.2550    3.4894    0.9835 N   0  0  0  0  0  0  0  0  0  0  0  0
   -6.8525    5.2514    0.4848 N   0  0  0  0  0  0  0  0  0  0  0  0
   -5.1576    5.0002    4.1107 C   0  0  0  0  0  0  0  0  0  0  0  0
   -5.6803    4.1389    5.0365 C   0  0  0  0  0  0  0  0  0  0  0  0
   -5.7441    4.5772    6.3808 O   0  0  0  0  0  0  0  0  0  0  0  0
   -6.5274    3.1854    4.6153 C   0  0  0  0  0  0  0  0  0  0  0  0
   -6.7241    2.0201    5.4037 O   0  0  0  0  0  0  0  0  0  0  0  0
   -7.1277    3.2949    3.4139 C   0  0  0  0  0  0  0  0  0  0  0  0
   -5.4910    7.0427    0.0117 N   0  0  0  0  0  0  0  0  0  0  0  0
   -4.2441    7.4940    0.1779 C   0  0  0  0  0  0  0  0  0  0  0  0
   -4.1990    8.4913    1.3257 C   0  0  0  0  0  0  0  0  0  0  0  0
   -5.0165    9.5648    1.0390 N   0  0  0  0  0  0  0  0  0  0  0  0
   -6.2991    9.0774    0.9137 C   0  0  0  0  0  0  0  0  0  0  0  0
   -6.3485    8.0842   -0.2354 C   0  0  0  0  0  0  0  0  0  0  0  0
   -4.7898    3.8586    7.1196 C   0  0  0  0  0  0  0  0  0  0  0  0
   -5.8541    1.0165    4.9493 C   0  0  0  0  0  0  0  0  0  0  0  0
  1 14  1  0  0  0  0
  1  2  2  0  0  0  0
  3  2  1  0  0  0  0
  3  8  2  0  0  0  0
  4  3  1  0  0  0  0
  5  7  2  0  0  0  0
  5  4  1  0  0  0  0
  6  5  1  0  0  0  0
  7  1  1  0  0  0  0
  9 10  1  0  0  0  0
  9  8  1  0  0  0  0
 11  9  2  0  0  0  0
 12 11  1  0  0  0  0
 13  4  2  0  0  0  0
 13 11  1  0  0  0  0
 14 15  1  0  0  0  0
 16 15  1  0  0  0  0
 17 16  1  0  0  0  0
 18 17  1  0  0  0  0
 18 19  1  0  0  0  0
 19 14  1  0  0  0  0
 20 10  1  0  0  0  0
 21 12  1  0  0  0  0
M  END
>  <CHROM.1>
26.68448142,-109.00558186,-94.11599770,-5.96336967,5.29867731,2.66947427
1.41715421,-0.97258084,-0.87937676

>  <Name>
lig.pdb

>  <RI>
2.20372e+07

>  <Rbt.Current_Directory>
/home/itssahil/PROJECTS/Mol_Feturizer/New_Systems/rnas/2lwk

>  <Rbt.Executable>
rbdock ($Id: //depot/dev/client3/rdock/2013.1/src/exe/rbdock.cxx#4 $)

>  <Rbt.Library>
libRbt.so (2013.1, Build901 2013/11/27)

>  <Rbt.Parameter_File>
/export/apps/rDock/src/rDock_2013.1_src/data/scripts/dock_solv.prm

>  <Rbt.Receptor>
prm/pocket_docking_7.prm

>  <SCORE>
-25.1866

>  <SCORE.INTER>
-21.1322

>  <SCORE.INTER.CONST>
1

>  <SCORE.INTER.POLAR>
-2.87524

>  <SCORE.INTER.ROT>
3

>  <SCORE.INTER.SOLV>
6.47058

>  <SCORE.INTER.VDW>
-12.2608

>  <SCORE.INTER.norm>
-1.00629

>  <SCORE.INTRA>
-4.05444

>  <SCORE.INTRA.DIHEDRAL>
0.910438

>  <SCORE.INTRA.DIHEDRAL.0>
8.84257

>  <SCORE.INTRA.POLAR>
0

>  <SCORE.INTRA.POLAR.0>
0

>  <SCORE.INTRA.REPUL>
0

>  <SCORE.INTRA.REPUL.0>
0

>  <SCORE.INTRA.SOLV>
0.0683966

>  <SCORE.INTRA.SOLV.lig_0>
-17.1313

>  <SCORE.INTRA.VDW>
-4.54386

>  <SCORE.INTRA.VDW.0>
6.34071

>  <SCORE.INTRA.norm>
-0.193069

>  <SCORE.RESTR>
0

>  <SCORE.RESTR.CAVITY>
0

>  <SCORE.RESTR.norm>
0

>  <SCORE.SYSTEM>
0

>  <SCORE.SYSTEM.CONST>
0

>  <SCORE.SYSTEM.DIHEDRAL>
0

>  <SCORE.SYSTEM.SOLV>
0

>  <SCORE.SYSTEM.norm>
0

>  <SCORE.heavy>
21

>  <SCORE.norm>
-1.19936

>  <RMSD>
7.156

$$$$
lig.pdb
 OpenBabel11021811453D
libRbt.so/2013.1/901 2013/11/27
 21 23  0  0  0  0  0  0  0  0999 V2000
   -7.2523    0.5737    5.8076 C   0  0  0  0  0  0  0  0  0  0  0  0
   -7.1760    1.3740    4.7502 N   0  0  0  0  0  0  0  0  0  0  0  0
   -6.5220    2.5185    4.8343 C   0  0  0  0  0  0  0  0  0  0  0  0
   -5.9921    2.9046    6.0126 C   0  0  0  0  0  0  0  0  0  0  0  0
   -6.0679    2.0931    7.0759 C   0  0  0  0  0  0  0  0  0  0  0  0
   -5.5517    2.4687    8.2455 N   0  0  0  0  0  0  0  0  0  0  0  0
   -6.7016    0.9298    6.9689 N   0  0  0  0  0  0  0  0  0  0  0  0
   -6.4294    3.3115    3.7538 C   0  0  0  0  0  0  0  0  0  0  0  0
   -5.9093    4.5693    3.8937 C   0  0  0  0  0  0  0  0  0  0  0  0
   -6.5244    5.6198    3.1718 O   0  0  0  0  0  0  0  0  0  0  0  0
   -5.2205    4.8551    5.0109 C   0  0  0  0  0  0  0  0  0  0  0  0
   -4.2939    5.9320    5.0106 O   0  0  0  0  0  0  0  0  0  0  0  0
   -5.3474    4.0763    6.1031 C   0  0  0  0  0  0  0  0  0  0  0  0
   -7.8953   -0.5769    5.7074 N   0  0  0  0  0  0  0  0  0  0  0  0
   -8.4412   -0.8519    4.5190 C   0  0  0  0  0  0  0  0  0  0  0  0
   -9.7533   -0.0987    4.3607 C   0  0  0  0  0  0  0  0  0  0  0  0
  -10.6347   -0.4913    5.3467 N   0  0  0  0  0  0  0  0  0  0  0  0
  -10.0657   -0.1591    6.5568 C   0  0  0  0  0  0  0  0  0  0  0  0
   -8.7569   -0.9138    6.7199 C   0  0  0  0  0  0  0  0  0  0  0  0
   -5.6782    5.9712    2.1071 C   0  0  0  0  0  0  0  0  0  0  0  0
   -3.0491    5.4553    4.5706 C   0  0  0  0  0  0  0  0  0  0  0  0
  1 14  1  0  0  0  0
  1  2  2  0  0  0  0
  3  2  1  0  0  0  0
  3  8  2  0  0  0  0
  4  3  1  0  0  0  0
  5  7  2  0  0  0  0
  5  4  1  0  0  0  0
  6  5  1  0  0  0  0
  7  1  1  0  0  0  0
  9 10  1  0  0  0  0
  9  8  1  0  0  0  0
 11  9  2  0  0  0  0
 12 11  1  0  0  0  0
 13  4  2  0  0  0  0
 13 11  1  0  0  0  0
 14 15  1  0  0  0  0
 16 15  1  0  0  0  0
 17 16  1  0  0  0  0
 18 17  1  0  0  0  0
 18 19  1  0  0  0  0
 19 14  1  0  0  0  0
 20 10  1  0  0  0  0
 21 12  1  0  0  0  0
M  END
>  <CHROM.1>
-0.35790435,-106.36592954,-87.40285920,-6.82415835,2.38653650,5.25227841
-2.44367967,-0.72821991,-0.93250330

>  <Name>
lig.pdb

>  <RI>
2.98315e+07

>  <Rbt.Current_Directory>
/home/itssahil/PROJECTS/Mol_Feturizer/New_Systems/rnas/2lwk

>  <Rbt.Executable>
rbdock ($Id: //depot/dev/client3/rdock/2013.1/src/exe/rbdock.cxx#4 $)

>  <Rbt.Library>
libRbt.so (2013.1, Build901 2013/11/27)

>  <Rbt.Parameter_File>
/export/apps/rDock/src/rDock_2013.1_src/data/scripts/dock_solv.prm

>  <Rbt.Receptor>
prm/pocket_docking_5.prm

>  <SCORE>
-18.3288

>  <SCORE.INTER>
-14.9828

>  <SCORE.INTER.CONST>
1

>  <SCORE.INTER.POLAR>
-0.979796

>  <SCORE.INTER.ROT>
3

>  <SCORE.INTER.SOLV>
7.28793

>  <SCORE.INTER.VDW>
-14.7519

>  <SCORE.INTER.norm>
-0.713467

>  <SCORE.INTRA>
-3.34599

>  <SCORE.INTRA.DIHEDRAL>
0.989345

>  <SCORE.INTRA.DIHEDRAL.0>
8.84257

>  <SCORE.INTRA.POLAR>
0

>  <SCORE.INTRA.POLAR.0>
0

>  <SCORE.INTRA.REPUL>
0

>  <SCORE.INTRA.REPUL.0>
0

>  <SCORE.INTRA.SOLV>
0.00309924

>  <SCORE.INTRA.SOLV.lig_0>
-17.1313

>  <SCORE.INTRA.VDW>
-3.84222

>  <SCORE.INTRA.VDW.0>
6.34071

>  <SCORE.INTRA.norm>
-0.159333

>  <SCORE.RESTR>
0

>  <SCORE.RESTR.CAVITY>
0

>  <SCORE.RESTR.norm>
0

>  <SCORE.SYSTEM>
0

>  <SCORE.SYSTEM.CONST>
0

>  <SCORE.SYSTEM.DIHEDRAL>
0

>  <SCORE.SYSTEM.SOLV>
0

>  <SCORE.SYSTEM.norm>
0

>  <SCORE.heavy>
21

>  <SCORE.norm>
-0.8728

>  <RMSD>
7.160

$$$$
lig.pdb
 OpenBabel11021811453D
libRbt.so/2013.1/901 2013/11/27
 21 23  0  0  0  0  0  0  0  0999 V2000
   -5.8762    5.0560    3.9648 C   0  0  0  0  0  0  0  0  0  0  0  0
   -6.4009    4.2448    4.8764 N   0  0  0  0  0  0  0  0  0  0  0  0
   -5.6988    3.9090    5.9437 C   0  0  0  0  0  0  0  0  0  0  0  0
   -4.4257    4.3346    6.0717 C   0  0  0  0  0  0  0  0  0  0  0  0
   -3.9012    5.1556    5.1520 C   0  0  0  0  0  0  0  0  0  0  0  0
   -2.6424    5.5769    5.2678 N   0  0  0  0  0  0  0  0  0  0  0  0
   -4.6298    5.5111    4.0989 N   0  0  0  0  0  0  0  0  0  0  0  0
   -6.2450    3.1069    6.8727 C   0  0  0  0  0  0  0  0  0  0  0  0
   -5.4562    2.6205    7.8794 C   0  0  0  0  0  0  0  0  0  0  0  0
   -5.6529    1.2770    8.2788 O   0  0  0  0  0  0  0  0  0  0  0  0
   -4.2652    3.2027    8.0957 C   0  0  0  0  0  0  0  0  0  0  0  0
   -3.6360    3.0692    9.3623 O   0  0  0  0  0  0  0  0  0  0  0  0
   -3.7061    3.9758    7.1441 C   0  0  0  0  0  0  0  0  0  0  0  0
   -6.5938    5.3985    2.9089 N   0  0  0  0  0  0  0  0  0  0  0  0
   -7.4560    4.4845    2.4535 C   0  0  0  0  0  0  0  0  0  0  0  0
   -6.7216    3.4427    1.6232 C   0  0  0  0  0  0  0  0  0  0  0  0
   -6.1205    4.0522    0.5414 N   0  0  0  0  0  0  0  0  0  0  0  0
   -5.2094    4.9580    1.0392 C   0  0  0  0  0  0  0  0  0  0  0  0
   -5.9407    6.0029    1.8653 C   0  0  0  0  0  0  0  0  0  0  0  0
   -6.4386    1.2788    9.4431 C   0  0  0  0  0  0  0  0  0  0  0  0
   -2.7929    1.9474    9.3307 C   0  0  0  0  0  0  0  0  0  0  0  0
  1 14  1  0  0  0  0
  1  2  2  0  0  0  0
  3  2  1  0  0  0  0
  3  8  2  0  0  0  0
  4  3  1  0  0  0  0
  5  7  2  0  0  0  0
  5  4  1  0  0  0  0
  6  5  1  0  0  0  0
  7  1  1  0  0  0  0
  9 10  1  0  0  0  0
  9  8  1  0  0  0  0
 11  9  2  0  0  0  0
 12 11  1  0  0  0  0
 13  4  2  0  0  0  0
 13 11  1  0  0  0  0
 14 15  1  0  0  0  0
 16 15  1  0  0  0  0
 17 16  1  0  0  0  0
 18 17  1  0  0  0  0
 18 19  1  0  0  0  0
 19 14  1  0  0  0  0
 20 10  1  0  0  0  0
 21 12  1  0  0  0  0
M  END
>  <CHROM.1>
-32.46600504,-99.75177069,91.62888710,-5.21454596,3.90505886,5.35329075,-1.81851312
0.55130279,2.05089301

>  <Name>
lig.pdb

>  <RI>
2.59814e+07

>  <Rbt.Current_Directory>
/home/itssahil/PROJECTS/Mol_Feturizer/New_Systems/rnas/2lwk

>  <Rbt.Executable>
rbdock ($Id: //depot/dev/client3/rdock/2013.1/src/exe/rbdock.cxx#4 $)

>  <Rbt.Library>
libRbt.so (2013.1, Build901 2013/11/27)

>  <Rbt.Parameter_File>
/export/apps/rDock/src/rDock_2013.1_src/data/scripts/dock_solv.prm

>  <Rbt.Receptor>
prm/pocket_docking_6.prm

>  <SCORE>
-20.9281

>  <SCORE.INTER>
-17.4531

>  <SCORE.INTER.CONST>
1

>  <SCORE.INTER.POLAR>
-1.26769

>  <SCORE.INTER.ROT>
3

>  <SCORE.INTER.SOLV>
9.00649

>  <SCORE.INTER.VDW>
-16.012

>  <SCORE.INTER.norm>
-0.831102

>  <SCORE.INTRA>
-3.51194

>  <SCORE.INTRA.DIHEDRAL>
1.00003

>  <SCORE.INTRA.DIHEDRAL.0>
8.84257

>  <SCORE.INTRA.POLAR>
0

>  <SCORE.INTRA.POLAR.0>
0

>  <SCORE.INTRA.REPUL>
0

>  <SCORE.INTRA.REPUL.0>
0

>  <SCORE.INTRA.SOLV>
0.00894536

>  <SCORE.INTRA.SOLV.lig_0>
-17.1313

>  <SCORE.INTRA.VDW>
-4.01642

>  <SCORE.INTRA.VDW.0>
6.34071

>  <SCORE.INTRA.norm>
-0.167235

>  <SCORE.RESTR>
0.0369412

>  <SCORE.RESTR.CAVITY>
0.0369412

>  <SCORE.RESTR.norm>
0.0017591

>  <SCORE.SYSTEM>
0

>  <SCORE.SYSTEM.CONST>
0

>  <SCORE.SYSTEM.DIHEDRAL>
0

>  <SCORE.SYSTEM.SOLV>
0

>  <SCORE.SYSTEM.norm>
0

>  <SCORE.heavy>
21

>  <SCORE.norm>
-0.996578

>  <RMSD>
7.172

$$$$
lig.pdb
 OpenBabel11021811453D
libRbt.so/2013.1/901 2013/11/27
 21 23  0  0  0  0  0  0  0  0999 V2000
   -5.8562    5.1037    3.9925 C   0  0  0  0  0  0  0  0  0  0  0  0
   -6.3910    4.2831    4.8896 N   0  0  0  0  0  0  0  0  0  0  0  0
   -5.6939    3.9211    5.9516 C   0  0  0  0  0  0  0  0  0  0  0  0
   -4.4163    4.3299    6.0879 C   0  0  0  0  0  0  0  0  0  0  0  0
   -3.8815    5.1605    5.1830 C   0  0  0  0  0  0  0  0  0  0  0  0
   -2.6181    5.5654    5.3070 N   0  0  0  0  0  0  0  0  0  0  0  0
   -4.6049    5.5423    4.1354 N   0  0  0  0  0  0  0  0  0  0  0  0
   -6.2503    3.1095    6.8662 C   0  0  0  0  0  0  0  0  0  0  0  0
   -5.4681    2.5970    7.8651 C   0  0  0  0  0  0  0  0  0  0  0  0
   -5.6805    1.2492    8.2413 O   0  0  0  0  0  0  0  0  0  0  0  0
   -4.2708    3.1618    8.0924 C   0  0  0  0  0  0  0  0  0  0  0  0
   -3.6445    2.9995    9.3571 O   0  0  0  0  0  0  0  0  0  0  0  0
   -3.7020    3.9446    7.1547 C   0  0  0  0  0  0  0  0  0  0  0  0
   -6.5688    5.4724    2.9419 N   0  0  0  0  0  0  0  0  0  0  0  0
   -7.3305    4.5295    2.3790 C   0  0  0  0  0  0  0  0  0  0  0  0
   -6.4798    3.6315    1.4936 C   0  0  0  0  0  0  0  0  0  0  0  0
   -5.9029    4.3824    0.4904 N   0  0  0  0  0  0  0  0  0  0  0  0
   -5.0930    5.3177    1.0967 C   0  0  0  0  0  0  0  0  0  0  0  0
   -5.9409    6.2195    1.9783 C   0  0  0  0  0  0  0  0  0  0  0  0
   -6.4676    1.2400    9.4046 C   0  0  0  0  0  0  0  0  0  0  0  0
   -2.6967    1.9686    9.2616 C   0  0  0  0  0  0  0  0  0  0  0  0
  1 14  1  0  0  0  0
  1  2  2  0  0  0  0
  3  2  1  0  0  0  0
  3  8  2  0  0  0  0
  4  3  1  0  0  0  0
  5  7  2  0  0  0  0
  5  4  1  0  0  0  0
  6  5  1  0  0  0  0
  7  1  1  0  0  0  0
  9 10  1  0  0  0  0
  9  8  1  0  0  0  0
 11  9  2  0  0  0  0
 12 11  1  0  0  0  0
 13  4  2  0  0  0  0
 13 11  1  0  0  0  0
 14 15  1  0  0  0  0
 16 15  1  0  0  0  0
 17 16  1  0  0  0  0
 18 17  1  0  0  0  0
 18 19  1  0  0  0  0
 19 14  1  0  0  0  0
 20 10  1  0  0  0  0
 21 12  1  0  0  0  0
M  END
>  <CHROM.1>
-39.67662441,-99.74020116,98.55852087,-5.17259460,3.95999453,5.35015684,1.79298220
-0.52548656,-1.07940199

>  <Name>
lig.pdb

>  <RI>
2.59814e+07

>  <Rbt.Current_Directory>
/home/itssahil/PROJECTS/Mol_Feturizer/New_Systems/rnas/2lwk

>  <Rbt.Executable>
rbdock ($Id: //depot/dev/client3/rdock/2013.1/src/exe/rbdock.cxx#4 $)

>  <Rbt.Library>
libRbt.so (2013.1, Build901 2013/11/27)

>  <Rbt.Parameter_File>
/export/apps/rDock/src/rDock_2013.1_src/data/scripts/dock_solv.prm

>  <Rbt.Receptor>
prm/pocket_docking_6.prm

>  <SCORE>
-20.781

>  <SCORE.INTER>
-17.1479

>  <SCORE.INTER.CONST>
1

>  <SCORE.INTER.POLAR>
-1.30494

>  <SCORE.INTER.ROT>
3

>  <SCORE.INTER.SOLV>
8.95061

>  <SCORE.INTER.VDW>
-15.6657

>  <SCORE.INTER.norm>
-0.816566

>  <SCORE.INTRA>
-3.69183

>  <SCORE.INTRA.DIHEDRAL>
0.939496

>  <SCORE.INTRA.DIHEDRAL.0>
8.84257

>  <SCORE.INTRA.POLAR>
0

>  <SCORE.INTRA.POLAR.0>
0

>  <SCORE.INTRA.REPUL>
0

>  <SCORE.INTRA.REPUL.0>
0

>  <SCORE.INTRA.SOLV>
0.0225463

>  <SCORE.INTRA.SOLV.lig_0>
-17.1313

>  <SCORE.INTRA.VDW>
-4.17285

>  <SCORE.INTRA.VDW.0>
6.34071

>  <SCORE.INTRA.norm>
-0.175801

>  <SCORE.RESTR>
0.0586794

>  <SCORE.RESTR.CAVITY>
0.0586794

>  <SCORE.RESTR.norm>
0.00279426

>  <SCORE.SYSTEM>
0

>  <SCORE.SYSTEM.CONST>
0

>  <SCORE.SYSTEM.DIHEDRAL>
0

>  <SCORE.SYSTEM.SOLV>
0

>  <SCORE.SYSTEM.norm>
0

>  <SCORE.heavy>
21

>  <SCORE.norm>
-0.989573

>  <RMSD>
7.187

$$$$
lig.pdb
 OpenBabel11021811453D
libRbt.so/2013.1/901 2013/11/27
 21 23  0  0  0  0  0  0  0  0999 V2000
   -7.6927    0.8153    4.5641 C   0  0  0  0  0  0  0  0  0  0  0  0
   -7.5513    1.8696    3.7687 N   0  0  0  0  0  0  0  0  0  0  0  0
   -6.7640    2.8673    4.1285 C   0  0  0  0  0  0  0  0  0  0  0  0
   -6.1596    2.8452    5.3337 C   0  0  0  0  0  0  0  0  0  0  0  0
   -6.3016    1.7785    6.1317 C   0  0  0  0  0  0  0  0  0  0  0  0
   -5.7122    1.7503    7.3264 N   0  0  0  0  0  0  0  0  0  0  0  0
   -7.0716    0.7672    5.7434 N   0  0  0  0  0  0  0  0  0  0  0  0
   -6.6079    3.9194    3.3079 C   0  0  0  0  0  0  0  0  0  0  0  0
   -5.9385    5.0235    3.7608 C   0  0  0  0  0  0  0  0  0  0  0  0
   -6.4443    6.2945    3.3980 O   0  0  0  0  0  0  0  0  0  0  0  0
   -5.1899    4.9062    4.8699 C   0  0  0  0  0  0  0  0  0  0  0  0
   -4.1424    5.8344    5.1136 O   0  0  0  0  0  0  0  0  0  0  0  0
   -5.3780    3.8679    5.7077 C   0  0  0  0  0  0  0  0  0  0  0  0
   -8.4703   -0.1847    4.1866 N   0  0  0  0  0  0  0  0  0  0  0  0
   -9.7866   -0.0010    4.3275 C   0  0  0  0  0  0  0  0  0  0  0  0
  -10.1925   -0.2252    5.7763 C   0  0  0  0  0  0  0  0  0  0  0  0
   -9.8908   -1.5194    6.1468 N   0  0  0  0  0  0  0  0  0  0  0  0
   -8.5259   -1.6680    6.0314 C   0  0  0  0  0  0  0  0  0  0  0  0
   -8.1179   -1.4491    4.5841 C   0  0  0  0  0  0  0  0  0  0  0  0
   -5.6371    6.8078    2.3693 C   0  0  0  0  0  0  0  0  0  0  0  0
   -3.0021    5.4232    4.4058 C   0  0  0  0  0  0  0  0  0  0  0  0
  1 14  1  0  0  0  0
  1  2  2  0  0  0  0
  3  2  1  0  0  0  0
  3  8  2  0  0  0  0
  4  3  1  0  0  0  0
  5  7  2  0  0  0  0
  5  4  1  0  0  0  0
  6  5  1  0  0  0  0
  7  1  1  0  0  0  0
  9 10  1  0  0  0  0
  9  8  1  0  0  0  0
 11  9  2  0  0  0  0
 12 11  1  0  0  0  0
 13  4  2  0  0  0  0
 13 11  1  0  0  0  0
 14 15  1  0  0  0  0
 16 15  1  0  0  0  0
 17 16  1  0  0  0  0
 18 17  1  0  0  0  0
 18 19  1  0  0  0  0
 19 14  1  0  0  0  0
 20 10  1  0  0  0  0
 21 12  1  0  0  0  0
M  END
>  <CHROM.1>
-78.13834219,-102.99319561,-83.21672795,-6.87651274,2.38564939,4.81774630
2.28178780,0.65264815,2.45373449

>  <Name>
lig.pdb

>  <RI>
2.59814e+07

>  <Rbt.Current_Directory>
/home/itssahil/PROJECTS/Mol_Feturizer/New_Systems/rnas/2lwk

>  <Rbt.Executable>
rbdock ($Id: //depot/dev/client3/rdock/2013.1/src/exe/rbdock.cxx#4 $)

>  <Rbt.Library>
libRbt.so (2013.1, Build901 2013/11/27)

>  <Rbt.Parameter_File>
/export/apps/rDock/src/rDock_2013.1_src/data/scripts/dock_solv.prm

>  <Rbt.Receptor>
prm/pocket_docking_6.prm

>  <SCORE>
-19.7683

>  <SCORE.INTER>
-14.9584

>  <SCORE.INTER.CONST>
1

>  <SCORE.INTER.POLAR>
-1.09313

>  <SCORE.INTER.ROT>
3

>  <SCORE.INTER.SOLV>
7.56888

>  <SCORE.INTER.VDW>
-14.4515

>  <SCORE.INTER.norm>
-0.712304

>  <SCORE.INTRA>
-4.80989

>  <SCORE.INTRA.DIHEDRAL>
0.992126

>  <SCORE.INTRA.DIHEDRAL.0>
8.84257

>  <SCORE.INTRA.POLAR>
0

>  <SCORE.INTRA.POLAR.0>
0

>  <SCORE.INTRA.REPUL>
0

>  <SCORE.INTRA.REPUL.0>
0

>  <SCORE.INTRA.SOLV>
0.0727482

>  <SCORE.INTRA.SOLV.lig_0>
-17.1313

>  <SCORE.INTRA.VDW>
-5.34233

>  <SCORE.INTRA.VDW.0>
6.34071

>  <SCORE.INTRA.norm>
-0.229042

>  <SCORE.RESTR>
0

>  <SCORE.RESTR.CAVITY>
0

>  <SCORE.RESTR.norm>
0

>  <SCORE.SYSTEM>
0

>  <SCORE.SYSTEM.CONST>
0

>  <SCORE.SYSTEM.DIHEDRAL>
0

>  <SCORE.SYSTEM.SOLV>
0

>  <SCORE.SYSTEM.norm>
0

>  <SCORE.heavy>
21

>  <SCORE.norm>
-0.941347

>  <RMSD>
7.202

$$$$
lig.pdb
 OpenBabel11021811453D
libRbt.so/2013.1/901 2013/11/27
 21 23  0  0  0  0  0  0  0  0999 V2000
   -7.7275    0.8424    4.5684 C   0  0  0  0  0  0  0  0  0  0  0  0
   -7.5865    1.9006    3.7780 N   0  0  0  0  0  0  0  0  0  0  0  0
   -6.7897    2.8911    4.1367 C   0  0  0  0  0  0  0  0  0  0  0  0
   -6.1748    2.8580    5.3363 C   0  0  0  0  0  0  0  0  0  0  0  0
   -6.3166    1.7875    6.1292 C   0  0  0  0  0  0  0  0  0  0  0  0
   -5.7168    1.7485    7.3185 N   0  0  0  0  0  0  0  0  0  0  0  0
   -7.0964    0.7834    5.7418 N   0  0  0  0  0  0  0  0  0  0  0  0
   -6.6342    3.9471    3.3210 C   0  0  0  0  0  0  0  0  0  0  0  0
   -5.9538    5.0442    3.7745 C   0  0  0  0  0  0  0  0  0  0  0  0
   -6.4548    6.3206    3.4237 O   0  0  0  0  0  0  0  0  0  0  0  0
   -5.1962    4.9157    4.8762 C   0  0  0  0  0  0  0  0  0  0  0  0
   -4.1408    5.8358    5.1161 O   0  0  0  0  0  0  0  0  0  0  0  0
   -5.3835    3.8735    5.7095 C   0  0  0  0  0  0  0  0  0  0  0  0
   -8.5148   -0.1504    4.1918 N   0  0  0  0  0  0  0  0  0  0  0  0
   -9.8298    0.0521    4.3184 C   0  0  0  0  0  0  0  0  0  0  0  0
  -10.2525   -0.1542    5.7650 C   0  0  0  0  0  0  0  0  0  0  0  0
   -9.9718   -1.4490    6.1495 N   0  0  0  0  0  0  0  0  0  0  0  0
   -8.6079   -1.6167    6.0486 C   0  0  0  0  0  0  0  0  0  0  0  0
   -8.1831   -1.4159    4.6035 C   0  0  0  0  0  0  0  0  0  0  0  0
   -5.6519    6.8361    2.3928 C   0  0  0  0  0  0  0  0  0  0  0  0
   -2.9908    5.3865    4.4483 C   0  0  0  0  0  0  0  0  0  0  0  0
  1 14  1  0  0  0  0
  1  2  2  0  0  0  0
  3  2  1  0  0  0  0
  3  8  2  0  0  0  0
  4  3  1  0  0  0  0
  5  7  2  0  0  0  0
  5  4  1  0  0  0  0
  6  5  1  0  0  0  0
  7  1  1  0  0  0  0
  9 10  1  0  0  0  0
  9  8  1  0  0  0  0
 11  9  2  0  0  0  0
 12 11  1  0  0  0  0
 13  4  2  0  0  0  0
 13 11  1  0  0  0  0
 14 15  1  0  0  0  0
 16 15  1  0  0  0  0
 17 16  1  0  0  0  0
 18 17  1  0  0  0  0
 18 19  1  0  0  0  0
 19 14  1  0  0  0  0
 20 10  1  0  0  0  0
 21 12  1  0  0  0  0
M  END
>  <CHROM.1>
-76.72845375,-103.10763555,-86.05828536,-6.90492606,2.41010568,4.82586025
2.28440854,0.63661075,2.46178549

>  <Name>
lig.pdb

>  <RI>
2.20372e+07

>  <Rbt.Current_Directory>
/home/itssahil/PROJECTS/Mol_Feturizer/New_Systems/rnas/2lwk

>  <Rbt.Executable>
rbdock ($Id: //depot/dev/client3/rdock/2013.1/src/exe/rbdock.cxx#4 $)

>  <Rbt.Library>
libRbt.so (2013.1, Build901 2013/11/27)

>  <Rbt.Parameter_File>
/export/apps/rDock/src/rDock_2013.1_src/data/scripts/dock_solv.prm

>  <Rbt.Receptor>
prm/pocket_docking_7.prm

>  <SCORE>
-19.7503

>  <SCORE.INTER>
-14.9933

>  <SCORE.INTER.CONST>
1

>  <SCORE.INTER.POLAR>
-1.11136

>  <SCORE.INTER.ROT>
3

>  <SCORE.INTER.SOLV>
7.7439

>  <SCORE.INTER.VDW>
-14.4723

>  <SCORE.INTER.norm>
-0.713965

>  <SCORE.INTRA>
-4.75703

>  <SCORE.INTRA.DIHEDRAL>
1.01975

>  <SCORE.INTRA.DIHEDRAL.0>
8.84257

>  <SCORE.INTRA.POLAR>
0

>  <SCORE.INTRA.POLAR.0>
0

>  <SCORE.INTRA.REPUL>
0

>  <SCORE.INTRA.REPUL.0>
0

>  <SCORE.INTRA.SOLV>
0.0686107

>  <SCORE.INTRA.SOLV.lig_0>
-17.1313

>  <SCORE.INTRA.VDW>
-5.30121

>  <SCORE.INTRA.VDW.0>
6.34071

>  <SCORE.INTRA.norm>
-0.226525

>  <SCORE.RESTR>
0

>  <SCORE.RESTR.CAVITY>
0

>  <SCORE.RESTR.norm>
0

>  <SCORE.SYSTEM>
0

>  <SCORE.SYSTEM.CONST>
0

>  <SCORE.SYSTEM.DIHEDRAL>
0

>  <SCORE.SYSTEM.SOLV>
0

>  <SCORE.SYSTEM.norm>
0

>  <SCORE.heavy>
21

>  <SCORE.norm>
-0.94049

>  <RMSD>
7.206

$$$$
lig.pdb
 OpenBabel11021811453D
libRbt.so/2013.1/901 2013/11/27
 21 23  0  0  0  0  0  0  0  0999 V2000
   -5.8795    4.9716    3.9138 C   0  0  0  0  0  0  0  0  0  0  0  0
   -6.3843    4.1690    4.8441 N   0  0  0  0  0  0  0  0  0  0  0  0
   -5.6750    3.8768    5.9195 C   0  0  0  0  0  0  0  0  0  0  0  0
   -4.4134    4.3378    6.0380 C   0  0  0  0  0  0  0  0  0  0  0  0
   -3.9091    5.1499    5.0994 C   0  0  0  0  0  0  0  0  0  0  0  0
   -2.6616    5.6060    5.2058 N   0  0  0  0  0  0  0  0  0  0  0  0
   -4.6453    5.4616    4.0378 N   0  0  0  0  0  0  0  0  0  0  0  0
   -6.2016    3.0832    6.8669 C   0  0  0  0  0  0  0  0  0  0  0  0
   -5.4018    2.6412    7.8853 C   0  0  0  0  0  0  0  0  0  0  0  0
   -5.5644    1.3029    8.3163 O   0  0  0  0  0  0  0  0  0  0  0  0
   -4.2263    3.2587    8.0883 C   0  0  0  0  0  0  0  0  0  0  0  0
   -3.5954    3.1715    9.3582 O   0  0  0  0  0  0  0  0  0  0  0  0
   -3.6862    4.0231    7.1191 C   0  0  0  0  0  0  0  0  0  0  0  0
   -6.6044    5.2705    2.8496 N   0  0  0  0  0  0  0  0  0  0  0  0
   -7.3138    4.2727    2.3136 C   0  0  0  0  0  0  0  0  0  0  0  0
   -6.4136    3.3926    1.4598 C   0  0  0  0  0  0  0  0  0  0  0  0
   -5.8706    4.1406    0.4358 N   0  0  0  0  0  0  0  0  0  0  0  0
   -5.1130    5.1347    1.0156 C   0  0  0  0  0  0  0  0  0  0  0  0
   -6.0105    6.0186    1.8655 C   0  0  0  0  0  0  0  0  0  0  0  0
   -6.3823    1.3090    9.4583 C   0  0  0  0  0  0  0  0  0  0  0  0
   -2.5461    2.2426    9.2771 C   0  0  0  0  0  0  0  0  0  0  0  0
  1 14  1  0  0  0  0
  1  2  2  0  0  0  0
  3  2  1  0  0  0  0
  3  8  2  0  0  0  0
  4  3  1  0  0  0  0
  5  7  2  0  0  0  0
  5  4  1  0  0  0  0
  6  5  1  0  0  0  0
  7  1  1  0  0  0  0
  9 10  1  0  0  0  0
  9  8  1  0  0  0  0
 11  9  2  0  0  0  0
 12 11  1  0  0  0  0
 13  4  2  0  0  0  0
 13 11  1  0  0  0  0
 14 15  1  0  0  0  0
 16 15  1  0  0  0  0
 17 16  1  0  0  0  0
 18 17  1  0  0  0  0
 18 19  1  0  0  0  0
 19 14  1  0  0  0  0
 20 10  1  0  0  0  0
 21 12  1  0  0  0  0
M  END
>  <CHROM.1>
-40.70240396,-98.12807887,102.78677493,-5.14941528,3.91886477,5.31280355
1.81111372,-0.55283593,-1.11165713

>  <Name>
lig.pdb

>  <RI>
2.20372e+07

>  <Rbt.Current_Directory>
/home/itssahil/PROJECTS/Mol_Feturizer/New_Systems/rnas/2lwk

>  <Rbt.Executable>
rbdock ($Id: //depot/dev/client3/rdock/2013.1/src/exe/rbdock.cxx#4 $)

>  <Rbt.Library>
libRbt.so (2013.1, Build901 2013/11/27)

>  <Rbt.Parameter_File>
/export/apps/rDock/src/rDock_2013.1_src/data/scripts/dock_solv.prm

>  <Rbt.Receptor>
prm/pocket_docking_7.prm

>  <SCORE>
-21.2125

>  <SCORE.INTER>
-17.5165

>  <SCORE.INTER.CONST>
1

>  <SCORE.INTER.POLAR>
-1.20674

>  <SCORE.INTER.ROT>
3

>  <SCORE.INTER.SOLV>
8.92545

>  <SCORE.INTER.VDW>
-16.2303

>  <SCORE.INTER.norm>
-0.834119

>  <SCORE.INTRA>
-3.69603

>  <SCORE.INTRA.DIHEDRAL>
0.820234

>  <SCORE.INTRA.DIHEDRAL.0>
8.84257

>  <SCORE.INTRA.POLAR>
0

>  <SCORE.INTRA.POLAR.0>
0

>  <SCORE.INTRA.REPUL>
0

>  <SCORE.INTRA.REPUL.0>
0

>  <SCORE.INTRA.SOLV>
0.02007

>  <SCORE.INTRA.SOLV.lig_0>
-17.1313

>  <SCORE.INTRA.VDW>
-4.11619

>  <SCORE.INTRA.VDW.0>
6.34071

>  <SCORE.INTRA.norm>
-0.176002

>  <SCORE.RESTR>
0

>  <SCORE.RESTR.CAVITY>
0

>  <SCORE.RESTR.norm>
0

>  <SCORE.SYSTEM>
0

>  <SCORE.SYSTEM.CONST>
0

>  <SCORE.SYSTEM.DIHEDRAL>
0

>  <SCORE.SYSTEM.SOLV>
0

>  <SCORE.SYSTEM.norm>
0

>  <SCORE.heavy>
21

>  <SCORE.norm>
-1.01012

>  <RMSD>
7.216

$$$$
lig.pdb
 OpenBabel11021811453D
libRbt.so/2013.1/901 2013/11/27
 21 23  0  0  0  0  0  0  0  0999 V2000
   -7.6797    0.8919    4.5496 C   0  0  0  0  0  0  0  0  0  0  0  0
   -7.5552    1.9544    3.7624 N   0  0  0  0  0  0  0  0  0  0  0  0
   -6.7531    2.9443    4.1112 C   0  0  0  0  0  0  0  0  0  0  0  0
   -6.1155    2.9057    5.2987 C   0  0  0  0  0  0  0  0  0  0  0  0
   -6.2407    1.8307    6.0884 C   0  0  0  0  0  0  0  0  0  0  0  0
   -5.6184    1.7863    7.2658 N   0  0  0  0  0  0  0  0  0  0  0  0
   -7.0263    0.8276    5.7105 N   0  0  0  0  0  0  0  0  0  0  0  0
   -6.6147    4.0048    3.2984 C   0  0  0  0  0  0  0  0  0  0  0  0
   -5.9274    5.1006    3.7447 C   0  0  0  0  0  0  0  0  0  0  0  0
   -6.4368    6.3780    3.4104 O   0  0  0  0  0  0  0  0  0  0  0  0
   -5.1488    4.9673    4.8311 C   0  0  0  0  0  0  0  0  0  0  0  0
   -4.0903    5.8878    5.0559 O   0  0  0  0  0  0  0  0  0  0  0  0
   -5.3188    3.9204    5.6623 C   0  0  0  0  0  0  0  0  0  0  0  0
   -8.4725   -0.1002    4.1828 N   0  0  0  0  0  0  0  0  0  0  0  0
   -9.7821    0.0811    4.3788 C   0  0  0  0  0  0  0  0  0  0  0  0
  -10.1311   -0.1722    5.8375 C   0  0  0  0  0  0  0  0  0  0  0  0
   -9.8166   -1.4737    6.1699 N   0  0  0  0  0  0  0  0  0  0  0  0
   -8.4574   -1.6203    5.9981 C   0  0  0  0  0  0  0  0  0  0  0  0
   -8.1061   -1.3724    4.5406 C   0  0  0  0  0  0  0  0  0  0  0  0
   -5.6440    6.9074    2.3787 C   0  0  0  0  0  0  0  0  0  0  0  0
   -2.9523    5.4433    4.3646 C   0  0  0  0  0  0  0  0  0  0  0  0
  1 14  1  0  0  0  0
  1  2  2  0  0  0  0
  3  2  1  0  0  0  0
  3  8  2  0  0  0  0
  4  3  1  0  0  0  0
  5  7  2  0  0  0  0
  5  4  1  0  0  0  0
  6  5  1  0  0  0  0
  7  1  1  0  0  0  0
  9 10  1  0  0  0  0
  9  8  1  0  0  0  0
 11  9  2  0  0  0  0
 12 11  1  0  0  0  0
 13  4  2  0  0  0  0
 13 11  1  0  0  0  0
 14 15  1  0  0  0  0
 16 15  1  0  0  0  0
 17 16  1  0  0  0  0
 18 17  1  0  0  0  0
 18 19  1  0  0  0  0
 19 14  1  0  0  0  0
 20 10  1  0  0  0  0
 21 12  1  0  0  0  0
M  END
>  <CHROM.1>
-78.99551631,-103.83969654,-86.09362331,-6.84303643,2.45048885,4.80174865
2.26284789,0.62806240,2.47834436

>  <Name>
lig.pdb

>  <RI>
2.98315e+07

>  <Rbt.Current_Directory>
/home/itssahil/PROJECTS/Mol_Feturizer/New_Systems/rnas/2lwk

>  <Rbt.Executable>
rbdock ($Id: //depot/dev/client3/rdock/2013.1/src/exe/rbdock.cxx#4 $)

>  <Rbt.Library>
libRbt.so (2013.1, Build901 2013/11/27)

>  <Rbt.Parameter_File>
/export/apps/rDock/src/rDock_2013.1_src/data/scripts/dock_solv.prm

>  <Rbt.Receptor>
prm/pocket_docking_5.prm

>  <SCORE>
-19.7677

>  <SCORE.INTER>
-14.926

>  <SCORE.INTER.CONST>
1

>  <SCORE.INTER.POLAR>
-1.11593

>  <SCORE.INTER.ROT>
3

>  <SCORE.INTER.SOLV>
7.66605

>  <SCORE.INTER.VDW>
-14.3863

>  <SCORE.INTER.norm>
-0.710763

>  <SCORE.INTRA>
-4.84168

>  <SCORE.INTRA.DIHEDRAL>
1.01778

>  <SCORE.INTRA.DIHEDRAL.0>
8.84257

>  <SCORE.INTRA.POLAR>
0

>  <SCORE.INTRA.POLAR.0>
0

>  <SCORE.INTRA.REPUL>
0

>  <SCORE.INTRA.REPUL.0>
0

>  <SCORE.INTRA.SOLV>
0.0731594

>  <SCORE.INTRA.SOLV.lig_0>
-17.1313

>  <SCORE.INTRA.VDW>
-5.38715

>  <SCORE.INTRA.VDW.0>
6.34071

>  <SCORE.INTRA.norm>
-0.230556

>  <SCORE.RESTR>
0

>  <SCORE.RESTR.CAVITY>
0

>  <SCORE.RESTR.norm>
0

>  <SCORE.SYSTEM>
0

>  <SCORE.SYSTEM.CONST>
0

>  <SCORE.SYSTEM.DIHEDRAL>
0

>  <SCORE.SYSTEM.SOLV>
0

>  <SCORE.SYSTEM.norm>
0

>  <SCORE.heavy>
21

>  <SCORE.norm>
-0.941319

>  <RMSD>
7.226

$$$$
lig.pdb
 OpenBabel11021811453D
libRbt.so/2013.1/901 2013/11/27
 21 23  0  0  0  0  0  0  0  0999 V2000
   -7.6496    0.8907    4.5528 C   0  0  0  0  0  0  0  0  0  0  0  0
   -7.5334    1.9570    3.7692 N   0  0  0  0  0  0  0  0  0  0  0  0
   -6.7336    2.9487    4.1181 C   0  0  0  0  0  0  0  0  0  0  0  0
   -6.0898    2.9079    5.3021 C   0  0  0  0  0  0  0  0  0  0  0  0
   -6.2066    1.8292    6.0881 C   0  0  0  0  0  0  0  0  0  0  0  0
   -5.5781    1.7825    7.2621 N   0  0  0  0  0  0  0  0  0  0  0  0
   -6.9900    0.8244    5.7101 N   0  0  0  0  0  0  0  0  0  0  0  0
   -6.6036    4.0131    3.3089 C   0  0  0  0  0  0  0  0  0  0  0  0
   -5.9185    5.1098    3.7562 C   0  0  0  0  0  0  0  0  0  0  0  0
   -6.4348    6.3865    3.4297 O   0  0  0  0  0  0  0  0  0  0  0  0
   -5.1338    4.9753    4.8381 C   0  0  0  0  0  0  0  0  0  0  0  0
   -4.0779    5.8991    5.0612 O   0  0  0  0  0  0  0  0  0  0  0  0
   -5.2953    3.9244    5.6658 C   0  0  0  0  0  0  0  0  0  0  0  0
   -8.4402   -0.1030    4.1859 N   0  0  0  0  0  0  0  0  0  0  0  0
   -9.7486    0.0681    4.3982 C   0  0  0  0  0  0  0  0  0  0  0  0
  -10.0796   -0.2004    5.8584 C   0  0  0  0  0  0  0  0  0  0  0  0
   -9.7532   -1.5027    6.1755 N   0  0  0  0  0  0  0  0  0  0  0  0
   -8.3951   -1.6391    5.9872 C   0  0  0  0  0  0  0  0  0  0  0  0
   -8.0618   -1.3760    4.5282 C   0  0  0  0  0  0  0  0  0  0  0  0
   -5.6525    6.9211    2.3927 C   0  0  0  0  0  0  0  0  0  0  0  0
   -2.9512    5.4790    4.3372 C   0  0  0  0  0  0  0  0  0  0  0  0
  1 14  1  0  0  0  0
  1  2  2  0  0  0  0
  3  2  1  0  0  0  0
  3  8  2  0  0  0  0
  4  3  1  0  0  0  0
  5  7  2  0  0  0  0
  5  4  1  0  0  0  0
  6  5  1  0  0  0  0
  7  1  1  0  0  0  0
  9 10  1  0  0  0  0
  9  8  1  0  0  0  0
 11  9  2  0  0  0  0
 12 11  1  0  0  0  0
 13  4  2  0  0  0  0
 13 11  1  0  0  0  0
 14 15  1  0  0  0  0
 16 15  1  0  0  0  0
 17 16  1  0  0  0  0
 18 17  1  0  0  0  0
 18 19  1  0  0  0  0
 19 14  1  0  0  0  0
 20 10  1  0  0  0  0
 21 12  1  0  0  0  0
M  END
>  <CHROM.1>
-79.46370651,-103.62082617,-84.72513875,-6.81632160,2.45060602,4.80571818
2.25382377,0.62859223,2.48613969

>  <Name>
lig.pdb

>  <RI>
2.20372e+07

>  <Rbt.Current_Directory>
/home/itssahil/PROJECTS/Mol_Feturizer/New_Systems/rnas/2lwk

>  <Rbt.Executable>
rbdock ($Id: //depot/dev/client3/rdock/2013.1/src/exe/rbdock.cxx#4 $)

>  <Rbt.Library>
libRbt.so (2013.1, Build901 2013/11/27)

>  <Rbt.Parameter_File>
/export/apps/rDock/src/rDock_2013.1_src/data/scripts/dock_solv.prm

>  <Rbt.Receptor>
prm/pocket_docking_7.prm

>  <SCORE>
-19.7293

>  <SCORE.INTER>
-14.8743

>  <SCORE.INTER.CONST>
1

>  <SCORE.INTER.POLAR>
-1.13125

>  <SCORE.INTER.ROT>
3

>  <SCORE.INTER.SOLV>
7.59622

>  <SCORE.INTER.VDW>
-14.2774

>  <SCORE.INTER.norm>
-0.7083

>  <SCORE.INTRA>
-4.85499

>  <SCORE.INTRA.DIHEDRAL>
1.00824

>  <SCORE.INTRA.DIHEDRAL.0>
8.84257

>  <SCORE.INTRA.POLAR>
0

>  <SCORE.INTRA.POLAR.0>
0

>  <SCORE.INTRA.REPUL>
0

>  <SCORE.INTRA.REPUL.0>
0

>  <SCORE.INTRA.SOLV>
0.0745345

>  <SCORE.INTRA.SOLV.lig_0>
-17.1313

>  <SCORE.INTRA.VDW>
-5.39638

>  <SCORE.INTRA.VDW.0>
6.34071

>  <SCORE.INTRA.norm>
-0.23119

>  <SCORE.RESTR>
0

>  <SCORE.RESTR.CAVITY>
0

>  <SCORE.RESTR.norm>
0

>  <SCORE.SYSTEM>
0

>  <SCORE.SYSTEM.CONST>
0

>  <SCORE.SYSTEM.DIHEDRAL>
0

>  <SCORE.SYSTEM.SOLV>
0

>  <SCORE.SYSTEM.norm>
0

>  <SCORE.heavy>
21

>  <SCORE.norm>
-0.93949

>  <RMSD>
7.229

$$$$
lig.pdb
 OpenBabel11021811453D
libRbt.so/2013.1/901 2013/11/27
 21 23  0  0  0  0  0  0  0  0999 V2000
   -7.6642    0.8917    4.5560 C   0  0  0  0  0  0  0  0  0  0  0  0
   -7.5356    1.9540    3.7691 N   0  0  0  0  0  0  0  0  0  0  0  0
   -6.7371    2.9449    4.1230 C   0  0  0  0  0  0  0  0  0  0  0  0
   -6.1075    2.9076    5.3148 C   0  0  0  0  0  0  0  0  0  0  0  0
   -6.2368    1.8328    6.1041 C   0  0  0  0  0  0  0  0  0  0  0  0
   -5.6225    1.7895    7.2858 N   0  0  0  0  0  0  0  0  0  0  0  0
   -7.0186    0.8286    5.7213 N   0  0  0  0  0  0  0  0  0  0  0  0
   -6.5943    4.0053    3.3107 C   0  0  0  0  0  0  0  0  0  0  0  0
   -5.9113    5.1020    3.7613 C   0  0  0  0  0  0  0  0  0  0  0  0
   -6.4199    6.3788    3.4230 O   0  0  0  0  0  0  0  0  0  0  0  0
   -5.1400    4.9701    4.8530 C   0  0  0  0  0  0  0  0  0  0  0  0
   -4.0841    5.8918    5.0846 O   0  0  0  0  0  0  0  0  0  0  0  0
   -5.3144    3.9234    5.6834 C   0  0  0  0  0  0  0  0  0  0  0  0
   -8.4534   -0.1014    4.1842 N   0  0  0  0  0  0  0  0  0  0  0  0
   -9.7645    0.0784    4.3711 C   0  0  0  0  0  0  0  0  0  0  0  0
  -10.1233   -0.1746    5.8275 C   0  0  0  0  0  0  0  0  0  0  0  0
   -9.8096   -1.4755    6.1626 N   0  0  0  0  0  0  0  0  0  0  0  0
   -8.4491   -1.6206    6.0003 C   0  0  0  0  0  0  0  0  0  0  0  0
   -8.0881   -1.3731    4.5451 C   0  0  0  0  0  0  0  0  0  0  0  0
   -5.6417    6.8941    2.3732 C   0  0  0  0  0  0  0  0  0  0  0  0
   -2.9425    5.4515    4.3966 C   0  0  0  0  0  0  0  0  0  0  0  0
  1 14  1  0  0  0  0
  1  2  2  0  0  0  0
  3  2  1  0  0  0  0
  3  8  2  0  0  0  0
  4  3  1  0  0  0  0
  5  7  2  0  0  0  0
  5  4  1  0  0  0  0
  6  5  1  0  0  0  0
  7  1  1  0  0  0  0
  9 10  1  0  0  0  0
  9  8  1  0  0  0  0
 11  9  2  0  0  0  0
 12 11  1  0  0  0  0
 13  4  2  0  0  0  0
 13 11  1  0  0  0  0
 14 15  1  0  0  0  0
 16 15  1  0  0  0  0
 17 16  1  0  0  0  0
 18 17  1  0  0  0  0
 18 19  1  0  0  0  0
 19 14  1  0  0  0  0
 20 10  1  0  0  0  0
 21 12  1  0  0  0  0
M  END
>  <CHROM.1>
-78.98943420,-102.35747189,-85.84608907,-6.83228234,2.45076571,4.81168416
2.26691365,0.63473981,2.47443026

>  <Name>
lig.pdb

>  <RI>
2.59814e+07

>  <Rbt.Current_Directory>
/home/itssahil/PROJECTS/Mol_Feturizer/New_Systems/rnas/2lwk

>  <Rbt.Executable>
rbdock ($Id: //depot/dev/client3/rdock/2013.1/src/exe/rbdock.cxx#4 $)

>  <Rbt.Library>
libRbt.so (2013.1, Build901 2013/11/27)

>  <Rbt.Parameter_File>
/export/apps/rDock/src/rDock_2013.1_src/data/scripts/dock_solv.prm

>  <Rbt.Receptor>
prm/pocket_docking_6.prm

>  <SCORE>
-19.7904

>  <SCORE.INTER>
-14.94

>  <SCORE.INTER.CONST>
1

>  <SCORE.INTER.POLAR>
-1.1355

>  <SCORE.INTER.ROT>
3

>  <SCORE.INTER.SOLV>
7.65596

>  <SCORE.INTER.VDW>
-14.327

>  <SCORE.INTER.norm>
-0.711429

>  <SCORE.INTRA>
-4.85035

>  <SCORE.INTRA.DIHEDRAL>
1.01978

>  <SCORE.INTRA.DIHEDRAL.0>
8.84257

>  <SCORE.INTRA.POLAR>
0

>  <SCORE.INTRA.POLAR.0>
0

>  <SCORE.INTRA.REPUL>
0

>  <SCORE.INTRA.REPUL.0>
0

>  <SCORE.INTRA.SOLV>
0.0718211

>  <SCORE.INTRA.SOLV.lig_0>
-17.1313

>  <SCORE.INTRA.VDW>
-5.39615

>  <SCORE.INTRA.VDW.0>
6.34071

>  <SCORE.INTRA.norm>
-0.230969

>  <SCORE.RESTR>
0

>  <SCORE.RESTR.CAVITY>
0

>  <SCORE.RESTR.norm>
0

>  <SCORE.SYSTEM>
0

>  <SCORE.SYSTEM.CONST>
0

>  <SCORE.SYSTEM.DIHEDRAL>
0

>  <SCORE.SYSTEM.SOLV>
0

>  <SCORE.SYSTEM.norm>
0

>  <SCORE.heavy>
21

>  <SCORE.norm>
-0.942398

>  <RMSD>
7.230

$$$$
lig.pdb
 OpenBabel11021811453D
libRbt.so/2013.1/901 2013/11/27
 21 23  0  0  0  0  0  0  0  0999 V2000
   -5.8943    5.0087    3.8930 C   0  0  0  0  0  0  0  0  0  0  0  0
   -6.4104    4.2226    4.8311 N   0  0  0  0  0  0  0  0  0  0  0  0
   -5.7079    3.9360    5.9123 C   0  0  0  0  0  0  0  0  0  0  0  0
   -4.4420    4.3854    6.0297 C   0  0  0  0  0  0  0  0  0  0  0  0
   -3.9261    5.1810    5.0832 C   0  0  0  0  0  0  0  0  0  0  0  0
   -2.6744    5.6254    5.1885 N   0  0  0  0  0  0  0  0  0  0  0  0
   -4.6555    5.4875    4.0154 N   0  0  0  0  0  0  0  0  0  0  0  0
   -6.2458    3.1593    6.8673 C   0  0  0  0  0  0  0  0  0  0  0  0
   -5.4540    2.7213    7.8937 C   0  0  0  0  0  0  0  0  0  0  0  0
   -5.6320    1.3901    8.3401 O   0  0  0  0  0  0  0  0  0  0  0  0
   -4.2729    3.3291    8.0934 C   0  0  0  0  0  0  0  0  0  0  0  0
   -3.6471    3.2506    9.3664 O   0  0  0  0  0  0  0  0  0  0  0  0
   -3.7216    4.0762    7.1169 C   0  0  0  0  0  0  0  0  0  0  0  0
   -6.6125    5.3023    2.8228 N   0  0  0  0  0  0  0  0  0  0  0  0
   -7.3388    4.3083    2.3026 C   0  0  0  0  0  0  0  0  0  0  0  0
   -6.4532    3.3980    1.4653 C   0  0  0  0  0  0  0  0  0  0  0  0
   -5.8959    4.1190    0.4296 N   0  0  0  0  0  0  0  0  0  0  0  0
   -5.1215    5.1092    0.9936 C   0  0  0  0  0  0  0  0  0  0  0  0
   -6.0043    6.0230    1.8271 C   0  0  0  0  0  0  0  0  0  0  0  0
   -6.5084    1.4117    9.4376 C   0  0  0  0  0  0  0  0  0  0  0  0
   -2.5827    2.3387    9.2897 C   0  0  0  0  0  0  0  0  0  0  0  0
  1 14  1  0  0  0  0
  1  2  2  0  0  0  0
  3  2  1  0  0  0  0
  3  8  2  0  0  0  0
  4  3  1  0  0  0  0
  5  7  2  0  0  0  0
  5  4  1  0  0  0  0
  6  5  1  0  0  0  0
  7  1  1  0  0  0  0
  9 10  1  0  0  0  0
  9  8  1  0  0  0  0
 11  9  2  0  0  0  0
 12 11  1  0  0  0  0
 13  4  2  0  0  0  0
 13 11  1  0  0  0  0
 14 15  1  0  0  0  0
 16 15  1  0  0  0  0
 17 16  1  0  0  0  0
 18 17  1  0  0  0  0
 18 19  1  0  0  0  0
 19 14  1  0  0  0  0
 20 10  1  0  0  0  0
 21 12  1  0  0  0  0
M  END
>  <CHROM.1>
-40.18230874,-95.16030398,104.47754131,-5.18340516,3.96397254,5.30494327
1.80354022,-0.54370961,-1.12943367

>  <Name>
lig.pdb

>  <RI>
2.20372e+07

>  <Rbt.Current_Directory>
/home/itssahil/PROJECTS/Mol_Feturizer/New_Systems/rnas/2lwk

>  <Rbt.Executable>
rbdock ($Id: //depot/dev/client3/rdock/2013.1/src/exe/rbdock.cxx#4 $)

>  <Rbt.Library>
libRbt.so (2013.1, Build901 2013/11/27)

>  <Rbt.Parameter_File>
/export/apps/rDock/src/rDock_2013.1_src/data/scripts/dock_solv.prm

>  <Rbt.Receptor>
prm/pocket_docking_7.prm

>  <SCORE>
-21.1829

>  <SCORE.INTER>
-17.5392

>  <SCORE.INTER.CONST>
1

>  <SCORE.INTER.POLAR>
-1.23365

>  <SCORE.INTER.ROT>
3

>  <SCORE.INTER.SOLV>
9.15989

>  <SCORE.INTER.VDW>
-16.2339

>  <SCORE.INTER.norm>
-0.8352

>  <SCORE.INTRA>
-3.64368

>  <SCORE.INTRA.DIHEDRAL>
0.720337

>  <SCORE.INTRA.DIHEDRAL.0>
8.84257

>  <SCORE.INTRA.POLAR>
0

>  <SCORE.INTRA.POLAR.0>
0

>  <SCORE.INTRA.REPUL>
0

>  <SCORE.INTRA.REPUL.0>
0

>  <SCORE.INTRA.SOLV>
0.0143769

>  <SCORE.INTRA.SOLV.lig_0>
-17.1313

>  <SCORE.INTRA.VDW>
-4.01104

>  <SCORE.INTRA.VDW.0>
6.34071

>  <SCORE.INTRA.norm>
-0.173509

>  <SCORE.RESTR>
0

>  <SCORE.RESTR.CAVITY>
0

>  <SCORE.RESTR.norm>
0

>  <SCORE.SYSTEM>
0

>  <SCORE.SYSTEM.CONST>
0

>  <SCORE.SYSTEM.DIHEDRAL>
0

>  <SCORE.SYSTEM.SOLV>
0

>  <SCORE.SYSTEM.norm>
0

>  <SCORE.heavy>
21

>  <SCORE.norm>
-1.00871

>  <RMSD>
7.232

$$$$
lig.pdb
 OpenBabel11021811453D
libRbt.so/2013.1/901 2013/11/27
 21 23  0  0  0  0  0  0  0  0999 V2000
   -5.8679    5.0336    3.9079 C   0  0  0  0  0  0  0  0  0  0  0  0
   -6.3830    4.2359    4.8367 N   0  0  0  0  0  0  0  0  0  0  0  0
   -5.6799    3.9375    5.9144 C   0  0  0  0  0  0  0  0  0  0  0  0
   -4.4146    4.3869    6.0370 C   0  0  0  0  0  0  0  0  0  0  0  0
   -3.8998    5.1943    5.0999 C   0  0  0  0  0  0  0  0  0  0  0  0
   -2.6486    5.6389    5.2103 N   0  0  0  0  0  0  0  0  0  0  0  0
   -4.6297    5.5124    4.0358 N   0  0  0  0  0  0  0  0  0  0  0  0
   -6.2169    3.1490    6.8603 C   0  0  0  0  0  0  0  0  0  0  0  0
   -5.4244    2.6999    7.8813 C   0  0  0  0  0  0  0  0  0  0  0  0
   -5.6007    1.3633    8.3122 O   0  0  0  0  0  0  0  0  0  0  0  0
   -4.2440    3.3067    8.0881 C   0  0  0  0  0  0  0  0  0  0  0  0
   -3.6180    3.2140    9.3600 O   0  0  0  0  0  0  0  0  0  0  0  0
   -3.6937    4.0659    7.1205 C   0  0  0  0  0  0  0  0  0  0  0  0
   -6.5866    5.3389    2.8413 N   0  0  0  0  0  0  0  0  0  0  0  0
   -7.3280    4.3556    2.3221 C   0  0  0  0  0  0  0  0  0  0  0  0
   -6.4580    3.4355    1.4792 C   0  0  0  0  0  0  0  0  0  0  0  0
   -5.8954    4.1513    0.4427 N   0  0  0  0  0  0  0  0  0  0  0  0
   -5.1057    5.1300    1.0056 C   0  0  0  0  0  0  0  0  0  0  0  0
   -5.9730    6.0536    1.8445 C   0  0  0  0  0  0  0  0  0  0  0  0
   -6.5695    1.3571    9.3292 C   0  0  0  0  0  0  0  0  0  0  0  0
   -2.5626    2.2924    9.2767 C   0  0  0  0  0  0  0  0  0  0  0  0
  1 14  1  0  0  0  0
  1  2  2  0  0  0  0
  3  2  1  0  0  0  0
  3  8  2  0  0  0  0
  4  3  1  0  0  0  0
  5  7  2  0  0  0  0
  5  4  1  0  0  0  0
  6  5  1  0  0  0  0
  7  1  1  0  0  0  0
  9 10  1  0  0  0  0
  9  8  1  0  0  0  0
 11  9  2  0  0  0  0
 12 11  1  0  0  0  0
 13  4  2  0  0  0  0
 13 11  1  0  0  0  0
 14 15  1  0  0  0  0
 16 15  1  0  0  0  0
 17 16  1  0  0  0  0
 18 17  1  0  0  0  0
 18 19  1  0  0  0  0
 19 14  1  0  0  0  0
 20 10  1  0  0  0  0
 21 12  1  0  0  0  0
M  END
>  <CHROM.1>
-39.16261476,-89.86039222,103.77690903,-5.16485848,3.96688112,5.30465167
1.80571795,-0.54557510,-1.11768396

>  <Name>
lig.pdb

>  <RI>
2.75338e+07

>  <Rbt.Current_Directory>
/home/itssahil/PROJECTS/Mol_Feturizer/New_Systems/rnas/2lwk

>  <Rbt.Executable>
rbdock ($Id: //depot/dev/client3/rdock/2013.1/src/exe/rbdock.cxx#4 $)

>  <Rbt.Library>
libRbt.so (2013.1, Build901 2013/11/27)

>  <Rbt.Parameter_File>
/export/apps/rDock/src/rDock_2013.1_src/data/scripts/dock_solv.prm

>  <Rbt.Receptor>
prm/pocket_docking_8.prm

>  <SCORE>
-21.1752

>  <SCORE.INTER>
-17.5972

>  <SCORE.INTER.CONST>
1

>  <SCORE.INTER.POLAR>
-1.24902

>  <SCORE.INTER.ROT>
3

>  <SCORE.INTER.SOLV>
9.08664

>  <SCORE.INTER.VDW>
-16.1969

>  <SCORE.INTER.norm>
-0.837962

>  <SCORE.INTRA>
-3.57799

>  <SCORE.INTRA.DIHEDRAL>
0.609888

>  <SCORE.INTRA.DIHEDRAL.0>
8.84257

>  <SCORE.INTRA.POLAR>
0

>  <SCORE.INTRA.POLAR.0>
0

>  <SCORE.INTRA.REPUL>
0

>  <SCORE.INTRA.REPUL.0>
0

>  <SCORE.INTRA.SOLV>
0.00725547

>  <SCORE.INTRA.SOLV.lig_0>
-17.1313

>  <SCORE.INTRA.VDW>
-3.88657

>  <SCORE.INTRA.VDW.0>
6.34071

>  <SCORE.INTRA.norm>
-0.170381

>  <SCORE.RESTR>
0

>  <SCORE.RESTR.CAVITY>
0

>  <SCORE.RESTR.norm>
0

>  <SCORE.SYSTEM>
0

>  <SCORE.SYSTEM.CONST>
0

>  <SCORE.SYSTEM.DIHEDRAL>
0

>  <SCORE.SYSTEM.SOLV>
0

>  <SCORE.SYSTEM.norm>
0

>  <SCORE.heavy>
21

>  <SCORE.norm>
-1.00834

>  <RMSD>
7.232

$$$$
lig.pdb
 OpenBabel11021811453D
libRbt.so/2013.1/901 2013/11/27
 21 23  0  0  0  0  0  0  0  0999 V2000
   -5.8891    6.8615    2.2966 C   0  0  0  0  0  0  0  0  0  0  0  0
   -5.2420    6.4553    3.3830 N   0  0  0  0  0  0  0  0  0  0  0  0
   -5.4364    5.2349    3.8497 C   0  0  0  0  0  0  0  0  0  0  0  0
   -6.3433    4.4278    3.2629 C   0  0  0  0  0  0  0  0  0  0  0  0
   -6.9914    4.8397    2.1651 C   0  0  0  0  0  0  0  0  0  0  0  0
   -7.8930    4.0507    1.5818 N   0  0  0  0  0  0  0  0  0  0  0  0
   -6.7627    6.0587    1.6875 N   0  0  0  0  0  0  0  0  0  0  0  0
   -4.7605    4.8235    4.9353 C   0  0  0  0  0  0  0  0  0  0  0  0
   -5.0964    3.6311    5.5164 C   0  0  0  0  0  0  0  0  0  0  0  0
   -5.1040    3.5672    6.9303 O   0  0  0  0  0  0  0  0  0  0  0  0
   -5.8514    2.7692    4.8155 C   0  0  0  0  0  0  0  0  0  0  0  0
   -5.8387    1.3886    5.1503 O   0  0  0  0  0  0  0  0  0  0  0  0
   -6.5563    3.1973    3.7499 C   0  0  0  0  0  0  0  0  0  0  0  0
   -5.6746    8.0791    1.8289 N   0  0  0  0  0  0  0  0  0  0  0  0
   -6.7473    8.7469    1.3935 C   0  0  0  0  0  0  0  0  0  0  0  0
   -7.1267    8.2722   -0.0011 C   0  0  0  0  0  0  0  0  0  0  0  0
   -6.0827    8.5094   -0.8711 N   0  0  0  0  0  0  0  0  0  0  0  0
   -5.0048    7.7781   -0.4222 C   0  0  0  0  0  0  0  0  0  0  0  0
   -4.6204    8.2532    0.9691 C   0  0  0  0  0  0  0  0  0  0  0  0
   -3.7897    3.3256    7.3630 C   0  0  0  0  0  0  0  0  0  0  0  0
   -6.5493    1.2087    6.3473 C   0  0  0  0  0  0  0  0  0  0  0  0
  1 14  1  0  0  0  0
  1  2  2  0  0  0  0
  3  2  1  0  0  0  0
  3  8  2  0  0  0  0
  4  3  1  0  0  0  0
  5  7  2  0  0  0  0
  5  4  1  0  0  0  0
  6  5  1  0  0  0  0
  7  1  1  0  0  0  0
  9 10  1  0  0  0  0
  9  8  1  0  0  0  0
 11  9  2  0  0  0  0
 12 11  1  0  0  0  0
 13  4  2  0  0  0  0
 13 11  1  0  0  0  0
 14 15  1  0  0  0  0
 16 15  1  0  0  0  0
 17 16  1  0  0  0  0
 18 17  1  0  0  0  0
 18 19  1  0  0  0  0
 19 14  1  0  0  0  0
 20 10  1  0  0  0  0
 21 12  1  0  0  0  0
M  END
>  <CHROM.1>
-139.33422710,-83.63114155,73.23865583,-5.87931237,5.28938390,3.14834473
-1.68288830,0.82180947,2.42964998

>  <Name>
lig.pdb

>  <RI>
2.20372e+07

>  <Rbt.Current_Directory>
/home/itssahil/PROJECTS/Mol_Feturizer/New_Systems/rnas/2lwk

>  <Rbt.Executable>
rbdock ($Id: //depot/dev/client3/rdock/2013.1/src/exe/rbdock.cxx#4 $)

>  <Rbt.Library>
libRbt.so (2013.1, Build901 2013/11/27)

>  <Rbt.Parameter_File>
/export/apps/rDock/src/rDock_2013.1_src/data/scripts/dock_solv.prm

>  <Rbt.Receptor>
prm/pocket_docking_7.prm

>  <SCORE>
-22.3533

>  <SCORE.INTER>
-18.5262

>  <SCORE.INTER.CONST>
1

>  <SCORE.INTER.POLAR>
-2.3103

>  <SCORE.INTER.ROT>
3

>  <SCORE.INTER.SOLV>
6.55841

>  <SCORE.INTER.VDW>
-12.4359

>  <SCORE.INTER.norm>
-0.882201

>  <SCORE.INTRA>
-3.82713

>  <SCORE.INTRA.DIHEDRAL>
0.0694746

>  <SCORE.INTRA.DIHEDRAL.0>
8.84257

>  <SCORE.INTRA.POLAR>
0

>  <SCORE.INTRA.POLAR.0>
0

>  <SCORE.INTRA.REPUL>
0

>  <SCORE.INTRA.REPUL.0>
0

>  <SCORE.INTRA.SOLV>
0.13199

>  <SCORE.INTRA.SOLV.lig_0>
-17.1313

>  <SCORE.INTRA.VDW>
-3.92786

>  <SCORE.INTRA.VDW.0>
6.34071

>  <SCORE.INTRA.norm>
-0.182244

>  <SCORE.RESTR>
0

>  <SCORE.RESTR.CAVITY>
0

>  <SCORE.RESTR.norm>
0

>  <SCORE.SYSTEM>
0

>  <SCORE.SYSTEM.CONST>
0

>  <SCORE.SYSTEM.DIHEDRAL>
0

>  <SCORE.SYSTEM.SOLV>
0

>  <SCORE.SYSTEM.norm>
0

>  <SCORE.heavy>
21

>  <SCORE.norm>
-1.06444

>  <RMSD>
7.235

$$$$
lig.pdb
 OpenBabel11021811453D
libRbt.so/2013.1/901 2013/11/27
 21 23  0  0  0  0  0  0  0  0999 V2000
  -12.6968   -2.6345    6.1757 C   0  0  0  0  0  0  0  0  0  0  0  0
  -12.3931   -3.9276    6.1705 N   0  0  0  0  0  0  0  0  0  0  0  0
  -11.4022   -4.3700    5.4174 C   0  0  0  0  0  0  0  0  0  0  0  0
  -10.7458   -3.5192    4.6028 C   0  0  0  0  0  0  0  0  0  0  0  0
  -11.0525   -2.2152    4.6135 C   0  0  0  0  0  0  0  0  0  0  0  0
  -10.4127   -1.3681    3.8081 N   0  0  0  0  0  0  0  0  0  0  0  0
  -12.0308   -1.7782    5.3998 N   0  0  0  0  0  0  0  0  0  0  0  0
  -11.0860   -5.6755    5.4355 C   0  0  0  0  0  0  0  0  0  0  0  0
  -10.1837   -6.1547    4.5253 C   0  0  0  0  0  0  0  0  0  0  0  0
  -10.4445   -7.4179    3.9425 O   0  0  0  0  0  0  0  0  0  0  0  0
   -9.4110   -5.2746    3.8677 C   0  0  0  0  0  0  0  0  0  0  0  0
   -8.1863   -5.7060    3.2913 O   0  0  0  0  0  0  0  0  0  0  0  0
   -9.7548   -3.9725    3.8224 C   0  0  0  0  0  0  0  0  0  0  0  0
  -13.6797   -2.2003    6.9456 N   0  0  0  0  0  0  0  0  0  0  0  0
  -13.4465   -2.1943    8.2616 C   0  0  0  0  0  0  0  0  0  0  0  0
  -13.6151   -3.5962    8.8276 C   0  0  0  0  0  0  0  0  0  0  0  0
  -14.9078   -4.0288    8.6159 N   0  0  0  0  0  0  0  0  0  0  0  0
  -15.1069   -4.0645    7.2530 C   0  0  0  0  0  0  0  0  0  0  0  0
  -14.9437   -2.6644    6.6852 C   0  0  0  0  0  0  0  0  0  0  0  0
   -9.6336   -8.3694    4.5829 C   0  0  0  0  0  0  0  0  0  0  0  0
   -7.1653   -5.5646    4.2441 C   0  0  0  0  0  0  0  0  0  0  0  0
  1 14  1  0  0  0  0
  1  2  2  0  0  0  0
  3  2  1  0  0  0  0
  3  8  2  0  0  0  0
  4  3  1  0  0  0  0
  5  7  2  0  0  0  0
  5  4  1  0  0  0  0
  6  5  1  0  0  0  0
  7  1  1  0  0  0  0
  9 10  1  0  0  0  0
  9  8  1  0  0  0  0
 11  9  2  0  0  0  0
 12 11  1  0  0  0  0
 13  4  2  0  0  0  0
 13 11  1  0  0  0  0
 14 15  1  0  0  0  0
 16 15  1  0  0  0  0
 17 16  1  0  0  0  0
 18 17  1  0  0  0  0
 18 19  1  0  0  0  0
 19 14  1  0  0  0  0
 20 10  1  0  0  0  0
 21 12  1  0  0  0  0
M  END
>  <CHROM.1>
71.23448085,-101.67365720,-89.51710218,-11.52404534,-4.15808370,5.54598539
-2.77214016,-0.66472466,2.99662230

>  <Name>
lig.pdb

>  <RI>
2.59814e+07

>  <Rbt.Current_Directory>
/home/itssahil/PROJECTS/Mol_Feturizer/New_Systems/rnas/2lwk

>  <Rbt.Executable>
rbdock ($Id: //depot/dev/client3/rdock/2013.1/src/exe/rbdock.cxx#4 $)

>  <Rbt.Library>
libRbt.so (2013.1, Build901 2013/11/27)

>  <Rbt.Parameter_File>
/export/apps/rDock/src/rDock_2013.1_src/data/scripts/dock_solv.prm

>  <Rbt.Receptor>
prm/pocket_docking_6.prm

>  <SCORE>
-20.6417

>  <SCORE.INTER>
-15.227

>  <SCORE.INTER.CONST>
1

>  <SCORE.INTER.POLAR>
-1.76225

>  <SCORE.INTER.ROT>
3

>  <SCORE.INTER.SOLV>
8.22192

>  <SCORE.INTER.VDW>
-12.6178

>  <SCORE.INTER.norm>
-0.725095

>  <SCORE.INTRA>
-5.41475

>  <SCORE.INTRA.DIHEDRAL>
1.01144

>  <SCORE.INTRA.DIHEDRAL.0>
8.84257

>  <SCORE.INTRA.POLAR>
0

>  <SCORE.INTRA.POLAR.0>
0

>  <SCORE.INTRA.REPUL>
0

>  <SCORE.INTRA.REPUL.0>
0

>  <SCORE.INTRA.SOLV>
0.0971661

>  <SCORE.INTRA.SOLV.lig_0>
-17.1313

>  <SCORE.INTRA.VDW>
-5.96905

>  <SCORE.INTRA.VDW.0>
6.34071

>  <SCORE.INTRA.norm>
-0.257845

>  <SCORE.RESTR>
0

>  <SCORE.RESTR.CAVITY>
0

>  <SCORE.RESTR.norm>
0

>  <SCORE.SYSTEM>
0

>  <SCORE.SYSTEM.CONST>
0

>  <SCORE.SYSTEM.DIHEDRAL>
0

>  <SCORE.SYSTEM.SOLV>
0

>  <SCORE.SYSTEM.norm>
0

>  <SCORE.heavy>
21

>  <SCORE.norm>
-0.98294

>  <RMSD>
7.242

$$$$
lig.pdb
 OpenBabel11021811453D
libRbt.so/2013.1/901 2013/11/27
 21 23  0  0  0  0  0  0  0  0999 V2000
   -7.2156    1.4321    4.2029 C   0  0  0  0  0  0  0  0  0  0  0  0
   -7.2559    2.1689    3.0984 N   0  0  0  0  0  0  0  0  0  0  0  0
   -6.7565    3.3917    3.1019 C   0  0  0  0  0  0  0  0  0  0  0  0
   -6.2692    3.9152    4.2450 C   0  0  0  0  0  0  0  0  0  0  0  0
   -6.2269    3.1678    5.3561 C   0  0  0  0  0  0  0  0  0  0  0  0
   -5.7519    3.6787    6.4914 N   0  0  0  0  0  0  0  0  0  0  0  0
   -6.7039    1.9276    5.3304 N   0  0  0  0  0  0  0  0  0  0  0  0
   -6.7799    4.1219    1.9745 C   0  0  0  0  0  0  0  0  0  0  0  0
   -6.4275    5.4429    2.0294 C   0  0  0  0  0  0  0  0  0  0  0  0
   -7.1825    6.3580    1.2576 O   0  0  0  0  0  0  0  0  0  0  0  0
   -5.7702    5.8841    3.1146 C   0  0  0  0  0  0  0  0  0  0  0  0
   -4.9926    7.0702    3.0328 O   0  0  0  0  0  0  0  0  0  0  0  0
   -5.7825    5.1641    4.2534 C   0  0  0  0  0  0  0  0  0  0  0  0
   -7.7035    0.2038    4.1836 N   0  0  0  0  0  0  0  0  0  0  0  0
   -8.7957   -0.0143    4.9224 C   0  0  0  0  0  0  0  0  0  0  0  0
   -8.4111   -0.1843    6.3843 C   0  0  0  0  0  0  0  0  0  0  0  0
   -7.5699   -1.2694    6.5188 N   0  0  0  0  0  0  0  0  0  0  0  0
   -6.4374   -1.0001    5.7817 C   0  0  0  0  0  0  0  0  0  0  0  0
   -6.8178   -0.8344    4.3199 C   0  0  0  0  0  0  0  0  0  0  0  0
   -6.7043    6.3136   -0.0625 C   0  0  0  0  0  0  0  0  0  0  0  0
   -3.9675    6.8731    2.0944 C   0  0  0  0  0  0  0  0  0  0  0  0
  1 14  1  0  0  0  0
  1  2  2  0  0  0  0
  3  2  1  0  0  0  0
  3  8  2  0  0  0  0
  4  3  1  0  0  0  0
  5  7  2  0  0  0  0
  5  4  1  0  0  0  0
  6  5  1  0  0  0  0
  7  1  1  0  0  0  0
  9 10  1  0  0  0  0
  9  8  1  0  0  0  0
 11  9  2  0  0  0  0
 12 11  1  0  0  0  0
 13  4  2  0  0  0  0
 13 11  1  0  0  0  0
 14 15  1  0  0  0  0
 16 15  1  0  0  0  0
 17 16  1  0  0  0  0
 18 17  1  0  0  0  0
 18 19  1  0  0  0  0
 19 14  1  0  0  0  0
 20 10  1  0  0  0  0
 21 12  1  0  0  0  0
M  END
>  <CHROM.1>
-113.13660348,-81.46344619,-61.86475333,-6.63508426,3.05560649,3.88738511
1.98465721,0.98799311,2.29566167

>  <Name>
lig.pdb

>  <RI>
2.98315e+07

>  <Rbt.Current_Directory>
/home/itssahil/PROJECTS/Mol_Feturizer/New_Systems/rnas/2lwk

>  <Rbt.Executable>
rbdock ($Id: //depot/dev/client3/rdock/2013.1/src/exe/rbdock.cxx#4 $)

>  <Rbt.Library>
libRbt.so (2013.1, Build901 2013/11/27)

>  <Rbt.Parameter_File>
/export/apps/rDock/src/rDock_2013.1_src/data/scripts/dock_solv.prm

>  <Rbt.Receptor>
prm/pocket_docking_5.prm

>  <SCORE>
-22.3409

>  <SCORE.INTER>
-17.3855

>  <SCORE.INTER.CONST>
1

>  <SCORE.INTER.POLAR>
-2.3877

>  <SCORE.INTER.ROT>
3

>  <SCORE.INTER.SOLV>
6.8877

>  <SCORE.INTER.VDW>
-11.5272

>  <SCORE.INTER.norm>
-0.82788

>  <SCORE.INTRA>
-4.95569

>  <SCORE.INTRA.DIHEDRAL>
-0.463469

>  <SCORE.INTRA.DIHEDRAL.0>
8.84257

>  <SCORE.INTRA.POLAR>
0

>  <SCORE.INTRA.POLAR.0>
0

>  <SCORE.INTRA.REPUL>
0

>  <SCORE.INTRA.REPUL.0>
0

>  <SCORE.INTRA.SOLV>
0.0885017

>  <SCORE.INTRA.SOLV.lig_0>
-17.1313

>  <SCORE.INTRA.VDW>
-4.7682

>  <SCORE.INTRA.VDW.0>
6.34071

>  <SCORE.INTRA.norm>
-0.235985

>  <SCORE.RESTR>
0.000257744

>  <SCORE.RESTR.CAVITY>
0.000257744

>  <SCORE.RESTR.norm>
1.22735e-05

>  <SCORE.SYSTEM>
0

>  <SCORE.SYSTEM.CONST>
0

>  <SCORE.SYSTEM.DIHEDRAL>
0

>  <SCORE.SYSTEM.SOLV>
0

>  <SCORE.SYSTEM.norm>
0

>  <SCORE.heavy>
21

>  <SCORE.norm>
-1.06385

>  <RMSD>
7.341

$$$$
lig.pdb
 OpenBabel11021811453D
libRbt.so/2013.1/901 2013/11/27
 21 23  0  0  0  0  0  0  0  0999 V2000
   -5.0154    7.3571    2.3198 C   0  0  0  0  0  0  0  0  0  0  0  0
   -4.9277    6.6395    3.4341 N   0  0  0  0  0  0  0  0  0  0  0  0
   -5.5556    5.4808    3.5244 C   0  0  0  0  0  0  0  0  0  0  0  0
   -6.3405    5.0613    2.5115 C   0  0  0  0  0  0  0  0  0  0  0  0
   -6.4236    5.7860    1.3878 C   0  0  0  0  0  0  0  0  0  0  0  0
   -7.2009    5.3816    0.3839 N   0  0  0  0  0  0  0  0  0  0  0  0
   -5.7612    6.9346    1.2980 N   0  0  0  0  0  0  0  0  0  0  0  0
   -5.4429    4.7500    4.6460 C   0  0  0  0  0  0  0  0  0  0  0  0
   -6.2340    3.6447    4.8027 C   0  0  0  0  0  0  0  0  0  0  0  0
   -6.7782    3.4016    6.0864 O   0  0  0  0  0  0  0  0  0  0  0  0
   -6.8527    3.1434    3.7209 C   0  0  0  0  0  0  0  0  0  0  0  0
   -7.2821    1.7892    3.7198 O   0  0  0  0  0  0  0  0  0  0  0  0
   -6.9950    3.8959    2.6123 C   0  0  0  0  0  0  0  0  0  0  0  0
   -4.3696    8.5072    2.2343 N   0  0  0  0  0  0  0  0  0  0  0  0
   -5.1067    9.5832    1.9421 C   0  0  0  0  0  0  0  0  0  0  0  0
   -5.3952    9.6280    0.4492 C   0  0  0  0  0  0  0  0  0  0  0  0
   -4.2086    9.7095   -0.2496 N   0  0  0  0  0  0  0  0  0  0  0  0
   -3.4882    8.5708    0.0376 C   0  0  0  0  0  0  0  0  0  0  0  0
   -3.1943    8.5255    1.5279 C   0  0  0  0  0  0  0  0  0  0  0  0
   -5.8024    2.7482    6.8572 C   0  0  0  0  0  0  0  0  0  0  0  0
   -6.1513    0.9580    3.6930 C   0  0  0  0  0  0  0  0  0  0  0  0
  1 14  1  0  0  0  0
  1  2  2  0  0  0  0
  3  2  1  0  0  0  0
  3  8  2  0  0  0  0
  4  3  1  0  0  0  0
  5  7  2  0  0  0  0
  5  4  1  0  0  0  0
  6  5  1  0  0  0  0
  7  1  1  0  0  0  0
  9 10  1  0  0  0  0
  9  8  1  0  0  0  0
 11  9  2  0  0  0  0
 12 11  1  0  0  0  0
 13  4  2  0  0  0  0
 13 11  1  0  0  0  0
 14 15  1  0  0  0  0
 16 15  1  0  0  0  0
 17 16  1  0  0  0  0
 18 17  1  0  0  0  0
 18 19  1  0  0  0  0
 19 14  1  0  0  0  0
 20 10  1  0  0  0  0
 21 12  1  0  0  0  0
M  END
>  <CHROM.1>
-123.97852093,-82.66605995,-69.07931326,-5.64978537,5.76665971,2.71000123
-1.04145646,1.02040227,2.12512037

>  <Name>
lig.pdb

>  <RI>
2.75338e+07

>  <Rbt.Current_Directory>
/home/itssahil/PROJECTS/Mol_Feturizer/New_Systems/rnas/2lwk

>  <Rbt.Executable>
rbdock ($Id: //depot/dev/client3/rdock/2013.1/src/exe/rbdock.cxx#4 $)

>  <Rbt.Library>
libRbt.so (2013.1, Build901 2013/11/27)

>  <Rbt.Parameter_File>
/export/apps/rDock/src/rDock_2013.1_src/data/scripts/dock_solv.prm

>  <Rbt.Receptor>
prm/pocket_docking_8.prm

>  <SCORE>
-28.1086

>  <SCORE.INTER>
-23.0845

>  <SCORE.INTER.CONST>
1

>  <SCORE.INTER.POLAR>
-3.22453

>  <SCORE.INTER.ROT>
3

>  <SCORE.INTER.SOLV>
6.58254

>  <SCORE.INTER.VDW>
-12.4354

>  <SCORE.INTER.norm>
-1.09926

>  <SCORE.INTRA>
-5.02411

>  <SCORE.INTRA.DIHEDRAL>
0.0166861

>  <SCORE.INTRA.DIHEDRAL.0>
8.84257

>  <SCORE.INTRA.POLAR>
0

>  <SCORE.INTRA.POLAR.0>
0

>  <SCORE.INTRA.REPUL>
0

>  <SCORE.INTRA.REPUL.0>
0

>  <SCORE.INTRA.SOLV>
0.0846074

>  <SCORE.INTRA.SOLV.lig_0>
-17.1313

>  <SCORE.INTRA.VDW>
-5.07475

>  <SCORE.INTRA.VDW.0>
6.34071

>  <SCORE.INTRA.norm>
-0.239243

>  <SCORE.RESTR>
0

>  <SCORE.RESTR.CAVITY>
0

>  <SCORE.RESTR.norm>
0

>  <SCORE.SYSTEM>
0

>  <SCORE.SYSTEM.CONST>
0

>  <SCORE.SYSTEM.DIHEDRAL>
0

>  <SCORE.SYSTEM.SOLV>
0

>  <SCORE.SYSTEM.norm>
0

>  <SCORE.heavy>
21

>  <SCORE.norm>
-1.3385

>  <RMSD>
7.341

$$$$
lig.pdb
 OpenBabel11021811453D
libRbt.so/2013.1/901 2013/11/27
 21 23  0  0  0  0  0  0  0  0999 V2000
  -12.7801   -3.0278    5.9065 C   0  0  0  0  0  0  0  0  0  0  0  0
  -11.7334   -3.5724    6.5165 N   0  0  0  0  0  0  0  0  0  0  0  0
  -11.0940   -4.5827    5.9551 C   0  0  0  0  0  0  0  0  0  0  0  0
  -11.5470   -5.1044    4.7972 C   0  0  0  0  0  0  0  0  0  0  0  0
  -12.6008   -4.5501    4.1830 C   0  0  0  0  0  0  0  0  0  0  0  0
  -13.0585   -5.0623    3.0411 N   0  0  0  0  0  0  0  0  0  0  0  0
  -13.2156   -3.5136    4.7433 N   0  0  0  0  0  0  0  0  0  0  0  0
  -10.0220   -5.1127    6.5672 C   0  0  0  0  0  0  0  0  0  0  0  0
   -9.4763   -6.2663    6.0736 C   0  0  0  0  0  0  0  0  0  0  0  0
   -9.0364   -7.2372    7.0049 O   0  0  0  0  0  0  0  0  0  0  0  0
   -9.8130   -6.6520    4.8318 C   0  0  0  0  0  0  0  0  0  0  0  0
   -8.9618   -7.5338    4.1134 O   0  0  0  0  0  0  0  0  0  0  0  0
  -10.9109   -6.1437    4.2388 C   0  0  0  0  0  0  0  0  0  0  0  0
  -13.4024   -2.0066    6.4696 N   0  0  0  0  0  0  0  0  0  0  0  0
  -12.8091   -1.4634    7.5369 C   0  0  0  0  0  0  0  0  0  0  0  0
  -13.0754   -2.3128    8.7704 C   0  0  0  0  0  0  0  0  0  0  0  0
  -14.4329   -2.3708    9.0087 N   0  0  0  0  0  0  0  0  0  0  0  0
  -15.0131   -2.9710    7.9125 C   0  0  0  0  0  0  0  0  0  0  0  0
  -14.7528   -2.1222    6.6793 C   0  0  0  0  0  0  0  0  0  0  0  0
   -7.6329   -7.1969    7.0468 C   0  0  0  0  0  0  0  0  0  0  0  0
   -9.4447   -8.8438    4.2583 C   0  0  0  0  0  0  0  0  0  0  0  0
  1 14  1  0  0  0  0
  1  2  2  0  0  0  0
  3  2  1  0  0  0  0
  3  8  2  0  0  0  0
  4  3  1  0  0  0  0
  5  7  2  0  0  0  0
  5  4  1  0  0  0  0
  6  5  1  0  0  0  0
  7  1  1  0  0  0  0
  9 10  1  0  0  0  0
  9  8  1  0  0  0  0
 11  9  2  0  0  0  0
 12 11  1  0  0  0  0
 13  4  2  0  0  0  0
 13 11  1  0  0  0  0
 14 15  1  0  0  0  0
 16 15  1  0  0  0  0
 17 16  1  0  0  0  0
 18 17  1  0  0  0  0
 18 19  1  0  0  0  0
 19 14  1  0  0  0  0
 20 10  1  0  0  0  0
 21 12  1  0  0  0  0
M  END
>  <CHROM.1>
9.40088033,-105.10268710,96.96076030,-11.64813673,-4.68177406,5.99687628
2.54735013,-0.66218304,1.15072008

>  <Name>
lig.pdb

>  <RI>
2.59814e+07

>  <Rbt.Current_Directory>
/home/itssahil/PROJECTS/Mol_Feturizer/New_Systems/rnas/2lwk

>  <Rbt.Executable>
rbdock ($Id: //depot/dev/client3/rdock/2013.1/src/exe/rbdock.cxx#4 $)

>  <Rbt.Library>
libRbt.so (2013.1, Build901 2013/11/27)

>  <Rbt.Parameter_File>
/export/apps/rDock/src/rDock_2013.1_src/data/scripts/dock_solv.prm

>  <Rbt.Receptor>
prm/pocket_docking_6.prm

>  <SCORE>
-23.9499

>  <SCORE.INTER>
-20.382

>  <SCORE.INTER.CONST>
1

>  <SCORE.INTER.POLAR>
-3.59002

>  <SCORE.INTER.ROT>
3

>  <SCORE.INTER.SOLV>
10.8194

>  <SCORE.INTER.VDW>
-10.8278

>  <SCORE.INTER.norm>
-0.970572

>  <SCORE.INTRA>
-3.56793

>  <SCORE.INTRA.DIHEDRAL>
0.970445

>  <SCORE.INTRA.DIHEDRAL.0>
8.84257

>  <SCORE.INTRA.POLAR>
0

>  <SCORE.INTRA.POLAR.0>
0

>  <SCORE.INTRA.REPUL>
0

>  <SCORE.INTRA.REPUL.0>
0

>  <SCORE.INTRA.SOLV>
0.0769878

>  <SCORE.INTRA.SOLV.lig_0>
-17.1313

>  <SCORE.INTRA.VDW>
-4.09165

>  <SCORE.INTRA.VDW.0>
6.34071

>  <SCORE.INTRA.norm>
-0.169901

>  <SCORE.RESTR>
0

>  <SCORE.RESTR.CAVITY>
0

>  <SCORE.RESTR.norm>
0

>  <SCORE.SYSTEM>
0

>  <SCORE.SYSTEM.CONST>
0

>  <SCORE.SYSTEM.DIHEDRAL>
0

>  <SCORE.SYSTEM.SOLV>
0

>  <SCORE.SYSTEM.norm>
0

>  <SCORE.heavy>
21

>  <SCORE.norm>
-1.14047

>  <RMSD>
7.359

$$$$
lig.pdb
 OpenBabel11021811453D
libRbt.so/2013.1/901 2013/11/27
 21 23  0  0  0  0  0  0  0  0999 V2000
   -5.2552    5.5381    3.6071 C   0  0  0  0  0  0  0  0  0  0  0  0
   -5.9148    4.8415    4.5257 N   0  0  0  0  0  0  0  0  0  0  0  0
   -5.2511    4.2014    5.4715 C   0  0  0  0  0  0  0  0  0  0  0  0
   -3.9027    4.1991    5.4621 C   0  0  0  0  0  0  0  0  0  0  0  0
   -3.2409    4.9058    4.5361 C   0  0  0  0  0  0  0  0  0  0  0  0
   -1.9086    4.9052    4.5162 N   0  0  0  0  0  0  0  0  0  0  0  0
   -3.9219    5.5714    3.6090 N   0  0  0  0  0  0  0  0  0  0  0  0
   -5.9264    3.5183    6.4107 C   0  0  0  0  0  0  0  0  0  0  0  0
   -5.2349    2.7150    7.2760 C   0  0  0  0  0  0  0  0  0  0  0  0
   -5.8065    1.4647    7.6126 O   0  0  0  0  0  0  0  0  0  0  0  0
   -3.9052    2.8774    7.3743 C   0  0  0  0  0  0  0  0  0  0  0  0
   -3.2257    2.4313    8.5394 O   0  0  0  0  0  0  0  0  0  0  0  0
   -3.2293    3.5313    6.4094 C   0  0  0  0  0  0  0  0  0  0  0  0
   -5.9302    6.1882    2.6749 N   0  0  0  0  0  0  0  0  0  0  0  0
   -6.0399    5.5830    1.4884 C   0  0  0  0  0  0  0  0  0  0  0  0
   -4.7567    5.7614    0.6912 C   0  0  0  0  0  0  0  0  0  0  0  0
   -4.5280    7.1047    0.4759 N   0  0  0  0  0  0  0  0  0  0  0  0
   -4.3784    7.6951    1.7117 C   0  0  0  0  0  0  0  0  0  0  0  0
   -5.6606    7.5226    2.5089 C   0  0  0  0  0  0  0  0  0  0  0  0
   -6.6414    1.6525    8.7265 C   0  0  0  0  0  0  0  0  0  0  0  0
   -3.0740    3.5170    9.4161 C   0  0  0  0  0  0  0  0  0  0  0  0
  1 14  1  0  0  0  0
  1  2  2  0  0  0  0
  3  2  1  0  0  0  0
  3  8  2  0  0  0  0
  4  3  1  0  0  0  0
  5  7  2  0  0  0  0
  5  4  1  0  0  0  0
  6  5  1  0  0  0  0
  7  1  1  0  0  0  0
  9 10  1  0  0  0  0
  9  8  1  0  0  0  0
 11  9  2  0  0  0  0
 12 11  1  0  0  0  0
 13  4  2  0  0  0  0
 13 11  1  0  0  0  0
 14 15  1  0  0  0  0
 16 15  1  0  0  0  0
 17 16  1  0  0  0  0
 18 17  1  0  0  0  0
 18 19  1  0  0  0  0
 19 14  1  0  0  0  0
 20 10  1  0  0  0  0
 21 12  1  0  0  0  0
M  END
>  <CHROM.1>
-98.60801156,-88.52099139,-96.08148730,-4.64082257,4.54907159,4.91870946
1.61924397,-0.23266549,-0.99388134

>  <Name>
lig.pdb

>  <RI>
2.75338e+07

>  <Rbt.Current_Directory>
/home/itssahil/PROJECTS/Mol_Feturizer/New_Systems/rnas/2lwk

>  <Rbt.Executable>
rbdock ($Id: //depot/dev/client3/rdock/2013.1/src/exe/rbdock.cxx#4 $)

>  <Rbt.Library>
libRbt.so (2013.1, Build901 2013/11/27)

>  <Rbt.Parameter_File>
/export/apps/rDock/src/rDock_2013.1_src/data/scripts/dock_solv.prm

>  <Rbt.Receptor>
prm/pocket_docking_8.prm

>  <SCORE>
-17.3194

>  <SCORE.INTER>
-12.0855

>  <SCORE.INTER.CONST>
1

>  <SCORE.INTER.POLAR>
-0.871902

>  <SCORE.INTER.ROT>
3

>  <SCORE.INTER.SOLV>
6.7678

>  <SCORE.INTER.VDW>
-13.0066

>  <SCORE.INTER.norm>
-0.575499

>  <SCORE.INTRA>
-5.23394

>  <SCORE.INTRA.DIHEDRAL>
0.684719

>  <SCORE.INTRA.DIHEDRAL.0>
8.84257

>  <SCORE.INTRA.POLAR>
0

>  <SCORE.INTRA.POLAR.0>
0

>  <SCORE.INTRA.REPUL>
0

>  <SCORE.INTRA.REPUL.0>
0

>  <SCORE.INTRA.SOLV>
0.067643

>  <SCORE.INTRA.SOLV.lig_0>
-17.1313

>  <SCORE.INTRA.VDW>
-5.61012

>  <SCORE.INTRA.VDW.0>
6.34071

>  <SCORE.INTRA.norm>
-0.249235

>  <SCORE.RESTR>
0

>  <SCORE.RESTR.CAVITY>
0

>  <SCORE.RESTR.norm>
0

>  <SCORE.SYSTEM>
0

>  <SCORE.SYSTEM.CONST>
0

>  <SCORE.SYSTEM.DIHEDRAL>
0

>  <SCORE.SYSTEM.SOLV>
0

>  <SCORE.SYSTEM.norm>
0

>  <SCORE.heavy>
21

>  <SCORE.norm>
-0.824734

>  <RMSD>
7.388

$$$$
lig.pdb
 OpenBabel11021811453D
libRbt.so/2013.1/901 2013/11/27
 21 23  0  0  0  0  0  0  0  0999 V2000
   -7.1862    1.3855    4.2408 C   0  0  0  0  0  0  0  0  0  0  0  0
   -7.1055    2.1494    3.1572 N   0  0  0  0  0  0  0  0  0  0  0  0
   -6.5338    3.3380    3.2285 C   0  0  0  0  0  0  0  0  0  0  0  0
   -6.0951    3.8025    4.4159 C   0  0  0  0  0  0  0  0  0  0  0  0
   -6.1749    3.0277    5.5059 C   0  0  0  0  0  0  0  0  0  0  0  0
   -5.7487    3.4805    6.6844 N   0  0  0  0  0  0  0  0  0  0  0  0
   -6.7239    1.8209    5.4136 N   0  0  0  0  0  0  0  0  0  0  0  0
   -6.4351    4.0949    2.1229 C   0  0  0  0  0  0  0  0  0  0  0  0
   -6.0072    5.3895    2.2384 C   0  0  0  0  0  0  0  0  0  0  0  0
   -6.6501    6.3683    1.4436 O   0  0  0  0  0  0  0  0  0  0  0  0
   -5.4003    5.7625    3.3771 C   0  0  0  0  0  0  0  0  0  0  0  0
   -4.5479    6.8990    3.3809 O   0  0  0  0  0  0  0  0  0  0  0  0
   -5.5347    5.0178    4.4920 C   0  0  0  0  0  0  0  0  0  0  0  0
   -7.7458    0.1911    4.1543 N   0  0  0  0  0  0  0  0  0  0  0  0
   -8.9195    0.0375    4.7749 C   0  0  0  0  0  0  0  0  0  0  0  0
   -8.6982   -0.1681    6.2658 C   0  0  0  0  0  0  0  0  0  0  0  0
   -7.9451   -1.3058    6.4698 N   0  0  0  0  0  0  0  0  0  0  0  0
   -6.7283   -1.1037    5.8558 C   0  0  0  0  0  0  0  0  0  0  0  0
   -6.9457   -0.9026    4.3653 C   0  0  0  0  0  0  0  0  0  0  0  0
   -5.8735    6.5732    0.2912 C   0  0  0  0  0  0  0  0  0  0  0  0
   -3.2500    6.4900    3.0366 C   0  0  0  0  0  0  0  0  0  0  0  0
  1 14  1  0  0  0  0
  1  2  2  0  0  0  0
  3  2  1  0  0  0  0
  3  8  2  0  0  0  0
  4  3  1  0  0  0  0
  5  7  2  0  0  0  0
  5  4  1  0  0  0  0
  6  5  1  0  0  0  0
  7  1  1  0  0  0  0
  9 10  1  0  0  0  0
  9  8  1  0  0  0  0
 11  9  2  0  0  0  0
 12 11  1  0  0  0  0
 13  4  2  0  0  0  0
 13 11  1  0  0  0  0
 14 15  1  0  0  0  0
 16 15  1  0  0  0  0
 17 16  1  0  0  0  0
 18 17  1  0  0  0  0
 18 19  1  0  0  0  0
 19 14  1  0  0  0  0
 20 10  1  0  0  0  0
 21 12  1  0  0  0  0
M  END
>  <CHROM.1>
-110.98581820,-96.63977271,-87.89903743,-6.47683865,2.98589128,4.04781830
2.14545945,0.94538320,2.21113353

>  <Name>
lig.pdb

>  <RI>
2.75338e+07

>  <Rbt.Current_Directory>
/home/itssahil/PROJECTS/Mol_Feturizer/New_Systems/rnas/2lwk

>  <Rbt.Executable>
rbdock ($Id: //depot/dev/client3/rdock/2013.1/src/exe/rbdock.cxx#4 $)

>  <Rbt.Library>
libRbt.so (2013.1, Build901 2013/11/27)

>  <Rbt.Parameter_File>
/export/apps/rDock/src/rDock_2013.1_src/data/scripts/dock_solv.prm

>  <Rbt.Receptor>
prm/pocket_docking_8.prm

>  <SCORE>
-24.3975

>  <SCORE.INTER>
-18.9254

>  <SCORE.INTER.CONST>
1

>  <SCORE.INTER.POLAR>
-2.69332

>  <SCORE.INTER.ROT>
3

>  <SCORE.INTER.SOLV>
6.61437

>  <SCORE.INTER.VDW>
-11.444

>  <SCORE.INTER.norm>
-0.901209

>  <SCORE.INTRA>
-5.47212

>  <SCORE.INTRA.DIHEDRAL>
0.97635

>  <SCORE.INTRA.DIHEDRAL.0>
8.84257

>  <SCORE.INTRA.POLAR>
0

>  <SCORE.INTRA.POLAR.0>
0

>  <SCORE.INTRA.REPUL>
0

>  <SCORE.INTRA.REPUL.0>
0

>  <SCORE.INTRA.SOLV>
0.0835981

>  <SCORE.INTRA.SOLV.lig_0>
-17.1313

>  <SCORE.INTRA.VDW>
-6.00209

>  <SCORE.INTRA.VDW.0>
6.34071

>  <SCORE.INTRA.norm>
-0.260577

>  <SCORE.RESTR>
0

>  <SCORE.RESTR.CAVITY>
0

>  <SCORE.RESTR.norm>
0

>  <SCORE.SYSTEM>
0

>  <SCORE.SYSTEM.CONST>
0

>  <SCORE.SYSTEM.DIHEDRAL>
0

>  <SCORE.SYSTEM.SOLV>
0

>  <SCORE.SYSTEM.norm>
0

>  <SCORE.heavy>
21

>  <SCORE.norm>
-1.16179

>  <RMSD>
7.414

$$$$
lig.pdb
 OpenBabel11021811453D
libRbt.so/2013.1/901 2013/11/27
 21 23  0  0  0  0  0  0  0  0999 V2000
   -7.1812    1.3922    4.2333 C   0  0  0  0  0  0  0  0  0  0  0  0
   -7.0993    2.1565    3.1501 N   0  0  0  0  0  0  0  0  0  0  0  0
   -6.5282    3.3454    3.2225 C   0  0  0  0  0  0  0  0  0  0  0  0
   -6.0914    3.8097    4.4107 C   0  0  0  0  0  0  0  0  0  0  0  0
   -6.1724    3.0345    5.5004 C   0  0  0  0  0  0  0  0  0  0  0  0
   -5.7480    3.4871    6.6796 N   0  0  0  0  0  0  0  0  0  0  0  0
   -6.7207    1.8274    5.4069 N   0  0  0  0  0  0  0  0  0  0  0  0
   -6.4283    4.1026    2.1174 C   0  0  0  0  0  0  0  0  0  0  0  0
   -6.0012    5.3973    2.2338 C   0  0  0  0  0  0  0  0  0  0  0  0
   -6.6434    6.3762    1.4385 O   0  0  0  0  0  0  0  0  0  0  0  0
   -5.3960    5.7703    3.3735 C   0  0  0  0  0  0  0  0  0  0  0  0
   -4.5442    6.9072    3.3789 O   0  0  0  0  0  0  0  0  0  0  0  0
   -5.5317    5.0252    4.4880 C   0  0  0  0  0  0  0  0  0  0  0  0
   -7.7400    0.1975    4.1457 N   0  0  0  0  0  0  0  0  0  0  0  0
   -8.9148    0.0434    4.7641 C   0  0  0  0  0  0  0  0  0  0  0  0
   -8.6963   -0.1623    6.2554 C   0  0  0  0  0  0  0  0  0  0  0  0
   -7.9430   -1.2996    6.4607 N   0  0  0  0  0  0  0  0  0  0  0  0
   -6.7252   -1.0969    5.8490 C   0  0  0  0  0  0  0  0  0  0  0  0
   -6.9398   -0.8958    4.3581 C   0  0  0  0  0  0  0  0  0  0  0  0
   -5.8180    6.6525    0.3360 C   0  0  0  0  0  0  0  0  0  0  0  0
   -3.2623    6.5117    2.9659 C   0  0  0  0  0  0  0  0  0  0  0  0
  1 14  1  0  0  0  0
  1  2  2  0  0  0  0
  3  2  1  0  0  0  0
  3  8  2  0  0  0  0
  4  3  1  0  0  0  0
  5  7  2  0  0  0  0
  5  4  1  0  0  0  0
  6  5  1  0  0  0  0
  7  1  1  0  0  0  0
  9 10  1  0  0  0  0
  9  8  1  0  0  0  0
 11  9  2  0  0  0  0
 12 11  1  0  0  0  0
 13  4  2  0  0  0  0
 13 11  1  0  0  0  0
 14 15  1  0  0  0  0
 16 15  1  0  0  0  0
 17 16  1  0  0  0  0
 18 17  1  0  0  0  0
 18 19  1  0  0  0  0
 19 14  1  0  0  0  0
 20 10  1  0  0  0  0
 21 12  1  0  0  0  0
M  END
>  <CHROM.1>
-110.95579781,-100.84734220,-84.73319526,-6.47081041,2.99741210,4.04079077
2.14884312,0.94815829,2.20816962

>  <Name>
lig.pdb

>  <RI>
2.59814e+07

>  <Rbt.Current_Directory>
/home/itssahil/PROJECTS/Mol_Feturizer/New_Systems/rnas/2lwk

>  <Rbt.Executable>
rbdock ($Id: //depot/dev/client3/rdock/2013.1/src/exe/rbdock.cxx#4 $)

>  <Rbt.Library>
libRbt.so (2013.1, Build901 2013/11/27)

>  <Rbt.Parameter_File>
/export/apps/rDock/src/rDock_2013.1_src/data/scripts/dock_solv.prm

>  <Rbt.Receptor>
prm/pocket_docking_6.prm

>  <SCORE>
-24.4219

>  <SCORE.INTER>
-18.9411

>  <SCORE.INTER.CONST>
1

>  <SCORE.INTER.POLAR>
-2.70509

>  <SCORE.INTER.ROT>
3

>  <SCORE.INTER.SOLV>
6.59825

>  <SCORE.INTER.VDW>
-11.4099

>  <SCORE.INTER.norm>
-0.901958

>  <SCORE.INTRA>
-5.48082

>  <SCORE.INTRA.DIHEDRAL>
0.999283

>  <SCORE.INTRA.DIHEDRAL.0>
8.84257

>  <SCORE.INTRA.POLAR>
0

>  <SCORE.INTRA.POLAR.0>
0

>  <SCORE.INTRA.REPUL>
0

>  <SCORE.INTRA.REPUL.0>
0

>  <SCORE.INTRA.SOLV>
0.0896983

>  <SCORE.INTRA.SOLV.lig_0>
-17.1313

>  <SCORE.INTRA.VDW>
-6.02531

>  <SCORE.INTRA.VDW.0>
6.34071

>  <SCORE.INTRA.norm>
-0.260992

>  <SCORE.RESTR>
0

>  <SCORE.RESTR.CAVITY>
0

>  <SCORE.RESTR.norm>
0

>  <SCORE.SYSTEM>
0

>  <SCORE.SYSTEM.CONST>
0

>  <SCORE.SYSTEM.DIHEDRAL>
0

>  <SCORE.SYSTEM.SOLV>
0

>  <SCORE.SYSTEM.norm>
0

>  <SCORE.heavy>
21

>  <SCORE.norm>
-1.16295

>  <RMSD>
7.423

$$$$
lig.pdb
 OpenBabel11021811453D
libRbt.so/2013.1/901 2013/11/27
 21 23  0  0  0  0  0  0  0  0999 V2000
   -6.5933    1.1714    5.9233 C   0  0  0  0  0  0  0  0  0  0  0  0
   -5.6858    2.0692    6.2901 N   0  0  0  0  0  0  0  0  0  0  0  0
   -5.5065    3.1601    5.5673 C   0  0  0  0  0  0  0  0  0  0  0  0
   -6.1961    3.3273    4.4207 C   0  0  0  0  0  0  0  0  0  0  0  0
   -7.1132    2.4214    4.0558 C   0  0  0  0  0  0  0  0  0  0  0  0
   -7.7957    2.5758    2.9218 N   0  0  0  0  0  0  0  0  0  0  0  0
   -7.3061    1.3437    4.8093 N   0  0  0  0  0  0  0  0  0  0  0  0
   -4.6032    4.0746    5.9578 C   0  0  0  0  0  0  0  0  0  0  0  0
   -4.2956    5.1084    5.1158 C   0  0  0  0  0  0  0  0  0  0  0  0
   -2.9403    5.5073    5.0313 O   0  0  0  0  0  0  0  0  0  0  0  0
   -5.1203    5.3605    4.0860 C   0  0  0  0  0  0  0  0  0  0  0  0
   -5.1223    6.6474    3.4843 O   0  0  0  0  0  0  0  0  0  0  0  0
   -5.9981    4.4240    3.6760 C   0  0  0  0  0  0  0  0  0  0  0  0
   -6.7758    0.0913    6.6631 N   0  0  0  0  0  0  0  0  0  0  0  0
   -7.4563    0.2576    7.8013 C   0  0  0  0  0  0  0  0  0  0  0  0
   -6.5477    0.8436    8.8714 C   0  0  0  0  0  0  0  0  0  0  0  0
   -5.4992   -0.0199    9.1125 N   0  0  0  0  0  0  0  0  0  0  0  0
   -4.7927   -0.1406    7.9358 C   0  0  0  0  0  0  0  0  0  0  0  0
   -5.6965   -0.7302    6.8659 C   0  0  0  0  0  0  0  0  0  0  0  0
   -2.2536    4.5575    4.2572 C   0  0  0  0  0  0  0  0  0  0  0  0
   -4.3926    6.5861    2.2868 C   0  0  0  0  0  0  0  0  0  0  0  0
  1 14  1  0  0  0  0
  1  2  2  0  0  0  0
  3  2  1  0  0  0  0
  3  8  2  0  0  0  0
  4  3  1  0  0  0  0
  5  7  2  0  0  0  0
  5  4  1  0  0  0  0
  6  5  1  0  0  0  0
  7  1  1  0  0  0  0
  9 10  1  0  0  0  0
  9  8  1  0  0  0  0
 11  9  2  0  0  0  0
 12 11  1  0  0  0  0
 13  4  2  0  0  0  0
 13 11  1  0  0  0  0
 14 15  1  0  0  0  0
 16 15  1  0  0  0  0
 17 16  1  0  0  0  0
 18 17  1  0  0  0  0
 18 19  1  0  0  0  0
 19 14  1  0  0  0  0
 20 10  1  0  0  0  0
 21 12  1  0  0  0  0
M  END
>  <CHROM.1>
75.85007727,75.81330907,101.76055895,-5.57776000,2.80651652,5.47460006,1.88435411
0.58013774,2.33690520

>  <Name>
lig.pdb

>  <RI>
2.98315e+07

>  <Rbt.Current_Directory>
/home/itssahil/PROJECTS/Mol_Feturizer/New_Systems/rnas/2lwk

>  <Rbt.Executable>
rbdock ($Id: //depot/dev/client3/rdock/2013.1/src/exe/rbdock.cxx#4 $)

>  <Rbt.Library>
libRbt.so (2013.1, Build901 2013/11/27)

>  <Rbt.Parameter_File>
/export/apps/rDock/src/rDock_2013.1_src/data/scripts/dock_solv.prm

>  <Rbt.Receptor>
prm/pocket_docking_5.prm

>  <SCORE>
-17.5462

>  <SCORE.INTER>
-13.5883

>  <SCORE.INTER.CONST>
1

>  <SCORE.INTER.POLAR>
-1.60644

>  <SCORE.INTER.ROT>
3

>  <SCORE.INTER.SOLV>
6.08209

>  <SCORE.INTER.VDW>
-11.3315

>  <SCORE.INTER.norm>
-0.647063

>  <SCORE.INTRA>
-3.9788

>  <SCORE.INTRA.DIHEDRAL>
0.869015

>  <SCORE.INTRA.DIHEDRAL.0>
8.84257

>  <SCORE.INTRA.POLAR>
0

>  <SCORE.INTRA.POLAR.0>
0

>  <SCORE.INTRA.REPUL>
0

>  <SCORE.INTRA.REPUL.0>
0

>  <SCORE.INTRA.SOLV>
0.0984225

>  <SCORE.INTRA.SOLV.lig_0>
-17.1313

>  <SCORE.INTRA.VDW>
-4.46252

>  <SCORE.INTRA.VDW.0>
6.34071

>  <SCORE.INTRA.norm>
-0.189467

>  <SCORE.RESTR>
0.0209574

>  <SCORE.RESTR.CAVITY>
0.0209574

>  <SCORE.RESTR.norm>
0.000997973

>  <SCORE.SYSTEM>
0

>  <SCORE.SYSTEM.CONST>
0

>  <SCORE.SYSTEM.DIHEDRAL>
0

>  <SCORE.SYSTEM.SOLV>
0

>  <SCORE.SYSTEM.norm>
0

>  <SCORE.heavy>
21

>  <SCORE.norm>
-0.835532

>  <RMSD>
7.430

$$$$
lig.pdb
 OpenBabel11021811453D
libRbt.so/2013.1/901 2013/11/27
 21 23  0  0  0  0  0  0  0  0999 V2000
   -6.6445    1.0751    7.7553 C   0  0  0  0  0  0  0  0  0  0  0  0
   -6.8455    1.5550    6.5332 N   0  0  0  0  0  0  0  0  0  0  0  0
   -6.2227    2.6531    6.1444 C   0  0  0  0  0  0  0  0  0  0  0  0
   -5.4378    3.3234    7.0122 C   0  0  0  0  0  0  0  0  0  0  0  0
   -5.2347    2.8343    8.2427 C   0  0  0  0  0  0  0  0  0  0  0  0
   -4.4648    3.4926    9.1084 N   0  0  0  0  0  0  0  0  0  0  0  0
   -5.8426    1.7111    8.6104 N   0  0  0  0  0  0  0  0  0  0  0  0
   -6.4131    3.1191    4.8989 C   0  0  0  0  0  0  0  0  0  0  0  0
   -5.9102    4.3465    4.5631 C   0  0  0  0  0  0  0  0  0  0  0  0
   -6.7093    5.1850    3.7496 O   0  0  0  0  0  0  0  0  0  0  0  0
   -4.9828    4.8976    5.3635 C   0  0  0  0  0  0  0  0  0  0  0  0
   -4.1138    5.8971    4.8498 O   0  0  0  0  0  0  0  0  0  0  0  0
   -4.8233    4.4497    6.6242 C   0  0  0  0  0  0  0  0  0  0  0  0
   -7.2603   -0.0336    8.1281 N   0  0  0  0  0  0  0  0  0  0  0  0
   -6.7568   -1.1799    7.6604 C   0  0  0  0  0  0  0  0  0  0  0  0
   -7.2121   -1.4029    6.2262 C   0  0  0  0  0  0  0  0  0  0  0  0
   -8.5887   -1.4821    6.1842 N   0  0  0  0  0  0  0  0  0  0  0  0
   -9.0795   -0.2750    6.6318 C   0  0  0  0  0  0  0  0  0  0  0  0
   -8.6302   -0.0515    8.0662 C   0  0  0  0  0  0  0  0  0  0  0  0
   -6.4891    4.8298    2.4086 C   0  0  0  0  0  0  0  0  0  0  0  0
   -3.0013    5.2706    4.2666 C   0  0  0  0  0  0  0  0  0  0  0  0
  1 14  1  0  0  0  0
  1  2  2  0  0  0  0
  3  2  1  0  0  0  0
  3  8  2  0  0  0  0
  4  3  1  0  0  0  0
  5  7  2  0  0  0  0
  5  4  1  0  0  0  0
  6  5  1  0  0  0  0
  7  1  1  0  0  0  0
  9 10  1  0  0  0  0
  9  8  1  0  0  0  0
 11  9  2  0  0  0  0
 12 11  1  0  0  0  0
 13  4  2  0  0  0  0
 13 11  1  0  0  0  0
 14 15  1  0  0  0  0
 16 15  1  0  0  0  0
 17 16  1  0  0  0  0
 18 17  1  0  0  0  0
 18 19  1  0  0  0  0
 19 14  1  0  0  0  0
 20 10  1  0  0  0  0
 21 12  1  0  0  0  0
M  END
>  <CHROM.1>
77.09347934,-84.59546466,-87.03486016,-6.22047687,2.40302587,6.30427708,-2.23476470
-0.84167363,-0.98102967

>  <Name>
lig.pdb

>  <RI>
2.59814e+07

>  <Rbt.Current_Directory>
/home/itssahil/PROJECTS/Mol_Feturizer/New_Systems/rnas/2lwk

>  <Rbt.Executable>
rbdock ($Id: //depot/dev/client3/rdock/2013.1/src/exe/rbdock.cxx#4 $)

>  <Rbt.Library>
libRbt.so (2013.1, Build901 2013/11/27)

>  <Rbt.Parameter_File>
/export/apps/rDock/src/rDock_2013.1_src/data/scripts/dock_solv.prm

>  <Rbt.Receptor>
prm/pocket_docking_6.prm

>  <SCORE>
-23.9092

>  <SCORE.INTER>
-18.6385

>  <SCORE.INTER.CONST>
1

>  <SCORE.INTER.POLAR>
-2.01611

>  <SCORE.INTER.ROT>
3

>  <SCORE.INTER.SOLV>
6.94366

>  <SCORE.INTER.VDW>
-13.6199

>  <SCORE.INTER.norm>
-0.887548

>  <SCORE.INTRA>
-5.27065

>  <SCORE.INTRA.DIHEDRAL>
0.610298

>  <SCORE.INTRA.DIHEDRAL.0>
8.84257

>  <SCORE.INTRA.POLAR>
0

>  <SCORE.INTRA.POLAR.0>
0

>  <SCORE.INTRA.REPUL>
0

>  <SCORE.INTRA.REPUL.0>
0

>  <SCORE.INTRA.SOLV>
0.0797509

>  <SCORE.INTRA.SOLV.lig_0>
-17.1313

>  <SCORE.INTRA.VDW>
-5.61568

>  <SCORE.INTRA.VDW.0>
6.34071

>  <SCORE.INTRA.norm>
-0.250984

>  <SCORE.RESTR>
0

>  <SCORE.RESTR.CAVITY>
0

>  <SCORE.RESTR.norm>
0

>  <SCORE.SYSTEM>
0

>  <SCORE.SYSTEM.CONST>
0

>  <SCORE.SYSTEM.DIHEDRAL>
0

>  <SCORE.SYSTEM.SOLV>
0

>  <SCORE.SYSTEM.norm>
0

>  <SCORE.heavy>
21

>  <SCORE.norm>
-1.13853

>  <RMSD>
7.440

$$$$
lig.pdb
 OpenBabel11021811453D
libRbt.so/2013.1/901 2013/11/27
 21 23  0  0  0  0  0  0  0  0999 V2000
   -6.6959    1.0528    7.7999 C   0  0  0  0  0  0  0  0  0  0  0  0
   -6.8754    1.5234    6.5709 N   0  0  0  0  0  0  0  0  0  0  0  0
   -6.2502    2.6218    6.1866 C   0  0  0  0  0  0  0  0  0  0  0  0
   -5.4854    3.3016    7.0647 C   0  0  0  0  0  0  0  0  0  0  0  0
   -5.3038    2.8219    8.3023 C   0  0  0  0  0  0  0  0  0  0  0  0
   -4.5538    3.4898    9.1781 N   0  0  0  0  0  0  0  0  0  0  0  0
   -5.9136    1.6984    8.6659 N   0  0  0  0  0  0  0  0  0  0  0  0
   -6.4187    3.0784    4.9345 C   0  0  0  0  0  0  0  0  0  0  0  0
   -5.9150    4.3058    4.6000 C   0  0  0  0  0  0  0  0  0  0  0  0
   -6.7020    5.1349    3.7654 O   0  0  0  0  0  0  0  0  0  0  0  0
   -5.0058    4.8667    5.4142 C   0  0  0  0  0  0  0  0  0  0  0  0
   -4.1315    5.8667    4.9105 O   0  0  0  0  0  0  0  0  0  0  0  0
   -4.8686    4.4281    6.6809 C   0  0  0  0  0  0  0  0  0  0  0  0
   -7.3137   -0.0561    8.1684 N   0  0  0  0  0  0  0  0  0  0  0  0
   -6.8998   -1.1880    7.5907 C   0  0  0  0  0  0  0  0  0  0  0  0
   -7.4977   -1.3115    6.1974 C   0  0  0  0  0  0  0  0  0  0  0  0
   -8.8740   -1.3449    6.2853 N   0  0  0  0  0  0  0  0  0  0  0  0
   -9.2751   -0.1516    6.8453 C   0  0  0  0  0  0  0  0  0  0  0  0
   -8.6831   -0.0275    8.2394 C   0  0  0  0  0  0  0  0  0  0  0  0
   -6.4621    4.7647    2.4318 C   0  0  0  0  0  0  0  0  0  0  0  0
   -3.0527    5.2398    4.2675 C   0  0  0  0  0  0  0  0  0  0  0  0
  1 14  1  0  0  0  0
  1  2  2  0  0  0  0
  3  2  1  0  0  0  0
  3  8  2  0  0  0  0
  4  3  1  0  0  0  0
  5  7  2  0  0  0  0
  5  4  1  0  0  0  0
  6  5  1  0  0  0  0
  7  1  1  0  0  0  0
  9 10  1  0  0  0  0
  9  8  1  0  0  0  0
 11  9  2  0  0  0  0
 12 11  1  0  0  0  0
 13  4  2  0  0  0  0
 13 11  1  0  0  0  0
 14 15  1  0  0  0  0
 16 15  1  0  0  0  0
 17 16  1  0  0  0  0
 18 17  1  0  0  0  0
 18 19  1  0  0  0  0
 19 14  1  0  0  0  0
 20 10  1  0  0  0  0
 21 12  1  0  0  0  0
M  END
>  <CHROM.1>
69.17469187,-84.14578064,-82.80551006,-6.29396002,2.39909793,6.35535014,-2.26739062
-0.82973255,-1.01808559

>  <Name>
lig.pdb

>  <RI>
2.75338e+07

>  <Rbt.Current_Directory>
/home/itssahil/PROJECTS/Mol_Feturizer/New_Systems/rnas/2lwk

>  <Rbt.Executable>
rbdock ($Id: //depot/dev/client3/rdock/2013.1/src/exe/rbdock.cxx#4 $)

>  <Rbt.Library>
libRbt.so (2013.1, Build901 2013/11/27)

>  <Rbt.Parameter_File>
/export/apps/rDock/src/rDock_2013.1_src/data/scripts/dock_solv.prm

>  <Rbt.Receptor>
prm/pocket_docking_8.prm

>  <SCORE>
-23.8666

>  <SCORE.INTER>
-18.5481

>  <SCORE.INTER.CONST>
1

>  <SCORE.INTER.POLAR>
-2.01619

>  <SCORE.INTER.ROT>
3

>  <SCORE.INTER.SOLV>
7.05682

>  <SCORE.INTER.VDW>
-13.597

>  <SCORE.INTER.norm>
-0.883242

>  <SCORE.INTRA>
-5.31853

>  <SCORE.INTRA.DIHEDRAL>
0.555948

>  <SCORE.INTRA.DIHEDRAL.0>
8.84257

>  <SCORE.INTRA.POLAR>
0

>  <SCORE.INTRA.POLAR.0>
0

>  <SCORE.INTRA.REPUL>
0

>  <SCORE.INTRA.REPUL.0>
0

>  <SCORE.INTRA.SOLV>
0.0852952

>  <SCORE.INTRA.SOLV.lig_0>
-17.1313

>  <SCORE.INTRA.VDW>
-5.63915

>  <SCORE.INTRA.VDW.0>
6.34071

>  <SCORE.INTRA.norm>
-0.253263

>  <SCORE.RESTR>
0

>  <SCORE.RESTR.CAVITY>
0

>  <SCORE.RESTR.norm>
0

>  <SCORE.SYSTEM>
0

>  <SCORE.SYSTEM.CONST>
0

>  <SCORE.SYSTEM.DIHEDRAL>
0

>  <SCORE.SYSTEM.SOLV>
0

>  <SCORE.SYSTEM.norm>
0

>  <SCORE.heavy>
21

>  <SCORE.norm>
-1.13651

>  <RMSD>
7.441

$$$$
lig.pdb
 OpenBabel11021811453D
libRbt.so/2013.1/901 2013/11/27
 21 23  0  0  0  0  0  0  0  0999 V2000
   -4.2831    6.4719    1.2802 C   0  0  0  0  0  0  0  0  0  0  0  0
   -5.2564    5.5686    1.3109 N   0  0  0  0  0  0  0  0  0  0  0  0
   -5.5855    4.9911    2.4524 C   0  0  0  0  0  0  0  0  0  0  0  0
   -4.8867    5.2686    3.5717 C   0  0  0  0  0  0  0  0  0  0  0  0
   -3.9080    6.1829    3.5376 C   0  0  0  0  0  0  0  0  0  0  0  0
   -3.2088    6.4595    4.6376 N   0  0  0  0  0  0  0  0  0  0  0  0
   -3.6082    6.7797    2.3886 N   0  0  0  0  0  0  0  0  0  0  0  0
   -6.5867    4.0958    2.4794 C   0  0  0  0  0  0  0  0  0  0  0  0
   -6.8029    3.3730    3.6209 C   0  0  0  0  0  0  0  0  0  0  0  0
   -7.1376    2.0051    3.4801 O   0  0  0  0  0  0  0  0  0  0  0  0
   -6.2353    3.7965    4.7623 C   0  0  0  0  0  0  0  0  0  0  0  0
   -6.7771    3.3901    6.0110 O   0  0  0  0  0  0  0  0  0  0  0  0
   -5.2067    4.6661    4.7255 C   0  0  0  0  0  0  0  0  0  0  0  0
   -3.9731    7.0554    0.1353 N   0  0  0  0  0  0  0  0  0  0  0  0
   -4.8653    7.9237   -0.3507 C   0  0  0  0  0  0  0  0  0  0  0  0
   -6.0018    7.1772   -1.0327 C   0  0  0  0  0  0  0  0  0  0  0  0
   -5.5031    6.4318   -2.0809 N   0  0  0  0  0  0  0  0  0  0  0  0
   -4.6190    5.5197   -1.5473 C   0  0  0  0  0  0  0  0  0  0  0  0
   -3.4799    6.2626   -0.8692 C   0  0  0  0  0  0  0  0  0  0  0  0
   -5.9463    1.2793    3.3154 C   0  0  0  0  0  0  0  0  0  0  0  0
   -5.8756    2.5086    6.6279 C   0  0  0  0  0  0  0  0  0  0  0  0
  1 14  1  0  0  0  0
  1  2  2  0  0  0  0
  3  2  1  0  0  0  0
  3  8  2  0  0  0  0
  4  3  1  0  0  0  0
  5  7  2  0  0  0  0
  5  4  1  0  0  0  0
  6  5  1  0  0  0  0
  7  1  1  0  0  0  0
  9 10  1  0  0  0  0
  9  8  1  0  0  0  0
 11  9  2  0  0  0  0
 12 11  1  0  0  0  0
 13  4  2  0  0  0  0
 13 11  1  0  0  0  0
 14 15  1  0  0  0  0
 16 15  1  0  0  0  0
 17 16  1  0  0  0  0
 18 17  1  0  0  0  0
 18 19  1  0  0  0  0
 19 14  1  0  0  0  0
 20 10  1  0  0  0  0
 21 12  1  0  0  0  0
M  END
>  <CHROM.1>
70.66961068,82.95761752,110.47534771,-5.23184871,5.07478169,2.31396698,-1.20806843
0.91810078,1.85620150

>  <Name>
lig.pdb

>  <RI>
2.20372e+07

>  <Rbt.Current_Directory>
/home/itssahil/PROJECTS/Mol_Feturizer/New_Systems/rnas/2lwk

>  <Rbt.Executable>
rbdock ($Id: //depot/dev/client3/rdock/2013.1/src/exe/rbdock.cxx#4 $)

>  <Rbt.Library>
libRbt.so (2013.1, Build901 2013/11/27)

>  <Rbt.Parameter_File>
/export/apps/rDock/src/rDock_2013.1_src/data/scripts/dock_solv.prm

>  <Rbt.Receptor>
prm/pocket_docking_7.prm

>  <SCORE>
-18.96

>  <SCORE.INTER>
-15.0101

>  <SCORE.INTER.CONST>
1

>  <SCORE.INTER.POLAR>
-2.45883

>  <SCORE.INTER.ROT>
3

>  <SCORE.INTER.SOLV>
5.87708

>  <SCORE.INTER.VDW>
-9.36965

>  <SCORE.INTER.norm>
-0.714766

>  <SCORE.INTRA>
-3.94996

>  <SCORE.INTRA.DIHEDRAL>
0.497268

>  <SCORE.INTRA.DIHEDRAL.0>
8.84257

>  <SCORE.INTRA.POLAR>
0

>  <SCORE.INTRA.POLAR.0>
0

>  <SCORE.INTRA.REPUL>
0

>  <SCORE.INTRA.REPUL.0>
0

>  <SCORE.INTRA.SOLV>
0.0933074

>  <SCORE.INTRA.SOLV.lig_0>
-17.1313

>  <SCORE.INTRA.VDW>
-4.24525

>  <SCORE.INTRA.VDW.0>
6.34071

>  <SCORE.INTRA.norm>
-0.188093

>  <SCORE.RESTR>
0

>  <SCORE.RESTR.CAVITY>
0

>  <SCORE.RESTR.norm>
0

>  <SCORE.SYSTEM>
0

>  <SCORE.SYSTEM.CONST>
0

>  <SCORE.SYSTEM.DIHEDRAL>
0

>  <SCORE.SYSTEM.SOLV>
0

>  <SCORE.SYSTEM.norm>
0

>  <SCORE.heavy>
21

>  <SCORE.norm>
-0.902859

>  <RMSD>
7.445

$$$$
lig.pdb
 OpenBabel11021811453D
libRbt.so/2013.1/901 2013/11/27
 21 23  0  0  0  0  0  0  0  0999 V2000
   -6.6295    1.1229    7.7696 C   0  0  0  0  0  0  0  0  0  0  0  0
   -6.8345    1.5820    6.5402 N   0  0  0  0  0  0  0  0  0  0  0  0
   -6.2165    2.6758    6.1323 C   0  0  0  0  0  0  0  0  0  0  0  0
   -5.4325    3.3631    6.9873 C   0  0  0  0  0  0  0  0  0  0  0  0
   -5.2253    2.8950    8.2254 C   0  0  0  0  0  0  0  0  0  0  0  0
   -4.4562    3.5703    9.0786 N   0  0  0  0  0  0  0  0  0  0  0  0
   -5.8284    1.7758    8.6126 N   0  0  0  0  0  0  0  0  0  0  0  0
   -6.4110    3.1206    4.8796 C   0  0  0  0  0  0  0  0  0  0  0  0
   -5.9133    4.3441    4.5227 C   0  0  0  0  0  0  0  0  0  0  0  0
   -6.7169    5.1661    3.6971 O   0  0  0  0  0  0  0  0  0  0  0  0
   -4.9864    4.9116    5.3121 C   0  0  0  0  0  0  0  0  0  0  0  0
   -4.1220    5.9058    4.7804 O   0  0  0  0  0  0  0  0  0  0  0  0
   -4.8229    4.4851    6.5797 C   0  0  0  0  0  0  0  0  0  0  0  0
   -7.2405    0.0183    8.1618 N   0  0  0  0  0  0  0  0  0  0  0  0
   -6.7263   -1.1342    7.7220 C   0  0  0  0  0  0  0  0  0  0  0  0
   -7.1703   -1.3907    6.2899 C   0  0  0  0  0  0  0  0  0  0  0  0
   -8.5460   -1.4800    6.2403 N   0  0  0  0  0  0  0  0  0  0  0  0
   -9.0478   -0.2670    6.6589 C   0  0  0  0  0  0  0  0  0  0  0  0
   -8.6099   -0.0101    8.0911 C   0  0  0  0  0  0  0  0  0  0  0  0
   -6.4606    4.8237    2.3591 C   0  0  0  0  0  0  0  0  0  0  0  0
   -2.9626    5.2815    4.2941 C   0  0  0  0  0  0  0  0  0  0  0  0
  1 14  1  0  0  0  0
  1  2  2  0  0  0  0
  3  2  1  0  0  0  0
  3  8  2  0  0  0  0
  4  3  1  0  0  0  0
  5  7  2  0  0  0  0
  5  4  1  0  0  0  0
  6  5  1  0  0  0  0
  7  1  1  0  0  0  0
  9 10  1  0  0  0  0
  9  8  1  0  0  0  0
 11  9  2  0  0  0  0
 12 11  1  0  0  0  0
 13  4  2  0  0  0  0
 13 11  1  0  0  0  0
 14 15  1  0  0  0  0
 16 15  1  0  0  0  0
 17 16  1  0  0  0  0
 18 17  1  0  0  0  0
 18 19  1  0  0  0  0
 19 14  1  0  0  0  0
 20 10  1  0  0  0  0
 21 12  1  0  0  0  0
M  END
>  <CHROM.1>
77.68811223,-86.76274630,-91.34711627,-6.20563398,2.42858352,6.30000195,-2.22937038
-0.84331109,-0.98955865

>  <Name>
lig.pdb

>  <RI>
2.98315e+07

>  <Rbt.Current_Directory>
/home/itssahil/PROJECTS/Mol_Feturizer/New_Systems/rnas/2lwk

>  <Rbt.Executable>
rbdock ($Id: //depot/dev/client3/rdock/2013.1/src/exe/rbdock.cxx#4 $)

>  <Rbt.Library>
libRbt.so (2013.1, Build901 2013/11/27)

>  <Rbt.Parameter_File>
/export/apps/rDock/src/rDock_2013.1_src/data/scripts/dock_solv.prm

>  <Rbt.Receptor>
prm/pocket_docking_5.prm

>  <SCORE>
-23.7455

>  <SCORE.INTER>
-18.4766

>  <SCORE.INTER.CONST>
1

>  <SCORE.INTER.POLAR>
-1.97256

>  <SCORE.INTER.ROT>
3

>  <SCORE.INTER.SOLV>
6.96481

>  <SCORE.INTER.VDW>
-13.6642

>  <SCORE.INTER.norm>
-0.87984

>  <SCORE.INTRA>
-5.26883

>  <SCORE.INTRA.DIHEDRAL>
0.685658

>  <SCORE.INTRA.DIHEDRAL.0>
8.84257

>  <SCORE.INTRA.POLAR>
0

>  <SCORE.INTRA.POLAR.0>
0

>  <SCORE.INTRA.REPUL>
0

>  <SCORE.INTRA.REPUL.0>
0

>  <SCORE.INTRA.SOLV>
0.0787731

>  <SCORE.INTRA.SOLV.lig_0>
-17.1313

>  <SCORE.INTRA.VDW>
-5.65105

>  <SCORE.INTRA.VDW.0>
6.34071

>  <SCORE.INTRA.norm>
-0.250897

>  <SCORE.RESTR>
0

>  <SCORE.RESTR.CAVITY>
0

>  <SCORE.RESTR.norm>
0

>  <SCORE.SYSTEM>
0

>  <SCORE.SYSTEM.CONST>
0

>  <SCORE.SYSTEM.DIHEDRAL>
0

>  <SCORE.SYSTEM.SOLV>
0

>  <SCORE.SYSTEM.norm>
0

>  <SCORE.heavy>
21

>  <SCORE.norm>
-1.13074

>  <RMSD>
7.451

$$$$
lig.pdb
 OpenBabel11021811453D
libRbt.so/2013.1/901 2013/11/27
 21 23  0  0  0  0  0  0  0  0999 V2000
   -6.6406    1.0795    7.7216 C   0  0  0  0  0  0  0  0  0  0  0  0
   -6.8315    1.5688    6.5016 N   0  0  0  0  0  0  0  0  0  0  0  0
   -6.2048    2.6693    6.1261 C   0  0  0  0  0  0  0  0  0  0  0  0
   -5.4263    3.3324    7.0050 C   0  0  0  0  0  0  0  0  0  0  0  0
   -5.2333    2.8338    8.2334 C   0  0  0  0  0  0  0  0  0  0  0  0
   -4.4698    3.4851    9.1101 N   0  0  0  0  0  0  0  0  0  0  0  0
   -5.8450    1.7084    8.5878 N   0  0  0  0  0  0  0  0  0  0  0  0
   -6.3850    3.1448    4.8826 C   0  0  0  0  0  0  0  0  0  0  0  0
   -5.8785    4.3743    4.5601 C   0  0  0  0  0  0  0  0  0  0  0  0
   -6.6704    5.2195    3.7466 O   0  0  0  0  0  0  0  0  0  0  0  0
   -4.9571    4.9186    5.3719 C   0  0  0  0  0  0  0  0  0  0  0  0
   -4.0832    5.9212    4.8726 O   0  0  0  0  0  0  0  0  0  0  0  0
   -4.8079    4.4611    6.6304 C   0  0  0  0  0  0  0  0  0  0  0  0
   -7.2601   -0.0314    8.0812 N   0  0  0  0  0  0  0  0  0  0  0  0
   -6.7546   -1.1745    7.6079 C   0  0  0  0  0  0  0  0  0  0  0  0
   -7.1999   -1.3855    6.1688 C   0  0  0  0  0  0  0  0  0  0  0  0
   -8.5763   -1.4628    6.1164 N   0  0  0  0  0  0  0  0  0  0  0  0
   -9.0690   -0.2588    6.5703 C   0  0  0  0  0  0  0  0  0  0  0  0
   -8.6296   -0.0473    8.0095 C   0  0  0  0  0  0  0  0  0  0  0  0
   -6.3891    4.9204    2.4033 C   0  0  0  0  0  0  0  0  0  0  0  0
   -2.9360    5.3012    4.3532 C   0  0  0  0  0  0  0  0  0  0  0  0
  1 14  1  0  0  0  0
  1  2  2  0  0  0  0
  3  2  1  0  0  0  0
  3  8  2  0  0  0  0
  4  3  1  0  0  0  0
  5  7  2  0  0  0  0
  5  4  1  0  0  0  0
  6  5  1  0  0  0  0
  7  1  1  0  0  0  0
  9 10  1  0  0  0  0
  9  8  1  0  0  0  0
 11  9  2  0  0  0  0
 12 11  1  0  0  0  0
 13  4  2  0  0  0  0
 13 11  1  0  0  0  0
 14 15  1  0  0  0  0
 16 15  1  0  0  0  0
 17 16  1  0  0  0  0
 18 17  1  0  0  0  0
 18 19  1  0  0  0  0
 19 14  1  0  0  0  0
 20 10  1  0  0  0  0
 21 12  1  0  0  0  0
M  END
>  <CHROM.1>
77.03317193,-87.53888926,-89.92895291,-6.20011544,2.42075988,6.28713537,-2.24645977
-0.84387577,-0.98018975

>  <Name>
lig.pdb

>  <RI>
2.59814e+07

>  <Rbt.Current_Directory>
/home/itssahil/PROJECTS/Mol_Feturizer/New_Systems/rnas/2lwk

>  <Rbt.Executable>
rbdock ($Id: //depot/dev/client3/rdock/2013.1/src/exe/rbdock.cxx#4 $)

>  <Rbt.Library>
libRbt.so (2013.1, Build901 2013/11/27)

>  <Rbt.Parameter_File>
/export/apps/rDock/src/rDock_2013.1_src/data/scripts/dock_solv.prm

>  <Rbt.Receptor>
prm/pocket_docking_6.prm

>  <SCORE>
-23.8733

>  <SCORE.INTER>
-18.5675

>  <SCORE.INTER.CONST>
1

>  <SCORE.INTER.POLAR>
-2.00551

>  <SCORE.INTER.ROT>
3

>  <SCORE.INTER.SOLV>
6.96027

>  <SCORE.INTER.VDW>
-13.6134

>  <SCORE.INTER.norm>
-0.884165

>  <SCORE.INTRA>
-5.30625

>  <SCORE.INTRA.DIHEDRAL>
0.726434

>  <SCORE.INTRA.DIHEDRAL.0>
8.84257

>  <SCORE.INTRA.POLAR>
0

>  <SCORE.INTRA.POLAR.0>
0

>  <SCORE.INTRA.REPUL>
0

>  <SCORE.INTRA.REPUL.0>
0

>  <SCORE.INTRA.SOLV>
0.0807236

>  <SCORE.INTRA.SOLV.lig_0>
-17.1313

>  <SCORE.INTRA.VDW>
-5.70983

>  <SCORE.INTRA.VDW.0>
6.34071

>  <SCORE.INTRA.norm>
-0.252679

>  <SCORE.RESTR>
0.000399419

>  <SCORE.RESTR.CAVITY>
0.000399419

>  <SCORE.RESTR.norm>
1.902e-05

>  <SCORE.SYSTEM>
0

>  <SCORE.SYSTEM.CONST>
0

>  <SCORE.SYSTEM.DIHEDRAL>
0

>  <SCORE.SYSTEM.SOLV>
0

>  <SCORE.SYSTEM.norm>
0

>  <SCORE.heavy>
21

>  <SCORE.norm>
-1.13682

>  <RMSD>
7.455

$$$$
lig.pdb
 OpenBabel11021811453D
libRbt.so/2013.1/901 2013/11/27
 21 23  0  0  0  0  0  0  0  0999 V2000
   -6.6586    1.0645    7.7398 C   0  0  0  0  0  0  0  0  0  0  0  0
   -6.8440    1.5509    6.5178 N   0  0  0  0  0  0  0  0  0  0  0  0
   -6.2173    2.6517    6.1432 C   0  0  0  0  0  0  0  0  0  0  0  0
   -5.4446    3.3181    7.0247 C   0  0  0  0  0  0  0  0  0  0  0  0
   -5.2571    2.8225    8.2552 C   0  0  0  0  0  0  0  0  0  0  0  0
   -4.4994    3.4769    9.1345 N   0  0  0  0  0  0  0  0  0  0  0  0
   -5.8686    1.6967    8.6088 N   0  0  0  0  0  0  0  0  0  0  0  0
   -6.3919    3.1242    4.8978 C   0  0  0  0  0  0  0  0  0  0  0  0
   -5.8859    4.3540    4.5753 C   0  0  0  0  0  0  0  0  0  0  0  0
   -6.6751    5.1960    3.7559 O   0  0  0  0  0  0  0  0  0  0  0  0
   -4.9697    4.9016    5.3907 C   0  0  0  0  0  0  0  0  0  0  0  0
   -4.0950    5.9048    4.8939 O   0  0  0  0  0  0  0  0  0  0  0  0
   -4.8263    4.4470    6.6510 C   0  0  0  0  0  0  0  0  0  0  0  0
   -7.2780   -0.0467    8.0985 N   0  0  0  0  0  0  0  0  0  0  0  0
   -6.7725   -1.1894    7.6241 C   0  0  0  0  0  0  0  0  0  0  0  0
   -7.2182   -1.3991    6.1848 C   0  0  0  0  0  0  0  0  0  0  0  0
   -8.5945   -1.4764    6.1327 N   0  0  0  0  0  0  0  0  0  0  0  0
   -9.0872   -0.2728    6.5878 C   0  0  0  0  0  0  0  0  0  0  0  0
   -8.6475   -0.0626    8.0271 C   0  0  0  0  0  0  0  0  0  0  0  0
   -6.3207    4.9587    2.4175 C   0  0  0  0  0  0  0  0  0  0  0  0
   -2.9370    5.2869    4.3965 C   0  0  0  0  0  0  0  0  0  0  0  0
  1 14  1  0  0  0  0
  1  2  2  0  0  0  0
  3  2  1  0  0  0  0
  3  8  2  0  0  0  0
  4  3  1  0  0  0  0
  5  7  2  0  0  0  0
  5  4  1  0  0  0  0
  6  5  1  0  0  0  0
  7  1  1  0  0  0  0
  9 10  1  0  0  0  0
  9  8  1  0  0  0  0
 11  9  2  0  0  0  0
 12 11  1  0  0  0  0
 13  4  2  0  0  0  0
 13 11  1  0  0  0  0
 14 15  1  0  0  0  0
 16 15  1  0  0  0  0
 17 16  1  0  0  0  0
 18 17  1  0  0  0  0
 18 19  1  0  0  0  0
 19 14  1  0  0  0  0
 20 10  1  0  0  0  0
 21 12  1  0  0  0  0
M  END
>  <CHROM.1>
76.66330928,-91.47744521,-90.63282568,-6.21122959,2.40815774,6.30611369,-2.25264328
-0.84711806,-0.98730121

>  <Name>
lig.pdb

>  <RI>
2.20372e+07

>  <Rbt.Current_Directory>
/home/itssahil/PROJECTS/Mol_Feturizer/New_Systems/rnas/2lwk

>  <Rbt.Executable>
rbdock ($Id: //depot/dev/client3/rdock/2013.1/src/exe/rbdock.cxx#4 $)

>  <Rbt.Library>
libRbt.so (2013.1, Build901 2013/11/27)

>  <Rbt.Parameter_File>
/export/apps/rDock/src/rDock_2013.1_src/data/scripts/dock_solv.prm

>  <Rbt.Receptor>
prm/pocket_docking_7.prm

>  <SCORE>
-23.9092

>  <SCORE.INTER>
-18.5765

>  <SCORE.INTER.CONST>
1

>  <SCORE.INTER.POLAR>
-2.00912

>  <SCORE.INTER.ROT>
3

>  <SCORE.INTER.SOLV>
6.97976

>  <SCORE.INTER.VDW>
-13.6139

>  <SCORE.INTER.norm>
-0.884595

>  <SCORE.INTRA>
-5.33266

>  <SCORE.INTRA.DIHEDRAL>
0.850814

>  <SCORE.INTRA.DIHEDRAL.0>
8.84257

>  <SCORE.INTRA.POLAR>
0

>  <SCORE.INTRA.POLAR.0>
0

>  <SCORE.INTRA.REPUL>
0

>  <SCORE.INTRA.REPUL.0>
0

>  <SCORE.INTRA.SOLV>
0.0841983

>  <SCORE.INTRA.SOLV.lig_0>
-17.1313

>  <SCORE.INTRA.VDW>
-5.80017

>  <SCORE.INTRA.VDW.0>
6.34071

>  <SCORE.INTRA.norm>
-0.253936

>  <SCORE.RESTR>
0

>  <SCORE.RESTR.CAVITY>
0

>  <SCORE.RESTR.norm>
0

>  <SCORE.SYSTEM>
0

>  <SCORE.SYSTEM.CONST>
0

>  <SCORE.SYSTEM.DIHEDRAL>
0

>  <SCORE.SYSTEM.SOLV>
0

>  <SCORE.SYSTEM.norm>
0

>  <SCORE.heavy>
21

>  <SCORE.norm>
-1.13853

>  <RMSD>
7.458

$$$$
lig.pdb
 OpenBabel11021811453D
libRbt.so/2013.1/901 2013/11/27
 21 23  0  0  0  0  0  0  0  0999 V2000
   -6.6487    1.0684    7.7361 C   0  0  0  0  0  0  0  0  0  0  0  0
   -6.8441    1.5545    6.5155 N   0  0  0  0  0  0  0  0  0  0  0  0
   -6.2192    2.6543    6.1350 C   0  0  0  0  0  0  0  0  0  0  0  0
   -5.4380    3.3200    7.0094 C   0  0  0  0  0  0  0  0  0  0  0  0
   -5.2404    2.8246    8.2385 C   0  0  0  0  0  0  0  0  0  0  0  0
   -4.4741    3.4784    9.1108 N   0  0  0  0  0  0  0  0  0  0  0  0
   -5.8504    1.6999    8.5978 N   0  0  0  0  0  0  0  0  0  0  0  0
   -6.4040    3.1265    4.8909 C   0  0  0  0  0  0  0  0  0  0  0  0
   -5.8992    4.3554    4.5635 C   0  0  0  0  0  0  0  0  0  0  0  0
   -6.6944    5.1982    3.7506 O   0  0  0  0  0  0  0  0  0  0  0  0
   -4.9752    4.9022    5.3706 C   0  0  0  0  0  0  0  0  0  0  0  0
   -4.1035    5.9039    4.8657 O   0  0  0  0  0  0  0  0  0  0  0  0
   -4.8214    4.4479    6.6298 C   0  0  0  0  0  0  0  0  0  0  0  0
   -7.2665   -0.0419    8.1006 N   0  0  0  0  0  0  0  0  0  0  0  0
   -6.7744   -1.1844    7.6122 C   0  0  0  0  0  0  0  0  0  0  0  0
   -7.2464   -1.3857    6.1802 C   0  0  0  0  0  0  0  0  0  0  0  0
   -8.6238   -1.4569    6.1520 N   0  0  0  0  0  0  0  0  0  0  0  0
   -9.1030   -0.2533    6.6212 C   0  0  0  0  0  0  0  0  0  0  0  0
   -8.6371   -0.0516    8.0534 C   0  0  0  0  0  0  0  0  0  0  0  0
   -6.2086    5.1200    2.4350 C   0  0  0  0  0  0  0  0  0  0  0  0
   -2.9452    5.2852    4.3699 C   0  0  0  0  0  0  0  0  0  0  0  0
  1 14  1  0  0  0  0
  1  2  2  0  0  0  0
  3  2  1  0  0  0  0
  3  8  2  0  0  0  0
  4  3  1  0  0  0  0
  5  7  2  0  0  0  0
  5  4  1  0  0  0  0
  6  5  1  0  0  0  0
  7  1  1  0  0  0  0
  9 10  1  0  0  0  0
  9  8  1  0  0  0  0
 11  9  2  0  0  0  0
 12 11  1  0  0  0  0
 13  4  2  0  0  0  0
 13 11  1  0  0  0  0
 14 15  1  0  0  0  0
 16 15  1  0  0  0  0
 17 16  1  0  0  0  0
 18 17  1  0  0  0  0
 18 19  1  0  0  0  0
 19 14  1  0  0  0  0
 20 10  1  0  0  0  0
 21 12  1  0  0  0  0
M  END
>  <CHROM.1>
76.05240952,-100.77843168,-91.17813413,-6.20755425,2.42120812,6.30063416
-2.24392629,-0.83914262,-0.98174300

>  <Name>
lig.pdb

>  <RI>
2.59814e+07

>  <Rbt.Current_Directory>
/home/itssahil/PROJECTS/Mol_Feturizer/New_Systems/rnas/2lwk

>  <Rbt.Executable>
rbdock ($Id: //depot/dev/client3/rdock/2013.1/src/exe/rbdock.cxx#4 $)

>  <Rbt.Library>
libRbt.so (2013.1, Build901 2013/11/27)

>  <Rbt.Parameter_File>
/export/apps/rDock/src/rDock_2013.1_src/data/scripts/dock_solv.prm

>  <Rbt.Receptor>
prm/pocket_docking_6.prm

>  <SCORE>
-23.9102

>  <SCORE.INTER>
-18.5329

>  <SCORE.INTER.CONST>
1

>  <SCORE.INTER.POLAR>
-2.01183

>  <SCORE.INTER.ROT>
3

>  <SCORE.INTER.SOLV>
6.93711

>  <SCORE.INTER.VDW>
-13.5616

>  <SCORE.INTER.norm>
-0.882521

>  <SCORE.INTRA>
-5.37778

>  <SCORE.INTRA.DIHEDRAL>
0.995483

>  <SCORE.INTRA.DIHEDRAL.0>
8.84257

>  <SCORE.INTRA.POLAR>
0

>  <SCORE.INTRA.POLAR.0>
0

>  <SCORE.INTRA.REPUL>
0

>  <SCORE.INTRA.REPUL.0>
0

>  <SCORE.INTRA.SOLV>
0.0932033

>  <SCORE.INTRA.SOLV.lig_0>
-17.1313

>  <SCORE.INTRA.VDW>
-5.92213

>  <SCORE.INTRA.VDW.0>
6.34071

>  <SCORE.INTRA.norm>
-0.256085

>  <SCORE.RESTR>
0.000528294

>  <SCORE.RESTR.CAVITY>
0.000528294

>  <SCORE.RESTR.norm>
2.51569e-05

>  <SCORE.SYSTEM>
0

>  <SCORE.SYSTEM.CONST>
0

>  <SCORE.SYSTEM.DIHEDRAL>
0

>  <SCORE.SYSTEM.SOLV>
0

>  <SCORE.SYSTEM.norm>
0

>  <SCORE.heavy>
21

>  <SCORE.norm>
-1.13858

>  <RMSD>
7.464

$$$$
lig.pdb
 OpenBabel11021811453D
libRbt.so/2013.1/901 2013/11/27
 21 23  0  0  0  0  0  0  0  0999 V2000
   -6.6474    1.0756    7.7238 C   0  0  0  0  0  0  0  0  0  0  0  0
   -6.8359    1.5633    6.5028 N   0  0  0  0  0  0  0  0  0  0  0  0
   -6.2091    2.6639    6.1275 C   0  0  0  0  0  0  0  0  0  0  0  0
   -5.4332    3.3285    7.0074 C   0  0  0  0  0  0  0  0  0  0  0  0
   -5.2426    2.8315    8.2369 C   0  0  0  0  0  0  0  0  0  0  0  0
   -4.4817    3.4843    9.1146 N   0  0  0  0  0  0  0  0  0  0  0  0
   -5.8543    1.7060    8.5911 N   0  0  0  0  0  0  0  0  0  0  0  0
   -6.3868    3.1378    4.8831 C   0  0  0  0  0  0  0  0  0  0  0  0
   -5.8805    4.3674    4.5603 C   0  0  0  0  0  0  0  0  0  0  0  0
   -6.6712    5.2110    3.7441 O   0  0  0  0  0  0  0  0  0  0  0  0
   -4.9613    4.9132    5.3736 C   0  0  0  0  0  0  0  0  0  0  0  0
   -4.0871    5.9160    4.8753 O   0  0  0  0  0  0  0  0  0  0  0  0
   -4.8147    4.4572    6.6330 C   0  0  0  0  0  0  0  0  0  0  0  0
   -7.2670   -0.0354    8.0831 N   0  0  0  0  0  0  0  0  0  0  0  0
   -6.7951   -1.1738    7.5659 C   0  0  0  0  0  0  0  0  0  0  0  0
   -7.2987   -1.3475    6.1410 C   0  0  0  0  0  0  0  0  0  0  0  0
   -8.6769   -1.4069    6.1408 N   0  0  0  0  0  0  0  0  0  0  0  0
   -9.1359   -0.2073    6.6395 C   0  0  0  0  0  0  0  0  0  0  0  0
   -8.6383   -0.0330    8.0647 C   0  0  0  0  0  0  0  0  0  0  0  0
   -6.1805    5.1314    2.4303 C   0  0  0  0  0  0  0  0  0  0  0  0
   -2.9208    5.2993    4.3960 C   0  0  0  0  0  0  0  0  0  0  0  0
  1 14  1  0  0  0  0
  1  2  2  0  0  0  0
  3  2  1  0  0  0  0
  3  8  2  0  0  0  0
  4  3  1  0  0  0  0
  5  7  2  0  0  0  0
  5  4  1  0  0  0  0
  6  5  1  0  0  0  0
  7  1  1  0  0  0  0
  9 10  1  0  0  0  0
  9  8  1  0  0  0  0
 11  9  2  0  0  0  0
 12 11  1  0  0  0  0
 13  4  2  0  0  0  0
 13 11  1  0  0  0  0
 14 15  1  0  0  0  0
 16 15  1  0  0  0  0
 17 16  1  0  0  0  0
 18 17  1  0  0  0  0
 18 19  1  0  0  0  0
 19 14  1  0  0  0  0
 20 10  1  0  0  0  0
 21 12  1  0  0  0  0
M  END
>  <CHROM.1>
74.22071367,-100.58268966,-91.68770683,-6.20783108,2.43657473,6.29584785
-2.25422402,-0.83552243,-0.98757197

>  <Name>
lig.pdb

>  <RI>
2.98315e+07

>  <Rbt.Current_Directory>
/home/itssahil/PROJECTS/Mol_Feturizer/New_Systems/rnas/2lwk

>  <Rbt.Executable>
rbdock ($Id: //depot/dev/client3/rdock/2013.1/src/exe/rbdock.cxx#4 $)

>  <Rbt.Library>
libRbt.so (2013.1, Build901 2013/11/27)

>  <Rbt.Parameter_File>
/export/apps/rDock/src/rDock_2013.1_src/data/scripts/dock_solv.prm

>  <Rbt.Receptor>
prm/pocket_docking_5.prm

>  <SCORE>
-23.878

>  <SCORE.INTER>
-18.5029

>  <SCORE.INTER.CONST>
1

>  <SCORE.INTER.POLAR>
-1.9998

>  <SCORE.INTER.ROT>
3

>  <SCORE.INTER.SOLV>
6.95762

>  <SCORE.INTER.VDW>
-13.5885

>  <SCORE.INTER.norm>
-0.881089

>  <SCORE.INTRA>
-5.3862

>  <SCORE.INTRA.DIHEDRAL>
0.990529

>  <SCORE.INTRA.DIHEDRAL.0>
8.84257

>  <SCORE.INTRA.POLAR>
0

>  <SCORE.INTRA.POLAR.0>
0

>  <SCORE.INTRA.REPUL>
0

>  <SCORE.INTRA.REPUL.0>
0

>  <SCORE.INTRA.SOLV>
0.0936845

>  <SCORE.INTRA.SOLV.lig_0>
-17.1313

>  <SCORE.INTRA.VDW>
-5.9283

>  <SCORE.INTRA.VDW.0>
6.34071

>  <SCORE.INTRA.norm>
-0.256486

>  <SCORE.RESTR>
0.0111228

>  <SCORE.RESTR.CAVITY>
0.0111228

>  <SCORE.RESTR.norm>
0.000529657

>  <SCORE.SYSTEM>
0

>  <SCORE.SYSTEM.CONST>
0

>  <SCORE.SYSTEM.DIHEDRAL>
0

>  <SCORE.SYSTEM.SOLV>
0

>  <SCORE.SYSTEM.norm>
0

>  <SCORE.heavy>
21

>  <SCORE.norm>
-1.13705

>  <RMSD>
7.470

$$$$
lig.pdb
 OpenBabel11021811453D
libRbt.so/2013.1/901 2013/11/27
 21 23  0  0  0  0  0  0  0  0999 V2000
   -5.6637    6.7336    1.8206 C   0  0  0  0  0  0  0  0  0  0  0  0
   -6.5122    5.7702    2.1618 N   0  0  0  0  0  0  0  0  0  0  0  0
   -6.2939    5.0528    3.2492 C   0  0  0  0  0  0  0  0  0  0  0  0
   -5.1739    5.2533    3.9728 C   0  0  0  0  0  0  0  0  0  0  0  0
   -4.3224    6.2282    3.6276 C   0  0  0  0  0  0  0  0  0  0  0  0
   -3.2106    6.4300    4.3339 N   0  0  0  0  0  0  0  0  0  0  0  0
   -4.5704    6.9638    2.5489 N   0  0  0  0  0  0  0  0  0  0  0  0
   -7.1690    4.0959    3.6003 C   0  0  0  0  0  0  0  0  0  0  0  0
   -6.8480    3.2416    4.6198 C   0  0  0  0  0  0  0  0  0  0  0  0
   -7.1952    1.8778    4.4695 O   0  0  0  0  0  0  0  0  0  0  0  0
   -5.8375    3.5761    5.4391 C   0  0  0  0  0  0  0  0  0  0  0  0
   -5.7641    3.0027    6.7368 O   0  0  0  0  0  0  0  0  0  0  0  0
   -4.9418    4.5102    5.0640 C   0  0  0  0  0  0  0  0  0  0  0  0
   -5.9006    7.4562    0.7394 N   0  0  0  0  0  0  0  0  0  0  0  0
   -4.9353    7.4787   -0.1846 C   0  0  0  0  0  0  0  0  0  0  0  0
   -3.8391    8.4485    0.2299 C   0  0  0  0  0  0  0  0  0  0  0  0
   -4.3635    9.7194    0.3436 N   0  0  0  0  0  0  0  0  0  0  0  0
   -5.3253    9.6760    1.3293 C   0  0  0  0  0  0  0  0  0  0  0  0
   -6.4243    8.7114    0.9159 C   0  0  0  0  0  0  0  0  0  0  0  0
   -6.1982    1.2562    3.6996 C   0  0  0  0  0  0  0  0  0  0  0  0
   -4.7411    2.0416    6.7476 C   0  0  0  0  0  0  0  0  0  0  0  0
  1 14  1  0  0  0  0
  1  2  2  0  0  0  0
  3  2  1  0  0  0  0
  3  8  2  0  0  0  0
  4  3  1  0  0  0  0
  5  7  2  0  0  0  0
  5  4  1  0  0  0  0
  6  5  1  0  0  0  0
  7  1  1  0  0  0  0
  9 10  1  0  0  0  0
  9  8  1  0  0  0  0
 11  9  2  0  0  0  0
 12 11  1  0  0  0  0
 13  4  2  0  0  0  0
 13 11  1  0  0  0  0
 14 15  1  0  0  0  0
 16 15  1  0  0  0  0
 17 16  1  0  0  0  0
 18 17  1  0  0  0  0
 18 19  1  0  0  0  0
 19 14  1  0  0  0  0
 20 10  1  0  0  0  0
 21 12  1  0  0  0  0
M  END
>  <CHROM.1>
-123.66901462,82.49622050,105.75921059,-5.46632815,5.58115507,3.12756734
1.39667735,-0.72022669,-0.77160881

>  <Name>
lig.pdb

>  <RI>
2.75338e+07

>  <Rbt.Current_Directory>
/home/itssahil/PROJECTS/Mol_Feturizer/New_Systems/rnas/2lwk

>  <Rbt.Executable>
rbdock ($Id: //depot/dev/client3/rdock/2013.1/src/exe/rbdock.cxx#4 $)

>  <Rbt.Library>
libRbt.so (2013.1, Build901 2013/11/27)

>  <Rbt.Parameter_File>
/export/apps/rDock/src/rDock_2013.1_src/data/scripts/dock_solv.prm

>  <Rbt.Receptor>
prm/pocket_docking_8.prm

>  <SCORE>
-18.1061

>  <SCORE.INTER>
-14.2608

>  <SCORE.INTER.CONST>
1

>  <SCORE.INTER.POLAR>
-1.53635

>  <SCORE.INTER.ROT>
3

>  <SCORE.INTER.SOLV>
6.80836

>  <SCORE.INTER.VDW>
-12.2555

>  <SCORE.INTER.norm>
-0.679085

>  <SCORE.INTRA>
-3.84534

>  <SCORE.INTRA.DIHEDRAL>
0.70967

>  <SCORE.INTRA.DIHEDRAL.0>
8.84257

>  <SCORE.INTRA.POLAR>
0

>  <SCORE.INTRA.POLAR.0>
0

>  <SCORE.INTRA.REPUL>
0

>  <SCORE.INTRA.REPUL.0>
0

>  <SCORE.INTRA.SOLV>
0.0876727

>  <SCORE.INTRA.SOLV.lig_0>
-17.1313

>  <SCORE.INTRA.VDW>
-4.24401

>  <SCORE.INTRA.VDW.0>
6.34071

>  <SCORE.INTRA.norm>
-0.183112

>  <SCORE.RESTR>
0

>  <SCORE.RESTR.CAVITY>
0

>  <SCORE.RESTR.norm>
0

>  <SCORE.SYSTEM>
0

>  <SCORE.SYSTEM.CONST>
0

>  <SCORE.SYSTEM.DIHEDRAL>
0

>  <SCORE.SYSTEM.SOLV>
0

>  <SCORE.SYSTEM.norm>
0

>  <SCORE.heavy>
21

>  <SCORE.norm>
-0.862197

>  <RMSD>
7.488

$$$$
lig.pdb
 OpenBabel11021811453D
libRbt.so/2013.1/901 2013/11/27
 21 23  0  0  0  0  0  0  0  0999 V2000
   -6.7071    1.3240    7.4769 C   0  0  0  0  0  0  0  0  0  0  0  0
   -6.9152    1.7753    6.2451 N   0  0  0  0  0  0  0  0  0  0  0  0
   -6.2815    2.8541    5.8214 C   0  0  0  0  0  0  0  0  0  0  0  0
   -5.4774    3.5349    6.6628 C   0  0  0  0  0  0  0  0  0  0  0  0
   -5.2671    3.0746    7.9033 C   0  0  0  0  0  0  0  0  0  0  0  0
   -4.4782    3.7437    8.7432 N   0  0  0  0  0  0  0  0  0  0  0  0
   -5.8866    1.9700    8.3064 N   0  0  0  0  0  0  0  0  0  0  0  0
   -6.4795    3.2907    4.5664 C   0  0  0  0  0  0  0  0  0  0  0  0
   -5.9632    4.5018    4.1936 C   0  0  0  0  0  0  0  0  0  0  0  0
   -6.7595    5.3305    3.3677 O   0  0  0  0  0  0  0  0  0  0  0  0
   -5.0190    5.0597    4.9692 C   0  0  0  0  0  0  0  0  0  0  0  0
   -4.1419    6.0332    4.4204 O   0  0  0  0  0  0  0  0  0  0  0  0
   -4.8515    4.6420    6.2393 C   0  0  0  0  0  0  0  0  0  0  0  0
   -7.3342    0.2342    7.8848 N   0  0  0  0  0  0  0  0  0  0  0  0
   -6.9702   -0.2511    9.0757 C   0  0  0  0  0  0  0  0  0  0  0  0
   -5.6754   -1.0388    8.9444 C   0  0  0  0  0  0  0  0  0  0  0  0
   -5.8631   -2.0980    8.0808 N   0  0  0  0  0  0  0  0  0  0  0  0
   -6.1965   -1.5682    6.8534 C   0  0  0  0  0  0  0  0  0  0  0  0
   -7.4923   -0.7846    6.9804 C   0  0  0  0  0  0  0  0  0  0  0  0
   -6.5178    4.9749    2.0304 C   0  0  0  0  0  0  0  0  0  0  0  0
   -2.9789    5.3890    3.9702 C   0  0  0  0  0  0  0  0  0  0  0  0
  1 14  1  0  0  0  0
  1  2  2  0  0  0  0
  3  2  1  0  0  0  0
  3  8  2  0  0  0  0
  4  3  1  0  0  0  0
  5  7  2  0  0  0  0
  5  4  1  0  0  0  0
  6  5  1  0  0  0  0
  7  1  1  0  0  0  0
  9 10  1  0  0  0  0
  9  8  1  0  0  0  0
 11  9  2  0  0  0  0
 12 11  1  0  0  0  0
 13  4  2  0  0  0  0
 13 11  1  0  0  0  0
 14 15  1  0  0  0  0
 16 15  1  0  0  0  0
 17 16  1  0  0  0  0
 18 17  1  0  0  0  0
 18 19  1  0  0  0  0
 19 14  1  0  0  0  0
 20 10  1  0  0  0  0
 21 12  1  0  0  0  0
M  END
>  <CHROM.1>
172.75944706,-86.99372990,-93.30788488,-5.85061094,2.48199895,6.30303095
1.86348116,0.92145804,2.29535844

>  <Name>
lig.pdb

>  <RI>
2.98315e+07

>  <Rbt.Current_Directory>
/home/itssahil/PROJECTS/Mol_Feturizer/New_Systems/rnas/2lwk

>  <Rbt.Executable>
rbdock ($Id: //depot/dev/client3/rdock/2013.1/src/exe/rbdock.cxx#4 $)

>  <Rbt.Library>
libRbt.so (2013.1, Build901 2013/11/27)

>  <Rbt.Parameter_File>
/export/apps/rDock/src/rDock_2013.1_src/data/scripts/dock_solv.prm

>  <Rbt.Receptor>
prm/pocket_docking_5.prm

>  <SCORE>
-19.8722

>  <SCORE.INTER>
-16.5417

>  <SCORE.INTER.CONST>
1

>  <SCORE.INTER.POLAR>
-1.78167

>  <SCORE.INTER.ROT>
3

>  <SCORE.INTER.SOLV>
6.72037

>  <SCORE.INTER.VDW>
-12.929

>  <SCORE.INTER.norm>
-0.787701

>  <SCORE.INTRA>
-3.33051

>  <SCORE.INTRA.DIHEDRAL>
0.682248

>  <SCORE.INTRA.DIHEDRAL.0>
8.84257

>  <SCORE.INTRA.POLAR>
0

>  <SCORE.INTRA.POLAR.0>
0

>  <SCORE.INTRA.REPUL>
0

>  <SCORE.INTRA.REPUL.0>
0

>  <SCORE.INTRA.SOLV>
-0.0551318

>  <SCORE.INTRA.SOLV.lig_0>
-17.1313

>  <SCORE.INTRA.VDW>
-3.64407

>  <SCORE.INTRA.VDW.0>
6.34071

>  <SCORE.INTRA.norm>
-0.158596

>  <SCORE.RESTR>
0

>  <SCORE.RESTR.CAVITY>
0

>  <SCORE.RESTR.norm>
0

>  <SCORE.SYSTEM>
0

>  <SCORE.SYSTEM.CONST>
0

>  <SCORE.SYSTEM.DIHEDRAL>
0

>  <SCORE.SYSTEM.SOLV>
0

>  <SCORE.SYSTEM.norm>
0

>  <SCORE.heavy>
21

>  <SCORE.norm>
-0.946297

>  <RMSD>
7.578

$$$$
lig.pdb
 OpenBabel11021811453D
libRbt.so/2013.1/901 2013/11/27
 21 23  0  0  0  0  0  0  0  0999 V2000
   -4.4506    7.6219    2.7749 C   0  0  0  0  0  0  0  0  0  0  0  0
   -5.5336    6.9003    2.5089 N   0  0  0  0  0  0  0  0  0  0  0  0
   -5.7718    5.7923    3.1875 C   0  0  0  0  0  0  0  0  0  0  0  0
   -4.8797    5.3590    4.1010 C   0  0  0  0  0  0  0  0  0  0  0  0
   -3.7904    6.0913    4.3692 C   0  0  0  0  0  0  0  0  0  0  0  0
   -2.9009    5.6682    5.2666 N   0  0  0  0  0  0  0  0  0  0  0  0
   -3.5790    7.2207    3.7013 N   0  0  0  0  0  0  0  0  0  0  0  0
   -6.8814    5.0806    2.9286 C   0  0  0  0  0  0  0  0  0  0  0  0
   -7.0312    3.8482    3.5041 C   0  0  0  0  0  0  0  0  0  0  0  0
   -7.5860    2.8150    2.7118 O   0  0  0  0  0  0  0  0  0  0  0  0
   -6.2420    3.5281    4.5428 C   0  0  0  0  0  0  0  0  0  0  0  0
   -6.6462    2.5089    5.4462 O   0  0  0  0  0  0  0  0  0  0  0  0
   -5.1110    4.2230    4.7739 C   0  0  0  0  0  0  0  0  0  0  0  0
   -4.2307    8.7375    2.1010 N   0  0  0  0  0  0  0  0  0  0  0  0
   -5.2526    9.5951    2.0201 C   0  0  0  0  0  0  0  0  0  0  0  0
   -6.2344    9.1372    0.9522 C   0  0  0  0  0  0  0  0  0  0  0  0
   -5.6011    9.0969   -0.2727 N   0  0  0  0  0  0  0  0  0  0  0  0
   -4.5803    8.1769   -0.1728 C   0  0  0  0  0  0  0  0  0  0  0  0
   -3.5951    8.6340    0.8901 C   0  0  0  0  0  0  0  0  0  0  0  0
   -6.6875    2.5348    1.6690 C   0  0  0  0  0  0  0  0  0  0  0  0
   -6.0172    1.3082    5.0816 C   0  0  0  0  0  0  0  0  0  0  0  0
  1 14  1  0  0  0  0
  1  2  2  0  0  0  0
  3  2  1  0  0  0  0
  3  8  2  0  0  0  0
  4  3  1  0  0  0  0
  5  7  2  0  0  0  0
  5  4  1  0  0  0  0
  6  5  1  0  0  0  0
  7  1  1  0  0  0  0
  9 10  1  0  0  0  0
  9  8  1  0  0  0  0
 11  9  2  0  0  0  0
 12 11  1  0  0  0  0
 13  4  2  0  0  0  0
 13 11  1  0  0  0  0
 14 15  1  0  0  0  0
 16 15  1  0  0  0  0
 17 16  1  0  0  0  0
 18 17  1  0  0  0  0
 18 19  1  0  0  0  0
 19 14  1  0  0  0  0
 20 10  1  0  0  0  0
 21 12  1  0  0  0  0
M  END
>  <CHROM.1>
49.51791775,65.65426090,97.48908779,-5.36952809,5.86868652,2.94108583,-1.26235332
0.75985600,2.44335554

>  <Name>
lig.pdb

>  <RI>
2.20372e+07

>  <Rbt.Current_Directory>
/home/itssahil/PROJECTS/Mol_Feturizer/New_Systems/rnas/2lwk

>  <Rbt.Executable>
rbdock ($Id: //depot/dev/client3/rdock/2013.1/src/exe/rbdock.cxx#4 $)

>  <Rbt.Library>
libRbt.so (2013.1, Build901 2013/11/27)

>  <Rbt.Parameter_File>
/export/apps/rDock/src/rDock_2013.1_src/data/scripts/dock_solv.prm

>  <Rbt.Receptor>
prm/pocket_docking_7.prm

>  <SCORE>
-23.8155

>  <SCORE.INTER>
-20.6632

>  <SCORE.INTER.CONST>
1

>  <SCORE.INTER.POLAR>
-2.85104

>  <SCORE.INTER.ROT>
3

>  <SCORE.INTER.SOLV>
8.40367

>  <SCORE.INTER.VDW>
-12.6732

>  <SCORE.INTER.norm>
-0.983963

>  <SCORE.INTRA>
-3.1904

>  <SCORE.INTRA.DIHEDRAL>
0.787714

>  <SCORE.INTRA.DIHEDRAL.0>
8.84257

>  <SCORE.INTRA.POLAR>
0

>  <SCORE.INTRA.POLAR.0>
0

>  <SCORE.INTRA.REPUL>
0

>  <SCORE.INTRA.REPUL.0>
0

>  <SCORE.INTRA.SOLV>
0.103286

>  <SCORE.INTRA.SOLV.lig_0>
-17.1313

>  <SCORE.INTRA.VDW>
-3.6359

>  <SCORE.INTRA.VDW.0>
6.34071

>  <SCORE.INTRA.norm>
-0.151924

>  <SCORE.RESTR>
0.0381188

>  <SCORE.RESTR.CAVITY>
0.0381188

>  <SCORE.RESTR.norm>
0.00181518

>  <SCORE.SYSTEM>
0

>  <SCORE.SYSTEM.CONST>
0

>  <SCORE.SYSTEM.DIHEDRAL>
0

>  <SCORE.SYSTEM.SOLV>
0

>  <SCORE.SYSTEM.norm>
0

>  <SCORE.heavy>
21

>  <SCORE.norm>
-1.13407

>  <RMSD>
7.584

$$$$
lig.pdb
 OpenBabel11021811453D
libRbt.so/2013.1/901 2013/11/27
 21 23  0  0  0  0  0  0  0  0999 V2000
   -3.5723    6.1531    1.6170 C   0  0  0  0  0  0  0  0  0  0  0  0
   -4.6665    5.4018    1.5666 N   0  0  0  0  0  0  0  0  0  0  0  0
   -5.1487    4.8625    2.6718 C   0  0  0  0  0  0  0  0  0  0  0  0
   -4.4903    5.0184    3.8381 C   0  0  0  0  0  0  0  0  0  0  0  0
   -3.3890    5.7798    3.8858 C   0  0  0  0  0  0  0  0  0  0  0  0
   -2.7291    5.9352    5.0329 N   0  0  0  0  0  0  0  0  0  0  0  0
   -2.9324    6.3427    2.7718 N   0  0  0  0  0  0  0  0  0  0  0  0
   -6.2691    4.1234    2.6160 C   0  0  0  0  0  0  0  0  0  0  0  0
   -6.6609    3.4237    3.7247 C   0  0  0  0  0  0  0  0  0  0  0  0
   -7.1812    2.1218    3.5314 O   0  0  0  0  0  0  0  0  0  0  0  0
   -6.1123    3.7430    4.9085 C   0  0  0  0  0  0  0  0  0  0  0  0
   -6.7865    3.4025    6.1117 O   0  0  0  0  0  0  0  0  0  0  0  0
   -4.9679    4.4528    4.9555 C   0  0  0  0  0  0  0  0  0  0  0  0
   -3.1079    6.7012    0.5075 N   0  0  0  0  0  0  0  0  0  0  0  0
   -1.9084    6.2817    0.0934 C   0  0  0  0  0  0  0  0  0  0  0  0
   -0.8113    6.9641    0.8961 C   0  0  0  0  0  0  0  0  0  0  0  0
   -0.8832    8.3293    0.7116 N   0  0  0  0  0  0  0  0  0  0  0  0
   -2.1108    8.7396    1.1838 C   0  0  0  0  0  0  0  0  0  0  0  0
   -3.2091    8.0630    0.3805 C   0  0  0  0  0  0  0  0  0  0  0  0
   -6.1018    1.2246    3.4755 C   0  0  0  0  0  0  0  0  0  0  0  0
   -6.0123    2.4641    6.8120 C   0  0  0  0  0  0  0  0  0  0  0  0
  1 14  1  0  0  0  0
  1  2  2  0  0  0  0
  3  2  1  0  0  0  0
  3  8  2  0  0  0  0
  4  3  1  0  0  0  0
  5  7  2  0  0  0  0
  5  4  1  0  0  0  0
  6  5  1  0  0  0  0
  7  1  1  0  0  0  0
  9 10  1  0  0  0  0
  9  8  1  0  0  0  0
 11  9  2  0  0  0  0
 12 11  1  0  0  0  0
 13  4  2  0  0  0  0
 13 11  1  0  0  0  0
 14 15  1  0  0  0  0
 16 15  1  0  0  0  0
 17 16  1  0  0  0  0
 18 17  1  0  0  0  0
 18 19  1  0  0  0  0
 19 14  1  0  0  0  0
 20 10  1  0  0  0  0
 21 12  1  0  0  0  0
M  END
>  <CHROM.1>
-115.12202916,85.22451146,114.94580149,-4.22895495,5.19847082,2.93955765
0.62853562,-0.76891372,-1.46944014

>  <Name>
lig.pdb

>  <RI>
2.75338e+07

>  <Rbt.Current_Directory>
/home/itssahil/PROJECTS/Mol_Feturizer/New_Systems/rnas/2lwk

>  <Rbt.Executable>
rbdock ($Id: //depot/dev/client3/rdock/2013.1/src/exe/rbdock.cxx#4 $)

>  <Rbt.Library>
libRbt.so (2013.1, Build901 2013/11/27)

>  <Rbt.Parameter_File>
/export/apps/rDock/src/rDock_2013.1_src/data/scripts/dock_solv.prm

>  <Rbt.Receptor>
prm/pocket_docking_8.prm

>  <SCORE>
-22.6691

>  <SCORE.INTER>
-18.8037

>  <SCORE.INTER.CONST>
1

>  <SCORE.INTER.POLAR>
-2.35835

>  <SCORE.INTER.ROT>
3

>  <SCORE.INTER.SOLV>
7.12344

>  <SCORE.INTER.VDW>
-12.6491

>  <SCORE.INTER.norm>
-0.895415

>  <SCORE.INTRA>
-3.86534

>  <SCORE.INTRA.DIHEDRAL>
0.212384

>  <SCORE.INTRA.DIHEDRAL.0>
8.84257

>  <SCORE.INTRA.POLAR>
0

>  <SCORE.INTRA.POLAR.0>
0

>  <SCORE.INTRA.REPUL>
0

>  <SCORE.INTRA.REPUL.0>
0

>  <SCORE.INTRA.SOLV>
0.0807717

>  <SCORE.INTRA.SOLV.lig_0>
-17.1313

>  <SCORE.INTRA.VDW>
-4.01192

>  <SCORE.INTRA.VDW.0>
6.34071

>  <SCORE.INTRA.norm>
-0.184064

>  <SCORE.RESTR>
0

>  <SCORE.RESTR.CAVITY>
0

>  <SCORE.RESTR.norm>
0

>  <SCORE.SYSTEM>
0

>  <SCORE.SYSTEM.CONST>
0

>  <SCORE.SYSTEM.DIHEDRAL>
0

>  <SCORE.SYSTEM.SOLV>
0

>  <SCORE.SYSTEM.norm>
0

>  <SCORE.heavy>
21

>  <SCORE.norm>
-1.07948

>  <RMSD>
7.595

$$$$
lig.pdb
 OpenBabel11021811453D
libRbt.so/2013.1/901 2013/11/27
 21 23  0  0  0  0  0  0  0  0999 V2000
   -4.4339    7.6571    2.7367 C   0  0  0  0  0  0  0  0  0  0  0  0
   -5.5195    6.9487    2.4475 N   0  0  0  0  0  0  0  0  0  0  0  0
   -5.7717    5.8298    3.1027 C   0  0  0  0  0  0  0  0  0  0  0  0
   -4.8910    5.3727    4.0157 C   0  0  0  0  0  0  0  0  0  0  0  0
   -3.7989    6.0919    4.3074 C   0  0  0  0  0  0  0  0  0  0  0  0
   -2.9207    5.6454    5.2045 N   0  0  0  0  0  0  0  0  0  0  0  0
   -3.5735    7.2322    3.6630 N   0  0  0  0  0  0  0  0  0  0  0  0
   -6.8840    5.1312    2.8205 C   0  0  0  0  0  0  0  0  0  0  0  0
   -7.0478    3.8893    3.3711 C   0  0  0  0  0  0  0  0  0  0  0  0
   -7.6028    2.8754    2.5544 O   0  0  0  0  0  0  0  0  0  0  0  0
   -6.2703    3.5438    4.4105 C   0  0  0  0  0  0  0  0  0  0  0  0
   -6.6898    2.5106    5.2907 O   0  0  0  0  0  0  0  0  0  0  0  0
   -5.1364    4.2259    4.6648 C   0  0  0  0  0  0  0  0  0  0  0  0
   -4.1999    8.7837    2.0861 N   0  0  0  0  0  0  0  0  0  0  0  0
   -5.2178    9.6459    2.0041 C   0  0  0  0  0  0  0  0  0  0  0  0
   -6.1839    9.2100    0.9128 C   0  0  0  0  0  0  0  0  0  0  0  0
   -5.5312    9.1891   -0.3023 N   0  0  0  0  0  0  0  0  0  0  0  0
   -4.5148    8.2642   -0.2024 C   0  0  0  0  0  0  0  0  0  0  0  0
   -3.5454    8.6994    0.8839 C   0  0  0  0  0  0  0  0  0  0  0  0
   -6.6791    2.5795    1.5383 C   0  0  0  0  0  0  0  0  0  0  0  0
   -6.0809    1.3086    4.8974 C   0  0  0  0  0  0  0  0  0  0  0  0
  1 14  1  0  0  0  0
  1  2  2  0  0  0  0
  3  2  1  0  0  0  0
  3  8  2  0  0  0  0
  4  3  1  0  0  0  0
  5  7  2  0  0  0  0
  5  4  1  0  0  0  0
  6  5  1  0  0  0  0
  7  1  1  0  0  0  0
  9 10  1  0  0  0  0
  9  8  1  0  0  0  0
 11  9  2  0  0  0  0
 12 11  1  0  0  0  0
 13  4  2  0  0  0  0
 13 11  1  0  0  0  0
 14 15  1  0  0  0  0
 16 15  1  0  0  0  0
 17 16  1  0  0  0  0
 18 17  1  0  0  0  0
 18 19  1  0  0  0  0
 19 14  1  0  0  0  0
 20 10  1  0  0  0  0
 21 12  1  0  0  0  0
M  END
>  <CHROM.1>
49.04665111,67.43155965,96.66317459,-5.36430701,5.90485799,2.86053440,-1.24438155
0.76296821,2.44969844

>  <Name>
lig.pdb

>  <RI>
2.75338e+07

>  <Rbt.Current_Directory>
/home/itssahil/PROJECTS/Mol_Feturizer/New_Systems/rnas/2lwk

>  <Rbt.Executable>
rbdock ($Id: //depot/dev/client3/rdock/2013.1/src/exe/rbdock.cxx#4 $)

>  <Rbt.Library>
libRbt.so (2013.1, Build901 2013/11/27)

>  <Rbt.Parameter_File>
/export/apps/rDock/src/rDock_2013.1_src/data/scripts/dock_solv.prm

>  <Rbt.Receptor>
prm/pocket_docking_8.prm

>  <SCORE>
-24.105

>  <SCORE.INTER>
-20.8308

>  <SCORE.INTER.CONST>
1

>  <SCORE.INTER.POLAR>
-2.82019

>  <SCORE.INTER.ROT>
3

>  <SCORE.INTER.SOLV>
8.24528

>  <SCORE.INTER.VDW>
-12.835

>  <SCORE.INTER.norm>
-0.991945

>  <SCORE.INTRA>
-3.27415

>  <SCORE.INTRA.DIHEDRAL>
0.851937

>  <SCORE.INTRA.DIHEDRAL.0>
8.84257

>  <SCORE.INTRA.POLAR>
0

>  <SCORE.INTRA.POLAR.0>
0

>  <SCORE.INTRA.REPUL>
0

>  <SCORE.INTRA.REPUL.0>
0

>  <SCORE.INTRA.SOLV>
0.102946

>  <SCORE.INTRA.SOLV.lig_0>
-17.1313

>  <SCORE.INTRA.VDW>
-3.75159

>  <SCORE.INTRA.VDW.0>
6.34071

>  <SCORE.INTRA.norm>
-0.155912

>  <SCORE.RESTR>
0

>  <SCORE.RESTR.CAVITY>
0

>  <SCORE.RESTR.norm>
0

>  <SCORE.SYSTEM>
0

>  <SCORE.SYSTEM.CONST>
0

>  <SCORE.SYSTEM.DIHEDRAL>
0

>  <SCORE.SYSTEM.SOLV>
0

>  <SCORE.SYSTEM.norm>
0

>  <SCORE.heavy>
21

>  <SCORE.norm>
-1.14786

>  <RMSD>
7.611

$$$$
lig.pdb
 OpenBabel11021811453D
libRbt.so/2013.1/901 2013/11/27
 21 23  0  0  0  0  0  0  0  0999 V2000
   -4.4247    7.6591    2.7364 C   0  0  0  0  0  0  0  0  0  0  0  0
   -5.5111    6.9520    2.4466 N   0  0  0  0  0  0  0  0  0  0  0  0
   -5.7652    5.8335    3.1018 C   0  0  0  0  0  0  0  0  0  0  0  0
   -4.8856    5.3755    4.0155 C   0  0  0  0  0  0  0  0  0  0  0  0
   -3.7929    6.0933    4.3077 C   0  0  0  0  0  0  0  0  0  0  0  0
   -2.9157    5.6459    5.2055 N   0  0  0  0  0  0  0  0  0  0  0  0
   -3.5656    7.2332    3.6633 N   0  0  0  0  0  0  0  0  0  0  0  0
   -6.8781    5.1363    2.8191 C   0  0  0  0  0  0  0  0  0  0  0  0
   -7.0439    3.8947    3.3698 C   0  0  0  0  0  0  0  0  0  0  0  0
   -7.5996    2.8813    2.5528 O   0  0  0  0  0  0  0  0  0  0  0  0
   -6.2675    3.5484    4.4097 C   0  0  0  0  0  0  0  0  0  0  0  0
   -6.6889    2.5159    5.2899 O   0  0  0  0  0  0  0  0  0  0  0  0
   -5.1329    4.2292    4.6646 C   0  0  0  0  0  0  0  0  0  0  0  0
   -4.1889    8.7853    2.0858 N   0  0  0  0  0  0  0  0  0  0  0  0
   -5.2193    9.6272    1.9607 C   0  0  0  0  0  0  0  0  0  0  0  0
   -6.1374    9.1652    0.8392 C   0  0  0  0  0  0  0  0  0  0  0  0
   -5.4414    9.1481   -0.3517 N   0  0  0  0  0  0  0  0  0  0  0  0
   -4.4120    8.2435   -0.2084 C   0  0  0  0  0  0  0  0  0  0  0  0
   -3.4904    8.7049    0.9083 C   0  0  0  0  0  0  0  0  0  0  0  0
   -6.6865    2.6019    1.5227 C   0  0  0  0  0  0  0  0  0  0  0  0
   -6.0892    1.3111    4.8911 C   0  0  0  0  0  0  0  0  0  0  0  0
  1 14  1  0  0  0  0
  1  2  2  0  0  0  0
  3  2  1  0  0  0  0
  3  8  2  0  0  0  0
  4  3  1  0  0  0  0
  5  7  2  0  0  0  0
  5  4  1  0  0  0  0
  6  5  1  0  0  0  0
  7  1  1  0  0  0  0
  9 10  1  0  0  0  0
  9  8  1  0  0  0  0
 11  9  2  0  0  0  0
 12 11  1  0  0  0  0
 13  4  2  0  0  0  0
 13 11  1  0  0  0  0
 14 15  1  0  0  0  0
 16 15  1  0  0  0  0
 17 16  1  0  0  0  0
 18 17  1  0  0  0  0
 18 19  1  0  0  0  0
 19 14  1  0  0  0  0
 20 10  1  0  0  0  0
 21 12  1  0  0  0  0
M  END
>  <CHROM.1>
46.68975284,66.34021187,96.22708809,-5.34697227,5.90235628,2.85172459,-1.23240992
0.76528897,2.43573206

>  <Name>
lig.pdb

>  <RI>
2.75338e+07

>  <Rbt.Current_Directory>
/home/itssahil/PROJECTS/Mol_Feturizer/New_Systems/rnas/2lwk

>  <Rbt.Executable>
rbdock ($Id: //depot/dev/client3/rdock/2013.1/src/exe/rbdock.cxx#4 $)

>  <Rbt.Library>
libRbt.so (2013.1, Build901 2013/11/27)

>  <Rbt.Parameter_File>
/export/apps/rDock/src/rDock_2013.1_src/data/scripts/dock_solv.prm

>  <Rbt.Receptor>
prm/pocket_docking_8.prm

>  <SCORE>
-24.1456

>  <SCORE.INTER>
-21.0185

>  <SCORE.INTER.CONST>
1

>  <SCORE.INTER.POLAR>
-2.82154

>  <SCORE.INTER.ROT>
3

>  <SCORE.INTER.SOLV>
8.22687

>  <SCORE.INTER.VDW>
-12.9495

>  <SCORE.INTER.norm>
-1.00088

>  <SCORE.INTRA>
-3.12716

>  <SCORE.INTRA.DIHEDRAL>
0.82733

>  <SCORE.INTRA.DIHEDRAL.0>
8.84257

>  <SCORE.INTRA.POLAR>
0

>  <SCORE.INTRA.POLAR.0>
0

>  <SCORE.INTRA.REPUL>
0

>  <SCORE.INTRA.REPUL.0>
0

>  <SCORE.INTRA.SOLV>
0.102253

>  <SCORE.INTRA.SOLV.lig_0>
-17.1313

>  <SCORE.INTRA.VDW>
-3.59195

>  <SCORE.INTRA.VDW.0>
6.34071

>  <SCORE.INTRA.norm>
-0.148912

>  <SCORE.RESTR>
0

>  <SCORE.RESTR.CAVITY>
0

>  <SCORE.RESTR.norm>
0

>  <SCORE.SYSTEM>
0

>  <SCORE.SYSTEM.CONST>
0

>  <SCORE.SYSTEM.DIHEDRAL>
0

>  <SCORE.SYSTEM.SOLV>
0

>  <SCORE.SYSTEM.norm>
0

>  <SCORE.heavy>
21

>  <SCORE.norm>
-1.14979

>  <RMSD>
7.615

$$$$
lig.pdb
 OpenBabel11021811453D
libRbt.so/2013.1/901 2013/11/27
 21 23  0  0  0  0  0  0  0  0999 V2000
   -6.1801    3.1878    5.3303 C   0  0  0  0  0  0  0  0  0  0  0  0
   -6.8768    3.3601    4.2126 N   0  0  0  0  0  0  0  0  0  0  0  0
   -6.4909    4.2603    3.3263 C   0  0  0  0  0  0  0  0  0  0  0  0
   -5.4307    5.0508    3.5893 C   0  0  0  0  0  0  0  0  0  0  0  0
   -4.7283    4.8715    4.7160 C   0  0  0  0  0  0  0  0  0  0  0  0
   -3.6823    5.6514    4.9866 N   0  0  0  0  0  0  0  0  0  0  0  0
   -5.1089    3.9404    5.5847 N   0  0  0  0  0  0  0  0  0  0  0  0
   -7.1874    4.4123    2.1876 C   0  0  0  0  0  0  0  0  0  0  0  0
   -6.8914    5.4617    1.3611 C   0  0  0  0  0  0  0  0  0  0  0  0
   -7.9707    6.1390    0.7451 O   0  0  0  0  0  0  0  0  0  0  0  0
   -5.7269    6.1069    1.5399 C   0  0  0  0  0  0  0  0  0  0  0  0
   -5.1665    6.8573    0.4717 O   0  0  0  0  0  0  0  0  0  0  0  0
   -5.0526    5.9791    2.6995 C   0  0  0  0  0  0  0  0  0  0  0  0
   -6.5659    2.2727    6.2027 N   0  0  0  0  0  0  0  0  0  0  0  0
   -6.5632    2.6377    7.4883 C   0  0  0  0  0  0  0  0  0  0  0  0
   -5.1485    2.5790    8.0443 C   0  0  0  0  0  0  0  0  0  0  0  0
   -4.6695    1.2883    7.9565 N   0  0  0  0  0  0  0  0  0  0  0  0
   -4.6444    0.9536    6.6202 C   0  0  0  0  0  0  0  0  0  0  0  0
   -6.0572    1.0068    6.0630 C   0  0  0  0  0  0  0  0  0  0  0  0
   -8.1489    5.5984   -0.5391 C   0  0  0  0  0  0  0  0  0  0  0  0
   -5.5114    8.2075    0.6401 C   0  0  0  0  0  0  0  0  0  0  0  0
  1 14  1  0  0  0  0
  1  2  2  0  0  0  0
  3  2  1  0  0  0  0
  3  8  2  0  0  0  0
  4  3  1  0  0  0  0
  5  7  2  0  0  0  0
  5  4  1  0  0  0  0
  6  5  1  0  0  0  0
  7  1  1  0  0  0  0
  9 10  1  0  0  0  0
  9  8  1  0  0  0  0
 11  9  2  0  0  0  0
 12 11  1  0  0  0  0
 13  4  2  0  0  0  0
 13 11  1  0  0  0  0
 14 15  1  0  0  0  0
 16 15  1  0  0  0  0
 17 16  1  0  0  0  0
 18 17  1  0  0  0  0
 18 19  1  0  0  0  0
 19 14  1  0  0  0  0
 20 10  1  0  0  0  0
 21 12  1  0  0  0  0
M  END
>  <CHROM.1>
-135.50435368,-95.80975504,97.39419944,-5.88783380,4.29576406,3.95146393
1.39860394,0.63103787,2.28938303

>  <Name>
lig.pdb

>  <RI>
2.75338e+07

>  <Rbt.Current_Directory>
/home/itssahil/PROJECTS/Mol_Feturizer/New_Systems/rnas/2lwk

>  <Rbt.Executable>
rbdock ($Id: //depot/dev/client3/rdock/2013.1/src/exe/rbdock.cxx#4 $)

>  <Rbt.Library>
libRbt.so (2013.1, Build901 2013/11/27)

>  <Rbt.Parameter_File>
/export/apps/rDock/src/rDock_2013.1_src/data/scripts/dock_solv.prm

>  <Rbt.Receptor>
prm/pocket_docking_8.prm

>  <SCORE>
-26.0587

>  <SCORE.INTER>
-21.1606

>  <SCORE.INTER.CONST>
1

>  <SCORE.INTER.POLAR>
-2.60281

>  <SCORE.INTER.ROT>
3

>  <SCORE.INTER.SOLV>
6.94378

>  <SCORE.INTER.VDW>
-13.3456

>  <SCORE.INTER.norm>
-1.00765

>  <SCORE.INTRA>
-4.89807

>  <SCORE.INTRA.DIHEDRAL>
0.910303

>  <SCORE.INTRA.DIHEDRAL.0>
8.84257

>  <SCORE.INTRA.POLAR>
0

>  <SCORE.INTRA.POLAR.0>
0

>  <SCORE.INTRA.REPUL>
0

>  <SCORE.INTRA.REPUL.0>
0

>  <SCORE.INTRA.SOLV>
0.126957

>  <SCORE.INTRA.SOLV.lig_0>
-17.1313

>  <SCORE.INTRA.VDW>
-5.4167

>  <SCORE.INTRA.VDW.0>
6.34071

>  <SCORE.INTRA.norm>
-0.233242

>  <SCORE.RESTR>
0

>  <SCORE.RESTR.CAVITY>
0

>  <SCORE.RESTR.norm>
0

>  <SCORE.SYSTEM>
0

>  <SCORE.SYSTEM.CONST>
0

>  <SCORE.SYSTEM.DIHEDRAL>
0

>  <SCORE.SYSTEM.SOLV>
0

>  <SCORE.SYSTEM.norm>
0

>  <SCORE.heavy>
21

>  <SCORE.norm>
-1.24089

>  <RMSD>
7.632

$$$$
lig.pdb
 OpenBabel11021811453D
libRbt.so/2013.1/901 2013/11/27
 21 23  0  0  0  0  0  0  0  0999 V2000
   -5.6140    2.6279    6.3085 C   0  0  0  0  0  0  0  0  0  0  0  0
   -4.7970    3.6037    5.9281 N   0  0  0  0  0  0  0  0  0  0  0  0
   -4.9964    4.2208    4.7773 C   0  0  0  0  0  0  0  0  0  0  0  0
   -5.9872    3.8127    3.9589 C   0  0  0  0  0  0  0  0  0  0  0  0
   -6.8114    2.8306    4.3476 C   0  0  0  0  0  0  0  0  0  0  0  0
   -7.7900    2.4174    3.5431 N   0  0  0  0  0  0  0  0  0  0  0  0
   -6.6188    2.2395    5.5222 N   0  0  0  0  0  0  0  0  0  0  0  0
   -4.1797    5.2225    4.4106 C   0  0  0  0  0  0  0  0  0  0  0  0
   -4.2802    5.7342    3.1456 C   0  0  0  0  0  0  0  0  0  0  0  0
   -3.0800    6.0622    2.4711 O   0  0  0  0  0  0  0  0  0  0  0  0
   -5.3814    5.4546    2.4291 C   0  0  0  0  0  0  0  0  0  0  0  0
   -5.7516    6.2994    1.3486 O   0  0  0  0  0  0  0  0  0  0  0  0
   -6.1756    4.4247    2.7813 C   0  0  0  0  0  0  0  0  0  0  0  0
   -5.4148    2.0284    7.4696 N   0  0  0  0  0  0  0  0  0  0  0  0
   -5.7495    2.7214    8.5622 C   0  0  0  0  0  0  0  0  0  0  0  0
   -4.6621    3.7328    8.8919 C   0  0  0  0  0  0  0  0  0  0  0  0
   -3.4761    3.0735    9.1401 N   0  0  0  0  0  0  0  0  0  0  0  0
   -3.1345    2.4022    7.9863 C   0  0  0  0  0  0  0  0  0  0  0  0
   -4.2168    1.3877    7.6570 C   0  0  0  0  0  0  0  0  0  0  0  0
   -3.0281    7.4585    2.3271 C   0  0  0  0  0  0  0  0  0  0  0  0
   -5.3401    5.7011    0.1473 C   0  0  0  0  0  0  0  0  0  0  0  0
  1 14  1  0  0  0  0
  1  2  2  0  0  0  0
  3  2  1  0  0  0  0
  3  8  2  0  0  0  0
  4  3  1  0  0  0  0
  5  7  2  0  0  0  0
  5  4  1  0  0  0  0
  6  5  1  0  0  0  0
  7  1  1  0  0  0  0
  9 10  1  0  0  0  0
  9  8  1  0  0  0  0
 11  9  2  0  0  0  0
 12 11  1  0  0  0  0
 13  4  2  0  0  0  0
 13 11  1  0  0  0  0
 14 15  1  0  0  0  0
 16 15  1  0  0  0  0
 17 16  1  0  0  0  0
 18 17  1  0  0  0  0
 18 19  1  0  0  0  0
 19 14  1  0  0  0  0
 20 10  1  0  0  0  0
 21 12  1  0  0  0  0
M  END
>  <CHROM.1>
74.22822255,-112.31140198,100.21012114,-5.05185805,3.99431719,4.89177596
1.54043088,0.61810741,2.08704546

>  <Name>
lig.pdb

>  <RI>
2.59814e+07

>  <Rbt.Current_Directory>
/home/itssahil/PROJECTS/Mol_Feturizer/New_Systems/rnas/2lwk

>  <Rbt.Executable>
rbdock ($Id: //depot/dev/client3/rdock/2013.1/src/exe/rbdock.cxx#4 $)

>  <Rbt.Library>
libRbt.so (2013.1, Build901 2013/11/27)

>  <Rbt.Parameter_File>
/export/apps/rDock/src/rDock_2013.1_src/data/scripts/dock_solv.prm

>  <Rbt.Receptor>
prm/pocket_docking_6.prm

>  <SCORE>
-25.6601

>  <SCORE.INTER>
-20.3301

>  <SCORE.INTER.CONST>
1

>  <SCORE.INTER.POLAR>
-2.68143

>  <SCORE.INTER.ROT>
3

>  <SCORE.INTER.SOLV>
7.35218

>  <SCORE.INTER.VDW>
-12.666

>  <SCORE.INTER.norm>
-0.968101

>  <SCORE.INTRA>
-5.32996

>  <SCORE.INTRA.DIHEDRAL>
0.780779

>  <SCORE.INTRA.DIHEDRAL.0>
8.84257

>  <SCORE.INTRA.POLAR>
0

>  <SCORE.INTRA.POLAR.0>
0

>  <SCORE.INTRA.REPUL>
0

>  <SCORE.INTRA.REPUL.0>
0

>  <SCORE.INTRA.SOLV>
0.152188

>  <SCORE.INTRA.SOLV.lig_0>
-17.1313

>  <SCORE.INTRA.VDW>
-5.79645

>  <SCORE.INTRA.VDW.0>
6.34071

>  <SCORE.INTRA.norm>
-0.253808

>  <SCORE.RESTR>
0

>  <SCORE.RESTR.CAVITY>
0

>  <SCORE.RESTR.norm>
0

>  <SCORE.SYSTEM>
0

>  <SCORE.SYSTEM.CONST>
0

>  <SCORE.SYSTEM.DIHEDRAL>
0

>  <SCORE.SYSTEM.SOLV>
0

>  <SCORE.SYSTEM.norm>
0

>  <SCORE.heavy>
21

>  <SCORE.norm>
-1.22191

>  <RMSD>
7.667

$$$$
lig.pdb
 OpenBabel11021811453D
libRbt.so/2013.1/901 2013/11/27
 21 23  0  0  0  0  0  0  0  0999 V2000
   -5.2543    4.3248    5.7616 C   0  0  0  0  0  0  0  0  0  0  0  0
   -6.1922    4.3359    4.8211 N   0  0  0  0  0  0  0  0  0  0  0  0
   -5.9312    4.8543    3.6345 C   0  0  0  0  0  0  0  0  0  0  0  0
   -4.7359    5.4337    3.4026 C   0  0  0  0  0  0  0  0  0  0  0  0
   -3.7912    5.4173    4.3524 C   0  0  0  0  0  0  0  0  0  0  0  0
   -2.6091    5.9919    4.1337 N   0  0  0  0  0  0  0  0  0  0  0  0
   -4.0564    4.8640    5.5313 N   0  0  0  0  0  0  0  0  0  0  0  0
   -6.8775    4.8406    2.6811 C   0  0  0  0  0  0  0  0  0  0  0  0
   -6.6643    5.5348    1.5214 C   0  0  0  0  0  0  0  0  0  0  0  0
   -7.7587    6.2393    0.9655 O   0  0  0  0  0  0  0  0  0  0  0  0
   -5.4135    5.9323    1.2356 C   0  0  0  0  0  0  0  0  0  0  0  0
   -5.0568    6.2227   -0.1085 O   0  0  0  0  0  0  0  0  0  0  0  0
   -4.4792    5.9792    2.2054 C   0  0  0  0  0  0  0  0  0  0  0  0
   -5.5212    3.7886    6.9400 N   0  0  0  0  0  0  0  0  0  0  0  0
   -4.5512    3.8545    7.8571 C   0  0  0  0  0  0  0  0  0  0  0  0
   -3.5117    2.7752    7.5954 C   0  0  0  0  0  0  0  0  0  0  0  0
   -4.1043    1.5320    7.6761 N   0  0  0  0  0  0  0  0  0  0  0  0
   -5.0700    1.4772    6.6949 C   0  0  0  0  0  0  0  0  0  0  0  0
   -6.1126    2.5514    6.9563 C   0  0  0  0  0  0  0  0  0  0  0  0
   -8.1287    5.5985   -0.2286 C   0  0  0  0  0  0  0  0  0  0  0  0
   -4.6431    5.0349   -0.7316 C   0  0  0  0  0  0  0  0  0  0  0  0
  1 14  1  0  0  0  0
  1  2  2  0  0  0  0
  3  2  1  0  0  0  0
  3  8  2  0  0  0  0
  4  3  1  0  0  0  0
  5  7  2  0  0  0  0
  5  4  1  0  0  0  0
  6  5  1  0  0  0  0
  7  1  1  0  0  0  0
  9 10  1  0  0  0  0
  9  8  1  0  0  0  0
 11  9  2  0  0  0  0
 12 11  1  0  0  0  0
 13  4  2  0  0  0  0
 13 11  1  0  0  0  0
 14 15  1  0  0  0  0
 16 15  1  0  0  0  0
 17 16  1  0  0  0  0
 18 17  1  0  0  0  0
 18 19  1  0  0  0  0
 19 14  1  0  0  0  0
 20 10  1  0  0  0  0
 21 12  1  0  0  0  0
M  END
>  <CHROM.1>
-177.59347916,-111.14471948,-87.17232658,-5.25453116,4.59298657,3.92170635
1.34812513,0.31132559,2.05306748

>  <Name>
lig.pdb

>  <RI>
2.59814e+07

>  <Rbt.Current_Directory>
/home/itssahil/PROJECTS/Mol_Feturizer/New_Systems/rnas/2lwk

>  <Rbt.Executable>
rbdock ($Id: //depot/dev/client3/rdock/2013.1/src/exe/rbdock.cxx#4 $)

>  <Rbt.Library>
libRbt.so (2013.1, Build901 2013/11/27)

>  <Rbt.Parameter_File>
/export/apps/rDock/src/rDock_2013.1_src/data/scripts/dock_solv.prm

>  <Rbt.Receptor>
prm/pocket_docking_6.prm

>  <SCORE>
-26.1989

>  <SCORE.INTER>
-22.7302

>  <SCORE.INTER.CONST>
1

>  <SCORE.INTER.POLAR>
-2.92265

>  <SCORE.INTER.ROT>
3

>  <SCORE.INTER.SOLV>
7.01393

>  <SCORE.INTER.VDW>
-13.3493

>  <SCORE.INTER.norm>
-1.08239

>  <SCORE.INTRA>
-3.46871

>  <SCORE.INTRA.DIHEDRAL>
0.913243

>  <SCORE.INTRA.DIHEDRAL.0>
8.84257

>  <SCORE.INTRA.POLAR>
0

>  <SCORE.INTRA.POLAR.0>
0

>  <SCORE.INTRA.REPUL>
0

>  <SCORE.INTRA.REPUL.0>
0

>  <SCORE.INTRA.SOLV>
-0.00122512

>  <SCORE.INTRA.SOLV.lig_0>
-17.1313

>  <SCORE.INTRA.VDW>
-3.92472

>  <SCORE.INTRA.VDW.0>
6.34071

>  <SCORE.INTRA.norm>
-0.165177

>  <SCORE.RESTR>
0

>  <SCORE.RESTR.CAVITY>
0

>  <SCORE.RESTR.norm>
0

>  <SCORE.SYSTEM>
0

>  <SCORE.SYSTEM.CONST>
0

>  <SCORE.SYSTEM.DIHEDRAL>
0

>  <SCORE.SYSTEM.SOLV>
0

>  <SCORE.SYSTEM.norm>
0

>  <SCORE.heavy>
21

>  <SCORE.norm>
-1.24757

>  <RMSD>
7.739

$$$$
lig.pdb
 OpenBabel11021811453D
libRbt.so/2013.1/901 2013/11/27
 21 23  0  0  0  0  0  0  0  0999 V2000
   -5.2937    4.2297    5.7823 C   0  0  0  0  0  0  0  0  0  0  0  0
   -6.2097    4.2519    4.8207 N   0  0  0  0  0  0  0  0  0  0  0  0
   -5.9265    4.7974    3.6515 C   0  0  0  0  0  0  0  0  0  0  0  0
   -4.7318    5.3924    3.4595 C   0  0  0  0  0  0  0  0  0  0  0  0
   -3.8091    5.3648    4.4304 C   0  0  0  0  0  0  0  0  0  0  0  0
   -2.6278    5.9547    4.2513 N   0  0  0  0  0  0  0  0  0  0  0  0
   -4.0961    4.7846    5.5912 N   0  0  0  0  0  0  0  0  0  0  0  0
   -6.8504    4.7950    2.6762 C   0  0  0  0  0  0  0  0  0  0  0  0
   -6.6171    5.5152    1.5364 C   0  0  0  0  0  0  0  0  0  0  0  0
   -7.7052    6.2211    0.9698 O   0  0  0  0  0  0  0  0  0  0  0  0
   -5.3639    5.9300    1.2881 C   0  0  0  0  0  0  0  0  0  0  0  0
   -4.9792    6.2516   -0.0410 O   0  0  0  0  0  0  0  0  0  0  0  0
   -4.4528    5.9651    2.2801 C   0  0  0  0  0  0  0  0  0  0  0  0
   -5.5825    3.6667    6.9429 N   0  0  0  0  0  0  0  0  0  0  0  0
   -4.6707    3.7980    7.9112 C   0  0  0  0  0  0  0  0  0  0  0  0
   -3.5410    2.8009    7.7025 C   0  0  0  0  0  0  0  0  0  0  0  0
   -4.0424    1.5166    7.7471 N   0  0  0  0  0  0  0  0  0  0  0  0
   -4.9474    1.3971    6.7150 C   0  0  0  0  0  0  0  0  0  0  0  0
   -6.0798    2.3887    6.9232 C   0  0  0  0  0  0  0  0  0  0  0  0
   -8.0761    5.5701   -0.2183 C   0  0  0  0  0  0  0  0  0  0  0  0
   -4.4605    5.0989   -0.6515 C   0  0  0  0  0  0  0  0  0  0  0  0
  1 14  1  0  0  0  0
  1  2  2  0  0  0  0
  3  2  1  0  0  0  0
  3  8  2  0  0  0  0
  4  3  1  0  0  0  0
  5  7  2  0  0  0  0
  5  4  1  0  0  0  0
  6  5  1  0  0  0  0
  7  1  1  0  0  0  0
  9 10  1  0  0  0  0
  9  8  1  0  0  0  0
 11  9  2  0  0  0  0
 12 11  1  0  0  0  0
 13  4  2  0  0  0  0
 13 11  1  0  0  0  0
 14 15  1  0  0  0  0
 16 15  1  0  0  0  0
 17 16  1  0  0  0  0
 18 17  1  0  0  0  0
 18 19  1  0  0  0  0
 19 14  1  0  0  0  0
 20 10  1  0  0  0  0
 21 12  1  0  0  0  0
M  END
>  <CHROM.1>
-173.36359078,-108.80544158,-90.86621404,-5.23396658,4.55166254,3.96393482
1.35823639,0.31333229,2.05893717

>  <Name>
lig.pdb

>  <RI>
2.59814e+07

>  <Rbt.Current_Directory>
/home/itssahil/PROJECTS/Mol_Feturizer/New_Systems/rnas/2lwk

>  <Rbt.Executable>
rbdock ($Id: //depot/dev/client3/rdock/2013.1/src/exe/rbdock.cxx#4 $)

>  <Rbt.Library>
libRbt.so (2013.1, Build901 2013/11/27)

>  <Rbt.Parameter_File>
/export/apps/rDock/src/rDock_2013.1_src/data/scripts/dock_solv.prm

>  <Rbt.Receptor>
prm/pocket_docking_6.prm

>  <SCORE>
-26.2

>  <SCORE.INTER>
-22.6169

>  <SCORE.INTER.CONST>
1

>  <SCORE.INTER.POLAR>
-2.92377

>  <SCORE.INTER.ROT>
3

>  <SCORE.INTER.SOLV>
6.92209

>  <SCORE.INTER.VDW>
-13.2394

>  <SCORE.INTER.norm>
-1.077

>  <SCORE.INTRA>
-3.58303

>  <SCORE.INTRA.DIHEDRAL>
0.94817

>  <SCORE.INTRA.DIHEDRAL.0>
8.84257

>  <SCORE.INTRA.POLAR>
0

>  <SCORE.INTRA.POLAR.0>
0

>  <SCORE.INTRA.REPUL>
0

>  <SCORE.INTRA.REPUL.0>
0

>  <SCORE.INTRA.SOLV>
0.00554033

>  <SCORE.INTRA.SOLV.lig_0>
-17.1313

>  <SCORE.INTRA.VDW>
-4.05988

>  <SCORE.INTRA.VDW.0>
6.34071

>  <SCORE.INTRA.norm>
-0.17062

>  <SCORE.RESTR>
0

>  <SCORE.RESTR.CAVITY>
0

>  <SCORE.RESTR.norm>
0

>  <SCORE.SYSTEM>
0

>  <SCORE.SYSTEM.CONST>
0

>  <SCORE.SYSTEM.DIHEDRAL>
0

>  <SCORE.SYSTEM.SOLV>
0

>  <SCORE.SYSTEM.norm>
0

>  <SCORE.heavy>
21

>  <SCORE.norm>
-1.24762

>  <RMSD>
7.744

$$$$
lig.pdb
 OpenBabel11021811453D
libRbt.so/2013.1/901 2013/11/27
 21 23  0  0  0  0  0  0  0  0999 V2000
   -5.4922    7.8411    1.9375 C   0  0  0  0  0  0  0  0  0  0  0  0
   -6.3281    6.8156    1.8205 N   0  0  0  0  0  0  0  0  0  0  0  0
   -6.1680    5.7438    2.5759 C   0  0  0  0  0  0  0  0  0  0  0  0
   -5.1154    5.6644    3.4150 C   0  0  0  0  0  0  0  0  0  0  0  0
   -4.2765    6.7022    3.5328 C   0  0  0  0  0  0  0  0  0  0  0  0
   -3.2309    6.6305    4.3557 N   0  0  0  0  0  0  0  0  0  0  0  0
   -4.4677    7.7874    2.7897 N   0  0  0  0  0  0  0  0  0  0  0  0
   -7.0315    4.7204    2.4683 C   0  0  0  0  0  0  0  0  0  0  0  0
   -6.7587    3.5478    3.1186 C   0  0  0  0  0  0  0  0  0  0  0  0
   -7.0424    2.3381    2.4410 O   0  0  0  0  0  0  0  0  0  0  0  0
   -5.8276    3.5560    4.0867 C   0  0  0  0  0  0  0  0  0  0  0  0
   -5.8334    2.5382    5.0777 O   0  0  0  0  0  0  0  0  0  0  0  0
   -4.9408    4.5676    4.1654 C   0  0  0  0  0  0  0  0  0  0  0  0
   -5.6716    8.9152    1.1882 N   0  0  0  0  0  0  0  0  0  0  0  0
   -6.9308    9.3415    1.0510 C   0  0  0  0  0  0  0  0  0  0  0  0
   -7.6591    8.4934    0.0192 C   0  0  0  0  0  0  0  0  0  0  0  0
   -7.0260    8.6039   -1.2014 N   0  0  0  0  0  0  0  0  0  0  0  0
   -5.7458    8.1205   -1.0410 C   0  0  0  0  0  0  0  0  0  0  0  0
   -5.0140    8.9686   -0.0142 C   0  0  0  0  0  0  0  0  0  0  0  0
   -6.0106    2.1033    1.5172 C   0  0  0  0  0  0  0  0  0  0  0  0
   -4.8146    1.6181    4.7847 C   0  0  0  0  0  0  0  0  0  0  0  0
  1 14  1  0  0  0  0
  1  2  2  0  0  0  0
  3  2  1  0  0  0  0
  3  8  2  0  0  0  0
  4  3  1  0  0  0  0
  5  7  2  0  0  0  0
  5  4  1  0  0  0  0
  6  5  1  0  0  0  0
  7  1  1  0  0  0  0
  9 10  1  0  0  0  0
  9  8  1  0  0  0  0
 11  9  2  0  0  0  0
 12 11  1  0  0  0  0
 13  4  2  0  0  0  0
 13 11  1  0  0  0  0
 14 15  1  0  0  0  0
 16 15  1  0  0  0  0
 17 16  1  0  0  0  0
 18 17  1  0  0  0  0
 18 19  1  0  0  0  0
 19 14  1  0  0  0  0
 20 10  1  0  0  0  0
 21 12  1  0  0  0  0
M  END
>  <CHROM.1>
42.48652280,78.53861619,103.32163070,-5.77694552,5.90119326,2.27721582,-1.68256427
0.85935927,2.66918492

>  <Name>
lig.pdb

>  <RI>
2.20372e+07

>  <Rbt.Current_Directory>
/home/itssahil/PROJECTS/Mol_Feturizer/New_Systems/rnas/2lwk

>  <Rbt.Executable>
rbdock ($Id: //depot/dev/client3/rdock/2013.1/src/exe/rbdock.cxx#4 $)

>  <Rbt.Library>
libRbt.so (2013.1, Build901 2013/11/27)

>  <Rbt.Parameter_File>
/export/apps/rDock/src/rDock_2013.1_src/data/scripts/dock_solv.prm

>  <Rbt.Receptor>
prm/pocket_docking_7.prm

>  <SCORE>
-20.5701

>  <SCORE.INTER>
-17.2663

>  <SCORE.INTER.CONST>
1

>  <SCORE.INTER.POLAR>
-2.63238

>  <SCORE.INTER.ROT>
3

>  <SCORE.INTER.SOLV>
6.64986

>  <SCORE.INTER.VDW>
-10.5529

>  <SCORE.INTER.norm>
-0.822207

>  <SCORE.INTRA>
-3.3579

>  <SCORE.INTRA.DIHEDRAL>
0.84024

>  <SCORE.INTRA.DIHEDRAL.0>
8.84257

>  <SCORE.INTRA.POLAR>
0

>  <SCORE.INTRA.POLAR.0>
0

>  <SCORE.INTRA.REPUL>
0

>  <SCORE.INTRA.REPUL.0>
0

>  <SCORE.INTRA.SOLV>
0.0862572

>  <SCORE.INTRA.SOLV.lig_0>
-17.1313

>  <SCORE.INTRA.VDW>
-3.82115

>  <SCORE.INTRA.VDW.0>
6.34071

>  <SCORE.INTRA.norm>
-0.1599

>  <SCORE.RESTR>
0.0541471

>  <SCORE.RESTR.CAVITY>
0.0541471

>  <SCORE.RESTR.norm>
0.00257843

>  <SCORE.SYSTEM>
0

>  <SCORE.SYSTEM.CONST>
0

>  <SCORE.SYSTEM.DIHEDRAL>
0

>  <SCORE.SYSTEM.SOLV>
0

>  <SCORE.SYSTEM.norm>
0

>  <SCORE.heavy>
21

>  <SCORE.norm>
-0.979528

>  <RMSD>
7.814

$$$$
lig.pdb
 OpenBabel11021811453D
libRbt.so/2013.1/901 2013/11/27
 21 23  0  0  0  0  0  0  0  0999 V2000
   -5.6717    7.5382    1.9288 C   0  0  0  0  0  0  0  0  0  0  0  0
   -6.4083    6.4337    1.9725 N   0  0  0  0  0  0  0  0  0  0  0  0
   -6.1039    5.4704    2.8234 C   0  0  0  0  0  0  0  0  0  0  0  0
   -5.0053    5.5800    3.5976 C   0  0  0  0  0  0  0  0  0  0  0  0
   -4.2670    6.6971    3.5534 C   0  0  0  0  0  0  0  0  0  0  0  0
   -3.1769    6.8120    4.3111 N   0  0  0  0  0  0  0  0  0  0  0  0
   -4.6029    7.6722    2.7152 N   0  0  0  0  0  0  0  0  0  0  0  0
   -6.8675    4.3665    2.8778 C   0  0  0  0  0  0  0  0  0  0  0  0
   -6.4469    3.3022    3.6278 C   0  0  0  0  0  0  0  0  0  0  0  0
   -6.6465    2.0046    3.0990 O   0  0  0  0  0  0  0  0  0  0  0  0
   -5.4707    3.5016    4.5287 C   0  0  0  0  0  0  0  0  0  0  0  0
   -5.3239    2.6022    5.6185 O   0  0  0  0  0  0  0  0  0  0  0  0
   -4.6843    4.5926    4.4453 C   0  0  0  0  0  0  0  0  0  0  0  0
   -5.9952    8.5028    1.0849 N   0  0  0  0  0  0  0  0  0  0  0  0
   -5.2975    8.5560   -0.0537 C   0  0  0  0  0  0  0  0  0  0  0  0
   -3.9487    9.2152    0.1912 C   0  0  0  0  0  0  0  0  0  0  0  0
   -4.1386   10.5035    0.6467 N   0  0  0  0  0  0  0  0  0  0  0  0
   -4.8228   10.4166    1.8395 C   0  0  0  0  0  0  0  0  0  0  0  0
   -6.1728    9.7626    1.5971 C   0  0  0  0  0  0  0  0  0  0  0  0
   -7.2561    1.2185    4.0908 C   0  0  0  0  0  0  0  0  0  0  0  0
   -5.9398    3.1604    6.7495 C   0  0  0  0  0  0  0  0  0  0  0  0
  1 14  1  0  0  0  0
  1  2  2  0  0  0  0
  3  2  1  0  0  0  0
  3  8  2  0  0  0  0
  4  3  1  0  0  0  0
  5  7  2  0  0  0  0
  5  4  1  0  0  0  0
  6  5  1  0  0  0  0
  7  1  1  0  0  0  0
  9 10  1  0  0  0  0
  9  8  1  0  0  0  0
 11  9  2  0  0  0  0
 12 11  1  0  0  0  0
 13  4  2  0  0  0  0
 13 11  1  0  0  0  0
 14 15  1  0  0  0  0
 16 15  1  0  0  0  0
 17 16  1  0  0  0  0
 18 17  1  0  0  0  0
 18 19  1  0  0  0  0
 19 14  1  0  0  0  0
 20 10  1  0  0  0  0
 21 12  1  0  0  0  0
M  END
>  <CHROM.1>
-99.70844311,-130.31622938,-98.49320272,-5.42926268,6.07688493,2.93229643
1.32811448,-0.82682302,-0.66691597

>  <Name>
lig.pdb

>  <RI>
2.75338e+07

>  <Rbt.Current_Directory>
/home/itssahil/PROJECTS/Mol_Feturizer/New_Systems/rnas/2lwk

>  <Rbt.Executable>
rbdock ($Id: //depot/dev/client3/rdock/2013.1/src/exe/rbdock.cxx#4 $)

>  <Rbt.Library>
libRbt.so (2013.1, Build901 2013/11/27)

>  <Rbt.Parameter_File>
/export/apps/rDock/src/rDock_2013.1_src/data/scripts/dock_solv.prm

>  <Rbt.Receptor>
prm/pocket_docking_8.prm

>  <SCORE>
-18.9831

>  <SCORE.INTER>
-14.6196

>  <SCORE.INTER.CONST>
1

>  <SCORE.INTER.POLAR>
-2.00414

>  <SCORE.INTER.ROT>
3

>  <SCORE.INTER.SOLV>
7.50382

>  <SCORE.INTER.VDW>
-11.1672

>  <SCORE.INTER.norm>
-0.69617

>  <SCORE.INTRA>
-4.36382

>  <SCORE.INTRA.DIHEDRAL>
-0.104435

>  <SCORE.INTRA.DIHEDRAL.0>
8.84257

>  <SCORE.INTRA.POLAR>
0

>  <SCORE.INTRA.POLAR.0>
0

>  <SCORE.INTRA.REPUL>
0

>  <SCORE.INTRA.REPUL.0>
0

>  <SCORE.INTRA.SOLV>
0.108733

>  <SCORE.INTRA.SOLV.lig_0>
-17.1313

>  <SCORE.INTRA.VDW>
-4.36597

>  <SCORE.INTRA.VDW.0>
6.34071

>  <SCORE.INTRA.norm>
-0.207801

>  <SCORE.RESTR>
0.000257001

>  <SCORE.RESTR.CAVITY>
0.000257001

>  <SCORE.RESTR.norm>
1.22381e-05

>  <SCORE.SYSTEM>
0

>  <SCORE.SYSTEM.CONST>
0

>  <SCORE.SYSTEM.DIHEDRAL>
0

>  <SCORE.SYSTEM.SOLV>
0

>  <SCORE.SYSTEM.norm>
0

>  <SCORE.heavy>
21

>  <SCORE.norm>
-0.903958

>  <RMSD>
7.861

$$$$
lig.pdb
 OpenBabel11021811453D
libRbt.so/2013.1/901 2013/11/27
 21 23  0  0  0  0  0  0  0  0999 V2000
   -3.6230    6.6372    3.7967 C   0  0  0  0  0  0  0  0  0  0  0  0
   -4.5525    6.0584    4.5485 N   0  0  0  0  0  0  0  0  0  0  0  0
   -4.2075    5.1460    5.4390 C   0  0  0  0  0  0  0  0  0  0  0  0
   -2.9210    4.7536    5.5352 C   0  0  0  0  0  0  0  0  0  0  0  0
   -1.9858    5.3423    4.7778 C   0  0  0  0  0  0  0  0  0  0  0  0
   -0.7129    4.9573    4.8625 N   0  0  0  0  0  0  0  0  0  0  0  0
   -2.3424    6.2817    3.9080 N   0  0  0  0  0  0  0  0  0  0  0  0
   -5.1507    4.5822    6.2119 C   0  0  0  0  0  0  0  0  0  0  0  0
   -4.8150    3.5162    7.0013 C   0  0  0  0  0  0  0  0  0  0  0  0
   -5.7457    2.4549    7.1047 O   0  0  0  0  0  0  0  0  0  0  0  0
   -3.5133    3.2729    7.2263 C   0  0  0  0  0  0  0  0  0  0  0  0
   -3.1251    2.5141    8.3629 O   0  0  0  0  0  0  0  0  0  0  0  0
   -2.5746    3.8119    6.4239 C   0  0  0  0  0  0  0  0  0  0  0  0
   -3.9776    7.5609    2.9201 N   0  0  0  0  0  0  0  0  0  0  0  0
   -5.2351    7.5035    2.4711 C   0  0  0  0  0  0  0  0  0  0  0  0
   -5.3577    6.4313    1.3990 C   0  0  0  0  0  0  0  0  0  0  0  0
   -4.5300    6.7391    0.3392 N   0  0  0  0  0  0  0  0  0  0  0  0
   -3.2393    6.7511    0.8212 C   0  0  0  0  0  0  0  0  0  0  0  0
   -3.1124    7.8246    1.8892 C   0  0  0  0  0  0  0  0  0  0  0  0
   -5.6787    1.6993    5.9224 C   0  0  0  0  0  0  0  0  0  0  0  0
   -2.7285    1.2365    7.9377 C   0  0  0  0  0  0  0  0  0  0  0  0
  1 14  1  0  0  0  0
  1  2  2  0  0  0  0
  3  2  1  0  0  0  0
  3  8  2  0  0  0  0
  4  3  1  0  0  0  0
  5  7  2  0  0  0  0
  5  4  1  0  0  0  0
  6  5  1  0  0  0  0
  7  1  1  0  0  0  0
  9 10  1  0  0  0  0
  9  8  1  0  0  0  0
 11  9  2  0  0  0  0
 12 11  1  0  0  0  0
 13  4  2  0  0  0  0
 13 11  1  0  0  0  0
 14 15  1  0  0  0  0
 16 15  1  0  0  0  0
 17 16  1  0  0  0  0
 18 17  1  0  0  0  0
 18 19  1  0  0  0  0
 19 14  1  0  0  0  0
 20 10  1  0  0  0  0
 21 12  1  0  0  0  0
M  END
>  <CHROM.1>
-25.06804369,76.31536335,106.15015077,-3.76944418,4.96647676,4.70084310,-1.58802446
0.20784207,2.26233471

>  <Name>
lig.pdb

>  <RI>
2.59814e+07

>  <Rbt.Current_Directory>
/home/itssahil/PROJECTS/Mol_Feturizer/New_Systems/rnas/2lwk

>  <Rbt.Executable>
rbdock ($Id: //depot/dev/client3/rdock/2013.1/src/exe/rbdock.cxx#4 $)

>  <Rbt.Library>
libRbt.so (2013.1, Build901 2013/11/27)

>  <Rbt.Parameter_File>
/export/apps/rDock/src/rDock_2013.1_src/data/scripts/dock_solv.prm

>  <Rbt.Receptor>
prm/pocket_docking_6.prm

>  <SCORE>
-20.1982

>  <SCORE.INTER>
-18.256

>  <SCORE.INTER.CONST>
1

>  <SCORE.INTER.POLAR>
-2.07782

>  <SCORE.INTER.ROT>
3

>  <SCORE.INTER.SOLV>
8.09118

>  <SCORE.INTER.VDW>
-13.5417

>  <SCORE.INTER.norm>
-0.869335

>  <SCORE.INTRA>
-1.98714

>  <SCORE.INTRA.DIHEDRAL>
0.716625

>  <SCORE.INTRA.DIHEDRAL.0>
8.84257

>  <SCORE.INTRA.POLAR>
0

>  <SCORE.INTRA.POLAR.0>
0

>  <SCORE.INTRA.REPUL>
0

>  <SCORE.INTRA.REPUL.0>
0

>  <SCORE.INTRA.SOLV>
-0.0429942

>  <SCORE.INTRA.SOLV.lig_0>
-17.1313

>  <SCORE.INTRA.VDW>
-2.32396

>  <SCORE.INTRA.VDW.0>
6.34071

>  <SCORE.INTRA.norm>
-0.0946258

>  <SCORE.RESTR>
0.0449633

>  <SCORE.RESTR.CAVITY>
0.0449633

>  <SCORE.RESTR.norm>
0.00214111

>  <SCORE.SYSTEM>
0

>  <SCORE.SYSTEM.CONST>
0

>  <SCORE.SYSTEM.DIHEDRAL>
0

>  <SCORE.SYSTEM.SOLV>
0

>  <SCORE.SYSTEM.norm>
0

>  <SCORE.heavy>
21

>  <SCORE.norm>
-0.96182

>  <RMSD>
7.897

$$$$
lig.pdb
 OpenBabel11021811453D
libRbt.so/2013.1/901 2013/11/27
 21 23  0  0  0  0  0  0  0  0999 V2000
   -5.0001    6.4657    1.7652 C   0  0  0  0  0  0  0  0  0  0  0  0
   -4.3404    5.8303    0.8032 N   0  0  0  0  0  0  0  0  0  0  0  0
   -4.9313    4.8625    0.1256 C   0  0  0  0  0  0  0  0  0  0  0  0
   -6.1792    4.4746    0.4579 C   0  0  0  0  0  0  0  0  0  0  0  0
   -6.8427    5.1202    1.4263 C   0  0  0  0  0  0  0  0  0  0  0  0
   -8.0742    4.7403    1.7648 N   0  0  0  0  0  0  0  0  0  0  0  0
   -6.2477    6.1134    2.0788 N   0  0  0  0  0  0  0  0  0  0  0  0
   -4.2653    4.2406   -0.8615 C   0  0  0  0  0  0  0  0  0  0  0  0
   -4.8139    3.1264   -1.4358 C   0  0  0  0  0  0  0  0  0  0  0  0
   -3.9464    2.0535   -1.7509 O   0  0  0  0  0  0  0  0  0  0  0  0
   -6.1181    2.8786   -1.2310 C   0  0  0  0  0  0  0  0  0  0  0  0
   -6.8280    2.0480   -2.1389 O   0  0  0  0  0  0  0  0  0  0  0  0
   -6.7703    3.4778   -0.2155 C   0  0  0  0  0  0  0  0  0  0  0  0
   -4.4047    7.4435    2.4258 N   0  0  0  0  0  0  0  0  0  0  0  0
   -4.1913    8.5756    1.7483 C   0  0  0  0  0  0  0  0  0  0  0  0
   -2.9686    8.4268    0.8557 C   0  0  0  0  0  0  0  0  0  0  0  0
   -1.8577    8.1670    1.6312 N   0  0  0  0  0  0  0  0  0  0  0  0
   -2.0877    6.9763    2.2853 C   0  0  0  0  0  0  0  0  0  0  0  0
   -3.3060    7.1233    3.1816 C   0  0  0  0  0  0  0  0  0  0  0  0
   -3.8155    1.2483   -0.6074 C   0  0  0  0  0  0  0  0  0  0  0  0
   -7.3657    2.8502   -3.1575 C   0  0  0  0  0  0  0  0  0  0  0  0
  1 14  1  0  0  0  0
  1  2  2  0  0  0  0
  3  2  1  0  0  0  0
  3  8  2  0  0  0  0
  4  3  1  0  0  0  0
  5  7  2  0  0  0  0
  5  4  1  0  0  0  0
  6  5  1  0  0  0  0
  7  1  1  0  0  0  0
  9 10  1  0  0  0  0
  9  8  1  0  0  0  0
 11  9  2  0  0  0  0
 12 11  1  0  0  0  0
 13  4  2  0  0  0  0
 13 11  1  0  0  0  0
 14 15  1  0  0  0  0
 16 15  1  0  0  0  0
 17 16  1  0  0  0  0
 18 17  1  0  0  0  0
 18 19  1  0  0  0  0
 19 14  1  0  0  0  0
 20 10  1  0  0  0  0
 21 12  1  0  0  0  0
M  END
>  <CHROM.1>
70.49266907,86.13994105,-89.77457530,-4.95973795,5.03924922,0.42010045,1.17333076
0.16850205,0.68186579

>  <Name>
lig.pdb

>  <RI>
2.75338e+07

>  <Rbt.Current_Directory>
/home/itssahil/PROJECTS/Mol_Feturizer/New_Systems/rnas/2lwk

>  <Rbt.Executable>
rbdock ($Id: //depot/dev/client3/rdock/2013.1/src/exe/rbdock.cxx#4 $)

>  <Rbt.Library>
libRbt.so (2013.1, Build901 2013/11/27)

>  <Rbt.Parameter_File>
/export/apps/rDock/src/rDock_2013.1_src/data/scripts/dock_solv.prm

>  <Rbt.Receptor>
prm/pocket_docking_8.prm

>  <SCORE>
-20.1318

>  <SCORE.INTER>
-15.9483

>  <SCORE.INTER.CONST>
1

>  <SCORE.INTER.POLAR>
-2.5352

>  <SCORE.INTER.ROT>
3

>  <SCORE.INTER.SOLV>
8.19297

>  <SCORE.INTER.VDW>
-10.5125

>  <SCORE.INTER.norm>
-0.759442

>  <SCORE.INTRA>
-4.18355

>  <SCORE.INTRA.DIHEDRAL>
0.918739

>  <SCORE.INTRA.DIHEDRAL.0>
8.84257

>  <SCORE.INTRA.POLAR>
0

>  <SCORE.INTRA.POLAR.0>
0

>  <SCORE.INTRA.REPUL>
0

>  <SCORE.INTRA.REPUL.0>
0

>  <SCORE.INTRA.SOLV>
0.0731915

>  <SCORE.INTRA.SOLV.lig_0>
-17.1313

>  <SCORE.INTRA.VDW>
-4.67951

>  <SCORE.INTRA.VDW.0>
6.34071

>  <SCORE.INTRA.norm>
-0.199217

>  <SCORE.RESTR>
0

>  <SCORE.RESTR.CAVITY>
0

>  <SCORE.RESTR.norm>
0

>  <SCORE.SYSTEM>
0

>  <SCORE.SYSTEM.CONST>
0

>  <SCORE.SYSTEM.DIHEDRAL>
0

>  <SCORE.SYSTEM.SOLV>
0

>  <SCORE.SYSTEM.norm>
0

>  <SCORE.heavy>
21

>  <SCORE.norm>
-0.958659

>  <RMSD>
7.925

$$$$
lig.pdb
 OpenBabel11021811453D
libRbt.so/2013.1/901 2013/11/27
 21 23  0  0  0  0  0  0  0  0999 V2000
   -5.5061    8.0022    1.8724 C   0  0  0  0  0  0  0  0  0  0  0  0
   -6.3500    6.9949    1.6793 N   0  0  0  0  0  0  0  0  0  0  0  0
   -6.2311    5.8883    2.3908 C   0  0  0  0  0  0  0  0  0  0  0  0
   -5.2109    5.7565    3.2627 C   0  0  0  0  0  0  0  0  0  0  0  0
   -4.3639    6.7761    3.4573 C   0  0  0  0  0  0  0  0  0  0  0  0
   -3.3500    6.6528    4.3131 N   0  0  0  0  0  0  0  0  0  0  0  0
   -4.5142    7.8959    2.7576 N   0  0  0  0  0  0  0  0  0  0  0  0
   -7.1029    4.8831    2.2061 C   0  0  0  0  0  0  0  0  0  0  0  0
   -6.8687    3.6789    2.8123 C   0  0  0  0  0  0  0  0  0  0  0  0
   -7.1428    2.5047    2.0710 O   0  0  0  0  0  0  0  0  0  0  0  0
   -5.9736    3.6306    3.8126 C   0  0  0  0  0  0  0  0  0  0  0  0
   -6.0284    2.5697    4.7558 O   0  0  0  0  0  0  0  0  0  0  0  0
   -5.0777    4.6249    3.9687 C   0  0  0  0  0  0  0  0  0  0  0  0
   -5.6445    9.1111    1.1664 N   0  0  0  0  0  0  0  0  0  0  0  0
   -6.4290    9.0353    0.0871 C   0  0  0  0  0  0  0  0  0  0  0  0
   -5.6718    8.3906   -1.0640 C   0  0  0  0  0  0  0  0  0  0  0  0
   -4.5689    9.1567   -1.3797 N   0  0  0  0  0  0  0  0  0  0  0  0
   -3.7596    9.1836   -0.2649 C   0  0  0  0  0  0  0  0  0  0  0  0
   -4.5118    9.8316    0.8856 C   0  0  0  0  0  0  0  0  0  0  0  0
   -6.0934    2.3108    1.1576 C   0  0  0  0  0  0  0  0  0  0  0  0
   -5.0095    1.6507    4.4599 C   0  0  0  0  0  0  0  0  0  0  0  0
  1 14  1  0  0  0  0
  1  2  2  0  0  0  0
  3  2  1  0  0  0  0
  3  8  2  0  0  0  0
  4  3  1  0  0  0  0
  5  7  2  0  0  0  0
  5  4  1  0  0  0  0
  6  5  1  0  0  0  0
  7  1  1  0  0  0  0
  9 10  1  0  0  0  0
  9  8  1  0  0  0  0
 11  9  2  0  0  0  0
 12 11  1  0  0  0  0
 13  4  2  0  0  0  0
 13 11  1  0  0  0  0
 14 15  1  0  0  0  0
 16 15  1  0  0  0  0
 17 16  1  0  0  0  0
 18 17  1  0  0  0  0
 18 19  1  0  0  0  0
 19 14  1  0  0  0  0
 20 10  1  0  0  0  0
 21 12  1  0  0  0  0
M  END
>  <CHROM.1>
-15.14077475,77.43881431,103.44121788,-5.47840185,6.08942857,2.09992326,-1.32912260
0.96035990,2.44675774

>  <Name>
lig.pdb

>  <RI>
2.75338e+07

>  <Rbt.Current_Directory>
/home/itssahil/PROJECTS/Mol_Feturizer/New_Systems/rnas/2lwk

>  <Rbt.Executable>
rbdock ($Id: //depot/dev/client3/rdock/2013.1/src/exe/rbdock.cxx#4 $)

>  <Rbt.Library>
libRbt.so (2013.1, Build901 2013/11/27)

>  <Rbt.Parameter_File>
/export/apps/rDock/src/rDock_2013.1_src/data/scripts/dock_solv.prm

>  <Rbt.Receptor>
prm/pocket_docking_8.prm

>  <SCORE>
-18.5131

>  <SCORE.INTER>
-16.5956

>  <SCORE.INTER.CONST>
1

>  <SCORE.INTER.POLAR>
-2.7879

>  <SCORE.INTER.ROT>
3

>  <SCORE.INTER.SOLV>
6.43932

>  <SCORE.INTER.VDW>
-9.51718

>  <SCORE.INTER.norm>
-0.790267

>  <SCORE.INTRA>
-1.91753

>  <SCORE.INTRA.DIHEDRAL>
0.817938

>  <SCORE.INTRA.DIHEDRAL.0>
8.84257

>  <SCORE.INTRA.POLAR>
0

>  <SCORE.INTRA.POLAR.0>
0

>  <SCORE.INTRA.REPUL>
0

>  <SCORE.INTRA.REPUL.0>
0

>  <SCORE.INTRA.SOLV>
-0.0406866

>  <SCORE.INTRA.SOLV.lig_0>
-17.1313

>  <SCORE.INTRA.VDW>
-2.30616

>  <SCORE.INTRA.VDW.0>
6.34071

>  <SCORE.INTRA.norm>
-0.0913111

>  <SCORE.RESTR>
0

>  <SCORE.RESTR.CAVITY>
0

>  <SCORE.RESTR.norm>
0

>  <SCORE.SYSTEM>
0

>  <SCORE.SYSTEM.CONST>
0

>  <SCORE.SYSTEM.DIHEDRAL>
0

>  <SCORE.SYSTEM.SOLV>
0

>  <SCORE.SYSTEM.norm>
0

>  <SCORE.heavy>
21

>  <SCORE.norm>
-0.881578

>  <RMSD>
7.998

$$$$
lig.pdb
 OpenBabel11021811453D
libRbt.so/2013.1/901 2013/11/27
 21 23  0  0  0  0  0  0  0  0999 V2000
   -5.6679    7.7298    1.7629 C   0  0  0  0  0  0  0  0  0  0  0  0
   -6.4137    6.6314    1.7251 N   0  0  0  0  0  0  0  0  0  0  0  0
   -6.1652    5.6357    2.5568 C   0  0  0  0  0  0  0  0  0  0  0  0
   -5.1117    5.7078    3.3954 C   0  0  0  0  0  0  0  0  0  0  0  0
   -4.3640    6.8188    3.4332 C   0  0  0  0  0  0  0  0  0  0  0  0
   -3.3180    6.8967    4.2550 N   0  0  0  0  0  0  0  0  0  0  0  0
   -4.6446    7.8260    2.6128 N   0  0  0  0  0  0  0  0  0  0  0  0
   -6.9387    4.5377    2.5283 C   0  0  0  0  0  0  0  0  0  0  0  0
   -6.5691    3.4437    3.2623 C   0  0  0  0  0  0  0  0  0  0  0  0
   -6.7477    2.1675    2.6769 O   0  0  0  0  0  0  0  0  0  0  0  0
   -5.6443    3.6021    4.2235 C   0  0  0  0  0  0  0  0  0  0  0  0
   -5.5663    2.6633    5.2870 O   0  0  0  0  0  0  0  0  0  0  0  0
   -4.8467    4.6880    4.2240 C   0  0  0  0  0  0  0  0  0  0  0  0
   -5.9359    8.7266    0.9371 N   0  0  0  0  0  0  0  0  0  0  0  0
   -5.3167    8.7011   -0.2470 C   0  0  0  0  0  0  0  0  0  0  0  0
   -3.8875    9.2006   -0.0993 C   0  0  0  0  0  0  0  0  0  0  0  0
   -3.8966   10.5014    0.3601 N   0  0  0  0  0  0  0  0  0  0  0  0
   -4.5024   10.4917    1.5975 C   0  0  0  0  0  0  0  0  0  0  0  0
   -5.9321    9.9976    1.4524 C   0  0  0  0  0  0  0  0  0  0  0  0
   -5.6897    1.9473    1.7796 C   0  0  0  0  0  0  0  0  0  0  0  0
   -4.4805    1.8053    5.0518 C   0  0  0  0  0  0  0  0  0  0  0  0
  1 14  1  0  0  0  0
  1  2  2  0  0  0  0
  3  2  1  0  0  0  0
  3  8  2  0  0  0  0
  4  3  1  0  0  0  0
  5  7  2  0  0  0  0
  5  4  1  0  0  0  0
  6  5  1  0  0  0  0
  7  1  1  0  0  0  0
  9 10  1  0  0  0  0
  9  8  1  0  0  0  0
 11  9  2  0  0  0  0
 12 11  1  0  0  0  0
 13  4  2  0  0  0  0
 13 11  1  0  0  0  0
 14 15  1  0  0  0  0
 16 15  1  0  0  0  0
 17 16  1  0  0  0  0
 18 17  1  0  0  0  0
 18 19  1  0  0  0  0
 19 14  1  0  0  0  0
 20 10  1  0  0  0  0
 21 12  1  0  0  0  0
M  END
>  <CHROM.1>
-90.00604867,79.16702313,102.74414726,-5.29007662,6.15774603,2.51339386,1.38051619
-0.89496840,-0.55841385

>  <Name>
lig.pdb

>  <RI>
2.75338e+07

>  <Rbt.Current_Directory>
/home/itssahil/PROJECTS/Mol_Feturizer/New_Systems/rnas/2lwk

>  <Rbt.Executable>
rbdock ($Id: //depot/dev/client3/rdock/2013.1/src/exe/rbdock.cxx#4 $)

>  <Rbt.Library>
libRbt.so (2013.1, Build901 2013/11/27)

>  <Rbt.Parameter_File>
/export/apps/rDock/src/rDock_2013.1_src/data/scripts/dock_solv.prm

>  <Rbt.Receptor>
prm/pocket_docking_8.prm

>  <SCORE>
-19.518

>  <SCORE.INTER>
-15.7391

>  <SCORE.INTER.CONST>
1

>  <SCORE.INTER.POLAR>
-2.31956

>  <SCORE.INTER.ROT>
3

>  <SCORE.INTER.SOLV>
6.58461

>  <SCORE.INTER.VDW>
-10.5557

>  <SCORE.INTER.norm>
-0.74948

>  <SCORE.INTRA>
-3.78357

>  <SCORE.INTRA.DIHEDRAL>
0.85616

>  <SCORE.INTRA.DIHEDRAL.0>
8.84257

>  <SCORE.INTRA.POLAR>
0

>  <SCORE.INTRA.POLAR.0>
0

>  <SCORE.INTRA.REPUL>
0

>  <SCORE.INTRA.REPUL.0>
0

>  <SCORE.INTRA.SOLV>
0.0813401

>  <SCORE.INTRA.SOLV.lig_0>
-17.1313

>  <SCORE.INTRA.VDW>
-4.25232

>  <SCORE.INTRA.VDW.0>
6.34071

>  <SCORE.INTRA.norm>
-0.18017

>  <SCORE.RESTR>
0.00464813

>  <SCORE.RESTR.CAVITY>
0.00464813

>  <SCORE.RESTR.norm>
0.000221339

>  <SCORE.SYSTEM>
0

>  <SCORE.SYSTEM.CONST>
0

>  <SCORE.SYSTEM.DIHEDRAL>
0

>  <SCORE.SYSTEM.SOLV>
0

>  <SCORE.SYSTEM.norm>
0

>  <SCORE.heavy>
21

>  <SCORE.norm>
-0.929429

>  <RMSD>
8.021

$$$$
lig.pdb
 OpenBabel11021811453D
libRbt.so/2013.1/901 2013/11/27
 21 23  0  0  0  0  0  0  0  0999 V2000
   -6.1167    7.1166    1.7926 C   0  0  0  0  0  0  0  0  0  0  0  0
   -6.6084    6.0273    2.3723 N   0  0  0  0  0  0  0  0  0  0  0  0
   -5.8692    5.3436    3.2273 C   0  0  0  0  0  0  0  0  0  0  0  0
   -4.5930    5.7130    3.4575 C   0  0  0  0  0  0  0  0  0  0  0  0
   -4.1018    6.8143    2.8738 C   0  0  0  0  0  0  0  0  0  0  0  0
   -2.8402    7.1840    3.0915 N   0  0  0  0  0  0  0  0  0  0  0  0
   -4.8669    7.5111    2.0399 N   0  0  0  0  0  0  0  0  0  0  0  0
   -6.3819    4.2564    3.8271 C   0  0  0  0  0  0  0  0  0  0  0  0
   -5.5580    3.4546    4.5691 C   0  0  0  0  0  0  0  0  0  0  0  0
   -5.7390    2.0543    4.4706 O   0  0  0  0  0  0  0  0  0  0  0  0
   -4.3609    3.9379    4.9402 C   0  0  0  0  0  0  0  0  0  0  0  0
   -3.6880    3.3714    6.0557 O   0  0  0  0  0  0  0  0  0  0  0  0
   -3.8362    5.0062    4.3085 C   0  0  0  0  0  0  0  0  0  0  0  0
   -6.8709    7.8023    0.9511 N   0  0  0  0  0  0  0  0  0  0  0  0
   -6.6684    7.5751   -0.3503 C   0  0  0  0  0  0  0  0  0  0  0  0
   -5.4384    8.3327   -0.8269 C   0  0  0  0  0  0  0  0  0  0  0  0
   -5.6292    9.6868   -0.6453 N   0  0  0  0  0  0  0  0  0  0  0  0
   -5.7940    9.8968    0.7064 C   0  0  0  0  0  0  0  0  0  0  0  0
   -7.0249    9.1449    1.1846 C   0  0  0  0  0  0  0  0  0  0  0  0
   -5.0896    1.6115    3.3065 C   0  0  0  0  0  0  0  0  0  0  0  0
   -4.3865    3.7128    7.2243 C   0  0  0  0  0  0  0  0  0  0  0  0
  1 14  1  0  0  0  0
  1  2  2  0  0  0  0
  3  2  1  0  0  0  0
  3  8  2  0  0  0  0
  4  3  1  0  0  0  0
  5  7  2  0  0  0  0
  5  4  1  0  0  0  0
  6  5  1  0  0  0  0
  7  1  1  0  0  0  0
  9 10  1  0  0  0  0
  9  8  1  0  0  0  0
 11  9  2  0  0  0  0
 12 11  1  0  0  0  0
 13  4  2  0  0  0  0
 13 11  1  0  0  0  0
 14 15  1  0  0  0  0
 16 15  1  0  0  0  0
 17 16  1  0  0  0  0
 18 17  1  0  0  0  0
 18 19  1  0  0  0  0
 19 14  1  0  0  0  0
 20 10  1  0  0  0  0
 21 12  1  0  0  0  0
M  END
>  <CHROM.1>
-99.04158492,81.07081132,-69.72152859,-5.28844048,5.96827981,2.79160410,1.80081889
-0.72353107,-0.56463947

>  <Name>
lig.pdb

>  <RI>
2.75338e+07

>  <Rbt.Current_Directory>
/home/itssahil/PROJECTS/Mol_Feturizer/New_Systems/rnas/2lwk

>  <Rbt.Executable>
rbdock ($Id: //depot/dev/client3/rdock/2013.1/src/exe/rbdock.cxx#4 $)

>  <Rbt.Library>
libRbt.so (2013.1, Build901 2013/11/27)

>  <Rbt.Parameter_File>
/export/apps/rDock/src/rDock_2013.1_src/data/scripts/dock_solv.prm

>  <Rbt.Receptor>
prm/pocket_docking_8.prm

>  <SCORE>
-19.8972

>  <SCORE.INTER>
-15.7519

>  <SCORE.INTER.CONST>
1

>  <SCORE.INTER.POLAR>
-2.22668

>  <SCORE.INTER.ROT>
3

>  <SCORE.INTER.SOLV>
5.50839

>  <SCORE.INTER.VDW>
-10.5151

>  <SCORE.INTER.norm>
-0.750093

>  <SCORE.INTRA>
-4.14527

>  <SCORE.INTRA.DIHEDRAL>
0.536295

>  <SCORE.INTRA.DIHEDRAL.0>
8.84257

>  <SCORE.INTRA.POLAR>
0

>  <SCORE.INTRA.POLAR.0>
0

>  <SCORE.INTRA.REPUL>
0

>  <SCORE.INTRA.REPUL.0>
0

>  <SCORE.INTRA.SOLV>
0.0699972

>  <SCORE.INTRA.SOLV.lig_0>
-17.1313

>  <SCORE.INTRA.VDW>
-4.44842

>  <SCORE.INTRA.VDW.0>
6.34071

>  <SCORE.INTRA.norm>
-0.197394

>  <SCORE.RESTR>
0

>  <SCORE.RESTR.CAVITY>
0

>  <SCORE.RESTR.norm>
0

>  <SCORE.SYSTEM>
0

>  <SCORE.SYSTEM.CONST>
0

>  <SCORE.SYSTEM.DIHEDRAL>
0

>  <SCORE.SYSTEM.SOLV>
0

>  <SCORE.SYSTEM.norm>
0

>  <SCORE.heavy>
21

>  <SCORE.norm>
-0.947486

>  <RMSD>
8.128

$$$$
lig.pdb
 OpenBabel11021811453D
libRbt.so/2013.1/901 2013/11/27
 21 23  0  0  0  0  0  0  0  0999 V2000
   -6.1585    7.1999    1.7715 C   0  0  0  0  0  0  0  0  0  0  0  0
   -6.6397    6.0942    2.3284 N   0  0  0  0  0  0  0  0  0  0  0  0
   -5.8939    5.3999    3.1689 C   0  0  0  0  0  0  0  0  0  0  0  0
   -4.6212    5.7766    3.4067 C   0  0  0  0  0  0  0  0  0  0  0  0
   -4.1406    6.8945    2.8461 C   0  0  0  0  0  0  0  0  0  0  0  0
   -2.8826    7.2715    3.0714 N   0  0  0  0  0  0  0  0  0  0  0  0
   -4.9125    7.6011    2.0269 N   0  0  0  0  0  0  0  0  0  0  0  0
   -6.3961    4.2956    3.7461 C   0  0  0  0  0  0  0  0  0  0  0  0
   -5.5644    3.4865    4.4712 C   0  0  0  0  0  0  0  0  0  0  0  0
   -5.7321    2.0869    4.3436 O   0  0  0  0  0  0  0  0  0  0  0  0
   -4.3719    3.9734    4.8522 C   0  0  0  0  0  0  0  0  0  0  0  0
   -3.6933    3.3902    5.9557 O   0  0  0  0  0  0  0  0  0  0  0  0
   -3.8575    5.0595    4.2429 C   0  0  0  0  0  0  0  0  0  0  0  0
   -6.9194    7.8958    0.9444 N   0  0  0  0  0  0  0  0  0  0  0  0
   -6.6685    7.7500   -0.3602 C   0  0  0  0  0  0  0  0  0  0  0  0
   -5.4623    8.5881   -0.7562 C   0  0  0  0  0  0  0  0  0  0  0  0
   -5.7222    9.9200   -0.5084 N   0  0  0  0  0  0  0  0  0  0  0  0
   -5.9361   10.0476    0.8467 C   0  0  0  0  0  0  0  0  0  0  0  0
   -7.1436    9.2151    1.2446 C   0  0  0  0  0  0  0  0  0  0  0  0
   -5.0435    1.6683    3.1931 C   0  0  0  0  0  0  0  0  0  0  0  0
   -4.3960    3.6988    7.1310 C   0  0  0  0  0  0  0  0  0  0  0  0
  1 14  1  0  0  0  0
  1  2  2  0  0  0  0
  3  2  1  0  0  0  0
  3  8  2  0  0  0  0
  4  3  1  0  0  0  0
  5  7  2  0  0  0  0
  5  4  1  0  0  0  0
  6  5  1  0  0  0  0
  7  1  1  0  0  0  0
  9 10  1  0  0  0  0
  9  8  1  0  0  0  0
 11  9  2  0  0  0  0
 12 11  1  0  0  0  0
 13  4  2  0  0  0  0
 13 11  1  0  0  0  0
 14 15  1  0  0  0  0
 16 15  1  0  0  0  0
 17 16  1  0  0  0  0
 18 17  1  0  0  0  0
 18 19  1  0  0  0  0
 19 14  1  0  0  0  0
 20 10  1  0  0  0  0
 21 12  1  0  0  0  0
M  END
>  <CHROM.1>
-102.40094793,82.88693935,-69.62864786,-5.32138668,6.05275706,2.76307343
1.81228624,-0.71889485,-0.52784845

>  <Name>
lig.pdb

>  <RI>
2.75338e+07

>  <Rbt.Current_Directory>
/home/itssahil/PROJECTS/Mol_Feturizer/New_Systems/rnas/2lwk

>  <Rbt.Executable>
rbdock ($Id: //depot/dev/client3/rdock/2013.1/src/exe/rbdock.cxx#4 $)

>  <Rbt.Library>
libRbt.so (2013.1, Build901 2013/11/27)

>  <Rbt.Parameter_File>
/export/apps/rDock/src/rDock_2013.1_src/data/scripts/dock_solv.prm

>  <Rbt.Receptor>
prm/pocket_docking_8.prm

>  <SCORE>
-20.0298

>  <SCORE.INTER>
-15.8272

>  <SCORE.INTER.CONST>
1

>  <SCORE.INTER.POLAR>
-2.24932

>  <SCORE.INTER.ROT>
3

>  <SCORE.INTER.SOLV>
5.62369

>  <SCORE.INTER.VDW>
-10.5283

>  <SCORE.INTER.norm>
-0.753675

>  <SCORE.INTRA>
-4.20257

>  <SCORE.INTRA.DIHEDRAL>
0.510008

>  <SCORE.INTRA.DIHEDRAL.0>
8.84257

>  <SCORE.INTRA.POLAR>
0

>  <SCORE.INTRA.POLAR.0>
0

>  <SCORE.INTRA.REPUL>
0

>  <SCORE.INTRA.REPUL.0>
0

>  <SCORE.INTRA.SOLV>
0.073427

>  <SCORE.INTRA.SOLV.lig_0>
-17.1313

>  <SCORE.INTRA.VDW>
-4.49429

>  <SCORE.INTRA.VDW.0>
6.34071

>  <SCORE.INTRA.norm>
-0.200122

>  <SCORE.RESTR>
0

>  <SCORE.RESTR.CAVITY>
0

>  <SCORE.RESTR.norm>
0

>  <SCORE.SYSTEM>
0

>  <SCORE.SYSTEM.CONST>
0

>  <SCORE.SYSTEM.DIHEDRAL>
0

>  <SCORE.SYSTEM.SOLV>
0

>  <SCORE.SYSTEM.norm>
0

>  <SCORE.heavy>
21

>  <SCORE.norm>
-0.953798

>  <RMSD>
8.181

$$$$
lig.pdb
 OpenBabel11021811453D
libRbt.so/2013.1/901 2013/11/27
 21 23  0  0  0  0  0  0  0  0999 V2000
  -13.8356   -4.8806    6.7407 C   0  0  0  0  0  0  0  0  0  0  0  0
  -12.7663   -5.4466    7.2889 N   0  0  0  0  0  0  0  0  0  0  0  0
  -11.8024   -5.9200    6.5198 C   0  0  0  0  0  0  0  0  0  0  0  0
  -11.9373   -5.8901    5.1785 C   0  0  0  0  0  0  0  0  0  0  0  0
  -13.0155   -5.3152    4.6292 C   0  0  0  0  0  0  0  0  0  0  0  0
  -13.1596   -5.2858    3.3048 N   0  0  0  0  0  0  0  0  0  0  0  0
  -13.9632   -4.8143    5.4148 N   0  0  0  0  0  0  0  0  0  0  0  0
  -10.7134   -6.4699    7.0823 C   0  0  0  0  0  0  0  0  0  0  0  0
   -9.8071   -7.1160    6.2864 C   0  0  0  0  0  0  0  0  0  0  0  0
   -9.2372   -8.3149    6.7772 O   0  0  0  0  0  0  0  0  0  0  0  0
   -9.8587   -6.9076    4.9604 C   0  0  0  0  0  0  0  0  0  0  0  0
   -8.7091   -7.1557    4.1636 O   0  0  0  0  0  0  0  0  0  0  0  0
  -10.9688   -6.3904    4.3985 C   0  0  0  0  0  0  0  0  0  0  0  0
  -14.7865   -4.3956    7.5203 N   0  0  0  0  0  0  0  0  0  0  0  0
  -15.4883   -3.3677    7.0336 C   0  0  0  0  0  0  0  0  0  0  0  0
  -14.6975   -2.0772    7.1863 C   0  0  0  0  0  0  0  0  0  0  0  0
  -14.4490   -1.8416    8.5227 N   0  0  0  0  0  0  0  0  0  0  0  0
  -13.6909   -2.8942    8.9873 C   0  0  0  0  0  0  0  0  0  0  0  0
  -14.4803   -4.1844    8.8404 C   0  0  0  0  0  0  0  0  0  0  0  0
   -8.0971   -7.9809    7.5267 C   0  0  0  0  0  0  0  0  0  0  0  0
   -7.7580   -6.1559    4.4211 C   0  0  0  0  0  0  0  0  0  0  0  0
  1 14  1  0  0  0  0
  1  2  2  0  0  0  0
  3  2  1  0  0  0  0
  3  8  2  0  0  0  0
  4  3  1  0  0  0  0
  5  7  2  0  0  0  0
  5  4  1  0  0  0  0
  6  5  1  0  0  0  0
  7  1  1  0  0  0  0
  9 10  1  0  0  0  0
  9  8  1  0  0  0  0
 11  9  2  0  0  0  0
 12 11  1  0  0  0  0
 13  4  2  0  0  0  0
 13 11  1  0  0  0  0
 14 15  1  0  0  0  0
 16 15  1  0  0  0  0
 17 16  1  0  0  0  0
 18 17  1  0  0  0  0
 18 19  1  0  0  0  0
 19 14  1  0  0  0  0
 20 10  1  0  0  0  0
 21 12  1  0  0  0  0
M  END
>  <CHROM.1>
150.99556191,-87.99780166,-71.89145527,-12.02878904,-5.36798954,6.32339684
2.76172789,-0.58426267,1.44606727

>  <Name>
lig.pdb

>  <RI>
2.20372e+07

>  <Rbt.Current_Directory>
/home/itssahil/PROJECTS/Mol_Feturizer/New_Systems/rnas/2lwk

>  <Rbt.Executable>
rbdock ($Id: //depot/dev/client3/rdock/2013.1/src/exe/rbdock.cxx#4 $)

>  <Rbt.Library>
libRbt.so (2013.1, Build901 2013/11/27)

>  <Rbt.Parameter_File>
/export/apps/rDock/src/rDock_2013.1_src/data/scripts/dock_solv.prm

>  <Rbt.Receptor>
prm/pocket_docking_7.prm

>  <SCORE>
-21.7974

>  <SCORE.INTER>
-18.4309

>  <SCORE.INTER.CONST>
1

>  <SCORE.INTER.POLAR>
-3.09153

>  <SCORE.INTER.ROT>
3

>  <SCORE.INTER.SOLV>
8.94693

>  <SCORE.INTER.VDW>
-10.5645

>  <SCORE.INTER.norm>
-0.877663

>  <SCORE.INTRA>
-3.3665

>  <SCORE.INTRA.DIHEDRAL>
0.392618

>  <SCORE.INTRA.DIHEDRAL.0>
8.84257

>  <SCORE.INTRA.POLAR>
0

>  <SCORE.INTRA.POLAR.0>
0

>  <SCORE.INTRA.REPUL>
0

>  <SCORE.INTRA.REPUL.0>
0

>  <SCORE.INTRA.SOLV>
-0.0564578

>  <SCORE.INTRA.SOLV.lig_0>
-17.1313

>  <SCORE.INTRA.VDW>
-3.53458

>  <SCORE.INTRA.VDW.0>
6.34071

>  <SCORE.INTRA.norm>
-0.16031

>  <SCORE.RESTR>
0

>  <SCORE.RESTR.CAVITY>
0

>  <SCORE.RESTR.norm>
0

>  <SCORE.SYSTEM>
0

>  <SCORE.SYSTEM.CONST>
0

>  <SCORE.SYSTEM.DIHEDRAL>
0

>  <SCORE.SYSTEM.SOLV>
0

>  <SCORE.SYSTEM.norm>
0

>  <SCORE.heavy>
21

>  <SCORE.norm>
-1.03797

>  <RMSD>
8.268

$$$$
lig.pdb
 OpenBabel11021811453D
libRbt.so/2013.1/901 2013/11/27
 21 23  0  0  0  0  0  0  0  0999 V2000
   -8.4074    0.2536    8.4862 C   0  0  0  0  0  0  0  0  0  0  0  0
   -7.9187    0.9795    7.4870 N   0  0  0  0  0  0  0  0  0  0  0  0
   -6.9294    1.8264    7.7085 C   0  0  0  0  0  0  0  0  0  0  0  0
   -6.4641    2.0030    8.9616 C   0  0  0  0  0  0  0  0  0  0  0  0
   -6.9570    1.2664    9.9662 C   0  0  0  0  0  0  0  0  0  0  0  0
   -6.5066    1.4380   11.2085 N   0  0  0  0  0  0  0  0  0  0  0  0
   -7.9306    0.3949    9.7237 N   0  0  0  0  0  0  0  0  0  0  0  0
   -6.4250    2.5398    6.6881 C   0  0  0  0  0  0  0  0  0  0  0  0
   -5.5289    3.5393    6.9534 C   0  0  0  0  0  0  0  0  0  0  0  0
   -5.6424    4.7390    6.2111 O   0  0  0  0  0  0  0  0  0  0  0  0
   -4.9418    3.5669    8.1612 C   0  0  0  0  0  0  0  0  0  0  0  0
   -3.7111    4.2559    8.3302 O   0  0  0  0  0  0  0  0  0  0  0  0
   -5.4750    2.8785    9.1896 C   0  0  0  0  0  0  0  0  0  0  0  0
   -9.3863   -0.6027    8.2500 N   0  0  0  0  0  0  0  0  0  0  0  0
  -10.6293   -0.1578    8.4583 C   0  0  0  0  0  0  0  0  0  0  0  0
  -10.9526   -0.1899    9.9444 C   0  0  0  0  0  0  0  0  0  0  0  0
  -10.8701   -1.4863   10.4085 N   0  0  0  0  0  0  0  0  0  0  0  0
   -9.5709   -1.9044   10.2193 C   0  0  0  0  0  0  0  0  0  0  0  0
   -9.2464   -1.8779    8.7349 C   0  0  0  0  0  0  0  0  0  0  0  0
   -4.7197    4.6863    5.1532 C   0  0  0  0  0  0  0  0  0  0  0  0
   -2.6608    3.3974    7.9693 C   0  0  0  0  0  0  0  0  0  0  0  0
  1 14  1  0  0  0  0
  1  2  2  0  0  0  0
  3  2  1  0  0  0  0
  3  8  2  0  0  0  0
  4  3  1  0  0  0  0
  5  7  2  0  0  0  0
  5  4  1  0  0  0  0
  6  5  1  0  0  0  0
  7  1  1  0  0  0  0
  9 10  1  0  0  0  0
  9  8  1  0  0  0  0
 11  9  2  0  0  0  0
 12 11  1  0  0  0  0
 13  4  2  0  0  0  0
 13 11  1  0  0  0  0
 14 15  1  0  0  0  0
 16 15  1  0  0  0  0
 17 16  1  0  0  0  0
 18 17  1  0  0  0  0
 18 19  1  0  0  0  0
 19 14  1  0  0  0  0
 20 10  1  0  0  0  0
 21 12  1  0  0  0  0
M  END
>  <CHROM.1>
-94.29818028,-97.67386163,-84.70943804,-7.17063031,1.51612279,8.49275223
2.56610171,0.57324496,1.99932521

>  <Name>
lig.pdb

>  <RI>
2.20372e+07

>  <Rbt.Current_Directory>
/home/itssahil/PROJECTS/Mol_Feturizer/New_Systems/rnas/2lwk

>  <Rbt.Executable>
rbdock ($Id: //depot/dev/client3/rdock/2013.1/src/exe/rbdock.cxx#4 $)

>  <Rbt.Library>
libRbt.so (2013.1, Build901 2013/11/27)

>  <Rbt.Parameter_File>
/export/apps/rDock/src/rDock_2013.1_src/data/scripts/dock_solv.prm

>  <Rbt.Receptor>
prm/pocket_docking_7.prm

>  <SCORE>
-27.0713

>  <SCORE.INTER>
-21.795

>  <SCORE.INTER.CONST>
1

>  <SCORE.INTER.POLAR>
-2.25787

>  <SCORE.INTER.ROT>
3

>  <SCORE.INTER.SOLV>
9.77567

>  <SCORE.INTER.VDW>
-15.8623

>  <SCORE.INTER.norm>
-1.03786

>  <SCORE.INTRA>
-5.27626

>  <SCORE.INTRA.DIHEDRAL>
0.981545

>  <SCORE.INTRA.DIHEDRAL.0>
8.84257

>  <SCORE.INTRA.POLAR>
0

>  <SCORE.INTRA.POLAR.0>
0

>  <SCORE.INTRA.REPUL>
0

>  <SCORE.INTRA.REPUL.0>
0

>  <SCORE.INTRA.SOLV>
0.0812538

>  <SCORE.INTRA.SOLV.lig_0>
-17.1313

>  <SCORE.INTRA.VDW>
-5.80766

>  <SCORE.INTRA.VDW.0>
6.34071

>  <SCORE.INTRA.norm>
-0.251251

>  <SCORE.RESTR>
0

>  <SCORE.RESTR.CAVITY>
0

>  <SCORE.RESTR.norm>
0

>  <SCORE.SYSTEM>
0

>  <SCORE.SYSTEM.CONST>
0

>  <SCORE.SYSTEM.DIHEDRAL>
0

>  <SCORE.SYSTEM.SOLV>
0

>  <SCORE.SYSTEM.norm>
0

>  <SCORE.heavy>
21

>  <SCORE.norm>
-1.28911

>  <RMSD>
8.310

$$$$
lig.pdb
 OpenBabel11021811453D
libRbt.so/2013.1/901 2013/11/27
 21 23  0  0  0  0  0  0  0  0999 V2000
  -12.1209   -5.6457    3.9268 C   0  0  0  0  0  0  0  0  0  0  0  0
  -11.3004   -4.6330    3.6706 N   0  0  0  0  0  0  0  0  0  0  0  0
  -11.4754   -3.4721    4.2760 C   0  0  0  0  0  0  0  0  0  0  0  0
  -12.5279   -3.2961    5.1004 C   0  0  0  0  0  0  0  0  0  0  0  0
  -13.3512   -4.3209    5.3591 C   0  0  0  0  0  0  0  0  0  0  0  0
  -14.3967   -4.1546    6.1683 N   0  0  0  0  0  0  0  0  0  0  0  0
  -13.1449   -5.4930    4.7675 N   0  0  0  0  0  0  0  0  0  0  0  0
  -10.6273   -2.4599    4.0293 C   0  0  0  0  0  0  0  0  0  0  0  0
  -10.9166   -1.2149    4.5175 C   0  0  0  0  0  0  0  0  0  0  0  0
  -10.6517   -0.1029    3.6830 O   0  0  0  0  0  0  0  0  0  0  0  0
  -11.8462   -1.1067    5.4811 C   0  0  0  0  0  0  0  0  0  0  0  0
  -11.8542    0.0348    6.3267 O   0  0  0  0  0  0  0  0  0  0  0  0
  -12.7177   -2.1113    5.6976 C   0  0  0  0  0  0  0  0  0  0  0  0
  -11.9266   -6.8078    3.3276 N   0  0  0  0  0  0  0  0  0  0  0  0
  -13.0093   -7.4027    2.8176 C   0  0  0  0  0  0  0  0  0  0  0  0
  -13.7920   -8.0968    3.9220 C   0  0  0  0  0  0  0  0  0  0  0  0
  -13.0026   -9.0612    4.5135 N   0  0  0  0  0  0  0  0  0  0  0  0
  -11.9172   -8.4163    5.0652 C   0  0  0  0  0  0  0  0  0  0  0  0
  -11.1305   -7.7257    3.9637 C   0  0  0  0  0  0  0  0  0  0  0  0
   -9.4676    0.5060    4.1305 C   0  0  0  0  0  0  0  0  0  0  0  0
  -11.2070   -0.2906    7.5290 C   0  0  0  0  0  0  0  0  0  0  0  0
  1 14  1  0  0  0  0
  1  2  2  0  0  0  0
  3  2  1  0  0  0  0
  3  8  2  0  0  0  0
  4  3  1  0  0  0  0
  5  7  2  0  0  0  0
  5  4  1  0  0  0  0
  6  5  1  0  0  0  0
  7  1  1  0  0  0  0
  9 10  1  0  0  0  0
  9  8  1  0  0  0  0
 11  9  2  0  0  0  0
 12 11  1  0  0  0  0
 13  4  2  0  0  0  0
 13 11  1  0  0  0  0
 14 15  1  0  0  0  0
 16 15  1  0  0  0  0
 17 16  1  0  0  0  0
 18 17  1  0  0  0  0
 18 19  1  0  0  0  0
 19 14  1  0  0  0  0
 20 10  1  0  0  0  0
 21 12  1  0  0  0  0
M  END
>  <CHROM.1>
-134.57639176,-102.73406762,-98.21957978,-12.01959400,-4.04594550,4.69705475
-1.86836878,0.76306384,0.37026482

>  <Name>
lig.pdb

>  <RI>
2.98315e+07

>  <Rbt.Current_Directory>
/home/itssahil/PROJECTS/Mol_Feturizer/New_Systems/rnas/2lwk

>  <Rbt.Executable>
rbdock ($Id: //depot/dev/client3/rdock/2013.1/src/exe/rbdock.cxx#4 $)

>  <Rbt.Library>
libRbt.so (2013.1, Build901 2013/11/27)

>  <Rbt.Parameter_File>
/export/apps/rDock/src/rDock_2013.1_src/data/scripts/dock_solv.prm

>  <Rbt.Receptor>
prm/pocket_docking_5.prm

>  <SCORE>
-18.6531

>  <SCORE.INTER>
-14.3117

>  <SCORE.INTER.CONST>
1

>  <SCORE.INTER.POLAR>
-1.5432

>  <SCORE.INTER.ROT>
3

>  <SCORE.INTER.SOLV>
8.10277

>  <SCORE.INTER.VDW>
-12.698

>  <SCORE.INTER.norm>
-0.68151

>  <SCORE.INTRA>
-4.80888

>  <SCORE.INTRA.DIHEDRAL>
0.857564

>  <SCORE.INTRA.DIHEDRAL.0>
8.84257

>  <SCORE.INTRA.POLAR>
0

>  <SCORE.INTRA.POLAR.0>
0

>  <SCORE.INTRA.REPUL>
0

>  <SCORE.INTRA.REPUL.0>
0

>  <SCORE.INTRA.SOLV>
0.0808618

>  <SCORE.INTRA.SOLV.lig_0>
-17.1313

>  <SCORE.INTRA.VDW>
-5.2781

>  <SCORE.INTRA.VDW.0>
6.34071

>  <SCORE.INTRA.norm>
-0.228994

>  <SCORE.RESTR>
0.46747

>  <SCORE.RESTR.CAVITY>
0.46747

>  <SCORE.RESTR.norm>
0.0222605

>  <SCORE.SYSTEM>
0

>  <SCORE.SYSTEM.CONST>
0

>  <SCORE.SYSTEM.DIHEDRAL>
0

>  <SCORE.SYSTEM.SOLV>
0

>  <SCORE.SYSTEM.norm>
0

>  <SCORE.heavy>
21

>  <SCORE.norm>
-0.888244

>  <RMSD>
8.331

$$$$
lig.pdb
 OpenBabel11021811453D
libRbt.so/2013.1/901 2013/11/27
 21 23  0  0  0  0  0  0  0  0999 V2000
   -6.0161    4.7920    4.1204 C   0  0  0  0  0  0  0  0  0  0  0  0
   -5.5325    5.9362    3.6501 N   0  0  0  0  0  0  0  0  0  0  0  0
   -5.8536    6.3383    2.4335 C   0  0  0  0  0  0  0  0  0  0  0  0
   -6.6158    5.5531    1.6457 C   0  0  0  0  0  0  0  0  0  0  0  0
   -7.1047    4.4014    2.1248 C   0  0  0  0  0  0  0  0  0  0  0  0
   -7.8544    3.6168    1.3516 N   0  0  0  0  0  0  0  0  0  0  0  0
   -6.7996    4.0240    3.3620 N   0  0  0  0  0  0  0  0  0  0  0  0
   -5.3793    7.5081    1.9739 C   0  0  0  0  0  0  0  0  0  0  0  0
   -5.5670    7.8316    0.6577 C   0  0  0  0  0  0  0  0  0  0  0  0
   -4.4981    8.4604   -0.0244 O   0  0  0  0  0  0  0  0  0  0  0  0
   -6.4802    7.1419   -0.0457 C   0  0  0  0  0  0  0  0  0  0  0  0
   -7.0394    7.7102   -1.2215 O   0  0  0  0  0  0  0  0  0  0  0  0
   -6.9234    5.9513    0.4033 C   0  0  0  0  0  0  0  0  0  0  0  0
   -5.7013    4.4073    5.3452 N   0  0  0  0  0  0  0  0  0  0  0  0
   -4.4143    4.5128    5.6898 C   0  0  0  0  0  0  0  0  0  0  0  0
   -3.6232    3.3476    5.1148 C   0  0  0  0  0  0  0  0  0  0  0  0
   -4.1138    2.1609    5.6191 N   0  0  0  0  0  0  0  0  0  0  0  0
   -5.4271    2.0591    5.2150 C   0  0  0  0  0  0  0  0  0  0  0  0
   -6.2210    3.2193    5.7918 C   0  0  0  0  0  0  0  0  0  0  0  0
   -4.7495    9.8422   -0.0494 C   0  0  0  0  0  0  0  0  0  0  0  0
   -8.1981    8.4210   -0.8713 C   0  0  0  0  0  0  0  0  0  0  0  0
  1 14  1  0  0  0  0
  1  2  2  0  0  0  0
  3  2  1  0  0  0  0
  3  8  2  0  0  0  0
  4  3  1  0  0  0  0
  5  7  2  0  0  0  0
  5  4  1  0  0  0  0
  6  5  1  0  0  0  0
  7  1  1  0  0  0  0
  9 10  1  0  0  0  0
  9  8  1  0  0  0  0
 11  9  2  0  0  0  0
 12 11  1  0  0  0  0
 13  4  2  0  0  0  0
 13 11  1  0  0  0  0
 14 15  1  0  0  0  0
 16 15  1  0  0  0  0
 17 16  1  0  0  0  0
 18 17  1  0  0  0  0
 18 19  1  0  0  0  0
 19 14  1  0  0  0  0
 20 10  1  0  0  0  0
 21 12  1  0  0  0  0
M  END
>  <CHROM.1>
-45.50262841,-98.88153643,-90.79691367,-5.90371981,5.58762467,2.46757539
-1.37875372,-0.65107052,-0.72465143

>  <Name>
lig.pdb

>  <RI>
2.75338e+07

>  <Rbt.Current_Directory>
/home/itssahil/PROJECTS/Mol_Feturizer/New_Systems/rnas/2lwk

>  <Rbt.Executable>
rbdock ($Id: //depot/dev/client3/rdock/2013.1/src/exe/rbdock.cxx#4 $)

>  <Rbt.Library>
libRbt.so (2013.1, Build901 2013/11/27)

>  <Rbt.Parameter_File>
/export/apps/rDock/src/rDock_2013.1_src/data/scripts/dock_solv.prm

>  <Rbt.Receptor>
prm/pocket_docking_8.prm

>  <SCORE>
-23.0207

>  <SCORE.INTER>
-19.207

>  <SCORE.INTER.CONST>
1

>  <SCORE.INTER.POLAR>
-2.84281

>  <SCORE.INTER.ROT>
3

>  <SCORE.INTER.SOLV>
6.48448

>  <SCORE.INTER.VDW>
-11.0901

>  <SCORE.INTER.norm>
-0.914617

>  <SCORE.INTRA>
-3.81369

>  <SCORE.INTRA.DIHEDRAL>
0.987487

>  <SCORE.INTRA.DIHEDRAL.0>
8.84257

>  <SCORE.INTRA.POLAR>
0

>  <SCORE.INTRA.POLAR.0>
0

>  <SCORE.INTRA.REPUL>
0

>  <SCORE.INTRA.REPUL.0>
0

>  <SCORE.INTRA.SOLV>
-0.0114947

>  <SCORE.INTRA.SOLV.lig_0>
-17.1313

>  <SCORE.INTRA.VDW>
-4.30169

>  <SCORE.INTRA.VDW.0>
6.34071

>  <SCORE.INTRA.norm>
-0.181604

>  <SCORE.RESTR>
0

>  <SCORE.RESTR.CAVITY>
0

>  <SCORE.RESTR.norm>
0

>  <SCORE.SYSTEM>
0

>  <SCORE.SYSTEM.CONST>
0

>  <SCORE.SYSTEM.DIHEDRAL>
0

>  <SCORE.SYSTEM.SOLV>
0

>  <SCORE.SYSTEM.norm>
0

>  <SCORE.heavy>
21

>  <SCORE.norm>
-1.09622

>  <RMSD>
8.559

$$$$
lig.pdb
 OpenBabel11021811453D
libRbt.so/2013.1/901 2013/11/27
 21 23  0  0  0  0  0  0  0  0999 V2000
  -13.0763   -5.6828    6.0717 C   0  0  0  0  0  0  0  0  0  0  0  0
  -12.3273   -4.7033    5.5779 N   0  0  0  0  0  0  0  0  0  0  0  0
  -12.3646   -3.5026    6.1272 C   0  0  0  0  0  0  0  0  0  0  0  0
  -13.2146   -3.2551    7.1443 C   0  0  0  0  0  0  0  0  0  0  0  0
  -13.9658   -4.2465    7.6419 C   0  0  0  0  0  0  0  0  0  0  0  0
  -14.8123   -4.0098    8.6435 N   0  0  0  0  0  0  0  0  0  0  0  0
  -13.8950   -5.4580    7.1002 N   0  0  0  0  0  0  0  0  0  0  0  0
  -11.5865   -2.5234    5.6367 C   0  0  0  0  0  0  0  0  0  0  0  0
  -11.7604   -1.2444    6.0907 C   0  0  0  0  0  0  0  0  0  0  0  0
  -11.6781   -0.1939    5.1458 O   0  0  0  0  0  0  0  0  0  0  0  0
  -12.4607   -1.0576    7.2216 C   0  0  0  0  0  0  0  0  0  0  0  0
  -12.2832    0.1365    7.9704 O   0  0  0  0  0  0  0  0  0  0  0  0
  -13.2681   -2.0307    7.6872 C   0  0  0  0  0  0  0  0  0  0  0  0
  -13.0188   -6.8847    5.5244 N   0  0  0  0  0  0  0  0  0  0  0  0
  -11.7975   -7.3704    5.2824 C   0  0  0  0  0  0  0  0  0  0  0  0
  -11.2354   -6.7577    4.0086 C   0  0  0  0  0  0  0  0  0  0  0  0
  -12.0505   -7.0764    2.9423 N   0  0  0  0  0  0  0  0  0  0  0  0
  -13.2888   -6.5294    3.1991 C   0  0  0  0  0  0  0  0  0  0  0  0
  -13.8551   -7.1432    4.4686 C   0  0  0  0  0  0  0  0  0  0  0  0
  -10.3198    0.0616    4.8949 C   0  0  0  0  0  0  0  0  0  0  0  0
  -11.3868   -0.1187    9.0200 C   0  0  0  0  0  0  0  0  0  0  0  0
  1 14  1  0  0  0  0
  1  2  2  0  0  0  0
  3  2  1  0  0  0  0
  3  8  2  0  0  0  0
  4  3  1  0  0  0  0
  5  7  2  0  0  0  0
  5  4  1  0  0  0  0
  6  5  1  0  0  0  0
  7  1  1  0  0  0  0
  9 10  1  0  0  0  0
  9  8  1  0  0  0  0
 11  9  2  0  0  0  0
 12 11  1  0  0  0  0
 13  4  2  0  0  0  0
 13 11  1  0  0  0  0
 14 15  1  0  0  0  0
 16 15  1  0  0  0  0
 17 16  1  0  0  0  0
 18 17  1  0  0  0  0
 18 19  1  0  0  0  0
 19 14  1  0  0  0  0
 20 10  1  0  0  0  0
 21 12  1  0  0  0  0
M  END
>  <CHROM.1>
46.78717138,-79.27953119,-97.84081981,-12.54099528,-3.76422058,6.05670129
1.76563764,-0.93556733,-2.58400205

>  <Name>
lig.pdb

>  <RI>
2.59814e+07

>  <Rbt.Current_Directory>
/home/itssahil/PROJECTS/Mol_Feturizer/New_Systems/rnas/2lwk

>  <Rbt.Executable>
rbdock ($Id: //depot/dev/client3/rdock/2013.1/src/exe/rbdock.cxx#4 $)

>  <Rbt.Library>
libRbt.so (2013.1, Build901 2013/11/27)

>  <Rbt.Parameter_File>
/export/apps/rDock/src/rDock_2013.1_src/data/scripts/dock_solv.prm

>  <Rbt.Receptor>
prm/pocket_docking_6.prm

>  <SCORE>
-22.3634

>  <SCORE.INTER>
-17.8266

>  <SCORE.INTER.CONST>
1

>  <SCORE.INTER.POLAR>
-2.35742

>  <SCORE.INTER.ROT>
3

>  <SCORE.INTER.SOLV>
6.9904

>  <SCORE.INTER.VDW>
-11.9565

>  <SCORE.INTER.norm>
-0.848888

>  <SCORE.INTRA>
-4.53679

>  <SCORE.INTRA.DIHEDRAL>
0.223194

>  <SCORE.INTRA.DIHEDRAL.0>
8.84257

>  <SCORE.INTRA.POLAR>
0

>  <SCORE.INTRA.POLAR.0>
0

>  <SCORE.INTRA.REPUL>
0

>  <SCORE.INTRA.REPUL.0>
0

>  <SCORE.INTRA.SOLV>
0.0640652

>  <SCORE.INTRA.SOLV.lig_0>
-17.1313

>  <SCORE.INTRA.VDW>
-4.68042

>  <SCORE.INTRA.VDW.0>
6.34071

>  <SCORE.INTRA.norm>
-0.216038

>  <SCORE.RESTR>
0

>  <SCORE.RESTR.CAVITY>
0

>  <SCORE.RESTR.norm>
0

>  <SCORE.SYSTEM>
0

>  <SCORE.SYSTEM.CONST>
0

>  <SCORE.SYSTEM.DIHEDRAL>
0

>  <SCORE.SYSTEM.SOLV>
0

>  <SCORE.SYSTEM.norm>
0

>  <SCORE.heavy>
21

>  <SCORE.norm>
-1.06493

>  <RMSD>
8.580

$$$$
lig.pdb
 OpenBabel11021811453D
libRbt.so/2013.1/901 2013/11/27
 21 23  0  0  0  0  0  0  0  0999 V2000
  -12.5275   -5.7920    3.8735 C   0  0  0  0  0  0  0  0  0  0  0  0
  -11.6873   -4.7666    3.7913 N   0  0  0  0  0  0  0  0  0  0  0  0
  -11.8712   -3.7000    4.5486 C   0  0  0  0  0  0  0  0  0  0  0  0
  -12.9507   -3.6252    5.3531 C   0  0  0  0  0  0  0  0  0  0  0  0
  -13.7940   -4.6630    5.4360 C   0  0  0  0  0  0  0  0  0  0  0  0
  -14.8660   -4.5958    6.2245 N   0  0  0  0  0  0  0  0  0  0  0  0
  -13.5794   -5.7431    4.6919 N   0  0  0  0  0  0  0  0  0  0  0  0
  -11.0036   -2.6768    4.4766 C   0  0  0  0  0  0  0  0  0  0  0  0
  -11.2967   -1.5086    5.1259 C   0  0  0  0  0  0  0  0  0  0  0  0
  -10.9897   -0.2944    4.4666 O   0  0  0  0  0  0  0  0  0  0  0  0
  -12.2591   -1.5225    6.0628 C   0  0  0  0  0  0  0  0  0  0  0  0
  -12.2850   -0.5117    7.0606 O   0  0  0  0  0  0  0  0  0  0  0  0
  -13.1489   -2.5335    6.1052 C   0  0  0  0  0  0  0  0  0  0  0  0
  -12.3246   -6.8610    3.1229 N   0  0  0  0  0  0  0  0  0  0  0  0
  -13.4128   -7.5407    2.7487 C   0  0  0  0  0  0  0  0  0  0  0  0
  -13.8927   -8.4258    3.8890 C   0  0  0  0  0  0  0  0  0  0  0  0
  -12.9056   -9.3310    4.2198 N   0  0  0  0  0  0  0  0  0  0  0  0
  -11.8124   -8.6053    4.6400 C   0  0  0  0  0  0  0  0  0  0  0  0
  -11.3276   -7.7235    3.5013 C   0  0  0  0  0  0  0  0  0  0  0  0
   -9.6186   -0.0406    4.6363 C   0  0  0  0  0  0  0  0  0  0  0  0
  -11.3404   -0.8298    8.0490 C   0  0  0  0  0  0  0  0  0  0  0  0
  1 14  1  0  0  0  0
  1  2  2  0  0  0  0
  3  2  1  0  0  0  0
  3  8  2  0  0  0  0
  4  3  1  0  0  0  0
  5  7  2  0  0  0  0
  5  4  1  0  0  0  0
  6  5  1  0  0  0  0
  7  1  1  0  0  0  0
  9 10  1  0  0  0  0
  9  8  1  0  0  0  0
 11  9  2  0  0  0  0
 12 11  1  0  0  0  0
 13  4  2  0  0  0  0
 13 11  1  0  0  0  0
 14 15  1  0  0  0  0
 16 15  1  0  0  0  0
 17 16  1  0  0  0  0
 18 17  1  0  0  0  0
 18 19  1  0  0  0  0
 19 14  1  0  0  0  0
 20 10  1  0  0  0  0
 21 12  1  0  0  0  0
M  END
>  <CHROM.1>
-149.45035268,-80.29983837,-79.64636268,-12.32436205,-4.33604241,4.87665629
-1.82070321,0.67454145,0.44137096

>  <Name>
lig.pdb

>  <RI>
2.59814e+07

>  <Rbt.Current_Directory>
/home/itssahil/PROJECTS/Mol_Feturizer/New_Systems/rnas/2lwk

>  <Rbt.Executable>
rbdock ($Id: //depot/dev/client3/rdock/2013.1/src/exe/rbdock.cxx#4 $)

>  <Rbt.Library>
libRbt.so (2013.1, Build901 2013/11/27)

>  <Rbt.Parameter_File>
/export/apps/rDock/src/rDock_2013.1_src/data/scripts/dock_solv.prm

>  <Rbt.Receptor>
prm/pocket_docking_6.prm

>  <SCORE>
-19.9206

>  <SCORE.INTER>
-15.7474

>  <SCORE.INTER.CONST>
1

>  <SCORE.INTER.POLAR>
-1.11355

>  <SCORE.INTER.ROT>
3

>  <SCORE.INTER.SOLV>
7.30282

>  <SCORE.INTER.VDW>
-14.8207

>  <SCORE.INTER.norm>
-0.749875

>  <SCORE.INTRA>
-4.17324

>  <SCORE.INTRA.DIHEDRAL>
0.296935

>  <SCORE.INTRA.DIHEDRAL.0>
8.84257

>  <SCORE.INTRA.POLAR>
0

>  <SCORE.INTRA.POLAR.0>
0

>  <SCORE.INTRA.REPUL>
0

>  <SCORE.INTRA.REPUL.0>
0

>  <SCORE.INTRA.SOLV>
0.0472675

>  <SCORE.INTRA.SOLV.lig_0>
-17.1313

>  <SCORE.INTRA.VDW>
-4.34535

>  <SCORE.INTRA.VDW.0>
6.34071

>  <SCORE.INTRA.norm>
-0.198726

>  <SCORE.RESTR>
0

>  <SCORE.RESTR.CAVITY>
0

>  <SCORE.RESTR.norm>
0

>  <SCORE.SYSTEM>
0

>  <SCORE.SYSTEM.CONST>
0

>  <SCORE.SYSTEM.DIHEDRAL>
0

>  <SCORE.SYSTEM.SOLV>
0

>  <SCORE.SYSTEM.norm>
0

>  <SCORE.heavy>
21

>  <SCORE.norm>
-0.948601

>  <RMSD>
8.585

$$$$
lig.pdb
 OpenBabel11021811453D
libRbt.so/2013.1/901 2013/11/27
 21 23  0  0  0  0  0  0  0  0999 V2000
   -6.1667    4.5237    4.1871 C   0  0  0  0  0  0  0  0  0  0  0  0
   -5.6275    5.6960    3.8718 N   0  0  0  0  0  0  0  0  0  0  0  0
   -5.8589    6.2318    2.6869 C   0  0  0  0  0  0  0  0  0  0  0  0
   -6.5852    5.5557    1.7739 C   0  0  0  0  0  0  0  0  0  0  0  0
   -7.1304    4.3753    2.0968 C   0  0  0  0  0  0  0  0  0  0  0  0
   -7.8453    3.6978    1.1993 N   0  0  0  0  0  0  0  0  0  0  0  0
   -6.9158    3.8623    3.3039 N   0  0  0  0  0  0  0  0  0  0  0  0
   -5.3291    7.4287    2.3843 C   0  0  0  0  0  0  0  0  0  0  0  0
   -5.4226    7.8929    1.1006 C   0  0  0  0  0  0  0  0  0  0  0  0
   -4.2973    8.5576    0.5575 O   0  0  0  0  0  0  0  0  0  0  0  0
   -6.3030    7.3073    0.2721 C   0  0  0  0  0  0  0  0  0  0  0  0
   -6.7708    8.0112   -0.8698 O   0  0  0  0  0  0  0  0  0  0  0  0
   -6.8015    6.0900    0.5638 C   0  0  0  0  0  0  0  0  0  0  0  0
   -5.9418    4.0046    5.3817 N   0  0  0  0  0  0  0  0  0  0  0  0
   -5.0126    4.6093    6.1280 C   0  0  0  0  0  0  0  0  0  0  0  0
   -3.6234    4.1852    5.6762 C   0  0  0  0  0  0  0  0  0  0  0  0
   -3.4836    2.8210    5.8270 N   0  0  0  0  0  0  0  0  0  0  0  0
   -4.4246    2.2237    5.0169 C   0  0  0  0  0  0  0  0  0  0  0  0
   -5.8139    2.6419    5.4689 C   0  0  0  0  0  0  0  0  0  0  0  0
   -4.3717    9.9116    0.9239 C   0  0  0  0  0  0  0  0  0  0  0  0
   -7.8025    8.8768   -0.4741 C   0  0  0  0  0  0  0  0  0  0  0  0
  1 14  1  0  0  0  0
  1  2  2  0  0  0  0
  3  2  1  0  0  0  0
  3  8  2  0  0  0  0
  4  3  1  0  0  0  0
  5  7  2  0  0  0  0
  5  4  1  0  0  0  0
  6  5  1  0  0  0  0
  7  1  1  0  0  0  0
  9 10  1  0  0  0  0
  9  8  1  0  0  0  0
 11  9  2  0  0  0  0
 12 11  1  0  0  0  0
 13  4  2  0  0  0  0
 13 11  1  0  0  0  0
 14 15  1  0  0  0  0
 16 15  1  0  0  0  0
 17 16  1  0  0  0  0
 18 17  1  0  0  0  0
 18 19  1  0  0  0  0
 19 14  1  0  0  0  0
 20 10  1  0  0  0  0
 21 12  1  0  0  0  0
M  END
>  <CHROM.1>
-9.79503310,-86.01595081,-81.60798304,-5.77233073,5.65740969,2.69998269,1.35753118
0.69657275,2.46890526

>  <Name>
lig.pdb

>  <RI>
2.75338e+07

>  <Rbt.Current_Directory>
/home/itssahil/PROJECTS/Mol_Feturizer/New_Systems/rnas/2lwk

>  <Rbt.Executable>
rbdock ($Id: //depot/dev/client3/rdock/2013.1/src/exe/rbdock.cxx#4 $)

>  <Rbt.Library>
libRbt.so (2013.1, Build901 2013/11/27)

>  <Rbt.Parameter_File>
/export/apps/rDock/src/rDock_2013.1_src/data/scripts/dock_solv.prm

>  <Rbt.Receptor>
prm/pocket_docking_8.prm

>  <SCORE>
-23.1576

>  <SCORE.INTER>
-19.906

>  <SCORE.INTER.CONST>
1

>  <SCORE.INTER.POLAR>
-2.79734

>  <SCORE.INTER.ROT>
3

>  <SCORE.INTER.SOLV>
6.64813

>  <SCORE.INTER.VDW>
-11.7623

>  <SCORE.INTER.norm>
-0.947906

>  <SCORE.INTRA>
-3.25154

>  <SCORE.INTRA.DIHEDRAL>
0.6089

>  <SCORE.INTRA.DIHEDRAL.0>
8.84257

>  <SCORE.INTRA.POLAR>
0

>  <SCORE.INTRA.POLAR.0>
0

>  <SCORE.INTRA.REPUL>
0

>  <SCORE.INTRA.REPUL.0>
0

>  <SCORE.INTRA.SOLV>
-0.0418999

>  <SCORE.INTRA.SOLV.lig_0>
-17.1313

>  <SCORE.INTRA.VDW>
-3.53504

>  <SCORE.INTRA.VDW.0>
6.34071

>  <SCORE.INTRA.norm>
-0.154835

>  <SCORE.RESTR>
0

>  <SCORE.RESTR.CAVITY>
0

>  <SCORE.RESTR.norm>
0

>  <SCORE.SYSTEM>
0

>  <SCORE.SYSTEM.CONST>
0

>  <SCORE.SYSTEM.DIHEDRAL>
0

>  <SCORE.SYSTEM.SOLV>
0

>  <SCORE.SYSTEM.norm>
0

>  <SCORE.heavy>
21

>  <SCORE.norm>
-1.10274

>  <RMSD>
8.608

$$$$
lig.pdb
 OpenBabel11021811453D
libRbt.so/2013.1/901 2013/11/27
 21 23  0  0  0  0  0  0  0  0999 V2000
  -13.9013   -4.5993    4.9020 C   0  0  0  0  0  0  0  0  0  0  0  0
  -12.9570   -3.7545    4.5033 N   0  0  0  0  0  0  0  0  0  0  0  0
  -12.6245   -2.7283    5.2656 C   0  0  0  0  0  0  0  0  0  0  0  0
  -13.2922   -2.5008    6.4148 C   0  0  0  0  0  0  0  0  0  0  0  0
  -14.2415   -3.3571    6.8154 C   0  0  0  0  0  0  0  0  0  0  0  0
  -14.9100   -3.1372    7.9470 N   0  0  0  0  0  0  0  0  0  0  0  0
  -14.5442   -4.4034    6.0540 N   0  0  0  0  0  0  0  0  0  0  0  0
  -11.6522   -1.8918    4.8661 C   0  0  0  0  0  0  0  0  0  0  0  0
  -11.4372   -0.7372    5.5683 C   0  0  0  0  0  0  0  0  0  0  0  0
  -11.1494    0.4368    4.8321 O   0  0  0  0  0  0  0  0  0  0  0  0
  -11.9686   -0.6286    6.7971 C   0  0  0  0  0  0  0  0  0  0  0  0
  -11.4160    0.2954    7.7240 O   0  0  0  0  0  0  0  0  0  0  0  0
  -12.9694   -1.4468    7.1774 C   0  0  0  0  0  0  0  0  0  0  0  0
  -14.2146   -5.6321    4.1388 N   0  0  0  0  0  0  0  0  0  0  0  0
  -14.8134   -6.6610    4.7463 C   0  0  0  0  0  0  0  0  0  0  0  0
  -13.7821   -7.5072    5.4773 C   0  0  0  0  0  0  0  0  0  0  0  0
  -12.8679   -8.0068    4.5732 N   0  0  0  0  0  0  0  0  0  0  0  0
  -12.2379   -6.9275    3.9929 C   0  0  0  0  0  0  0  0  0  0  0  0
  -13.2650   -6.0827    3.2577 C   0  0  0  0  0  0  0  0  0  0  0  0
   -9.8546    0.3125    4.3017 C   0  0  0  0  0  0  0  0  0  0  0  0
  -10.5444   -0.3936    8.5818 C   0  0  0  0  0  0  0  0  0  0  0  0
  1 14  1  0  0  0  0
  1  2  2  0  0  0  0
  3  2  1  0  0  0  0
  3  8  2  0  0  0  0
  4  3  1  0  0  0  0
  5  7  2  0  0  0  0
  5  4  1  0  0  0  0
  6  5  1  0  0  0  0
  7  1  1  0  0  0  0
  9 10  1  0  0  0  0
  9  8  1  0  0  0  0
 11  9  2  0  0  0  0
 12 11  1  0  0  0  0
 13  4  2  0  0  0  0
 13 11  1  0  0  0  0
 14 15  1  0  0  0  0
 16 15  1  0  0  0  0
 17 16  1  0  0  0  0
 18 17  1  0  0  0  0
 18 19  1  0  0  0  0
 19 14  1  0  0  0  0
 20 10  1  0  0  0  0
 21 12  1  0  0  0  0
M  END
>  <CHROM.1>
158.54859605,-71.43647001,-98.01384278,-12.76966359,-3.29452375,5.62719805
2.10344418,-0.83363220,-2.45027593

>  <Name>
lig.pdb

>  <RI>
2.59814e+07

>  <Rbt.Current_Directory>
/home/itssahil/PROJECTS/Mol_Feturizer/New_Systems/rnas/2lwk

>  <Rbt.Executable>
rbdock ($Id: //depot/dev/client3/rdock/2013.1/src/exe/rbdock.cxx#4 $)

>  <Rbt.Library>
libRbt.so (2013.1, Build901 2013/11/27)

>  <Rbt.Parameter_File>
/export/apps/rDock/src/rDock_2013.1_src/data/scripts/dock_solv.prm

>  <Rbt.Receptor>
prm/pocket_docking_6.prm

>  <SCORE>
-26.5603

>  <SCORE.INTER>
-23.7927

>  <SCORE.INTER.CONST>
1

>  <SCORE.INTER.POLAR>
-2.7501

>  <SCORE.INTER.ROT>
3

>  <SCORE.INTER.SOLV>
9.109

>  <SCORE.INTER.VDW>
-15.3311

>  <SCORE.INTER.norm>
-1.13299

>  <SCORE.INTRA>
-2.76762

>  <SCORE.INTRA.DIHEDRAL>
-0.261301

>  <SCORE.INTRA.DIHEDRAL.0>
8.84257

>  <SCORE.INTRA.POLAR>
0

>  <SCORE.INTRA.POLAR.0>
0

>  <SCORE.INTRA.REPUL>
0

>  <SCORE.INTRA.REPUL.0>
0

>  <SCORE.INTRA.SOLV>
-0.0878683

>  <SCORE.INTRA.SOLV.lig_0>
-17.1313

>  <SCORE.INTRA.VDW>
-2.59304

>  <SCORE.INTRA.VDW.0>
6.34071

>  <SCORE.INTRA.norm>
-0.131792

>  <SCORE.RESTR>
0

>  <SCORE.RESTR.CAVITY>
0

>  <SCORE.RESTR.norm>
0

>  <SCORE.SYSTEM>
0

>  <SCORE.SYSTEM.CONST>
0

>  <SCORE.SYSTEM.DIHEDRAL>
0

>  <SCORE.SYSTEM.SOLV>
0

>  <SCORE.SYSTEM.norm>
0

>  <SCORE.heavy>
21

>  <SCORE.norm>
-1.26478

>  <RMSD>
8.638

$$$$
lig.pdb
 OpenBabel11021811453D
libRbt.so/2013.1/901 2013/11/27
 21 23  0  0  0  0  0  0  0  0999 V2000
  -12.5051   -5.9106    3.9669 C   0  0  0  0  0  0  0  0  0  0  0  0
  -11.6581   -4.8997    3.8083 N   0  0  0  0  0  0  0  0  0  0  0  0
  -11.8230   -3.7858    4.4988 C   0  0  0  0  0  0  0  0  0  0  0  0
  -12.8903   -3.6508    5.3116 C   0  0  0  0  0  0  0  0  0  0  0  0
  -13.7404   -4.6739    5.4718 C   0  0  0  0  0  0  0  0  0  0  0  0
  -14.8006   -4.5477    6.2690 N   0  0  0  0  0  0  0  0  0  0  0  0
  -13.5448   -5.8008    4.7949 N   0  0  0  0  0  0  0  0  0  0  0  0
  -10.9487   -2.7767    4.3501 C   0  0  0  0  0  0  0  0  0  0  0  0
  -11.2234   -1.5672    4.9279 C   0  0  0  0  0  0  0  0  0  0  0  0
  -10.9164   -0.3999    4.1887 O   0  0  0  0  0  0  0  0  0  0  0  0
  -12.1725   -1.5134    5.8769 C   0  0  0  0  0  0  0  0  0  0  0  0
  -12.1764   -0.4412    6.8088 O   0  0  0  0  0  0  0  0  0  0  0  0
  -13.0694   -2.5120    5.9955 C   0  0  0  0  0  0  0  0  0  0  0  0
  -12.3210   -7.0267    3.2830 N   0  0  0  0  0  0  0  0  0  0  0  0
  -13.3843   -7.5075    2.6315 C   0  0  0  0  0  0  0  0  0  0  0  0
  -14.2991   -8.2443    3.5982 C   0  0  0  0  0  0  0  0  0  0  0  0
  -13.6190   -9.3029    4.1639 N   0  0  0  0  0  0  0  0  0  0  0  0
  -12.5541   -8.7761    4.8616 C   0  0  0  0  0  0  0  0  0  0  0  0
  -11.6358   -8.0433    3.8977 C   0  0  0  0  0  0  0  0  0  0  0  0
   -9.6171    0.0064    4.5349 C   0  0  0  0  0  0  0  0  0  0  0  0
  -11.2767   -0.7405    7.8438 C   0  0  0  0  0  0  0  0  0  0  0  0
  1 14  1  0  0  0  0
  1  2  2  0  0  0  0
  3  2  1  0  0  0  0
  3  8  2  0  0  0  0
  4  3  1  0  0  0  0
  5  7  2  0  0  0  0
  5  4  1  0  0  0  0
  6  5  1  0  0  0  0
  7  1  1  0  0  0  0
  9 10  1  0  0  0  0
  9  8  1  0  0  0  0
 11  9  2  0  0  0  0
 12 11  1  0  0  0  0
 13  4  2  0  0  0  0
 13 11  1  0  0  0  0
 14 15  1  0  0  0  0
 16 15  1  0  0  0  0
 17 16  1  0  0  0  0
 18 17  1  0  0  0  0
 18 19  1  0  0  0  0
 19 14  1  0  0  0  0
 20 10  1  0  0  0  0
 21 12  1  0  0  0  0
M  END
>  <CHROM.1>
-130.26540105,-92.02241037,-83.04295415,-12.38989013,-4.37297740,4.82994258
-1.90533337,0.72094870,0.47203445

>  <Name>
lig.pdb

>  <RI>
2.59814e+07

>  <Rbt.Current_Directory>
/home/itssahil/PROJECTS/Mol_Feturizer/New_Systems/rnas/2lwk

>  <Rbt.Executable>
rbdock ($Id: //depot/dev/client3/rdock/2013.1/src/exe/rbdock.cxx#4 $)

>  <Rbt.Library>
libRbt.so (2013.1, Build901 2013/11/27)

>  <Rbt.Parameter_File>
/export/apps/rDock/src/rDock_2013.1_src/data/scripts/dock_solv.prm

>  <Rbt.Receptor>
prm/pocket_docking_6.prm

>  <SCORE>
-19.9621

>  <SCORE.INTER>
-14.9094

>  <SCORE.INTER.CONST>
1

>  <SCORE.INTER.POLAR>
-1.11355

>  <SCORE.INTER.ROT>
3

>  <SCORE.INTER.SOLV>
6.97041

>  <SCORE.INTER.VDW>
-14.1513

>  <SCORE.INTER.norm>
-0.709973

>  <SCORE.INTRA>
-5.05264

>  <SCORE.INTRA.DIHEDRAL>
0.835756

>  <SCORE.INTRA.DIHEDRAL.0>
8.84257

>  <SCORE.INTRA.POLAR>
0

>  <SCORE.INTRA.POLAR.0>
0

>  <SCORE.INTRA.REPUL>
0

>  <SCORE.INTRA.REPUL.0>
0

>  <SCORE.INTRA.SOLV>
0.0820242

>  <SCORE.INTRA.SOLV.lig_0>
-17.1313

>  <SCORE.INTRA.VDW>
-5.51153

>  <SCORE.INTRA.VDW.0>
6.34071

>  <SCORE.INTRA.norm>
-0.240602

>  <SCORE.RESTR>
0

>  <SCORE.RESTR.CAVITY>
0

>  <SCORE.RESTR.norm>
0

>  <SCORE.SYSTEM>
0

>  <SCORE.SYSTEM.CONST>
0

>  <SCORE.SYSTEM.DIHEDRAL>
0

>  <SCORE.SYSTEM.SOLV>
0

>  <SCORE.SYSTEM.norm>
0

>  <SCORE.heavy>
21

>  <SCORE.norm>
-0.950575

>  <RMSD>
8.673

$$$$
lig.pdb
 OpenBabel11021811453D
libRbt.so/2013.1/901 2013/11/27
 21 23  0  0  0  0  0  0  0  0999 V2000
   -6.0770    7.4047    1.6335 C   0  0  0  0  0  0  0  0  0  0  0  0
   -6.3554    6.4007    2.4574 N   0  0  0  0  0  0  0  0  0  0  0  0
   -5.4257    5.9402    3.2749 C   0  0  0  0  0  0  0  0  0  0  0  0
   -4.1760    6.4438    3.2230 C   0  0  0  0  0  0  0  0  0  0  0  0
   -3.8999    7.4589    2.3933 C   0  0  0  0  0  0  0  0  0  0  0  0
   -2.6664    7.9593    2.3317 N   0  0  0  0  0  0  0  0  0  0  0  0
   -4.8533    7.9339    1.5986 N   0  0  0  0  0  0  0  0  0  0  0  0
   -5.7220    4.9402    4.1216 C   0  0  0  0  0  0  0  0  0  0  0  0
   -4.7137    4.3504    4.8342 C   0  0  0  0  0  0  0  0  0  0  0  0
   -4.7576    2.9452    4.9969 O   0  0  0  0  0  0  0  0  0  0  0  0
   -3.5323    4.9846    4.9140 C   0  0  0  0  0  0  0  0  0  0  0  0
   -2.6402    4.6802    5.9769 O   0  0  0  0  0  0  0  0  0  0  0  0
   -3.2270    5.9614    4.0375 C   0  0  0  0  0  0  0  0  0  0  0  0
   -7.0197    7.8684    0.8313 N   0  0  0  0  0  0  0  0  0  0  0  0
   -6.9909    7.4360   -0.4329 C   0  0  0  0  0  0  0  0  0  0  0  0
   -5.9372    8.1988   -1.2214 C   0  0  0  0  0  0  0  0  0  0  0  0
   -6.2463    9.5433   -1.2274 N   0  0  0  0  0  0  0  0  0  0  0  0
   -6.2286    9.9707    0.0823 C   0  0  0  0  0  0  0  0  0  0  0  0
   -7.2836    9.2136    0.8716 C   0  0  0  0  0  0  0  0  0  0  0  0
   -5.5074    2.6629    6.1507 C   0  0  0  0  0  0  0  0  0  0  0  0
   -1.5703    3.9289    5.4660 C   0  0  0  0  0  0  0  0  0  0  0  0
  1 14  1  0  0  0  0
  1  2  2  0  0  0  0
  3  2  1  0  0  0  0
  3  8  2  0  0  0  0
  4  3  1  0  0  0  0
  5  7  2  0  0  0  0
  5  4  1  0  0  0  0
  6  5  1  0  0  0  0
  7  1  1  0  0  0  0
  9 10  1  0  0  0  0
  9  8  1  0  0  0  0
 11  9  2  0  0  0  0
 12 11  1  0  0  0  0
 13  4  2  0  0  0  0
 13 11  1  0  0  0  0
 14 15  1  0  0  0  0
 16 15  1  0  0  0  0
 17 16  1  0  0  0  0
 18 17  1  0  0  0  0
 18 19  1  0  0  0  0
 19 14  1  0  0  0  0
 20 10  1  0  0  0  0
 21 12  1  0  0  0  0
M  END
>  <CHROM.1>
-99.41775252,-88.41105807,106.74614088,-4.96997066,6.47465132,2.68496153
1.93784708,-0.30806918,-0.73755972

>  <Name>
lig.pdb

>  <RI>
2.75338e+07

>  <Rbt.Current_Directory>
/home/itssahil/PROJECTS/Mol_Feturizer/New_Systems/rnas/2lwk

>  <Rbt.Executable>
rbdock ($Id: //depot/dev/client3/rdock/2013.1/src/exe/rbdock.cxx#4 $)

>  <Rbt.Library>
libRbt.so (2013.1, Build901 2013/11/27)

>  <Rbt.Parameter_File>
/export/apps/rDock/src/rDock_2013.1_src/data/scripts/dock_solv.prm

>  <Rbt.Receptor>
prm/pocket_docking_8.prm

>  <SCORE>
-22.5748

>  <SCORE.INTER>
-17.3184

>  <SCORE.INTER.CONST>
1

>  <SCORE.INTER.POLAR>
-2.22333

>  <SCORE.INTER.ROT>
3

>  <SCORE.INTER.SOLV>
5.98734

>  <SCORE.INTER.VDW>
-11.7303

>  <SCORE.INTER.norm>
-0.824685

>  <SCORE.INTRA>
-5.25639

>  <SCORE.INTRA.DIHEDRAL>
0.46279

>  <SCORE.INTRA.DIHEDRAL.0>
8.84257

>  <SCORE.INTRA.POLAR>
0

>  <SCORE.INTRA.POLAR.0>
0

>  <SCORE.INTRA.REPUL>
0

>  <SCORE.INTRA.REPUL.0>
0

>  <SCORE.INTRA.SOLV>
0.112607

>  <SCORE.INTRA.SOLV.lig_0>
-17.1313

>  <SCORE.INTRA.VDW>
-5.54408

>  <SCORE.INTRA.VDW.0>
6.34071

>  <SCORE.INTRA.norm>
-0.250304

>  <SCORE.RESTR>
0

>  <SCORE.RESTR.CAVITY>
0

>  <SCORE.RESTR.norm>
0

>  <SCORE.SYSTEM>
0

>  <SCORE.SYSTEM.CONST>
0

>  <SCORE.SYSTEM.DIHEDRAL>
0

>  <SCORE.SYSTEM.SOLV>
0

>  <SCORE.SYSTEM.norm>
0

>  <SCORE.heavy>
21

>  <SCORE.norm>
-1.07499

>  <RMSD>
8.869

$$$$
lig.pdb
 OpenBabel11021811453D
libRbt.so/2013.1/901 2013/11/27
 21 23  0  0  0  0  0  0  0  0999 V2000
   -5.7542    7.7248    2.2801 C   0  0  0  0  0  0  0  0  0  0  0  0
   -4.5998    7.5921    2.9236 N   0  0  0  0  0  0  0  0  0  0  0  0
   -4.2820    6.4360    3.4779 C   0  0  0  0  0  0  0  0  0  0  0  0
   -5.1603    5.4133    3.4494 C   0  0  0  0  0  0  0  0  0  0  0  0
   -6.3221    5.5497    2.7963 C   0  0  0  0  0  0  0  0  0  0  0  0
   -7.1981    4.5461    2.7673 N   0  0  0  0  0  0  0  0  0  0  0  0
   -6.6155    6.7086    2.2156 N   0  0  0  0  0  0  0  0  0  0  0  0
   -3.1024    6.3029    4.1068 C   0  0  0  0  0  0  0  0  0  0  0  0
   -2.8573    5.1669    4.8290 C   0  0  0  0  0  0  0  0  0  0  0  0
   -2.1812    5.3057    6.0646 O   0  0  0  0  0  0  0  0  0  0  0  0
   -3.6481    4.0997    4.6289 C   0  0  0  0  0  0  0  0  0  0  0  0
   -3.1812    2.8030    4.9735 O   0  0  0  0  0  0  0  0  0  0  0  0
   -4.8466    4.2471    4.0310 C   0  0  0  0  0  0  0  0  0  0  0  0
   -6.0546    8.8814    1.7151 N   0  0  0  0  0  0  0  0  0  0  0  0
   -6.1451    8.8865    0.3817 C   0  0  0  0  0  0  0  0  0  0  0  0
   -4.7557    8.9399   -0.2353 C   0  0  0  0  0  0  0  0  0  0  0  0
   -4.1162   10.0956    0.1627 N   0  0  0  0  0  0  0  0  0  0  0  0
   -4.0001   10.0446    1.5346 C   0  0  0  0  0  0  0  0  0  0  0  0
   -5.3868    9.9960    2.1541 C   0  0  0  0  0  0  0  0  0  0  0  0
   -0.9320    4.6734    5.9517 C   0  0  0  0  0  0  0  0  0  0  0  0
   -2.4599    2.2807    3.8886 C   0  0  0  0  0  0  0  0  0  0  0  0
  1 14  1  0  0  0  0
  1  2  2  0  0  0  0
  3  2  1  0  0  0  0
  3  8  2  0  0  0  0
  4  3  1  0  0  0  0
  5  7  2  0  0  0  0
  5  4  1  0  0  0  0
  6  5  1  0  0  0  0
  7  1  1  0  0  0  0
  9 10  1  0  0  0  0
  9  8  1  0  0  0  0
 11  9  2  0  0  0  0
 12 11  1  0  0  0  0
 13  4  2  0  0  0  0
 13 11  1  0  0  0  0
 14 15  1  0  0  0  0
 16 15  1  0  0  0  0
 17 16  1  0  0  0  0
 18 17  1  0  0  0  0
 18 19  1  0  0  0  0
 19 14  1  0  0  0  0
 20 10  1  0  0  0  0
 21 12  1  0  0  0  0
M  END
>  <CHROM.1>
114.51899171,-114.28632393,-86.45948928,-4.42882830,6.44611461,3.05661027
1.97175424,-0.45626953,-0.45187990

>  <Name>
lig.pdb

>  <RI>
2.75338e+07

>  <Rbt.Current_Directory>
/home/itssahil/PROJECTS/Mol_Feturizer/New_Systems/rnas/2lwk

>  <Rbt.Executable>
rbdock ($Id: //depot/dev/client3/rdock/2013.1/src/exe/rbdock.cxx#4 $)

>  <Rbt.Library>
libRbt.so (2013.1, Build901 2013/11/27)

>  <Rbt.Parameter_File>
/export/apps/rDock/src/rDock_2013.1_src/data/scripts/dock_solv.prm

>  <Rbt.Receptor>
prm/pocket_docking_8.prm

>  <SCORE>
-20.6399

>  <SCORE.INTER>
-16.4909

>  <SCORE.INTER.CONST>
1

>  <SCORE.INTER.POLAR>
-1.72221

>  <SCORE.INTER.ROT>
3

>  <SCORE.INTER.SOLV>
8.2435

>  <SCORE.INTER.VDW>
-13.6011

>  <SCORE.INTER.norm>
-0.78528

>  <SCORE.INTRA>
-4.149

>  <SCORE.INTRA.DIHEDRAL>
0.815791

>  <SCORE.INTRA.DIHEDRAL.0>
8.84257

>  <SCORE.INTRA.POLAR>
0

>  <SCORE.INTRA.POLAR.0>
0

>  <SCORE.INTRA.REPUL>
0

>  <SCORE.INTRA.REPUL.0>
0

>  <SCORE.INTRA.SOLV>
0.057219

>  <SCORE.INTRA.SOLV.lig_0>
-17.1313

>  <SCORE.INTRA.VDW>
-4.5855

>  <SCORE.INTRA.VDW.0>
6.34071

>  <SCORE.INTRA.norm>
-0.197571

>  <SCORE.RESTR>
0

>  <SCORE.RESTR.CAVITY>
0

>  <SCORE.RESTR.norm>
0

>  <SCORE.SYSTEM>
0

>  <SCORE.SYSTEM.CONST>
0

>  <SCORE.SYSTEM.DIHEDRAL>
0

>  <SCORE.SYSTEM.SOLV>
0

>  <SCORE.SYSTEM.norm>
0

>  <SCORE.heavy>
21

>  <SCORE.norm>
-0.982851

>  <RMSD>
8.908

$$$$
lig.pdb
 OpenBabel11021811453D
libRbt.so/2013.1/901 2013/11/27
 21 23  0  0  0  0  0  0  0  0999 V2000
  -15.0640   -4.1389    7.1079 C   0  0  0  0  0  0  0  0  0  0  0  0
  -13.9155   -4.7382    6.8147 N   0  0  0  0  0  0  0  0  0  0  0  0
  -13.8453   -5.5636    5.7859 C   0  0  0  0  0  0  0  0  0  0  0  0
  -14.9562   -5.8499    5.0772 C   0  0  0  0  0  0  0  0  0  0  0  0
  -16.1119   -5.2407    5.3737 C   0  0  0  0  0  0  0  0  0  0  0  0
  -17.2157   -5.5215    4.6820 N   0  0  0  0  0  0  0  0  0  0  0  0
  -16.1612   -4.3880    6.3918 N   0  0  0  0  0  0  0  0  0  0  0  0
  -12.6744   -6.1477    5.4817 C   0  0  0  0  0  0  0  0  0  0  0  0
  -12.6486   -7.1331    4.5326 C   0  0  0  0  0  0  0  0  0  0  0  0
  -11.8170   -8.2535    4.7697 O   0  0  0  0  0  0  0  0  0  0  0  0
  -13.7077   -7.2617    3.7165 C   0  0  0  0  0  0  0  0  0  0  0  0
  -13.5563   -7.9154    2.4643 O   0  0  0  0  0  0  0  0  0  0  0  0
  -14.8893   -6.7045    4.0467 C   0  0  0  0  0  0  0  0  0  0  0  0
  -15.1187   -3.3021    8.1298 N   0  0  0  0  0  0  0  0  0  0  0  0
  -14.7851   -2.0327    7.8779 C   0  0  0  0  0  0  0  0  0  0  0  0
  -13.2712   -1.8899    7.8351 C   0  0  0  0  0  0  0  0  0  0  0  0
  -12.7376   -2.2469    9.0561 N   0  0  0  0  0  0  0  0  0  0  0  0
  -13.0612   -3.5689    9.2707 C   0  0  0  0  0  0  0  0  0  0  0  0
  -14.5731   -3.7140    9.3187 C   0  0  0  0  0  0  0  0  0  0  0  0
  -10.6707   -8.1230    3.9684 C   0  0  0  0  0  0  0  0  0  0  0  0
  -13.8164   -9.2840    2.6361 C   0  0  0  0  0  0  0  0  0  0  0  0
  1 14  1  0  0  0  0
  1  2  2  0  0  0  0
  3  2  1  0  0  0  0
  3  8  2  0  0  0  0
  4  3  1  0  0  0  0
  5  7  2  0  0  0  0
  5  4  1  0  0  0  0
  6  5  1  0  0  0  0
  7  1  1  0  0  0  0
  9 10  1  0  0  0  0
  9  8  1  0  0  0  0
 11  9  2  0  0  0  0
 12 11  1  0  0  0  0
 13  4  2  0  0  0  0
 13 11  1  0  0  0  0
 14 15  1  0  0  0  0
 16 15  1  0  0  0  0
 17 16  1  0  0  0  0
 18 17  1  0  0  0  0
 18 19  1  0  0  0  0
 19 14  1  0  0  0  0
 20 10  1  0  0  0  0
 21 12  1  0  0  0  0
M  END
>  <CHROM.1>
86.47033848,-103.73418375,90.42206921,-14.00492304,-5.40332569,5.90938396
1.72310708,-0.24918252,0.79829092

>  <Name>
lig.pdb

>  <RI>
2.20372e+07

>  <Rbt.Current_Directory>
/home/itssahil/PROJECTS/Mol_Feturizer/New_Systems/rnas/2lwk

>  <Rbt.Executable>
rbdock ($Id: //depot/dev/client3/rdock/2013.1/src/exe/rbdock.cxx#4 $)

>  <Rbt.Library>
libRbt.so (2013.1, Build901 2013/11/27)

>  <Rbt.Parameter_File>
/export/apps/rDock/src/rDock_2013.1_src/data/scripts/dock_solv.prm

>  <Rbt.Receptor>
prm/pocket_docking_7.prm

>  <SCORE>
-21.5379

>  <SCORE.INTER>
-16.3899

>  <SCORE.INTER.CONST>
1

>  <SCORE.INTER.POLAR>
-1.31215

>  <SCORE.INTER.ROT>
3

>  <SCORE.INTER.SOLV>
11.7342

>  <SCORE.INTER.VDW>
-16.0642

>  <SCORE.INTER.norm>
-0.780472

>  <SCORE.INTRA>
-5.14802

>  <SCORE.INTRA.DIHEDRAL>
1.002

>  <SCORE.INTRA.DIHEDRAL.0>
8.84257

>  <SCORE.INTRA.POLAR>
0

>  <SCORE.INTRA.POLAR.0>
0

>  <SCORE.INTRA.REPUL>
0

>  <SCORE.INTRA.REPUL.0>
0

>  <SCORE.INTRA.SOLV>
0.142606

>  <SCORE.INTRA.SOLV.lig_0>
-17.1313

>  <SCORE.INTRA.VDW>
-5.72032

>  <SCORE.INTRA.VDW.0>
6.34071

>  <SCORE.INTRA.norm>
-0.245144

>  <SCORE.RESTR>
0

>  <SCORE.RESTR.CAVITY>
0

>  <SCORE.RESTR.norm>
0

>  <SCORE.SYSTEM>
0

>  <SCORE.SYSTEM.CONST>
0

>  <SCORE.SYSTEM.DIHEDRAL>
0

>  <SCORE.SYSTEM.SOLV>
0

>  <SCORE.SYSTEM.norm>
0

>  <SCORE.heavy>
21

>  <SCORE.norm>
-1.02562

>  <RMSD>
8.942

$$$$
lig.pdb
 OpenBabel11021811453D
libRbt.so/2013.1/901 2013/11/27
 21 23  0  0  0  0  0  0  0  0999 V2000
  -14.5424   -4.5507    6.5953 C   0  0  0  0  0  0  0  0  0  0  0  0
  -13.5901   -4.1268    5.7721 N   0  0  0  0  0  0  0  0  0  0  0  0
  -12.9314   -3.0140    6.0418 C   0  0  0  0  0  0  0  0  0  0  0  0
  -13.2740   -2.2739    7.1156 C   0  0  0  0  0  0  0  0  0  0  0  0
  -14.2326   -2.7067    7.9456 C   0  0  0  0  0  0  0  0  0  0  0  0
  -14.5812   -1.9793    9.0063 N   0  0  0  0  0  0  0  0  0  0  0  0
  -14.8657   -3.8444    7.6794 N   0  0  0  0  0  0  0  0  0  0  0  0
  -11.9537   -2.6043    5.2166 C   0  0  0  0  0  0  0  0  0  0  0  0
  -11.4009   -1.3665    5.4023 C   0  0  0  0  0  0  0  0  0  0  0  0
  -11.1026   -0.5996    4.2509 O   0  0  0  0  0  0  0  0  0  0  0  0
  -11.6136   -0.7408    6.5717 C   0  0  0  0  0  0  0  0  0  0  0  0
  -10.7226    0.2812    6.9956 O   0  0  0  0  0  0  0  0  0  0  0  0
  -12.6201   -1.1335    7.3770 C   0  0  0  0  0  0  0  0  0  0  0  0
  -15.1838   -5.6742    6.3241 N   0  0  0  0  0  0  0  0  0  0  0  0
  -14.6011   -6.8056    6.7324 C   0  0  0  0  0  0  0  0  0  0  0  0
  -13.4929   -7.1991    5.7675 C   0  0  0  0  0  0  0  0  0  0  0  0
  -14.0249   -7.4111    4.5125 N   0  0  0  0  0  0  0  0  0  0  0  0
  -14.5816   -6.2201    4.1002 C   0  0  0  0  0  0  0  0  0  0  0  0
  -15.6924   -5.8266    5.0596 C   0  0  0  0  0  0  0  0  0  0  0  0
   -9.8480   -1.0072    3.7683 C   0  0  0  0  0  0  0  0  0  0  0  0
   -9.5600   -0.3176    7.5057 C   0  0  0  0  0  0  0  0  0  0  0  0
  1 14  1  0  0  0  0
  1  2  2  0  0  0  0
  3  2  1  0  0  0  0
  3  8  2  0  0  0  0
  4  3  1  0  0  0  0
  5  7  2  0  0  0  0
  5  4  1  0  0  0  0
  6  5  1  0  0  0  0
  7  1  1  0  0  0  0
  9 10  1  0  0  0  0
  9  8  1  0  0  0  0
 11  9  2  0  0  0  0
 12 11  1  0  0  0  0
 13  4  2  0  0  0  0
 13 11  1  0  0  0  0
 14 15  1  0  0  0  0
 16 15  1  0  0  0  0
 17 16  1  0  0  0  0
 18 17  1  0  0  0  0
 18 19  1  0  0  0  0
 19 14  1  0  0  0  0
 20 10  1  0  0  0  0
 21 12  1  0  0  0  0
M  END
>  <CHROM.1>
84.68764740,-83.68037488,-77.88300380,-13.03898371,-3.28169865,6.16379560
2.44156308,-0.77083653,-2.36173222

>  <Name>
lig.pdb

>  <RI>
2.59814e+07

>  <Rbt.Current_Directory>
/home/itssahil/PROJECTS/Mol_Feturizer/New_Systems/rnas/2lwk

>  <Rbt.Executable>
rbdock ($Id: //depot/dev/client3/rdock/2013.1/src/exe/rbdock.cxx#4 $)

>  <Rbt.Library>
libRbt.so (2013.1, Build901 2013/11/27)

>  <Rbt.Parameter_File>
/export/apps/rDock/src/rDock_2013.1_src/data/scripts/dock_solv.prm

>  <Rbt.Receptor>
prm/pocket_docking_6.prm

>  <SCORE>
-22.511

>  <SCORE.INTER>
-17.3637

>  <SCORE.INTER.CONST>
1

>  <SCORE.INTER.POLAR>
-2.01338

>  <SCORE.INTER.ROT>
3

>  <SCORE.INTER.SOLV>
8.91608

>  <SCORE.INTER.VDW>
-13.4365

>  <SCORE.INTER.norm>
-0.826841

>  <SCORE.INTRA>
-5.14842

>  <SCORE.INTRA.DIHEDRAL>
0.418817

>  <SCORE.INTRA.DIHEDRAL.0>
8.84257

>  <SCORE.INTRA.POLAR>
0

>  <SCORE.INTRA.POLAR.0>
0

>  <SCORE.INTRA.REPUL>
0

>  <SCORE.INTRA.REPUL.0>
0

>  <SCORE.INTRA.SOLV>
0.078551

>  <SCORE.INTRA.SOLV.lig_0>
-17.1313

>  <SCORE.INTRA.VDW>
-5.39711

>  <SCORE.INTRA.VDW.0>
6.34071

>  <SCORE.INTRA.norm>
-0.245163

>  <SCORE.RESTR>
0.00110547

>  <SCORE.RESTR.CAVITY>
0.00110547

>  <SCORE.RESTR.norm>
5.26412e-05

>  <SCORE.SYSTEM>
0

>  <SCORE.SYSTEM.CONST>
0

>  <SCORE.SYSTEM.DIHEDRAL>
0

>  <SCORE.SYSTEM.SOLV>
0

>  <SCORE.SYSTEM.norm>
0

>  <SCORE.heavy>
21

>  <SCORE.norm>
-1.07195

>  <RMSD>
8.982

$$$$
lig.pdb
 OpenBabel11021811453D
libRbt.so/2013.1/901 2013/11/27
 21 23  0  0  0  0  0  0  0  0999 V2000
   -2.5825   10.8040    0.5006 C   0  0  0  0  0  0  0  0  0  0  0  0
   -2.3656   10.0211    1.5515 N   0  0  0  0  0  0  0  0  0  0  0  0
   -1.6723    8.9055    1.4118 C   0  0  0  0  0  0  0  0  0  0  0  0
   -1.2452    8.5284    0.1897 C   0  0  0  0  0  0  0  0  0  0  0  0
   -1.4628    9.3224   -0.8672 C   0  0  0  0  0  0  0  0  0  0  0  0
   -1.0489    8.9553   -2.0795 N   0  0  0  0  0  0  0  0  0  0  0  0
   -2.1344   10.4580   -0.7069 N   0  0  0  0  0  0  0  0  0  0  0  0
   -1.4372    8.1310    2.4840 C   0  0  0  0  0  0  0  0  0  0  0  0
   -0.8775    6.8956    2.3030 C   0  0  0  0  0  0  0  0  0  0  0  0
   -1.3699    5.8282    3.0912 O   0  0  0  0  0  0  0  0  0  0  0  0
   -0.2908    6.6265    1.1251 C   0  0  0  0  0  0  0  0  0  0  0  0
    0.6788    5.5915    1.0416 O   0  0  0  0  0  0  0  0  0  0  0  0
   -0.5606    7.3852    0.0447 C   0  0  0  0  0  0  0  0  0  0  0  0
   -3.2636   11.9263    0.6552 N   0  0  0  0  0  0  0  0  0  0  0  0
   -3.8584   12.1032    1.8388 C   0  0  0  0  0  0  0  0  0  0  0  0
   -5.1515   11.3041    1.8975 C   0  0  0  0  0  0  0  0  0  0  0  0
   -6.0099   11.7387    0.9090 N   0  0  0  0  0  0  0  0  0  0  0  0
   -5.3896   11.5071   -0.2993 C   0  0  0  0  0  0  0  0  0  0  0  0
   -4.0997   12.3079   -0.3628 C   0  0  0  0  0  0  0  0  0  0  0  0
   -2.6997    5.5827    2.7111 C   0  0  0  0  0  0  0  0  0  0  0  0
    0.0176    4.3699    0.8396 C   0  0  0  0  0  0  0  0  0  0  0  0
  1 14  1  0  0  0  0
  1  2  2  0  0  0  0
  3  2  1  0  0  0  0
  3  8  2  0  0  0  0
  4  3  1  0  0  0  0
  5  7  2  0  0  0  0
  5  4  1  0  0  0  0
  6  5  1  0  0  0  0
  7  1  1  0  0  0  0
  9 10  1  0  0  0  0
  9  8  1  0  0  0  0
 11  9  2  0  0  0  0
 12 11  1  0  0  0  0
 13  4  2  0  0  0  0
 13 11  1  0  0  0  0
 14 15  1  0  0  0  0
 16 15  1  0  0  0  0
 17 16  1  0  0  0  0
 18 17  1  0  0  0  0
 18 19  1  0  0  0  0
 19 14  1  0  0  0  0
 20 10  1  0  0  0  0
 21 12  1  0  0  0  0
M  END
>  <CHROM.1>
-9.37294759,66.31781528,85.52231439,-2.24820181,8.93257692,0.87130465,-2.42908471
-0.75609330,2.31670230

>  <Name>
lig.pdb

>  <RI>
3.07369e+07

>  <Rbt.Current_Directory>
/home/itssahil/PROJECTS/Mol_Feturizer/New_Systems/rnas/2lwk

>  <Rbt.Executable>
rbdock ($Id: //depot/dev/client3/rdock/2013.1/src/exe/rbdock.cxx#4 $)

>  <Rbt.Library>
libRbt.so (2013.1, Build901 2013/11/27)

>  <Rbt.Parameter_File>
/export/apps/rDock/src/rDock_2013.1_src/data/scripts/dock_solv.prm

>  <Rbt.Receptor>
prm/blind_docking_100.prm

>  <SCORE>
-12.6059

>  <SCORE.INTER>
-13.3631

>  <SCORE.INTER.CONST>
1

>  <SCORE.INTER.POLAR>
-0.800536

>  <SCORE.INTER.ROT>
3

>  <SCORE.INTER.SOLV>
11.3522

>  <SCORE.INTER.VDW>
-15.6243

>  <SCORE.INTER.norm>
-0.636336

>  <SCORE.INTRA>
-1.32285

>  <SCORE.INTRA.DIHEDRAL>
0.776036

>  <SCORE.INTRA.DIHEDRAL.0>
8.84257

>  <SCORE.INTRA.POLAR>
0

>  <SCORE.INTRA.POLAR.0>
0

>  <SCORE.INTRA.REPUL>
0

>  <SCORE.INTRA.REPUL.0>
0

>  <SCORE.INTRA.SOLV>
-0.00603459

>  <SCORE.INTRA.SOLV.lig_0>
-17.1313

>  <SCORE.INTRA.VDW>
-1.70785

>  <SCORE.INTRA.VDW.0>
6.34071

>  <SCORE.INTRA.norm>
-0.0629929

>  <SCORE.RESTR>
2.08002

>  <SCORE.RESTR.CAVITY>
2.08002

>  <SCORE.RESTR.norm>
0.0990484

>  <SCORE.SYSTEM>
0

>  <SCORE.SYSTEM.CONST>
0

>  <SCORE.SYSTEM.DIHEDRAL>
0

>  <SCORE.SYSTEM.SOLV>
0

>  <SCORE.SYSTEM.norm>
0

>  <SCORE.heavy>
21

>  <SCORE.norm>
-0.60028

>  <RMSD>
12.118

$$$$
lig.pdb
 OpenBabel11021811453D
libRbt.so/2013.1/901 2013/11/27
 21 23  0  0  0  0  0  0  0  0999 V2000
   -3.9804   10.5579    1.3888 C   0  0  0  0  0  0  0  0  0  0  0  0
   -3.5749    9.6148    2.2316 N   0  0  0  0  0  0  0  0  0  0  0  0
   -2.6220    8.7736    1.8723 C   0  0  0  0  0  0  0  0  0  0  0  0
   -2.1110    8.8297    0.6258 C   0  0  0  0  0  0  0  0  0  0  0  0
   -2.5199    9.7846   -0.2203 C   0  0  0  0  0  0  0  0  0  0  0  0
   -2.0242    9.8444   -1.4557 N   0  0  0  0  0  0  0  0  0  0  0  0
   -3.4570   10.6446    0.1651 N   0  0  0  0  0  0  0  0  0  0  0  0
   -2.2010    7.8374    2.7390 C   0  0  0  0  0  0  0  0  0  0  0  0
   -1.3470    6.8616    2.3023 C   0  0  0  0  0  0  0  0  0  0  0  0
   -1.5554    5.5444    2.7760 O   0  0  0  0  0  0  0  0  0  0  0  0
   -0.7090    7.0469    1.1348 C   0  0  0  0  0  0  0  0  0  0  0  0
    0.4908    6.3347    0.8674 O   0  0  0  0  0  0  0  0  0  0  0  0
   -1.1595    7.9619    0.2542 C   0  0  0  0  0  0  0  0  0  0  0  0
   -4.9233   11.4046    1.7648 N   0  0  0  0  0  0  0  0  0  0  0  0
   -6.0520   11.3945    1.0492 C   0  0  0  0  0  0  0  0  0  0  0  0
   -5.8581   12.1753   -0.2419 C   0  0  0  0  0  0  0  0  0  0  0  0
   -5.5401   13.4850    0.0522 N   0  0  0  0  0  0  0  0  0  0  0  0
   -4.3539   13.4682    0.7529 C   0  0  0  0  0  0  0  0  0  0  0  0
   -4.5456   12.6928    2.0456 C   0  0  0  0  0  0  0  0  0  0  0  0
   -0.7252    5.3456    3.8915 C   0  0  0  0  0  0  0  0  0  0  0  0
    0.1795    4.9771    0.6929 C   0  0  0  0  0  0  0  0  0  0  0  0
  1 14  1  0  0  0  0
  1  2  2  0  0  0  0
  3  2  1  0  0  0  0
  3  8  2  0  0  0  0
  4  3  1  0  0  0  0
  5  7  2  0  0  0  0
  5  4  1  0  0  0  0
  6  5  1  0  0  0  0
  7  1  1  0  0  0  0
  9 10  1  0  0  0  0
  9  8  1  0  0  0  0
 11  9  2  0  0  0  0
 12 11  1  0  0  0  0
 13  4  2  0  0  0  0
 13 11  1  0  0  0  0
 14 15  1  0  0  0  0
 16 15  1  0  0  0  0
 17 16  1  0  0  0  0
 18 17  1  0  0  0  0
 18 19  1  0  0  0  0
 19 14  1  0  0  0  0
 20 10  1  0  0  0  0
 21 12  1  0  0  0  0
M  END
>  <CHROM.1>
-118.59958873,-94.90277068,69.37924389,-2.77852462,9.24777878,1.16546858
2.53841667,0.81064577,-0.99583340

>  <Name>
lig.pdb

>  <RI>
1.05666e+07

>  <Rbt.Current_Directory>
/home/itssahil/PROJECTS/Mol_Feturizer/New_Systems/rnas/2lwk

>  <Rbt.Executable>
rbdock ($Id: //depot/dev/client3/rdock/2013.1/src/exe/rbdock.cxx#4 $)

>  <Rbt.Library>
libRbt.so (2013.1, Build901 2013/11/27)

>  <Rbt.Parameter_File>
/export/apps/rDock/src/rDock_2013.1_src/data/scripts/dock_solv.prm

>  <Rbt.Receptor>
prm/blind_docking_80.prm

>  <SCORE>
-7.3456

>  <SCORE.INTER>
-5.59132

>  <SCORE.INTER.CONST>
1

>  <SCORE.INTER.POLAR>
-0.804034

>  <SCORE.INTER.ROT>
3

>  <SCORE.INTER.SOLV>
9.05418

>  <SCORE.INTER.VDW>
-9.66549

>  <SCORE.INTER.norm>
-0.266254

>  <SCORE.INTRA>
-3.91573

>  <SCORE.INTRA.DIHEDRAL>
0.236407

>  <SCORE.INTRA.DIHEDRAL.0>
8.84257

>  <SCORE.INTRA.POLAR>
0

>  <SCORE.INTRA.POLAR.0>
0

>  <SCORE.INTRA.REPUL>
0

>  <SCORE.INTRA.REPUL.0>
0

>  <SCORE.INTRA.SOLV>
0.15258

>  <SCORE.INTRA.SOLV.lig_0>
-17.1313

>  <SCORE.INTRA.VDW>
-4.11022

>  <SCORE.INTRA.VDW.0>
6.34071

>  <SCORE.INTRA.norm>
-0.186463

>  <SCORE.RESTR>
2.16146

>  <SCORE.RESTR.CAVITY>
2.16146

>  <SCORE.RESTR.norm>
0.102927

>  <SCORE.SYSTEM>
0

>  <SCORE.SYSTEM.CONST>
0

>  <SCORE.SYSTEM.DIHEDRAL>
0

>  <SCORE.SYSTEM.SOLV>
0

>  <SCORE.SYSTEM.norm>
0

>  <SCORE.heavy>
21

>  <SCORE.norm>
-0.34979

>  <RMSD>
12.149

$$$$
lig.pdb
 OpenBabel11021811453D
libRbt.so/2013.1/901 2013/11/27
 21 23  0  0  0  0  0  0  0  0999 V2000
   -2.5842   10.7548    0.5228 C   0  0  0  0  0  0  0  0  0  0  0  0
   -2.3840    9.9365    1.5498 N   0  0  0  0  0  0  0  0  0  0  0  0
   -1.6913    8.8243    1.3825 C   0  0  0  0  0  0  0  0  0  0  0  0
   -1.2479    8.4872    0.1545 C   0  0  0  0  0  0  0  0  0  0  0  0
   -1.4487    9.3168   -0.8781 C   0  0  0  0  0  0  0  0  0  0  0  0
   -1.0185    8.9894   -2.0961 N   0  0  0  0  0  0  0  0  0  0  0  0
   -2.1199   10.4482   -0.6893 N   0  0  0  0  0  0  0  0  0  0  0  0
   -1.4731    8.0136    2.4313 C   0  0  0  0  0  0  0  0  0  0  0  0
   -0.9137    6.7834    2.2168 C   0  0  0  0  0  0  0  0  0  0  0  0
   -1.4196    5.6916    2.9618 O   0  0  0  0  0  0  0  0  0  0  0  0
   -0.3111    6.5523    1.0388 C   0  0  0  0  0  0  0  0  0  0  0  0
    0.6572    5.5181    0.9343 O   0  0  0  0  0  0  0  0  0  0  0  0
   -0.5638    7.3476   -0.0191 C   0  0  0  0  0  0  0  0  0  0  0  0
   -3.2649   11.8731    0.7053 N   0  0  0  0  0  0  0  0  0  0  0  0
   -3.8760   12.0118    1.8858 C   0  0  0  0  0  0  0  0  0  0  0  0
   -5.1716   11.2148    1.8994 C   0  0  0  0  0  0  0  0  0  0  0  0
   -6.0149   11.6847    0.9139 N   0  0  0  0  0  0  0  0  0  0  0  0
   -5.3780   11.4921   -0.2926 C   0  0  0  0  0  0  0  0  0  0  0  0
   -4.0855   12.2909   -0.3109 C   0  0  0  0  0  0  0  0  0  0  0  0
   -0.5075    5.4059    3.9911 C   0  0  0  0  0  0  0  0  0  0  0  0
    0.0021    4.3180    0.6162 C   0  0  0  0  0  0  0  0  0  0  0  0
  1 14  1  0  0  0  0
  1  2  2  0  0  0  0
  3  2  1  0  0  0  0
  3  8  2  0  0  0  0
  4  3  1  0  0  0  0
  5  7  2  0  0  0  0
  5  4  1  0  0  0  0
  6  5  1  0  0  0  0
  7  1  1  0  0  0  0
  9 10  1  0  0  0  0
  9  8  1  0  0  0  0
 11  9  2  0  0  0  0
 12 11  1  0  0  0  0
 13  4  2  0  0  0  0
 13 11  1  0  0  0  0
 14 15  1  0  0  0  0
 16 15  1  0  0  0  0
 17 16  1  0  0  0  0
 18 17  1  0  0  0  0
 18 19  1  0  0  0  0
 19 14  1  0  0  0  0
 20 10  1  0  0  0  0
 21 12  1  0  0  0  0
M  END
>  <CHROM.1>
-9.37814530,-102.98690490,88.42542708,-2.14288715,8.86873807,0.90631914,-2.54394329
-0.82240863,2.13108854

>  <Name>
lig.pdb

>  <RI>
1.99026e+07

>  <Rbt.Current_Directory>
/home/itssahil/PROJECTS/Mol_Feturizer/New_Systems/rnas/2lwk

>  <Rbt.Executable>
rbdock ($Id: //depot/dev/client3/rdock/2013.1/src/exe/rbdock.cxx#4 $)

>  <Rbt.Library>
libRbt.so (2013.1, Build901 2013/11/27)

>  <Rbt.Parameter_File>
/export/apps/rDock/src/rDock_2013.1_src/data/scripts/dock_solv.prm

>  <Rbt.Receptor>
prm/blind_docking_60.prm

>  <SCORE>
-14.0053

>  <SCORE.INTER>
-12.6071

>  <SCORE.INTER.CONST>
1

>  <SCORE.INTER.POLAR>
-0.76511

>  <SCORE.INTER.ROT>
3

>  <SCORE.INTER.SOLV>
12.2468

>  <SCORE.INTER.VDW>
-15.5366

>  <SCORE.INTER.norm>
-0.600336

>  <SCORE.INTRA>
-3.20548

>  <SCORE.INTRA.DIHEDRAL>
0.990041

>  <SCORE.INTRA.DIHEDRAL.0>
8.84257

>  <SCORE.INTRA.POLAR>
0

>  <SCORE.INTRA.POLAR.0>
0

>  <SCORE.INTRA.REPUL>
0

>  <SCORE.INTRA.REPUL.0>
0

>  <SCORE.INTRA.SOLV>
0.0271582

>  <SCORE.INTRA.SOLV.lig_0>
-17.1313

>  <SCORE.INTRA.VDW>
-3.71408

>  <SCORE.INTRA.VDW.0>
6.34071

>  <SCORE.INTRA.norm>
-0.152642

>  <SCORE.RESTR>
1.8072

>  <SCORE.RESTR.CAVITY>
1.8072

>  <SCORE.RESTR.norm>
0.0860571

>  <SCORE.SYSTEM>
0

>  <SCORE.SYSTEM.CONST>
0

>  <SCORE.SYSTEM.DIHEDRAL>
0

>  <SCORE.SYSTEM.SOLV>
0

>  <SCORE.SYSTEM.norm>
0

>  <SCORE.heavy>
21

>  <SCORE.norm>
-0.666921

>  <RMSD>
12.153

$$$$
lig.pdb
 OpenBabel11021811453D
libRbt.so/2013.1/901 2013/11/27
 21 23  0  0  0  0  0  0  0  0999 V2000
   -2.5761   10.7591    0.5311 C   0  0  0  0  0  0  0  0  0  0  0  0
   -2.3919    9.9340    1.5556 N   0  0  0  0  0  0  0  0  0  0  0  0
   -1.6904    8.8265    1.3935 C   0  0  0  0  0  0  0  0  0  0  0  0
   -1.2213    8.5011    0.1719 C   0  0  0  0  0  0  0  0  0  0  0  0
   -1.4060    9.3375   -0.8582 C   0  0  0  0  0  0  0  0  0  0  0  0
   -0.9504    9.0216   -2.0698 N   0  0  0  0  0  0  0  0  0  0  0  0
   -2.0866   10.4641   -0.6739 N   0  0  0  0  0  0  0  0  0  0  0  0
   -1.4888    8.0089    2.4402 C   0  0  0  0  0  0  0  0  0  0  0  0
   -0.9190    6.7832    2.2275 C   0  0  0  0  0  0  0  0  0  0  0  0
   -1.4339    5.6832    2.9540 O   0  0  0  0  0  0  0  0  0  0  0  0
   -0.2922    6.5641    1.0598 C   0  0  0  0  0  0  0  0  0  0  0  0
    0.6831    5.5355    0.9665 O   0  0  0  0  0  0  0  0  0  0  0  0
   -0.5282    7.3663    0.0032 C   0  0  0  0  0  0  0  0  0  0  0  0
   -3.2659   11.8727    0.7087 N   0  0  0  0  0  0  0  0  0  0  0  0
   -3.8799   12.0107    1.8877 C   0  0  0  0  0  0  0  0  0  0  0  0
   -5.1691   11.2034    1.9021 C   0  0  0  0  0  0  0  0  0  0  0  0
   -6.0146   11.6632    0.9138 N   0  0  0  0  0  0  0  0  0  0  0  0
   -5.3744   11.4714   -0.2911 C   0  0  0  0  0  0  0  0  0  0  0  0
   -4.0882   12.2804   -0.3103 C   0  0  0  0  0  0  0  0  0  0  0  0
   -0.5343    5.3860    3.9911 C   0  0  0  0  0  0  0  0  0  0  0  0
    0.0336    4.3224    0.6890 C   0  0  0  0  0  0  0  0  0  0  0  0
  1 14  1  0  0  0  0
  1  2  2  0  0  0  0
  3  2  1  0  0  0  0
  3  8  2  0  0  0  0
  4  3  1  0  0  0  0
  5  7  2  0  0  0  0
  5  4  1  0  0  0  0
  6  5  1  0  0  0  0
  7  1  1  0  0  0  0
  9 10  1  0  0  0  0
  9  8  1  0  0  0  0
 11  9  2  0  0  0  0
 12 11  1  0  0  0  0
 13  4  2  0  0  0  0
 13 11  1  0  0  0  0
 14 15  1  0  0  0  0
 16 15  1  0  0  0  0
 17 16  1  0  0  0  0
 18 17  1  0  0  0  0
 18 19  1  0  0  0  0
 19 14  1  0  0  0  0
 20 10  1  0  0  0  0
 21 12  1  0  0  0  0
M  END
>  <CHROM.1>
-8.14907953,-103.54237859,85.66539756,-2.13230338,8.87045291,0.91948209,-2.52263491
-0.80705130,2.15731924

>  <Name>
lig.pdb

>  <RI>
1.05666e+07

>  <Rbt.Current_Directory>
/home/itssahil/PROJECTS/Mol_Feturizer/New_Systems/rnas/2lwk

>  <Rbt.Executable>
rbdock ($Id: //depot/dev/client3/rdock/2013.1/src/exe/rbdock.cxx#4 $)

>  <Rbt.Library>
libRbt.so (2013.1, Build901 2013/11/27)

>  <Rbt.Parameter_File>
/export/apps/rDock/src/rDock_2013.1_src/data/scripts/dock_solv.prm

>  <Rbt.Receptor>
prm/blind_docking_80.prm

>  <SCORE>
-14.0666

>  <SCORE.INTER>
-12.8106

>  <SCORE.INTER.CONST>
1

>  <SCORE.INTER.POLAR>
-0.763556

>  <SCORE.INTER.ROT>
3

>  <SCORE.INTER.SOLV>
12.367

>  <SCORE.INTER.VDW>
-15.7175

>  <SCORE.INTER.norm>
-0.610027

>  <SCORE.INTRA>
-3.10282

>  <SCORE.INTRA.DIHEDRAL>
0.949488

>  <SCORE.INTRA.DIHEDRAL.0>
8.84257

>  <SCORE.INTRA.POLAR>
0

>  <SCORE.INTRA.POLAR.0>
0

>  <SCORE.INTRA.REPUL>
0

>  <SCORE.INTRA.REPUL.0>
0

>  <SCORE.INTRA.SOLV>
0.0338065

>  <SCORE.INTRA.SOLV.lig_0>
-17.1313

>  <SCORE.INTRA.VDW>
-3.59447

>  <SCORE.INTRA.VDW.0>
6.34071

>  <SCORE.INTRA.norm>
-0.147754

>  <SCORE.RESTR>
1.84675

>  <SCORE.RESTR.CAVITY>
1.84675

>  <SCORE.RESTR.norm>
0.0879406

>  <SCORE.SYSTEM>
0

>  <SCORE.SYSTEM.CONST>
0

>  <SCORE.SYSTEM.DIHEDRAL>
0

>  <SCORE.SYSTEM.SOLV>
0

>  <SCORE.SYSTEM.norm>
0

>  <SCORE.heavy>
21

>  <SCORE.norm>
-0.66984

>  <RMSD>
12.158

$$$$
lig.pdb
 OpenBabel11021811453D
libRbt.so/2013.1/901 2013/11/27
 21 23  0  0  0  0  0  0  0  0999 V2000
   -2.7149   10.8964    0.3980 C   0  0  0  0  0  0  0  0  0  0  0  0
   -2.5360   10.0074    1.3685 N   0  0  0  0  0  0  0  0  0  0  0  0
   -1.9491    8.8533    1.1067 C   0  0  0  0  0  0  0  0  0  0  0  0
   -1.5953    8.5512   -0.1589 C   0  0  0  0  0  0  0  0  0  0  0  0
   -1.7741    9.4519   -1.1345 C   0  0  0  0  0  0  0  0  0  0  0  0
   -1.4322    9.1600   -2.3889 N   0  0  0  0  0  0  0  0  0  0  0  0
   -2.3370   10.6221   -0.8513 N   0  0  0  0  0  0  0  0  0  0  0  0
   -1.7507    7.9691    2.0984 C   0  0  0  0  0  0  0  0  0  0  0  0
   -1.3087    6.7113    1.7904 C   0  0  0  0  0  0  0  0  0  0  0  0
   -1.8694    5.6241    2.5024 O   0  0  0  0  0  0  0  0  0  0  0  0
   -0.7851    6.4987    0.5719 C   0  0  0  0  0  0  0  0  0  0  0  0
    0.0857    5.3960    0.3623 O   0  0  0  0  0  0  0  0  0  0  0  0
   -1.0197    7.3710   -0.4280 C   0  0  0  0  0  0  0  0  0  0  0  0
   -3.2885   12.0547    0.6746 N   0  0  0  0  0  0  0  0  0  0  0  0
   -3.8375   12.1722    1.8874 C   0  0  0  0  0  0  0  0  0  0  0  0
   -5.1956   11.4873    1.9139 C   0  0  0  0  0  0  0  0  0  0  0  0
   -6.0340   12.0854    0.9960 N   0  0  0  0  0  0  0  0  0  0  0  0
   -5.4650   11.9136   -0.2471 C   0  0  0  0  0  0  0  0  0  0  0  0
   -4.1101   12.6009   -0.2781 C   0  0  0  0  0  0  0  0  0  0  0  0
   -1.1371    5.4559    3.6892 C   0  0  0  0  0  0  0  0  0  0  0  0
    1.0209    5.3553    1.4082 C   0  0  0  0  0  0  0  0  0  0  0  0
  1 14  1  0  0  0  0
  1  2  2  0  0  0  0
  3  2  1  0  0  0  0
  3  8  2  0  0  0  0
  4  3  1  0  0  0  0
  5  7  2  0  0  0  0
  5  4  1  0  0  0  0
  6  5  1  0  0  0  0
  7  1  1  0  0  0  0
  9 10  1  0  0  0  0
  9  8  1  0  0  0  0
 11  9  2  0  0  0  0
 12 11  1  0  0  0  0
 13  4  2  0  0  0  0
 13 11  1  0  0  0  0
 14 15  1  0  0  0  0
 16 15  1  0  0  0  0
 17 16  1  0  0  0  0
 18 17  1  0  0  0  0
 18 19  1  0  0  0  0
 19 14  1  0  0  0  0
 20 10  1  0  0  0  0
 21 12  1  0  0  0  0
M  END
>  <CHROM.1>
-9.88257290,-86.17971229,-46.06880274,-2.33983808,9.03143771,0.73867630,-2.53076238
-0.84493594,2.16972411

>  <Name>
lig.pdb

>  <RI>
3.07369e+07

>  <Rbt.Current_Directory>
/home/itssahil/PROJECTS/Mol_Feturizer/New_Systems/rnas/2lwk

>  <Rbt.Executable>
rbdock ($Id: //depot/dev/client3/rdock/2013.1/src/exe/rbdock.cxx#4 $)

>  <Rbt.Library>
libRbt.so (2013.1, Build901 2013/11/27)

>  <Rbt.Parameter_File>
/export/apps/rDock/src/rDock_2013.1_src/data/scripts/dock_solv.prm

>  <Rbt.Receptor>
prm/blind_docking_100.prm

>  <SCORE>
-9.12718

>  <SCORE.INTER>
-9.50018

>  <SCORE.INTER.CONST>
1

>  <SCORE.INTER.POLAR>
-0.820488

>  <SCORE.INTER.ROT>
3

>  <SCORE.INTER.SOLV>
11.5135

>  <SCORE.INTER.VDW>
-13.0363

>  <SCORE.INTER.norm>
-0.45239

>  <SCORE.INTRA>
-0.987758

>  <SCORE.INTRA.DIHEDRAL>
-1.46558

>  <SCORE.INTRA.DIHEDRAL.0>
8.84257

>  <SCORE.INTRA.POLAR>
0

>  <SCORE.INTRA.POLAR.0>
0

>  <SCORE.INTRA.REPUL>
0

>  <SCORE.INTRA.REPUL.0>
0

>  <SCORE.INTRA.SOLV>
-0.0125312

>  <SCORE.INTRA.SOLV.lig_0>
-17.1313

>  <SCORE.INTRA.VDW>
-0.248701

>  <SCORE.INTRA.VDW.0>
6.34071

>  <SCORE.INTRA.norm>
-0.0470361

>  <SCORE.RESTR>
1.36076

>  <SCORE.RESTR.CAVITY>
1.36076

>  <SCORE.RESTR.norm>
0.0647983

>  <SCORE.SYSTEM>
0

>  <SCORE.SYSTEM.CONST>
0

>  <SCORE.SYSTEM.DIHEDRAL>
0

>  <SCORE.SYSTEM.SOLV>
0

>  <SCORE.SYSTEM.norm>
0

>  <SCORE.heavy>
21

>  <SCORE.norm>
-0.434628

>  <RMSD>
12.207

$$$$
lig.pdb
 OpenBabel11021811453D
libRbt.so/2013.1/901 2013/11/27
 21 23  0  0  0  0  0  0  0  0999 V2000
   -3.5258   10.7362   -0.3355 C   0  0  0  0  0  0  0  0  0  0  0  0
   -3.5248    9.9379    0.7261 N   0  0  0  0  0  0  0  0  0  0  0  0
   -2.6717    8.9318    0.7947 C   0  0  0  0  0  0  0  0  0  0  0  0
   -1.8507    8.6750   -0.2436 C   0  0  0  0  0  0  0  0  0  0  0  0
   -1.8520    9.4845   -1.3110 C   0  0  0  0  0  0  0  0  0  0  0  0
   -1.0477    9.2354   -2.3438 N   0  0  0  0  0  0  0  0  0  0  0  0
   -2.6936   10.5123   -1.3534 N   0  0  0  0  0  0  0  0  0  0  0  0
   -2.6611    8.1431    1.8822 C   0  0  0  0  0  0  0  0  0  0  0  0
   -1.9050    7.0028    1.8703 C   0  0  0  0  0  0  0  0  0  0  0  0
   -2.4551    5.8422    2.4649 O   0  0  0  0  0  0  0  0  0  0  0  0
   -0.9616    6.8717    0.9231 C   0  0  0  0  0  0  0  0  0  0  0  0
    0.1241    5.9791    1.1296 O   0  0  0  0  0  0  0  0  0  0  0  0
   -1.0003    7.6406   -0.1827 C   0  0  0  0  0  0  0  0  0  0  0  0
   -4.3727   11.7499   -0.3863 N   0  0  0  0  0  0  0  0  0  0  0  0
   -4.0630   12.8214    0.3499 C   0  0  0  0  0  0  0  0  0  0  0  0
   -4.4324   12.5788    1.8055 C   0  0  0  0  0  0  0  0  0  0  0  0
   -5.7901   12.3570    1.9080 N   0  0  0  0  0  0  0  0  0  0  0  0
   -6.0740   11.2255    1.1748 C   0  0  0  0  0  0  0  0  0  0  0  0
   -5.7104   11.4666   -0.2809 C   0  0  0  0  0  0  0  0  0  0  0  0
   -1.6924    5.5318    3.6029 C   0  0  0  0  0  0  0  0  0  0  0  0
    0.9282    6.4796    2.1655 C   0  0  0  0  0  0  0  0  0  0  0  0
  1 14  1  0  0  0  0
  1  2  2  0  0  0  0
  3  2  1  0  0  0  0
  3  8  2  0  0  0  0
  4  3  1  0  0  0  0
  5  7  2  0  0  0  0
  5  4  1  0  0  0  0
  6  5  1  0  0  0  0
  7  1  1  0  0  0  0
  9 10  1  0  0  0  0
  9  8  1  0  0  0  0
 11  9  2  0  0  0  0
 12 11  1  0  0  0  0
 13  4  2  0  0  0  0
 13 11  1  0  0  0  0
 14 15  1  0  0  0  0
 16 15  1  0  0  0  0
 17 16  1  0  0  0  0
 18 17  1  0  0  0  0
 18 19  1  0  0  0  0
 19 14  1  0  0  0  0
 20 10  1  0  0  0  0
 21 12  1  0  0  0  0
M  END
>  <CHROM.1>
76.82368220,-113.29351698,-67.71805572,-2.71770581,9.17936512,0.71045882
-2.46797634,-0.72661070,2.23323265

>  <Name>
lig.pdb

>  <RI>
1.05666e+07

>  <Rbt.Current_Directory>
/home/itssahil/PROJECTS/Mol_Feturizer/New_Systems/rnas/2lwk

>  <Rbt.Executable>
rbdock ($Id: //depot/dev/client3/rdock/2013.1/src/exe/rbdock.cxx#4 $)

>  <Rbt.Library>
libRbt.so (2013.1, Build901 2013/11/27)

>  <Rbt.Parameter_File>
/export/apps/rDock/src/rDock_2013.1_src/data/scripts/dock_solv.prm

>  <Rbt.Receptor>
prm/blind_docking_80.prm

>  <SCORE>
-7.52869

>  <SCORE.INTER>
-6.547

>  <SCORE.INTER.CONST>
1

>  <SCORE.INTER.POLAR>
-0.570544

>  <SCORE.INTER.ROT>
3

>  <SCORE.INTER.SOLV>
9.71477

>  <SCORE.INTER.VDW>
-11.3011

>  <SCORE.INTER.norm>
-0.311762

>  <SCORE.INTRA>
-4.12342

>  <SCORE.INTRA.DIHEDRAL>
0.273714

>  <SCORE.INTRA.DIHEDRAL.0>
8.84257

>  <SCORE.INTRA.POLAR>
0

>  <SCORE.INTRA.POLAR.0>
0

>  <SCORE.INTRA.REPUL>
0

>  <SCORE.INTRA.REPUL.0>
0

>  <SCORE.INTRA.SOLV>
0.121398

>  <SCORE.INTRA.SOLV.lig_0>
-17.1313

>  <SCORE.INTRA.VDW>
-4.32097

>  <SCORE.INTRA.VDW.0>
6.34071

>  <SCORE.INTRA.norm>
-0.196353

>  <SCORE.RESTR>
3.14173

>  <SCORE.RESTR.CAVITY>
3.14173

>  <SCORE.RESTR.norm>
0.149606

>  <SCORE.SYSTEM>
0

>  <SCORE.SYSTEM.CONST>
0

>  <SCORE.SYSTEM.DIHEDRAL>
0

>  <SCORE.SYSTEM.SOLV>
0

>  <SCORE.SYSTEM.norm>
0

>  <SCORE.heavy>
21

>  <SCORE.norm>
-0.358509

>  <RMSD>
12.208

$$$$
lig.pdb
 OpenBabel11021811453D
libRbt.so/2013.1/901 2013/11/27
 21 23  0  0  0  0  0  0  0  0999 V2000
   -2.6441   10.8668    0.3569 C   0  0  0  0  0  0  0  0  0  0  0  0
   -2.5067   10.0366    1.3847 N   0  0  0  0  0  0  0  0  0  0  0  0
   -1.7981    8.9301    1.2494 C   0  0  0  0  0  0  0  0  0  0  0  0
   -1.2734    8.6107    0.0491 C   0  0  0  0  0  0  0  0  0  0  0  0
   -1.4110    9.4523   -0.9842 C   0  0  0  0  0  0  0  0  0  0  0  0
   -0.9002    9.1424   -2.1753 N   0  0  0  0  0  0  0  0  0  0  0  0
   -2.0997   10.5778   -0.8258 N   0  0  0  0  0  0  0  0  0  0  0  0
   -1.6443    8.1073    2.3002 C   0  0  0  0  0  0  0  0  0  0  0  0
   -1.0650    6.8827    2.1077 C   0  0  0  0  0  0  0  0  0  0  0  0
   -1.6122    5.7790    2.8045 O   0  0  0  0  0  0  0  0  0  0  0  0
   -0.3853    6.6695    0.9690 C   0  0  0  0  0  0  0  0  0  0  0  0
    0.5938    5.6415    0.9154 O   0  0  0  0  0  0  0  0  0  0  0  0
   -0.5728    7.4769   -0.0934 C   0  0  0  0  0  0  0  0  0  0  0  0
   -3.3416   11.9793    0.5082 N   0  0  0  0  0  0  0  0  0  0  0  0
   -3.8604   12.1962    1.7207 C   0  0  0  0  0  0  0  0  0  0  0  0
   -5.1259   11.3717    1.9017 C   0  0  0  0  0  0  0  0  0  0  0  0
   -6.0592   11.7418    0.9557 N   0  0  0  0  0  0  0  0  0  0  0  0
   -5.5152   11.4698   -0.2806 C   0  0  0  0  0  0  0  0  0  0  0  0
   -4.2532   12.2956   -0.4664 C   0  0  0  0  0  0  0  0  0  0  0  0
   -0.6829    5.3723    3.7761 C   0  0  0  0  0  0  0  0  0  0  0  0
   -0.0290    4.4461    0.5235 C   0  0  0  0  0  0  0  0  0  0  0  0
  1 14  1  0  0  0  0
  1  2  2  0  0  0  0
  3  2  1  0  0  0  0
  3  8  2  0  0  0  0
  4  3  1  0  0  0  0
  5  7  2  0  0  0  0
  5  4  1  0  0  0  0
  6  5  1  0  0  0  0
  7  1  1  0  0  0  0
  9 10  1  0  0  0  0
  9  8  1  0  0  0  0
 11  9  2  0  0  0  0
 12 11  1  0  0  0  0
 13  4  2  0  0  0  0
 13 11  1  0  0  0  0
 14 15  1  0  0  0  0
 16 15  1  0  0  0  0
 17 16  1  0  0  0  0
 18 17  1  0  0  0  0
 18 19  1  0  0  0  0
 19 14  1  0  0  0  0
 20 10  1  0  0  0  0
 21 12  1  0  0  0  0
M  END
>  <CHROM.1>
0.58026311,-110.70682957,89.18148915,-2.20771365,8.96754628,0.80149317,-2.49235423
-0.79203582,2.20891312

>  <Name>
lig.pdb

>  <RI>
3.07369e+07

>  <Rbt.Current_Directory>
/home/itssahil/PROJECTS/Mol_Feturizer/New_Systems/rnas/2lwk

>  <Rbt.Executable>
rbdock ($Id: //depot/dev/client3/rdock/2013.1/src/exe/rbdock.cxx#4 $)

>  <Rbt.Library>
libRbt.so (2013.1, Build901 2013/11/27)

>  <Rbt.Parameter_File>
/export/apps/rDock/src/rDock_2013.1_src/data/scripts/dock_solv.prm

>  <Rbt.Receptor>
prm/blind_docking_100.prm

>  <SCORE>
-15.1733

>  <SCORE.INTER>
-13.9583

>  <SCORE.INTER.CONST>
1

>  <SCORE.INTER.POLAR>
-0.972183

>  <SCORE.INTER.ROT>
3

>  <SCORE.INTER.SOLV>
12.1476

>  <SCORE.INTER.VDW>
-15.7141

>  <SCORE.INTER.norm>
-0.664682

>  <SCORE.INTRA>
-3.13668

>  <SCORE.INTRA.DIHEDRAL>
0.906663

>  <SCORE.INTRA.DIHEDRAL.0>
8.84257

>  <SCORE.INTRA.POLAR>
0

>  <SCORE.INTRA.POLAR.0>
0

>  <SCORE.INTRA.REPUL>
0

>  <SCORE.INTRA.REPUL.0>
0

>  <SCORE.INTRA.SOLV>
0.0644361

>  <SCORE.INTRA.SOLV.lig_0>
-17.1313

>  <SCORE.INTRA.VDW>
-3.62223

>  <SCORE.INTRA.VDW.0>
6.34071

>  <SCORE.INTRA.norm>
-0.149366

>  <SCORE.RESTR>
1.92165

>  <SCORE.RESTR.CAVITY>
1.92165

>  <SCORE.RESTR.norm>
0.0915071

>  <SCORE.SYSTEM>
0

>  <SCORE.SYSTEM.CONST>
0

>  <SCORE.SYSTEM.DIHEDRAL>
0

>  <SCORE.SYSTEM.SOLV>
0

>  <SCORE.SYSTEM.norm>
0

>  <SCORE.heavy>
21

>  <SCORE.norm>
-0.72254

>  <RMSD>
12.223

$$$$
lig.pdb
 OpenBabel11021811453D
libRbt.so/2013.1/901 2013/11/27
 21 23  0  0  0  0  0  0  0  0999 V2000
   -3.2520   10.5042   -0.2750 C   0  0  0  0  0  0  0  0  0  0  0  0
   -3.1515    9.7858    0.8377 N   0  0  0  0  0  0  0  0  0  0  0  0
   -2.2123    8.8632    0.9453 C   0  0  0  0  0  0  0  0  0  0  0  0
   -1.4015    8.6046   -0.1005 C   0  0  0  0  0  0  0  0  0  0  0  0
   -1.5035    9.3338   -1.2198 C   0  0  0  0  0  0  0  0  0  0  0  0
   -0.7098    9.0818   -2.2601 N   0  0  0  0  0  0  0  0  0  0  0  0
   -2.4323   10.2807   -1.3030 N   0  0  0  0  0  0  0  0  0  0  0  0
   -2.1024    8.1570    2.0828 C   0  0  0  0  0  0  0  0  0  0  0  0
   -1.2503    7.0871    2.1225 C   0  0  0  0  0  0  0  0  0  0  0  0
   -1.6801    5.9288    2.8129 O   0  0  0  0  0  0  0  0  0  0  0  0
   -0.3261    6.9704    1.1548 C   0  0  0  0  0  0  0  0  0  0  0  0
    0.8387    6.1901    1.3842 O   0  0  0  0  0  0  0  0  0  0  0  0
   -0.4628    7.6533    0.0013 C   0  0  0  0  0  0  0  0  0  0  0  0
   -4.1852   11.4360   -0.3655 N   0  0  0  0  0  0  0  0  0  0  0  0
   -3.9866   12.5484    0.3482 C   0  0  0  0  0  0  0  0  0  0  0  0
   -4.3599   12.3083    1.8032 C   0  0  0  0  0  0  0  0  0  0  0  0
   -5.6940   11.9676    1.8889 N   0  0  0  0  0  0  0  0  0  0  0  0
   -5.8616   10.7981    1.1801 C   0  0  0  0  0  0  0  0  0  0  0  0
   -5.4939   11.0361   -0.2750 C   0  0  0  0  0  0  0  0  0  0  0  0
   -0.7165    5.6188    3.7868 C   0  0  0  0  0  0  0  0  0  0  0  0
    0.5900    4.8745    0.9627 C   0  0  0  0  0  0  0  0  0  0  0  0
  1 14  1  0  0  0  0
  1  2  2  0  0  0  0
  3  2  1  0  0  0  0
  3  8  2  0  0  0  0
  4  3  1  0  0  0  0
  5  7  2  0  0  0  0
  5  4  1  0  0  0  0
  6  5  1  0  0  0  0
  7  1  1  0  0  0  0
  9 10  1  0  0  0  0
  9  8  1  0  0  0  0
 11  9  2  0  0  0  0
 12 11  1  0  0  0  0
 13  4  2  0  0  0  0
 13 11  1  0  0  0  0
 14 15  1  0  0  0  0
 16 15  1  0  0  0  0
 17 16  1  0  0  0  0
 18 17  1  0  0  0  0
 18 19  1  0  0  0  0
 19 14  1  0  0  0  0
 20 10  1  0  0  0  0
 21 12  1  0  0  0  0
M  END
>  <CHROM.1>
73.02999512,-124.40077388,91.17006448,-2.34453088,8.97344224,0.75943255,-2.55758143
-0.72133696,2.15324195

>  <Name>
lig.pdb

>  <RI>
1.99026e+07

>  <Rbt.Current_Directory>
/home/itssahil/PROJECTS/Mol_Feturizer/New_Systems/rnas/2lwk

>  <Rbt.Executable>
rbdock ($Id: //depot/dev/client3/rdock/2013.1/src/exe/rbdock.cxx#4 $)

>  <Rbt.Library>
libRbt.so (2013.1, Build901 2013/11/27)

>  <Rbt.Parameter_File>
/export/apps/rDock/src/rDock_2013.1_src/data/scripts/dock_solv.prm

>  <Rbt.Receptor>
prm/blind_docking_60.prm

>  <SCORE>
-12.6846

>  <SCORE.INTER>
-10.4659

>  <SCORE.INTER.CONST>
1

>  <SCORE.INTER.POLAR>
-0.576814

>  <SCORE.INTER.ROT>
3

>  <SCORE.INTER.SOLV>
11.862

>  <SCORE.INTER.VDW>
-14.6086

>  <SCORE.INTER.norm>
-0.498377

>  <SCORE.INTRA>
-4.18674

>  <SCORE.INTRA.DIHEDRAL>
0.390024

>  <SCORE.INTRA.DIHEDRAL.0>
8.84257

>  <SCORE.INTRA.POLAR>
0

>  <SCORE.INTRA.POLAR.0>
0

>  <SCORE.INTRA.REPUL>
0

>  <SCORE.INTRA.REPUL.0>
0

>  <SCORE.INTRA.SOLV>
0.171926

>  <SCORE.INTRA.SOLV.lig_0>
-17.1313

>  <SCORE.INTRA.VDW>
-4.46772

>  <SCORE.INTRA.VDW.0>
6.34071

>  <SCORE.INTRA.norm>
-0.199369

>  <SCORE.RESTR>
1.96801

>  <SCORE.RESTR.CAVITY>
1.96801

>  <SCORE.RESTR.norm>
0.0937146

>  <SCORE.SYSTEM>
0

>  <SCORE.SYSTEM.CONST>
0

>  <SCORE.SYSTEM.DIHEDRAL>
0

>  <SCORE.SYSTEM.SOLV>
0

>  <SCORE.SYSTEM.norm>
0

>  <SCORE.heavy>
21

>  <SCORE.norm>
-0.604031

>  <RMSD>
12.237

$$$$
lig.pdb
 OpenBabel11021811453D
libRbt.so/2013.1/901 2013/11/27
 21 23  0  0  0  0  0  0  0  0999 V2000
   -3.2531   10.5014   -0.2825 C   0  0  0  0  0  0  0  0  0  0  0  0
   -3.1508    9.7902    0.8346 N   0  0  0  0  0  0  0  0  0  0  0  0
   -2.2139    8.8656    0.9452 C   0  0  0  0  0  0  0  0  0  0  0  0
   -1.4074    8.5977   -0.1017 C   0  0  0  0  0  0  0  0  0  0  0  0
   -1.5112    9.3196   -1.2255 C   0  0  0  0  0  0  0  0  0  0  0  0
   -0.7219    9.0583   -2.2668 N   0  0  0  0  0  0  0  0  0  0  0  0
   -2.4376   10.2686   -1.3119 N   0  0  0  0  0  0  0  0  0  0  0  0
   -2.1020    8.1667    2.0871 C   0  0  0  0  0  0  0  0  0  0  0  0
   -1.2529    7.0947    2.1310 C   0  0  0  0  0  0  0  0  0  0  0  0
   -1.6836    5.9423    2.8306 O   0  0  0  0  0  0  0  0  0  0  0  0
   -0.3324    6.9687    1.1609 C   0  0  0  0  0  0  0  0  0  0  0  0
    0.8310    6.1866    1.3915 O   0  0  0  0  0  0  0  0  0  0  0  0
   -0.4711    7.6443    0.0033 C   0  0  0  0  0  0  0  0  0  0  0  0
   -4.1839   11.4353   -0.3761 N   0  0  0  0  0  0  0  0  0  0  0  0
   -3.9722   12.5580    0.3174 C   0  0  0  0  0  0  0  0  0  0  0  0
   -4.3281   12.3422    1.7806 C   0  0  0  0  0  0  0  0  0  0  0  0
   -5.6622   12.0082    1.8884 N   0  0  0  0  0  0  0  0  0  0  0  0
   -5.8431   10.8283    1.2003 C   0  0  0  0  0  0  0  0  0  0  0  0
   -5.4928   11.0419   -0.2629 C   0  0  0  0  0  0  0  0  0  0  0  0
   -0.7039    5.6193    3.7840 C   0  0  0  0  0  0  0  0  0  0  0  0
    0.5806    4.8714    0.9699 C   0  0  0  0  0  0  0  0  0  0  0  0
  1 14  1  0  0  0  0
  1  2  2  0  0  0  0
  3  2  1  0  0  0  0
  3  8  2  0  0  0  0
  4  3  1  0  0  0  0
  5  7  2  0  0  0  0
  5  4  1  0  0  0  0
  6  5  1  0  0  0  0
  7  1  1  0  0  0  0
  9 10  1  0  0  0  0
  9  8  1  0  0  0  0
 11  9  2  0  0  0  0
 12 11  1  0  0  0  0
 13  4  2  0  0  0  0
 13 11  1  0  0  0  0
 14 15  1  0  0  0  0
 16 15  1  0  0  0  0
 17 16  1  0  0  0  0
 18 17  1  0  0  0  0
 18 19  1  0  0  0  0
 19 14  1  0  0  0  0
 20 10  1  0  0  0  0
 21 12  1  0  0  0  0
M  END
>  <CHROM.1>
73.76500610,-125.64395870,91.63346492,-2.34239271,8.97746806,0.75882244,-2.55947048
-0.72825053,2.14574216

>  <Name>
lig.pdb

>  <RI>
1.05666e+07

>  <Rbt.Current_Directory>
/home/itssahil/PROJECTS/Mol_Feturizer/New_Systems/rnas/2lwk

>  <Rbt.Executable>
rbdock ($Id: //depot/dev/client3/rdock/2013.1/src/exe/rbdock.cxx#4 $)

>  <Rbt.Library>
libRbt.so (2013.1, Build901 2013/11/27)

>  <Rbt.Parameter_File>
/export/apps/rDock/src/rDock_2013.1_src/data/scripts/dock_solv.prm

>  <Rbt.Receptor>
prm/blind_docking_80.prm

>  <SCORE>
-12.6235

>  <SCORE.INTER>
-10.5373

>  <SCORE.INTER.CONST>
1

>  <SCORE.INTER.POLAR>
-0.568841

>  <SCORE.INTER.ROT>
3

>  <SCORE.INTER.SOLV>
11.8311

>  <SCORE.INTER.VDW>
-14.6724

>  <SCORE.INTER.norm>
-0.501775

>  <SCORE.INTRA>
-4.04357

>  <SCORE.INTRA.DIHEDRAL>
0.322658

>  <SCORE.INTRA.DIHEDRAL.0>
8.84257

>  <SCORE.INTRA.POLAR>
0

>  <SCORE.INTRA.POLAR.0>
0

>  <SCORE.INTRA.REPUL>
0

>  <SCORE.INTRA.REPUL.0>
0

>  <SCORE.INTRA.SOLV>
0.172337

>  <SCORE.INTRA.SOLV.lig_0>
-17.1313

>  <SCORE.INTRA.VDW>
-4.29107

>  <SCORE.INTRA.VDW.0>
6.34071

>  <SCORE.INTRA.norm>
-0.192551

>  <SCORE.RESTR>
1.95737

>  <SCORE.RESTR.CAVITY>
1.95737

>  <SCORE.RESTR.norm>
0.0932081

>  <SCORE.SYSTEM>
0

>  <SCORE.SYSTEM.CONST>
0

>  <SCORE.SYSTEM.DIHEDRAL>
0

>  <SCORE.SYSTEM.SOLV>
0

>  <SCORE.SYSTEM.norm>
0

>  <SCORE.heavy>
21

>  <SCORE.norm>
-0.601118

>  <RMSD>
12.238

$$$$
lig.pdb
 OpenBabel11021811453D
libRbt.so/2013.1/901 2013/11/27
 21 23  0  0  0  0  0  0  0  0999 V2000
   -3.3224   10.5788   -0.3297 C   0  0  0  0  0  0  0  0  0  0  0  0
   -3.2211    9.8488    0.7753 N   0  0  0  0  0  0  0  0  0  0  0  0
   -2.2934    8.9129    0.8656 C   0  0  0  0  0  0  0  0  0  0  0  0
   -1.4959    8.6532   -0.1903 C   0  0  0  0  0  0  0  0  0  0  0  0
   -1.5987    9.3940   -1.3018 C   0  0  0  0  0  0  0  0  0  0  0  0
   -0.8183    9.1410   -2.3519 N   0  0  0  0  0  0  0  0  0  0  0  0
   -2.5155   10.3539   -1.3676 N   0  0  0  0  0  0  0  0  0  0  0  0
   -2.1822    8.1947    1.9955 C   0  0  0  0  0  0  0  0  0  0  0  0
   -1.3442    7.1133    2.0173 C   0  0  0  0  0  0  0  0  0  0  0  0
   -1.7830    5.9544    2.7011 O   0  0  0  0  0  0  0  0  0  0  0  0
   -0.4308    6.9932    1.0398 C   0  0  0  0  0  0  0  0  0  0  0  0
    0.7256    6.1954    1.2509 O   0  0  0  0  0  0  0  0  0  0  0  0
   -0.5692    7.6885   -0.1061 C   0  0  0  0  0  0  0  0  0  0  0  0
   -4.2438   11.5238   -0.4029 N   0  0  0  0  0  0  0  0  0  0  0  0
   -3.9978   12.6485    0.2759 C   0  0  0  0  0  0  0  0  0  0  0  0
   -4.3133   12.4475    1.7504 C   0  0  0  0  0  0  0  0  0  0  0  0
   -5.6477   12.1312    1.8996 N   0  0  0  0  0  0  0  0  0  0  0  0
   -5.8635   10.9489    1.2258 C   0  0  0  0  0  0  0  0  0  0  0  0
   -5.5536   11.1478   -0.2485 C   0  0  0  0  0  0  0  0  0  0  0  0
   -0.8278    5.6385    3.6814 C   0  0  0  0  0  0  0  0  0  0  0  0
    0.4289    4.8696    0.8978 C   0  0  0  0  0  0  0  0  0  0  0  0
  1 14  1  0  0  0  0
  1  2  2  0  0  0  0
  3  2  1  0  0  0  0
  3  8  2  0  0  0  0
  4  3  1  0  0  0  0
  5  7  2  0  0  0  0
  5  4  1  0  0  0  0
  6  5  1  0  0  0  0
  7  1  1  0  0  0  0
  9 10  1  0  0  0  0
  9  8  1  0  0  0  0
 11  9  2  0  0  0  0
 12 11  1  0  0  0  0
 13  4  2  0  0  0  0
 13 11  1  0  0  0  0
 14 15  1  0  0  0  0
 16 15  1  0  0  0  0
 17 16  1  0  0  0  0
 18 17  1  0  0  0  0
 18 19  1  0  0  0  0
 19 14  1  0  0  0  0
 20 10  1  0  0  0  0
 21 12  1  0  0  0  0
M  END
>  <CHROM.1>
75.65136500,-123.21395910,87.54517654,-2.41651634,9.03786521,0.69138917,-2.55408783
-0.74695348,2.16098063

>  <Name>
lig.pdb

>  <RI>
3.07369e+07

>  <Rbt.Current_Directory>
/home/itssahil/PROJECTS/Mol_Feturizer/New_Systems/rnas/2lwk

>  <Rbt.Executable>
rbdock ($Id: //depot/dev/client3/rdock/2013.1/src/exe/rbdock.cxx#4 $)

>  <Rbt.Library>
libRbt.so (2013.1, Build901 2013/11/27)

>  <Rbt.Parameter_File>
/export/apps/rDock/src/rDock_2013.1_src/data/scripts/dock_solv.prm

>  <Rbt.Receptor>
prm/blind_docking_100.prm

>  <SCORE>
-12.834

>  <SCORE.INTER>
-10.4512

>  <SCORE.INTER.CONST>
1

>  <SCORE.INTER.POLAR>
-0.594543

>  <SCORE.INTER.ROT>
3

>  <SCORE.INTER.SOLV>
11.3111

>  <SCORE.INTER.VDW>
-14.356

>  <SCORE.INTER.norm>
-0.497677

>  <SCORE.INTRA>
-3.93523

>  <SCORE.INTRA.DIHEDRAL>
0.423141

>  <SCORE.INTRA.DIHEDRAL.0>
8.84257

>  <SCORE.INTRA.POLAR>
0

>  <SCORE.INTRA.POLAR.0>
0

>  <SCORE.INTRA.REPUL>
0

>  <SCORE.INTRA.REPUL.0>
0

>  <SCORE.INTRA.SOLV>
0.172728

>  <SCORE.INTRA.SOLV.lig_0>
-17.1313

>  <SCORE.INTRA.VDW>
-4.23317

>  <SCORE.INTRA.VDW.0>
6.34071

>  <SCORE.INTRA.norm>
-0.187392

>  <SCORE.RESTR>
1.55242

>  <SCORE.RESTR.CAVITY>
1.55242

>  <SCORE.RESTR.norm>
0.073925

>  <SCORE.SYSTEM>
0

>  <SCORE.SYSTEM.CONST>
0

>  <SCORE.SYSTEM.DIHEDRAL>
0

>  <SCORE.SYSTEM.SOLV>
0

>  <SCORE.SYSTEM.norm>
0

>  <SCORE.heavy>
21

>  <SCORE.norm>
-0.611144

>  <RMSD>
12.257

$$$$
lig.pdb
 OpenBabel11021811453D
libRbt.so/2013.1/901 2013/11/27
 21 23  0  0  0  0  0  0  0  0999 V2000
   -3.3029   10.6314   -0.3116 C   0  0  0  0  0  0  0  0  0  0  0  0
   -3.2095    9.9051    0.7966 N   0  0  0  0  0  0  0  0  0  0  0  0
   -2.2895    8.9621    0.8925 C   0  0  0  0  0  0  0  0  0  0  0  0
   -1.4921    8.6918   -0.1607 C   0  0  0  0  0  0  0  0  0  0  0  0
   -1.5868    9.4289   -1.2755 C   0  0  0  0  0  0  0  0  0  0  0  0
   -0.8064    9.1655   -2.3229 N   0  0  0  0  0  0  0  0  0  0  0  0
   -2.4957   10.3958   -1.3469 N   0  0  0  0  0  0  0  0  0  0  0  0
   -2.1863    8.2477    2.0255 C   0  0  0  0  0  0  0  0  0  0  0  0
   -1.3570    7.1597    2.0533 C   0  0  0  0  0  0  0  0  0  0  0  0
   -1.8064    6.0072    2.7410 O   0  0  0  0  0  0  0  0  0  0  0  0
   -0.4427    7.0283    1.0782 C   0  0  0  0  0  0  0  0  0  0  0  0
    0.7068    6.2222    1.2948 O   0  0  0  0  0  0  0  0  0  0  0  0
   -0.5733    7.7201   -0.0708 C   0  0  0  0  0  0  0  0  0  0  0  0
   -4.2165   11.5834   -0.3903 N   0  0  0  0  0  0  0  0  0  0  0  0
   -3.9995   12.6786    0.3441 C   0  0  0  0  0  0  0  0  0  0  0  0
   -4.3857   12.4204    1.7926 C   0  0  0  0  0  0  0  0  0  0  0  0
   -5.7268   12.1054    1.8653 N   0  0  0  0  0  0  0  0  0  0  0  0
   -5.9141   10.9522    1.1349 C   0  0  0  0  0  0  0  0  0  0  0  0
   -5.5335   11.2085   -0.3138 C   0  0  0  0  0  0  0  0  0  0  0  0
   -0.8273    5.6521    3.6835 C   0  0  0  0  0  0  0  0  0  0  0  0
    0.4108    4.9038    0.9145 C   0  0  0  0  0  0  0  0  0  0  0  0
  1 14  1  0  0  0  0
  1  2  2  0  0  0  0
  3  2  1  0  0  0  0
  3  8  2  0  0  0  0
  4  3  1  0  0  0  0
  5  7  2  0  0  0  0
  5  4  1  0  0  0  0
  6  5  1  0  0  0  0
  7  1  1  0  0  0  0
  9 10  1  0  0  0  0
  9  8  1  0  0  0  0
 11  9  2  0  0  0  0
 12 11  1  0  0  0  0
 13  4  2  0  0  0  0
 13 11  1  0  0  0  0
 14 15  1  0  0  0  0
 16 15  1  0  0  0  0
 17 16  1  0  0  0  0
 18 17  1  0  0  0  0
 18 19  1  0  0  0  0
 19 14  1  0  0  0  0
 20 10  1  0  0  0  0
 21 12  1  0  0  0  0
M  END
>  <CHROM.1>
71.99753994,-125.83623582,89.01713847,-2.42520312,9.07013759,0.70746724,-2.54709825
-0.73868663,2.16598991

>  <Name>
lig.pdb

>  <RI>
3.07369e+07

>  <Rbt.Current_Directory>
/home/itssahil/PROJECTS/Mol_Feturizer/New_Systems/rnas/2lwk

>  <Rbt.Executable>
rbdock ($Id: //depot/dev/client3/rdock/2013.1/src/exe/rbdock.cxx#4 $)

>  <Rbt.Library>
libRbt.so (2013.1, Build901 2013/11/27)

>  <Rbt.Parameter_File>
/export/apps/rDock/src/rDock_2013.1_src/data/scripts/dock_solv.prm

>  <Rbt.Receptor>
prm/blind_docking_100.prm

>  <SCORE>
-12.8751

>  <SCORE.INTER>
-10.7205

>  <SCORE.INTER.CONST>
1

>  <SCORE.INTER.POLAR>
-0.597337

>  <SCORE.INTER.ROT>
3

>  <SCORE.INTER.SOLV>
11.3325

>  <SCORE.INTER.VDW>
-14.5334

>  <SCORE.INTER.norm>
-0.510501

>  <SCORE.INTRA>
-3.69459

>  <SCORE.INTRA.DIHEDRAL>
0.300295

>  <SCORE.INTRA.DIHEDRAL.0>
8.84257

>  <SCORE.INTRA.POLAR>
0

>  <SCORE.INTRA.POLAR.0>
0

>  <SCORE.INTRA.REPUL>
0

>  <SCORE.INTRA.REPUL.0>
0

>  <SCORE.INTRA.SOLV>
0.175486

>  <SCORE.INTRA.SOLV.lig_0>
-17.1313

>  <SCORE.INTRA.VDW>
-3.93248

>  <SCORE.INTRA.VDW.0>
6.34071

>  <SCORE.INTRA.norm>
-0.175933

>  <SCORE.RESTR>
1.53996

>  <SCORE.RESTR.CAVITY>
1.53996

>  <SCORE.RESTR.norm>
0.0733316

>  <SCORE.SYSTEM>
0

>  <SCORE.SYSTEM.CONST>
0

>  <SCORE.SYSTEM.DIHEDRAL>
0

>  <SCORE.SYSTEM.SOLV>
0

>  <SCORE.SYSTEM.norm>
0

>  <SCORE.heavy>
21

>  <SCORE.norm>
-0.613102

>  <RMSD>
12.278

$$$$
lig.pdb
 OpenBabel11021811453D
libRbt.so/2013.1/901 2013/11/27
 21 23  0  0  0  0  0  0  0  0999 V2000
   -3.2942   10.6348   -0.3188 C   0  0  0  0  0  0  0  0  0  0  0  0
   -3.2012    9.9090    0.7896 N   0  0  0  0  0  0  0  0  0  0  0  0
   -2.2807    8.9665    0.8864 C   0  0  0  0  0  0  0  0  0  0  0  0
   -1.4825    8.6964   -0.1662 C   0  0  0  0  0  0  0  0  0  0  0  0
   -1.5768    9.4331   -1.2812 C   0  0  0  0  0  0  0  0  0  0  0  0
   -0.7956    9.1698   -2.3281 N   0  0  0  0  0  0  0  0  0  0  0  0
   -2.4863   10.3994   -1.3535 N   0  0  0  0  0  0  0  0  0  0  0  0
   -2.1778    8.2525    2.0197 C   0  0  0  0  0  0  0  0  0  0  0  0
   -1.3479    7.1650    2.0484 C   0  0  0  0  0  0  0  0  0  0  0  0
   -1.7971    6.0124    2.7361 O   0  0  0  0  0  0  0  0  0  0  0  0
   -0.4328    7.0339    1.0739 C   0  0  0  0  0  0  0  0  0  0  0  0
    0.7170    6.2285    1.2915 O   0  0  0  0  0  0  0  0  0  0  0  0
   -0.5631    7.7252   -0.0753 C   0  0  0  0  0  0  0  0  0  0  0  0
   -4.2084   11.5863   -0.3985 N   0  0  0  0  0  0  0  0  0  0  0  0
   -3.9977   12.6775    0.3437 C   0  0  0  0  0  0  0  0  0  0  0  0
   -4.3937   12.4105    1.7880 C   0  0  0  0  0  0  0  0  0  0  0  0
   -5.7349   12.0937    1.8496 N   0  0  0  0  0  0  0  0  0  0  0  0
   -5.9158   10.9445    1.1112 C   0  0  0  0  0  0  0  0  0  0  0  0
   -5.5254   11.2095   -0.3333 C   0  0  0  0  0  0  0  0  0  0  0  0
   -0.8105    5.6480    3.6672 C   0  0  0  0  0  0  0  0  0  0  0  0
    0.4291    4.9144    0.8907 C   0  0  0  0  0  0  0  0  0  0  0  0
  1 14  1  0  0  0  0
  1  2  2  0  0  0  0
  3  2  1  0  0  0  0
  3  8  2  0  0  0  0
  4  3  1  0  0  0  0
  5  7  2  0  0  0  0
  5  4  1  0  0  0  0
  6  5  1  0  0  0  0
  7  1  1  0  0  0  0
  9 10  1  0  0  0  0
  9  8  1  0  0  0  0
 11  9  2  0  0  0  0
 12 11  1  0  0  0  0
 13  4  2  0  0  0  0
 13 11  1  0  0  0  0
 14 15  1  0  0  0  0
 16 15  1  0  0  0  0
 17 16  1  0  0  0  0
 18 17  1  0  0  0  0
 18 19  1  0  0  0  0
 19 14  1  0  0  0  0
 20 10  1  0  0  0  0
 21 12  1  0  0  0  0
M  END
>  <CHROM.1>
71.49642189,-126.59767375,89.98146422,-2.41768150,9.07197130,0.69857188,-2.54768608
-0.73600603,2.16641615

>  <Name>
lig.pdb

>  <RI>
3.07369e+07

>  <Rbt.Current_Directory>
/home/itssahil/PROJECTS/Mol_Feturizer/New_Systems/rnas/2lwk

>  <Rbt.Executable>
rbdock ($Id: //depot/dev/client3/rdock/2013.1/src/exe/rbdock.cxx#4 $)

>  <Rbt.Library>
libRbt.so (2013.1, Build901 2013/11/27)

>  <Rbt.Parameter_File>
/export/apps/rDock/src/rDock_2013.1_src/data/scripts/dock_solv.prm

>  <Rbt.Receptor>
prm/blind_docking_100.prm

>  <SCORE>
-12.8255

>  <SCORE.INTER>
-10.6749

>  <SCORE.INTER.CONST>
1

>  <SCORE.INTER.POLAR>
-0.598054

>  <SCORE.INTER.ROT>
3

>  <SCORE.INTER.SOLV>
11.3919

>  <SCORE.INTER.VDW>
-14.5204

>  <SCORE.INTER.norm>
-0.508329

>  <SCORE.INTRA>
-3.68482

>  <SCORE.INTRA.DIHEDRAL>
0.264323

>  <SCORE.INTRA.DIHEDRAL.0>
8.84257

>  <SCORE.INTRA.POLAR>
0

>  <SCORE.INTRA.POLAR.0>
0

>  <SCORE.INTRA.REPUL>
0

>  <SCORE.INTRA.REPUL.0>
0

>  <SCORE.INTRA.SOLV>
0.175501

>  <SCORE.INTRA.SOLV.lig_0>
-17.1313

>  <SCORE.INTRA.VDW>
-3.90473

>  <SCORE.INTRA.VDW.0>
6.34071

>  <SCORE.INTRA.norm>
-0.175468

>  <SCORE.RESTR>
1.53423

>  <SCORE.RESTR.CAVITY>
1.53423

>  <SCORE.RESTR.norm>
0.0730583

>  <SCORE.SYSTEM>
0

>  <SCORE.SYSTEM.CONST>
0

>  <SCORE.SYSTEM.DIHEDRAL>
0

>  <SCORE.SYSTEM.SOLV>
0

>  <SCORE.SYSTEM.norm>
0

>  <SCORE.heavy>
21

>  <SCORE.norm>
-0.610738

>  <RMSD>
12.286

$$$$
lig.pdb
 OpenBabel11021811453D
libRbt.so/2013.1/901 2013/11/27
 21 23  0  0  0  0  0  0  0  0999 V2000
   -1.9507    7.2610    2.5345 C   0  0  0  0  0  0  0  0  0  0  0  0
   -1.5168    8.3122    1.8481 N   0  0  0  0  0  0  0  0  0  0  0  0
   -2.3726    9.2291    1.4337 C   0  0  0  0  0  0  0  0  0  0  0  0
   -3.6932    9.0613    1.6481 C   0  0  0  0  0  0  0  0  0  0  0  0
   -4.1267    8.0017    2.3439 C   0  0  0  0  0  0  0  0  0  0  0  0
   -5.4303    7.8252    2.5561 N   0  0  0  0  0  0  0  0  0  0  0  0
   -3.2515    7.1029    2.7826 N   0  0  0  0  0  0  0  0  0  0  0  0
   -1.9230   10.3012    0.7605 C   0  0  0  0  0  0  0  0  0  0  0  0
   -2.8261   11.1505    0.1815 C   0  0  0  0  0  0  0  0  0  0  0  0
   -2.5159   11.6678   -1.0988 O   0  0  0  0  0  0  0  0  0  0  0  0
   -4.1109   11.0760    0.5665 C   0  0  0  0  0  0  0  0  0  0  0  0
   -4.9706   12.1897    0.3695 O   0  0  0  0  0  0  0  0  0  0  0  0
   -4.5634    9.9811    1.2084 C   0  0  0  0  0  0  0  0  0  0  0  0
   -1.0835    6.3579    2.9583 N   0  0  0  0  0  0  0  0  0  0  0  0
    0.1818    6.7661    3.0948 C   0  0  0  0  0  0  0  0  0  0  0  0
    0.8692    6.7972    1.7382 C   0  0  0  0  0  0  0  0  0  0  0  0
    0.8763    5.5298    1.1933 N   0  0  0  0  0  0  0  0  0  0  0  0
   -0.4380    5.1516    1.0258 C   0  0  0  0  0  0  0  0  0  0  0  0
   -1.1261    5.1150    2.3802 C   0  0  0  0  0  0  0  0  0  0  0  0
   -2.8278   10.6856   -2.0534 C   0  0  0  0  0  0  0  0  0  0  0  0
   -4.7122   13.1407    1.3690 C   0  0  0  0  0  0  0  0  0  0  0  0
  1 14  1  0  0  0  0
  1  2  2  0  0  0  0
  3  2  1  0  0  0  0
  3  8  2  0  0  0  0
  4  3  1  0  0  0  0
  5  7  2  0  0  0  0
  5  4  1  0  0  0  0
  6  5  1  0  0  0  0
  7  1  1  0  0  0  0
  9 10  1  0  0  0  0
  9  8  1  0  0  0  0
 11  9  2  0  0  0  0
 12 11  1  0  0  0  0
 13  4  2  0  0  0  0
 13 11  1  0  0  0  0
 14 15  1  0  0  0  0
 16 15  1  0  0  0  0
 17 16  1  0  0  0  0
 18 17  1  0  0  0  0
 18 19  1  0  0  0  0
 19 14  1  0  0  0  0
 20 10  1  0  0  0  0
 21 12  1  0  0  0  0
M  END
>  <CHROM.1>
23.05768637,80.12436877,-78.16768018,-2.45424475,8.71222523,1.34635090,0.94866455
-0.44137285,2.52520444

>  <Name>
lig.pdb

>  <RI>
4.07847e+07

>  <Rbt.Current_Directory>
/home/itssahil/PROJECTS/Mol_Feturizer/New_Systems/rnas/2lwk

>  <Rbt.Executable>
rbdock ($Id: //depot/dev/client3/rdock/2013.1/src/exe/rbdock.cxx#4 $)

>  <Rbt.Library>
libRbt.so (2013.1, Build901 2013/11/27)

>  <Rbt.Parameter_File>
/export/apps/rDock/src/rDock_2013.1_src/data/scripts/dock_solv.prm

>  <Rbt.Receptor>
prm/blind_docking_20.prm

>  <SCORE>
-11.1233

>  <SCORE.INTER>
-10.9624

>  <SCORE.INTER.CONST>
1

>  <SCORE.INTER.POLAR>
-0.25413

>  <SCORE.INTER.ROT>
3

>  <SCORE.INTER.SOLV>
13.1878

>  <SCORE.INTER.VDW>
-16.4571

>  <SCORE.INTER.norm>
-0.522019

>  <SCORE.INTRA>
-2.79814

>  <SCORE.INTRA.DIHEDRAL>
0.876295

>  <SCORE.INTRA.DIHEDRAL.0>
8.84257

>  <SCORE.INTRA.POLAR>
0

>  <SCORE.INTRA.POLAR.0>
0

>  <SCORE.INTRA.REPUL>
0

>  <SCORE.INTRA.REPUL.0>
0

>  <SCORE.INTRA.SOLV>
0.0354302

>  <SCORE.INTRA.SOLV.lig_0>
-17.1313

>  <SCORE.INTRA.VDW>
-3.254

>  <SCORE.INTRA.VDW.0>
6.34071

>  <SCORE.INTRA.norm>
-0.133245

>  <SCORE.RESTR>
2.63728

>  <SCORE.RESTR.CAVITY>
2.63728

>  <SCORE.RESTR.norm>
0.125585

>  <SCORE.SYSTEM>
0

>  <SCORE.SYSTEM.CONST>
0

>  <SCORE.SYSTEM.DIHEDRAL>
0

>  <SCORE.SYSTEM.SOLV>
0

>  <SCORE.SYSTEM.norm>
0

>  <SCORE.heavy>
21

>  <SCORE.norm>
-0.529679

>  <RMSD>
12.313

$$$$
lig.pdb
 OpenBabel11021811453D
libRbt.so/2013.1/901 2013/11/27
 21 23  0  0  0  0  0  0  0  0999 V2000
   -0.9115    7.0561    0.3170 C   0  0  0  0  0  0  0  0  0  0  0  0
   -1.9134    7.6453    0.9601 N   0  0  0  0  0  0  0  0  0  0  0  0
   -2.5328    8.6763    0.4142 C   0  0  0  0  0  0  0  0  0  0  0  0
   -2.1021    9.1725   -0.7633 C   0  0  0  0  0  0  0  0  0  0  0  0
   -1.0937    8.5734   -1.4107 C   0  0  0  0  0  0  0  0  0  0  0  0
   -0.6581    9.0599   -2.5722 N   0  0  0  0  0  0  0  0  0  0  0  0
   -0.4998    7.5171   -0.8649 N   0  0  0  0  0  0  0  0  0  0  0  0
   -3.5604    9.2519    1.0603 C   0  0  0  0  0  0  0  0  0  0  0  0
   -4.0783   10.4229    0.5778 C   0  0  0  0  0  0  0  0  0  0  0  0
   -4.4459   11.4161    1.5166 O   0  0  0  0  0  0  0  0  0  0  0  0
   -3.7721   10.7871   -0.6783 C   0  0  0  0  0  0  0  0  0  0  0  0
   -4.6136   11.6971   -1.3725 O   0  0  0  0  0  0  0  0  0  0  0  0
   -2.7170   10.2324   -1.3065 C   0  0  0  0  0  0  0  0  0  0  0  0
   -0.3095    6.0149    0.8653 N   0  0  0  0  0  0  0  0  0  0  0  0
   -1.0980    5.1252    1.4759 C   0  0  0  0  0  0  0  0  0  0  0  0
   -1.4873    5.6335    2.8557 C   0  0  0  0  0  0  0  0  0  0  0  0
   -0.3534    5.8090    3.6216 N   0  0  0  0  0  0  0  0  0  0  0  0
    0.4202    6.7592    2.9913 C   0  0  0  0  0  0  0  0  0  0  0  0
    0.8147    6.2521    1.6142 C   0  0  0  0  0  0  0  0  0  0  0  0
   -3.3179   11.7165    2.2980 C   0  0  0  0  0  0  0  0  0  0  0  0
   -4.4110   12.9849   -0.8521 C   0  0  0  0  0  0  0  0  0  0  0  0
  1 14  1  0  0  0  0
  1  2  2  0  0  0  0
  3  2  1  0  0  0  0
  3  8  2  0  0  0  0
  4  3  1  0  0  0  0
  5  7  2  0  0  0  0
  5  4  1  0  0  0  0
  6  5  1  0  0  0  0
  7  1  1  0  0  0  0
  9 10  1  0  0  0  0
  9  8  1  0  0  0  0
 11  9  2  0  0  0  0
 12 11  1  0  0  0  0
 13  4  2  0  0  0  0
 13 11  1  0  0  0  0
 14 15  1  0  0  0  0
 16 15  1  0  0  0  0
 17 16  1  0  0  0  0
 18 17  1  0  0  0  0
 18 19  1  0  0  0  0
 19 14  1  0  0  0  0
 20 10  1  0  0  0  0
 21 12  1  0  0  0  0
M  END
>  <CHROM.1>
40.80936735,56.74466975,74.19661287,-2.03588722,8.68767190,0.53144625,-0.62339859
0.86921930,-1.20815625

>  <Name>
lig.pdb

>  <RI>
2.05709e+07

>  <Rbt.Current_Directory>
/home/itssahil/PROJECTS/Mol_Feturizer/New_Systems/rnas/2lwk

>  <Rbt.Executable>
rbdock ($Id: //depot/dev/client3/rdock/2013.1/src/exe/rbdock.cxx#4 $)

>  <Rbt.Library>
libRbt.so (2013.1, Build901 2013/11/27)

>  <Rbt.Parameter_File>
/export/apps/rDock/src/rDock_2013.1_src/data/scripts/dock_solv.prm

>  <Rbt.Receptor>
prm/blind_docking_40.prm

>  <SCORE>
-10.9016

>  <SCORE.INTER>
-11.8206

>  <SCORE.INTER.CONST>
1

>  <SCORE.INTER.POLAR>
-1.21982

>  <SCORE.INTER.ROT>
3

>  <SCORE.INTER.SOLV>
12.9721

>  <SCORE.INTER.VDW>
-13.7384

>  <SCORE.INTER.norm>
-0.562885

>  <SCORE.INTRA>
-1.36253

>  <SCORE.INTRA.DIHEDRAL>
0.0173845

>  <SCORE.INTRA.DIHEDRAL.0>
8.84257

>  <SCORE.INTRA.POLAR>
0

>  <SCORE.INTRA.POLAR.0>
0

>  <SCORE.INTRA.REPUL>
0

>  <SCORE.INTRA.REPUL.0>
0

>  <SCORE.INTRA.SOLV>
0.121949

>  <SCORE.INTRA.SOLV.lig_0>
-17.1313

>  <SCORE.INTRA.VDW>
-1.4322

>  <SCORE.INTRA.VDW.0>
6.34071

>  <SCORE.INTRA.norm>
-0.0648824

>  <SCORE.RESTR>
2.28151

>  <SCORE.RESTR.CAVITY>
2.28151

>  <SCORE.RESTR.norm>
0.108643

>  <SCORE.SYSTEM>
0

>  <SCORE.SYSTEM.CONST>
0

>  <SCORE.SYSTEM.DIHEDRAL>
0

>  <SCORE.SYSTEM.SOLV>
0

>  <SCORE.SYSTEM.norm>
0

>  <SCORE.heavy>
21

>  <SCORE.norm>
-0.519125

>  <RMSD>
12.457

$$$$
lig.pdb
 OpenBabel11021811453D
libRbt.so/2013.1/901 2013/11/27
 21 23  0  0  0  0  0  0  0  0999 V2000
   -0.8183    7.1049    0.3739 C   0  0  0  0  0  0  0  0  0  0  0  0
   -1.7697    7.7284    1.0597 N   0  0  0  0  0  0  0  0  0  0  0  0
   -2.4007    8.7589    0.5262 C   0  0  0  0  0  0  0  0  0  0  0  0
   -2.0304    9.2195   -0.6858 C   0  0  0  0  0  0  0  0  0  0  0  0
   -1.0728    8.5858   -1.3760 C   0  0  0  0  0  0  0  0  0  0  0  0
   -0.6969    9.0370   -2.5721 N   0  0  0  0  0  0  0  0  0  0  0  0
   -0.4679    7.5306   -0.8405 N   0  0  0  0  0  0  0  0  0  0  0  0
   -3.3779    9.3694    1.2169 C   0  0  0  0  0  0  0  0  0  0  0  0
   -3.9013   10.5392    0.7374 C   0  0  0  0  0  0  0  0  0  0  0  0
   -4.1949   11.5607    1.6721 O   0  0  0  0  0  0  0  0  0  0  0  0
   -3.6622   10.8687   -0.5426 C   0  0  0  0  0  0  0  0  0  0  0  0
   -4.5259   11.7793   -1.2083 O   0  0  0  0  0  0  0  0  0  0  0  0
   -2.6561   10.2789   -1.2175 C   0  0  0  0  0  0  0  0  0  0  0  0
   -0.2047    6.0646    0.9110 N   0  0  0  0  0  0  0  0  0  0  0  0
   -0.9868    5.1350    1.4682 C   0  0  0  0  0  0  0  0  0  0  0  0
   -1.4355    5.5899    2.8486 C   0  0  0  0  0  0  0  0  0  0  0  0
   -0.3328    5.7736    3.6570 N   0  0  0  0  0  0  0  0  0  0  0  0
    0.4332    6.7636    3.0815 C   0  0  0  0  0  0  0  0  0  0  0  0
    0.8870    6.3101    1.7039 C   0  0  0  0  0  0  0  0  0  0  0  0
   -5.5904   11.6332    1.8150 C   0  0  0  0  0  0  0  0  0  0  0  0
   -4.2551   13.0768   -0.7463 C   0  0  0  0  0  0  0  0  0  0  0  0
  1 14  1  0  0  0  0
  1  2  2  0  0  0  0
  3  2  1  0  0  0  0
  3  8  2  0  0  0  0
  4  3  1  0  0  0  0
  5  7  2  0  0  0  0
  5  4  1  0  0  0  0
  6  5  1  0  0  0  0
  7  1  1  0  0  0  0
  9 10  1  0  0  0  0
  9  8  1  0  0  0  0
 11  9  2  0  0  0  0
 12 11  1  0  0  0  0
 13  4  2  0  0  0  0
 13 11  1  0  0  0  0
 14 15  1  0  0  0  0
 16 15  1  0  0  0  0
 17 16  1  0  0  0  0
 18 17  1  0  0  0  0
 18 19  1  0  0  0  0
 19 14  1  0  0  0  0
 20 10  1  0  0  0  0
 21 12  1  0  0  0  0
M  END
>  <CHROM.1>
47.45997505,-106.86092517,75.08319388,-2.06667850,8.72945880,0.58244949,-0.65191166
0.79680838,-1.10604851

>  <Name>
lig.pdb

>  <RI>
1.05666e+07

>  <Rbt.Current_Directory>
/home/itssahil/PROJECTS/Mol_Feturizer/New_Systems/rnas/2lwk

>  <Rbt.Executable>
rbdock ($Id: //depot/dev/client3/rdock/2013.1/src/exe/rbdock.cxx#4 $)

>  <Rbt.Library>
libRbt.so (2013.1, Build901 2013/11/27)

>  <Rbt.Parameter_File>
/export/apps/rDock/src/rDock_2013.1_src/data/scripts/dock_solv.prm

>  <Rbt.Receptor>
prm/blind_docking_80.prm

>  <SCORE>
-14.1499

>  <SCORE.INTER>
-12.1884

>  <SCORE.INTER.CONST>
1

>  <SCORE.INTER.POLAR>
-1.28676

>  <SCORE.INTER.ROT>
3

>  <SCORE.INTER.SOLV>
13.2132

>  <SCORE.INTER.VDW>
-13.8408

>  <SCORE.INTER.norm>
-0.580401

>  <SCORE.INTRA>
-3.66824

>  <SCORE.INTRA.DIHEDRAL>
0.593028

>  <SCORE.INTRA.DIHEDRAL.0>
8.84257

>  <SCORE.INTRA.POLAR>
0

>  <SCORE.INTRA.POLAR.0>
0

>  <SCORE.INTRA.REPUL>
0

>  <SCORE.INTRA.REPUL.0>
0

>  <SCORE.INTRA.SOLV>
0.162508

>  <SCORE.INTRA.SOLV.lig_0>
-17.1313

>  <SCORE.INTRA.VDW>
-4.04601

>  <SCORE.INTRA.VDW.0>
6.34071

>  <SCORE.INTRA.norm>
-0.174678

>  <SCORE.RESTR>
1.70677

>  <SCORE.RESTR.CAVITY>
1.70677

>  <SCORE.RESTR.norm>
0.0812745

>  <SCORE.SYSTEM>
0

>  <SCORE.SYSTEM.CONST>
0

>  <SCORE.SYSTEM.DIHEDRAL>
0

>  <SCORE.SYSTEM.SOLV>
0

>  <SCORE.SYSTEM.norm>
0

>  <SCORE.heavy>
21

>  <SCORE.norm>
-0.673804

>  <RMSD>
12.460

$$$$
lig.pdb
 OpenBabel11021811453D
libRbt.so/2013.1/901 2013/11/27
 21 23  0  0  0  0  0  0  0  0999 V2000
   -0.8183    7.1082    0.3716 C   0  0  0  0  0  0  0  0  0  0  0  0
   -1.7716    7.7299    1.0566 N   0  0  0  0  0  0  0  0  0  0  0  0
   -2.4034    8.7598    0.5229 C   0  0  0  0  0  0  0  0  0  0  0  0
   -2.0321    9.2216   -0.6883 C   0  0  0  0  0  0  0  0  0  0  0  0
   -1.0727    8.5898   -1.3777 C   0  0  0  0  0  0  0  0  0  0  0  0
   -0.6958    9.0423   -2.5731 N   0  0  0  0  0  0  0  0  0  0  0  0
   -0.4669    7.5351   -0.8420 N   0  0  0  0  0  0  0  0  0  0  0  0
   -3.3824    9.3685    1.2127 C   0  0  0  0  0  0  0  0  0  0  0  0
   -3.9068   10.5378    0.7332 C   0  0  0  0  0  0  0  0  0  0  0  0
   -4.2031   11.5583    1.6680 O   0  0  0  0  0  0  0  0  0  0  0  0
   -3.6666   10.8683   -0.5464 C   0  0  0  0  0  0  0  0  0  0  0  0
   -4.5306   11.7781   -1.2127 O   0  0  0  0  0  0  0  0  0  0  0  0
   -2.6587   10.2804   -1.2203 C   0  0  0  0  0  0  0  0  0  0  0  0
   -0.2039    6.0685    0.9090 N   0  0  0  0  0  0  0  0  0  0  0  0
   -0.9853    5.1384    1.4664 C   0  0  0  0  0  0  0  0  0  0  0  0
   -1.4342    5.5933    2.8468 C   0  0  0  0  0  0  0  0  0  0  0  0
   -0.3316    5.7779    3.6550 N   0  0  0  0  0  0  0  0  0  0  0  0
    0.4337    6.7685    3.0792 C   0  0  0  0  0  0  0  0  0  0  0  0
    0.8877    6.3150    1.7018 C   0  0  0  0  0  0  0  0  0  0  0  0
   -5.5997   11.6442    1.7919 C   0  0  0  0  0  0  0  0  0  0  0  0
   -4.2628   13.0756   -0.7491 C   0  0  0  0  0  0  0  0  0  0  0  0
  1 14  1  0  0  0  0
  1  2  2  0  0  0  0
  3  2  1  0  0  0  0
  3  8  2  0  0  0  0
  4  3  1  0  0  0  0
  5  7  2  0  0  0  0
  5  4  1  0  0  0  0
  6  5  1  0  0  0  0
  7  1  1  0  0  0  0
  9 10  1  0  0  0  0
  9  8  1  0  0  0  0
 11  9  2  0  0  0  0
 12 11  1  0  0  0  0
 13  4  2  0  0  0  0
 13 11  1  0  0  0  0
 14 15  1  0  0  0  0
 16 15  1  0  0  0  0
 17 16  1  0  0  0  0
 18 17  1  0  0  0  0
 18 19  1  0  0  0  0
 19 14  1  0  0  0  0
 20 10  1  0  0  0  0
 21 12  1  0  0  0  0
M  END
>  <CHROM.1>
47.35878431,-107.85914656,75.06050385,-2.06887756,8.73194138,0.57871453,-0.65197448
0.79509189,-1.10582868

>  <Name>
lig.pdb

>  <RI>
2.05709e+07

>  <Rbt.Current_Directory>
/home/itssahil/PROJECTS/Mol_Feturizer/New_Systems/rnas/2lwk

>  <Rbt.Executable>
rbdock ($Id: //depot/dev/client3/rdock/2013.1/src/exe/rbdock.cxx#4 $)

>  <Rbt.Library>
libRbt.so (2013.1, Build901 2013/11/27)

>  <Rbt.Parameter_File>
/export/apps/rDock/src/rDock_2013.1_src/data/scripts/dock_solv.prm

>  <Rbt.Receptor>
prm/blind_docking_40.prm

>  <SCORE>
-14.1527

>  <SCORE.INTER>
-12.2882

>  <SCORE.INTER.CONST>
1

>  <SCORE.INTER.POLAR>
-1.28669

>  <SCORE.INTER.ROT>
3

>  <SCORE.INTER.SOLV>
13.2055

>  <SCORE.INTER.VDW>
-13.905

>  <SCORE.INTER.norm>
-0.585154

>  <SCORE.INTRA>
-3.57654

>  <SCORE.INTRA.DIHEDRAL>
0.578398

>  <SCORE.INTRA.DIHEDRAL.0>
8.84257

>  <SCORE.INTRA.POLAR>
0

>  <SCORE.INTRA.POLAR.0>
0

>  <SCORE.INTRA.REPUL>
0

>  <SCORE.INTRA.REPUL.0>
0

>  <SCORE.INTRA.SOLV>
0.163403

>  <SCORE.INTRA.SOLV.lig_0>
-17.1313

>  <SCORE.INTRA.VDW>
-3.94744

>  <SCORE.INTRA.VDW.0>
6.34071

>  <SCORE.INTRA.norm>
-0.170311

>  <SCORE.RESTR>
1.71205

>  <SCORE.RESTR.CAVITY>
1.71205

>  <SCORE.RESTR.norm>
0.0815261

>  <SCORE.SYSTEM>
0

>  <SCORE.SYSTEM.CONST>
0

>  <SCORE.SYSTEM.DIHEDRAL>
0

>  <SCORE.SYSTEM.SOLV>
0

>  <SCORE.SYSTEM.norm>
0

>  <SCORE.heavy>
21

>  <SCORE.norm>
-0.67394

>  <RMSD>
12.461

$$$$
lig.pdb
 OpenBabel11021811453D
libRbt.so/2013.1/901 2013/11/27
 21 23  0  0  0  0  0  0  0  0999 V2000
   -0.8244    7.1166    0.3605 C   0  0  0  0  0  0  0  0  0  0  0  0
   -1.7742    7.7385    1.0501 N   0  0  0  0  0  0  0  0  0  0  0  0
   -2.4117    8.7655    0.5176 C   0  0  0  0  0  0  0  0  0  0  0  0
   -2.0497    9.2244   -0.6975 C   0  0  0  0  0  0  0  0  0  0  0  0
   -1.0939    8.5923   -1.3916 C   0  0  0  0  0  0  0  0  0  0  0  0
   -0.7262    9.0418   -2.5909 N   0  0  0  0  0  0  0  0  0  0  0  0
   -0.4823    7.5405   -0.8569 N   0  0  0  0  0  0  0  0  0  0  0  0
   -3.3871    9.3744    1.2123 C   0  0  0  0  0  0  0  0  0  0  0  0
   -3.9172   10.5412    0.7329 C   0  0  0  0  0  0  0  0  0  0  0  0
   -4.2090   11.5640    1.6667 O   0  0  0  0  0  0  0  0  0  0  0  0
   -3.6864   10.8683   -0.5493 C   0  0  0  0  0  0  0  0  0  0  0  0
   -4.5569   11.7743   -1.2123 O   0  0  0  0  0  0  0  0  0  0  0  0
   -2.6821   10.2803   -1.2284 C   0  0  0  0  0  0  0  0  0  0  0  0
   -0.2043    6.0797    0.8967 N   0  0  0  0  0  0  0  0  0  0  0  0
   -0.9809    5.1406    1.4455 C   0  0  0  0  0  0  0  0  0  0  0  0
   -1.4415    5.5855    2.8253 C   0  0  0  0  0  0  0  0  0  0  0  0
   -0.3452    5.7758    3.6407 N   0  0  0  0  0  0  0  0  0  0  0  0
    0.4149    6.7754    3.0736 C   0  0  0  0  0  0  0  0  0  0  0  0
    0.8806    6.3319    1.6968 C   0  0  0  0  0  0  0  0  0  0  0  0
   -5.6054   11.6668    1.7787 C   0  0  0  0  0  0  0  0  0  0  0  0
   -4.2605   13.0782   -0.7853 C   0  0  0  0  0  0  0  0  0  0  0  0
  1 14  1  0  0  0  0
  1  2  2  0  0  0  0
  3  2  1  0  0  0  0
  3  8  2  0  0  0  0
  4  3  1  0  0  0  0
  5  7  2  0  0  0  0
  5  4  1  0  0  0  0
  6  5  1  0  0  0  0
  7  1  1  0  0  0  0
  9 10  1  0  0  0  0
  9  8  1  0  0  0  0
 11  9  2  0  0  0  0
 12 11  1  0  0  0  0
 13  4  2  0  0  0  0
 13 11  1  0  0  0  0
 14 15  1  0  0  0  0
 16 15  1  0  0  0  0
 17 16  1  0  0  0  0
 18 17  1  0  0  0  0
 18 19  1  0  0  0  0
 19 14  1  0  0  0  0
 20 10  1  0  0  0  0
 21 12  1  0  0  0  0
M  END
>  <CHROM.1>
48.27973067,-109.09077997,76.85867945,-2.08022464,8.73652611,0.56801573,-0.64830315
0.79740409,-1.11067350

>  <Name>
lig.pdb

>  <RI>
2.05709e+07

>  <Rbt.Current_Directory>
/home/itssahil/PROJECTS/Mol_Feturizer/New_Systems/rnas/2lwk

>  <Rbt.Executable>
rbdock ($Id: //depot/dev/client3/rdock/2013.1/src/exe/rbdock.cxx#4 $)

>  <Rbt.Library>
libRbt.so (2013.1, Build901 2013/11/27)

>  <Rbt.Parameter_File>
/export/apps/rDock/src/rDock_2013.1_src/data/scripts/dock_solv.prm

>  <Rbt.Receptor>
prm/blind_docking_40.prm

>  <SCORE>
-14.4353

>  <SCORE.INTER>
-12.4476

>  <SCORE.INTER.CONST>
1

>  <SCORE.INTER.POLAR>
-1.29648

>  <SCORE.INTER.ROT>
3

>  <SCORE.INTER.SOLV>
13.1112

>  <SCORE.INTER.VDW>
-13.9472

>  <SCORE.INTER.norm>
-0.592742

>  <SCORE.INTRA>
-3.76953

>  <SCORE.INTRA.DIHEDRAL>
0.637449

>  <SCORE.INTRA.DIHEDRAL.0>
8.84257

>  <SCORE.INTRA.POLAR>
0

>  <SCORE.INTRA.POLAR.0>
0

>  <SCORE.INTRA.REPUL>
0

>  <SCORE.INTRA.REPUL.0>
0

>  <SCORE.INTRA.SOLV>
0.163747

>  <SCORE.INTRA.SOLV.lig_0>
-17.1313

>  <SCORE.INTRA.VDW>
-4.17013

>  <SCORE.INTRA.VDW.0>
6.34071

>  <SCORE.INTRA.norm>
-0.179502

>  <SCORE.RESTR>
1.78179

>  <SCORE.RESTR.CAVITY>
1.78179

>  <SCORE.RESTR.norm>
0.0848473

>  <SCORE.SYSTEM>
0

>  <SCORE.SYSTEM.CONST>
0

>  <SCORE.SYSTEM.DIHEDRAL>
0

>  <SCORE.SYSTEM.SOLV>
0

>  <SCORE.SYSTEM.norm>
0

>  <SCORE.heavy>
21

>  <SCORE.norm>
-0.687396

>  <RMSD>
12.462

$$$$
lig.pdb
 OpenBabel11021811453D
libRbt.so/2013.1/901 2013/11/27
 21 23  0  0  0  0  0  0  0  0999 V2000
   -0.8233    7.1087    0.3667 C   0  0  0  0  0  0  0  0  0  0  0  0
   -1.7715    7.7325    1.0568 N   0  0  0  0  0  0  0  0  0  0  0  0
   -2.4035    8.7641    0.5266 C   0  0  0  0  0  0  0  0  0  0  0  0
   -2.0374    9.2254   -0.6864 C   0  0  0  0  0  0  0  0  0  0  0  0
   -1.0832    8.5914   -1.3809 C   0  0  0  0  0  0  0  0  0  0  0  0
   -0.7114    9.0433   -2.5781 N   0  0  0  0  0  0  0  0  0  0  0  0
   -0.4772    7.5351   -0.8487 N   0  0  0  0  0  0  0  0  0  0  0  0
   -3.3774    9.3750    1.2217 C   0  0  0  0  0  0  0  0  0  0  0  0
   -3.9015   10.5457    0.7452 C   0  0  0  0  0  0  0  0  0  0  0  0
   -4.1904   11.5667    1.6819 O   0  0  0  0  0  0  0  0  0  0  0  0
   -3.6671   10.8761   -0.5355 C   0  0  0  0  0  0  0  0  0  0  0  0
   -4.5324   11.7881   -1.1970 O   0  0  0  0  0  0  0  0  0  0  0  0
   -2.6642   10.2859   -1.2148 C   0  0  0  0  0  0  0  0  0  0  0  0
   -0.2087    6.0673    0.9005 N   0  0  0  0  0  0  0  0  0  0  0  0
   -0.9899    5.1347    1.4538 C   0  0  0  0  0  0  0  0  0  0  0  0
   -1.4402    5.5840    2.8356 C   0  0  0  0  0  0  0  0  0  0  0  0
   -0.3384    5.7662    3.6454 N   0  0  0  0  0  0  0  0  0  0  0  0
    0.4267    6.7594    3.0739 C   0  0  0  0  0  0  0  0  0  0  0  0
    0.8821    6.3115    1.6951 C   0  0  0  0  0  0  0  0  0  0  0  0
   -5.5866   11.6789    1.7879 C   0  0  0  0  0  0  0  0  0  0  0  0
   -4.2547   13.0856   -0.7390 C   0  0  0  0  0  0  0  0  0  0  0  0
  1 14  1  0  0  0  0
  1  2  2  0  0  0  0
  3  2  1  0  0  0  0
  3  8  2  0  0  0  0
  4  3  1  0  0  0  0
  5  7  2  0  0  0  0
  5  4  1  0  0  0  0
  6  5  1  0  0  0  0
  7  1  1  0  0  0  0
  9 10  1  0  0  0  0
  9  8  1  0  0  0  0
 11  9  2  0  0  0  0
 12 11  1  0  0  0  0
 13  4  2  0  0  0  0
 13 11  1  0  0  0  0
 14 15  1  0  0  0  0
 16 15  1  0  0  0  0
 17 16  1  0  0  0  0
 18 17  1  0  0  0  0
 18 19  1  0  0  0  0
 19 14  1  0  0  0  0
 20 10  1  0  0  0  0
 21 12  1  0  0  0  0
M  END
>  <CHROM.1>
47.79500181,-109.31455644,75.32720998,-2.07092368,8.73516718,0.57891935,-0.64896087
0.80040236,-1.10738715

>  <Name>
lig.pdb

>  <RI>
1.05666e+07

>  <Rbt.Current_Directory>
/home/itssahil/PROJECTS/Mol_Feturizer/New_Systems/rnas/2lwk

>  <Rbt.Executable>
rbdock ($Id: //depot/dev/client3/rdock/2013.1/src/exe/rbdock.cxx#4 $)

>  <Rbt.Library>
libRbt.so (2013.1, Build901 2013/11/27)

>  <Rbt.Parameter_File>
/export/apps/rDock/src/rDock_2013.1_src/data/scripts/dock_solv.prm

>  <Rbt.Receptor>
prm/blind_docking_80.prm

>  <SCORE>
-14.1871

>  <SCORE.INTER>
-12.4097

>  <SCORE.INTER.CONST>
1

>  <SCORE.INTER.POLAR>
-1.28724

>  <SCORE.INTER.ROT>
3

>  <SCORE.INTER.SOLV>
13.1628

>  <SCORE.INTER.VDW>
-13.9699

>  <SCORE.INTER.norm>
-0.590937

>  <SCORE.INTRA>
-3.49555

>  <SCORE.INTRA.DIHEDRAL>
0.566115

>  <SCORE.INTRA.DIHEDRAL.0>
8.84257

>  <SCORE.INTRA.POLAR>
0

>  <SCORE.INTRA.POLAR.0>
0

>  <SCORE.INTRA.REPUL>
0

>  <SCORE.INTRA.REPUL.0>
0

>  <SCORE.INTRA.SOLV>
0.164879

>  <SCORE.INTRA.SOLV.lig_0>
-17.1313

>  <SCORE.INTRA.VDW>
-3.86105

>  <SCORE.INTRA.VDW.0>
6.34071

>  <SCORE.INTRA.norm>
-0.166455

>  <SCORE.RESTR>
1.71808

>  <SCORE.RESTR.CAVITY>
1.71808

>  <SCORE.RESTR.norm>
0.0818135

>  <SCORE.SYSTEM>
0

>  <SCORE.SYSTEM.CONST>
0

>  <SCORE.SYSTEM.DIHEDRAL>
0

>  <SCORE.SYSTEM.SOLV>
0

>  <SCORE.SYSTEM.norm>
0

>  <SCORE.heavy>
21

>  <SCORE.norm>
-0.675578

>  <RMSD>
12.465

$$$$
lig.pdb
 OpenBabel11021811453D
libRbt.so/2013.1/901 2013/11/27
 21 23  0  0  0  0  0  0  0  0999 V2000
   -0.8311    7.1167    0.3550 C   0  0  0  0  0  0  0  0  0  0  0  0
   -1.7768    7.7422    1.0469 N   0  0  0  0  0  0  0  0  0  0  0  0
   -2.4122    8.7712    0.5156 C   0  0  0  0  0  0  0  0  0  0  0  0
   -2.0519    9.2282   -0.7007 C   0  0  0  0  0  0  0  0  0  0  0  0
   -1.1000    8.5925   -1.3970 C   0  0  0  0  0  0  0  0  0  0  0  0
   -0.7340    9.0403   -2.5975 N   0  0  0  0  0  0  0  0  0  0  0  0
   -0.4907    7.5388   -0.8635 N   0  0  0  0  0  0  0  0  0  0  0  0
   -3.3837    9.3837    1.2126 C   0  0  0  0  0  0  0  0  0  0  0  0
   -3.9110   10.5521    0.7341 C   0  0  0  0  0  0  0  0  0  0  0  0
   -4.1968   11.5763    1.6681 O   0  0  0  0  0  0  0  0  0  0  0  0
   -3.6825   10.8779   -0.5489 C   0  0  0  0  0  0  0  0  0  0  0  0
   -4.5516   11.7866   -1.2101 O   0  0  0  0  0  0  0  0  0  0  0  0
   -2.6820   10.2861   -1.2304 C   0  0  0  0  0  0  0  0  0  0  0  0
   -0.2131    6.0779    0.8901 N   0  0  0  0  0  0  0  0  0  0  0  0
   -0.9916    5.1406    1.4393 C   0  0  0  0  0  0  0  0  0  0  0  0
   -1.4496    5.5860    2.8198 C   0  0  0  0  0  0  0  0  0  0  0  0
   -0.3518    5.7731    3.6340 N   0  0  0  0  0  0  0  0  0  0  0  0
    0.4103    6.7709    3.0667 C   0  0  0  0  0  0  0  0  0  0  0  0
    0.8733    6.3268    1.6891 C   0  0  0  0  0  0  0  0  0  0  0  0
   -5.5925   11.6794    1.7888 C   0  0  0  0  0  0  0  0  0  0  0  0
   -4.2719   13.0862   -0.7596 C   0  0  0  0  0  0  0  0  0  0  0  0
  1 14  1  0  0  0  0
  1  2  2  0  0  0  0
  3  2  1  0  0  0  0
  3  8  2  0  0  0  0
  4  3  1  0  0  0  0
  5  7  2  0  0  0  0
  5  4  1  0  0  0  0
  6  5  1  0  0  0  0
  7  1  1  0  0  0  0
  9 10  1  0  0  0  0
  9  8  1  0  0  0  0
 11  9  2  0  0  0  0
 12 11  1  0  0  0  0
 13  4  2  0  0  0  0
 13 11  1  0  0  0  0
 14 15  1  0  0  0  0
 16 15  1  0  0  0  0
 17 16  1  0  0  0  0
 18 17  1  0  0  0  0
 18 19  1  0  0  0  0
 19 14  1  0  0  0  0
 20 10  1  0  0  0  0
 21 12  1  0  0  0  0
M  END
>  <CHROM.1>
48.39394195,-108.79602472,75.41480802,-2.08247926,8.74023889,0.56660063,-0.64568960
0.80181394,-1.11227693

>  <Name>
lig.pdb

>  <RI>
2.05709e+07

>  <Rbt.Current_Directory>
/home/itssahil/PROJECTS/Mol_Feturizer/New_Systems/rnas/2lwk

>  <Rbt.Executable>
rbdock ($Id: //depot/dev/client3/rdock/2013.1/src/exe/rbdock.cxx#4 $)

>  <Rbt.Library>
libRbt.so (2013.1, Build901 2013/11/27)

>  <Rbt.Parameter_File>
/export/apps/rDock/src/rDock_2013.1_src/data/scripts/dock_solv.prm

>  <Rbt.Receptor>
prm/blind_docking_40.prm

>  <SCORE>
-14.4097

>  <SCORE.INTER>
-12.6013

>  <SCORE.INTER.CONST>
1

>  <SCORE.INTER.POLAR>
-1.29829

>  <SCORE.INTER.ROT>
3

>  <SCORE.INTER.SOLV>
13.0735

>  <SCORE.INTER.VDW>
-14.031

>  <SCORE.INTER.norm>
-0.60006

>  <SCORE.INTRA>
-3.58268

>  <SCORE.INTRA.DIHEDRAL>
0.579315

>  <SCORE.INTRA.DIHEDRAL.0>
8.84257

>  <SCORE.INTRA.POLAR>
0

>  <SCORE.INTRA.POLAR.0>
0

>  <SCORE.INTRA.REPUL>
0

>  <SCORE.INTRA.REPUL.0>
0

>  <SCORE.INTRA.SOLV>
0.164722

>  <SCORE.INTRA.SOLV.lig_0>
-17.1313

>  <SCORE.INTRA.VDW>
-3.9547

>  <SCORE.INTRA.VDW.0>
6.34071

>  <SCORE.INTRA.norm>
-0.170604

>  <SCORE.RESTR>
1.77421

>  <SCORE.RESTR.CAVITY>
1.77421

>  <SCORE.RESTR.norm>
0.0844864

>  <SCORE.SYSTEM>
0

>  <SCORE.SYSTEM.CONST>
0

>  <SCORE.SYSTEM.DIHEDRAL>
0

>  <SCORE.SYSTEM.SOLV>
0

>  <SCORE.SYSTEM.norm>
0

>  <SCORE.heavy>
21

>  <SCORE.norm>
-0.686177

>  <RMSD>
12.466

$$$$
lig.pdb
 OpenBabel11021811453D
libRbt.so/2013.1/901 2013/11/27
 21 23  0  0  0  0  0  0  0  0999 V2000
   -0.8257    7.1291    0.3615 C   0  0  0  0  0  0  0  0  0  0  0  0
   -1.7782    7.7507    1.0475 N   0  0  0  0  0  0  0  0  0  0  0  0
   -2.4139    8.7777    0.5127 C   0  0  0  0  0  0  0  0  0  0  0  0
   -2.0475    9.2366   -0.7011 C   0  0  0  0  0  0  0  0  0  0  0  0
   -1.0888    8.6048   -1.3916 C   0  0  0  0  0  0  0  0  0  0  0  0
   -0.7168    9.0545   -2.5894 N   0  0  0  0  0  0  0  0  0  0  0  0
   -0.4790    7.5531   -0.8546 N   0  0  0  0  0  0  0  0  0  0  0  0
   -3.3921    9.3862    1.2037 C   0  0  0  0  0  0  0  0  0  0  0  0
   -3.9207   10.5529    0.7223 C   0  0  0  0  0  0  0  0  0  0  0  0
   -4.2163   11.5756    1.6550 O   0  0  0  0  0  0  0  0  0  0  0  0
   -3.6852   10.8801   -0.5590 C   0  0  0  0  0  0  0  0  0  0  0  0
   -4.5533   11.7859   -1.2254 O   0  0  0  0  0  0  0  0  0  0  0  0
   -2.6781   10.2924   -1.2343 C   0  0  0  0  0  0  0  0  0  0  0  0
   -0.2073    6.0924    0.9001 N   0  0  0  0  0  0  0  0  0  0  0  0
   -0.9855    5.1554    1.4502 C   0  0  0  0  0  0  0  0  0  0  0  0
   -1.4464    5.6036    2.8289 C   0  0  0  0  0  0  0  0  0  0  0  0
   -0.3502    5.7939    3.6445 N   0  0  0  0  0  0  0  0  0  0  0  0
    0.4117    6.7913    3.0760 C   0  0  0  0  0  0  0  0  0  0  0  0
    0.8775    6.3446    1.7003 C   0  0  0  0  0  0  0  0  0  0  0  0
   -5.6122   11.6493    1.7935 C   0  0  0  0  0  0  0  0  0  0  0  0
   -4.2822   13.0862   -0.7716 C   0  0  0  0  0  0  0  0  0  0  0  0
  1 14  1  0  0  0  0
  1  2  2  0  0  0  0
  3  2  1  0  0  0  0
  3  8  2  0  0  0  0
  4  3  1  0  0  0  0
  5  7  2  0  0  0  0
  5  4  1  0  0  0  0
  6  5  1  0  0  0  0
  7  1  1  0  0  0  0
  9 10  1  0  0  0  0
  9  8  1  0  0  0  0
 11  9  2  0  0  0  0
 12 11  1  0  0  0  0
 13  4  2  0  0  0  0
 13 11  1  0  0  0  0
 14 15  1  0  0  0  0
 16 15  1  0  0  0  0
 17 16  1  0  0  0  0
 18 17  1  0  0  0  0
 18 19  1  0  0  0  0
 19 14  1  0  0  0  0
 20 10  1  0  0  0  0
 21 12  1  0  0  0  0
M  END
>  <CHROM.1>
48.04553913,-107.24737000,75.36010617,-2.08258393,8.74786737,0.56743180,-0.65021626
0.79489613,-1.10880660

>  <Name>
lig.pdb

>  <RI>
1.05666e+07

>  <Rbt.Current_Directory>
/home/itssahil/PROJECTS/Mol_Feturizer/New_Systems/rnas/2lwk

>  <Rbt.Executable>
rbdock ($Id: //depot/dev/client3/rdock/2013.1/src/exe/rbdock.cxx#4 $)

>  <Rbt.Library>
libRbt.so (2013.1, Build901 2013/11/27)

>  <Rbt.Parameter_File>
/export/apps/rDock/src/rDock_2013.1_src/data/scripts/dock_solv.prm

>  <Rbt.Receptor>
prm/blind_docking_80.prm

>  <SCORE>
-14.3839

>  <SCORE.INTER>
-12.454

>  <SCORE.INTER.CONST>
1

>  <SCORE.INTER.POLAR>
-1.29487

>  <SCORE.INTER.ROT>
3

>  <SCORE.INTER.SOLV>
13.1249

>  <SCORE.INTER.VDW>
-13.9614

>  <SCORE.INTER.norm>
-0.593048

>  <SCORE.INTRA>
-3.69909

>  <SCORE.INTRA.DIHEDRAL>
0.600688

>  <SCORE.INTRA.DIHEDRAL.0>
8.84257

>  <SCORE.INTRA.POLAR>
0

>  <SCORE.INTRA.POLAR.0>
0

>  <SCORE.INTRA.REPUL>
0

>  <SCORE.INTRA.REPUL.0>
0

>  <SCORE.INTRA.SOLV>
0.163059

>  <SCORE.INTRA.SOLV.lig_0>
-17.1313

>  <SCORE.INTRA.VDW>
-4.08097

>  <SCORE.INTRA.VDW.0>
6.34071

>  <SCORE.INTRA.norm>
-0.176147

>  <SCORE.RESTR>
1.76925

>  <SCORE.RESTR.CAVITY>
1.76925

>  <SCORE.RESTR.norm>
0.0842502

>  <SCORE.SYSTEM>
0

>  <SCORE.SYSTEM.CONST>
0

>  <SCORE.SYSTEM.DIHEDRAL>
0

>  <SCORE.SYSTEM.SOLV>
0

>  <SCORE.SYSTEM.norm>
0

>  <SCORE.heavy>
21

>  <SCORE.norm>
-0.684945

>  <RMSD>
12.469

$$$$
lig.pdb
 OpenBabel11021811453D
libRbt.so/2013.1/901 2013/11/27
 21 23  0  0  0  0  0  0  0  0999 V2000
   -0.8242    7.1208    0.3563 C   0  0  0  0  0  0  0  0  0  0  0  0
   -1.7744    7.7415    1.0464 N   0  0  0  0  0  0  0  0  0  0  0  0
   -2.4048    8.7756    0.5190 C   0  0  0  0  0  0  0  0  0  0  0  0
   -2.0349    9.2423   -0.6907 C   0  0  0  0  0  0  0  0  0  0  0  0
   -1.0787    8.6114   -1.3853 C   0  0  0  0  0  0  0  0  0  0  0  0
   -0.7033    9.0687   -2.5792 N   0  0  0  0  0  0  0  0  0  0  0  0
   -0.4744    7.5526   -0.8560 N   0  0  0  0  0  0  0  0  0  0  0  0
   -3.3807    9.3834    1.2139 C   0  0  0  0  0  0  0  0  0  0  0  0
   -3.9032   10.5563    0.7412 C   0  0  0  0  0  0  0  0  0  0  0  0
   -4.1949   11.5730    1.6817 O   0  0  0  0  0  0  0  0  0  0  0  0
   -3.6649   10.8925   -0.5372 C   0  0  0  0  0  0  0  0  0  0  0  0
   -4.5281   11.8076   -1.1972 O   0  0  0  0  0  0  0  0  0  0  0  0
   -2.6600   10.3053   -1.2162 C   0  0  0  0  0  0  0  0  0  0  0  0
   -0.2113    6.0769    0.8873 N   0  0  0  0  0  0  0  0  0  0  0  0
   -0.9940    5.1448    1.4394 C   0  0  0  0  0  0  0  0  0  0  0  0
   -1.4418    5.5921    2.8226 C   0  0  0  0  0  0  0  0  0  0  0  0
   -0.3386    5.7702    3.6316 N   0  0  0  0  0  0  0  0  0  0  0  0
    0.4280    6.7629    3.0614 C   0  0  0  0  0  0  0  0  0  0  0  0
    0.8809    6.3169    1.6812 C   0  0  0  0  0  0  0  0  0  0  0  0
   -5.5899   11.6423    1.8305 C   0  0  0  0  0  0  0  0  0  0  0  0
   -4.2639   13.1008   -0.7196 C   0  0  0  0  0  0  0  0  0  0  0  0
  1 14  1  0  0  0  0
  1  2  2  0  0  0  0
  3  2  1  0  0  0  0
  3  8  2  0  0  0  0
  4  3  1  0  0  0  0
  5  7  2  0  0  0  0
  5  4  1  0  0  0  0
  6  5  1  0  0  0  0
  7  1  1  0  0  0  0
  9 10  1  0  0  0  0
  9  8  1  0  0  0  0
 11  9  2  0  0  0  0
 12 11  1  0  0  0  0
 13  4  2  0  0  0  0
 13 11  1  0  0  0  0
 14 15  1  0  0  0  0
 16 15  1  0  0  0  0
 17 16  1  0  0  0  0
 18 17  1  0  0  0  0
 18 19  1  0  0  0  0
 19 14  1  0  0  0  0
 20 10  1  0  0  0  0
 21 12  1  0  0  0  0
M  END
>  <CHROM.1>
47.49479205,-106.60978969,74.56174639,-2.07129363,8.74506096,0.57547813,-0.65099217
0.79815888,-1.10099042

>  <Name>
lig.pdb

>  <RI>
1.05666e+07

>  <Rbt.Current_Directory>
/home/itssahil/PROJECTS/Mol_Feturizer/New_Systems/rnas/2lwk

>  <Rbt.Executable>
rbdock ($Id: //depot/dev/client3/rdock/2013.1/src/exe/rbdock.cxx#4 $)

>  <Rbt.Library>
libRbt.so (2013.1, Build901 2013/11/27)

>  <Rbt.Parameter_File>
/export/apps/rDock/src/rDock_2013.1_src/data/scripts/dock_solv.prm

>  <Rbt.Receptor>
prm/blind_docking_80.prm

>  <SCORE>
-14.0867

>  <SCORE.INTER>
-12.1739

>  <SCORE.INTER.CONST>
1

>  <SCORE.INTER.POLAR>
-1.2805

>  <SCORE.INTER.ROT>
3

>  <SCORE.INTER.SOLV>
13.1944

>  <SCORE.INTER.VDW>
-13.8457

>  <SCORE.INTER.norm>
-0.579708

>  <SCORE.INTRA>
-3.61093

>  <SCORE.INTRA.DIHEDRAL>
0.571476

>  <SCORE.INTRA.DIHEDRAL.0>
8.84257

>  <SCORE.INTRA.POLAR>
0

>  <SCORE.INTRA.POLAR.0>
0

>  <SCORE.INTRA.REPUL>
0

>  <SCORE.INTRA.REPUL.0>
0

>  <SCORE.INTRA.SOLV>
0.162715

>  <SCORE.INTRA.SOLV.lig_0>
-17.1313

>  <SCORE.INTRA.VDW>
-3.97803

>  <SCORE.INTRA.VDW.0>
6.34071

>  <SCORE.INTRA.norm>
-0.171949

>  <SCORE.RESTR>
1.69808

>  <SCORE.RESTR.CAVITY>
1.69808

>  <SCORE.RESTR.norm>
0.0808611

>  <SCORE.SYSTEM>
0

>  <SCORE.SYSTEM.CONST>
0

>  <SCORE.SYSTEM.DIHEDRAL>
0

>  <SCORE.SYSTEM.SOLV>
0

>  <SCORE.SYSTEM.norm>
0

>  <SCORE.heavy>
21

>  <SCORE.norm>
-0.670796

>  <RMSD>
12.474

$$$$
lig.pdb
 OpenBabel11021811453D
libRbt.so/2013.1/901 2013/11/27
 21 23  0  0  0  0  0  0  0  0999 V2000
   -0.8295    7.1167    0.3584 C   0  0  0  0  0  0  0  0  0  0  0  0
   -1.7713    7.7447    1.0534 N   0  0  0  0  0  0  0  0  0  0  0  0
   -2.4013    8.7793    0.5267 C   0  0  0  0  0  0  0  0  0  0  0  0
   -2.0393    9.2391   -0.6881 C   0  0  0  0  0  0  0  0  0  0  0  0
   -1.0915    8.6008   -1.3876 C   0  0  0  0  0  0  0  0  0  0  0  0
   -0.7238    9.0512   -2.5866 N   0  0  0  0  0  0  0  0  0  0  0  0
   -0.4877    7.5417   -0.8586 N   0  0  0  0  0  0  0  0  0  0  0  0
   -3.3688    9.3945    1.2268 C   0  0  0  0  0  0  0  0  0  0  0  0
   -3.8899   10.5677    0.7532 C   0  0  0  0  0  0  0  0  0  0  0  0
   -4.1693   11.5898    1.6915 O   0  0  0  0  0  0  0  0  0  0  0  0
   -3.6605   10.8972   -0.5286 C   0  0  0  0  0  0  0  0  0  0  0  0
   -4.5250   11.8133   -1.1856 O   0  0  0  0  0  0  0  0  0  0  0  0
   -2.6638   10.3025   -1.2131 C   0  0  0  0  0  0  0  0  0  0  0  0
   -0.2170    6.0723    0.8890 N   0  0  0  0  0  0  0  0  0  0  0  0
   -0.9996    5.1436    1.4468 C   0  0  0  0  0  0  0  0  0  0  0  0
   -1.4399    5.5953    2.8310 C   0  0  0  0  0  0  0  0  0  0  0  0
   -0.3327    5.7722    3.6345 N   0  0  0  0  0  0  0  0  0  0  0  0
    0.4340    6.7616    3.0586 C   0  0  0  0  0  0  0  0  0  0  0  0
    0.8795    6.3113    1.6773 C   0  0  0  0  0  0  0  0  0  0  0  0
   -5.5644   11.7179    1.7944 C   0  0  0  0  0  0  0  0  0  0  0  0
   -4.2428   13.1088   -0.7247 C   0  0  0  0  0  0  0  0  0  0  0  0
  1 14  1  0  0  0  0
  1  2  2  0  0  0  0
  3  2  1  0  0  0  0
  3  8  2  0  0  0  0
  4  3  1  0  0  0  0
  5  7  2  0  0  0  0
  5  4  1  0  0  0  0
  6  5  1  0  0  0  0
  7  1  1  0  0  0  0
  9 10  1  0  0  0  0
  9  8  1  0  0  0  0
 11  9  2  0  0  0  0
 12 11  1  0  0  0  0
 13  4  2  0  0  0  0
 13 11  1  0  0  0  0
 14 15  1  0  0  0  0
 16 15  1  0  0  0  0
 17 16  1  0  0  0  0
 18 17  1  0  0  0  0
 18 19  1  0  0  0  0
 19 14  1  0  0  0  0
 20 10  1  0  0  0  0
 21 12  1  0  0  0  0
M  END
>  <CHROM.1>
47.75612388,-109.91610117,75.08993360,-2.06855561,8.74937105,0.57698954,-0.64470047
0.80697271,-1.11044814

>  <Name>
lig.pdb

>  <RI>
1.99026e+07

>  <Rbt.Current_Directory>
/home/itssahil/PROJECTS/Mol_Feturizer/New_Systems/rnas/2lwk

>  <Rbt.Executable>
rbdock ($Id: //depot/dev/client3/rdock/2013.1/src/exe/rbdock.cxx#4 $)

>  <Rbt.Library>
libRbt.so (2013.1, Build901 2013/11/27)

>  <Rbt.Parameter_File>
/export/apps/rDock/src/rDock_2013.1_src/data/scripts/dock_solv.prm

>  <Rbt.Receptor>
prm/blind_docking_60.prm

>  <SCORE>
-14.0948

>  <SCORE.INTER>
-12.3583

>  <SCORE.INTER.CONST>
1

>  <SCORE.INTER.POLAR>
-1.29171

>  <SCORE.INTER.ROT>
3

>  <SCORE.INTER.SOLV>
13.1801

>  <SCORE.INTER.VDW>
-13.9265

>  <SCORE.INTER.norm>
-0.588491

>  <SCORE.INTRA>
-3.38894

>  <SCORE.INTRA.DIHEDRAL>
0.543454

>  <SCORE.INTRA.DIHEDRAL.0>
8.84257

>  <SCORE.INTRA.POLAR>
0

>  <SCORE.INTRA.POLAR.0>
0

>  <SCORE.INTRA.REPUL>
0

>  <SCORE.INTRA.REPUL.0>
0

>  <SCORE.INTRA.SOLV>
0.165616

>  <SCORE.INTRA.SOLV.lig_0>
-17.1313

>  <SCORE.INTRA.VDW>
-3.74348

>  <SCORE.INTRA.VDW.0>
6.34071

>  <SCORE.INTRA.norm>
-0.161378

>  <SCORE.RESTR>
1.65242

>  <SCORE.RESTR.CAVITY>
1.65242

>  <SCORE.RESTR.norm>
0.0786867

>  <SCORE.SYSTEM>
0

>  <SCORE.SYSTEM.CONST>
0

>  <SCORE.SYSTEM.DIHEDRAL>
0

>  <SCORE.SYSTEM.SOLV>
0

>  <SCORE.SYSTEM.norm>
0

>  <SCORE.heavy>
21

>  <SCORE.norm>
-0.671182

>  <RMSD>
12.479

$$$$
lig.pdb
 OpenBabel11021811453D
libRbt.so/2013.1/901 2013/11/27
 21 23  0  0  0  0  0  0  0  0999 V2000
   -3.2298   10.6867   -0.5631 C   0  0  0  0  0  0  0  0  0  0  0  0
   -3.0785   10.1228    0.6300 N   0  0  0  0  0  0  0  0  0  0  0  0
   -2.1268    9.2268    0.8208 C   0  0  0  0  0  0  0  0  0  0  0  0
   -1.3555    8.8352   -0.2135 C   0  0  0  0  0  0  0  0  0  0  0  0
   -1.5086    9.4089   -1.4145 C   0  0  0  0  0  0  0  0  0  0  0  0
   -0.7543    9.0245   -2.4435 N   0  0  0  0  0  0  0  0  0  0  0  0
   -2.4492   10.3323   -1.5848 N   0  0  0  0  0  0  0  0  0  0  0  0
   -1.9652    8.6783    2.0364 C   0  0  0  0  0  0  0  0  0  0  0  0
   -1.1018    7.6269    2.1830 C   0  0  0  0  0  0  0  0  0  0  0  0
   -1.4928    6.5686    3.0375 O   0  0  0  0  0  0  0  0  0  0  0  0
   -0.2155    7.3868    1.2027 C   0  0  0  0  0  0  0  0  0  0  0  0
    0.9650    6.6490    1.4862 O   0  0  0  0  0  0  0  0  0  0  0  0
   -0.4043    7.9099   -0.0246 C   0  0  0  0  0  0  0  0  0  0  0  0
   -4.1748   11.5942   -0.7385 N   0  0  0  0  0  0  0  0  0  0  0  0
   -3.9755   12.7808   -0.1568 C   0  0  0  0  0  0  0  0  0  0  0  0
   -4.3194   12.7009    1.3228 C   0  0  0  0  0  0  0  0  0  0  0  0
   -5.6478   12.3598    1.4719 N   0  0  0  0  0  0  0  0  0  0  0  0
   -5.8154   11.1172    0.9009 C   0  0  0  0  0  0  0  0  0  0  0  0
   -5.4771   11.1949   -0.5785 C   0  0  0  0  0  0  0  0  0  0  0  0
   -2.5993    5.9261    2.4579 C   0  0  0  0  0  0  0  0  0  0  0  0
    0.6854    5.2805    1.3468 C   0  0  0  0  0  0  0  0  0  0  0  0
  1 14  1  0  0  0  0
  1  2  2  0  0  0  0
  3  2  1  0  0  0  0
  3  8  2  0  0  0  0
  4  3  1  0  0  0  0
  5  7  2  0  0  0  0
  5  4  1  0  0  0  0
  6  5  1  0  0  0  0
  7  1  1  0  0  0  0
  9 10  1  0  0  0  0
  9  8  1  0  0  0  0
 11  9  2  0  0  0  0
 12 11  1  0  0  0  0
 13  4  2  0  0  0  0
 13 11  1  0  0  0  0
 14 15  1  0  0  0  0
 16 15  1  0  0  0  0
 17 16  1  0  0  0  0
 18 17  1  0  0  0  0
 18 19  1  0  0  0  0
 19 14  1  0  0  0  0
 20 10  1  0  0  0  0
 21 12  1  0  0  0  0
M  END
>  <CHROM.1>
71.29321082,66.61146291,86.95115680,-2.38576716,9.27801477,0.54997112,-2.52157701
-0.68615621,2.17502329

>  <Name>
lig.pdb

>  <RI>
1.99026e+07

>  <Rbt.Current_Directory>
/home/itssahil/PROJECTS/Mol_Feturizer/New_Systems/rnas/2lwk

>  <Rbt.Executable>
rbdock ($Id: //depot/dev/client3/rdock/2013.1/src/exe/rbdock.cxx#4 $)

>  <Rbt.Library>
libRbt.so (2013.1, Build901 2013/11/27)

>  <Rbt.Parameter_File>
/export/apps/rDock/src/rDock_2013.1_src/data/scripts/dock_solv.prm

>  <Rbt.Receptor>
prm/blind_docking_60.prm

>  <SCORE>
-14.1857

>  <SCORE.INTER>
-13.2721

>  <SCORE.INTER.CONST>
1

>  <SCORE.INTER.POLAR>
-0.565105

>  <SCORE.INTER.ROT>
3

>  <SCORE.INTER.SOLV>
11.6238

>  <SCORE.INTER.VDW>
-16.439

>  <SCORE.INTER.norm>
-0.632006

>  <SCORE.INTRA>
-3.48709

>  <SCORE.INTRA.DIHEDRAL>
0.814286

>  <SCORE.INTRA.DIHEDRAL.0>
8.84257

>  <SCORE.INTRA.POLAR>
0

>  <SCORE.INTRA.POLAR.0>
0

>  <SCORE.INTRA.REPUL>
0

>  <SCORE.INTRA.REPUL.0>
0

>  <SCORE.INTRA.SOLV>
0.118548

>  <SCORE.INTRA.SOLV.lig_0>
-17.1313

>  <SCORE.INTRA.VDW>
-3.9535

>  <SCORE.INTRA.VDW.0>
6.34071

>  <SCORE.INTRA.norm>
-0.166052

>  <SCORE.RESTR>
2.57347

>  <SCORE.RESTR.CAVITY>
2.57347

>  <SCORE.RESTR.norm>
0.122546

>  <SCORE.SYSTEM>
0

>  <SCORE.SYSTEM.CONST>
0

>  <SCORE.SYSTEM.DIHEDRAL>
0

>  <SCORE.SYSTEM.SOLV>
0

>  <SCORE.SYSTEM.norm>
0

>  <SCORE.heavy>
21

>  <SCORE.norm>
-0.675512

>  <RMSD>
12.484

$$$$
lig.pdb
 OpenBabel11021811453D
libRbt.so/2013.1/901 2013/11/27
 21 23  0  0  0  0  0  0  0  0999 V2000
   -0.8302    7.1432    0.3602 C   0  0  0  0  0  0  0  0  0  0  0  0
   -1.7732    7.7715    1.0532 N   0  0  0  0  0  0  0  0  0  0  0  0
   -2.4045    8.8039    0.5236 C   0  0  0  0  0  0  0  0  0  0  0  0
   -2.0426    9.2612   -0.6921 C   0  0  0  0  0  0  0  0  0  0  0  0
   -1.0935    8.6227   -1.3896 C   0  0  0  0  0  0  0  0  0  0  0  0
   -0.7259    9.0707   -2.5894 N   0  0  0  0  0  0  0  0  0  0  0  0
   -0.4884    7.5657   -0.8577 N   0  0  0  0  0  0  0  0  0  0  0  0
   -3.3733    9.4193    1.2217 C   0  0  0  0  0  0  0  0  0  0  0  0
   -3.8959   10.5906    0.7450 C   0  0  0  0  0  0  0  0  0  0  0  0
   -4.1774   11.6146    1.6807 O   0  0  0  0  0  0  0  0  0  0  0  0
   -3.6664   10.9173   -0.5375 C   0  0  0  0  0  0  0  0  0  0  0  0
   -4.5319   11.8305   -1.1971 O   0  0  0  0  0  0  0  0  0  0  0  0
   -2.6685   10.3224   -1.2200 C   0  0  0  0  0  0  0  0  0  0  0  0
   -0.2164    6.1011    0.8936 N   0  0  0  0  0  0  0  0  0  0  0  0
   -0.9985    5.1659    1.4412 C   0  0  0  0  0  0  0  0  0  0  0  0
   -1.4549    5.6108    2.8224 C   0  0  0  0  0  0  0  0  0  0  0  0
   -0.3565    5.7922    3.6371 N   0  0  0  0  0  0  0  0  0  0  0  0
    0.4095    6.7880    3.0714 C   0  0  0  0  0  0  0  0  0  0  0  0
    0.8710    6.3444    1.6932 C   0  0  0  0  0  0  0  0  0  0  0  0
   -5.5727   11.7307    1.7935 C   0  0  0  0  0  0  0  0  0  0  0  0
   -4.2591   13.1263   -0.7316 C   0  0  0  0  0  0  0  0  0  0  0  0
  1 14  1  0  0  0  0
  1  2  2  0  0  0  0
  3  2  1  0  0  0  0
  3  8  2  0  0  0  0
  4  3  1  0  0  0  0
  5  7  2  0  0  0  0
  5  4  1  0  0  0  0
  6  5  1  0  0  0  0
  7  1  1  0  0  0  0
  9 10  1  0  0  0  0
  9  8  1  0  0  0  0
 11  9  2  0  0  0  0
 12 11  1  0  0  0  0
 13  4  2  0  0  0  0
 13 11  1  0  0  0  0
 14 15  1  0  0  0  0
 16 15  1  0  0  0  0
 17 16  1  0  0  0  0
 18 17  1  0  0  0  0
 18 19  1  0  0  0  0
 19 14  1  0  0  0  0
 20 10  1  0  0  0  0
 21 12  1  0  0  0  0
M  END
>  <CHROM.1>
48.41818195,-109.27905287,74.63146844,-2.07567095,8.77169521,0.57474019,-0.64694744
0.80579820,-1.10975205

>  <Name>
lig.pdb

>  <RI>
1.99026e+07

>  <Rbt.Current_Directory>
/home/itssahil/PROJECTS/Mol_Feturizer/New_Systems/rnas/2lwk

>  <Rbt.Executable>
rbdock ($Id: //depot/dev/client3/rdock/2013.1/src/exe/rbdock.cxx#4 $)

>  <Rbt.Library>
libRbt.so (2013.1, Build901 2013/11/27)

>  <Rbt.Parameter_File>
/export/apps/rDock/src/rDock_2013.1_src/data/scripts/dock_solv.prm

>  <Rbt.Receptor>
prm/blind_docking_60.prm

>  <SCORE>
-14.1704

>  <SCORE.INTER>
-12.4351

>  <SCORE.INTER.CONST>
1

>  <SCORE.INTER.POLAR>
-1.29203

>  <SCORE.INTER.ROT>
3

>  <SCORE.INTER.SOLV>
13.152

>  <SCORE.INTER.VDW>
-13.9673

>  <SCORE.INTER.norm>
-0.59215

>  <SCORE.INTRA>
-3.40201

>  <SCORE.INTRA.DIHEDRAL>
0.534113

>  <SCORE.INTRA.DIHEDRAL.0>
8.84257

>  <SCORE.INTRA.POLAR>
0

>  <SCORE.INTRA.POLAR.0>
0

>  <SCORE.INTRA.REPUL>
0

>  <SCORE.INTRA.REPUL.0>
0

>  <SCORE.INTRA.SOLV>
0.165831

>  <SCORE.INTRA.SOLV.lig_0>
-17.1313

>  <SCORE.INTRA.VDW>
-3.75198

>  <SCORE.INTRA.VDW.0>
6.34071

>  <SCORE.INTRA.norm>
-0.162001

>  <SCORE.RESTR>
1.66675

>  <SCORE.RESTR.CAVITY>
1.66675

>  <SCORE.RESTR.norm>
0.079369

>  <SCORE.SYSTEM>
0

>  <SCORE.SYSTEM.CONST>
0

>  <SCORE.SYSTEM.DIHEDRAL>
0

>  <SCORE.SYSTEM.SOLV>
0

>  <SCORE.SYSTEM.norm>
0

>  <SCORE.heavy>
21

>  <SCORE.norm>
-0.674781

>  <RMSD>
12.493

$$$$
lig.pdb
 OpenBabel11021811453D
libRbt.so/2013.1/901 2013/11/27
 21 23  0  0  0  0  0  0  0  0999 V2000
   -3.2827   10.7296   -0.5560 C   0  0  0  0  0  0  0  0  0  0  0  0
   -3.1257   10.1574    0.6323 N   0  0  0  0  0  0  0  0  0  0  0  0
   -2.1711    9.2625    0.8133 C   0  0  0  0  0  0  0  0  0  0  0  0
   -1.4023    8.8806   -0.2265 C   0  0  0  0  0  0  0  0  0  0  0  0
   -1.5611    9.4626   -1.4227 C   0  0  0  0  0  0  0  0  0  0  0  0
   -0.8093    9.0878   -2.4570 N   0  0  0  0  0  0  0  0  0  0  0  0
   -2.5047   10.3847   -1.5829 N   0  0  0  0  0  0  0  0  0  0  0  0
   -2.0038    8.7055    2.0243 C   0  0  0  0  0  0  0  0  0  0  0  0
   -1.1372    7.6554    2.1602 C   0  0  0  0  0  0  0  0  0  0  0  0
   -1.5224    6.5898    3.0083 O   0  0  0  0  0  0  0  0  0  0  0  0
   -0.2536    7.4248    1.1752 C   0  0  0  0  0  0  0  0  0  0  0  0
    0.9298    6.6881    1.4491 O   0  0  0  0  0  0  0  0  0  0  0  0
   -0.4480    7.9564   -0.0476 C   0  0  0  0  0  0  0  0  0  0  0  0
   -4.2306   11.6358   -0.7215 N   0  0  0  0  0  0  0  0  0  0  0  0
   -4.0391   12.8139   -0.1201 C   0  0  0  0  0  0  0  0  0  0  0  0
   -4.3897   12.7089    1.3564 C   0  0  0  0  0  0  0  0  0  0  0  0
   -5.7173   12.3601    1.4937 N   0  0  0  0  0  0  0  0  0  0  0  0
   -5.8769   11.1260    0.9022 C   0  0  0  0  0  0  0  0  0  0  0  0
   -5.5320   11.2287   -0.5742 C   0  0  0  0  0  0  0  0  0  0  0  0
   -2.6225    5.9419    2.4224 C   0  0  0  0  0  0  0  0  0  0  0  0
    0.6436    5.3184    1.3383 C   0  0  0  0  0  0  0  0  0  0  0  0
  1 14  1  0  0  0  0
  1  2  2  0  0  0  0
  3  2  1  0  0  0  0
  3  8  2  0  0  0  0
  4  3  1  0  0  0  0
  5  7  2  0  0  0  0
  5  4  1  0  0  0  0
  6  5  1  0  0  0  0
  7  1  1  0  0  0  0
  9 10  1  0  0  0  0
  9  8  1  0  0  0  0
 11  9  2  0  0  0  0
 12 11  1  0  0  0  0
 13  4  2  0  0  0  0
 13 11  1  0  0  0  0
 14 15  1  0  0  0  0
 16 15  1  0  0  0  0
 17 16  1  0  0  0  0
 18 17  1  0  0  0  0
 18 19  1  0  0  0  0
 19 14  1  0  0  0  0
 20 10  1  0  0  0  0
 21 12  1  0  0  0  0
M  END
>  <CHROM.1>
70.60738529,67.07998894,85.27464440,-2.43411017,9.31140941,0.54455519,-2.52607935
-0.68313009,2.17893199

>  <Name>
lig.pdb

>  <RI>
1.99026e+07

>  <Rbt.Current_Directory>
/home/itssahil/PROJECTS/Mol_Feturizer/New_Systems/rnas/2lwk

>  <Rbt.Executable>
rbdock ($Id: //depot/dev/client3/rdock/2013.1/src/exe/rbdock.cxx#4 $)

>  <Rbt.Library>
libRbt.so (2013.1, Build901 2013/11/27)

>  <Rbt.Parameter_File>
/export/apps/rDock/src/rDock_2013.1_src/data/scripts/dock_solv.prm

>  <Rbt.Receptor>
prm/blind_docking_60.prm

>  <SCORE>
-14.4361

>  <SCORE.INTER>
-13.6323

>  <SCORE.INTER.CONST>
1

>  <SCORE.INTER.POLAR>
-0.566025

>  <SCORE.INTER.ROT>
3

>  <SCORE.INTER.SOLV>
11.4273

>  <SCORE.INTER.VDW>
-16.6106

>  <SCORE.INTER.norm>
-0.649159

>  <SCORE.INTRA>
-3.45182

>  <SCORE.INTRA.DIHEDRAL>
0.799527

>  <SCORE.INTRA.DIHEDRAL.0>
8.84257

>  <SCORE.INTRA.POLAR>
0

>  <SCORE.INTRA.POLAR.0>
0

>  <SCORE.INTRA.REPUL>
0

>  <SCORE.INTRA.REPUL.0>
0

>  <SCORE.INTRA.SOLV>
0.120121

>  <SCORE.INTRA.SOLV.lig_0>
-17.1313

>  <SCORE.INTRA.VDW>
-3.91164

>  <SCORE.INTRA.VDW.0>
6.34071

>  <SCORE.INTRA.norm>
-0.164372

>  <SCORE.RESTR>
2.64809

>  <SCORE.RESTR.CAVITY>
2.64809

>  <SCORE.RESTR.norm>
0.126099

>  <SCORE.SYSTEM>
0

>  <SCORE.SYSTEM.CONST>
0

>  <SCORE.SYSTEM.DIHEDRAL>
0

>  <SCORE.SYSTEM.SOLV>
0

>  <SCORE.SYSTEM.norm>
0

>  <SCORE.heavy>
21

>  <SCORE.norm>
-0.687432

>  <RMSD>
12.494

$$$$
lig.pdb
 OpenBabel11021811453D
libRbt.so/2013.1/901 2013/11/27
 21 23  0  0  0  0  0  0  0  0999 V2000
   -0.8266    7.1600    0.3536 C   0  0  0  0  0  0  0  0  0  0  0  0
   -1.7709    7.7890    1.0443 N   0  0  0  0  0  0  0  0  0  0  0  0
   -2.3996    8.8224    0.5135 C   0  0  0  0  0  0  0  0  0  0  0  0
   -2.0338    9.2799   -0.7011 C   0  0  0  0  0  0  0  0  0  0  0  0
   -1.0836    8.6406   -1.3962 C   0  0  0  0  0  0  0  0  0  0  0  0
   -0.7123    9.0888   -2.5949 N   0  0  0  0  0  0  0  0  0  0  0  0
   -0.4811    7.5827   -0.8633 N   0  0  0  0  0  0  0  0  0  0  0  0
   -3.3696    9.4386    1.2093 C   0  0  0  0  0  0  0  0  0  0  0  0
   -3.8896   10.6106    0.7317 C   0  0  0  0  0  0  0  0  0  0  0  0
   -4.1725   11.6345    1.6671 O   0  0  0  0  0  0  0  0  0  0  0  0
   -3.6563   10.9377   -0.5500 C   0  0  0  0  0  0  0  0  0  0  0  0
   -4.5190   11.8521   -1.2116 O   0  0  0  0  0  0  0  0  0  0  0  0
   -2.6572   10.3420   -1.2302 C   0  0  0  0  0  0  0  0  0  0  0  0
   -0.2154    6.1170    0.8881 N   0  0  0  0  0  0  0  0  0  0  0  0
   -0.9999    5.1847    1.4374 C   0  0  0  0  0  0  0  0  0  0  0  0
   -1.4544    5.6328    2.8182 C   0  0  0  0  0  0  0  0  0  0  0  0
   -0.3551    5.8124    3.6321 N   0  0  0  0  0  0  0  0  0  0  0  0
    0.4134    6.8053    3.0647 C   0  0  0  0  0  0  0  0  0  0  0  0
    0.8730    6.3585    1.6869 C   0  0  0  0  0  0  0  0  0  0  0  0
   -5.5672   11.7227    1.8086 C   0  0  0  0  0  0  0  0  0  0  0  0
   -4.2678   13.1434   -0.7218 C   0  0  0  0  0  0  0  0  0  0  0  0
  1 14  1  0  0  0  0
  1  2  2  0  0  0  0
  3  2  1  0  0  0  0
  3  8  2  0  0  0  0
  4  3  1  0  0  0  0
  5  7  2  0  0  0  0
  5  4  1  0  0  0  0
  6  5  1  0  0  0  0
  7  1  1  0  0  0  0
  9 10  1  0  0  0  0
  9  8  1  0  0  0  0
 11  9  2  0  0  0  0
 12 11  1  0  0  0  0
 13  4  2  0  0  0  0
 13 11  1  0  0  0  0
 14 15  1  0  0  0  0
 16 15  1  0  0  0  0
 17 16  1  0  0  0  0
 18 17  1  0  0  0  0
 18 19  1  0  0  0  0
 19 14  1  0  0  0  0
 20 10  1  0  0  0  0
 21 12  1  0  0  0  0
M  END
>  <CHROM.1>
48.18831946,-107.40028378,73.25498495,-2.07077440,8.78887648,0.56848466,-0.64855273
0.80492595,-1.10765558

>  <Name>
lig.pdb

>  <RI>
1.99026e+07

>  <Rbt.Current_Directory>
/home/itssahil/PROJECTS/Mol_Feturizer/New_Systems/rnas/2lwk

>  <Rbt.Executable>
rbdock ($Id: //depot/dev/client3/rdock/2013.1/src/exe/rbdock.cxx#4 $)

>  <Rbt.Library>
libRbt.so (2013.1, Build901 2013/11/27)

>  <Rbt.Parameter_File>
/export/apps/rDock/src/rDock_2013.1_src/data/scripts/dock_solv.prm

>  <Rbt.Receptor>
prm/blind_docking_60.prm

>  <SCORE>
-14.0217

>  <SCORE.INTER>
-12.3252

>  <SCORE.INTER.CONST>
1

>  <SCORE.INTER.POLAR>
-1.29263

>  <SCORE.INTER.ROT>
3

>  <SCORE.INTER.SOLV>
13.2301

>  <SCORE.INTER.VDW>
-13.9181

>  <SCORE.INTER.norm>
-0.586914

>  <SCORE.INTRA>
-3.32743

>  <SCORE.INTRA.DIHEDRAL>
0.496885

>  <SCORE.INTRA.DIHEDRAL.0>
8.84257

>  <SCORE.INTRA.POLAR>
0

>  <SCORE.INTRA.POLAR.0>
0

>  <SCORE.INTRA.REPUL>
0

>  <SCORE.INTRA.REPUL.0>
0

>  <SCORE.INTRA.SOLV>
0.164995

>  <SCORE.INTRA.SOLV.lig_0>
-17.1313

>  <SCORE.INTRA.VDW>
-3.65837

>  <SCORE.INTRA.VDW.0>
6.34071

>  <SCORE.INTRA.norm>
-0.158449

>  <SCORE.RESTR>
1.63095

>  <SCORE.RESTR.CAVITY>
1.63095

>  <SCORE.RESTR.norm>
0.0776645

>  <SCORE.SYSTEM>
0

>  <SCORE.SYSTEM.CONST>
0

>  <SCORE.SYSTEM.DIHEDRAL>
0

>  <SCORE.SYSTEM.SOLV>
0

>  <SCORE.SYSTEM.norm>
0

>  <SCORE.heavy>
21

>  <SCORE.norm>
-0.667699

>  <RMSD>
12.510

$$$$
lig.pdb
 OpenBabel11021811453D
libRbt.so/2013.1/901 2013/11/27
 21 23  0  0  0  0  0  0  0  0999 V2000
   -3.2979   10.7433   -0.5821 C   0  0  0  0  0  0  0  0  0  0  0  0
   -3.1505   10.1920    0.6174 N   0  0  0  0  0  0  0  0  0  0  0  0
   -2.1997    9.2980    0.8208 C   0  0  0  0  0  0  0  0  0  0  0  0
   -1.4250    8.8954   -0.2068 C   0  0  0  0  0  0  0  0  0  0  0  0
   -1.5742    9.4563   -1.4143 C   0  0  0  0  0  0  0  0  0  0  0  0
   -0.8166    9.0609   -2.4367 N   0  0  0  0  0  0  0  0  0  0  0  0
   -2.5141   10.3779   -1.5974 N   0  0  0  0  0  0  0  0  0  0  0  0
   -2.0421    8.7623    2.0427 C   0  0  0  0  0  0  0  0  0  0  0  0
   -1.1794    7.7124    2.2032 C   0  0  0  0  0  0  0  0  0  0  0  0
   -1.5734    6.6633    3.0676 O   0  0  0  0  0  0  0  0  0  0  0  0
   -0.2899    7.4618    1.2284 C   0  0  0  0  0  0  0  0  0  0  0  0
    0.8895    6.7269    1.5234 O   0  0  0  0  0  0  0  0  0  0  0  0
   -0.4746    7.9720   -0.0050 C   0  0  0  0  0  0  0  0  0  0  0  0
   -4.2422   11.6490   -0.7701 N   0  0  0  0  0  0  0  0  0  0  0  0
   -4.0335   12.8491   -0.2204 C   0  0  0  0  0  0  0  0  0  0  0  0
   -4.3620   12.8071    1.2643 C   0  0  0  0  0  0  0  0  0  0  0  0
   -5.6897   12.4739    1.4357 N   0  0  0  0  0  0  0  0  0  0  0  0
   -5.8667   11.2179    0.8977 C   0  0  0  0  0  0  0  0  0  0  0  0
   -5.5438   11.2578   -0.5867 C   0  0  0  0  0  0  0  0  0  0  0  0
   -2.7569    6.1017    2.5606 C   0  0  0  0  0  0  0  0  0  0  0  0
    0.6132    5.3575    1.3864 C   0  0  0  0  0  0  0  0  0  0  0  0
  1 14  1  0  0  0  0
  1  2  2  0  0  0  0
  3  2  1  0  0  0  0
  3  8  2  0  0  0  0
  4  3  1  0  0  0  0
  5  7  2  0  0  0  0
  5  4  1  0  0  0  0
  6  5  1  0  0  0  0
  7  1  1  0  0  0  0
  9 10  1  0  0  0  0
  9  8  1  0  0  0  0
 11  9  2  0  0  0  0
 12 11  1  0  0  0  0
 13  4  2  0  0  0  0
 13 11  1  0  0  0  0
 14 15  1  0  0  0  0
 16 15  1  0  0  0  0
 17 16  1  0  0  0  0
 18 17  1  0  0  0  0
 18 19  1  0  0  0  0
 19 14  1  0  0  0  0
 20 10  1  0  0  0  0
 21 12  1  0  0  0  0
M  END
>  <CHROM.1>
72.44116449,60.75863824,87.45509038,-2.45684301,9.35618552,0.55291437,-2.51763685
-0.68696620,2.16651160

>  <Name>
lig.pdb

>  <RI>
3.07369e+07

>  <Rbt.Current_Directory>
/home/itssahil/PROJECTS/Mol_Feturizer/New_Systems/rnas/2lwk

>  <Rbt.Executable>
rbdock ($Id: //depot/dev/client3/rdock/2013.1/src/exe/rbdock.cxx#4 $)

>  <Rbt.Library>
libRbt.so (2013.1, Build901 2013/11/27)

>  <Rbt.Parameter_File>
/export/apps/rDock/src/rDock_2013.1_src/data/scripts/dock_solv.prm

>  <Rbt.Receptor>
prm/blind_docking_100.prm

>  <SCORE>
-14.9532

>  <SCORE.INTER>
-13.7188

>  <SCORE.INTER.CONST>
1

>  <SCORE.INTER.POLAR>
-0.523822

>  <SCORE.INTER.ROT>
3

>  <SCORE.INTER.SOLV>
11.2999

>  <SCORE.INTER.VDW>
-16.7664

>  <SCORE.INTER.norm>
-0.653274

>  <SCORE.INTRA>
-3.11177

>  <SCORE.INTRA.DIHEDRAL>
0.610072

>  <SCORE.INTRA.DIHEDRAL.0>
8.84257

>  <SCORE.INTRA.POLAR>
0

>  <SCORE.INTRA.POLAR.0>
0

>  <SCORE.INTRA.REPUL>
0

>  <SCORE.INTRA.REPUL.0>
0

>  <SCORE.INTRA.SOLV>
0.120285

>  <SCORE.INTRA.SOLV.lig_0>
-17.1313

>  <SCORE.INTRA.VDW>
-3.47695

>  <SCORE.INTRA.VDW.0>
6.34071

>  <SCORE.INTRA.norm>
-0.148179

>  <SCORE.RESTR>
1.87729

>  <SCORE.RESTR.CAVITY>
1.87729

>  <SCORE.RESTR.norm>
0.0893945

>  <SCORE.SYSTEM>
0

>  <SCORE.SYSTEM.CONST>
0

>  <SCORE.SYSTEM.DIHEDRAL>
0

>  <SCORE.SYSTEM.SOLV>
0

>  <SCORE.SYSTEM.norm>
0

>  <SCORE.heavy>
21

>  <SCORE.norm>
-0.712059

>  <RMSD>
12.511

$$$$
lig.pdb
 OpenBabel11021811453D
libRbt.so/2013.1/901 2013/11/27
 21 23  0  0  0  0  0  0  0  0999 V2000
   -3.3375   10.8850   -0.4270 C   0  0  0  0  0  0  0  0  0  0  0  0
   -3.1784   10.2976    0.7537 N   0  0  0  0  0  0  0  0  0  0  0  0
   -2.2405    9.3815    0.9143 C   0  0  0  0  0  0  0  0  0  0  0  0
   -1.4921    8.9943   -0.1384 C   0  0  0  0  0  0  0  0  0  0  0  0
   -1.6531    9.5916   -1.3268 C   0  0  0  0  0  0  0  0  0  0  0  0
   -0.9215    9.2118   -2.3738 N   0  0  0  0  0  0  0  0  0  0  0  0
   -2.5791   10.5345   -1.4665 N   0  0  0  0  0  0  0  0  0  0  0  0
   -2.0704    8.8090    2.1177 C   0  0  0  0  0  0  0  0  0  0  0  0
   -1.2242    7.7399    2.2327 C   0  0  0  0  0  0  0  0  0  0  0  0
   -1.6214    6.6740    3.0749 O   0  0  0  0  0  0  0  0  0  0  0  0
   -0.3574    7.5011    1.2349 C   0  0  0  0  0  0  0  0  0  0  0  0
    0.8136    6.7374    1.4872 O   0  0  0  0  0  0  0  0  0  0  0  0
   -0.5552    8.0489    0.0198 C   0  0  0  0  0  0  0  0  0  0  0  0
   -4.2684   11.8122   -0.5720 N   0  0  0  0  0  0  0  0  0  0  0  0
   -4.1034   12.9362    0.1319 C   0  0  0  0  0  0  0  0  0  0  0  0
   -4.5381   12.7177    1.5732 C   0  0  0  0  0  0  0  0  0  0  0  0
   -5.8737   12.3740    1.6072 N   0  0  0  0  0  0  0  0  0  0  0  0
   -6.0078   11.1930    0.9104 C   0  0  0  0  0  0  0  0  0  0  0  0
   -5.5787   11.4094   -0.5312 C   0  0  0  0  0  0  0  0  0  0  0  0
   -2.8350    6.1617    2.5871 C   0  0  0  0  0  0  0  0  0  0  0  0
    0.5095    5.3774    1.3194 C   0  0  0  0  0  0  0  0  0  0  0  0
  1 14  1  0  0  0  0
  1  2  2  0  0  0  0
  3  2  1  0  0  0  0
  3  8  2  0  0  0  0
  4  3  1  0  0  0  0
  5  7  2  0  0  0  0
  5  4  1  0  0  0  0
  6  5  1  0  0  0  0
  7  1  1  0  0  0  0
  9 10  1  0  0  0  0
  9  8  1  0  0  0  0
 11  9  2  0  0  0  0
 12 11  1  0  0  0  0
 13  4  2  0  0  0  0
 13 11  1  0  0  0  0
 14 15  1  0  0  0  0
 16 15  1  0  0  0  0
 17 16  1  0  0  0  0
 18 17  1  0  0  0  0
 18 19  1  0  0  0  0
 19 14  1  0  0  0  0
 20 10  1  0  0  0  0
 21 12  1  0  0  0  0
M  END
>  <CHROM.1>
64.94214387,59.83527871,87.36225473,-2.53370166,9.41881398,0.64232530,-2.52947994
-0.68395822,2.19061729

>  <Name>
lig.pdb

>  <RI>
3.07369e+07

>  <Rbt.Current_Directory>
/home/itssahil/PROJECTS/Mol_Feturizer/New_Systems/rnas/2lwk

>  <Rbt.Executable>
rbdock ($Id: //depot/dev/client3/rdock/2013.1/src/exe/rbdock.cxx#4 $)

>  <Rbt.Library>
libRbt.so (2013.1, Build901 2013/11/27)

>  <Rbt.Parameter_File>
/export/apps/rDock/src/rDock_2013.1_src/data/scripts/dock_solv.prm

>  <Rbt.Receptor>
prm/blind_docking_100.prm

>  <SCORE>
-14.2719

>  <SCORE.INTER>
-12.9711

>  <SCORE.INTER.CONST>
1

>  <SCORE.INTER.POLAR>
-0.455796

>  <SCORE.INTER.ROT>
3

>  <SCORE.INTER.SOLV>
11.1725

>  <SCORE.INTER.VDW>
-16.4522

>  <SCORE.INTER.norm>
-0.61767

>  <SCORE.INTRA>
-2.99808

>  <SCORE.INTRA.DIHEDRAL>
0.572375

>  <SCORE.INTRA.DIHEDRAL.0>
8.84257

>  <SCORE.INTRA.POLAR>
0

>  <SCORE.INTRA.POLAR.0>
0

>  <SCORE.INTRA.REPUL>
0

>  <SCORE.INTRA.REPUL.0>
0

>  <SCORE.INTRA.SOLV>
0.121942

>  <SCORE.INTRA.SOLV.lig_0>
-17.1313

>  <SCORE.INTRA.VDW>
-3.34524

>  <SCORE.INTRA.VDW.0>
6.34071

>  <SCORE.INTRA.norm>
-0.142766

>  <SCORE.RESTR>
1.69728

>  <SCORE.RESTR.CAVITY>
1.69728

>  <SCORE.RESTR.norm>
0.0808228

>  <SCORE.SYSTEM>
0

>  <SCORE.SYSTEM.CONST>
0

>  <SCORE.SYSTEM.DIHEDRAL>
0

>  <SCORE.SYSTEM.SOLV>
0

>  <SCORE.SYSTEM.norm>
0

>  <SCORE.heavy>
21

>  <SCORE.norm>
-0.679613

>  <RMSD>
12.511

$$$$
lig.pdb
 OpenBabel11021811453D
libRbt.so/2013.1/901 2013/11/27
 21 23  0  0  0  0  0  0  0  0999 V2000
   -3.2872   10.7552   -0.5917 C   0  0  0  0  0  0  0  0  0  0  0  0
   -3.1433   10.2042    0.6083 N   0  0  0  0  0  0  0  0  0  0  0  0
   -2.1969    9.3056    0.8129 C   0  0  0  0  0  0  0  0  0  0  0  0
   -1.4237    8.8984   -0.2139 C   0  0  0  0  0  0  0  0  0  0  0  0
   -1.5694    9.4591   -1.4219 C   0  0  0  0  0  0  0  0  0  0  0  0
   -0.8131    9.0593   -2.4435 N   0  0  0  0  0  0  0  0  0  0  0  0
   -2.5046   10.3852   -1.6063 N   0  0  0  0  0  0  0  0  0  0  0  0
   -2.0427    8.7702    2.0353 C   0  0  0  0  0  0  0  0  0  0  0  0
   -1.1852    7.7162    2.1971 C   0  0  0  0  0  0  0  0  0  0  0  0
   -1.5848    6.6696    3.0621 O   0  0  0  0  0  0  0  0  0  0  0  0
   -0.2964    7.4604    1.2231 C   0  0  0  0  0  0  0  0  0  0  0  0
    0.8792    6.7200    1.5194 O   0  0  0  0  0  0  0  0  0  0  0  0
   -0.4779    7.9705   -0.0108 C   0  0  0  0  0  0  0  0  0  0  0  0
   -4.2269   11.6653   -0.7810 N   0  0  0  0  0  0  0  0  0  0  0  0
   -4.0080   12.8679   -0.2406 C   0  0  0  0  0  0  0  0  0  0  0  0
   -4.3289   12.8380    1.2461 C   0  0  0  0  0  0  0  0  0  0  0  0
   -5.6577   12.5142    1.4267 N   0  0  0  0  0  0  0  0  0  0  0  0
   -5.8452   11.2557    0.8982 C   0  0  0  0  0  0  0  0  0  0  0  0
   -5.5299   11.2834   -0.5880 C   0  0  0  0  0  0  0  0  0  0  0  0
   -2.7657    6.1073    2.5499 C   0  0  0  0  0  0  0  0  0  0  0  0
    0.6027    5.3530    1.3606 C   0  0  0  0  0  0  0  0  0  0  0  0
  1 14  1  0  0  0  0
  1  2  2  0  0  0  0
  3  2  1  0  0  0  0
  3  8  2  0  0  0  0
  4  3  1  0  0  0  0
  5  7  2  0  0  0  0
  5  4  1  0  0  0  0
  6  5  1  0  0  0  0
  7  1  1  0  0  0  0
  9 10  1  0  0  0  0
  9  8  1  0  0  0  0
 11  9  2  0  0  0  0
 12 11  1  0  0  0  0
 13  4  2  0  0  0  0
 13 11  1  0  0  0  0
 14 15  1  0  0  0  0
 16 15  1  0  0  0  0
 17 16  1  0  0  0  0
 18 17  1  0  0  0  0
 18 19  1  0  0  0  0
 19 14  1  0  0  0  0
 20 10  1  0  0  0  0
 21 12  1  0  0  0  0
M  END
>  <CHROM.1>
72.92902953,61.16317508,88.46869748,-2.45094692,9.36687032,0.54394795,-2.51396045
-0.69283982,2.16838686

>  <Name>
lig.pdb

>  <RI>
3.07369e+07

>  <Rbt.Current_Directory>
/home/itssahil/PROJECTS/Mol_Feturizer/New_Systems/rnas/2lwk

>  <Rbt.Executable>
rbdock ($Id: //depot/dev/client3/rdock/2013.1/src/exe/rbdock.cxx#4 $)

>  <Rbt.Library>
libRbt.so (2013.1, Build901 2013/11/27)

>  <Rbt.Parameter_File>
/export/apps/rDock/src/rDock_2013.1_src/data/scripts/dock_solv.prm

>  <Rbt.Receptor>
prm/blind_docking_100.prm

>  <SCORE>
-14.9084

>  <SCORE.INTER>
-13.61

>  <SCORE.INTER.CONST>
1

>  <SCORE.INTER.POLAR>
-0.532252

>  <SCORE.INTER.ROT>
3

>  <SCORE.INTER.SOLV>
11.3208

>  <SCORE.INTER.VDW>
-16.6728

>  <SCORE.INTER.norm>
-0.648094

>  <SCORE.INTRA>
-3.16676

>  <SCORE.INTRA.DIHEDRAL>
0.638727

>  <SCORE.INTRA.DIHEDRAL.0>
8.84257

>  <SCORE.INTRA.POLAR>
0

>  <SCORE.INTRA.POLAR.0>
0

>  <SCORE.INTRA.REPUL>
0

>  <SCORE.INTRA.REPUL.0>
0

>  <SCORE.INTRA.SOLV>
0.118964

>  <SCORE.INTRA.SOLV.lig_0>
-17.1313

>  <SCORE.INTRA.VDW>
-3.54561

>  <SCORE.INTRA.VDW.0>
6.34071

>  <SCORE.INTRA.norm>
-0.150798

>  <SCORE.RESTR>
1.86838

>  <SCORE.RESTR.CAVITY>
1.86838

>  <SCORE.RESTR.norm>
0.0889703

>  <SCORE.SYSTEM>
0

>  <SCORE.SYSTEM.CONST>
0

>  <SCORE.SYSTEM.DIHEDRAL>
0

>  <SCORE.SYSTEM.SOLV>
0

>  <SCORE.SYSTEM.norm>
0

>  <SCORE.heavy>
21

>  <SCORE.norm>
-0.709922

>  <RMSD>
12.520

$$$$
lig.pdb
 OpenBabel11021811453D
libRbt.so/2013.1/901 2013/11/27
 21 23  0  0  0  0  0  0  0  0999 V2000
   -2.1791   10.0043   -2.2106 C   0  0  0  0  0  0  0  0  0  0  0  0
   -2.3210   10.1069   -0.8939 N   0  0  0  0  0  0  0  0  0  0  0  0
   -2.0017    9.0896   -0.1142 C   0  0  0  0  0  0  0  0  0  0  0  0
   -1.5979    7.9249   -0.6608 C   0  0  0  0  0  0  0  0  0  0  0  0
   -1.4525    7.8265   -1.9890 C   0  0  0  0  0  0  0  0  0  0  0  0
   -1.0590    6.6779   -2.5382 N   0  0  0  0  0  0  0  0  0  0  0  0
   -1.7471    8.8683   -2.7598 N   0  0  0  0  0  0  0  0  0  0  0  0
   -2.1258    9.2093    1.2181 C   0  0  0  0  0  0  0  0  0  0  0  0
   -1.9662    8.1007    2.0040 C   0  0  0  0  0  0  0  0  0  0  0  0
   -2.8419    7.9426    3.1045 O   0  0  0  0  0  0  0  0  0  0  0  0
   -1.3821    7.0164    1.4678 C   0  0  0  0  0  0  0  0  0  0  0  0
   -0.7820    6.0479    2.3164 O   0  0  0  0  0  0  0  0  0  0  0  0
   -1.2948    6.8857    0.1296 C   0  0  0  0  0  0  0  0  0  0  0  0
   -2.4862   11.0343   -2.9801 N   0  0  0  0  0  0  0  0  0  0  0  0
   -3.7335   11.5032   -2.8768 C   0  0  0  0  0  0  0  0  0  0  0  0
   -4.6893   10.6215   -3.6662 C   0  0  0  0  0  0  0  0  0  0  0  0
   -4.3307   10.6262   -4.9983 N   0  0  0  0  0  0  0  0  0  0  0  0
   -3.0595   10.1009   -5.0793 C   0  0  0  0  0  0  0  0  0  0  0  0
   -2.1014   10.9823   -4.2954 C   0  0  0  0  0  0  0  0  0  0  0  0
   -3.9985    7.2871    2.6509 C   0  0  0  0  0  0  0  0  0  0  0  0
    0.4210    6.5706    2.8164 C   0  0  0  0  0  0  0  0  0  0  0  0
  1 14  1  0  0  0  0
  1  2  2  0  0  0  0
  3  2  1  0  0  0  0
  3  8  2  0  0  0  0
  4  3  1  0  0  0  0
  5  7  2  0  0  0  0
  5  4  1  0  0  0  0
  6  5  1  0  0  0  0
  7  1  1  0  0  0  0
  9 10  1  0  0  0  0
  9  8  1  0  0  0  0
 11  9  2  0  0  0  0
 12 11  1  0  0  0  0
 13  4  2  0  0  0  0
 13 11  1  0  0  0  0
 14 15  1  0  0  0  0
 16 15  1  0  0  0  0
 17 16  1  0  0  0  0
 18 17  1  0  0  0  0
 18 19  1  0  0  0  0
 19 14  1  0  0  0  0
 20 10  1  0  0  0  0
 21 12  1  0  0  0  0
M  END
>  <CHROM.1>
-57.18273936,86.74482437,-73.82273582,-2.23827917,8.76046418,-0.91402742
1.90578272,0.77502221,-1.29826183

>  <Name>
lig.pdb

>  <RI>
1.05666e+07

>  <Rbt.Current_Directory>
/home/itssahil/PROJECTS/Mol_Feturizer/New_Systems/rnas/2lwk

>  <Rbt.Executable>
rbdock ($Id: //depot/dev/client3/rdock/2013.1/src/exe/rbdock.cxx#4 $)

>  <Rbt.Library>
libRbt.so (2013.1, Build901 2013/11/27)

>  <Rbt.Parameter_File>
/export/apps/rDock/src/rDock_2013.1_src/data/scripts/dock_solv.prm

>  <Rbt.Receptor>
prm/blind_docking_80.prm

>  <SCORE>
-16.7632

>  <SCORE.INTER>
-16.8189

>  <SCORE.INTER.CONST>
1

>  <SCORE.INTER.POLAR>
-2.22183

>  <SCORE.INTER.ROT>
3

>  <SCORE.INTER.SOLV>
12.9922

>  <SCORE.INTER.VDW>
-13.7372

>  <SCORE.INTER.norm>
-0.800899

>  <SCORE.INTRA>
-2.94369

>  <SCORE.INTRA.DIHEDRAL>
0.624861

>  <SCORE.INTRA.DIHEDRAL.0>
8.84257

>  <SCORE.INTRA.POLAR>
0

>  <SCORE.INTRA.POLAR.0>
0

>  <SCORE.INTRA.REPUL>
0

>  <SCORE.INTRA.REPUL.0>
0

>  <SCORE.INTRA.SOLV>
0.00896049

>  <SCORE.INTRA.SOLV.lig_0>
-17.1313

>  <SCORE.INTRA.VDW>
-3.2606

>  <SCORE.INTRA.VDW.0>
6.34071

>  <SCORE.INTRA.norm>
-0.140176

>  <SCORE.RESTR>
2.99939

>  <SCORE.RESTR.CAVITY>
2.99939

>  <SCORE.RESTR.norm>
0.142828

>  <SCORE.SYSTEM>
0

>  <SCORE.SYSTEM.CONST>
0

>  <SCORE.SYSTEM.DIHEDRAL>
0

>  <SCORE.SYSTEM.SOLV>
0

>  <SCORE.SYSTEM.norm>
0

>  <SCORE.heavy>
21

>  <SCORE.norm>
-0.798246

>  <RMSD>
12.556

$$$$
lig.pdb
 OpenBabel11021811453D
libRbt.so/2013.1/901 2013/11/27
 21 23  0  0  0  0  0  0  0  0999 V2000
   -0.6905    7.2113    0.1760 C   0  0  0  0  0  0  0  0  0  0  0  0
   -1.2283    8.1661    0.9266 N   0  0  0  0  0  0  0  0  0  0  0  0
   -2.0835    9.0209    0.3948 C   0  0  0  0  0  0  0  0  0  0  0  0
   -2.3558    8.9659   -0.9246 C   0  0  0  0  0  0  0  0  0  0  0  0
   -1.8143    7.9993   -1.6777 C   0  0  0  0  0  0  0  0  0  0  0  0
   -2.0738    7.9404   -2.9834 N   0  0  0  0  0  0  0  0  0  0  0  0
   -0.9800    7.1260   -1.1231 N   0  0  0  0  0  0  0  0  0  0  0  0
   -2.6410    9.9692    1.1661 C   0  0  0  0  0  0  0  0  0  0  0  0
   -3.3822   10.9565    0.5760 C   0  0  0  0  0  0  0  0  0  0  0  0
   -3.2419   12.2729    1.0766 O   0  0  0  0  0  0  0  0  0  0  0  0
   -3.7963   10.7750   -0.6888 C   0  0  0  0  0  0  0  0  0  0  0  0
   -4.9132   11.5056   -1.1756 O   0  0  0  0  0  0  0  0  0  0  0  0
   -3.2069    9.8473   -1.4683 C   0  0  0  0  0  0  0  0  0  0  0  0
    0.1514    6.3511    0.7223 N   0  0  0  0  0  0  0  0  0  0  0  0
   -0.3347    5.1378    1.0009 C   0  0  0  0  0  0  0  0  0  0  0  0
   -1.1370    5.1811    2.2925 C   0  0  0  0  0  0  0  0  0  0  0  0
   -0.3196    5.5726    3.3326 N   0  0  0  0  0  0  0  0  0  0  0  0
    0.1335    6.8402    3.0390 C   0  0  0  0  0  0  0  0  0  0  0  0
    0.9395    6.7993    1.7514 C   0  0  0  0  0  0  0  0  0  0  0  0
   -4.3976   12.5855    1.8113 C   0  0  0  0  0  0  0  0  0  0  0  0
   -4.4654   12.7460   -1.6564 C   0  0  0  0  0  0  0  0  0  0  0  0
  1 14  1  0  0  0  0
  1  2  2  0  0  0  0
  3  2  1  0  0  0  0
  3  8  2  0  0  0  0
  4  3  1  0  0  0  0
  5  7  2  0  0  0  0
  5  4  1  0  0  0  0
  6  5  1  0  0  0  0
  7  1  1  0  0  0  0
  9 10  1  0  0  0  0
  9  8  1  0  0  0  0
 11  9  2  0  0  0  0
 12 11  1  0  0  0  0
 13  4  2  0  0  0  0
 13 11  1  0  0  0  0
 14 15  1  0  0  0  0
 16 15  1  0  0  0  0
 17 16  1  0  0  0  0
 18 17  1  0  0  0  0
 18 19  1  0  0  0  0
 19 14  1  0  0  0  0
 20 10  1  0  0  0  0
 21 12  1  0  0  0  0
M  END
>  <CHROM.1>
102.48037734,-106.30956491,86.21389070,-2.00963255,8.73862595,0.32292343
-0.06901571,1.00178201,-1.84321900

>  <Name>
lig.pdb

>  <RI>
1.99026e+07

>  <Rbt.Current_Directory>
/home/itssahil/PROJECTS/Mol_Feturizer/New_Systems/rnas/2lwk

>  <Rbt.Executable>
rbdock ($Id: //depot/dev/client3/rdock/2013.1/src/exe/rbdock.cxx#4 $)

>  <Rbt.Library>
libRbt.so (2013.1, Build901 2013/11/27)

>  <Rbt.Parameter_File>
/export/apps/rDock/src/rDock_2013.1_src/data/scripts/dock_solv.prm

>  <Rbt.Receptor>
prm/blind_docking_60.prm

>  <SCORE>
-15.8733

>  <SCORE.INTER>
-14.3753

>  <SCORE.INTER.CONST>
1

>  <SCORE.INTER.POLAR>
-1.93088

>  <SCORE.INTER.ROT>
3

>  <SCORE.INTER.SOLV>
12.0366

>  <SCORE.INTER.VDW>
-12.7595

>  <SCORE.INTER.norm>
-0.684539

>  <SCORE.INTRA>
-4.50087

>  <SCORE.INTRA.DIHEDRAL>
0.936799

>  <SCORE.INTRA.DIHEDRAL.0>
8.84257

>  <SCORE.INTRA.POLAR>
0

>  <SCORE.INTRA.POLAR.0>
0

>  <SCORE.INTRA.REPUL>
0

>  <SCORE.INTRA.REPUL.0>
0

>  <SCORE.INTRA.SOLV>
0.128574

>  <SCORE.INTRA.SOLV.lig_0>
-17.1313

>  <SCORE.INTRA.VDW>
-5.03355

>  <SCORE.INTRA.VDW.0>
6.34071

>  <SCORE.INTRA.norm>
-0.214327

>  <SCORE.RESTR>
3.00286

>  <SCORE.RESTR.CAVITY>
3.00286

>  <SCORE.RESTR.norm>
0.142993

>  <SCORE.SYSTEM>
0

>  <SCORE.SYSTEM.CONST>
0

>  <SCORE.SYSTEM.DIHEDRAL>
0

>  <SCORE.SYSTEM.SOLV>
0

>  <SCORE.SYSTEM.norm>
0

>  <SCORE.heavy>
21

>  <SCORE.norm>
-0.755873

>  <RMSD>
12.594

$$$$
lig.pdb
 OpenBabel11021811453D
libRbt.so/2013.1/901 2013/11/27
 21 23  0  0  0  0  0  0  0  0999 V2000
   -1.6993    7.9362    1.9295 C   0  0  0  0  0  0  0  0  0  0  0  0
   -2.6212    8.7816    2.3764 N   0  0  0  0  0  0  0  0  0  0  0  0
   -3.1650    9.6607    1.5540 C   0  0  0  0  0  0  0  0  0  0  0  0
   -2.7335    9.7447    0.2793 C   0  0  0  0  0  0  0  0  0  0  0  0
   -1.8062    8.8879   -0.1688 C   0  0  0  0  0  0  0  0  0  0  0  0
   -1.3702    8.9670   -1.4255 N   0  0  0  0  0  0  0  0  0  0  0  0
   -1.2901    7.9872    0.6612 N   0  0  0  0  0  0  0  0  0  0  0  0
   -4.1136   10.4966    2.0081 C   0  0  0  0  0  0  0  0  0  0  0  0
   -4.5416   11.5176    1.2040 C   0  0  0  0  0  0  0  0  0  0  0  0
   -4.7856   12.7736    1.8091 O   0  0  0  0  0  0  0  0  0  0  0  0
   -4.2486   11.4650   -0.1058 C   0  0  0  0  0  0  0  0  0  0  0  0
   -5.0295   12.2066   -1.0323 O   0  0  0  0  0  0  0  0  0  0  0  0
   -3.2701   10.6516   -0.5491 C   0  0  0  0  0  0  0  0  0  0  0  0
   -1.1737    7.0498    2.7573 N   0  0  0  0  0  0  0  0  0  0  0  0
    0.1523    7.0980    2.9172 C   0  0  0  0  0  0  0  0  0  0  0  0
    0.8441    6.4206    1.7440 C   0  0  0  0  0  0  0  0  0  0  0  0
    0.4604    5.0970    1.6813 N   0  0  0  0  0  0  0  0  0  0  0  0
   -0.9018    5.0776    1.4755 C   0  0  0  0  0  0  0  0  0  0  0  0
   -1.5961    5.7495    2.6484 C   0  0  0  0  0  0  0  0  0  0  0  0
   -6.1646   13.0315    1.7379 C   0  0  0  0  0  0  0  0  0  0  0  0
   -4.6456   13.5552   -0.9673 C   0  0  0  0  0  0  0  0  0  0  0  0
  1 14  1  0  0  0  0
  1  2  2  0  0  0  0
  3  2  1  0  0  0  0
  3  8  2  0  0  0  0
  4  3  1  0  0  0  0
  5  7  2  0  0  0  0
  5  4  1  0  0  0  0
  6  5  1  0  0  0  0
  7  1  1  0  0  0  0
  9 10  1  0  0  0  0
  9  8  1  0  0  0  0
 11  9  2  0  0  0  0
 12 11  1  0  0  0  0
 13  4  2  0  0  0  0
 13 11  1  0  0  0  0
 14 15  1  0  0  0  0
 16 15  1  0  0  0  0
 17 16  1  0  0  0  0
 18 17  1  0  0  0  0
 18 19  1  0  0  0  0
 19 14  1  0  0  0  0
 20 10  1  0  0  0  0
 21 12  1  0  0  0  0
M  END
>  <CHROM.1>
-121.41709092,-113.04686800,77.20170518,-2.56043049,9.26472428,1.05717558
0.51165373,-0.85309565,1.96611324

>  <Name>
lig.pdb

>  <RI>
1.05666e+07

>  <Rbt.Current_Directory>
/home/itssahil/PROJECTS/Mol_Feturizer/New_Systems/rnas/2lwk

>  <Rbt.Executable>
rbdock ($Id: //depot/dev/client3/rdock/2013.1/src/exe/rbdock.cxx#4 $)

>  <Rbt.Library>
libRbt.so (2013.1, Build901 2013/11/27)

>  <Rbt.Parameter_File>
/export/apps/rDock/src/rDock_2013.1_src/data/scripts/dock_solv.prm

>  <Rbt.Receptor>
prm/blind_docking_80.prm

>  <SCORE>
-13.8423

>  <SCORE.INTER>
-13.4964

>  <SCORE.INTER.CONST>
1

>  <SCORE.INTER.POLAR>
-1.49318

>  <SCORE.INTER.ROT>
3

>  <SCORE.INTER.SOLV>
10.5547

>  <SCORE.INTER.VDW>
-13.1386

>  <SCORE.INTER.norm>
-0.642688

>  <SCORE.INTRA>
-3.75921

>  <SCORE.INTRA.DIHEDRAL>
0.546922

>  <SCORE.INTRA.DIHEDRAL.0>
8.84257

>  <SCORE.INTRA.POLAR>
0

>  <SCORE.INTRA.POLAR.0>
0

>  <SCORE.INTRA.REPUL>
0

>  <SCORE.INTRA.REPUL.0>
0

>  <SCORE.INTRA.SOLV>
0.165048

>  <SCORE.INTRA.SOLV.lig_0>
-17.1313

>  <SCORE.INTRA.VDW>
-4.1152

>  <SCORE.INTRA.VDW.0>
6.34071

>  <SCORE.INTRA.norm>
-0.17901

>  <SCORE.RESTR>
3.41331

>  <SCORE.RESTR.CAVITY>
3.41331

>  <SCORE.RESTR.norm>
0.162539

>  <SCORE.SYSTEM>
0

>  <SCORE.SYSTEM.CONST>
0

>  <SCORE.SYSTEM.DIHEDRAL>
0

>  <SCORE.SYSTEM.SOLV>
0

>  <SCORE.SYSTEM.norm>
0

>  <SCORE.heavy>
21

>  <SCORE.norm>
-0.659159

>  <RMSD>
12.600

$$$$
lig.pdb
 OpenBabel11021811453D
libRbt.so/2013.1/901 2013/11/27
 21 23  0  0  0  0  0  0  0  0999 V2000
   -0.9104    7.2995    0.2827 C   0  0  0  0  0  0  0  0  0  0  0  0
   -1.4691    8.1617    1.1245 N   0  0  0  0  0  0  0  0  0  0  0  0
   -2.2739    9.1039    0.6671 C   0  0  0  0  0  0  0  0  0  0  0  0
   -2.4722    9.2319   -0.6605 C   0  0  0  0  0  0  0  0  0  0  0  0
   -1.9099    8.3582   -1.5062 C   0  0  0  0  0  0  0  0  0  0  0  0
   -2.0962    8.4802   -2.8200 N   0  0  0  0  0  0  0  0  0  0  0  0
   -1.1275    7.3953   -1.0297 N   0  0  0  0  0  0  0  0  0  0  0  0
   -2.8536    9.9575    1.5274 C   0  0  0  0  0  0  0  0  0  0  0  0
   -3.5386   11.0353    1.0361 C   0  0  0  0  0  0  0  0  0  0  0  0
   -3.3985   12.2692    1.7150 O   0  0  0  0  0  0  0  0  0  0  0  0
   -3.8842   11.0349   -0.2619 C   0  0  0  0  0  0  0  0  0  0  0  0
   -4.9556   11.8556   -0.7055 O   0  0  0  0  0  0  0  0  0  0  0  0
   -3.2717   10.2019   -1.1259 C   0  0  0  0  0  0  0  0  0  0  0  0
   -0.1196    6.3505    0.7532 N   0  0  0  0  0  0  0  0  0  0  0  0
   -0.7171    5.2289    1.1668 C   0  0  0  0  0  0  0  0  0  0  0  0
   -1.3065    5.4330    2.5542 C   0  0  0  0  0  0  0  0  0  0  0  0
   -0.2995    5.7442    3.4442 N   0  0  0  0  0  0  0  0  0  0  0  0
    0.2707    6.9236    3.0172 C   0  0  0  0  0  0  0  0  0  0  0  0
    0.8647    6.7215    1.6331 C   0  0  0  0  0  0  0  0  0  0  0  0
   -4.6809   12.8089    1.9080 C   0  0  0  0  0  0  0  0  0  0  0  0
   -4.4366   12.8699   -1.5253 C   0  0  0  0  0  0  0  0  0  0  0  0
  1 14  1  0  0  0  0
  1  2  2  0  0  0  0
  3  2  1  0  0  0  0
  3  8  2  0  0  0  0
  4  3  1  0  0  0  0
  5  7  2  0  0  0  0
  5  4  1  0  0  0  0
  6  5  1  0  0  0  0
  7  1  1  0  0  0  0
  9 10  1  0  0  0  0
  9  8  1  0  0  0  0
 11  9  2  0  0  0  0
 12 11  1  0  0  0  0
 13  4  2  0  0  0  0
 13 11  1  0  0  0  0
 14 15  1  0  0  0  0
 16 15  1  0  0  0  0
 17 16  1  0  0  0  0
 18 17  1  0  0  0  0
 18 19  1  0  0  0  0
 19 14  1  0  0  0  0
 20 10  1  0  0  0  0
 21 12  1  0  0  0  0
M  END
>  <CHROM.1>
85.69373241,-132.25955919,112.13992925,-2.13813707,8.90707792,0.54248420
-0.14302836,0.99783047,-1.71470450

>  <Name>
lig.pdb

>  <RI>
1.99026e+07

>  <Rbt.Current_Directory>
/home/itssahil/PROJECTS/Mol_Feturizer/New_Systems/rnas/2lwk

>  <Rbt.Executable>
rbdock ($Id: //depot/dev/client3/rdock/2013.1/src/exe/rbdock.cxx#4 $)

>  <Rbt.Library>
libRbt.so (2013.1, Build901 2013/11/27)

>  <Rbt.Parameter_File>
/export/apps/rDock/src/rDock_2013.1_src/data/scripts/dock_solv.prm

>  <Rbt.Receptor>
prm/blind_docking_60.prm

>  <SCORE>
-14.6412

>  <SCORE.INTER>
-13.254

>  <SCORE.INTER.CONST>
1

>  <SCORE.INTER.POLAR>
-1.60258

>  <SCORE.INTER.ROT>
3

>  <SCORE.INTER.SOLV>
11.6072

>  <SCORE.INTER.VDW>
-12.9632

>  <SCORE.INTER.norm>
-0.631144

>  <SCORE.INTRA>
-3.84235

>  <SCORE.INTRA.DIHEDRAL>
-0.656232

>  <SCORE.INTRA.DIHEDRAL.0>
8.84257

>  <SCORE.INTRA.POLAR>
0

>  <SCORE.INTRA.POLAR.0>
0

>  <SCORE.INTRA.REPUL>
0

>  <SCORE.INTRA.REPUL.0>
0

>  <SCORE.INTRA.SOLV>
0.151133

>  <SCORE.INTRA.SOLV.lig_0>
-17.1313

>  <SCORE.INTRA.VDW>
-3.5898

>  <SCORE.INTRA.VDW.0>
6.34071

>  <SCORE.INTRA.norm>
-0.182969

>  <SCORE.RESTR>
2.45518

>  <SCORE.RESTR.CAVITY>
2.45518

>  <SCORE.RESTR.norm>
0.116913

>  <SCORE.SYSTEM>
0

>  <SCORE.SYSTEM.CONST>
0

>  <SCORE.SYSTEM.DIHEDRAL>
0

>  <SCORE.SYSTEM.SOLV>
0

>  <SCORE.SYSTEM.norm>
0

>  <SCORE.heavy>
21

>  <SCORE.norm>
-0.6972

>  <RMSD>
12.605

$$$$
lig.pdb
 OpenBabel11021811453D
libRbt.so/2013.1/901 2013/11/27
 21 23  0  0  0  0  0  0  0  0999 V2000
   -1.8335    7.8659    1.8930 C   0  0  0  0  0  0  0  0  0  0  0  0
   -2.5445    8.8586    2.4158 N   0  0  0  0  0  0  0  0  0  0  0  0
   -3.1362    9.7351    1.6243 C   0  0  0  0  0  0  0  0  0  0  0  0
   -2.9603    9.6609    0.2895 C   0  0  0  0  0  0  0  0  0  0  0  0
   -2.2455    8.6561   -0.2344 C   0  0  0  0  0  0  0  0  0  0  0  0
   -2.0622    8.5780   -1.5519 N   0  0  0  0  0  0  0  0  0  0  0  0
   -1.6818    7.7627    0.5720 N   0  0  0  0  0  0  0  0  0  0  0  0
   -3.8728   10.7225    2.1600 C   0  0  0  0  0  0  0  0  0  0  0  0
   -4.3318   11.7253    1.3501 C   0  0  0  0  0  0  0  0  0  0  0  0
   -4.3043   13.0460    1.8580 O   0  0  0  0  0  0  0  0  0  0  0  0
   -4.3134   11.5318    0.0210 C   0  0  0  0  0  0  0  0  0  0  0  0
   -5.1724   12.2958   -0.8136 O   0  0  0  0  0  0  0  0  0  0  0  0
   -3.5430   10.5635   -0.5122 C   0  0  0  0  0  0  0  0  0  0  0  0
   -1.2593    6.9850    2.6940 N   0  0  0  0  0  0  0  0  0  0  0  0
    0.0578    7.1179    2.8778 C   0  0  0  0  0  0  0  0  0  0  0  0
    0.8114    6.5376    1.6906 C   0  0  0  0  0  0  0  0  0  0  0  0
    0.5214    5.1943    1.5696 N   0  0  0  0  0  0  0  0  0  0  0  0
   -0.8332    5.0896    1.3404 C   0  0  0  0  0  0  0  0  0  0  0  0
   -1.5888    5.6643    2.5270 C   0  0  0  0  0  0  0  0  0  0  0  0
   -5.5997   13.5796    1.7560 C   0  0  0  0  0  0  0  0  0  0  0  0
   -4.4001   12.9149   -1.8088 C   0  0  0  0  0  0  0  0  0  0  0  0
  1 14  1  0  0  0  0
  1  2  2  0  0  0  0
  3  2  1  0  0  0  0
  3  8  2  0  0  0  0
  4  3  1  0  0  0  0
  5  7  2  0  0  0  0
  5  4  1  0  0  0  0
  6  5  1  0  0  0  0
  7  1  1  0  0  0  0
  9 10  1  0  0  0  0
  9  8  1  0  0  0  0
 11  9  2  0  0  0  0
 12 11  1  0  0  0  0
 13  4  2  0  0  0  0
 13 11  1  0  0  0  0
 14 15  1  0  0  0  0
 16 15  1  0  0  0  0
 17 16  1  0  0  0  0
 18 17  1  0  0  0  0
 18 19  1  0  0  0  0
 19 14  1  0  0  0  0
 20 10  1  0  0  0  0
 21 12  1  0  0  0  0
M  END
>  <CHROM.1>
-103.35061956,-125.30604105,126.25671202,-2.58462587,9.26051291,1.01268541
0.19980975,-0.97944010,1.57204444

>  <Name>
lig.pdb

>  <RI>
1.99026e+07

>  <Rbt.Current_Directory>
/home/itssahil/PROJECTS/Mol_Feturizer/New_Systems/rnas/2lwk

>  <Rbt.Executable>
rbdock ($Id: //depot/dev/client3/rdock/2013.1/src/exe/rbdock.cxx#4 $)

>  <Rbt.Library>
libRbt.so (2013.1, Build901 2013/11/27)

>  <Rbt.Parameter_File>
/export/apps/rDock/src/rDock_2013.1_src/data/scripts/dock_solv.prm

>  <Rbt.Receptor>
prm/blind_docking_60.prm

>  <SCORE>
-13.7423

>  <SCORE.INTER>
-12.7951

>  <SCORE.INTER.CONST>
1

>  <SCORE.INTER.POLAR>
-1.5774

>  <SCORE.INTER.ROT>
3

>  <SCORE.INTER.SOLV>
10.1408

>  <SCORE.INTER.VDW>
-12.2524

>  <SCORE.INTER.norm>
-0.609291

>  <SCORE.INTRA>
-4.14555

>  <SCORE.INTRA.DIHEDRAL>
-1.17067

>  <SCORE.INTRA.DIHEDRAL.0>
8.84257

>  <SCORE.INTRA.POLAR>
0

>  <SCORE.INTRA.POLAR.0>
0

>  <SCORE.INTRA.REPUL>
0

>  <SCORE.INTRA.REPUL.0>
0

>  <SCORE.INTRA.SOLV>
0.133289

>  <SCORE.INTRA.SOLV.lig_0>
-17.1313

>  <SCORE.INTRA.VDW>
-3.62686

>  <SCORE.INTRA.VDW.0>
6.34071

>  <SCORE.INTRA.norm>
-0.197407

>  <SCORE.RESTR>
3.19842

>  <SCORE.RESTR.CAVITY>
3.19842

>  <SCORE.RESTR.norm>
0.152306

>  <SCORE.SYSTEM>
0

>  <SCORE.SYSTEM.CONST>
0

>  <SCORE.SYSTEM.DIHEDRAL>
0

>  <SCORE.SYSTEM.SOLV>
0

>  <SCORE.SYSTEM.norm>
0

>  <SCORE.heavy>
21

>  <SCORE.norm>
-0.654393

>  <RMSD>
12.607

$$$$
lig.pdb
 OpenBabel11021811453D
libRbt.so/2013.1/901 2013/11/27
 21 23  0  0  0  0  0  0  0  0999 V2000
   -0.2138    7.5951    0.9477 C   0  0  0  0  0  0  0  0  0  0  0  0
   -1.1299    8.3046    1.5970 N   0  0  0  0  0  0  0  0  0  0  0  0
   -1.9221    9.1262    0.9321 C   0  0  0  0  0  0  0  0  0  0  0  0
   -1.7534    9.2951   -0.3950 C   0  0  0  0  0  0  0  0  0  0  0  0
   -0.8308    8.5750   -1.0471 C   0  0  0  0  0  0  0  0  0  0  0  0
   -0.6537    8.7392   -2.3575 N   0  0  0  0  0  0  0  0  0  0  0  0
   -0.0616    7.7283   -0.3706 N   0  0  0  0  0  0  0  0  0  0  0  0
   -2.8618    9.8227    1.5929 C   0  0  0  0  0  0  0  0  0  0  0  0
   -3.5550   10.7994    0.9313 C   0  0  0  0  0  0  0  0  0  0  0  0
   -3.8304   11.9991    1.6299 O   0  0  0  0  0  0  0  0  0  0  0  0
   -3.5113   10.8160   -0.4111 C   0  0  0  0  0  0  0  0  0  0  0  0
   -4.5377   11.4733   -1.1409 O   0  0  0  0  0  0  0  0  0  0  0  0
   -2.5432   10.1453   -1.0659 C   0  0  0  0  0  0  0  0  0  0  0  0
    0.5627    6.7638    1.6210 N   0  0  0  0  0  0  0  0  0  0  0  0
    0.6458    5.5152    1.1517 C   0  0  0  0  0  0  0  0  0  0  0  0
   -0.5801    4.7179    1.5705 C   0  0  0  0  0  0  0  0  0  0  0  0
   -0.6486    4.6625    2.9472 N   0  0  0  0  0  0  0  0  0  0  0  0
   -0.7748    5.9575    3.4006 C   0  0  0  0  0  0  0  0  0  0  0  0
    0.4508    6.7554    2.9878 C   0  0  0  0  0  0  0  0  0  0  0  0
   -5.2250   12.1510    1.7028 C   0  0  0  0  0  0  0  0  0  0  0  0
   -4.1570   12.8079   -1.3512 C   0  0  0  0  0  0  0  0  0  0  0  0
  1 14  1  0  0  0  0
  1  2  2  0  0  0  0
  3  2  1  0  0  0  0
  3  8  2  0  0  0  0
  4  3  1  0  0  0  0
  5  7  2  0  0  0  0
  5  4  1  0  0  0  0
  6  5  1  0  0  0  0
  7  1  1  0  0  0  0
  9 10  1  0  0  0  0
  9  8  1  0  0  0  0
 11  9  2  0  0  0  0
 12 11  1  0  0  0  0
 13  4  2  0  0  0  0
 13 11  1  0  0  0  0
 14 15  1  0  0  0  0
 16 15  1  0  0  0  0
 17 16  1  0  0  0  0
 18 17  1  0  0  0  0
 18 19  1  0  0  0  0
 19 14  1  0  0  0  0
 20 10  1  0  0  0  0
 21 12  1  0  0  0  0
M  END
>  <CHROM.1>
129.37095671,-119.21181203,90.78035566,-1.79289555,8.76674389,0.70892992
-0.62043696,0.84116598,-1.14474477

>  <Name>
lig.pdb

>  <RI>
1.99026e+07

>  <Rbt.Current_Directory>
/home/itssahil/PROJECTS/Mol_Feturizer/New_Systems/rnas/2lwk

>  <Rbt.Executable>
rbdock ($Id: //depot/dev/client3/rdock/2013.1/src/exe/rbdock.cxx#4 $)

>  <Rbt.Library>
libRbt.so (2013.1, Build901 2013/11/27)

>  <Rbt.Parameter_File>
/export/apps/rDock/src/rDock_2013.1_src/data/scripts/dock_solv.prm

>  <Rbt.Receptor>
prm/blind_docking_60.prm

>  <SCORE>
-16.9551

>  <SCORE.INTER>
-16.2027

>  <SCORE.INTER.CONST>
1

>  <SCORE.INTER.POLAR>
-1.26283

>  <SCORE.INTER.ROT>
3

>  <SCORE.INTER.SOLV>
14.638

>  <SCORE.INTER.VDW>
-17.0717

>  <SCORE.INTER.norm>
-0.771558

>  <SCORE.INTRA>
-3.2151

>  <SCORE.INTRA.DIHEDRAL>
0.642297

>  <SCORE.INTRA.DIHEDRAL.0>
8.84257

>  <SCORE.INTRA.POLAR>
0

>  <SCORE.INTRA.POLAR.0>
0

>  <SCORE.INTRA.REPUL>
0

>  <SCORE.INTRA.REPUL.0>
0

>  <SCORE.INTRA.SOLV>
0.075445

>  <SCORE.INTRA.SOLV.lig_0>
-17.1313

>  <SCORE.INTRA.VDW>
-3.57398

>  <SCORE.INTRA.VDW.0>
6.34071

>  <SCORE.INTRA.norm>
-0.1531

>  <SCORE.RESTR>
2.46272

>  <SCORE.RESTR.CAVITY>
2.46272

>  <SCORE.RESTR.norm>
0.117272

>  <SCORE.SYSTEM>
0

>  <SCORE.SYSTEM.CONST>
0

>  <SCORE.SYSTEM.DIHEDRAL>
0

>  <SCORE.SYSTEM.SOLV>
0

>  <SCORE.SYSTEM.norm>
0

>  <SCORE.heavy>
21

>  <SCORE.norm>
-0.807386

>  <RMSD>
12.612

$$$$
lig.pdb
 OpenBabel11021811453D
libRbt.so/2013.1/901 2013/11/27
 21 23  0  0  0  0  0  0  0  0999 V2000
   -0.2260    7.5923    0.8925 C   0  0  0  0  0  0  0  0  0  0  0  0
   -1.1302    8.3016    1.5585 N   0  0  0  0  0  0  0  0  0  0  0  0
   -1.9276    9.1309    0.9095 C   0  0  0  0  0  0  0  0  0  0  0  0
   -1.7759    9.3076   -0.4186 C   0  0  0  0  0  0  0  0  0  0  0  0
   -0.8653    8.5877   -1.0876 C   0  0  0  0  0  0  0  0  0  0  0  0
   -0.7050    8.7595   -2.3992 N   0  0  0  0  0  0  0  0  0  0  0  0
   -0.0908    7.7334   -0.4269 N   0  0  0  0  0  0  0  0  0  0  0  0
   -2.8552    9.8272    1.5873 C   0  0  0  0  0  0  0  0  0  0  0  0
   -3.5529   10.8112    0.9412 C   0  0  0  0  0  0  0  0  0  0  0  0
   -3.8137   12.0075    1.6511 O   0  0  0  0  0  0  0  0  0  0  0  0
   -3.5271   10.8361   -0.4015 C   0  0  0  0  0  0  0  0  0  0  0  0
   -4.5602   11.5026   -1.1133 O   0  0  0  0  0  0  0  0  0  0  0  0
   -2.5708   10.1655   -1.0734 C   0  0  0  0  0  0  0  0  0  0  0  0
    0.5557    6.7534    1.5500 N   0  0  0  0  0  0  0  0  0  0  0  0
    0.6058    5.5003    1.0878 C   0  0  0  0  0  0  0  0  0  0  0  0
   -0.6204    4.7258    1.5465 C   0  0  0  0  0  0  0  0  0  0  0  0
   -0.6512    4.6811    2.9250 N   0  0  0  0  0  0  0  0  0  0  0  0
   -0.7441    5.9810    3.3722 C   0  0  0  0  0  0  0  0  0  0  0  0
    0.4820    6.7563    2.9194 C   0  0  0  0  0  0  0  0  0  0  0  0
   -5.2058   12.1845    1.7109 C   0  0  0  0  0  0  0  0  0  0  0  0
   -4.1472   12.8172   -1.3812 C   0  0  0  0  0  0  0  0  0  0  0  0
  1 14  1  0  0  0  0
  1  2  2  0  0  0  0
  3  2  1  0  0  0  0
  3  8  2  0  0  0  0
  4  3  1  0  0  0  0
  5  7  2  0  0  0  0
  5  4  1  0  0  0  0
  6  5  1  0  0  0  0
  7  1  1  0  0  0  0
  9 10  1  0  0  0  0
  9  8  1  0  0  0  0
 11  9  2  0  0  0  0
 12 11  1  0  0  0  0
 13  4  2  0  0  0  0
 13 11  1  0  0  0  0
 14 15  1  0  0  0  0
 16 15  1  0  0  0  0
 17 16  1  0  0  0  0
 18 17  1  0  0  0  0
 18 19  1  0  0  0  0
 19 14  1  0  0  0  0
 20 10  1  0  0  0  0
 21 12  1  0  0  0  0
M  END
>  <CHROM.1>
128.05156864,-120.84801601,93.81793205,-1.80198789,8.77713266,0.68433757
-0.60837969,0.84980280,-1.15380936

>  <Name>
lig.pdb

>  <RI>
3.07369e+07

>  <Rbt.Current_Directory>
/home/itssahil/PROJECTS/Mol_Feturizer/New_Systems/rnas/2lwk

>  <Rbt.Executable>
rbdock ($Id: //depot/dev/client3/rdock/2013.1/src/exe/rbdock.cxx#4 $)

>  <Rbt.Library>
libRbt.so (2013.1, Build901 2013/11/27)

>  <Rbt.Parameter_File>
/export/apps/rDock/src/rDock_2013.1_src/data/scripts/dock_solv.prm

>  <Rbt.Receptor>
prm/blind_docking_100.prm

>  <SCORE>
-17.1101

>  <SCORE.INTER>
-16.209

>  <SCORE.INTER.CONST>
1

>  <SCORE.INTER.POLAR>
-1.30519

>  <SCORE.INTER.ROT>
3

>  <SCORE.INTER.SOLV>
14.5346

>  <SCORE.INTER.VDW>
-16.9002

>  <SCORE.INTER.norm>
-0.771859

>  <SCORE.INTRA>
-3.28418

>  <SCORE.INTRA.DIHEDRAL>
0.565971

>  <SCORE.INTRA.DIHEDRAL.0>
8.84257

>  <SCORE.INTRA.POLAR>
0

>  <SCORE.INTRA.POLAR.0>
0

>  <SCORE.INTRA.REPUL>
0

>  <SCORE.INTRA.REPUL.0>
0

>  <SCORE.INTRA.SOLV>
0.0780389

>  <SCORE.INTRA.SOLV.lig_0>
-17.1313

>  <SCORE.INTRA.VDW>
-3.60619

>  <SCORE.INTRA.VDW.0>
6.34071

>  <SCORE.INTRA.norm>
-0.15639

>  <SCORE.RESTR>
2.38308

>  <SCORE.RESTR.CAVITY>
2.38308

>  <SCORE.RESTR.norm>
0.11348

>  <SCORE.SYSTEM>
0

>  <SCORE.SYSTEM.CONST>
0

>  <SCORE.SYSTEM.DIHEDRAL>
0

>  <SCORE.SYSTEM.SOLV>
0

>  <SCORE.SYSTEM.norm>
0

>  <SCORE.heavy>
21

>  <SCORE.norm>
-0.814769

>  <RMSD>
12.623

$$$$
lig.pdb
 OpenBabel11021811453D
libRbt.so/2013.1/901 2013/11/27
 21 23  0  0  0  0  0  0  0  0999 V2000
   -0.8815    7.3294   -0.0239 C   0  0  0  0  0  0  0  0  0  0  0  0
   -1.3916    8.2895    0.7393 N   0  0  0  0  0  0  0  0  0  0  0  0
   -2.1814    9.2054    0.2082 C   0  0  0  0  0  0  0  0  0  0  0  0
   -2.4128    9.2047   -1.1202 C   0  0  0  0  0  0  0  0  0  0  0  0
   -1.8996    8.2326   -1.8861 C   0  0  0  0  0  0  0  0  0  0  0  0
   -2.1188    8.2270   -3.2004 N   0  0  0  0  0  0  0  0  0  0  0  0
   -1.1322    7.2988   -1.3335 N   0  0  0  0  0  0  0  0  0  0  0  0
   -2.7121   10.1594    0.9911 C   0  0  0  0  0  0  0  0  0  0  0  0
   -3.3793   11.2030    0.4096 C   0  0  0  0  0  0  0  0  0  0  0  0
   -3.1848   12.4943    0.9555 O   0  0  0  0  0  0  0  0  0  0  0  0
   -3.7607   11.0822   -0.8726 C   0  0  0  0  0  0  0  0  0  0  0  0
   -4.8199   11.8872   -1.3709 O   0  0  0  0  0  0  0  0  0  0  0  0
   -3.1967   10.1473   -1.6621 C   0  0  0  0  0  0  0  0  0  0  0  0
   -0.1056    6.4085    0.5211 N   0  0  0  0  0  0  0  0  0  0  0  0
   -0.6922    5.2523    0.8458 C   0  0  0  0  0  0  0  0  0  0  0  0
   -1.4470    5.4008    2.1582 C   0  0  0  0  0  0  0  0  0  0  0  0
   -0.5655    5.7399    3.1637 N   0  0  0  0  0  0  0  0  0  0  0  0
   -0.0072    6.9527    2.8235 C   0  0  0  0  0  0  0  0  0  0  0  0
    0.7516    6.8064    1.5150 C   0  0  0  0  0  0  0  0  0  0  0  0
   -4.2416   12.7562    1.8431 C   0  0  0  0  0  0  0  0  0  0  0  0
   -5.9798   11.6156   -0.6284 C   0  0  0  0  0  0  0  0  0  0  0  0
  1 14  1  0  0  0  0
  1  2  2  0  0  0  0
  3  2  1  0  0  0  0
  3  8  2  0  0  0  0
  4  3  1  0  0  0  0
  5  7  2  0  0  0  0
  5  4  1  0  0  0  0
  6  5  1  0  0  0  0
  7  1  1  0  0  0  0
  9 10  1  0  0  0  0
  9  8  1  0  0  0  0
 11  9  2  0  0  0  0
 12 11  1  0  0  0  0
 13  4  2  0  0  0  0
 13 11  1  0  0  0  0
 14 15  1  0  0  0  0
 16 15  1  0  0  0  0
 17 16  1  0  0  0  0
 18 17  1  0  0  0  0
 18 19  1  0  0  0  0
 19 14  1  0  0  0  0
 20 10  1  0  0  0  0
 21 12  1  0  0  0  0
M  END
>  <CHROM.1>
97.22893181,-96.55793523,-59.94697146,-2.18228877,8.86295316,0.21078950,-0.05513532
0.98391854,-1.81528420

>  <Name>
lig.pdb

>  <RI>
3.07369e+07

>  <Rbt.Current_Directory>
/home/itssahil/PROJECTS/Mol_Feturizer/New_Systems/rnas/2lwk

>  <Rbt.Executable>
rbdock ($Id: //depot/dev/client3/rdock/2013.1/src/exe/rbdock.cxx#4 $)

>  <Rbt.Library>
libRbt.so (2013.1, Build901 2013/11/27)

>  <Rbt.Parameter_File>
/export/apps/rDock/src/rDock_2013.1_src/data/scripts/dock_solv.prm

>  <Rbt.Receptor>
prm/blind_docking_100.prm

>  <SCORE>
-15.423

>  <SCORE.INTER>
-14.2678

>  <SCORE.INTER.CONST>
1

>  <SCORE.INTER.POLAR>
-2.06135

>  <SCORE.INTER.ROT>
3

>  <SCORE.INTER.SOLV>
11.0665

>  <SCORE.INTER.VDW>
-11.9295

>  <SCORE.INTER.norm>
-0.679418

>  <SCORE.INTRA>
-3.92184

>  <SCORE.INTRA.DIHEDRAL>
-0.0969714

>  <SCORE.INTRA.DIHEDRAL.0>
8.84257

>  <SCORE.INTRA.POLAR>
0

>  <SCORE.INTRA.POLAR.0>
0

>  <SCORE.INTRA.REPUL>
0

>  <SCORE.INTRA.REPUL.0>
0

>  <SCORE.INTRA.SOLV>
0.0903804

>  <SCORE.INTRA.SOLV.lig_0>
-17.1313

>  <SCORE.INTRA.VDW>
-3.91854

>  <SCORE.INTRA.VDW.0>
6.34071

>  <SCORE.INTRA.norm>
-0.186754

>  <SCORE.RESTR>
2.76658

>  <SCORE.RESTR.CAVITY>
2.76658

>  <SCORE.RESTR.norm>
0.131742

>  <SCORE.SYSTEM>
0

>  <SCORE.SYSTEM.CONST>
0

>  <SCORE.SYSTEM.DIHEDRAL>
0

>  <SCORE.SYSTEM.SOLV>
0

>  <SCORE.SYSTEM.norm>
0

>  <SCORE.heavy>
21

>  <SCORE.norm>
-0.73443

>  <RMSD>
12.629

$$$$
lig.pdb
 OpenBabel11021811453D
libRbt.so/2013.1/901 2013/11/27
 21 23  0  0  0  0  0  0  0  0999 V2000
   -0.8100    7.3953    0.1666 C   0  0  0  0  0  0  0  0  0  0  0  0
   -1.3750    8.2599    1.0017 N   0  0  0  0  0  0  0  0  0  0  0  0
   -2.2176    9.1675    0.5421 C   0  0  0  0  0  0  0  0  0  0  0  0
   -2.4493    9.2592   -0.7830 C   0  0  0  0  0  0  0  0  0  0  0  0
   -1.8804    8.3831   -1.6218 C   0  0  0  0  0  0  0  0  0  0  0  0
   -2.0997    8.4695   -2.9333 N   0  0  0  0  0  0  0  0  0  0  0  0
   -1.0592    7.4547   -1.1422 N   0  0  0  0  0  0  0  0  0  0  0  0
   -2.8029   10.0233    1.3964 C   0  0  0  0  0  0  0  0  0  0  0  0
   -3.5305   11.0691    0.8971 C   0  0  0  0  0  0  0  0  0  0  0  0
   -3.4119   12.3218    1.5450 O   0  0  0  0  0  0  0  0  0  0  0  0
   -3.9050   11.0288   -0.3922 C   0  0  0  0  0  0  0  0  0  0  0  0
   -5.0100   11.8075   -0.8290 O   0  0  0  0  0  0  0  0  0  0  0  0
   -3.2876   10.1945   -1.2514 C   0  0  0  0  0  0  0  0  0  0  0  0
    0.0190    6.4809    0.6397 N   0  0  0  0  0  0  0  0  0  0  0  0
   -0.4883    5.2591    0.8295 C   0  0  0  0  0  0  0  0  0  0  0  0
   -1.2812    5.2193    2.1270 C   0  0  0  0  0  0  0  0  0  0  0  0
   -0.4499    5.5157    3.1873 N   0  0  0  0  0  0  0  0  0  0  0  0
    0.0254    6.7933    2.9868 C   0  0  0  0  0  0  0  0  0  0  0  0
    0.8221    6.8352    1.6935 C   0  0  0  0  0  0  0  0  0  0  0  0
   -4.7045   12.7782    1.8519 C   0  0  0  0  0  0  0  0  0  0  0  0
   -4.5294   12.8843   -1.5905 C   0  0  0  0  0  0  0  0  0  0  0  0
  1 14  1  0  0  0  0
  1  2  2  0  0  0  0
  3  2  1  0  0  0  0
  3  8  2  0  0  0  0
  4  3  1  0  0  0  0
  5  7  2  0  0  0  0
  5  4  1  0  0  0  0
  6  5  1  0  0  0  0
  7  1  1  0  0  0  0
  9 10  1  0  0  0  0
  9  8  1  0  0  0  0
 11  9  2  0  0  0  0
 12 11  1  0  0  0  0
 13  4  2  0  0  0  0
 13 11  1  0  0  0  0
 14 15  1  0  0  0  0
 16 15  1  0  0  0  0
 17 16  1  0  0  0  0
 18 17  1  0  0  0  0
 18 19  1  0  0  0  0
 19 14  1  0  0  0  0
 20 10  1  0  0  0  0
 21 12  1  0  0  0  0
M  END
>  <CHROM.1>
99.24579678,-127.60036085,107.19819160,-2.13323991,8.91085511,0.40525480
-0.13766816,0.99687791,-1.70269380

>  <Name>
lig.pdb

>  <RI>
4.07847e+07

>  <Rbt.Current_Directory>
/home/itssahil/PROJECTS/Mol_Feturizer/New_Systems/rnas/2lwk

>  <Rbt.Executable>
rbdock ($Id: //depot/dev/client3/rdock/2013.1/src/exe/rbdock.cxx#4 $)

>  <Rbt.Library>
libRbt.so (2013.1, Build901 2013/11/27)

>  <Rbt.Parameter_File>
/export/apps/rDock/src/rDock_2013.1_src/data/scripts/dock_solv.prm

>  <Rbt.Receptor>
prm/blind_docking_20.prm

>  <SCORE>
-15.7846

>  <SCORE.INTER>
-14.8216

>  <SCORE.INTER.CONST>
1

>  <SCORE.INTER.POLAR>
-1.74615

>  <SCORE.INTER.ROT>
3

>  <SCORE.INTER.SOLV>
11.3569

>  <SCORE.INTER.VDW>
-13.4462

>  <SCORE.INTER.norm>
-0.705789

>  <SCORE.INTRA>
-3.97632

>  <SCORE.INTRA.DIHEDRAL>
-0.126804

>  <SCORE.INTRA.DIHEDRAL.0>
8.84257

>  <SCORE.INTRA.POLAR>
0

>  <SCORE.INTRA.POLAR.0>
0

>  <SCORE.INTRA.REPUL>
0

>  <SCORE.INTRA.REPUL.0>
0

>  <SCORE.INTRA.SOLV>
0.135295

>  <SCORE.INTRA.SOLV.lig_0>
-17.1313

>  <SCORE.INTRA.VDW>
-3.98056

>  <SCORE.INTRA.VDW.0>
6.34071

>  <SCORE.INTRA.norm>
-0.189349

>  <SCORE.RESTR>
3.01331

>  <SCORE.RESTR.CAVITY>
3.01331

>  <SCORE.RESTR.norm>
0.143491

>  <SCORE.SYSTEM>
0

>  <SCORE.SYSTEM.CONST>
0

>  <SCORE.SYSTEM.DIHEDRAL>
0

>  <SCORE.SYSTEM.SOLV>
0

>  <SCORE.SYSTEM.norm>
0

>  <SCORE.heavy>
21

>  <SCORE.norm>
-0.751647

>  <RMSD>
12.656

$$$$
lig.pdb
 OpenBabel11021811453D
libRbt.so/2013.1/901 2013/11/27
 21 23  0  0  0  0  0  0  0  0999 V2000
   -0.2190    7.6300    0.9636 C   0  0  0  0  0  0  0  0  0  0  0  0
   -1.1085    8.3795    1.6050 N   0  0  0  0  0  0  0  0  0  0  0  0
   -1.8937    9.1976    0.9275 C   0  0  0  0  0  0  0  0  0  0  0  0
   -1.7435    9.3216   -0.4067 C   0  0  0  0  0  0  0  0  0  0  0  0
   -0.8478    8.5614   -1.0506 C   0  0  0  0  0  0  0  0  0  0  0  0
   -0.6891    8.6810   -2.3682 N   0  0  0  0  0  0  0  0  0  0  0  0
   -0.0860    7.7190   -0.3604 N   0  0  0  0  0  0  0  0  0  0  0  0
   -2.8068    9.9350    1.5812 C   0  0  0  0  0  0  0  0  0  0  0  0
   -3.4895   10.9060    0.9005 C   0  0  0  0  0  0  0  0  0  0  0  0
   -3.7270   12.1325    1.5657 O   0  0  0  0  0  0  0  0  0  0  0  0
   -3.4678   10.8801   -0.4423 C   0  0  0  0  0  0  0  0  0  0  0  0
   -4.4917   11.5373   -1.1757 O   0  0  0  0  0  0  0  0  0  0  0  0
   -2.5256   10.1681   -1.0911 C   0  0  0  0  0  0  0  0  0  0  0  0
    0.5503    6.8028    1.6501 N   0  0  0  0  0  0  0  0  0  0  0  0
    0.6696    5.5624    1.1672 C   0  0  0  0  0  0  0  0  0  0  0  0
   -0.5548    4.7387    1.5366 C   0  0  0  0  0  0  0  0  0  0  0  0
   -0.6654    4.6634    2.9096 N   0  0  0  0  0  0  0  0  0  0  0  0
   -0.8281    5.9497    3.3759 C   0  0  0  0  0  0  0  0  0  0  0  0
    0.3957    6.7738    3.0125 C   0  0  0  0  0  0  0  0  0  0  0  0
   -5.1155   12.2889    1.7093 C   0  0  0  0  0  0  0  0  0  0  0  0
   -4.1355   12.8853   -1.3376 C   0  0  0  0  0  0  0  0  0  0  0  0
  1 14  1  0  0  0  0
  1  2  2  0  0  0  0
  3  2  1  0  0  0  0
  3  8  2  0  0  0  0
  4  3  1  0  0  0  0
  5  7  2  0  0  0  0
  5  4  1  0  0  0  0
  6  5  1  0  0  0  0
  7  1  1  0  0  0  0
  9 10  1  0  0  0  0
  9  8  1  0  0  0  0
 11  9  2  0  0  0  0
 12 11  1  0  0  0  0
 13  4  2  0  0  0  0
 13 11  1  0  0  0  0
 14 15  1  0  0  0  0
 16 15  1  0  0  0  0
 17 16  1  0  0  0  0
 18 17  1  0  0  0  0
 18 19  1  0  0  0  0
 19 14  1  0  0  0  0
 20 10  1  0  0  0  0
 21 12  1  0  0  0  0
M  END
>  <CHROM.1>
133.73524029,-116.61546185,85.94251148,-1.77588282,8.81255047,0.69897976
-0.60193922,0.87076379,-1.17304526

>  <Name>
lig.pdb

>  <RI>
3.07369e+07

>  <Rbt.Current_Directory>
/home/itssahil/PROJECTS/Mol_Feturizer/New_Systems/rnas/2lwk

>  <Rbt.Executable>
rbdock ($Id: //depot/dev/client3/rdock/2013.1/src/exe/rbdock.cxx#4 $)

>  <Rbt.Library>
libRbt.so (2013.1, Build901 2013/11/27)

>  <Rbt.Parameter_File>
/export/apps/rDock/src/rDock_2013.1_src/data/scripts/dock_solv.prm

>  <Rbt.Receptor>
prm/blind_docking_100.prm

>  <SCORE>
-17.0743

>  <SCORE.INTER>
-16.4472

>  <SCORE.INTER.CONST>
1

>  <SCORE.INTER.POLAR>
-1.3967

>  <SCORE.INTER.ROT>
3

>  <SCORE.INTER.SOLV>
14.6037

>  <SCORE.INTER.VDW>
-16.777

>  <SCORE.INTER.norm>
-0.7832

>  <SCORE.INTRA>
-2.96458

>  <SCORE.INTRA.DIHEDRAL>
0.696977

>  <SCORE.INTRA.DIHEDRAL.0>
8.84257

>  <SCORE.INTRA.POLAR>
0

>  <SCORE.INTRA.POLAR.0>
0

>  <SCORE.INTRA.REPUL>
0

>  <SCORE.INTRA.REPUL.0>
0

>  <SCORE.INTRA.SOLV>
0.0645259

>  <SCORE.INTRA.SOLV.lig_0>
-17.1313

>  <SCORE.INTRA.VDW>
-3.34533

>  <SCORE.INTRA.VDW.0>
6.34071

>  <SCORE.INTRA.norm>
-0.14117

>  <SCORE.RESTR>
2.33752

>  <SCORE.RESTR.CAVITY>
2.33752

>  <SCORE.RESTR.norm>
0.11131

>  <SCORE.SYSTEM>
0

>  <SCORE.SYSTEM.CONST>
0

>  <SCORE.SYSTEM.DIHEDRAL>
0

>  <SCORE.SYSTEM.SOLV>
0

>  <SCORE.SYSTEM.norm>
0

>  <SCORE.heavy>
21

>  <SCORE.norm>
-0.81306

>  <RMSD>
12.667

$$$$
lig.pdb
 OpenBabel11021811453D
libRbt.so/2013.1/901 2013/11/27
 21 23  0  0  0  0  0  0  0  0999 V2000
   -1.0468    7.1173    0.4476 C   0  0  0  0  0  0  0  0  0  0  0  0
   -1.8092    7.9407    1.1583 N   0  0  0  0  0  0  0  0  0  0  0  0
   -2.2594    9.0575    0.6154 C   0  0  0  0  0  0  0  0  0  0  0  0
   -1.8874    9.3937   -0.6363 C   0  0  0  0  0  0  0  0  0  0  0  0
   -1.1214    8.5590   -1.3514 C   0  0  0  0  0  0  0  0  0  0  0  0
   -0.7448    8.8854   -2.5872 N   0  0  0  0  0  0  0  0  0  0  0  0
   -0.7013    7.4232   -0.8038 N   0  0  0  0  0  0  0  0  0  0  0  0
   -3.0492    9.8735    1.3331 C   0  0  0  0  0  0  0  0  0  0  0  0
   -3.3631   11.1071    0.8313 C   0  0  0  0  0  0  0  0  0  0  0  0
   -3.3871   12.1977    1.7330 O   0  0  0  0  0  0  0  0  0  0  0  0
   -3.1500   11.3387   -0.4745 C   0  0  0  0  0  0  0  0  0  0  0  0
   -3.8602   12.3799   -1.1300 O   0  0  0  0  0  0  0  0  0  0  0  0
   -2.3268   10.5378   -1.1791 C   0  0  0  0  0  0  0  0  0  0  0  0
   -0.6153    5.9945    0.9956 N   0  0  0  0  0  0  0  0  0  0  0  0
   -1.4749    5.3527    1.7927 C   0  0  0  0  0  0  0  0  0  0  0  0
   -1.5097    6.0141    3.1622 C   0  0  0  0  0  0  0  0  0  0  0  0
   -0.2566    5.9567    3.7363 N   0  0  0  0  0  0  0  0  0  0  0  0
    0.5992    6.6594    2.9164 C   0  0  0  0  0  0  0  0  0  0  0  0
    0.6397    5.9983    1.5487 C   0  0  0  0  0  0  0  0  0  0  0  0
   -4.6792   12.7486    1.7169 C   0  0  0  0  0  0  0  0  0  0  0  0
   -5.0331   11.8450   -1.6853 C   0  0  0  0  0  0  0  0  0  0  0  0
  1 14  1  0  0  0  0
  1  2  2  0  0  0  0
  3  2  1  0  0  0  0
  3  8  2  0  0  0  0
  4  3  1  0  0  0  0
  5  7  2  0  0  0  0
  5  4  1  0  0  0  0
  6  5  1  0  0  0  0
  7  1  1  0  0  0  0
  9 10  1  0  0  0  0
  9  8  1  0  0  0  0
 11  9  2  0  0  0  0
 12 11  1  0  0  0  0
 13  4  2  0  0  0  0
 13 11  1  0  0  0  0
 14 15  1  0  0  0  0
 16 15  1  0  0  0  0
 17 16  1  0  0  0  0
 18 17  1  0  0  0  0
 18 19  1  0  0  0  0
 19 14  1  0  0  0  0
 20 10  1  0  0  0  0
 21 12  1  0  0  0  0
M  END
>  <CHROM.1>
38.53534132,-120.29024302,-91.89433477,-1.96828308,8.90147403,0.58905123
-0.56611909,0.95820243,-1.28891560

>  <Name>
lig.pdb

>  <RI>
3.07369e+07

>  <Rbt.Current_Directory>
/home/itssahil/PROJECTS/Mol_Feturizer/New_Systems/rnas/2lwk

>  <Rbt.Executable>
rbdock ($Id: //depot/dev/client3/rdock/2013.1/src/exe/rbdock.cxx#4 $)

>  <Rbt.Library>
libRbt.so (2013.1, Build901 2013/11/27)

>  <Rbt.Parameter_File>
/export/apps/rDock/src/rDock_2013.1_src/data/scripts/dock_solv.prm

>  <Rbt.Receptor>
prm/blind_docking_100.prm

>  <SCORE>
-21.0444

>  <SCORE.INTER>
-18.7861

>  <SCORE.INTER.CONST>
1

>  <SCORE.INTER.POLAR>
-1.56935

>  <SCORE.INTER.ROT>
3

>  <SCORE.INTER.SOLV>
13.5552

>  <SCORE.INTER.VDW>
-17.4113

>  <SCORE.INTER.norm>
-0.894576

>  <SCORE.INTRA>
-4.24008

>  <SCORE.INTRA.DIHEDRAL>
0.584482

>  <SCORE.INTRA.DIHEDRAL.0>
8.84257

>  <SCORE.INTRA.POLAR>
0

>  <SCORE.INTRA.POLAR.0>
0

>  <SCORE.INTRA.REPUL>
0

>  <SCORE.INTRA.REPUL.0>
0

>  <SCORE.INTRA.SOLV>
0.0988447

>  <SCORE.INTRA.SOLV.lig_0>
-17.1313

>  <SCORE.INTRA.VDW>
-4.58174

>  <SCORE.INTRA.VDW.0>
6.34071

>  <SCORE.INTRA.norm>
-0.201908

>  <SCORE.RESTR>
1.98174

>  <SCORE.RESTR.CAVITY>
1.98174

>  <SCORE.RESTR.norm>
0.0943685

>  <SCORE.SYSTEM>
0

>  <SCORE.SYSTEM.CONST>
0

>  <SCORE.SYSTEM.DIHEDRAL>
0

>  <SCORE.SYSTEM.SOLV>
0

>  <SCORE.SYSTEM.norm>
0

>  <SCORE.heavy>
21

>  <SCORE.norm>
-1.00212

>  <RMSD>
12.668

$$$$
lig.pdb
 OpenBabel11021811453D
libRbt.so/2013.1/901 2013/11/27
 21 23  0  0  0  0  0  0  0  0999 V2000
   -1.0199    7.1256    0.4460 C   0  0  0  0  0  0  0  0  0  0  0  0
   -1.7878    7.9418    1.1590 N   0  0  0  0  0  0  0  0  0  0  0  0
   -2.2469    9.0563    0.6187 C   0  0  0  0  0  0  0  0  0  0  0  0
   -1.8785    9.3978   -0.6326 C   0  0  0  0  0  0  0  0  0  0  0  0
   -1.1068    8.5703   -1.3500 C   0  0  0  0  0  0  0  0  0  0  0  0
   -0.7337    8.9020   -2.5854 N   0  0  0  0  0  0  0  0  0  0  0  0
   -0.6779    7.4365   -0.8051 N   0  0  0  0  0  0  0  0  0  0  0  0
   -3.0421    9.8649    1.3388 C   0  0  0  0  0  0  0  0  0  0  0  0
   -3.3658   11.0972    0.8397 C   0  0  0  0  0  0  0  0  0  0  0  0
   -3.3971   12.1857    1.7437 O   0  0  0  0  0  0  0  0  0  0  0  0
   -3.1554   11.3330   -0.4658 C   0  0  0  0  0  0  0  0  0  0  0  0
   -3.8739   12.3701   -1.1186 O   0  0  0  0  0  0  0  0  0  0  0  0
   -2.3269   10.5397   -1.1727 C   0  0  0  0  0  0  0  0  0  0  0  0
   -0.5796    6.0049    0.9913 N   0  0  0  0  0  0  0  0  0  0  0  0
   -1.4415    5.3430    1.7693 C   0  0  0  0  0  0  0  0  0  0  0  0
   -1.5082    5.9918    3.1435 C   0  0  0  0  0  0  0  0  0  0  0  0
   -0.2636    5.9490    3.7370 N   0  0  0  0  0  0  0  0  0  0  0  0
    0.5938    6.6720    2.9367 C   0  0  0  0  0  0  0  0  0  0  0  0
    0.6663    6.0235    1.5644 C   0  0  0  0  0  0  0  0  0  0  0  0
   -4.6861   12.7431    1.7106 C   0  0  0  0  0  0  0  0  0  0  0  0
   -5.0416   11.8270   -1.6769 C   0  0  0  0  0  0  0  0  0  0  0  0
  1 14  1  0  0  0  0
  1  2  2  0  0  0  0
  3  2  1  0  0  0  0
  3  8  2  0  0  0  0
  4  3  1  0  0  0  0
  5  7  2  0  0  0  0
  5  4  1  0  0  0  0
  6  5  1  0  0  0  0
  7  1  1  0  0  0  0
  9 10  1  0  0  0  0
  9  8  1  0  0  0  0
 11  9  2  0  0  0  0
 12 11  1  0  0  0  0
 13  4  2  0  0  0  0
 13 11  1  0  0  0  0
 14 15  1  0  0  0  0
 16 15  1  0  0  0  0
 17 16  1  0  0  0  0
 18 17  1  0  0  0  0
 18 19  1  0  0  0  0
 19 14  1  0  0  0  0
 20 10  1  0  0  0  0
 21 12  1  0  0  0  0
M  END
>  <CHROM.1>
39.66324833,-121.40914990,-92.04270129,-1.96093361,8.90105002,0.59151861
-0.56752622,0.95320671,-1.28524218

>  <Name>
lig.pdb

>  <RI>
3.07369e+07

>  <Rbt.Current_Directory>
/home/itssahil/PROJECTS/Mol_Feturizer/New_Systems/rnas/2lwk

>  <Rbt.Executable>
rbdock ($Id: //depot/dev/client3/rdock/2013.1/src/exe/rbdock.cxx#4 $)

>  <Rbt.Library>
libRbt.so (2013.1, Build901 2013/11/27)

>  <Rbt.Parameter_File>
/export/apps/rDock/src/rDock_2013.1_src/data/scripts/dock_solv.prm

>  <Rbt.Receptor>
prm/blind_docking_100.prm

>  <SCORE>
-21.0681

>  <SCORE.INTER>
-18.8188

>  <SCORE.INTER.CONST>
1

>  <SCORE.INTER.POLAR>
-1.55607

>  <SCORE.INTER.ROT>
3

>  <SCORE.INTER.SOLV>
13.655

>  <SCORE.INTER.VDW>
-17.5106

>  <SCORE.INTER.norm>
-0.896133

>  <SCORE.INTRA>
-4.23365

>  <SCORE.INTRA.DIHEDRAL>
0.53106

>  <SCORE.INTRA.DIHEDRAL.0>
8.84257

>  <SCORE.INTRA.POLAR>
0

>  <SCORE.INTRA.POLAR.0>
0

>  <SCORE.INTRA.REPUL>
0

>  <SCORE.INTRA.REPUL.0>
0

>  <SCORE.INTRA.SOLV>
0.101212

>  <SCORE.INTRA.SOLV.lig_0>
-17.1313

>  <SCORE.INTRA.VDW>
-4.54978

>  <SCORE.INTRA.VDW.0>
6.34071

>  <SCORE.INTRA.norm>
-0.201602

>  <SCORE.RESTR>
1.98432

>  <SCORE.RESTR.CAVITY>
1.98432

>  <SCORE.RESTR.norm>
0.0944916

>  <SCORE.SYSTEM>
0

>  <SCORE.SYSTEM.CONST>
0

>  <SCORE.SYSTEM.DIHEDRAL>
0

>  <SCORE.SYSTEM.SOLV>
0

>  <SCORE.SYSTEM.norm>
0

>  <SCORE.heavy>
21

>  <SCORE.norm>
-1.00324

>  <RMSD>
12.669

$$$$
lig.pdb
 OpenBabel11021811453D
libRbt.so/2013.1/901 2013/11/27
 21 23  0  0  0  0  0  0  0  0999 V2000
   -1.0224    7.1301    0.4415 C   0  0  0  0  0  0  0  0  0  0  0  0
   -1.7873    7.9487    1.1550 N   0  0  0  0  0  0  0  0  0  0  0  0
   -2.2454    9.0634    0.6140 C   0  0  0  0  0  0  0  0  0  0  0  0
   -1.8790    9.4024   -0.6385 C   0  0  0  0  0  0  0  0  0  0  0  0
   -1.1103    8.5724   -1.3563 C   0  0  0  0  0  0  0  0  0  0  0  0
   -0.7391    8.9017   -2.5929 N   0  0  0  0  0  0  0  0  0  0  0  0
   -0.6823    7.4387   -0.8106 N   0  0  0  0  0  0  0  0  0  0  0  0
   -3.0378    9.8744    1.3346 C   0  0  0  0  0  0  0  0  0  0  0  0
   -3.3601   11.1066    0.8344 C   0  0  0  0  0  0  0  0  0  0  0  0
   -3.3877   12.1965    1.7369 O   0  0  0  0  0  0  0  0  0  0  0  0
   -3.1520   11.3401   -0.4719 C   0  0  0  0  0  0  0  0  0  0  0  0
   -3.8700   12.3777   -1.1247 O   0  0  0  0  0  0  0  0  0  0  0  0
   -2.3263   10.5443   -1.1793 C   0  0  0  0  0  0  0  0  0  0  0  0
   -0.5830    6.0094    0.9876 N   0  0  0  0  0  0  0  0  0  0  0  0
   -1.4433    5.3520    1.7710 C   0  0  0  0  0  0  0  0  0  0  0  0
   -1.5019    6.0044    3.1440 C   0  0  0  0  0  0  0  0  0  0  0  0
   -0.2547    5.9591    3.7319 N   0  0  0  0  0  0  0  0  0  0  0  0
    0.6013    6.6776    2.9260 C   0  0  0  0  0  0  0  0  0  0  0  0
    0.6655    6.0255    1.5549 C   0  0  0  0  0  0  0  0  0  0  0  0
   -4.6793   12.7482    1.7151 C   0  0  0  0  0  0  0  0  0  0  0  0
   -5.0307   11.8325   -1.6953 C   0  0  0  0  0  0  0  0  0  0  0  0
  1 14  1  0  0  0  0
  1  2  2  0  0  0  0
  3  2  1  0  0  0  0
  3  8  2  0  0  0  0
  4  3  1  0  0  0  0
  5  7  2  0  0  0  0
  5  4  1  0  0  0  0
  6  5  1  0  0  0  0
  7  1  1  0  0  0  0
  9 10  1  0  0  0  0
  9  8  1  0  0  0  0
 11  9  2  0  0  0  0
 12 11  1  0  0  0  0
 13  4  2  0  0  0  0
 13 11  1  0  0  0  0
 14 15  1  0  0  0  0
 16 15  1  0  0  0  0
 17 16  1  0  0  0  0
 18 17  1  0  0  0  0
 18 19  1  0  0  0  0
 19 14  1  0  0  0  0
 20 10  1  0  0  0  0
 21 12  1  0  0  0  0
M  END
>  <CHROM.1>
39.49188764,-120.85800638,-92.82571185,-1.95852920,8.90728218,0.58603873
-0.56431096,0.95539522,-1.28998284

>  <Name>
lig.pdb

>  <RI>
3.07369e+07

>  <Rbt.Current_Directory>
/home/itssahil/PROJECTS/Mol_Feturizer/New_Systems/rnas/2lwk

>  <Rbt.Executable>
rbdock ($Id: //depot/dev/client3/rdock/2013.1/src/exe/rbdock.cxx#4 $)

>  <Rbt.Library>
libRbt.so (2013.1, Build901 2013/11/27)

>  <Rbt.Parameter_File>
/export/apps/rDock/src/rDock_2013.1_src/data/scripts/dock_solv.prm

>  <Rbt.Receptor>
prm/blind_docking_100.prm

>  <SCORE>
-21.1093

>  <SCORE.INTER>
-18.8505

>  <SCORE.INTER.CONST>
1

>  <SCORE.INTER.POLAR>
-1.58024

>  <SCORE.INTER.ROT>
3

>  <SCORE.INTER.SOLV>
13.6824

>  <SCORE.INTER.VDW>
-17.4603

>  <SCORE.INTER.norm>
-0.897643

>  <SCORE.INTRA>
-4.25313

>  <SCORE.INTRA.DIHEDRAL>
0.546842

>  <SCORE.INTRA.DIHEDRAL.0>
8.84257

>  <SCORE.INTRA.POLAR>
0

>  <SCORE.INTRA.POLAR.0>
0

>  <SCORE.INTRA.REPUL>
0

>  <SCORE.INTRA.REPUL.0>
0

>  <SCORE.INTRA.SOLV>
0.100018

>  <SCORE.INTRA.SOLV.lig_0>
-17.1313

>  <SCORE.INTRA.VDW>
-4.57656

>  <SCORE.INTRA.VDW.0>
6.34071

>  <SCORE.INTRA.norm>
-0.20253

>  <SCORE.RESTR>
1.99433

>  <SCORE.RESTR.CAVITY>
1.99433

>  <SCORE.RESTR.norm>
0.0949679

>  <SCORE.SYSTEM>
0

>  <SCORE.SYSTEM.CONST>
0

>  <SCORE.SYSTEM.DIHEDRAL>
0

>  <SCORE.SYSTEM.SOLV>
0

>  <SCORE.SYSTEM.norm>
0

>  <SCORE.heavy>
21

>  <SCORE.norm>
-1.0052

>  <RMSD>
12.676

$$$$
lig.pdb
 OpenBabel11021811453D
libRbt.so/2013.1/901 2013/11/27
 21 23  0  0  0  0  0  0  0  0999 V2000
   -0.9994    7.1380    0.4261 C   0  0  0  0  0  0  0  0  0  0  0  0
   -1.7662    7.9504    1.1447 N   0  0  0  0  0  0  0  0  0  0  0  0
   -2.2340    9.0630    0.6080 C   0  0  0  0  0  0  0  0  0  0  0  0
   -1.8756    9.4067   -0.6456 C   0  0  0  0  0  0  0  0  0  0  0  0
   -1.1050    8.5830   -1.3685 C   0  0  0  0  0  0  0  0  0  0  0  0
   -0.7417    8.9170   -2.6063 N   0  0  0  0  0  0  0  0  0  0  0  0
   -0.6672    7.4510   -0.8270 N   0  0  0  0  0  0  0  0  0  0  0  0
   -3.0281    9.8677    1.3338 C   0  0  0  0  0  0  0  0  0  0  0  0
   -3.3607   11.0986    0.8375 C   0  0  0  0  0  0  0  0  0  0  0  0
   -3.3909   12.1867    1.7421 O   0  0  0  0  0  0  0  0  0  0  0  0
   -3.1602   11.3359   -0.4693 C   0  0  0  0  0  0  0  0  0  0  0  0
   -3.8878   12.3701   -1.1168 O   0  0  0  0  0  0  0  0  0  0  0  0
   -2.3328   10.5467   -1.1822 C   0  0  0  0  0  0  0  0  0  0  0  0
   -0.5503    6.0191    0.9680 N   0  0  0  0  0  0  0  0  0  0  0  0
   -1.4160    5.3330    1.7203 C   0  0  0  0  0  0  0  0  0  0  0  0
   -1.5230    5.9646    3.1000 C   0  0  0  0  0  0  0  0  0  0  0  0
   -0.2904    5.9371    3.7189 N   0  0  0  0  0  0  0  0  0  0  0  0
    0.5702    6.6845    2.9449 C   0  0  0  0  0  0  0  0  0  0  0  0
    0.6829    6.0532    1.5673 C   0  0  0  0  0  0  0  0  0  0  0  0
   -4.6822   12.7390    1.7169 C   0  0  0  0  0  0  0  0  0  0  0  0
   -5.0488   11.8188   -1.6813 C   0  0  0  0  0  0  0  0  0  0  0  0
  1 14  1  0  0  0  0
  1  2  2  0  0  0  0
  3  2  1  0  0  0  0
  3  8  2  0  0  0  0
  4  3  1  0  0  0  0
  5  7  2  0  0  0  0
  5  4  1  0  0  0  0
  6  5  1  0  0  0  0
  7  1  1  0  0  0  0
  9 10  1  0  0  0  0
  9  8  1  0  0  0  0
 11  9  2  0  0  0  0
 12 11  1  0  0  0  0
 13  4  2  0  0  0  0
 13 11  1  0  0  0  0
 14 15  1  0  0  0  0
 16 15  1  0  0  0  0
 17 16  1  0  0  0  0
 18 17  1  0  0  0  0
 18 19  1  0  0  0  0
 19 14  1  0  0  0  0
 20 10  1  0  0  0  0
 21 12  1  0  0  0  0
M  END
>  <CHROM.1>
41.52928530,-121.46899760,-92.74014303,-1.95823627,8.90504834,0.57921416
-0.56548915,0.95310574,-1.28514284

>  <Name>
lig.pdb

>  <RI>
3.07369e+07

>  <Rbt.Current_Directory>
/home/itssahil/PROJECTS/Mol_Feturizer/New_Systems/rnas/2lwk

>  <Rbt.Executable>
rbdock ($Id: //depot/dev/client3/rdock/2013.1/src/exe/rbdock.cxx#4 $)

>  <Rbt.Library>
libRbt.so (2013.1, Build901 2013/11/27)

>  <Rbt.Parameter_File>
/export/apps/rDock/src/rDock_2013.1_src/data/scripts/dock_solv.prm

>  <Rbt.Receptor>
prm/blind_docking_100.prm

>  <SCORE>
-21.2906

>  <SCORE.INTER>
-19.0271

>  <SCORE.INTER.CONST>
1

>  <SCORE.INTER.POLAR>
-1.56179

>  <SCORE.INTER.ROT>
3

>  <SCORE.INTER.SOLV>
13.6808

>  <SCORE.INTER.VDW>
-17.639

>  <SCORE.INTER.norm>
-0.906053

>  <SCORE.INTRA>
-4.3053

>  <SCORE.INTRA.DIHEDRAL>
0.519237

>  <SCORE.INTRA.DIHEDRAL.0>
8.84257

>  <SCORE.INTRA.POLAR>
0

>  <SCORE.INTRA.POLAR.0>
0

>  <SCORE.INTRA.REPUL>
0

>  <SCORE.INTRA.REPUL.0>
0

>  <SCORE.INTRA.SOLV>
0.102906

>  <SCORE.INTRA.SOLV.lig_0>
-17.1313

>  <SCORE.INTRA.VDW>
-4.61637

>  <SCORE.INTRA.VDW.0>
6.34071

>  <SCORE.INTRA.norm>
-0.205014

>  <SCORE.RESTR>
2.04178

>  <SCORE.RESTR.CAVITY>
2.04178

>  <SCORE.RESTR.norm>
0.0972276

>  <SCORE.SYSTEM>
0

>  <SCORE.SYSTEM.CONST>
0

>  <SCORE.SYSTEM.DIHEDRAL>
0

>  <SCORE.SYSTEM.SOLV>
0

>  <SCORE.SYSTEM.norm>
0

>  <SCORE.heavy>
21

>  <SCORE.norm>
-1.01384

>  <RMSD>
12.677

$$$$
lig.pdb
 OpenBabel11021811453D
libRbt.so/2013.1/901 2013/11/27
 21 23  0  0  0  0  0  0  0  0999 V2000
   -0.2401    7.6201    0.9134 C   0  0  0  0  0  0  0  0  0  0  0  0
   -1.0964    8.4172    1.5424 N   0  0  0  0  0  0  0  0  0  0  0  0
   -1.8863    9.2166    0.8483 C   0  0  0  0  0  0  0  0  0  0  0  0
   -1.7734    9.2727   -0.4942 C   0  0  0  0  0  0  0  0  0  0  0  0
   -0.9111    8.4646   -1.1253 C   0  0  0  0  0  0  0  0  0  0  0  0
   -0.7892    8.5169   -2.4512 N   0  0  0  0  0  0  0  0  0  0  0  0
   -0.1446    7.6420   -0.4167 N   0  0  0  0  0  0  0  0  0  0  0  0
   -2.7661   10.0026    1.4908 C   0  0  0  0  0  0  0  0  0  0  0  0
   -3.4508   10.9526    0.7831 C   0  0  0  0  0  0  0  0  0  0  0  0
   -3.6462   12.2144    1.3937 O   0  0  0  0  0  0  0  0  0  0  0  0
   -3.4693   10.8611   -0.5569 C   0  0  0  0  0  0  0  0  0  0  0  0
   -4.5023   11.5018   -1.2921 O   0  0  0  0  0  0  0  0  0  0  0  0
   -2.5599   10.1001   -1.1967 C   0  0  0  0  0  0  0  0  0  0  0  0
    0.5340    6.8123    1.6174 N   0  0  0  0  0  0  0  0  0  0  0  0
    0.6548    5.5604    1.1653 C   0  0  0  0  0  0  0  0  0  0  0  0
   -0.5660    4.7432    1.5598 C   0  0  0  0  0  0  0  0  0  0  0  0
   -0.6712    4.7020    2.9347 N   0  0  0  0  0  0  0  0  0  0  0  0
   -0.8356    5.9991    3.3693 C   0  0  0  0  0  0  0  0  0  0  0  0
    0.3847    6.8170    2.9807 C   0  0  0  0  0  0  0  0  0  0  0  0
   -5.0120   12.3467    1.6941 C   0  0  0  0  0  0  0  0  0  0  0  0
   -4.1645   12.8540   -1.4589 C   0  0  0  0  0  0  0  0  0  0  0  0
  1 14  1  0  0  0  0
  1  2  2  0  0  0  0
  3  2  1  0  0  0  0
  3  8  2  0  0  0  0
  4  3  1  0  0  0  0
  5  7  2  0  0  0  0
  5  4  1  0  0  0  0
  6  5  1  0  0  0  0
  7  1  1  0  0  0  0
  9 10  1  0  0  0  0
  9  8  1  0  0  0  0
 11  9  2  0  0  0  0
 12 11  1  0  0  0  0
 13  4  2  0  0  0  0
 13 11  1  0  0  0  0
 14 15  1  0  0  0  0
 16 15  1  0  0  0  0
 17 16  1  0  0  0  0
 18 17  1  0  0  0  0
 18 19  1  0  0  0  0
 19 14  1  0  0  0  0
 20 10  1  0  0  0  0
 21 12  1  0  0  0  0
M  END
>  <CHROM.1>
136.07826907,-110.66143160,82.34860227,-1.78186229,8.80791227,0.63395932
-0.56236785,0.90029952,-1.24210862

>  <Name>
lig.pdb

>  <RI>
2.05709e+07

>  <Rbt.Current_Directory>
/home/itssahil/PROJECTS/Mol_Feturizer/New_Systems/rnas/2lwk

>  <Rbt.Executable>
rbdock ($Id: //depot/dev/client3/rdock/2013.1/src/exe/rbdock.cxx#4 $)

>  <Rbt.Library>
libRbt.so (2013.1, Build901 2013/11/27)

>  <Rbt.Parameter_File>
/export/apps/rDock/src/rDock_2013.1_src/data/scripts/dock_solv.prm

>  <Rbt.Receptor>
prm/blind_docking_40.prm

>  <SCORE>
-17.492

>  <SCORE.INTER>
-16.9698

>  <SCORE.INTER.CONST>
1

>  <SCORE.INTER.POLAR>
-1.6333

>  <SCORE.INTER.ROT>
3

>  <SCORE.INTER.SOLV>
14.3005

>  <SCORE.INTER.VDW>
-16.2357

>  <SCORE.INTER.norm>
-0.808086

>  <SCORE.INTRA>
-3.04414

>  <SCORE.INTRA.DIHEDRAL>
0.793197

>  <SCORE.INTRA.DIHEDRAL.0>
8.84257

>  <SCORE.INTRA.POLAR>
0

>  <SCORE.INTRA.POLAR.0>
0

>  <SCORE.INTRA.REPUL>
0

>  <SCORE.INTRA.REPUL.0>
0

>  <SCORE.INTRA.SOLV>
0.0549242

>  <SCORE.INTRA.SOLV.lig_0>
-17.1313

>  <SCORE.INTRA.VDW>
-3.4682

>  <SCORE.INTRA.VDW.0>
6.34071

>  <SCORE.INTRA.norm>
-0.144959

>  <SCORE.RESTR>
2.52196

>  <SCORE.RESTR.CAVITY>
2.52196

>  <SCORE.RESTR.norm>
0.120093

>  <SCORE.SYSTEM>
0

>  <SCORE.SYSTEM.CONST>
0

>  <SCORE.SYSTEM.DIHEDRAL>
0

>  <SCORE.SYSTEM.SOLV>
0

>  <SCORE.SYSTEM.norm>
0

>  <SCORE.heavy>
21

>  <SCORE.norm>
-0.832952

>  <RMSD>
12.677

$$$$
lig.pdb
 OpenBabel11021811453D
libRbt.so/2013.1/901 2013/11/27
 21 23  0  0  0  0  0  0  0  0999 V2000
   -0.9828    7.1399    0.4269 C   0  0  0  0  0  0  0  0  0  0  0  0
   -1.7515    7.9506    1.1454 N   0  0  0  0  0  0  0  0  0  0  0  0
   -2.2224    9.0618    0.6085 C   0  0  0  0  0  0  0  0  0  0  0  0
   -1.8653    9.4059   -0.6454 C   0  0  0  0  0  0  0  0  0  0  0  0
   -1.0928    8.5839   -1.3683 C   0  0  0  0  0  0  0  0  0  0  0  0
   -0.7308    8.9183   -2.6063 N   0  0  0  0  0  0  0  0  0  0  0  0
   -0.6518    7.4533   -0.8265 N   0  0  0  0  0  0  0  0  0  0  0  0
   -3.0183    9.8647    1.3341 C   0  0  0  0  0  0  0  0  0  0  0  0
   -3.3542   11.0946    0.8374 C   0  0  0  0  0  0  0  0  0  0  0  0
   -3.3870   12.1829    1.7416 O   0  0  0  0  0  0  0  0  0  0  0  0
   -3.1548   11.3319   -0.4695 C   0  0  0  0  0  0  0  0  0  0  0  0
   -3.8853   12.3639   -1.1172 O   0  0  0  0  0  0  0  0  0  0  0  0
   -2.3256   10.5445   -1.1823 C   0  0  0  0  0  0  0  0  0  0  0  0
   -0.5307    6.0224    0.9691 N   0  0  0  0  0  0  0  0  0  0  0  0
   -1.3978    5.3283    1.7124 C   0  0  0  0  0  0  0  0  0  0  0  0
   -1.5201    5.9550    3.0930 C   0  0  0  0  0  0  0  0  0  0  0  0
   -0.2924    5.9339    3.7218 N   0  0  0  0  0  0  0  0  0  0  0  0
    0.5695    6.6893    2.9570 C   0  0  0  0  0  0  0  0  0  0  0  0
    0.6974    6.0629    1.5784 C   0  0  0  0  0  0  0  0  0  0  0  0
   -4.6789   12.7337    1.7145 C   0  0  0  0  0  0  0  0  0  0  0  0
   -5.0749   11.8215   -1.6280 C   0  0  0  0  0  0  0  0  0  0  0  0
  1 14  1  0  0  0  0
  1  2  2  0  0  0  0
  3  2  1  0  0  0  0
  3  8  2  0  0  0  0
  4  3  1  0  0  0  0
  5  7  2  0  0  0  0
  5  4  1  0  0  0  0
  6  5  1  0  0  0  0
  7  1  1  0  0  0  0
  9 10  1  0  0  0  0
  9  8  1  0  0  0  0
 11  9  2  0  0  0  0
 12 11  1  0  0  0  0
 13  4  2  0  0  0  0
 13 11  1  0  0  0  0
 14 15  1  0  0  0  0
 16 15  1  0  0  0  0
 17 16  1  0  0  0  0
 18 17  1  0  0  0  0
 18 19  1  0  0  0  0
 19 14  1  0  0  0  0
 20 10  1  0  0  0  0
 21 12  1  0  0  0  0
M  END
>  <CHROM.1>
42.09536971,-121.59387568,-90.06432571,-1.95110573,8.90403951,0.58253780
-0.56690086,0.95008288,-1.28109471

>  <Name>
lig.pdb

>  <RI>
3.07369e+07

>  <Rbt.Current_Directory>
/home/itssahil/PROJECTS/Mol_Feturizer/New_Systems/rnas/2lwk

>  <Rbt.Executable>
rbdock ($Id: //depot/dev/client3/rdock/2013.1/src/exe/rbdock.cxx#4 $)

>  <Rbt.Library>
libRbt.so (2013.1, Build901 2013/11/27)

>  <Rbt.Parameter_File>
/export/apps/rDock/src/rDock_2013.1_src/data/scripts/dock_solv.prm

>  <Rbt.Receptor>
prm/blind_docking_100.prm

>  <SCORE>
-21.2572

>  <SCORE.INTER>
-18.9821

>  <SCORE.INTER.CONST>
1

>  <SCORE.INTER.POLAR>
-1.56371

>  <SCORE.INTER.ROT>
3

>  <SCORE.INTER.SOLV>
13.761

>  <SCORE.INTER.VDW>
-17.6294

>  <SCORE.INTER.norm>
-0.903908

>  <SCORE.INTRA>
-4.3104

>  <SCORE.INTRA.DIHEDRAL>
0.539459

>  <SCORE.INTRA.DIHEDRAL.0>
8.84257

>  <SCORE.INTRA.POLAR>
0

>  <SCORE.INTRA.POLAR.0>
0

>  <SCORE.INTRA.REPUL>
0

>  <SCORE.INTRA.REPUL.0>
0

>  <SCORE.INTRA.SOLV>
0.105136

>  <SCORE.INTRA.SOLV.lig_0>
-17.1313

>  <SCORE.INTRA.VDW>
-4.6327

>  <SCORE.INTRA.VDW.0>
6.34071

>  <SCORE.INTRA.norm>
-0.205257

>  <SCORE.RESTR>
2.03524

>  <SCORE.RESTR.CAVITY>
2.03524

>  <SCORE.RESTR.norm>
0.0969164

>  <SCORE.SYSTEM>
0

>  <SCORE.SYSTEM.CONST>
0

>  <SCORE.SYSTEM.DIHEDRAL>
0

>  <SCORE.SYSTEM.SOLV>
0

>  <SCORE.SYSTEM.norm>
0

>  <SCORE.heavy>
21

>  <SCORE.norm>
-1.01225

>  <RMSD>
12.678

$$$$
lig.pdb
 OpenBabel11021811453D
libRbt.so/2013.1/901 2013/11/27
 21 23  0  0  0  0  0  0  0  0999 V2000
   -0.9854    7.1447    0.4275 C   0  0  0  0  0  0  0  0  0  0  0  0
   -1.7529    7.9550    1.1477 N   0  0  0  0  0  0  0  0  0  0  0  0
   -2.2270    9.0651    0.6113 C   0  0  0  0  0  0  0  0  0  0  0  0
   -1.8743    9.4086   -0.6440 C   0  0  0  0  0  0  0  0  0  0  0  0
   -1.1030    8.5870   -1.3686 C   0  0  0  0  0  0  0  0  0  0  0  0
   -0.7453    8.9208   -2.6081 N   0  0  0  0  0  0  0  0  0  0  0  0
   -0.6588    7.4575   -0.8272 N   0  0  0  0  0  0  0  0  0  0  0  0
   -3.0217    9.8676    1.3388 C   0  0  0  0  0  0  0  0  0  0  0  0
   -3.3608   11.0966    0.8420 C   0  0  0  0  0  0  0  0  0  0  0  0
   -3.3922   12.1857    1.7454 O   0  0  0  0  0  0  0  0  0  0  0  0
   -3.1658   11.3330   -0.4658 C   0  0  0  0  0  0  0  0  0  0  0  0
   -3.8998   12.3635   -1.1120 O   0  0  0  0  0  0  0  0  0  0  0  0
   -2.3378   10.5461   -1.1805 C   0  0  0  0  0  0  0  0  0  0  0  0
   -0.5300    6.0283    0.9693 N   0  0  0  0  0  0  0  0  0  0  0  0
   -1.3929    5.3355    1.7187 C   0  0  0  0  0  0  0  0  0  0  0  0
   -1.5076    5.9648    3.0988 C   0  0  0  0  0  0  0  0  0  0  0  0
   -0.2764    5.9450    3.7207 N   0  0  0  0  0  0  0  0  0  0  0  0
    0.5811    6.6991    2.9497 C   0  0  0  0  0  0  0  0  0  0  0  0
    0.7014    6.0702    1.5716 C   0  0  0  0  0  0  0  0  0  0  0  0
   -4.6824   12.7404    1.7151 C   0  0  0  0  0  0  0  0  0  0  0  0
   -5.0788   11.8140   -1.6396 C   0  0  0  0  0  0  0  0  0  0  0  0
  1 14  1  0  0  0  0
  1  2  2  0  0  0  0
  3  2  1  0  0  0  0
  3  8  2  0  0  0  0
  4  3  1  0  0  0  0
  5  7  2  0  0  0  0
  5  4  1  0  0  0  0
  6  5  1  0  0  0  0
  7  1  1  0  0  0  0
  9 10  1  0  0  0  0
  9  8  1  0  0  0  0
 11  9  2  0  0  0  0
 12 11  1  0  0  0  0
 13  4  2  0  0  0  0
 13 11  1  0  0  0  0
 14 15  1  0  0  0  0
 16 15  1  0  0  0  0
 17 16  1  0  0  0  0
 18 17  1  0  0  0  0
 18 19  1  0  0  0  0
 19 14  1  0  0  0  0
 20 10  1  0  0  0  0
 21 12  1  0  0  0  0
M  END
>  <CHROM.1>
41.93117251,-121.99055120,-91.11552103,-1.95386422,8.90811287,0.58312521
-0.55992518,0.95026736,-1.28909457

>  <Name>
lig.pdb

>  <RI>
3.07369e+07

>  <Rbt.Current_Directory>
/home/itssahil/PROJECTS/Mol_Feturizer/New_Systems/rnas/2lwk

>  <Rbt.Executable>
rbdock ($Id: //depot/dev/client3/rdock/2013.1/src/exe/rbdock.cxx#4 $)

>  <Rbt.Library>
libRbt.so (2013.1, Build901 2013/11/27)

>  <Rbt.Parameter_File>
/export/apps/rDock/src/rDock_2013.1_src/data/scripts/dock_solv.prm

>  <Rbt.Receptor>
prm/blind_docking_100.prm

>  <SCORE>
-21.2597

>  <SCORE.INTER>
-19.0027

>  <SCORE.INTER.CONST>
1

>  <SCORE.INTER.POLAR>
-1.57998

>  <SCORE.INTER.ROT>
3

>  <SCORE.INTER.SOLV>
13.7652

>  <SCORE.INTER.VDW>
-17.5903

>  <SCORE.INTER.norm>
-0.90489

>  <SCORE.INTRA>
-4.29065

>  <SCORE.INTRA.DIHEDRAL>
0.512543

>  <SCORE.INTRA.DIHEDRAL.0>
8.84257

>  <SCORE.INTRA.POLAR>
0

>  <SCORE.INTRA.POLAR.0>
0

>  <SCORE.INTRA.REPUL>
0

>  <SCORE.INTRA.REPUL.0>
0

>  <SCORE.INTRA.SOLV>
0.104765

>  <SCORE.INTRA.SOLV.lig_0>
-17.1313

>  <SCORE.INTRA.VDW>
-4.5993

>  <SCORE.INTRA.VDW.0>
6.34071

>  <SCORE.INTRA.norm>
-0.204317

>  <SCORE.RESTR>
2.0336

>  <SCORE.RESTR.CAVITY>
2.0336

>  <SCORE.RESTR.norm>
0.0968379

>  <SCORE.SYSTEM>
0

>  <SCORE.SYSTEM.CONST>
0

>  <SCORE.SYSTEM.DIHEDRAL>
0

>  <SCORE.SYSTEM.SOLV>
0

>  <SCORE.SYSTEM.norm>
0

>  <SCORE.heavy>
21

>  <SCORE.norm>
-1.01237

>  <RMSD>
12.678

$$$$
lig.pdb
 OpenBabel11021811453D
libRbt.so/2013.1/901 2013/11/27
 21 23  0  0  0  0  0  0  0  0999 V2000
   -1.0026    7.1387    0.4401 C   0  0  0  0  0  0  0  0  0  0  0  0
   -1.7724    7.9532    1.1531 N   0  0  0  0  0  0  0  0  0  0  0  0
   -2.2363    9.0653    0.6118 C   0  0  0  0  0  0  0  0  0  0  0  0
   -1.8711    9.4061   -0.6406 C   0  0  0  0  0  0  0  0  0  0  0  0
   -1.0976    8.5803   -1.3579 C   0  0  0  0  0  0  0  0  0  0  0  0
   -0.7276    8.9115   -2.5945 N   0  0  0  0  0  0  0  0  0  0  0  0
   -0.6637    7.4490   -0.8120 N   0  0  0  0  0  0  0  0  0  0  0  0
   -3.0333    9.8721    1.3319 C   0  0  0  0  0  0  0  0  0  0  0  0
   -3.3622   11.1024    0.8315 C   0  0  0  0  0  0  0  0  0  0  0  0
   -3.3961   12.1922    1.7339 O   0  0  0  0  0  0  0  0  0  0  0  0
   -3.1548   11.3369   -0.4747 C   0  0  0  0  0  0  0  0  0  0  0  0
   -3.8781   12.3705   -1.1279 O   0  0  0  0  0  0  0  0  0  0  0  0
   -2.3245   10.5456   -1.1817 C   0  0  0  0  0  0  0  0  0  0  0  0
   -0.5574    6.0205    0.9864 N   0  0  0  0  0  0  0  0  0  0  0  0
   -1.4192    5.3509    1.7579 C   0  0  0  0  0  0  0  0  0  0  0  0
   -1.4994    5.9970    3.1327 C   0  0  0  0  0  0  0  0  0  0  0  0
   -0.2583    5.9625    3.7339 N   0  0  0  0  0  0  0  0  0  0  0  0
    0.5987    6.6932    2.9402 C   0  0  0  0  0  0  0  0  0  0  0  0
    0.6847    6.0474    1.5674 C   0  0  0  0  0  0  0  0  0  0  0  0
   -4.6902   12.7381    1.7100 C   0  0  0  0  0  0  0  0  0  0  0  0
   -5.0346   11.8185   -1.7007 C   0  0  0  0  0  0  0  0  0  0  0  0
  1 14  1  0  0  0  0
  1  2  2  0  0  0  0
  3  2  1  0  0  0  0
  3  8  2  0  0  0  0
  4  3  1  0  0  0  0
  5  7  2  0  0  0  0
  5  4  1  0  0  0  0
  6  5  1  0  0  0  0
  7  1  1  0  0  0  0
  9 10  1  0  0  0  0
  9  8  1  0  0  0  0
 11  9  2  0  0  0  0
 12 11  1  0  0  0  0
 13  4  2  0  0  0  0
 13 11  1  0  0  0  0
 14 15  1  0  0  0  0
 16 15  1  0  0  0  0
 17 16  1  0  0  0  0
 18 17  1  0  0  0  0
 18 19  1  0  0  0  0
 19 14  1  0  0  0  0
 20 10  1  0  0  0  0
 21 12  1  0  0  0  0
M  END
>  <CHROM.1>
40.19594510,-120.94127381,-92.91427781,-1.95266277,8.90934167,0.58428499
-0.56666898,0.95088532,-1.28754883

>  <Name>
lig.pdb

>  <RI>
3.07369e+07

>  <Rbt.Current_Directory>
/home/itssahil/PROJECTS/Mol_Feturizer/New_Systems/rnas/2lwk

>  <Rbt.Executable>
rbdock ($Id: //depot/dev/client3/rdock/2013.1/src/exe/rbdock.cxx#4 $)

>  <Rbt.Library>
libRbt.so (2013.1, Build901 2013/11/27)

>  <Rbt.Parameter_File>
/export/apps/rDock/src/rDock_2013.1_src/data/scripts/dock_solv.prm

>  <Rbt.Receptor>
prm/blind_docking_100.prm

>  <SCORE>
-21.1349

>  <SCORE.INTER>
-18.8571

>  <SCORE.INTER.CONST>
1

>  <SCORE.INTER.POLAR>
-1.58023

>  <SCORE.INTER.ROT>
3

>  <SCORE.INTER.SOLV>
13.7656

>  <SCORE.INTER.VDW>
-17.4925

>  <SCORE.INTER.norm>
-0.897958

>  <SCORE.INTRA>
-4.27726

>  <SCORE.INTRA.DIHEDRAL>
0.541701

>  <SCORE.INTRA.DIHEDRAL.0>
8.84257

>  <SCORE.INTRA.POLAR>
0

>  <SCORE.INTRA.POLAR.0>
0

>  <SCORE.INTRA.REPUL>
0

>  <SCORE.INTRA.REPUL.0>
0

>  <SCORE.INTRA.SOLV>
0.100845

>  <SCORE.INTRA.SOLV.lig_0>
-17.1313

>  <SCORE.INTRA.VDW>
-4.59853

>  <SCORE.INTRA.VDW.0>
6.34071

>  <SCORE.INTRA.norm>
-0.203679

>  <SCORE.RESTR>
1.99945

>  <SCORE.RESTR.CAVITY>
1.99945

>  <SCORE.RESTR.norm>
0.0952119

>  <SCORE.SYSTEM>
0

>  <SCORE.SYSTEM.CONST>
0

>  <SCORE.SYSTEM.DIHEDRAL>
0

>  <SCORE.SYSTEM.SOLV>
0

>  <SCORE.SYSTEM.norm>
0

>  <SCORE.heavy>
21

>  <SCORE.norm>
-1.00643

>  <RMSD>
12.679

$$$$
lig.pdb
 OpenBabel11021811453D
libRbt.so/2013.1/901 2013/11/27
 21 23  0  0  0  0  0  0  0  0999 V2000
   -1.0064    7.1352    0.4431 C   0  0  0  0  0  0  0  0  0  0  0  0
   -1.7772    7.9492    1.1554 N   0  0  0  0  0  0  0  0  0  0  0  0
   -2.2372    9.0635    0.6154 C   0  0  0  0  0  0  0  0  0  0  0  0
   -1.8668    9.4070   -0.6348 C   0  0  0  0  0  0  0  0  0  0  0  0
   -1.0921    8.5816   -1.3514 C   0  0  0  0  0  0  0  0  0  0  0  0
   -0.7170    8.9153   -2.5857 N   0  0  0  0  0  0  0  0  0  0  0  0
   -0.6623    7.4481   -0.8068 N   0  0  0  0  0  0  0  0  0  0  0  0
   -3.0354    9.8699    1.3347 C   0  0  0  0  0  0  0  0  0  0  0  0
   -3.3601   11.1021    0.8362 C   0  0  0  0  0  0  0  0  0  0  0  0
   -3.3953   12.1897    1.7413 O   0  0  0  0  0  0  0  0  0  0  0  0
   -3.1475   11.3397   -0.4686 C   0  0  0  0  0  0  0  0  0  0  0  0
   -3.8665   12.3763   -1.1218 O   0  0  0  0  0  0  0  0  0  0  0  0
   -2.3160   10.5486   -1.1746 C   0  0  0  0  0  0  0  0  0  0  0  0
   -0.5652    6.0147    0.9882 N   0  0  0  0  0  0  0  0  0  0  0  0
   -1.4292    5.3477    1.7594 C   0  0  0  0  0  0  0  0  0  0  0  0
   -1.5064    5.9928    3.1349 C   0  0  0  0  0  0  0  0  0  0  0  0
   -0.2652    5.9529    3.7355 N   0  0  0  0  0  0  0  0  0  0  0  0
    0.5943    6.6811    2.9422 C   0  0  0  0  0  0  0  0  0  0  0  0
    0.6772    6.0363    1.5687 C   0  0  0  0  0  0  0  0  0  0  0  0
   -4.6871   12.7406    1.7110 C   0  0  0  0  0  0  0  0  0  0  0  0
   -5.0252   11.8291   -1.6948 C   0  0  0  0  0  0  0  0  0  0  0  0
  1 14  1  0  0  0  0
  1  2  2  0  0  0  0
  3  2  1  0  0  0  0
  3  8  2  0  0  0  0
  4  3  1  0  0  0  0
  5  7  2  0  0  0  0
  5  4  1  0  0  0  0
  6  5  1  0  0  0  0
  7  1  1  0  0  0  0
  9 10  1  0  0  0  0
  9  8  1  0  0  0  0
 11  9  2  0  0  0  0
 12 11  1  0  0  0  0
 13  4  2  0  0  0  0
 13 11  1  0  0  0  0
 14 15  1  0  0  0  0
 16 15  1  0  0  0  0
 17 16  1  0  0  0  0
 18 17  1  0  0  0  0
 18 19  1  0  0  0  0
 19 14  1  0  0  0  0
 20 10  1  0  0  0  0
 21 12  1  0  0  0  0
M  END
>  <CHROM.1>
39.91790540,-121.12117352,-92.63624312,-1.95214479,8.90792349,0.58844071
-0.57184414,0.95128574,-1.28084301

>  <Name>
lig.pdb

>  <RI>
3.07369e+07

>  <Rbt.Current_Directory>
/home/itssahil/PROJECTS/Mol_Feturizer/New_Systems/rnas/2lwk

>  <Rbt.Executable>
rbdock ($Id: //depot/dev/client3/rdock/2013.1/src/exe/rbdock.cxx#4 $)

>  <Rbt.Library>
libRbt.so (2013.1, Build901 2013/11/27)

>  <Rbt.Parameter_File>
/export/apps/rDock/src/rDock_2013.1_src/data/scripts/dock_solv.prm

>  <Rbt.Receptor>
prm/blind_docking_100.prm

>  <SCORE>
-21.0757

>  <SCORE.INTER>
-18.8001

>  <SCORE.INTER.CONST>
1

>  <SCORE.INTER.POLAR>
-1.55776

>  <SCORE.INTER.ROT>
3

>  <SCORE.INTER.SOLV>
13.7518

>  <SCORE.INTER.VDW>
-17.5248

>  <SCORE.INTER.norm>
-0.895245

>  <SCORE.INTRA>
-4.25805

>  <SCORE.INTRA.DIHEDRAL>
0.53717

>  <SCORE.INTRA.DIHEDRAL.0>
8.84257

>  <SCORE.INTRA.POLAR>
0

>  <SCORE.INTRA.POLAR.0>
0

>  <SCORE.INTRA.REPUL>
0

>  <SCORE.INTRA.REPUL.0>
0

>  <SCORE.INTRA.SOLV>
0.100873

>  <SCORE.INTRA.SOLV.lig_0>
-17.1313

>  <SCORE.INTRA.VDW>
-4.57707

>  <SCORE.INTRA.VDW.0>
6.34071

>  <SCORE.INTRA.norm>
-0.202764

>  <SCORE.RESTR>
1.98252

>  <SCORE.RESTR.CAVITY>
1.98252

>  <SCORE.RESTR.norm>
0.0944056

>  <SCORE.SYSTEM>
0

>  <SCORE.SYSTEM.CONST>
0

>  <SCORE.SYSTEM.DIHEDRAL>
0

>  <SCORE.SYSTEM.SOLV>
0

>  <SCORE.SYSTEM.norm>
0

>  <SCORE.heavy>
21

>  <SCORE.norm>
-1.0036

>  <RMSD>
12.679

$$$$
lig.pdb
 OpenBabel11021811453D
libRbt.so/2013.1/901 2013/11/27
 21 23  0  0  0  0  0  0  0  0999 V2000
   -1.0229    7.1420    0.4374 C   0  0  0  0  0  0  0  0  0  0  0  0
   -1.7895    7.9594    1.1505 N   0  0  0  0  0  0  0  0  0  0  0  0
   -2.2485    9.0737    0.6096 C   0  0  0  0  0  0  0  0  0  0  0  0
   -1.8815    9.4135   -0.6426 C   0  0  0  0  0  0  0  0  0  0  0  0
   -1.1112    8.5847   -1.3600 C   0  0  0  0  0  0  0  0  0  0  0  0
   -0.7394    8.9149   -2.5963 N   0  0  0  0  0  0  0  0  0  0  0  0
   -0.6822    7.4514   -0.8144 N   0  0  0  0  0  0  0  0  0  0  0  0
   -3.0423    9.8836    1.3297 C   0  0  0  0  0  0  0  0  0  0  0  0
   -3.3658   11.1155    0.8297 C   0  0  0  0  0  0  0  0  0  0  0  0
   -3.3954   12.2051    1.7325 O   0  0  0  0  0  0  0  0  0  0  0  0
   -3.1570   11.3497   -0.4764 C   0  0  0  0  0  0  0  0  0  0  0  0
   -3.8757   12.3866   -1.1294 O   0  0  0  0  0  0  0  0  0  0  0  0
   -2.3298   10.5551   -1.1834 C   0  0  0  0  0  0  0  0  0  0  0  0
   -0.5826    6.0216    0.9835 N   0  0  0  0  0  0  0  0  0  0  0  0
   -1.4429    5.3628    1.7658 C   0  0  0  0  0  0  0  0  0  0  0  0
   -1.5037    6.0145    3.1389 C   0  0  0  0  0  0  0  0  0  0  0  0
   -0.2570    5.9707    3.7281 N   0  0  0  0  0  0  0  0  0  0  0  0
    0.5988    6.6906    2.9233 C   0  0  0  0  0  0  0  0  0  0  0  0
    0.6653    6.0392    1.5521 C   0  0  0  0  0  0  0  0  0  0  0  0
   -4.6893   12.7514    1.7144 C   0  0  0  0  0  0  0  0  0  0  0  0
   -5.0596   11.8498   -1.6590 C   0  0  0  0  0  0  0  0  0  0  0  0
  1 14  1  0  0  0  0
  1  2  2  0  0  0  0
  3  2  1  0  0  0  0
  3  8  2  0  0  0  0
  4  3  1  0  0  0  0
  5  7  2  0  0  0  0
  5  4  1  0  0  0  0
  6  5  1  0  0  0  0
  7  1  1  0  0  0  0
  9 10  1  0  0  0  0
  9  8  1  0  0  0  0
 11  9  2  0  0  0  0
 12 11  1  0  0  0  0
 13  4  2  0  0  0  0
 13 11  1  0  0  0  0
 14 15  1  0  0  0  0
 16 15  1  0  0  0  0
 17 16  1  0  0  0  0
 18 17  1  0  0  0  0
 18 19  1  0  0  0  0
 19 14  1  0  0  0  0
 20 10  1  0  0  0  0
 21 12  1  0  0  0  0
M  END
>  <CHROM.1>
39.50774489,-120.59146667,-90.69289574,-1.96280267,8.91823149,0.58416576
-0.56505499,0.95283005,-1.28682322

>  <Name>
lig.pdb

>  <RI>
3.07369e+07

>  <Rbt.Current_Directory>
/home/itssahil/PROJECTS/Mol_Feturizer/New_Systems/rnas/2lwk

>  <Rbt.Executable>
rbdock ($Id: //depot/dev/client3/rdock/2013.1/src/exe/rbdock.cxx#4 $)

>  <Rbt.Library>
libRbt.so (2013.1, Build901 2013/11/27)

>  <Rbt.Parameter_File>
/export/apps/rDock/src/rDock_2013.1_src/data/scripts/dock_solv.prm

>  <Rbt.Receptor>
prm/blind_docking_100.prm

>  <SCORE>
-21.1485

>  <SCORE.INTER>
-18.8859

>  <SCORE.INTER.CONST>
1

>  <SCORE.INTER.POLAR>
-1.58308

>  <SCORE.INTER.ROT>
3

>  <SCORE.INTER.SOLV>
13.6841

>  <SCORE.INTER.VDW>
-17.475

>  <SCORE.INTER.norm>
-0.899327

>  <SCORE.INTRA>
-4.26143

>  <SCORE.INTRA.DIHEDRAL>
0.582198

>  <SCORE.INTRA.DIHEDRAL.0>
8.84257

>  <SCORE.INTRA.POLAR>
0

>  <SCORE.INTRA.POLAR.0>
0

>  <SCORE.INTRA.REPUL>
0

>  <SCORE.INTRA.REPUL.0>
0

>  <SCORE.INTRA.SOLV>
0.100973

>  <SCORE.INTRA.SOLV.lig_0>
-17.1313

>  <SCORE.INTRA.VDW>
-4.60302

>  <SCORE.INTRA.VDW.0>
6.34071

>  <SCORE.INTRA.norm>
-0.202925

>  <SCORE.RESTR>
1.9988

>  <SCORE.RESTR.CAVITY>
1.9988

>  <SCORE.RESTR.norm>
0.0951807

>  <SCORE.SYSTEM>
0

>  <SCORE.SYSTEM.CONST>
0

>  <SCORE.SYSTEM.DIHEDRAL>
0

>  <SCORE.SYSTEM.SOLV>
0

>  <SCORE.SYSTEM.norm>
0

>  <SCORE.heavy>
21

>  <SCORE.norm>
-1.00707

>  <RMSD>
12.683

$$$$
lig.pdb
 OpenBabel11021811453D
libRbt.so/2013.1/901 2013/11/27
 21 23  0  0  0  0  0  0  0  0999 V2000
   -1.0060    7.1434    0.4377 C   0  0  0  0  0  0  0  0  0  0  0  0
   -1.7758    7.9594    1.1489 N   0  0  0  0  0  0  0  0  0  0  0  0
   -2.2355    9.0729    0.6069 C   0  0  0  0  0  0  0  0  0  0  0  0
   -1.8658    9.4135   -0.6443 C   0  0  0  0  0  0  0  0  0  0  0  0
   -1.0922    8.5862   -1.3598 C   0  0  0  0  0  0  0  0  0  0  0  0
   -0.7178    8.9171   -2.5951 N   0  0  0  0  0  0  0  0  0  0  0  0
   -0.6626    7.4535   -0.8131 N   0  0  0  0  0  0  0  0  0  0  0  0
   -3.0327    9.8813    1.3251 C   0  0  0  0  0  0  0  0  0  0  0  0
   -3.3571   11.1126    0.8243 C   0  0  0  0  0  0  0  0  0  0  0  0
   -3.3910   12.2021    1.7271 O   0  0  0  0  0  0  0  0  0  0  0  0
   -3.1453   11.3473   -0.4812 C   0  0  0  0  0  0  0  0  0  0  0  0
   -3.8642   12.3830   -1.1360 O   0  0  0  0  0  0  0  0  0  0  0  0
   -2.3148   10.5543   -1.1862 C   0  0  0  0  0  0  0  0  0  0  0  0
   -0.5650    6.0239    0.9848 N   0  0  0  0  0  0  0  0  0  0  0  0
   -1.4304    5.3565    1.7542 C   0  0  0  0  0  0  0  0  0  0  0  0
   -1.5119    6.0025    3.1290 C   0  0  0  0  0  0  0  0  0  0  0  0
   -0.2722    5.9644    3.7330 N   0  0  0  0  0  0  0  0  0  0  0  0
    0.5886    6.6929    2.9414 C   0  0  0  0  0  0  0  0  0  0  0  0
    0.6758    6.0472    1.5685 C   0  0  0  0  0  0  0  0  0  0  0  0
   -4.6885   12.7401    1.7129 C   0  0  0  0  0  0  0  0  0  0  0  0
   -5.0311   11.8381   -1.6943 C   0  0  0  0  0  0  0  0  0  0  0  0
  1 14  1  0  0  0  0
  1  2  2  0  0  0  0
  3  2  1  0  0  0  0
  3  8  2  0  0  0  0
  4  3  1  0  0  0  0
  5  7  2  0  0  0  0
  5  4  1  0  0  0  0
  6  5  1  0  0  0  0
  7  1  1  0  0  0  0
  9 10  1  0  0  0  0
  9  8  1  0  0  0  0
 11  9  2  0  0  0  0
 12 11  1  0  0  0  0
 13  4  2  0  0  0  0
 13 11  1  0  0  0  0
 14 15  1  0  0  0  0
 16 15  1  0  0  0  0
 17 16  1  0  0  0  0
 18 17  1  0  0  0  0
 18 19  1  0  0  0  0
 19 14  1  0  0  0  0
 20 10  1  0  0  0  0
 21 12  1  0  0  0  0
M  END
>  <CHROM.1>
40.14819918,-120.17562731,-91.98879011,-1.95266114,8.91603319,0.58167514
-0.57260846,0.95141351,-1.28102508

>  <Name>
lig.pdb

>  <RI>
3.07369e+07

>  <Rbt.Current_Directory>
/home/itssahil/PROJECTS/Mol_Feturizer/New_Systems/rnas/2lwk

>  <Rbt.Executable>
rbdock ($Id: //depot/dev/client3/rdock/2013.1/src/exe/rbdock.cxx#4 $)

>  <Rbt.Library>
libRbt.so (2013.1, Build901 2013/11/27)

>  <Rbt.Parameter_File>
/export/apps/rDock/src/rDock_2013.1_src/data/scripts/dock_solv.prm

>  <Rbt.Receptor>
prm/blind_docking_100.prm

>  <SCORE>
-21.1522

>  <SCORE.INTER>
-18.848

>  <SCORE.INTER.CONST>
1

>  <SCORE.INTER.POLAR>
-1.57244

>  <SCORE.INTER.ROT>
3

>  <SCORE.INTER.SOLV>
13.7564

>  <SCORE.INTER.VDW>
-17.5093

>  <SCORE.INTER.norm>
-0.897525

>  <SCORE.INTRA>
-4.30948

>  <SCORE.INTRA.DIHEDRAL>
0.588477

>  <SCORE.INTRA.DIHEDRAL.0>
8.84257

>  <SCORE.INTRA.POLAR>
0

>  <SCORE.INTRA.POLAR.0>
0

>  <SCORE.INTRA.REPUL>
0

>  <SCORE.INTRA.REPUL.0>
0

>  <SCORE.INTRA.SOLV>
0.100531

>  <SCORE.INTRA.SOLV.lig_0>
-17.1313

>  <SCORE.INTRA.VDW>
-4.65398

>  <SCORE.INTRA.VDW.0>
6.34071

>  <SCORE.INTRA.norm>
-0.205213

>  <SCORE.RESTR>
2.00525

>  <SCORE.RESTR.CAVITY>
2.00525

>  <SCORE.RESTR.norm>
0.095488

>  <SCORE.SYSTEM>
0

>  <SCORE.SYSTEM.CONST>
0

>  <SCORE.SYSTEM.DIHEDRAL>
0

>  <SCORE.SYSTEM.SOLV>
0

>  <SCORE.SYSTEM.norm>
0

>  <SCORE.heavy>
21

>  <SCORE.norm>
-1.00725

>  <RMSD>
12.687

$$$$
lig.pdb
 OpenBabel11021811453D
libRbt.so/2013.1/901 2013/11/27
 21 23  0  0  0  0  0  0  0  0999 V2000
   -0.2397    7.6589    0.9272 C   0  0  0  0  0  0  0  0  0  0  0  0
   -1.0849    8.4822    1.5370 N   0  0  0  0  0  0  0  0  0  0  0  0
   -1.8691    9.2705    0.8239 C   0  0  0  0  0  0  0  0  0  0  0  0
   -1.7612    9.2880   -0.5200 C   0  0  0  0  0  0  0  0  0  0  0  0
   -0.9101    8.4535   -1.1318 C   0  0  0  0  0  0  0  0  0  0  0  0
   -0.7932    8.4676   -2.4590 N   0  0  0  0  0  0  0  0  0  0  0  0
   -0.1495    7.6428   -0.4034 N   0  0  0  0  0  0  0  0  0  0  0  0
   -2.7378   10.0835    1.4477 C   0  0  0  0  0  0  0  0  0  0  0  0
   -3.4154   11.0207    0.7165 C   0  0  0  0  0  0  0  0  0  0  0  0
   -3.5949   12.3010    1.2924 O   0  0  0  0  0  0  0  0  0  0  0  0
   -3.4405   10.8921   -0.6204 C   0  0  0  0  0  0  0  0  0  0  0  0
   -4.4696   11.5233   -1.3692 O   0  0  0  0  0  0  0  0  0  0  0  0
   -2.5418   10.1039   -1.2422 C   0  0  0  0  0  0  0  0  0  0  0  0
    0.5287    6.8627    1.6503 N   0  0  0  0  0  0  0  0  0  0  0  0
    0.6970    5.6193    1.1901 C   0  0  0  0  0  0  0  0  0  0  0  0
   -0.5163    4.7678    1.5321 C   0  0  0  0  0  0  0  0  0  0  0  0
   -0.6696    4.7088    2.9018 N   0  0  0  0  0  0  0  0  0  0  0  0
   -0.8820    5.9965    3.3433 C   0  0  0  0  0  0  0  0  0  0  0  0
    0.3306    6.8486    3.0073 C   0  0  0  0  0  0  0  0  0  0  0  0
   -4.9657   12.4784    1.5426 C   0  0  0  0  0  0  0  0  0  0  0  0
   -3.9402   11.9397   -2.6006 C   0  0  0  0  0  0  0  0  0  0  0  0
  1 14  1  0  0  0  0
  1  2  2  0  0  0  0
  3  2  1  0  0  0  0
  3  8  2  0  0  0  0
  4  3  1  0  0  0  0
  5  7  2  0  0  0  0
  5  4  1  0  0  0  0
  6  5  1  0  0  0  0
  7  1  1  0  0  0  0
  9 10  1  0  0  0  0
  9  8  1  0  0  0  0
 11  9  2  0  0  0  0
 12 11  1  0  0  0  0
 13  4  2  0  0  0  0
 13 11  1  0  0  0  0
 14 15  1  0  0  0  0
 16 15  1  0  0  0  0
 17 16  1  0  0  0  0
 18 17  1  0  0  0  0
 18 19  1  0  0  0  0
 19 14  1  0  0  0  0
 20 10  1  0  0  0  0
 21 12  1  0  0  0  0
M  END
>  <CHROM.1>
139.85461780,-113.10157785,145.58438083,-1.75763983,8.79380272,0.54549657
-0.55383672,0.91402256,-1.31332103

>  <Name>
lig.pdb

>  <RI>
3.07369e+07

>  <Rbt.Current_Directory>
/home/itssahil/PROJECTS/Mol_Feturizer/New_Systems/rnas/2lwk

>  <Rbt.Executable>
rbdock ($Id: //depot/dev/client3/rdock/2013.1/src/exe/rbdock.cxx#4 $)

>  <Rbt.Library>
libRbt.so (2013.1, Build901 2013/11/27)

>  <Rbt.Parameter_File>
/export/apps/rDock/src/rDock_2013.1_src/data/scripts/dock_solv.prm

>  <Rbt.Receptor>
prm/blind_docking_100.prm

>  <SCORE>
-15.8154

>  <SCORE.INTER>
-17.6053

>  <SCORE.INTER.CONST>
1

>  <SCORE.INTER.POLAR>
-1.8301

>  <SCORE.INTER.ROT>
3

>  <SCORE.INTER.SOLV>
14.2031

>  <SCORE.INTER.VDW>
-15.9709

>  <SCORE.INTER.norm>
-0.838346

>  <SCORE.INTRA>
-0.769512

>  <SCORE.INTRA.DIHEDRAL>
-2.23676

>  <SCORE.INTRA.DIHEDRAL.0>
8.84257

>  <SCORE.INTRA.POLAR>
0

>  <SCORE.INTRA.POLAR.0>
0

>  <SCORE.INTRA.REPUL>
0

>  <SCORE.INTRA.REPUL.0>
0

>  <SCORE.INTRA.SOLV>
0.000733449

>  <SCORE.INTRA.SOLV.lig_0>
-17.1313

>  <SCORE.INTRA.VDW>
0.348503

>  <SCORE.INTRA.VDW.0>
6.34071

>  <SCORE.INTRA.norm>
-0.0366434

>  <SCORE.RESTR>
2.55941

>  <SCORE.RESTR.CAVITY>
2.55941

>  <SCORE.RESTR.norm>
0.121877

>  <SCORE.SYSTEM>
0

>  <SCORE.SYSTEM.CONST>
0

>  <SCORE.SYSTEM.DIHEDRAL>
0

>  <SCORE.SYSTEM.SOLV>
0

>  <SCORE.SYSTEM.norm>
0

>  <SCORE.heavy>
21

>  <SCORE.norm>
-0.753113

>  <RMSD>
12.687

$$$$
lig.pdb
 OpenBabel11021811453D
libRbt.so/2013.1/901 2013/11/27
 21 23  0  0  0  0  0  0  0  0999 V2000
   -0.7680    7.2061    0.4077 C   0  0  0  0  0  0  0  0  0  0  0  0
   -1.5358    7.9883    1.1579 N   0  0  0  0  0  0  0  0  0  0  0  0
   -2.0857    9.0701    0.6361 C   0  0  0  0  0  0  0  0  0  0  0  0
   -1.8107    9.4158   -0.6379 C   0  0  0  0  0  0  0  0  0  0  0  0
   -1.0387    8.6224   -1.3925 C   0  0  0  0  0  0  0  0  0  0  0  0
   -0.7575    8.9588   -2.6508 N   0  0  0  0  0  0  0  0  0  0  0  0
   -0.5175    7.5200   -0.8641 N   0  0  0  0  0  0  0  0  0  0  0  0
   -2.8800    9.8434    1.3950 C   0  0  0  0  0  0  0  0  0  0  0  0
   -3.2988   11.0504    0.9052 C   0  0  0  0  0  0  0  0  0  0  0  0
   -3.3361   12.1465    1.7998 O   0  0  0  0  0  0  0  0  0  0  0  0
   -3.1788   11.2815   -0.4126 C   0  0  0  0  0  0  0  0  0  0  0  0
   -3.9897   12.2707   -1.0306 O   0  0  0  0  0  0  0  0  0  0  0  0
   -2.3514   10.5254   -1.1604 C   0  0  0  0  0  0  0  0  0  0  0  0
   -0.2361    6.1173    0.9358 N   0  0  0  0  0  0  0  0  0  0  0  0
   -1.0859    5.2528    1.4986 C   0  0  0  0  0  0  0  0  0  0  0  0
   -1.4819    5.7381    2.8848 C   0  0  0  0  0  0  0  0  0  0  0  0
   -0.3598    5.8283    3.6822 N   0  0  0  0  0  0  0  0  0  0  0  0
    0.4787    6.7545    3.1013 C   0  0  0  0  0  0  0  0  0  0  0  0
    0.8800    6.2701    1.7180 C   0  0  0  0  0  0  0  0  0  0  0  0
   -4.6390   12.6713    1.7925 C   0  0  0  0  0  0  0  0  0  0  0  0
   -5.1571   11.6590   -1.5137 C   0  0  0  0  0  0  0  0  0  0  0  0
  1 14  1  0  0  0  0
  1  2  2  0  0  0  0
  3  2  1  0  0  0  0
  3  8  2  0  0  0  0
  4  3  1  0  0  0  0
  5  7  2  0  0  0  0
  5  4  1  0  0  0  0
  6  5  1  0  0  0  0
  7  1  1  0  0  0  0
  9 10  1  0  0  0  0
  9  8  1  0  0  0  0
 11  9  2  0  0  0  0
 12 11  1  0  0  0  0
 13  4  2  0  0  0  0
 13 11  1  0  0  0  0
 14 15  1  0  0  0  0
 16 15  1  0  0  0  0
 17 16  1  0  0  0  0
 18 17  1  0  0  0  0
 18 19  1  0  0  0  0
 19 14  1  0  0  0  0
 20 10  1  0  0  0  0
 21 12  1  0  0  0  0
M  END
>  <CHROM.1>
55.32067609,-124.03710084,-92.03844000,-1.88311055,8.89006587,0.59495084
-0.53423891,0.93739773,-1.30067552

>  <Name>
lig.pdb

>  <RI>
2.05709e+07

>  <Rbt.Current_Directory>
/home/itssahil/PROJECTS/Mol_Feturizer/New_Systems/rnas/2lwk

>  <Rbt.Executable>
rbdock ($Id: //depot/dev/client3/rdock/2013.1/src/exe/rbdock.cxx#4 $)

>  <Rbt.Library>
libRbt.so (2013.1, Build901 2013/11/27)

>  <Rbt.Parameter_File>
/export/apps/rDock/src/rDock_2013.1_src/data/scripts/dock_solv.prm

>  <Rbt.Receptor>
prm/blind_docking_40.prm

>  <SCORE>
-20.6391

>  <SCORE.INTER>
-18.0094

>  <SCORE.INTER.CONST>
1

>  <SCORE.INTER.POLAR>
-1.61536

>  <SCORE.INTER.ROT>
3

>  <SCORE.INTER.SOLV>
14.3642

>  <SCORE.INTER.VDW>
-17.0098

>  <SCORE.INTER.norm>
-0.857593

>  <SCORE.INTRA>
-4.64101

>  <SCORE.INTRA.DIHEDRAL>
0.395671

>  <SCORE.INTRA.DIHEDRAL.0>
8.84257

>  <SCORE.INTRA.POLAR>
0

>  <SCORE.INTRA.POLAR.0>
0

>  <SCORE.INTRA.REPUL>
0

>  <SCORE.INTRA.REPUL.0>
0

>  <SCORE.INTRA.SOLV>
0.115917

>  <SCORE.INTRA.SOLV.lig_0>
-17.1313

>  <SCORE.INTRA.VDW>
-4.89681

>  <SCORE.INTRA.VDW.0>
6.34071

>  <SCORE.INTRA.norm>
-0.221001

>  <SCORE.RESTR>
2.01135

>  <SCORE.RESTR.CAVITY>
2.01135

>  <SCORE.RESTR.norm>
0.0957786

>  <SCORE.SYSTEM>
0

>  <SCORE.SYSTEM.CONST>
0

>  <SCORE.SYSTEM.DIHEDRAL>
0

>  <SCORE.SYSTEM.SOLV>
0

>  <SCORE.SYSTEM.norm>
0

>  <SCORE.heavy>
21

>  <SCORE.norm>
-0.982815

>  <RMSD>
12.689

$$$$
lig.pdb
 OpenBabel11021811453D
libRbt.so/2013.1/901 2013/11/27
 21 23  0  0  0  0  0  0  0  0999 V2000
   -0.7660    7.2331    0.4073 C   0  0  0  0  0  0  0  0  0  0  0  0
   -1.5362    8.0114    1.1592 N   0  0  0  0  0  0  0  0  0  0  0  0
   -2.0961    9.0881    0.6376 C   0  0  0  0  0  0  0  0  0  0  0  0
   -1.8289    9.4332   -0.6382 C   0  0  0  0  0  0  0  0  0  0  0  0
   -1.0545    8.6438   -1.3946 C   0  0  0  0  0  0  0  0  0  0  0  0
   -0.7811    8.9797   -2.6547 N   0  0  0  0  0  0  0  0  0  0  0  0
   -0.5231    7.5462   -0.8662 N   0  0  0  0  0  0  0  0  0  0  0  0
   -2.8926    9.8572    1.3983 C   0  0  0  0  0  0  0  0  0  0  0  0
   -3.3222   11.0602    0.9079 C   0  0  0  0  0  0  0  0  0  0  0  0
   -3.3635   12.1578    1.8005 O   0  0  0  0  0  0  0  0  0  0  0  0
   -3.2094   11.2895   -0.4108 C   0  0  0  0  0  0  0  0  0  0  0  0
   -4.0301   12.2716   -1.0274 O   0  0  0  0  0  0  0  0  0  0  0  0
   -2.3798   10.5379   -1.1607 C   0  0  0  0  0  0  0  0  0  0  0  0
   -0.2241    6.1493    0.9353 N   0  0  0  0  0  0  0  0  0  0  0  0
   -1.0667    5.2723    1.4895 C   0  0  0  0  0  0  0  0  0  0  0  0
   -1.4780    5.7479    2.8746 C   0  0  0  0  0  0  0  0  0  0  0  0
   -0.3625    5.8493    3.6798 N   0  0  0  0  0  0  0  0  0  0  0  0
    0.4683    6.7879    3.1077 C   0  0  0  0  0  0  0  0  0  0  0  0
    0.8848    6.3133    1.7255 C   0  0  0  0  0  0  0  0  0  0  0  0
   -4.6703   12.6730    1.7981 C   0  0  0  0  0  0  0  0  0  0  0  0
   -5.1643   11.6403   -1.5615 C   0  0  0  0  0  0  0  0  0  0  0  0
  1 14  1  0  0  0  0
  1  2  2  0  0  0  0
  3  2  1  0  0  0  0
  3  8  2  0  0  0  0
  4  3  1  0  0  0  0
  5  7  2  0  0  0  0
  5  4  1  0  0  0  0
  6  5  1  0  0  0  0
  7  1  1  0  0  0  0
  9 10  1  0  0  0  0
  9  8  1  0  0  0  0
 11  9  2  0  0  0  0
 12 11  1  0  0  0  0
 13  4  2  0  0  0  0
 13 11  1  0  0  0  0
 14 15  1  0  0  0  0
 16 15  1  0  0  0  0
 17 16  1  0  0  0  0
 18 17  1  0  0  0  0
 18 19  1  0  0  0  0
 19 14  1  0  0  0  0
 20 10  1  0  0  0  0
 21 12  1  0  0  0  0
M  END
>  <CHROM.1>
56.08415530,-124.01658732,-94.87132847,-1.89500961,8.90658646,0.59258172
-0.52817556,0.93402710,-1.30909608

>  <Name>
lig.pdb

>  <RI>
1.05666e+07

>  <Rbt.Current_Directory>
/home/itssahil/PROJECTS/Mol_Feturizer/New_Systems/rnas/2lwk

>  <Rbt.Executable>
rbdock ($Id: //depot/dev/client3/rdock/2013.1/src/exe/rbdock.cxx#4 $)

>  <Rbt.Library>
libRbt.so (2013.1, Build901 2013/11/27)

>  <Rbt.Parameter_File>
/export/apps/rDock/src/rDock_2013.1_src/data/scripts/dock_solv.prm

>  <Rbt.Receptor>
prm/blind_docking_80.prm

>  <SCORE>
-20.6423

>  <SCORE.INTER>
-17.9722

>  <SCORE.INTER.CONST>
1

>  <SCORE.INTER.POLAR>
-1.62211

>  <SCORE.INTER.ROT>
3

>  <SCORE.INTER.SOLV>
14.3153

>  <SCORE.INTER.VDW>
-16.9462

>  <SCORE.INTER.norm>
-0.855817

>  <SCORE.INTRA>
-4.67512

>  <SCORE.INTRA.DIHEDRAL>
0.351899

>  <SCORE.INTRA.DIHEDRAL.0>
8.84257

>  <SCORE.INTRA.POLAR>
0

>  <SCORE.INTRA.POLAR.0>
0

>  <SCORE.INTRA.REPUL>
0

>  <SCORE.INTRA.REPUL.0>
0

>  <SCORE.INTRA.SOLV>
0.114784

>  <SCORE.INTRA.SOLV.lig_0>
-17.1313

>  <SCORE.INTRA.VDW>
-4.90847

>  <SCORE.INTRA.VDW.0>
6.34071

>  <SCORE.INTRA.norm>
-0.222625

>  <SCORE.RESTR>
2.00497

>  <SCORE.RESTR.CAVITY>
2.00497

>  <SCORE.RESTR.norm>
0.0954749

>  <SCORE.SYSTEM>
0

>  <SCORE.SYSTEM.CONST>
0

>  <SCORE.SYSTEM.DIHEDRAL>
0

>  <SCORE.SYSTEM.SOLV>
0

>  <SCORE.SYSTEM.norm>
0

>  <SCORE.heavy>
21

>  <SCORE.norm>
-0.982968

>  <RMSD>
12.693

$$$$
lig.pdb
 OpenBabel11021811453D
libRbt.so/2013.1/901 2013/11/27
 21 23  0  0  0  0  0  0  0  0999 V2000
   -0.7675    7.2066    0.4026 C   0  0  0  0  0  0  0  0  0  0  0  0
   -1.5360    7.9894    1.1515 N   0  0  0  0  0  0  0  0  0  0  0  0
   -2.0830    9.0724    0.6292 C   0  0  0  0  0  0  0  0  0  0  0  0
   -1.8043    9.4187   -0.6438 C   0  0  0  0  0  0  0  0  0  0  0  0
   -1.0316    8.6247   -1.3972 C   0  0  0  0  0  0  0  0  0  0  0  0
   -0.7468    8.9617   -2.6545 N   0  0  0  0  0  0  0  0  0  0  0  0
   -0.5134    7.5210   -0.8683 N   0  0  0  0  0  0  0  0  0  0  0  0
   -2.8780    9.8463    1.3867 C   0  0  0  0  0  0  0  0  0  0  0  0
   -3.2938   11.0543    0.8968 C   0  0  0  0  0  0  0  0  0  0  0  0
   -3.3316   12.1498    1.7922 O   0  0  0  0  0  0  0  0  0  0  0  0
   -3.1701   11.2862   -0.4205 C   0  0  0  0  0  0  0  0  0  0  0  0
   -3.9780   12.2771   -1.0398 O   0  0  0  0  0  0  0  0  0  0  0  0
   -2.3420   10.5295   -1.1669 C   0  0  0  0  0  0  0  0  0  0  0  0
   -0.2386    6.1166    0.9312 N   0  0  0  0  0  0  0  0  0  0  0  0
   -1.0903    5.2561    1.4971 C   0  0  0  0  0  0  0  0  0  0  0  0
   -1.4816    5.7450    2.8834 C   0  0  0  0  0  0  0  0  0  0  0  0
   -0.3575    5.8321    3.6783 N   0  0  0  0  0  0  0  0  0  0  0  0
    0.4833    6.7543    3.0942 C   0  0  0  0  0  0  0  0  0  0  0  0
    0.8798    6.2663    1.7108 C   0  0  0  0  0  0  0  0  0  0  0  0
   -4.6290   12.6877    1.7686 C   0  0  0  0  0  0  0  0  0  0  0  0
   -5.1134   11.6570   -1.5845 C   0  0  0  0  0  0  0  0  0  0  0  0
  1 14  1  0  0  0  0
  1  2  2  0  0  0  0
  3  2  1  0  0  0  0
  3  8  2  0  0  0  0
  4  3  1  0  0  0  0
  5  7  2  0  0  0  0
  5  4  1  0  0  0  0
  6  5  1  0  0  0  0
  7  1  1  0  0  0  0
  9 10  1  0  0  0  0
  9  8  1  0  0  0  0
 11  9  2  0  0  0  0
 12 11  1  0  0  0  0
 13  4  2  0  0  0  0
 13 11  1  0  0  0  0
 14 15  1  0  0  0  0
 16 15  1  0  0  0  0
 17 16  1  0  0  0  0
 18 17  1  0  0  0  0
 18 19  1  0  0  0  0
 19 14  1  0  0  0  0
 20 10  1  0  0  0  0
 21 12  1  0  0  0  0
M  END
>  <CHROM.1>
54.99925551,-124.81463024,-94.93326475,-1.87683522,8.89307664,0.58485626
-0.53692919,0.93970930,-1.30173202

>  <Name>
lig.pdb

>  <RI>
1.05666e+07

>  <Rbt.Current_Directory>
/home/itssahil/PROJECTS/Mol_Feturizer/New_Systems/rnas/2lwk

>  <Rbt.Executable>
rbdock ($Id: //depot/dev/client3/rdock/2013.1/src/exe/rbdock.cxx#4 $)

>  <Rbt.Library>
libRbt.so (2013.1, Build901 2013/11/27)

>  <Rbt.Parameter_File>
/export/apps/rDock/src/rDock_2013.1_src/data/scripts/dock_solv.prm

>  <Rbt.Receptor>
prm/blind_docking_80.prm

>  <SCORE>
-20.6404

>  <SCORE.INTER>
-18.064

>  <SCORE.INTER.CONST>
1

>  <SCORE.INTER.POLAR>
-1.62212

>  <SCORE.INTER.ROT>
3

>  <SCORE.INTER.SOLV>
14.4022

>  <SCORE.INTER.VDW>
-17.0364

>  <SCORE.INTER.norm>
-0.860192

>  <SCORE.INTRA>
-4.59739

>  <SCORE.INTRA.DIHEDRAL>
0.308539

>  <SCORE.INTRA.DIHEDRAL.0>
8.84257

>  <SCORE.INTRA.POLAR>
0

>  <SCORE.INTRA.POLAR.0>
0

>  <SCORE.INTRA.REPUL>
0

>  <SCORE.INTRA.REPUL.0>
0

>  <SCORE.INTRA.SOLV>
0.114911

>  <SCORE.INTRA.SOLV.lig_0>
-17.1313

>  <SCORE.INTRA.VDW>
-4.80912

>  <SCORE.INTRA.VDW.0>
6.34071

>  <SCORE.INTRA.norm>
-0.218923

>  <SCORE.RESTR>
2.02105

>  <SCORE.RESTR.CAVITY>
2.02105

>  <SCORE.RESTR.norm>
0.0962406

>  <SCORE.SYSTEM>
0

>  <SCORE.SYSTEM.CONST>
0

>  <SCORE.SYSTEM.DIHEDRAL>
0

>  <SCORE.SYSTEM.SOLV>
0

>  <SCORE.SYSTEM.norm>
0

>  <SCORE.heavy>
21

>  <SCORE.norm>
-0.982874

>  <RMSD>
12.697

$$$$
lig.pdb
 OpenBabel11021811453D
libRbt.so/2013.1/901 2013/11/27
 21 23  0  0  0  0  0  0  0  0999 V2000
   -0.7630    7.2144    0.3947 C   0  0  0  0  0  0  0  0  0  0  0  0
   -1.5336    7.9971    1.1416 N   0  0  0  0  0  0  0  0  0  0  0  0
   -2.0816    9.0785    0.6172 C   0  0  0  0  0  0  0  0  0  0  0  0
   -1.8020    9.4236   -0.6559 C   0  0  0  0  0  0  0  0  0  0  0  0
   -1.0272    8.6298   -1.4073 C   0  0  0  0  0  0  0  0  0  0  0  0
   -0.7414    8.9656   -2.6647 N   0  0  0  0  0  0  0  0  0  0  0  0
   -0.5079    7.5276   -0.8764 N   0  0  0  0  0  0  0  0  0  0  0  0
   -2.8787    9.8522    1.3728 C   0  0  0  0  0  0  0  0  0  0  0  0
   -3.2958   11.0589    0.8809 C   0  0  0  0  0  0  0  0  0  0  0  0
   -3.3364   12.1555    1.7748 O   0  0  0  0  0  0  0  0  0  0  0  0
   -3.1710   11.2893   -0.4365 C   0  0  0  0  0  0  0  0  0  0  0  0
   -3.9797   12.2782   -1.0581 O   0  0  0  0  0  0  0  0  0  0  0  0
   -2.3408   10.5329   -1.1810 C   0  0  0  0  0  0  0  0  0  0  0  0
   -0.2330    6.1259    0.9253 N   0  0  0  0  0  0  0  0  0  0  0  0
   -1.0843    5.2641    1.4898 C   0  0  0  0  0  0  0  0  0  0  0  0
   -1.4799    5.7531    2.8748 C   0  0  0  0  0  0  0  0  0  0  0  0
   -0.3579    5.8432    3.6723 N   0  0  0  0  0  0  0  0  0  0  0  0
    0.4823    6.7667    3.0895 C   0  0  0  0  0  0  0  0  0  0  0  0
    0.8831    6.2786    1.7074 C   0  0  0  0  0  0  0  0  0  0  0  0
   -4.6401   12.6782    1.7650 C   0  0  0  0  0  0  0  0  0  0  0  0
   -5.1094   11.6544   -1.6104 C   0  0  0  0  0  0  0  0  0  0  0  0
  1 14  1  0  0  0  0
  1  2  2  0  0  0  0
  3  2  1  0  0  0  0
  3  8  2  0  0  0  0
  4  3  1  0  0  0  0
  5  7  2  0  0  0  0
  5  4  1  0  0  0  0
  6  5  1  0  0  0  0
  7  1  1  0  0  0  0
  9 10  1  0  0  0  0
  9  8  1  0  0  0  0
 11  9  2  0  0  0  0
 12 11  1  0  0  0  0
 13  4  2  0  0  0  0
 13 11  1  0  0  0  0
 14 15  1  0  0  0  0
 16 15  1  0  0  0  0
 17 16  1  0  0  0  0
 18 17  1  0  0  0  0
 18 19  1  0  0  0  0
 19 14  1  0  0  0  0
 20 10  1  0  0  0  0
 21 12  1  0  0  0  0
M  END
>  <CHROM.1>
55.08295551,-123.89346231,-95.28521172,-1.87572516,8.89846501,0.57382567
-0.53893817,0.93766980,-1.30120438

>  <Name>
lig.pdb

>  <RI>
1.05666e+07

>  <Rbt.Current_Directory>
/home/itssahil/PROJECTS/Mol_Feturizer/New_Systems/rnas/2lwk

>  <Rbt.Executable>
rbdock ($Id: //depot/dev/client3/rdock/2013.1/src/exe/rbdock.cxx#4 $)

>  <Rbt.Library>
libRbt.so (2013.1, Build901 2013/11/27)

>  <Rbt.Parameter_File>
/export/apps/rDock/src/rDock_2013.1_src/data/scripts/dock_solv.prm

>  <Rbt.Receptor>
prm/blind_docking_80.prm

>  <SCORE>
-20.6921

>  <SCORE.INTER>
-18.067

>  <SCORE.INTER.CONST>
1

>  <SCORE.INTER.POLAR>
-1.64174

>  <SCORE.INTER.ROT>
3

>  <SCORE.INTER.SOLV>
14.4285

>  <SCORE.INTER.VDW>
-16.9817

>  <SCORE.INTER.norm>
-0.860332

>  <SCORE.INTRA>
-4.65355

>  <SCORE.INTRA.DIHEDRAL>
0.350364

>  <SCORE.INTRA.DIHEDRAL.0>
8.84257

>  <SCORE.INTRA.POLAR>
0

>  <SCORE.INTRA.POLAR.0>
0

>  <SCORE.INTRA.REPUL>
0

>  <SCORE.INTRA.REPUL.0>
0

>  <SCORE.INTRA.SOLV>
0.113846

>  <SCORE.INTRA.SOLV.lig_0>
-17.1313

>  <SCORE.INTRA.VDW>
-4.88565

>  <SCORE.INTRA.VDW.0>
6.34071

>  <SCORE.INTRA.norm>
-0.221597

>  <SCORE.RESTR>
2.02843

>  <SCORE.RESTR.CAVITY>
2.02843

>  <SCORE.RESTR.norm>
0.0965919

>  <SCORE.SYSTEM>
0

>  <SCORE.SYSTEM.CONST>
0

>  <SCORE.SYSTEM.DIHEDRAL>
0

>  <SCORE.SYSTEM.SOLV>
0

>  <SCORE.SYSTEM.norm>
0

>  <SCORE.heavy>
21

>  <SCORE.norm>
-0.985338

>  <RMSD>
12.704

$$$$
lig.pdb
 OpenBabel11021811453D
libRbt.so/2013.1/901 2013/11/27
 21 23  0  0  0  0  0  0  0  0999 V2000
   -0.7476    7.2377    0.3914 C   0  0  0  0  0  0  0  0  0  0  0  0
   -1.5210    8.0168    1.1392 N   0  0  0  0  0  0  0  0  0  0  0  0
   -2.0816    9.0909    0.6132 C   0  0  0  0  0  0  0  0  0  0  0  0
   -1.8122    9.4327   -0.6630 C   0  0  0  0  0  0  0  0  0  0  0  0
   -1.0346    8.6426   -1.4153 C   0  0  0  0  0  0  0  0  0  0  0  0
   -0.7590    8.9752   -2.6758 N   0  0  0  0  0  0  0  0  0  0  0  0
   -0.5025    7.5475   -0.8825 N   0  0  0  0  0  0  0  0  0  0  0  0
   -2.8813    9.8608    1.3698 C   0  0  0  0  0  0  0  0  0  0  0  0
   -3.3120   11.0616    0.8749 C   0  0  0  0  0  0  0  0  0  0  0  0
   -3.3573   12.1617    1.7641 O   0  0  0  0  0  0  0  0  0  0  0  0
   -3.1966   11.2872   -0.4442 C   0  0  0  0  0  0  0  0  0  0  0  0
   -4.0177   12.2659   -1.0655 O   0  0  0  0  0  0  0  0  0  0  0  0
   -2.3639   10.5348   -1.1900 C   0  0  0  0  0  0  0  0  0  0  0  0
   -0.2049    6.1564    0.9238 N   0  0  0  0  0  0  0  0  0  0  0  0
   -1.0471    5.2798    1.4792 C   0  0  0  0  0  0  0  0  0  0  0  0
   -1.4618    5.7591    2.8621 C   0  0  0  0  0  0  0  0  0  0  0  0
   -0.3479    5.8649    3.6690 N   0  0  0  0  0  0  0  0  0  0  0  0
    0.4824    6.8030    3.0954 C   0  0  0  0  0  0  0  0  0  0  0  0
    0.9023    6.3247    1.7155 C   0  0  0  0  0  0  0  0  0  0  0  0
   -4.6664   12.6709    1.7615 C   0  0  0  0  0  0  0  0  0  0  0  0
   -5.1795   11.6410   -1.5450 C   0  0  0  0  0  0  0  0  0  0  0  0
  1 14  1  0  0  0  0
  1  2  2  0  0  0  0
  3  2  1  0  0  0  0
  3  8  2  0  0  0  0
  4  3  1  0  0  0  0
  5  7  2  0  0  0  0
  5  4  1  0  0  0  0
  6  5  1  0  0  0  0
  7  1  1  0  0  0  0
  9 10  1  0  0  0  0
  9  8  1  0  0  0  0
 11  9  2  0  0  0  0
 12 11  1  0  0  0  0
 13  4  2  0  0  0  0
 13 11  1  0  0  0  0
 14 15  1  0  0  0  0
 16 15  1  0  0  0  0
 17 16  1  0  0  0  0
 18 17  1  0  0  0  0
 18 19  1  0  0  0  0
 19 14  1  0  0  0  0
 20 10  1  0  0  0  0
 21 12  1  0  0  0  0
M  END
>  <CHROM.1>
56.05420364,-123.76994961,-92.12595368,-1.88156749,8.91006309,0.57228423
-0.53098582,0.93008052,-1.30684283

>  <Name>
lig.pdb

>  <RI>
1.05666e+07

>  <Rbt.Current_Directory>
/home/itssahil/PROJECTS/Mol_Feturizer/New_Systems/rnas/2lwk

>  <Rbt.Executable>
rbdock ($Id: //depot/dev/client3/rdock/2013.1/src/exe/rbdock.cxx#4 $)

>  <Rbt.Library>
libRbt.so (2013.1, Build901 2013/11/27)

>  <Rbt.Parameter_File>
/export/apps/rDock/src/rDock_2013.1_src/data/scripts/dock_solv.prm

>  <Rbt.Receptor>
prm/blind_docking_80.prm

>  <SCORE>
-20.5787

>  <SCORE.INTER>
-17.8921

>  <SCORE.INTER.CONST>
1

>  <SCORE.INTER.POLAR>
-1.66508

>  <SCORE.INTER.ROT>
3

>  <SCORE.INTER.SOLV>
14.4545

>  <SCORE.INTER.VDW>
-16.796

>  <SCORE.INTER.norm>
-0.852005

>  <SCORE.INTRA>
-4.67719

>  <SCORE.INTRA.DIHEDRAL>
0.408324

>  <SCORE.INTRA.DIHEDRAL.0>
8.84257

>  <SCORE.INTRA.POLAR>
0

>  <SCORE.INTRA.POLAR.0>
0

>  <SCORE.INTRA.REPUL>
0

>  <SCORE.INTRA.REPUL.0>
0

>  <SCORE.INTRA.SOLV>
0.116027

>  <SCORE.INTRA.SOLV.lig_0>
-17.1313

>  <SCORE.INTRA.VDW>
-4.93936

>  <SCORE.INTRA.VDW.0>
6.34071

>  <SCORE.INTRA.norm>
-0.222723

>  <SCORE.RESTR>
1.99053

>  <SCORE.RESTR.CAVITY>
1.99053

>  <SCORE.RESTR.norm>
0.0947874

>  <SCORE.SYSTEM>
0

>  <SCORE.SYSTEM.CONST>
0

>  <SCORE.SYSTEM.DIHEDRAL>
0

>  <SCORE.SYSTEM.SOLV>
0

>  <SCORE.SYSTEM.norm>
0

>  <SCORE.heavy>
21

>  <SCORE.norm>
-0.97994

>  <RMSD>
12.705

$$$$
lig.pdb
 OpenBabel11021811453D
libRbt.so/2013.1/901 2013/11/27
 21 23  0  0  0  0  0  0  0  0999 V2000
   -0.7662    7.2309    0.4060 C   0  0  0  0  0  0  0  0  0  0  0  0
   -1.5424    8.0068    1.1541 N   0  0  0  0  0  0  0  0  0  0  0  0
   -2.0909    9.0900    0.6338 C   0  0  0  0  0  0  0  0  0  0  0  0
   -1.8063    9.4435   -0.6359 C   0  0  0  0  0  0  0  0  0  0  0  0
   -1.0260    8.6564   -1.3885 C   0  0  0  0  0  0  0  0  0  0  0  0
   -0.7352    9.0007   -2.6426 N   0  0  0  0  0  0  0  0  0  0  0  0
   -0.5060    7.5525   -0.8619 N   0  0  0  0  0  0  0  0  0  0  0  0
   -2.8936    9.8568    1.3903 C   0  0  0  0  0  0  0  0  0  0  0  0
   -3.3117   11.0654    0.9038 C   0  0  0  0  0  0  0  0  0  0  0  0
   -3.3594   12.1564    1.8042 O   0  0  0  0  0  0  0  0  0  0  0  0
   -3.1814   11.3042   -0.4116 C   0  0  0  0  0  0  0  0  0  0  0  0
   -3.9900   12.2946   -1.0309 O   0  0  0  0  0  0  0  0  0  0  0  0
   -2.3458   10.5546   -1.1568 C   0  0  0  0  0  0  0  0  0  0  0  0
   -0.2357    6.1406    0.9324 N   0  0  0  0  0  0  0  0  0  0  0  0
   -1.0862    5.2778    1.4967 C   0  0  0  0  0  0  0  0  0  0  0  0
   -1.4781    5.7634    2.8840 C   0  0  0  0  0  0  0  0  0  0  0  0
   -0.3541    5.8506    3.6789 N   0  0  0  0  0  0  0  0  0  0  0  0
    0.4853    6.7751    3.0967 C   0  0  0  0  0  0  0  0  0  0  0  0
    0.8825    6.2904    1.7123 C   0  0  0  0  0  0  0  0  0  0  0  0
   -4.6588   12.6893    1.7752 C   0  0  0  0  0  0  0  0  0  0  0  0
   -5.1116   11.6702   -1.5987 C   0  0  0  0  0  0  0  0  0  0  0  0
  1 14  1  0  0  0  0
  1  2  2  0  0  0  0
  3  2  1  0  0  0  0
  3  8  2  0  0  0  0
  4  3  1  0  0  0  0
  5  7  2  0  0  0  0
  5  4  1  0  0  0  0
  6  5  1  0  0  0  0
  7  1  1  0  0  0  0
  9 10  1  0  0  0  0
  9  8  1  0  0  0  0
 11  9  2  0  0  0  0
 12 11  1  0  0  0  0
 13  4  2  0  0  0  0
 13 11  1  0  0  0  0
 14 15  1  0  0  0  0
 16 15  1  0  0  0  0
 17 16  1  0  0  0  0
 18 17  1  0  0  0  0
 18 19  1  0  0  0  0
 19 14  1  0  0  0  0
 20 10  1  0  0  0  0
 21 12  1  0  0  0  0
M  END
>  <CHROM.1>
54.59338323,-124.83651764,-95.61469760,-1.88108605,8.91287427,0.58929848
-0.54227885,0.93389177,-1.29409835

>  <Name>
lig.pdb

>  <RI>
1.05666e+07

>  <Rbt.Current_Directory>
/home/itssahil/PROJECTS/Mol_Feturizer/New_Systems/rnas/2lwk

>  <Rbt.Executable>
rbdock ($Id: //depot/dev/client3/rdock/2013.1/src/exe/rbdock.cxx#4 $)

>  <Rbt.Library>
libRbt.so (2013.1, Build901 2013/11/27)

>  <Rbt.Parameter_File>
/export/apps/rDock/src/rDock_2013.1_src/data/scripts/dock_solv.prm

>  <Rbt.Receptor>
prm/blind_docking_80.prm

>  <SCORE>
-20.5324

>  <SCORE.INTER>
-17.9408

>  <SCORE.INTER.CONST>
1

>  <SCORE.INTER.POLAR>
-1.59783

>  <SCORE.INTER.ROT>
3

>  <SCORE.INTER.SOLV>
14.4362

>  <SCORE.INTER.VDW>
-17.0466

>  <SCORE.INTER.norm>
-0.854326

>  <SCORE.INTRA>
-4.58187

>  <SCORE.INTRA.DIHEDRAL>
0.293278

>  <SCORE.INTRA.DIHEDRAL.0>
8.84257

>  <SCORE.INTRA.POLAR>
0

>  <SCORE.INTRA.POLAR.0>
0

>  <SCORE.INTRA.REPUL>
0

>  <SCORE.INTRA.REPUL.0>
0

>  <SCORE.INTRA.SOLV>
0.114312

>  <SCORE.INTRA.SOLV.lig_0>
-17.1313

>  <SCORE.INTRA.VDW>
-4.78566

>  <SCORE.INTRA.VDW.0>
6.34071

>  <SCORE.INTRA.norm>
-0.218184

>  <SCORE.RESTR>
1.99035

>  <SCORE.RESTR.CAVITY>
1.99035

>  <SCORE.RESTR.norm>
0.0947785

>  <SCORE.SYSTEM>
0

>  <SCORE.SYSTEM.CONST>
0

>  <SCORE.SYSTEM.DIHEDRAL>
0

>  <SCORE.SYSTEM.SOLV>
0

>  <SCORE.SYSTEM.norm>
0

>  <SCORE.heavy>
21

>  <SCORE.norm>
-0.977732

>  <RMSD>
12.708

$$$$
lig.pdb
 OpenBabel11021811453D
libRbt.so/2013.1/901 2013/11/27
 21 23  0  0  0  0  0  0  0  0999 V2000
   -0.7555    7.2401    0.3941 C   0  0  0  0  0  0  0  0  0  0  0  0
   -1.5267    8.0223    1.1409 N   0  0  0  0  0  0  0  0  0  0  0  0
   -2.0848    9.0970    0.6131 C   0  0  0  0  0  0  0  0  0  0  0  0
   -1.8148    9.4360   -0.6637 C   0  0  0  0  0  0  0  0  0  0  0  0
   -1.0395    8.6426   -1.4148 C   0  0  0  0  0  0  0  0  0  0  0  0
   -0.7633    8.9725   -2.6760 N   0  0  0  0  0  0  0  0  0  0  0  0
   -0.5099    7.5471   -0.8803 N   0  0  0  0  0  0  0  0  0  0  0  0
   -2.8823    9.8701    1.3687 C   0  0  0  0  0  0  0  0  0  0  0  0
   -3.3101   11.0711    0.8719 C   0  0  0  0  0  0  0  0  0  0  0  0
   -3.3525   12.1729    1.7593 O   0  0  0  0  0  0  0  0  0  0  0  0
   -3.1945   11.2942   -0.4476 C   0  0  0  0  0  0  0  0  0  0  0  0
   -4.0133   12.2740   -1.0704 O   0  0  0  0  0  0  0  0  0  0  0  0
   -2.3639   10.5386   -1.1924 C   0  0  0  0  0  0  0  0  0  0  0  0
   -0.2154    6.1583    0.9282 N   0  0  0  0  0  0  0  0  0  0  0  0
   -1.0594    5.2859    1.4874 C   0  0  0  0  0  0  0  0  0  0  0  0
   -1.4699    5.7700    2.8698 C   0  0  0  0  0  0  0  0  0  0  0  0
   -0.3541    5.8741    3.6744 N   0  0  0  0  0  0  0  0  0  0  0  0
    0.4782    6.8080    3.0969 C   0  0  0  0  0  0  0  0  0  0  0  0
    0.8938    6.3249    1.7174 C   0  0  0  0  0  0  0  0  0  0  0  0
   -4.6622   12.6805    1.7621 C   0  0  0  0  0  0  0  0  0  0  0  0
   -5.1553   11.6436   -1.5888 C   0  0  0  0  0  0  0  0  0  0  0  0
  1 14  1  0  0  0  0
  1  2  2  0  0  0  0
  3  2  1  0  0  0  0
  3  8  2  0  0  0  0
  4  3  1  0  0  0  0
  5  7  2  0  0  0  0
  5  4  1  0  0  0  0
  6  5  1  0  0  0  0
  7  1  1  0  0  0  0
  9 10  1  0  0  0  0
  9  8  1  0  0  0  0
 11  9  2  0  0  0  0
 12 11  1  0  0  0  0
 13  4  2  0  0  0  0
 13 11  1  0  0  0  0
 14 15  1  0  0  0  0
 16 15  1  0  0  0  0
 17 16  1  0  0  0  0
 18 17  1  0  0  0  0
 18 19  1  0  0  0  0
 19 14  1  0  0  0  0
 20 10  1  0  0  0  0
 21 12  1  0  0  0  0
M  END
>  <CHROM.1>
55.94035679,-123.43238460,-94.11867128,-1.88354767,8.91525159,0.57077926
-0.53115753,0.93325327,-1.31055905

>  <Name>
lig.pdb

>  <RI>
1.05666e+07

>  <Rbt.Current_Directory>
/home/itssahil/PROJECTS/Mol_Feturizer/New_Systems/rnas/2lwk

>  <Rbt.Executable>
rbdock ($Id: //depot/dev/client3/rdock/2013.1/src/exe/rbdock.cxx#4 $)

>  <Rbt.Library>
libRbt.so (2013.1, Build901 2013/11/27)

>  <Rbt.Parameter_File>
/export/apps/rDock/src/rDock_2013.1_src/data/scripts/dock_solv.prm

>  <Rbt.Receptor>
prm/blind_docking_80.prm

>  <SCORE>
-20.7187

>  <SCORE.INTER>
-18.0284

>  <SCORE.INTER.CONST>
1

>  <SCORE.INTER.POLAR>
-1.6759

>  <SCORE.INTER.ROT>
3

>  <SCORE.INTER.SOLV>
14.4244

>  <SCORE.INTER.VDW>
-16.8407

>  <SCORE.INTER.norm>
-0.858495

>  <SCORE.INTRA>
-4.70688

>  <SCORE.INTRA.DIHEDRAL>
0.396431

>  <SCORE.INTRA.DIHEDRAL.0>
8.84257

>  <SCORE.INTRA.POLAR>
0

>  <SCORE.INTRA.POLAR.0>
0

>  <SCORE.INTRA.REPUL>
0

>  <SCORE.INTRA.REPUL.0>
0

>  <SCORE.INTRA.SOLV>
0.114518

>  <SCORE.INTRA.SOLV.lig_0>
-17.1313

>  <SCORE.INTRA.VDW>
-4.96236

>  <SCORE.INTRA.VDW.0>
6.34071

>  <SCORE.INTRA.norm>
-0.224137

>  <SCORE.RESTR>
2.01658

>  <SCORE.RESTR.CAVITY>
2.01658

>  <SCORE.RESTR.norm>
0.0960277

>  <SCORE.SYSTEM>
0

>  <SCORE.SYSTEM.CONST>
0

>  <SCORE.SYSTEM.DIHEDRAL>
0

>  <SCORE.SYSTEM.SOLV>
0

>  <SCORE.SYSTEM.norm>
0

>  <SCORE.heavy>
21

>  <SCORE.norm>
-0.986605

>  <RMSD>
12.709

$$$$
lig.pdb
 OpenBabel11021811453D
libRbt.so/2013.1/901 2013/11/27
 21 23  0  0  0  0  0  0  0  0999 V2000
   -0.7560    7.2533    0.3993 C   0  0  0  0  0  0  0  0  0  0  0  0
   -1.5300    8.0307    1.1481 N   0  0  0  0  0  0  0  0  0  0  0  0
   -2.0915    9.1051    0.6235 C   0  0  0  0  0  0  0  0  0  0  0  0
   -1.8224    9.4488   -0.6523 C   0  0  0  0  0  0  0  0  0  0  0  0
   -1.0442    8.6603   -1.4055 C   0  0  0  0  0  0  0  0  0  0  0  0
   -0.7687    8.9949   -2.6656 N   0  0  0  0  0  0  0  0  0  0  0  0
   -0.5111    7.5650   -0.8742 N   0  0  0  0  0  0  0  0  0  0  0  0
   -2.8919    9.8733    1.3811 C   0  0  0  0  0  0  0  0  0  0  0  0
   -3.3235   11.0744    0.8878 C   0  0  0  0  0  0  0  0  0  0  0  0
   -3.3698   12.1733    1.7786 O   0  0  0  0  0  0  0  0  0  0  0  0
   -3.2083   11.3018   -0.4310 C   0  0  0  0  0  0  0  0  0  0  0  0
   -4.0301   12.2808   -1.0510 O   0  0  0  0  0  0  0  0  0  0  0  0
   -2.3750   10.5512   -1.1778 C   0  0  0  0  0  0  0  0  0  0  0  0
   -0.2124    6.1717    0.9302 N   0  0  0  0  0  0  0  0  0  0  0  0
   -1.0539    5.2937    1.4845 C   0  0  0  0  0  0  0  0  0  0  0  0
   -1.4690    5.7708    2.8680 C   0  0  0  0  0  0  0  0  0  0  0  0
   -0.3552    5.8764    3.6750 N   0  0  0  0  0  0  0  0  0  0  0  0
    0.4743    6.8160    3.1027 C   0  0  0  0  0  0  0  0  0  0  0  0
    0.8946    6.3399    1.7222 C   0  0  0  0  0  0  0  0  0  0  0  0
   -4.6782   12.6843    1.7732 C   0  0  0  0  0  0  0  0  0  0  0  0
   -5.1566   11.6442   -1.5953 C   0  0  0  0  0  0  0  0  0  0  0  0
  1 14  1  0  0  0  0
  1  2  2  0  0  0  0
  3  2  1  0  0  0  0
  3  8  2  0  0  0  0
  4  3  1  0  0  0  0
  5  7  2  0  0  0  0
  5  4  1  0  0  0  0
  6  5  1  0  0  0  0
  7  1  1  0  0  0  0
  9 10  1  0  0  0  0
  9  8  1  0  0  0  0
 11  9  2  0  0  0  0
 12 11  1  0  0  0  0
 13  4  2  0  0  0  0
 13 11  1  0  0  0  0
 14 15  1  0  0  0  0
 16 15  1  0  0  0  0
 17 16  1  0  0  0  0
 18 17  1  0  0  0  0
 18 19  1  0  0  0  0
 19 14  1  0  0  0  0
 20 10  1  0  0  0  0
 21 12  1  0  0  0  0
M  END
>  <CHROM.1>
56.05331847,-123.96688810,-95.30022562,-1.88946973,8.92401264,0.57886407
-0.53059476,0.93102808,-1.30924850

>  <Name>
lig.pdb

>  <RI>
2.05709e+07

>  <Rbt.Current_Directory>
/home/itssahil/PROJECTS/Mol_Feturizer/New_Systems/rnas/2lwk

>  <Rbt.Executable>
rbdock ($Id: //depot/dev/client3/rdock/2013.1/src/exe/rbdock.cxx#4 $)

>  <Rbt.Library>
libRbt.so (2013.1, Build901 2013/11/27)

>  <Rbt.Parameter_File>
/export/apps/rDock/src/rDock_2013.1_src/data/scripts/dock_solv.prm

>  <Rbt.Receptor>
prm/blind_docking_40.prm

>  <SCORE>
-20.5954

>  <SCORE.INTER>
-17.9158

>  <SCORE.INTER.CONST>
1

>  <SCORE.INTER.POLAR>
-1.64964

>  <SCORE.INTER.ROT>
3

>  <SCORE.INTER.SOLV>
14.4056

>  <SCORE.INTER.VDW>
-16.8469

>  <SCORE.INTER.norm>
-0.853133

>  <SCORE.INTRA>
-4.67538

>  <SCORE.INTRA.DIHEDRAL>
0.345789

>  <SCORE.INTRA.DIHEDRAL.0>
8.84257

>  <SCORE.INTRA.POLAR>
0

>  <SCORE.INTRA.POLAR.0>
0

>  <SCORE.INTRA.REPUL>
0

>  <SCORE.INTRA.REPUL.0>
0

>  <SCORE.INTRA.SOLV>
0.114487

>  <SCORE.INTRA.SOLV.lig_0>
-17.1313

>  <SCORE.INTRA.VDW>
-4.90552

>  <SCORE.INTRA.VDW.0>
6.34071

>  <SCORE.INTRA.norm>
-0.222637

>  <SCORE.RESTR>
1.99575

>  <SCORE.RESTR.CAVITY>
1.99575

>  <SCORE.RESTR.norm>
0.0950356

>  <SCORE.SYSTEM>
0

>  <SCORE.SYSTEM.CONST>
0

>  <SCORE.SYSTEM.DIHEDRAL>
0

>  <SCORE.SYSTEM.SOLV>
0

>  <SCORE.SYSTEM.norm>
0

>  <SCORE.heavy>
21

>  <SCORE.norm>
-0.980734

>  <RMSD>
12.710

$$$$
lig.pdb
 OpenBabel11021811453D
libRbt.so/2013.1/901 2013/11/27
 21 23  0  0  0  0  0  0  0  0999 V2000
   -0.7552    7.2429    0.3906 C   0  0  0  0  0  0  0  0  0  0  0  0
   -1.5283    8.0238    1.1368 N   0  0  0  0  0  0  0  0  0  0  0  0
   -2.0858    9.0989    0.6094 C   0  0  0  0  0  0  0  0  0  0  0  0
   -1.8134    9.4398   -0.6664 C   0  0  0  0  0  0  0  0  0  0  0  0
   -1.0361    8.6478   -1.4170 C   0  0  0  0  0  0  0  0  0  0  0  0
   -0.7575    8.9795   -2.6771 N   0  0  0  0  0  0  0  0  0  0  0  0
   -0.5071    7.5518   -0.8829 N   0  0  0  0  0  0  0  0  0  0  0  0
   -2.8853    9.8707    1.3644 C   0  0  0  0  0  0  0  0  0  0  0  0
   -3.3126   11.0722    0.8683 C   0  0  0  0  0  0  0  0  0  0  0  0
   -3.3573   12.1727    1.7572 O   0  0  0  0  0  0  0  0  0  0  0  0
   -3.1944   11.2971   -0.4506 C   0  0  0  0  0  0  0  0  0  0  0  0
   -4.0123   12.2774   -1.0737 O   0  0  0  0  0  0  0  0  0  0  0  0
   -2.3619   10.5429   -1.1947 C   0  0  0  0  0  0  0  0  0  0  0  0
   -0.2157    6.1607    0.9243 N   0  0  0  0  0  0  0  0  0  0  0  0
   -1.0602    5.2886    1.4834 C   0  0  0  0  0  0  0  0  0  0  0  0
   -1.4702    5.7726    2.8660 C   0  0  0  0  0  0  0  0  0  0  0  0
   -0.3543    5.8758    3.6705 N   0  0  0  0  0  0  0  0  0  0  0  0
    0.4785    6.8094    3.0931 C   0  0  0  0  0  0  0  0  0  0  0  0
    0.8937    6.3264    1.7134 C   0  0  0  0  0  0  0  0  0  0  0  0
   -4.6703   12.6717    1.7678 C   0  0  0  0  0  0  0  0  0  0  0  0
   -5.1736   11.6543   -1.5569 C   0  0  0  0  0  0  0  0  0  0  0  0
  1 14  1  0  0  0  0
  1  2  2  0  0  0  0
  3  2  1  0  0  0  0
  3  8  2  0  0  0  0
  4  3  1  0  0  0  0
  5  7  2  0  0  0  0
  5  4  1  0  0  0  0
  6  5  1  0  0  0  0
  7  1  1  0  0  0  0
  9 10  1  0  0  0  0
  9  8  1  0  0  0  0
 11  9  2  0  0  0  0
 12 11  1  0  0  0  0
 13  4  2  0  0  0  0
 13 11  1  0  0  0  0
 14 15  1  0  0  0  0
 16 15  1  0  0  0  0
 17 16  1  0  0  0  0
 18 17  1  0  0  0  0
 18 19  1  0  0  0  0
 19 14  1  0  0  0  0
 20 10  1  0  0  0  0
 21 12  1  0  0  0  0
M  END
>  <CHROM.1>
55.78751504,-122.87052168,-92.21111507,-1.88478783,8.91777933,0.56983491
-0.53369817,0.93078630,-1.30518696

>  <Name>
lig.pdb

>  <RI>
2.05709e+07

>  <Rbt.Current_Directory>
/home/itssahil/PROJECTS/Mol_Feturizer/New_Systems/rnas/2lwk

>  <Rbt.Executable>
rbdock ($Id: //depot/dev/client3/rdock/2013.1/src/exe/rbdock.cxx#4 $)

>  <Rbt.Library>
libRbt.so (2013.1, Build901 2013/11/27)

>  <Rbt.Parameter_File>
/export/apps/rDock/src/rDock_2013.1_src/data/scripts/dock_solv.prm

>  <Rbt.Receptor>
prm/blind_docking_40.prm

>  <SCORE>
-20.6888

>  <SCORE.INTER>
-17.9808

>  <SCORE.INTER.CONST>
1

>  <SCORE.INTER.POLAR>
-1.67368

>  <SCORE.INTER.ROT>
3

>  <SCORE.INTER.SOLV>
14.433

>  <SCORE.INTER.VDW>
-16.8192

>  <SCORE.INTER.norm>
-0.856227

>  <SCORE.INTRA>
-4.72207

>  <SCORE.INTRA.DIHEDRAL>
0.453505

>  <SCORE.INTRA.DIHEDRAL.0>
8.84257

>  <SCORE.INTRA.POLAR>
0

>  <SCORE.INTRA.POLAR.0>
0

>  <SCORE.INTRA.REPUL>
0

>  <SCORE.INTRA.REPUL.0>
0

>  <SCORE.INTRA.SOLV>
0.114916

>  <SCORE.INTRA.SOLV.lig_0>
-17.1313

>  <SCORE.INTRA.VDW>
-5.00628

>  <SCORE.INTRA.VDW.0>
6.34071

>  <SCORE.INTRA.norm>
-0.224861

>  <SCORE.RESTR>
2.01406

>  <SCORE.RESTR.CAVITY>
2.01406

>  <SCORE.RESTR.norm>
0.0959078

>  <SCORE.SYSTEM>
0

>  <SCORE.SYSTEM.CONST>
0

>  <SCORE.SYSTEM.DIHEDRAL>
0

>  <SCORE.SYSTEM.SOLV>
0

>  <SCORE.SYSTEM.norm>
0

>  <SCORE.heavy>
21

>  <SCORE.norm>
-0.98518

>  <RMSD>
12.711

$$$$
lig.pdb
 OpenBabel11021811453D
libRbt.so/2013.1/901 2013/11/27
 21 23  0  0  0  0  0  0  0  0999 V2000
   -0.7528    7.2576    0.4071 C   0  0  0  0  0  0  0  0  0  0  0  0
   -1.5216    8.0362    1.1602 N   0  0  0  0  0  0  0  0  0  0  0  0
   -2.0861    9.1102    0.6380 C   0  0  0  0  0  0  0  0  0  0  0  0
   -1.8251    9.4524   -0.6399 C   0  0  0  0  0  0  0  0  0  0  0  0
   -1.0522    8.6627   -1.3974 C   0  0  0  0  0  0  0  0  0  0  0  0
   -0.7848    8.9957   -2.6596 N   0  0  0  0  0  0  0  0  0  0  0  0
   -0.5161    7.5677   -0.8682 N   0  0  0  0  0  0  0  0  0  0  0  0
   -2.8811    9.8796    1.3999 C   0  0  0  0  0  0  0  0  0  0  0  0
   -3.3155   11.0803    0.9081 C   0  0  0  0  0  0  0  0  0  0  0  0
   -3.3555   12.1802    1.7978 O   0  0  0  0  0  0  0  0  0  0  0  0
   -3.2088   11.3062   -0.4117 C   0  0  0  0  0  0  0  0  0  0  0  0
   -4.0343   12.2847   -1.0275 O   0  0  0  0  0  0  0  0  0  0  0  0
   -2.3807   10.5543   -1.1631 C   0  0  0  0  0  0  0  0  0  0  0  0
   -0.2062    6.1764    0.9358 N   0  0  0  0  0  0  0  0  0  0  0  0
   -1.0456    5.2926    1.4840 C   0  0  0  0  0  0  0  0  0  0  0  0
   -1.4672    5.7627    2.8680 C   0  0  0  0  0  0  0  0  0  0  0  0
   -0.3564    5.8702    3.6790 N   0  0  0  0  0  0  0  0  0  0  0  0
    0.4708    6.8155    3.1129 C   0  0  0  0  0  0  0  0  0  0  0  0
    0.8975    6.3464    1.7319 C   0  0  0  0  0  0  0  0  0  0  0  0
   -4.6602   12.7006    1.7896 C   0  0  0  0  0  0  0  0  0  0  0  0
   -5.1799   11.6526   -1.5358 C   0  0  0  0  0  0  0  0  0  0  0  0
  1 14  1  0  0  0  0
  1  2  2  0  0  0  0
  3  2  1  0  0  0  0
  3  8  2  0  0  0  0
  4  3  1  0  0  0  0
  5  7  2  0  0  0  0
  5  4  1  0  0  0  0
  6  5  1  0  0  0  0
  7  1  1  0  0  0  0
  9 10  1  0  0  0  0
  9  8  1  0  0  0  0
 11  9  2  0  0  0  0
 12 11  1  0  0  0  0
 13  4  2  0  0  0  0
 13 11  1  0  0  0  0
 14 15  1  0  0  0  0
 16 15  1  0  0  0  0
 17 16  1  0  0  0  0
 18 17  1  0  0  0  0
 18 19  1  0  0  0  0
 19 14  1  0  0  0  0
 20 10  1  0  0  0  0
 21 12  1  0  0  0  0
M  END
>  <CHROM.1>
56.73519213,-124.58269391,-93.91582681,-1.88877505,8.92758575,0.59271387
-0.52350341,0.93363915,-1.31359232

>  <Name>
lig.pdb

>  <RI>
1.05666e+07

>  <Rbt.Current_Directory>
/home/itssahil/PROJECTS/Mol_Feturizer/New_Systems/rnas/2lwk

>  <Rbt.Executable>
rbdock ($Id: //depot/dev/client3/rdock/2013.1/src/exe/rbdock.cxx#4 $)

>  <Rbt.Library>
libRbt.so (2013.1, Build901 2013/11/27)

>  <Rbt.Parameter_File>
/export/apps/rDock/src/rDock_2013.1_src/data/scripts/dock_solv.prm

>  <Rbt.Receptor>
prm/blind_docking_80.prm

>  <SCORE>
-20.5648

>  <SCORE.INTER>
-17.8879

>  <SCORE.INTER.CONST>
1

>  <SCORE.INTER.POLAR>
-1.64277

>  <SCORE.INTER.ROT>
3

>  <SCORE.INTER.SOLV>
14.4112

>  <SCORE.INTER.VDW>
-16.8531

>  <SCORE.INTER.norm>
-0.851807

>  <SCORE.INTRA>
-4.65965

>  <SCORE.INTRA.DIHEDRAL>
0.339114

>  <SCORE.INTRA.DIHEDRAL.0>
8.84257

>  <SCORE.INTRA.POLAR>
0

>  <SCORE.INTRA.POLAR.0>
0

>  <SCORE.INTRA.REPUL>
0

>  <SCORE.INTRA.REPUL.0>
0

>  <SCORE.INTRA.SOLV>
0.116226

>  <SCORE.INTRA.SOLV.lig_0>
-17.1313

>  <SCORE.INTRA.VDW>
-4.88732

>  <SCORE.INTRA.VDW.0>
6.34071

>  <SCORE.INTRA.norm>
-0.221888

>  <SCORE.RESTR>
1.9828

>  <SCORE.RESTR.CAVITY>
1.9828

>  <SCORE.RESTR.norm>
0.094419

>  <SCORE.SYSTEM>
0

>  <SCORE.SYSTEM.CONST>
0

>  <SCORE.SYSTEM.DIHEDRAL>
0

>  <SCORE.SYSTEM.SOLV>
0

>  <SCORE.SYSTEM.norm>
0

>  <SCORE.heavy>
21

>  <SCORE.norm>
-0.979276

>  <RMSD>
12.711

$$$$
lig.pdb
 OpenBabel11021811453D
libRbt.so/2013.1/901 2013/11/27
 21 23  0  0  0  0  0  0  0  0999 V2000
   -0.7496    7.2438    0.3911 C   0  0  0  0  0  0  0  0  0  0  0  0
   -1.5218    8.0231    1.1398 N   0  0  0  0  0  0  0  0  0  0  0  0
   -2.0823    9.0977    0.6146 C   0  0  0  0  0  0  0  0  0  0  0  0
   -1.8140    9.4396   -0.6619 C   0  0  0  0  0  0  0  0  0  0  0  0
   -1.0377    8.6491   -1.4151 C   0  0  0  0  0  0  0  0  0  0  0  0
   -0.7631    8.9819   -2.6758 N   0  0  0  0  0  0  0  0  0  0  0  0
   -0.5056    7.5536   -0.8830 N   0  0  0  0  0  0  0  0  0  0  0  0
   -2.8808    9.8679    1.3722 C   0  0  0  0  0  0  0  0  0  0  0  0
   -3.3113   11.0690    0.8779 C   0  0  0  0  0  0  0  0  0  0  0  0
   -3.3551   12.1690    1.7674 O   0  0  0  0  0  0  0  0  0  0  0  0
   -3.1971   11.2948   -0.4413 C   0  0  0  0  0  0  0  0  0  0  0  0
   -4.0182   12.2742   -1.0616 O   0  0  0  0  0  0  0  0  0  0  0  0
   -2.3656   10.5421   -1.1881 C   0  0  0  0  0  0  0  0  0  0  0  0
   -0.2070    6.1620    0.9227 N   0  0  0  0  0  0  0  0  0  0  0  0
   -1.0493    5.2853    1.4779 C   0  0  0  0  0  0  0  0  0  0  0  0
   -1.4635    5.7639    2.8611 C   0  0  0  0  0  0  0  0  0  0  0  0
   -0.3493    5.8690    3.6678 N   0  0  0  0  0  0  0  0  0  0  0  0
    0.4810    6.8072    3.0945 C   0  0  0  0  0  0  0  0  0  0  0  0
    0.9004    6.3296    1.7142 C   0  0  0  0  0  0  0  0  0  0  0  0
   -4.6597   12.6895    1.7535 C   0  0  0  0  0  0  0  0  0  0  0  0
   -5.1609   11.6430   -1.5775 C   0  0  0  0  0  0  0  0  0  0  0  0
  1 14  1  0  0  0  0
  1  2  2  0  0  0  0
  3  2  1  0  0  0  0
  3  8  2  0  0  0  0
  4  3  1  0  0  0  0
  5  7  2  0  0  0  0
  5  4  1  0  0  0  0
  6  5  1  0  0  0  0
  7  1  1  0  0  0  0
  9 10  1  0  0  0  0
  9  8  1  0  0  0  0
 11  9  2  0  0  0  0
 12 11  1  0  0  0  0
 13  4  2  0  0  0  0
 13 11  1  0  0  0  0
 14 15  1  0  0  0  0
 16 15  1  0  0  0  0
 17 16  1  0  0  0  0
 18 17  1  0  0  0  0
 18 19  1  0  0  0  0
 19 14  1  0  0  0  0
 20 10  1  0  0  0  0
 21 12  1  0  0  0  0
M  END
>  <CHROM.1>
56.10654040,-124.50254498,-93.98125725,-1.88146705,8.91673977,0.57078061
-0.52959403,0.93235174,-1.30995575

>  <Name>
lig.pdb

>  <RI>
1.05666e+07

>  <Rbt.Current_Directory>
/home/itssahil/PROJECTS/Mol_Feturizer/New_Systems/rnas/2lwk

>  <Rbt.Executable>
rbdock ($Id: //depot/dev/client3/rdock/2013.1/src/exe/rbdock.cxx#4 $)

>  <Rbt.Library>
libRbt.so (2013.1, Build901 2013/11/27)

>  <Rbt.Parameter_File>
/export/apps/rDock/src/rDock_2013.1_src/data/scripts/dock_solv.prm

>  <Rbt.Receptor>
prm/blind_docking_80.prm

>  <SCORE>
-20.6171

>  <SCORE.INTER>
-17.9656

>  <SCORE.INTER.CONST>
1

>  <SCORE.INTER.POLAR>
-1.66662

>  <SCORE.INTER.ROT>
3

>  <SCORE.INTER.SOLV>
14.4514

>  <SCORE.INTER.VDW>
-16.8388

>  <SCORE.INTER.norm>
-0.855503

>  <SCORE.INTRA>
-4.64842

>  <SCORE.INTRA.DIHEDRAL>
0.342563

>  <SCORE.INTRA.DIHEDRAL.0>
8.84257

>  <SCORE.INTRA.POLAR>
0

>  <SCORE.INTRA.POLAR.0>
0

>  <SCORE.INTRA.REPUL>
0

>  <SCORE.INTRA.REPUL.0>
0

>  <SCORE.INTRA.SOLV>
0.115767

>  <SCORE.INTRA.SOLV.lig_0>
-17.1313

>  <SCORE.INTRA.VDW>
-4.87759

>  <SCORE.INTRA.VDW.0>
6.34071

>  <SCORE.INTRA.norm>
-0.221353

>  <SCORE.RESTR>
1.99686

>  <SCORE.RESTR.CAVITY>
1.99686

>  <SCORE.RESTR.norm>
0.0950888

>  <SCORE.SYSTEM>
0

>  <SCORE.SYSTEM.CONST>
0

>  <SCORE.SYSTEM.DIHEDRAL>
0

>  <SCORE.SYSTEM.SOLV>
0

>  <SCORE.SYSTEM.norm>
0

>  <SCORE.heavy>
21

>  <SCORE.norm>
-0.981767

>  <RMSD>
12.711

$$$$
lig.pdb
 OpenBabel11021811453D
libRbt.so/2013.1/901 2013/11/27
 21 23  0  0  0  0  0  0  0  0999 V2000
   -0.7543    7.2522    0.4017 C   0  0  0  0  0  0  0  0  0  0  0  0
   -1.5239    8.0303    1.1544 N   0  0  0  0  0  0  0  0  0  0  0  0
   -2.0856    9.1061    0.6330 C   0  0  0  0  0  0  0  0  0  0  0  0
   -1.8210    9.4505   -0.6436 C   0  0  0  0  0  0  0  0  0  0  0  0
   -1.0472    8.6613   -1.4007 C   0  0  0  0  0  0  0  0  0  0  0  0
   -0.7763    8.9965   -2.6615 N   0  0  0  0  0  0  0  0  0  0  0  0
   -0.5140    7.5645   -0.8724 N   0  0  0  0  0  0  0  0  0  0  0  0
   -2.8815    9.8751    1.3945 C   0  0  0  0  0  0  0  0  0  0  0  0
   -3.3130   11.0774    0.9040 C   0  0  0  0  0  0  0  0  0  0  0  0
   -3.3537   12.1756    1.7958 O   0  0  0  0  0  0  0  0  0  0  0  0
   -3.2027   11.3058   -0.4151 C   0  0  0  0  0  0  0  0  0  0  0  0
   -4.0253   12.2867   -1.0309 O   0  0  0  0  0  0  0  0  0  0  0  0
   -2.3738   10.5543   -1.1659 C   0  0  0  0  0  0  0  0  0  0  0  0
   -0.2105    6.1692    0.9296 N   0  0  0  0  0  0  0  0  0  0  0  0
   -1.0517    5.2901    1.4825 C   0  0  0  0  0  0  0  0  0  0  0  0
   -1.4653    5.7639    2.8675 C   0  0  0  0  0  0  0  0  0  0  0  0
   -0.3507    5.8673    3.6738 N   0  0  0  0  0  0  0  0  0  0  0  0
    0.4786    6.8080    3.1029 C   0  0  0  0  0  0  0  0  0  0  0  0
    0.8973    6.3351    1.7208 C   0  0  0  0  0  0  0  0  0  0  0  0
   -4.6575   12.6982    1.7849 C   0  0  0  0  0  0  0  0  0  0  0  0
   -5.1678   11.6564   -1.5484 C   0  0  0  0  0  0  0  0  0  0  0  0
  1 14  1  0  0  0  0
  1  2  2  0  0  0  0
  3  2  1  0  0  0  0
  3  8  2  0  0  0  0
  4  3  1  0  0  0  0
  5  7  2  0  0  0  0
  5  4  1  0  0  0  0
  6  5  1  0  0  0  0
  7  1  1  0  0  0  0
  9 10  1  0  0  0  0
  9  8  1  0  0  0  0
 11  9  2  0  0  0  0
 12 11  1  0  0  0  0
 13  4  2  0  0  0  0
 13 11  1  0  0  0  0
 14 15  1  0  0  0  0
 16 15  1  0  0  0  0
 17 16  1  0  0  0  0
 18 17  1  0  0  0  0
 18 19  1  0  0  0  0
 19 14  1  0  0  0  0
 20 10  1  0  0  0  0
 21 12  1  0  0  0  0
M  END
>  <CHROM.1>
56.26869040,-124.61258496,-94.16402484,-1.88569918,8.92477091,0.58783250
-0.52568737,0.93385587,-1.31100860

>  <Name>
lig.pdb

>  <RI>
1.99026e+07

>  <Rbt.Current_Directory>
/home/itssahil/PROJECTS/Mol_Feturizer/New_Systems/rnas/2lwk

>  <Rbt.Executable>
rbdock ($Id: //depot/dev/client3/rdock/2013.1/src/exe/rbdock.cxx#4 $)

>  <Rbt.Library>
libRbt.so (2013.1, Build901 2013/11/27)

>  <Rbt.Parameter_File>
/export/apps/rDock/src/rDock_2013.1_src/data/scripts/dock_solv.prm

>  <Rbt.Receptor>
prm/blind_docking_60.prm

>  <SCORE>
-20.5766

>  <SCORE.INTER>
-17.9147

>  <SCORE.INTER.CONST>
1

>  <SCORE.INTER.POLAR>
-1.64234

>  <SCORE.INTER.ROT>
3

>  <SCORE.INTER.SOLV>
14.431

>  <SCORE.INTER.VDW>
-16.879

>  <SCORE.INTER.norm>
-0.85308

>  <SCORE.INTRA>
-4.64568

>  <SCORE.INTRA.DIHEDRAL>
0.333394

>  <SCORE.INTRA.DIHEDRAL.0>
8.84257

>  <SCORE.INTRA.POLAR>
0

>  <SCORE.INTRA.POLAR.0>
0

>  <SCORE.INTRA.REPUL>
0

>  <SCORE.INTRA.REPUL.0>
0

>  <SCORE.INTRA.SOLV>
0.115869

>  <SCORE.INTRA.SOLV.lig_0>
-17.1313

>  <SCORE.INTRA.VDW>
-4.87031

>  <SCORE.INTRA.VDW.0>
6.34071

>  <SCORE.INTRA.norm>
-0.221223

>  <SCORE.RESTR>
1.98376

>  <SCORE.RESTR.CAVITY>
1.98376

>  <SCORE.RESTR.norm>
0.0944649

>  <SCORE.SYSTEM>
0

>  <SCORE.SYSTEM.CONST>
0

>  <SCORE.SYSTEM.DIHEDRAL>
0

>  <SCORE.SYSTEM.SOLV>
0

>  <SCORE.SYSTEM.norm>
0

>  <SCORE.heavy>
21

>  <SCORE.norm>
-0.979837

>  <RMSD>
12.712

$$$$
lig.pdb
 OpenBabel11021811453D
libRbt.so/2013.1/901 2013/11/27
 21 23  0  0  0  0  0  0  0  0999 V2000
   -0.7444    7.2419    0.3970 C   0  0  0  0  0  0  0  0  0  0  0  0
   -1.5216    8.0201    1.1417 N   0  0  0  0  0  0  0  0  0  0  0  0
   -2.0786    9.0954    0.6143 C   0  0  0  0  0  0  0  0  0  0  0  0
   -1.8018    9.4393   -0.6598 C   0  0  0  0  0  0  0  0  0  0  0  0
   -1.0204    8.6499   -1.4089 C   0  0  0  0  0  0  0  0  0  0  0  0
   -0.7374    8.9846   -2.6673 N   0  0  0  0  0  0  0  0  0  0  0  0
   -0.4919    7.5537   -0.8749 N   0  0  0  0  0  0  0  0  0  0  0  0
   -2.8822    9.8645    1.3677 C   0  0  0  0  0  0  0  0  0  0  0  0
   -3.3094   11.0663    0.8724 C   0  0  0  0  0  0  0  0  0  0  0  0
   -3.3592   12.1650    1.7633 O   0  0  0  0  0  0  0  0  0  0  0  0
   -3.1864   11.2941   -0.4456 C   0  0  0  0  0  0  0  0  0  0  0  0
   -4.0034   12.2744   -1.0699 O   0  0  0  0  0  0  0  0  0  0  0  0
   -2.3499   10.5426   -1.1880 C   0  0  0  0  0  0  0  0  0  0  0  0
   -0.2053    6.1594    0.9306 N   0  0  0  0  0  0  0  0  0  0  0  0
   -1.0505    5.2857    1.4861 C   0  0  0  0  0  0  0  0  0  0  0  0
   -1.4648    5.7673    2.8683 C   0  0  0  0  0  0  0  0  0  0  0  0
   -0.3512    5.8704    3.6759 N   0  0  0  0  0  0  0  0  0  0  0  0
    0.4823    6.8056    3.1023 C   0  0  0  0  0  0  0  0  0  0  0  0
    0.9017    6.3250    1.7230 C   0  0  0  0  0  0  0  0  0  0  0  0
   -4.6701   12.6696    1.7606 C   0  0  0  0  0  0  0  0  0  0  0  0
   -5.1402   11.6432   -1.5988 C   0  0  0  0  0  0  0  0  0  0  0  0
  1 14  1  0  0  0  0
  1  2  2  0  0  0  0
  3  2  1  0  0  0  0
  3  8  2  0  0  0  0
  4  3  1  0  0  0  0
  5  7  2  0  0  0  0
  5  4  1  0  0  0  0
  6  5  1  0  0  0  0
  7  1  1  0  0  0  0
  9 10  1  0  0  0  0
  9  8  1  0  0  0  0
 11  9  2  0  0  0  0
 12 11  1  0  0  0  0
 13  4  2  0  0  0  0
 13 11  1  0  0  0  0
 14 15  1  0  0  0  0
 16 15  1  0  0  0  0
 17 16  1  0  0  0  0
 18 17  1  0  0  0  0
 18 19  1  0  0  0  0
 19 14  1  0  0  0  0
 20 10  1  0  0  0  0
 21 12  1  0  0  0  0
M  END
>  <CHROM.1>
55.70900092,-123.39581246,-94.19608421,-1.87547022,8.91493564,0.57264296
-0.53869046,0.92952841,-1.30166269

>  <Name>
lig.pdb

>  <RI>
1.05666e+07

>  <Rbt.Current_Directory>
/home/itssahil/PROJECTS/Mol_Feturizer/New_Systems/rnas/2lwk

>  <Rbt.Executable>
rbdock ($Id: //depot/dev/client3/rdock/2013.1/src/exe/rbdock.cxx#4 $)

>  <Rbt.Library>
libRbt.so (2013.1, Build901 2013/11/27)

>  <Rbt.Parameter_File>
/export/apps/rDock/src/rDock_2013.1_src/data/scripts/dock_solv.prm

>  <Rbt.Receptor>
prm/blind_docking_80.prm

>  <SCORE>
-20.5524

>  <SCORE.INTER>
-17.8338

>  <SCORE.INTER.CONST>
1

>  <SCORE.INTER.POLAR>
-1.65666

>  <SCORE.INTER.ROT>
3

>  <SCORE.INTER.SOLV>
14.5101

>  <SCORE.INTER.VDW>
-16.8037

>  <SCORE.INTER.norm>
-0.849228

>  <SCORE.INTRA>
-4.70262

>  <SCORE.INTRA.DIHEDRAL>
0.397039

>  <SCORE.INTRA.DIHEDRAL.0>
8.84257

>  <SCORE.INTRA.POLAR>
0

>  <SCORE.INTRA.POLAR.0>
0

>  <SCORE.INTRA.REPUL>
0

>  <SCORE.INTRA.REPUL.0>
0

>  <SCORE.INTRA.SOLV>
0.114305

>  <SCORE.INTRA.SOLV.lig_0>
-17.1313

>  <SCORE.INTRA.VDW>
-4.95829

>  <SCORE.INTRA.VDW.0>
6.34071

>  <SCORE.INTRA.norm>
-0.223934

>  <SCORE.RESTR>
1.98398

>  <SCORE.RESTR.CAVITY>
1.98398

>  <SCORE.RESTR.norm>
0.0944752

>  <SCORE.SYSTEM>
0

>  <SCORE.SYSTEM.CONST>
0

>  <SCORE.SYSTEM.DIHEDRAL>
0

>  <SCORE.SYSTEM.SOLV>
0

>  <SCORE.SYSTEM.norm>
0

>  <SCORE.heavy>
21

>  <SCORE.norm>
-0.978687

>  <RMSD>
12.712

$$$$
lig.pdb
 OpenBabel11021811453D
libRbt.so/2013.1/901 2013/11/27
 21 23  0  0  0  0  0  0  0  0999 V2000
   -0.7473    7.2493    0.3981 C   0  0  0  0  0  0  0  0  0  0  0  0
   -1.5202    8.0287    1.1460 N   0  0  0  0  0  0  0  0  0  0  0  0
   -2.0810    9.1027    0.6199 C   0  0  0  0  0  0  0  0  0  0  0  0
   -1.8123    9.4440   -0.6566 C   0  0  0  0  0  0  0  0  0  0  0  0
   -1.0352    8.6534   -1.4090 C   0  0  0  0  0  0  0  0  0  0  0  0
   -0.7602    8.9856   -2.6698 N   0  0  0  0  0  0  0  0  0  0  0  0
   -0.5029    7.5585   -0.8761 N   0  0  0  0  0  0  0  0  0  0  0  0
   -2.8802    9.8730    1.3767 C   0  0  0  0  0  0  0  0  0  0  0  0
   -3.3110   11.0736    0.8815 C   0  0  0  0  0  0  0  0  0  0  0  0
   -3.3557   12.1741    1.7704 O   0  0  0  0  0  0  0  0  0  0  0  0
   -3.1964   11.2986   -0.4378 C   0  0  0  0  0  0  0  0  0  0  0  0
   -4.0176   12.2773   -1.0590 O   0  0  0  0  0  0  0  0  0  0  0  0
   -2.3642   10.5459   -1.1837 C   0  0  0  0  0  0  0  0  0  0  0  0
   -0.2044    6.1681    0.9306 N   0  0  0  0  0  0  0  0  0  0  0  0
   -1.0468    5.2898    1.4831 C   0  0  0  0  0  0  0  0  0  0  0  0
   -1.4653    5.7671    2.8655 C   0  0  0  0  0  0  0  0  0  0  0  0
   -0.3535    5.8734    3.6751 N   0  0  0  0  0  0  0  0  0  0  0  0
    0.4769    6.8133    3.1045 C   0  0  0  0  0  0  0  0  0  0  0  0
    0.9006    6.3370    1.7251 C   0  0  0  0  0  0  0  0  0  0  0  0
   -4.6678   12.6756    1.7778 C   0  0  0  0  0  0  0  0  0  0  0  0
   -5.1397   11.6394   -1.6107 C   0  0  0  0  0  0  0  0  0  0  0  0
  1 14  1  0  0  0  0
  1  2  2  0  0  0  0
  3  2  1  0  0  0  0
  3  8  2  0  0  0  0
  4  3  1  0  0  0  0
  5  7  2  0  0  0  0
  5  4  1  0  0  0  0
  6  5  1  0  0  0  0
  7  1  1  0  0  0  0
  9 10  1  0  0  0  0
  9  8  1  0  0  0  0
 11  9  2  0  0  0  0
 12 11  1  0  0  0  0
 13  4  2  0  0  0  0
 13 11  1  0  0  0  0
 14 15  1  0  0  0  0
 16 15  1  0  0  0  0
 17 16  1  0  0  0  0
 18 17  1  0  0  0  0
 18 19  1  0  0  0  0
 19 14  1  0  0  0  0
 20 10  1  0  0  0  0
 21 12  1  0  0  0  0
M  END
>  <CHROM.1>
56.25854849,-123.22482313,-95.76192830,-1.88020703,8.92008603,0.57550487
-0.53139139,0.93217321,-1.31009858

>  <Name>
lig.pdb

>  <RI>
1.99026e+07

>  <Rbt.Current_Directory>
/home/itssahil/PROJECTS/Mol_Feturizer/New_Systems/rnas/2lwk

>  <Rbt.Executable>
rbdock ($Id: //depot/dev/client3/rdock/2013.1/src/exe/rbdock.cxx#4 $)

>  <Rbt.Library>
libRbt.so (2013.1, Build901 2013/11/27)

>  <Rbt.Parameter_File>
/export/apps/rDock/src/rDock_2013.1_src/data/scripts/dock_solv.prm

>  <Rbt.Receptor>
prm/blind_docking_60.prm

>  <SCORE>
-20.5951

>  <SCORE.INTER>
-17.8676

>  <SCORE.INTER.CONST>
1

>  <SCORE.INTER.POLAR>
-1.66383

>  <SCORE.INTER.ROT>
3

>  <SCORE.INTER.SOLV>
14.4681

>  <SCORE.INTER.VDW>
-16.7883

>  <SCORE.INTER.norm>
-0.850836

>  <SCORE.INTRA>
-4.71943

>  <SCORE.INTRA.DIHEDRAL>
0.374144

>  <SCORE.INTRA.DIHEDRAL.0>
8.84257

>  <SCORE.INTRA.POLAR>
0

>  <SCORE.INTRA.POLAR.0>
0

>  <SCORE.INTRA.REPUL>
0

>  <SCORE.INTRA.REPUL.0>
0

>  <SCORE.INTRA.SOLV>
0.113608

>  <SCORE.INTRA.SOLV.lig_0>
-17.1313

>  <SCORE.INTRA.VDW>
-4.96331

>  <SCORE.INTRA.VDW.0>
6.34071

>  <SCORE.INTRA.norm>
-0.224735

>  <SCORE.RESTR>
1.99187

>  <SCORE.RESTR.CAVITY>
1.99187

>  <SCORE.RESTR.norm>
0.0948511

>  <SCORE.SYSTEM>
0

>  <SCORE.SYSTEM.CONST>
0

>  <SCORE.SYSTEM.DIHEDRAL>
0

>  <SCORE.SYSTEM.SOLV>
0

>  <SCORE.SYSTEM.norm>
0

>  <SCORE.heavy>
21

>  <SCORE.norm>
-0.98072

>  <RMSD>
12.713

$$$$
lig.pdb
 OpenBabel11021811453D
libRbt.so/2013.1/901 2013/11/27
 21 23  0  0  0  0  0  0  0  0999 V2000
   -0.7633    7.2525    0.3952 C   0  0  0  0  0  0  0  0  0  0  0  0
   -1.5334    8.0321    1.1457 N   0  0  0  0  0  0  0  0  0  0  0  0
   -2.0936    9.1077    0.6221 C   0  0  0  0  0  0  0  0  0  0  0  0
   -1.8270    9.4502   -0.6545 C   0  0  0  0  0  0  0  0  0  0  0  0
   -1.0527    8.6594   -1.4095 C   0  0  0  0  0  0  0  0  0  0  0  0
   -0.7797    8.9928   -2.6704 N   0  0  0  0  0  0  0  0  0  0  0  0
   -0.5209    7.5630   -0.8790 N   0  0  0  0  0  0  0  0  0  0  0  0
   -2.8900    9.8782    1.3815 C   0  0  0  0  0  0  0  0  0  0  0  0
   -3.3200   11.0801    0.8888 C   0  0  0  0  0  0  0  0  0  0  0  0
   -3.3612   12.1795    1.7792 O   0  0  0  0  0  0  0  0  0  0  0  0
   -3.2077   11.3067   -0.4304 C   0  0  0  0  0  0  0  0  0  0  0  0
   -4.0288   12.2875   -1.0486 O   0  0  0  0  0  0  0  0  0  0  0  0
   -2.3782   10.5537   -1.1790 C   0  0  0  0  0  0  0  0  0  0  0  0
   -0.2210    6.1698    0.9252 N   0  0  0  0  0  0  0  0  0  0  0  0
   -1.0630    5.2948    1.4833 C   0  0  0  0  0  0  0  0  0  0  0  0
   -1.4716    5.7745    2.8679 C   0  0  0  0  0  0  0  0  0  0  0  0
   -0.3545    5.8775    3.6708 N   0  0  0  0  0  0  0  0  0  0  0  0
    0.4757    6.8140    3.0945 C   0  0  0  0  0  0  0  0  0  0  0  0
    0.8894    6.3354    1.7129 C   0  0  0  0  0  0  0  0  0  0  0  0
   -4.6663   12.6988    1.7709 C   0  0  0  0  0  0  0  0  0  0  0  0
   -5.1670   11.6560   -1.5740 C   0  0  0  0  0  0  0  0  0  0  0  0
  1 14  1  0  0  0  0
  1  2  2  0  0  0  0
  3  2  1  0  0  0  0
  3  8  2  0  0  0  0
  4  3  1  0  0  0  0
  5  7  2  0  0  0  0
  5  4  1  0  0  0  0
  6  5  1  0  0  0  0
  7  1  1  0  0  0  0
  9 10  1  0  0  0  0
  9  8  1  0  0  0  0
 11  9  2  0  0  0  0
 12 11  1  0  0  0  0
 13  4  2  0  0  0  0
 13 11  1  0  0  0  0
 14 15  1  0  0  0  0
 16 15  1  0  0  0  0
 17 16  1  0  0  0  0
 18 17  1  0  0  0  0
 18 19  1  0  0  0  0
 19 14  1  0  0  0  0
 20 10  1  0  0  0  0
 21 12  1  0  0  0  0
M  END
>  <CHROM.1>
55.98020580,-124.31919987,-94.52110453,-1.89205885,8.92671616,0.57756387
-0.52686502,0.93380230,-1.31215747

>  <Name>
lig.pdb

>  <RI>
1.05666e+07

>  <Rbt.Current_Directory>
/home/itssahil/PROJECTS/Mol_Feturizer/New_Systems/rnas/2lwk

>  <Rbt.Executable>
rbdock ($Id: //depot/dev/client3/rdock/2013.1/src/exe/rbdock.cxx#4 $)

>  <Rbt.Library>
libRbt.so (2013.1, Build901 2013/11/27)

>  <Rbt.Parameter_File>
/export/apps/rDock/src/rDock_2013.1_src/data/scripts/dock_solv.prm

>  <Rbt.Receptor>
prm/blind_docking_80.prm

>  <SCORE>
-20.6881

>  <SCORE.INTER>
-18.0468

>  <SCORE.INTER.CONST>
1

>  <SCORE.INTER.POLAR>
-1.65811

>  <SCORE.INTER.ROT>
3

>  <SCORE.INTER.SOLV>
14.3757

>  <SCORE.INTER.VDW>
-16.8961

>  <SCORE.INTER.norm>
-0.859373

>  <SCORE.INTRA>
-4.65548

>  <SCORE.INTRA.DIHEDRAL>
0.342684

>  <SCORE.INTRA.DIHEDRAL.0>
8.84257

>  <SCORE.INTRA.POLAR>
0

>  <SCORE.INTRA.POLAR.0>
0

>  <SCORE.INTRA.REPUL>
0

>  <SCORE.INTRA.REPUL.0>
0

>  <SCORE.INTRA.SOLV>
0.115218

>  <SCORE.INTRA.SOLV.lig_0>
-17.1313

>  <SCORE.INTRA.VDW>
-4.88444

>  <SCORE.INTRA.VDW.0>
6.34071

>  <SCORE.INTRA.norm>
-0.22169

>  <SCORE.RESTR>
2.01424

>  <SCORE.RESTR.CAVITY>
2.01424

>  <SCORE.RESTR.norm>
0.0959162

>  <SCORE.SYSTEM>
0

>  <SCORE.SYSTEM.CONST>
0

>  <SCORE.SYSTEM.DIHEDRAL>
0

>  <SCORE.SYSTEM.SOLV>
0

>  <SCORE.SYSTEM.norm>
0

>  <SCORE.heavy>
21

>  <SCORE.norm>
-0.985147

>  <RMSD>
12.713

$$$$
lig.pdb
 OpenBabel11021811453D
libRbt.so/2013.1/901 2013/11/27
 21 23  0  0  0  0  0  0  0  0999 V2000
   -0.7507    7.2459    0.3946 C   0  0  0  0  0  0  0  0  0  0  0  0
   -1.5278    8.0229    1.1407 N   0  0  0  0  0  0  0  0  0  0  0  0
   -2.0838    9.0998    0.6155 C   0  0  0  0  0  0  0  0  0  0  0  0
   -1.8060    9.4465   -0.6576 C   0  0  0  0  0  0  0  0  0  0  0  0
   -1.0247    8.6584   -1.4082 C   0  0  0  0  0  0  0  0  0  0  0  0
   -0.7407    8.9959   -2.6656 N   0  0  0  0  0  0  0  0  0  0  0  0
   -0.4972    7.5606   -0.8765 N   0  0  0  0  0  0  0  0  0  0  0  0
   -2.8874    9.8676    1.3702 C   0  0  0  0  0  0  0  0  0  0  0  0
   -3.3135   11.0709    0.8774 C   0  0  0  0  0  0  0  0  0  0  0  0
   -3.3631   12.1675    1.7709 O   0  0  0  0  0  0  0  0  0  0  0  0
   -3.1895   11.3017   -0.4400 C   0  0  0  0  0  0  0  0  0  0  0  0
   -4.0055   12.2840   -1.0625 O   0  0  0  0  0  0  0  0  0  0  0  0
   -2.3531   10.5514   -1.1836 C   0  0  0  0  0  0  0  0  0  0  0  0
   -0.2127    6.1618    0.9260 N   0  0  0  0  0  0  0  0  0  0  0  0
   -1.0582    5.2904    1.4844 C   0  0  0  0  0  0  0  0  0  0  0  0
   -1.4661    5.7728    2.8682 C   0  0  0  0  0  0  0  0  0  0  0  0
   -0.3492    5.8726    3.6717 N   0  0  0  0  0  0  0  0  0  0  0  0
    0.4848    6.8056    3.0952 C   0  0  0  0  0  0  0  0  0  0  0  0
    0.8978    6.3241    1.7143 C   0  0  0  0  0  0  0  0  0  0  0  0
   -4.6744   12.6709    1.7710 C   0  0  0  0  0  0  0  0  0  0  0  0
   -5.1379   11.6535   -1.6013 C   0  0  0  0  0  0  0  0  0  0  0  0
  1 14  1  0  0  0  0
  1  2  2  0  0  0  0
  3  2  1  0  0  0  0
  3  8  2  0  0  0  0
  4  3  1  0  0  0  0
  5  7  2  0  0  0  0
  5  4  1  0  0  0  0
  6  5  1  0  0  0  0
  7  1  1  0  0  0  0
  9 10  1  0  0  0  0
  9  8  1  0  0  0  0
 11  9  2  0  0  0  0
 12 11  1  0  0  0  0
 13  4  2  0  0  0  0
 13 11  1  0  0  0  0
 14 15  1  0  0  0  0
 16 15  1  0  0  0  0
 17 16  1  0  0  0  0
 18 17  1  0  0  0  0
 18 19  1  0  0  0  0
 19 14  1  0  0  0  0
 20 10  1  0  0  0  0
 21 12  1  0  0  0  0
M  END
>  <CHROM.1>
55.40678675,-123.25627458,-94.58747645,-1.87891930,8.92002991,0.57338303
-0.53845113,0.92973453,-1.30041547

>  <Name>
lig.pdb

>  <RI>
1.99026e+07

>  <Rbt.Current_Directory>
/home/itssahil/PROJECTS/Mol_Feturizer/New_Systems/rnas/2lwk

>  <Rbt.Executable>
rbdock ($Id: //depot/dev/client3/rdock/2013.1/src/exe/rbdock.cxx#4 $)

>  <Rbt.Library>
libRbt.so (2013.1, Build901 2013/11/27)

>  <Rbt.Parameter_File>
/export/apps/rDock/src/rDock_2013.1_src/data/scripts/dock_solv.prm

>  <Rbt.Receptor>
prm/blind_docking_60.prm

>  <SCORE>
-20.5752

>  <SCORE.INTER>
-17.8614

>  <SCORE.INTER.CONST>
1

>  <SCORE.INTER.POLAR>
-1.64749

>  <SCORE.INTER.ROT>
3

>  <SCORE.INTER.SOLV>
14.4923

>  <SCORE.INTER.VDW>
-16.8468

>  <SCORE.INTER.norm>
-0.850544

>  <SCORE.INTRA>
-4.70108

>  <SCORE.INTRA.DIHEDRAL>
0.397117

>  <SCORE.INTRA.DIHEDRAL.0>
8.84257

>  <SCORE.INTRA.POLAR>
0

>  <SCORE.INTRA.POLAR.0>
0

>  <SCORE.INTRA.REPUL>
0

>  <SCORE.INTRA.REPUL.0>
0

>  <SCORE.INTRA.SOLV>
0.113773

>  <SCORE.INTRA.SOLV.lig_0>
-17.1313

>  <SCORE.INTRA.VDW>
-4.95652

>  <SCORE.INTRA.VDW.0>
6.34071

>  <SCORE.INTRA.norm>
-0.223861

>  <SCORE.RESTR>
1.98732

>  <SCORE.RESTR.CAVITY>
1.98732

>  <SCORE.RESTR.norm>
0.0946343

>  <SCORE.SYSTEM>
0

>  <SCORE.SYSTEM.CONST>
0

>  <SCORE.SYSTEM.DIHEDRAL>
0

>  <SCORE.SYSTEM.SOLV>
0

>  <SCORE.SYSTEM.norm>
0

>  <SCORE.heavy>
21

>  <SCORE.norm>
-0.979771

>  <RMSD>
12.715

$$$$
lig.pdb
 OpenBabel11021811453D
libRbt.so/2013.1/901 2013/11/27
 21 23  0  0  0  0  0  0  0  0999 V2000
   -0.7538    7.2457    0.3920 C   0  0  0  0  0  0  0  0  0  0  0  0
   -1.5310    8.0240    1.1366 N   0  0  0  0  0  0  0  0  0  0  0  0
   -2.0856    9.1009    0.6097 C   0  0  0  0  0  0  0  0  0  0  0  0
   -1.8062    9.4460   -0.6635 C   0  0  0  0  0  0  0  0  0  0  0  0
   -1.0248    8.6565   -1.4124 C   0  0  0  0  0  0  0  0  0  0  0  0
   -0.7392    8.9925   -2.6699 N   0  0  0  0  0  0  0  0  0  0  0  0
   -0.4987    7.5588   -0.8791 N   0  0  0  0  0  0  0  0  0  0  0  0
   -2.8893    9.8701    1.3628 C   0  0  0  0  0  0  0  0  0  0  0  0
   -3.3140   11.0732    0.8684 C   0  0  0  0  0  0  0  0  0  0  0  0
   -3.3636   12.1708    1.7606 O   0  0  0  0  0  0  0  0  0  0  0  0
   -3.1885   11.3026   -0.4492 C   0  0  0  0  0  0  0  0  0  0  0  0
   -4.0030   12.2849   -1.0735 O   0  0  0  0  0  0  0  0  0  0  0  0
   -2.3519   10.5508   -1.1911 C   0  0  0  0  0  0  0  0  0  0  0  0
   -0.2171    6.1617    0.9251 N   0  0  0  0  0  0  0  0  0  0  0  0
   -1.0637    5.2931    1.4865 C   0  0  0  0  0  0  0  0  0  0  0  0
   -1.4687    5.7794    2.8698 C   0  0  0  0  0  0  0  0  0  0  0  0
   -0.3506    5.8788    3.6717 N   0  0  0  0  0  0  0  0  0  0  0  0
    0.4845    6.8089    3.0920 C   0  0  0  0  0  0  0  0  0  0  0  0
    0.8947    6.3236    1.7116 C   0  0  0  0  0  0  0  0  0  0  0  0
   -4.6754   12.6730    1.7616 C   0  0  0  0  0  0  0  0  0  0  0  0
   -5.1431   11.6571   -1.5992 C   0  0  0  0  0  0  0  0  0  0  0  0
  1 14  1  0  0  0  0
  1  2  2  0  0  0  0
  3  2  1  0  0  0  0
  3  8  2  0  0  0  0
  4  3  1  0  0  0  0
  5  7  2  0  0  0  0
  5  4  1  0  0  0  0
  6  5  1  0  0  0  0
  7  1  1  0  0  0  0
  9 10  1  0  0  0  0
  9  8  1  0  0  0  0
 11  9  2  0  0  0  0
 12 11  1  0  0  0  0
 13  4  2  0  0  0  0
 13 11  1  0  0  0  0
 14 15  1  0  0  0  0
 16 15  1  0  0  0  0
 17 16  1  0  0  0  0
 18 17  1  0  0  0  0
 18 19  1  0  0  0  0
 19 14  1  0  0  0  0
 20 10  1  0  0  0  0
 21 12  1  0  0  0  0
M  END
>  <CHROM.1>
55.24378088,-123.10283383,-93.90686137,-1.88034982,8.92138088,0.56891437
-0.53962571,0.92958373,-1.30004049

>  <Name>
lig.pdb

>  <RI>
1.99026e+07

>  <Rbt.Current_Directory>
/home/itssahil/PROJECTS/Mol_Feturizer/New_Systems/rnas/2lwk

>  <Rbt.Executable>
rbdock ($Id: //depot/dev/client3/rdock/2013.1/src/exe/rbdock.cxx#4 $)

>  <Rbt.Library>
libRbt.so (2013.1, Build901 2013/11/27)

>  <Rbt.Parameter_File>
/export/apps/rDock/src/rDock_2013.1_src/data/scripts/dock_solv.prm

>  <Rbt.Receptor>
prm/blind_docking_60.prm

>  <SCORE>
-20.6315

>  <SCORE.INTER>
-17.9258

>  <SCORE.INTER.CONST>
1

>  <SCORE.INTER.POLAR>
-1.6585

>  <SCORE.INTER.ROT>
3

>  <SCORE.INTER.SOLV>
14.4809

>  <SCORE.INTER.VDW>
-16.8491

>  <SCORE.INTER.norm>
-0.853607

>  <SCORE.INTRA>
-4.70677

>  <SCORE.INTRA.DIHEDRAL>
0.417249

>  <SCORE.INTRA.DIHEDRAL.0>
8.84257

>  <SCORE.INTRA.POLAR>
0

>  <SCORE.INTRA.POLAR.0>
0

>  <SCORE.INTRA.REPUL>
0

>  <SCORE.INTRA.REPUL.0>
0

>  <SCORE.INTRA.SOLV>
0.113888

>  <SCORE.INTRA.SOLV.lig_0>
-17.1313

>  <SCORE.INTRA.VDW>
-4.97234

>  <SCORE.INTRA.VDW.0>
6.34071

>  <SCORE.INTRA.norm>
-0.224132

>  <SCORE.RESTR>
2.00105

>  <SCORE.RESTR.CAVITY>
2.00105

>  <SCORE.RESTR.norm>
0.0952881

>  <SCORE.SYSTEM>
0

>  <SCORE.SYSTEM.CONST>
0

>  <SCORE.SYSTEM.DIHEDRAL>
0

>  <SCORE.SYSTEM.SOLV>
0

>  <SCORE.SYSTEM.norm>
0

>  <SCORE.heavy>
21

>  <SCORE.norm>
-0.982451

>  <RMSD>
12.716

$$$$
lig.pdb
 OpenBabel11021811453D
libRbt.so/2013.1/901 2013/11/27
 21 23  0  0  0  0  0  0  0  0999 V2000
   -0.7529    7.2469    0.3845 C   0  0  0  0  0  0  0  0  0  0  0  0
   -1.5304    8.0249    1.1292 N   0  0  0  0  0  0  0  0  0  0  0  0
   -2.0868    9.1006    0.6020 C   0  0  0  0  0  0  0  0  0  0  0  0
   -1.8091    9.4451   -0.6718 C   0  0  0  0  0  0  0  0  0  0  0  0
   -1.0274    8.6560   -1.4208 C   0  0  0  0  0  0  0  0  0  0  0  0
   -0.7435    8.9913   -2.6788 N   0  0  0  0  0  0  0  0  0  0  0  0
   -0.4995    7.5593   -0.8871 N   0  0  0  0  0  0  0  0  0  0  0  0
   -2.8907    9.8695    1.3553 C   0  0  0  0  0  0  0  0  0  0  0  0
   -3.3173   11.0717    0.8603 C   0  0  0  0  0  0  0  0  0  0  0  0
   -3.3674   12.1699    1.7517 O   0  0  0  0  0  0  0  0  0  0  0  0
   -3.1934   11.3001   -0.4575 C   0  0  0  0  0  0  0  0  0  0  0  0
   -4.0098   12.2809   -1.0818 O   0  0  0  0  0  0  0  0  0  0  0  0
   -2.3566   10.5488   -1.1997 C   0  0  0  0  0  0  0  0  0  0  0  0
   -0.2144    6.1640    0.9179 N   0  0  0  0  0  0  0  0  0  0  0  0
   -1.0597    5.2924    1.4764 C   0  0  0  0  0  0  0  0  0  0  0  0
   -1.4697    5.7762    2.8591 C   0  0  0  0  0  0  0  0  0  0  0  0
   -0.3539    5.8781    3.6639 N   0  0  0  0  0  0  0  0  0  0  0  0
    0.4799    6.8112    3.0871 C   0  0  0  0  0  0  0  0  0  0  0  0
    0.8950    6.3284    1.7073 C   0  0  0  0  0  0  0  0  0  0  0  0
   -4.6793   12.6719    1.7519 C   0  0  0  0  0  0  0  0  0  0  0  0
   -5.1426   11.6492   -1.6184 C   0  0  0  0  0  0  0  0  0  0  0  0
  1 14  1  0  0  0  0
  1  2  2  0  0  0  0
  3  2  1  0  0  0  0
  3  8  2  0  0  0  0
  4  3  1  0  0  0  0
  5  7  2  0  0  0  0
  5  4  1  0  0  0  0
  6  5  1  0  0  0  0
  7  1  1  0  0  0  0
  9 10  1  0  0  0  0
  9  8  1  0  0  0  0
 11  9  2  0  0  0  0
 12 11  1  0  0  0  0
 13  4  2  0  0  0  0
 13 11  1  0  0  0  0
 14 15  1  0  0  0  0
 16 15  1  0  0  0  0
 17 16  1  0  0  0  0
 18 17  1  0  0  0  0
 18 19  1  0  0  0  0
 19 14  1  0  0  0  0
 20 10  1  0  0  0  0
 21 12  1  0  0  0  0
M  END
>  <CHROM.1>
55.48767152,-123.19975624,-94.53148160,-1.88232678,8.92057547,0.56027547
-0.53874138,0.92935002,-1.30177394

>  <Name>
lig.pdb

>  <RI>
1.05666e+07

>  <Rbt.Current_Directory>
/home/itssahil/PROJECTS/Mol_Feturizer/New_Systems/rnas/2lwk

>  <Rbt.Executable>
rbdock ($Id: //depot/dev/client3/rdock/2013.1/src/exe/rbdock.cxx#4 $)

>  <Rbt.Library>
libRbt.so (2013.1, Build901 2013/11/27)

>  <Rbt.Parameter_File>
/export/apps/rDock/src/rDock_2013.1_src/data/scripts/dock_solv.prm

>  <Rbt.Receptor>
prm/blind_docking_80.prm

>  <SCORE>
-20.6776

>  <SCORE.INTER>
-17.9833

>  <SCORE.INTER.CONST>
1

>  <SCORE.INTER.POLAR>
-1.66852

>  <SCORE.INTER.ROT>
3

>  <SCORE.INTER.SOLV>
14.4575

>  <SCORE.INTER.VDW>
-16.8463

>  <SCORE.INTER.norm>
-0.856345

>  <SCORE.INTRA>
-4.70655

>  <SCORE.INTRA.DIHEDRAL>
0.401026

>  <SCORE.INTRA.DIHEDRAL.0>
8.84257

>  <SCORE.INTRA.POLAR>
0

>  <SCORE.INTRA.POLAR.0>
0

>  <SCORE.INTRA.REPUL>
0

>  <SCORE.INTRA.REPUL.0>
0

>  <SCORE.INTRA.SOLV>
0.113795

>  <SCORE.INTRA.SOLV.lig_0>
-17.1313

>  <SCORE.INTRA.VDW>
-4.96396

>  <SCORE.INTRA.VDW.0>
6.34071

>  <SCORE.INTRA.norm>
-0.224122

>  <SCORE.RESTR>
2.01218

>  <SCORE.RESTR.CAVITY>
2.01218

>  <SCORE.RESTR.norm>
0.0958179

>  <SCORE.SYSTEM>
0

>  <SCORE.SYSTEM.CONST>
0

>  <SCORE.SYSTEM.DIHEDRAL>
0

>  <SCORE.SYSTEM.SOLV>
0

>  <SCORE.SYSTEM.norm>
0

>  <SCORE.heavy>
21

>  <SCORE.norm>
-0.984649

>  <RMSD>
12.716

$$$$
lig.pdb
 OpenBabel11021811453D
libRbt.so/2013.1/901 2013/11/27
 21 23  0  0  0  0  0  0  0  0999 V2000
   -0.7572    7.2489    0.4008 C   0  0  0  0  0  0  0  0  0  0  0  0
   -1.5295    8.0297    1.1480 N   0  0  0  0  0  0  0  0  0  0  0  0
   -2.0842    9.1072    0.6225 C   0  0  0  0  0  0  0  0  0  0  0  0
   -1.8097    9.4505   -0.6522 C   0  0  0  0  0  0  0  0  0  0  0  0
   -1.0333    8.6586   -1.4039 C   0  0  0  0  0  0  0  0  0  0  0  0
   -0.7527    8.9926   -2.6629 N   0  0  0  0  0  0  0  0  0  0  0  0
   -0.5072    7.5602   -0.8718 N   0  0  0  0  0  0  0  0  0  0  0  0
   -2.8828    9.8789    1.3785 C   0  0  0  0  0  0  0  0  0  0  0  0
   -3.3071   11.0824    0.8848 C   0  0  0  0  0  0  0  0  0  0  0  0
   -3.3504   12.1809    1.7761 O   0  0  0  0  0  0  0  0  0  0  0  0
   -3.1870   11.3102   -0.4336 C   0  0  0  0  0  0  0  0  0  0  0  0
   -4.0023   12.2936   -1.0552 O   0  0  0  0  0  0  0  0  0  0  0  0
   -2.3554   10.5559   -1.1785 C   0  0  0  0  0  0  0  0  0  0  0  0
   -0.2206    6.1643    0.9325 N   0  0  0  0  0  0  0  0  0  0  0  0
   -1.0668    5.2962    1.4951 C   0  0  0  0  0  0  0  0  0  0  0  0
   -1.4690    5.7823    2.8793 C   0  0  0  0  0  0  0  0  0  0  0  0
   -0.3493    5.8805    3.6792 N   0  0  0  0  0  0  0  0  0  0  0  0
    0.4854    6.8101    3.0984 C   0  0  0  0  0  0  0  0  0  0  0  0
    0.8928    6.3250    1.7171 C   0  0  0  0  0  0  0  0  0  0  0  0
   -4.6592   12.6909    1.7766 C   0  0  0  0  0  0  0  0  0  0  0  0
   -5.1413   11.6662   -1.5837 C   0  0  0  0  0  0  0  0  0  0  0  0
  1 14  1  0  0  0  0
  1  2  2  0  0  0  0
  3  2  1  0  0  0  0
  3  8  2  0  0  0  0
  4  3  1  0  0  0  0
  5  7  2  0  0  0  0
  5  4  1  0  0  0  0
  6  5  1  0  0  0  0
  7  1  1  0  0  0  0
  9 10  1  0  0  0  0
  9  8  1  0  0  0  0
 11  9  2  0  0  0  0
 12 11  1  0  0  0  0
 13  4  2  0  0  0  0
 13 11  1  0  0  0  0
 14 15  1  0  0  0  0
 16 15  1  0  0  0  0
 17 16  1  0  0  0  0
 18 17  1  0  0  0  0
 18 19  1  0  0  0  0
 19 14  1  0  0  0  0
 20 10  1  0  0  0  0
 21 12  1  0  0  0  0
M  END
>  <CHROM.1>
55.43320120,-123.43989812,-94.33236025,-1.88015756,8.92679097,0.58017638
-0.53420596,0.93349346,-1.30561551

>  <Name>
lig.pdb

>  <RI>
1.99026e+07

>  <Rbt.Current_Directory>
/home/itssahil/PROJECTS/Mol_Feturizer/New_Systems/rnas/2lwk

>  <Rbt.Executable>
rbdock ($Id: //depot/dev/client3/rdock/2013.1/src/exe/rbdock.cxx#4 $)

>  <Rbt.Library>
libRbt.so (2013.1, Build901 2013/11/27)

>  <Rbt.Parameter_File>
/export/apps/rDock/src/rDock_2013.1_src/data/scripts/dock_solv.prm

>  <Rbt.Receptor>
prm/blind_docking_60.prm

>  <SCORE>
-20.6145

>  <SCORE.INTER>
-17.9215

>  <SCORE.INTER.CONST>
1

>  <SCORE.INTER.POLAR>
-1.65607

>  <SCORE.INTER.ROT>
3

>  <SCORE.INTER.SOLV>
14.4789

>  <SCORE.INTER.VDW>
-16.8537

>  <SCORE.INTER.norm>
-0.853406

>  <SCORE.INTRA>
-4.6924

>  <SCORE.INTRA.DIHEDRAL>
0.39243

>  <SCORE.INTRA.DIHEDRAL.0>
8.84257

>  <SCORE.INTRA.POLAR>
0

>  <SCORE.INTRA.POLAR.0>
0

>  <SCORE.INTRA.REPUL>
0

>  <SCORE.INTRA.REPUL.0>
0

>  <SCORE.INTRA.SOLV>
0.114113

>  <SCORE.INTRA.SOLV.lig_0>
-17.1313

>  <SCORE.INTRA.VDW>
-4.94567

>  <SCORE.INTRA.VDW.0>
6.34071

>  <SCORE.INTRA.norm>
-0.223447

>  <SCORE.RESTR>
1.99943

>  <SCORE.RESTR.CAVITY>
1.99943

>  <SCORE.RESTR.norm>
0.0952107

>  <SCORE.SYSTEM>
0

>  <SCORE.SYSTEM.CONST>
0

>  <SCORE.SYSTEM.DIHEDRAL>
0

>  <SCORE.SYSTEM.SOLV>
0

>  <SCORE.SYSTEM.norm>
0

>  <SCORE.heavy>
21

>  <SCORE.norm>
-0.981643

>  <RMSD>
12.718

$$$$
lig.pdb
 OpenBabel11021811453D
libRbt.so/2013.1/901 2013/11/27
 21 23  0  0  0  0  0  0  0  0999 V2000
   -0.7497    7.2485    0.3984 C   0  0  0  0  0  0  0  0  0  0  0  0
   -1.5251    8.0274    1.1442 N   0  0  0  0  0  0  0  0  0  0  0  0
   -2.0798    9.1048    0.6183 C   0  0  0  0  0  0  0  0  0  0  0  0
   -1.8023    9.4497   -0.6553 C   0  0  0  0  0  0  0  0  0  0  0  0
   -1.0227    8.6596   -1.4056 C   0  0  0  0  0  0  0  0  0  0  0  0
   -0.7391    8.9954   -2.6635 N   0  0  0  0  0  0  0  0  0  0  0  0
   -0.4966    7.5615   -0.8732 N   0  0  0  0  0  0  0  0  0  0  0  0
   -2.8816    9.8746    1.3729 C   0  0  0  0  0  0  0  0  0  0  0  0
   -3.3061   11.0781    0.8792 C   0  0  0  0  0  0  0  0  0  0  0  0
   -3.3533   12.1756    1.7716 O   0  0  0  0  0  0  0  0  0  0  0  0
   -3.1827   11.3073   -0.4385 C   0  0  0  0  0  0  0  0  0  0  0  0
   -3.9975   12.2903   -1.0614 O   0  0  0  0  0  0  0  0  0  0  0  0
   -2.3480   10.5550   -1.1819 C   0  0  0  0  0  0  0  0  0  0  0  0
   -0.2131    6.1640    0.9305 N   0  0  0  0  0  0  0  0  0  0  0  0
   -1.0597    5.2943    1.4899 C   0  0  0  0  0  0  0  0  0  0  0  0
   -1.4663    5.7785    2.8735 C   0  0  0  0  0  0  0  0  0  0  0  0
   -0.3490    5.8773    3.6765 N   0  0  0  0  0  0  0  0  0  0  0  0
    0.4861    6.8087    3.0989 C   0  0  0  0  0  0  0  0  0  0  0  0
    0.8979    6.3255    1.7183 C   0  0  0  0  0  0  0  0  0  0  0  0
   -4.6646   12.6794    1.7743 C   0  0  0  0  0  0  0  0  0  0  0  0
   -5.1477   11.6663   -1.5692 C   0  0  0  0  0  0  0  0  0  0  0  0
  1 14  1  0  0  0  0
  1  2  2  0  0  0  0
  3  2  1  0  0  0  0
  3  8  2  0  0  0  0
  4  3  1  0  0  0  0
  5  7  2  0  0  0  0
  5  4  1  0  0  0  0
  6  5  1  0  0  0  0
  7  1  1  0  0  0  0
  9 10  1  0  0  0  0
  9  8  1  0  0  0  0
 11  9  2  0  0  0  0
 12 11  1  0  0  0  0
 13  4  2  0  0  0  0
 13 11  1  0  0  0  0
 14 15  1  0  0  0  0
 16 15  1  0  0  0  0
 17 16  1  0  0  0  0
 18 17  1  0  0  0  0
 18 19  1  0  0  0  0
 19 14  1  0  0  0  0
 20 10  1  0  0  0  0
 21 12  1  0  0  0  0
M  END
>  <CHROM.1>
55.43070160,-123.13655966,-93.11296876,-1.87620191,8.92469055,0.57793230
-0.53818348,0.93065198,-1.29998115

>  <Name>
lig.pdb

>  <RI>
2.05709e+07

>  <Rbt.Current_Directory>
/home/itssahil/PROJECTS/Mol_Feturizer/New_Systems/rnas/2lwk

>  <Rbt.Executable>
rbdock ($Id: //depot/dev/client3/rdock/2013.1/src/exe/rbdock.cxx#4 $)

>  <Rbt.Library>
libRbt.so (2013.1, Build901 2013/11/27)

>  <Rbt.Parameter_File>
/export/apps/rDock/src/rDock_2013.1_src/data/scripts/dock_solv.prm

>  <Rbt.Receptor>
prm/blind_docking_40.prm

>  <SCORE>
-20.5472

>  <SCORE.INTER>
-17.8342

>  <SCORE.INTER.CONST>
1

>  <SCORE.INTER.POLAR>
-1.65362

>  <SCORE.INTER.ROT>
3

>  <SCORE.INTER.SOLV>
14.5215

>  <SCORE.INTER.VDW>
-16.8179

>  <SCORE.INTER.norm>
-0.84925

>  <SCORE.INTRA>
-4.69928

>  <SCORE.INTRA.DIHEDRAL>
0.428064

>  <SCORE.INTRA.DIHEDRAL.0>
8.84257

>  <SCORE.INTRA.POLAR>
0

>  <SCORE.INTRA.POLAR.0>
0

>  <SCORE.INTRA.REPUL>
0

>  <SCORE.INTRA.REPUL.0>
0

>  <SCORE.INTRA.SOLV>
0.114472

>  <SCORE.INTRA.SOLV.lig_0>
-17.1313

>  <SCORE.INTRA.VDW>
-4.97055

>  <SCORE.INTRA.VDW.0>
6.34071

>  <SCORE.INTRA.norm>
-0.223775

>  <SCORE.RESTR>
1.98633

>  <SCORE.RESTR.CAVITY>
1.98633

>  <SCORE.RESTR.norm>
0.0945874

>  <SCORE.SYSTEM>
0

>  <SCORE.SYSTEM.CONST>
0

>  <SCORE.SYSTEM.DIHEDRAL>
0

>  <SCORE.SYSTEM.SOLV>
0

>  <SCORE.SYSTEM.norm>
0

>  <SCORE.heavy>
21

>  <SCORE.norm>
-0.978438

>  <RMSD>
12.719

$$$$
lig.pdb
 OpenBabel11021811453D
libRbt.so/2013.1/901 2013/11/27
 21 23  0  0  0  0  0  0  0  0999 V2000
   -0.8664    7.2230    0.3813 C   0  0  0  0  0  0  0  0  0  0  0  0
   -1.6378    8.0164    1.1160 N   0  0  0  0  0  0  0  0  0  0  0  0
   -2.1579    9.1082    0.5846 C   0  0  0  0  0  0  0  0  0  0  0  0
   -1.8487    9.4519   -0.6820 C   0  0  0  0  0  0  0  0  0  0  0  0
   -1.0733    8.6473   -1.4211 C   0  0  0  0  0  0  0  0  0  0  0  0
   -0.7584    8.9815   -2.6720 N   0  0  0  0  0  0  0  0  0  0  0  0
   -0.5824    7.5353   -0.8838 N   0  0  0  0  0  0  0  0  0  0  0  0
   -2.9560    9.8931    1.3274 C   0  0  0  0  0  0  0  0  0  0  0  0
   -3.3438   11.1079    0.8313 C   0  0  0  0  0  0  0  0  0  0  0  0
   -3.3829   12.2026    1.7275 O   0  0  0  0  0  0  0  0  0  0  0  0
   -3.1904   11.3396   -0.4829 C   0  0  0  0  0  0  0  0  0  0  0  0
   -3.9708   12.3434   -1.1166 O   0  0  0  0  0  0  0  0  0  0  0  0
   -2.3591   10.5714   -1.2139 C   0  0  0  0  0  0  0  0  0  0  0  0
   -0.3647    6.1245    0.9186 N   0  0  0  0  0  0  0  0  0  0  0  0
   -1.2202    5.3440    1.5858 C   0  0  0  0  0  0  0  0  0  0  0  0
   -1.4726    5.9138    2.9735 C   0  0  0  0  0  0  0  0  0  0  0  0
   -0.2870    5.9622    3.6770 N   0  0  0  0  0  0  0  0  0  0  0  0
    0.5599    6.8041    2.9897 C   0  0  0  0  0  0  0  0  0  0  0  0
    0.8178    6.2351    1.6045 C   0  0  0  0  0  0  0  0  0  0  0  0
   -4.6908   12.7149    1.7334 C   0  0  0  0  0  0  0  0  0  0  0  0
   -5.1335   11.7508   -1.6335 C   0  0  0  0  0  0  0  0  0  0  0  0
  1 14  1  0  0  0  0
  1  2  2  0  0  0  0
  3  2  1  0  0  0  0
  3  8  2  0  0  0  0
  4  3  1  0  0  0  0
  5  7  2  0  0  0  0
  5  4  1  0  0  0  0
  6  5  1  0  0  0  0
  7  1  1  0  0  0  0
  9 10  1  0  0  0  0
  9  8  1  0  0  0  0
 11  9  2  0  0  0  0
 12 11  1  0  0  0  0
 13  4  2  0  0  0  0
 13 11  1  0  0  0  0
 14 15  1  0  0  0  0
 16 15  1  0  0  0  0
 17 16  1  0  0  0  0
 18 17  1  0  0  0  0
 18 19  1  0  0  0  0
 19 14  1  0  0  0  0
 20 10  1  0  0  0  0
 21 12  1  0  0  0  0
M  END
>  <CHROM.1>
48.33784218,-121.66126268,-92.35443943,-1.91804089,8.94240938,0.55162141
-0.54051234,0.93747853,-1.30466395

>  <Name>
lig.pdb

>  <RI>
4.07847e+07

>  <Rbt.Current_Directory>
/home/itssahil/PROJECTS/Mol_Feturizer/New_Systems/rnas/2lwk

>  <Rbt.Executable>
rbdock ($Id: //depot/dev/client3/rdock/2013.1/src/exe/rbdock.cxx#4 $)

>  <Rbt.Library>
libRbt.so (2013.1, Build901 2013/11/27)

>  <Rbt.Parameter_File>
/export/apps/rDock/src/rDock_2013.1_src/data/scripts/dock_solv.prm

>  <Rbt.Receptor>
prm/blind_docking_20.prm

>  <SCORE>
-20.5599

>  <SCORE.INTER>
-18.6923

>  <SCORE.INTER.CONST>
1

>  <SCORE.INTER.POLAR>
-1.68599

>  <SCORE.INTER.ROT>
3

>  <SCORE.INTER.SOLV>
14.237

>  <SCORE.INTER.VDW>
-17.1872

>  <SCORE.INTER.norm>
-0.89011

>  <SCORE.INTRA>
-4.55193

>  <SCORE.INTRA.DIHEDRAL>
0.513805

>  <SCORE.INTRA.DIHEDRAL.0>
8.84257

>  <SCORE.INTRA.POLAR>
0

>  <SCORE.INTRA.POLAR.0>
0

>  <SCORE.INTRA.REPUL>
0

>  <SCORE.INTRA.REPUL.0>
0

>  <SCORE.INTRA.SOLV>
0.109116

>  <SCORE.INTRA.SOLV.lig_0>
-17.1313

>  <SCORE.INTRA.VDW>
-4.86339

>  <SCORE.INTRA.VDW.0>
6.34071

>  <SCORE.INTRA.norm>
-0.216759

>  <SCORE.RESTR>
2.68432

>  <SCORE.RESTR.CAVITY>
2.68432

>  <SCORE.RESTR.norm>
0.127825

>  <SCORE.SYSTEM>
0

>  <SCORE.SYSTEM.CONST>
0

>  <SCORE.SYSTEM.DIHEDRAL>
0

>  <SCORE.SYSTEM.SOLV>
0

>  <SCORE.SYSTEM.norm>
0

>  <SCORE.heavy>
21

>  <SCORE.norm>
-0.979044

>  <RMSD>
12.720

$$$$
lig.pdb
 OpenBabel11021811453D
libRbt.so/2013.1/901 2013/11/27
 21 23  0  0  0  0  0  0  0  0999 V2000
   -0.7565    7.2548    0.3925 C   0  0  0  0  0  0  0  0  0  0  0  0
   -1.5337    8.0307    1.1397 N   0  0  0  0  0  0  0  0  0  0  0  0
   -2.0878    9.1097    0.6167 C   0  0  0  0  0  0  0  0  0  0  0  0
   -1.8079    9.4594   -0.6552 C   0  0  0  0  0  0  0  0  0  0  0  0
   -1.0265    8.6724   -1.4068 C   0  0  0  0  0  0  0  0  0  0  0  0
   -0.7404    9.0129   -2.6629 N   0  0  0  0  0  0  0  0  0  0  0  0
   -0.5009    7.5725   -0.8773 N   0  0  0  0  0  0  0  0  0  0  0  0
   -2.8914    9.8764    1.3724 C   0  0  0  0  0  0  0  0  0  0  0  0
   -3.3155   11.0815    0.8823 C   0  0  0  0  0  0  0  0  0  0  0  0
   -3.3650   12.1757    1.7785 O   0  0  0  0  0  0  0  0  0  0  0  0
   -3.1896   11.3156   -0.4344 C   0  0  0  0  0  0  0  0  0  0  0  0
   -4.0036   12.3005   -1.0553 O   0  0  0  0  0  0  0  0  0  0  0  0
   -2.3530   10.5663   -1.1789 C   0  0  0  0  0  0  0  0  0  0  0  0
   -0.2204    6.1687    0.9218 N   0  0  0  0  0  0  0  0  0  0  0  0
   -1.0672    5.2994    1.4817 C   0  0  0  0  0  0  0  0  0  0  0  0
   -1.4699    5.7821    2.8670 C   0  0  0  0  0  0  0  0  0  0  0  0
   -0.3507    5.8779    3.6677 N   0  0  0  0  0  0  0  0  0  0  0  0
    0.4847    6.8088    3.0896 C   0  0  0  0  0  0  0  0  0  0  0  0
    0.8926    6.3271    1.7073 C   0  0  0  0  0  0  0  0  0  0  0  0
   -4.6686   12.6985    1.7570 C   0  0  0  0  0  0  0  0  0  0  0  0
   -5.1195   11.6685   -1.6259 C   0  0  0  0  0  0  0  0  0  0  0  0
  1 14  1  0  0  0  0
  1  2  2  0  0  0  0
  3  2  1  0  0  0  0
  3  8  2  0  0  0  0
  4  3  1  0  0  0  0
  5  7  2  0  0  0  0
  5  4  1  0  0  0  0
  6  5  1  0  0  0  0
  7  1  1  0  0  0  0
  9 10  1  0  0  0  0
  9  8  1  0  0  0  0
 11  9  2  0  0  0  0
 12 11  1  0  0  0  0
 13  4  2  0  0  0  0
 13 11  1  0  0  0  0
 14 15  1  0  0  0  0
 16 15  1  0  0  0  0
 17 16  1  0  0  0  0
 18 17  1  0  0  0  0
 18 19  1  0  0  0  0
 19 14  1  0  0  0  0
 20 10  1  0  0  0  0
 21 12  1  0  0  0  0
M  END
>  <CHROM.1>
55.13573340,-124.49030007,-96.02376059,-1.88026278,8.93127485,0.57191166
-0.53925958,0.93160435,-1.29964640

>  <Name>
lig.pdb

>  <RI>
1.05666e+07

>  <Rbt.Current_Directory>
/home/itssahil/PROJECTS/Mol_Feturizer/New_Systems/rnas/2lwk

>  <Rbt.Executable>
rbdock ($Id: //depot/dev/client3/rdock/2013.1/src/exe/rbdock.cxx#4 $)

>  <Rbt.Library>
libRbt.so (2013.1, Build901 2013/11/27)

>  <Rbt.Parameter_File>
/export/apps/rDock/src/rDock_2013.1_src/data/scripts/dock_solv.prm

>  <Rbt.Receptor>
prm/blind_docking_80.prm

>  <SCORE>
-20.58

>  <SCORE.INTER>
-17.9585

>  <SCORE.INTER.CONST>
1

>  <SCORE.INTER.POLAR>
-1.6393

>  <SCORE.INTER.ROT>
3

>  <SCORE.INTER.SOLV>
14.4859

>  <SCORE.INTER.VDW>
-16.9366

>  <SCORE.INTER.norm>
-0.855166

>  <SCORE.INTRA>
-4.61578

>  <SCORE.INTRA.DIHEDRAL>
0.302516

>  <SCORE.INTRA.DIHEDRAL.0>
8.84257

>  <SCORE.INTRA.POLAR>
0

>  <SCORE.INTRA.POLAR.0>
0

>  <SCORE.INTRA.REPUL>
0

>  <SCORE.INTRA.REPUL.0>
0

>  <SCORE.INTRA.SOLV>
0.114091

>  <SCORE.INTRA.SOLV.lig_0>
-17.1313

>  <SCORE.INTRA.VDW>
-4.82409

>  <SCORE.INTRA.VDW.0>
6.34071

>  <SCORE.INTRA.norm>
-0.219799

>  <SCORE.RESTR>
1.99423

>  <SCORE.RESTR.CAVITY>
1.99423

>  <SCORE.RESTR.norm>
0.0949631

>  <SCORE.SYSTEM>
0

>  <SCORE.SYSTEM.CONST>
0

>  <SCORE.SYSTEM.DIHEDRAL>
0

>  <SCORE.SYSTEM.SOLV>
0

>  <SCORE.SYSTEM.norm>
0

>  <SCORE.heavy>
21

>  <SCORE.norm>
-0.980002

>  <RMSD>
12.724

$$$$
lig.pdb
 OpenBabel11021811453D
libRbt.so/2013.1/901 2013/11/27
 21 23  0  0  0  0  0  0  0  0999 V2000
   -0.3623    7.6592    0.8079 C   0  0  0  0  0  0  0  0  0  0  0  0
   -1.2062    8.4571    1.4525 N   0  0  0  0  0  0  0  0  0  0  0  0
   -1.8858    9.3742    0.7878 C   0  0  0  0  0  0  0  0  0  0  0  0
   -1.6702    9.5450   -0.5323 C   0  0  0  0  0  0  0  0  0  0  0  0
   -0.8209    8.7359   -1.1796 C   0  0  0  0  0  0  0  0  0  0  0  0
   -0.5979    8.9008   -2.4829 N   0  0  0  0  0  0  0  0  0  0  0  0
   -0.1673    7.7963   -0.5043 N   0  0  0  0  0  0  0  0  0  0  0  0
   -2.7548   10.1617    1.4431 C   0  0  0  0  0  0  0  0  0  0  0  0
   -3.3185   11.2217    0.7866 C   0  0  0  0  0  0  0  0  0  0  0  0
   -3.4717   12.4330    1.5025 O   0  0  0  0  0  0  0  0  0  0  0  0
   -3.2440   11.2556   -0.5541 C   0  0  0  0  0  0  0  0  0  0  0  0
   -4.1733   12.0373   -1.2913 O   0  0  0  0  0  0  0  0  0  0  0  0
   -2.3439   10.4905   -1.2022 C   0  0  0  0  0  0  0  0  0  0  0  0
    0.3003    6.7340    1.4804 N   0  0  0  0  0  0  0  0  0  0  0  0
    0.2346    5.4882    1.0009 C   0  0  0  0  0  0  0  0  0  0  0  0
   -1.0835    4.8436    1.4023 C   0  0  0  0  0  0  0  0  0  0  0  0
   -1.1712    4.7865    2.7778 N   0  0  0  0  0  0  0  0  0  0  0  0
   -1.1425    6.0836    3.2416 C   0  0  0  0  0  0  0  0  0  0  0  0
    0.1753    6.7288    2.8462 C   0  0  0  0  0  0  0  0  0  0  0  0
   -4.8435   12.7261    1.5753 C   0  0  0  0  0  0  0  0  0  0  0  0
   -5.2673   11.2289   -1.6377 C   0  0  0  0  0  0  0  0  0  0  0  0
  1 14  1  0  0  0  0
  1  2  2  0  0  0  0
  3  2  1  0  0  0  0
  3  8  2  0  0  0  0
  4  3  1  0  0  0  0
  5  7  2  0  0  0  0
  5  4  1  0  0  0  0
  6  5  1  0  0  0  0
  7  1  1  0  0  0  0
  9 10  1  0  0  0  0
  9  8  1  0  0  0  0
 11  9  2  0  0  0  0
 12 11  1  0  0  0  0
 13  4  2  0  0  0  0
 13 11  1  0  0  0  0
 14 15  1  0  0  0  0
 16 15  1  0  0  0  0
 17 16  1  0  0  0  0
 18 17  1  0  0  0  0
 18 19  1  0  0  0  0
 19 14  1  0  0  0  0
 20 10  1  0  0  0  0
 21 12  1  0  0  0  0
M  END
>  <CHROM.1>
128.35545365,-117.97080763,-92.05489759,-1.87812077,8.90028796,0.55822453
-0.62250952,0.90953756,-1.16401801

>  <Name>
lig.pdb

>  <RI>
3.07369e+07

>  <Rbt.Current_Directory>
/home/itssahil/PROJECTS/Mol_Feturizer/New_Systems/rnas/2lwk

>  <Rbt.Executable>
rbdock ($Id: //depot/dev/client3/rdock/2013.1/src/exe/rbdock.cxx#4 $)

>  <Rbt.Library>
libRbt.so (2013.1, Build901 2013/11/27)

>  <Rbt.Parameter_File>
/export/apps/rDock/src/rDock_2013.1_src/data/scripts/dock_solv.prm

>  <Rbt.Receptor>
prm/blind_docking_100.prm

>  <SCORE>
-21.1278

>  <SCORE.INTER>
-20.2841

>  <SCORE.INTER.CONST>
1

>  <SCORE.INTER.POLAR>
-1.43153

>  <SCORE.INTER.ROT>
3

>  <SCORE.INTER.SOLV>
13.1401

>  <SCORE.INTER.VDW>
-18.731

>  <SCORE.INTER.norm>
-0.965911

>  <SCORE.INTRA>
-3.64842

>  <SCORE.INTRA.DIHEDRAL>
0.67147

>  <SCORE.INTRA.DIHEDRAL.0>
8.84257

>  <SCORE.INTRA.POLAR>
0

>  <SCORE.INTRA.POLAR.0>
0

>  <SCORE.INTRA.REPUL>
0

>  <SCORE.INTRA.REPUL.0>
0

>  <SCORE.INTRA.SOLV>
0.0222079

>  <SCORE.INTRA.SOLV.lig_0>
-17.1313

>  <SCORE.INTRA.VDW>
-3.99526

>  <SCORE.INTRA.VDW.0>
6.34071

>  <SCORE.INTRA.norm>
-0.173734

>  <SCORE.RESTR>
2.8047

>  <SCORE.RESTR.CAVITY>
2.8047

>  <SCORE.RESTR.norm>
0.133557

>  <SCORE.SYSTEM>
0

>  <SCORE.SYSTEM.CONST>
0

>  <SCORE.SYSTEM.DIHEDRAL>
0

>  <SCORE.SYSTEM.SOLV>
0

>  <SCORE.SYSTEM.norm>
0

>  <SCORE.heavy>
21

>  <SCORE.norm>
-1.00609

>  <RMSD>
12.725

$$$$
lig.pdb
 OpenBabel11021811453D
libRbt.so/2013.1/901 2013/11/27
 21 23  0  0  0  0  0  0  0  0999 V2000
   -0.7598    7.2470    0.3882 C   0  0  0  0  0  0  0  0  0  0  0  0
   -1.5316    8.0282    1.1354 N   0  0  0  0  0  0  0  0  0  0  0  0
   -2.0816    9.1088    0.6112 C   0  0  0  0  0  0  0  0  0  0  0  0
   -1.8028    9.4545   -0.6620 C   0  0  0  0  0  0  0  0  0  0  0  0
   -1.0268    8.6621   -1.4136 C   0  0  0  0  0  0  0  0  0  0  0  0
   -0.7418    8.9985   -2.6710 N   0  0  0  0  0  0  0  0  0  0  0  0
   -0.5055    7.5608   -0.8829 N   0  0  0  0  0  0  0  0  0  0  0  0
   -2.8798    9.8810    1.3670 C   0  0  0  0  0  0  0  0  0  0  0  0
   -3.2991   11.0871    0.8752 C   0  0  0  0  0  0  0  0  0  0  0  0
   -3.3413   12.1835    1.7693 O   0  0  0  0  0  0  0  0  0  0  0  0
   -3.1749   11.3179   -0.4422 C   0  0  0  0  0  0  0  0  0  0  0  0
   -3.9854   12.3054   -1.0634 O   0  0  0  0  0  0  0  0  0  0  0  0
   -2.3436   10.5629   -1.1869 C   0  0  0  0  0  0  0  0  0  0  0  0
   -0.2279    6.1593    0.9185 N   0  0  0  0  0  0  0  0  0  0  0  0
   -1.0773    5.2976    1.4861 C   0  0  0  0  0  0  0  0  0  0  0  0
   -1.4697    5.7878    2.8716 C   0  0  0  0  0  0  0  0  0  0  0  0
   -0.3457    5.8793    3.6661 N   0  0  0  0  0  0  0  0  0  0  0  0
    0.4925    6.8028    3.0804 C   0  0  0  0  0  0  0  0  0  0  0  0
    0.8901    6.3135    1.6977 C   0  0  0  0  0  0  0  0  0  0  0  0
   -4.6496   12.6948    1.7709 C   0  0  0  0  0  0  0  0  0  0  0  0
   -5.1251   11.6830   -1.5962 C   0  0  0  0  0  0  0  0  0  0  0  0
  1 14  1  0  0  0  0
  1  2  2  0  0  0  0
  3  2  1  0  0  0  0
  3  8  2  0  0  0  0
  4  3  1  0  0  0  0
  5  7  2  0  0  0  0
  5  4  1  0  0  0  0
  6  5  1  0  0  0  0
  7  1  1  0  0  0  0
  9 10  1  0  0  0  0
  9  8  1  0  0  0  0
 11  9  2  0  0  0  0
 12 11  1  0  0  0  0
 13  4  2  0  0  0  0
 13 11  1  0  0  0  0
 14 15  1  0  0  0  0
 16 15  1  0  0  0  0
 17 16  1  0  0  0  0
 18 17  1  0  0  0  0
 18 19  1  0  0  0  0
 19 14  1  0  0  0  0
 20 10  1  0  0  0  0
 21 12  1  0  0  0  0
M  END
>  <CHROM.1>
54.92131767,-123.25410709,-94.31816267,-1.87523639,8.92927998,0.56937133
-0.53720010,0.93500504,-1.30152335

>  <Name>
lig.pdb

>  <RI>
2.05709e+07

>  <Rbt.Current_Directory>
/home/itssahil/PROJECTS/Mol_Feturizer/New_Systems/rnas/2lwk

>  <Rbt.Executable>
rbdock ($Id: //depot/dev/client3/rdock/2013.1/src/exe/rbdock.cxx#4 $)

>  <Rbt.Library>
libRbt.so (2013.1, Build901 2013/11/27)

>  <Rbt.Parameter_File>
/export/apps/rDock/src/rDock_2013.1_src/data/scripts/dock_solv.prm

>  <Rbt.Receptor>
prm/blind_docking_40.prm

>  <SCORE>
-20.6673

>  <SCORE.INTER>
-17.9936

>  <SCORE.INTER.CONST>
1

>  <SCORE.INTER.POLAR>
-1.66063

>  <SCORE.INTER.ROT>
3

>  <SCORE.INTER.SOLV>
14.5157

>  <SCORE.INTER.VDW>
-16.8988

>  <SCORE.INTER.norm>
-0.856836

>  <SCORE.INTRA>
-4.68867

>  <SCORE.INTRA.DIHEDRAL>
0.402432

>  <SCORE.INTRA.DIHEDRAL.0>
8.84257

>  <SCORE.INTRA.POLAR>
0

>  <SCORE.INTRA.POLAR.0>
0

>  <SCORE.INTRA.REPUL>
0

>  <SCORE.INTRA.REPUL.0>
0

>  <SCORE.INTRA.SOLV>
0.113618

>  <SCORE.INTRA.SOLV.lig_0>
-17.1313

>  <SCORE.INTRA.VDW>
-4.9467

>  <SCORE.INTRA.VDW.0>
6.34071

>  <SCORE.INTRA.norm>
-0.22327

>  <SCORE.RESTR>
2.01497

>  <SCORE.RESTR.CAVITY>
2.01497

>  <SCORE.RESTR.norm>
0.0959508

>  <SCORE.SYSTEM>
0

>  <SCORE.SYSTEM.CONST>
0

>  <SCORE.SYSTEM.DIHEDRAL>
0

>  <SCORE.SYSTEM.SOLV>
0

>  <SCORE.SYSTEM.norm>
0

>  <SCORE.heavy>
21

>  <SCORE.norm>
-0.984156

>  <RMSD>
12.727

$$$$
lig.pdb
 OpenBabel11021811453D
libRbt.so/2013.1/901 2013/11/27
 21 23  0  0  0  0  0  0  0  0999 V2000
   -0.8618    7.2290    0.3751 C   0  0  0  0  0  0  0  0  0  0  0  0
   -1.6375    8.0192    1.1086 N   0  0  0  0  0  0  0  0  0  0  0  0
   -2.1557    9.1125    0.5783 C   0  0  0  0  0  0  0  0  0  0  0  0
   -1.8403    9.4608   -0.6855 C   0  0  0  0  0  0  0  0  0  0  0  0
   -1.0605    8.6593   -1.4234 C   0  0  0  0  0  0  0  0  0  0  0  0
   -0.7395    8.9982   -2.6715 N   0  0  0  0  0  0  0  0  0  0  0  0
   -0.5715    7.5458   -0.8875 N   0  0  0  0  0  0  0  0  0  0  0  0
   -2.9582    9.8941    1.3197 C   0  0  0  0  0  0  0  0  0  0  0  0
   -3.3443   11.1104    0.8259 C   0  0  0  0  0  0  0  0  0  0  0  0
   -3.3888   12.2020    1.7256 O   0  0  0  0  0  0  0  0  0  0  0  0
   -3.1844   11.3468   -0.4867 C   0  0  0  0  0  0  0  0  0  0  0  0
   -3.9624   12.3522   -1.1208 O   0  0  0  0  0  0  0  0  0  0  0  0
   -2.3488   10.5818   -1.2161 C   0  0  0  0  0  0  0  0  0  0  0  0
   -0.3619    6.1289    0.9110 N   0  0  0  0  0  0  0  0  0  0  0  0
   -1.2201    5.3460    1.5720 C   0  0  0  0  0  0  0  0  0  0  0  0
   -1.4789    5.9113    2.9603 C   0  0  0  0  0  0  0  0  0  0  0  0
   -0.2965    5.9580    3.6693 N   0  0  0  0  0  0  0  0  0  0  0  0
    0.5531    6.8024    2.9884 C   0  0  0  0  0  0  0  0  0  0  0  0
    0.8174    6.2378    1.6026 C   0  0  0  0  0  0  0  0  0  0  0  0
   -4.6900   12.7308    1.7057 C   0  0  0  0  0  0  0  0  0  0  0  0
   -5.1130   11.7575   -1.6617 C   0  0  0  0  0  0  0  0  0  0  0  0
  1 14  1  0  0  0  0
  1  2  2  0  0  0  0
  3  2  1  0  0  0  0
  3  8  2  0  0  0  0
  4  3  1  0  0  0  0
  5  7  2  0  0  0  0
  5  4  1  0  0  0  0
  6  5  1  0  0  0  0
  7  1  1  0  0  0  0
  9 10  1  0  0  0  0
  9  8  1  0  0  0  0
 11  9  2  0  0  0  0
 12 11  1  0  0  0  0
 13  4  2  0  0  0  0
 13 11  1  0  0  0  0
 14 15  1  0  0  0  0
 16 15  1  0  0  0  0
 17 16  1  0  0  0  0
 18 17  1  0  0  0  0
 18 19  1  0  0  0  0
 19 14  1  0  0  0  0
 20 10  1  0  0  0  0
 21 12  1  0  0  0  0
M  END
>  <CHROM.1>
48.29172771,-122.87368416,-93.15391832,-1.91446822,8.94784776,0.54405611
-0.54781510,0.93644301,-1.29671277

>  <Name>
lig.pdb

>  <RI>
4.07847e+07

>  <Rbt.Current_Directory>
/home/itssahil/PROJECTS/Mol_Feturizer/New_Systems/rnas/2lwk

>  <Rbt.Executable>
rbdock ($Id: //depot/dev/client3/rdock/2013.1/src/exe/rbdock.cxx#4 $)

>  <Rbt.Library>
libRbt.so (2013.1, Build901 2013/11/27)

>  <Rbt.Parameter_File>
/export/apps/rDock/src/rDock_2013.1_src/data/scripts/dock_solv.prm

>  <Rbt.Receptor>
prm/blind_docking_20.prm

>  <SCORE>
-20.5659

>  <SCORE.INTER>
-18.7592

>  <SCORE.INTER.CONST>
1

>  <SCORE.INTER.POLAR>
-1.67559

>  <SCORE.INTER.ROT>
3

>  <SCORE.INTER.SOLV>
14.2654

>  <SCORE.INTER.VDW>
-17.276

>  <SCORE.INTER.norm>
-0.893297

>  <SCORE.INTRA>
-4.48811

>  <SCORE.INTRA.DIHEDRAL>
0.443286

>  <SCORE.INTRA.DIHEDRAL.0>
8.84257

>  <SCORE.INTRA.POLAR>
0

>  <SCORE.INTRA.POLAR.0>
0

>  <SCORE.INTRA.REPUL>
0

>  <SCORE.INTRA.REPUL.0>
0

>  <SCORE.INTRA.SOLV>
0.10987

>  <SCORE.INTRA.SOLV.lig_0>
-17.1313

>  <SCORE.INTRA.VDW>
-4.76469

>  <SCORE.INTRA.VDW.0>
6.34071

>  <SCORE.INTRA.norm>
-0.21372

>  <SCORE.RESTR>
2.68148

>  <SCORE.RESTR.CAVITY>
2.68148

>  <SCORE.RESTR.norm>
0.12769

>  <SCORE.SYSTEM>
0

>  <SCORE.SYSTEM.CONST>
0

>  <SCORE.SYSTEM.DIHEDRAL>
0

>  <SCORE.SYSTEM.SOLV>
0

>  <SCORE.SYSTEM.norm>
0

>  <SCORE.heavy>
21

>  <SCORE.norm>
-0.979327

>  <RMSD>
12.729

$$$$
lig.pdb
 OpenBabel11021811453D
libRbt.so/2013.1/901 2013/11/27
 21 23  0  0  0  0  0  0  0  0999 V2000
   -0.3656    7.6922    0.7907 C   0  0  0  0  0  0  0  0  0  0  0  0
   -1.2095    8.4907    1.4345 N   0  0  0  0  0  0  0  0  0  0  0  0
   -1.8918    9.4049    0.7685 C   0  0  0  0  0  0  0  0  0  0  0  0
   -1.6789    9.5723   -0.5524 C   0  0  0  0  0  0  0  0  0  0  0  0
   -0.8297    8.7626   -1.1990 C   0  0  0  0  0  0  0  0  0  0  0  0
   -0.6094    8.9241   -2.5032 N   0  0  0  0  0  0  0  0  0  0  0  0
   -0.1734    7.8258   -0.5223 N   0  0  0  0  0  0  0  0  0  0  0  0
   -2.7607   10.1930    1.4232 C   0  0  0  0  0  0  0  0  0  0  0  0
   -3.3273   11.2502    0.7648 C   0  0  0  0  0  0  0  0  0  0  0  0
   -3.4809   12.4634    1.4775 O   0  0  0  0  0  0  0  0  0  0  0  0
   -3.2553   11.2804   -0.5761 C   0  0  0  0  0  0  0  0  0  0  0  0
   -4.1872   12.0586   -1.3138 O   0  0  0  0  0  0  0  0  0  0  0  0
   -2.3554   10.5148   -1.2238 C   0  0  0  0  0  0  0  0  0  0  0  0
    0.2996    6.7700    1.4646 N   0  0  0  0  0  0  0  0  0  0  0  0
    0.2391    5.5236    0.9859 C   0  0  0  0  0  0  0  0  0  0  0  0
   -1.0770    4.8744    1.3862 C   0  0  0  0  0  0  0  0  0  0  0  0
   -1.1662    4.8179    2.7616 N   0  0  0  0  0  0  0  0  0  0  0  0
   -1.1428    6.1154    3.2245 C   0  0  0  0  0  0  0  0  0  0  0  0
    0.1730    6.7653    2.8302 C   0  0  0  0  0  0  0  0  0  0  0  0
   -4.8546   12.7384    1.5793 C   0  0  0  0  0  0  0  0  0  0  0  0
   -5.2934   11.2551   -1.6318 C   0  0  0  0  0  0  0  0  0  0  0  0
  1 14  1  0  0  0  0
  1  2  2  0  0  0  0
  3  2  1  0  0  0  0
  3  8  2  0  0  0  0
  4  3  1  0  0  0  0
  5  7  2  0  0  0  0
  5  4  1  0  0  0  0
  6  5  1  0  0  0  0
  7  1  1  0  0  0  0
  9 10  1  0  0  0  0
  9  8  1  0  0  0  0
 11  9  2  0  0  0  0
 12 11  1  0  0  0  0
 13  4  2  0  0  0  0
 13 11  1  0  0  0  0
 14 15  1  0  0  0  0
 16 15  1  0  0  0  0
 17 16  1  0  0  0  0
 18 17  1  0  0  0  0
 18 19  1  0  0  0  0
 19 14  1  0  0  0  0
 20 10  1  0  0  0  0
 21 12  1  0  0  0  0
M  END
>  <CHROM.1>
128.60488489,-116.60845337,-90.83379281,-1.88452843,8.92897547,0.54168612
-0.61915552,0.90779438,-1.16676230

>  <Name>
lig.pdb

>  <RI>
3.07369e+07

>  <Rbt.Current_Directory>
/home/itssahil/PROJECTS/Mol_Feturizer/New_Systems/rnas/2lwk

>  <Rbt.Executable>
rbdock ($Id: //depot/dev/client3/rdock/2013.1/src/exe/rbdock.cxx#4 $)

>  <Rbt.Library>
libRbt.so (2013.1, Build901 2013/11/27)

>  <Rbt.Parameter_File>
/export/apps/rDock/src/rDock_2013.1_src/data/scripts/dock_solv.prm

>  <Rbt.Receptor>
prm/blind_docking_100.prm

>  <SCORE>
-21.1104

>  <SCORE.INTER>
-20.2275

>  <SCORE.INTER.CONST>
1

>  <SCORE.INTER.POLAR>
-1.45653

>  <SCORE.INTER.ROT>
3

>  <SCORE.INTER.SOLV>
13.1508

>  <SCORE.INTER.VDW>
-18.6135

>  <SCORE.INTER.norm>
-0.963214

>  <SCORE.INTRA>
-3.68755

>  <SCORE.INTRA.DIHEDRAL>
0.735912

>  <SCORE.INTRA.DIHEDRAL.0>
8.84257

>  <SCORE.INTRA.POLAR>
0

>  <SCORE.INTRA.POLAR.0>
0

>  <SCORE.INTRA.REPUL>
0

>  <SCORE.INTRA.REPUL.0>
0

>  <SCORE.INTRA.SOLV>
0.0208085

>  <SCORE.INTRA.SOLV.lig_0>
-17.1313

>  <SCORE.INTRA.VDW>
-4.06591

>  <SCORE.INTRA.VDW.0>
6.34071

>  <SCORE.INTRA.norm>
-0.175598

>  <SCORE.RESTR>
2.80464

>  <SCORE.RESTR.CAVITY>
2.80464

>  <SCORE.RESTR.norm>
0.133554

>  <SCORE.SYSTEM>
0

>  <SCORE.SYSTEM.CONST>
0

>  <SCORE.SYSTEM.DIHEDRAL>
0

>  <SCORE.SYSTEM.SOLV>
0

>  <SCORE.SYSTEM.norm>
0

>  <SCORE.heavy>
21

>  <SCORE.norm>
-1.00526

>  <RMSD>
12.747

$$$$
lig.pdb
 OpenBabel11021811453D
libRbt.so/2013.1/901 2013/11/27
 21 23  0  0  0  0  0  0  0  0999 V2000
   -0.3548    7.6815    0.8061 C   0  0  0  0  0  0  0  0  0  0  0  0
   -1.2051    8.4794    1.4424 N   0  0  0  0  0  0  0  0  0  0  0  0
   -1.8795    9.3953    0.7709 C   0  0  0  0  0  0  0  0  0  0  0  0
   -1.6524    9.5651   -0.5474 C   0  0  0  0  0  0  0  0  0  0  0  0
   -0.7968    8.7561   -1.1864 C   0  0  0  0  0  0  0  0  0  0  0  0
   -0.5624    8.9200   -2.4879 N   0  0  0  0  0  0  0  0  0  0  0  0
   -0.1484    7.8176   -0.5045 N   0  0  0  0  0  0  0  0  0  0  0  0
   -2.7550   10.1827    1.4178 C   0  0  0  0  0  0  0  0  0  0  0  0
   -3.3137   11.2416    0.7554 C   0  0  0  0  0  0  0  0  0  0  0  0
   -3.4742   12.4535    1.4687 O   0  0  0  0  0  0  0  0  0  0  0  0
   -3.2274   11.2743   -0.5847 C   0  0  0  0  0  0  0  0  0  0  0  0
   -4.1508   12.0546   -1.3308 O   0  0  0  0  0  0  0  0  0  0  0  0
   -2.3210   10.5094   -1.2242 C   0  0  0  0  0  0  0  0  0  0  0  0
    0.3026    6.7576    1.4852 N   0  0  0  0  0  0  0  0  0  0  0  0
    0.2415    5.5112    1.0068 C   0  0  0  0  0  0  0  0  0  0  0  0
   -1.0796    4.8664    1.3979 C   0  0  0  0  0  0  0  0  0  0  0  0
   -1.1789    4.8109    2.7727 N   0  0  0  0  0  0  0  0  0  0  0  0
   -1.1547    6.1087    3.2350 C   0  0  0  0  0  0  0  0  0  0  0  0
    0.1660    6.7540    2.8499 C   0  0  0  0  0  0  0  0  0  0  0  0
   -4.8498   12.7157    1.5790 C   0  0  0  0  0  0  0  0  0  0  0  0
   -5.2080   11.2288   -1.7438 C   0  0  0  0  0  0  0  0  0  0  0  0
  1 14  1  0  0  0  0
  1  2  2  0  0  0  0
  3  2  1  0  0  0  0
  3  8  2  0  0  0  0
  4  3  1  0  0  0  0
  5  7  2  0  0  0  0
  5  4  1  0  0  0  0
  6  5  1  0  0  0  0
  7  1  1  0  0  0  0
  9 10  1  0  0  0  0
  9  8  1  0  0  0  0
 11  9  2  0  0  0  0
 12 11  1  0  0  0  0
 13  4  2  0  0  0  0
 13 11  1  0  0  0  0
 14 15  1  0  0  0  0
 16 15  1  0  0  0  0
 17 16  1  0  0  0  0
 18 17  1  0  0  0  0
 18 19  1  0  0  0  0
 19 14  1  0  0  0  0
 20 10  1  0  0  0  0
 21 12  1  0  0  0  0
M  END
>  <CHROM.1>
128.31867008,-115.47630387,-95.00179153,-1.86790725,8.91894434,0.54160396
-0.63258865,0.90749516,-1.16004864

>  <Name>
lig.pdb

>  <RI>
3.07369e+07

>  <Rbt.Current_Directory>
/home/itssahil/PROJECTS/Mol_Feturizer/New_Systems/rnas/2lwk

>  <Rbt.Executable>
rbdock ($Id: //depot/dev/client3/rdock/2013.1/src/exe/rbdock.cxx#4 $)

>  <Rbt.Library>
libRbt.so (2013.1, Build901 2013/11/27)

>  <Rbt.Parameter_File>
/export/apps/rDock/src/rDock_2013.1_src/data/scripts/dock_solv.prm

>  <Rbt.Receptor>
prm/blind_docking_100.prm

>  <SCORE>
-21.1009

>  <SCORE.INTER>
-20.1777

>  <SCORE.INTER.CONST>
1

>  <SCORE.INTER.POLAR>
-1.45454

>  <SCORE.INTER.ROT>
3

>  <SCORE.INTER.SOLV>
13.2522

>  <SCORE.INTER.VDW>
-18.6207

>  <SCORE.INTER.norm>
-0.960845

>  <SCORE.INTRA>
-3.71729

>  <SCORE.INTRA.DIHEDRAL>
0.716781

>  <SCORE.INTRA.DIHEDRAL.0>
8.84257

>  <SCORE.INTRA.POLAR>
0

>  <SCORE.INTRA.POLAR.0>
0

>  <SCORE.INTRA.REPUL>
0

>  <SCORE.INTRA.REPUL.0>
0

>  <SCORE.INTRA.SOLV>
0.018155

>  <SCORE.INTRA.SOLV.lig_0>
-17.1313

>  <SCORE.INTRA.VDW>
-4.08476

>  <SCORE.INTRA.VDW.0>
6.34071

>  <SCORE.INTRA.norm>
-0.177014

>  <SCORE.RESTR>
2.7941

>  <SCORE.RESTR.CAVITY>
2.7941

>  <SCORE.RESTR.norm>
0.133053

>  <SCORE.SYSTEM>
0

>  <SCORE.SYSTEM.CONST>
0

>  <SCORE.SYSTEM.DIHEDRAL>
0

>  <SCORE.SYSTEM.SOLV>
0

>  <SCORE.SYSTEM.norm>
0

>  <SCORE.heavy>
21

>  <SCORE.norm>
-1.00481

>  <RMSD>
12.748

$$$$
lig.pdb
 OpenBabel11021811453D
libRbt.so/2013.1/901 2013/11/27
 21 23  0  0  0  0  0  0  0  0999 V2000
   -0.3487    7.6653    0.7085 C   0  0  0  0  0  0  0  0  0  0  0  0
   -1.1860    8.4511    1.3760 N   0  0  0  0  0  0  0  0  0  0  0  0
   -1.8799    9.3734    0.7337 C   0  0  0  0  0  0  0  0  0  0  0  0
   -1.6857    9.5618   -0.5873 C   0  0  0  0  0  0  0  0  0  0  0  0
   -0.8431    8.7648   -1.2579 C   0  0  0  0  0  0  0  0  0  0  0  0
   -0.6411    8.9470   -2.5624 N   0  0  0  0  0  0  0  0  0  0  0  0
   -0.1748    7.8197   -0.6048 N   0  0  0  0  0  0  0  0  0  0  0  0
   -2.7420   10.1486    1.4123 C   0  0  0  0  0  0  0  0  0  0  0  0
   -3.3206   11.2142    0.7781 C   0  0  0  0  0  0  0  0  0  0  0  0
   -3.4679   12.4157    1.5114 O   0  0  0  0  0  0  0  0  0  0  0  0
   -3.2671   11.2652   -0.5631 C   0  0  0  0  0  0  0  0  0  0  0  0
   -4.2113   12.0518   -1.2759 O   0  0  0  0  0  0  0  0  0  0  0  0
   -2.3739   10.5124   -1.2348 C   0  0  0  0  0  0  0  0  0  0  0  0
    0.3284    6.7348    1.3589 N   0  0  0  0  0  0  0  0  0  0  0  0
    0.1746    5.4782    0.9305 C   0  0  0  0  0  0  0  0  0  0  0  0
   -1.1316    4.9036    1.4574 C   0  0  0  0  0  0  0  0  0  0  0  0
   -1.1107    4.8945    2.8368 N   0  0  0  0  0  0  0  0  0  0  0  0
   -0.9930    6.2035    3.2505 C   0  0  0  0  0  0  0  0  0  0  0  0
    0.3135    6.7789    2.7295 C   0  0  0  0  0  0  0  0  0  0  0  0
   -4.8380   12.7168    1.5845 C   0  0  0  0  0  0  0  0  0  0  0  0
   -5.2814   11.2302   -1.6631 C   0  0  0  0  0  0  0  0  0  0  0  0
  1 14  1  0  0  0  0
  1  2  2  0  0  0  0
  3  2  1  0  0  0  0
  3  8  2  0  0  0  0
  4  3  1  0  0  0  0
  5  7  2  0  0  0  0
  5  4  1  0  0  0  0
  6  5  1  0  0  0  0
  7  1  1  0  0  0  0
  9 10  1  0  0  0  0
  9  8  1  0  0  0  0
 11  9  2  0  0  0  0
 12 11  1  0  0  0  0
 13  4  2  0  0  0  0
 13 11  1  0  0  0  0
 14 15  1  0  0  0  0
 16 15  1  0  0  0  0
 17 16  1  0  0  0  0
 18 17  1  0  0  0  0
 18 19  1  0  0  0  0
 19 14  1  0  0  0  0
 20 10  1  0  0  0  0
 21 12  1  0  0  0  0
M  END
>  <CHROM.1>
123.10642453,-119.22180966,-94.44763591,-1.87163354,8.92204904,0.52141526
-0.59932558,0.90853489,-1.18975001

>  <Name>
lig.pdb

>  <RI>
2.05709e+07

>  <Rbt.Current_Directory>
/home/itssahil/PROJECTS/Mol_Feturizer/New_Systems/rnas/2lwk

>  <Rbt.Executable>
rbdock ($Id: //depot/dev/client3/rdock/2013.1/src/exe/rbdock.cxx#4 $)

>  <Rbt.Library>
libRbt.so (2013.1, Build901 2013/11/27)

>  <Rbt.Parameter_File>
/export/apps/rDock/src/rDock_2013.1_src/data/scripts/dock_solv.prm

>  <Rbt.Receptor>
prm/blind_docking_40.prm

>  <SCORE>
-20.6548

>  <SCORE.INTER>
-19.6721

>  <SCORE.INTER.CONST>
1

>  <SCORE.INTER.POLAR>
-1.46274

>  <SCORE.INTER.ROT>
3

>  <SCORE.INTER.SOLV>
13.4302

>  <SCORE.INTER.VDW>
-18.3156

>  <SCORE.INTER.norm>
-0.936765

>  <SCORE.INTRA>
-3.78492

>  <SCORE.INTRA.DIHEDRAL>
0.580887

>  <SCORE.INTRA.DIHEDRAL.0>
8.84257

>  <SCORE.INTRA.POLAR>
0

>  <SCORE.INTRA.POLAR.0>
0

>  <SCORE.INTRA.REPUL>
0

>  <SCORE.INTRA.REPUL.0>
0

>  <SCORE.INTRA.SOLV>
0.0364568

>  <SCORE.INTRA.SOLV.lig_0>
-17.1313

>  <SCORE.INTRA.VDW>
-4.09359

>  <SCORE.INTRA.VDW.0>
6.34071

>  <SCORE.INTRA.norm>
-0.180234

>  <SCORE.RESTR>
2.8022

>  <SCORE.RESTR.CAVITY>
2.8022

>  <SCORE.RESTR.norm>
0.133438

>  <SCORE.SYSTEM>
0

>  <SCORE.SYSTEM.CONST>
0

>  <SCORE.SYSTEM.DIHEDRAL>
0

>  <SCORE.SYSTEM.SOLV>
0

>  <SCORE.SYSTEM.norm>
0

>  <SCORE.heavy>
21

>  <SCORE.norm>
-0.983561

>  <RMSD>
12.748

$$$$
lig.pdb
 OpenBabel11021811453D
libRbt.so/2013.1/901 2013/11/27
 21 23  0  0  0  0  0  0  0  0999 V2000
   -0.3609    7.6956    0.8233 C   0  0  0  0  0  0  0  0  0  0  0  0
   -1.2091    8.4961    1.4589 N   0  0  0  0  0  0  0  0  0  0  0  0
   -1.8860    9.4090    0.7855 C   0  0  0  0  0  0  0  0  0  0  0  0
   -1.6634    9.5728   -0.5343 C   0  0  0  0  0  0  0  0  0  0  0  0
   -0.8099    8.7611   -1.1725 C   0  0  0  0  0  0  0  0  0  0  0  0
   -0.5799    8.9190   -2.4755 N   0  0  0  0  0  0  0  0  0  0  0  0
   -0.1590    7.8257   -0.4886 N   0  0  0  0  0  0  0  0  0  0  0  0
   -2.7594   10.1991    1.4318 C   0  0  0  0  0  0  0  0  0  0  0  0
   -3.3206   11.2549    0.7665 C   0  0  0  0  0  0  0  0  0  0  0  0
   -3.4789   12.4700    1.4748 O   0  0  0  0  0  0  0  0  0  0  0  0
   -3.2388   11.2816   -0.5740 C   0  0  0  0  0  0  0  0  0  0  0  0
   -4.1649   12.0583   -1.3205 O   0  0  0  0  0  0  0  0  0  0  0  0
   -2.3345   10.5139   -1.2130 C   0  0  0  0  0  0  0  0  0  0  0  0
    0.2989    6.7748    1.5044 N   0  0  0  0  0  0  0  0  0  0  0  0
    0.2560    5.5305    1.0187 C   0  0  0  0  0  0  0  0  0  0  0  0
   -1.0624    4.8699    1.3924 C   0  0  0  0  0  0  0  0  0  0  0  0
   -1.1755    4.8059    2.7657 N   0  0  0  0  0  0  0  0  0  0  0  0
   -1.1698    6.1012    3.2353 C   0  0  0  0  0  0  0  0  0  0  0  0
    0.1481    6.7624    2.8675 C   0  0  0  0  0  0  0  0  0  0  0  0
   -4.8531   12.7463    1.5651 C   0  0  0  0  0  0  0  0  0  0  0  0
   -5.2083   11.2241   -1.7514 C   0  0  0  0  0  0  0  0  0  0  0  0
  1 14  1  0  0  0  0
  1  2  2  0  0  0  0
  3  2  1  0  0  0  0
  3  8  2  0  0  0  0
  4  3  1  0  0  0  0
  5  7  2  0  0  0  0
  5  4  1  0  0  0  0
  6  5  1  0  0  0  0
  7  1  1  0  0  0  0
  9 10  1  0  0  0  0
  9  8  1  0  0  0  0
 11  9  2  0  0  0  0
 12 11  1  0  0  0  0
 13  4  2  0  0  0  0
 13 11  1  0  0  0  0
 14 15  1  0  0  0  0
 16 15  1  0  0  0  0
 17 16  1  0  0  0  0
 18 17  1  0  0  0  0
 18 19  1  0  0  0  0
 19 14  1  0  0  0  0
 20 10  1  0  0  0  0
 21 12  1  0  0  0  0
M  END
>  <CHROM.1>
129.46187429,-116.64811102,-96.29575095,-1.87395249,8.92774760,0.54988999
-0.62522303,0.91117517,-1.16882689

>  <Name>
lig.pdb

>  <RI>
3.07369e+07

>  <Rbt.Current_Directory>
/home/itssahil/PROJECTS/Mol_Feturizer/New_Systems/rnas/2lwk

>  <Rbt.Executable>
rbdock ($Id: //depot/dev/client3/rdock/2013.1/src/exe/rbdock.cxx#4 $)

>  <Rbt.Library>
libRbt.so (2013.1, Build901 2013/11/27)

>  <Rbt.Parameter_File>
/export/apps/rDock/src/rDock_2013.1_src/data/scripts/dock_solv.prm

>  <Rbt.Receptor>
prm/blind_docking_100.prm

>  <SCORE>
-21.1277

>  <SCORE.INTER>
-20.2783

>  <SCORE.INTER.CONST>
1

>  <SCORE.INTER.POLAR>
-1.44052

>  <SCORE.INTER.ROT>
3

>  <SCORE.INTER.SOLV>
13.1957

>  <SCORE.INTER.VDW>
-18.7157

>  <SCORE.INTER.norm>
-0.965633

>  <SCORE.INTRA>
-3.64299

>  <SCORE.INTRA.DIHEDRAL>
0.647431

>  <SCORE.INTRA.DIHEDRAL.0>
8.84257

>  <SCORE.INTRA.POLAR>
0

>  <SCORE.INTRA.POLAR.0>
0

>  <SCORE.INTRA.REPUL>
0

>  <SCORE.INTRA.REPUL.0>
0

>  <SCORE.INTRA.SOLV>
0.0154409

>  <SCORE.INTRA.SOLV.lig_0>
-17.1313

>  <SCORE.INTRA.VDW>
-3.97443

>  <SCORE.INTRA.VDW.0>
6.34071

>  <SCORE.INTRA.norm>
-0.173476

>  <SCORE.RESTR>
2.79363

>  <SCORE.RESTR.CAVITY>
2.79363

>  <SCORE.RESTR.norm>
0.13303

>  <SCORE.SYSTEM>
0

>  <SCORE.SYSTEM.CONST>
0

>  <SCORE.SYSTEM.DIHEDRAL>
0

>  <SCORE.SYSTEM.SOLV>
0

>  <SCORE.SYSTEM.norm>
0

>  <SCORE.heavy>
21

>  <SCORE.norm>
-1.00608

>  <RMSD>
12.749

$$$$
lig.pdb
 OpenBabel11021811453D
libRbt.so/2013.1/901 2013/11/27
 21 23  0  0  0  0  0  0  0  0999 V2000
   -0.3497    7.6878    0.7830 C   0  0  0  0  0  0  0  0  0  0  0  0
   -1.1943    8.4788    1.4352 N   0  0  0  0  0  0  0  0  0  0  0  0
   -1.8801    9.3969    0.7783 C   0  0  0  0  0  0  0  0  0  0  0  0
   -1.6704    9.5758   -0.5416 C   0  0  0  0  0  0  0  0  0  0  0  0
   -0.8205    8.7737   -1.1967 C   0  0  0  0  0  0  0  0  0  0  0  0
   -0.6032    8.9466   -2.5000 N   0  0  0  0  0  0  0  0  0  0  0  0
   -0.1604    7.8329   -0.5292 N   0  0  0  0  0  0  0  0  0  0  0  0
   -2.7496   10.1773    1.4413 C   0  0  0  0  0  0  0  0  0  0  0  0
   -3.3201   11.2386    0.7929 C   0  0  0  0  0  0  0  0  0  0  0  0
   -3.4753   12.4454    1.5160 O   0  0  0  0  0  0  0  0  0  0  0  0
   -3.2510   11.2802   -0.5479 C   0  0  0  0  0  0  0  0  0  0  0  0
   -4.1863   12.0622   -1.2772 O   0  0  0  0  0  0  0  0  0  0  0  0
   -2.3505   10.5222   -1.2038 C   0  0  0  0  0  0  0  0  0  0  0  0
    0.3192    6.7616    1.4478 N   0  0  0  0  0  0  0  0  0  0  0  0
    0.2307    5.5128    0.9801 C   0  0  0  0  0  0  0  0  0  0  0  0
   -1.0840    4.8842    1.4165 C   0  0  0  0  0  0  0  0  0  0  0  0
   -1.1410    4.8388    2.7941 N   0  0  0  0  0  0  0  0  0  0  0  0
   -1.0893    6.1393    3.2465 C   0  0  0  0  0  0  0  0  0  0  0  0
    0.2252    6.7685    2.8161 C   0  0  0  0  0  0  0  0  0  0  0  0
   -4.8469   12.7412    1.5816 C   0  0  0  0  0  0  0  0  0  0  0  0
   -5.2901   11.2580   -1.6016 C   0  0  0  0  0  0  0  0  0  0  0  0
  1 14  1  0  0  0  0
  1  2  2  0  0  0  0
  3  2  1  0  0  0  0
  3  8  2  0  0  0  0
  4  3  1  0  0  0  0
  5  7  2  0  0  0  0
  5  4  1  0  0  0  0
  6  5  1  0  0  0  0
  7  1  1  0  0  0  0
  9 10  1  0  0  0  0
  9  8  1  0  0  0  0
 11  9  2  0  0  0  0
 12 11  1  0  0  0  0
 13  4  2  0  0  0  0
 13 11  1  0  0  0  0
 14 15  1  0  0  0  0
 16 15  1  0  0  0  0
 17 16  1  0  0  0  0
 18 17  1  0  0  0  0
 18 19  1  0  0  0  0
 19 14  1  0  0  0  0
 20 10  1  0  0  0  0
 21 12  1  0  0  0  0
M  END
>  <CHROM.1>
126.81571169,-118.68449318,-90.93566729,-1.87216395,8.93067713,0.55452128
-0.61674428,0.90507600,-1.16666337

>  <Name>
lig.pdb

>  <RI>
2.05709e+07

>  <Rbt.Current_Directory>
/home/itssahil/PROJECTS/Mol_Feturizer/New_Systems/rnas/2lwk

>  <Rbt.Executable>
rbdock ($Id: //depot/dev/client3/rdock/2013.1/src/exe/rbdock.cxx#4 $)

>  <Rbt.Library>
libRbt.so (2013.1, Build901 2013/11/27)

>  <Rbt.Parameter_File>
/export/apps/rDock/src/rDock_2013.1_src/data/scripts/dock_solv.prm

>  <Rbt.Receptor>
prm/blind_docking_40.prm

>  <SCORE>
-20.6937

>  <SCORE.INTER>
-19.8482

>  <SCORE.INTER.CONST>
1

>  <SCORE.INTER.POLAR>
-1.42524

>  <SCORE.INTER.ROT>
3

>  <SCORE.INTER.SOLV>
13.3371

>  <SCORE.INTER.VDW>
-18.527

>  <SCORE.INTER.norm>
-0.945152

>  <SCORE.INTRA>
-3.67983

>  <SCORE.INTRA.DIHEDRAL>
0.652911

>  <SCORE.INTRA.DIHEDRAL.0>
8.84257

>  <SCORE.INTRA.POLAR>
0

>  <SCORE.INTRA.POLAR.0>
0

>  <SCORE.INTRA.REPUL>
0

>  <SCORE.INTRA.REPUL.0>
0

>  <SCORE.INTRA.SOLV>
0.0278605

>  <SCORE.INTRA.SOLV.lig_0>
-17.1313

>  <SCORE.INTRA.VDW>
-4.02022

>  <SCORE.INTRA.VDW.0>
6.34071

>  <SCORE.INTRA.norm>
-0.17523

>  <SCORE.RESTR>
2.83435

>  <SCORE.RESTR.CAVITY>
2.83435

>  <SCORE.RESTR.norm>
0.134969

>  <SCORE.SYSTEM>
0

>  <SCORE.SYSTEM.CONST>
0

>  <SCORE.SYSTEM.DIHEDRAL>
0

>  <SCORE.SYSTEM.SOLV>
0

>  <SCORE.SYSTEM.norm>
0

>  <SCORE.heavy>
21

>  <SCORE.norm>
-0.985413

>  <RMSD>
12.749

$$$$
lig.pdb
 OpenBabel11021811453D
libRbt.so/2013.1/901 2013/11/27
 21 23  0  0  0  0  0  0  0  0999 V2000
   -0.3492    7.6666    0.7094 C   0  0  0  0  0  0  0  0  0  0  0  0
   -1.1839    8.4572    1.3746 N   0  0  0  0  0  0  0  0  0  0  0  0
   -1.8775    9.3775    0.7289 C   0  0  0  0  0  0  0  0  0  0  0  0
   -1.6854    9.5588   -0.5934 C   0  0  0  0  0  0  0  0  0  0  0  0
   -0.8454    8.7571   -1.2615 C   0  0  0  0  0  0  0  0  0  0  0  0
   -0.6455    8.9324   -2.5672 N   0  0  0  0  0  0  0  0  0  0  0  0
   -0.1775    7.8141   -0.6049 N   0  0  0  0  0  0  0  0  0  0  0  0
   -2.7370   10.1575    1.4052 C   0  0  0  0  0  0  0  0  0  0  0  0
   -3.3149   11.2208    0.7668 C   0  0  0  0  0  0  0  0  0  0  0  0
   -3.4588   12.4263    1.4943 O   0  0  0  0  0  0  0  0  0  0  0  0
   -3.2639   11.2651   -0.5748 C   0  0  0  0  0  0  0  0  0  0  0  0
   -4.2080   12.0497   -1.2897 O   0  0  0  0  0  0  0  0  0  0  0  0
   -2.3732   10.5074   -1.2443 C   0  0  0  0  0  0  0  0  0  0  0  0
    0.3275    6.7382    1.3632 N   0  0  0  0  0  0  0  0  0  0  0  0
    0.1757    5.4805    0.9375 C   0  0  0  0  0  0  0  0  0  0  0  0
   -1.1310    4.9059    1.4632 C   0  0  0  0  0  0  0  0  0  0  0  0
   -1.1126    4.9000    2.8426 N   0  0  0  0  0  0  0  0  0  0  0  0
   -0.9970    6.2100    3.2536 C   0  0  0  0  0  0  0  0  0  0  0  0
    0.3099    6.7854    2.7338 C   0  0  0  0  0  0  0  0  0  0  0  0
   -4.8299   12.7162    1.5912 C   0  0  0  0  0  0  0  0  0  0  0  0
   -5.3081   11.2422   -1.6186 C   0  0  0  0  0  0  0  0  0  0  0  0
  1 14  1  0  0  0  0
  1  2  2  0  0  0  0
  3  2  1  0  0  0  0
  3  8  2  0  0  0  0
  4  3  1  0  0  0  0
  5  7  2  0  0  0  0
  5  4  1  0  0  0  0
  6  5  1  0  0  0  0
  7  1  1  0  0  0  0
  9 10  1  0  0  0  0
  9  8  1  0  0  0  0
 11  9  2  0  0  0  0
 12 11  1  0  0  0  0
 13  4  2  0  0  0  0
 13 11  1  0  0  0  0
 14 15  1  0  0  0  0
 16 15  1  0  0  0  0
 17 16  1  0  0  0  0
 18 17  1  0  0  0  0
 18 19  1  0  0  0  0
 19 14  1  0  0  0  0
 20 10  1  0  0  0  0
 21 12  1  0  0  0  0
M  END
>  <CHROM.1>
123.41292880,-118.07672519,-91.82351424,-1.87199578,8.92384780,0.52124476
-0.59910700,0.90862455,-1.19024871

>  <Name>
lig.pdb

>  <RI>
1.99026e+07

>  <Rbt.Current_Directory>
/home/itssahil/PROJECTS/Mol_Feturizer/New_Systems/rnas/2lwk

>  <Rbt.Executable>
rbdock ($Id: //depot/dev/client3/rdock/2013.1/src/exe/rbdock.cxx#4 $)

>  <Rbt.Library>
libRbt.so (2013.1, Build901 2013/11/27)

>  <Rbt.Parameter_File>
/export/apps/rDock/src/rDock_2013.1_src/data/scripts/dock_solv.prm

>  <Rbt.Receptor>
prm/blind_docking_60.prm

>  <SCORE>
-20.6476

>  <SCORE.INTER>
-19.6349

>  <SCORE.INTER.CONST>
1

>  <SCORE.INTER.POLAR>
-1.47845

>  <SCORE.INTER.ROT>
3

>  <SCORE.INTER.SOLV>
13.4277

>  <SCORE.INTER.VDW>
-18.2376

>  <SCORE.INTER.norm>
-0.934993

>  <SCORE.INTRA>
-3.81583

>  <SCORE.INTRA.DIHEDRAL>
0.667288

>  <SCORE.INTRA.DIHEDRAL.0>
8.84257

>  <SCORE.INTRA.POLAR>
0

>  <SCORE.INTRA.POLAR.0>
0

>  <SCORE.INTRA.REPUL>
0

>  <SCORE.INTRA.REPUL.0>
0

>  <SCORE.INTRA.SOLV>
0.0359269

>  <SCORE.INTRA.SOLV.lig_0>
-17.1313

>  <SCORE.INTRA.VDW>
-4.16743

>  <SCORE.INTRA.VDW.0>
6.34071

>  <SCORE.INTRA.norm>
-0.181706

>  <SCORE.RESTR>
2.80306

>  <SCORE.RESTR.CAVITY>
2.80306

>  <SCORE.RESTR.norm>
0.133479

>  <SCORE.SYSTEM>
0

>  <SCORE.SYSTEM.CONST>
0

>  <SCORE.SYSTEM.DIHEDRAL>
0

>  <SCORE.SYSTEM.SOLV>
0

>  <SCORE.SYSTEM.norm>
0

>  <SCORE.heavy>
21

>  <SCORE.norm>
-0.98322

>  <RMSD>
12.749

$$$$
lig.pdb
 OpenBabel11021811453D
libRbt.so/2013.1/901 2013/11/27
 21 23  0  0  0  0  0  0  0  0999 V2000
   -0.3562    7.6926    0.7442 C   0  0  0  0  0  0  0  0  0  0  0  0
   -1.2033    8.4844    1.3922 N   0  0  0  0  0  0  0  0  0  0  0  0
   -1.8903    9.3984    0.7308 C   0  0  0  0  0  0  0  0  0  0  0  0
   -1.6794    9.5725   -0.5895 C   0  0  0  0  0  0  0  0  0  0  0  0
   -0.8269    8.7696   -1.2404 C   0  0  0  0  0  0  0  0  0  0  0  0
   -0.6085    8.9379   -2.5441 N   0  0  0  0  0  0  0  0  0  0  0  0
   -0.1657    7.8330   -0.5684 N   0  0  0  0  0  0  0  0  0  0  0  0
   -2.7623   10.1795    1.3897 C   0  0  0  0  0  0  0  0  0  0  0  0
   -3.3343   11.2370    0.7364 C   0  0  0  0  0  0  0  0  0  0  0  0
   -3.4930   12.4462    1.4545 O   0  0  0  0  0  0  0  0  0  0  0  0
   -3.2637   11.2734   -0.6044 C   0  0  0  0  0  0  0  0  0  0  0  0
   -4.1998   12.0505   -1.3379 O   0  0  0  0  0  0  0  0  0  0  0  0
   -2.3607   10.5148   -1.2562 C   0  0  0  0  0  0  0  0  0  0  0  0
    0.3139    6.7705    1.4134 N   0  0  0  0  0  0  0  0  0  0  0  0
    0.2162    5.5173    0.9597 C   0  0  0  0  0  0  0  0  0  0  0  0
   -1.0977    4.8992    1.4131 C   0  0  0  0  0  0  0  0  0  0  0  0
   -1.1439    4.8687    2.7915 N   0  0  0  0  0  0  0  0  0  0  0  0
   -1.0830    6.1735    3.2297 C   0  0  0  0  0  0  0  0  0  0  0  0
    0.2308    6.7923    2.7822 C   0  0  0  0  0  0  0  0  0  0  0  0
   -4.8687   12.6866    1.6054 C   0  0  0  0  0  0  0  0  0  0  0  0
   -5.3117   11.2490   -1.6408 C   0  0  0  0  0  0  0  0  0  0  0  0
  1 14  1  0  0  0  0
  1  2  2  0  0  0  0
  3  2  1  0  0  0  0
  3  8  2  0  0  0  0
  4  3  1  0  0  0  0
  5  7  2  0  0  0  0
  5  4  1  0  0  0  0
  6  5  1  0  0  0  0
  7  1  1  0  0  0  0
  9 10  1  0  0  0  0
  9  8  1  0  0  0  0
 11  9  2  0  0  0  0
 12 11  1  0  0  0  0
 13  4  2  0  0  0  0
 13 11  1  0  0  0  0
 14 15  1  0  0  0  0
 16 15  1  0  0  0  0
 17 16  1  0  0  0  0
 18 17  1  0  0  0  0
 18 19  1  0  0  0  0
 19 14  1  0  0  0  0
 20 10  1  0  0  0  0
 21 12  1  0  0  0  0
M  END
>  <CHROM.1>
126.06582598,-114.27612584,-89.94061038,-1.88180860,8.93167586,0.51837459
-0.61780804,0.90028384,-1.16956509

>  <Name>
lig.pdb

>  <RI>
1.99026e+07

>  <Rbt.Current_Directory>
/home/itssahil/PROJECTS/Mol_Feturizer/New_Systems/rnas/2lwk

>  <Rbt.Executable>
rbdock ($Id: //depot/dev/client3/rdock/2013.1/src/exe/rbdock.cxx#4 $)

>  <Rbt.Library>
libRbt.so (2013.1, Build901 2013/11/27)

>  <Rbt.Parameter_File>
/export/apps/rDock/src/rDock_2013.1_src/data/scripts/dock_solv.prm

>  <Rbt.Receptor>
prm/blind_docking_60.prm

>  <SCORE>
-20.8788

>  <SCORE.INTER>
-19.906

>  <SCORE.INTER.CONST>
1

>  <SCORE.INTER.POLAR>
-1.4958

>  <SCORE.INTER.ROT>
3

>  <SCORE.INTER.SOLV>
13.3006

>  <SCORE.INTER.VDW>
-18.3182

>  <SCORE.INTER.norm>
-0.947905

>  <SCORE.INTRA>
-3.85571

>  <SCORE.INTRA.DIHEDRAL>
0.819941

>  <SCORE.INTRA.DIHEDRAL.0>
8.84257

>  <SCORE.INTRA.POLAR>
0

>  <SCORE.INTRA.POLAR.0>
0

>  <SCORE.INTRA.REPUL>
0

>  <SCORE.INTRA.REPUL.0>
0

>  <SCORE.INTRA.SOLV>
0.0259928

>  <SCORE.INTRA.SOLV.lig_0>
-17.1313

>  <SCORE.INTRA.VDW>
-4.27868

>  <SCORE.INTRA.VDW.0>
6.34071

>  <SCORE.INTRA.norm>
-0.183605

>  <SCORE.RESTR>
2.88295

>  <SCORE.RESTR.CAVITY>
2.88295

>  <SCORE.RESTR.norm>
0.137283

>  <SCORE.SYSTEM>
0

>  <SCORE.SYSTEM.CONST>
0

>  <SCORE.SYSTEM.DIHEDRAL>
0

>  <SCORE.SYSTEM.SOLV>
0

>  <SCORE.SYSTEM.norm>
0

>  <SCORE.heavy>
21

>  <SCORE.norm>
-0.994227

>  <RMSD>
12.751

$$$$
lig.pdb
 OpenBabel11021811453D
libRbt.so/2013.1/901 2013/11/27
 21 23  0  0  0  0  0  0  0  0999 V2000
   -2.4656   10.8537   -1.2377 C   0  0  0  0  0  0  0  0  0  0  0  0
   -1.9047    9.6501   -1.2696 N   0  0  0  0  0  0  0  0  0  0  0  0
   -1.7779    8.9511   -0.1560 C   0  0  0  0  0  0  0  0  0  0  0  0
   -2.1549    9.4890    1.0216 C   0  0  0  0  0  0  0  0  0  0  0  0
   -2.7236   10.7017    1.0493 C   0  0  0  0  0  0  0  0  0  0  0  0
   -3.0945   11.2431    2.2090 N   0  0  0  0  0  0  0  0  0  0  0  0
   -2.8742   11.3812   -0.0829 N   0  0  0  0  0  0  0  0  0  0  0  0
   -1.2309    7.7249   -0.2002 C   0  0  0  0  0  0  0  0  0  0  0  0
   -0.9394    7.0832    0.9726 C   0  0  0  0  0  0  0  0  0  0  0  0
    0.2702    6.3514    1.0394 O   0  0  0  0  0  0  0  0  0  0  0  0
   -1.4928    7.5430    2.1069 C   0  0  0  0  0  0  0  0  0  0  0  0
   -1.6109    6.6831    3.2316 O   0  0  0  0  0  0  0  0  0  0  0  0
   -2.0059    8.7880    2.1543 C   0  0  0  0  0  0  0  0  0  0  0  0
   -2.6023   11.5376   -2.3606 N   0  0  0  0  0  0  0  0  0  0  0  0
   -3.8325   11.9761   -2.6442 C   0  0  0  0  0  0  0  0  0  0  0  0
   -4.6684   10.8455   -3.2247 C   0  0  0  0  0  0  0  0  0  0  0  0
   -4.0877   10.3916   -4.3909 N   0  0  0  0  0  0  0  0  0  0  0  0
   -2.8396    9.9089   -4.0628 C   0  0  0  0  0  0  0  0  0  0  0  0
   -2.0005   11.0373   -3.4868 C   0  0  0  0  0  0  0  0  0  0  0  0
   -0.0475    4.9831    1.0416 C   0  0  0  0  0  0  0  0  0  0  0  0
   -2.9185    6.1745    3.2746 C   0  0  0  0  0  0  0  0  0  0  0  0
  1 14  1  0  0  0  0
  1  2  2  0  0  0  0
  3  2  1  0  0  0  0
  3  8  2  0  0  0  0
  4  3  1  0  0  0  0
  5  7  2  0  0  0  0
  5  4  1  0  0  0  0
  6  5  1  0  0  0  0
  7  1  1  0  0  0  0
  9 10  1  0  0  0  0
  9  8  1  0  0  0  0
 11  9  2  0  0  0  0
 12 11  1  0  0  0  0
 13  4  2  0  0  0  0
 13 11  1  0  0  0  0
 14 15  1  0  0  0  0
 16 15  1  0  0  0  0
 17 16  1  0  0  0  0
 18 17  1  0  0  0  0
 18 19  1  0  0  0  0
 19 14  1  0  0  0  0
 20 10  1  0  0  0  0
 21 12  1  0  0  0  0
M  END
>  <CHROM.1>
126.33280499,-108.40336212,-98.84997897,-2.24245723,9.17473496,-0.23133207
2.25630896,1.08443641,-1.49441107

>  <Name>
lig.pdb

>  <RI>
3.07369e+07

>  <Rbt.Current_Directory>
/home/itssahil/PROJECTS/Mol_Feturizer/New_Systems/rnas/2lwk

>  <Rbt.Executable>
rbdock ($Id: //depot/dev/client3/rdock/2013.1/src/exe/rbdock.cxx#4 $)

>  <Rbt.Library>
libRbt.so (2013.1, Build901 2013/11/27)

>  <Rbt.Parameter_File>
/export/apps/rDock/src/rDock_2013.1_src/data/scripts/dock_solv.prm

>  <Rbt.Receptor>
prm/blind_docking_100.prm

>  <SCORE>
-13.5841

>  <SCORE.INTER>
-12.6964

>  <SCORE.INTER.CONST>
1

>  <SCORE.INTER.POLAR>
-0.926227

>  <SCORE.INTER.ROT>
3

>  <SCORE.INTER.SOLV>
12.4098

>  <SCORE.INTER.VDW>
-15.1134

>  <SCORE.INTER.norm>
-0.604589

>  <SCORE.INTRA>
-3.83564

>  <SCORE.INTRA.DIHEDRAL>
0.796759

>  <SCORE.INTRA.DIHEDRAL.0>
8.84257

>  <SCORE.INTRA.POLAR>
0

>  <SCORE.INTRA.POLAR.0>
0

>  <SCORE.INTRA.REPUL>
0

>  <SCORE.INTRA.REPUL.0>
0

>  <SCORE.INTRA.SOLV>
0.0145255

>  <SCORE.INTRA.SOLV.lig_0>
-17.1313

>  <SCORE.INTRA.VDW>
-4.24128

>  <SCORE.INTRA.VDW.0>
6.34071

>  <SCORE.INTRA.norm>
-0.18265

>  <SCORE.RESTR>
2.94793

>  <SCORE.RESTR.CAVITY>
2.94793

>  <SCORE.RESTR.norm>
0.140377

>  <SCORE.SYSTEM>
0

>  <SCORE.SYSTEM.CONST>
0

>  <SCORE.SYSTEM.DIHEDRAL>
0

>  <SCORE.SYSTEM.SOLV>
0

>  <SCORE.SYSTEM.norm>
0

>  <SCORE.heavy>
21

>  <SCORE.norm>
-0.646861

>  <RMSD>
12.840

$$$$
lig.pdb
 OpenBabel11021811453D
libRbt.so/2013.1/901 2013/11/27
 21 23  0  0  0  0  0  0  0  0999 V2000
   -0.5202    7.5786    0.2712 C   0  0  0  0  0  0  0  0  0  0  0  0
   -1.2842    8.2999    1.0838 N   0  0  0  0  0  0  0  0  0  0  0  0
   -1.9750    9.3203    0.6079 C   0  0  0  0  0  0  0  0  0  0  0  0
   -1.8494    9.6706   -0.6882 C   0  0  0  0  0  0  0  0  0  0  0  0
   -1.0807    8.9385   -1.5055 C   0  0  0  0  0  0  0  0  0  0  0  0
   -0.9468    9.2803   -2.7865 N   0  0  0  0  0  0  0  0  0  0  0  0
   -0.4160    7.8950   -1.0203 N   0  0  0  0  0  0  0  0  0  0  0  0
   -2.7636   10.0304    1.4316 C   0  0  0  0  0  0  0  0  0  0  0  0
   -3.3328   11.1878    0.9748 C   0  0  0  0  0  0  0  0  0  0  0  0
   -3.3875   12.2891    1.8620 O   0  0  0  0  0  0  0  0  0  0  0  0
   -3.3546   11.4094   -0.3499 C   0  0  0  0  0  0  0  0  0  0  0  0
   -4.3046   12.3129   -0.8970 O   0  0  0  0  0  0  0  0  0  0  0  0
   -2.5336   10.7195   -1.1658 C   0  0  0  0  0  0  0  0  0  0  0  0
    0.1538    6.5497    0.7550 N   0  0  0  0  0  0  0  0  0  0  0  0
   -0.5344    5.4178    0.9323 C   0  0  0  0  0  0  0  0  0  0  0  0
   -1.3463    5.4966    2.2163 C   0  0  0  0  0  0  0  0  0  0  0  0
   -0.4980    5.6639    3.2912 N   0  0  0  0  0  0  0  0  0  0  0  0
    0.1671    6.8558    3.1029 C   0  0  0  0  0  0  0  0  0  0  0  0
    0.9830    6.7784    1.8232 C   0  0  0  0  0  0  0  0  0  0  0  0
   -4.6998   12.7900    1.8551 C   0  0  0  0  0  0  0  0  0  0  0  0
   -5.3231   11.5738   -1.5188 C   0  0  0  0  0  0  0  0  0  0  0  0
  1 14  1  0  0  0  0
  1  2  2  0  0  0  0
  3  2  1  0  0  0  0
  3  8  2  0  0  0  0
  4  3  1  0  0  0  0
  5  7  2  0  0  0  0
  5  4  1  0  0  0  0
  6  5  1  0  0  0  0
  7  1  1  0  0  0  0
  9 10  1  0  0  0  0
  9  8  1  0  0  0  0
 11  9  2  0  0  0  0
 12 11  1  0  0  0  0
 13  4  2  0  0  0  0
 13 11  1  0  0  0  0
 14 15  1  0  0  0  0
 16 15  1  0  0  0  0
 17 16  1  0  0  0  0
 18 17  1  0  0  0  0
 18 19  1  0  0  0  0
 19 14  1  0  0  0  0
 20 10  1  0  0  0  0
 21 12  1  0  0  0  0
M  END
>  <CHROM.1>
79.91136985,-130.59139189,-104.26210688,-1.87371982,9.06921757,0.49946964
-0.45392661,0.91974960,-1.33246573

>  <Name>
lig.pdb

>  <RI>
4.07847e+07

>  <Rbt.Current_Directory>
/home/itssahil/PROJECTS/Mol_Feturizer/New_Systems/rnas/2lwk

>  <Rbt.Executable>
rbdock ($Id: //depot/dev/client3/rdock/2013.1/src/exe/rbdock.cxx#4 $)

>  <Rbt.Library>
libRbt.so (2013.1, Build901 2013/11/27)

>  <Rbt.Parameter_File>
/export/apps/rDock/src/rDock_2013.1_src/data/scripts/dock_solv.prm

>  <Rbt.Receptor>
prm/blind_docking_20.prm

>  <SCORE>
-18.1639

>  <SCORE.INTER>
-16.1968

>  <SCORE.INTER.CONST>
1

>  <SCORE.INTER.POLAR>
-1.62793

>  <SCORE.INTER.ROT>
3

>  <SCORE.INTER.SOLV>
14.8168

>  <SCORE.INTER.VDW>
-15.9104

>  <SCORE.INTER.norm>
-0.771277

>  <SCORE.INTRA>
-4.18219

>  <SCORE.INTRA.DIHEDRAL>
-0.350284

>  <SCORE.INTRA.DIHEDRAL.0>
8.84257

>  <SCORE.INTRA.POLAR>
0

>  <SCORE.INTRA.POLAR.0>
0

>  <SCORE.INTRA.REPUL>
0

>  <SCORE.INTRA.REPUL.0>
0

>  <SCORE.INTRA.SOLV>
0.113942

>  <SCORE.INTRA.SOLV.lig_0>
-17.1313

>  <SCORE.INTRA.VDW>
-4.06402

>  <SCORE.INTRA.VDW.0>
6.34071

>  <SCORE.INTRA.norm>
-0.199152

>  <SCORE.RESTR>
2.21514

>  <SCORE.RESTR.CAVITY>
2.21514

>  <SCORE.RESTR.norm>
0.105483

>  <SCORE.SYSTEM>
0

>  <SCORE.SYSTEM.CONST>
0

>  <SCORE.SYSTEM.DIHEDRAL>
0

>  <SCORE.SYSTEM.SOLV>
0

>  <SCORE.SYSTEM.norm>
0

>  <SCORE.heavy>
21

>  <SCORE.norm>
-0.864947

>  <RMSD>
12.849

$$$$
lig.pdb
 OpenBabel11021811453D
libRbt.so/2013.1/901 2013/11/27
 21 23  0  0  0  0  0  0  0  0999 V2000
   -2.5348   10.0962   -2.6479 C   0  0  0  0  0  0  0  0  0  0  0  0
   -2.7568   10.2709   -1.3500 N   0  0  0  0  0  0  0  0  0  0  0  0
   -2.1812    9.4731   -0.4685 C   0  0  0  0  0  0  0  0  0  0  0  0
   -1.4245    8.4400   -0.8907 C   0  0  0  0  0  0  0  0  0  0  0  0
   -1.1999    8.2693   -2.2004 C   0  0  0  0  0  0  0  0  0  0  0  0
   -0.4577    7.2481   -2.6269 N   0  0  0  0  0  0  0  0  0  0  0  0
   -1.7597    9.0986   -3.0751 N   0  0  0  0  0  0  0  0  0  0  0  0
   -2.3922    9.6709    0.8435 C   0  0  0  0  0  0  0  0  0  0  0  0
   -1.9417    8.7388    1.7382 C   0  0  0  0  0  0  0  0  0  0  0  0
   -2.7760    8.4247    2.8374 O   0  0  0  0  0  0  0  0  0  0  0  0
   -1.0376    7.8373    1.3207 C   0  0  0  0  0  0  0  0  0  0  0  0
   -0.2119    7.1770    2.2696 O   0  0  0  0  0  0  0  0  0  0  0  0
   -0.8583    7.6175    0.0035 C   0  0  0  0  0  0  0  0  0  0  0  0
   -3.1030   10.9106   -3.5203 N   0  0  0  0  0  0  0  0  0  0  0  0
   -4.4391   10.9437   -3.5208 C   0  0  0  0  0  0  0  0  0  0  0  0
   -4.9904    9.7429   -4.2745 C   0  0  0  0  0  0  0  0  0  0  0  0
   -4.5530    9.7762   -5.5824 N   0  0  0  0  0  0  0  0  0  0  0  0
   -3.1776    9.6995   -5.5536 C   0  0  0  0  0  0  0  0  0  0  0  0
   -2.6236   10.9004   -4.8052 C   0  0  0  0  0  0  0  0  0  0  0  0
   -3.7934    7.5696    2.3825 C   0  0  0  0  0  0  0  0  0  0  0  0
   -0.6919    5.8707    2.4529 C   0  0  0  0  0  0  0  0  0  0  0  0
  1 14  1  0  0  0  0
  1  2  2  0  0  0  0
  3  2  1  0  0  0  0
  3  8  2  0  0  0  0
  4  3  1  0  0  0  0
  5  7  2  0  0  0  0
  5  4  1  0  0  0  0
  6  5  1  0  0  0  0
  7  1  1  0  0  0  0
  9 10  1  0  0  0  0
  9  8  1  0  0  0  0
 11  9  2  0  0  0  0
 12 11  1  0  0  0  0
 13  4  2  0  0  0  0
 13 11  1  0  0  0  0
 14 15  1  0  0  0  0
 16 15  1  0  0  0  0
 17 16  1  0  0  0  0
 18 17  1  0  0  0  0
 18 19  1  0  0  0  0
 19 14  1  0  0  0  0
 20 10  1  0  0  0  0
 21 12  1  0  0  0  0
M  END
>  <CHROM.1>
-60.05537501,77.66007297,103.69108528,-2.34131111,8.90884262,-1.26217683
1.92312728,0.61963850,-1.39563329

>  <Name>
lig.pdb

>  <RI>
1.99026e+07

>  <Rbt.Current_Directory>
/home/itssahil/PROJECTS/Mol_Feturizer/New_Systems/rnas/2lwk

>  <Rbt.Executable>
rbdock ($Id: //depot/dev/client3/rdock/2013.1/src/exe/rbdock.cxx#4 $)

>  <Rbt.Library>
libRbt.so (2013.1, Build901 2013/11/27)

>  <Rbt.Parameter_File>
/export/apps/rDock/src/rDock_2013.1_src/data/scripts/dock_solv.prm

>  <Rbt.Receptor>
prm/blind_docking_60.prm

>  <SCORE>
-19.4339

>  <SCORE.INTER>
-19.2996

>  <SCORE.INTER.CONST>
1

>  <SCORE.INTER.POLAR>
-2.24189

>  <SCORE.INTER.ROT>
3

>  <SCORE.INTER.SOLV>
14.5468

>  <SCORE.INTER.VDW>
-15.8424

>  <SCORE.INTER.norm>
-0.919028

>  <SCORE.INTRA>
-2.83343

>  <SCORE.INTRA.DIHEDRAL>
0.823106

>  <SCORE.INTRA.DIHEDRAL.0>
8.84257

>  <SCORE.INTRA.POLAR>
0

>  <SCORE.INTRA.POLAR.0>
0

>  <SCORE.INTRA.REPUL>
0

>  <SCORE.INTRA.REPUL.0>
0

>  <SCORE.INTRA.SOLV>
0.0286565

>  <SCORE.INTRA.SOLV.lig_0>
-17.1313

>  <SCORE.INTRA.VDW>
-3.25931

>  <SCORE.INTRA.VDW.0>
6.34071

>  <SCORE.INTRA.norm>
-0.134925

>  <SCORE.RESTR>
2.69914

>  <SCORE.RESTR.CAVITY>
2.69914

>  <SCORE.RESTR.norm>
0.12853

>  <SCORE.SYSTEM>
0

>  <SCORE.SYSTEM.CONST>
0

>  <SCORE.SYSTEM.DIHEDRAL>
0

>  <SCORE.SYSTEM.SOLV>
0

>  <SCORE.SYSTEM.norm>
0

>  <SCORE.heavy>
21

>  <SCORE.norm>
-0.925423

>  <RMSD>
12.854

$$$$
lig.pdb
 OpenBabel11021811453D
libRbt.so/2013.1/901 2013/11/27
 21 23  0  0  0  0  0  0  0  0999 V2000
   -1.5019    7.9989    1.8967 C   0  0  0  0  0  0  0  0  0  0  0  0
   -2.3108    8.9629    2.3220 N   0  0  0  0  0  0  0  0  0  0  0  0
   -2.7113    9.9049    1.4871 C   0  0  0  0  0  0  0  0  0  0  0  0
   -2.2432    9.9255    0.2227 C   0  0  0  0  0  0  0  0  0  0  0  0
   -1.4304    8.9495   -0.2036 C   0  0  0  0  0  0  0  0  0  0  0  0
   -0.9590    8.9646   -1.4498 N   0  0  0  0  0  0  0  0  0  0  0  0
   -1.0605    7.9899    0.6382 N   0  0  0  0  0  0  0  0  0  0  0  0
   -3.5480   10.8631    1.9189 C   0  0  0  0  0  0  0  0  0  0  0  0
   -3.8149   11.9302    1.1050 C   0  0  0  0  0  0  0  0  0  0  0  0
   -3.9003   13.2096    1.7040 O   0  0  0  0  0  0  0  0  0  0  0  0
   -3.5017   11.8340   -0.1977 C   0  0  0  0  0  0  0  0  0  0  0  0
   -4.1534   12.6716   -1.1421 O   0  0  0  0  0  0  0  0  0  0  0  0
   -2.6326   10.8941   -0.6180 C   0  0  0  0  0  0  0  0  0  0  0  0
   -1.1206    7.0521    2.7366 N   0  0  0  0  0  0  0  0  0  0  0  0
    0.1924    6.9532    2.9654 C   0  0  0  0  0  0  0  0  0  0  0  0
    0.8675    6.2156    1.8190 C   0  0  0  0  0  0  0  0  0  0  0  0
    0.3458    4.9427    1.7160 N   0  0  0  0  0  0  0  0  0  0  0  0
   -0.9976    5.0748    1.4400 C   0  0  0  0  0  0  0  0  0  0  0  0
   -1.6757    5.8072    2.5858 C   0  0  0  0  0  0  0  0  0  0  0  0
   -5.2023   13.6980    1.5059 C   0  0  0  0  0  0  0  0  0  0  0  0
   -5.1230   11.9166   -1.8205 C   0  0  0  0  0  0  0  0  0  0  0  0
  1 14  1  0  0  0  0
  1  2  2  0  0  0  0
  3  2  1  0  0  0  0
  3  8  2  0  0  0  0
  4  3  1  0  0  0  0
  5  7  2  0  0  0  0
  5  4  1  0  0  0  0
  6  5  1  0  0  0  0
  7  1  1  0  0  0  0
  9 10  1  0  0  0  0
  9  8  1  0  0  0  0
 11  9  2  0  0  0  0
 12 11  1  0  0  0  0
 13  4  2  0  0  0  0
 13 11  1  0  0  0  0
 14 15  1  0  0  0  0
 16 15  1  0  0  0  0
 17 16  1  0  0  0  0
 18 17  1  0  0  0  0
 18 19  1  0  0  0  0
 19 14  1  0  0  0  0
 20 10  1  0  0  0  0
 21 12  1  0  0  0  0
M  END
>  <CHROM.1>
-119.01530435,-117.72581734,-103.14037870,-2.21969959,9.33295923,0.96289970
0.38041658,-0.99508058,1.74324690

>  <Name>
lig.pdb

>  <RI>
1.05666e+07

>  <Rbt.Current_Directory>
/home/itssahil/PROJECTS/Mol_Feturizer/New_Systems/rnas/2lwk

>  <Rbt.Executable>
rbdock ($Id: //depot/dev/client3/rdock/2013.1/src/exe/rbdock.cxx#4 $)

>  <Rbt.Library>
libRbt.so (2013.1, Build901 2013/11/27)

>  <Rbt.Parameter_File>
/export/apps/rDock/src/rDock_2013.1_src/data/scripts/dock_solv.prm

>  <Rbt.Receptor>
prm/blind_docking_80.prm

>  <SCORE>
-18.8239

>  <SCORE.INTER>
-17.0473

>  <SCORE.INTER.CONST>
1

>  <SCORE.INTER.POLAR>
-0.965137

>  <SCORE.INTER.ROT>
3

>  <SCORE.INTER.SOLV>
12.0856

>  <SCORE.INTER.VDW>
-17.7762

>  <SCORE.INTER.norm>
-0.811775

>  <SCORE.INTRA>
-4.98507

>  <SCORE.INTRA.DIHEDRAL>
0.375642

>  <SCORE.INTRA.DIHEDRAL.0>
8.84257

>  <SCORE.INTRA.POLAR>
0

>  <SCORE.INTRA.POLAR.0>
0

>  <SCORE.INTRA.REPUL>
0

>  <SCORE.INTRA.REPUL.0>
0

>  <SCORE.INTRA.SOLV>
0.095941

>  <SCORE.INTRA.SOLV.lig_0>
-17.1313

>  <SCORE.INTRA.VDW>
-5.22086

>  <SCORE.INTRA.VDW.0>
6.34071

>  <SCORE.INTRA.norm>
-0.237384

>  <SCORE.RESTR>
3.20846

>  <SCORE.RESTR.CAVITY>
3.20846

>  <SCORE.RESTR.norm>
0.152784

>  <SCORE.SYSTEM>
0

>  <SCORE.SYSTEM.CONST>
0

>  <SCORE.SYSTEM.DIHEDRAL>
0

>  <SCORE.SYSTEM.SOLV>
0

>  <SCORE.SYSTEM.norm>
0

>  <SCORE.heavy>
21

>  <SCORE.norm>
-0.896375

>  <RMSD>
12.856

$$$$
lig.pdb
 OpenBabel11021811453D
libRbt.so/2013.1/901 2013/11/27
 21 23  0  0  0  0  0  0  0  0999 V2000
   -1.4744    7.9982    1.9270 C   0  0  0  0  0  0  0  0  0  0  0  0
   -2.2937    8.9566    2.3446 N   0  0  0  0  0  0  0  0  0  0  0  0
   -2.6865    9.9004    1.5081 C   0  0  0  0  0  0  0  0  0  0  0  0
   -2.2003    9.9287    0.2507 C   0  0  0  0  0  0  0  0  0  0  0  0
   -1.3770    8.9582   -0.1680 C   0  0  0  0  0  0  0  0  0  0  0  0
   -0.8877    8.9810   -1.4072 N   0  0  0  0  0  0  0  0  0  0  0  0
   -1.0149    7.9967    0.6749 N   0  0  0  0  0  0  0  0  0  0  0  0
   -3.5337   10.8529    1.9319 C   0  0  0  0  0  0  0  0  0  0  0  0
   -3.7939   11.9223    1.1189 C   0  0  0  0  0  0  0  0  0  0  0  0
   -3.8938   13.1987    1.7221 O   0  0  0  0  0  0  0  0  0  0  0  0
   -3.4615   11.8333   -0.1795 C   0  0  0  0  0  0  0  0  0  0  0  0
   -4.1033   12.6720   -1.1297 O   0  0  0  0  0  0  0  0  0  0  0  0
   -2.5821   10.8991   -0.5913 C   0  0  0  0  0  0  0  0  0  0  0  0
   -1.1008    7.0495    2.7682 N   0  0  0  0  0  0  0  0  0  0  0  0
    0.2126    6.9293    2.9843 C   0  0  0  0  0  0  0  0  0  0  0  0
    0.8634    6.1742    1.8353 C   0  0  0  0  0  0  0  0  0  0  0  0
    0.3191    4.9099    1.7445 N   0  0  0  0  0  0  0  0  0  0  0  0
   -1.0246    5.0634    1.4812 C   0  0  0  0  0  0  0  0  0  0  0  0
   -1.6786    5.8134    2.6297 C   0  0  0  0  0  0  0  0  0  0  0  0
   -5.1940   13.6835    1.5042 C   0  0  0  0  0  0  0  0  0  0  0  0
   -5.0824   11.9241   -1.8022 C   0  0  0  0  0  0  0  0  0  0  0  0
  1 14  1  0  0  0  0
  1  2  2  0  0  0  0
  3  2  1  0  0  0  0
  3  8  2  0  0  0  0
  4  3  1  0  0  0  0
  5  7  2  0  0  0  0
  5  4  1  0  0  0  0
  6  5  1  0  0  0  0
  7  1  1  0  0  0  0
  9 10  1  0  0  0  0
  9  8  1  0  0  0  0
 11  9  2  0  0  0  0
 12 11  1  0  0  0  0
 13  4  2  0  0  0  0
 13 11  1  0  0  0  0
 14 15  1  0  0  0  0
 16 15  1  0  0  0  0
 17 16  1  0  0  0  0
 18 17  1  0  0  0  0
 18 19  1  0  0  0  0
 19 14  1  0  0  0  0
 20 10  1  0  0  0  0
 21 12  1  0  0  0  0
M  END
>  <CHROM.1>
-120.96836936,-117.88201206,-101.69669645,-2.19650602,9.32739839,0.98743901
0.41360860,-0.99056370,1.77959200

>  <Name>
lig.pdb

>  <RI>
2.05709e+07

>  <Rbt.Current_Directory>
/home/itssahil/PROJECTS/Mol_Feturizer/New_Systems/rnas/2lwk

>  <Rbt.Executable>
rbdock ($Id: //depot/dev/client3/rdock/2013.1/src/exe/rbdock.cxx#4 $)

>  <Rbt.Library>
libRbt.so (2013.1, Build901 2013/11/27)

>  <Rbt.Parameter_File>
/export/apps/rDock/src/rDock_2013.1_src/data/scripts/dock_solv.prm

>  <Rbt.Receptor>
prm/blind_docking_40.prm

>  <SCORE>
-18.7488

>  <SCORE.INTER>
-16.9747

>  <SCORE.INTER.CONST>
1

>  <SCORE.INTER.POLAR>
-0.948405

>  <SCORE.INTER.ROT>
3

>  <SCORE.INTER.SOLV>
12.2455

>  <SCORE.INTER.VDW>
-17.837

>  <SCORE.INTER.norm>
-0.808321

>  <SCORE.INTRA>
-4.96244

>  <SCORE.INTRA.DIHEDRAL>
0.4266

>  <SCORE.INTRA.DIHEDRAL.0>
8.84257

>  <SCORE.INTRA.POLAR>
0

>  <SCORE.INTRA.POLAR.0>
0

>  <SCORE.INTRA.REPUL>
0

>  <SCORE.INTRA.REPUL.0>
0

>  <SCORE.INTRA.SOLV>
0.0977322

>  <SCORE.INTRA.SOLV.lig_0>
-17.1313

>  <SCORE.INTRA.VDW>
-5.22461

>  <SCORE.INTRA.VDW.0>
6.34071

>  <SCORE.INTRA.norm>
-0.236307

>  <SCORE.RESTR>
3.18842

>  <SCORE.RESTR.CAVITY>
3.18842

>  <SCORE.RESTR.norm>
0.15183

>  <SCORE.SYSTEM>
0

>  <SCORE.SYSTEM.CONST>
0

>  <SCORE.SYSTEM.DIHEDRAL>
0

>  <SCORE.SYSTEM.SOLV>
0

>  <SCORE.SYSTEM.norm>
0

>  <SCORE.heavy>
21

>  <SCORE.norm>
-0.892798

>  <RMSD>
12.860

$$$$
lig.pdb
 OpenBabel11021811453D
libRbt.so/2013.1/901 2013/11/27
 21 23  0  0  0  0  0  0  0  0999 V2000
   -1.5064    8.0011    1.8932 C   0  0  0  0  0  0  0  0  0  0  0  0
   -2.3134    8.9668    2.3180 N   0  0  0  0  0  0  0  0  0  0  0  0
   -2.7110    9.9100    1.4830 C   0  0  0  0  0  0  0  0  0  0  0  0
   -2.2418    9.9299    0.2191 C   0  0  0  0  0  0  0  0  0  0  0  0
   -1.4309    8.9521   -0.2068 C   0  0  0  0  0  0  0  0  0  0  0  0
   -0.9583    8.9665   -1.4526 N   0  0  0  0  0  0  0  0  0  0  0  0
   -1.0639    7.9915    0.6351 N   0  0  0  0  0  0  0  0  0  0  0  0
   -3.5459   10.8700    1.9143 C   0  0  0  0  0  0  0  0  0  0  0  0
   -3.8098   11.9379    1.1005 C   0  0  0  0  0  0  0  0  0  0  0  0
   -3.8927   13.2173    1.6998 O   0  0  0  0  0  0  0  0  0  0  0  0
   -3.4956   11.8414   -0.2019 C   0  0  0  0  0  0  0  0  0  0  0  0
   -4.1445   12.6807   -1.1467 O   0  0  0  0  0  0  0  0  0  0  0  0
   -2.6283   10.8996   -0.6217 C   0  0  0  0  0  0  0  0  0  0  0  0
   -1.1280    7.0532    2.7331 N   0  0  0  0  0  0  0  0  0  0  0  0
    0.1842    6.9546    2.9669 C   0  0  0  0  0  0  0  0  0  0  0  0
    0.8642    6.2191    1.8221 C   0  0  0  0  0  0  0  0  0  0  0  0
    0.3435    4.9461    1.7151 N   0  0  0  0  0  0  0  0  0  0  0  0
   -0.9989    5.0779    1.4339 C   0  0  0  0  0  0  0  0  0  0  0  0
   -1.6819    5.8082    2.5782 C   0  0  0  0  0  0  0  0  0  0  0  0
   -5.1900   13.7137    1.4905 C   0  0  0  0  0  0  0  0  0  0  0  0
   -5.1426   11.9389   -1.7978 C   0  0  0  0  0  0  0  0  0  0  0  0
  1 14  1  0  0  0  0
  1  2  2  0  0  0  0
  3  2  1  0  0  0  0
  3  8  2  0  0  0  0
  4  3  1  0  0  0  0
  5  7  2  0  0  0  0
  5  4  1  0  0  0  0
  6  5  1  0  0  0  0
  7  1  1  0  0  0  0
  9 10  1  0  0  0  0
  9  8  1  0  0  0  0
 11  9  2  0  0  0  0
 12 11  1  0  0  0  0
 13  4  2  0  0  0  0
 13 11  1  0  0  0  0
 14 15  1  0  0  0  0
 16 15  1  0  0  0  0
 17 16  1  0  0  0  0
 18 17  1  0  0  0  0
 18 19  1  0  0  0  0
 19 14  1  0  0  0  0
 20 10  1  0  0  0  0
 21 12  1  0  0  0  0
M  END
>  <CHROM.1>
-118.76744405,-118.23688151,-101.38009799,-2.22022036,9.33867011,0.96031077
0.38175479,-0.99626158,1.74479723

>  <Name>
lig.pdb

>  <RI>
1.05666e+07

>  <Rbt.Current_Directory>
/home/itssahil/PROJECTS/Mol_Feturizer/New_Systems/rnas/2lwk

>  <Rbt.Executable>
rbdock ($Id: //depot/dev/client3/rdock/2013.1/src/exe/rbdock.cxx#4 $)

>  <Rbt.Library>
libRbt.so (2013.1, Build901 2013/11/27)

>  <Rbt.Parameter_File>
/export/apps/rDock/src/rDock_2013.1_src/data/scripts/dock_solv.prm

>  <Rbt.Receptor>
prm/blind_docking_80.prm

>  <SCORE>
-18.8448

>  <SCORE.INTER>
-17.0393

>  <SCORE.INTER.CONST>
1

>  <SCORE.INTER.POLAR>
-0.969757

>  <SCORE.INTER.ROT>
3

>  <SCORE.INTER.SOLV>
12.0854

>  <SCORE.INTER.VDW>
-17.7555

>  <SCORE.INTER.norm>
-0.811394

>  <SCORE.INTRA>
-5.01927

>  <SCORE.INTRA.DIHEDRAL>
0.425464

>  <SCORE.INTRA.DIHEDRAL.0>
8.84257

>  <SCORE.INTRA.POLAR>
0

>  <SCORE.INTRA.POLAR.0>
0

>  <SCORE.INTRA.REPUL>
0

>  <SCORE.INTRA.REPUL.0>
0

>  <SCORE.INTRA.SOLV>
0.0971113

>  <SCORE.INTRA.SOLV.lig_0>
-17.1313

>  <SCORE.INTRA.VDW>
-5.28055

>  <SCORE.INTRA.VDW.0>
6.34071

>  <SCORE.INTRA.norm>
-0.239013

>  <SCORE.RESTR>
3.2137

>  <SCORE.RESTR.CAVITY>
3.2137

>  <SCORE.RESTR.norm>
0.153033

>  <SCORE.SYSTEM>
0

>  <SCORE.SYSTEM.CONST>
0

>  <SCORE.SYSTEM.DIHEDRAL>
0

>  <SCORE.SYSTEM.SOLV>
0

>  <SCORE.SYSTEM.norm>
0

>  <SCORE.heavy>
21

>  <SCORE.norm>
-0.897374

>  <RMSD>
12.862

$$$$
lig.pdb
 OpenBabel11021811453D
libRbt.so/2013.1/901 2013/11/27
 21 23  0  0  0  0  0  0  0  0999 V2000
   -1.5143    8.0020    1.8911 C   0  0  0  0  0  0  0  0  0  0  0  0
   -2.3219    8.9663    2.3180 N   0  0  0  0  0  0  0  0  0  0  0  0
   -2.7179    9.9125    1.4857 C   0  0  0  0  0  0  0  0  0  0  0  0
   -2.2464    9.9369    0.2227 C   0  0  0  0  0  0  0  0  0  0  0  0
   -1.4349    8.9606   -0.2053 C   0  0  0  0  0  0  0  0  0  0  0  0
   -0.9601    8.9794   -1.4502 N   0  0  0  0  0  0  0  0  0  0  0  0
   -1.0695    7.9968    0.6338 N   0  0  0  0  0  0  0  0  0  0  0  0
   -3.5535   10.8710    1.9190 C   0  0  0  0  0  0  0  0  0  0  0  0
   -3.8157   11.9419    1.1085 C   0  0  0  0  0  0  0  0  0  0  0  0
   -3.8996   13.2192    1.7123 O   0  0  0  0  0  0  0  0  0  0  0  0
   -3.4993   11.8501   -0.1936 C   0  0  0  0  0  0  0  0  0  0  0  0
   -4.1464   12.6929   -1.1365 O   0  0  0  0  0  0  0  0  0  0  0  0
   -2.6313   10.9096   -0.6153 C   0  0  0  0  0  0  0  0  0  0  0  0
   -1.1374    7.0511    2.7283 N   0  0  0  0  0  0  0  0  0  0  0  0
    0.1741    6.9531    2.9661 C   0  0  0  0  0  0  0  0  0  0  0  0
    0.8589    6.2233    1.8205 C   0  0  0  0  0  0  0  0  0  0  0  0
    0.3402    4.9501    1.7064 N   0  0  0  0  0  0  0  0  0  0  0  0
   -1.0014    5.0814    1.4212 C   0  0  0  0  0  0  0  0  0  0  0  0
   -1.6892    5.8060    2.5662 C   0  0  0  0  0  0  0  0  0  0  0  0
   -5.1880   13.7280    1.4793 C   0  0  0  0  0  0  0  0  0  0  0  0
   -5.1220   11.9451   -1.8142 C   0  0  0  0  0  0  0  0  0  0  0  0
  1 14  1  0  0  0  0
  1  2  2  0  0  0  0
  3  2  1  0  0  0  0
  3  8  2  0  0  0  0
  4  3  1  0  0  0  0
  5  7  2  0  0  0  0
  5  4  1  0  0  0  0
  6  5  1  0  0  0  0
  7  1  1  0  0  0  0
  9 10  1  0  0  0  0
  9  8  1  0  0  0  0
 11  9  2  0  0  0  0
 12 11  1  0  0  0  0
 13  4  2  0  0  0  0
 13 11  1  0  0  0  0
 14 15  1  0  0  0  0
 16 15  1  0  0  0  0
 17 16  1  0  0  0  0
 18 17  1  0  0  0  0
 18 19  1  0  0  0  0
 19 14  1  0  0  0  0
 20 10  1  0  0  0  0
 21 12  1  0  0  0  0
M  END
>  <CHROM.1>
-118.64034103,-119.40399484,-102.75552757,-2.22400595,9.34356628,0.95960996
0.38347338,-0.99706528,1.74793461

>  <Name>
lig.pdb

>  <RI>
1.99026e+07

>  <Rbt.Current_Directory>
/home/itssahil/PROJECTS/Mol_Feturizer/New_Systems/rnas/2lwk

>  <Rbt.Executable>
rbdock ($Id: //depot/dev/client3/rdock/2013.1/src/exe/rbdock.cxx#4 $)

>  <Rbt.Library>
libRbt.so (2013.1, Build901 2013/11/27)

>  <Rbt.Parameter_File>
/export/apps/rDock/src/rDock_2013.1_src/data/scripts/dock_solv.prm

>  <Rbt.Receptor>
prm/blind_docking_60.prm

>  <SCORE>
-18.8221

>  <SCORE.INTER>
-17.0795

>  <SCORE.INTER.CONST>
1

>  <SCORE.INTER.POLAR>
-0.969608

>  <SCORE.INTER.ROT>
3

>  <SCORE.INTER.SOLV>
12.0614

>  <SCORE.INTER.VDW>
-17.7748

>  <SCORE.INTER.norm>
-0.813309

>  <SCORE.INTRA>
-4.95037

>  <SCORE.INTRA.DIHEDRAL>
0.322683

>  <SCORE.INTRA.DIHEDRAL.0>
8.84257

>  <SCORE.INTRA.POLAR>
0

>  <SCORE.INTRA.POLAR.0>
0

>  <SCORE.INTRA.REPUL>
0

>  <SCORE.INTRA.REPUL.0>
0

>  <SCORE.INTRA.SOLV>
0.0975948

>  <SCORE.INTRA.SOLV.lig_0>
-17.1313

>  <SCORE.INTRA.VDW>
-5.16051

>  <SCORE.INTRA.VDW.0>
6.34071

>  <SCORE.INTRA.norm>
-0.235732

>  <SCORE.RESTR>
3.20777

>  <SCORE.RESTR.CAVITY>
3.20777

>  <SCORE.RESTR.norm>
0.152751

>  <SCORE.SYSTEM>
0

>  <SCORE.SYSTEM.CONST>
0

>  <SCORE.SYSTEM.DIHEDRAL>
0

>  <SCORE.SYSTEM.SOLV>
0

>  <SCORE.SYSTEM.norm>
0

>  <SCORE.heavy>
21

>  <SCORE.norm>
-0.89629

>  <RMSD>
12.866

$$$$
lig.pdb
 OpenBabel11021811453D
libRbt.so/2013.1/901 2013/11/27
 21 23  0  0  0  0  0  0  0  0999 V2000
   -1.9061    7.4145    0.5845 C   0  0  0  0  0  0  0  0  0  0  0  0
   -2.6824    8.4291    0.9482 N   0  0  0  0  0  0  0  0  0  0  0  0
   -2.8657    9.4475    0.1272 C   0  0  0  0  0  0  0  0  0  0  0  0
   -2.2094    9.4880   -1.0501 C   0  0  0  0  0  0  0  0  0  0  0  0
   -1.4302    8.4611   -1.4150 C   0  0  0  0  0  0  0  0  0  0  0  0
   -0.7739    8.4950   -2.5742 N   0  0  0  0  0  0  0  0  0  0  0  0
   -1.2796    7.4279   -0.5928 N   0  0  0  0  0  0  0  0  0  0  0  0
   -3.6709   10.4587    0.4928 C   0  0  0  0  0  0  0  0  0  0  0  0
   -3.7150   11.5873   -0.2796 C   0  0  0  0  0  0  0  0  0  0  0  0
   -3.7780   12.8363    0.3833 O   0  0  0  0  0  0  0  0  0  0  0  0
   -3.2156   11.5289   -1.5251 C   0  0  0  0  0  0  0  0  0  0  0  0
   -3.6385   12.4735   -2.4982 O   0  0  0  0  0  0  0  0  0  0  0  0
   -2.3786   10.5320   -1.8735 C   0  0  0  0  0  0  0  0  0  0  0  0
   -1.7428    6.3929    1.4073 N   0  0  0  0  0  0  0  0  0  0  0  0
   -1.4402    6.6919    2.6743 C   0  0  0  0  0  0  0  0  0  0  0  0
    0.0383    7.0297    2.7918 C   0  0  0  0  0  0  0  0  0  0  0  0
    0.7941    5.9413    2.4082 N   0  0  0  0  0  0  0  0  0  0  0  0
    0.4930    5.6814    1.0890 C   0  0  0  0  0  0  0  0  0  0  0  0
   -0.9826    5.3389    0.9692 C   0  0  0  0  0  0  0  0  0  0  0  0
   -5.1245   13.2323    0.4402 C   0  0  0  0  0  0  0  0  0  0  0  0
   -4.3492   11.7982   -3.5028 C   0  0  0  0  0  0  0  0  0  0  0  0
  1 14  1  0  0  0  0
  1  2  2  0  0  0  0
  3  2  1  0  0  0  0
  3  8  2  0  0  0  0
  4  3  1  0  0  0  0
  5  7  2  0  0  0  0
  5  4  1  0  0  0  0
  6  5  1  0  0  0  0
  7  1  1  0  0  0  0
  9 10  1  0  0  0  0
  9  8  1  0  0  0  0
 11  9  2  0  0  0  0
 12 11  1  0  0  0  0
 13  4  2  0  0  0  0
 13 11  1  0  0  0  0
 14 15  1  0  0  0  0
 16 15  1  0  0  0  0
 17 16  1  0  0  0  0
 18 17  1  0  0  0  0
 18 19  1  0  0  0  0
 19 14  1  0  0  0  0
 20 10  1  0  0  0  0
 21 12  1  0  0  0  0
M  END
>  <CHROM.1>
-48.43537376,-96.56515528,-114.20738433,-2.17899635,9.10203763,-0.05424382
0.59020195,-0.97098192,1.79180891

>  <Name>
lig.pdb

>  <RI>
3.07369e+07

>  <Rbt.Current_Directory>
/home/itssahil/PROJECTS/Mol_Feturizer/New_Systems/rnas/2lwk

>  <Rbt.Executable>
rbdock ($Id: //depot/dev/client3/rdock/2013.1/src/exe/rbdock.cxx#4 $)

>  <Rbt.Library>
libRbt.so (2013.1, Build901 2013/11/27)

>  <Rbt.Parameter_File>
/export/apps/rDock/src/rDock_2013.1_src/data/scripts/dock_solv.prm

>  <Rbt.Receptor>
prm/blind_docking_100.prm

>  <SCORE>
-15.6106

>  <SCORE.INTER>
-14.8621

>  <SCORE.INTER.CONST>
1

>  <SCORE.INTER.POLAR>
-2.12966

>  <SCORE.INTER.ROT>
3

>  <SCORE.INTER.SOLV>
11.8665

>  <SCORE.INTER.VDW>
-12.3647

>  <SCORE.INTER.norm>
-0.707721

>  <SCORE.INTRA>
-3.15394

>  <SCORE.INTRA.DIHEDRAL>
0.0407614

>  <SCORE.INTRA.DIHEDRAL.0>
8.84257

>  <SCORE.INTRA.POLAR>
0

>  <SCORE.INTRA.POLAR.0>
0

>  <SCORE.INTRA.REPUL>
0

>  <SCORE.INTRA.REPUL.0>
0

>  <SCORE.INTRA.SOLV>
-0.0171889

>  <SCORE.INTRA.SOLV.lig_0>
-17.1313

>  <SCORE.INTRA.VDW>
-3.16572

>  <SCORE.INTRA.VDW.0>
6.34071

>  <SCORE.INTRA.norm>
-0.150187

>  <SCORE.RESTR>
2.40551

>  <SCORE.RESTR.CAVITY>
2.40551

>  <SCORE.RESTR.norm>
0.114548

>  <SCORE.SYSTEM>
0

>  <SCORE.SYSTEM.CONST>
0

>  <SCORE.SYSTEM.DIHEDRAL>
0

>  <SCORE.SYSTEM.SOLV>
0

>  <SCORE.SYSTEM.norm>
0

>  <SCORE.heavy>
21

>  <SCORE.norm>
-0.743361

>  <RMSD>
12.915

$$$$
lig.pdb
 OpenBabel11021811453D
libRbt.so/2013.1/901 2013/11/27
 21 23  0  0  0  0  0  0  0  0999 V2000
   -0.9351    7.8796    1.2395 C   0  0  0  0  0  0  0  0  0  0  0  0
   -1.6810    8.9722    1.3591 N   0  0  0  0  0  0  0  0  0  0  0  0
   -2.1283    9.5877    0.2793 C   0  0  0  0  0  0  0  0  0  0  0  0
   -1.7696    9.1459   -0.9431 C   0  0  0  0  0  0  0  0  0  0  0  0
   -1.0202    8.0415   -1.0597 C   0  0  0  0  0  0  0  0  0  0  0  0
   -0.6567    7.6007   -2.2635 N   0  0  0  0  0  0  0  0  0  0  0  0
   -0.6032    7.4135    0.0348 N   0  0  0  0  0  0  0  0  0  0  0  0
   -2.9015   10.6786    0.4090 C   0  0  0  0  0  0  0  0  0  0  0  0
   -3.2110   11.4115   -0.7043 C   0  0  0  0  0  0  0  0  0  0  0  0
   -3.2137   12.8217   -0.5840 O   0  0  0  0  0  0  0  0  0  0  0  0
   -3.0126   10.8552   -1.9107 C   0  0  0  0  0  0  0  0  0  0  0  0
   -3.7220   11.3482   -3.0385 O   0  0  0  0  0  0  0  0  0  0  0  0
   -2.2057    9.7837   -2.0383 C   0  0  0  0  0  0  0  0  0  0  0  0
   -0.5066    7.2624    2.3270 N   0  0  0  0  0  0  0  0  0  0  0  0
    0.7172    6.7289    2.2652 C   0  0  0  0  0  0  0  0  0  0  0  0
    0.6708    5.4015    1.5236 C   0  0  0  0  0  0  0  0  0  0  0  0
   -0.1540    4.5238    2.1962 N   0  0  0  0  0  0  0  0  0  0  0  0
   -1.4150    5.0790    2.2090 C   0  0  0  0  0  0  0  0  0  0  0  0
   -1.3727    6.4031    2.9533 C   0  0  0  0  0  0  0  0  0  0  0  0
   -4.4656   13.2142   -0.0822 C   0  0  0  0  0  0  0  0  0  0  0  0
   -2.9843   11.0580   -4.1969 C   0  0  0  0  0  0  0  0  0  0  0  0
  1 14  1  0  0  0  0
  1  2  2  0  0  0  0
  3  2  1  0  0  0  0
  3  8  2  0  0  0  0
  4  3  1  0  0  0  0
  5  7  2  0  0  0  0
  5  4  1  0  0  0  0
  6  5  1  0  0  0  0
  7  1  1  0  0  0  0
  9 10  1  0  0  0  0
  9  8  1  0  0  0  0
 11  9  2  0  0  0  0
 12 11  1  0  0  0  0
 13  4  2  0  0  0  0
 13 11  1  0  0  0  0
 14 15  1  0  0  0  0
 16 15  1  0  0  0  0
 17 16  1  0  0  0  0
 18 17  1  0  0  0  0
 18 19  1  0  0  0  0
 19 14  1  0  0  0  0
 20 10  1  0  0  0  0
 21 12  1  0  0  0  0
M  END
>  <CHROM.1>
-143.62402205,-84.29053923,154.97558291,-1.74695302,8.82388768,-0.02214850
0.60256794,-1.05700151,1.66269915

>  <Name>
lig.pdb

>  <RI>
1.99026e+07

>  <Rbt.Current_Directory>
/home/itssahil/PROJECTS/Mol_Feturizer/New_Systems/rnas/2lwk

>  <Rbt.Executable>
rbdock ($Id: //depot/dev/client3/rdock/2013.1/src/exe/rbdock.cxx#4 $)

>  <Rbt.Library>
libRbt.so (2013.1, Build901 2013/11/27)

>  <Rbt.Parameter_File>
/export/apps/rDock/src/rDock_2013.1_src/data/scripts/dock_solv.prm

>  <Rbt.Receptor>
prm/blind_docking_60.prm

>  <SCORE>
-18.0927

>  <SCORE.INTER>
-20.1157

>  <SCORE.INTER.CONST>
1

>  <SCORE.INTER.POLAR>
-1.63729

>  <SCORE.INTER.ROT>
3

>  <SCORE.INTER.SOLV>
13.4427

>  <SCORE.INTER.VDW>
-18.0337

>  <SCORE.INTER.norm>
-0.957889

>  <SCORE.INTRA>
-0.202019

>  <SCORE.INTRA.DIHEDRAL>
-3.20929

>  <SCORE.INTRA.DIHEDRAL.0>
8.84257

>  <SCORE.INTRA.POLAR>
0

>  <SCORE.INTRA.POLAR.0>
0

>  <SCORE.INTRA.REPUL>
0

>  <SCORE.INTRA.REPUL.0>
0

>  <SCORE.INTRA.SOLV>
0.0786647

>  <SCORE.INTRA.SOLV.lig_0>
-17.1313

>  <SCORE.INTRA.VDW>
1.3633

>  <SCORE.INTRA.VDW.0>
6.34071

>  <SCORE.INTRA.norm>
-0.00961994

>  <SCORE.RESTR>
2.22497

>  <SCORE.RESTR.CAVITY>
2.22497

>  <SCORE.RESTR.norm>
0.105951

>  <SCORE.SYSTEM>
0

>  <SCORE.SYSTEM.CONST>
0

>  <SCORE.SYSTEM.DIHEDRAL>
0

>  <SCORE.SYSTEM.SOLV>
0

>  <SCORE.SYSTEM.norm>
0

>  <SCORE.heavy>
21

>  <SCORE.norm>
-0.861558

>  <RMSD>
12.917

$$$$
lig.pdb
 OpenBabel11021811453D
libRbt.so/2013.1/901 2013/11/27
 21 23  0  0  0  0  0  0  0  0999 V2000
   -0.4152    7.8906    0.7081 C   0  0  0  0  0  0  0  0  0  0  0  0
   -1.2914    8.7597    1.1991 N   0  0  0  0  0  0  0  0  0  0  0  0
   -1.9080    9.6035    0.3912 C   0  0  0  0  0  0  0  0  0  0  0  0
   -1.5957    9.6278   -0.9202 C   0  0  0  0  0  0  0  0  0  0  0  0
   -0.7141    8.7473   -1.4124 C   0  0  0  0  0  0  0  0  0  0  0  0
   -0.3957    8.7675   -2.7062 N   0  0  0  0  0  0  0  0  0  0  0  0
   -0.1245    7.8824   -0.5935 N   0  0  0  0  0  0  0  0  0  0  0  0
   -2.8102   10.4636    0.8923 C   0  0  0  0  0  0  0  0  0  0  0  0
   -3.3098   11.4494    0.0855 C   0  0  0  0  0  0  0  0  0  0  0  0
   -3.4962   12.7326    0.6528 O   0  0  0  0  0  0  0  0  0  0  0  0
   -3.1387   11.3364   -1.2420 C   0  0  0  0  0  0  0  0  0  0  0  0
   -4.0011   12.0392   -2.1254 O   0  0  0  0  0  0  0  0  0  0  0  0
   -2.2057   10.4991   -1.7360 C   0  0  0  0  0  0  0  0  0  0  0  0
    0.1838    7.0399    1.5234 N   0  0  0  0  0  0  0  0  0  0  0  0
    0.3078    5.7832    1.0857 C   0  0  0  0  0  0  0  0  0  0  0  0
   -1.0057    5.0369    1.2633 C   0  0  0  0  0  0  0  0  0  0  0  0
   -1.3412    5.0015    2.6010 N   0  0  0  0  0  0  0  0  0  0  0  0
   -1.5027    6.3058    3.0146 C   0  0  0  0  0  0  0  0  0  0  0  0
   -0.1905    7.0528    2.8427 C   0  0  0  0  0  0  0  0  0  0  0  0
   -4.7519   12.7530    1.2821 C   0  0  0  0  0  0  0  0  0  0  0  0
   -4.5882   11.1196   -3.0085 C   0  0  0  0  0  0  0  0  0  0  0  0
  1 14  1  0  0  0  0
  1  2  2  0  0  0  0
  3  2  1  0  0  0  0
  3  8  2  0  0  0  0
  4  3  1  0  0  0  0
  5  7  2  0  0  0  0
  5  4  1  0  0  0  0
  6  5  1  0  0  0  0
  7  1  1  0  0  0  0
  9 10  1  0  0  0  0
  9  8  1  0  0  0  0
 11  9  2  0  0  0  0
 12 11  1  0  0  0  0
 13  4  2  0  0  0  0
 13 11  1  0  0  0  0
 14 15  1  0  0  0  0
 16 15  1  0  0  0  0
 17 16  1  0  0  0  0
 18 17  1  0  0  0  0
 18 19  1  0  0  0  0
 19 14  1  0  0  0  0
 20 10  1  0  0  0  0
 21 12  1  0  0  0  0
M  END
>  <CHROM.1>
137.90803422,-85.11382841,-124.38347808,-1.85013571,9.04986698,0.17640868
-0.70250992,0.93430997,-1.21142522

>  <Name>
lig.pdb

>  <RI>
1.05666e+07

>  <Rbt.Current_Directory>
/home/itssahil/PROJECTS/Mol_Feturizer/New_Systems/rnas/2lwk

>  <Rbt.Executable>
rbdock ($Id: //depot/dev/client3/rdock/2013.1/src/exe/rbdock.cxx#4 $)

>  <Rbt.Library>
libRbt.so (2013.1, Build901 2013/11/27)

>  <Rbt.Parameter_File>
/export/apps/rDock/src/rDock_2013.1_src/data/scripts/dock_solv.prm

>  <Rbt.Receptor>
prm/blind_docking_80.prm

>  <SCORE>
-19.8182

>  <SCORE.INTER>
-20.8913

>  <SCORE.INTER.CONST>
1

>  <SCORE.INTER.POLAR>
-1.99649

>  <SCORE.INTER.ROT>
3

>  <SCORE.INTER.SOLV>
13.4468

>  <SCORE.INTER.VDW>
-17.3548

>  <SCORE.INTER.norm>
-0.994825

>  <SCORE.INTRA>
-2.07156

>  <SCORE.INTRA.DIHEDRAL>
-1.03823

>  <SCORE.INTRA.DIHEDRAL.0>
8.84257

>  <SCORE.INTRA.POLAR>
0

>  <SCORE.INTRA.POLAR.0>
0

>  <SCORE.INTRA.REPUL>
0

>  <SCORE.INTRA.REPUL.0>
0

>  <SCORE.INTRA.SOLV>
-0.0530488

>  <SCORE.INTRA.SOLV.lig_0>
-17.1313

>  <SCORE.INTRA.VDW>
-1.52592

>  <SCORE.INTRA.VDW.0>
6.34071

>  <SCORE.INTRA.norm>
-0.0986457

>  <SCORE.RESTR>
3.1447

>  <SCORE.RESTR.CAVITY>
3.1447

>  <SCORE.RESTR.norm>
0.149748

>  <SCORE.SYSTEM>
0

>  <SCORE.SYSTEM.CONST>
0

>  <SCORE.SYSTEM.DIHEDRAL>
0

>  <SCORE.SYSTEM.SOLV>
0

>  <SCORE.SYSTEM.norm>
0

>  <SCORE.heavy>
21

>  <SCORE.norm>
-0.943723

>  <RMSD>
12.945

$$$$
lig.pdb
 OpenBabel11021811453D
libRbt.so/2013.1/901 2013/11/27
 21 23  0  0  0  0  0  0  0  0999 V2000
   -3.8047   10.2274    1.4634 C   0  0  0  0  0  0  0  0  0  0  0  0
   -3.8709   10.5572    0.1785 N   0  0  0  0  0  0  0  0  0  0  0  0
   -3.2788    9.8012   -0.7286 C   0  0  0  0  0  0  0  0  0  0  0  0
   -2.5500    8.7345   -0.3422 C   0  0  0  0  0  0  0  0  0  0  0  0
   -2.4886    8.4029    0.9544 C   0  0  0  0  0  0  0  0  0  0  0  0
   -1.7666    7.3535    1.3457 N   0  0  0  0  0  0  0  0  0  0  0  0
   -3.1155    9.1543    1.8536 N   0  0  0  0  0  0  0  0  0  0  0  0
   -3.3702   10.1285   -2.0283 C   0  0  0  0  0  0  0  0  0  0  0  0
   -2.6106    9.4487   -2.9410 C   0  0  0  0  0  0  0  0  0  0  0  0
   -2.0231   10.1922   -3.9923 O   0  0  0  0  0  0  0  0  0  0  0  0
   -2.0534    8.2848   -2.5681 C   0  0  0  0  0  0  0  0  0  0  0  0
   -1.6698    7.3393   -3.5565 O   0  0  0  0  0  0  0  0  0  0  0  0
   -1.9312    7.9801   -1.2613 C   0  0  0  0  0  0  0  0  0  0  0  0
   -4.4147   10.9822    2.3609 N   0  0  0  0  0  0  0  0  0  0  0  0
   -5.7475   11.0406    2.2822 C   0  0  0  0  0  0  0  0  0  0  0  0
   -6.1633   12.0045    1.1812 C   0  0  0  0  0  0  0  0  0  0  0  0
   -5.6876   13.2674    1.4672 N   0  0  0  0  0  0  0  0  0  0  0  0
   -4.3126   13.1862    1.5016 C   0  0  0  0  0  0  0  0  0  0  0  0
   -3.8940   12.2275    2.6038 C   0  0  0  0  0  0  0  0  0  0  0  0
   -3.0478   10.6058   -4.8596 C   0  0  0  0  0  0  0  0  0  0  0  0
   -0.4302    6.7882   -3.1958 C   0  0  0  0  0  0  0  0  0  0  0  0
  1 14  1  0  0  0  0
  1  2  2  0  0  0  0
  3  2  1  0  0  0  0
  3  8  2  0  0  0  0
  4  3  1  0  0  0  0
  5  7  2  0  0  0  0
  5  4  1  0  0  0  0
  6  5  1  0  0  0  0
  7  1  1  0  0  0  0
  9 10  1  0  0  0  0
  9  8  1  0  0  0  0
 11  9  2  0  0  0  0
 12 11  1  0  0  0  0
 13  4  2  0  0  0  0
 13 11  1  0  0  0  0
 14 15  1  0  0  0  0
 16 15  1  0  0  0  0
 17 16  1  0  0  0  0
 18 17  1  0  0  0  0
 18 19  1  0  0  0  0
 19 14  1  0  0  0  0
 20 10  1  0  0  0  0
 21 12  1  0  0  0  0
M  END
>  <CHROM.1>
64.41278252,-70.30009805,138.78524679,-3.24023978,9.89700820,-0.42301127
-2.53902889,0.98986908,-1.30273618

>  <Name>
lig.pdb

>  <RI>
4.07847e+07

>  <Rbt.Current_Directory>
/home/itssahil/PROJECTS/Mol_Feturizer/New_Systems/rnas/2lwk

>  <Rbt.Executable>
rbdock ($Id: //depot/dev/client3/rdock/2013.1/src/exe/rbdock.cxx#4 $)

>  <Rbt.Library>
libRbt.so (2013.1, Build901 2013/11/27)

>  <Rbt.Parameter_File>
/export/apps/rDock/src/rDock_2013.1_src/data/scripts/dock_solv.prm

>  <Rbt.Receptor>
prm/blind_docking_20.prm

>  <SCORE>
2.48327

>  <SCORE.INTER>
4.17328

>  <SCORE.INTER.CONST>
1

>  <SCORE.INTER.POLAR>
-0.344355

>  <SCORE.INTER.ROT>
3

>  <SCORE.INTER.SOLV>
11.2036

>  <SCORE.INTER.VDW>
-5.4045

>  <SCORE.INTER.norm>
0.198728

>  <SCORE.INTRA>
-2.73631

>  <SCORE.INTRA.DIHEDRAL>
-2.74897

>  <SCORE.INTRA.DIHEDRAL.0>
8.84257

>  <SCORE.INTRA.POLAR>
0

>  <SCORE.INTRA.POLAR.0>
0

>  <SCORE.INTRA.REPUL>
0

>  <SCORE.INTRA.REPUL.0>
0

>  <SCORE.INTRA.SOLV>
0.0838274

>  <SCORE.INTRA.SOLV.lig_0>
-17.1313

>  <SCORE.INTRA.VDW>
-1.40374

>  <SCORE.INTRA.VDW.0>
6.34071

>  <SCORE.INTRA.norm>
-0.130301

>  <SCORE.RESTR>
1.04631

>  <SCORE.RESTR.CAVITY>
1.04631

>  <SCORE.RESTR.norm>
0.0498241

>  <SCORE.SYSTEM>
0

>  <SCORE.SYSTEM.CONST>
0

>  <SCORE.SYSTEM.DIHEDRAL>
0

>  <SCORE.SYSTEM.SOLV>
0

>  <SCORE.SYSTEM.norm>
0

>  <SCORE.heavy>
21

>  <SCORE.norm>
0.118251

>  <RMSD>
12.955

$$$$
lig.pdb
 OpenBabel11021811453D
libRbt.so/2013.1/901 2013/11/27
 21 23  0  0  0  0  0  0  0  0999 V2000
   -1.4886    7.3733    0.6414 C   0  0  0  0  0  0  0  0  0  0  0  0
   -2.2274    8.4621    0.8233 N   0  0  0  0  0  0  0  0  0  0  0  0
   -2.4058    9.3127   -0.1714 C   0  0  0  0  0  0  0  0  0  0  0  0
   -1.7810    9.1100   -1.3490 C   0  0  0  0  0  0  0  0  0  0  0  0
   -1.0397    8.0088   -1.5299 C   0  0  0  0  0  0  0  0  0  0  0  0
   -0.4146    7.8030   -2.6886 N   0  0  0  0  0  0  0  0  0  0  0  0
   -0.8944    7.1449   -0.5306 N   0  0  0  0  0  0  0  0  0  0  0  0
   -3.1735   10.3995    0.0137 C   0  0  0  0  0  0  0  0  0  0  0  0
   -3.2085   11.3631   -0.9571 C   0  0  0  0  0  0  0  0  0  0  0  0
   -3.2201   12.7159   -0.5413 O   0  0  0  0  0  0  0  0  0  0  0  0
   -2.7450   11.0553   -2.1796 C   0  0  0  0  0  0  0  0  0  0  0  0
   -3.1690   11.8123   -3.3045 O   0  0  0  0  0  0  0  0  0  0  0  0
   -1.9447    9.9849   -2.3512 C   0  0  0  0  0  0  0  0  0  0  0  0
   -1.3303    6.5205    1.6389 N   0  0  0  0  0  0  0  0  0  0  0  0
   -0.3499    6.7936    2.5052 C   0  0  0  0  0  0  0  0  0  0  0  0
    0.9915    6.3721    1.9248 C   0  0  0  0  0  0  0  0  0  0  0  0
    0.9866    5.0134    1.6861 N   0  0  0  0  0  0  0  0  0  0  0  0
   -0.0041    4.7664    0.7609 C   0  0  0  0  0  0  0  0  0  0  0  0
   -1.3462    5.1822    1.3397 C   0  0  0  0  0  0  0  0  0  0  0  0
   -4.5098   13.0174   -0.0736 C   0  0  0  0  0  0  0  0  0  0  0  0
   -3.6166   10.9291   -4.2994 C   0  0  0  0  0  0  0  0  0  0  0  0
  1 14  1  0  0  0  0
  1  2  2  0  0  0  0
  3  2  1  0  0  0  0
  3  8  2  0  0  0  0
  4  3  1  0  0  0  0
  5  7  2  0  0  0  0
  5  4  1  0  0  0  0
  6  5  1  0  0  0  0
  7  1  1  0  0  0  0
  9 10  1  0  0  0  0
  9  8  1  0  0  0  0
 11  9  2  0  0  0  0
 12 11  1  0  0  0  0
 13  4  2  0  0  0  0
 13 11  1  0  0  0  0
 14 15  1  0  0  0  0
 16 15  1  0  0  0  0
 17 16  1  0  0  0  0
 18 17  1  0  0  0  0
 18 19  1  0  0  0  0
 19 14  1  0  0  0  0
 20 10  1  0  0  0  0
 21 12  1  0  0  0  0
M  END
>  <CHROM.1>
-85.04253627,-75.83179544,-129.22504468,-1.75147407,8.73305824,-0.42687490
0.58625735,-1.02597946,1.71951197

>  <Name>
lig.pdb

>  <RI>
3.07369e+07

>  <Rbt.Current_Directory>
/home/itssahil/PROJECTS/Mol_Feturizer/New_Systems/rnas/2lwk

>  <Rbt.Executable>
rbdock ($Id: //depot/dev/client3/rdock/2013.1/src/exe/rbdock.cxx#4 $)

>  <Rbt.Library>
libRbt.so (2013.1, Build901 2013/11/27)

>  <Rbt.Parameter_File>
/export/apps/rDock/src/rDock_2013.1_src/data/scripts/dock_solv.prm

>  <Rbt.Receptor>
prm/blind_docking_100.prm

>  <SCORE>
-19.5296

>  <SCORE.INTER>
-18.4976

>  <SCORE.INTER.CONST>
1

>  <SCORE.INTER.POLAR>
-2.08253

>  <SCORE.INTER.ROT>
3

>  <SCORE.INTER.SOLV>
14.5559

>  <SCORE.INTER.VDW>
-15.8419

>  <SCORE.INTER.norm>
-0.880837

>  <SCORE.INTRA>
-2.69269

>  <SCORE.INTRA.DIHEDRAL>
-1.91316

>  <SCORE.INTRA.DIHEDRAL.0>
8.84257

>  <SCORE.INTRA.POLAR>
0

>  <SCORE.INTRA.POLAR.0>
0

>  <SCORE.INTRA.REPUL>
0

>  <SCORE.INTRA.REPUL.0>
0

>  <SCORE.INTRA.SOLV>
0.0355816

>  <SCORE.INTRA.SOLV.lig_0>
-17.1313

>  <SCORE.INTRA.VDW>
-1.7539

>  <SCORE.INTRA.VDW.0>
6.34071

>  <SCORE.INTRA.norm>
-0.128224

>  <SCORE.RESTR>
1.6607

>  <SCORE.RESTR.CAVITY>
1.6607

>  <SCORE.RESTR.norm>
0.0790809

>  <SCORE.SYSTEM>
0

>  <SCORE.SYSTEM.CONST>
0

>  <SCORE.SYSTEM.DIHEDRAL>
0

>  <SCORE.SYSTEM.SOLV>
0

>  <SCORE.SYSTEM.norm>
0

>  <SCORE.heavy>
21

>  <SCORE.norm>
-0.92998

>  <RMSD>
12.980

$$$$
lig.pdb
 OpenBabel11021811453D
libRbt.so/2013.1/901 2013/11/27
 21 23  0  0  0  0  0  0  0  0999 V2000
   -1.5757    7.6597    0.9059 C   0  0  0  0  0  0  0  0  0  0  0  0
   -2.4040    8.6538    1.2057 N   0  0  0  0  0  0  0  0  0  0  0  0
   -2.6664    9.5876    0.3091 C   0  0  0  0  0  0  0  0  0  0  0  0
   -2.0396    9.5681   -0.8846 C   0  0  0  0  0  0  0  0  0  0  0  0
   -1.2076    8.5618   -1.1847 C   0  0  0  0  0  0  0  0  0  0  0  0
   -0.5799    8.5371   -2.3598 N   0  0  0  0  0  0  0  0  0  0  0  0
   -0.9769    7.6114   -0.2848 N   0  0  0  0  0  0  0  0  0  0  0  0
   -3.5234   10.5769    0.6118 C   0  0  0  0  0  0  0  0  0  0  0  0
   -3.6525   11.6326   -0.2491 C   0  0  0  0  0  0  0  0  0  0  0  0
   -3.7768   12.9266    0.3104 O   0  0  0  0  0  0  0  0  0  0  0  0
   -3.1777   11.4997   -1.4985 C   0  0  0  0  0  0  0  0  0  0  0  0
   -3.6781   12.3334   -2.5343 O   0  0  0  0  0  0  0  0  0  0  0  0
   -2.2896   10.5280   -1.7861 C   0  0  0  0  0  0  0  0  0  0  0  0
   -1.3329    6.7217    1.8051 N   0  0  0  0  0  0  0  0  0  0  0  0
   -0.3148    6.9478    2.6409 C   0  0  0  0  0  0  0  0  0  0  0  0
    1.0050    6.6361    1.9516 C   0  0  0  0  0  0  0  0  0  0  0  0
    1.0317    5.3075    1.5813 N   0  0  0  0  0  0  0  0  0  0  0  0
   -0.0010    5.1126    0.6902 C   0  0  0  0  0  0  0  0  0  0  0  0
   -1.3213    5.4187    1.3774 C   0  0  0  0  0  0  0  0  0  0  0  0
   -5.1449   13.2275    0.4139 C   0  0  0  0  0  0  0  0  0  0  0  0
   -4.2597   11.5241   -3.5228 C   0  0  0  0  0  0  0  0  0  0  0  0
  1 14  1  0  0  0  0
  1  2  2  0  0  0  0
  3  2  1  0  0  0  0
  3  8  2  0  0  0  0
  4  3  1  0  0  0  0
  5  7  2  0  0  0  0
  5  4  1  0  0  0  0
  6  5  1  0  0  0  0
  7  1  1  0  0  0  0
  9 10  1  0  0  0  0
  9  8  1  0  0  0  0
 11  9  2  0  0  0  0
 12 11  1  0  0  0  0
 13  4  2  0  0  0  0
 13 11  1  0  0  0  0
 14 15  1  0  0  0  0
 16 15  1  0  0  0  0
 17 16  1  0  0  0  0
 18 17  1  0  0  0  0
 18 19  1  0  0  0  0
 19 14  1  0  0  0  0
 20 10  1  0  0  0  0
 21 12  1  0  0  0  0
M  END
>  <CHROM.1>
-89.13471031,-94.53298881,-119.61808852,-1.99214871,9.08897572,-0.03975724
0.54121955,-0.94660749,1.79598160

>  <Name>
lig.pdb

>  <RI>
3.07369e+07

>  <Rbt.Current_Directory>
/home/itssahil/PROJECTS/Mol_Feturizer/New_Systems/rnas/2lwk

>  <Rbt.Executable>
rbdock ($Id: //depot/dev/client3/rdock/2013.1/src/exe/rbdock.cxx#4 $)

>  <Rbt.Library>
libRbt.so (2013.1, Build901 2013/11/27)

>  <Rbt.Parameter_File>
/export/apps/rDock/src/rDock_2013.1_src/data/scripts/dock_solv.prm

>  <Rbt.Receptor>
prm/blind_docking_100.prm

>  <SCORE>
-21.1368

>  <SCORE.INTER>
-19.6503

>  <SCORE.INTER.CONST>
1

>  <SCORE.INTER.POLAR>
-2.21388

>  <SCORE.INTER.ROT>
3

>  <SCORE.INTER.SOLV>
13.1995

>  <SCORE.INTER.VDW>
-15.7204

>  <SCORE.INTER.norm>
-0.935727

>  <SCORE.INTRA>
-4.03582

>  <SCORE.INTRA.DIHEDRAL>
-0.365468

>  <SCORE.INTRA.DIHEDRAL.0>
8.84257

>  <SCORE.INTRA.POLAR>
0

>  <SCORE.INTRA.POLAR.0>
0

>  <SCORE.INTRA.REPUL>
0

>  <SCORE.INTRA.REPUL.0>
0

>  <SCORE.INTRA.SOLV>
0.0590557

>  <SCORE.INTRA.SOLV.lig_0>
-17.1313

>  <SCORE.INTRA.VDW>
-3.88261

>  <SCORE.INTRA.VDW.0>
6.34071

>  <SCORE.INTRA.norm>
-0.192182

>  <SCORE.RESTR>
2.54931

>  <SCORE.RESTR.CAVITY>
2.54931

>  <SCORE.RESTR.norm>
0.121395

>  <SCORE.SYSTEM>
0

>  <SCORE.SYSTEM.CONST>
0

>  <SCORE.SYSTEM.DIHEDRAL>
0

>  <SCORE.SYSTEM.SOLV>
0

>  <SCORE.SYSTEM.norm>
0

>  <SCORE.heavy>
21

>  <SCORE.norm>
-1.00651

>  <RMSD>
12.997

$$$$
lig.pdb
 OpenBabel11021811453D
libRbt.so/2013.1/901 2013/11/27
 21 23  0  0  0  0  0  0  0  0999 V2000
   -1.4611    7.4955    0.7496 C   0  0  0  0  0  0  0  0  0  0  0  0
   -2.2256    8.5677    0.9238 N   0  0  0  0  0  0  0  0  0  0  0  0
   -2.4221    9.4080   -0.0762 C   0  0  0  0  0  0  0  0  0  0  0  0
   -1.7907    9.2131   -1.2516 C   0  0  0  0  0  0  0  0  0  0  0  0
   -1.0233    8.1287   -1.4247 C   0  0  0  0  0  0  0  0  0  0  0  0
   -0.3915    7.9308   -2.5811 N   0  0  0  0  0  0  0  0  0  0  0  0
   -0.8595    7.2743   -0.4200 N   0  0  0  0  0  0  0  0  0  0  0  0
   -3.2155   10.4775    0.1012 C   0  0  0  0  0  0  0  0  0  0  0  0
   -3.2714   11.4343   -0.8754 C   0  0  0  0  0  0  0  0  0  0  0  0
   -3.3156   12.7889   -0.4677 O   0  0  0  0  0  0  0  0  0  0  0  0
   -2.7986   11.1303   -2.0953 C   0  0  0  0  0  0  0  0  0  0  0  0
   -3.2382   11.8705   -3.2254 O   0  0  0  0  0  0  0  0  0  0  0  0
   -1.9731   10.0780   -2.2592 C   0  0  0  0  0  0  0  0  0  0  0  0
   -1.2846    6.6526    1.7524 N   0  0  0  0  0  0  0  0  0  0  0  0
   -0.2375    6.8868    2.5492 C   0  0  0  0  0  0  0  0  0  0  0  0
    1.0396    6.3831    1.8939 C   0  0  0  0  0  0  0  0  0  0  0  0
    0.9471    5.0228    1.6839 N   0  0  0  0  0  0  0  0  0  0  0  0
   -0.1127    4.8143    0.8285 C   0  0  0  0  0  0  0  0  0  0  0  0
   -1.3908    5.3122    1.4824 C   0  0  0  0  0  0  0  0  0  0  0  0
   -4.5843   13.0380    0.0814 C   0  0  0  0  0  0  0  0  0  0  0  0
   -3.6699   10.9713   -4.2130 C   0  0  0  0  0  0  0  0  0  0  0  0
  1 14  1  0  0  0  0
  1  2  2  0  0  0  0
  3  2  1  0  0  0  0
  3  8  2  0  0  0  0
  4  3  1  0  0  0  0
  5  7  2  0  0  0  0
  5  4  1  0  0  0  0
  6  5  1  0  0  0  0
  7  1  1  0  0  0  0
  9 10  1  0  0  0  0
  9  8  1  0  0  0  0
 11  9  2  0  0  0  0
 12 11  1  0  0  0  0
 13  4  2  0  0  0  0
 13 11  1  0  0  0  0
 14 15  1  0  0  0  0
 16 15  1  0  0  0  0
 17 16  1  0  0  0  0
 18 17  1  0  0  0  0
 18 19  1  0  0  0  0
 19 14  1  0  0  0  0
 20 10  1  0  0  0  0
 21 12  1  0  0  0  0
M  END
>  <CHROM.1>
-90.89945821,-71.82932027,-128.91018153,-1.77083350,8.81470868,-0.34166320
0.59295398,-1.01028627,1.73579440

>  <Name>
lig.pdb

>  <RI>
1.05666e+07

>  <Rbt.Current_Directory>
/home/itssahil/PROJECTS/Mol_Feturizer/New_Systems/rnas/2lwk

>  <Rbt.Executable>
rbdock ($Id: //depot/dev/client3/rdock/2013.1/src/exe/rbdock.cxx#4 $)

>  <Rbt.Library>
libRbt.so (2013.1, Build901 2013/11/27)

>  <Rbt.Parameter_File>
/export/apps/rDock/src/rDock_2013.1_src/data/scripts/dock_solv.prm

>  <Rbt.Receptor>
prm/blind_docking_80.prm

>  <SCORE>
-19.4893

>  <SCORE.INTER>
-18.6417

>  <SCORE.INTER.CONST>
1

>  <SCORE.INTER.POLAR>
-2.11877

>  <SCORE.INTER.ROT>
3

>  <SCORE.INTER.SOLV>
14.4344

>  <SCORE.INTER.VDW>
-15.7767

>  <SCORE.INTER.norm>
-0.887698

>  <SCORE.INTRA>
-2.71934

>  <SCORE.INTRA.DIHEDRAL>
-2.14314

>  <SCORE.INTRA.DIHEDRAL.0>
8.84257

>  <SCORE.INTRA.POLAR>
0

>  <SCORE.INTRA.POLAR.0>
0

>  <SCORE.INTRA.REPUL>
0

>  <SCORE.INTRA.REPUL.0>
0

>  <SCORE.INTRA.SOLV>
0.0366509

>  <SCORE.INTRA.SOLV.lig_0>
-17.1313

>  <SCORE.INTRA.VDW>
-1.6661

>  <SCORE.INTRA.VDW.0>
6.34071

>  <SCORE.INTRA.norm>
-0.129492

>  <SCORE.RESTR>
1.87167

>  <SCORE.RESTR.CAVITY>
1.87167

>  <SCORE.RESTR.norm>
0.0891272

>  <SCORE.SYSTEM>
0

>  <SCORE.SYSTEM.CONST>
0

>  <SCORE.SYSTEM.DIHEDRAL>
0

>  <SCORE.SYSTEM.SOLV>
0

>  <SCORE.SYSTEM.norm>
0

>  <SCORE.heavy>
21

>  <SCORE.norm>
-0.928063

>  <RMSD>
13.002

$$$$
lig.pdb
 OpenBabel11021811453D
libRbt.so/2013.1/901 2013/11/27
 21 23  0  0  0  0  0  0  0  0999 V2000
   -0.8169    7.9286    1.0991 C   0  0  0  0  0  0  0  0  0  0  0  0
   -1.6496    8.9559    1.2239 N   0  0  0  0  0  0  0  0  0  0  0  0
   -2.0257    9.6345    0.1548 C   0  0  0  0  0  0  0  0  0  0  0  0
   -1.5096    9.3269   -1.0523 C   0  0  0  0  0  0  0  0  0  0  0  0
   -0.6728    8.2878   -1.1747 C   0  0  0  0  0  0  0  0  0  0  0  0
   -0.1539    7.9798   -2.3628 N   0  0  0  0  0  0  0  0  0  0  0  0
   -0.3273    7.5935   -0.0954 N   0  0  0  0  0  0  0  0  0  0  0  0
   -2.8865   10.6574    0.2864 C   0  0  0  0  0  0  0  0  0  0  0  0
   -3.1311   11.4646   -0.7910 C   0  0  0  0  0  0  0  0  0  0  0  0
   -3.2503   12.8555   -0.5577 O   0  0  0  0  0  0  0  0  0  0  0  0
   -2.7672   11.0315   -2.0093 C   0  0  0  0  0  0  0  0  0  0  0  0
   -3.3892   11.5757   -3.1648 O   0  0  0  0  0  0  0  0  0  0  0  0
   -1.8746   10.0298   -2.1336 C   0  0  0  0  0  0  0  0  0  0  0  0
   -0.4600    7.2464    2.1736 N   0  0  0  0  0  0  0  0  0  0  0  0
    0.7610    6.7034    2.1553 C   0  0  0  0  0  0  0  0  0  0  0  0
    0.7493    5.4205    1.3380 C   0  0  0  0  0  0  0  0  0  0  0  0
   -0.1217    4.5156    1.9087 N   0  0  0  0  0  0  0  0  0  0  0  0
   -1.3767    5.0834    1.8771 C   0  0  0  0  0  0  0  0  0  0  0  0
   -1.3693    6.3630    2.6967 C   0  0  0  0  0  0  0  0  0  0  0  0
   -4.5115   13.0956    0.0123 C   0  0  0  0  0  0  0  0  0  0  0  0
   -3.7035   10.5271   -4.0435 C   0  0  0  0  0  0  0  0  0  0  0  0
  1 14  1  0  0  0  0
  1  2  2  0  0  0  0
  3  2  1  0  0  0  0
  3  8  2  0  0  0  0
  4  3  1  0  0  0  0
  5  7  2  0  0  0  0
  5  4  1  0  0  0  0
  6  5  1  0  0  0  0
  7  1  1  0  0  0  0
  9 10  1  0  0  0  0
  9  8  1  0  0  0  0
 11  9  2  0  0  0  0
 12 11  1  0  0  0  0
 13  4  2  0  0  0  0
 13 11  1  0  0  0  0
 14 15  1  0  0  0  0
 16 15  1  0  0  0  0
 17 16  1  0  0  0  0
 18 17  1  0  0  0  0
 18 19  1  0  0  0  0
 19 14  1  0  0  0  0
 20 10  1  0  0  0  0
 21 12  1  0  0  0  0
M  END
>  <CHROM.1>
-149.14804193,-76.07126441,-135.71801725,-1.65205320,8.87178054,-0.13613288
0.63853105,-1.01745549,1.73866182

>  <Name>
lig.pdb

>  <RI>
3.07369e+07

>  <Rbt.Current_Directory>
/home/itssahil/PROJECTS/Mol_Feturizer/New_Systems/rnas/2lwk

>  <Rbt.Executable>
rbdock ($Id: //depot/dev/client3/rdock/2013.1/src/exe/rbdock.cxx#4 $)

>  <Rbt.Library>
libRbt.so (2013.1, Build901 2013/11/27)

>  <Rbt.Parameter_File>
/export/apps/rDock/src/rDock_2013.1_src/data/scripts/dock_solv.prm

>  <Rbt.Receptor>
prm/blind_docking_100.prm

>  <SCORE>
-21.5873

>  <SCORE.INTER>
-22.0999

>  <SCORE.INTER.CONST>
1

>  <SCORE.INTER.POLAR>
-1.62134

>  <SCORE.INTER.ROT>
3

>  <SCORE.INTER.SOLV>
14.7218

>  <SCORE.INTER.VDW>
-19.8361

>  <SCORE.INTER.norm>
-1.05238

>  <SCORE.INTRA>
-1.24567

>  <SCORE.INTRA.DIHEDRAL>
-2.45938

>  <SCORE.INTRA.DIHEDRAL.0>
8.84257

>  <SCORE.INTRA.POLAR>
0

>  <SCORE.INTRA.POLAR.0>
0

>  <SCORE.INTRA.REPUL>
0

>  <SCORE.INTRA.REPUL.0>
0

>  <SCORE.INTRA.SOLV>
0.0290047

>  <SCORE.INTRA.SOLV.lig_0>
-17.1313

>  <SCORE.INTRA.VDW>
-0.0304802

>  <SCORE.INTRA.VDW.0>
6.34071

>  <SCORE.INTRA.norm>
-0.0593176

>  <SCORE.RESTR>
1.75828

>  <SCORE.RESTR.CAVITY>
1.75828

>  <SCORE.RESTR.norm>
0.0837276

>  <SCORE.SYSTEM>
0

>  <SCORE.SYSTEM.CONST>
0

>  <SCORE.SYSTEM.DIHEDRAL>
0

>  <SCORE.SYSTEM.SOLV>
0

>  <SCORE.SYSTEM.norm>
0

>  <SCORE.heavy>
21

>  <SCORE.norm>
-1.02797

>  <RMSD>
13.020

$$$$
lig.pdb
 OpenBabel11021811453D
libRbt.so/2013.1/901 2013/11/27
 21 23  0  0  0  0  0  0  0  0999 V2000
   -1.4806    7.5233    0.7209 C   0  0  0  0  0  0  0  0  0  0  0  0
   -2.2493    8.5891    0.9144 N   0  0  0  0  0  0  0  0  0  0  0  0
   -2.4577    9.4410   -0.0734 C   0  0  0  0  0  0  0  0  0  0  0  0
   -1.8341    9.2643   -1.2558 C   0  0  0  0  0  0  0  0  0  0  0  0
   -1.0625    8.1861   -1.4484 C   0  0  0  0  0  0  0  0  0  0  0  0
   -0.4384    8.0062   -2.6119 N   0  0  0  0  0  0  0  0  0  0  0  0
   -0.8868    7.3200   -0.4559 N   0  0  0  0  0  0  0  0  0  0  0  0
   -3.2552   10.5039    0.1235 C   0  0  0  0  0  0  0  0  0  0  0  0
   -3.3235   11.4727   -0.8405 C   0  0  0  0  0  0  0  0  0  0  0  0
   -3.3715   12.8218   -0.4153 O   0  0  0  0  0  0  0  0  0  0  0  0
   -2.8583   11.1866   -2.0677 C   0  0  0  0  0  0  0  0  0  0  0  0
   -3.3102   11.9387   -3.1849 O   0  0  0  0  0  0  0  0  0  0  0  0
   -2.0286   10.1409   -2.2510 C   0  0  0  0  0  0  0  0  0  0  0  0
   -1.2922    6.6687    1.7115 N   0  0  0  0  0  0  0  0  0  0  0  0
   -0.2778    6.9331    2.5406 C   0  0  0  0  0  0  0  0  0  0  0  0
    1.0374    6.5007    1.9102 C   0  0  0  0  0  0  0  0  0  0  0  0
    1.0121    5.1422    1.6716 N   0  0  0  0  0  0  0  0  0  0  0  0
   -0.0146    4.9040    0.7841 C   0  0  0  0  0  0  0  0  0  0  0  0
   -1.3305    5.3307    1.4129 C   0  0  0  0  0  0  0  0  0  0  0  0
   -4.6231   13.0467    0.1813 C   0  0  0  0  0  0  0  0  0  0  0  0
   -3.7176   11.0495   -4.1917 C   0  0  0  0  0  0  0  0  0  0  0  0
  1 14  1  0  0  0  0
  1  2  2  0  0  0  0
  3  2  1  0  0  0  0
  3  8  2  0  0  0  0
  4  3  1  0  0  0  0
  5  7  2  0  0  0  0
  5  4  1  0  0  0  0
  6  5  1  0  0  0  0
  7  1  1  0  0  0  0
  9 10  1  0  0  0  0
  9  8  1  0  0  0  0
 11  9  2  0  0  0  0
 12 11  1  0  0  0  0
 13  4  2  0  0  0  0
 13 11  1  0  0  0  0
 14 15  1  0  0  0  0
 16 15  1  0  0  0  0
 17 16  1  0  0  0  0
 18 17  1  0  0  0  0
 18 19  1  0  0  0  0
 19 14  1  0  0  0  0
 20 10  1  0  0  0  0
 21 12  1  0  0  0  0
M  END
>  <CHROM.1>
-87.86987255,-70.14869440,-130.17758278,-1.79346790,8.86740002,-0.34021977
0.57236579,-1.00317029,1.72279538

>  <Name>
lig.pdb

>  <RI>
2.05709e+07

>  <Rbt.Current_Directory>
/home/itssahil/PROJECTS/Mol_Feturizer/New_Systems/rnas/2lwk

>  <Rbt.Executable>
rbdock ($Id: //depot/dev/client3/rdock/2013.1/src/exe/rbdock.cxx#4 $)

>  <Rbt.Library>
libRbt.so (2013.1, Build901 2013/11/27)

>  <Rbt.Parameter_File>
/export/apps/rDock/src/rDock_2013.1_src/data/scripts/dock_solv.prm

>  <Rbt.Receptor>
prm/blind_docking_40.prm

>  <SCORE>
-19.1337

>  <SCORE.INTER>
-18.5044

>  <SCORE.INTER.CONST>
1

>  <SCORE.INTER.POLAR>
-2.13959

>  <SCORE.INTER.ROT>
3

>  <SCORE.INTER.SOLV>
14.5154

>  <SCORE.INTER.VDW>
-15.6428

>  <SCORE.INTER.norm>
-0.881162

>  <SCORE.INTRA>
-2.41786

>  <SCORE.INTRA.DIHEDRAL>
-2.36134

>  <SCORE.INTRA.DIHEDRAL.0>
8.84257

>  <SCORE.INTRA.POLAR>
0

>  <SCORE.INTRA.POLAR.0>
0

>  <SCORE.INTRA.REPUL>
0

>  <SCORE.INTRA.REPUL.0>
0

>  <SCORE.INTRA.SOLV>
0.0338704

>  <SCORE.INTRA.SOLV.lig_0>
-17.1313

>  <SCORE.INTRA.VDW>
-1.25412

>  <SCORE.INTRA.VDW.0>
6.34071

>  <SCORE.INTRA.norm>
-0.115136

>  <SCORE.RESTR>
1.78859

>  <SCORE.RESTR.CAVITY>
1.78859

>  <SCORE.RESTR.norm>
0.0851708

>  <SCORE.SYSTEM>
0

>  <SCORE.SYSTEM.CONST>
0

>  <SCORE.SYSTEM.DIHEDRAL>
0

>  <SCORE.SYSTEM.SOLV>
0

>  <SCORE.SYSTEM.norm>
0

>  <SCORE.heavy>
21

>  <SCORE.norm>
-0.911127

>  <RMSD>
13.022

$$$$
lig.pdb
 OpenBabel11021811453D
libRbt.so/2013.1/901 2013/11/27
 21 23  0  0  0  0  0  0  0  0999 V2000
   -1.4866    7.5624    0.7818 C   0  0  0  0  0  0  0  0  0  0  0  0
   -2.2469    8.6385    0.9495 N   0  0  0  0  0  0  0  0  0  0  0  0
   -2.4443    9.4708   -0.0570 C   0  0  0  0  0  0  0  0  0  0  0  0
   -1.8178    9.2637   -1.2329 C   0  0  0  0  0  0  0  0  0  0  0  0
   -1.0547    8.1752   -1.3995 C   0  0  0  0  0  0  0  0  0  0  0  0
   -0.4278    7.9652   -2.5564 N   0  0  0  0  0  0  0  0  0  0  0  0
   -0.8901    7.3290   -0.3880 N   0  0  0  0  0  0  0  0  0  0  0  0
   -3.2335   10.5444    0.1140 C   0  0  0  0  0  0  0  0  0  0  0  0
   -3.2899   11.4929   -0.8706 C   0  0  0  0  0  0  0  0  0  0  0  0
   -3.3280   12.8511   -0.4745 O   0  0  0  0  0  0  0  0  0  0  0  0
   -2.8226   11.1768   -2.0896 C   0  0  0  0  0  0  0  0  0  0  0  0
   -3.2639   11.9087   -3.2244 O   0  0  0  0  0  0  0  0  0  0  0  0
   -2.0011   10.1204   -2.2474 C   0  0  0  0  0  0  0  0  0  0  0  0
   -1.3091    6.7276    1.7912 N   0  0  0  0  0  0  0  0  0  0  0  0
   -0.2567    6.9635    2.5805 C   0  0  0  0  0  0  0  0  0  0  0  0
    1.0144    6.4474    1.9232 C   0  0  0  0  0  0  0  0  0  0  0  0
    0.9139    5.0858    1.7260 N   0  0  0  0  0  0  0  0  0  0  0  0
   -0.1513    4.8750    0.8779 C   0  0  0  0  0  0  0  0  0  0  0  0
   -1.4236    5.3854    1.5338 C   0  0  0  0  0  0  0  0  0  0  0  0
   -4.6064   13.1189    0.0424 C   0  0  0  0  0  0  0  0  0  0  0  0
   -3.6819   11.0018   -4.2108 C   0  0  0  0  0  0  0  0  0  0  0  0
  1 14  1  0  0  0  0
  1  2  2  0  0  0  0
  3  2  1  0  0  0  0
  3  8  2  0  0  0  0
  4  3  1  0  0  0  0
  5  7  2  0  0  0  0
  5  4  1  0  0  0  0
  6  5  1  0  0  0  0
  7  1  1  0  0  0  0
  9 10  1  0  0  0  0
  9  8  1  0  0  0  0
 11  9  2  0  0  0  0
 12 11  1  0  0  0  0
 13  4  2  0  0  0  0
 13 11  1  0  0  0  0
 14 15  1  0  0  0  0
 16 15  1  0  0  0  0
 17 16  1  0  0  0  0
 18 17  1  0  0  0  0
 18 19  1  0  0  0  0
 19 14  1  0  0  0  0
 20 10  1  0  0  0  0
 21 12  1  0  0  0  0
M  END
>  <CHROM.1>
-91.03218220,-73.46320057,-129.85363139,-1.79599703,8.87294761,-0.32233217
0.58999599,-1.01364719,1.72525879

>  <Name>
lig.pdb

>  <RI>
4.07847e+07

>  <Rbt.Current_Directory>
/home/itssahil/PROJECTS/Mol_Feturizer/New_Systems/rnas/2lwk

>  <Rbt.Executable>
rbdock ($Id: //depot/dev/client3/rdock/2013.1/src/exe/rbdock.cxx#4 $)

>  <Rbt.Library>
libRbt.so (2013.1, Build901 2013/11/27)

>  <Rbt.Parameter_File>
/export/apps/rDock/src/rDock_2013.1_src/data/scripts/dock_solv.prm

>  <Rbt.Receptor>
prm/blind_docking_20.prm

>  <SCORE>
-19.1474

>  <SCORE.INTER>
-18.5324

>  <SCORE.INTER.CONST>
1

>  <SCORE.INTER.POLAR>
-2.10944

>  <SCORE.INTER.ROT>
3

>  <SCORE.INTER.SOLV>
14.26

>  <SCORE.INTER.VDW>
-15.6768

>  <SCORE.INTER.norm>
-0.882497

>  <SCORE.INTRA>
-2.6948

>  <SCORE.INTRA.DIHEDRAL>
-2.11442

>  <SCORE.INTRA.DIHEDRAL.0>
8.84257

>  <SCORE.INTRA.POLAR>
0

>  <SCORE.INTRA.POLAR.0>
0

>  <SCORE.INTRA.REPUL>
0

>  <SCORE.INTRA.REPUL.0>
0

>  <SCORE.INTRA.SOLV>
0.038115

>  <SCORE.INTRA.SOLV.lig_0>
-17.1313

>  <SCORE.INTRA.VDW>
-1.65664

>  <SCORE.INTRA.VDW.0>
6.34071

>  <SCORE.INTRA.norm>
-0.128324

>  <SCORE.RESTR>
2.07986

>  <SCORE.RESTR.CAVITY>
2.07986

>  <SCORE.RESTR.norm>
0.0990411

>  <SCORE.SYSTEM>
0

>  <SCORE.SYSTEM.CONST>
0

>  <SCORE.SYSTEM.DIHEDRAL>
0

>  <SCORE.SYSTEM.SOLV>
0

>  <SCORE.SYSTEM.norm>
0

>  <SCORE.heavy>
21

>  <SCORE.norm>
-0.91178

>  <RMSD>
13.026

$$$$
lig.pdb
 OpenBabel11021811453D
libRbt.so/2013.1/901 2013/11/27
 21 23  0  0  0  0  0  0  0  0999 V2000
   -0.8191    7.9329    1.0940 C   0  0  0  0  0  0  0  0  0  0  0  0
   -1.6534    8.9592    1.2168 N   0  0  0  0  0  0  0  0  0  0  0  0
   -2.0246    9.6398    0.1473 C   0  0  0  0  0  0  0  0  0  0  0  0
   -1.5020    9.3353   -1.0578 C   0  0  0  0  0  0  0  0  0  0  0  0
   -0.6637    8.2973   -1.1783 C   0  0  0  0  0  0  0  0  0  0  0  0
   -0.1384    7.9924   -2.3643 N   0  0  0  0  0  0  0  0  0  0  0  0
   -0.3231    7.6009   -0.0987 N   0  0  0  0  0  0  0  0  0  0  0  0
   -2.8870   10.6617    0.2768 C   0  0  0  0  0  0  0  0  0  0  0  0
   -3.1268   11.4711   -0.8001 C   0  0  0  0  0  0  0  0  0  0  0  0
   -3.2485   12.8613   -0.5643 O   0  0  0  0  0  0  0  0  0  0  0  0
   -2.7563   11.0409   -2.0175 C   0  0  0  0  0  0  0  0  0  0  0  0
   -3.3728   11.5872   -3.1749 O   0  0  0  0  0  0  0  0  0  0  0  0
   -1.8622   10.0403   -2.1394 C   0  0  0  0  0  0  0  0  0  0  0  0
   -0.4671    7.2486    2.1687 N   0  0  0  0  0  0  0  0  0  0  0  0
    0.7462    6.6888    2.1468 C   0  0  0  0  0  0  0  0  0  0  0  0
    0.7133    5.4040    1.3329 C   0  0  0  0  0  0  0  0  0  0  0  0
   -0.1677    4.5128    1.9097 N   0  0  0  0  0  0  0  0  0  0  0  0
   -1.4148    5.0978    1.8818 C   0  0  0  0  0  0  0  0  0  0  0  0
   -1.3863    6.3792    2.6981 C   0  0  0  0  0  0  0  0  0  0  0  0
   -4.5127   13.0989   -0.0000 C   0  0  0  0  0  0  0  0  0  0  0  0
   -3.6354   10.5463   -4.0793 C   0  0  0  0  0  0  0  0  0  0  0  0
  1 14  1  0  0  0  0
  1  2  2  0  0  0  0
  3  2  1  0  0  0  0
  3  8  2  0  0  0  0
  4  3  1  0  0  0  0
  5  7  2  0  0  0  0
  5  4  1  0  0  0  0
  6  5  1  0  0  0  0
  7  1  1  0  0  0  0
  9 10  1  0  0  0  0
  9  8  1  0  0  0  0
 11  9  2  0  0  0  0
 12 11  1  0  0  0  0
 13  4  2  0  0  0  0
 13 11  1  0  0  0  0
 14 15  1  0  0  0  0
 16 15  1  0  0  0  0
 17 16  1  0  0  0  0
 18 17  1  0  0  0  0
 18 19  1  0  0  0  0
 19 14  1  0  0  0  0
 20 10  1  0  0  0  0
 21 12  1  0  0  0  0
M  END
>  <CHROM.1>
-150.18589788,-76.06172879,-137.93977811,-1.65274661,8.87753992,-0.14299953
0.65858277,-1.01603608,1.75870041

>  <Name>
lig.pdb

>  <RI>
3.07369e+07

>  <Rbt.Current_Directory>
/home/itssahil/PROJECTS/Mol_Feturizer/New_Systems/rnas/2lwk

>  <Rbt.Executable>
rbdock ($Id: //depot/dev/client3/rdock/2013.1/src/exe/rbdock.cxx#4 $)

>  <Rbt.Library>
libRbt.so (2013.1, Build901 2013/11/27)

>  <Rbt.Parameter_File>
/export/apps/rDock/src/rDock_2013.1_src/data/scripts/dock_solv.prm

>  <Rbt.Receptor>
prm/blind_docking_100.prm

>  <SCORE>
-21.1908

>  <SCORE.INTER>
-21.9525

>  <SCORE.INTER.CONST>
1

>  <SCORE.INTER.POLAR>
-1.57665

>  <SCORE.INTER.ROT>
3

>  <SCORE.INTER.SOLV>
14.7417

>  <SCORE.INTER.VDW>
-19.8934

>  <SCORE.INTER.norm>
-1.04536

>  <SCORE.INTRA>
-0.915698

>  <SCORE.INTRA.DIHEDRAL>
-2.64377

>  <SCORE.INTRA.DIHEDRAL.0>
8.84257

>  <SCORE.INTRA.POLAR>
0

>  <SCORE.INTRA.POLAR.0>
0

>  <SCORE.INTRA.REPUL>
0

>  <SCORE.INTRA.REPUL.0>
0

>  <SCORE.INTRA.SOLV>
0.0296199

>  <SCORE.INTRA.SOLV.lig_0>
-17.1313

>  <SCORE.INTRA.VDW>
0.391379

>  <SCORE.INTRA.VDW.0>
6.34071

>  <SCORE.INTRA.norm>
-0.0436047

>  <SCORE.RESTR>
1.67737

>  <SCORE.RESTR.CAVITY>
1.67737

>  <SCORE.RESTR.norm>
0.0798746

>  <SCORE.SYSTEM>
0

>  <SCORE.SYSTEM.CONST>
0

>  <SCORE.SYSTEM.DIHEDRAL>
0

>  <SCORE.SYSTEM.SOLV>
0

>  <SCORE.SYSTEM.norm>
0

>  <SCORE.heavy>
21

>  <SCORE.norm>
-1.00909

>  <RMSD>
13.028

$$$$
lig.pdb
 OpenBabel11021811453D
libRbt.so/2013.1/901 2013/11/27
 21 23  0  0  0  0  0  0  0  0999 V2000
   -0.7682    7.9105    1.0349 C   0  0  0  0  0  0  0  0  0  0  0  0
   -1.6016    8.9342    1.1825 N   0  0  0  0  0  0  0  0  0  0  0  0
   -1.9996    9.6193    0.1256 C   0  0  0  0  0  0  0  0  0  0  0  0
   -1.5051    9.3220   -1.0931 C   0  0  0  0  0  0  0  0  0  0  0  0
   -0.6676    8.2865   -1.2386 C   0  0  0  0  0  0  0  0  0  0  0  0
   -0.1700    7.9887   -2.4383 N   0  0  0  0  0  0  0  0  0  0  0  0
   -0.3000    7.5856   -0.1709 N   0  0  0  0  0  0  0  0  0  0  0  0
   -2.8610   10.6385    0.2806 C   0  0  0  0  0  0  0  0  0  0  0  0
   -3.1280   11.4526   -0.7862 C   0  0  0  0  0  0  0  0  0  0  0  0
   -3.2471   12.8414   -0.5407 O   0  0  0  0  0  0  0  0  0  0  0  0
   -2.7856   11.0294   -2.0142 C   0  0  0  0  0  0  0  0  0  0  0  0
   -3.4306   11.5799   -3.1539 O   0  0  0  0  0  0  0  0  0  0  0  0
   -1.8924   10.0314   -2.1623 C   0  0  0  0  0  0  0  0  0  0  0  0
   -0.3894    7.2217    2.0975 N   0  0  0  0  0  0  0  0  0  0  0  0
    0.8355    6.6886    2.0555 C   0  0  0  0  0  0  0  0  0  0  0  0
    0.8211    5.4129    1.2271 C   0  0  0  0  0  0  0  0  0  0  0  0
   -0.0338    4.4962    1.8031 N   0  0  0  0  0  0  0  0  0  0  0  0
   -1.2936    5.0542    1.7960 C   0  0  0  0  0  0  0  0  0  0  0  0
   -1.2835    6.3265    2.6269 C   0  0  0  0  0  0  0  0  0  0  0  0
   -4.5187   13.0801    0.0062 C   0  0  0  0  0  0  0  0  0  0  0  0
   -3.7718   10.5352   -4.0271 C   0  0  0  0  0  0  0  0  0  0  0  0
  1 14  1  0  0  0  0
  1  2  2  0  0  0  0
  3  2  1  0  0  0  0
  3  8  2  0  0  0  0
  4  3  1  0  0  0  0
  5  7  2  0  0  0  0
  5  4  1  0  0  0  0
  6  5  1  0  0  0  0
  7  1  1  0  0  0  0
  9 10  1  0  0  0  0
  9  8  1  0  0  0  0
 11  9  2  0  0  0  0
 12 11  1  0  0  0  0
 13  4  2  0  0  0  0
 13 11  1  0  0  0  0
 14 15  1  0  0  0  0
 16 15  1  0  0  0  0
 17 16  1  0  0  0  0
 18 17  1  0  0  0  0
 18 19  1  0  0  0  0
 19 14  1  0  0  0  0
 20 10  1  0  0  0  0
 21 12  1  0  0  0  0
M  END
>  <CHROM.1>
-148.81009858,-78.33816586,-135.04572185,-1.62884858,8.86043792,-0.18042005
0.60097252,-1.01589982,1.71379270

>  <Name>
lig.pdb

>  <RI>
2.05709e+07

>  <Rbt.Current_Directory>
/home/itssahil/PROJECTS/Mol_Feturizer/New_Systems/rnas/2lwk

>  <Rbt.Executable>
rbdock ($Id: //depot/dev/client3/rdock/2013.1/src/exe/rbdock.cxx#4 $)

>  <Rbt.Library>
libRbt.so (2013.1, Build901 2013/11/27)

>  <Rbt.Parameter_File>
/export/apps/rDock/src/rDock_2013.1_src/data/scripts/dock_solv.prm

>  <Rbt.Receptor>
prm/blind_docking_40.prm

>  <SCORE>
-21.1656

>  <SCORE.INTER>
-22.0602

>  <SCORE.INTER.CONST>
1

>  <SCORE.INTER.POLAR>
-1.79847

>  <SCORE.INTER.ROT>
3

>  <SCORE.INTER.SOLV>
15.0136

>  <SCORE.INTER.VDW>
-19.3165

>  <SCORE.INTER.norm>
-1.05049

>  <SCORE.INTRA>
-1.41877

>  <SCORE.INTRA.DIHEDRAL>
-2.27099

>  <SCORE.INTRA.DIHEDRAL.0>
8.84257

>  <SCORE.INTRA.POLAR>
0

>  <SCORE.INTRA.POLAR.0>
0

>  <SCORE.INTRA.REPUL>
0

>  <SCORE.INTRA.REPUL.0>
0

>  <SCORE.INTRA.SOLV>
0.0308011

>  <SCORE.INTRA.SOLV.lig_0>
-17.1313

>  <SCORE.INTRA.VDW>
-0.298679

>  <SCORE.INTRA.VDW.0>
6.34071

>  <SCORE.INTRA.norm>
-0.0675606

>  <SCORE.RESTR>
2.31338

>  <SCORE.RESTR.CAVITY>
2.31338

>  <SCORE.RESTR.norm>
0.110161

>  <SCORE.SYSTEM>
0

>  <SCORE.SYSTEM.CONST>
0

>  <SCORE.SYSTEM.DIHEDRAL>
0

>  <SCORE.SYSTEM.SOLV>
0

>  <SCORE.SYSTEM.norm>
0

>  <SCORE.heavy>
21

>  <SCORE.norm>
-1.00789

>  <RMSD>
13.032

$$$$
lig.pdb
 OpenBabel11021811453D
libRbt.so/2013.1/901 2013/11/27
 21 23  0  0  0  0  0  0  0  0999 V2000
   -0.8000    7.9008    1.0419 C   0  0  0  0  0  0  0  0  0  0  0  0
   -1.6333    8.9257    1.1816 N   0  0  0  0  0  0  0  0  0  0  0  0
   -2.0166    9.6142    0.1215 C   0  0  0  0  0  0  0  0  0  0  0  0
   -1.5072    9.3190   -1.0916 C   0  0  0  0  0  0  0  0  0  0  0  0
   -0.6698    8.2823   -1.2291 C   0  0  0  0  0  0  0  0  0  0  0  0
   -0.1575    7.9867   -2.4231 N   0  0  0  0  0  0  0  0  0  0  0  0
   -0.3171    7.5780   -0.1586 N   0  0  0  0  0  0  0  0  0  0  0  0
   -2.8780   10.6346    0.2681 C   0  0  0  0  0  0  0  0  0  0  0  0
   -3.1299   11.4519   -0.7999 C   0  0  0  0  0  0  0  0  0  0  0  0
   -3.2496   12.8403   -0.5524 O   0  0  0  0  0  0  0  0  0  0  0  0
   -2.7727   11.0312   -2.0245 C   0  0  0  0  0  0  0  0  0  0  0  0
   -3.4022   11.5858   -3.1710 O   0  0  0  0  0  0  0  0  0  0  0  0
   -1.8795   10.0319   -2.1639 C   0  0  0  0  0  0  0  0  0  0  0  0
   -0.4360    7.2086    2.1075 N   0  0  0  0  0  0  0  0  0  0  0  0
    0.8006    6.7018    2.0940 C   0  0  0  0  0  0  0  0  0  0  0  0
    0.8362    5.4352    1.2524 C   0  0  0  0  0  0  0  0  0  0  0  0
   -0.0145    4.4945    1.7950 N   0  0  0  0  0  0  0  0  0  0  0  0
   -1.2852    5.0260    1.7588 C   0  0  0  0  0  0  0  0  0  0  0  0
   -1.3250    6.2891    2.6026 C   0  0  0  0  0  0  0  0  0  0  0  0
   -4.5204   13.0774   -0.0030 C   0  0  0  0  0  0  0  0  0  0  0  0
   -3.6640   10.5533   -4.0851 C   0  0  0  0  0  0  0  0  0  0  0  0
  1 14  1  0  0  0  0
  1  2  2  0  0  0  0
  3  2  1  0  0  0  0
  3  8  2  0  0  0  0
  4  3  1  0  0  0  0
  5  7  2  0  0  0  0
  5  4  1  0  0  0  0
  6  5  1  0  0  0  0
  7  1  1  0  0  0  0
  9 10  1  0  0  0  0
  9  8  1  0  0  0  0
 11  9  2  0  0  0  0
 12 11  1  0  0  0  0
 13  4  2  0  0  0  0
 13 11  1  0  0  0  0
 14 15  1  0  0  0  0
 16 15  1  0  0  0  0
 17 16  1  0  0  0  0
 18 17  1  0  0  0  0
 18 19  1  0  0  0  0
 19 14  1  0  0  0  0
 20 10  1  0  0  0  0
 21 12  1  0  0  0  0
M  END
>  <CHROM.1>
-147.17180013,-77.49688742,-138.43042907,-1.62933103,8.85741291,-0.18496706
0.62025157,-1.01447361,1.73259084

>  <Name>
lig.pdb

>  <RI>
2.05709e+07

>  <Rbt.Current_Directory>
/home/itssahil/PROJECTS/Mol_Feturizer/New_Systems/rnas/2lwk

>  <Rbt.Executable>
rbdock ($Id: //depot/dev/client3/rdock/2013.1/src/exe/rbdock.cxx#4 $)

>  <Rbt.Library>
libRbt.so (2013.1, Build901 2013/11/27)

>  <Rbt.Parameter_File>
/export/apps/rDock/src/rDock_2013.1_src/data/scripts/dock_solv.prm

>  <Rbt.Receptor>
prm/blind_docking_40.prm

>  <SCORE>
-20.8992

>  <SCORE.INTER>
-22.1146

>  <SCORE.INTER.CONST>
1

>  <SCORE.INTER.POLAR>
-1.76768

>  <SCORE.INTER.ROT>
3

>  <SCORE.INTER.SOLV>
15.0083

>  <SCORE.INTER.VDW>
-19.4536

>  <SCORE.INTER.norm>
-1.05308

>  <SCORE.INTRA>
-1.00713

>  <SCORE.INTRA.DIHEDRAL>
-2.59973

>  <SCORE.INTRA.DIHEDRAL.0>
8.84257

>  <SCORE.INTRA.POLAR>
0

>  <SCORE.INTRA.POLAR.0>
0

>  <SCORE.INTRA.REPUL>
0

>  <SCORE.INTRA.REPUL.0>
0

>  <SCORE.INTRA.SOLV>
0.0381066

>  <SCORE.INTRA.SOLV.lig_0>
-17.1313

>  <SCORE.INTRA.VDW>
0.273676

>  <SCORE.INTRA.VDW.0>
6.34071

>  <SCORE.INTRA.norm>
-0.0479587

>  <SCORE.RESTR>
2.22257

>  <SCORE.RESTR.CAVITY>
2.22257

>  <SCORE.RESTR.norm>
0.105837

>  <SCORE.SYSTEM>
0

>  <SCORE.SYSTEM.CONST>
0

>  <SCORE.SYSTEM.DIHEDRAL>
0

>  <SCORE.SYSTEM.SOLV>
0

>  <SCORE.SYSTEM.norm>
0

>  <SCORE.heavy>
21

>  <SCORE.norm>
-0.9952

>  <RMSD>
13.034

$$$$
lig.pdb
 OpenBabel11021811453D
libRbt.so/2013.1/901 2013/11/27
 21 23  0  0  0  0  0  0  0  0999 V2000
   -0.7980    7.9193    1.0314 C   0  0  0  0  0  0  0  0  0  0  0  0
   -1.6213    8.9525    1.1694 N   0  0  0  0  0  0  0  0  0  0  0  0
   -2.0101    9.6335    0.1065 C   0  0  0  0  0  0  0  0  0  0  0  0
   -1.5160    9.3220   -1.1088 C   0  0  0  0  0  0  0  0  0  0  0  0
   -0.6887    8.2770   -1.2446 C   0  0  0  0  0  0  0  0  0  0  0  0
   -0.1916    7.9651   -2.4409 N   0  0  0  0  0  0  0  0  0  0  0  0
   -0.3306    7.5805   -0.1709 N   0  0  0  0  0  0  0  0  0  0  0  0
   -2.8614   10.6626    0.2519 C   0  0  0  0  0  0  0  0  0  0  0  0
   -3.1179   11.4712   -0.8217 C   0  0  0  0  0  0  0  0  0  0  0  0
   -3.2233   12.8630   -0.5869 O   0  0  0  0  0  0  0  0  0  0  0  0
   -2.7771   11.0353   -2.0456 C   0  0  0  0  0  0  0  0  0  0  0  0
   -3.4141   11.5837   -3.1909 O   0  0  0  0  0  0  0  0  0  0  0  0
   -1.8938   10.0272   -2.1842 C   0  0  0  0  0  0  0  0  0  0  0  0
   -0.4285    7.2348    2.1000 N   0  0  0  0  0  0  0  0  0  0  0  0
    0.8040    6.7183    2.0790 C   0  0  0  0  0  0  0  0  0  0  0  0
    0.8212    5.4432    1.2496 C   0  0  0  0  0  0  0  0  0  0  0  0
   -0.0311    4.5145    1.8101 N   0  0  0  0  0  0  0  0  0  0  0  0
   -1.2980    5.0555    1.7815 C   0  0  0  0  0  0  0  0  0  0  0  0
   -1.3195    6.3272    2.6132 C   0  0  0  0  0  0  0  0  0  0  0  0
   -4.4987   13.1205   -0.0576 C   0  0  0  0  0  0  0  0  0  0  0  0
   -3.8040   10.5329   -4.0361 C   0  0  0  0  0  0  0  0  0  0  0  0
  1 14  1  0  0  0  0
  1  2  2  0  0  0  0
  3  2  1  0  0  0  0
  3  8  2  0  0  0  0
  4  3  1  0  0  0  0
  5  7  2  0  0  0  0
  5  4  1  0  0  0  0
  6  5  1  0  0  0  0
  7  1  1  0  0  0  0
  9 10  1  0  0  0  0
  9  8  1  0  0  0  0
 11  9  2  0  0  0  0
 12 11  1  0  0  0  0
 13  4  2  0  0  0  0
 13 11  1  0  0  0  0
 14 15  1  0  0  0  0
 16 15  1  0  0  0  0
 17 16  1  0  0  0  0
 18 17  1  0  0  0  0
 18 19  1  0  0  0  0
 19 14  1  0  0  0  0
 20 10  1  0  0  0  0
 21 12  1  0  0  0  0
M  END
>  <CHROM.1>
-147.13006182,-78.94019699,-133.09801455,-1.63845741,8.87020190,-0.19511139
0.59390560,-1.02408158,1.69921797

>  <Name>
lig.pdb

>  <RI>
1.99026e+07

>  <Rbt.Current_Directory>
/home/itssahil/PROJECTS/Mol_Feturizer/New_Systems/rnas/2lwk

>  <Rbt.Executable>
rbdock ($Id: //depot/dev/client3/rdock/2013.1/src/exe/rbdock.cxx#4 $)

>  <Rbt.Library>
libRbt.so (2013.1, Build901 2013/11/27)

>  <Rbt.Parameter_File>
/export/apps/rDock/src/rDock_2013.1_src/data/scripts/dock_solv.prm

>  <Rbt.Receptor>
prm/blind_docking_60.prm

>  <SCORE>
-21.5429

>  <SCORE.INTER>
-22.1785

>  <SCORE.INTER.CONST>
1

>  <SCORE.INTER.POLAR>
-1.7947

>  <SCORE.INTER.ROT>
3

>  <SCORE.INTER.SOLV>
14.9236

>  <SCORE.INTER.VDW>
-19.3779

>  <SCORE.INTER.norm>
-1.05612

>  <SCORE.INTRA>
-1.73868

>  <SCORE.INTRA.DIHEDRAL>
-2.07493

>  <SCORE.INTRA.DIHEDRAL.0>
8.84257

>  <SCORE.INTRA.POLAR>
0

>  <SCORE.INTRA.POLAR.0>
0

>  <SCORE.INTRA.REPUL>
0

>  <SCORE.INTRA.REPUL.0>
0

>  <SCORE.INTRA.SOLV>
0.0322003

>  <SCORE.INTRA.SOLV.lig_0>
-17.1313

>  <SCORE.INTRA.VDW>
-0.717317

>  <SCORE.INTRA.VDW.0>
6.34071

>  <SCORE.INTRA.norm>
-0.0827943

>  <SCORE.RESTR>
2.37427

>  <SCORE.RESTR.CAVITY>
2.37427

>  <SCORE.RESTR.norm>
0.11306

>  <SCORE.SYSTEM>
0

>  <SCORE.SYSTEM.CONST>
0

>  <SCORE.SYSTEM.DIHEDRAL>
0

>  <SCORE.SYSTEM.SOLV>
0

>  <SCORE.SYSTEM.norm>
0

>  <SCORE.heavy>
21

>  <SCORE.norm>
-1.02585

>  <RMSD>
13.041

$$$$
lig.pdb
 OpenBabel11021811453D
libRbt.so/2013.1/901 2013/11/27
 21 23  0  0  0  0  0  0  0  0999 V2000
   -0.7975    7.9174    1.0348 C   0  0  0  0  0  0  0  0  0  0  0  0
   -1.6327    8.9403    1.1781 N   0  0  0  0  0  0  0  0  0  0  0  0
   -2.0189    9.6306    0.1201 C   0  0  0  0  0  0  0  0  0  0  0  0
   -1.5106    9.3393   -1.0944 C   0  0  0  0  0  0  0  0  0  0  0  0
   -0.6713    8.3046   -1.2355 C   0  0  0  0  0  0  0  0  0  0  0  0
   -0.1601    8.0128   -2.4310 N   0  0  0  0  0  0  0  0  0  0  0  0
   -0.3157    7.5985   -0.1672 N   0  0  0  0  0  0  0  0  0  0  0  0
   -2.8820   10.6489    0.2704 C   0  0  0  0  0  0  0  0  0  0  0  0
   -3.1371   11.4682   -0.7954 C   0  0  0  0  0  0  0  0  0  0  0  0
   -3.2592   12.8558   -0.5443 O   0  0  0  0  0  0  0  0  0  0  0  0
   -2.7808   11.0511   -2.0214 C   0  0  0  0  0  0  0  0  0  0  0  0
   -3.4130   11.6072   -3.1657 O   0  0  0  0  0  0  0  0  0  0  0  0
   -1.8859   10.0540   -2.1644 C   0  0  0  0  0  0  0  0  0  0  0  0
   -0.4306    7.2234    2.0983 N   0  0  0  0  0  0  0  0  0  0  0  0
    0.8065    6.7180    2.0811 C   0  0  0  0  0  0  0  0  0  0  0  0
    0.8415    5.4530    1.2369 C   0  0  0  0  0  0  0  0  0  0  0  0
   -0.0071    4.5104    1.7794 N   0  0  0  0  0  0  0  0  0  0  0  0
   -1.2784    5.0407    1.7469 C   0  0  0  0  0  0  0  0  0  0  0  0
   -1.3177    6.3021    2.5933 C   0  0  0  0  0  0  0  0  0  0  0  0
   -4.5475   13.0958   -0.0386 C   0  0  0  0  0  0  0  0  0  0  0  0
   -3.7858   10.5630   -4.0266 C   0  0  0  0  0  0  0  0  0  0  0  0
  1 14  1  0  0  0  0
  1  2  2  0  0  0  0
  3  2  1  0  0  0  0
  3  8  2  0  0  0  0
  4  3  1  0  0  0  0
  5  7  2  0  0  0  0
  5  4  1  0  0  0  0
  6  5  1  0  0  0  0
  7  1  1  0  0  0  0
  9 10  1  0  0  0  0
  9  8  1  0  0  0  0
 11  9  2  0  0  0  0
 12 11  1  0  0  0  0
 13  4  2  0  0  0  0
 13 11  1  0  0  0  0
 14 15  1  0  0  0  0
 16 15  1  0  0  0  0
 17 16  1  0  0  0  0
 18 17  1  0  0  0  0
 18 19  1  0  0  0  0
 19 14  1  0  0  0  0
 20 10  1  0  0  0  0
 21 12  1  0  0  0  0
M  END
>  <CHROM.1>
-147.24497349,-79.63245331,-133.02618507,-1.63766458,8.87488294,-0.18807260
0.60944964,-1.01238787,1.72492344

>  <Name>
lig.pdb

>  <RI>
1.99026e+07

>  <Rbt.Current_Directory>
/home/itssahil/PROJECTS/Mol_Feturizer/New_Systems/rnas/2lwk

>  <Rbt.Executable>
rbdock ($Id: //depot/dev/client3/rdock/2013.1/src/exe/rbdock.cxx#4 $)

>  <Rbt.Library>
libRbt.so (2013.1, Build901 2013/11/27)

>  <Rbt.Parameter_File>
/export/apps/rDock/src/rDock_2013.1_src/data/scripts/dock_solv.prm

>  <Rbt.Receptor>
prm/blind_docking_60.prm

>  <SCORE>
-21.397

>  <SCORE.INTER>
-21.973

>  <SCORE.INTER.CONST>
1

>  <SCORE.INTER.POLAR>
-1.80489

>  <SCORE.INTER.ROT>
3

>  <SCORE.INTER.SOLV>
14.9866

>  <SCORE.INTER.VDW>
-19.2279

>  <SCORE.INTER.norm>
-1.04633

>  <SCORE.INTRA>
-1.76299

>  <SCORE.INTRA.DIHEDRAL>
-2.03102

>  <SCORE.INTRA.DIHEDRAL.0>
8.84257

>  <SCORE.INTRA.POLAR>
0

>  <SCORE.INTRA.POLAR.0>
0

>  <SCORE.INTRA.REPUL>
0

>  <SCORE.INTRA.REPUL.0>
0

>  <SCORE.INTRA.SOLV>
0.0324731

>  <SCORE.INTRA.SOLV.lig_0>
-17.1313

>  <SCORE.INTRA.VDW>
-0.763712

>  <SCORE.INTRA.VDW.0>
6.34071

>  <SCORE.INTRA.norm>
-0.0839517

>  <SCORE.RESTR>
2.33904

>  <SCORE.RESTR.CAVITY>
2.33904

>  <SCORE.RESTR.norm>
0.111383

>  <SCORE.SYSTEM>
0

>  <SCORE.SYSTEM.CONST>
0

>  <SCORE.SYSTEM.DIHEDRAL>
0

>  <SCORE.SYSTEM.SOLV>
0

>  <SCORE.SYSTEM.norm>
0

>  <SCORE.heavy>
21

>  <SCORE.norm>
-1.0189

>  <RMSD>
13.042

$$$$
lig.pdb
 OpenBabel11021811453D
libRbt.so/2013.1/901 2013/11/27
 21 23  0  0  0  0  0  0  0  0999 V2000
   -0.7704    7.9848    1.0697 C   0  0  0  0  0  0  0  0  0  0  0  0
   -1.6205    8.9943    1.2196 N   0  0  0  0  0  0  0  0  0  0  0  0
   -2.0244    9.6794    0.1650 C   0  0  0  0  0  0  0  0  0  0  0  0
   -1.5197    9.3973   -1.0532 C   0  0  0  0  0  0  0  0  0  0  0  0
   -0.6653    8.3761   -1.2010 C   0  0  0  0  0  0  0  0  0  0  0  0
   -0.1576    8.0934   -2.4001 N   0  0  0  0  0  0  0  0  0  0  0  0
   -0.2916    7.6746   -0.1358 N   0  0  0  0  0  0  0  0  0  0  0  0
   -2.9024   10.6840    0.3221 C   0  0  0  0  0  0  0  0  0  0  0  0
   -3.1774   11.5003   -0.7411 C   0  0  0  0  0  0  0  0  0  0  0  0
   -3.3194   12.8855   -0.4878 O   0  0  0  0  0  0  0  0  0  0  0  0
   -2.8227   11.0899   -1.9700 C   0  0  0  0  0  0  0  0  0  0  0  0
   -3.4711   11.6372   -3.1094 O   0  0  0  0  0  0  0  0  0  0  0  0
   -1.9133   10.1071   -2.1199 C   0  0  0  0  0  0  0  0  0  0  0  0
   -0.3856    7.2956    2.1300 N   0  0  0  0  0  0  0  0  0  0  0  0
    0.8024    6.6889    2.0463 C   0  0  0  0  0  0  0  0  0  0  0  0
    0.6749    5.4002    1.2482 C   0  0  0  0  0  0  0  0  0  0  0  0
   -0.2061    4.5483    1.8816 N   0  0  0  0  0  0  0  0  0  0  0  0
   -1.4295    5.1810    1.9172 C   0  0  0  0  0  0  0  0  0  0  0  0
   -1.3064    6.4667    2.7179 C   0  0  0  0  0  0  0  0  0  0  0  0
   -4.5683   13.0916    0.1212 C   0  0  0  0  0  0  0  0  0  0  0  0
   -3.7321   10.6014   -4.0201 C   0  0  0  0  0  0  0  0  0  0  0  0
  1 14  1  0  0  0  0
  1  2  2  0  0  0  0
  3  2  1  0  0  0  0
  3  8  2  0  0  0  0
  4  3  1  0  0  0  0
  5  7  2  0  0  0  0
  5  4  1  0  0  0  0
  6  5  1  0  0  0  0
  7  1  1  0  0  0  0
  9 10  1  0  0  0  0
  9  8  1  0  0  0  0
 11  9  2  0  0  0  0
 12 11  1  0  0  0  0
 13  4  2  0  0  0  0
 13 11  1  0  0  0  0
 14 15  1  0  0  0  0
 16 15  1  0  0  0  0
 17 16  1  0  0  0  0
 18 17  1  0  0  0  0
 18 19  1  0  0  0  0
 19 14  1  0  0  0  0
 20 10  1  0  0  0  0
 21 12  1  0  0  0  0
M  END
>  <CHROM.1>
-154.20677255,-75.19675182,-137.94695759,-1.66855430,8.92413535,-0.13282745
0.64267704,-1.00475206,1.75700205

>  <Name>
lig.pdb

>  <RI>
3.07369e+07

>  <Rbt.Current_Directory>
/home/itssahil/PROJECTS/Mol_Feturizer/New_Systems/rnas/2lwk

>  <Rbt.Executable>
rbdock ($Id: //depot/dev/client3/rdock/2013.1/src/exe/rbdock.cxx#4 $)

>  <Rbt.Library>
libRbt.so (2013.1, Build901 2013/11/27)

>  <Rbt.Parameter_File>
/export/apps/rDock/src/rDock_2013.1_src/data/scripts/dock_solv.prm

>  <Rbt.Receptor>
prm/blind_docking_100.prm

>  <SCORE>
-21.4572

>  <SCORE.INTER>
-22.5137

>  <SCORE.INTER.CONST>
1

>  <SCORE.INTER.POLAR>
-1.69864

>  <SCORE.INTER.ROT>
3

>  <SCORE.INTER.SOLV>
14.7658

>  <SCORE.INTER.VDW>
-19.8689

>  <SCORE.INTER.norm>
-1.07208

>  <SCORE.INTRA>
-0.731143

>  <SCORE.INTRA.DIHEDRAL>
-2.69613

>  <SCORE.INTRA.DIHEDRAL.0>
8.84257

>  <SCORE.INTRA.POLAR>
0

>  <SCORE.INTRA.POLAR.0>
0

>  <SCORE.INTRA.REPUL>
0

>  <SCORE.INTRA.REPUL.0>
0

>  <SCORE.INTRA.SOLV>
0.0188492

>  <SCORE.INTRA.SOLV.lig_0>
-17.1313

>  <SCORE.INTRA.VDW>
0.607499

>  <SCORE.INTRA.VDW.0>
6.34071

>  <SCORE.INTRA.norm>
-0.0348163

>  <SCORE.RESTR>
1.7876

>  <SCORE.RESTR.CAVITY>
1.7876

>  <SCORE.RESTR.norm>
0.085124

>  <SCORE.SYSTEM>
0

>  <SCORE.SYSTEM.CONST>
0

>  <SCORE.SYSTEM.DIHEDRAL>
0

>  <SCORE.SYSTEM.SOLV>
0

>  <SCORE.SYSTEM.norm>
0

>  <SCORE.heavy>
21

>  <SCORE.norm>
-1.02177

>  <RMSD>
13.045

$$$$
lig.pdb
 OpenBabel11021811453D
libRbt.so/2013.1/901 2013/11/27
 21 23  0  0  0  0  0  0  0  0999 V2000
   -0.8183    7.9559    1.1024 C   0  0  0  0  0  0  0  0  0  0  0  0
   -1.6455    8.9884    1.2208 N   0  0  0  0  0  0  0  0  0  0  0  0
   -2.0209    9.6601    0.1471 C   0  0  0  0  0  0  0  0  0  0  0  0
   -1.5093    9.3398   -1.0587 C   0  0  0  0  0  0  0  0  0  0  0  0
   -0.6781    8.2955   -1.1746 C   0  0  0  0  0  0  0  0  0  0  0  0
   -0.1639    7.9751   -2.3614 N   0  0  0  0  0  0  0  0  0  0  0  0
   -0.3335    7.6085   -0.0905 N   0  0  0  0  0  0  0  0  0  0  0  0
   -2.8761   10.6884    0.2724 C   0  0  0  0  0  0  0  0  0  0  0  0
   -3.1194   11.4879   -0.8111 C   0  0  0  0  0  0  0  0  0  0  0  0
   -3.2309   12.8812   -0.5891 O   0  0  0  0  0  0  0  0  0  0  0  0
   -2.7608   11.0428   -2.0267 C   0  0  0  0  0  0  0  0  0  0  0  0
   -3.3830   11.5806   -3.1851 O   0  0  0  0  0  0  0  0  0  0  0  0
   -1.8736   10.0356   -2.1449 C   0  0  0  0  0  0  0  0  0  0  0  0
   -0.4621    7.2808    2.1816 N   0  0  0  0  0  0  0  0  0  0  0  0
    0.7710    6.7655    2.1811 C   0  0  0  0  0  0  0  0  0  0  0  0
    0.8004    5.4835    1.3628 C   0  0  0  0  0  0  0  0  0  0  0  0
   -0.0583    4.5586    1.9199 N   0  0  0  0  0  0  0  0  0  0  0  0
   -1.3252    5.0980    1.8700 C   0  0  0  0  0  0  0  0  0  0  0  0
   -1.3589    6.3766    2.6905 C   0  0  0  0  0  0  0  0  0  0  0  0
   -4.5081   13.1383   -0.0639 C   0  0  0  0  0  0  0  0  0  0  0  0
   -3.6400   10.5347   -4.0852 C   0  0  0  0  0  0  0  0  0  0  0  0
  1 14  1  0  0  0  0
  1  2  2  0  0  0  0
  3  2  1  0  0  0  0
  3  8  2  0  0  0  0
  4  3  1  0  0  0  0
  5  7  2  0  0  0  0
  5  4  1  0  0  0  0
  6  5  1  0  0  0  0
  7  1  1  0  0  0  0
  9 10  1  0  0  0  0
  9  8  1  0  0  0  0
 11  9  2  0  0  0  0
 12 11  1  0  0  0  0
 13  4  2  0  0  0  0
 13 11  1  0  0  0  0
 14 15  1  0  0  0  0
 16 15  1  0  0  0  0
 17 16  1  0  0  0  0
 18 17  1  0  0  0  0
 18 19  1  0  0  0  0
 19 14  1  0  0  0  0
 20 10  1  0  0  0  0
 21 12  1  0  0  0  0
M  END
>  <CHROM.1>
-147.20396313,-78.21925724,-138.83355066,-1.63748568,8.89558073,-0.14530055
0.62988817,-1.01983972,1.72284488

>  <Name>
lig.pdb

>  <RI>
4.07847e+07

>  <Rbt.Current_Directory>
/home/itssahil/PROJECTS/Mol_Feturizer/New_Systems/rnas/2lwk

>  <Rbt.Executable>
rbdock ($Id: //depot/dev/client3/rdock/2013.1/src/exe/rbdock.cxx#4 $)

>  <Rbt.Library>
libRbt.so (2013.1, Build901 2013/11/27)

>  <Rbt.Parameter_File>
/export/apps/rDock/src/rDock_2013.1_src/data/scripts/dock_solv.prm

>  <Rbt.Receptor>
prm/blind_docking_20.prm

>  <SCORE>
-21.0632

>  <SCORE.INTER>
-21.8772

>  <SCORE.INTER.CONST>
1

>  <SCORE.INTER.POLAR>
-1.67

>  <SCORE.INTER.ROT>
3

>  <SCORE.INTER.SOLV>
14.9597

>  <SCORE.INTER.VDW>
-19.6047

>  <SCORE.INTER.norm>
-1.04177

>  <SCORE.INTRA>
-0.97388

>  <SCORE.INTRA.DIHEDRAL>
-2.59137

>  <SCORE.INTRA.DIHEDRAL.0>
8.84257

>  <SCORE.INTRA.POLAR>
0

>  <SCORE.INTRA.POLAR.0>
0

>  <SCORE.INTRA.REPUL>
0

>  <SCORE.INTRA.REPUL.0>
0

>  <SCORE.INTRA.SOLV>
0.0392006

>  <SCORE.INTRA.SOLV.lig_0>
-17.1313

>  <SCORE.INTRA.VDW>
0.302206

>  <SCORE.INTRA.VDW.0>
6.34071

>  <SCORE.INTRA.norm>
-0.0463752

>  <SCORE.RESTR>
1.78792

>  <SCORE.RESTR.CAVITY>
1.78792

>  <SCORE.RESTR.norm>
0.0851388

>  <SCORE.SYSTEM>
0

>  <SCORE.SYSTEM.CONST>
0

>  <SCORE.SYSTEM.DIHEDRAL>
0

>  <SCORE.SYSTEM.SOLV>
0

>  <SCORE.SYSTEM.norm>
0

>  <SCORE.heavy>
21

>  <SCORE.norm>
-1.00301

>  <RMSD>
13.046

$$$$
lig.pdb
 OpenBabel11021811453D
libRbt.so/2013.1/901 2013/11/27
 21 23  0  0  0  0  0  0  0  0999 V2000
   -0.8014    7.9134    1.0544 C   0  0  0  0  0  0  0  0  0  0  0  0
   -1.6324    8.9401    1.1938 N   0  0  0  0  0  0  0  0  0  0  0  0
   -2.0107    9.6319    0.1341 C   0  0  0  0  0  0  0  0  0  0  0  0
   -1.4984    9.3380   -1.0781 C   0  0  0  0  0  0  0  0  0  0  0  0
   -0.6634    8.2994   -1.2153 C   0  0  0  0  0  0  0  0  0  0  0  0
   -0.1483    8.0050   -2.4085 N   0  0  0  0  0  0  0  0  0  0  0  0
   -0.3158    7.5919   -0.1454 N   0  0  0  0  0  0  0  0  0  0  0  0
   -2.8698   10.6544    0.2803 C   0  0  0  0  0  0  0  0  0  0  0  0
   -3.1164   11.4746   -0.7867 C   0  0  0  0  0  0  0  0  0  0  0  0
   -3.2331   12.8627   -0.5365 O   0  0  0  0  0  0  0  0  0  0  0  0
   -2.7566   11.0555   -2.0111 C   0  0  0  0  0  0  0  0  0  0  0  0
   -3.3812   11.6143   -3.1583 O   0  0  0  0  0  0  0  0  0  0  0  0
   -1.8657   10.0542   -2.1500 C   0  0  0  0  0  0  0  0  0  0  0  0
   -0.4424    7.2179    2.1197 N   0  0  0  0  0  0  0  0  0  0  0  0
    0.7937    6.7097    2.1096 C   0  0  0  0  0  0  0  0  0  0  0  0
    0.8309    5.4452    1.2648 C   0  0  0  0  0  0  0  0  0  0  0  0
   -0.0231    4.5041    1.8017 N   0  0  0  0  0  0  0  0  0  0  0  0
   -1.2929    5.0373    1.7619 C   0  0  0  0  0  0  0  0  0  0  0  0
   -1.3345    6.2983    2.6088 C   0  0  0  0  0  0  0  0  0  0  0  0
   -4.5013   13.1007    0.0186 C   0  0  0  0  0  0  0  0  0  0  0  0
   -3.6284   10.5868   -4.0821 C   0  0  0  0  0  0  0  0  0  0  0  0
  1 14  1  0  0  0  0
  1  2  2  0  0  0  0
  3  2  1  0  0  0  0
  3  8  2  0  0  0  0
  4  3  1  0  0  0  0
  5  7  2  0  0  0  0
  5  4  1  0  0  0  0
  6  5  1  0  0  0  0
  7  1  1  0  0  0  0
  9 10  1  0  0  0  0
  9  8  1  0  0  0  0
 11  9  2  0  0  0  0
 12 11  1  0  0  0  0
 13  4  2  0  0  0  0
 13 11  1  0  0  0  0
 14 15  1  0  0  0  0
 16 15  1  0  0  0  0
 17 16  1  0  0  0  0
 18 17  1  0  0  0  0
 18 19  1  0  0  0  0
 19 14  1  0  0  0  0
 20 10  1  0  0  0  0
 21 12  1  0  0  0  0
M  END
>  <CHROM.1>
-147.07292582,-77.07188255,-139.13280110,-1.62295574,8.87498493,-0.17287166
0.62706442,-1.01659872,1.74062267

>  <Name>
lig.pdb

>  <RI>
1.05666e+07

>  <Rbt.Current_Directory>
/home/itssahil/PROJECTS/Mol_Feturizer/New_Systems/rnas/2lwk

>  <Rbt.Executable>
rbdock ($Id: //depot/dev/client3/rdock/2013.1/src/exe/rbdock.cxx#4 $)

>  <Rbt.Library>
libRbt.so (2013.1, Build901 2013/11/27)

>  <Rbt.Parameter_File>
/export/apps/rDock/src/rDock_2013.1_src/data/scripts/dock_solv.prm

>  <Rbt.Receptor>
prm/blind_docking_80.prm

>  <SCORE>
-20.7857

>  <SCORE.INTER>
-22.0914

>  <SCORE.INTER.CONST>
1

>  <SCORE.INTER.POLAR>
-1.74958

>  <SCORE.INTER.ROT>
3

>  <SCORE.INTER.SOLV>
15.0668

>  <SCORE.INTER.VDW>
-19.5179

>  <SCORE.INTER.norm>
-1.05197

>  <SCORE.INTRA>
-0.900819

>  <SCORE.INTRA.DIHEDRAL>
-2.68205

>  <SCORE.INTRA.DIHEDRAL.0>
8.84257

>  <SCORE.INTRA.POLAR>
0

>  <SCORE.INTRA.POLAR.0>
0

>  <SCORE.INTRA.REPUL>
0

>  <SCORE.INTRA.REPUL.0>
0

>  <SCORE.INTRA.SOLV>
0.038861

>  <SCORE.INTRA.SOLV.lig_0>
-17.1313

>  <SCORE.INTRA.VDW>
0.420773

>  <SCORE.INTRA.VDW.0>
6.34071

>  <SCORE.INTRA.norm>
-0.0428962

>  <SCORE.RESTR>
2.20655

>  <SCORE.RESTR.CAVITY>
2.20655

>  <SCORE.RESTR.norm>
0.105074

>  <SCORE.SYSTEM>
0

>  <SCORE.SYSTEM.CONST>
0

>  <SCORE.SYSTEM.DIHEDRAL>
0

>  <SCORE.SYSTEM.SOLV>
0

>  <SCORE.SYSTEM.norm>
0

>  <SCORE.heavy>
21

>  <SCORE.norm>
-0.989794

>  <RMSD>
13.049

$$$$
lig.pdb
 OpenBabel11021811453D
libRbt.so/2013.1/901 2013/11/27
 21 23  0  0  0  0  0  0  0  0999 V2000
   -0.7946    7.9213    1.0298 C   0  0  0  0  0  0  0  0  0  0  0  0
   -1.6216    8.9513    1.1695 N   0  0  0  0  0  0  0  0  0  0  0  0
   -2.0073    9.6370    0.1084 C   0  0  0  0  0  0  0  0  0  0  0  0
   -1.5064    9.3335   -1.1062 C   0  0  0  0  0  0  0  0  0  0  0  0
   -0.6755    8.2917   -1.2436 C   0  0  0  0  0  0  0  0  0  0  0  0
   -0.1717    7.9877   -2.4392 N   0  0  0  0  0  0  0  0  0  0  0  0
   -0.3204    7.5904   -0.1720 N   0  0  0  0  0  0  0  0  0  0  0  0
   -2.8623   10.6628    0.2552 C   0  0  0  0  0  0  0  0  0  0  0  0
   -3.1160   11.4765   -0.8152 C   0  0  0  0  0  0  0  0  0  0  0  0
   -3.2267   12.8666   -0.5734 O   0  0  0  0  0  0  0  0  0  0  0  0
   -2.7681   11.0481   -2.0398 C   0  0  0  0  0  0  0  0  0  0  0  0
   -3.4011   11.6009   -3.1852 O   0  0  0  0  0  0  0  0  0  0  0  0
   -1.8811   10.0434   -2.1796 C   0  0  0  0  0  0  0  0  0  0  0  0
   -0.4282    7.2321    2.0966 N   0  0  0  0  0  0  0  0  0  0  0  0
    0.8071    6.7223    2.0802 C   0  0  0  0  0  0  0  0  0  0  0  0
    0.8364    5.4526    1.2430 C   0  0  0  0  0  0  0  0  0  0  0  0
   -0.0145    4.5159    1.7923 N   0  0  0  0  0  0  0  0  0  0  0  0
   -1.2840    5.0503    1.7589 C   0  0  0  0  0  0  0  0  0  0  0  0
   -1.3176    6.3166    2.5983 C   0  0  0  0  0  0  0  0  0  0  0  0
   -4.5160   13.1217   -0.0777 C   0  0  0  0  0  0  0  0  0  0  0  0
   -3.7054   10.5610   -4.0777 C   0  0  0  0  0  0  0  0  0  0  0  0
  1 14  1  0  0  0  0
  1  2  2  0  0  0  0
  3  2  1  0  0  0  0
  3  8  2  0  0  0  0
  4  3  1  0  0  0  0
  5  7  2  0  0  0  0
  5  4  1  0  0  0  0
  6  5  1  0  0  0  0
  7  1  1  0  0  0  0
  9 10  1  0  0  0  0
  9  8  1  0  0  0  0
 11  9  2  0  0  0  0
 12 11  1  0  0  0  0
 13  4  2  0  0  0  0
 13 11  1  0  0  0  0
 14 15  1  0  0  0  0
 16 15  1  0  0  0  0
 17 16  1  0  0  0  0
 18 17  1  0  0  0  0
 18 19  1  0  0  0  0
 19 14  1  0  0  0  0
 20 10  1  0  0  0  0
 21 12  1  0  0  0  0
M  END
>  <CHROM.1>
-146.95930696,-80.27177784,-136.90628383,-1.62738393,8.87719015,-0.19934197
0.60867758,-1.01949190,1.71767619

>  <Name>
lig.pdb

>  <RI>
1.99026e+07

>  <Rbt.Current_Directory>
/home/itssahil/PROJECTS/Mol_Feturizer/New_Systems/rnas/2lwk

>  <Rbt.Executable>
rbdock ($Id: //depot/dev/client3/rdock/2013.1/src/exe/rbdock.cxx#4 $)

>  <Rbt.Library>
libRbt.so (2013.1, Build901 2013/11/27)

>  <Rbt.Parameter_File>
/export/apps/rDock/src/rDock_2013.1_src/data/scripts/dock_solv.prm

>  <Rbt.Receptor>
prm/blind_docking_60.prm

>  <SCORE>
-21.1245

>  <SCORE.INTER>
-22.0817

>  <SCORE.INTER.CONST>
1

>  <SCORE.INTER.POLAR>
-1.80439

>  <SCORE.INTER.ROT>
3

>  <SCORE.INTER.SOLV>
15.0603

>  <SCORE.INTER.VDW>
-19.3266

>  <SCORE.INTER.norm>
-1.05151

>  <SCORE.INTRA>
-1.30068

>  <SCORE.INTRA.DIHEDRAL>
-2.32017

>  <SCORE.INTRA.DIHEDRAL.0>
8.84257

>  <SCORE.INTRA.POLAR>
0

>  <SCORE.INTRA.POLAR.0>
0

>  <SCORE.INTRA.REPUL>
0

>  <SCORE.INTRA.REPUL.0>
0

>  <SCORE.INTRA.SOLV>
0.038952

>  <SCORE.INTRA.SOLV.lig_0>
-17.1313

>  <SCORE.INTRA.VDW>
-0.160071

>  <SCORE.INTRA.VDW.0>
6.34071

>  <SCORE.INTRA.norm>
-0.0619371

>  <SCORE.RESTR>
2.25789

>  <SCORE.RESTR.CAVITY>
2.25789

>  <SCORE.RESTR.norm>
0.107519

>  <SCORE.SYSTEM>
0

>  <SCORE.SYSTEM.CONST>
0

>  <SCORE.SYSTEM.DIHEDRAL>
0

>  <SCORE.SYSTEM.SOLV>
0

>  <SCORE.SYSTEM.norm>
0

>  <SCORE.heavy>
21

>  <SCORE.norm>
-1.00593

>  <RMSD>
13.054

$$$$
lig.pdb
 OpenBabel11021811453D
libRbt.so/2013.1/901 2013/11/27
 21 23  0  0  0  0  0  0  0  0999 V2000
   -3.7339   10.9487    0.7591 C   0  0  0  0  0  0  0  0  0  0  0  0
   -3.0495    9.8511    1.0607 N   0  0  0  0  0  0  0  0  0  0  0  0
   -2.3420    9.2373    0.1291 C   0  0  0  0  0  0  0  0  0  0  0  0
   -2.3715    9.6864   -1.1419 C   0  0  0  0  0  0  0  0  0  0  0  0
   -3.0601   10.7959   -1.4415 C   0  0  0  0  0  0  0  0  0  0  0  0
   -3.0990   11.2439   -2.6959 N   0  0  0  0  0  0  0  0  0  0  0  0
   -3.7420   11.4219   -0.4879 N   0  0  0  0  0  0  0  0  0  0  0  0
   -1.6337    8.1412    0.4476 C   0  0  0  0  0  0  0  0  0  0  0  0
   -1.0514    7.4110   -0.5525 C   0  0  0  0  0  0  0  0  0  0  0  0
   -1.0867    6.0003   -0.4434 O   0  0  0  0  0  0  0  0  0  0  0  0
   -0.9295    7.9735   -1.7662 C   0  0  0  0  0  0  0  0  0  0  0  0
    0.0441    7.4808   -2.6759 O   0  0  0  0  0  0  0  0  0  0  0  0
   -1.6710    9.0505   -2.0914 C   0  0  0  0  0  0  0  0  0  0  0  0
   -4.4252   11.5641    1.7029 N   0  0  0  0  0  0  0  0  0  0  0  0
   -5.7464   11.6424    1.5175 C   0  0  0  0  0  0  0  0  0  0  0  0
   -6.0708   12.7633    0.5416 C   0  0  0  0  0  0  0  0  0  0  0  0
   -5.6305   13.9659    1.0545 N   0  0  0  0  0  0  0  0  0  0  0  0
   -4.2632   13.8714    1.1965 C   0  0  0  0  0  0  0  0  0  0  0  0
   -3.9362   12.7554    2.1746 C   0  0  0  0  0  0  0  0  0  0  0  0
   -0.3610    5.6331    0.7018 C   0  0  0  0  0  0  0  0  0  0  0  0
   -0.5346    6.4596   -3.4457 C   0  0  0  0  0  0  0  0  0  0  0  0
  1 14  1  0  0  0  0
  1  2  2  0  0  0  0
  3  2  1  0  0  0  0
  3  8  2  0  0  0  0
  4  3  1  0  0  0  0
  5  7  2  0  0  0  0
  5  4  1  0  0  0  0
  6  5  1  0  0  0  0
  7  1  1  0  0  0  0
  9 10  1  0  0  0  0
  9  8  1  0  0  0  0
 11  9  2  0  0  0  0
 12 11  1  0  0  0  0
 13  4  2  0  0  0  0
 13 11  1  0  0  0  0
 14 15  1  0  0  0  0
 16 15  1  0  0  0  0
 17 16  1  0  0  0  0
 18 17  1  0  0  0  0
 18 19  1  0  0  0  0
 19 14  1  0  0  0  0
 20 10  1  0  0  0  0
 21 12  1  0  0  0  0
M  END
>  <CHROM.1>
-118.35955008,-63.09262298,89.61343822,-2.79195354,9.88801752,-0.27752016
-3.13670351,0.98453264,-1.16698466

>  <Name>
lig.pdb

>  <RI>
2.05709e+07

>  <Rbt.Current_Directory>
/home/itssahil/PROJECTS/Mol_Feturizer/New_Systems/rnas/2lwk

>  <Rbt.Executable>
rbdock ($Id: //depot/dev/client3/rdock/2013.1/src/exe/rbdock.cxx#4 $)

>  <Rbt.Library>
libRbt.so (2013.1, Build901 2013/11/27)

>  <Rbt.Parameter_File>
/export/apps/rDock/src/rDock_2013.1_src/data/scripts/dock_solv.prm

>  <Rbt.Receptor>
prm/blind_docking_40.prm

>  <SCORE>
-4.72375

>  <SCORE.INTER>
-2.06071

>  <SCORE.INTER.CONST>
1

>  <SCORE.INTER.POLAR>
0

>  <SCORE.INTER.ROT>
3

>  <SCORE.INTER.SOLV>
10.6719

>  <SCORE.INTER.VDW>
-10.5311

>  <SCORE.INTER.norm>
-0.0981291

>  <SCORE.INTRA>
-4.31835

>  <SCORE.INTRA.DIHEDRAL>
-0.734199

>  <SCORE.INTRA.DIHEDRAL.0>
8.84257

>  <SCORE.INTRA.POLAR>
0

>  <SCORE.INTRA.POLAR.0>
0

>  <SCORE.INTRA.REPUL>
0

>  <SCORE.INTRA.REPUL.0>
0

>  <SCORE.INTRA.SOLV>
0.107443

>  <SCORE.INTRA.SOLV.lig_0>
-17.1313

>  <SCORE.INTRA.VDW>
-4.00497

>  <SCORE.INTRA.VDW.0>
6.34071

>  <SCORE.INTRA.norm>
-0.205635

>  <SCORE.RESTR>
1.6553

>  <SCORE.RESTR.CAVITY>
1.6553

>  <SCORE.RESTR.norm>
0.0788239

>  <SCORE.SYSTEM>
0

>  <SCORE.SYSTEM.CONST>
0

>  <SCORE.SYSTEM.DIHEDRAL>
0

>  <SCORE.SYSTEM.SOLV>
0

>  <SCORE.SYSTEM.norm>
0

>  <SCORE.heavy>
21

>  <SCORE.norm>
-0.224941

>  <RMSD>
13.070

$$$$
lig.pdb
 OpenBabel11021811453D
libRbt.so/2013.1/901 2013/11/27
 21 23  0  0  0  0  0  0  0  0999 V2000
   -3.4178   10.2142    1.6916 C   0  0  0  0  0  0  0  0  0  0  0  0
   -3.3794   10.5119    0.3977 N   0  0  0  0  0  0  0  0  0  0  0  0
   -2.5944    9.8270   -0.4144 C   0  0  0  0  0  0  0  0  0  0  0  0
   -1.7819    8.8728    0.0830 C   0  0  0  0  0  0  0  0  0  0  0  0
   -1.8260    8.5728    1.3880 C   0  0  0  0  0  0  0  0  0  0  0  0
   -1.0230    7.6349    1.8890 N   0  0  0  0  0  0  0  0  0  0  0  0
   -2.6438    9.2485    2.1886 N   0  0  0  0  0  0  0  0  0  0  0  0
   -2.5788   10.1187   -1.7256 C   0  0  0  0  0  0  0  0  0  0  0  0
   -1.6381    9.5314   -2.5272 C   0  0  0  0  0  0  0  0  0  0  0  0
   -1.0364   10.3296   -3.5291 O   0  0  0  0  0  0  0  0  0  0  0  0
   -0.9804    8.4579   -2.0592 C   0  0  0  0  0  0  0  0  0  0  0  0
   -0.3668    7.5561   -2.9694 O   0  0  0  0  0  0  0  0  0  0  0  0
   -0.9694    8.1928   -0.7381 C   0  0  0  0  0  0  0  0  0  0  0  0
   -4.2191   10.8954    2.4923 N   0  0  0  0  0  0  0  0  0  0  0  0
   -5.5299   10.6787    2.3471 C   0  0  0  0  0  0  0  0  0  0  0  0
   -6.0575   11.4548    1.1499 C   0  0  0  0  0  0  0  0  0  0  0  0
   -5.8584   12.8052    1.3490 N   0  0  0  0  0  0  0  0  0  0  0  0
   -4.4991   13.0049    1.4540 C   0  0  0  0  0  0  0  0  0  0  0  0
   -3.9698   12.2345    2.6521 C   0  0  0  0  0  0  0  0  0  0  0  0
   -2.0594   10.9125   -4.2953 C   0  0  0  0  0  0  0  0  0  0  0  0
   -1.3359    6.6507   -3.4290 C   0  0  0  0  0  0  0  0  0  0  0  0
  1 14  1  0  0  0  0
  1  2  2  0  0  0  0
  3  2  1  0  0  0  0
  3  8  2  0  0  0  0
  4  3  1  0  0  0  0
  5  7  2  0  0  0  0
  5  4  1  0  0  0  0
  6  5  1  0  0  0  0
  7  1  1  0  0  0  0
  9 10  1  0  0  0  0
  9  8  1  0  0  0  0
 11  9  2  0  0  0  0
 12 11  1  0  0  0  0
 13  4  2  0  0  0  0
 13 11  1  0  0  0  0
 14 15  1  0  0  0  0
 16 15  1  0  0  0  0
 17 16  1  0  0  0  0
 18 17  1  0  0  0  0
 18 19  1  0  0  0  0
 19 14  1  0  0  0  0
 20 10  1  0  0  0  0
 21 12  1  0  0  0  0
M  END
>  <CHROM.1>
70.49867575,-53.24432711,-83.31758966,-2.75057827,9.89568170,-0.15525652
-2.61178678,0.88183455,-1.23497367

>  <Name>
lig.pdb

>  <RI>
1.05666e+07

>  <Rbt.Current_Directory>
/home/itssahil/PROJECTS/Mol_Feturizer/New_Systems/rnas/2lwk

>  <Rbt.Executable>
rbdock ($Id: //depot/dev/client3/rdock/2013.1/src/exe/rbdock.cxx#4 $)

>  <Rbt.Library>
libRbt.so (2013.1, Build901 2013/11/27)

>  <Rbt.Parameter_File>
/export/apps/rDock/src/rDock_2013.1_src/data/scripts/dock_solv.prm

>  <Rbt.Receptor>
prm/blind_docking_80.prm

>  <SCORE>
-5.17624

>  <SCORE.INTER>
-2.08248

>  <SCORE.INTER.CONST>
1

>  <SCORE.INTER.POLAR>
-0.613871

>  <SCORE.INTER.ROT>
3

>  <SCORE.INTER.SOLV>
14.0065

>  <SCORE.INTER.VDW>
-9.61091

>  <SCORE.INTER.norm>
-0.0991655

>  <SCORE.INTRA>
-3.35127

>  <SCORE.INTRA.DIHEDRAL>
-1.50394

>  <SCORE.INTRA.DIHEDRAL.0>
8.84257

>  <SCORE.INTRA.POLAR>
0

>  <SCORE.INTRA.POLAR.0>
0

>  <SCORE.INTRA.REPUL>
0

>  <SCORE.INTRA.REPUL.0>
0

>  <SCORE.INTRA.SOLV>
0.0602301

>  <SCORE.INTRA.SOLV.lig_0>
-17.1313

>  <SCORE.INTRA.VDW>
-2.62941

>  <SCORE.INTRA.VDW.0>
6.34071

>  <SCORE.INTRA.norm>
-0.159584

>  <SCORE.RESTR>
0.257503

>  <SCORE.RESTR.CAVITY>
0.257503

>  <SCORE.RESTR.norm>
0.012262

>  <SCORE.SYSTEM>
0

>  <SCORE.SYSTEM.CONST>
0

>  <SCORE.SYSTEM.DIHEDRAL>
0

>  <SCORE.SYSTEM.SOLV>
0

>  <SCORE.SYSTEM.norm>
0

>  <SCORE.heavy>
21

>  <SCORE.norm>
-0.246488

>  <RMSD>
13.118

$$$$
lig.pdb
 OpenBabel11021811453D
libRbt.so/2013.1/901 2013/11/27
 21 23  0  0  0  0  0  0  0  0999 V2000
   -3.4025   10.2504    1.6979 C   0  0  0  0  0  0  0  0  0  0  0  0
   -3.3760   10.5470    0.4035 N   0  0  0  0  0  0  0  0  0  0  0  0
   -2.5948    9.8646   -0.4144 C   0  0  0  0  0  0  0  0  0  0  0  0
   -1.7741    8.9143    0.0772 C   0  0  0  0  0  0  0  0  0  0  0  0
   -1.8063    8.6155    1.3828 C   0  0  0  0  0  0  0  0  0  0  0  0
   -0.9951    7.6815    1.8781 N   0  0  0  0  0  0  0  0  0  0  0  0
   -2.6203    9.2884    2.1895 N   0  0  0  0  0  0  0  0  0  0  0  0
   -2.5912   10.1552   -1.7260 C   0  0  0  0  0  0  0  0  0  0  0  0
   -1.6546    9.5711   -2.5347 C   0  0  0  0  0  0  0  0  0  0  0  0
   -1.0645   10.3709   -3.5423 O   0  0  0  0  0  0  0  0  0  0  0  0
   -0.9884    8.5008   -2.0711 C   0  0  0  0  0  0  0  0  0  0  0  0
   -0.3784    7.6009   -2.9855 O   0  0  0  0  0  0  0  0  0  0  0  0
   -0.9655    8.2371   -0.7499 C   0  0  0  0  0  0  0  0  0  0  0  0
   -4.2001   10.9289    2.5045 N   0  0  0  0  0  0  0  0  0  0  0  0
   -5.5097   10.6897    2.3857 C   0  0  0  0  0  0  0  0  0  0  0  0
   -6.0709   11.4423    1.1888 C   0  0  0  0  0  0  0  0  0  0  0  0
   -5.8898   12.7982    1.3677 N   0  0  0  0  0  0  0  0  0  0  0  0
   -4.5322   13.0205    1.4456 C   0  0  0  0  0  0  0  0  0  0  0  0
   -3.9694   12.2736    2.6434 C   0  0  0  0  0  0  0  0  0  0  0  0
   -2.0946   10.9070   -4.3327 C   0  0  0  0  0  0  0  0  0  0  0  0
   -1.3254    6.6390   -3.3706 C   0  0  0  0  0  0  0  0  0  0  0  0
  1 14  1  0  0  0  0
  1  2  2  0  0  0  0
  3  2  1  0  0  0  0
  3  8  2  0  0  0  0
  4  3  1  0  0  0  0
  5  7  2  0  0  0  0
  5  4  1  0  0  0  0
  6  5  1  0  0  0  0
  7  1  1  0  0  0  0
  9 10  1  0  0  0  0
  9  8  1  0  0  0  0
 11  9  2  0  0  0  0
 12 11  1  0  0  0  0
 13  4  2  0  0  0  0
 13 11  1  0  0  0  0
 14 15  1  0  0  0  0
 16 15  1  0  0  0  0
 17 16  1  0  0  0  0
 18 17  1  0  0  0  0
 18 19  1  0  0  0  0
 19 14  1  0  0  0  0
 20 10  1  0  0  0  0
 21 12  1  0  0  0  0
M  END
>  <CHROM.1>
71.58711604,-55.50646948,-87.04832327,-2.75276890,9.92321488,-0.15310535
-2.59964358,0.87715999,-1.24645826

>  <Name>
lig.pdb

>  <RI>
4.07847e+07

>  <Rbt.Current_Directory>
/home/itssahil/PROJECTS/Mol_Feturizer/New_Systems/rnas/2lwk

>  <Rbt.Executable>
rbdock ($Id: //depot/dev/client3/rdock/2013.1/src/exe/rbdock.cxx#4 $)

>  <Rbt.Library>
libRbt.so (2013.1, Build901 2013/11/27)

>  <Rbt.Parameter_File>
/export/apps/rDock/src/rDock_2013.1_src/data/scripts/dock_solv.prm

>  <Rbt.Receptor>
prm/blind_docking_20.prm

>  <SCORE>
-5.16189

>  <SCORE.INTER>
-1.82366

>  <SCORE.INTER.CONST>
1

>  <SCORE.INTER.POLAR>
-0.579217

>  <SCORE.INTER.ROT>
3

>  <SCORE.INTER.SOLV>
14.118

>  <SCORE.INTER.VDW>
-9.59105

>  <SCORE.INTER.norm>
-0.0868408

>  <SCORE.INTRA>
-3.60236

>  <SCORE.INTRA.DIHEDRAL>
-1.3019

>  <SCORE.INTRA.DIHEDRAL.0>
8.84257

>  <SCORE.INTRA.POLAR>
0

>  <SCORE.INTRA.POLAR.0>
0

>  <SCORE.INTRA.REPUL>
0

>  <SCORE.INTRA.REPUL.0>
0

>  <SCORE.INTRA.SOLV>
0.0590542

>  <SCORE.INTRA.SOLV.lig_0>
-17.1313

>  <SCORE.INTRA.VDW>
-2.98094

>  <SCORE.INTRA.VDW.0>
6.34071

>  <SCORE.INTRA.norm>
-0.171541

>  <SCORE.RESTR>
0.264135

>  <SCORE.RESTR.CAVITY>
0.264135

>  <SCORE.RESTR.norm>
0.0125778

>  <SCORE.SYSTEM>
0

>  <SCORE.SYSTEM.CONST>
0

>  <SCORE.SYSTEM.DIHEDRAL>
0

>  <SCORE.SYSTEM.SOLV>
0

>  <SCORE.SYSTEM.norm>
0

>  <SCORE.heavy>
21

>  <SCORE.norm>
-0.245804

>  <RMSD>
13.140

$$$$
lig.pdb
 OpenBabel11021811453D
libRbt.so/2013.1/901 2013/11/27
 21 23  0  0  0  0  0  0  0  0999 V2000
   -2.9477   11.4305    0.0835 C   0  0  0  0  0  0  0  0  0  0  0  0
   -2.3718   10.3102    0.5047 N   0  0  0  0  0  0  0  0  0  0  0  0
   -1.8487    9.4680   -0.3682 C   0  0  0  0  0  0  0  0  0  0  0  0
   -1.9616    9.7134   -1.6893 C   0  0  0  0  0  0  0  0  0  0  0  0
   -2.5399   10.8462   -2.1102 C   0  0  0  0  0  0  0  0  0  0  0  0
   -2.6604   11.0944   -3.4139 N   0  0  0  0  0  0  0  0  0  0  0  0
   -3.0339   11.7002   -1.2198 N   0  0  0  0  0  0  0  0  0  0  0  0
   -1.2473    8.3485    0.0673 C   0  0  0  0  0  0  0  0  0  0  0  0
   -0.8691    7.3989   -0.8424 C   0  0  0  0  0  0  0  0  0  0  0  0
   -1.0620    6.0406   -0.4945 O   0  0  0  0  0  0  0  0  0  0  0  0
   -0.8127    7.7435   -2.1394 C   0  0  0  0  0  0  0  0  0  0  0  0
   -0.0100    6.9868   -3.0346 O   0  0  0  0  0  0  0  0  0  0  0  0
   -1.4499    8.8477   -2.5755 C   0  0  0  0  0  0  0  0  0  0  0  0
   -3.4534   12.2739    0.9668 N   0  0  0  0  0  0  0  0  0  0  0  0
   -3.7029   11.7819    2.1841 C   0  0  0  0  0  0  0  0  0  0  0  0
   -5.0087   11.0015    2.1737 C   0  0  0  0  0  0  0  0  0  0  0  0
   -6.0463   11.8394    1.8210 N   0  0  0  0  0  0  0  0  0  0  0  0
   -5.7838   12.2987    0.5487 C   0  0  0  0  0  0  0  0  0  0  0  0
   -4.4822   13.0828    0.5568 C   0  0  0  0  0  0  0  0  0  0  0  0
   -0.3508    5.7886    0.6903 C   0  0  0  0  0  0  0  0  0  0  0  0
   -0.8384    6.1071   -3.7489 C   0  0  0  0  0  0  0  0  0  0  0  0
  1 14  1  0  0  0  0
  1  2  2  0  0  0  0
  3  2  1  0  0  0  0
  3  8  2  0  0  0  0
  4  3  1  0  0  0  0
  5  7  2  0  0  0  0
  5  4  1  0  0  0  0
  6  5  1  0  0  0  0
  7  1  1  0  0  0  0
  9 10  1  0  0  0  0
  9  8  1  0  0  0  0
 11  9  2  0  0  0  0
 12 11  1  0  0  0  0
 13  4  2  0  0  0  0
 13 11  1  0  0  0  0
 14 15  1  0  0  0  0
 16 15  1  0  0  0  0
 17 16  1  0  0  0  0
 18 17  1  0  0  0  0
 18 19  1  0  0  0  0
 19 14  1  0  0  0  0
 20 10  1  0  0  0  0
 21 12  1  0  0  0  0
M  END
>  <CHROM.1>
-18.89929562,-58.42214533,100.27825881,-2.50968620,9.68829277,-0.57881807
3.10261557,-0.98606089,2.04350721

>  <Name>
lig.pdb

>  <RI>
1.99026e+07

>  <Rbt.Current_Directory>
/home/itssahil/PROJECTS/Mol_Feturizer/New_Systems/rnas/2lwk

>  <Rbt.Executable>
rbdock ($Id: //depot/dev/client3/rdock/2013.1/src/exe/rbdock.cxx#4 $)

>  <Rbt.Library>
libRbt.so (2013.1, Build901 2013/11/27)

>  <Rbt.Parameter_File>
/export/apps/rDock/src/rDock_2013.1_src/data/scripts/dock_solv.prm

>  <Rbt.Receptor>
prm/blind_docking_60.prm

>  <SCORE>
-15.584

>  <SCORE.INTER>
-15.2753

>  <SCORE.INTER.CONST>
1

>  <SCORE.INTER.POLAR>
-1.01553

>  <SCORE.INTER.ROT>
3

>  <SCORE.INTER.SOLV>
13.5172

>  <SCORE.INTER.VDW>
-16.9042

>  <SCORE.INTER.norm>
-0.727396

>  <SCORE.INTRA>
-1.8428

>  <SCORE.INTRA.DIHEDRAL>
-1.18606

>  <SCORE.INTRA.DIHEDRAL.0>
8.84257

>  <SCORE.INTRA.POLAR>
0

>  <SCORE.INTRA.POLAR.0>
0

>  <SCORE.INTRA.REPUL>
0

>  <SCORE.INTRA.REPUL.0>
0

>  <SCORE.INTRA.SOLV>
-0.0340662

>  <SCORE.INTRA.SOLV.lig_0>
-17.1313

>  <SCORE.INTRA.VDW>
-1.23273

>  <SCORE.INTRA.VDW.0>
6.34071

>  <SCORE.INTRA.norm>
-0.0877522

>  <SCORE.RESTR>
1.53411

>  <SCORE.RESTR.CAVITY>
1.53411

>  <SCORE.RESTR.norm>
0.073053

>  <SCORE.SYSTEM>
0

>  <SCORE.SYSTEM.CONST>
0

>  <SCORE.SYSTEM.DIHEDRAL>
0

>  <SCORE.SYSTEM.SOLV>
0

>  <SCORE.SYSTEM.norm>
0

>  <SCORE.heavy>
21

>  <SCORE.norm>
-0.742095

>  <RMSD>
13.141

$$$$
lig.pdb
 OpenBabel11021811453D
libRbt.so/2013.1/901 2013/11/27
 21 23  0  0  0  0  0  0  0  0999 V2000
   -3.4217   10.2627    1.6871 C   0  0  0  0  0  0  0  0  0  0  0  0
   -3.3838   10.5582    0.3927 N   0  0  0  0  0  0  0  0  0  0  0  0
   -2.6024    9.8690   -0.4193 C   0  0  0  0  0  0  0  0  0  0  0  0
   -1.7928    8.9125    0.0786 C   0  0  0  0  0  0  0  0  0  0  0  0
   -1.8365    8.6148    1.3841 C   0  0  0  0  0  0  0  0  0  0  0  0
   -1.0364    7.6747    1.8856 N   0  0  0  0  0  0  0  0  0  0  0  0
   -2.6508    9.2948    2.1847 N   0  0  0  0  0  0  0  0  0  0  0  0
   -2.5873   10.1587   -1.7310 C   0  0  0  0  0  0  0  0  0  0  0  0
   -1.6498    9.5666   -2.5328 C   0  0  0  0  0  0  0  0  0  0  0  0
   -1.0463   10.3609   -3.5367 O   0  0  0  0  0  0  0  0  0  0  0  0
   -0.9955    8.4913   -2.0639 C   0  0  0  0  0  0  0  0  0  0  0  0
   -0.3864    7.5858   -2.9734 O   0  0  0  0  0  0  0  0  0  0  0  0
   -0.9839    8.2282   -0.7424 C   0  0  0  0  0  0  0  0  0  0  0  0
   -4.2195   10.9481    2.4876 N   0  0  0  0  0  0  0  0  0  0  0  0
   -5.5300   10.7184    2.3608 C   0  0  0  0  0  0  0  0  0  0  0  0
   -6.0780   11.4735    1.1593 C   0  0  0  0  0  0  0  0  0  0  0  0
   -5.8880   12.8282    1.3376 N   0  0  0  0  0  0  0  0  0  0  0  0
   -4.5294   13.0407    1.4239 C   0  0  0  0  0  0  0  0  0  0  0  0
   -3.9798   12.2913    2.6262 C   0  0  0  0  0  0  0  0  0  0  0  0
   -2.0675   10.9268   -4.3178 C   0  0  0  0  0  0  0  0  0  0  0  0
   -1.3395    6.6336   -3.3675 C   0  0  0  0  0  0  0  0  0  0  0  0
  1 14  1  0  0  0  0
  1  2  2  0  0  0  0
  3  2  1  0  0  0  0
  3  8  2  0  0  0  0
  4  3  1  0  0  0  0
  5  7  2  0  0  0  0
  5  4  1  0  0  0  0
  6  5  1  0  0  0  0
  7  1  1  0  0  0  0
  9 10  1  0  0  0  0
  9  8  1  0  0  0  0
 11  9  2  0  0  0  0
 12 11  1  0  0  0  0
 13  4  2  0  0  0  0
 13 11  1  0  0  0  0
 14 15  1  0  0  0  0
 16 15  1  0  0  0  0
 17 16  1  0  0  0  0
 18 17  1  0  0  0  0
 18 19  1  0  0  0  0
 19 14  1  0  0  0  0
 20 10  1  0  0  0  0
 21 12  1  0  0  0  0
M  END
>  <CHROM.1>
71.65141337,-54.31395337,-86.88269169,-2.76213626,9.93004017,-0.15850515
-2.61589816,0.88262762,-1.23416459

>  <Name>
lig.pdb

>  <RI>
4.07847e+07

>  <Rbt.Current_Directory>
/home/itssahil/PROJECTS/Mol_Feturizer/New_Systems/rnas/2lwk

>  <Rbt.Executable>
rbdock ($Id: //depot/dev/client3/rdock/2013.1/src/exe/rbdock.cxx#4 $)

>  <Rbt.Library>
libRbt.so (2013.1, Build901 2013/11/27)

>  <Rbt.Parameter_File>
/export/apps/rDock/src/rDock_2013.1_src/data/scripts/dock_solv.prm

>  <Rbt.Receptor>
prm/blind_docking_20.prm

>  <SCORE>
-5.22312

>  <SCORE.INTER>
-2.05663

>  <SCORE.INTER.CONST>
1

>  <SCORE.INTER.POLAR>
-0.603845

>  <SCORE.INTER.ROT>
3

>  <SCORE.INTER.SOLV>
14.0012

>  <SCORE.INTER.VDW>
-9.62534

>  <SCORE.INTER.norm>
-0.0979346

>  <SCORE.INTRA>
-3.45897

>  <SCORE.INTRA.DIHEDRAL>
-1.39311

>  <SCORE.INTRA.DIHEDRAL.0>
8.84257

>  <SCORE.INTRA.POLAR>
0

>  <SCORE.INTRA.POLAR.0>
0

>  <SCORE.INTRA.REPUL>
0

>  <SCORE.INTRA.REPUL.0>
0

>  <SCORE.INTRA.SOLV>
0.0583119

>  <SCORE.INTRA.SOLV.lig_0>
-17.1313

>  <SCORE.INTRA.VDW>
-2.79157

>  <SCORE.INTRA.VDW.0>
6.34071

>  <SCORE.INTRA.norm>
-0.164713

>  <SCORE.RESTR>
0.292473

>  <SCORE.RESTR.CAVITY>
0.292473

>  <SCORE.RESTR.norm>
0.0139273

>  <SCORE.SYSTEM>
0

>  <SCORE.SYSTEM.CONST>
0

>  <SCORE.SYSTEM.DIHEDRAL>
0

>  <SCORE.SYSTEM.SOLV>
0

>  <SCORE.SYSTEM.norm>
0

>  <SCORE.heavy>
21

>  <SCORE.norm>
-0.24872

>  <RMSD>
13.142

$$$$
lig.pdb
 OpenBabel11021811453D
libRbt.so/2013.1/901 2013/11/27
 21 23  0  0  0  0  0  0  0  0999 V2000
   -2.9525   11.4722    0.1319 C   0  0  0  0  0  0  0  0  0  0  0  0
   -2.3635   10.3665    0.5734 N   0  0  0  0  0  0  0  0  0  0  0  0
   -1.8488    9.5047   -0.2852 C   0  0  0  0  0  0  0  0  0  0  0  0
   -1.9834    9.7146   -1.6103 C   0  0  0  0  0  0  0  0  0  0  0  0
   -2.5749   10.8327   -2.0518 C   0  0  0  0  0  0  0  0  0  0  0  0
   -2.7169   11.0459   -3.3595 N   0  0  0  0  0  0  0  0  0  0  0  0
   -3.0603   11.7071   -1.1766 N   0  0  0  0  0  0  0  0  0  0  0  0
   -1.2340    8.4004    0.1701 C   0  0  0  0  0  0  0  0  0  0  0  0
   -0.8642    7.4293   -0.7202 C   0  0  0  0  0  0  0  0  0  0  0  0
   -1.0436    6.0796   -0.3339 O   0  0  0  0  0  0  0  0  0  0  0  0
   -0.8298    7.7400   -2.0265 C   0  0  0  0  0  0  0  0  0  0  0  0
   -0.0364    6.9646   -2.9139 O   0  0  0  0  0  0  0  0  0  0  0  0
   -1.4802    8.8288   -2.4814 C   0  0  0  0  0  0  0  0  0  0  0  0
   -3.4496   12.3356    1.0005 N   0  0  0  0  0  0  0  0  0  0  0  0
   -3.7695   11.8513    2.2044 C   0  0  0  0  0  0  0  0  0  0  0  0
   -5.1106   11.1363    2.1395 C   0  0  0  0  0  0  0  0  0  0  0  0
   -6.0915   12.0259    1.7527 N   0  0  0  0  0  0  0  0  0  0  0  0
   -5.7583   12.4771    0.4942 C   0  0  0  0  0  0  0  0  0  0  0  0
   -4.4210   13.1961    0.5567 C   0  0  0  0  0  0  0  0  0  0  0  0
   -0.2760    5.8505    0.8200 C   0  0  0  0  0  0  0  0  0  0  0  0
   -0.8812    6.1261   -3.6579 C   0  0  0  0  0  0  0  0  0  0  0  0
  1 14  1  0  0  0  0
  1  2  2  0  0  0  0
  3  2  1  0  0  0  0
  3  8  2  0  0  0  0
  4  3  1  0  0  0  0
  5  7  2  0  0  0  0
  5  4  1  0  0  0  0
  6  5  1  0  0  0  0
  7  1  1  0  0  0  0
  9 10  1  0  0  0  0
  9  8  1  0  0  0  0
 11  9  2  0  0  0  0
 12 11  1  0  0  0  0
 13  4  2  0  0  0  0
 13 11  1  0  0  0  0
 14 15  1  0  0  0  0
 16 15  1  0  0  0  0
 17 16  1  0  0  0  0
 18 17  1  0  0  0  0
 18 19  1  0  0  0  0
 19 14  1  0  0  0  0
 20 10  1  0  0  0  0
 21 12  1  0  0  0  0
M  END
>  <CHROM.1>
-23.65781361,-60.42476737,104.27694820,-2.52248572,9.73581078,-0.51886108
3.07573928,-0.98395879,1.97998338

>  <Name>
lig.pdb

>  <RI>
3.07369e+07

>  <Rbt.Current_Directory>
/home/itssahil/PROJECTS/Mol_Feturizer/New_Systems/rnas/2lwk

>  <Rbt.Executable>
rbdock ($Id: //depot/dev/client3/rdock/2013.1/src/exe/rbdock.cxx#4 $)

>  <Rbt.Library>
libRbt.so (2013.1, Build901 2013/11/27)

>  <Rbt.Parameter_File>
/export/apps/rDock/src/rDock_2013.1_src/data/scripts/dock_solv.prm

>  <Rbt.Receptor>
prm/blind_docking_100.prm

>  <SCORE>
-14.2371

>  <SCORE.INTER>
-13.5587

>  <SCORE.INTER.CONST>
1

>  <SCORE.INTER.POLAR>
-0.835962

>  <SCORE.INTER.ROT>
3

>  <SCORE.INTER.SOLV>
13.2332

>  <SCORE.INTER.VDW>
-16.2637

>  <SCORE.INTER.norm>
-0.645652

>  <SCORE.INTRA>
-2.04865

>  <SCORE.INTRA.DIHEDRAL>
-1.15154

>  <SCORE.INTRA.DIHEDRAL.0>
8.84257

>  <SCORE.INTRA.POLAR>
0

>  <SCORE.INTRA.POLAR.0>
0

>  <SCORE.INTRA.REPUL>
0

>  <SCORE.INTRA.REPUL.0>
0

>  <SCORE.INTRA.SOLV>
-0.0363377

>  <SCORE.INTRA.SOLV.lig_0>
-17.1313

>  <SCORE.INTRA.VDW>
-1.45471

>  <SCORE.INTRA.VDW.0>
6.34071

>  <SCORE.INTRA.norm>
-0.0975546

>  <SCORE.RESTR>
1.37028

>  <SCORE.RESTR.CAVITY>
1.37028

>  <SCORE.RESTR.norm>
0.0652513

>  <SCORE.SYSTEM>
0

>  <SCORE.SYSTEM.CONST>
0

>  <SCORE.SYSTEM.DIHEDRAL>
0

>  <SCORE.SYSTEM.SOLV>
0

>  <SCORE.SYSTEM.norm>
0

>  <SCORE.heavy>
21

>  <SCORE.norm>
-0.677956

>  <RMSD>
13.146

$$$$
lig.pdb
 OpenBabel11021811453D
libRbt.so/2013.1/901 2013/11/27
 21 23  0  0  0  0  0  0  0  0999 V2000
   -2.9488   11.4304    0.0812 C   0  0  0  0  0  0  0  0  0  0  0  0
   -2.3627   10.3162    0.5045 N   0  0  0  0  0  0  0  0  0  0  0  0
   -1.8388    9.4735   -0.3675 C   0  0  0  0  0  0  0  0  0  0  0  0
   -1.9610    9.7117   -1.6890 C   0  0  0  0  0  0  0  0  0  0  0  0
   -2.5496   10.8385   -2.1120 C   0  0  0  0  0  0  0  0  0  0  0  0
   -2.6793   11.0796   -3.4161 N   0  0  0  0  0  0  0  0  0  0  0  0
   -3.0443   11.6933   -1.2228 N   0  0  0  0  0  0  0  0  0  0  0  0
   -1.2271    8.3602    0.0698 C   0  0  0  0  0  0  0  0  0  0  0  0
   -0.8476    7.4089   -0.8375 C   0  0  0  0  0  0  0  0  0  0  0  0
   -1.0291    6.0510   -0.4821 O   0  0  0  0  0  0  0  0  0  0  0  0
   -0.8010    7.7477   -2.1365 C   0  0  0  0  0  0  0  0  0  0  0  0
    0.0017    6.9923   -3.0327 O   0  0  0  0  0  0  0  0  0  0  0  0
   -1.4484    8.8454   -2.5741 C   0  0  0  0  0  0  0  0  0  0  0  0
   -3.4551   12.2745    0.9634 N   0  0  0  0  0  0  0  0  0  0  0  0
   -3.6981   11.7856    2.1833 C   0  0  0  0  0  0  0  0  0  0  0  0
   -5.0002   10.9992    2.1803 C   0  0  0  0  0  0  0  0  0  0  0  0
   -6.0429   11.8311    1.8284 N   0  0  0  0  0  0  0  0  0  0  0  0
   -5.7872   12.2871    0.5536 C   0  0  0  0  0  0  0  0  0  0  0  0
   -4.4892   13.0773    0.5544 C   0  0  0  0  0  0  0  0  0  0  0  0
   -0.3038    5.8079    0.6960 C   0  0  0  0  0  0  0  0  0  0  0  0
   -0.8264    6.1123   -3.7470 C   0  0  0  0  0  0  0  0  0  0  0  0
  1 14  1  0  0  0  0
  1  2  2  0  0  0  0
  3  2  1  0  0  0  0
  3  8  2  0  0  0  0
  4  3  1  0  0  0  0
  5  7  2  0  0  0  0
  5  4  1  0  0  0  0
  6  5  1  0  0  0  0
  7  1  1  0  0  0  0
  9 10  1  0  0  0  0
  9  8  1  0  0  0  0
 11  9  2  0  0  0  0
 12 11  1  0  0  0  0
 13  4  2  0  0  0  0
 13 11  1  0  0  0  0
 14 15  1  0  0  0  0
 16 15  1  0  0  0  0
 17 16  1  0  0  0  0
 18 17  1  0  0  0  0
 18 19  1  0  0  0  0
 19 14  1  0  0  0  0
 20 10  1  0  0  0  0
 21 12  1  0  0  0  0
M  END
>  <CHROM.1>
-19.09671419,-58.71805395,100.82175547,-2.50271684,9.68925482,-0.57692188
3.08693285,-0.98218629,2.02502154

>  <Name>
lig.pdb

>  <RI>
1.99026e+07

>  <Rbt.Current_Directory>
/home/itssahil/PROJECTS/Mol_Feturizer/New_Systems/rnas/2lwk

>  <Rbt.Executable>
rbdock ($Id: //depot/dev/client3/rdock/2013.1/src/exe/rbdock.cxx#4 $)

>  <Rbt.Library>
libRbt.so (2013.1, Build901 2013/11/27)

>  <Rbt.Parameter_File>
/export/apps/rDock/src/rDock_2013.1_src/data/scripts/dock_solv.prm

>  <Rbt.Receptor>
prm/blind_docking_60.prm

>  <SCORE>
-15.5497

>  <SCORE.INTER>
-15.1863

>  <SCORE.INTER.CONST>
1

>  <SCORE.INTER.POLAR>
-1.02618

>  <SCORE.INTER.ROT>
3

>  <SCORE.INTER.SOLV>
13.5904

>  <SCORE.INTER.VDW>
-16.8337

>  <SCORE.INTER.norm>
-0.723157

>  <SCORE.INTRA>
-1.86901

>  <SCORE.INTRA.DIHEDRAL>
-1.17694

>  <SCORE.INTRA.DIHEDRAL.0>
8.84257

>  <SCORE.INTRA.POLAR>
0

>  <SCORE.INTRA.POLAR.0>
0

>  <SCORE.INTRA.REPUL>
0

>  <SCORE.INTRA.REPUL.0>
0

>  <SCORE.INTRA.SOLV>
-0.034328

>  <SCORE.INTRA.SOLV.lig_0>
-17.1313

>  <SCORE.INTRA.VDW>
-1.26337

>  <SCORE.INTRA.VDW.0>
6.34071

>  <SCORE.INTRA.norm>
-0.0890003

>  <SCORE.RESTR>
1.50564

>  <SCORE.RESTR.CAVITY>
1.50564

>  <SCORE.RESTR.norm>
0.0716969

>  <SCORE.SYSTEM>
0

>  <SCORE.SYSTEM.CONST>
0

>  <SCORE.SYSTEM.DIHEDRAL>
0

>  <SCORE.SYSTEM.SOLV>
0

>  <SCORE.SYSTEM.norm>
0

>  <SCORE.heavy>
21

>  <SCORE.norm>
-0.740461

>  <RMSD>
13.146

$$$$
lig.pdb
 OpenBabel11021811453D
libRbt.so/2013.1/901 2013/11/27
 21 23  0  0  0  0  0  0  0  0999 V2000
   -3.4129   10.2422    1.6777 C   0  0  0  0  0  0  0  0  0  0  0  0
   -3.3847   10.5400    0.3836 N   0  0  0  0  0  0  0  0  0  0  0  0
   -2.5956    9.8644   -0.4323 C   0  0  0  0  0  0  0  0  0  0  0  0
   -1.7690    8.9203    0.0611 C   0  0  0  0  0  0  0  0  0  0  0  0
   -1.8029    8.6202    1.3664 C   0  0  0  0  0  0  0  0  0  0  0  0
   -0.9859    7.6923    1.8636 N   0  0  0  0  0  0  0  0  0  0  0  0
   -2.6247    9.2861    2.1710 N   0  0  0  0  0  0  0  0  0  0  0  0
   -2.5902   10.1559   -1.7437 C   0  0  0  0  0  0  0  0  0  0  0  0
   -1.6465    9.5798   -2.5499 C   0  0  0  0  0  0  0  0  0  0  0  0
   -1.0596   10.3850   -3.5551 O   0  0  0  0  0  0  0  0  0  0  0  0
   -0.9734    8.5145   -2.0850 C   0  0  0  0  0  0  0  0  0  0  0  0
   -0.3535    7.6200   -2.9981 O   0  0  0  0  0  0  0  0  0  0  0  0
   -0.9525    8.2500   -0.7639 C   0  0  0  0  0  0  0  0  0  0  0  0
   -4.2184   10.9139    2.4823 N   0  0  0  0  0  0  0  0  0  0  0  0
   -5.5260   10.6681    2.3559 C   0  0  0  0  0  0  0  0  0  0  0  0
   -6.0850   11.4215    1.1585 C   0  0  0  0  0  0  0  0  0  0  0  0
   -5.9121   12.7777    1.3426 N   0  0  0  0  0  0  0  0  0  0  0  0
   -4.5562   13.0071    1.4284 C   0  0  0  0  0  0  0  0  0  0  0  0
   -3.9956   12.2594    2.6266 C   0  0  0  0  0  0  0  0  0  0  0  0
   -2.0921   10.9238   -4.3405 C   0  0  0  0  0  0  0  0  0  0  0  0
   -1.3053    6.6810   -3.4254 C   0  0  0  0  0  0  0  0  0  0  0  0
  1 14  1  0  0  0  0
  1  2  2  0  0  0  0
  3  2  1  0  0  0  0
  3  8  2  0  0  0  0
  4  3  1  0  0  0  0
  5  7  2  0  0  0  0
  5  4  1  0  0  0  0
  6  5  1  0  0  0  0
  7  1  1  0  0  0  0
  9 10  1  0  0  0  0
  9  8  1  0  0  0  0
 11  9  2  0  0  0  0
 12 11  1  0  0  0  0
 13  4  2  0  0  0  0
 13 11  1  0  0  0  0
 14 15  1  0  0  0  0
 16 15  1  0  0  0  0
 17 16  1  0  0  0  0
 18 17  1  0  0  0  0
 18 19  1  0  0  0  0
 19 14  1  0  0  0  0
 20 10  1  0  0  0  0
 21 12  1  0  0  0  0
M  END
>  <CHROM.1>
71.35115843,-54.94826750,-84.86151536,-2.75454416,9.92469964,-0.17295238
-2.59735943,0.86884205,-1.24690034

>  <Name>
lig.pdb

>  <RI>
1.99026e+07

>  <Rbt.Current_Directory>
/home/itssahil/PROJECTS/Mol_Feturizer/New_Systems/rnas/2lwk

>  <Rbt.Executable>
rbdock ($Id: //depot/dev/client3/rdock/2013.1/src/exe/rbdock.cxx#4 $)

>  <Rbt.Library>
libRbt.so (2013.1, Build901 2013/11/27)

>  <Rbt.Parameter_File>
/export/apps/rDock/src/rDock_2013.1_src/data/scripts/dock_solv.prm

>  <Rbt.Receptor>
prm/blind_docking_60.prm

>  <SCORE>
-5.1349

>  <SCORE.INTER>
-1.82817

>  <SCORE.INTER.CONST>
1

>  <SCORE.INTER.POLAR>
-0.5573

>  <SCORE.INTER.ROT>
3

>  <SCORE.INTER.SOLV>
14.1152

>  <SCORE.INTER.VDW>
-9.66618

>  <SCORE.INTER.norm>
-0.0870558

>  <SCORE.INTRA>
-3.55547

>  <SCORE.INTRA.DIHEDRAL>
-1.3575

>  <SCORE.INTRA.DIHEDRAL.0>
8.84257

>  <SCORE.INTRA.POLAR>
0

>  <SCORE.INTRA.POLAR.0>
0

>  <SCORE.INTRA.REPUL>
0

>  <SCORE.INTRA.REPUL.0>
0

>  <SCORE.INTRA.SOLV>
0.0601354

>  <SCORE.INTRA.SOLV.lig_0>
-17.1313

>  <SCORE.INTRA.VDW>
-2.90679

>  <SCORE.INTRA.VDW.0>
6.34071

>  <SCORE.INTRA.norm>
-0.169308

>  <SCORE.RESTR>
0.248742

>  <SCORE.RESTR.CAVITY>
0.248742

>  <SCORE.RESTR.norm>
0.0118448

>  <SCORE.SYSTEM>
0

>  <SCORE.SYSTEM.CONST>
0

>  <SCORE.SYSTEM.DIHEDRAL>
0

>  <SCORE.SYSTEM.SOLV>
0

>  <SCORE.SYSTEM.norm>
0

>  <SCORE.heavy>
21

>  <SCORE.norm>
-0.244519

>  <RMSD>
13.150

$$$$
lig.pdb
 OpenBabel11021811453D
libRbt.so/2013.1/901 2013/11/27
 21 23  0  0  0  0  0  0  0  0999 V2000
   -3.4152   10.2576    1.6770 C   0  0  0  0  0  0  0  0  0  0  0  0
   -3.3911   10.5521    0.3820 N   0  0  0  0  0  0  0  0  0  0  0  0
   -2.6068    9.8723   -0.4352 C   0  0  0  0  0  0  0  0  0  0  0  0
   -1.7809    8.9272    0.0576 C   0  0  0  0  0  0  0  0  0  0  0  0
   -1.8107    8.6305    1.3637 C   0  0  0  0  0  0  0  0  0  0  0  0
   -0.9944    7.7016    1.8602 N   0  0  0  0  0  0  0  0  0  0  0  0
   -2.6278    9.3006    2.1697 N   0  0  0  0  0  0  0  0  0  0  0  0
   -2.6055   10.1606   -1.7473 C   0  0  0  0  0  0  0  0  0  0  0  0
   -1.6663    9.5800   -2.5555 C   0  0  0  0  0  0  0  0  0  0  0  0
   -1.0810   10.3811   -3.5649 O   0  0  0  0  0  0  0  0  0  0  0  0
   -0.9944    8.5140   -2.0904 C   0  0  0  0  0  0  0  0  0  0  0  0
   -0.3802    7.6156   -3.0036 O   0  0  0  0  0  0  0  0  0  0  0  0
   -0.9692    8.2527   -0.7688 C   0  0  0  0  0  0  0  0  0  0  0  0
   -4.2160   10.9333    2.4828 N   0  0  0  0  0  0  0  0  0  0  0  0
   -5.5261   10.7066    2.3472 C   0  0  0  0  0  0  0  0  0  0  0  0
   -6.0681   11.4776    1.1533 C   0  0  0  0  0  0  0  0  0  0  0  0
   -5.8778   12.8297    1.3499 N   0  0  0  0  0  0  0  0  0  0  0  0
   -4.5194   13.0398    1.4449 C   0  0  0  0  0  0  0  0  0  0  0  0
   -3.9757   12.2744    2.6398 C   0  0  0  0  0  0  0  0  0  0  0  0
   -2.1139   10.9040   -4.3603 C   0  0  0  0  0  0  0  0  0  0  0  0
   -1.3191    6.6415   -3.3776 C   0  0  0  0  0  0  0  0  0  0  0  0
  1 14  1  0  0  0  0
  1  2  2  0  0  0  0
  3  2  1  0  0  0  0
  3  8  2  0  0  0  0
  4  3  1  0  0  0  0
  5  7  2  0  0  0  0
  5  4  1  0  0  0  0
  6  5  1  0  0  0  0
  7  1  1  0  0  0  0
  9 10  1  0  0  0  0
  9  8  1  0  0  0  0
 11  9  2  0  0  0  0
 12 11  1  0  0  0  0
 13  4  2  0  0  0  0
 13 11  1  0  0  0  0
 14 15  1  0  0  0  0
 16 15  1  0  0  0  0
 17 16  1  0  0  0  0
 18 17  1  0  0  0  0
 18 19  1  0  0  0  0
 19 14  1  0  0  0  0
 20 10  1  0  0  0  0
 21 12  1  0  0  0  0
M  END
>  <CHROM.1>
70.31906061,-55.84451414,-87.54487253,-2.75903591,9.93551809,-0.17275107
-2.59738535,0.87719683,-1.25069555

>  <Name>
lig.pdb

>  <RI>
1.05666e+07

>  <Rbt.Current_Directory>
/home/itssahil/PROJECTS/Mol_Feturizer/New_Systems/rnas/2lwk

>  <Rbt.Executable>
rbdock ($Id: //depot/dev/client3/rdock/2013.1/src/exe/rbdock.cxx#4 $)

>  <Rbt.Library>
libRbt.so (2013.1, Build901 2013/11/27)

>  <Rbt.Parameter_File>
/export/apps/rDock/src/rDock_2013.1_src/data/scripts/dock_solv.prm

>  <Rbt.Receptor>
prm/blind_docking_80.prm

>  <SCORE>
-5.26859

>  <SCORE.INTER>
-1.90376

>  <SCORE.INTER.CONST>
1

>  <SCORE.INTER.POLAR>
-0.559156

>  <SCORE.INTER.ROT>
3

>  <SCORE.INTER.SOLV>
14.0801

>  <SCORE.INTER.VDW>
-9.69868

>  <SCORE.INTER.norm>
-0.0906554

>  <SCORE.INTRA>
-3.63679

>  <SCORE.INTRA.DIHEDRAL>
-1.27443

>  <SCORE.INTRA.DIHEDRAL.0>
8.84257

>  <SCORE.INTRA.POLAR>
0

>  <SCORE.INTRA.POLAR.0>
0

>  <SCORE.INTRA.REPUL>
0

>  <SCORE.INTRA.REPUL.0>
0

>  <SCORE.INTRA.SOLV>
0.0593456

>  <SCORE.INTRA.SOLV.lig_0>
-17.1313

>  <SCORE.INTRA.VDW>
-3.02925

>  <SCORE.INTRA.VDW.0>
6.34071

>  <SCORE.INTRA.norm>
-0.173181

>  <SCORE.RESTR>
0.271961

>  <SCORE.RESTR.CAVITY>
0.271961

>  <SCORE.RESTR.norm>
0.0129505

>  <SCORE.SYSTEM>
0

>  <SCORE.SYSTEM.CONST>
0

>  <SCORE.SYSTEM.DIHEDRAL>
0

>  <SCORE.SYSTEM.SOLV>
0

>  <SCORE.SYSTEM.norm>
0

>  <SCORE.heavy>
21

>  <SCORE.norm>
-0.250885

>  <RMSD>
13.152

$$$$
lig.pdb
 OpenBabel11021811453D
libRbt.so/2013.1/901 2013/11/27
 21 23  0  0  0  0  0  0  0  0999 V2000
   -3.4077   10.2565    1.6834 C   0  0  0  0  0  0  0  0  0  0  0  0
   -3.3800   10.5548    0.3894 N   0  0  0  0  0  0  0  0  0  0  0  0
   -2.5959    9.8754   -0.4282 C   0  0  0  0  0  0  0  0  0  0  0  0
   -1.7737    8.9265    0.0634 C   0  0  0  0  0  0  0  0  0  0  0  0
   -1.8071    8.6259    1.3686 C   0  0  0  0  0  0  0  0  0  0  0  0
   -0.9944    7.6932    1.8639 N   0  0  0  0  0  0  0  0  0  0  0  0
   -2.6240    9.2957    2.1749 N   0  0  0  0  0  0  0  0  0  0  0  0
   -2.5910   10.1677   -1.7394 C   0  0  0  0  0  0  0  0  0  0  0  0
   -1.6518    9.5870   -2.5474 C   0  0  0  0  0  0  0  0  0  0  0  0
   -1.0621   10.3896   -3.5531 O   0  0  0  0  0  0  0  0  0  0  0  0
   -0.9838    8.5178   -2.0842 C   0  0  0  0  0  0  0  0  0  0  0  0
   -0.3702    7.6205   -2.9988 O   0  0  0  0  0  0  0  0  0  0  0  0
   -0.9622    8.2523   -0.7633 C   0  0  0  0  0  0  0  0  0  0  0  0
   -4.2083   10.9319    2.4897 N   0  0  0  0  0  0  0  0  0  0  0  0
   -5.5180   10.7001    2.3590 C   0  0  0  0  0  0  0  0  0  0  0  0
   -6.0666   11.4654    1.1643 C   0  0  0  0  0  0  0  0  0  0  0  0
   -5.8805   12.8188    1.3560 N   0  0  0  0  0  0  0  0  0  0  0  0
   -4.5225   13.0340    1.4460 C   0  0  0  0  0  0  0  0  0  0  0  0
   -3.9723   12.2744    2.6416 C   0  0  0  0  0  0  0  0  0  0  0  0
   -2.0922   10.9222   -4.3458 C   0  0  0  0  0  0  0  0  0  0  0  0
   -1.3100    6.6483   -3.3754 C   0  0  0  0  0  0  0  0  0  0  0  0
  1 14  1  0  0  0  0
  1  2  2  0  0  0  0
  3  2  1  0  0  0  0
  3  8  2  0  0  0  0
  4  3  1  0  0  0  0
  5  7  2  0  0  0  0
  5  4  1  0  0  0  0
  6  5  1  0  0  0  0
  7  1  1  0  0  0  0
  9 10  1  0  0  0  0
  9  8  1  0  0  0  0
 11  9  2  0  0  0  0
 12 11  1  0  0  0  0
 13  4  2  0  0  0  0
 13 11  1  0  0  0  0
 14 15  1  0  0  0  0
 16 15  1  0  0  0  0
 17 16  1  0  0  0  0
 18 17  1  0  0  0  0
 18 19  1  0  0  0  0
 19 14  1  0  0  0  0
 20 10  1  0  0  0  0
 21 12  1  0  0  0  0
M  END
>  <CHROM.1>
70.91227147,-55.61175614,-87.68173453,-2.75119568,9.93575922,-0.16605175
-2.60216427,0.87708879,-1.24368277

>  <Name>
lig.pdb

>  <RI>
3.07369e+07

>  <Rbt.Current_Directory>
/home/itssahil/PROJECTS/Mol_Feturizer/New_Systems/rnas/2lwk

>  <Rbt.Executable>
rbdock ($Id: //depot/dev/client3/rdock/2013.1/src/exe/rbdock.cxx#4 $)

>  <Rbt.Library>
libRbt.so (2013.1, Build901 2013/11/27)

>  <Rbt.Parameter_File>
/export/apps/rDock/src/rDock_2013.1_src/data/scripts/dock_solv.prm

>  <Rbt.Receptor>
prm/blind_docking_100.prm

>  <SCORE>
-5.23312

>  <SCORE.INTER>
-1.88601

>  <SCORE.INTER.CONST>
1

>  <SCORE.INTER.POLAR>
-0.559632

>  <SCORE.INTER.ROT>
3

>  <SCORE.INTER.SOLV>
14.133

>  <SCORE.INTER.VDW>
-9.70292

>  <SCORE.INTER.norm>
-0.08981

>  <SCORE.INTRA>
-3.60842

>  <SCORE.INTRA.DIHEDRAL>
-1.2923

>  <SCORE.INTRA.DIHEDRAL.0>
8.84257

>  <SCORE.INTRA.POLAR>
0

>  <SCORE.INTRA.POLAR.0>
0

>  <SCORE.INTRA.REPUL>
0

>  <SCORE.INTRA.REPUL.0>
0

>  <SCORE.INTRA.SOLV>
0.0589388

>  <SCORE.INTRA.SOLV.lig_0>
-17.1313

>  <SCORE.INTRA.VDW>
-2.99174

>  <SCORE.INTRA.VDW.0>
6.34071

>  <SCORE.INTRA.norm>
-0.17183

>  <SCORE.RESTR>
0.261309

>  <SCORE.RESTR.CAVITY>
0.261309

>  <SCORE.RESTR.norm>
0.0124433

>  <SCORE.SYSTEM>
0

>  <SCORE.SYSTEM.CONST>
0

>  <SCORE.SYSTEM.DIHEDRAL>
0

>  <SCORE.SYSTEM.SOLV>
0

>  <SCORE.SYSTEM.norm>
0

>  <SCORE.heavy>
21

>  <SCORE.norm>
-0.249196

>  <RMSD>
13.155

$$$$
lig.pdb
 OpenBabel11021811453D
libRbt.so/2013.1/901 2013/11/27
 21 23  0  0  0  0  0  0  0  0999 V2000
   -3.4182   10.2598    1.6812 C   0  0  0  0  0  0  0  0  0  0  0  0
   -3.3886   10.5599    0.3876 N   0  0  0  0  0  0  0  0  0  0  0  0
   -2.6021    9.8825   -0.4295 C   0  0  0  0  0  0  0  0  0  0  0  0
   -1.7795    8.9341    0.0623 C   0  0  0  0  0  0  0  0  0  0  0  0
   -1.8148    8.6318    1.3670 C   0  0  0  0  0  0  0  0  0  0  0  0
   -1.0017    7.6996    1.8626 N   0  0  0  0  0  0  0  0  0  0  0  0
   -2.6340    9.2995    2.1728 N   0  0  0  0  0  0  0  0  0  0  0  0
   -2.5953   10.1765   -1.7403 C   0  0  0  0  0  0  0  0  0  0  0  0
   -1.6539    9.5981   -2.5474 C   0  0  0  0  0  0  0  0  0  0  0  0
   -1.0636   10.4027   -3.5510 O   0  0  0  0  0  0  0  0  0  0  0  0
   -0.9853    8.5291   -2.0844 C   0  0  0  0  0  0  0  0  0  0  0  0
   -0.3689    7.6338   -2.9991 O   0  0  0  0  0  0  0  0  0  0  0  0
   -0.9656    8.2620   -0.7639 C   0  0  0  0  0  0  0  0  0  0  0  0
   -4.2210   10.9332    2.4869 N   0  0  0  0  0  0  0  0  0  0  0  0
   -5.5291   10.6880    2.3645 C   0  0  0  0  0  0  0  0  0  0  0  0
   -6.0911   11.4398    1.1675 C   0  0  0  0  0  0  0  0  0  0  0  0
   -5.9169   12.7962    1.3489 N   0  0  0  0  0  0  0  0  0  0  0  0
   -4.5606   13.0249    1.4305 C   0  0  0  0  0  0  0  0  0  0  0  0
   -3.9971   12.2788    2.6284 C   0  0  0  0  0  0  0  0  0  0  0  0
   -2.0914   10.9152   -4.3598 C   0  0  0  0  0  0  0  0  0  0  0  0
   -1.2868    6.6246   -3.3296 C   0  0  0  0  0  0  0  0  0  0  0  0
  1 14  1  0  0  0  0
  1  2  2  0  0  0  0
  3  2  1  0  0  0  0
  3  8  2  0  0  0  0
  4  3  1  0  0  0  0
  5  7  2  0  0  0  0
  5  4  1  0  0  0  0
  6  5  1  0  0  0  0
  7  1  1  0  0  0  0
  9 10  1  0  0  0  0
  9  8  1  0  0  0  0
 11  9  2  0  0  0  0
 12 11  1  0  0  0  0
 13  4  2  0  0  0  0
 13 11  1  0  0  0  0
 14 15  1  0  0  0  0
 16 15  1  0  0  0  0
 17 16  1  0  0  0  0
 18 17  1  0  0  0  0
 18 19  1  0  0  0  0
 19 14  1  0  0  0  0
 20 10  1  0  0  0  0
 21 12  1  0  0  0  0
M  END
>  <CHROM.1>
71.68193452,-56.67460800,-90.44939653,-2.76028758,9.93599663,-0.16636509
-2.60690265,0.87309239,-1.23941899

>  <Name>
lig.pdb

>  <RI>
1.05666e+07

>  <Rbt.Current_Directory>
/home/itssahil/PROJECTS/Mol_Feturizer/New_Systems/rnas/2lwk

>  <Rbt.Executable>
rbdock ($Id: //depot/dev/client3/rdock/2013.1/src/exe/rbdock.cxx#4 $)

>  <Rbt.Library>
libRbt.so (2013.1, Build901 2013/11/27)

>  <Rbt.Parameter_File>
/export/apps/rDock/src/rDock_2013.1_src/data/scripts/dock_solv.prm

>  <Rbt.Receptor>
prm/blind_docking_80.prm

>  <SCORE>
-5.39404

>  <SCORE.INTER>
-1.98297

>  <SCORE.INTER.CONST>
1

>  <SCORE.INTER.POLAR>
-0.569024

>  <SCORE.INTER.ROT>
3

>  <SCORE.INTER.SOLV>
14.111

>  <SCORE.INTER.VDW>
-9.7289

>  <SCORE.INTER.norm>
-0.0944271

>  <SCORE.INTRA>
-3.71247

>  <SCORE.INTRA.DIHEDRAL>
-1.22002

>  <SCORE.INTRA.DIHEDRAL.0>
8.84257

>  <SCORE.INTRA.POLAR>
0

>  <SCORE.INTRA.POLAR.0>
0

>  <SCORE.INTRA.REPUL>
0

>  <SCORE.INTRA.REPUL.0>
0

>  <SCORE.INTRA.SOLV>
0.0577786

>  <SCORE.INTRA.SOLV.lig_0>
-17.1313

>  <SCORE.INTRA.VDW>
-3.13135

>  <SCORE.INTRA.VDW.0>
6.34071

>  <SCORE.INTRA.norm>
-0.176784

>  <SCORE.RESTR>
0.301406

>  <SCORE.RESTR.CAVITY>
0.301406

>  <SCORE.RESTR.norm>
0.0143527

>  <SCORE.SYSTEM>
0

>  <SCORE.SYSTEM.CONST>
0

>  <SCORE.SYSTEM.DIHEDRAL>
0

>  <SCORE.SYSTEM.SOLV>
0

>  <SCORE.SYSTEM.norm>
0

>  <SCORE.heavy>
21

>  <SCORE.norm>
-0.256859

>  <RMSD>
13.155

$$$$
lig.pdb
 OpenBabel11021811453D
libRbt.so/2013.1/901 2013/11/27
 21 23  0  0  0  0  0  0  0  0999 V2000
   -3.4301   10.2543    1.6748 C   0  0  0  0  0  0  0  0  0  0  0  0
   -3.3952   10.5556    0.3816 N   0  0  0  0  0  0  0  0  0  0  0  0
   -2.6047    9.8797   -0.4327 C   0  0  0  0  0  0  0  0  0  0  0  0
   -1.7834    8.9315    0.0618 C   0  0  0  0  0  0  0  0  0  0  0  0
   -1.8240    8.6279    1.3660 C   0  0  0  0  0  0  0  0  0  0  0  0
   -1.0123    7.6959    1.8642 N   0  0  0  0  0  0  0  0  0  0  0  0
   -2.6472    9.2943    2.1689 N   0  0  0  0  0  0  0  0  0  0  0  0
   -2.5926   10.1749   -1.7432 C   0  0  0  0  0  0  0  0  0  0  0  0
   -1.6472    9.5980   -2.5468 C   0  0  0  0  0  0  0  0  0  0  0  0
   -1.0533   10.4040   -3.5472 O   0  0  0  0  0  0  0  0  0  0  0  0
   -0.9797    8.5291   -2.0819 C   0  0  0  0  0  0  0  0  0  0  0  0
   -0.3586    7.6352   -2.9948 O   0  0  0  0  0  0  0  0  0  0  0  0
   -0.9655    8.2608   -0.7615 C   0  0  0  0  0  0  0  0  0  0  0  0
   -4.2370   10.9263    2.4777 N   0  0  0  0  0  0  0  0  0  0  0  0
   -5.5451   10.6886    2.3417 C   0  0  0  0  0  0  0  0  0  0  0  0
   -6.0922   11.4513    1.1446 C   0  0  0  0  0  0  0  0  0  0  0  0
   -5.9129   12.8055    1.3369 N   0  0  0  0  0  0  0  0  0  0  0  0
   -4.5563   13.0268    1.4324 C   0  0  0  0  0  0  0  0  0  0  0  0
   -4.0076   12.2698    2.6304 C   0  0  0  0  0  0  0  0  0  0  0  0
   -2.0794   10.9322   -4.3479 C   0  0  0  0  0  0  0  0  0  0  0  0
   -1.2816    6.6381   -3.3474 C   0  0  0  0  0  0  0  0  0  0  0  0
  1 14  1  0  0  0  0
  1  2  2  0  0  0  0
  3  2  1  0  0  0  0
  3  8  2  0  0  0  0
  4  3  1  0  0  0  0
  5  7  2  0  0  0  0
  5  4  1  0  0  0  0
  6  5  1  0  0  0  0
  7  1  1  0  0  0  0
  9 10  1  0  0  0  0
  9  8  1  0  0  0  0
 11  9  2  0  0  0  0
 12 11  1  0  0  0  0
 13  4  2  0  0  0  0
 13 11  1  0  0  0  0
 14 15  1  0  0  0  0
 16 15  1  0  0  0  0
 17 16  1  0  0  0  0
 18 17  1  0  0  0  0
 18 19  1  0  0  0  0
 19 14  1  0  0  0  0
 20 10  1  0  0  0  0
 21 12  1  0  0  0  0
M  END
>  <CHROM.1>
71.13115399,-55.82109108,-89.47310622,-2.76202492,9.93671259,-0.17007336
-2.61282755,0.87289297,-1.23372634

>  <Name>
lig.pdb

>  <RI>
1.05666e+07

>  <Rbt.Current_Directory>
/home/itssahil/PROJECTS/Mol_Feturizer/New_Systems/rnas/2lwk

>  <Rbt.Executable>
rbdock ($Id: //depot/dev/client3/rdock/2013.1/src/exe/rbdock.cxx#4 $)

>  <Rbt.Library>
libRbt.so (2013.1, Build901 2013/11/27)

>  <Rbt.Parameter_File>
/export/apps/rDock/src/rDock_2013.1_src/data/scripts/dock_solv.prm

>  <Rbt.Receptor>
prm/blind_docking_80.prm

>  <SCORE>
-5.34887

>  <SCORE.INTER>
-2.01715

>  <SCORE.INTER.CONST>
1

>  <SCORE.INTER.POLAR>
-0.576074

>  <SCORE.INTER.ROT>
3

>  <SCORE.INTER.SOLV>
14.0775

>  <SCORE.INTER.VDW>
-9.71702

>  <SCORE.INTER.norm>
-0.0960547

>  <SCORE.INTRA>
-3.62835

>  <SCORE.INTRA.DIHEDRAL>
-1.27931

>  <SCORE.INTRA.DIHEDRAL.0>
8.84257

>  <SCORE.INTRA.POLAR>
0

>  <SCORE.INTRA.POLAR.0>
0

>  <SCORE.INTRA.REPUL>
0

>  <SCORE.INTRA.REPUL.0>
0

>  <SCORE.INTRA.SOLV>
0.0579297

>  <SCORE.INTRA.SOLV.lig_0>
-17.1313

>  <SCORE.INTRA.VDW>
-3.01766

>  <SCORE.INTRA.VDW.0>
6.34071

>  <SCORE.INTRA.norm>
-0.172779

>  <SCORE.RESTR>
0.296635

>  <SCORE.RESTR.CAVITY>
0.296635

>  <SCORE.RESTR.norm>
0.0141255

>  <SCORE.SYSTEM>
0

>  <SCORE.SYSTEM.CONST>
0

>  <SCORE.SYSTEM.DIHEDRAL>
0

>  <SCORE.SYSTEM.SOLV>
0

>  <SCORE.SYSTEM.norm>
0

>  <SCORE.heavy>
21

>  <SCORE.norm>
-0.254708

>  <RMSD>
13.157

$$$$
lig.pdb
 OpenBabel11021811453D
libRbt.so/2013.1/901 2013/11/27
 21 23  0  0  0  0  0  0  0  0999 V2000
   -3.4130   10.2621    1.6793 C   0  0  0  0  0  0  0  0  0  0  0  0
   -3.3836   10.5599    0.3852 N   0  0  0  0  0  0  0  0  0  0  0  0
   -2.5994    9.8793   -0.4313 C   0  0  0  0  0  0  0  0  0  0  0  0
   -1.7786    8.9298    0.0616 C   0  0  0  0  0  0  0  0  0  0  0  0
   -1.8138    8.6297    1.3668 C   0  0  0  0  0  0  0  0  0  0  0  0
   -1.0026    7.6964    1.8634 N   0  0  0  0  0  0  0  0  0  0  0  0
   -2.6308    9.3008    2.1720 N   0  0  0  0  0  0  0  0  0  0  0  0
   -2.5928   10.1711   -1.7426 C   0  0  0  0  0  0  0  0  0  0  0  0
   -1.6533    9.5890   -2.5494 C   0  0  0  0  0  0  0  0  0  0  0  0
   -1.0617   10.3906   -3.5548 O   0  0  0  0  0  0  0  0  0  0  0  0
   -0.9869    8.5193   -2.0850 C   0  0  0  0  0  0  0  0  0  0  0  0
   -0.3733    7.6209   -2.9986 O   0  0  0  0  0  0  0  0  0  0  0  0
   -0.9670    8.2543   -0.7640 C   0  0  0  0  0  0  0  0  0  0  0  0
   -4.2137   10.9388    2.4844 N   0  0  0  0  0  0  0  0  0  0  0  0
   -5.5237   10.7094    2.3513 C   0  0  0  0  0  0  0  0  0  0  0  0
   -6.0687   11.4763    1.1560 C   0  0  0  0  0  0  0  0  0  0  0  0
   -5.8803   12.8292    1.3485 N   0  0  0  0  0  0  0  0  0  0  0  0
   -4.5222   13.0418    1.4410 C   0  0  0  0  0  0  0  0  0  0  0  0
   -3.9755   12.2807    2.6373 C   0  0  0  0  0  0  0  0  0  0  0  0
   -2.0901   10.9203   -4.3515 C   0  0  0  0  0  0  0  0  0  0  0  0
   -1.3107    6.6437   -3.3680 C   0  0  0  0  0  0  0  0  0  0  0  0
  1 14  1  0  0  0  0
  1  2  2  0  0  0  0
  3  2  1  0  0  0  0
  3  8  2  0  0  0  0
  4  3  1  0  0  0  0
  5  7  2  0  0  0  0
  5  4  1  0  0  0  0
  6  5  1  0  0  0  0
  7  1  1  0  0  0  0
  9 10  1  0  0  0  0
  9  8  1  0  0  0  0
 11  9  2  0  0  0  0
 12 11  1  0  0  0  0
 13  4  2  0  0  0  0
 13 11  1  0  0  0  0
 14 15  1  0  0  0  0
 16 15  1  0  0  0  0
 17 16  1  0  0  0  0
 18 17  1  0  0  0  0
 18 19  1  0  0  0  0
 19 14  1  0  0  0  0
 20 10  1  0  0  0  0
 21 12  1  0  0  0  0
M  END
>  <CHROM.1>
70.83445379,-55.80320856,-88.12371855,-2.75433274,9.93979710,-0.16903930
-2.60483128,0.87814674,-1.24224550

>  <Name>
lig.pdb

>  <RI>
1.05666e+07

>  <Rbt.Current_Directory>
/home/itssahil/PROJECTS/Mol_Feturizer/New_Systems/rnas/2lwk

>  <Rbt.Executable>
rbdock ($Id: //depot/dev/client3/rdock/2013.1/src/exe/rbdock.cxx#4 $)

>  <Rbt.Library>
libRbt.so (2013.1, Build901 2013/11/27)

>  <Rbt.Parameter_File>
/export/apps/rDock/src/rDock_2013.1_src/data/scripts/dock_solv.prm

>  <Rbt.Receptor>
prm/blind_docking_80.prm

>  <SCORE>
-5.29353

>  <SCORE.INTER>
-1.93918

>  <SCORE.INTER.CONST>
1

>  <SCORE.INTER.POLAR>
-0.561739

>  <SCORE.INTER.ROT>
3

>  <SCORE.INTER.SOLV>
14.1114

>  <SCORE.INTER.VDW>
-9.72411

>  <SCORE.INTER.norm>
-0.0923418

>  <SCORE.INTRA>
-3.62589

>  <SCORE.INTRA.DIHEDRAL>
-1.27751

>  <SCORE.INTRA.DIHEDRAL.0>
8.84257

>  <SCORE.INTRA.POLAR>
0

>  <SCORE.INTRA.POLAR.0>
0

>  <SCORE.INTRA.REPUL>
0

>  <SCORE.INTRA.REPUL.0>
0

>  <SCORE.INTRA.SOLV>
0.0588222

>  <SCORE.INTRA.SOLV.lig_0>
-17.1313

>  <SCORE.INTRA.VDW>
-3.01654

>  <SCORE.INTRA.VDW.0>
6.34071

>  <SCORE.INTRA.norm>
-0.172661

>  <SCORE.RESTR>
0.271537

>  <SCORE.RESTR.CAVITY>
0.271537

>  <SCORE.RESTR.norm>
0.0129303

>  <SCORE.SYSTEM>
0

>  <SCORE.SYSTEM.CONST>
0

>  <SCORE.SYSTEM.DIHEDRAL>
0

>  <SCORE.SYSTEM.SOLV>
0

>  <SCORE.SYSTEM.norm>
0

>  <SCORE.heavy>
21

>  <SCORE.norm>
-0.252073

>  <RMSD>
13.158

$$$$
lig.pdb
 OpenBabel11021811453D
libRbt.so/2013.1/901 2013/11/27
 21 23  0  0  0  0  0  0  0  0999 V2000
   -2.9138   11.4397    0.0757 C   0  0  0  0  0  0  0  0  0  0  0  0
   -2.3300   10.3245    0.4996 N   0  0  0  0  0  0  0  0  0  0  0  0
   -1.8121    9.4779   -0.3721 C   0  0  0  0  0  0  0  0  0  0  0  0
   -1.9381    9.7134   -1.6938 C   0  0  0  0  0  0  0  0  0  0  0  0
   -2.5244   10.8411   -2.1175 C   0  0  0  0  0  0  0  0  0  0  0  0
   -2.6578   11.0795   -3.4217 N   0  0  0  0  0  0  0  0  0  0  0  0
   -3.0131   11.6998   -1.2286 N   0  0  0  0  0  0  0  0  0  0  0  0
   -1.2026    8.3637    0.0658 C   0  0  0  0  0  0  0  0  0  0  0  0
   -0.8295    7.4089   -0.8406 C   0  0  0  0  0  0  0  0  0  0  0  0
   -1.0143    6.0525   -0.4812 O   0  0  0  0  0  0  0  0  0  0  0  0
   -0.7864    7.7443   -2.1405 C   0  0  0  0  0  0  0  0  0  0  0  0
    0.0106    6.9840   -3.0377 O   0  0  0  0  0  0  0  0  0  0  0  0
   -1.4316    8.8431   -2.5785 C   0  0  0  0  0  0  0  0  0  0  0  0
   -3.4142   12.2877    0.9576 N   0  0  0  0  0  0  0  0  0  0  0  0
   -3.6681   11.7989    2.1754 C   0  0  0  0  0  0  0  0  0  0  0  0
   -4.9792   11.0276    2.1650 C   0  0  0  0  0  0  0  0  0  0  0  0
   -6.0107   11.8722    1.8105 N   0  0  0  0  0  0  0  0  0  0  0  0
   -5.7442   12.3281    0.5379 C   0  0  0  0  0  0  0  0  0  0  0  0
   -4.4372   13.1032    0.5460 C   0  0  0  0  0  0  0  0  0  0  0  0
   -0.3122    5.8180    0.7126 C   0  0  0  0  0  0  0  0  0  0  0  0
   -0.8210    6.0950   -3.7366 C   0  0  0  0  0  0  0  0  0  0  0  0
  1 14  1  0  0  0  0
  1  2  2  0  0  0  0
  3  2  1  0  0  0  0
  3  8  2  0  0  0  0
  4  3  1  0  0  0  0
  5  7  2  0  0  0  0
  5  4  1  0  0  0  0
  6  5  1  0  0  0  0
  7  1  1  0  0  0  0
  9 10  1  0  0  0  0
  9  8  1  0  0  0  0
 11  9  2  0  0  0  0
 12 11  1  0  0  0  0
 13  4  2  0  0  0  0
 13 11  1  0  0  0  0
 14 15  1  0  0  0  0
 16 15  1  0  0  0  0
 17 16  1  0  0  0  0
 18 17  1  0  0  0  0
 18 19  1  0  0  0  0
 19 14  1  0  0  0  0
 20 10  1  0  0  0  0
 21 12  1  0  0  0  0
M  END
>  <CHROM.1>
-19.79664763,-57.31212946,100.19629734,-2.47876574,9.69792262,-0.58159899
3.08826900,-0.98682380,2.02238348

>  <Name>
lig.pdb

>  <RI>
2.05709e+07

>  <Rbt.Current_Directory>
/home/itssahil/PROJECTS/Mol_Feturizer/New_Systems/rnas/2lwk

>  <Rbt.Executable>
rbdock ($Id: //depot/dev/client3/rdock/2013.1/src/exe/rbdock.cxx#4 $)

>  <Rbt.Library>
libRbt.so (2013.1, Build901 2013/11/27)

>  <Rbt.Parameter_File>
/export/apps/rDock/src/rDock_2013.1_src/data/scripts/dock_solv.prm

>  <Rbt.Receptor>
prm/blind_docking_40.prm

>  <SCORE>
-15.3579

>  <SCORE.INTER>
-15.0834

>  <SCORE.INTER.CONST>
1

>  <SCORE.INTER.POLAR>
-1.01474

>  <SCORE.INTER.ROT>
3

>  <SCORE.INTER.SOLV>
13.7183

>  <SCORE.INTER.VDW>
-16.8459

>  <SCORE.INTER.norm>
-0.718256

>  <SCORE.INTRA>
-1.74989

>  <SCORE.INTRA.DIHEDRAL>
-1.26883

>  <SCORE.INTRA.DIHEDRAL.0>
8.84257

>  <SCORE.INTRA.POLAR>
0

>  <SCORE.INTRA.POLAR.0>
0

>  <SCORE.INTRA.REPUL>
0

>  <SCORE.INTRA.REPUL.0>
0

>  <SCORE.INTRA.SOLV>
-0.0349178

>  <SCORE.INTRA.SOLV.lig_0>
-17.1313

>  <SCORE.INTRA.VDW>
-1.09801

>  <SCORE.INTRA.VDW.0>
6.34071

>  <SCORE.INTRA.norm>
-0.0833279

>  <SCORE.RESTR>
1.47541

>  <SCORE.RESTR.CAVITY>
1.47541

>  <SCORE.RESTR.norm>
0.0702576

>  <SCORE.SYSTEM>
0

>  <SCORE.SYSTEM.CONST>
0

>  <SCORE.SYSTEM.DIHEDRAL>
0

>  <SCORE.SYSTEM.SOLV>
0

>  <SCORE.SYSTEM.norm>
0

>  <SCORE.heavy>
21

>  <SCORE.norm>
-0.731326

>  <RMSD>
13.160

$$$$
lig.pdb
 OpenBabel11021811453D
libRbt.so/2013.1/901 2013/11/27
 21 23  0  0  0  0  0  0  0  0999 V2000
   -3.4113   10.2575    1.6804 C   0  0  0  0  0  0  0  0  0  0  0  0
   -3.3826   10.5562    0.3865 N   0  0  0  0  0  0  0  0  0  0  0  0
   -2.5966    9.8781   -0.4303 C   0  0  0  0  0  0  0  0  0  0  0  0
   -1.7735    8.9303    0.0620 C   0  0  0  0  0  0  0  0  0  0  0  0
   -1.8079    8.6293    1.3670 C   0  0  0  0  0  0  0  0  0  0  0  0
   -0.9945    7.6978    1.8630 N   0  0  0  0  0  0  0  0  0  0  0  0
   -2.6267    9.2978    2.1726 N   0  0  0  0  0  0  0  0  0  0  0  0
   -2.5907   10.1707   -1.7415 C   0  0  0  0  0  0  0  0  0  0  0  0
   -1.6497    9.5916   -2.5486 C   0  0  0  0  0  0  0  0  0  0  0  0
   -1.0601   10.3952   -3.5534 O   0  0  0  0  0  0  0  0  0  0  0  0
   -0.9806    8.5232   -2.0849 C   0  0  0  0  0  0  0  0  0  0  0  0
   -0.3647    7.6270   -2.9990 O   0  0  0  0  0  0  0  0  0  0  0  0
   -0.9601    8.2575   -0.7641 C   0  0  0  0  0  0  0  0  0  0  0  0
   -4.2138   10.9316    2.4859 N   0  0  0  0  0  0  0  0  0  0  0  0
   -5.5235   10.7045    2.3477 C   0  0  0  0  0  0  0  0  0  0  0  0
   -6.0638   11.4772    1.1540 C   0  0  0  0  0  0  0  0  0  0  0  0
   -5.8744   12.8291    1.3530 N   0  0  0  0  0  0  0  0  0  0  0  0
   -4.5163   13.0396    1.4508 C   0  0  0  0  0  0  0  0  0  0  0  0
   -3.9743   12.2726    2.6455 C   0  0  0  0  0  0  0  0  0  0  0  0
   -2.0897   10.9220   -4.3506 C   0  0  0  0  0  0  0  0  0  0  0  0
   -1.3123    6.6735   -3.4030 C   0  0  0  0  0  0  0  0  0  0  0  0
  1 14  1  0  0  0  0
  1  2  2  0  0  0  0
  3  2  1  0  0  0  0
  3  8  2  0  0  0  0
  4  3  1  0  0  0  0
  5  7  2  0  0  0  0
  5  4  1  0  0  0  0
  6  5  1  0  0  0  0
  7  1  1  0  0  0  0
  9 10  1  0  0  0  0
  9  8  1  0  0  0  0
 11  9  2  0  0  0  0
 12 11  1  0  0  0  0
 13  4  2  0  0  0  0
 13 11  1  0  0  0  0
 14 15  1  0  0  0  0
 16 15  1  0  0  0  0
 17 16  1  0  0  0  0
 18 17  1  0  0  0  0
 18 19  1  0  0  0  0
 19 14  1  0  0  0  0
 20 10  1  0  0  0  0
 21 12  1  0  0  0  0
M  END
>  <CHROM.1>
70.48256021,-55.85381457,-86.20721797,-2.75078691,9.94088906,-0.16957358
-2.60016921,0.87625256,-1.24484611

>  <Name>
lig.pdb

>  <RI>
2.05709e+07

>  <Rbt.Current_Directory>
/home/itssahil/PROJECTS/Mol_Feturizer/New_Systems/rnas/2lwk

>  <Rbt.Executable>
rbdock ($Id: //depot/dev/client3/rdock/2013.1/src/exe/rbdock.cxx#4 $)

>  <Rbt.Library>
libRbt.so (2013.1, Build901 2013/11/27)

>  <Rbt.Parameter_File>
/export/apps/rDock/src/rDock_2013.1_src/data/scripts/dock_solv.prm

>  <Rbt.Receptor>
prm/blind_docking_40.prm

>  <SCORE>
-5.11031

>  <SCORE.INTER>
-1.69531

>  <SCORE.INTER.CONST>
1

>  <SCORE.INTER.POLAR>
-0.56031

>  <SCORE.INTER.ROT>
3

>  <SCORE.INTER.SOLV>
14.1483

>  <SCORE.INTER.VDW>
-9.5786

>  <SCORE.INTER.norm>
-0.0807293

>  <SCORE.INTRA>
-3.65154

>  <SCORE.INTRA.DIHEDRAL>
-1.27832

>  <SCORE.INTRA.DIHEDRAL.0>
8.84257

>  <SCORE.INTRA.POLAR>
0

>  <SCORE.INTRA.POLAR.0>
0

>  <SCORE.INTRA.REPUL>
0

>  <SCORE.INTRA.REPUL.0>
0

>  <SCORE.INTRA.SOLV>
0.0601495

>  <SCORE.INTRA.SOLV.lig_0>
-17.1313

>  <SCORE.INTRA.VDW>
-3.04245

>  <SCORE.INTRA.VDW.0>
6.34071

>  <SCORE.INTRA.norm>
-0.173883

>  <SCORE.RESTR>
0.236541

>  <SCORE.RESTR.CAVITY>
0.236541

>  <SCORE.RESTR.norm>
0.0112639

>  <SCORE.SYSTEM>
0

>  <SCORE.SYSTEM.CONST>
0

>  <SCORE.SYSTEM.DIHEDRAL>
0

>  <SCORE.SYSTEM.SOLV>
0

>  <SCORE.SYSTEM.norm>
0

>  <SCORE.heavy>
21

>  <SCORE.norm>
-0.243348

>  <RMSD>
13.161

$$$$
lig.pdb
 OpenBabel11021811453D
libRbt.so/2013.1/901 2013/11/27
 21 23  0  0  0  0  0  0  0  0999 V2000
   -3.4139   10.2633    1.6810 C   0  0  0  0  0  0  0  0  0  0  0  0
   -3.3861   10.5626    0.3872 N   0  0  0  0  0  0  0  0  0  0  0  0
   -2.6015    9.8843   -0.4307 C   0  0  0  0  0  0  0  0  0  0  0  0
   -1.7788    8.9355    0.0603 C   0  0  0  0  0  0  0  0  0  0  0  0
   -1.8122    8.6339    1.3652 C   0  0  0  0  0  0  0  0  0  0  0  0
   -0.9991    7.7014    1.8600 N   0  0  0  0  0  0  0  0  0  0  0  0
   -2.6297    9.3027    2.1719 N   0  0  0  0  0  0  0  0  0  0  0  0
   -2.5966   10.1776   -1.7417 C   0  0  0  0  0  0  0  0  0  0  0  0
   -1.6569    9.5981   -2.5500 C   0  0  0  0  0  0  0  0  0  0  0  0
   -1.0675   10.4017   -3.5550 O   0  0  0  0  0  0  0  0  0  0  0  0
   -0.9882    8.5288   -2.0875 C   0  0  0  0  0  0  0  0  0  0  0  0
   -0.3740    7.6326   -3.0027 O   0  0  0  0  0  0  0  0  0  0  0  0
   -0.9667    8.2624   -0.7668 C   0  0  0  0  0  0  0  0  0  0  0  0
   -4.2150   10.9377    2.4876 N   0  0  0  0  0  0  0  0  0  0  0  0
   -5.5246   10.7052    2.3566 C   0  0  0  0  0  0  0  0  0  0  0  0
   -6.0734   11.4710    1.1623 C   0  0  0  0  0  0  0  0  0  0  0  0
   -5.8881   12.8244    1.3551 N   0  0  0  0  0  0  0  0  0  0  0  0
   -4.5303   13.0403    1.4455 C   0  0  0  0  0  0  0  0  0  0  0  0
   -3.9798   12.2802    2.6406 C   0  0  0  0  0  0  0  0  0  0  0  0
   -2.0967   10.9205   -4.3579 C   0  0  0  0  0  0  0  0  0  0  0  0
   -1.3138    6.6614   -3.3818 C   0  0  0  0  0  0  0  0  0  0  0  0
  1 14  1  0  0  0  0
  1  2  2  0  0  0  0
  3  2  1  0  0  0  0
  3  8  2  0  0  0  0
  4  3  1  0  0  0  0
  5  7  2  0  0  0  0
  5  4  1  0  0  0  0
  6  5  1  0  0  0  0
  7  1  1  0  0  0  0
  9 10  1  0  0  0  0
  9  8  1  0  0  0  0
 11  9  2  0  0  0  0
 12 11  1  0  0  0  0
 13  4  2  0  0  0  0
 13 11  1  0  0  0  0
 14 15  1  0  0  0  0
 16 15  1  0  0  0  0
 17 16  1  0  0  0  0
 18 17  1  0  0  0  0
 18 19  1  0  0  0  0
 19 14  1  0  0  0  0
 20 10  1  0  0  0  0
 21 12  1  0  0  0  0
M  END
>  <CHROM.1>
70.91205908,-56.35169143,-87.58867489,-2.75682862,9.94371328,-0.16921848
-2.60063522,0.87616123,-1.24429579

>  <Name>
lig.pdb

>  <RI>
1.05666e+07

>  <Rbt.Current_Directory>
/home/itssahil/PROJECTS/Mol_Feturizer/New_Systems/rnas/2lwk

>  <Rbt.Executable>
rbdock ($Id: //depot/dev/client3/rdock/2013.1/src/exe/rbdock.cxx#4 $)

>  <Rbt.Library>
libRbt.so (2013.1, Build901 2013/11/27)

>  <Rbt.Parameter_File>
/export/apps/rDock/src/rDock_2013.1_src/data/scripts/dock_solv.prm

>  <Rbt.Receptor>
prm/blind_docking_80.prm

>  <SCORE>
-5.20777

>  <SCORE.INTER>
-1.7638

>  <SCORE.INTER.CONST>
1

>  <SCORE.INTER.POLAR>
-0.562367

>  <SCORE.INTER.ROT>
3

>  <SCORE.INTER.SOLV>
14.1269

>  <SCORE.INTER.VDW>
-9.61027

>  <SCORE.INTER.norm>
-0.0839907

>  <SCORE.INTRA>
-3.69509

>  <SCORE.INTRA.DIHEDRAL>
-1.23602

>  <SCORE.INTRA.DIHEDRAL.0>
8.84257

>  <SCORE.INTRA.POLAR>
0

>  <SCORE.INTRA.POLAR.0>
0

>  <SCORE.INTRA.REPUL>
0

>  <SCORE.INTRA.REPUL.0>
0

>  <SCORE.INTRA.SOLV>
0.0595157

>  <SCORE.INTRA.SOLV.lig_0>
-17.1313

>  <SCORE.INTRA.VDW>
-3.10684

>  <SCORE.INTRA.VDW.0>
6.34071

>  <SCORE.INTRA.norm>
-0.175957

>  <SCORE.RESTR>
0.251132

>  <SCORE.RESTR.CAVITY>
0.251132

>  <SCORE.RESTR.norm>
0.0119587

>  <SCORE.SYSTEM>
0

>  <SCORE.SYSTEM.CONST>
0

>  <SCORE.SYSTEM.DIHEDRAL>
0

>  <SCORE.SYSTEM.SOLV>
0

>  <SCORE.SYSTEM.norm>
0

>  <SCORE.heavy>
21

>  <SCORE.norm>
-0.247989

>  <RMSD>
13.161

$$$$
lig.pdb
 OpenBabel11021811453D
libRbt.so/2013.1/901 2013/11/27
 21 23  0  0  0  0  0  0  0  0999 V2000
   -3.4068   10.2617    1.6755 C   0  0  0  0  0  0  0  0  0  0  0  0
   -3.3807   10.5635    0.3822 N   0  0  0  0  0  0  0  0  0  0  0  0
   -2.5987    9.8853   -0.4384 C   0  0  0  0  0  0  0  0  0  0  0  0
   -1.7769    8.9341    0.0495 C   0  0  0  0  0  0  0  0  0  0  0  0
   -1.8087    8.6300    1.3538 C   0  0  0  0  0  0  0  0  0  0  0  0
   -0.9964    7.6951    1.8454 N   0  0  0  0  0  0  0  0  0  0  0  0
   -2.6235    9.2988    2.1632 N   0  0  0  0  0  0  0  0  0  0  0  0
   -2.5954   10.1810   -1.7488 C   0  0  0  0  0  0  0  0  0  0  0  0
   -1.6582    9.6014   -2.5598 C   0  0  0  0  0  0  0  0  0  0  0  0
   -1.0691   10.4058   -3.5642 O   0  0  0  0  0  0  0  0  0  0  0  0
   -0.9907    8.5300   -2.1004 C   0  0  0  0  0  0  0  0  0  0  0  0
   -0.3796    7.6344   -3.0184 O   0  0  0  0  0  0  0  0  0  0  0  0
   -0.9674    8.2611   -0.7803 C   0  0  0  0  0  0  0  0  0  0  0  0
   -4.2053   10.9361    2.4847 N   0  0  0  0  0  0  0  0  0  0  0  0
   -5.5148   10.6975    2.3634 C   0  0  0  0  0  0  0  0  0  0  0  0
   -6.0749   11.4562    1.1698 C   0  0  0  0  0  0  0  0  0  0  0  0
   -5.8940   12.8111    1.3558 N   0  0  0  0  0  0  0  0  0  0  0  0
   -4.5365   13.0331    1.4362 C   0  0  0  0  0  0  0  0  0  0  0  0
   -3.9748   12.2801    2.6306 C   0  0  0  0  0  0  0  0  0  0  0  0
   -2.0980   10.9197   -4.3707 C   0  0  0  0  0  0  0  0  0  0  0  0
   -1.3177    6.6575   -3.3870 C   0  0  0  0  0  0  0  0  0  0  0  0
  1 14  1  0  0  0  0
  1  2  2  0  0  0  0
  3  2  1  0  0  0  0
  3  8  2  0  0  0  0
  4  3  1  0  0  0  0
  5  7  2  0  0  0  0
  5  4  1  0  0  0  0
  6  5  1  0  0  0  0
  7  1  1  0  0  0  0
  9 10  1  0  0  0  0
  9  8  1  0  0  0  0
 11  9  2  0  0  0  0
 12 11  1  0  0  0  0
 13  4  2  0  0  0  0
 13 11  1  0  0  0  0
 14 15  1  0  0  0  0
 16 15  1  0  0  0  0
 17 16  1  0  0  0  0
 18 17  1  0  0  0  0
 18 19  1  0  0  0  0
 19 14  1  0  0  0  0
 20 10  1  0  0  0  0
 21 12  1  0  0  0  0
M  END
>  <CHROM.1>
71.47820866,-56.80060638,-88.19784009,-2.75578543,9.94111883,-0.17669019
-2.59902044,0.87641189,-1.24367445

>  <Name>
lig.pdb

>  <RI>
4.07847e+07

>  <Rbt.Current_Directory>
/home/itssahil/PROJECTS/Mol_Feturizer/New_Systems/rnas/2lwk

>  <Rbt.Executable>
rbdock ($Id: //depot/dev/client3/rdock/2013.1/src/exe/rbdock.cxx#4 $)

>  <Rbt.Library>
libRbt.so (2013.1, Build901 2013/11/27)

>  <Rbt.Parameter_File>
/export/apps/rDock/src/rDock_2013.1_src/data/scripts/dock_solv.prm

>  <Rbt.Receptor>
prm/blind_docking_20.prm

>  <SCORE>
-5.20666

>  <SCORE.INTER>
-1.72429

>  <SCORE.INTER.CONST>
1

>  <SCORE.INTER.POLAR>
-0.535666

>  <SCORE.INTER.ROT>
3

>  <SCORE.INTER.SOLV>
14.1203

>  <SCORE.INTER.VDW>
-9.67074

>  <SCORE.INTER.norm>
-0.0821088

>  <SCORE.INTRA>
-3.73854

>  <SCORE.INTRA.DIHEDRAL>
-1.20184

>  <SCORE.INTRA.DIHEDRAL.0>
8.84257

>  <SCORE.INTRA.POLAR>
0

>  <SCORE.INTRA.POLAR.0>
0

>  <SCORE.INTRA.REPUL>
0

>  <SCORE.INTRA.REPUL.0>
0

>  <SCORE.INTRA.SOLV>
0.059287

>  <SCORE.INTRA.SOLV.lig_0>
-17.1313

>  <SCORE.INTRA.VDW>
-3.16727

>  <SCORE.INTRA.VDW.0>
6.34071

>  <SCORE.INTRA.norm>
-0.178026

>  <SCORE.RESTR>
0.256174

>  <SCORE.RESTR.CAVITY>
0.256174

>  <SCORE.RESTR.norm>
0.0121988

>  <SCORE.SYSTEM>
0

>  <SCORE.SYSTEM.CONST>
0

>  <SCORE.SYSTEM.DIHEDRAL>
0

>  <SCORE.SYSTEM.SOLV>
0

>  <SCORE.SYSTEM.norm>
0

>  <SCORE.heavy>
21

>  <SCORE.norm>
-0.247936

>  <RMSD>
13.162

$$$$
lig.pdb
 OpenBabel11021811453D
libRbt.so/2013.1/901 2013/11/27
 21 23  0  0  0  0  0  0  0  0999 V2000
   -2.9080   11.4488    0.0647 C   0  0  0  0  0  0  0  0  0  0  0  0
   -2.3332   10.3306    0.4930 N   0  0  0  0  0  0  0  0  0  0  0  0
   -1.8184    9.4784   -0.3752 C   0  0  0  0  0  0  0  0  0  0  0  0
   -1.9387    9.7117   -1.6978 C   0  0  0  0  0  0  0  0  0  0  0  0
   -2.5158   10.8424   -2.1259 C   0  0  0  0  0  0  0  0  0  0  0  0
   -2.6436   11.0787   -3.4310 N   0  0  0  0  0  0  0  0  0  0  0  0
   -3.0014   11.7065   -1.2406 N   0  0  0  0  0  0  0  0  0  0  0  0
   -1.2180    8.3610    0.0672 C   0  0  0  0  0  0  0  0  0  0  0  0
   -0.8487    7.4016   -0.8358 C   0  0  0  0  0  0  0  0  0  0  0  0
   -1.0440    6.0473   -0.4739 O   0  0  0  0  0  0  0  0  0  0  0  0
   -0.7992    7.7337   -2.1364 C   0  0  0  0  0  0  0  0  0  0  0  0
   -0.0047    6.9659   -3.0293 O   0  0  0  0  0  0  0  0  0  0  0  0
   -1.4355    8.8359   -2.5790 C   0  0  0  0  0  0  0  0  0  0  0  0
   -3.4053   12.3022    0.9431 N   0  0  0  0  0  0  0  0  0  0  0  0
   -3.6764   11.8155    2.1579 C   0  0  0  0  0  0  0  0  0  0  0  0
   -4.9972   11.0613    2.1349 C   0  0  0  0  0  0  0  0  0  0  0  0
   -6.0145   11.9195    1.7721 N   0  0  0  0  0  0  0  0  0  0  0  0
   -5.7307   12.3733    0.5025 C   0  0  0  0  0  0  0  0  0  0  0  0
   -4.4138   13.1314    0.5232 C   0  0  0  0  0  0  0  0  0  0  0  0
   -0.3029    5.7964    0.6926 C   0  0  0  0  0  0  0  0  0  0  0  0
   -0.8421    6.0910   -3.7390 C   0  0  0  0  0  0  0  0  0  0  0  0
  1 14  1  0  0  0  0
  1  2  2  0  0  0  0
  3  2  1  0  0  0  0
  3  8  2  0  0  0  0
  4  3  1  0  0  0  0
  5  7  2  0  0  0  0
  5  4  1  0  0  0  0
  6  5  1  0  0  0  0
  7  1  1  0  0  0  0
  9 10  1  0  0  0  0
  9  8  1  0  0  0  0
 11  9  2  0  0  0  0
 12 11  1  0  0  0  0
 13  4  2  0  0  0  0
 13 11  1  0  0  0  0
 14 15  1  0  0  0  0
 16 15  1  0  0  0  0
 17 16  1  0  0  0  0
 18 17  1  0  0  0  0
 18 19  1  0  0  0  0
 19 14  1  0  0  0  0
 20 10  1  0  0  0  0
 21 12  1  0  0  0  0
M  END
>  <CHROM.1>
-20.31634900,-59.69130287,100.81656304,-2.48179220,9.70421645,-0.59183873
3.09674759,-0.99066851,2.02419055

>  <Name>
lig.pdb

>  <RI>
1.99026e+07

>  <Rbt.Current_Directory>
/home/itssahil/PROJECTS/Mol_Feturizer/New_Systems/rnas/2lwk

>  <Rbt.Executable>
rbdock ($Id: //depot/dev/client3/rdock/2013.1/src/exe/rbdock.cxx#4 $)

>  <Rbt.Library>
libRbt.so (2013.1, Build901 2013/11/27)

>  <Rbt.Parameter_File>
/export/apps/rDock/src/rDock_2013.1_src/data/scripts/dock_solv.prm

>  <Rbt.Receptor>
prm/blind_docking_60.prm

>  <SCORE>
-15.3581

>  <SCORE.INTER>
-14.8319

>  <SCORE.INTER.CONST>
1

>  <SCORE.INTER.POLAR>
-0.966689

>  <SCORE.INTER.ROT>
3

>  <SCORE.INTER.SOLV>
13.6305

>  <SCORE.INTER.VDW>
-16.8091

>  <SCORE.INTER.norm>
-0.706279

>  <SCORE.INTRA>
-1.99126

>  <SCORE.INTRA.DIHEDRAL>
-1.10285

>  <SCORE.INTRA.DIHEDRAL.0>
8.84257

>  <SCORE.INTRA.POLAR>
0

>  <SCORE.INTRA.POLAR.0>
0

>  <SCORE.INTRA.REPUL>
0

>  <SCORE.INTRA.REPUL.0>
0

>  <SCORE.INTRA.SOLV>
-0.0336378

>  <SCORE.INTRA.SOLV.lig_0>
-17.1313

>  <SCORE.INTRA.VDW>
-1.42302

>  <SCORE.INTRA.VDW.0>
6.34071

>  <SCORE.INTRA.norm>
-0.094822

>  <SCORE.RESTR>
1.46505

>  <SCORE.RESTR.CAVITY>
1.46505

>  <SCORE.RESTR.norm>
0.0697643

>  <SCORE.SYSTEM>
0

>  <SCORE.SYSTEM.CONST>
0

>  <SCORE.SYSTEM.DIHEDRAL>
0

>  <SCORE.SYSTEM.SOLV>
0

>  <SCORE.SYSTEM.norm>
0

>  <SCORE.heavy>
21

>  <SCORE.norm>
-0.731337

>  <RMSD>
13.163

$$$$
lig.pdb
 OpenBabel11021811453D
libRbt.so/2013.1/901 2013/11/27
 21 23  0  0  0  0  0  0  0  0999 V2000
   -3.4148   10.2622    1.6749 C   0  0  0  0  0  0  0  0  0  0  0  0
   -3.3860   10.5614    0.3811 N   0  0  0  0  0  0  0  0  0  0  0  0
   -2.5988    9.8846   -0.4357 C   0  0  0  0  0  0  0  0  0  0  0  0
   -1.7747    8.9376    0.0565 C   0  0  0  0  0  0  0  0  0  0  0  0
   -1.8092    8.6362    1.3614 C   0  0  0  0  0  0  0  0  0  0  0  0
   -0.9947    7.7055    1.8574 N   0  0  0  0  0  0  0  0  0  0  0  0
   -2.6291    9.3034    2.1669 N   0  0  0  0  0  0  0  0  0  0  0  0
   -2.5928   10.1776   -1.7468 C   0  0  0  0  0  0  0  0  0  0  0  0
   -1.6509    9.5999   -2.5538 C   0  0  0  0  0  0  0  0  0  0  0  0
   -1.0620   10.4047   -3.5581 O   0  0  0  0  0  0  0  0  0  0  0  0
   -0.9806    8.5322   -2.0902 C   0  0  0  0  0  0  0  0  0  0  0  0
   -0.3633    7.6371   -3.0045 O   0  0  0  0  0  0  0  0  0  0  0  0
   -0.9602    8.2661   -0.7695 C   0  0  0  0  0  0  0  0  0  0  0  0
   -4.2183   10.9351    2.4804 N   0  0  0  0  0  0  0  0  0  0  0  0
   -5.5270   10.6979    2.3493 C   0  0  0  0  0  0  0  0  0  0  0  0
   -6.0782   11.4602    1.1539 C   0  0  0  0  0  0  0  0  0  0  0  0
   -5.8975   12.8144    1.3447 N   0  0  0  0  0  0  0  0  0  0  0  0
   -4.5405   13.0351    1.4351 C   0  0  0  0  0  0  0  0  0  0  0  0
   -3.9877   12.2785    2.6314 C   0  0  0  0  0  0  0  0  0  0  0  0
   -2.0916   10.9261   -4.3588 C   0  0  0  0  0  0  0  0  0  0  0  0
   -1.3016    6.6660   -3.3874 C   0  0  0  0  0  0  0  0  0  0  0  0
  1 14  1  0  0  0  0
  1  2  2  0  0  0  0
  3  2  1  0  0  0  0
  3  8  2  0  0  0  0
  4  3  1  0  0  0  0
  5  7  2  0  0  0  0
  5  4  1  0  0  0  0
  6  5  1  0  0  0  0
  7  1  1  0  0  0  0
  9 10  1  0  0  0  0
  9  8  1  0  0  0  0
 11  9  2  0  0  0  0
 12 11  1  0  0  0  0
 13  4  2  0  0  0  0
 13 11  1  0  0  0  0
 14 15  1  0  0  0  0
 16 15  1  0  0  0  0
 17 16  1  0  0  0  0
 18 17  1  0  0  0  0
 18 19  1  0  0  0  0
 19 14  1  0  0  0  0
 20 10  1  0  0  0  0
 21 12  1  0  0  0  0
M  END
>  <CHROM.1>
71.03131856,-56.08792492,-87.43189755,-2.75524864,9.94353494,-0.17449402
-2.60154540,0.87333369,-1.24361733

>  <Name>
lig.pdb

>  <RI>
3.07369e+07

>  <Rbt.Current_Directory>
/home/itssahil/PROJECTS/Mol_Feturizer/New_Systems/rnas/2lwk

>  <Rbt.Executable>
rbdock ($Id: //depot/dev/client3/rdock/2013.1/src/exe/rbdock.cxx#4 $)

>  <Rbt.Library>
libRbt.so (2013.1, Build901 2013/11/27)

>  <Rbt.Parameter_File>
/export/apps/rDock/src/rDock_2013.1_src/data/scripts/dock_solv.prm

>  <Rbt.Receptor>
prm/blind_docking_100.prm

>  <SCORE>
-5.20116

>  <SCORE.INTER>
-1.79209

>  <SCORE.INTER.CONST>
1

>  <SCORE.INTER.POLAR>
-0.554953

>  <SCORE.INTER.ROT>
3

>  <SCORE.INTER.SOLV>
14.1376

>  <SCORE.INTER.VDW>
-9.6574

>  <SCORE.INTER.norm>
-0.0853374

>  <SCORE.INTRA>
-3.66659

>  <SCORE.INTRA.DIHEDRAL>
-1.25643

>  <SCORE.INTRA.DIHEDRAL.0>
8.84257

>  <SCORE.INTRA.POLAR>
0

>  <SCORE.INTRA.POLAR.0>
0

>  <SCORE.INTRA.REPUL>
0

>  <SCORE.INTRA.REPUL.0>
0

>  <SCORE.INTRA.SOLV>
0.059393

>  <SCORE.INTRA.SOLV.lig_0>
-17.1313

>  <SCORE.INTRA.VDW>
-3.06807

>  <SCORE.INTRA.VDW.0>
6.34071

>  <SCORE.INTRA.norm>
-0.174599

>  <SCORE.RESTR>
0.257517

>  <SCORE.RESTR.CAVITY>
0.257517

>  <SCORE.RESTR.norm>
0.0122627

>  <SCORE.SYSTEM>
0

>  <SCORE.SYSTEM.CONST>
0

>  <SCORE.SYSTEM.DIHEDRAL>
0

>  <SCORE.SYSTEM.SOLV>
0

>  <SCORE.SYSTEM.norm>
0

>  <SCORE.heavy>
21

>  <SCORE.norm>
-0.247674

>  <RMSD>
13.164

$$$$
lig.pdb
 OpenBabel11021811453D
libRbt.so/2013.1/901 2013/11/27
 21 23  0  0  0  0  0  0  0  0999 V2000
   -3.4102   10.2691    1.6799 C   0  0  0  0  0  0  0  0  0  0  0  0
   -3.3878   10.5666    0.3855 N   0  0  0  0  0  0  0  0  0  0  0  0
   -2.6037    9.8896   -0.4340 C   0  0  0  0  0  0  0  0  0  0  0  0
   -1.7763    8.9442    0.0556 C   0  0  0  0  0  0  0  0  0  0  0  0
   -1.8043    8.6444    1.3611 C   0  0  0  0  0  0  0  0  0  0  0  0
   -0.9865    7.7153    1.8544 N   0  0  0  0  0  0  0  0  0  0  0  0
   -2.6212    9.3118    2.1695 N   0  0  0  0  0  0  0  0  0  0  0  0
   -2.6042   10.1809   -1.7455 C   0  0  0  0  0  0  0  0  0  0  0  0
   -1.6654    9.6031   -2.5561 C   0  0  0  0  0  0  0  0  0  0  0  0
   -1.0821   10.4072   -3.5643 O   0  0  0  0  0  0  0  0  0  0  0  0
   -0.9918    8.5368   -2.0943 C   0  0  0  0  0  0  0  0  0  0  0  0
   -0.3777    7.6411   -3.0102 O   0  0  0  0  0  0  0  0  0  0  0  0
   -0.9649    8.2724   -0.7733 C   0  0  0  0  0  0  0  0  0  0  0  0
   -4.2107   10.9422    2.4882 N   0  0  0  0  0  0  0  0  0  0  0  0
   -5.5197   10.7027    2.3643 C   0  0  0  0  0  0  0  0  0  0  0  0
   -6.0782   11.4620    1.1703 C   0  0  0  0  0  0  0  0  0  0  0  0
   -5.8986   12.8169    1.3577 N   0  0  0  0  0  0  0  0  0  0  0  0
   -4.5415   13.0398    1.4408 C   0  0  0  0  0  0  0  0  0  0  0  0
   -3.9815   12.2863    2.6357 C   0  0  0  0  0  0  0  0  0  0  0  0
   -2.1151   10.9153   -4.3691 C   0  0  0  0  0  0  0  0  0  0  0  0
   -1.3162    6.6672   -3.3858 C   0  0  0  0  0  0  0  0  0  0  0  0
  1 14  1  0  0  0  0
  1  2  2  0  0  0  0
  3  2  1  0  0  0  0
  3  8  2  0  0  0  0
  4  3  1  0  0  0  0
  5  7  2  0  0  0  0
  5  4  1  0  0  0  0
  6  5  1  0  0  0  0
  7  1  1  0  0  0  0
  9 10  1  0  0  0  0
  9  8  1  0  0  0  0
 11  9  2  0  0  0  0
 12 11  1  0  0  0  0
 13  4  2  0  0  0  0
 13 11  1  0  0  0  0
 14 15  1  0  0  0  0
 16 15  1  0  0  0  0
 17 16  1  0  0  0  0
 18 17  1  0  0  0  0
 18 19  1  0  0  0  0
 19 14  1  0  0  0  0
 20 10  1  0  0  0  0
 21 12  1  0  0  0  0
M  END
>  <CHROM.1>
71.07623011,-56.68368736,-87.52498630,-2.75911151,9.94786254,-0.17252238
-2.59320508,0.87343287,-1.25151283

>  <Name>
lig.pdb

>  <RI>
4.07847e+07

>  <Rbt.Current_Directory>
/home/itssahil/PROJECTS/Mol_Feturizer/New_Systems/rnas/2lwk

>  <Rbt.Executable>
rbdock ($Id: //depot/dev/client3/rdock/2013.1/src/exe/rbdock.cxx#4 $)

>  <Rbt.Library>
libRbt.so (2013.1, Build901 2013/11/27)

>  <Rbt.Parameter_File>
/export/apps/rDock/src/rDock_2013.1_src/data/scripts/dock_solv.prm

>  <Rbt.Receptor>
prm/blind_docking_20.prm

>  <SCORE>
-5.19731

>  <SCORE.INTER>
-1.71034

>  <SCORE.INTER.CONST>
1

>  <SCORE.INTER.POLAR>
-0.554434

>  <SCORE.INTER.ROT>
3

>  <SCORE.INTER.SOLV>
14.1442

>  <SCORE.INTER.VDW>
-9.60685

>  <SCORE.INTER.norm>
-0.0814447

>  <SCORE.INTRA>
-3.73326

>  <SCORE.INTRA.DIHEDRAL>
-1.21088

>  <SCORE.INTRA.DIHEDRAL.0>
8.84257

>  <SCORE.INTRA.POLAR>
0

>  <SCORE.INTRA.POLAR.0>
0

>  <SCORE.INTRA.REPUL>
0

>  <SCORE.INTRA.REPUL.0>
0

>  <SCORE.INTRA.SOLV>
0.059742

>  <SCORE.INTRA.SOLV.lig_0>
-17.1313

>  <SCORE.INTRA.VDW>
-3.15769

>  <SCORE.INTRA.VDW.0>
6.34071

>  <SCORE.INTRA.norm>
-0.177774

>  <SCORE.RESTR>
0.246281

>  <SCORE.RESTR.CAVITY>
0.246281

>  <SCORE.RESTR.norm>
0.0117277

>  <SCORE.SYSTEM>
0

>  <SCORE.SYSTEM.CONST>
0

>  <SCORE.SYSTEM.DIHEDRAL>
0

>  <SCORE.SYSTEM.SOLV>
0

>  <SCORE.SYSTEM.norm>
0

>  <SCORE.heavy>
21

>  <SCORE.norm>
-0.247491

>  <RMSD>
13.164

$$$$
lig.pdb
 OpenBabel11021811453D
libRbt.so/2013.1/901 2013/11/27
 21 23  0  0  0  0  0  0  0  0999 V2000
   -3.4188   10.2655    1.6750 C   0  0  0  0  0  0  0  0  0  0  0  0
   -3.3884   10.5646    0.3812 N   0  0  0  0  0  0  0  0  0  0  0  0
   -2.6022    9.8861   -0.4350 C   0  0  0  0  0  0  0  0  0  0  0  0
   -1.7805    8.9374    0.0578 C   0  0  0  0  0  0  0  0  0  0  0  0
   -1.8165    8.6359    1.3627 C   0  0  0  0  0  0  0  0  0  0  0  0
   -1.0044    7.7035    1.8592 N   0  0  0  0  0  0  0  0  0  0  0  0
   -2.6355    9.3049    2.1676 N   0  0  0  0  0  0  0  0  0  0  0  0
   -2.5946   10.1791   -1.7461 C   0  0  0  0  0  0  0  0  0  0  0  0
   -1.6534    9.5994   -2.5524 C   0  0  0  0  0  0  0  0  0  0  0  0
   -1.0620   10.4029   -3.5563 O   0  0  0  0  0  0  0  0  0  0  0  0
   -0.9857    8.5302   -2.0884 C   0  0  0  0  0  0  0  0  0  0  0  0
   -0.3697    7.6338   -3.0022 O   0  0  0  0  0  0  0  0  0  0  0  0
   -0.9668    8.2640   -0.7676 C   0  0  0  0  0  0  0  0  0  0  0  0
   -4.2214   10.9400    2.4800 N   0  0  0  0  0  0  0  0  0  0  0  0
   -5.5311   10.7124    2.3419 C   0  0  0  0  0  0  0  0  0  0  0  0
   -6.0716   11.4840    1.1475 C   0  0  0  0  0  0  0  0  0  0  0  0
   -5.8826   12.8361    1.3454 N   0  0  0  0  0  0  0  0  0  0  0  0
   -4.5245   13.0470    1.4430 C   0  0  0  0  0  0  0  0  0  0  0  0
   -3.9824   12.2812    2.6383 C   0  0  0  0  0  0  0  0  0  0  0  0
   -2.0893   10.9181   -4.3640 C   0  0  0  0  0  0  0  0  0  0  0  0
   -1.3074    6.6598   -3.3794 C   0  0  0  0  0  0  0  0  0  0  0  0
  1 14  1  0  0  0  0
  1  2  2  0  0  0  0
  3  2  1  0  0  0  0
  3  8  2  0  0  0  0
  4  3  1  0  0  0  0
  5  7  2  0  0  0  0
  5  4  1  0  0  0  0
  6  5  1  0  0  0  0
  7  1  1  0  0  0  0
  9 10  1  0  0  0  0
  9  8  1  0  0  0  0
 11  9  2  0  0  0  0
 12 11  1  0  0  0  0
 13  4  2  0  0  0  0
 13 11  1  0  0  0  0
 14 15  1  0  0  0  0
 16 15  1  0  0  0  0
 17 16  1  0  0  0  0
 18 17  1  0  0  0  0
 18 19  1  0  0  0  0
 19 14  1  0  0  0  0
 20 10  1  0  0  0  0
 21 12  1  0  0  0  0
M  END
>  <CHROM.1>
70.59479929,-56.53771832,-87.79232669,-2.75650794,9.94661417,-0.17353047
-2.60387664,0.87676599,-1.24219859

>  <Name>
lig.pdb

>  <RI>
4.07847e+07

>  <Rbt.Current_Directory>
/home/itssahil/PROJECTS/Mol_Feturizer/New_Systems/rnas/2lwk

>  <Rbt.Executable>
rbdock ($Id: //depot/dev/client3/rdock/2013.1/src/exe/rbdock.cxx#4 $)

>  <Rbt.Library>
libRbt.so (2013.1, Build901 2013/11/27)

>  <Rbt.Parameter_File>
/export/apps/rDock/src/rDock_2013.1_src/data/scripts/dock_solv.prm

>  <Rbt.Receptor>
prm/blind_docking_20.prm

>  <SCORE>
-5.22731

>  <SCORE.INTER>
-1.77197

>  <SCORE.INTER.CONST>
1

>  <SCORE.INTER.POLAR>
-0.5613

>  <SCORE.INTER.ROT>
3

>  <SCORE.INTER.SOLV>
14.1224

>  <SCORE.INTER.VDW>
-9.61779

>  <SCORE.INTER.norm>
-0.0843797

>  <SCORE.INTRA>
-3.7138

>  <SCORE.INTRA.DIHEDRAL>
-1.22147

>  <SCORE.INTRA.DIHEDRAL.0>
8.84257

>  <SCORE.INTRA.POLAR>
0

>  <SCORE.INTRA.POLAR.0>
0

>  <SCORE.INTRA.REPUL>
0

>  <SCORE.INTRA.REPUL.0>
0

>  <SCORE.INTRA.SOLV>
0.0596086

>  <SCORE.INTRA.SOLV.lig_0>
-17.1313

>  <SCORE.INTRA.VDW>
-3.13287

>  <SCORE.INTRA.VDW.0>
6.34071

>  <SCORE.INTRA.norm>
-0.176848

>  <SCORE.RESTR>
0.258467

>  <SCORE.RESTR.CAVITY>
0.258467

>  <SCORE.RESTR.norm>
0.012308

>  <SCORE.SYSTEM>
0

>  <SCORE.SYSTEM.CONST>
0

>  <SCORE.SYSTEM.DIHEDRAL>
0

>  <SCORE.SYSTEM.SOLV>
0

>  <SCORE.SYSTEM.norm>
0

>  <SCORE.heavy>
21

>  <SCORE.norm>
-0.24892

>  <RMSD>
13.165

$$$$
lig.pdb
 OpenBabel11021811453D
libRbt.so/2013.1/901 2013/11/27
 21 23  0  0  0  0  0  0  0  0999 V2000
   -3.4181   10.2715    1.6766 C   0  0  0  0  0  0  0  0  0  0  0  0
   -3.3887   10.5715    0.3830 N   0  0  0  0  0  0  0  0  0  0  0  0
   -2.6025    9.8942   -0.4342 C   0  0  0  0  0  0  0  0  0  0  0  0
   -1.7798    8.9457    0.0574 C   0  0  0  0  0  0  0  0  0  0  0  0
   -1.8148    8.6434    1.3621 C   0  0  0  0  0  0  0  0  0  0  0  0
   -1.0017    7.7112    1.8575 N   0  0  0  0  0  0  0  0  0  0  0  0
   -2.6339    9.3112    2.1680 N   0  0  0  0  0  0  0  0  0  0  0  0
   -2.5959   10.1881   -1.7451 C   0  0  0  0  0  0  0  0  0  0  0  0
   -1.6547    9.6097   -2.5524 C   0  0  0  0  0  0  0  0  0  0  0  0
   -1.0645   10.4143   -3.5561 O   0  0  0  0  0  0  0  0  0  0  0  0
   -0.9860    8.5407   -2.0895 C   0  0  0  0  0  0  0  0  0  0  0  0
   -0.3698    7.6453   -3.0043 O   0  0  0  0  0  0  0  0  0  0  0  0
   -0.9661    8.2736   -0.7689 C   0  0  0  0  0  0  0  0  0  0  0  0
   -4.2208   10.9449    2.4824 N   0  0  0  0  0  0  0  0  0  0  0  0
   -5.5299   10.7111    2.3498 C   0  0  0  0  0  0  0  0  0  0  0  0
   -6.0782   11.4767    1.1551 C   0  0  0  0  0  0  0  0  0  0  0  0
   -5.8944   12.8302    1.3484 N   0  0  0  0  0  0  0  0  0  0  0  0
   -4.5370   13.0475    1.4404 C   0  0  0  0  0  0  0  0  0  0  0  0
   -3.9871   12.2876    2.6360 C   0  0  0  0  0  0  0  0  0  0  0  0
   -2.0925   10.9269   -4.3646 C   0  0  0  0  0  0  0  0  0  0  0  0
   -1.2997    6.6569   -3.3629 C   0  0  0  0  0  0  0  0  0  0  0  0
  1 14  1  0  0  0  0
  1  2  2  0  0  0  0
  3  2  1  0  0  0  0
  3  8  2  0  0  0  0
  4  3  1  0  0  0  0
  5  7  2  0  0  0  0
  5  4  1  0  0  0  0
  6  5  1  0  0  0  0
  7  1  1  0  0  0  0
  9 10  1  0  0  0  0
  9  8  1  0  0  0  0
 11  9  2  0  0  0  0
 12 11  1  0  0  0  0
 13  4  2  0  0  0  0
 13 11  1  0  0  0  0
 14 15  1  0  0  0  0
 16 15  1  0  0  0  0
 17 16  1  0  0  0  0
 18 17  1  0  0  0  0
 18 19  1  0  0  0  0
 19 14  1  0  0  0  0
 20 10  1  0  0  0  0
 21 12  1  0  0  0  0
M  END
>  <CHROM.1>
70.94014563,-56.66751172,-88.84941620,-2.75786585,9.95204280,-0.17202566
-2.60416184,0.87534695,-1.24144989

>  <Name>
lig.pdb

>  <RI>
3.07369e+07

>  <Rbt.Current_Directory>
/home/itssahil/PROJECTS/Mol_Feturizer/New_Systems/rnas/2lwk

>  <Rbt.Executable>
rbdock ($Id: //depot/dev/client3/rdock/2013.1/src/exe/rbdock.cxx#4 $)

>  <Rbt.Library>
libRbt.so (2013.1, Build901 2013/11/27)

>  <Rbt.Parameter_File>
/export/apps/rDock/src/rDock_2013.1_src/data/scripts/dock_solv.prm

>  <Rbt.Receptor>
prm/blind_docking_100.prm

>  <SCORE>
-5.25748

>  <SCORE.INTER>
-1.80406

>  <SCORE.INTER.CONST>
1

>  <SCORE.INTER.POLAR>
-0.562154

>  <SCORE.INTER.ROT>
3

>  <SCORE.INTER.SOLV>
14.1408

>  <SCORE.INTER.VDW>
-9.64247

>  <SCORE.INTER.norm>
-0.0859076

>  <SCORE.INTRA>
-3.71614

>  <SCORE.INTRA.DIHEDRAL>
-1.21264

>  <SCORE.INTRA.DIHEDRAL.0>
8.84257

>  <SCORE.INTRA.POLAR>
0

>  <SCORE.INTRA.POLAR.0>
0

>  <SCORE.INTRA.REPUL>
0

>  <SCORE.INTRA.REPUL.0>
0

>  <SCORE.INTRA.SOLV>
0.0589581

>  <SCORE.INTRA.SOLV.lig_0>
-17.1313

>  <SCORE.INTRA.VDW>
-3.1393

>  <SCORE.INTRA.VDW.0>
6.34071

>  <SCORE.INTRA.norm>
-0.176959

>  <SCORE.RESTR>
0.262714

>  <SCORE.RESTR.CAVITY>
0.262714

>  <SCORE.RESTR.norm>
0.0125102

>  <SCORE.SYSTEM>
0

>  <SCORE.SYSTEM.CONST>
0

>  <SCORE.SYSTEM.DIHEDRAL>
0

>  <SCORE.SYSTEM.SOLV>
0

>  <SCORE.SYSTEM.norm>
0

>  <SCORE.heavy>
21

>  <SCORE.norm>
-0.250356

>  <RMSD>
13.169

$$$$
lig.pdb
 OpenBabel11021811453D
libRbt.so/2013.1/901 2013/11/27
 21 23  0  0  0  0  0  0  0  0999 V2000
   -3.0543   11.0783   -2.0625 C   0  0  0  0  0  0  0  0  0  0  0  0
   -2.3875    9.9641   -1.7831 N   0  0  0  0  0  0  0  0  0  0  0  0
   -2.3882    9.4853   -0.5520 C   0  0  0  0  0  0  0  0  0  0  0  0
   -3.0083   10.1658    0.4332 C   0  0  0  0  0  0  0  0  0  0  0  0
   -3.6829   11.2873    0.1469 C   0  0  0  0  0  0  0  0  0  0  0  0
   -4.2942   11.9690    1.1149 N   0  0  0  0  0  0  0  0  0  0  0  0
   -3.7005   11.7409   -1.1022 N   0  0  0  0  0  0  0  0  0  0  0  0
   -1.7308    8.3452   -0.2824 C   0  0  0  0  0  0  0  0  0  0  0  0
   -1.5854    7.9526    1.0203 C   0  0  0  0  0  0  0  0  0  0  0  0
   -0.3425    7.3954    1.4049 O   0  0  0  0  0  0  0  0  0  0  0  0
   -2.3639    8.5279    1.9516 C   0  0  0  0  0  0  0  0  0  0  0  0
   -2.5919    7.8639    3.1866 O   0  0  0  0  0  0  0  0  0  0  0  0
   -2.9903    9.6911    1.6866 C   0  0  0  0  0  0  0  0  0  0  0  0
   -3.0603   11.5394   -3.3013 N   0  0  0  0  0  0  0  0  0  0  0  0
   -4.2264   12.0078   -3.7562 C   0  0  0  0  0  0  0  0  0  0  0  0
   -5.1242   10.8537   -4.1758 C   0  0  0  0  0  0  0  0  0  0  0  0
   -4.5171   10.1387   -5.1873 N   0  0  0  0  0  0  0  0  0  0  0  0
   -3.3399    9.6343   -4.6792 C   0  0  0  0  0  0  0  0  0  0  0  0
   -2.4389   10.7851   -4.2634 C   0  0  0  0  0  0  0  0  0  0  0  0
   -0.3527    6.0319    1.0671 C   0  0  0  0  0  0  0  0  0  0  0  0
   -3.1213    6.5909    2.9228 C   0  0  0  0  0  0  0  0  0  0  0  0
  1 14  1  0  0  0  0
  1  2  2  0  0  0  0
  3  2  1  0  0  0  0
  3  8  2  0  0  0  0
  4  3  1  0  0  0  0
  5  7  2  0  0  0  0
  5  4  1  0  0  0  0
  6  5  1  0  0  0  0
  7  1  1  0  0  0  0
  9 10  1  0  0  0  0
  9  8  1  0  0  0  0
 11  9  2  0  0  0  0
 12 11  1  0  0  0  0
 13  4  2  0  0  0  0
 13 11  1  0  0  0  0
 14 15  1  0  0  0  0
 16 15  1  0  0  0  0
 17 16  1  0  0  0  0
 18 17  1  0  0  0  0
 18 19  1  0  0  0  0
 19 14  1  0  0  0  0
 20 10  1  0  0  0  0
 21 12  1  0  0  0  0
M  END
>  <CHROM.1>
138.58197409,-83.48073865,-56.06417015,-2.87301304,9.63928306,-0.76238650
2.10028095,0.99201423,-1.50621783

>  <Name>
lig.pdb

>  <RI>
3.07369e+07

>  <Rbt.Current_Directory>
/home/itssahil/PROJECTS/Mol_Feturizer/New_Systems/rnas/2lwk

>  <Rbt.Executable>
rbdock ($Id: //depot/dev/client3/rdock/2013.1/src/exe/rbdock.cxx#4 $)

>  <Rbt.Library>
libRbt.so (2013.1, Build901 2013/11/27)

>  <Rbt.Parameter_File>
/export/apps/rDock/src/rDock_2013.1_src/data/scripts/dock_solv.prm

>  <Rbt.Receptor>
prm/blind_docking_100.prm

>  <SCORE>
-12.4727

>  <SCORE.INTER>
-13.0399

>  <SCORE.INTER.CONST>
1

>  <SCORE.INTER.POLAR>
-1.56541

>  <SCORE.INTER.ROT>
3

>  <SCORE.INTER.SOLV>
10.7485

>  <SCORE.INTER.VDW>
-12.658

>  <SCORE.INTER.norm>
-0.620947

>  <SCORE.INTRA>
-2.79194

>  <SCORE.INTRA.DIHEDRAL>
-0.770852

>  <SCORE.INTRA.DIHEDRAL.0>
8.84257

>  <SCORE.INTRA.POLAR>
0

>  <SCORE.INTRA.POLAR.0>
0

>  <SCORE.INTRA.REPUL>
0

>  <SCORE.INTRA.REPUL.0>
0

>  <SCORE.INTRA.SOLV>
-0.0151247

>  <SCORE.INTRA.SOLV.lig_0>
-17.1313

>  <SCORE.INTRA.VDW>
-2.39895

>  <SCORE.INTRA.VDW.0>
6.34071

>  <SCORE.INTRA.norm>
-0.132949

>  <SCORE.RESTR>
3.35916

>  <SCORE.RESTR.CAVITY>
3.35916

>  <SCORE.RESTR.norm>
0.15996

>  <SCORE.SYSTEM>
0

>  <SCORE.SYSTEM.CONST>
0

>  <SCORE.SYSTEM.DIHEDRAL>
0

>  <SCORE.SYSTEM.SOLV>
0

>  <SCORE.SYSTEM.norm>
0

>  <SCORE.heavy>
21

>  <SCORE.norm>
-0.593937

>  <RMSD>
13.181

$$$$
lig.pdb
 OpenBabel11021811453D
libRbt.so/2013.1/901 2013/11/27
 21 23  0  0  0  0  0  0  0  0999 V2000
   -3.0560   11.5888    0.2254 C   0  0  0  0  0  0  0  0  0  0  0  0
   -2.4017   10.5264    0.6808 N   0  0  0  0  0  0  0  0  0  0  0  0
   -1.9074    9.6421   -0.1669 C   0  0  0  0  0  0  0  0  0  0  0  0
   -2.1277    9.7832   -1.4896 C   0  0  0  0  0  0  0  0  0  0  0  0
   -2.7850   10.8580   -1.9454 C   0  0  0  0  0  0  0  0  0  0  0  0
   -3.0117   11.0030   -3.2504 N   0  0  0  0  0  0  0  0  0  0  0  0
   -3.2495   11.7566   -1.0834 N   0  0  0  0  0  0  0  0  0  0  0  0
   -1.2266    8.5825    0.3006 C   0  0  0  0  0  0  0  0  0  0  0  0
   -0.8746    7.5828   -0.5648 C   0  0  0  0  0  0  0  0  0  0  0  0
   -0.9812    6.2479   -0.1065 O   0  0  0  0  0  0  0  0  0  0  0  0
   -0.9289    7.8311   -1.8837 C   0  0  0  0  0  0  0  0  0  0  0  0
   -0.1615    7.0411   -2.7810 O   0  0  0  0  0  0  0  0  0  0  0  0
   -1.6447    8.8740   -2.3479 C   0  0  0  0  0  0  0  0  0  0  0  0
   -3.5322   12.4758    1.0820 N   0  0  0  0  0  0  0  0  0  0  0  0
   -4.0795   11.9892    2.1999 C   0  0  0  0  0  0  0  0  0  0  0  0
   -5.4906   11.4958    1.9180 C   0  0  0  0  0  0  0  0  0  0  0  0
   -6.2679   12.5451    1.4731 N   0  0  0  0  0  0  0  0  0  0  0  0
   -5.7051   12.9997    0.3005 C   0  0  0  0  0  0  0  0  0  0  0  0
   -4.2968   13.4977    0.5798 C   0  0  0  0  0  0  0  0  0  0  0  0
   -0.0821    6.0797    0.9596 C   0  0  0  0  0  0  0  0  0  0  0  0
   -1.0344    6.2521   -3.5464 C   0  0  0  0  0  0  0  0  0  0  0  0
  1 14  1  0  0  0  0
  1  2  2  0  0  0  0
  3  2  1  0  0  0  0
  3  8  2  0  0  0  0
  4  3  1  0  0  0  0
  5  7  2  0  0  0  0
  5  4  1  0  0  0  0
  6  5  1  0  0  0  0
  7  1  1  0  0  0  0
  9 10  1  0  0  0  0
  9  8  1  0  0  0  0
 11  9  2  0  0  0  0
 12 11  1  0  0  0  0
 13  4  2  0  0  0  0
 13 11  1  0  0  0  0
 14 15  1  0  0  0  0
 16 15  1  0  0  0  0
 17 16  1  0  0  0  0
 18 17  1  0  0  0  0
 18 19  1  0  0  0  0
 19 14  1  0  0  0  0
 20 10  1  0  0  0  0
 21 12  1  0  0  0  0
M  END
>  <CHROM.1>
-40.19941135,-63.74934270,111.20647785,-2.62238391,9.90805800,-0.45746616
-2.96955653,0.96609386,-1.35121253

>  <Name>
lig.pdb

>  <RI>
1.99026e+07

>  <Rbt.Current_Directory>
/home/itssahil/PROJECTS/Mol_Feturizer/New_Systems/rnas/2lwk

>  <Rbt.Executable>
rbdock ($Id: //depot/dev/client3/rdock/2013.1/src/exe/rbdock.cxx#4 $)

>  <Rbt.Library>
libRbt.so (2013.1, Build901 2013/11/27)

>  <Rbt.Parameter_File>
/export/apps/rDock/src/rDock_2013.1_src/data/scripts/dock_solv.prm

>  <Rbt.Receptor>
prm/blind_docking_60.prm

>  <SCORE>
-12.5583

>  <SCORE.INTER>
-11.2041

>  <SCORE.INTER.CONST>
1

>  <SCORE.INTER.POLAR>
-0.658613

>  <SCORE.INTER.ROT>
3

>  <SCORE.INTER.SOLV>
12.2226

>  <SCORE.INTER.VDW>
-14.9482

>  <SCORE.INTER.norm>
-0.533528

>  <SCORE.INTRA>
-2.46678

>  <SCORE.INTRA.DIHEDRAL>
-1.20001

>  <SCORE.INTRA.DIHEDRAL.0>
8.84257

>  <SCORE.INTRA.POLAR>
0

>  <SCORE.INTRA.POLAR.0>
0

>  <SCORE.INTRA.REPUL>
0

>  <SCORE.INTRA.REPUL.0>
0

>  <SCORE.INTRA.SOLV>
-0.0192616

>  <SCORE.INTRA.SOLV.lig_0>
-17.1313

>  <SCORE.INTRA.VDW>
-1.85715

>  <SCORE.INTRA.VDW.0>
6.34071

>  <SCORE.INTRA.norm>
-0.117466

>  <SCORE.RESTR>
1.11257

>  <SCORE.RESTR.CAVITY>
1.11257

>  <SCORE.RESTR.norm>
0.0529794

>  <SCORE.SYSTEM>
0

>  <SCORE.SYSTEM.CONST>
0

>  <SCORE.SYSTEM.DIHEDRAL>
0

>  <SCORE.SYSTEM.SOLV>
0

>  <SCORE.SYSTEM.norm>
0

>  <SCORE.heavy>
21

>  <SCORE.norm>
-0.598014

>  <RMSD>
13.214

$$$$
lig.pdb
 OpenBabel11021811453D
libRbt.so/2013.1/901 2013/11/27
 21 23  0  0  0  0  0  0  0  0999 V2000
   -3.0864   11.6085    0.2507 C   0  0  0  0  0  0  0  0  0  0  0  0
   -2.4428   10.5336    0.6919 N   0  0  0  0  0  0  0  0  0  0  0  0
   -1.9269    9.6738   -0.1679 C   0  0  0  0  0  0  0  0  0  0  0  0
   -2.1145    9.8523   -1.4912 C   0  0  0  0  0  0  0  0  0  0  0  0
   -2.7610   10.9396   -1.9325 C   0  0  0  0  0  0  0  0  0  0  0  0
   -2.9554   11.1215   -3.2382 N   0  0  0  0  0  0  0  0  0  0  0  0
   -3.2475   11.8134   -1.0573 N   0  0  0  0  0  0  0  0  0  0  0  0
   -1.2572    8.6014    0.2861 C   0  0  0  0  0  0  0  0  0  0  0  0
   -0.8831    7.6266   -0.5983 C   0  0  0  0  0  0  0  0  0  0  0  0
   -1.0000    6.2793   -0.1808 O   0  0  0  0  0  0  0  0  0  0  0  0
   -0.9048    7.9122   -1.9106 C   0  0  0  0  0  0  0  0  0  0  0  0
   -0.1147    7.1480   -2.8106 O   0  0  0  0  0  0  0  0  0  0  0  0
   -1.6096    8.9678   -2.3627 C   0  0  0  0  0  0  0  0  0  0  0  0
   -3.5844   12.4709    1.1200 N   0  0  0  0  0  0  0  0  0  0  0  0
   -4.1607   11.9527    2.2088 C   0  0  0  0  0  0  0  0  0  0  0  0
   -5.5641   11.4693    1.8761 C   0  0  0  0  0  0  0  0  0  0  0  0
   -6.3292   12.5318    1.4418 N   0  0  0  0  0  0  0  0  0  0  0  0
   -5.7360   13.0196    0.2978 C   0  0  0  0  0  0  0  0  0  0  0  0
   -4.3353   13.5077    0.6280 C   0  0  0  0  0  0  0  0  0  0  0  0
   -0.1104    6.0747    0.8868 C   0  0  0  0  0  0  0  0  0  0  0  0
   -0.9528    6.2616   -3.5050 C   0  0  0  0  0  0  0  0  0  0  0  0
  1 14  1  0  0  0  0
  1  2  2  0  0  0  0
  3  2  1  0  0  0  0
  3  8  2  0  0  0  0
  4  3  1  0  0  0  0
  5  7  2  0  0  0  0
  5  4  1  0  0  0  0
  6  5  1  0  0  0  0
  7  1  1  0  0  0  0
  9 10  1  0  0  0  0
  9  8  1  0  0  0  0
 11  9  2  0  0  0  0
 12 11  1  0  0  0  0
 13  4  2  0  0  0  0
 13 11  1  0  0  0  0
 14 15  1  0  0  0  0
 16 15  1  0  0  0  0
 17 16  1  0  0  0  0
 18 17  1  0  0  0  0
 18 19  1  0  0  0  0
 19 14  1  0  0  0  0
 20 10  1  0  0  0  0
 21 12  1  0  0  0  0
M  END
>  <CHROM.1>
-40.29818115,-64.76880562,104.04358988,-2.63306444,9.94172220,-0.46385376
-3.02058193,0.96111107,-1.28337640

>  <Name>
lig.pdb

>  <RI>
1.05666e+07

>  <Rbt.Current_Directory>
/home/itssahil/PROJECTS/Mol_Feturizer/New_Systems/rnas/2lwk

>  <Rbt.Executable>
rbdock ($Id: //depot/dev/client3/rdock/2013.1/src/exe/rbdock.cxx#4 $)

>  <Rbt.Library>
libRbt.so (2013.1, Build901 2013/11/27)

>  <Rbt.Parameter_File>
/export/apps/rDock/src/rDock_2013.1_src/data/scripts/dock_solv.prm

>  <Rbt.Receptor>
prm/blind_docking_80.prm

>  <SCORE>
-13.0605

>  <SCORE.INTER>
-11.6243

>  <SCORE.INTER.CONST>
1

>  <SCORE.INTER.POLAR>
-0.640716

>  <SCORE.INTER.ROT>
3

>  <SCORE.INTER.SOLV>
12.3975

>  <SCORE.INTER.VDW>
-15.3463

>  <SCORE.INTER.norm>
-0.553536

>  <SCORE.INTRA>
-2.70438

>  <SCORE.INTRA.DIHEDRAL>
-0.814199

>  <SCORE.INTRA.DIHEDRAL.0>
8.84257

>  <SCORE.INTRA.POLAR>
0

>  <SCORE.INTRA.POLAR.0>
0

>  <SCORE.INTRA.REPUL>
0

>  <SCORE.INTRA.REPUL.0>
0

>  <SCORE.INTRA.SOLV>
-0.0119299

>  <SCORE.INTRA.SOLV.lig_0>
-17.1313

>  <SCORE.INTRA.VDW>
-2.29131

>  <SCORE.INTRA.VDW.0>
6.34071

>  <SCORE.INTRA.norm>
-0.12878

>  <SCORE.RESTR>
1.26815

>  <SCORE.RESTR.CAVITY>
1.26815

>  <SCORE.RESTR.norm>
0.0603881

>  <SCORE.SYSTEM>
0

>  <SCORE.SYSTEM.CONST>
0

>  <SCORE.SYSTEM.DIHEDRAL>
0

>  <SCORE.SYSTEM.SOLV>
0

>  <SCORE.SYSTEM.norm>
0

>  <SCORE.heavy>
21

>  <SCORE.norm>
-0.621927

>  <RMSD>
13.248

$$$$
lig.pdb
 OpenBabel11021811453D
libRbt.so/2013.1/901 2013/11/27
 21 23  0  0  0  0  0  0  0  0999 V2000
   -3.0622   11.5948    0.2221 C   0  0  0  0  0  0  0  0  0  0  0  0
   -2.3884   10.5389    0.6641 N   0  0  0  0  0  0  0  0  0  0  0  0
   -1.8835    9.6713   -0.1944 C   0  0  0  0  0  0  0  0  0  0  0  0
   -2.1121    9.8217   -1.5147 C   0  0  0  0  0  0  0  0  0  0  0  0
   -2.7890   10.8900   -1.9570 C   0  0  0  0  0  0  0  0  0  0  0  0
   -3.0240   11.0440   -3.2595 N   0  0  0  0  0  0  0  0  0  0  0  0
   -3.2644   11.7723   -1.0842 N   0  0  0  0  0  0  0  0  0  0  0  0
   -1.1833    8.6185    0.2595 C   0  0  0  0  0  0  0  0  0  0  0  0
   -0.8188    7.6332   -0.6172 C   0  0  0  0  0  0  0  0  0  0  0  0
   -0.9013    6.2924   -0.1718 O   0  0  0  0  0  0  0  0  0  0  0  0
   -0.8832    7.8936   -1.9334 C   0  0  0  0  0  0  0  0  0  0  0  0
   -0.1069    7.1252   -2.8418 O   0  0  0  0  0  0  0  0  0  0  0  0
   -1.6181    8.9291   -2.3841 C   0  0  0  0  0  0  0  0  0  0  0  0
   -3.5490   12.4654    1.0895 N   0  0  0  0  0  0  0  0  0  0  0  0
   -4.0941   11.9583    2.1994 C   0  0  0  0  0  0  0  0  0  0  0  0
   -5.4996   11.4550    1.9074 C   0  0  0  0  0  0  0  0  0  0  0  0
   -6.2861   12.5025    1.4749 N   0  0  0  0  0  0  0  0  0  0  0  0
   -5.7252   12.9785    0.3099 C   0  0  0  0  0  0  0  0  0  0  0  0
   -4.3225   13.4864    0.5994 C   0  0  0  0  0  0  0  0  0  0  0  0
   -0.0862    6.1594    0.9644 C   0  0  0  0  0  0  0  0  0  0  0  0
   -0.9569    6.2422   -3.5260 C   0  0  0  0  0  0  0  0  0  0  0  0
  1 14  1  0  0  0  0
  1  2  2  0  0  0  0
  3  2  1  0  0  0  0
  3  8  2  0  0  0  0
  4  3  1  0  0  0  0
  5  7  2  0  0  0  0
  5  4  1  0  0  0  0
  6  5  1  0  0  0  0
  7  1  1  0  0  0  0
  9 10  1  0  0  0  0
  9  8  1  0  0  0  0
 11  9  2  0  0  0  0
 12 11  1  0  0  0  0
 13  4  2  0  0  0  0
 13 11  1  0  0  0  0
 14 15  1  0  0  0  0
 16 15  1  0  0  0  0
 17 16  1  0  0  0  0
 18 17  1  0  0  0  0
 18 19  1  0  0  0  0
 19 14  1  0  0  0  0
 20 10  1  0  0  0  0
 21 12  1  0  0  0  0
M  END
>  <CHROM.1>
-40.78466677,-58.48536058,105.91612367,-2.60849596,9.92781086,-0.47362552
-2.96806387,0.95452761,-1.34293898

>  <Name>
lig.pdb

>  <RI>
2.05709e+07

>  <Rbt.Current_Directory>
/home/itssahil/PROJECTS/Mol_Feturizer/New_Systems/rnas/2lwk

>  <Rbt.Executable>
rbdock ($Id: //depot/dev/client3/rdock/2013.1/src/exe/rbdock.cxx#4 $)

>  <Rbt.Library>
libRbt.so (2013.1, Build901 2013/11/27)

>  <Rbt.Parameter_File>
/export/apps/rDock/src/rDock_2013.1_src/data/scripts/dock_solv.prm

>  <Rbt.Receptor>
prm/blind_docking_40.prm

>  <SCORE>
-12.9771

>  <SCORE.INTER>
-12.0475

>  <SCORE.INTER.CONST>
1

>  <SCORE.INTER.POLAR>
-0.655261

>  <SCORE.INTER.ROT>
3

>  <SCORE.INTER.SOLV>
12.517

>  <SCORE.INTER.VDW>
-15.6198

>  <SCORE.INTER.norm>
-0.57369

>  <SCORE.INTRA>
-2.13541

>  <SCORE.INTRA.DIHEDRAL>
-1.3553

>  <SCORE.INTRA.DIHEDRAL.0>
8.84257

>  <SCORE.INTRA.POLAR>
0

>  <SCORE.INTRA.POLAR.0>
0

>  <SCORE.INTRA.REPUL>
0

>  <SCORE.INTRA.REPUL.0>
0

>  <SCORE.INTRA.SOLV>
-0.0173338

>  <SCORE.INTRA.SOLV.lig_0>
-17.1313

>  <SCORE.INTRA.VDW>
-1.44909

>  <SCORE.INTRA.VDW.0>
6.34071

>  <SCORE.INTRA.norm>
-0.101686

>  <SCORE.RESTR>
1.20582

>  <SCORE.RESTR.CAVITY>
1.20582

>  <SCORE.RESTR.norm>
0.0574202

>  <SCORE.SYSTEM>
0

>  <SCORE.SYSTEM.CONST>
0

>  <SCORE.SYSTEM.DIHEDRAL>
0

>  <SCORE.SYSTEM.SOLV>
0

>  <SCORE.SYSTEM.norm>
0

>  <SCORE.heavy>
21

>  <SCORE.norm>
-0.617956

>  <RMSD>
13.250

$$$$
lig.pdb
 OpenBabel11021811453D
libRbt.so/2013.1/901 2013/11/27
 21 23  0  0  0  0  0  0  0  0999 V2000
   -3.0813   11.6124    0.2386 C   0  0  0  0  0  0  0  0  0  0  0  0
   -2.4136   10.5538    0.6834 N   0  0  0  0  0  0  0  0  0  0  0  0
   -1.9052    9.6862   -0.1731 C   0  0  0  0  0  0  0  0  0  0  0  0
   -2.1243    9.8395   -1.4947 C   0  0  0  0  0  0  0  0  0  0  0  0
   -2.7951   10.9104   -1.9398 C   0  0  0  0  0  0  0  0  0  0  0  0
   -3.0207   11.0674   -3.2436 N   0  0  0  0  0  0  0  0  0  0  0  0
   -3.2740   11.7926   -1.0687 N   0  0  0  0  0  0  0  0  0  0  0  0
   -1.2111    8.6306    0.2838 C   0  0  0  0  0  0  0  0  0  0  0  0
   -0.8434    7.6458   -0.5921 C   0  0  0  0  0  0  0  0  0  0  0  0
   -0.9328    6.3045   -0.1496 O   0  0  0  0  0  0  0  0  0  0  0  0
   -0.8980    7.9086   -1.9083 C   0  0  0  0  0  0  0  0  0  0  0  0
   -0.1176    7.1396   -2.8127 O   0  0  0  0  0  0  0  0  0  0  0  0
   -1.6269    8.9470   -2.3623 C   0  0  0  0  0  0  0  0  0  0  0  0
   -3.5716   12.4828    1.1041 N   0  0  0  0  0  0  0  0  0  0  0  0
   -4.1225   11.9755    2.2110 C   0  0  0  0  0  0  0  0  0  0  0  0
   -5.5270   11.4736    1.9119 C   0  0  0  0  0  0  0  0  0  0  0  0
   -6.3106   12.5220    1.4761 N   0  0  0  0  0  0  0  0  0  0  0  0
   -5.7435   12.9983    0.3142 C   0  0  0  0  0  0  0  0  0  0  0  0
   -4.3418   13.5048    0.6109 C   0  0  0  0  0  0  0  0  0  0  0  0
   -0.0810    6.1527    0.9571 C   0  0  0  0  0  0  0  0  0  0  0  0
   -0.9683    6.2751   -3.5193 C   0  0  0  0  0  0  0  0  0  0  0  0
  1 14  1  0  0  0  0
  1  2  2  0  0  0  0
  3  2  1  0  0  0  0
  3  8  2  0  0  0  0
  4  3  1  0  0  0  0
  5  7  2  0  0  0  0
  5  4  1  0  0  0  0
  6  5  1  0  0  0  0
  7  1  1  0  0  0  0
  9 10  1  0  0  0  0
  9  8  1  0  0  0  0
 11  9  2  0  0  0  0
 12 11  1  0  0  0  0
 13  4  2  0  0  0  0
 13 11  1  0  0  0  0
 14 15  1  0  0  0  0
 16 15  1  0  0  0  0
 17 16  1  0  0  0  0
 18 17  1  0  0  0  0
 18 19  1  0  0  0  0
 19 14  1  0  0  0  0
 20 10  1  0  0  0  0
 21 12  1  0  0  0  0
M  END
>  <CHROM.1>
-40.61101074,-61.00192166,106.84246366,-2.62526557,9.94451349,-0.45868017
-2.97686699,0.95449270,-1.33473175

>  <Name>
lig.pdb

>  <RI>
3.07369e+07

>  <Rbt.Current_Directory>
/home/itssahil/PROJECTS/Mol_Feturizer/New_Systems/rnas/2lwk

>  <Rbt.Executable>
rbdock ($Id: //depot/dev/client3/rdock/2013.1/src/exe/rbdock.cxx#4 $)

>  <Rbt.Library>
libRbt.so (2013.1, Build901 2013/11/27)

>  <Rbt.Parameter_File>
/export/apps/rDock/src/rDock_2013.1_src/data/scripts/dock_solv.prm

>  <Rbt.Receptor>
prm/blind_docking_100.prm

>  <SCORE>
-12.8489

>  <SCORE.INTER>
-11.6772

>  <SCORE.INTER.CONST>
1

>  <SCORE.INTER.POLAR>
-0.648871

>  <SCORE.INTER.ROT>
3

>  <SCORE.INTER.SOLV>
12.4437

>  <SCORE.INTER.VDW>
-15.3698

>  <SCORE.INTER.norm>
-0.556058

>  <SCORE.INTRA>
-2.35461

>  <SCORE.INTRA.DIHEDRAL>
-1.20156

>  <SCORE.INTRA.DIHEDRAL.0>
8.84257

>  <SCORE.INTRA.POLAR>
0

>  <SCORE.INTRA.POLAR.0>
0

>  <SCORE.INTRA.REPUL>
0

>  <SCORE.INTRA.REPUL.0>
0

>  <SCORE.INTRA.SOLV>
-0.0166087

>  <SCORE.INTRA.SOLV.lig_0>
-17.1313

>  <SCORE.INTRA.VDW>
-1.74552

>  <SCORE.INTRA.VDW.0>
6.34071

>  <SCORE.INTRA.norm>
-0.112124

>  <SCORE.RESTR>
1.1829

>  <SCORE.RESTR.CAVITY>
1.1829

>  <SCORE.RESTR.norm>
0.0563285

>  <SCORE.SYSTEM>
0

>  <SCORE.SYSTEM.CONST>
0

>  <SCORE.SYSTEM.DIHEDRAL>
0

>  <SCORE.SYSTEM.SOLV>
0

>  <SCORE.SYSTEM.norm>
0

>  <SCORE.heavy>
21

>  <SCORE.norm>
-0.611854

>  <RMSD>
13.253

$$$$
lig.pdb
 OpenBabel11021811453D
libRbt.so/2013.1/901 2013/11/27
 21 23  0  0  0  0  0  0  0  0999 V2000
   -3.0435   11.6202    0.1743 C   0  0  0  0  0  0  0  0  0  0  0  0
   -2.4146   10.5431    0.6309 N   0  0  0  0  0  0  0  0  0  0  0  0
   -1.8971    9.6719   -0.2164 C   0  0  0  0  0  0  0  0  0  0  0  0
   -2.0683    9.8417   -1.5431 C   0  0  0  0  0  0  0  0  0  0  0  0
   -2.7000   10.9312   -2.0000 C   0  0  0  0  0  0  0  0  0  0  0  0
   -2.8783   11.1047   -3.3090 N   0  0  0  0  0  0  0  0  0  0  0  0
   -3.1882   11.8162   -1.1370 N   0  0  0  0  0  0  0  0  0  0  0  0
   -1.2422    8.5971    0.2533 C   0  0  0  0  0  0  0  0  0  0  0  0
   -0.8672    7.6120   -0.6193 C   0  0  0  0  0  0  0  0  0  0  0  0
   -1.0009    6.2692   -0.1927 O   0  0  0  0  0  0  0  0  0  0  0  0
   -0.8718    7.8875   -1.9339 C   0  0  0  0  0  0  0  0  0  0  0  0
   -0.0788    7.1092   -2.8191 O   0  0  0  0  0  0  0  0  0  0  0  0
   -1.5619    8.9459   -2.4020 C   0  0  0  0  0  0  0  0  0  0  0  0
   -3.5432   12.4938    1.0312 N   0  0  0  0  0  0  0  0  0  0  0  0
   -4.0320   11.9962    2.1713 C   0  0  0  0  0  0  0  0  0  0  0  0
   -5.4214   11.4232    1.9370 C   0  0  0  0  0  0  0  0  0  0  0  0
   -6.2666   12.4218    1.4994 N   0  0  0  0  0  0  0  0  0  0  0  0
   -5.7621   12.8873    0.3047 C   0  0  0  0  0  0  0  0  0  0  0  0
   -4.3758   13.4648    0.5365 C   0  0  0  0  0  0  0  0  0  0  0  0
   -0.1821    6.0858    0.9338 C   0  0  0  0  0  0  0  0  0  0  0  0
   -0.9200    6.2412   -3.5327 C   0  0  0  0  0  0  0  0  0  0  0  0
  1 14  1  0  0  0  0
  1  2  2  0  0  0  0
  3  2  1  0  0  0  0
  3  8  2  0  0  0  0
  4  3  1  0  0  0  0
  5  7  2  0  0  0  0
  5  4  1  0  0  0  0
  6  5  1  0  0  0  0
  7  1  1  0  0  0  0
  9 10  1  0  0  0  0
  9  8  1  0  0  0  0
 11  9  2  0  0  0  0
 12 11  1  0  0  0  0
 13  4  2  0  0  0  0
 13 11  1  0  0  0  0
 14 15  1  0  0  0  0
 16 15  1  0  0  0  0
 17 16  1  0  0  0  0
 18 17  1  0  0  0  0
 18 19  1  0  0  0  0
 19 14  1  0  0  0  0
 20 10  1  0  0  0  0
 21 12  1  0  0  0  0
M  END
>  <CHROM.1>
-34.67138456,-61.46448177,105.05655963,-2.59712399,9.92181368,-0.49426013
3.03805641,-0.96571236,1.88556423

>  <Name>
lig.pdb

>  <RI>
3.07369e+07

>  <Rbt.Current_Directory>
/home/itssahil/PROJECTS/Mol_Feturizer/New_Systems/rnas/2lwk

>  <Rbt.Executable>
rbdock ($Id: //depot/dev/client3/rdock/2013.1/src/exe/rbdock.cxx#4 $)

>  <Rbt.Library>
libRbt.so (2013.1, Build901 2013/11/27)

>  <Rbt.Parameter_File>
/export/apps/rDock/src/rDock_2013.1_src/data/scripts/dock_solv.prm

>  <Rbt.Receptor>
prm/blind_docking_100.prm

>  <SCORE>
-13.4974

>  <SCORE.INTER>
-12.4255

>  <SCORE.INTER.CONST>
1

>  <SCORE.INTER.POLAR>
-0.688808

>  <SCORE.INTER.ROT>
3

>  <SCORE.INTER.SOLV>
12.6488

>  <SCORE.INTER.VDW>
-15.8039

>  <SCORE.INTER.norm>
-0.591691

>  <SCORE.INTRA>
-2.30467

>  <SCORE.INTRA.DIHEDRAL>
-1.09887

>  <SCORE.INTRA.DIHEDRAL.0>
8.84257

>  <SCORE.INTRA.POLAR>
0

>  <SCORE.INTRA.POLAR.0>
0

>  <SCORE.INTRA.REPUL>
0

>  <SCORE.INTRA.REPUL.0>
0

>  <SCORE.INTRA.SOLV>
-0.0309737

>  <SCORE.INTRA.SOLV.lig_0>
-17.1313

>  <SCORE.INTRA.VDW>
-1.73975

>  <SCORE.INTRA.VDW.0>
6.34071

>  <SCORE.INTRA.norm>
-0.109746

>  <SCORE.RESTR>
1.23273

>  <SCORE.RESTR.CAVITY>
1.23273

>  <SCORE.RESTR.norm>
0.0587013

>  <SCORE.SYSTEM>
0

>  <SCORE.SYSTEM.CONST>
0

>  <SCORE.SYSTEM.DIHEDRAL>
0

>  <SCORE.SYSTEM.SOLV>
0

>  <SCORE.SYSTEM.norm>
0

>  <SCORE.heavy>
21

>  <SCORE.norm>
-0.642735

>  <RMSD>
13.254

$$$$
lig.pdb
 OpenBabel11021811453D
libRbt.so/2013.1/901 2013/11/27
 21 23  0  0  0  0  0  0  0  0999 V2000
   -3.0891   11.6122    0.2102 C   0  0  0  0  0  0  0  0  0  0  0  0
   -2.4115   10.5610    0.6576 N   0  0  0  0  0  0  0  0  0  0  0  0
   -1.9046    9.6900   -0.1964 C   0  0  0  0  0  0  0  0  0  0  0  0
   -2.1350    9.8321   -1.5173 C   0  0  0  0  0  0  0  0  0  0  0  0
   -2.8158   10.8956   -1.9651 C   0  0  0  0  0  0  0  0  0  0  0  0
   -3.0526   11.0413   -3.2682 N   0  0  0  0  0  0  0  0  0  0  0  0
   -3.2931   11.7814   -1.0969 N   0  0  0  0  0  0  0  0  0  0  0  0
   -1.2006    8.6421    0.2630 C   0  0  0  0  0  0  0  0  0  0  0  0
   -0.8339    7.6530   -0.6084 C   0  0  0  0  0  0  0  0  0  0  0  0
   -0.9116    6.3145   -0.1551 O   0  0  0  0  0  0  0  0  0  0  0  0
   -0.9003    7.9055   -1.9260 C   0  0  0  0  0  0  0  0  0  0  0  0
   -0.1225    7.1344   -2.8307 O   0  0  0  0  0  0  0  0  0  0  0  0
   -1.6390    8.9360   -2.3820 C   0  0  0  0  0  0  0  0  0  0  0  0
   -3.5779   12.4863    1.0730 N   0  0  0  0  0  0  0  0  0  0  0  0
   -4.1203   11.9838    2.1863 C   0  0  0  0  0  0  0  0  0  0  0  0
   -5.5245   11.4745    1.8986 C   0  0  0  0  0  0  0  0  0  0  0  0
   -6.3147   12.5170    1.4607 N   0  0  0  0  0  0  0  0  0  0  0  0
   -5.7563   12.9880    0.2925 C   0  0  0  0  0  0  0  0  0  0  0  0
   -4.3550   13.5020    0.5777 C   0  0  0  0  0  0  0  0  0  0  0  0
   -0.0920    6.1897    0.9788 C   0  0  0  0  0  0  0  0  0  0  0  0
   -0.9717    6.2510   -3.5154 C   0  0  0  0  0  0  0  0  0  0  0  0
  1 14  1  0  0  0  0
  1  2  2  0  0  0  0
  3  2  1  0  0  0  0
  3  8  2  0  0  0  0
  4  3  1  0  0  0  0
  5  7  2  0  0  0  0
  5  4  1  0  0  0  0
  6  5  1  0  0  0  0
  7  1  1  0  0  0  0
  9 10  1  0  0  0  0
  9  8  1  0  0  0  0
 11  9  2  0  0  0  0
 12 11  1  0  0  0  0
 13  4  2  0  0  0  0
 13 11  1  0  0  0  0
 14 15  1  0  0  0  0
 16 15  1  0  0  0  0
 17 16  1  0  0  0  0
 18 17  1  0  0  0  0
 18 19  1  0  0  0  0
 19 14  1  0  0  0  0
 20 10  1  0  0  0  0
 21 12  1  0  0  0  0
M  END
>  <CHROM.1>
-40.78938555,-58.65084335,106.31210254,-2.63065328,9.94294483,-0.47680874
-2.96446719,0.95145691,-1.35170545

>  <Name>
lig.pdb

>  <RI>
3.07369e+07

>  <Rbt.Current_Directory>
/home/itssahil/PROJECTS/Mol_Feturizer/New_Systems/rnas/2lwk

>  <Rbt.Executable>
rbdock ($Id: //depot/dev/client3/rdock/2013.1/src/exe/rbdock.cxx#4 $)

>  <Rbt.Library>
libRbt.so (2013.1, Build901 2013/11/27)

>  <Rbt.Parameter_File>
/export/apps/rDock/src/rDock_2013.1_src/data/scripts/dock_solv.prm

>  <Rbt.Receptor>
prm/blind_docking_100.prm

>  <SCORE>
-13.1858

>  <SCORE.INTER>
-12.2912

>  <SCORE.INTER.CONST>
1

>  <SCORE.INTER.POLAR>
-0.666854

>  <SCORE.INTER.ROT>
3

>  <SCORE.INTER.SOLV>
12.3506

>  <SCORE.INTER.VDW>
-15.6881

>  <SCORE.INTER.norm>
-0.585295

>  <SCORE.INTRA>
-2.14474

>  <SCORE.INTRA.DIHEDRAL>
-1.35838

>  <SCORE.INTRA.DIHEDRAL.0>
8.84257

>  <SCORE.INTRA.POLAR>
0

>  <SCORE.INTRA.POLAR.0>
0

>  <SCORE.INTRA.REPUL>
0

>  <SCORE.INTRA.REPUL.0>
0

>  <SCORE.INTRA.SOLV>
-0.0175371

>  <SCORE.INTRA.SOLV.lig_0>
-17.1313

>  <SCORE.INTRA.VDW>
-1.45678

>  <SCORE.INTRA.VDW.0>
6.34071

>  <SCORE.INTRA.norm>
-0.10213

>  <SCORE.RESTR>
1.25011

>  <SCORE.RESTR.CAVITY>
1.25011

>  <SCORE.RESTR.norm>
0.0595288

>  <SCORE.SYSTEM>
0

>  <SCORE.SYSTEM.CONST>
0

>  <SCORE.SYSTEM.DIHEDRAL>
0

>  <SCORE.SYSTEM.SOLV>
0

>  <SCORE.SYSTEM.norm>
0

>  <SCORE.heavy>
21

>  <SCORE.norm>
-0.627897

>  <RMSD>
13.255

$$$$
lig.pdb
 OpenBabel11021811453D
libRbt.so/2013.1/901 2013/11/27
 21 23  0  0  0  0  0  0  0  0999 V2000
   -3.0971   11.6482    0.1990 C   0  0  0  0  0  0  0  0  0  0  0  0
   -2.4376   10.5895    0.6555 N   0  0  0  0  0  0  0  0  0  0  0  0
   -1.9339    9.7097   -0.1913 C   0  0  0  0  0  0  0  0  0  0  0  0
   -2.1497    9.8513   -1.5148 C   0  0  0  0  0  0  0  0  0  0  0  0
   -2.8121   10.9224   -1.9717 C   0  0  0  0  0  0  0  0  0  0  0  0
   -3.0344   11.0678   -3.2775 N   0  0  0  0  0  0  0  0  0  0  0  0
   -3.2862   11.8166   -1.1104 N   0  0  0  0  0  0  0  0  0  0  0  0
   -1.2481    8.6539    0.2775 C   0  0  0  0  0  0  0  0  0  0  0  0
   -0.8859    7.6578   -0.5879 C   0  0  0  0  0  0  0  0  0  0  0  0
   -0.9855    6.3216   -0.1321 O   0  0  0  0  0  0  0  0  0  0  0  0
   -0.9364    7.9077   -1.9067 C   0  0  0  0  0  0  0  0  0  0  0  0
   -0.1599    7.1242   -2.8020 O   0  0  0  0  0  0  0  0  0  0  0  0
   -1.6571    8.9466   -2.3724 C   0  0  0  0  0  0  0  0  0  0  0  0
   -3.5827   12.5308    1.0548 N   0  0  0  0  0  0  0  0  0  0  0  0
   -4.1440   12.0383    2.1632 C   0  0  0  0  0  0  0  0  0  0  0  0
   -5.5521   11.5481    1.8614 C   0  0  0  0  0  0  0  0  0  0  0  0
   -6.3228   12.6008    1.4131 N   0  0  0  0  0  0  0  0  0  0  0  0
   -5.7454   13.0615    0.2501 C   0  0  0  0  0  0  0  0  0  0  0  0
   -4.3401   13.5563    0.5494 C   0  0  0  0  0  0  0  0  0  0  0  0
   -0.1319    6.1733    0.9736 C   0  0  0  0  0  0  0  0  0  0  0  0
   -1.0204    6.2918   -3.5347 C   0  0  0  0  0  0  0  0  0  0  0  0
  1 14  1  0  0  0  0
  1  2  2  0  0  0  0
  3  2  1  0  0  0  0
  3  8  2  0  0  0  0
  4  3  1  0  0  0  0
  5  7  2  0  0  0  0
  5  4  1  0  0  0  0
  6  5  1  0  0  0  0
  7  1  1  0  0  0  0
  9 10  1  0  0  0  0
  9  8  1  0  0  0  0
 11  9  2  0  0  0  0
 12 11  1  0  0  0  0
 13  4  2  0  0  0  0
 13 11  1  0  0  0  0
 14 15  1  0  0  0  0
 16 15  1  0  0  0  0
 17 16  1  0  0  0  0
 18 17  1  0  0  0  0
 18 19  1  0  0  0  0
 19 14  1  0  0  0  0
 20 10  1  0  0  0  0
 21 12  1  0  0  0  0
M  END
>  <CHROM.1>
-40.87958544,-61.28000419,108.87758959,-2.65179622,9.97304103,-0.48391220
-2.97992162,0.96042010,-1.34289039

>  <Name>
lig.pdb

>  <RI>
3.07369e+07

>  <Rbt.Current_Directory>
/home/itssahil/PROJECTS/Mol_Feturizer/New_Systems/rnas/2lwk

>  <Rbt.Executable>
rbdock ($Id: //depot/dev/client3/rdock/2013.1/src/exe/rbdock.cxx#4 $)

>  <Rbt.Library>
libRbt.so (2013.1, Build901 2013/11/27)

>  <Rbt.Parameter_File>
/export/apps/rDock/src/rDock_2013.1_src/data/scripts/dock_solv.prm

>  <Rbt.Receptor>
prm/blind_docking_100.prm

>  <SCORE>
-13.0497

>  <SCORE.INTER>
-11.9622

>  <SCORE.INTER.CONST>
1

>  <SCORE.INTER.POLAR>
-0.67799

>  <SCORE.INTER.ROT>
3

>  <SCORE.INTER.SOLV>
12.1366

>  <SCORE.INTER.VDW>
-15.3604

>  <SCORE.INTER.norm>
-0.569629

>  <SCORE.INTRA>
-2.33986

>  <SCORE.INTRA.DIHEDRAL>
-1.27

>  <SCORE.INTRA.DIHEDRAL.0>
8.84257

>  <SCORE.INTRA.POLAR>
0

>  <SCORE.INTRA.POLAR.0>
0

>  <SCORE.INTRA.REPUL>
0

>  <SCORE.INTRA.REPUL.0>
0

>  <SCORE.INTRA.SOLV>
-0.0174337

>  <SCORE.INTRA.SOLV.lig_0>
-17.1313

>  <SCORE.INTRA.VDW>
-1.69614

>  <SCORE.INTRA.VDW.0>
6.34071

>  <SCORE.INTRA.norm>
-0.111422

>  <SCORE.RESTR>
1.25238

>  <SCORE.RESTR.CAVITY>
1.25238

>  <SCORE.RESTR.norm>
0.0596372

>  <SCORE.SYSTEM>
0

>  <SCORE.SYSTEM.CONST>
0

>  <SCORE.SYSTEM.DIHEDRAL>
0

>  <SCORE.SYSTEM.SOLV>
0

>  <SCORE.SYSTEM.norm>
0

>  <SCORE.heavy>
21

>  <SCORE.norm>
-0.621414

>  <RMSD>
13.266

$$$$
lig.pdb
 OpenBabel11021811453D
libRbt.so/2013.1/901 2013/11/27
 21 23  0  0  0  0  0  0  0  0999 V2000
   -3.0137   11.5856    0.1811 C   0  0  0  0  0  0  0  0  0  0  0  0
   -2.2498   10.5877    0.6111 N   0  0  0  0  0  0  0  0  0  0  0  0
   -1.7317    9.7332   -0.2528 C   0  0  0  0  0  0  0  0  0  0  0  0
   -2.0357    9.8345   -1.5626 C   0  0  0  0  0  0  0  0  0  0  0  0
   -2.8035   10.8445   -1.9930 C   0  0  0  0  0  0  0  0  0  0  0  0
   -3.1131   10.9494   -3.2847 N   0  0  0  0  0  0  0  0  0  0  0  0
   -3.2923   11.7159   -1.1166 N   0  0  0  0  0  0  0  0  0  0  0  0
   -0.9411    8.7404    0.1878 C   0  0  0  0  0  0  0  0  0  0  0  0
   -0.5562    7.7590   -0.6845 C   0  0  0  0  0  0  0  0  0  0  0  0
   -0.5268    6.4275   -0.2056 O   0  0  0  0  0  0  0  0  0  0  0  0
   -0.7035    7.9807   -2.0010 C   0  0  0  0  0  0  0  0  0  0  0  0
    0.0758    7.2418   -2.9310 O   0  0  0  0  0  0  0  0  0  0  0  0
   -1.5274    8.9541   -2.4362 C   0  0  0  0  0  0  0  0  0  0  0  0
   -3.5134   12.4444    1.0528 N   0  0  0  0  0  0  0  0  0  0  0  0
   -4.0083   11.9268    2.1813 C   0  0  0  0  0  0  0  0  0  0  0  0
   -5.3990   11.3635    1.9308 C   0  0  0  0  0  0  0  0  0  0  0  0
   -6.2389   12.3735    1.5094 N   0  0  0  0  0  0  0  0  0  0  0  0
   -5.7282   12.8600    0.3258 C   0  0  0  0  0  0  0  0  0  0  0  0
   -4.3406   13.4278    0.5738 C   0  0  0  0  0  0  0  0  0  0  0  0
   -1.8506    6.0164    0.0217 C   0  0  0  0  0  0  0  0  0  0  0  0
   -0.7286    6.2412   -3.4984 C   0  0  0  0  0  0  0  0  0  0  0  0
  1 14  1  0  0  0  0
  1  2  2  0  0  0  0
  3  2  1  0  0  0  0
  3  8  2  0  0  0  0
  4  3  1  0  0  0  0
  5  7  2  0  0  0  0
  5  4  1  0  0  0  0
  6  5  1  0  0  0  0
  7  1  1  0  0  0  0
  9 10  1  0  0  0  0
  9  8  1  0  0  0  0
 11  9  2  0  0  0  0
 12 11  1  0  0  0  0
 13  4  2  0  0  0  0
 13 11  1  0  0  0  0
 14 15  1  0  0  0  0
 16 15  1  0  0  0  0
 17 16  1  0  0  0  0
 18 17  1  0  0  0  0
 18 19  1  0  0  0  0
 19 14  1  0  0  0  0
 20 10  1  0  0  0  0
 21 12  1  0  0  0  0
M  END
>  <CHROM.1>
-42.96477724,68.91533780,102.80311186,-2.60089085,9.92250109,-0.55245648
3.06954022,-0.97015236,1.97619276

>  <Name>
lig.pdb

>  <RI>
1.99026e+07

>  <Rbt.Current_Directory>
/home/itssahil/PROJECTS/Mol_Feturizer/New_Systems/rnas/2lwk

>  <Rbt.Executable>
rbdock ($Id: //depot/dev/client3/rdock/2013.1/src/exe/rbdock.cxx#4 $)

>  <Rbt.Library>
libRbt.so (2013.1, Build901 2013/11/27)

>  <Rbt.Parameter_File>
/export/apps/rDock/src/rDock_2013.1_src/data/scripts/dock_solv.prm

>  <Rbt.Receptor>
prm/blind_docking_60.prm

>  <SCORE>
-11.0486

>  <SCORE.INTER>
-10.843

>  <SCORE.INTER.CONST>
1

>  <SCORE.INTER.POLAR>
-0.673158

>  <SCORE.INTER.ROT>
3

>  <SCORE.INTER.SOLV>
12.7297

>  <SCORE.INTER.VDW>
-14.828

>  <SCORE.INTER.norm>
-0.516334

>  <SCORE.INTRA>
-2.11219

>  <SCORE.INTRA.DIHEDRAL>
0.73903

>  <SCORE.INTRA.DIHEDRAL.0>
8.84257

>  <SCORE.INTRA.POLAR>
0

>  <SCORE.INTRA.POLAR.0>
0

>  <SCORE.INTRA.REPUL>
0

>  <SCORE.INTRA.REPUL.0>
0

>  <SCORE.INTRA.SOLV>
-0.00666914

>  <SCORE.INTRA.SOLV.lig_0>
-17.1313

>  <SCORE.INTRA.VDW>
-2.47837

>  <SCORE.INTRA.VDW.0>
6.34071

>  <SCORE.INTRA.norm>
-0.100581

>  <SCORE.RESTR>
1.90665

>  <SCORE.RESTR.CAVITY>
1.90665

>  <SCORE.RESTR.norm>
0.0907926

>  <SCORE.SYSTEM>
0

>  <SCORE.SYSTEM.CONST>
0

>  <SCORE.SYSTEM.DIHEDRAL>
0

>  <SCORE.SYSTEM.SOLV>
0

>  <SCORE.SYSTEM.norm>
0

>  <SCORE.heavy>
21

>  <SCORE.norm>
-0.526122

>  <RMSD>
13.266

$$$$
lig.pdb
 OpenBabel11021811453D
libRbt.so/2013.1/901 2013/11/27
 21 23  0  0  0  0  0  0  0  0999 V2000
   -3.1344   11.6538    0.1989 C   0  0  0  0  0  0  0  0  0  0  0  0
   -2.4728   10.5973    0.6574 N   0  0  0  0  0  0  0  0  0  0  0  0
   -1.9558    9.7241   -0.1882 C   0  0  0  0  0  0  0  0  0  0  0  0
   -2.1600    9.8697   -1.5130 C   0  0  0  0  0  0  0  0  0  0  0  0
   -2.8246   10.9386   -1.9719 C   0  0  0  0  0  0  0  0  0  0  0  0
   -3.0356   11.0880   -3.2791 N   0  0  0  0  0  0  0  0  0  0  0  0
   -3.3123   11.8264   -1.1115 N   0  0  0  0  0  0  0  0  0  0  0  0
   -1.2679    8.6706    0.2828 C   0  0  0  0  0  0  0  0  0  0  0  0
   -0.8915    7.6802   -0.5831 C   0  0  0  0  0  0  0  0  0  0  0  0
   -0.9872    6.3416   -0.1336 O   0  0  0  0  0  0  0  0  0  0  0  0
   -0.9311    7.9352   -1.9013 C   0  0  0  0  0  0  0  0  0  0  0  0
   -0.1415    7.1601   -2.7924 O   0  0  0  0  0  0  0  0  0  0  0  0
   -1.6538    8.9715   -2.3696 C   0  0  0  0  0  0  0  0  0  0  0  0
   -3.6334   12.5299    1.0537 N   0  0  0  0  0  0  0  0  0  0  0  0
   -4.1946   12.0299    2.1588 C   0  0  0  0  0  0  0  0  0  0  0  0
   -5.5959   11.5251    1.8496 C   0  0  0  0  0  0  0  0  0  0  0  0
   -6.3758   12.5701    1.3992 N   0  0  0  0  0  0  0  0  0  0  0  0
   -5.7979   13.0387    0.2395 C   0  0  0  0  0  0  0  0  0  0  0  0
   -4.3994   13.5480    0.5461 C   0  0  0  0  0  0  0  0  0  0  0  0
   -0.1272    6.1885    0.9665 C   0  0  0  0  0  0  0  0  0  0  0  0
   -0.9811    6.2703   -3.4807 C   0  0  0  0  0  0  0  0  0  0  0  0
  1 14  1  0  0  0  0
  1  2  2  0  0  0  0
  3  2  1  0  0  0  0
  3  8  2  0  0  0  0
  4  3  1  0  0  0  0
  5  7  2  0  0  0  0
  5  4  1  0  0  0  0
  6  5  1  0  0  0  0
  7  1  1  0  0  0  0
  9 10  1  0  0  0  0
  9  8  1  0  0  0  0
 11  9  2  0  0  0  0
 12 11  1  0  0  0  0
 13  4  2  0  0  0  0
 13 11  1  0  0  0  0
 14 15  1  0  0  0  0
 16 15  1  0  0  0  0
 17 16  1  0  0  0  0
 18 17  1  0  0  0  0
 18 19  1  0  0  0  0
 19 14  1  0  0  0  0
 20 10  1  0  0  0  0
 21 12  1  0  0  0  0
M  END
>  <CHROM.1>
-40.47377239,-62.19222640,105.47411447,-2.67097339,9.97930478,-0.48233704
-2.99670669,0.95272634,-1.32497974

>  <Name>
lig.pdb

>  <RI>
1.05666e+07

>  <Rbt.Current_Directory>
/home/itssahil/PROJECTS/Mol_Feturizer/New_Systems/rnas/2lwk

>  <Rbt.Executable>
rbdock ($Id: //depot/dev/client3/rdock/2013.1/src/exe/rbdock.cxx#4 $)

>  <Rbt.Library>
libRbt.so (2013.1, Build901 2013/11/27)

>  <Rbt.Parameter_File>
/export/apps/rDock/src/rDock_2013.1_src/data/scripts/dock_solv.prm

>  <Rbt.Receptor>
prm/blind_docking_80.prm

>  <SCORE>
-13.5309

>  <SCORE.INTER>
-12.4072

>  <SCORE.INTER.CONST>
1

>  <SCORE.INTER.POLAR>
-0.68109

>  <SCORE.INTER.ROT>
3

>  <SCORE.INTER.SOLV>
12.0535

>  <SCORE.INTER.VDW>
-15.619

>  <SCORE.INTER.norm>
-0.590819

>  <SCORE.INTRA>
-2.4816

>  <SCORE.INTRA.DIHEDRAL>
-1.05753

>  <SCORE.INTRA.DIHEDRAL.0>
8.84257

>  <SCORE.INTRA.POLAR>
0

>  <SCORE.INTRA.POLAR.0>
0

>  <SCORE.INTRA.REPUL>
0

>  <SCORE.INTRA.REPUL.0>
0

>  <SCORE.INTRA.SOLV>
-0.0148213

>  <SCORE.INTRA.SOLV.lig_0>
-17.1313

>  <SCORE.INTRA.VDW>
-1.94542

>  <SCORE.INTRA.VDW.0>
6.34071

>  <SCORE.INTRA.norm>
-0.118171

>  <SCORE.RESTR>
1.35786

>  <SCORE.RESTR.CAVITY>
1.35786

>  <SCORE.RESTR.norm>
0.0646598

>  <SCORE.SYSTEM>
0

>  <SCORE.SYSTEM.CONST>
0

>  <SCORE.SYSTEM.DIHEDRAL>
0

>  <SCORE.SYSTEM.SOLV>
0

>  <SCORE.SYSTEM.norm>
0

>  <SCORE.heavy>
21

>  <SCORE.norm>
-0.64433

>  <RMSD>
13.269

$$$$
lig.pdb
 OpenBabel11021811453D
libRbt.so/2013.1/901 2013/11/27
 21 23  0  0  0  0  0  0  0  0999 V2000
   -4.1865   10.9887    1.4498 C   0  0  0  0  0  0  0  0  0  0  0  0
   -4.0364   11.1397    0.1387 N   0  0  0  0  0  0  0  0  0  0  0  0
   -3.1742   10.3850   -0.5184 C   0  0  0  0  0  0  0  0  0  0  0  0
   -2.3981    9.5107    0.1535 C   0  0  0  0  0  0  0  0  0  0  0  0
   -2.5549    9.3586    1.4753 C   0  0  0  0  0  0  0  0  0  0  0  0
   -1.7888    8.5007    2.1481 N   0  0  0  0  0  0  0  0  0  0  0  0
   -3.4487   10.1020    2.1192 N   0  0  0  0  0  0  0  0  0  0  0  0
   -3.0451   10.5277   -1.8480 C   0  0  0  0  0  0  0  0  0  0  0  0
   -2.0299    9.8746   -2.4922 C   0  0  0  0  0  0  0  0  0  0  0  0
   -1.3506   10.5679   -3.5222 O   0  0  0  0  0  0  0  0  0  0  0  0
   -1.4039    8.8750   -1.8492 C   0  0  0  0  0  0  0  0  0  0  0  0
   -0.7010    7.8902   -2.5937 O   0  0  0  0  0  0  0  0  0  0  0  0
   -1.5077    8.7605   -0.5107 C   0  0  0  0  0  0  0  0  0  0  0  0
   -5.0641   11.7380    2.0946 N   0  0  0  0  0  0  0  0  0  0  0  0
   -6.3498   11.4001    1.9572 C   0  0  0  0  0  0  0  0  0  0  0  0
   -6.8839   11.9097    0.6272 C   0  0  0  0  0  0  0  0  0  0  0  0
   -6.7878   13.2852    0.5858 N   0  0  0  0  0  0  0  0  0  0  0  0
   -5.4510   13.6030    0.6879 C   0  0  0  0  0  0  0  0  0  0  0  0
   -4.9157   13.0992    2.0179 C   0  0  0  0  0  0  0  0  0  0  0  0
   -2.2866   10.8994   -4.5157 C   0  0  0  0  0  0  0  0  0  0  0  0
   -1.6117    6.9083   -3.0144 C   0  0  0  0  0  0  0  0  0  0  0  0
  1 14  1  0  0  0  0
  1  2  2  0  0  0  0
  3  2  1  0  0  0  0
  3  8  2  0  0  0  0
  4  3  1  0  0  0  0
  5  7  2  0  0  0  0
  5  4  1  0  0  0  0
  6  5  1  0  0  0  0
  7  1  1  0  0  0  0
  9 10  1  0  0  0  0
  9  8  1  0  0  0  0
 11  9  2  0  0  0  0
 12 11  1  0  0  0  0
 13  4  2  0  0  0  0
 13 11  1  0  0  0  0
 14 15  1  0  0  0  0
 16 15  1  0  0  0  0
 17 16  1  0  0  0  0
 18 17  1  0  0  0  0
 18 19  1  0  0  0  0
 19 14  1  0  0  0  0
 20 10  1  0  0  0  0
 21 12  1  0  0  0  0
M  END
>  <CHROM.1>
76.41944133,-60.18532246,-84.11899733,-3.37785897,10.44366347,-0.28939784
-2.71413710,0.81452624,-1.27241039

>  <Name>
lig.pdb

>  <RI>
4.07847e+07

>  <Rbt.Current_Directory>
/home/itssahil/PROJECTS/Mol_Feturizer/New_Systems/rnas/2lwk

>  <Rbt.Executable>
rbdock ($Id: //depot/dev/client3/rdock/2013.1/src/exe/rbdock.cxx#4 $)

>  <Rbt.Library>
libRbt.so (2013.1, Build901 2013/11/27)

>  <Rbt.Parameter_File>
/export/apps/rDock/src/rDock_2013.1_src/data/scripts/dock_solv.prm

>  <Rbt.Receptor>
prm/blind_docking_20.prm

>  <SCORE>
-12.2006

>  <SCORE.INTER>
-10.2131

>  <SCORE.INTER.CONST>
1

>  <SCORE.INTER.POLAR>
-1.24904

>  <SCORE.INTER.ROT>
3

>  <SCORE.INTER.SOLV>
11.4387

>  <SCORE.INTER.VDW>
-12.0582

>  <SCORE.INTER.norm>
-0.486339

>  <SCORE.INTRA>
-4.09698

>  <SCORE.INTRA.DIHEDRAL>
-0.968789

>  <SCORE.INTRA.DIHEDRAL.0>
8.84257

>  <SCORE.INTRA.POLAR>
0

>  <SCORE.INTRA.POLAR.0>
0

>  <SCORE.INTRA.REPUL>
0

>  <SCORE.INTRA.REPUL.0>
0

>  <SCORE.INTRA.SOLV>
0.0620535

>  <SCORE.INTRA.SOLV.lig_0>
-17.1313

>  <SCORE.INTRA.VDW>
-3.64361

>  <SCORE.INTRA.VDW.0>
6.34071

>  <SCORE.INTRA.norm>
-0.195094

>  <SCORE.RESTR>
2.10954

>  <SCORE.RESTR.CAVITY>
2.10954

>  <SCORE.RESTR.norm>
0.100454

>  <SCORE.SYSTEM>
0

>  <SCORE.SYSTEM.CONST>
0

>  <SCORE.SYSTEM.DIHEDRAL>
0

>  <SCORE.SYSTEM.SOLV>
0

>  <SCORE.SYSTEM.norm>
0

>  <SCORE.heavy>
21

>  <SCORE.norm>
-0.580979

>  <RMSD>
13.405

$$$$
lig.pdb
 OpenBabel11021811453D
libRbt.so/2013.1/901 2013/11/27
 21 23  0  0  0  0  0  0  0  0999 V2000
   -4.2022   11.0088    1.4333 C   0  0  0  0  0  0  0  0  0  0  0  0
   -4.0570   11.1508    0.1207 N   0  0  0  0  0  0  0  0  0  0  0  0
   -3.1941   10.3946   -0.5338 C   0  0  0  0  0  0  0  0  0  0  0  0
   -2.4124    9.5282    0.1419 C   0  0  0  0  0  0  0  0  0  0  0  0
   -2.5643    9.3852    1.4652 C   0  0  0  0  0  0  0  0  0  0  0  0
   -1.7926    8.5351    2.1417 N   0  0  0  0  0  0  0  0  0  0  0  0
   -3.4587   10.1299    2.1068 N   0  0  0  0  0  0  0  0  0  0  0  0
   -3.0700   10.5281   -1.8648 C   0  0  0  0  0  0  0  0  0  0  0  0
   -2.0545    9.8741   -2.5076 C   0  0  0  0  0  0  0  0  0  0  0  0
   -1.3813   10.5625   -3.5450 O   0  0  0  0  0  0  0  0  0  0  0  0
   -1.4226    8.8817   -1.8595 C   0  0  0  0  0  0  0  0  0  0  0  0
   -0.7184    7.8942   -2.5992 O   0  0  0  0  0  0  0  0  0  0  0  0
   -1.5214    8.7766   -0.5198 C   0  0  0  0  0  0  0  0  0  0  0  0
   -5.0804   11.7594    2.0756 N   0  0  0  0  0  0  0  0  0  0  0  0
   -6.3666   11.4265    1.9306 C   0  0  0  0  0  0  0  0  0  0  0  0
   -6.8919   11.9416    0.5992 C   0  0  0  0  0  0  0  0  0  0  0  0
   -6.7908   13.3169    0.5622 N   0  0  0  0  0  0  0  0  0  0  0  0
   -5.4534   13.6296    0.6721 C   0  0  0  0  0  0  0  0  0  0  0  0
   -4.9268   13.1203    2.0035 C   0  0  0  0  0  0  0  0  0  0  0  0
   -2.3244   10.8952   -4.5314 C   0  0  0  0  0  0  0  0  0  0  0  0
   -1.6261    6.9043   -3.0072 C   0  0  0  0  0  0  0  0  0  0  0  0
  1 14  1  0  0  0  0
  1  2  2  0  0  0  0
  3  2  1  0  0  0  0
  3  8  2  0  0  0  0
  4  3  1  0  0  0  0
  5  7  2  0  0  0  0
  5  4  1  0  0  0  0
  6  5  1  0  0  0  0
  7  1  1  0  0  0  0
  9 10  1  0  0  0  0
  9  8  1  0  0  0  0
 11  9  2  0  0  0  0
 12 11  1  0  0  0  0
 13  4  2  0  0  0  0
 13 11  1  0  0  0  0
 14 15  1  0  0  0  0
 16 15  1  0  0  0  0
 17 16  1  0  0  0  0
 18 17  1  0  0  0  0
 18 19  1  0  0  0  0
 19 14  1  0  0  0  0
 20 10  1  0  0  0  0
 21 12  1  0  0  0  0
M  END
>  <CHROM.1>
75.55285215,-59.59267520,-84.23771838,-3.39370868,10.45886438,-0.30393028
-2.71022295,0.81518804,-1.28259206

>  <Name>
lig.pdb

>  <RI>
2.05709e+07

>  <Rbt.Current_Directory>
/home/itssahil/PROJECTS/Mol_Feturizer/New_Systems/rnas/2lwk

>  <Rbt.Executable>
rbdock ($Id: //depot/dev/client3/rdock/2013.1/src/exe/rbdock.cxx#4 $)

>  <Rbt.Library>
libRbt.so (2013.1, Build901 2013/11/27)

>  <Rbt.Parameter_File>
/export/apps/rDock/src/rDock_2013.1_src/data/scripts/dock_solv.prm

>  <Rbt.Receptor>
prm/blind_docking_40.prm

>  <SCORE>
-12.2856

>  <SCORE.INTER>
-10.374

>  <SCORE.INTER.CONST>
1

>  <SCORE.INTER.POLAR>
-1.19634

>  <SCORE.INTER.ROT>
3

>  <SCORE.INTER.SOLV>
11.3463

>  <SCORE.INTER.VDW>
-12.3103

>  <SCORE.INTER.norm>
-0.494001

>  <SCORE.INTRA>
-4.04732

>  <SCORE.INTRA.DIHEDRAL>
-1.01205

>  <SCORE.INTRA.DIHEDRAL.0>
8.84257

>  <SCORE.INTRA.POLAR>
0

>  <SCORE.INTRA.POLAR.0>
0

>  <SCORE.INTRA.REPUL>
0

>  <SCORE.INTRA.REPUL.0>
0

>  <SCORE.INTRA.SOLV>
0.0620383

>  <SCORE.INTRA.SOLV.lig_0>
-17.1313

>  <SCORE.INTRA.VDW>
-3.57231

>  <SCORE.INTRA.VDW.0>
6.34071

>  <SCORE.INTRA.norm>
-0.19273

>  <SCORE.RESTR>
2.13575

>  <SCORE.RESTR.CAVITY>
2.13575

>  <SCORE.RESTR.norm>
0.101702

>  <SCORE.SYSTEM>
0

>  <SCORE.SYSTEM.CONST>
0

>  <SCORE.SYSTEM.DIHEDRAL>
0

>  <SCORE.SYSTEM.SOLV>
0

>  <SCORE.SYSTEM.norm>
0

>  <SCORE.heavy>
21

>  <SCORE.norm>
-0.585028

>  <RMSD>
13.415

$$$$
lig.pdb
 OpenBabel11021811453D
libRbt.so/2013.1/901 2013/11/27
 21 23  0  0  0  0  0  0  0  0999 V2000
   -4.1797   11.0078    1.4447 C   0  0  0  0  0  0  0  0  0  0  0  0
   -4.0285   11.1508    0.1328 N   0  0  0  0  0  0  0  0  0  0  0  0
   -3.1669   10.3909   -0.5192 C   0  0  0  0  0  0  0  0  0  0  0  0
   -2.3925    9.5195    0.1584 C   0  0  0  0  0  0  0  0  0  0  0  0
   -2.5505    9.3755    1.4810 C   0  0  0  0  0  0  0  0  0  0  0  0
   -1.7860    8.5205    2.1594 N   0  0  0  0  0  0  0  0  0  0  0  0
   -3.4436   10.1240    2.1199 N   0  0  0  0  0  0  0  0  0  0  0  0
   -3.0368   10.5255   -1.8495 C   0  0  0  0  0  0  0  0  0  0  0  0
   -2.0221    9.8671   -2.4892 C   0  0  0  0  0  0  0  0  0  0  0  0
   -1.3411   10.5533   -3.5229 O   0  0  0  0  0  0  0  0  0  0  0  0
   -1.3980    8.8705   -1.8399 C   0  0  0  0  0  0  0  0  0  0  0  0
   -0.6961    7.8802   -2.5780 O   0  0  0  0  0  0  0  0  0  0  0  0
   -1.5028    8.7641   -0.5007 C   0  0  0  0  0  0  0  0  0  0  0  0
   -5.0565   11.7621    2.0845 N   0  0  0  0  0  0  0  0  0  0  0  0
   -6.3439   11.4367    1.9331 C   0  0  0  0  0  0  0  0  0  0  0  0
   -6.8603   11.9573    0.6003 C   0  0  0  0  0  0  0  0  0  0  0  0
   -6.7513   13.3321    0.5664 N   0  0  0  0  0  0  0  0  0  0  0  0
   -5.4127   13.6370    0.6829 C   0  0  0  0  0  0  0  0  0  0  0  0
   -4.8949   13.1223    2.0156 C   0  0  0  0  0  0  0  0  0  0  0  0
   -2.2795   10.8972   -4.5099 C   0  0  0  0  0  0  0  0  0  0  0  0
   -1.6092    6.9012   -3.0001 C   0  0  0  0  0  0  0  0  0  0  0  0
  1 14  1  0  0  0  0
  1  2  2  0  0  0  0
  3  2  1  0  0  0  0
  3  8  2  0  0  0  0
  4  3  1  0  0  0  0
  5  7  2  0  0  0  0
  5  4  1  0  0  0  0
  6  5  1  0  0  0  0
  7  1  1  0  0  0  0
  9 10  1  0  0  0  0
  9  8  1  0  0  0  0
 11  9  2  0  0  0  0
 12 11  1  0  0  0  0
 13  4  2  0  0  0  0
 13 11  1  0  0  0  0
 14 15  1  0  0  0  0
 16 15  1  0  0  0  0
 17 16  1  0  0  0  0
 18 17  1  0  0  0  0
 18 19  1  0  0  0  0
 19 14  1  0  0  0  0
 20 10  1  0  0  0  0
 21 12  1  0  0  0  0
M  END
>  <CHROM.1>
75.50743823,-59.34562476,-83.77460197,-3.36705790,10.45665502,-0.29038557
-2.71766551,0.81912922,-1.27567873

>  <Name>
lig.pdb

>  <RI>
4.07847e+07

>  <Rbt.Current_Directory>
/home/itssahil/PROJECTS/Mol_Feturizer/New_Systems/rnas/2lwk

>  <Rbt.Executable>
rbdock ($Id: //depot/dev/client3/rdock/2013.1/src/exe/rbdock.cxx#4 $)

>  <Rbt.Library>
libRbt.so (2013.1, Build901 2013/11/27)

>  <Rbt.Parameter_File>
/export/apps/rDock/src/rDock_2013.1_src/data/scripts/dock_solv.prm

>  <Rbt.Receptor>
prm/blind_docking_20.prm

>  <SCORE>
-11.99

>  <SCORE.INTER>
-10.0288

>  <SCORE.INTER.CONST>
1

>  <SCORE.INTER.POLAR>
-1.22811

>  <SCORE.INTER.ROT>
3

>  <SCORE.INTER.SOLV>
11.478

>  <SCORE.INTER.VDW>
-12.0182

>  <SCORE.INTER.norm>
-0.477561

>  <SCORE.INTRA>
-4.02673

>  <SCORE.INTRA.DIHEDRAL>
-1.03624

>  <SCORE.INTRA.DIHEDRAL.0>
8.84257

>  <SCORE.INTRA.POLAR>
0

>  <SCORE.INTRA.POLAR.0>
0

>  <SCORE.INTRA.REPUL>
0

>  <SCORE.INTRA.REPUL.0>
0

>  <SCORE.INTRA.SOLV>
0.0621865

>  <SCORE.INTRA.SOLV.lig_0>
-17.1313

>  <SCORE.INTRA.VDW>
-3.5397

>  <SCORE.INTRA.VDW.0>
6.34071

>  <SCORE.INTRA.norm>
-0.191749

>  <SCORE.RESTR>
2.06549

>  <SCORE.RESTR.CAVITY>
2.06549

>  <SCORE.RESTR.norm>
0.0983565

>  <SCORE.SYSTEM>
0

>  <SCORE.SYSTEM.CONST>
0

>  <SCORE.SYSTEM.DIHEDRAL>
0

>  <SCORE.SYSTEM.SOLV>
0

>  <SCORE.SYSTEM.norm>
0

>  <SCORE.heavy>
21

>  <SCORE.norm>
-0.570954

>  <RMSD>
13.417

$$$$
lig.pdb
 OpenBabel11021811453D
libRbt.so/2013.1/901 2013/11/27
 21 23  0  0  0  0  0  0  0  0999 V2000
   -4.1946   11.0223    1.4458 C   0  0  0  0  0  0  0  0  0  0  0  0
   -4.0411   11.1564    0.1333 N   0  0  0  0  0  0  0  0  0  0  0  0
   -3.1766   10.3938   -0.5116 C   0  0  0  0  0  0  0  0  0  0  0  0
   -2.4016    9.5289    0.1736 C   0  0  0  0  0  0  0  0  0  0  0  0
   -2.5619    9.3939    1.4969 C   0  0  0  0  0  0  0  0  0  0  0  0
   -1.7970    8.5454    2.1829 N   0  0  0  0  0  0  0  0  0  0  0  0
   -3.4579   10.1450    2.1287 N   0  0  0  0  0  0  0  0  0  0  0  0
   -3.0441   10.5192   -1.8426 C   0  0  0  0  0  0  0  0  0  0  0  0
   -2.0267    9.8586   -2.4756 C   0  0  0  0  0  0  0  0  0  0  0  0
   -1.3451   10.5389   -3.5128 O   0  0  0  0  0  0  0  0  0  0  0  0
   -1.4017    8.8679   -1.8180 C   0  0  0  0  0  0  0  0  0  0  0  0
   -0.6962    7.8740   -2.5477 O   0  0  0  0  0  0  0  0  0  0  0  0
   -1.5090    8.7708   -0.4784 C   0  0  0  0  0  0  0  0  0  0  0  0
   -5.0743   11.7793    2.0785 N   0  0  0  0  0  0  0  0  0  0  0  0
   -6.3612   11.4557    1.9193 C   0  0  0  0  0  0  0  0  0  0  0  0
   -6.8681   11.9748    0.5822 C   0  0  0  0  0  0  0  0  0  0  0  0
   -6.7565   13.3493    0.5465 N   0  0  0  0  0  0  0  0  0  0  0  0
   -5.4182   13.6523    0.6712 C   0  0  0  0  0  0  0  0  0  0  0  0
   -4.9100   13.1391    2.0083 C   0  0  0  0  0  0  0  0  0  0  0  0
   -2.2864   10.8954   -4.4926 C   0  0  0  0  0  0  0  0  0  0  0  0
   -1.6094    6.9006   -2.9821 C   0  0  0  0  0  0  0  0  0  0  0  0
  1 14  1  0  0  0  0
  1  2  2  0  0  0  0
  3  2  1  0  0  0  0
  3  8  2  0  0  0  0
  4  3  1  0  0  0  0
  5  7  2  0  0  0  0
  5  4  1  0  0  0  0
  6  5  1  0  0  0  0
  7  1  1  0  0  0  0
  9 10  1  0  0  0  0
  9  8  1  0  0  0  0
 11  9  2  0  0  0  0
 12 11  1  0  0  0  0
 13  4  2  0  0  0  0
 13 11  1  0  0  0  0
 14 15  1  0  0  0  0
 16 15  1  0  0  0  0
 17 16  1  0  0  0  0
 18 17  1  0  0  0  0
 18 19  1  0  0  0  0
 19 14  1  0  0  0  0
 20 10  1  0  0  0  0
 21 12  1  0  0  0  0
M  END
>  <CHROM.1>
75.05085101,-58.28371562,-82.88976699,-3.37573435,10.46457492,-0.28390716
-2.72025016,0.81804014,-1.28047320

>  <Name>
lig.pdb

>  <RI>
2.05709e+07

>  <Rbt.Current_Directory>
/home/itssahil/PROJECTS/Mol_Feturizer/New_Systems/rnas/2lwk

>  <Rbt.Executable>
rbdock ($Id: //depot/dev/client3/rdock/2013.1/src/exe/rbdock.cxx#4 $)

>  <Rbt.Library>
libRbt.so (2013.1, Build901 2013/11/27)

>  <Rbt.Parameter_File>
/export/apps/rDock/src/rDock_2013.1_src/data/scripts/dock_solv.prm

>  <Rbt.Receptor>
prm/blind_docking_40.prm

>  <SCORE>
-12.1302

>  <SCORE.INTER>
-10.3034

>  <SCORE.INTER.CONST>
1

>  <SCORE.INTER.POLAR>
-1.2346

>  <SCORE.INTER.ROT>
3

>  <SCORE.INTER.SOLV>
11.4375

>  <SCORE.INTER.VDW>
-12.1661

>  <SCORE.INTER.norm>
-0.49064

>  <SCORE.INTRA>
-3.92846

>  <SCORE.INTRA.DIHEDRAL>
-1.12896

>  <SCORE.INTRA.DIHEDRAL.0>
8.84257

>  <SCORE.INTRA.POLAR>
0

>  <SCORE.INTRA.POLAR.0>
0

>  <SCORE.INTRA.REPUL>
0

>  <SCORE.INTRA.REPUL.0>
0

>  <SCORE.INTRA.SOLV>
0.0622481

>  <SCORE.INTRA.SOLV.lig_0>
-17.1313

>  <SCORE.INTRA.VDW>
-3.3951

>  <SCORE.INTRA.VDW.0>
6.34071

>  <SCORE.INTRA.norm>
-0.187069

>  <SCORE.RESTR>
2.10169

>  <SCORE.RESTR.CAVITY>
2.10169

>  <SCORE.RESTR.norm>
0.10008

>  <SCORE.SYSTEM>
0

>  <SCORE.SYSTEM.CONST>
0

>  <SCORE.SYSTEM.DIHEDRAL>
0

>  <SCORE.SYSTEM.SOLV>
0

>  <SCORE.SYSTEM.norm>
0

>  <SCORE.heavy>
21

>  <SCORE.norm>
-0.577629

>  <RMSD>
13.418

$$$$
lig.pdb
 OpenBabel11021811453D
libRbt.so/2013.1/901 2013/11/27
 21 23  0  0  0  0  0  0  0  0999 V2000
   -4.1937   11.0052    1.4386 C   0  0  0  0  0  0  0  0  0  0  0  0
   -4.0411   11.1530    0.1275 N   0  0  0  0  0  0  0  0  0  0  0  0
   -3.1788   10.3956   -0.5264 C   0  0  0  0  0  0  0  0  0  0  0  0
   -2.4051    9.5218    0.1489 C   0  0  0  0  0  0  0  0  0  0  0  0
   -2.5645    9.3729    1.4707 C   0  0  0  0  0  0  0  0  0  0  0  0
   -1.8008    8.5155    2.1469 N   0  0  0  0  0  0  0  0  0  0  0  0
   -3.4583   10.1191    2.1114 N   0  0  0  0  0  0  0  0  0  0  0  0
   -3.0471   10.5351   -1.8560 C   0  0  0  0  0  0  0  0  0  0  0  0
   -2.0317    9.8790   -2.4970 C   0  0  0  0  0  0  0  0  0  0  0  0
   -1.3496   10.5691   -3.5274 O   0  0  0  0  0  0  0  0  0  0  0  0
   -1.4083    8.8801   -1.8506 C   0  0  0  0  0  0  0  0  0  0  0  0
   -0.7055    7.8926   -2.5916 O   0  0  0  0  0  0  0  0  0  0  0  0
   -1.5146    8.7688   -0.5120 C   0  0  0  0  0  0  0  0  0  0  0  0
   -5.0713   11.7572    2.0802 N   0  0  0  0  0  0  0  0  0  0  0  0
   -6.3587   11.4341    1.9238 C   0  0  0  0  0  0  0  0  0  0  0  0
   -6.8712   11.9624    0.5926 C   0  0  0  0  0  0  0  0  0  0  0  0
   -6.7604   13.3372    0.5661 N   0  0  0  0  0  0  0  0  0  0  0  0
   -5.4218   13.6399    0.6876 C   0  0  0  0  0  0  0  0  0  0  0  0
   -4.9080   13.1175    2.0189 C   0  0  0  0  0  0  0  0  0  0  0  0
   -2.2839   10.9019   -4.5221 C   0  0  0  0  0  0  0  0  0  0  0  0
   -1.6165    6.9102   -3.0103 C   0  0  0  0  0  0  0  0  0  0  0  0
  1 14  1  0  0  0  0
  1  2  2  0  0  0  0
  3  2  1  0  0  0  0
  3  8  2  0  0  0  0
  4  3  1  0  0  0  0
  5  7  2  0  0  0  0
  5  4  1  0  0  0  0
  6  5  1  0  0  0  0
  7  1  1  0  0  0  0
  9 10  1  0  0  0  0
  9  8  1  0  0  0  0
 11  9  2  0  0  0  0
 12 11  1  0  0  0  0
 13  4  2  0  0  0  0
 13 11  1  0  0  0  0
 14 15  1  0  0  0  0
 16 15  1  0  0  0  0
 17 16  1  0  0  0  0
 18 17  1  0  0  0  0
 18 19  1  0  0  0  0
 19 14  1  0  0  0  0
 20 10  1  0  0  0  0
 21 12  1  0  0  0  0
M  END
>  <CHROM.1>
75.36594643,-60.07239519,-84.18769920,-3.37830876,10.46016660,-0.29751477
-2.71903450,0.81926708,-1.27135608

>  <Name>
lig.pdb

>  <RI>
1.05666e+07

>  <Rbt.Current_Directory>
/home/itssahil/PROJECTS/Mol_Feturizer/New_Systems/rnas/2lwk

>  <Rbt.Executable>
rbdock ($Id: //depot/dev/client3/rdock/2013.1/src/exe/rbdock.cxx#4 $)

>  <Rbt.Library>
libRbt.so (2013.1, Build901 2013/11/27)

>  <Rbt.Parameter_File>
/export/apps/rDock/src/rDock_2013.1_src/data/scripts/dock_solv.prm

>  <Rbt.Receptor>
prm/blind_docking_80.prm

>  <SCORE>
-12.0653

>  <SCORE.INTER>
-10.0527

>  <SCORE.INTER.CONST>
1

>  <SCORE.INTER.POLAR>
-1.22991

>  <SCORE.INTER.ROT>
3

>  <SCORE.INTER.SOLV>
11.4136

>  <SCORE.INTER.VDW>
-12.0066

>  <SCORE.INTER.norm>
-0.478701

>  <SCORE.INTRA>
-4.0952

>  <SCORE.INTRA.DIHEDRAL>
-0.97608

>  <SCORE.INTRA.DIHEDRAL.0>
8.84257

>  <SCORE.INTRA.POLAR>
0

>  <SCORE.INTRA.POLAR.0>
0

>  <SCORE.INTRA.REPUL>
0

>  <SCORE.INTRA.REPUL.0>
0

>  <SCORE.INTRA.SOLV>
0.0625239

>  <SCORE.INTRA.SOLV.lig_0>
-17.1313

>  <SCORE.INTRA.VDW>
-3.63842

>  <SCORE.INTRA.VDW.0>
6.34071

>  <SCORE.INTRA.norm>
-0.195009

>  <SCORE.RESTR>
2.08264

>  <SCORE.RESTR.CAVITY>
2.08264

>  <SCORE.RESTR.norm>
0.0991733

>  <SCORE.SYSTEM>
0

>  <SCORE.SYSTEM.CONST>
0

>  <SCORE.SYSTEM.DIHEDRAL>
0

>  <SCORE.SYSTEM.SOLV>
0

>  <SCORE.SYSTEM.norm>
0

>  <SCORE.heavy>
21

>  <SCORE.norm>
-0.574537

>  <RMSD>
13.419

$$$$
lig.pdb
 OpenBabel11021811453D
libRbt.so/2013.1/901 2013/11/27
 21 23  0  0  0  0  0  0  0  0999 V2000
   -4.1913   11.0156    1.4476 C   0  0  0  0  0  0  0  0  0  0  0  0
   -4.0439   11.1561    0.1351 N   0  0  0  0  0  0  0  0  0  0  0  0
   -3.1789   10.4001   -0.5169 C   0  0  0  0  0  0  0  0  0  0  0  0
   -2.3975    9.5354    0.1613 C   0  0  0  0  0  0  0  0  0  0  0  0
   -2.5517    9.3938    1.4846 C   0  0  0  0  0  0  0  0  0  0  0  0
   -1.7803    8.5455    2.1635 N   0  0  0  0  0  0  0  0  0  0  0  0
   -3.4481   10.1383    2.1235 N   0  0  0  0  0  0  0  0  0  0  0  0
   -3.0525   10.5321   -1.8478 C   0  0  0  0  0  0  0  0  0  0  0  0
   -2.0350    9.8785   -2.4880 C   0  0  0  0  0  0  0  0  0  0  0  0
   -1.3607   10.5663   -3.5249 O   0  0  0  0  0  0  0  0  0  0  0  0
   -1.4032    8.8876   -1.8375 C   0  0  0  0  0  0  0  0  0  0  0  0
   -0.6966    7.8999   -2.5746 O   0  0  0  0  0  0  0  0  0  0  0  0
   -1.5044    8.7840   -0.4978 C   0  0  0  0  0  0  0  0  0  0  0  0
   -5.0716   11.7660    2.0873 N   0  0  0  0  0  0  0  0  0  0  0  0
   -6.3583   11.4426    1.9258 C   0  0  0  0  0  0  0  0  0  0  0  0
   -6.8662   11.9730    0.5936 C   0  0  0  0  0  0  0  0  0  0  0  0
   -6.7560   13.3479    0.5701 N   0  0  0  0  0  0  0  0  0  0  0  0
   -5.4180   13.6510    0.6969 C   0  0  0  0  0  0  0  0  0  0  0  0
   -4.9087   13.1265    2.0291 C   0  0  0  0  0  0  0  0  0  0  0  0
   -2.2999   10.8851   -4.5195 C   0  0  0  0  0  0  0  0  0  0  0  0
   -1.6003    6.9025   -2.9729 C   0  0  0  0  0  0  0  0  0  0  0  0
  1 14  1  0  0  0  0
  1  2  2  0  0  0  0
  3  2  1  0  0  0  0
  3  8  2  0  0  0  0
  4  3  1  0  0  0  0
  5  7  2  0  0  0  0
  5  4  1  0  0  0  0
  6  5  1  0  0  0  0
  7  1  1  0  0  0  0
  9 10  1  0  0  0  0
  9  8  1  0  0  0  0
 11  9  2  0  0  0  0
 12 11  1  0  0  0  0
 13  4  2  0  0  0  0
 13 11  1  0  0  0  0
 14 15  1  0  0  0  0
 16 15  1  0  0  0  0
 17 16  1  0  0  0  0
 18 17  1  0  0  0  0
 18 19  1  0  0  0  0
 19 14  1  0  0  0  0
 20 10  1  0  0  0  0
 21 12  1  0  0  0  0
M  END
>  <CHROM.1>
74.67230910,-60.16385119,-84.75947147,-3.37506238,10.46769459,-0.28705046
-2.71363841,0.81687403,-1.28180476

>  <Name>
lig.pdb

>  <RI>
1.05666e+07

>  <Rbt.Current_Directory>
/home/itssahil/PROJECTS/Mol_Feturizer/New_Systems/rnas/2lwk

>  <Rbt.Executable>
rbdock ($Id: //depot/dev/client3/rdock/2013.1/src/exe/rbdock.cxx#4 $)

>  <Rbt.Library>
libRbt.so (2013.1, Build901 2013/11/27)

>  <Rbt.Parameter_File>
/export/apps/rDock/src/rDock_2013.1_src/data/scripts/dock_solv.prm

>  <Rbt.Receptor>
prm/blind_docking_80.prm

>  <SCORE>
-12.0638

>  <SCORE.INTER>
-10.0392

>  <SCORE.INTER.CONST>
1

>  <SCORE.INTER.POLAR>
-1.20794

>  <SCORE.INTER.ROT>
3

>  <SCORE.INTER.SOLV>
11.4739

>  <SCORE.INTER.VDW>
-12.091

>  <SCORE.INTER.norm>
-0.478059

>  <SCORE.INTRA>
-4.10474

>  <SCORE.INTRA.DIHEDRAL>
-0.962881

>  <SCORE.INTRA.DIHEDRAL.0>
8.84257

>  <SCORE.INTRA.POLAR>
0

>  <SCORE.INTRA.POLAR.0>
0

>  <SCORE.INTRA.REPUL>
0

>  <SCORE.INTRA.REPUL.0>
0

>  <SCORE.INTRA.SOLV>
0.062579

>  <SCORE.INTRA.SOLV.lig_0>
-17.1313

>  <SCORE.INTRA.VDW>
-3.65459

>  <SCORE.INTRA.VDW.0>
6.34071

>  <SCORE.INTRA.norm>
-0.195464

>  <SCORE.RESTR>
2.08021

>  <SCORE.RESTR.CAVITY>
2.08021

>  <SCORE.RESTR.norm>
0.0990576

>  <SCORE.SYSTEM>
0

>  <SCORE.SYSTEM.CONST>
0

>  <SCORE.SYSTEM.DIHEDRAL>
0

>  <SCORE.SYSTEM.SOLV>
0

>  <SCORE.SYSTEM.norm>
0

>  <SCORE.heavy>
21

>  <SCORE.norm>
-0.574465

>  <RMSD>
13.423

$$$$
lig.pdb
 OpenBabel11021811453D
libRbt.so/2013.1/901 2013/11/27
 21 23  0  0  0  0  0  0  0  0999 V2000
   -4.1797   11.0035    1.4442 C   0  0  0  0  0  0  0  0  0  0  0  0
   -4.0314   11.1502    0.1325 N   0  0  0  0  0  0  0  0  0  0  0  0
   -3.1615   10.4015   -0.5215 C   0  0  0  0  0  0  0  0  0  0  0  0
   -2.3763    9.5384    0.1542 C   0  0  0  0  0  0  0  0  0  0  0  0
   -2.5313    9.3905    1.4767 C   0  0  0  0  0  0  0  0  0  0  0  0
   -1.7562    8.5437    2.1531 N   0  0  0  0  0  0  0  0  0  0  0  0
   -3.4326   10.1276    2.1175 N   0  0  0  0  0  0  0  0  0  0  0  0
   -3.0342   10.5396   -1.8517 C   0  0  0  0  0  0  0  0  0  0  0  0
   -2.0123    9.8942   -2.4932 C   0  0  0  0  0  0  0  0  0  0  0  0
   -1.3404   10.5899   -3.5265 O   0  0  0  0  0  0  0  0  0  0  0  0
   -1.3760    8.9041   -1.8459 C   0  0  0  0  0  0  0  0  0  0  0  0
   -0.6630    7.9233   -2.5861 O   0  0  0  0  0  0  0  0  0  0  0  0
   -1.4783    8.7945   -0.5069 C   0  0  0  0  0  0  0  0  0  0  0  0
   -5.0648   11.7465    2.0859 N   0  0  0  0  0  0  0  0  0  0  0  0
   -6.3468   11.3929    1.9528 C   0  0  0  0  0  0  0  0  0  0  0  0
   -6.8889   11.8880    0.6206 C   0  0  0  0  0  0  0  0  0  0  0  0
   -6.8089   13.2643    0.5706 N   0  0  0  0  0  0  0  0  0  0  0  0
   -5.4757   13.5982    0.6684 C   0  0  0  0  0  0  0  0  0  0  0  0
   -4.9324   13.1089    2.0006 C   0  0  0  0  0  0  0  0  0  0  0  0
   -2.2810   10.9117   -4.5189 C   0  0  0  0  0  0  0  0  0  0  0  0
   -1.5519    6.9002   -2.9515 C   0  0  0  0  0  0  0  0  0  0  0  0
  1 14  1  0  0  0  0
  1  2  2  0  0  0  0
  3  2  1  0  0  0  0
  3  8  2  0  0  0  0
  4  3  1  0  0  0  0
  5  7  2  0  0  0  0
  5  4  1  0  0  0  0
  6  5  1  0  0  0  0
  7  1  1  0  0  0  0
  9 10  1  0  0  0  0
  9  8  1  0  0  0  0
 11  9  2  0  0  0  0
 12 11  1  0  0  0  0
 13  4  2  0  0  0  0
 13 11  1  0  0  0  0
 14 15  1  0  0  0  0
 16 15  1  0  0  0  0
 17 16  1  0  0  0  0
 18 17  1  0  0  0  0
 18 19  1  0  0  0  0
 19 14  1  0  0  0  0
 20 10  1  0  0  0  0
 21 12  1  0  0  0  0
M  END
>  <CHROM.1>
76.56705833,-59.96647906,-86.70386071,-3.36580101,10.45708763,-0.28991210
-2.71433680,0.80513507,-1.27689911

>  <Name>
lig.pdb

>  <RI>
4.07847e+07

>  <Rbt.Current_Directory>
/home/itssahil/PROJECTS/Mol_Feturizer/New_Systems/rnas/2lwk

>  <Rbt.Executable>
rbdock ($Id: //depot/dev/client3/rdock/2013.1/src/exe/rbdock.cxx#4 $)

>  <Rbt.Library>
libRbt.so (2013.1, Build901 2013/11/27)

>  <Rbt.Parameter_File>
/export/apps/rDock/src/rDock_2013.1_src/data/scripts/dock_solv.prm

>  <Rbt.Receptor>
prm/blind_docking_20.prm

>  <SCORE>
-12.1797

>  <SCORE.INTER>
-10.2404

>  <SCORE.INTER.CONST>
1

>  <SCORE.INTER.POLAR>
-1.1885

>  <SCORE.INTER.ROT>
3

>  <SCORE.INTER.SOLV>
11.5528

>  <SCORE.INTER.VDW>
-12.3162

>  <SCORE.INTER.norm>
-0.487639

>  <SCORE.INTRA>
-4.05299

>  <SCORE.INTRA.DIHEDRAL>
-0.965733

>  <SCORE.INTRA.DIHEDRAL.0>
8.84257

>  <SCORE.INTRA.POLAR>
0

>  <SCORE.INTRA.POLAR.0>
0

>  <SCORE.INTRA.REPUL>
0

>  <SCORE.INTRA.REPUL.0>
0

>  <SCORE.INTRA.SOLV>
0.060148

>  <SCORE.INTRA.SOLV.lig_0>
-17.1313

>  <SCORE.INTRA.VDW>
-3.6002

>  <SCORE.INTRA.VDW.0>
6.34071

>  <SCORE.INTRA.norm>
-0.193

>  <SCORE.RESTR>
2.11368

>  <SCORE.RESTR.CAVITY>
2.11368

>  <SCORE.RESTR.norm>
0.100651

>  <SCORE.SYSTEM>
0

>  <SCORE.SYSTEM.CONST>
0

>  <SCORE.SYSTEM.DIHEDRAL>
0

>  <SCORE.SYSTEM.SOLV>
0

>  <SCORE.SYSTEM.norm>
0

>  <SCORE.heavy>
21

>  <SCORE.norm>
-0.579988

>  <RMSD>
13.425

$$$$
lig.pdb
 OpenBabel11021811453D
libRbt.so/2013.1/901 2013/11/27
 21 23  0  0  0  0  0  0  0  0999 V2000
   -4.1885   11.0169    1.4343 C   0  0  0  0  0  0  0  0  0  0  0  0
   -4.0452   11.1577    0.1214 N   0  0  0  0  0  0  0  0  0  0  0  0
   -3.1837   10.4003   -0.5337 C   0  0  0  0  0  0  0  0  0  0  0  0
   -2.4017    9.5339    0.1415 C   0  0  0  0  0  0  0  0  0  0  0  0
   -2.5517    9.3921    1.4652 C   0  0  0  0  0  0  0  0  0  0  0  0
   -1.7797    8.5421    2.1413 N   0  0  0  0  0  0  0  0  0  0  0  0
   -3.4447   10.1380    2.1074 N   0  0  0  0  0  0  0  0  0  0  0  0
   -3.0615   10.5326   -1.8650 C   0  0  0  0  0  0  0  0  0  0  0  0
   -2.0473    9.8774   -2.5088 C   0  0  0  0  0  0  0  0  0  0  0  0
   -1.3752   10.5644   -3.5477 O   0  0  0  0  0  0  0  0  0  0  0  0
   -1.4152    8.8851   -1.8608 C   0  0  0  0  0  0  0  0  0  0  0  0
   -0.7128    7.8964   -2.6006 O   0  0  0  0  0  0  0  0  0  0  0  0
   -1.5122    8.7811   -0.5209 C   0  0  0  0  0  0  0  0  0  0  0  0
   -5.0653   11.7687    2.0773 N   0  0  0  0  0  0  0  0  0  0  0  0
   -6.3533   11.4503    1.9165 C   0  0  0  0  0  0  0  0  0  0  0  0
   -6.8611   11.9861    0.5865 C   0  0  0  0  0  0  0  0  0  0  0  0
   -6.7460   13.3607    0.5666 N   0  0  0  0  0  0  0  0  0  0  0  0
   -5.4067   13.6587    0.6925 C   0  0  0  0  0  0  0  0  0  0  0  0
   -4.8976   13.1287    2.0226 C   0  0  0  0  0  0  0  0  0  0  0  0
   -2.3193   10.8957   -4.5336 C   0  0  0  0  0  0  0  0  0  0  0  0
   -1.6190    6.8989   -2.9932 C   0  0  0  0  0  0  0  0  0  0  0  0
  1 14  1  0  0  0  0
  1  2  2  0  0  0  0
  3  2  1  0  0  0  0
  3  8  2  0  0  0  0
  4  3  1  0  0  0  0
  5  7  2  0  0  0  0
  5  4  1  0  0  0  0
  6  5  1  0  0  0  0
  7  1  1  0  0  0  0
  9 10  1  0  0  0  0
  9  8  1  0  0  0  0
 11  9  2  0  0  0  0
 12 11  1  0  0  0  0
 13  4  2  0  0  0  0
 13 11  1  0  0  0  0
 14 15  1  0  0  0  0
 16 15  1  0  0  0  0
 17 16  1  0  0  0  0
 18 17  1  0  0  0  0
 18 19  1  0  0  0  0
 19 14  1  0  0  0  0
 20 10  1  0  0  0  0
 21 12  1  0  0  0  0
M  END
>  <CHROM.1>
74.47015204,-59.65340804,-84.92055229,-3.37821701,10.46958390,-0.30272877
-2.71112862,0.82050275,-1.28312108

>  <Name>
lig.pdb

>  <RI>
4.07847e+07

>  <Rbt.Current_Directory>
/home/itssahil/PROJECTS/Mol_Feturizer/New_Systems/rnas/2lwk

>  <Rbt.Executable>
rbdock ($Id: //depot/dev/client3/rdock/2013.1/src/exe/rbdock.cxx#4 $)

>  <Rbt.Library>
libRbt.so (2013.1, Build901 2013/11/27)

>  <Rbt.Parameter_File>
/export/apps/rDock/src/rDock_2013.1_src/data/scripts/dock_solv.prm

>  <Rbt.Receptor>
prm/blind_docking_20.prm

>  <SCORE>
-12.0064

>  <SCORE.INTER>
-10.0142

>  <SCORE.INTER.CONST>
1

>  <SCORE.INTER.POLAR>
-1.17578

>  <SCORE.INTER.ROT>
3

>  <SCORE.INTER.SOLV>
11.4221

>  <SCORE.INTER.VDW>
-12.1642

>  <SCORE.INTER.norm>
-0.476868

>  <SCORE.INTRA>
-4.05606

>  <SCORE.INTRA.DIHEDRAL>
-1.00005

>  <SCORE.INTRA.DIHEDRAL.0>
8.84257

>  <SCORE.INTRA.POLAR>
0

>  <SCORE.INTRA.POLAR.0>
0

>  <SCORE.INTRA.REPUL>
0

>  <SCORE.INTRA.REPUL.0>
0

>  <SCORE.INTRA.SOLV>
0.0622002

>  <SCORE.INTRA.SOLV.lig_0>
-17.1313

>  <SCORE.INTRA.VDW>
-3.58714

>  <SCORE.INTRA.VDW.0>
6.34071

>  <SCORE.INTRA.norm>
-0.193146

>  <SCORE.RESTR>
2.06391

>  <SCORE.RESTR.CAVITY>
2.06391

>  <SCORE.RESTR.norm>
0.0982816

>  <SCORE.SYSTEM>
0

>  <SCORE.SYSTEM.CONST>
0

>  <SCORE.SYSTEM.DIHEDRAL>
0

>  <SCORE.SYSTEM.SOLV>
0

>  <SCORE.SYSTEM.norm>
0

>  <SCORE.heavy>
21

>  <SCORE.norm>
-0.571732

>  <RMSD>
13.425

$$$$
lig.pdb
 OpenBabel11021811453D
libRbt.so/2013.1/901 2013/11/27
 21 23  0  0  0  0  0  0  0  0999 V2000
   -4.1834   11.0090    1.4391 C   0  0  0  0  0  0  0  0  0  0  0  0
   -4.0345   11.1552    0.1274 N   0  0  0  0  0  0  0  0  0  0  0  0
   -3.1725   10.3983   -0.5276 C   0  0  0  0  0  0  0  0  0  0  0  0
   -2.3956    9.5268    0.1469 C   0  0  0  0  0  0  0  0  0  0  0  0
   -2.5512    9.3796    1.4694 C   0  0  0  0  0  0  0  0  0  0  0  0
   -1.7843    8.5245    2.1448 N   0  0  0  0  0  0  0  0  0  0  0  0
   -3.4447   10.1252    2.1113 N   0  0  0  0  0  0  0  0  0  0  0  0
   -3.0446   10.5360   -1.8578 C   0  0  0  0  0  0  0  0  0  0  0  0
   -2.0298    9.8808   -2.5004 C   0  0  0  0  0  0  0  0  0  0  0  0
   -1.3515   10.5704   -3.5337 O   0  0  0  0  0  0  0  0  0  0  0  0
   -1.4030    8.8839   -1.8543 C   0  0  0  0  0  0  0  0  0  0  0  0
   -0.7004    7.8965   -2.5956 O   0  0  0  0  0  0  0  0  0  0  0  0
   -1.5055    8.7744   -0.5152 C   0  0  0  0  0  0  0  0  0  0  0  0
   -5.0606   11.7605    2.0819 N   0  0  0  0  0  0  0  0  0  0  0  0
   -6.3486   11.4439    1.9178 C   0  0  0  0  0  0  0  0  0  0  0  0
   -6.8530   11.9832    0.5878 C   0  0  0  0  0  0  0  0  0  0  0  0
   -6.7364   13.3577    0.5711 N   0  0  0  0  0  0  0  0  0  0  0  0
   -5.3970   13.6539    0.7005 C   0  0  0  0  0  0  0  0  0  0  0  0
   -4.8913   13.1205    2.0305 C   0  0  0  0  0  0  0  0  0  0  0  0
   -2.2892   10.9008   -4.5261 C   0  0  0  0  0  0  0  0  0  0  0  0
   -1.6075    6.9025   -2.9949 C   0  0  0  0  0  0  0  0  0  0  0  0
  1 14  1  0  0  0  0
  1  2  2  0  0  0  0
  3  2  1  0  0  0  0
  3  8  2  0  0  0  0
  4  3  1  0  0  0  0
  5  7  2  0  0  0  0
  5  4  1  0  0  0  0
  6  5  1  0  0  0  0
  7  1  1  0  0  0  0
  9 10  1  0  0  0  0
  9  8  1  0  0  0  0
 11  9  2  0  0  0  0
 12 11  1  0  0  0  0
 13  4  2  0  0  0  0
 13 11  1  0  0  0  0
 14 15  1  0  0  0  0
 16 15  1  0  0  0  0
 17 16  1  0  0  0  0
 18 17  1  0  0  0  0
 18 19  1  0  0  0  0
 19 14  1  0  0  0  0
 20 10  1  0  0  0  0
 21 12  1  0  0  0  0
M  END
>  <CHROM.1>
74.66122480,-60.04297690,-84.98344798,-3.36843981,10.46570730,-0.29729045
-2.71711877,0.82126127,-1.27448208

>  <Name>
lig.pdb

>  <RI>
1.99026e+07

>  <Rbt.Current_Directory>
/home/itssahil/PROJECTS/Mol_Feturizer/New_Systems/rnas/2lwk

>  <Rbt.Executable>
rbdock ($Id: //depot/dev/client3/rdock/2013.1/src/exe/rbdock.cxx#4 $)

>  <Rbt.Library>
libRbt.so (2013.1, Build901 2013/11/27)

>  <Rbt.Parameter_File>
/export/apps/rDock/src/rDock_2013.1_src/data/scripts/dock_solv.prm

>  <Rbt.Receptor>
prm/blind_docking_60.prm

>  <SCORE>
-11.911

>  <SCORE.INTER>
-9.85963

>  <SCORE.INTER.CONST>
1

>  <SCORE.INTER.POLAR>
-1.2048

>  <SCORE.INTER.ROT>
3

>  <SCORE.INTER.SOLV>
11.4687

>  <SCORE.INTER.VDW>
-11.98

>  <SCORE.INTER.norm>
-0.469506

>  <SCORE.INTRA>
-4.09163

>  <SCORE.INTRA.DIHEDRAL>
-0.969987

>  <SCORE.INTRA.DIHEDRAL.0>
8.84257

>  <SCORE.INTRA.POLAR>
0

>  <SCORE.INTRA.POLAR.0>
0

>  <SCORE.INTRA.REPUL>
0

>  <SCORE.INTRA.REPUL.0>
0

>  <SCORE.INTRA.SOLV>
0.062351

>  <SCORE.INTRA.SOLV.lig_0>
-17.1313

>  <SCORE.INTRA.VDW>
-3.63782

>  <SCORE.INTRA.VDW.0>
6.34071

>  <SCORE.INTRA.norm>
-0.19484

>  <SCORE.RESTR>
2.04026

>  <SCORE.RESTR.CAVITY>
2.04026

>  <SCORE.RESTR.norm>
0.0971552

>  <SCORE.SYSTEM>
0

>  <SCORE.SYSTEM.CONST>
0

>  <SCORE.SYSTEM.DIHEDRAL>
0

>  <SCORE.SYSTEM.SOLV>
0

>  <SCORE.SYSTEM.norm>
0

>  <SCORE.heavy>
21

>  <SCORE.norm>
-0.567191

>  <RMSD>
13.425

$$$$
lig.pdb
 OpenBabel11021811453D
libRbt.so/2013.1/901 2013/11/27
 21 23  0  0  0  0  0  0  0  0999 V2000
   -4.1937   11.0214    1.4502 C   0  0  0  0  0  0  0  0  0  0  0  0
   -4.0348   11.1558    0.1383 N   0  0  0  0  0  0  0  0  0  0  0  0
   -3.1645   10.3963   -0.5025 C   0  0  0  0  0  0  0  0  0  0  0  0
   -2.3895    9.5344    0.1864 C   0  0  0  0  0  0  0  0  0  0  0  0
   -2.5553    9.3991    1.5090 C   0  0  0  0  0  0  0  0  0  0  0  0
   -1.7903    8.5536    2.1986 N   0  0  0  0  0  0  0  0  0  0  0  0
   -3.4569   10.1470    2.1366 N   0  0  0  0  0  0  0  0  0  0  0  0
   -3.0264   10.5221   -1.8329 C   0  0  0  0  0  0  0  0  0  0  0  0
   -2.0037    9.8650   -2.4611 C   0  0  0  0  0  0  0  0  0  0  0  0
   -1.3200   10.5478   -3.4953 O   0  0  0  0  0  0  0  0  0  0  0  0
   -1.3781    8.8769   -1.8005 C   0  0  0  0  0  0  0  0  0  0  0  0
   -0.6656    7.8855   -2.5268 O   0  0  0  0  0  0  0  0  0  0  0  0
   -1.4911    8.7796   -0.4613 C   0  0  0  0  0  0  0  0  0  0  0  0
   -5.0792   11.7752    2.0787 N   0  0  0  0  0  0  0  0  0  0  0  0
   -6.3644   11.4504    1.9090 C   0  0  0  0  0  0  0  0  0  0  0  0
   -6.8621   11.9730    0.5699 C   0  0  0  0  0  0  0  0  0  0  0  0
   -6.7521   13.3478    0.5393 N   0  0  0  0  0  0  0  0  0  0  0  0
   -5.4152   13.6521    0.6749 C   0  0  0  0  0  0  0  0  0  0  0  0
   -4.9162   13.1354    2.0140 C   0  0  0  0  0  0  0  0  0  0  0  0
   -2.2593   10.9071   -4.4759 C   0  0  0  0  0  0  0  0  0  0  0  0
   -1.5736    6.9101   -2.9676 C   0  0  0  0  0  0  0  0  0  0  0  0
  1 14  1  0  0  0  0
  1  2  2  0  0  0  0
  3  2  1  0  0  0  0
  3  8  2  0  0  0  0
  4  3  1  0  0  0  0
  5  7  2  0  0  0  0
  5  4  1  0  0  0  0
  6  5  1  0  0  0  0
  7  1  1  0  0  0  0
  9 10  1  0  0  0  0
  9  8  1  0  0  0  0
 11  9  2  0  0  0  0
 12 11  1  0  0  0  0
 13  4  2  0  0  0  0
 13 11  1  0  0  0  0
 14 15  1  0  0  0  0
 16 15  1  0  0  0  0
 17 16  1  0  0  0  0
 18 17  1  0  0  0  0
 18 19  1  0  0  0  0
 19 14  1  0  0  0  0
 20 10  1  0  0  0  0
 21 12  1  0  0  0  0
M  END
>  <CHROM.1>
74.76515035,-57.95920856,-82.76373954,-3.36386121,10.46818259,-0.27555401
-2.72572986,0.81424565,-1.27657404

>  <Name>
lig.pdb

>  <RI>
1.99026e+07

>  <Rbt.Current_Directory>
/home/itssahil/PROJECTS/Mol_Feturizer/New_Systems/rnas/2lwk

>  <Rbt.Executable>
rbdock ($Id: //depot/dev/client3/rdock/2013.1/src/exe/rbdock.cxx#4 $)

>  <Rbt.Library>
libRbt.so (2013.1, Build901 2013/11/27)

>  <Rbt.Parameter_File>
/export/apps/rDock/src/rDock_2013.1_src/data/scripts/dock_solv.prm

>  <Rbt.Receptor>
prm/blind_docking_60.prm

>  <SCORE>
-12.1106

>  <SCORE.INTER>
-10.3071

>  <SCORE.INTER.CONST>
1

>  <SCORE.INTER.POLAR>
-1.24617

>  <SCORE.INTER.ROT>
3

>  <SCORE.INTER.SOLV>
11.522

>  <SCORE.INTER.VDW>
-12.1581

>  <SCORE.INTER.norm>
-0.490813

>  <SCORE.INTRA>
-3.89729

>  <SCORE.INTRA.DIHEDRAL>
-1.15547

>  <SCORE.INTRA.DIHEDRAL.0>
8.84257

>  <SCORE.INTRA.POLAR>
0

>  <SCORE.INTRA.POLAR.0>
0

>  <SCORE.INTRA.REPUL>
0

>  <SCORE.INTRA.REPUL.0>
0

>  <SCORE.INTRA.SOLV>
0.0622459

>  <SCORE.INTRA.SOLV.lig_0>
-17.1313

>  <SCORE.INTRA.VDW>
-3.35068

>  <SCORE.INTRA.VDW.0>
6.34071

>  <SCORE.INTRA.norm>
-0.185585

>  <SCORE.RESTR>
2.0938

>  <SCORE.RESTR.CAVITY>
2.0938

>  <SCORE.RESTR.norm>
0.0997049

>  <SCORE.SYSTEM>
0

>  <SCORE.SYSTEM.CONST>
0

>  <SCORE.SYSTEM.DIHEDRAL>
0

>  <SCORE.SYSTEM.SOLV>
0

>  <SCORE.SYSTEM.norm>
0

>  <SCORE.heavy>
21

>  <SCORE.norm>
-0.576693

>  <RMSD>
13.425

$$$$
lig.pdb
 OpenBabel11021811453D
libRbt.so/2013.1/901 2013/11/27
 21 23  0  0  0  0  0  0  0  0999 V2000
   -4.1885   11.0154    1.4359 C   0  0  0  0  0  0  0  0  0  0  0  0
   -4.0333   11.1531    0.1240 N   0  0  0  0  0  0  0  0  0  0  0  0
   -3.1650   10.3953   -0.5214 C   0  0  0  0  0  0  0  0  0  0  0  0
   -2.3880    9.5316    0.1631 C   0  0  0  0  0  0  0  0  0  0  0  0
   -2.5499    9.3928    1.4858 C   0  0  0  0  0  0  0  0  0  0  0  0
   -1.7830    8.5455    2.1710 N   0  0  0  0  0  0  0  0  0  0  0  0
   -3.4497   10.1392    2.1180 N   0  0  0  0  0  0  0  0  0  0  0  0
   -3.0308   10.5243   -1.8518 C   0  0  0  0  0  0  0  0  0  0  0  0
   -2.0100    9.8689   -2.4847 C   0  0  0  0  0  0  0  0  0  0  0  0
   -1.3292   10.5542   -3.5191 O   0  0  0  0  0  0  0  0  0  0  0  0
   -1.3825    8.8790   -1.8284 C   0  0  0  0  0  0  0  0  0  0  0  0
   -0.6721    7.8894   -2.5593 O   0  0  0  0  0  0  0  0  0  0  0  0
   -1.4916    8.7783   -0.4892 C   0  0  0  0  0  0  0  0  0  0  0  0
   -5.0720   11.7677    2.0689 N   0  0  0  0  0  0  0  0  0  0  0  0
   -6.3570   11.4346    1.9138 C   0  0  0  0  0  0  0  0  0  0  0  0
   -6.8709   11.9467    0.5768 C   0  0  0  0  0  0  0  0  0  0  0  0
   -6.7691   13.3219    0.5374 N   0  0  0  0  0  0  0  0  0  0  0  0
   -5.4327   13.6347    0.6580 C   0  0  0  0  0  0  0  0  0  0  0  0
   -4.9176   13.1284    1.9950 C   0  0  0  0  0  0  0  0  0  0  0  0
   -2.2690   10.9033   -4.5030 C   0  0  0  0  0  0  0  0  0  0  0  0
   -1.5764    6.8982   -2.9720 C   0  0  0  0  0  0  0  0  0  0  0  0
  1 14  1  0  0  0  0
  1  2  2  0  0  0  0
  3  2  1  0  0  0  0
  3  8  2  0  0  0  0
  4  3  1  0  0  0  0
  5  7  2  0  0  0  0
  5  4  1  0  0  0  0
  6  5  1  0  0  0  0
  7  1  1  0  0  0  0
  9 10  1  0  0  0  0
  9  8  1  0  0  0  0
 11  9  2  0  0  0  0
 12 11  1  0  0  0  0
 13  4  2  0  0  0  0
 13 11  1  0  0  0  0
 14 15  1  0  0  0  0
 16 15  1  0  0  0  0
 17 16  1  0  0  0  0
 18 17  1  0  0  0  0
 18 19  1  0  0  0  0
 19 14  1  0  0  0  0
 20 10  1  0  0  0  0
 21 12  1  0  0  0  0
M  END
>  <CHROM.1>
75.46595585,-58.58998080,-84.18823441,-3.36624961,10.46166467,-0.29271819
-2.72229712,0.81298445,-1.27679775

>  <Name>
lig.pdb

>  <RI>
1.05666e+07

>  <Rbt.Current_Directory>
/home/itssahil/PROJECTS/Mol_Feturizer/New_Systems/rnas/2lwk

>  <Rbt.Executable>
rbdock ($Id: //depot/dev/client3/rdock/2013.1/src/exe/rbdock.cxx#4 $)

>  <Rbt.Library>
libRbt.so (2013.1, Build901 2013/11/27)

>  <Rbt.Parameter_File>
/export/apps/rDock/src/rDock_2013.1_src/data/scripts/dock_solv.prm

>  <Rbt.Receptor>
prm/blind_docking_80.prm

>  <SCORE>
-12.156

>  <SCORE.INTER>
-10.309

>  <SCORE.INTER.CONST>
1

>  <SCORE.INTER.POLAR>
-1.2124

>  <SCORE.INTER.ROT>
3

>  <SCORE.INTER.SOLV>
11.4906

>  <SCORE.INTER.VDW>
-12.2615

>  <SCORE.INTER.norm>
-0.490905

>  <SCORE.INTRA>
-3.94854

>  <SCORE.INTRA.DIHEDRAL>
-1.08887

>  <SCORE.INTRA.DIHEDRAL.0>
8.84257

>  <SCORE.INTRA.POLAR>
0

>  <SCORE.INTRA.POLAR.0>
0

>  <SCORE.INTRA.REPUL>
0

>  <SCORE.INTRA.REPUL.0>
0

>  <SCORE.INTRA.SOLV>
0.0613898

>  <SCORE.INTRA.SOLV.lig_0>
-17.1313

>  <SCORE.INTRA.VDW>
-3.4348

>  <SCORE.INTRA.VDW.0>
6.34071

>  <SCORE.INTRA.norm>
-0.188026

>  <SCORE.RESTR>
2.10155

>  <SCORE.RESTR.CAVITY>
2.10155

>  <SCORE.RESTR.norm>
0.100074

>  <SCORE.SYSTEM>
0

>  <SCORE.SYSTEM.CONST>
0

>  <SCORE.SYSTEM.DIHEDRAL>
0

>  <SCORE.SYSTEM.SOLV>
0

>  <SCORE.SYSTEM.norm>
0

>  <SCORE.heavy>
21

>  <SCORE.norm>
-0.578857

>  <RMSD>
13.425

$$$$
lig.pdb
 OpenBabel11021811453D
libRbt.so/2013.1/901 2013/11/27
 21 23  0  0  0  0  0  0  0  0999 V2000
   -4.1636   11.0074    1.4465 C   0  0  0  0  0  0  0  0  0  0  0  0
   -4.0200   11.1439    0.1331 N   0  0  0  0  0  0  0  0  0  0  0  0
   -3.1501   10.3924   -0.5176 C   0  0  0  0  0  0  0  0  0  0  0  0
   -2.3603    9.5368    0.1624 C   0  0  0  0  0  0  0  0  0  0  0  0
   -2.5106    9.3993    1.4866 C   0  0  0  0  0  0  0  0  0  0  0  0
   -1.7310    8.5600    2.1674 N   0  0  0  0  0  0  0  0  0  0  0  0
   -3.4119   10.1390    2.1244 N   0  0  0  0  0  0  0  0  0  0  0  0
   -3.0274   10.5200   -1.8493 C   0  0  0  0  0  0  0  0  0  0  0  0
   -2.0059    9.8723   -2.4889 C   0  0  0  0  0  0  0  0  0  0  0  0
   -1.3392   10.5615   -3.5299 O   0  0  0  0  0  0  0  0  0  0  0  0
   -1.3647    8.8892   -1.8357 C   0  0  0  0  0  0  0  0  0  0  0  0
   -0.6514    7.9044   -2.5703 O   0  0  0  0  0  0  0  0  0  0  0  0
   -1.4624    8.7901   -0.4955 C   0  0  0  0  0  0  0  0  0  0  0  0
   -5.0488   11.7531    2.0850 N   0  0  0  0  0  0  0  0  0  0  0  0
   -6.3325   11.4131    1.9344 C   0  0  0  0  0  0  0  0  0  0  0  0
   -6.8548   11.9255    0.6008 C   0  0  0  0  0  0  0  0  0  0  0  0
   -6.7611   13.3013    0.5642 N   0  0  0  0  0  0  0  0  0  0  0  0
   -5.4260   13.6213    0.6800 C   0  0  0  0  0  0  0  0  0  0  0  0
   -4.9023   13.1149    2.0136 C   0  0  0  0  0  0  0  0  0  0  0  0
   -2.2873   10.8885   -4.5134 C   0  0  0  0  0  0  0  0  0  0  0  0
   -1.5490    6.9015   -2.9688 C   0  0  0  0  0  0  0  0  0  0  0  0
  1 14  1  0  0  0  0
  1  2  2  0  0  0  0
  3  2  1  0  0  0  0
  3  8  2  0  0  0  0
  4  3  1  0  0  0  0
  5  7  2  0  0  0  0
  5  4  1  0  0  0  0
  6  5  1  0  0  0  0
  7  1  1  0  0  0  0
  9 10  1  0  0  0  0
  9  8  1  0  0  0  0
 11  9  2  0  0  0  0
 12 11  1  0  0  0  0
 13  4  2  0  0  0  0
 13 11  1  0  0  0  0
 14 15  1  0  0  0  0
 16 15  1  0  0  0  0
 17 16  1  0  0  0  0
 18 17  1  0  0  0  0
 18 19  1  0  0  0  0
 19 14  1  0  0  0  0
 20 10  1  0  0  0  0
 21 12  1  0  0  0  0
M  END
>  <CHROM.1>
75.10042627,-59.18201477,-84.45328566,-3.34840901,10.45844600,-0.28749880
-2.70789141,0.80811741,-1.28947985

>  <Name>
lig.pdb

>  <RI>
3.07369e+07

>  <Rbt.Current_Directory>
/home/itssahil/PROJECTS/Mol_Feturizer/New_Systems/rnas/2lwk

>  <Rbt.Executable>
rbdock ($Id: //depot/dev/client3/rdock/2013.1/src/exe/rbdock.cxx#4 $)

>  <Rbt.Library>
libRbt.so (2013.1, Build901 2013/11/27)

>  <Rbt.Parameter_File>
/export/apps/rDock/src/rDock_2013.1_src/data/scripts/dock_solv.prm

>  <Rbt.Receptor>
prm/blind_docking_100.prm

>  <SCORE>
-11.9513

>  <SCORE.INTER>
-10.0017

>  <SCORE.INTER.CONST>
1

>  <SCORE.INTER.POLAR>
-1.16472

>  <SCORE.INTER.ROT>
3

>  <SCORE.INTER.SOLV>
11.6532

>  <SCORE.INTER.VDW>
-12.2698

>  <SCORE.INTER.norm>
-0.47627

>  <SCORE.INTRA>
-4.00906

>  <SCORE.INTRA.DIHEDRAL>
-1.04075

>  <SCORE.INTRA.DIHEDRAL.0>
8.84257

>  <SCORE.INTRA.POLAR>
0

>  <SCORE.INTRA.POLAR.0>
0

>  <SCORE.INTRA.REPUL>
0

>  <SCORE.INTRA.REPUL.0>
0

>  <SCORE.INTRA.SOLV>
0.0618409

>  <SCORE.INTRA.SOLV.lig_0>
-17.1313

>  <SCORE.INTRA.VDW>
-3.5196

>  <SCORE.INTRA.VDW.0>
6.34071

>  <SCORE.INTRA.norm>
-0.190907

>  <SCORE.RESTR>
2.0594

>  <SCORE.RESTR.CAVITY>
2.0594

>  <SCORE.RESTR.norm>
0.0980665

>  <SCORE.SYSTEM>
0

>  <SCORE.SYSTEM.CONST>
0

>  <SCORE.SYSTEM.DIHEDRAL>
0

>  <SCORE.SYSTEM.SOLV>
0

>  <SCORE.SYSTEM.norm>
0

>  <SCORE.heavy>
21

>  <SCORE.norm>
-0.56911

>  <RMSD>
13.427

$$$$
lig.pdb
 OpenBabel11021811453D
libRbt.so/2013.1/901 2013/11/27
 21 23  0  0  0  0  0  0  0  0999 V2000
   -4.1855   11.0121    1.4340 C   0  0  0  0  0  0  0  0  0  0  0  0
   -4.0397   11.1558    0.1216 N   0  0  0  0  0  0  0  0  0  0  0  0
   -3.1773   10.3996   -0.5336 C   0  0  0  0  0  0  0  0  0  0  0  0
   -2.3968    9.5315    0.1411 C   0  0  0  0  0  0  0  0  0  0  0  0
   -2.5492    9.3867    1.4642 C   0  0  0  0  0  0  0  0  0  0  0  0
   -1.7787    8.5350    2.1398 N   0  0  0  0  0  0  0  0  0  0  0  0
   -3.4431   10.1315    2.1065 N   0  0  0  0  0  0  0  0  0  0  0  0
   -3.0526   10.5348   -1.8644 C   0  0  0  0  0  0  0  0  0  0  0  0
   -2.0375    9.8808   -2.5078 C   0  0  0  0  0  0  0  0  0  0  0  0
   -1.3632   10.5699   -3.5439 O   0  0  0  0  0  0  0  0  0  0  0  0
   -1.4068    8.8868   -1.8608 C   0  0  0  0  0  0  0  0  0  0  0  0
   -0.7034    7.8995   -2.6016 O   0  0  0  0  0  0  0  0  0  0  0  0
   -1.5063    8.7799   -0.5213 C   0  0  0  0  0  0  0  0  0  0  0  0
   -5.0631   11.7627    2.0770 N   0  0  0  0  0  0  0  0  0  0  0  0
   -6.3509   11.4442    1.9144 C   0  0  0  0  0  0  0  0  0  0  0  0
   -6.8573   11.9818    0.5845 C   0  0  0  0  0  0  0  0  0  0  0  0
   -6.7426   13.3564    0.5667 N   0  0  0  0  0  0  0  0  0  0  0  0
   -5.4035   13.6547    0.6946 C   0  0  0  0  0  0  0  0  0  0  0  0
   -4.8958   13.1229    2.0245 C   0  0  0  0  0  0  0  0  0  0  0  0
   -2.3025   10.8900   -4.5381 C   0  0  0  0  0  0  0  0  0  0  0  0
   -1.6079    6.8997   -2.9921 C   0  0  0  0  0  0  0  0  0  0  0  0
  1 14  1  0  0  0  0
  1  2  2  0  0  0  0
  3  2  1  0  0  0  0
  3  8  2  0  0  0  0
  4  3  1  0  0  0  0
  5  7  2  0  0  0  0
  5  4  1  0  0  0  0
  6  5  1  0  0  0  0
  7  1  1  0  0  0  0
  9 10  1  0  0  0  0
  9  8  1  0  0  0  0
 11  9  2  0  0  0  0
 12 11  1  0  0  0  0
 13  4  2  0  0  0  0
 13 11  1  0  0  0  0
 14 15  1  0  0  0  0
 16 15  1  0  0  0  0
 17 16  1  0  0  0  0
 18 17  1  0  0  0  0
 18 19  1  0  0  0  0
 19 14  1  0  0  0  0
 20 10  1  0  0  0  0
 21 12  1  0  0  0  0
M  END
>  <CHROM.1>
74.53985486,-60.33096529,-85.22417313,-3.37224194,10.46720687,-0.30288710
-2.71322499,0.81999266,-1.27960983

>  <Name>
lig.pdb

>  <RI>
1.99026e+07

>  <Rbt.Current_Directory>
/home/itssahil/PROJECTS/Mol_Feturizer/New_Systems/rnas/2lwk

>  <Rbt.Executable>
rbdock ($Id: //depot/dev/client3/rdock/2013.1/src/exe/rbdock.cxx#4 $)

>  <Rbt.Library>
libRbt.so (2013.1, Build901 2013/11/27)

>  <Rbt.Parameter_File>
/export/apps/rDock/src/rDock_2013.1_src/data/scripts/dock_solv.prm

>  <Rbt.Receptor>
prm/blind_docking_60.prm

>  <SCORE>
-11.9468

>  <SCORE.INTER>
-9.88047

>  <SCORE.INTER.CONST>
1

>  <SCORE.INTER.POLAR>
-1.18212

>  <SCORE.INTER.ROT>
3

>  <SCORE.INTER.SOLV>
11.4563

>  <SCORE.INTER.VDW>
-12.0654

>  <SCORE.INTER.norm>
-0.470499

>  <SCORE.INTRA>
-4.11761

>  <SCORE.INTRA.DIHEDRAL>
-0.946026

>  <SCORE.INTRA.DIHEDRAL.0>
8.84257

>  <SCORE.INTRA.POLAR>
0

>  <SCORE.INTRA.POLAR.0>
0

>  <SCORE.INTRA.REPUL>
0

>  <SCORE.INTRA.REPUL.0>
0

>  <SCORE.INTRA.SOLV>
0.062468

>  <SCORE.INTRA.SOLV.lig_0>
-17.1313

>  <SCORE.INTRA.VDW>
-3.67583

>  <SCORE.INTRA.VDW.0>
6.34071

>  <SCORE.INTRA.norm>
-0.196077

>  <SCORE.RESTR>
2.05125

>  <SCORE.RESTR.CAVITY>
2.05125

>  <SCORE.RESTR.norm>
0.0976785

>  <SCORE.SYSTEM>
0

>  <SCORE.SYSTEM.CONST>
0

>  <SCORE.SYSTEM.DIHEDRAL>
0

>  <SCORE.SYSTEM.SOLV>
0

>  <SCORE.SYSTEM.norm>
0

>  <SCORE.heavy>
21

>  <SCORE.norm>
-0.568897

>  <RMSD>
13.427

$$$$
lig.pdb
 OpenBabel11021811453D
libRbt.so/2013.1/901 2013/11/27
 21 23  0  0  0  0  0  0  0  0999 V2000
   -4.1842   11.0182    1.4341 C   0  0  0  0  0  0  0  0  0  0  0  0
   -4.0302   11.1545    0.1218 N   0  0  0  0  0  0  0  0  0  0  0  0
   -3.1632   10.3952   -0.5236 C   0  0  0  0  0  0  0  0  0  0  0  0
   -2.3865    9.5313    0.1609 C   0  0  0  0  0  0  0  0  0  0  0  0
   -2.5473    9.3940    1.4838 C   0  0  0  0  0  0  0  0  0  0  0  0
   -1.7806    8.5465    2.1691 N   0  0  0  0  0  0  0  0  0  0  0  0
   -3.4457   10.1418    2.1162 N   0  0  0  0  0  0  0  0  0  0  0  0
   -3.0302   10.5229   -1.8543 C   0  0  0  0  0  0  0  0  0  0  0  0
   -2.0106    9.8658   -2.4876 C   0  0  0  0  0  0  0  0  0  0  0  0
   -1.3301   10.5495   -3.5233 O   0  0  0  0  0  0  0  0  0  0  0  0
   -1.3835    8.8759   -1.8310 C   0  0  0  0  0  0  0  0  0  0  0  0
   -0.6749    7.8849   -2.5617 O   0  0  0  0  0  0  0  0  0  0  0  0
   -1.4914    8.7765   -0.4916 C   0  0  0  0  0  0  0  0  0  0  0  0
   -5.0663   11.7719    2.0672 N   0  0  0  0  0  0  0  0  0  0  0  0
   -6.3525   11.4479    1.9032 C   0  0  0  0  0  0  0  0  0  0  0  0
   -6.8561   11.9717    0.5668 C   0  0  0  0  0  0  0  0  0  0  0  0
   -6.7456   13.3465    0.5368 N   0  0  0  0  0  0  0  0  0  0  0  0
   -5.4079   13.6501    0.6664 C   0  0  0  0  0  0  0  0  0  0  0  0
   -4.9030   13.1321    2.0028 C   0  0  0  0  0  0  0  0  0  0  0  0
   -2.2700   10.8961   -4.5080 C   0  0  0  0  0  0  0  0  0  0  0  0
   -1.5823    6.8998   -2.9818 C   0  0  0  0  0  0  0  0  0  0  0  0
  1 14  1  0  0  0  0
  1  2  2  0  0  0  0
  3  2  1  0  0  0  0
  3  8  2  0  0  0  0
  4  3  1  0  0  0  0
  5  7  2  0  0  0  0
  5  4  1  0  0  0  0
  6  5  1  0  0  0  0
  7  1  1  0  0  0  0
  9 10  1  0  0  0  0
  9  8  1  0  0  0  0
 11  9  2  0  0  0  0
 12 11  1  0  0  0  0
 13  4  2  0  0  0  0
 13 11  1  0  0  0  0
 14 15  1  0  0  0  0
 16 15  1  0  0  0  0
 17 16  1  0  0  0  0
 18 17  1  0  0  0  0
 18 19  1  0  0  0  0
 19 14  1  0  0  0  0
 20 10  1  0  0  0  0
 21 12  1  0  0  0  0
M  END
>  <CHROM.1>
74.84019819,-58.71692717,-83.72108663,-3.36160252,10.46513183,-0.29526887
-2.72122277,0.81632716,-1.27860836

>  <Name>
lig.pdb

>  <RI>
3.07369e+07

>  <Rbt.Current_Directory>
/home/itssahil/PROJECTS/Mol_Feturizer/New_Systems/rnas/2lwk

>  <Rbt.Executable>
rbdock ($Id: //depot/dev/client3/rdock/2013.1/src/exe/rbdock.cxx#4 $)

>  <Rbt.Library>
libRbt.so (2013.1, Build901 2013/11/27)

>  <Rbt.Parameter_File>
/export/apps/rDock/src/rDock_2013.1_src/data/scripts/dock_solv.prm

>  <Rbt.Receptor>
prm/blind_docking_100.prm

>  <SCORE>
-12.0378

>  <SCORE.INTER>
-10.1367

>  <SCORE.INTER.CONST>
1

>  <SCORE.INTER.POLAR>
-1.20351

>  <SCORE.INTER.ROT>
3

>  <SCORE.INTER.SOLV>
11.5082

>  <SCORE.INTER.VDW>
-12.1822

>  <SCORE.INTER.norm>
-0.482701

>  <SCORE.INTRA>
-3.96939

>  <SCORE.INTRA.DIHEDRAL>
-1.08444

>  <SCORE.INTRA.DIHEDRAL.0>
8.84257

>  <SCORE.INTRA.POLAR>
0

>  <SCORE.INTRA.POLAR.0>
0

>  <SCORE.INTRA.REPUL>
0

>  <SCORE.INTRA.REPUL.0>
0

>  <SCORE.INTRA.SOLV>
0.0621174

>  <SCORE.INTRA.SOLV.lig_0>
-17.1313

>  <SCORE.INTRA.VDW>
-3.45823

>  <SCORE.INTRA.VDW.0>
6.34071

>  <SCORE.INTRA.norm>
-0.189019

>  <SCORE.RESTR>
2.06832

>  <SCORE.RESTR.CAVITY>
2.06832

>  <SCORE.RESTR.norm>
0.0984913

>  <SCORE.SYSTEM>
0

>  <SCORE.SYSTEM.CONST>
0

>  <SCORE.SYSTEM.DIHEDRAL>
0

>  <SCORE.SYSTEM.SOLV>
0

>  <SCORE.SYSTEM.norm>
0

>  <SCORE.heavy>
21

>  <SCORE.norm>
-0.573229

>  <RMSD>
13.428

$$$$
lig.pdb
 OpenBabel11021811453D
libRbt.so/2013.1/901 2013/11/27
 21 23  0  0  0  0  0  0  0  0999 V2000
   -4.1804   11.0142    1.4282 C   0  0  0  0  0  0  0  0  0  0  0  0
   -4.0402   11.1515    0.1145 N   0  0  0  0  0  0  0  0  0  0  0  0
   -3.1751   10.3973   -0.5395 C   0  0  0  0  0  0  0  0  0  0  0  0
   -2.3864    9.5382    0.1373 C   0  0  0  0  0  0  0  0  0  0  0  0
   -2.5333    9.3999    1.4617 C   0  0  0  0  0  0  0  0  0  0  0  0
   -1.7547    8.5571    2.1393 N   0  0  0  0  0  0  0  0  0  0  0  0
   -3.4299   10.1423    2.1030 N   0  0  0  0  0  0  0  0  0  0  0  0
   -3.0560   10.5258   -1.8715 C   0  0  0  0  0  0  0  0  0  0  0  0
   -2.0388    9.8749   -2.5148 C   0  0  0  0  0  0  0  0  0  0  0  0
   -1.3728   10.5627   -3.5572 O   0  0  0  0  0  0  0  0  0  0  0  0
   -1.3993    8.8888   -1.8645 C   0  0  0  0  0  0  0  0  0  0  0  0
   -0.6919    7.9021   -2.6022 O   0  0  0  0  0  0  0  0  0  0  0  0
   -1.4933    8.7888   -0.5241 C   0  0  0  0  0  0  0  0  0  0  0  0
   -5.0608   11.7626    2.0701 N   0  0  0  0  0  0  0  0  0  0  0  0
   -6.3471   11.4359    1.9121 C   0  0  0  0  0  0  0  0  0  0  0  0
   -6.8599   11.9647    0.5811 C   0  0  0  0  0  0  0  0  0  0  0  0
   -6.7532   13.3399    0.5570 N   0  0  0  0  0  0  0  0  0  0  0  0
   -5.4156   13.6464    0.6802 C   0  0  0  0  0  0  0  0  0  0  0  0
   -4.9015   13.1235    2.0111 C   0  0  0  0  0  0  0  0  0  0  0  0
   -2.3206   10.8842   -4.5428 C   0  0  0  0  0  0  0  0  0  0  0  0
   -1.5924    6.8975   -2.9898 C   0  0  0  0  0  0  0  0  0  0  0  0
  1 14  1  0  0  0  0
  1  2  2  0  0  0  0
  3  2  1  0  0  0  0
  3  8  2  0  0  0  0
  4  3  1  0  0  0  0
  5  7  2  0  0  0  0
  5  4  1  0  0  0  0
  6  5  1  0  0  0  0
  7  1  1  0  0  0  0
  9 10  1  0  0  0  0
  9  8  1  0  0  0  0
 11  9  2  0  0  0  0
 12 11  1  0  0  0  0
 13  4  2  0  0  0  0
 13 11  1  0  0  0  0
 14 15  1  0  0  0  0
 16 15  1  0  0  0  0
 17 16  1  0  0  0  0
 18 17  1  0  0  0  0
 18 19  1  0  0  0  0
 19 14  1  0  0  0  0
 20 10  1  0  0  0  0
 21 12  1  0  0  0  0
M  END
>  <CHROM.1>
74.43529773,-59.67426561,-84.92264451,-3.36947649,10.46628151,-0.30841318
-2.70613115,0.81502459,-1.29017489

>  <Name>
lig.pdb

>  <RI>
1.05666e+07

>  <Rbt.Current_Directory>
/home/itssahil/PROJECTS/Mol_Feturizer/New_Systems/rnas/2lwk

>  <Rbt.Executable>
rbdock ($Id: //depot/dev/client3/rdock/2013.1/src/exe/rbdock.cxx#4 $)

>  <Rbt.Library>
libRbt.so (2013.1, Build901 2013/11/27)

>  <Rbt.Parameter_File>
/export/apps/rDock/src/rDock_2013.1_src/data/scripts/dock_solv.prm

>  <Rbt.Receptor>
prm/blind_docking_80.prm

>  <SCORE>
-12.0108

>  <SCORE.INTER>
-10.0201

>  <SCORE.INTER.CONST>
1

>  <SCORE.INTER.POLAR>
-1.14271

>  <SCORE.INTER.ROT>
3

>  <SCORE.INTER.SOLV>
11.493

>  <SCORE.INTER.VDW>
-12.302

>  <SCORE.INTER.norm>
-0.477147

>  <SCORE.INTRA>
-4.05828

>  <SCORE.INTRA.DIHEDRAL>
-0.998425

>  <SCORE.INTRA.DIHEDRAL.0>
8.84257

>  <SCORE.INTRA.POLAR>
0

>  <SCORE.INTRA.POLAR.0>
0

>  <SCORE.INTRA.REPUL>
0

>  <SCORE.INTRA.REPUL.0>
0

>  <SCORE.INTRA.SOLV>
0.062231

>  <SCORE.INTRA.SOLV.lig_0>
-17.1313

>  <SCORE.INTRA.VDW>
-3.59019

>  <SCORE.INTRA.VDW.0>
6.34071

>  <SCORE.INTRA.norm>
-0.193252

>  <SCORE.RESTR>
2.06761

>  <SCORE.RESTR.CAVITY>
2.06761

>  <SCORE.RESTR.norm>
0.0984577

>  <SCORE.SYSTEM>
0

>  <SCORE.SYSTEM.CONST>
0

>  <SCORE.SYSTEM.DIHEDRAL>
0

>  <SCORE.SYSTEM.SOLV>
0

>  <SCORE.SYSTEM.norm>
0

>  <SCORE.heavy>
21

>  <SCORE.norm>
-0.571941

>  <RMSD>
13.429

$$$$
lig.pdb
 OpenBabel11021811453D
libRbt.so/2013.1/901 2013/11/27
 21 23  0  0  0  0  0  0  0  0999 V2000
   -4.1852   11.0202    1.4405 C   0  0  0  0  0  0  0  0  0  0  0  0
   -4.0312   11.1554    0.1282 N   0  0  0  0  0  0  0  0  0  0  0  0
   -3.1625   10.3971   -0.5162 C   0  0  0  0  0  0  0  0  0  0  0  0
   -2.3841    9.5356    0.1695 C   0  0  0  0  0  0  0  0  0  0  0  0
   -2.5449    9.3995    1.4925 C   0  0  0  0  0  0  0  0  0  0  0  0
   -1.7765    8.5544    2.1789 N   0  0  0  0  0  0  0  0  0  0  0  0
   -3.4450   10.1462    2.1238 N   0  0  0  0  0  0  0  0  0  0  0  0
   -3.0295   10.5235   -1.8471 C   0  0  0  0  0  0  0  0  0  0  0  0
   -2.0084    9.8678   -2.4793 C   0  0  0  0  0  0  0  0  0  0  0  0
   -1.3292   10.5517   -3.5157 O   0  0  0  0  0  0  0  0  0  0  0  0
   -1.3794    8.8800   -1.8215 C   0  0  0  0  0  0  0  0  0  0  0  0
   -0.6685    7.8896   -2.5509 O   0  0  0  0  0  0  0  0  0  0  0  0
   -1.4873    8.7820   -0.4820 C   0  0  0  0  0  0  0  0  0  0  0  0
   -5.0690   11.7728    2.0726 N   0  0  0  0  0  0  0  0  0  0  0  0
   -6.3550   11.4519    1.9009 C   0  0  0  0  0  0  0  0  0  0  0  0
   -6.8511   11.9825    0.5644 C   0  0  0  0  0  0  0  0  0  0  0  0
   -6.7379   13.3571    0.5408 N   0  0  0  0  0  0  0  0  0  0  0  0
   -5.4003   13.6577    0.6783 C   0  0  0  0  0  0  0  0  0  0  0  0
   -4.9029   13.1330    2.0149 C   0  0  0  0  0  0  0  0  0  0  0  0
   -2.2701   10.8979   -4.4996 C   0  0  0  0  0  0  0  0  0  0  0  0
   -1.5747    6.9051   -2.9749 C   0  0  0  0  0  0  0  0  0  0  0  0
  1 14  1  0  0  0  0
  1  2  2  0  0  0  0
  3  2  1  0  0  0  0
  3  8  2  0  0  0  0
  4  3  1  0  0  0  0
  5  7  2  0  0  0  0
  5  4  1  0  0  0  0
  6  5  1  0  0  0  0
  7  1  1  0  0  0  0
  9 10  1  0  0  0  0
  9  8  1  0  0  0  0
 11  9  2  0  0  0  0
 12 11  1  0  0  0  0
 13  4  2  0  0  0  0
 13 11  1  0  0  0  0
 14 15  1  0  0  0  0
 16 15  1  0  0  0  0
 17 16  1  0  0  0  0
 18 17  1  0  0  0  0
 18 19  1  0  0  0  0
 19 14  1  0  0  0  0
 20 10  1  0  0  0  0
 21 12  1  0  0  0  0
M  END
>  <CHROM.1>
74.36732100,-58.58678798,-83.47335610,-3.35916142,10.46939394,-0.28804308
-2.72102204,0.81593009,-1.27993261

>  <Name>
lig.pdb

>  <RI>
3.07369e+07

>  <Rbt.Current_Directory>
/home/itssahil/PROJECTS/Mol_Feturizer/New_Systems/rnas/2lwk

>  <Rbt.Executable>
rbdock ($Id: //depot/dev/client3/rdock/2013.1/src/exe/rbdock.cxx#4 $)

>  <Rbt.Library>
libRbt.so (2013.1, Build901 2013/11/27)

>  <Rbt.Parameter_File>
/export/apps/rDock/src/rDock_2013.1_src/data/scripts/dock_solv.prm

>  <Rbt.Receptor>
prm/blind_docking_100.prm

>  <SCORE>
-11.9869

>  <SCORE.INTER>
-10.087

>  <SCORE.INTER.CONST>
1

>  <SCORE.INTER.POLAR>
-1.20749

>  <SCORE.INTER.ROT>
3

>  <SCORE.INTER.SOLV>
11.5391

>  <SCORE.INTER.VDW>
-12.1461

>  <SCORE.INTER.norm>
-0.480333

>  <SCORE.INTRA>
-3.96086

>  <SCORE.INTRA.DIHEDRAL>
-1.09731

>  <SCORE.INTRA.DIHEDRAL.0>
8.84257

>  <SCORE.INTRA.POLAR>
0

>  <SCORE.INTRA.POLAR.0>
0

>  <SCORE.INTRA.REPUL>
0

>  <SCORE.INTRA.REPUL.0>
0

>  <SCORE.INTRA.SOLV>
0.062421

>  <SCORE.INTRA.SOLV.lig_0>
-17.1313

>  <SCORE.INTRA.VDW>
-3.44342

>  <SCORE.INTRA.VDW.0>
6.34071

>  <SCORE.INTRA.norm>
-0.188613

>  <SCORE.RESTR>
2.06099

>  <SCORE.RESTR.CAVITY>
2.06099

>  <SCORE.RESTR.norm>
0.0981424

>  <SCORE.SYSTEM>
0

>  <SCORE.SYSTEM.CONST>
0

>  <SCORE.SYSTEM.DIHEDRAL>
0

>  <SCORE.SYSTEM.SOLV>
0

>  <SCORE.SYSTEM.norm>
0

>  <SCORE.heavy>
21

>  <SCORE.norm>
-0.570803

>  <RMSD>
13.430

$$$$
lig.pdb
 OpenBabel11021811453D
libRbt.so/2013.1/901 2013/11/27
 21 23  0  0  0  0  0  0  0  0999 V2000
   -4.1715   11.0096    1.4332 C   0  0  0  0  0  0  0  0  0  0  0  0
   -4.0336   11.1492    0.1195 N   0  0  0  0  0  0  0  0  0  0  0  0
   -3.1714   10.3945   -0.5377 C   0  0  0  0  0  0  0  0  0  0  0  0
   -2.3833    9.5323    0.1359 C   0  0  0  0  0  0  0  0  0  0  0  0
   -2.5278    9.3917    1.4603 C   0  0  0  0  0  0  0  0  0  0  0  0
   -1.7498    8.5458    2.1347 N   0  0  0  0  0  0  0  0  0  0  0  0
   -3.4215   10.1348    2.1048 N   0  0  0  0  0  0  0  0  0  0  0  0
   -3.0546   10.5253   -1.8696 C   0  0  0  0  0  0  0  0  0  0  0  0
   -2.0401    9.8735   -2.5162 C   0  0  0  0  0  0  0  0  0  0  0  0
   -1.3746   10.5618   -3.5585 O   0  0  0  0  0  0  0  0  0  0  0  0
   -1.4015    8.8847   -1.8691 C   0  0  0  0  0  0  0  0  0  0  0  0
   -0.6977    7.8979   -2.6102 O   0  0  0  0  0  0  0  0  0  0  0  0
   -1.4931    8.7822   -0.5287 C   0  0  0  0  0  0  0  0  0  0  0  0
   -5.0490   11.7586    2.0783 N   0  0  0  0  0  0  0  0  0  0  0  0
   -6.3372   11.4467    1.9074 C   0  0  0  0  0  0  0  0  0  0  0  0
   -6.8355   11.9971    0.5797 C   0  0  0  0  0  0  0  0  0  0  0  0
   -6.7151   13.3713    0.5734 N   0  0  0  0  0  0  0  0  0  0  0  0
   -5.3754   13.6630    0.7097 C   0  0  0  0  0  0  0  0  0  0  0  0
   -4.8758   13.1185    2.0375 C   0  0  0  0  0  0  0  0  0  0  0  0
   -2.3245   10.8916   -4.5394 C   0  0  0  0  0  0  0  0  0  0  0  0
   -1.6034    6.9020   -3.0079 C   0  0  0  0  0  0  0  0  0  0  0  0
  1 14  1  0  0  0  0
  1  2  2  0  0  0  0
  3  2  1  0  0  0  0
  3  8  2  0  0  0  0
  4  3  1  0  0  0  0
  5  7  2  0  0  0  0
  5  4  1  0  0  0  0
  6  5  1  0  0  0  0
  7  1  1  0  0  0  0
  9 10  1  0  0  0  0
  9  8  1  0  0  0  0
 11  9  2  0  0  0  0
 12 11  1  0  0  0  0
 13  4  2  0  0  0  0
 13 11  1  0  0  0  0
 14 15  1  0  0  0  0
 16 15  1  0  0  0  0
 17 16  1  0  0  0  0
 18 17  1  0  0  0  0
 18 19  1  0  0  0  0
 19 14  1  0  0  0  0
 20 10  1  0  0  0  0
 21 12  1  0  0  0  0
M  END
>  <CHROM.1>
73.53129954,-59.46444268,-84.41518609,-3.36145276,10.46815486,-0.30616482
-2.70481471,0.82085571,-1.28919608

>  <Name>
lig.pdb

>  <RI>
4.07847e+07

>  <Rbt.Current_Directory>
/home/itssahil/PROJECTS/Mol_Feturizer/New_Systems/rnas/2lwk

>  <Rbt.Executable>
rbdock ($Id: //depot/dev/client3/rdock/2013.1/src/exe/rbdock.cxx#4 $)

>  <Rbt.Library>
libRbt.so (2013.1, Build901 2013/11/27)

>  <Rbt.Parameter_File>
/export/apps/rDock/src/rDock_2013.1_src/data/scripts/dock_solv.prm

>  <Rbt.Receptor>
prm/blind_docking_20.prm

>  <SCORE>
-11.7923

>  <SCORE.INTER>
-9.75451

>  <SCORE.INTER.CONST>
1

>  <SCORE.INTER.POLAR>
-1.14573

>  <SCORE.INTER.ROT>
3

>  <SCORE.INTER.SOLV>
11.5213

>  <SCORE.INTER.VDW>
-12.1244

>  <SCORE.INTER.norm>
-0.4645

>  <SCORE.INTRA>
-4.04675

>  <SCORE.INTRA.DIHEDRAL>
-1.0189

>  <SCORE.INTRA.DIHEDRAL.0>
8.84257

>  <SCORE.INTRA.POLAR>
0

>  <SCORE.INTRA.POLAR.0>
0

>  <SCORE.INTRA.REPUL>
0

>  <SCORE.INTRA.REPUL.0>
0

>  <SCORE.INTRA.SOLV>
0.0628226

>  <SCORE.INTRA.SOLV.lig_0>
-17.1313

>  <SCORE.INTRA.VDW>
-3.56871

>  <SCORE.INTRA.VDW.0>
6.34071

>  <SCORE.INTRA.norm>
-0.192702

>  <SCORE.RESTR>
2.00895

>  <SCORE.RESTR.CAVITY>
2.00895

>  <SCORE.RESTR.norm>
0.0956644

>  <SCORE.SYSTEM>
0

>  <SCORE.SYSTEM.CONST>
0

>  <SCORE.SYSTEM.DIHEDRAL>
0

>  <SCORE.SYSTEM.SOLV>
0

>  <SCORE.SYSTEM.norm>
0

>  <SCORE.heavy>
21

>  <SCORE.norm>
-0.561538

>  <RMSD>
13.430

$$$$
lig.pdb
 OpenBabel11021811453D
libRbt.so/2013.1/901 2013/11/27
 21 23  0  0  0  0  0  0  0  0999 V2000
   -4.1787   11.0196    1.4278 C   0  0  0  0  0  0  0  0  0  0  0  0
   -4.0353   11.1550    0.1142 N   0  0  0  0  0  0  0  0  0  0  0  0
   -3.1714   10.3974   -0.5372 C   0  0  0  0  0  0  0  0  0  0  0  0
   -2.3869    9.5365    0.1421 C   0  0  0  0  0  0  0  0  0  0  0  0
   -2.5369    9.4000    1.4664 C   0  0  0  0  0  0  0  0  0  0  0  0
   -1.7625    8.5554    2.1465 N   0  0  0  0  0  0  0  0  0  0  0  0
   -3.4324   10.1460    2.1050 N   0  0  0  0  0  0  0  0  0  0  0  0
   -3.0491   10.5241   -1.8690 C   0  0  0  0  0  0  0  0  0  0  0  0
   -2.0327    9.8692   -2.5096 C   0  0  0  0  0  0  0  0  0  0  0  0
   -1.3623   10.5537   -3.5513 O   0  0  0  0  0  0  0  0  0  0  0  0
   -1.3977    8.8818   -1.8570 C   0  0  0  0  0  0  0  0  0  0  0  0
   -0.6921    7.8920   -2.5922 O   0  0  0  0  0  0  0  0  0  0  0  0
   -1.4948    8.7835   -0.5166 C   0  0  0  0  0  0  0  0  0  0  0  0
   -5.0579   11.7716    2.0671 N   0  0  0  0  0  0  0  0  0  0  0  0
   -6.3448   11.4478    1.9082 C   0  0  0  0  0  0  0  0  0  0  0  0
   -6.8547   11.9752    0.5756 C   0  0  0  0  0  0  0  0  0  0  0  0
   -6.7445   13.3501    0.5487 N   0  0  0  0  0  0  0  0  0  0  0  0
   -5.4062   13.6535    0.6729 C   0  0  0  0  0  0  0  0  0  0  0  0
   -4.8950   13.1319    2.0056 C   0  0  0  0  0  0  0  0  0  0  0  0
   -2.3101   10.8926   -4.5311 C   0  0  0  0  0  0  0  0  0  0  0  0
   -1.5998    6.9033   -3.0032 C   0  0  0  0  0  0  0  0  0  0  0  0
  1 14  1  0  0  0  0
  1  2  2  0  0  0  0
  3  2  1  0  0  0  0
  3  8  2  0  0  0  0
  4  3  1  0  0  0  0
  5  7  2  0  0  0  0
  5  4  1  0  0  0  0
  6  5  1  0  0  0  0
  7  1  1  0  0  0  0
  9 10  1  0  0  0  0
  9  8  1  0  0  0  0
 11  9  2  0  0  0  0
 12 11  1  0  0  0  0
 13  4  2  0  0  0  0
 13 11  1  0  0  0  0
 14 15  1  0  0  0  0
 16 15  1  0  0  0  0
 17 16  1  0  0  0  0
 18 17  1  0  0  0  0
 18 19  1  0  0  0  0
 19 14  1  0  0  0  0
 20 10  1  0  0  0  0
 21 12  1  0  0  0  0
M  END
>  <CHROM.1>
74.51877476,-58.91828245,-83.76940688,-3.36672139,10.46835280,-0.30735550
-2.70927662,0.81701941,-1.28850007

>  <Name>
lig.pdb

>  <RI>
1.99026e+07

>  <Rbt.Current_Directory>
/home/itssahil/PROJECTS/Mol_Feturizer/New_Systems/rnas/2lwk

>  <Rbt.Executable>
rbdock ($Id: //depot/dev/client3/rdock/2013.1/src/exe/rbdock.cxx#4 $)

>  <Rbt.Library>
libRbt.so (2013.1, Build901 2013/11/27)

>  <Rbt.Parameter_File>
/export/apps/rDock/src/rDock_2013.1_src/data/scripts/dock_solv.prm

>  <Rbt.Receptor>
prm/blind_docking_60.prm

>  <SCORE>
-11.9657

>  <SCORE.INTER>
-10.0302

>  <SCORE.INTER.CONST>
1

>  <SCORE.INTER.POLAR>
-1.1524

>  <SCORE.INTER.ROT>
3

>  <SCORE.INTER.SOLV>
11.4946

>  <SCORE.INTER.VDW>
-12.277

>  <SCORE.INTER.norm>
-0.477629

>  <SCORE.INTRA>
-3.99158

>  <SCORE.INTRA.DIHEDRAL>
-1.06834

>  <SCORE.INTRA.DIHEDRAL.0>
8.84257

>  <SCORE.INTRA.POLAR>
0

>  <SCORE.INTRA.POLAR.0>
0

>  <SCORE.INTRA.REPUL>
0

>  <SCORE.INTRA.REPUL.0>
0

>  <SCORE.INTRA.SOLV>
0.0623918

>  <SCORE.INTRA.SOLV.lig_0>
-17.1313

>  <SCORE.INTRA.VDW>
-3.4886

>  <SCORE.INTRA.VDW.0>
6.34071

>  <SCORE.INTRA.norm>
-0.190075

>  <SCORE.RESTR>
2.05607

>  <SCORE.RESTR.CAVITY>
2.05607

>  <SCORE.RESTR.norm>
0.0979079

>  <SCORE.SYSTEM>
0

>  <SCORE.SYSTEM.CONST>
0

>  <SCORE.SYSTEM.DIHEDRAL>
0

>  <SCORE.SYSTEM.SOLV>
0

>  <SCORE.SYSTEM.norm>
0

>  <SCORE.heavy>
21

>  <SCORE.norm>
-0.569797

>  <RMSD>
13.430

$$$$
lig.pdb
 OpenBabel11021811453D
libRbt.so/2013.1/901 2013/11/27
 21 23  0  0  0  0  0  0  0  0999 V2000
   -4.1516   11.0026    1.4382 C   0  0  0  0  0  0  0  0  0  0  0  0
   -4.0049   11.1448    0.1258 N   0  0  0  0  0  0  0  0  0  0  0  0
   -3.1418   10.3881   -0.5279 C   0  0  0  0  0  0  0  0  0  0  0  0
   -2.3614    9.5211    0.1484 C   0  0  0  0  0  0  0  0  0  0  0  0
   -2.5148    9.3779    1.4716 C   0  0  0  0  0  0  0  0  0  0  0  0
   -1.7445    8.5272    2.1488 N   0  0  0  0  0  0  0  0  0  0  0  0
   -3.4095   10.1231    2.1123 N   0  0  0  0  0  0  0  0  0  0  0  0
   -3.0161   10.5217   -1.8587 C   0  0  0  0  0  0  0  0  0  0  0  0
   -2.0003    9.8672   -2.5006 C   0  0  0  0  0  0  0  0  0  0  0  0
   -1.3255   10.5553   -3.5371 O   0  0  0  0  0  0  0  0  0  0  0  0
   -1.3698    8.8742   -1.8520 C   0  0  0  0  0  0  0  0  0  0  0  0
   -0.6655    7.8863   -2.5910 O   0  0  0  0  0  0  0  0  0  0  0  0
   -1.4702    8.7690   -0.5124 C   0  0  0  0  0  0  0  0  0  0  0  0
   -5.0300   11.7537    2.0797 N   0  0  0  0  0  0  0  0  0  0  0  0
   -6.3179   11.4393    1.9103 C   0  0  0  0  0  0  0  0  0  0  0  0
   -6.8169   11.9824    0.5799 C   0  0  0  0  0  0  0  0  0  0  0  0
   -6.6983   13.3568    0.5668 N   0  0  0  0  0  0  0  0  0  0  0  0
   -5.3590   13.6509    0.7016 C   0  0  0  0  0  0  0  0  0  0  0  0
   -4.8586   13.1136    2.0320 C   0  0  0  0  0  0  0  0  0  0  0  0
   -2.2681   10.8928   -4.5223 C   0  0  0  0  0  0  0  0  0  0  0  0
   -1.5756    6.9038   -3.0111 C   0  0  0  0  0  0  0  0  0  0  0  0
  1 14  1  0  0  0  0
  1  2  2  0  0  0  0
  3  2  1  0  0  0  0
  3  8  2  0  0  0  0
  4  3  1  0  0  0  0
  5  7  2  0  0  0  0
  5  4  1  0  0  0  0
  6  5  1  0  0  0  0
  7  1  1  0  0  0  0
  9 10  1  0  0  0  0
  9  8  1  0  0  0  0
 11  9  2  0  0  0  0
 12 11  1  0  0  0  0
 13  4  2  0  0  0  0
 13 11  1  0  0  0  0
 14 15  1  0  0  0  0
 16 15  1  0  0  0  0
 17 16  1  0  0  0  0
 18 17  1  0  0  0  0
 18 19  1  0  0  0  0
 19 14  1  0  0  0  0
 20 10  1  0  0  0  0
 21 12  1  0  0  0  0
M  END
>  <CHROM.1>
74.16798284,-59.39243718,-83.68287026,-3.33584682,10.45956370,-0.29834020
-2.71325066,0.82044646,-1.28036090

>  <Name>
lig.pdb

>  <RI>
3.07369e+07

>  <Rbt.Current_Directory>
/home/itssahil/PROJECTS/Mol_Feturizer/New_Systems/rnas/2lwk

>  <Rbt.Executable>
rbdock ($Id: //depot/dev/client3/rdock/2013.1/src/exe/rbdock.cxx#4 $)

>  <Rbt.Library>
libRbt.so (2013.1, Build901 2013/11/27)

>  <Rbt.Parameter_File>
/export/apps/rDock/src/rDock_2013.1_src/data/scripts/dock_solv.prm

>  <Rbt.Receptor>
prm/blind_docking_100.prm

>  <SCORE>
-11.5924

>  <SCORE.INTER>
-9.51845

>  <SCORE.INTER.CONST>
1

>  <SCORE.INTER.POLAR>
-1.17558

>  <SCORE.INTER.ROT>
3

>  <SCORE.INTER.SOLV>
11.6507

>  <SCORE.INTER.VDW>
-11.9106

>  <SCORE.INTER.norm>
-0.45326

>  <SCORE.INTRA>
-4.04137

>  <SCORE.INTRA.DIHEDRAL>
-1.03317

>  <SCORE.INTRA.DIHEDRAL.0>
8.84257

>  <SCORE.INTRA.POLAR>
0

>  <SCORE.INTRA.POLAR.0>
0

>  <SCORE.INTRA.REPUL>
0

>  <SCORE.INTRA.REPUL.0>
0

>  <SCORE.INTRA.SOLV>
0.0629618

>  <SCORE.INTRA.SOLV.lig_0>
-17.1313

>  <SCORE.INTRA.VDW>
-3.55627

>  <SCORE.INTRA.VDW.0>
6.34071

>  <SCORE.INTRA.norm>
-0.192446

>  <SCORE.RESTR>
1.96741

>  <SCORE.RESTR.CAVITY>
1.96741

>  <SCORE.RESTR.norm>
0.0936861

>  <SCORE.SYSTEM>
0

>  <SCORE.SYSTEM.CONST>
0

>  <SCORE.SYSTEM.DIHEDRAL>
0

>  <SCORE.SYSTEM.SOLV>
0

>  <SCORE.SYSTEM.norm>
0

>  <SCORE.heavy>
21

>  <SCORE.norm>
-0.55202

>  <RMSD>
13.431

$$$$
lig.pdb
 OpenBabel11021811453D
libRbt.so/2013.1/901 2013/11/27
 21 23  0  0  0  0  0  0  0  0999 V2000
   -4.1671   11.0150    1.4376 C   0  0  0  0  0  0  0  0  0  0  0  0
   -4.0053   11.1516    0.1263 N   0  0  0  0  0  0  0  0  0  0  0  0
   -3.1376   10.3894   -0.5148 C   0  0  0  0  0  0  0  0  0  0  0  0
   -2.3679    9.5222    0.1735 C   0  0  0  0  0  0  0  0  0  0  0  0
   -2.5365    9.3847    1.4954 C   0  0  0  0  0  0  0  0  0  0  0  0
   -1.7768    8.5340    2.1844 N   0  0  0  0  0  0  0  0  0  0  0  0
   -3.4356   10.1355    2.1233 N   0  0  0  0  0  0  0  0  0  0  0  0
   -2.9967   10.5174   -1.8447 C   0  0  0  0  0  0  0  0  0  0  0  0
   -1.9761    9.8569   -2.4727 C   0  0  0  0  0  0  0  0  0  0  0  0
   -1.2874   10.5386   -3.5042 O   0  0  0  0  0  0  0  0  0  0  0  0
   -1.3564    8.8643   -1.8133 C   0  0  0  0  0  0  0  0  0  0  0  0
   -0.6474    7.8710   -2.5406 O   0  0  0  0  0  0  0  0  0  0  0  0
   -1.4721    8.7645   -0.4745 C   0  0  0  0  0  0  0  0  0  0  0  0
   -5.0500   11.7717    2.0663 N   0  0  0  0  0  0  0  0  0  0  0  0
   -6.3366   11.4546    1.8923 C   0  0  0  0  0  0  0  0  0  0  0  0
   -6.8279   11.9843    0.5536 C   0  0  0  0  0  0  0  0  0  0  0  0
   -6.7102   13.3585    0.5278 N   0  0  0  0  0  0  0  0  0  0  0  0
   -5.3720   13.6550    0.6678 C   0  0  0  0  0  0  0  0  0  0  0  0
   -4.8793   13.1311    2.0064 C   0  0  0  0  0  0  0  0  0  0  0  0
   -2.2247   10.9121   -4.4815 C   0  0  0  0  0  0  0  0  0  0  0  0
   -1.5589    6.8991   -2.9820 C   0  0  0  0  0  0  0  0  0  0  0  0
  1 14  1  0  0  0  0
  1  2  2  0  0  0  0
  3  2  1  0  0  0  0
  3  8  2  0  0  0  0
  4  3  1  0  0  0  0
  5  7  2  0  0  0  0
  5  4  1  0  0  0  0
  6  5  1  0  0  0  0
  7  1  1  0  0  0  0
  9 10  1  0  0  0  0
  9  8  1  0  0  0  0
 11  9  2  0  0  0  0
 12 11  1  0  0  0  0
 13  4  2  0  0  0  0
 13 11  1  0  0  0  0
 14 15  1  0  0  0  0
 16 15  1  0  0  0  0
 17 16  1  0  0  0  0
 18 17  1  0  0  0  0
 18 19  1  0  0  0  0
 19 14  1  0  0  0  0
 20 10  1  0  0  0  0
 21 12  1  0  0  0  0
M  END
>  <CHROM.1>
74.67763523,-57.59204321,-82.92243944,-3.33668350,10.46237886,-0.28763841
-2.73112622,0.81881427,-1.27030575

>  <Name>
lig.pdb

>  <RI>
1.99026e+07

>  <Rbt.Current_Directory>
/home/itssahil/PROJECTS/Mol_Feturizer/New_Systems/rnas/2lwk

>  <Rbt.Executable>
rbdock ($Id: //depot/dev/client3/rdock/2013.1/src/exe/rbdock.cxx#4 $)

>  <Rbt.Library>
libRbt.so (2013.1, Build901 2013/11/27)

>  <Rbt.Parameter_File>
/export/apps/rDock/src/rDock_2013.1_src/data/scripts/dock_solv.prm

>  <Rbt.Receptor>
prm/blind_docking_60.prm

>  <SCORE>
-11.7884

>  <SCORE.INTER>
-9.94464

>  <SCORE.INTER.CONST>
1

>  <SCORE.INTER.POLAR>
-1.23153

>  <SCORE.INTER.ROT>
3

>  <SCORE.INTER.SOLV>
11.6104

>  <SCORE.INTER.VDW>
-11.9948

>  <SCORE.INTER.norm>
-0.473554

>  <SCORE.INTRA>
-3.858

>  <SCORE.INTRA.DIHEDRAL>
-1.18104

>  <SCORE.INTRA.DIHEDRAL.0>
8.84257

>  <SCORE.INTRA.POLAR>
0

>  <SCORE.INTRA.POLAR.0>
0

>  <SCORE.INTRA.REPUL>
0

>  <SCORE.INTRA.REPUL.0>
0

>  <SCORE.INTRA.SOLV>
0.0619214

>  <SCORE.INTRA.SOLV.lig_0>
-17.1313

>  <SCORE.INTRA.VDW>
-3.29844

>  <SCORE.INTRA.VDW.0>
6.34071

>  <SCORE.INTRA.norm>
-0.183714

>  <SCORE.RESTR>
2.01422

>  <SCORE.RESTR.CAVITY>
2.01422

>  <SCORE.RESTR.norm>
0.0959151

>  <SCORE.SYSTEM>
0

>  <SCORE.SYSTEM.CONST>
0

>  <SCORE.SYSTEM.DIHEDRAL>
0

>  <SCORE.SYSTEM.SOLV>
0

>  <SCORE.SYSTEM.norm>
0

>  <SCORE.heavy>
21

>  <SCORE.norm>
-0.561353

>  <RMSD>
13.431

$$$$
lig.pdb
 OpenBabel11021811453D
libRbt.so/2013.1/901 2013/11/27
 21 23  0  0  0  0  0  0  0  0999 V2000
   -4.1618   11.0140    1.4526 C   0  0  0  0  0  0  0  0  0  0  0  0
   -4.0080   11.1474    0.1400 N   0  0  0  0  0  0  0  0  0  0  0  0
   -3.1395   10.3881   -0.5035 C   0  0  0  0  0  0  0  0  0  0  0  0
   -2.3610    9.5276    0.1833 C   0  0  0  0  0  0  0  0  0  0  0  0
   -2.5216    9.3933    1.5066 C   0  0  0  0  0  0  0  0  0  0  0  0
   -1.7532    8.5492    2.1941 N   0  0  0  0  0  0  0  0  0  0  0  0
   -3.4215   10.1409    2.1370 N   0  0  0  0  0  0  0  0  0  0  0  0
   -3.0066   10.5127   -1.8345 C   0  0  0  0  0  0  0  0  0  0  0  0
   -1.9857    9.8560   -2.4660 C   0  0  0  0  0  0  0  0  0  0  0  0
   -1.3066   10.5384   -3.5034 O   0  0  0  0  0  0  0  0  0  0  0  0
   -1.3566    8.8691   -1.8069 C   0  0  0  0  0  0  0  0  0  0  0  0
   -0.6459    7.8777   -2.5350 O   0  0  0  0  0  0  0  0  0  0  0  0
   -1.4644    8.7729   -0.4672 C   0  0  0  0  0  0  0  0  0  0  0  0
   -5.0455   11.7676    2.0838 N   0  0  0  0  0  0  0  0  0  0  0  0
   -6.3321   11.4550    1.9017 C   0  0  0  0  0  0  0  0  0  0  0  0
   -6.8166   11.9968    0.5654 C   0  0  0  0  0  0  0  0  0  0  0  0
   -6.6956   13.3709    0.5514 N   0  0  0  0  0  0  0  0  0  0  0  0
   -5.3573   13.6631    0.6994 C   0  0  0  0  0  0  0  0  0  0  0  0
   -4.8714   13.1271    2.0358 C   0  0  0  0  0  0  0  0  0  0  0  0
   -2.2491   10.8910   -4.4835 C   0  0  0  0  0  0  0  0  0  0  0  0
   -1.5589    6.9166   -2.9966 C   0  0  0  0  0  0  0  0  0  0  0  0
  1 14  1  0  0  0  0
  1  2  2  0  0  0  0
  3  2  1  0  0  0  0
  3  8  2  0  0  0  0
  4  3  1  0  0  0  0
  5  7  2  0  0  0  0
  5  4  1  0  0  0  0
  6  5  1  0  0  0  0
  7  1  1  0  0  0  0
  9 10  1  0  0  0  0
  9  8  1  0  0  0  0
 11  9  2  0  0  0  0
 12 11  1  0  0  0  0
 13  4  2  0  0  0  0
 13 11  1  0  0  0  0
 14 15  1  0  0  0  0
 16 15  1  0  0  0  0
 17 16  1  0  0  0  0
 18 17  1  0  0  0  0
 18 19  1  0  0  0  0
 19 14  1  0  0  0  0
 20 10  1  0  0  0  0
 21 12  1  0  0  0  0
M  END
>  <CHROM.1>
73.70416035,-58.20488864,-81.47366099,-3.33366953,10.46554034,-0.27692896
-2.71869207,0.81778418,-1.28272379

>  <Name>
lig.pdb

>  <RI>
1.99026e+07

>  <Rbt.Current_Directory>
/home/itssahil/PROJECTS/Mol_Feturizer/New_Systems/rnas/2lwk

>  <Rbt.Executable>
rbdock ($Id: //depot/dev/client3/rdock/2013.1/src/exe/rbdock.cxx#4 $)

>  <Rbt.Library>
libRbt.so (2013.1, Build901 2013/11/27)

>  <Rbt.Parameter_File>
/export/apps/rDock/src/rDock_2013.1_src/data/scripts/dock_solv.prm

>  <Rbt.Receptor>
prm/blind_docking_60.prm

>  <SCORE>
-11.7229

>  <SCORE.INTER>
-9.78167

>  <SCORE.INTER.CONST>
1

>  <SCORE.INTER.POLAR>
-1.21612

>  <SCORE.INTER.ROT>
3

>  <SCORE.INTER.SOLV>
11.6912

>  <SCORE.INTER.VDW>
-11.9645

>  <SCORE.INTER.norm>
-0.465794

>  <SCORE.INTRA>
-3.93538

>  <SCORE.INTRA.DIHEDRAL>
-1.15831

>  <SCORE.INTRA.DIHEDRAL.0>
8.84257

>  <SCORE.INTRA.POLAR>
0

>  <SCORE.INTRA.POLAR.0>
0

>  <SCORE.INTRA.REPUL>
0

>  <SCORE.INTRA.REPUL.0>
0

>  <SCORE.INTRA.SOLV>
0.0637966

>  <SCORE.INTRA.SOLV.lig_0>
-17.1313

>  <SCORE.INTRA.VDW>
-3.38812

>  <SCORE.INTRA.VDW.0>
6.34071

>  <SCORE.INTRA.norm>
-0.187399

>  <SCORE.RESTR>
1.99412

>  <SCORE.RESTR.CAVITY>
1.99412

>  <SCORE.RESTR.norm>
0.094958

>  <SCORE.SYSTEM>
0

>  <SCORE.SYSTEM.CONST>
0

>  <SCORE.SYSTEM.DIHEDRAL>
0

>  <SCORE.SYSTEM.SOLV>
0

>  <SCORE.SYSTEM.norm>
0

>  <SCORE.heavy>
21

>  <SCORE.norm>
-0.558235

>  <RMSD>
13.431

$$$$
lig.pdb
 OpenBabel11021811453D
libRbt.so/2013.1/901 2013/11/27
 21 23  0  0  0  0  0  0  0  0999 V2000
   -4.1829   11.0205    1.4193 C   0  0  0  0  0  0  0  0  0  0  0  0
   -4.0418   11.1545    0.1054 N   0  0  0  0  0  0  0  0  0  0  0  0
   -3.1783   10.3968   -0.5466 C   0  0  0  0  0  0  0  0  0  0  0  0
   -2.3921    9.5371    0.1325 C   0  0  0  0  0  0  0  0  0  0  0  0
   -2.5400    9.4020    1.4572 C   0  0  0  0  0  0  0  0  0  0  0  0
   -1.7639    8.5587    2.1370 N   0  0  0  0  0  0  0  0  0  0  0  0
   -3.4350   10.1481    2.0964 N   0  0  0  0  0  0  0  0  0  0  0  0
   -3.0582   10.5220   -1.8787 C   0  0  0  0  0  0  0  0  0  0  0  0
   -2.0424    9.8671   -2.5201 C   0  0  0  0  0  0  0  0  0  0  0  0
   -1.3741   10.5509   -3.5637 O   0  0  0  0  0  0  0  0  0  0  0  0
   -1.4057    8.8808   -1.8674 C   0  0  0  0  0  0  0  0  0  0  0  0
   -0.7005    7.8907   -2.6026 O   0  0  0  0  0  0  0  0  0  0  0  0
   -1.5006    8.7840   -0.5268 C   0  0  0  0  0  0  0  0  0  0  0  0
   -5.0617   11.7725    2.0592 N   0  0  0  0  0  0  0  0  0  0  0  0
   -6.3489   11.4507    1.8987 C   0  0  0  0  0  0  0  0  0  0  0  0
   -6.8570   11.9810    0.5665 C   0  0  0  0  0  0  0  0  0  0  0  0
   -6.7450   13.3557    0.5420 N   0  0  0  0  0  0  0  0  0  0  0  0
   -5.4064   13.6571    0.6678 C   0  0  0  0  0  0  0  0  0  0  0  0
   -4.8970   13.1327    2.0000 C   0  0  0  0  0  0  0  0  0  0  0  0
   -2.3205   10.8724   -4.5506 C   0  0  0  0  0  0  0  0  0  0  0  0
   -1.6096    6.9052   -3.0181 C   0  0  0  0  0  0  0  0  0  0  0  0
  1 14  1  0  0  0  0
  1  2  2  0  0  0  0
  3  2  1  0  0  0  0
  3  8  2  0  0  0  0
  4  3  1  0  0  0  0
  5  7  2  0  0  0  0
  5  4  1  0  0  0  0
  6  5  1  0  0  0  0
  7  1  1  0  0  0  0
  9 10  1  0  0  0  0
  9  8  1  0  0  0  0
 11  9  2  0  0  0  0
 12 11  1  0  0  0  0
 13  4  2  0  0  0  0
 13 11  1  0  0  0  0
 14 15  1  0  0  0  0
 16 15  1  0  0  0  0
 17 16  1  0  0  0  0
 18 17  1  0  0  0  0
 18 19  1  0  0  0  0
 19 14  1  0  0  0  0
 20 10  1  0  0  0  0
 21 12  1  0  0  0  0
M  END
>  <CHROM.1>
74.28155706,-59.68827361,-83.41214733,-3.37223248,10.46831891,-0.31720041
-2.70525150,0.81734037,-1.29282637

>  <Name>
lig.pdb

>  <RI>
1.99026e+07

>  <Rbt.Current_Directory>
/home/itssahil/PROJECTS/Mol_Feturizer/New_Systems/rnas/2lwk

>  <Rbt.Executable>
rbdock ($Id: //depot/dev/client3/rdock/2013.1/src/exe/rbdock.cxx#4 $)

>  <Rbt.Library>
libRbt.so (2013.1, Build901 2013/11/27)

>  <Rbt.Parameter_File>
/export/apps/rDock/src/rDock_2013.1_src/data/scripts/dock_solv.prm

>  <Rbt.Receptor>
prm/blind_docking_60.prm

>  <SCORE>
-12.0077

>  <SCORE.INTER>
-10.0002

>  <SCORE.INTER.CONST>
1

>  <SCORE.INTER.POLAR>
-1.136

>  <SCORE.INTER.ROT>
3

>  <SCORE.INTER.SOLV>
11.4639

>  <SCORE.INTER.VDW>
-12.3014

>  <SCORE.INTER.norm>
-0.476198

>  <SCORE.INTRA>
-4.07119

>  <SCORE.INTRA.DIHEDRAL>
-1.01427

>  <SCORE.INTRA.DIHEDRAL.0>
8.84257

>  <SCORE.INTRA.POLAR>
0

>  <SCORE.INTRA.POLAR.0>
0

>  <SCORE.INTRA.REPUL>
0

>  <SCORE.INTRA.REPUL.0>
0

>  <SCORE.INTRA.SOLV>
0.0633027

>  <SCORE.INTRA.SOLV.lig_0>
-17.1313

>  <SCORE.INTRA.VDW>
-3.59571

>  <SCORE.INTRA.VDW.0>
6.34071

>  <SCORE.INTRA.norm>
-0.193866

>  <SCORE.RESTR>
2.06361

>  <SCORE.RESTR.CAVITY>
2.06361

>  <SCORE.RESTR.norm>
0.098267

>  <SCORE.SYSTEM>
0

>  <SCORE.SYSTEM.CONST>
0

>  <SCORE.SYSTEM.DIHEDRAL>
0

>  <SCORE.SYSTEM.SOLV>
0

>  <SCORE.SYSTEM.norm>
0

>  <SCORE.heavy>
21

>  <SCORE.norm>
-0.571797

>  <RMSD>
13.431

$$$$
lig.pdb
 OpenBabel11021811453D
libRbt.so/2013.1/901 2013/11/27
 21 23  0  0  0  0  0  0  0  0999 V2000
   -4.1775   11.0130    1.4277 C   0  0  0  0  0  0  0  0  0  0  0  0
   -4.0398   11.1518    0.1139 N   0  0  0  0  0  0  0  0  0  0  0  0
   -3.1754   10.3991   -0.5426 C   0  0  0  0  0  0  0  0  0  0  0  0
   -2.3849    9.5397    0.1317 C   0  0  0  0  0  0  0  0  0  0  0  0
   -2.5292    9.3998    1.4563 C   0  0  0  0  0  0  0  0  0  0  0  0
   -1.7488    8.5568    2.1315 N   0  0  0  0  0  0  0  0  0  0  0  0
   -3.4251   10.1408    2.1001 N   0  0  0  0  0  0  0  0  0  0  0  0
   -3.0589   10.5292   -1.8746 C   0  0  0  0  0  0  0  0  0  0  0  0
   -2.0424    9.8797   -2.5206 C   0  0  0  0  0  0  0  0  0  0  0  0
   -1.3788   10.5691   -3.5634 O   0  0  0  0  0  0  0  0  0  0  0  0
   -1.4010    8.8933   -1.8726 C   0  0  0  0  0  0  0  0  0  0  0  0
   -0.6943    7.9080   -2.6128 O   0  0  0  0  0  0  0  0  0  0  0  0
   -1.4924    8.7917   -0.5321 C   0  0  0  0  0  0  0  0  0  0  0  0
   -5.0572   11.7600    2.0721 N   0  0  0  0  0  0  0  0  0  0  0  0
   -6.3436   11.4331    1.9154 C   0  0  0  0  0  0  0  0  0  0  0  0
   -6.8585   11.9639    0.5861 C   0  0  0  0  0  0  0  0  0  0  0  0
   -6.7523   13.3392    0.5640 N   0  0  0  0  0  0  0  0  0  0  0  0
   -5.4146   13.6460    0.6858 C   0  0  0  0  0  0  0  0  0  0  0  0
   -4.8984   13.1210    2.0151 C   0  0  0  0  0  0  0  0  0  0  0  0
   -2.3305   10.9000   -4.5422 C   0  0  0  0  0  0  0  0  0  0  0  0
   -1.5942    6.9016   -2.9971 C   0  0  0  0  0  0  0  0  0  0  0  0
  1 14  1  0  0  0  0
  1  2  2  0  0  0  0
  3  2  1  0  0  0  0
  3  8  2  0  0  0  0
  4  3  1  0  0  0  0
  5  7  2  0  0  0  0
  5  4  1  0  0  0  0
  6  5  1  0  0  0  0
  7  1  1  0  0  0  0
  9 10  1  0  0  0  0
  9  8  1  0  0  0  0
 11  9  2  0  0  0  0
 12 11  1  0  0  0  0
 13  4  2  0  0  0  0
 13 11  1  0  0  0  0
 14 15  1  0  0  0  0
 16 15  1  0  0  0  0
 17 16  1  0  0  0  0
 18 17  1  0  0  0  0
 18 19  1  0  0  0  0
 19 14  1  0  0  0  0
 20 10  1  0  0  0  0
 21 12  1  0  0  0  0
M  END
>  <CHROM.1>
74.39324037,-59.23525414,-85.06075757,-3.36927639,10.46819453,-0.31065589
-2.70423312,0.81517450,-1.29027922

>  <Name>
lig.pdb

>  <RI>
1.05666e+07

>  <Rbt.Current_Directory>
/home/itssahil/PROJECTS/Mol_Feturizer/New_Systems/rnas/2lwk

>  <Rbt.Executable>
rbdock ($Id: //depot/dev/client3/rdock/2013.1/src/exe/rbdock.cxx#4 $)

>  <Rbt.Library>
libRbt.so (2013.1, Build901 2013/11/27)

>  <Rbt.Parameter_File>
/export/apps/rDock/src/rDock_2013.1_src/data/scripts/dock_solv.prm

>  <Rbt.Receptor>
prm/blind_docking_80.prm

>  <SCORE>
-11.9818

>  <SCORE.INTER>
-10.0233

>  <SCORE.INTER.CONST>
1

>  <SCORE.INTER.POLAR>
-1.1311

>  <SCORE.INTER.ROT>
3

>  <SCORE.INTER.SOLV>
11.4946

>  <SCORE.INTER.VDW>
-12.3434

>  <SCORE.INTER.norm>
-0.477299

>  <SCORE.INTRA>
-4.01453

>  <SCORE.INTRA.DIHEDRAL>
-1.03056

>  <SCORE.INTRA.DIHEDRAL.0>
8.84257

>  <SCORE.INTRA.POLAR>
0

>  <SCORE.INTRA.POLAR.0>
0

>  <SCORE.INTRA.REPUL>
0

>  <SCORE.INTRA.REPUL.0>
0

>  <SCORE.INTRA.SOLV>
0.0618419

>  <SCORE.INTRA.SOLV.lig_0>
-17.1313

>  <SCORE.INTRA.VDW>
-3.53017

>  <SCORE.INTRA.VDW.0>
6.34071

>  <SCORE.INTRA.norm>
-0.191168

>  <SCORE.RESTR>
2.056

>  <SCORE.RESTR.CAVITY>
2.056

>  <SCORE.RESTR.norm>
0.0979048

>  <SCORE.SYSTEM>
0

>  <SCORE.SYSTEM.CONST>
0

>  <SCORE.SYSTEM.DIHEDRAL>
0

>  <SCORE.SYSTEM.SOLV>
0

>  <SCORE.SYSTEM.norm>
0

>  <SCORE.heavy>
21

>  <SCORE.norm>
-0.570562

>  <RMSD>
13.431

$$$$
lig.pdb
 OpenBabel11021811453D
libRbt.so/2013.1/901 2013/11/27
 21 23  0  0  0  0  0  0  0  0999 V2000
   -4.1553   11.0028    1.4474 C   0  0  0  0  0  0  0  0  0  0  0  0
   -4.0072   11.1454    0.1351 N   0  0  0  0  0  0  0  0  0  0  0  0
   -3.1410   10.3911   -0.5174 C   0  0  0  0  0  0  0  0  0  0  0  0
   -2.3592    9.5262    0.1601 C   0  0  0  0  0  0  0  0  0  0  0  0
   -2.5141    9.3826    1.4830 C   0  0  0  0  0  0  0  0  0  0  0  0
   -1.7424    8.5340    2.1613 N   0  0  0  0  0  0  0  0  0  0  0  0
   -3.4117   10.1253    2.1225 N   0  0  0  0  0  0  0  0  0  0  0  0
   -3.0139   10.5251   -1.8480 C   0  0  0  0  0  0  0  0  0  0  0  0
   -1.9954    9.8734   -2.4885 C   0  0  0  0  0  0  0  0  0  0  0  0
   -1.3210   10.5634   -3.5240 O   0  0  0  0  0  0  0  0  0  0  0  0
   -1.3631    8.8822   -1.8390 C   0  0  0  0  0  0  0  0  0  0  0  0
   -0.6550    7.8963   -2.5771 O   0  0  0  0  0  0  0  0  0  0  0  0
   -1.4650    8.7766   -0.4996 C   0  0  0  0  0  0  0  0  0  0  0  0
   -5.0367   11.7515    2.0876 N   0  0  0  0  0  0  0  0  0  0  0  0
   -6.3234   11.4334    1.9167 C   0  0  0  0  0  0  0  0  0  0  0  0
   -6.8223   11.9750    0.5856 C   0  0  0  0  0  0  0  0  0  0  0  0
   -6.7076   13.3496    0.5725 N   0  0  0  0  0  0  0  0  0  0  0  0
   -5.3693   13.6476    0.7089 C   0  0  0  0  0  0  0  0  0  0  0  0
   -4.8691   13.1118    2.0401 C   0  0  0  0  0  0  0  0  0  0  0  0
   -2.2636   10.9003   -4.5095 C   0  0  0  0  0  0  0  0  0  0  0  0
   -1.5576    6.8988   -2.9779 C   0  0  0  0  0  0  0  0  0  0  0  0
  1 14  1  0  0  0  0
  1  2  2  0  0  0  0
  3  2  1  0  0  0  0
  3  8  2  0  0  0  0
  4  3  1  0  0  0  0
  5  7  2  0  0  0  0
  5  4  1  0  0  0  0
  6  5  1  0  0  0  0
  7  1  1  0  0  0  0
  9 10  1  0  0  0  0
  9  8  1  0  0  0  0
 11  9  2  0  0  0  0
 12 11  1  0  0  0  0
 13  4  2  0  0  0  0
 13 11  1  0  0  0  0
 14 15  1  0  0  0  0
 16 15  1  0  0  0  0
 17 16  1  0  0  0  0
 18 17  1  0  0  0  0
 18 19  1  0  0  0  0
 19 14  1  0  0  0  0
 20 10  1  0  0  0  0
 21 12  1  0  0  0  0
M  END
>  <CHROM.1>
74.17796983,-59.29995808,-84.73352617,-3.33547822,10.46145784,-0.28693892
-2.71609647,0.81778229,-1.27836386

>  <Name>
lig.pdb

>  <RI>
1.05666e+07

>  <Rbt.Current_Directory>
/home/itssahil/PROJECTS/Mol_Feturizer/New_Systems/rnas/2lwk

>  <Rbt.Executable>
rbdock ($Id: //depot/dev/client3/rdock/2013.1/src/exe/rbdock.cxx#4 $)

>  <Rbt.Library>
libRbt.so (2013.1, Build901 2013/11/27)

>  <Rbt.Parameter_File>
/export/apps/rDock/src/rDock_2013.1_src/data/scripts/dock_solv.prm

>  <Rbt.Receptor>
prm/blind_docking_80.prm

>  <SCORE>
-11.7014

>  <SCORE.INTER>
-9.65919

>  <SCORE.INTER.CONST>
1

>  <SCORE.INTER.POLAR>
-1.18982

>  <SCORE.INTER.ROT>
3

>  <SCORE.INTER.SOLV>
11.6706

>  <SCORE.INTER.VDW>
-11.9636

>  <SCORE.INTER.norm>
-0.459961

>  <SCORE.INTRA>
-4.02479

>  <SCORE.INTRA.DIHEDRAL>
-1.02852

>  <SCORE.INTRA.DIHEDRAL.0>
8.84257

>  <SCORE.INTRA.POLAR>
0

>  <SCORE.INTRA.POLAR.0>
0

>  <SCORE.INTRA.REPUL>
0

>  <SCORE.INTRA.REPUL.0>
0

>  <SCORE.INTRA.SOLV>
0.0622032

>  <SCORE.INTRA.SOLV.lig_0>
-17.1313

>  <SCORE.INTRA.VDW>
-3.54163

>  <SCORE.INTRA.VDW.0>
6.34071

>  <SCORE.INTRA.norm>
-0.191657

>  <SCORE.RESTR>
1.98256

>  <SCORE.RESTR.CAVITY>
1.98256

>  <SCORE.RESTR.norm>
0.0944077

>  <SCORE.SYSTEM>
0

>  <SCORE.SYSTEM.CONST>
0

>  <SCORE.SYSTEM.DIHEDRAL>
0

>  <SCORE.SYSTEM.SOLV>
0

>  <SCORE.SYSTEM.norm>
0

>  <SCORE.heavy>
21

>  <SCORE.norm>
-0.55721

>  <RMSD>
13.431

$$$$
lig.pdb
 OpenBabel11021811453D
libRbt.so/2013.1/901 2013/11/27
 21 23  0  0  0  0  0  0  0  0999 V2000
   -4.1851   11.0205    1.4199 C   0  0  0  0  0  0  0  0  0  0  0  0
   -4.0435   11.1549    0.1061 N   0  0  0  0  0  0  0  0  0  0  0  0
   -3.1780   10.3991   -0.5455 C   0  0  0  0  0  0  0  0  0  0  0  0
   -2.3902    9.5412    0.1339 C   0  0  0  0  0  0  0  0  0  0  0  0
   -2.5384    9.4058    1.4585 C   0  0  0  0  0  0  0  0  0  0  0  0
   -1.7608    8.5643    2.1387 N   0  0  0  0  0  0  0  0  0  0  0  0
   -3.4354   10.1498    2.0973 N   0  0  0  0  0  0  0  0  0  0  0  0
   -3.0575   10.5248   -1.8776 C   0  0  0  0  0  0  0  0  0  0  0  0
   -2.0399    9.8722   -2.5185 C   0  0  0  0  0  0  0  0  0  0  0  0
   -1.3726   10.5575   -3.5617 O   0  0  0  0  0  0  0  0  0  0  0  0
   -1.4013    8.8873   -1.8655 C   0  0  0  0  0  0  0  0  0  0  0  0
   -0.6934    7.8988   -2.6004 O   0  0  0  0  0  0  0  0  0  0  0  0
   -1.4966    8.7902   -0.5250 C   0  0  0  0  0  0  0  0  0  0  0  0
   -5.0659   11.7705    2.0593 N   0  0  0  0  0  0  0  0  0  0  0  0
   -6.3519   11.4424    1.9027 C   0  0  0  0  0  0  0  0  0  0  0  0
   -6.8653   11.9661    0.5700 C   0  0  0  0  0  0  0  0  0  0  0  0
   -6.7596   13.3413    0.5410 N   0  0  0  0  0  0  0  0  0  0  0  0
   -5.4222   13.6492    0.6629 C   0  0  0  0  0  0  0  0  0  0  0  0
   -4.9075   13.1313    1.9956 C   0  0  0  0  0  0  0  0  0  0  0  0
   -2.3215   10.8879   -4.5433 C   0  0  0  0  0  0  0  0  0  0  0  0
   -1.5965    6.9008   -2.9988 C   0  0  0  0  0  0  0  0  0  0  0  0
  1 14  1  0  0  0  0
  1  2  2  0  0  0  0
  3  2  1  0  0  0  0
  3  8  2  0  0  0  0
  4  3  1  0  0  0  0
  5  7  2  0  0  0  0
  5  4  1  0  0  0  0
  6  5  1  0  0  0  0
  7  1  1  0  0  0  0
  9 10  1  0  0  0  0
  9  8  1  0  0  0  0
 11  9  2  0  0  0  0
 12 11  1  0  0  0  0
 13  4  2  0  0  0  0
 13 11  1  0  0  0  0
 14 15  1  0  0  0  0
 16 15  1  0  0  0  0
 17 16  1  0  0  0  0
 18 17  1  0  0  0  0
 18 19  1  0  0  0  0
 19 14  1  0  0  0  0
 20 10  1  0  0  0  0
 21 12  1  0  0  0  0
M  END
>  <CHROM.1>
74.55072192,-59.14546900,-84.30834491,-3.37329230,10.46900516,-0.31509248
-2.70716833,0.81448888,-1.29126481

>  <Name>
lig.pdb

>  <RI>
4.07847e+07

>  <Rbt.Current_Directory>
/home/itssahil/PROJECTS/Mol_Feturizer/New_Systems/rnas/2lwk

>  <Rbt.Executable>
rbdock ($Id: //depot/dev/client3/rdock/2013.1/src/exe/rbdock.cxx#4 $)

>  <Rbt.Library>
libRbt.so (2013.1, Build901 2013/11/27)

>  <Rbt.Parameter_File>
/export/apps/rDock/src/rDock_2013.1_src/data/scripts/dock_solv.prm

>  <Rbt.Receptor>
prm/blind_docking_20.prm

>  <SCORE>
-12.096

>  <SCORE.INTER>
-10.1672

>  <SCORE.INTER.CONST>
1

>  <SCORE.INTER.POLAR>
-1.1333

>  <SCORE.INTER.ROT>
3

>  <SCORE.INTER.SOLV>
11.463

>  <SCORE.INTER.VDW>
-12.4215

>  <SCORE.INTER.norm>
-0.484153

>  <SCORE.INTRA>
-4.01035

>  <SCORE.INTRA.DIHEDRAL>
-1.04481

>  <SCORE.INTRA.DIHEDRAL.0>
8.84257

>  <SCORE.INTRA.POLAR>
0

>  <SCORE.INTRA.POLAR.0>
0

>  <SCORE.INTRA.REPUL>
0

>  <SCORE.INTRA.REPUL.0>
0

>  <SCORE.INTRA.SOLV>
0.0621878

>  <SCORE.INTRA.SOLV.lig_0>
-17.1313

>  <SCORE.INTRA.VDW>
-3.51904

>  <SCORE.INTRA.VDW.0>
6.34071

>  <SCORE.INTRA.norm>
-0.190969

>  <SCORE.RESTR>
2.0816

>  <SCORE.RESTR.CAVITY>
2.0816

>  <SCORE.RESTR.norm>
0.0991238

>  <SCORE.SYSTEM>
0

>  <SCORE.SYSTEM.CONST>
0

>  <SCORE.SYSTEM.DIHEDRAL>
0

>  <SCORE.SYSTEM.SOLV>
0

>  <SCORE.SYSTEM.norm>
0

>  <SCORE.heavy>
21

>  <SCORE.norm>
-0.575998

>  <RMSD>
13.432

$$$$
lig.pdb
 OpenBabel11021811453D
libRbt.so/2013.1/901 2013/11/27
 21 23  0  0  0  0  0  0  0  0999 V2000
   -4.1725   11.0196    1.4442 C   0  0  0  0  0  0  0  0  0  0  0  0
   -4.0190   11.1516    0.1314 N   0  0  0  0  0  0  0  0  0  0  0  0
   -3.1483   10.3939   -0.5110 C   0  0  0  0  0  0  0  0  0  0  0  0
   -2.3674    9.5366    0.1771 C   0  0  0  0  0  0  0  0  0  0  0  0
   -2.5277    9.4036    1.5005 C   0  0  0  0  0  0  0  0  0  0  0  0
   -1.7569    8.5626    2.1892 N   0  0  0  0  0  0  0  0  0  0  0  0
   -3.4298   10.1496    2.1298 N   0  0  0  0  0  0  0  0  0  0  0  0
   -3.0157   10.5170   -1.8421 C   0  0  0  0  0  0  0  0  0  0  0  0
   -1.9929    9.8625   -2.4727 C   0  0  0  0  0  0  0  0  0  0  0  0
   -1.3157   10.5453   -3.5110 O   0  0  0  0  0  0  0  0  0  0  0  0
   -1.3611    8.8782   -1.8122 C   0  0  0  0  0  0  0  0  0  0  0  0
   -0.6475    7.8878   -2.5389 O   0  0  0  0  0  0  0  0  0  0  0  0
   -1.4686    8.7836   -0.4724 C   0  0  0  0  0  0  0  0  0  0  0  0
   -5.0584   11.7715    2.0743 N   0  0  0  0  0  0  0  0  0  0  0  0
   -6.3436   11.4474    1.9024 C   0  0  0  0  0  0  0  0  0  0  0  0
   -6.8400   11.9743    0.5645 C   0  0  0  0  0  0  0  0  0  0  0  0
   -6.7298   13.3492    0.5384 N   0  0  0  0  0  0  0  0  0  0  0  0
   -5.3930   13.6529    0.6761 C   0  0  0  0  0  0  0  0  0  0  0  0
   -4.8952   13.1319    2.0140 C   0  0  0  0  0  0  0  0  0  0  0  0
   -2.2601   10.8992   -4.4888 C   0  0  0  0  0  0  0  0  0  0  0  0
   -1.5522    6.9034   -2.9664 C   0  0  0  0  0  0  0  0  0  0  0  0
  1 14  1  0  0  0  0
  1  2  2  0  0  0  0
  3  2  1  0  0  0  0
  3  8  2  0  0  0  0
  4  3  1  0  0  0  0
  5  7  2  0  0  0  0
  5  4  1  0  0  0  0
  6  5  1  0  0  0  0
  7  1  1  0  0  0  0
  9 10  1  0  0  0  0
  9  8  1  0  0  0  0
 11  9  2  0  0  0  0
 12 11  1  0  0  0  0
 13  4  2  0  0  0  0
 13 11  1  0  0  0  0
 14 15  1  0  0  0  0
 16 15  1  0  0  0  0
 17 16  1  0  0  0  0
 18 17  1  0  0  0  0
 18 19  1  0  0  0  0
 19 14  1  0  0  0  0
 20 10  1  0  0  0  0
 21 12  1  0  0  0  0
M  END
>  <CHROM.1>
74.29634588,-57.94452882,-83.14946429,-3.34500669,10.46752895,-0.28288053
-2.72025460,0.81356804,-1.28300170

>  <Name>
lig.pdb

>  <RI>
1.05666e+07

>  <Rbt.Current_Directory>
/home/itssahil/PROJECTS/Mol_Feturizer/New_Systems/rnas/2lwk

>  <Rbt.Executable>
rbdock ($Id: //depot/dev/client3/rdock/2013.1/src/exe/rbdock.cxx#4 $)

>  <Rbt.Library>
libRbt.so (2013.1, Build901 2013/11/27)

>  <Rbt.Parameter_File>
/export/apps/rDock/src/rDock_2013.1_src/data/scripts/dock_solv.prm

>  <Rbt.Receptor>
prm/blind_docking_80.prm

>  <SCORE>
-11.9519

>  <SCORE.INTER>
-10.098

>  <SCORE.INTER.CONST>
1

>  <SCORE.INTER.POLAR>
-1.19677

>  <SCORE.INTER.ROT>
3

>  <SCORE.INTER.SOLV>
11.6284

>  <SCORE.INTER.VDW>
-12.2189

>  <SCORE.INTER.norm>
-0.480857

>  <SCORE.INTRA>
-3.89662

>  <SCORE.INTRA.DIHEDRAL>
-1.15067

>  <SCORE.INTRA.DIHEDRAL.0>
8.84257

>  <SCORE.INTRA.POLAR>
0

>  <SCORE.INTRA.POLAR.0>
0

>  <SCORE.INTRA.REPUL>
0

>  <SCORE.INTRA.REPUL.0>
0

>  <SCORE.INTRA.SOLV>
0.0622082

>  <SCORE.INTRA.SOLV.lig_0>
-17.1313

>  <SCORE.INTRA.VDW>
-3.35239

>  <SCORE.INTRA.VDW.0>
6.34071

>  <SCORE.INTRA.norm>
-0.185554

>  <SCORE.RESTR>
2.04277

>  <SCORE.RESTR.CAVITY>
2.04277

>  <SCORE.RESTR.norm>
0.0972749

>  <SCORE.SYSTEM>
0

>  <SCORE.SYSTEM.CONST>
0

>  <SCORE.SYSTEM.DIHEDRAL>
0

>  <SCORE.SYSTEM.SOLV>
0

>  <SCORE.SYSTEM.norm>
0

>  <SCORE.heavy>
21

>  <SCORE.norm>
-0.569136

>  <RMSD>
13.432

$$$$
lig.pdb
 OpenBabel11021811453D
libRbt.so/2013.1/901 2013/11/27
 21 23  0  0  0  0  0  0  0  0999 V2000
   -4.1619   11.0032    1.4370 C   0  0  0  0  0  0  0  0  0  0  0  0
   -4.0166   11.1455    0.1244 N   0  0  0  0  0  0  0  0  0  0  0  0
   -3.1484   10.3945   -0.5291 C   0  0  0  0  0  0  0  0  0  0  0  0
   -2.3618    9.5334    0.1475 C   0  0  0  0  0  0  0  0  0  0  0  0
   -2.5138    9.3899    1.4708 C   0  0  0  0  0  0  0  0  0  0  0  0
   -1.7373    8.5451    2.1483 N   0  0  0  0  0  0  0  0  0  0  0  0
   -3.4134   10.1292    2.1114 N   0  0  0  0  0  0  0  0  0  0  0  0
   -3.0241   10.5282   -1.8600 C   0  0  0  0  0  0  0  0  0  0  0  0
   -2.0040    9.8804   -2.5018 C   0  0  0  0  0  0  0  0  0  0  0  0
   -1.3343   10.5726   -3.5390 O   0  0  0  0  0  0  0  0  0  0  0  0
   -1.3663    8.8923   -1.8528 C   0  0  0  0  0  0  0  0  0  0  0  0
   -0.6553    7.9089   -2.5915 O   0  0  0  0  0  0  0  0  0  0  0  0
   -1.4655    8.7871   -0.5132 C   0  0  0  0  0  0  0  0  0  0  0  0
   -5.0453   11.7485    2.0783 N   0  0  0  0  0  0  0  0  0  0  0  0
   -6.3303   11.4168    1.9201 C   0  0  0  0  0  0  0  0  0  0  0  0
   -6.8448   11.9429    0.5887 C   0  0  0  0  0  0  0  0  0  0  0  0
   -6.7433   13.3185    0.5639 N   0  0  0  0  0  0  0  0  0  0  0  0
   -5.4069   13.6302    0.6873 C   0  0  0  0  0  0  0  0  0  0  0  0
   -4.8912   13.1100    2.0186 C   0  0  0  0  0  0  0  0  0  0  0  0
   -2.2807   10.9080   -4.5213 C   0  0  0  0  0  0  0  0  0  0  0  0
   -1.5518    6.9004   -2.9783 C   0  0  0  0  0  0  0  0  0  0  0  0
  1 14  1  0  0  0  0
  1  2  2  0  0  0  0
  3  2  1  0  0  0  0
  3  8  2  0  0  0  0
  4  3  1  0  0  0  0
  5  7  2  0  0  0  0
  5  4  1  0  0  0  0
  6  5  1  0  0  0  0
  7  1  1  0  0  0  0
  9 10  1  0  0  0  0
  9  8  1  0  0  0  0
 11  9  2  0  0  0  0
 12 11  1  0  0  0  0
 13  4  2  0  0  0  0
 13 11  1  0  0  0  0
 14 15  1  0  0  0  0
 16 15  1  0  0  0  0
 17 16  1  0  0  0  0
 18 17  1  0  0  0  0
 18 19  1  0  0  0  0
 19 14  1  0  0  0  0
 20 10  1  0  0  0  0
 21 12  1  0  0  0  0
M  END
>  <CHROM.1>
74.80646645,-59.14334124,-85.33459672,-3.34530741,10.46098757,-0.29787828
-2.71243874,0.81216620,-1.28155536

>  <Name>
lig.pdb

>  <RI>
4.07847e+07

>  <Rbt.Current_Directory>
/home/itssahil/PROJECTS/Mol_Feturizer/New_Systems/rnas/2lwk

>  <Rbt.Executable>
rbdock ($Id: //depot/dev/client3/rdock/2013.1/src/exe/rbdock.cxx#4 $)

>  <Rbt.Library>
libRbt.so (2013.1, Build901 2013/11/27)

>  <Rbt.Parameter_File>
/export/apps/rDock/src/rDock_2013.1_src/data/scripts/dock_solv.prm

>  <Rbt.Receptor>
prm/blind_docking_20.prm

>  <SCORE>
-11.8656

>  <SCORE.INTER>
-9.8906

>  <SCORE.INTER.CONST>
1

>  <SCORE.INTER.POLAR>
-1.15948

>  <SCORE.INTER.ROT>
3

>  <SCORE.INTER.SOLV>
11.6311

>  <SCORE.INTER.VDW>
-12.2058

>  <SCORE.INTER.norm>
-0.470981

>  <SCORE.INTRA>
-4.00043

>  <SCORE.INTRA.DIHEDRAL>
-1.0355

>  <SCORE.INTRA.DIHEDRAL.0>
8.84257

>  <SCORE.INTRA.POLAR>
0

>  <SCORE.INTRA.POLAR.0>
0

>  <SCORE.INTRA.REPUL>
0

>  <SCORE.INTRA.REPUL.0>
0

>  <SCORE.INTRA.SOLV>
0.0613944

>  <SCORE.INTRA.SOLV.lig_0>
-17.1313

>  <SCORE.INTRA.VDW>
-3.51338

>  <SCORE.INTRA.VDW.0>
6.34071

>  <SCORE.INTRA.norm>
-0.190497

>  <SCORE.RESTR>
2.02545

>  <SCORE.RESTR.CAVITY>
2.02545

>  <SCORE.RESTR.norm>
0.0964502

>  <SCORE.SYSTEM>
0

>  <SCORE.SYSTEM.CONST>
0

>  <SCORE.SYSTEM.DIHEDRAL>
0

>  <SCORE.SYSTEM.SOLV>
0

>  <SCORE.SYSTEM.norm>
0

>  <SCORE.heavy>
21

>  <SCORE.norm>
-0.565028

>  <RMSD>
13.433

$$$$
lig.pdb
 OpenBabel11021811453D
libRbt.so/2013.1/901 2013/11/27
 21 23  0  0  0  0  0  0  0  0999 V2000
   -4.1769   11.0151    1.4424 C   0  0  0  0  0  0  0  0  0  0  0  0
   -4.0276   11.1506    0.1295 N   0  0  0  0  0  0  0  0  0  0  0  0
   -3.1561   10.3973   -0.5171 C   0  0  0  0  0  0  0  0  0  0  0  0
   -2.3704    9.5411    0.1668 C   0  0  0  0  0  0  0  0  0  0  0  0
   -2.5265    9.4046    1.4903 C   0  0  0  0  0  0  0  0  0  0  0  0
   -1.7510    8.5646    2.1749 N   0  0  0  0  0  0  0  0  0  0  0  0
   -3.4293   10.1460    2.1239 N   0  0  0  0  0  0  0  0  0  0  0  0
   -3.0277   10.5240   -1.8483 C   0  0  0  0  0  0  0  0  0  0  0  0
   -2.0045    9.8743   -2.4833 C   0  0  0  0  0  0  0  0  0  0  0  0
   -1.3325   10.5618   -3.5220 O   0  0  0  0  0  0  0  0  0  0  0  0
   -1.3675    8.8906   -1.8268 C   0  0  0  0  0  0  0  0  0  0  0  0
   -0.6527    7.9043   -2.5578 O   0  0  0  0  0  0  0  0  0  0  0  0
   -1.4709    8.7926   -0.4870 C   0  0  0  0  0  0  0  0  0  0  0  0
   -5.0635   11.7626    2.0767 N   0  0  0  0  0  0  0  0  0  0  0  0
   -6.3479   11.4333    1.9094 C   0  0  0  0  0  0  0  0  0  0  0  0
   -6.8517   11.9595    0.5740 C   0  0  0  0  0  0  0  0  0  0  0  0
   -6.7475   13.3348    0.5490 N   0  0  0  0  0  0  0  0  0  0  0  0
   -5.4114   13.6441    0.6819 C   0  0  0  0  0  0  0  0  0  0  0  0
   -4.9063   13.1237    2.0173 C   0  0  0  0  0  0  0  0  0  0  0  0
   -2.2787   10.9031   -4.5025 C   0  0  0  0  0  0  0  0  0  0  0  0
   -1.5538    6.9132   -2.9774 C   0  0  0  0  0  0  0  0  0  0  0  0
  1 14  1  0  0  0  0
  1  2  2  0  0  0  0
  3  2  1  0  0  0  0
  3  8  2  0  0  0  0
  4  3  1  0  0  0  0
  5  7  2  0  0  0  0
  5  4  1  0  0  0  0
  6  5  1  0  0  0  0
  7  1  1  0  0  0  0
  9 10  1  0  0  0  0
  9  8  1  0  0  0  0
 11  9  2  0  0  0  0
 12 11  1  0  0  0  0
 13  4  2  0  0  0  0
 13 11  1  0  0  0  0
 14 15  1  0  0  0  0
 16 15  1  0  0  0  0
 17 16  1  0  0  0  0
 18 17  1  0  0  0  0
 18 19  1  0  0  0  0
 19 14  1  0  0  0  0
 20 10  1  0  0  0  0
 21 12  1  0  0  0  0
M  END
>  <CHROM.1>
74.39984092,-58.51747837,-83.53867048,-3.35267516,10.46844460,-0.28824008
-2.71458868,0.81077936,-1.28506729

>  <Name>
lig.pdb

>  <RI>
4.07847e+07

>  <Rbt.Current_Directory>
/home/itssahil/PROJECTS/Mol_Feturizer/New_Systems/rnas/2lwk

>  <Rbt.Executable>
rbdock ($Id: //depot/dev/client3/rdock/2013.1/src/exe/rbdock.cxx#4 $)

>  <Rbt.Library>
libRbt.so (2013.1, Build901 2013/11/27)

>  <Rbt.Parameter_File>
/export/apps/rDock/src/rDock_2013.1_src/data/scripts/dock_solv.prm

>  <Rbt.Receptor>
prm/blind_docking_20.prm

>  <SCORE>
-11.9796

>  <SCORE.INTER>
-10.0865

>  <SCORE.INTER.CONST>
1

>  <SCORE.INTER.POLAR>
-1.17961

>  <SCORE.INTER.ROT>
3

>  <SCORE.INTER.SOLV>
11.6125

>  <SCORE.INTER.VDW>
-12.2631

>  <SCORE.INTER.norm>
-0.480309

>  <SCORE.INTRA>
-3.95316

>  <SCORE.INTRA.DIHEDRAL>
-1.10175

>  <SCORE.INTRA.DIHEDRAL.0>
8.84257

>  <SCORE.INTRA.POLAR>
0

>  <SCORE.INTRA.POLAR.0>
0

>  <SCORE.INTRA.REPUL>
0

>  <SCORE.INTRA.REPUL.0>
0

>  <SCORE.INTRA.SOLV>
0.0623122

>  <SCORE.INTRA.SOLV.lig_0>
-17.1313

>  <SCORE.INTRA.VDW>
-3.43344

>  <SCORE.INTRA.VDW.0>
6.34071

>  <SCORE.INTRA.norm>
-0.188246

>  <SCORE.RESTR>
2.06003

>  <SCORE.RESTR.CAVITY>
2.06003

>  <SCORE.RESTR.norm>
0.0980968

>  <SCORE.SYSTEM>
0

>  <SCORE.SYSTEM.CONST>
0

>  <SCORE.SYSTEM.DIHEDRAL>
0

>  <SCORE.SYSTEM.SOLV>
0

>  <SCORE.SYSTEM.norm>
0

>  <SCORE.heavy>
21

>  <SCORE.norm>
-0.570458

>  <RMSD>
13.433

$$$$
lig.pdb
 OpenBabel11021811453D
libRbt.so/2013.1/901 2013/11/27
 21 23  0  0  0  0  0  0  0  0999 V2000
   -4.1661   11.0076    1.4380 C   0  0  0  0  0  0  0  0  0  0  0  0
   -4.0235   11.1476    0.1248 N   0  0  0  0  0  0  0  0  0  0  0  0
   -3.1530   10.3989   -0.5283 C   0  0  0  0  0  0  0  0  0  0  0  0
   -2.3616    9.5427    0.1490 C   0  0  0  0  0  0  0  0  0  0  0  0
   -2.5109    9.4016    1.4729 C   0  0  0  0  0  0  0  0  0  0  0  0
   -1.7297    8.5618    2.1511 N   0  0  0  0  0  0  0  0  0  0  0  0
   -3.4127   10.1385    2.1132 N   0  0  0  0  0  0  0  0  0  0  0  0
   -3.0314   10.5300   -1.8597 C   0  0  0  0  0  0  0  0  0  0  0  0
   -2.0094    9.8852   -2.5017 C   0  0  0  0  0  0  0  0  0  0  0  0
   -1.3445   10.5780   -3.5414 O   0  0  0  0  0  0  0  0  0  0  0  0
   -1.3665    8.9014   -1.8514 C   0  0  0  0  0  0  0  0  0  0  0  0
   -0.6523    7.9194   -2.5889 O   0  0  0  0  0  0  0  0  0  0  0  0
   -1.4631    8.7989   -0.5113 C   0  0  0  0  0  0  0  0  0  0  0  0
   -5.0518   11.7505    2.0789 N   0  0  0  0  0  0  0  0  0  0  0  0
   -6.3347   11.4054    1.9333 C   0  0  0  0  0  0  0  0  0  0  0  0
   -6.8639   11.9144    0.6011 C   0  0  0  0  0  0  0  0  0  0  0  0
   -6.7756   13.2906    0.5628 N   0  0  0  0  0  0  0  0  0  0  0  0
   -5.4413   13.6159    0.6735 C   0  0  0  0  0  0  0  0  0  0  0  0
   -4.9109   13.1128    2.0057 C   0  0  0  0  0  0  0  0  0  0  0  0
   -2.2914   10.8955   -4.5292 C   0  0  0  0  0  0  0  0  0  0  0  0
   -1.5447    6.9053   -2.9706 C   0  0  0  0  0  0  0  0  0  0  0  0
  1 14  1  0  0  0  0
  1  2  2  0  0  0  0
  3  2  1  0  0  0  0
  3  8  2  0  0  0  0
  4  3  1  0  0  0  0
  5  7  2  0  0  0  0
  5  4  1  0  0  0  0
  6  5  1  0  0  0  0
  7  1  1  0  0  0  0
  9 10  1  0  0  0  0
  9  8  1  0  0  0  0
 11  9  2  0  0  0  0
 12 11  1  0  0  0  0
 13  4  2  0  0  0  0
 13 11  1  0  0  0  0
 14 15  1  0  0  0  0
 16 15  1  0  0  0  0
 17 16  1  0  0  0  0
 18 17  1  0  0  0  0
 18 19  1  0  0  0  0
 19 14  1  0  0  0  0
 20 10  1  0  0  0  0
 21 12  1  0  0  0  0
M  END
>  <CHROM.1>
75.39763283,-59.70935518,-85.40594049,-3.35219497,10.46153799,-0.29730304
-2.70690894,0.80613811,-1.28792947

>  <Name>
lig.pdb

>  <RI>
2.05709e+07

>  <Rbt.Current_Directory>
/home/itssahil/PROJECTS/Mol_Feturizer/New_Systems/rnas/2lwk

>  <Rbt.Executable>
rbdock ($Id: //depot/dev/client3/rdock/2013.1/src/exe/rbdock.cxx#4 $)

>  <Rbt.Library>
libRbt.so (2013.1, Build901 2013/11/27)

>  <Rbt.Parameter_File>
/export/apps/rDock/src/rDock_2013.1_src/data/scripts/dock_solv.prm

>  <Rbt.Receptor>
prm/blind_docking_40.prm

>  <SCORE>
-11.9973

>  <SCORE.INTER>
-10.0127

>  <SCORE.INTER.CONST>
1

>  <SCORE.INTER.POLAR>
-1.14358

>  <SCORE.INTER.ROT>
3

>  <SCORE.INTER.SOLV>
11.6384

>  <SCORE.INTER.VDW>
-12.3427

>  <SCORE.INTER.norm>
-0.476794

>  <SCORE.INTRA>
-4.05081

>  <SCORE.INTRA.DIHEDRAL>
-0.99219

>  <SCORE.INTRA.DIHEDRAL.0>
8.84257

>  <SCORE.INTRA.POLAR>
0

>  <SCORE.INTRA.POLAR.0>
0

>  <SCORE.INTRA.REPUL>
0

>  <SCORE.INTRA.REPUL.0>
0

>  <SCORE.INTRA.SOLV>
0.0614524

>  <SCORE.INTRA.SOLV.lig_0>
-17.1313

>  <SCORE.INTRA.VDW>
-3.58544

>  <SCORE.INTRA.VDW.0>
6.34071

>  <SCORE.INTRA.norm>
-0.192896

>  <SCORE.RESTR>
2.06615

>  <SCORE.RESTR.CAVITY>
2.06615

>  <SCORE.RESTR.norm>
0.0983879

>  <SCORE.SYSTEM>
0

>  <SCORE.SYSTEM.CONST>
0

>  <SCORE.SYSTEM.DIHEDRAL>
0

>  <SCORE.SYSTEM.SOLV>
0

>  <SCORE.SYSTEM.norm>
0

>  <SCORE.heavy>
21

>  <SCORE.norm>
-0.571302

>  <RMSD>
13.433

$$$$
lig.pdb
 OpenBabel11021811453D
libRbt.so/2013.1/901 2013/11/27
 21 23  0  0  0  0  0  0  0  0999 V2000
   -4.1803   11.0211    1.4421 C   0  0  0  0  0  0  0  0  0  0  0  0
   -4.0333   11.1520    0.1285 N   0  0  0  0  0  0  0  0  0  0  0  0
   -3.1604   10.3991   -0.5164 C   0  0  0  0  0  0  0  0  0  0  0  0
   -2.3710    9.5479    0.1696 C   0  0  0  0  0  0  0  0  0  0  0  0
   -2.5247    9.4160    1.4939 C   0  0  0  0  0  0  0  0  0  0  0  0
   -1.7456    8.5812    2.1805 N   0  0  0  0  0  0  0  0  0  0  0  0
   -3.4290   10.1570    2.1259 N   0  0  0  0  0  0  0  0  0  0  0  0
   -3.0343   10.5210   -1.8483 C   0  0  0  0  0  0  0  0  0  0  0  0
   -2.0099    9.8721   -2.4823 C   0  0  0  0  0  0  0  0  0  0  0  0
   -1.3416   10.5578   -3.5246 O   0  0  0  0  0  0  0  0  0  0  0  0
   -1.3688    8.8930   -1.8230 C   0  0  0  0  0  0  0  0  0  0  0  0
   -0.6519    7.9062   -2.5512 O   0  0  0  0  0  0  0  0  0  0  0  0
   -1.4700    8.7998   -0.4826 C   0  0  0  0  0  0  0  0  0  0  0  0
   -5.0684   11.7682    2.0748 N   0  0  0  0  0  0  0  0  0  0  0  0
   -6.3519   11.4327    1.9126 C   0  0  0  0  0  0  0  0  0  0  0  0
   -6.8613   11.9499    0.5757 C   0  0  0  0  0  0  0  0  0  0  0  0
   -6.7628   13.3255    0.5433 N   0  0  0  0  0  0  0  0  0  0  0  0
   -5.4277   13.6410    0.6712 C   0  0  0  0  0  0  0  0  0  0  0  0
   -4.9171   13.1296    2.0080 C   0  0  0  0  0  0  0  0  0  0  0  0
   -2.2889   10.8853   -4.5087 C   0  0  0  0  0  0  0  0  0  0  0  0
   -1.5489    6.9061   -2.9580 C   0  0  0  0  0  0  0  0  0  0  0  0
  1 14  1  0  0  0  0
  1  2  2  0  0  0  0
  3  2  1  0  0  0  0
  3  8  2  0  0  0  0
  4  3  1  0  0  0  0
  5  7  2  0  0  0  0
  5  4  1  0  0  0  0
  6  5  1  0  0  0  0
  7  1  1  0  0  0  0
  9 10  1  0  0  0  0
  9  8  1  0  0  0  0
 11  9  2  0  0  0  0
 12 11  1  0  0  0  0
 13  4  2  0  0  0  0
 13 11  1  0  0  0  0
 14 15  1  0  0  0  0
 16 15  1  0  0  0  0
 17 16  1  0  0  0  0
 18 17  1  0  0  0  0
 18 19  1  0  0  0  0
 19 14  1  0  0  0  0
 20 10  1  0  0  0  0
 21 12  1  0  0  0  0
M  END
>  <CHROM.1>
74.51375794,-58.86012744,-83.92715655,-3.35718345,10.46928137,-0.28741278
-2.71132203,0.80776246,-1.29142629

>  <Name>
lig.pdb

>  <RI>
1.99026e+07

>  <Rbt.Current_Directory>
/home/itssahil/PROJECTS/Mol_Feturizer/New_Systems/rnas/2lwk

>  <Rbt.Executable>
rbdock ($Id: //depot/dev/client3/rdock/2013.1/src/exe/rbdock.cxx#4 $)

>  <Rbt.Library>
libRbt.so (2013.1, Build901 2013/11/27)

>  <Rbt.Parameter_File>
/export/apps/rDock/src/rDock_2013.1_src/data/scripts/dock_solv.prm

>  <Rbt.Receptor>
prm/blind_docking_60.prm

>  <SCORE>
-12.1226

>  <SCORE.INTER>
-10.2239

>  <SCORE.INTER.CONST>
1

>  <SCORE.INTER.POLAR>
-1.16357

>  <SCORE.INTER.ROT>
3

>  <SCORE.INTER.SOLV>
11.6089

>  <SCORE.INTER.VDW>
-12.407

>  <SCORE.INTER.norm>
-0.486851

>  <SCORE.INTRA>
-3.98471

>  <SCORE.INTRA.DIHEDRAL>
-1.07085

>  <SCORE.INTRA.DIHEDRAL.0>
8.84257

>  <SCORE.INTRA.POLAR>
0

>  <SCORE.INTRA.POLAR.0>
0

>  <SCORE.INTRA.REPUL>
0

>  <SCORE.INTRA.REPUL.0>
0

>  <SCORE.INTRA.SOLV>
0.0622484

>  <SCORE.INTRA.SOLV.lig_0>
-17.1313

>  <SCORE.INTRA.VDW>
-3.48041

>  <SCORE.INTRA.VDW.0>
6.34071

>  <SCORE.INTRA.norm>
-0.189748

>  <SCORE.RESTR>
2.08594

>  <SCORE.RESTR.CAVITY>
2.08594

>  <SCORE.RESTR.norm>
0.0993307

>  <SCORE.SYSTEM>
0

>  <SCORE.SYSTEM.CONST>
0

>  <SCORE.SYSTEM.DIHEDRAL>
0

>  <SCORE.SYSTEM.SOLV>
0

>  <SCORE.SYSTEM.norm>
0

>  <SCORE.heavy>
21

>  <SCORE.norm>
-0.577268

>  <RMSD>
13.433

$$$$
lig.pdb
 OpenBabel11021811453D
libRbt.so/2013.1/901 2013/11/27
 21 23  0  0  0  0  0  0  0  0999 V2000
   -4.1550   11.0057    1.4459 C   0  0  0  0  0  0  0  0  0  0  0  0
   -4.0063   11.1480    0.1337 N   0  0  0  0  0  0  0  0  0  0  0  0
   -3.1383   10.3951   -0.5179 C   0  0  0  0  0  0  0  0  0  0  0  0
   -2.3553    9.5319    0.1604 C   0  0  0  0  0  0  0  0  0  0  0  0
   -2.5108    9.3885    1.4833 C   0  0  0  0  0  0  0  0  0  0  0  0
   -1.7379    8.5417    2.1624 N   0  0  0  0  0  0  0  0  0  0  0  0
   -3.4102   10.1298    2.1219 N   0  0  0  0  0  0  0  0  0  0  0  0
   -3.0105   10.5288   -1.8485 C   0  0  0  0  0  0  0  0  0  0  0  0
   -1.9904    9.8788   -2.4881 C   0  0  0  0  0  0  0  0  0  0  0  0
   -1.3166   10.5696   -3.5234 O   0  0  0  0  0  0  0  0  0  0  0  0
   -1.3566    8.8890   -1.8378 C   0  0  0  0  0  0  0  0  0  0  0  0
   -0.6462    7.9041   -2.5750 O   0  0  0  0  0  0  0  0  0  0  0  0
   -1.4592    8.7838   -0.4984 C   0  0  0  0  0  0  0  0  0  0  0  0
   -5.0382   11.7529    2.0853 N   0  0  0  0  0  0  0  0  0  0  0  0
   -6.3244   11.4339    1.9115 C   0  0  0  0  0  0  0  0  0  0  0  0
   -6.8211   11.9765    0.5801 C   0  0  0  0  0  0  0  0  0  0  0  0
   -6.7075   13.3513    0.5687 N   0  0  0  0  0  0  0  0  0  0  0  0
   -5.3697   13.6502    0.7080 C   0  0  0  0  0  0  0  0  0  0  0  0
   -4.8717   13.1135    2.0395 C   0  0  0  0  0  0  0  0  0  0  0  0
   -2.2601   10.9089   -4.5072 C   0  0  0  0  0  0  0  0  0  0  0  0
   -1.5476    6.9073   -2.9802 C   0  0  0  0  0  0  0  0  0  0  0  0
  1 14  1  0  0  0  0
  1  2  2  0  0  0  0
  3  2  1  0  0  0  0
  3  8  2  0  0  0  0
  4  3  1  0  0  0  0
  5  7  2  0  0  0  0
  5  4  1  0  0  0  0
  6  5  1  0  0  0  0
  7  1  1  0  0  0  0
  9 10  1  0  0  0  0
  9  8  1  0  0  0  0
 11  9  2  0  0  0  0
 12 11  1  0  0  0  0
 13  4  2  0  0  0  0
 13 11  1  0  0  0  0
 14 15  1  0  0  0  0
 16 15  1  0  0  0  0
 17 16  1  0  0  0  0
 18 17  1  0  0  0  0
 18 19  1  0  0  0  0
 19 14  1  0  0  0  0
 20 10  1  0  0  0  0
 21 12  1  0  0  0  0
M  END
>  <CHROM.1>
74.05203452,-59.07290372,-84.51765249,-3.33257857,10.46612641,-0.28768677
-2.71635987,0.81622087,-1.27848620

>  <Name>
lig.pdb

>  <RI>
3.07369e+07

>  <Rbt.Current_Directory>
/home/itssahil/PROJECTS/Mol_Feturizer/New_Systems/rnas/2lwk

>  <Rbt.Executable>
rbdock ($Id: //depot/dev/client3/rdock/2013.1/src/exe/rbdock.cxx#4 $)

>  <Rbt.Library>
libRbt.so (2013.1, Build901 2013/11/27)

>  <Rbt.Parameter_File>
/export/apps/rDock/src/rDock_2013.1_src/data/scripts/dock_solv.prm

>  <Rbt.Receptor>
prm/blind_docking_100.prm

>  <SCORE>
-11.6562

>  <SCORE.INTER>
-9.62864

>  <SCORE.INTER.CONST>
1

>  <SCORE.INTER.POLAR>
-1.18038

>  <SCORE.INTER.ROT>
3

>  <SCORE.INTER.SOLV>
11.6981

>  <SCORE.INTER.VDW>
-11.9838

>  <SCORE.INTER.norm>
-0.458506

>  <SCORE.INTRA>
-4.00465

>  <SCORE.INTRA.DIHEDRAL>
-1.04788

>  <SCORE.INTRA.DIHEDRAL.0>
8.84257

>  <SCORE.INTRA.POLAR>
0

>  <SCORE.INTRA.POLAR.0>
0

>  <SCORE.INTRA.REPUL>
0

>  <SCORE.INTRA.REPUL.0>
0

>  <SCORE.INTRA.SOLV>
0.0622371

>  <SCORE.INTRA.SOLV.lig_0>
-17.1313

>  <SCORE.INTRA.VDW>
-3.51183

>  <SCORE.INTRA.VDW.0>
6.34071

>  <SCORE.INTRA.norm>
-0.190698

>  <SCORE.RESTR>
1.97709

>  <SCORE.RESTR.CAVITY>
1.97709

>  <SCORE.RESTR.norm>
0.0941473

>  <SCORE.SYSTEM>
0

>  <SCORE.SYSTEM.CONST>
0

>  <SCORE.SYSTEM.DIHEDRAL>
0

>  <SCORE.SYSTEM.SOLV>
0

>  <SCORE.SYSTEM.norm>
0

>  <SCORE.heavy>
21

>  <SCORE.norm>
-0.555057

>  <RMSD>
13.436

$$$$
lig.pdb
 OpenBabel11021811453D
libRbt.so/2013.1/901 2013/11/27
 21 23  0  0  0  0  0  0  0  0999 V2000
   -4.1656   11.0266    1.4367 C   0  0  0  0  0  0  0  0  0  0  0  0
   -4.0082   11.1569    0.1243 N   0  0  0  0  0  0  0  0  0  0  0  0
   -3.1391   10.3950   -0.5153 C   0  0  0  0  0  0  0  0  0  0  0  0
   -2.3636    9.5349    0.1754 C   0  0  0  0  0  0  0  0  0  0  0  0
   -2.5278    9.4037    1.4985 C   0  0  0  0  0  0  0  0  0  0  0  0
   -1.7624    8.5599    2.1898 N   0  0  0  0  0  0  0  0  0  0  0  0
   -3.4283   10.1539    2.1249 N   0  0  0  0  0  0  0  0  0  0  0  0
   -3.0025   10.5166   -1.8462 C   0  0  0  0  0  0  0  0  0  0  0  0
   -1.9809    9.8571   -2.4737 C   0  0  0  0  0  0  0  0  0  0  0  0
   -1.2981   10.5363   -3.5108 O   0  0  0  0  0  0  0  0  0  0  0  0
   -1.3550    8.8707   -1.8108 C   0  0  0  0  0  0  0  0  0  0  0  0
   -0.6438    7.8767   -2.5349 O   0  0  0  0  0  0  0  0  0  0  0  0
   -1.4663    8.7776   -0.4712 C   0  0  0  0  0  0  0  0  0  0  0  0
   -5.0499   11.7828    2.0640 N   0  0  0  0  0  0  0  0  0  0  0  0
   -6.3357   11.4604    1.8938 C   0  0  0  0  0  0  0  0  0  0  0  0
   -6.8315   11.9826    0.5539 C   0  0  0  0  0  0  0  0  0  0  0  0
   -6.7188   13.3572    0.5221 N   0  0  0  0  0  0  0  0  0  0  0  0
   -5.3814   13.6590    0.6581 C   0  0  0  0  0  0  0  0  0  0  0  0
   -4.8842   13.1426    1.9980 C   0  0  0  0  0  0  0  0  0  0  0  0
   -2.2411   10.9081   -4.4833 C   0  0  0  0  0  0  0  0  0  0  0  0
   -1.5534    6.9022   -2.9746 C   0  0  0  0  0  0  0  0  0  0  0  0
  1 14  1  0  0  0  0
  1  2  2  0  0  0  0
  3  2  1  0  0  0  0
  3  8  2  0  0  0  0
  4  3  1  0  0  0  0
  5  7  2  0  0  0  0
  5  4  1  0  0  0  0
  6  5  1  0  0  0  0
  7  1  1  0  0  0  0
  9 10  1  0  0  0  0
  9  8  1  0  0  0  0
 11  9  2  0  0  0  0
 12 11  1  0  0  0  0
 13  4  2  0  0  0  0
 13 11  1  0  0  0  0
 14 15  1  0  0  0  0
 16 15  1  0  0  0  0
 17 16  1  0  0  0  0
 18 17  1  0  0  0  0
 18 19  1  0  0  0  0
 19 14  1  0  0  0  0
 20 10  1  0  0  0  0
 21 12  1  0  0  0  0
M  END
>  <CHROM.1>
74.58426890,-57.21942315,-82.60828444,-3.33748032,10.46939659,-0.28802337
-2.72538474,0.81582798,-1.27965332

>  <Name>
lig.pdb

>  <RI>
1.99026e+07

>  <Rbt.Current_Directory>
/home/itssahil/PROJECTS/Mol_Feturizer/New_Systems/rnas/2lwk

>  <Rbt.Executable>
rbdock ($Id: //depot/dev/client3/rdock/2013.1/src/exe/rbdock.cxx#4 $)

>  <Rbt.Library>
libRbt.so (2013.1, Build901 2013/11/27)

>  <Rbt.Parameter_File>
/export/apps/rDock/src/rDock_2013.1_src/data/scripts/dock_solv.prm

>  <Rbt.Receptor>
prm/blind_docking_60.prm

>  <SCORE>
-11.8764

>  <SCORE.INTER>
-10.0788

>  <SCORE.INTER.CONST>
1

>  <SCORE.INTER.POLAR>
-1.19473

>  <SCORE.INTER.ROT>
3

>  <SCORE.INTER.SOLV>
11.6388

>  <SCORE.INTER.VDW>
-12.2163

>  <SCORE.INTER.norm>
-0.479941

>  <SCORE.INTRA>
-3.82001

>  <SCORE.INTRA.DIHEDRAL>
-1.21421

>  <SCORE.INTRA.DIHEDRAL.0>
8.84257

>  <SCORE.INTRA.POLAR>
0

>  <SCORE.INTRA.POLAR.0>
0

>  <SCORE.INTRA.REPUL>
0

>  <SCORE.INTRA.REPUL.0>
0

>  <SCORE.INTRA.SOLV>
0.061913

>  <SCORE.INTRA.SOLV.lig_0>
-17.1313

>  <SCORE.INTRA.VDW>
-3.24386

>  <SCORE.INTRA.VDW.0>
6.34071

>  <SCORE.INTRA.norm>
-0.181905

>  <SCORE.RESTR>
2.02234

>  <SCORE.RESTR.CAVITY>
2.02234

>  <SCORE.RESTR.norm>
0.0963019

>  <SCORE.SYSTEM>
0

>  <SCORE.SYSTEM.CONST>
0

>  <SCORE.SYSTEM.DIHEDRAL>
0

>  <SCORE.SYSTEM.SOLV>
0

>  <SCORE.SYSTEM.norm>
0

>  <SCORE.heavy>
21

>  <SCORE.norm>
-0.565544

>  <RMSD>
13.437

$$$$
lig.pdb
 OpenBabel11021811453D
libRbt.so/2013.1/901 2013/11/27
 21 23  0  0  0  0  0  0  0  0999 V2000
   -4.1509   11.0056    1.4297 C   0  0  0  0  0  0  0  0  0  0  0  0
   -4.0052   11.1453    0.1168 N   0  0  0  0  0  0  0  0  0  0  0  0
   -3.1372   10.3926   -0.5349 C   0  0  0  0  0  0  0  0  0  0  0  0
   -2.3512    9.5324    0.1437 C   0  0  0  0  0  0  0  0  0  0  0  0
   -2.5036    9.3917    1.4672 C   0  0  0  0  0  0  0  0  0  0  0  0
   -1.7277    8.5478    2.1466 N   0  0  0  0  0  0  0  0  0  0  0  0
   -3.4031   10.1327    2.1060 N   0  0  0  0  0  0  0  0  0  0  0  0
   -3.0124   10.5236   -1.8661 C   0  0  0  0  0  0  0  0  0  0  0  0
   -1.9924    9.8740   -2.5063 C   0  0  0  0  0  0  0  0  0  0  0  0
   -1.3221   10.5638   -3.5446 O   0  0  0  0  0  0  0  0  0  0  0  0
   -1.3554    8.8869   -1.8551 C   0  0  0  0  0  0  0  0  0  0  0  0
   -0.6447    7.9017   -2.5916 O   0  0  0  0  0  0  0  0  0  0  0  0
   -1.4551    8.7844   -0.5153 C   0  0  0  0  0  0  0  0  0  0  0  0
   -5.0342   11.7527    2.0692 N   0  0  0  0  0  0  0  0  0  0  0  0
   -6.3198   11.4272    1.9037 C   0  0  0  0  0  0  0  0  0  0  0  0
   -6.8256   11.9600    0.5717 C   0  0  0  0  0  0  0  0  0  0  0  0
   -6.7180   13.3352    0.5520 N   0  0  0  0  0  0  0  0  0  0  0  0
   -5.3809   13.6406    0.6829 C   0  0  0  0  0  0  0  0  0  0  0  0
   -4.8738   13.1137    2.0149 C   0  0  0  0  0  0  0  0  0  0  0  0
   -2.2696   10.9057   -4.5236 C   0  0  0  0  0  0  0  0  0  0  0  0
   -1.5442    6.9000   -2.9889 C   0  0  0  0  0  0  0  0  0  0  0  0
  1 14  1  0  0  0  0
  1  2  2  0  0  0  0
  3  2  1  0  0  0  0
  3  8  2  0  0  0  0
  4  3  1  0  0  0  0
  5  7  2  0  0  0  0
  5  4  1  0  0  0  0
  6  5  1  0  0  0  0
  7  1  1  0  0  0  0
  9 10  1  0  0  0  0
  9  8  1  0  0  0  0
 11  9  2  0  0  0  0
 12 11  1  0  0  0  0
 13  4  2  0  0  0  0
 13 11  1  0  0  0  0
 14 15  1  0  0  0  0
 16 15  1  0  0  0  0
 17 16  1  0  0  0  0
 18 17  1  0  0  0  0
 18 19  1  0  0  0  0
 19 14  1  0  0  0  0
 20 10  1  0  0  0  0
 21 12  1  0  0  0  0
M  END
>  <CHROM.1>
74.34788316,-58.74495992,-84.71551125,-3.33238501,10.46259033,-0.30414237
-2.71315313,0.81409780,-1.28290781

>  <Name>
lig.pdb

>  <RI>
1.05666e+07

>  <Rbt.Current_Directory>
/home/itssahil/PROJECTS/Mol_Feturizer/New_Systems/rnas/2lwk

>  <Rbt.Executable>
rbdock ($Id: //depot/dev/client3/rdock/2013.1/src/exe/rbdock.cxx#4 $)

>  <Rbt.Library>
libRbt.so (2013.1, Build901 2013/11/27)

>  <Rbt.Parameter_File>
/export/apps/rDock/src/rDock_2013.1_src/data/scripts/dock_solv.prm

>  <Rbt.Receptor>
prm/blind_docking_80.prm

>  <SCORE>
-11.6904

>  <SCORE.INTER>
-9.70766

>  <SCORE.INTER.CONST>
1

>  <SCORE.INTER.POLAR>
-1.14077

>  <SCORE.INTER.ROT>
3

>  <SCORE.INTER.SOLV>
11.684

>  <SCORE.INTER.VDW>
-12.1639

>  <SCORE.INTER.norm>
-0.462269

>  <SCORE.INTRA>
-3.96845

>  <SCORE.INTRA.DIHEDRAL>
-1.07103

>  <SCORE.INTRA.DIHEDRAL.0>
8.84257

>  <SCORE.INTRA.POLAR>
0

>  <SCORE.INTRA.POLAR.0>
0

>  <SCORE.INTRA.REPUL>
0

>  <SCORE.INTRA.REPUL.0>
0

>  <SCORE.INTRA.SOLV>
0.0617311

>  <SCORE.INTRA.SOLV.lig_0>
-17.1313

>  <SCORE.INTRA.VDW>
-3.4638

>  <SCORE.INTRA.VDW.0>
6.34071

>  <SCORE.INTRA.norm>
-0.188974

>  <SCORE.RESTR>
1.98572

>  <SCORE.RESTR.CAVITY>
1.98572

>  <SCORE.RESTR.norm>
0.0945582

>  <SCORE.SYSTEM>
0

>  <SCORE.SYSTEM.CONST>
0

>  <SCORE.SYSTEM.DIHEDRAL>
0

>  <SCORE.SYSTEM.SOLV>
0

>  <SCORE.SYSTEM.norm>
0

>  <SCORE.heavy>
21

>  <SCORE.norm>
-0.556685

>  <RMSD>
13.439

$$$$
lig.pdb
 OpenBabel11021811453D
libRbt.so/2013.1/901 2013/11/27
 21 23  0  0  0  0  0  0  0  0999 V2000
   -4.1561   11.0146    1.4330 C   0  0  0  0  0  0  0  0  0  0  0  0
   -4.0095   11.1541    0.1203 N   0  0  0  0  0  0  0  0  0  0  0  0
   -3.1429   10.3995   -0.5312 C   0  0  0  0  0  0  0  0  0  0  0  0
   -2.3592    9.5374    0.1476 C   0  0  0  0  0  0  0  0  0  0  0  0
   -2.5126    9.3968    1.4711 C   0  0  0  0  0  0  0  0  0  0  0  0
   -1.7390    8.5510    2.1507 N   0  0  0  0  0  0  0  0  0  0  0  0
   -3.4106   10.1398    2.1096 N   0  0  0  0  0  0  0  0  0  0  0  0
   -3.0173   10.5303   -1.8623 C   0  0  0  0  0  0  0  0  0  0  0  0
   -1.9984    9.8785   -2.5021 C   0  0  0  0  0  0  0  0  0  0  0  0
   -1.3261   10.5669   -3.5400 O   0  0  0  0  0  0  0  0  0  0  0  0
   -1.3641    8.8898   -1.8508 C   0  0  0  0  0  0  0  0  0  0  0  0
   -0.6553    7.9030   -2.5871 O   0  0  0  0  0  0  0  0  0  0  0  0
   -1.4646    8.7874   -0.5110 C   0  0  0  0  0  0  0  0  0  0  0  0
   -5.0380   11.7636    2.0723 N   0  0  0  0  0  0  0  0  0  0  0  0
   -6.3241   11.4392    1.9085 C   0  0  0  0  0  0  0  0  0  0  0  0
   -6.8305   11.9706    0.5762 C   0  0  0  0  0  0  0  0  0  0  0  0
   -6.7215   13.3456    0.5542 N   0  0  0  0  0  0  0  0  0  0  0  0
   -5.3839   13.6498    0.6834 C   0  0  0  0  0  0  0  0  0  0  0  0
   -4.8761   13.1243    2.0157 C   0  0  0  0  0  0  0  0  0  0  0  0
   -2.2703   10.9008   -4.5249 C   0  0  0  0  0  0  0  0  0  0  0  0
   -1.5561    6.9011   -2.9809 C   0  0  0  0  0  0  0  0  0  0  0  0
  1 14  1  0  0  0  0
  1  2  2  0  0  0  0
  3  2  1  0  0  0  0
  3  8  2  0  0  0  0
  4  3  1  0  0  0  0
  5  7  2  0  0  0  0
  5  4  1  0  0  0  0
  6  5  1  0  0  0  0
  7  1  1  0  0  0  0
  9 10  1  0  0  0  0
  9  8  1  0  0  0  0
 11  9  2  0  0  0  0
 12 11  1  0  0  0  0
 13  4  2  0  0  0  0
 13 11  1  0  0  0  0
 14 15  1  0  0  0  0
 16 15  1  0  0  0  0
 17 16  1  0  0  0  0
 18 17  1  0  0  0  0
 18 19  1  0  0  0  0
 19 14  1  0  0  0  0
 20 10  1  0  0  0  0
 21 12  1  0  0  0  0
M  END
>  <CHROM.1>
74.49109193,-59.25489193,-84.92224702,-3.33852980,10.46854291,-0.30061781
-2.71413838,0.81562399,-1.28222666

>  <Name>
lig.pdb

>  <RI>
4.07847e+07

>  <Rbt.Current_Directory>
/home/itssahil/PROJECTS/Mol_Feturizer/New_Systems/rnas/2lwk

>  <Rbt.Executable>
rbdock ($Id: //depot/dev/client3/rdock/2013.1/src/exe/rbdock.cxx#4 $)

>  <Rbt.Library>
libRbt.so (2013.1, Build901 2013/11/27)

>  <Rbt.Parameter_File>
/export/apps/rDock/src/rDock_2013.1_src/data/scripts/dock_solv.prm

>  <Rbt.Receptor>
prm/blind_docking_20.prm

>  <SCORE>
-11.7245

>  <SCORE.INTER>
-9.69968

>  <SCORE.INTER.CONST>
1

>  <SCORE.INTER.POLAR>
-1.1486

>  <SCORE.INTER.ROT>
3

>  <SCORE.INTER.SOLV>
11.6586

>  <SCORE.INTER.VDW>
-12.124

>  <SCORE.INTER.norm>
-0.461889

>  <SCORE.INTRA>
-4.01695

>  <SCORE.INTRA.DIHEDRAL>
-1.03035

>  <SCORE.INTRA.DIHEDRAL.0>
8.84257

>  <SCORE.INTRA.POLAR>
0

>  <SCORE.INTRA.POLAR.0>
0

>  <SCORE.INTRA.REPUL>
0

>  <SCORE.INTRA.REPUL.0>
0

>  <SCORE.INTRA.SOLV>
0.061898

>  <SCORE.INTRA.SOLV.lig_0>
-17.1313

>  <SCORE.INTRA.VDW>
-3.53273

>  <SCORE.INTRA.VDW.0>
6.34071

>  <SCORE.INTRA.norm>
-0.191283

>  <SCORE.RESTR>
1.99214

>  <SCORE.RESTR.CAVITY>
1.99214

>  <SCORE.RESTR.norm>
0.094864

>  <SCORE.SYSTEM>
0

>  <SCORE.SYSTEM.CONST>
0

>  <SCORE.SYSTEM.DIHEDRAL>
0

>  <SCORE.SYSTEM.SOLV>
0

>  <SCORE.SYSTEM.norm>
0

>  <SCORE.heavy>
21

>  <SCORE.norm>
-0.558309

>  <RMSD>
13.440

$$$$
lig.pdb
 OpenBabel11021811453D
libRbt.so/2013.1/901 2013/11/27
 21 23  0  0  0  0  0  0  0  0999 V2000
   -4.1165   10.9880    1.3551 C   0  0  0  0  0  0  0  0  0  0  0  0
   -4.0250   11.1483    0.0397 N   0  0  0  0  0  0  0  0  0  0  0  0
   -3.1749   10.4158   -0.6571 C   0  0  0  0  0  0  0  0  0  0  0  0
   -2.3523    9.5558   -0.0232 C   0  0  0  0  0  0  0  0  0  0  0  0
   -2.4500    9.3942    1.3031 C   0  0  0  0  0  0  0  0  0  0  0  0
   -1.6377    8.5503    1.9385 N   0  0  0  0  0  0  0  0  0  0  0  0
   -3.3319   10.1148    1.9881 N   0  0  0  0  0  0  0  0  0  0  0  0
   -3.1050   10.5674   -1.9901 C   0  0  0  0  0  0  0  0  0  0  0  0
   -2.1038    9.9398   -2.6800 C   0  0  0  0  0  0  0  0  0  0  0  0
   -1.4838   10.6526   -3.7338 O   0  0  0  0  0  0  0  0  0  0  0  0
   -1.4297    8.9513   -2.0694 C   0  0  0  0  0  0  0  0  0  0  0  0
   -0.7375    7.9857   -2.8481 O   0  0  0  0  0  0  0  0  0  0  0  0
   -1.4745    8.8285   -0.7283 C   0  0  0  0  0  0  0  0  0  0  0  0
   -4.9822   11.7148    2.0403 N   0  0  0  0  0  0  0  0  0  0  0  0
   -6.2703   11.3815    1.9143 C   0  0  0  0  0  0  0  0  0  0  0  0
   -6.8276   11.9357    0.6119 C   0  0  0  0  0  0  0  0  0  0  0  0
   -6.7317   13.3119    0.6155 N   0  0  0  0  0  0  0  0  0  0  0  0
   -5.3932   13.6263    0.7047 C   0  0  0  0  0  0  0  0  0  0  0  0
   -4.8347   13.0779    2.0072 C   0  0  0  0  0  0  0  0  0  0  0  0
   -2.4529   10.9058   -4.7186 C   0  0  0  0  0  0  0  0  0  0  0  0
   -1.5834    6.8853   -3.0576 C   0  0  0  0  0  0  0  0  0  0  0  0
  1 14  1  0  0  0  0
  1  2  2  0  0  0  0
  3  2  1  0  0  0  0
  3  8  2  0  0  0  0
  4  3  1  0  0  0  0
  5  7  2  0  0  0  0
  5  4  1  0  0  0  0
  6  5  1  0  0  0  0
  7  1  1  0  0  0  0
  9 10  1  0  0  0  0
  9  8  1  0  0  0  0
 11  9  2  0  0  0  0
 12 11  1  0  0  0  0
 13  4  2  0  0  0  0
 13 11  1  0  0  0  0
 14 15  1  0  0  0  0
 16 15  1  0  0  0  0
 17 16  1  0  0  0  0
 18 17  1  0  0  0  0
 18 19  1  0  0  0  0
 19 14  1  0  0  0  0
 20 10  1  0  0  0  0
 21 12  1  0  0  0  0
M  END
>  <CHROM.1>
73.91482644,-63.27996618,-93.30795189,-3.35570420,10.47256213,-0.41160779
-2.66165806,0.81666251,-1.30855895

>  <Name>
lig.pdb

>  <RI>
4.07847e+07

>  <Rbt.Current_Directory>
/home/itssahil/PROJECTS/Mol_Feturizer/New_Systems/rnas/2lwk

>  <Rbt.Executable>
rbdock ($Id: //depot/dev/client3/rdock/2013.1/src/exe/rbdock.cxx#4 $)

>  <Rbt.Library>
libRbt.so (2013.1, Build901 2013/11/27)

>  <Rbt.Parameter_File>
/export/apps/rDock/src/rDock_2013.1_src/data/scripts/dock_solv.prm

>  <Rbt.Receptor>
prm/blind_docking_20.prm

>  <SCORE>
-11.24

>  <SCORE.INTER>
-8.89073

>  <SCORE.INTER.CONST>
1

>  <SCORE.INTER.POLAR>
-0.927047

>  <SCORE.INTER.ROT>
3

>  <SCORE.INTER.SOLV>
11.4905

>  <SCORE.INTER.VDW>
-12.2671

>  <SCORE.INTER.norm>
-0.423368

>  <SCORE.INTRA>
-4.29066

>  <SCORE.INTRA.DIHEDRAL>
-0.752739

>  <SCORE.INTRA.DIHEDRAL.0>
8.84257

>  <SCORE.INTRA.POLAR>
0

>  <SCORE.INTRA.POLAR.0>
0

>  <SCORE.INTRA.REPUL>
0

>  <SCORE.INTRA.REPUL.0>
0

>  <SCORE.INTRA.SOLV>
0.0601386

>  <SCORE.INTRA.SOLV.lig_0>
-17.1313

>  <SCORE.INTRA.VDW>
-3.94436

>  <SCORE.INTRA.VDW.0>
6.34071

>  <SCORE.INTRA.norm>
-0.204317

>  <SCORE.RESTR>
1.94135

>  <SCORE.RESTR.CAVITY>
1.94135

>  <SCORE.RESTR.norm>
0.0924451

>  <SCORE.SYSTEM>
0

>  <SCORE.SYSTEM.CONST>
0

>  <SCORE.SYSTEM.DIHEDRAL>
0

>  <SCORE.SYSTEM.SOLV>
0

>  <SCORE.SYSTEM.norm>
0

>  <SCORE.heavy>
21

>  <SCORE.norm>
-0.53524

>  <RMSD>
13.466

$$$$
lig.pdb
 OpenBabel11021811453D
libRbt.so/2013.1/901 2013/11/27
 21 23  0  0  0  0  0  0  0  0999 V2000
   -4.1040   10.9768    1.3519 C   0  0  0  0  0  0  0  0  0  0  0  0
   -4.0178   11.1401    0.0365 N   0  0  0  0  0  0  0  0  0  0  0  0
   -3.1675   10.4123   -0.6649 C   0  0  0  0  0  0  0  0  0  0  0  0
   -2.3394    9.5541   -0.0358 C   0  0  0  0  0  0  0  0  0  0  0  0
   -2.4317    9.3893    1.2906 C   0  0  0  0  0  0  0  0  0  0  0  0
   -1.6140    8.5472    1.9212 N   0  0  0  0  0  0  0  0  0  0  0  0
   -3.3139   10.1052    1.9802 N   0  0  0  0  0  0  0  0  0  0  0  0
   -3.1030   10.5669   -1.9979 C   0  0  0  0  0  0  0  0  0  0  0  0
   -2.1019    9.9445   -2.6926 C   0  0  0  0  0  0  0  0  0  0  0  0
   -1.4883   10.6619   -3.7471 O   0  0  0  0  0  0  0  0  0  0  0  0
   -1.4219    8.9574   -2.0865 C   0  0  0  0  0  0  0  0  0  0  0  0
   -0.7288    7.9960   -2.8697 O   0  0  0  0  0  0  0  0  0  0  0  0
   -1.4614    8.8315   -0.7455 C   0  0  0  0  0  0  0  0  0  0  0  0
   -4.9700   11.6989    2.0417 N   0  0  0  0  0  0  0  0  0  0  0  0
   -6.2574   11.3618    1.9185 C   0  0  0  0  0  0  0  0  0  0  0  0
   -6.8203   11.9179    0.6193 C   0  0  0  0  0  0  0  0  0  0  0  0
   -6.7288   13.2944    0.6266 N   0  0  0  0  0  0  0  0  0  0  0  0
   -5.3910   13.6128    0.7127 C   0  0  0  0  0  0  0  0  0  0  0  0
   -4.8269   13.0625    2.0120 C   0  0  0  0  0  0  0  0  0  0  0  0
   -2.4604   10.9077   -4.7309 C   0  0  0  0  0  0  0  0  0  0  0  0
   -1.5658    6.8863   -3.0657 C   0  0  0  0  0  0  0  0  0  0  0  0
  1 14  1  0  0  0  0
  1  2  2  0  0  0  0
  3  2  1  0  0  0  0
  3  8  2  0  0  0  0
  4  3  1  0  0  0  0
  5  7  2  0  0  0  0
  5  4  1  0  0  0  0
  6  5  1  0  0  0  0
  7  1  1  0  0  0  0
  9 10  1  0  0  0  0
  9  8  1  0  0  0  0
 11  9  2  0  0  0  0
 12 11  1  0  0  0  0
 13  4  2  0  0  0  0
 13 11  1  0  0  0  0
 14 15  1  0  0  0  0
 16 15  1  0  0  0  0
 17 16  1  0  0  0  0
 18 17  1  0  0  0  0
 18 19  1  0  0  0  0
 19 14  1  0  0  0  0
 20 10  1  0  0  0  0
 21 12  1  0  0  0  0
M  END
>  <CHROM.1>
73.84864044,-63.56233760,-93.97139423,-3.34697207,10.46752954,-0.41811766
-2.65603020,0.81430080,-1.31077332

>  <Name>
lig.pdb

>  <RI>
3.07369e+07

>  <Rbt.Current_Directory>
/home/itssahil/PROJECTS/Mol_Feturizer/New_Systems/rnas/2lwk

>  <Rbt.Executable>
rbdock ($Id: //depot/dev/client3/rdock/2013.1/src/exe/rbdock.cxx#4 $)

>  <Rbt.Library>
libRbt.so (2013.1, Build901 2013/11/27)

>  <Rbt.Parameter_File>
/export/apps/rDock/src/rDock_2013.1_src/data/scripts/dock_solv.prm

>  <Rbt.Receptor>
prm/blind_docking_100.prm

>  <SCORE>
-11.1734

>  <SCORE.INTER>
-8.77475

>  <SCORE.INTER.CONST>
1

>  <SCORE.INTER.POLAR>
-0.928841

>  <SCORE.INTER.ROT>
3

>  <SCORE.INTER.SOLV>
11.545

>  <SCORE.INTER.VDW>
-12.202

>  <SCORE.INTER.norm>
-0.417845

>  <SCORE.INTRA>
-4.31288

>  <SCORE.INTRA.DIHEDRAL>
-0.742454

>  <SCORE.INTRA.DIHEDRAL.0>
8.84257

>  <SCORE.INTRA.POLAR>
0

>  <SCORE.INTRA.POLAR.0>
0

>  <SCORE.INTRA.REPUL>
0

>  <SCORE.INTRA.REPUL.0>
0

>  <SCORE.INTRA.SOLV>
0.0600194

>  <SCORE.INTRA.SOLV.lig_0>
-17.1313

>  <SCORE.INTRA.VDW>
-3.97167

>  <SCORE.INTRA.VDW.0>
6.34071

>  <SCORE.INTRA.norm>
-0.205375

>  <SCORE.RESTR>
1.91425

>  <SCORE.RESTR.CAVITY>
1.91425

>  <SCORE.RESTR.norm>
0.0911547

>  <SCORE.SYSTEM>
0

>  <SCORE.SYSTEM.CONST>
0

>  <SCORE.SYSTEM.DIHEDRAL>
0

>  <SCORE.SYSTEM.SOLV>
0

>  <SCORE.SYSTEM.norm>
0

>  <SCORE.heavy>
21

>  <SCORE.norm>
-0.532066

>  <RMSD>
13.468

$$$$
lig.pdb
 OpenBabel11021811453D
libRbt.so/2013.1/901 2013/11/27
 21 23  0  0  0  0  0  0  0  0999 V2000
   -4.1020   10.9763    1.3548 C   0  0  0  0  0  0  0  0  0  0  0  0
   -4.0175   11.1351    0.0388 N   0  0  0  0  0  0  0  0  0  0  0  0
   -3.1666   10.4062   -0.6609 C   0  0  0  0  0  0  0  0  0  0  0  0
   -2.3364    9.5517   -0.0296 C   0  0  0  0  0  0  0  0  0  0  0  0
   -2.4271    9.3916    1.2974 C   0  0  0  0  0  0  0  0  0  0  0  0
   -1.6072    8.5532    1.9302 N   0  0  0  0  0  0  0  0  0  0  0  0
   -3.3097   10.1084    1.9855 N   0  0  0  0  0  0  0  0  0  0  0  0
   -3.1038   10.5562   -1.9945 C   0  0  0  0  0  0  0  0  0  0  0  0
   -2.1023    9.9331   -2.6881 C   0  0  0  0  0  0  0  0  0  0  0  0
   -1.4911   10.6477   -3.7458 O   0  0  0  0  0  0  0  0  0  0  0  0
   -1.4200    8.9493   -2.0791 C   0  0  0  0  0  0  0  0  0  0  0  0
   -0.7260    7.9863   -2.8596 O   0  0  0  0  0  0  0  0  0  0  0  0
   -1.4579    8.8282   -0.7377 C   0  0  0  0  0  0  0  0  0  0  0  0
   -4.9685   11.6994    2.0429 N   0  0  0  0  0  0  0  0  0  0  0  0
   -6.2579   11.3783    1.8996 C   0  0  0  0  0  0  0  0  0  0  0  0
   -6.7983   11.9569    0.6007 C   0  0  0  0  0  0  0  0  0  0  0  0
   -6.6918   13.3321    0.6265 N   0  0  0  0  0  0  0  0  0  0  0  0
   -5.3517   13.6344    0.7332 C   0  0  0  0  0  0  0  0  0  0  0  0
   -4.8100   13.0616    2.0323 C   0  0  0  0  0  0  0  0  0  0  0  0
   -2.4657   10.8921   -4.7274 C   0  0  0  0  0  0  0  0  0  0  0  0
   -1.5814    6.8995   -3.0995 C   0  0  0  0  0  0  0  0  0  0  0  0
  1 14  1  0  0  0  0
  1  2  2  0  0  0  0
  3  2  1  0  0  0  0
  3  8  2  0  0  0  0
  4  3  1  0  0  0  0
  5  7  2  0  0  0  0
  5  4  1  0  0  0  0
  6  5  1  0  0  0  0
  7  1  1  0  0  0  0
  9 10  1  0  0  0  0
  9  8  1  0  0  0  0
 11  9  2  0  0  0  0
 12 11  1  0  0  0  0
 13  4  2  0  0  0  0
 13 11  1  0  0  0  0
 14 15  1  0  0  0  0
 16 15  1  0  0  0  0
 17 16  1  0  0  0  0
 18 17  1  0  0  0  0
 18 19  1  0  0  0  0
 19 14  1  0  0  0  0
 20 10  1  0  0  0  0
 21 12  1  0  0  0  0
M  END
>  <CHROM.1>
72.43392441,-63.37785846,-91.45682623,-3.34109968,10.47028372,-0.41615709
-2.65110400,0.81736922,-1.31797177

>  <Name>
lig.pdb

>  <RI>
1.99026e+07

>  <Rbt.Current_Directory>
/home/itssahil/PROJECTS/Mol_Feturizer/New_Systems/rnas/2lwk

>  <Rbt.Executable>
rbdock ($Id: //depot/dev/client3/rdock/2013.1/src/exe/rbdock.cxx#4 $)

>  <Rbt.Library>
libRbt.so (2013.1, Build901 2013/11/27)

>  <Rbt.Parameter_File>
/export/apps/rDock/src/rDock_2013.1_src/data/scripts/dock_solv.prm

>  <Rbt.Receptor>
prm/blind_docking_60.prm

>  <SCORE>
-11.0112

>  <SCORE.INTER>
-8.54697

>  <SCORE.INTER.CONST>
1

>  <SCORE.INTER.POLAR>
-0.930142

>  <SCORE.INTER.ROT>
3

>  <SCORE.INTER.SOLV>
11.5811

>  <SCORE.INTER.VDW>
-12.0579

>  <SCORE.INTER.norm>
-0.406999

>  <SCORE.INTRA>
-4.33454

>  <SCORE.INTRA.DIHEDRAL>
-0.721301

>  <SCORE.INTRA.DIHEDRAL.0>
8.84257

>  <SCORE.INTRA.POLAR>
0

>  <SCORE.INTRA.POLAR.0>
0

>  <SCORE.INTRA.REPUL>
0

>  <SCORE.INTRA.REPUL.0>
0

>  <SCORE.INTRA.SOLV>
0.0618722

>  <SCORE.INTRA.SOLV.lig_0>
-17.1313

>  <SCORE.INTRA.VDW>
-4.00483

>  <SCORE.INTRA.VDW.0>
6.34071

>  <SCORE.INTRA.norm>
-0.206407

>  <SCORE.RESTR>
1.87034

>  <SCORE.RESTR.CAVITY>
1.87034

>  <SCORE.RESTR.norm>
0.089064

>  <SCORE.SYSTEM>
0

>  <SCORE.SYSTEM.CONST>
0

>  <SCORE.SYSTEM.DIHEDRAL>
0

>  <SCORE.SYSTEM.SOLV>
0

>  <SCORE.SYSTEM.norm>
0

>  <SCORE.heavy>
21

>  <SCORE.norm>
-0.524341

>  <RMSD>
13.468

$$$$
lig.pdb
 OpenBabel11021811453D
libRbt.so/2013.1/901 2013/11/27
 21 23  0  0  0  0  0  0  0  0999 V2000
   -4.1185   10.9930    1.3476 C   0  0  0  0  0  0  0  0  0  0  0  0
   -4.0259   11.1517    0.0321 N   0  0  0  0  0  0  0  0  0  0  0  0
   -3.1774   10.4163   -0.6636 C   0  0  0  0  0  0  0  0  0  0  0  0
   -2.3574    9.5547   -0.0285 C   0  0  0  0  0  0  0  0  0  0  0  0
   -2.4563    9.3947    1.2980 C   0  0  0  0  0  0  0  0  0  0  0  0
   -1.6465    8.5493    1.9346 N   0  0  0  0  0  0  0  0  0  0  0  0
   -3.3366   10.1183    1.9818 N   0  0  0  0  0  0  0  0  0  0  0  0
   -3.1064   10.5664   -1.9967 C   0  0  0  0  0  0  0  0  0  0  0  0
   -2.1065    9.9355   -2.6855 C   0  0  0  0  0  0  0  0  0  0  0  0
   -1.4840   10.6457   -3.7396 O   0  0  0  0  0  0  0  0  0  0  0  0
   -1.4353    8.9459   -2.0735 C   0  0  0  0  0  0  0  0  0  0  0  0
   -0.7452    7.9776   -2.8510 O   0  0  0  0  0  0  0  0  0  0  0  0
   -1.4812    8.8244   -0.7324 C   0  0  0  0  0  0  0  0  0  0  0  0
   -4.9827   11.7227    2.0316 N   0  0  0  0  0  0  0  0  0  0  0  0
   -6.2729   11.4033    1.8921 C   0  0  0  0  0  0  0  0  0  0  0  0
   -6.8138   11.9738    0.5898 C   0  0  0  0  0  0  0  0  0  0  0  0
   -6.7043   13.3489    0.6057 N   0  0  0  0  0  0  0  0  0  0  0  0
   -5.3635   13.6492    0.7086 C   0  0  0  0  0  0  0  0  0  0  0  0
   -4.8214   13.0845    2.0111 C   0  0  0  0  0  0  0  0  0  0  0  0
   -2.4505   10.8949   -4.7280 C   0  0  0  0  0  0  0  0  0  0  0  0
   -1.5889    6.8733   -3.0479 C   0  0  0  0  0  0  0  0  0  0  0  0
  1 14  1  0  0  0  0
  1  2  2  0  0  0  0
  3  2  1  0  0  0  0
  3  8  2  0  0  0  0
  4  3  1  0  0  0  0
  5  7  2  0  0  0  0
  5  4  1  0  0  0  0
  6  5  1  0  0  0  0
  7  1  1  0  0  0  0
  9 10  1  0  0  0  0
  9  8  1  0  0  0  0
 11  9  2  0  0  0  0
 12 11  1  0  0  0  0
 13  4  2  0  0  0  0
 13 11  1  0  0  0  0
 14 15  1  0  0  0  0
 16 15  1  0  0  0  0
 17 16  1  0  0  0  0
 18 17  1  0  0  0  0
 18 19  1  0  0  0  0
 19 14  1  0  0  0  0
 20 10  1  0  0  0  0
 21 12  1  0  0  0  0
M  END
>  <CHROM.1>
73.10290551,-63.55442526,-93.92630420,-3.35440189,10.47702823,-0.41755011
-2.66499962,0.82215983,-1.30752260

>  <Name>
lig.pdb

>  <RI>
4.07847e+07

>  <Rbt.Current_Directory>
/home/itssahil/PROJECTS/Mol_Feturizer/New_Systems/rnas/2lwk

>  <Rbt.Executable>
rbdock ($Id: //depot/dev/client3/rdock/2013.1/src/exe/rbdock.cxx#4 $)

>  <Rbt.Library>
libRbt.so (2013.1, Build901 2013/11/27)

>  <Rbt.Parameter_File>
/export/apps/rDock/src/rDock_2013.1_src/data/scripts/dock_solv.prm

>  <Rbt.Receptor>
prm/blind_docking_20.prm

>  <SCORE>
-11.2098

>  <SCORE.INTER>
-8.82097

>  <SCORE.INTER.CONST>
1

>  <SCORE.INTER.POLAR>
-0.921496

>  <SCORE.INTER.ROT>
3

>  <SCORE.INTER.SOLV>
11.4621

>  <SCORE.INTER.VDW>
-12.2297

>  <SCORE.INTER.norm>
-0.420046

>  <SCORE.INTRA>
-4.31652

>  <SCORE.INTRA.DIHEDRAL>
-0.741897

>  <SCORE.INTRA.DIHEDRAL.0>
8.84257

>  <SCORE.INTRA.POLAR>
0

>  <SCORE.INTRA.POLAR.0>
0

>  <SCORE.INTRA.REPUL>
0

>  <SCORE.INTRA.REPUL.0>
0

>  <SCORE.INTRA.SOLV>
0.0603596

>  <SCORE.INTRA.SOLV.lig_0>
-17.1313

>  <SCORE.INTRA.VDW>
-3.97575

>  <SCORE.INTRA.VDW.0>
6.34071

>  <SCORE.INTRA.norm>
-0.205549

>  <SCORE.RESTR>
1.92772

>  <SCORE.RESTR.CAVITY>
1.92772

>  <SCORE.RESTR.norm>
0.0917963

>  <SCORE.SYSTEM>
0

>  <SCORE.SYSTEM.CONST>
0

>  <SCORE.SYSTEM.DIHEDRAL>
0

>  <SCORE.SYSTEM.SOLV>
0

>  <SCORE.SYSTEM.norm>
0

>  <SCORE.heavy>
21

>  <SCORE.norm>
-0.533798

>  <RMSD>
13.470

$$$$
lig.pdb
 OpenBabel11021811453D
libRbt.so/2013.1/901 2013/11/27
 21 23  0  0  0  0  0  0  0  0999 V2000
   -4.1134   10.9899    1.3457 C   0  0  0  0  0  0  0  0  0  0  0  0
   -4.0213   11.1468    0.0299 N   0  0  0  0  0  0  0  0  0  0  0  0
   -3.1717   10.4117   -0.6648 C   0  0  0  0  0  0  0  0  0  0  0  0
   -2.3502    9.5525   -0.0284 C   0  0  0  0  0  0  0  0  0  0  0  0
   -2.4486    9.3943    1.2983 C   0  0  0  0  0  0  0  0  0  0  0  0
   -1.6374    8.5512    1.9361 N   0  0  0  0  0  0  0  0  0  0  0  0
   -3.3300   10.1175    1.9812 N   0  0  0  0  0  0  0  0  0  0  0  0
   -3.1011   10.5599   -1.9981 C   0  0  0  0  0  0  0  0  0  0  0  0
   -2.1003    9.9296   -2.6860 C   0  0  0  0  0  0  0  0  0  0  0  0
   -1.4791   10.6391   -3.7414 O   0  0  0  0  0  0  0  0  0  0  0  0
   -1.4274    8.9420   -2.0727 C   0  0  0  0  0  0  0  0  0  0  0  0
   -0.7358    7.9737   -2.8487 O   0  0  0  0  0  0  0  0  0  0  0  0
   -1.4729    8.8225   -0.7313 C   0  0  0  0  0  0  0  0  0  0  0  0
   -4.9787   11.7193    2.0287 N   0  0  0  0  0  0  0  0  0  0  0  0
   -6.2689   11.4024    1.8842 C   0  0  0  0  0  0  0  0  0  0  0  0
   -6.8046   11.9771    0.5816 C   0  0  0  0  0  0  0  0  0  0  0  0
   -6.6929   13.3519    0.6013 N   0  0  0  0  0  0  0  0  0  0  0  0
   -5.3520   13.6498    0.7094 C   0  0  0  0  0  0  0  0  0  0  0  0
   -4.8151   13.0809    2.0122 C   0  0  0  0  0  0  0  0  0  0  0  0
   -2.4507   10.9025   -4.7211 C   0  0  0  0  0  0  0  0  0  0  0  0
   -1.5789    6.8689   -3.0464 C   0  0  0  0  0  0  0  0  0  0  0  0
  1 14  1  0  0  0  0
  1  2  2  0  0  0  0
  3  2  1  0  0  0  0
  3  8  2  0  0  0  0
  4  3  1  0  0  0  0
  5  7  2  0  0  0  0
  5  4  1  0  0  0  0
  6  5  1  0  0  0  0
  7  1  1  0  0  0  0
  9 10  1  0  0  0  0
  9  8  1  0  0  0  0
 11  9  2  0  0  0  0
 12 11  1  0  0  0  0
 13  4  2  0  0  0  0
 13 11  1  0  0  0  0
 14 15  1  0  0  0  0
 16 15  1  0  0  0  0
 17 16  1  0  0  0  0
 18 17  1  0  0  0  0
 18 19  1  0  0  0  0
 19 14  1  0  0  0  0
 20 10  1  0  0  0  0
 21 12  1  0  0  0  0
M  END
>  <CHROM.1>
72.74481007,-62.69924477,-93.79195677,-3.34749854,10.47519235,-0.41830662
-2.66554597,0.82212565,-1.30850214

>  <Name>
lig.pdb

>  <RI>
4.07847e+07

>  <Rbt.Current_Directory>
/home/itssahil/PROJECTS/Mol_Feturizer/New_Systems/rnas/2lwk

>  <Rbt.Executable>
rbdock ($Id: //depot/dev/client3/rdock/2013.1/src/exe/rbdock.cxx#4 $)

>  <Rbt.Library>
libRbt.so (2013.1, Build901 2013/11/27)

>  <Rbt.Parameter_File>
/export/apps/rDock/src/rDock_2013.1_src/data/scripts/dock_solv.prm

>  <Rbt.Receptor>
prm/blind_docking_20.prm

>  <SCORE>
-11.1556

>  <SCORE.INTER>
-8.81794

>  <SCORE.INTER.CONST>
1

>  <SCORE.INTER.POLAR>
-0.920531

>  <SCORE.INTER.ROT>
3

>  <SCORE.INTER.SOLV>
11.4851

>  <SCORE.INTER.VDW>
-12.2386

>  <SCORE.INTER.norm>
-0.419902

>  <SCORE.INTRA>
-4.25137

>  <SCORE.INTRA.DIHEDRAL>
-0.803291

>  <SCORE.INTRA.DIHEDRAL.0>
8.84257

>  <SCORE.INTRA.POLAR>
0

>  <SCORE.INTRA.POLAR.0>
0

>  <SCORE.INTRA.REPUL>
0

>  <SCORE.INTRA.REPUL.0>
0

>  <SCORE.INTRA.SOLV>
0.0599229

>  <SCORE.INTRA.SOLV.lig_0>
-17.1313

>  <SCORE.INTRA.VDW>
-3.87969

>  <SCORE.INTRA.VDW.0>
6.34071

>  <SCORE.INTRA.norm>
-0.202446

>  <SCORE.RESTR>
1.91367

>  <SCORE.RESTR.CAVITY>
1.91367

>  <SCORE.RESTR.norm>
0.0911271

>  <SCORE.SYSTEM>
0

>  <SCORE.SYSTEM.CONST>
0

>  <SCORE.SYSTEM.DIHEDRAL>
0

>  <SCORE.SYSTEM.SOLV>
0

>  <SCORE.SYSTEM.norm>
0

>  <SCORE.heavy>
21

>  <SCORE.norm>
-0.531221

>  <RMSD>
13.470

$$$$
lig.pdb
 OpenBabel11021811453D
libRbt.so/2013.1/901 2013/11/27
 21 23  0  0  0  0  0  0  0  0999 V2000
   -4.1060   10.9818    1.3524 C   0  0  0  0  0  0  0  0  0  0  0  0
   -4.0179   11.1417    0.0368 N   0  0  0  0  0  0  0  0  0  0  0  0
   -3.1660   10.4124   -0.6613 C   0  0  0  0  0  0  0  0  0  0  0  0
   -2.3385    9.5563   -0.0285 C   0  0  0  0  0  0  0  0  0  0  0  0
   -2.4328    9.3952    1.2981 C   0  0  0  0  0  0  0  0  0  0  0  0
   -1.6156    8.5553    1.9324 N   0  0  0  0  0  0  0  0  0  0  0  0
   -3.3164   10.1124    1.9845 N   0  0  0  0  0  0  0  0  0  0  0  0
   -3.0995   10.5634   -1.9945 C   0  0  0  0  0  0  0  0  0  0  0  0
   -2.0970    9.9397   -2.6860 C   0  0  0  0  0  0  0  0  0  0  0  0
   -1.4821   10.6545   -3.7415 O   0  0  0  0  0  0  0  0  0  0  0  0
   -1.4174    8.9546   -2.0761 C   0  0  0  0  0  0  0  0  0  0  0  0
   -0.7225    7.9914   -2.8556 O   0  0  0  0  0  0  0  0  0  0  0  0
   -1.4590    8.8324   -0.7349 C   0  0  0  0  0  0  0  0  0  0  0  0
   -4.9735   11.7053    2.0389 N   0  0  0  0  0  0  0  0  0  0  0  0
   -6.2611   11.3708    1.9101 C   0  0  0  0  0  0  0  0  0  0  0  0
   -6.8173   11.9287    0.6089 C   0  0  0  0  0  0  0  0  0  0  0  0
   -6.7232   13.3049    0.6171 N   0  0  0  0  0  0  0  0  0  0  0  0
   -5.3852   13.6207    0.7091 C   0  0  0  0  0  0  0  0  0  0  0  0
   -4.8277   13.0687    2.0105 C   0  0  0  0  0  0  0  0  0  0  0  0
   -2.4502   10.8878   -4.7323 C   0  0  0  0  0  0  0  0  0  0  0  0
   -1.5716    6.8967   -3.0811 C   0  0  0  0  0  0  0  0  0  0  0  0
  1 14  1  0  0  0  0
  1  2  2  0  0  0  0
  3  2  1  0  0  0  0
  3  8  2  0  0  0  0
  4  3  1  0  0  0  0
  5  7  2  0  0  0  0
  5  4  1  0  0  0  0
  6  5  1  0  0  0  0
  7  1  1  0  0  0  0
  9 10  1  0  0  0  0
  9  8  1  0  0  0  0
 11  9  2  0  0  0  0
 12 11  1  0  0  0  0
 13  4  2  0  0  0  0
 13 11  1  0  0  0  0
 14 15  1  0  0  0  0
 16 15  1  0  0  0  0
 17 16  1  0  0  0  0
 18 17  1  0  0  0  0
 18 19  1  0  0  0  0
 19 14  1  0  0  0  0
 20 10  1  0  0  0  0
 21 12  1  0  0  0  0
M  END
>  <CHROM.1>
73.57007436,-64.02669433,-92.36056686,-3.34533471,10.46985665,-0.41672754
-2.65479808,0.81377364,-1.31439851

>  <Name>
lig.pdb

>  <RI>
4.07847e+07

>  <Rbt.Current_Directory>
/home/itssahil/PROJECTS/Mol_Feturizer/New_Systems/rnas/2lwk

>  <Rbt.Executable>
rbdock ($Id: //depot/dev/client3/rdock/2013.1/src/exe/rbdock.cxx#4 $)

>  <Rbt.Library>
libRbt.so (2013.1, Build901 2013/11/27)

>  <Rbt.Parameter_File>
/export/apps/rDock/src/rDock_2013.1_src/data/scripts/dock_solv.prm

>  <Rbt.Receptor>
prm/blind_docking_20.prm

>  <SCORE>
-11.149

>  <SCORE.INTER>
-8.6903

>  <SCORE.INTER.CONST>
1

>  <SCORE.INTER.POLAR>
-0.925294

>  <SCORE.INTER.ROT>
3

>  <SCORE.INTER.SOLV>
11.572

>  <SCORE.INTER.VDW>
-12.1666

>  <SCORE.INTER.norm>
-0.413824

>  <SCORE.INTRA>
-4.36671

>  <SCORE.INTRA.DIHEDRAL>
-0.683836

>  <SCORE.INTRA.DIHEDRAL.0>
8.84257

>  <SCORE.INTRA.POLAR>
0

>  <SCORE.INTRA.POLAR.0>
0

>  <SCORE.INTRA.REPUL>
0

>  <SCORE.INTRA.REPUL.0>
0

>  <SCORE.INTRA.SOLV>
0.0613963

>  <SCORE.INTRA.SOLV.lig_0>
-17.1313

>  <SCORE.INTRA.VDW>
-4.05549

>  <SCORE.INTRA.VDW.0>
6.34071

>  <SCORE.INTRA.norm>
-0.207939

>  <SCORE.RESTR>
1.90805

>  <SCORE.RESTR.CAVITY>
1.90805

>  <SCORE.RESTR.norm>
0.0908596

>  <SCORE.SYSTEM>
0

>  <SCORE.SYSTEM.CONST>
0

>  <SCORE.SYSTEM.DIHEDRAL>
0

>  <SCORE.SYSTEM.SOLV>
0

>  <SCORE.SYSTEM.norm>
0

>  <SCORE.heavy>
21

>  <SCORE.norm>
-0.530903

>  <RMSD>
13.470

$$$$
lig.pdb
 OpenBabel11021811453D
libRbt.so/2013.1/901 2013/11/27
 21 23  0  0  0  0  0  0  0  0999 V2000
   -4.1044   10.9854    1.3502 C   0  0  0  0  0  0  0  0  0  0  0  0
   -4.0194   11.1416    0.0339 N   0  0  0  0  0  0  0  0  0  0  0  0
   -3.1683   10.4113   -0.6641 C   0  0  0  0  0  0  0  0  0  0  0  0
   -2.3385    9.5579   -0.0308 C   0  0  0  0  0  0  0  0  0  0  0  0
   -2.4297    9.4003    1.2965 C   0  0  0  0  0  0  0  0  0  0  0  0
   -1.6102    8.5630    1.9313 N   0  0  0  0  0  0  0  0  0  0  0  0
   -3.3125   10.1185    1.9828 N   0  0  0  0  0  0  0  0  0  0  0  0
   -3.1050   10.5587   -1.9979 C   0  0  0  0  0  0  0  0  0  0  0  0
   -2.1033    9.9340   -2.6899 C   0  0  0  0  0  0  0  0  0  0  0  0
   -1.4916   10.6466   -3.7487 O   0  0  0  0  0  0  0  0  0  0  0  0
   -1.4213    8.9513   -2.0788 C   0  0  0  0  0  0  0  0  0  0  0  0
   -0.7272    7.9867   -2.8572 O   0  0  0  0  0  0  0  0  0  0  0  0
   -1.4598    8.8328   -0.7371 C   0  0  0  0  0  0  0  0  0  0  0  0
   -4.9711   11.7099    2.0366 N   0  0  0  0  0  0  0  0  0  0  0  0
   -6.2591   11.3774    1.9071 C   0  0  0  0  0  0  0  0  0  0  0  0
   -6.8139   11.9367    0.6058 C   0  0  0  0  0  0  0  0  0  0  0  0
   -6.7177   13.3128    0.6147 N   0  0  0  0  0  0  0  0  0  0  0  0
   -5.3793   13.6264    0.7074 C   0  0  0  0  0  0  0  0  0  0  0  0
   -4.8232   13.0730    2.0088 C   0  0  0  0  0  0  0  0  0  0  0  0
   -2.4676   10.8960   -4.7277 C   0  0  0  0  0  0  0  0  0  0  0  0
   -1.5819    6.8986   -3.0933 C   0  0  0  0  0  0  0  0  0  0  0  0
  1 14  1  0  0  0  0
  1  2  2  0  0  0  0
  3  2  1  0  0  0  0
  3  8  2  0  0  0  0
  4  3  1  0  0  0  0
  5  7  2  0  0  0  0
  5  4  1  0  0  0  0
  6  5  1  0  0  0  0
  7  1  1  0  0  0  0
  9 10  1  0  0  0  0
  9  8  1  0  0  0  0
 11  9  2  0  0  0  0
 12 11  1  0  0  0  0
 13  4  2  0  0  0  0
 13 11  1  0  0  0  0
 14 15  1  0  0  0  0
 16 15  1  0  0  0  0
 17 16  1  0  0  0  0
 18 17  1  0  0  0  0
 18 19  1  0  0  0  0
 19 14  1  0  0  0  0
 20 10  1  0  0  0  0
 21 12  1  0  0  0  0
M  END
>  <CHROM.1>
73.28830067,-63.03605309,-91.55796057,-3.34656849,10.47206402,-0.41947974
-2.65152809,0.81437150,-1.31924984

>  <Name>
lig.pdb

>  <RI>
1.99026e+07

>  <Rbt.Current_Directory>
/home/itssahil/PROJECTS/Mol_Feturizer/New_Systems/rnas/2lwk

>  <Rbt.Executable>
rbdock ($Id: //depot/dev/client3/rdock/2013.1/src/exe/rbdock.cxx#4 $)

>  <Rbt.Library>
libRbt.so (2013.1, Build901 2013/11/27)

>  <Rbt.Parameter_File>
/export/apps/rDock/src/rDock_2013.1_src/data/scripts/dock_solv.prm

>  <Rbt.Receptor>
prm/blind_docking_60.prm

>  <SCORE>
-11.1666

>  <SCORE.INTER>
-8.76901

>  <SCORE.INTER.CONST>
1

>  <SCORE.INTER.POLAR>
-0.927162

>  <SCORE.INTER.ROT>
3

>  <SCORE.INTER.SOLV>
11.5591

>  <SCORE.INTER.VDW>
-12.2085

>  <SCORE.INTER.norm>
-0.417572

>  <SCORE.INTRA>
-4.30261

>  <SCORE.INTRA.DIHEDRAL>
-0.748258

>  <SCORE.INTRA.DIHEDRAL.0>
8.84257

>  <SCORE.INTRA.POLAR>
0

>  <SCORE.INTRA.POLAR.0>
0

>  <SCORE.INTRA.REPUL>
0

>  <SCORE.INTRA.REPUL.0>
0

>  <SCORE.INTRA.SOLV>
0.0612145

>  <SCORE.INTRA.SOLV.lig_0>
-17.1313

>  <SCORE.INTRA.VDW>
-3.95909

>  <SCORE.INTRA.VDW.0>
6.34071

>  <SCORE.INTRA.norm>
-0.204886

>  <SCORE.RESTR>
1.90504

>  <SCORE.RESTR.CAVITY>
1.90504

>  <SCORE.RESTR.norm>
0.0907161

>  <SCORE.SYSTEM>
0

>  <SCORE.SYSTEM.CONST>
0

>  <SCORE.SYSTEM.DIHEDRAL>
0

>  <SCORE.SYSTEM.SOLV>
0

>  <SCORE.SYSTEM.norm>
0

>  <SCORE.heavy>
21

>  <SCORE.norm>
-0.531742

>  <RMSD>
13.470

$$$$
lig.pdb
 OpenBabel11021811453D
libRbt.so/2013.1/901 2013/11/27
 21 23  0  0  0  0  0  0  0  0999 V2000
   -4.1187   10.9928    1.3453 C   0  0  0  0  0  0  0  0  0  0  0  0
   -4.0258   11.1492    0.0295 N   0  0  0  0  0  0  0  0  0  0  0  0
   -3.1756   10.4139   -0.6643 C   0  0  0  0  0  0  0  0  0  0  0  0
   -2.3545    9.5550   -0.0270 C   0  0  0  0  0  0  0  0  0  0  0  0
   -2.4537    9.3974    1.2997 C   0  0  0  0  0  0  0  0  0  0  0  0
   -1.6428    8.5547    1.9383 N   0  0  0  0  0  0  0  0  0  0  0  0
   -3.3356   10.1208    1.9817 N   0  0  0  0  0  0  0  0  0  0  0  0
   -3.1043   10.5615   -1.9977 C   0  0  0  0  0  0  0  0  0  0  0  0
   -2.1029    9.9310   -2.6847 C   0  0  0  0  0  0  0  0  0  0  0  0
   -1.4812   10.6402   -3.7399 O   0  0  0  0  0  0  0  0  0  0  0  0
   -1.4303    8.9437   -2.0705 C   0  0  0  0  0  0  0  0  0  0  0  0
   -0.7381    7.9752   -2.8457 O   0  0  0  0  0  0  0  0  0  0  0  0
   -1.4766    8.8248   -0.7291 C   0  0  0  0  0  0  0  0  0  0  0  0
   -4.9845   11.7224    2.0274 N   0  0  0  0  0  0  0  0  0  0  0  0
   -6.2748   11.4062    1.8810 C   0  0  0  0  0  0  0  0  0  0  0  0
   -6.8083   11.9819    0.5779 C   0  0  0  0  0  0  0  0  0  0  0  0
   -6.6959   13.3566    0.5984 N   0  0  0  0  0  0  0  0  0  0  0  0
   -5.3550   13.6537    0.7085 C   0  0  0  0  0  0  0  0  0  0  0  0
   -4.8202   13.0839    2.0118 C   0  0  0  0  0  0  0  0  0  0  0  0
   -2.4511   10.8990   -4.7224 C   0  0  0  0  0  0  0  0  0  0  0  0
   -1.5814    6.8708   -3.0446 C   0  0  0  0  0  0  0  0  0  0  0  0
  1 14  1  0  0  0  0
  1  2  2  0  0  0  0
  3  2  1  0  0  0  0
  3  8  2  0  0  0  0
  4  3  1  0  0  0  0
  5  7  2  0  0  0  0
  5  4  1  0  0  0  0
  6  5  1  0  0  0  0
  7  1  1  0  0  0  0
  9 10  1  0  0  0  0
  9  8  1  0  0  0  0
 11  9  2  0  0  0  0
 12 11  1  0  0  0  0
 13  4  2  0  0  0  0
 13 11  1  0  0  0  0
 14 15  1  0  0  0  0
 16 15  1  0  0  0  0
 17 16  1  0  0  0  0
 18 17  1  0  0  0  0
 18 19  1  0  0  0  0
 19 14  1  0  0  0  0
 20 10  1  0  0  0  0
 21 12  1  0  0  0  0
M  END
>  <CHROM.1>
72.66721153,-62.89662921,-93.73129400,-3.35129296,10.47761679,-0.41812908
-2.66607981,0.82205205,-1.30861838

>  <Name>
lig.pdb

>  <RI>
4.07847e+07

>  <Rbt.Current_Directory>
/home/itssahil/PROJECTS/Mol_Feturizer/New_Systems/rnas/2lwk

>  <Rbt.Executable>
rbdock ($Id: //depot/dev/client3/rdock/2013.1/src/exe/rbdock.cxx#4 $)

>  <Rbt.Library>
libRbt.so (2013.1, Build901 2013/11/27)

>  <Rbt.Parameter_File>
/export/apps/rDock/src/rDock_2013.1_src/data/scripts/dock_solv.prm

>  <Rbt.Receptor>
prm/blind_docking_20.prm

>  <SCORE>
-11.2009

>  <SCORE.INTER>
-8.85806

>  <SCORE.INTER.CONST>
1

>  <SCORE.INTER.POLAR>
-0.920057

>  <SCORE.INTER.ROT>
3

>  <SCORE.INTER.SOLV>
11.4686

>  <SCORE.INTER.VDW>
-12.2614

>  <SCORE.INTER.norm>
-0.421812

>  <SCORE.INTRA>
-4.26888

>  <SCORE.INTRA.DIHEDRAL>
-0.787474

>  <SCORE.INTRA.DIHEDRAL.0>
8.84257

>  <SCORE.INTRA.POLAR>
0

>  <SCORE.INTRA.POLAR.0>
0

>  <SCORE.INTRA.REPUL>
0

>  <SCORE.INTRA.REPUL.0>
0

>  <SCORE.INTRA.SOLV>
0.0601366

>  <SCORE.INTRA.SOLV.lig_0>
-17.1313

>  <SCORE.INTRA.VDW>
-3.90521

>  <SCORE.INTRA.VDW.0>
6.34071

>  <SCORE.INTRA.norm>
-0.20328

>  <SCORE.RESTR>
1.92601

>  <SCORE.RESTR.CAVITY>
1.92601

>  <SCORE.RESTR.norm>
0.0917147

>  <SCORE.SYSTEM>
0

>  <SCORE.SYSTEM.CONST>
0

>  <SCORE.SYSTEM.DIHEDRAL>
0

>  <SCORE.SYSTEM.SOLV>
0

>  <SCORE.SYSTEM.norm>
0

>  <SCORE.heavy>
21

>  <SCORE.norm>
-0.533377

>  <RMSD>
13.471

$$$$
lig.pdb
 OpenBabel11021811453D
libRbt.so/2013.1/901 2013/11/27
 21 23  0  0  0  0  0  0  0  0999 V2000
   -4.1060   10.9896    1.3483 C   0  0  0  0  0  0  0  0  0  0  0  0
   -4.0208   11.1445    0.0319 N   0  0  0  0  0  0  0  0  0  0  0  0
   -3.1693   10.4137   -0.6651 C   0  0  0  0  0  0  0  0  0  0  0  0
   -2.3393    9.5612   -0.0307 C   0  0  0  0  0  0  0  0  0  0  0  0
   -2.4308    9.4050    1.2967 C   0  0  0  0  0  0  0  0  0  0  0  0
   -1.6111    8.5687    1.9326 N   0  0  0  0  0  0  0  0  0  0  0  0
   -3.3140   10.1237    1.9821 N   0  0  0  0  0  0  0  0  0  0  0  0
   -3.1057   10.5597   -1.9991 C   0  0  0  0  0  0  0  0  0  0  0  0
   -2.1037    9.9346   -2.6902 C   0  0  0  0  0  0  0  0  0  0  0  0
   -1.4919   10.6462   -3.7497 O   0  0  0  0  0  0  0  0  0  0  0  0
   -1.4215    8.9528   -2.0779 C   0  0  0  0  0  0  0  0  0  0  0  0
   -0.7269    7.9876   -2.8551 O   0  0  0  0  0  0  0  0  0  0  0  0
   -1.4602    8.8357   -0.7361 C   0  0  0  0  0  0  0  0  0  0  0  0
   -4.9731   11.7146    2.0337 N   0  0  0  0  0  0  0  0  0  0  0  0
   -6.2614   11.3848    1.9003 C   0  0  0  0  0  0  0  0  0  0  0  0
   -6.8117   11.9475    0.5985 C   0  0  0  0  0  0  0  0  0  0  0  0
   -6.7128   13.3234    0.6102 N   0  0  0  0  0  0  0  0  0  0  0  0
   -5.3741   13.6343    0.7069 C   0  0  0  0  0  0  0  0  0  0  0  0
   -4.8224   13.0775    2.0088 C   0  0  0  0  0  0  0  0  0  0  0  0
   -2.4674   10.8929   -4.7298 C   0  0  0  0  0  0  0  0  0  0  0  0
   -1.5735    6.8890   -3.0710 C   0  0  0  0  0  0  0  0  0  0  0  0
  1 14  1  0  0  0  0
  1  2  2  0  0  0  0
  3  2  1  0  0  0  0
  3  8  2  0  0  0  0
  4  3  1  0  0  0  0
  5  7  2  0  0  0  0
  5  4  1  0  0  0  0
  6  5  1  0  0  0  0
  7  1  1  0  0  0  0
  9 10  1  0  0  0  0
  9  8  1  0  0  0  0
 11  9  2  0  0  0  0
 12 11  1  0  0  0  0
 13  4  2  0  0  0  0
 13 11  1  0  0  0  0
 14 15  1  0  0  0  0
 16 15  1  0  0  0  0
 17 16  1  0  0  0  0
 18 17  1  0  0  0  0
 18 19  1  0  0  0  0
 19 14  1  0  0  0  0
 20 10  1  0  0  0  0
 21 12  1  0  0  0  0
M  END
>  <CHROM.1>
73.03829303,-63.10868638,-92.54492926,-3.34613848,10.47528441,-0.41960078
-2.65365149,0.81522319,-1.31901763

>  <Name>
lig.pdb

>  <RI>
4.07847e+07

>  <Rbt.Current_Directory>
/home/itssahil/PROJECTS/Mol_Feturizer/New_Systems/rnas/2lwk

>  <Rbt.Executable>
rbdock ($Id: //depot/dev/client3/rdock/2013.1/src/exe/rbdock.cxx#4 $)

>  <Rbt.Library>
libRbt.so (2013.1, Build901 2013/11/27)

>  <Rbt.Parameter_File>
/export/apps/rDock/src/rDock_2013.1_src/data/scripts/dock_solv.prm

>  <Rbt.Receptor>
prm/blind_docking_20.prm

>  <SCORE>
-11.1783

>  <SCORE.INTER>
-8.79406

>  <SCORE.INTER.CONST>
1

>  <SCORE.INTER.POLAR>
-0.924595

>  <SCORE.INTER.ROT>
3

>  <SCORE.INTER.SOLV>
11.5534

>  <SCORE.INTER.VDW>
-12.2319

>  <SCORE.INTER.norm>
-0.418765

>  <SCORE.INTRA>
-4.29388

>  <SCORE.INTRA.DIHEDRAL>
-0.754241

>  <SCORE.INTRA.DIHEDRAL.0>
8.84257

>  <SCORE.INTRA.POLAR>
0

>  <SCORE.INTRA.POLAR.0>
0

>  <SCORE.INTRA.REPUL>
0

>  <SCORE.INTRA.REPUL.0>
0

>  <SCORE.INTRA.SOLV>
0.0608122

>  <SCORE.INTRA.SOLV.lig_0>
-17.1313

>  <SCORE.INTRA.VDW>
-3.94716

>  <SCORE.INTRA.VDW.0>
6.34071

>  <SCORE.INTRA.norm>
-0.20447

>  <SCORE.RESTR>
1.90966

>  <SCORE.RESTR.CAVITY>
1.90966

>  <SCORE.RESTR.norm>
0.0909362

>  <SCORE.SYSTEM>
0

>  <SCORE.SYSTEM.CONST>
0

>  <SCORE.SYSTEM.DIHEDRAL>
0

>  <SCORE.SYSTEM.SOLV>
0

>  <SCORE.SYSTEM.norm>
0

>  <SCORE.heavy>
21

>  <SCORE.norm>
-0.532299

>  <RMSD>
13.473

$$$$
lig.pdb
 OpenBabel11021811453D
libRbt.so/2013.1/901 2013/11/27
 21 23  0  0  0  0  0  0  0  0999 V2000
   -4.1045   10.9836    1.3495 C   0  0  0  0  0  0  0  0  0  0  0  0
   -4.0185   11.1416    0.0335 N   0  0  0  0  0  0  0  0  0  0  0  0
   -3.1672   10.4120   -0.6649 C   0  0  0  0  0  0  0  0  0  0  0  0
   -2.3381    9.5574   -0.0321 C   0  0  0  0  0  0  0  0  0  0  0  0
   -2.4303    9.3980    1.2949 C   0  0  0  0  0  0  0  0  0  0  0  0
   -1.6116    8.5595    1.9290 N   0  0  0  0  0  0  0  0  0  0  0  0
   -3.3134   10.1156    1.9816 N   0  0  0  0  0  0  0  0  0  0  0  0
   -3.1028   10.5612   -1.9984 C   0  0  0  0  0  0  0  0  0  0  0  0
   -2.1009    9.9372   -2.6905 C   0  0  0  0  0  0  0  0  0  0  0  0
   -1.4882   10.6510   -3.7480 O   0  0  0  0  0  0  0  0  0  0  0  0
   -1.4197    8.9534   -2.0803 C   0  0  0  0  0  0  0  0  0  0  0  0
   -0.7254    7.9897   -2.8596 O   0  0  0  0  0  0  0  0  0  0  0  0
   -1.4592    8.8330   -0.7389 C   0  0  0  0  0  0  0  0  0  0  0  0
   -4.9715   11.7074    2.0363 N   0  0  0  0  0  0  0  0  0  0  0  0
   -6.2603   11.3817    1.8980 C   0  0  0  0  0  0  0  0  0  0  0  0
   -6.8059   11.9522    0.5977 C   0  0  0  0  0  0  0  0  0  0  0  0
   -6.7034   13.3277    0.6163 N   0  0  0  0  0  0  0  0  0  0  0  0
   -5.3641   13.6347    0.7180 C   0  0  0  0  0  0  0  0  0  0  0  0
   -4.8172   13.0700    2.0185 C   0  0  0  0  0  0  0  0  0  0  0  0
   -2.4599   10.8892   -4.7340 C   0  0  0  0  0  0  0  0  0  0  0  0
   -1.5803    6.9021   -3.0977 C   0  0  0  0  0  0  0  0  0  0  0  0
  1 14  1  0  0  0  0
  1  2  2  0  0  0  0
  3  2  1  0  0  0  0
  3  8  2  0  0  0  0
  4  3  1  0  0  0  0
  5  7  2  0  0  0  0
  5  4  1  0  0  0  0
  6  5  1  0  0  0  0
  7  1  1  0  0  0  0
  9 10  1  0  0  0  0
  9  8  1  0  0  0  0
 11  9  2  0  0  0  0
 12 11  1  0  0  0  0
 13  4  2  0  0  0  0
 13 11  1  0  0  0  0
 14 15  1  0  0  0  0
 16 15  1  0  0  0  0
 17 16  1  0  0  0  0
 18 17  1  0  0  0  0
 18 19  1  0  0  0  0
 19 14  1  0  0  0  0
 20 10  1  0  0  0  0
 21 12  1  0  0  0  0
M  END
>  <CHROM.1>
72.82559541,-63.68119877,-91.56326324,-3.34347218,10.47401709,-0.42048511
-2.65222015,0.81607427,-1.31767044

>  <Name>
lig.pdb

>  <RI>
1.99026e+07

>  <Rbt.Current_Directory>
/home/itssahil/PROJECTS/Mol_Feturizer/New_Systems/rnas/2lwk

>  <Rbt.Executable>
rbdock ($Id: //depot/dev/client3/rdock/2013.1/src/exe/rbdock.cxx#4 $)

>  <Rbt.Library>
libRbt.so (2013.1, Build901 2013/11/27)

>  <Rbt.Parameter_File>
/export/apps/rDock/src/rDock_2013.1_src/data/scripts/dock_solv.prm

>  <Rbt.Receptor>
prm/blind_docking_60.prm

>  <SCORE>
-11.0858

>  <SCORE.INTER>
-8.61553

>  <SCORE.INTER.CONST>
1

>  <SCORE.INTER.POLAR>
-0.926317

>  <SCORE.INTER.ROT>
3

>  <SCORE.INTER.SOLV>
11.5746

>  <SCORE.INTER.VDW>
-12.1142

>  <SCORE.INTER.norm>
-0.410263

>  <SCORE.INTRA>
-4.3556

>  <SCORE.INTRA.DIHEDRAL>
-0.699999

>  <SCORE.INTRA.DIHEDRAL.0>
8.84257

>  <SCORE.INTRA.POLAR>
0

>  <SCORE.INTRA.POLAR.0>
0

>  <SCORE.INTRA.REPUL>
0

>  <SCORE.INTRA.REPUL.0>
0

>  <SCORE.INTRA.SOLV>
0.0618935

>  <SCORE.INTRA.SOLV.lig_0>
-17.1313

>  <SCORE.INTRA.VDW>
-4.03655

>  <SCORE.INTRA.VDW.0>
6.34071

>  <SCORE.INTRA.norm>
-0.207409

>  <SCORE.RESTR>
1.88534

>  <SCORE.RESTR.CAVITY>
1.88534

>  <SCORE.RESTR.norm>
0.0897781

>  <SCORE.SYSTEM>
0

>  <SCORE.SYSTEM.CONST>
0

>  <SCORE.SYSTEM.DIHEDRAL>
0

>  <SCORE.SYSTEM.SOLV>
0

>  <SCORE.SYSTEM.norm>
0

>  <SCORE.heavy>
21

>  <SCORE.norm>
-0.527895

>  <RMSD>
13.473

$$$$
lig.pdb
 OpenBabel11021811453D
libRbt.so/2013.1/901 2013/11/27
 21 23  0  0  0  0  0  0  0  0999 V2000
   -4.1086   10.9856    1.3503 C   0  0  0  0  0  0  0  0  0  0  0  0
   -4.0205   11.1433    0.0344 N   0  0  0  0  0  0  0  0  0  0  0  0
   -3.1684   10.4132   -0.6626 C   0  0  0  0  0  0  0  0  0  0  0  0
   -2.3406    9.5584   -0.0284 C   0  0  0  0  0  0  0  0  0  0  0  0
   -2.4349    9.3994    1.2985 C   0  0  0  0  0  0  0  0  0  0  0  0
   -1.6174    8.5607    1.9341 N   0  0  0  0  0  0  0  0  0  0  0  0
   -3.3187   10.1174    1.9837 N   0  0  0  0  0  0  0  0  0  0  0  0
   -3.1019   10.5621   -1.9960 C   0  0  0  0  0  0  0  0  0  0  0  0
   -2.0992    9.9376   -2.6865 C   0  0  0  0  0  0  0  0  0  0  0  0
   -1.4846   10.6510   -3.7432 O   0  0  0  0  0  0  0  0  0  0  0  0
   -1.4193    8.9537   -2.0751 C   0  0  0  0  0  0  0  0  0  0  0  0
   -0.7241    7.9895   -2.8530 O   0  0  0  0  0  0  0  0  0  0  0  0
   -1.4608    8.8336   -0.7337 C   0  0  0  0  0  0  0  0  0  0  0  0
   -4.9763   11.7099    2.0356 N   0  0  0  0  0  0  0  0  0  0  0  0
   -6.2647   11.3826    1.8978 C   0  0  0  0  0  0  0  0  0  0  0  0
   -6.8108   11.9500    0.5963 C   0  0  0  0  0  0  0  0  0  0  0  0
   -6.7097   13.3258    0.6123 N   0  0  0  0  0  0  0  0  0  0  0  0
   -5.3707   13.6342    0.7135 C   0  0  0  0  0  0  0  0  0  0  0  0
   -4.8234   13.0726    2.0151 C   0  0  0  0  0  0  0  0  0  0  0  0
   -2.4557   10.8932   -4.7287 C   0  0  0  0  0  0  0  0  0  0  0  0
   -1.5765    6.8988   -3.0858 C   0  0  0  0  0  0  0  0  0  0  0  0
  1 14  1  0  0  0  0
  1  2  2  0  0  0  0
  3  2  1  0  0  0  0
  3  8  2  0  0  0  0
  4  3  1  0  0  0  0
  5  7  2  0  0  0  0
  5  4  1  0  0  0  0
  6  5  1  0  0  0  0
  7  1  1  0  0  0  0
  9 10  1  0  0  0  0
  9  8  1  0  0  0  0
 11  9  2  0  0  0  0
 12 11  1  0  0  0  0
 13  4  2  0  0  0  0
 13 11  1  0  0  0  0
 14 15  1  0  0  0  0
 16 15  1  0  0  0  0
 17 16  1  0  0  0  0
 18 17  1  0  0  0  0
 18 19  1  0  0  0  0
 19 14  1  0  0  0  0
 20 10  1  0  0  0  0
 21 12  1  0  0  0  0
M  END
>  <CHROM.1>
72.97629708,-63.48764806,-91.89828291,-3.34555298,10.47466535,-0.41809020
-2.65523439,0.81565584,-1.31563847

>  <Name>
lig.pdb

>  <RI>
1.99026e+07

>  <Rbt.Current_Directory>
/home/itssahil/PROJECTS/Mol_Feturizer/New_Systems/rnas/2lwk

>  <Rbt.Executable>
rbdock ($Id: //depot/dev/client3/rdock/2013.1/src/exe/rbdock.cxx#4 $)

>  <Rbt.Library>
libRbt.so (2013.1, Build901 2013/11/27)

>  <Rbt.Parameter_File>
/export/apps/rDock/src/rDock_2013.1_src/data/scripts/dock_solv.prm

>  <Rbt.Receptor>
prm/blind_docking_60.prm

>  <SCORE>
-11.1436

>  <SCORE.INTER>
-8.7095

>  <SCORE.INTER.CONST>
1

>  <SCORE.INTER.POLAR>
-0.925287

>  <SCORE.INTER.ROT>
3

>  <SCORE.INTER.SOLV>
11.5621

>  <SCORE.INTER.VDW>
-12.1761

>  <SCORE.INTER.norm>
-0.414738

>  <SCORE.INTRA>
-4.3347

>  <SCORE.INTRA.DIHEDRAL>
-0.718079

>  <SCORE.INTRA.DIHEDRAL.0>
8.84257

>  <SCORE.INTRA.POLAR>
0

>  <SCORE.INTRA.POLAR.0>
0

>  <SCORE.INTRA.REPUL>
0

>  <SCORE.INTRA.REPUL.0>
0

>  <SCORE.INTRA.SOLV>
0.0614935

>  <SCORE.INTRA.SOLV.lig_0>
-17.1313

>  <SCORE.INTRA.VDW>
-4.0064

>  <SCORE.INTRA.VDW.0>
6.34071

>  <SCORE.INTRA.norm>
-0.206414

>  <SCORE.RESTR>
1.90059

>  <SCORE.RESTR.CAVITY>
1.90059

>  <SCORE.RESTR.norm>
0.0905043

>  <SCORE.SYSTEM>
0

>  <SCORE.SYSTEM.CONST>
0

>  <SCORE.SYSTEM.DIHEDRAL>
0

>  <SCORE.SYSTEM.SOLV>
0

>  <SCORE.SYSTEM.norm>
0

>  <SCORE.heavy>
21

>  <SCORE.norm>
-0.530648

>  <RMSD>
13.473

$$$$
lig.pdb
 OpenBabel11021811453D
libRbt.so/2013.1/901 2013/11/27
 21 23  0  0  0  0  0  0  0  0999 V2000
   -4.1052   10.9866    1.3495 C   0  0  0  0  0  0  0  0  0  0  0  0
   -4.0195   11.1466    0.0337 N   0  0  0  0  0  0  0  0  0  0  0  0
   -3.1690   10.4174   -0.6661 C   0  0  0  0  0  0  0  0  0  0  0  0
   -2.3403    9.5612   -0.0349 C   0  0  0  0  0  0  0  0  0  0  0  0
   -2.4322    9.3999    1.2919 C   0  0  0  0  0  0  0  0  0  0  0  0
   -1.6138    8.5598    1.9245 N   0  0  0  0  0  0  0  0  0  0  0  0
   -3.3145   10.1170    1.9799 N   0  0  0  0  0  0  0  0  0  0  0  0
   -3.1049   10.5686   -1.9994 C   0  0  0  0  0  0  0  0  0  0  0  0
   -2.1037    9.9450   -2.6928 C   0  0  0  0  0  0  0  0  0  0  0  0
   -1.4908   10.6600   -3.7494 O   0  0  0  0  0  0  0  0  0  0  0  0
   -1.4230    8.9598   -2.0844 C   0  0  0  0  0  0  0  0  0  0  0  0
   -0.7296    7.9967   -2.8653 O   0  0  0  0  0  0  0  0  0  0  0  0
   -1.4621    8.8374   -0.7431 C   0  0  0  0  0  0  0  0  0  0  0  0
   -4.9714   11.7100    2.0377 N   0  0  0  0  0  0  0  0  0  0  0  0
   -6.2591   11.3748    1.9121 C   0  0  0  0  0  0  0  0  0  0  0  0
   -6.8187   11.9319    0.6119 C   0  0  0  0  0  0  0  0  0  0  0  0
   -6.7251   13.3082    0.6193 N   0  0  0  0  0  0  0  0  0  0  0  0
   -5.3871   13.6246    0.7080 C   0  0  0  0  0  0  0  0  0  0  0  0
   -4.8262   13.0734    2.0084 C   0  0  0  0  0  0  0  0  0  0  0  0
   -2.4571   10.8811   -4.7446 C   0  0  0  0  0  0  0  0  0  0  0  0
   -1.5720    6.8932   -3.0721 C   0  0  0  0  0  0  0  0  0  0  0  0
  1 14  1  0  0  0  0
  1  2  2  0  0  0  0
  3  2  1  0  0  0  0
  3  8  2  0  0  0  0
  4  3  1  0  0  0  0
  5  7  2  0  0  0  0
  5  4  1  0  0  0  0
  6  5  1  0  0  0  0
  7  1  1  0  0  0  0
  9 10  1  0  0  0  0
  9  8  1  0  0  0  0
 11  9  2  0  0  0  0
 12 11  1  0  0  0  0
 13  4  2  0  0  0  0
 13 11  1  0  0  0  0
 14 15  1  0  0  0  0
 16 15  1  0  0  0  0
 17 16  1  0  0  0  0
 18 17  1  0  0  0  0
 18 19  1  0  0  0  0
 19 14  1  0  0  0  0
 20 10  1  0  0  0  0
 21 12  1  0  0  0  0
M  END
>  <CHROM.1>
73.62191575,-64.64254486,-93.25208841,-3.34748339,10.47350679,-0.42059154
-2.65287552,0.81419771,-1.31591610

>  <Name>
lig.pdb

>  <RI>
1.05666e+07

>  <Rbt.Current_Directory>
/home/itssahil/PROJECTS/Mol_Feturizer/New_Systems/rnas/2lwk

>  <Rbt.Executable>
rbdock ($Id: //depot/dev/client3/rdock/2013.1/src/exe/rbdock.cxx#4 $)

>  <Rbt.Library>
libRbt.so (2013.1, Build901 2013/11/27)

>  <Rbt.Parameter_File>
/export/apps/rDock/src/rDock_2013.1_src/data/scripts/dock_solv.prm

>  <Rbt.Receptor>
prm/blind_docking_80.prm

>  <SCORE>
-11.1484

>  <SCORE.INTER>
-8.66157

>  <SCORE.INTER.CONST>
1

>  <SCORE.INTER.POLAR>
-0.925069

>  <SCORE.INTER.ROT>
3

>  <SCORE.INTER.SOLV>
11.5642

>  <SCORE.INTER.VDW>
-12.1456

>  <SCORE.INTER.norm>
-0.412456

>  <SCORE.INTRA>
-4.39788

>  <SCORE.INTRA.DIHEDRAL>
-0.650689

>  <SCORE.INTRA.DIHEDRAL.0>
8.84257

>  <SCORE.INTRA.POLAR>
0

>  <SCORE.INTRA.POLAR.0>
0

>  <SCORE.INTRA.REPUL>
0

>  <SCORE.INTRA.REPUL.0>
0

>  <SCORE.INTRA.SOLV>
0.0613508

>  <SCORE.INTRA.SOLV.lig_0>
-17.1313

>  <SCORE.INTRA.VDW>
-4.10321

>  <SCORE.INTRA.VDW.0>
6.34071

>  <SCORE.INTRA.norm>
-0.209423

>  <SCORE.RESTR>
1.91103

>  <SCORE.RESTR.CAVITY>
1.91103

>  <SCORE.RESTR.norm>
0.0910012

>  <SCORE.SYSTEM>
0

>  <SCORE.SYSTEM.CONST>
0

>  <SCORE.SYSTEM.DIHEDRAL>
0

>  <SCORE.SYSTEM.SOLV>
0

>  <SCORE.SYSTEM.norm>
0

>  <SCORE.heavy>
21

>  <SCORE.norm>
-0.530877

>  <RMSD>
13.473

$$$$
lig.pdb
 OpenBabel11021811453D
libRbt.so/2013.1/901 2013/11/27
 21 23  0  0  0  0  0  0  0  0999 V2000
   -4.1032   11.0001    1.3461 C   0  0  0  0  0  0  0  0  0  0  0  0
   -4.0182   11.1497    0.0291 N   0  0  0  0  0  0  0  0  0  0  0  0
   -3.1640   10.4191   -0.6647 C   0  0  0  0  0  0  0  0  0  0  0  0
   -2.3311    9.5723   -0.0265 C   0  0  0  0  0  0  0  0  0  0  0  0
   -2.4223    9.4214    1.3016 C   0  0  0  0  0  0  0  0  0  0  0  0
   -1.5998    8.5906    1.9411 N   0  0  0  0  0  0  0  0  0  0  0  0
   -3.3082   10.1397    1.9837 N   0  0  0  0  0  0  0  0  0  0  0  0
   -3.1006   10.5597   -1.9992 C   0  0  0  0  0  0  0  0  0  0  0  0
   -2.0962    9.9354   -2.6874 C   0  0  0  0  0  0  0  0  0  0  0  0
   -1.4868   10.6447   -3.7498 O   0  0  0  0  0  0  0  0  0  0  0  0
   -1.4106    8.9586   -2.0709 C   0  0  0  0  0  0  0  0  0  0  0  0
   -0.7123    7.9926   -2.8439 O   0  0  0  0  0  0  0  0  0  0  0  0
   -1.4492    8.8470   -0.7286 C   0  0  0  0  0  0  0  0  0  0  0  0
   -4.9731   11.7248    2.0283 N   0  0  0  0  0  0  0  0  0  0  0  0
   -6.2617   11.4023    1.8807 C   0  0  0  0  0  0  0  0  0  0  0  0
   -6.7971   11.9764    0.5777 C   0  0  0  0  0  0  0  0  0  0  0  0
   -6.6916   13.3517    0.5995 N   0  0  0  0  0  0  0  0  0  0  0  0
   -5.3522   13.6553    0.7108 C   0  0  0  0  0  0  0  0  0  0  0  0
   -4.8155   13.0871    2.0139 C   0  0  0  0  0  0  0  0  0  0  0  0
   -2.4651   10.8919   -4.7270 C   0  0  0  0  0  0  0  0  0  0  0  0
   -1.5603    6.8968   -3.0685 C   0  0  0  0  0  0  0  0  0  0  0  0
  1 14  1  0  0  0  0
  1  2  2  0  0  0  0
  3  2  1  0  0  0  0
  3  8  2  0  0  0  0
  4  3  1  0  0  0  0
  5  7  2  0  0  0  0
  5  4  1  0  0  0  0
  6  5  1  0  0  0  0
  7  1  1  0  0  0  0
  9 10  1  0  0  0  0
  9  8  1  0  0  0  0
 11  9  2  0  0  0  0
 12 11  1  0  0  0  0
 13  4  2  0  0  0  0
 13 11  1  0  0  0  0
 14 15  1  0  0  0  0
 16 15  1  0  0  0  0
 17 16  1  0  0  0  0
 18 17  1  0  0  0  0
 18 19  1  0  0  0  0
 19 14  1  0  0  0  0
 20 10  1  0  0  0  0
 21 12  1  0  0  0  0
M  END
>  <CHROM.1>
72.08996980,-62.70227389,-91.87014759,-3.33750014,10.48636080,-0.41959397
-2.65298054,0.81506690,-1.32376606

>  <Name>
lig.pdb

>  <RI>
4.07847e+07

>  <Rbt.Current_Directory>
/home/itssahil/PROJECTS/Mol_Feturizer/New_Systems/rnas/2lwk

>  <Rbt.Executable>
rbdock ($Id: //depot/dev/client3/rdock/2013.1/src/exe/rbdock.cxx#4 $)

>  <Rbt.Library>
libRbt.so (2013.1, Build901 2013/11/27)

>  <Rbt.Parameter_File>
/export/apps/rDock/src/rDock_2013.1_src/data/scripts/dock_solv.prm

>  <Rbt.Receptor>
prm/blind_docking_20.prm

>  <SCORE>
-11.0448

>  <SCORE.INTER>
-8.64893

>  <SCORE.INTER.CONST>
1

>  <SCORE.INTER.POLAR>
-0.917171

>  <SCORE.INTER.ROT>
3

>  <SCORE.INTER.SOLV>
11.6188

>  <SCORE.INTER.VDW>
-12.1817

>  <SCORE.INTER.norm>
-0.411854

>  <SCORE.INTRA>
-4.27438

>  <SCORE.INTRA.DIHEDRAL>
-0.77596

>  <SCORE.INTRA.DIHEDRAL.0>
8.84257

>  <SCORE.INTRA.POLAR>
0

>  <SCORE.INTRA.POLAR.0>
0

>  <SCORE.INTRA.REPUL>
0

>  <SCORE.INTRA.REPUL.0>
0

>  <SCORE.INTRA.SOLV>
0.0612448

>  <SCORE.INTRA.SOLV.lig_0>
-17.1313

>  <SCORE.INTRA.VDW>
-3.91702

>  <SCORE.INTRA.VDW.0>
6.34071

>  <SCORE.INTRA.norm>
-0.203542

>  <SCORE.RESTR>
1.87854

>  <SCORE.RESTR.CAVITY>
1.87854

>  <SCORE.RESTR.norm>
0.0894541

>  <SCORE.SYSTEM>
0

>  <SCORE.SYSTEM.CONST>
0

>  <SCORE.SYSTEM.DIHEDRAL>
0

>  <SCORE.SYSTEM.SOLV>
0

>  <SCORE.SYSTEM.norm>
0

>  <SCORE.heavy>
21

>  <SCORE.norm>
-0.525941

>  <RMSD>
13.484

$$$$
lig.pdb
 OpenBabel11021811453D
libRbt.so/2013.1/901 2013/11/27
 21 23  0  0  0  0  0  0  0  0999 V2000
   -3.8333   12.3191    0.7923 C   0  0  0  0  0  0  0  0  0  0  0  0
   -3.3499   11.2567    1.4262 N   0  0  0  0  0  0  0  0  0  0  0  0
   -2.7134   10.3173    0.7500 C   0  0  0  0  0  0  0  0  0  0  0  0
   -2.6161   10.4045   -0.5920 C   0  0  0  0  0  0  0  0  0  0  0  0
   -3.1017   11.4794   -1.2275 C   0  0  0  0  0  0  0  0  0  0  0  0
   -3.0145   11.5715   -2.5540 N   0  0  0  0  0  0  0  0  0  0  0  0
   -3.7119   12.4326   -0.5310 N   0  0  0  0  0  0  0  0  0  0  0  0
   -2.2070    9.2574    1.4018 C   0  0  0  0  0  0  0  0  0  0  0  0
   -1.7099    8.2069    0.6795 C   0  0  0  0  0  0  0  0  0  0  0  0
   -1.9790    6.8993    1.1495 O   0  0  0  0  0  0  0  0  0  0  0  0
   -1.4473    8.3955   -0.6242 C   0  0  0  0  0  0  0  0  0  0  0  0
   -0.5296    7.5385   -1.2887 O   0  0  0  0  0  0  0  0  0  0  0  0
   -1.9892    9.4402   -1.2803 C   0  0  0  0  0  0  0  0  0  0  0  0
   -4.4541   13.2609    1.4813 N   0  0  0  0  0  0  0  0  0  0  0  0
   -5.7672   13.0948    1.6668 C   0  0  0  0  0  0  0  0  0  0  0  0
   -6.5269   13.5031    0.4137 C   0  0  0  0  0  0  0  0  0  0  0  0
   -6.2901   14.8347    0.1418 N   0  0  0  0  0  0  0  0  0  0  0  0
   -4.9378   14.9693   -0.0853 C   0  0  0  0  0  0  0  0  0  0  0  0
   -4.1762   14.5665    1.1665 C   0  0  0  0  0  0  0  0  0  0  0  0
   -0.8987    6.4927    1.9500 C   0  0  0  0  0  0  0  0  0  0  0  0
   -1.2119    6.8463   -2.3015 C   0  0  0  0  0  0  0  0  0  0  0  0
  1 14  1  0  0  0  0
  1  2  2  0  0  0  0
  3  2  1  0  0  0  0
  3  8  2  0  0  0  0
  4  3  1  0  0  0  0
  5  7  2  0  0  0  0
  5  4  1  0  0  0  0
  6  5  1  0  0  0  0
  7  1  1  0  0  0  0
  9 10  1  0  0  0  0
  9  8  1  0  0  0  0
 11  9  2  0  0  0  0
 12 11  1  0  0  0  0
 13  4  2  0  0  0  0
 13 11  1  0  0  0  0
 14 15  1  0  0  0  0
 16 15  1  0  0  0  0
 17 16  1  0  0  0  0
 18 17  1  0  0  0  0
 18 19  1  0  0  0  0
 19 14  1  0  0  0  0
 20 10  1  0  0  0  0
 21 12  1  0  0  0  0
M  END
>  <CHROM.1>
-87.99842056,-93.84236561,117.27007676,-3.16744187,10.79353108,0.10302038
2.92478754,1.01372116,-1.20956199

>  <Name>
lig.pdb

>  <RI>
4.07847e+07

>  <Rbt.Current_Directory>
/home/itssahil/PROJECTS/Mol_Feturizer/New_Systems/rnas/2lwk

>  <Rbt.Executable>
rbdock ($Id: //depot/dev/client3/rdock/2013.1/src/exe/rbdock.cxx#4 $)

>  <Rbt.Library>
libRbt.so (2013.1, Build901 2013/11/27)

>  <Rbt.Parameter_File>
/export/apps/rDock/src/rDock_2013.1_src/data/scripts/dock_solv.prm

>  <Rbt.Receptor>
prm/blind_docking_20.prm

>  <SCORE>
-9.75679

>  <SCORE.INTER>
-7.12252

>  <SCORE.INTER.CONST>
1

>  <SCORE.INTER.POLAR>
0

>  <SCORE.INTER.ROT>
3

>  <SCORE.INTER.SOLV>
8.06645

>  <SCORE.INTER.VDW>
-13.0372

>  <SCORE.INTER.norm>
-0.339168

>  <SCORE.INTRA>
-4.71011

>  <SCORE.INTRA.DIHEDRAL>
0.0590704

>  <SCORE.INTRA.DIHEDRAL.0>
8.84257

>  <SCORE.INTRA.POLAR>
0

>  <SCORE.INTRA.POLAR.0>
0

>  <SCORE.INTRA.REPUL>
0

>  <SCORE.INTRA.REPUL.0>
0

>  <SCORE.INTRA.SOLV>
0.103738

>  <SCORE.INTRA.SOLV.lig_0>
-17.1313

>  <SCORE.INTRA.VDW>
-4.79152

>  <SCORE.INTRA.VDW.0>
6.34071

>  <SCORE.INTRA.norm>
-0.224291

>  <SCORE.RESTR>
2.07584

>  <SCORE.RESTR.CAVITY>
2.07584

>  <SCORE.RESTR.norm>
0.0988496

>  <SCORE.SYSTEM>
0

>  <SCORE.SYSTEM.CONST>
0

>  <SCORE.SYSTEM.DIHEDRAL>
0

>  <SCORE.SYSTEM.SOLV>
0

>  <SCORE.SYSTEM.norm>
0

>  <SCORE.heavy>
21

>  <SCORE.norm>
-0.464609

>  <RMSD>
13.488

$$$$
lig.pdb
 OpenBabel11021811453D
libRbt.so/2013.1/901 2013/11/27
 21 23  0  0  0  0  0  0  0  0999 V2000
   -3.9335   12.3935    1.2129 C   0  0  0  0  0  0  0  0  0  0  0  0
   -3.5878   11.2968    1.8777 N   0  0  0  0  0  0  0  0  0  0  0  0
   -2.8887   10.3521    1.2748 C   0  0  0  0  0  0  0  0  0  0  0  0
   -2.5866   10.4713   -0.0339 C   0  0  0  0  0  0  0  0  0  0  0  0
   -2.9338   11.5806   -0.7001 C   0  0  0  0  0  0  0  0  0  0  0  0
   -2.6440   11.7047   -1.9948 N   0  0  0  0  0  0  0  0  0  0  0  0
   -3.6096   12.5376   -0.0728 N   0  0  0  0  0  0  0  0  0  0  0  0
   -2.5229    9.2565    1.9608 C   0  0  0  0  0  0  0  0  0  0  0  0
   -1.9582    8.2073    1.2879 C   0  0  0  0  0  0  0  0  0  0  0  0
   -2.3394    6.8989    1.6699 O   0  0  0  0  0  0  0  0  0  0  0  0
   -1.4952    8.4205    0.0451 C   0  0  0  0  0  0  0  0  0  0  0  0
   -0.5173    7.5469   -0.5013 O   0  0  0  0  0  0  0  0  0  0  0  0
   -1.8960    9.5023   -0.6509 C   0  0  0  0  0  0  0  0  0  0  0  0
   -4.6190   13.3398    1.8308 N   0  0  0  0  0  0  0  0  0  0  0  0
   -5.8079   13.6523    1.3062 C   0  0  0  0  0  0  0  0  0  0  0  0
   -5.6235   14.5642    0.1027 C   0  0  0  0  0  0  0  0  0  0  0  0
   -5.0006   15.7305    0.4963 N   0  0  0  0  0  0  0  0  0  0  0  0
   -3.7636   15.3830    0.9941 C   0  0  0  0  0  0  0  0  0  0  0  0
   -3.9446   14.4757    2.1995 C   0  0  0  0  0  0  0  0  0  0  0  0
   -1.2076    6.2490    2.1893 C   0  0  0  0  0  0  0  0  0  0  0  0
   -1.0653    6.9006   -1.6203 C   0  0  0  0  0  0  0  0  0  0  0  0
  1 14  1  0  0  0  0
  1  2  2  0  0  0  0
  3  2  1  0  0  0  0
  3  8  2  0  0  0  0
  4  3  1  0  0  0  0
  5  7  2  0  0  0  0
  5  4  1  0  0  0  0
  6  5  1  0  0  0  0
  7  1  1  0  0  0  0
  9 10  1  0  0  0  0
  9  8  1  0  0  0  0
 11  9  2  0  0  0  0
 12 11  1  0  0  0  0
 13  4  2  0  0  0  0
 13 11  1  0  0  0  0
 14 15  1  0  0  0  0
 16 15  1  0  0  0  0
 17 16  1  0  0  0  0
 18 17  1  0  0  0  0
 18 19  1  0  0  0  0
 19 14  1  0  0  0  0
 20 10  1  0  0  0  0
 21 12  1  0  0  0  0
M  END
>  <CHROM.1>
-121.03768211,-115.40412912,116.79880655,-3.03755728,10.95834720,0.59401104
2.65524329,1.07684094,-0.96260298

>  <Name>
lig.pdb

>  <RI>
4.07847e+07

>  <Rbt.Current_Directory>
/home/itssahil/PROJECTS/Mol_Feturizer/New_Systems/rnas/2lwk

>  <Rbt.Executable>
rbdock ($Id: //depot/dev/client3/rdock/2013.1/src/exe/rbdock.cxx#4 $)

>  <Rbt.Library>
libRbt.so (2013.1, Build901 2013/11/27)

>  <Rbt.Parameter_File>
/export/apps/rDock/src/rDock_2013.1_src/data/scripts/dock_solv.prm

>  <Rbt.Receptor>
prm/blind_docking_20.prm

>  <SCORE>
8.58037

>  <SCORE.INTER>
12.3594

>  <SCORE.INTER.CONST>
1

>  <SCORE.INTER.POLAR>
-0.454353

>  <SCORE.INTER.ROT>
3

>  <SCORE.INTER.SOLV>
9.91825

>  <SCORE.INTER.VDW>
0.848015

>  <SCORE.INTER.norm>
0.588542

>  <SCORE.INTRA>
-4.88972

>  <SCORE.INTRA.DIHEDRAL>
-0.0595643

>  <SCORE.INTRA.DIHEDRAL.0>
8.84257

>  <SCORE.INTRA.POLAR>
0

>  <SCORE.INTRA.POLAR.0>
0

>  <SCORE.INTRA.REPUL>
0

>  <SCORE.INTRA.REPUL.0>
0

>  <SCORE.INTRA.SOLV>
0.133093

>  <SCORE.INTRA.SOLV.lig_0>
-17.1313

>  <SCORE.INTRA.VDW>
-4.92648

>  <SCORE.INTRA.VDW.0>
6.34071

>  <SCORE.INTRA.norm>
-0.232844

>  <SCORE.RESTR>
1.1107

>  <SCORE.RESTR.CAVITY>
1.1107

>  <SCORE.RESTR.norm>
0.0528904

>  <SCORE.SYSTEM>
0

>  <SCORE.SYSTEM.CONST>
0

>  <SCORE.SYSTEM.DIHEDRAL>
0

>  <SCORE.SYSTEM.SOLV>
0

>  <SCORE.SYSTEM.norm>
0

>  <SCORE.heavy>
21

>  <SCORE.norm>
0.408589

>  <RMSD>
13.492

$$$$
lig.pdb
 OpenBabel11021811453D
libRbt.so/2013.1/901 2013/11/27
 21 23  0  0  0  0  0  0  0  0999 V2000
   -3.7369   12.2139    0.7190 C   0  0  0  0  0  0  0  0  0  0  0  0
   -3.1984   11.1542    1.3117 N   0  0  0  0  0  0  0  0  0  0  0  0
   -2.5787   10.2378    0.5898 C   0  0  0  0  0  0  0  0  0  0  0  0
   -2.5542   10.3445   -0.7541 C   0  0  0  0  0  0  0  0  0  0  0  0
   -3.0953   11.4166   -1.3481 C   0  0  0  0  0  0  0  0  0  0  0  0
   -3.0802   11.5277   -2.6759 N   0  0  0  0  0  0  0  0  0  0  0  0
   -3.6880   12.3472   -0.6072 N   0  0  0  0  0  0  0  0  0  0  0  0
   -2.0162    9.1809    1.1992 C   0  0  0  0  0  0  0  0  0  0  0  0
   -1.5358    8.1510    0.4371 C   0  0  0  0  0  0  0  0  0  0  0  0
   -1.7519    6.8319    0.9022 O   0  0  0  0  0  0  0  0  0  0  0  0
   -1.3464    8.3622   -0.8758 C   0  0  0  0  0  0  0  0  0  0  0  0
   -0.4471    7.5341   -1.5995 O   0  0  0  0  0  0  0  0  0  0  0  0
   -1.9443    9.4031   -1.4879 C   0  0  0  0  0  0  0  0  0  0  0  0
   -4.3404   13.1330    1.4527 N   0  0  0  0  0  0  0  0  0  0  0  0
   -5.6320   12.9235    1.7248 C   0  0  0  0  0  0  0  0  0  0  0  0
   -6.4867   13.3106    0.5275 C   0  0  0  0  0  0  0  0  0  0  0  0
   -6.3119   14.6499    0.2471 N   0  0  0  0  0  0  0  0  0  0  0  0
   -4.9829   14.8293   -0.0692 C   0  0  0  0  0  0  0  0  0  0  0  0
   -4.1266   14.4479    1.1269 C   0  0  0  0  0  0  0  0  0  0  0  0
   -0.5697    6.3870    1.5168 C   0  0  0  0  0  0  0  0  0  0  0  0
   -1.1838    6.7458   -2.4975 C   0  0  0  0  0  0  0  0  0  0  0  0
  1 14  1  0  0  0  0
  1  2  2  0  0  0  0
  3  2  1  0  0  0  0
  3  8  2  0  0  0  0
  4  3  1  0  0  0  0
  5  7  2  0  0  0  0
  5  4  1  0  0  0  0
  6  5  1  0  0  0  0
  7  1  1  0  0  0  0
  9 10  1  0  0  0  0
  9  8  1  0  0  0  0
 11  9  2  0  0  0  0
 12 11  1  0  0  0  0
 13  4  2  0  0  0  0
 13 11  1  0  0  0  0
 14 15  1  0  0  0  0
 16 15  1  0  0  0  0
 17 16  1  0  0  0  0
 18 17  1  0  0  0  0
 18 19  1  0  0  0  0
 19 14  1  0  0  0  0
 20 10  1  0  0  0  0
 21 12  1  0  0  0  0
M  END
>  <CHROM.1>
-86.83235984,-99.97828369,111.68076367,-3.07949157,10.69978684,-0.02552763
3.02935942,1.00825267,-1.28239092

>  <Name>
lig.pdb

>  <RI>
1.99026e+07

>  <Rbt.Current_Directory>
/home/itssahil/PROJECTS/Mol_Feturizer/New_Systems/rnas/2lwk

>  <Rbt.Executable>
rbdock ($Id: //depot/dev/client3/rdock/2013.1/src/exe/rbdock.cxx#4 $)

>  <Rbt.Library>
libRbt.so (2013.1, Build901 2013/11/27)

>  <Rbt.Parameter_File>
/export/apps/rDock/src/rDock_2013.1_src/data/scripts/dock_solv.prm

>  <Rbt.Receptor>
prm/blind_docking_60.prm

>  <SCORE>
-9.37538

>  <SCORE.INTER>
-6.39073

>  <SCORE.INTER.CONST>
1

>  <SCORE.INTER.POLAR>
0

>  <SCORE.INTER.ROT>
3

>  <SCORE.INTER.SOLV>
8.52467

>  <SCORE.INTER.VDW>
-12.702

>  <SCORE.INTER.norm>
-0.304321

>  <SCORE.INTRA>
-4.92017

>  <SCORE.INTRA.DIHEDRAL>
0.475122

>  <SCORE.INTRA.DIHEDRAL.0>
8.84257

>  <SCORE.INTRA.POLAR>
0

>  <SCORE.INTRA.POLAR.0>
0

>  <SCORE.INTRA.REPUL>
0

>  <SCORE.INTRA.REPUL.0>
0

>  <SCORE.INTRA.SOLV>
0.113373

>  <SCORE.INTRA.SOLV.lig_0>
-17.1313

>  <SCORE.INTRA.VDW>
-5.21442

>  <SCORE.INTRA.VDW.0>
6.34071

>  <SCORE.INTRA.norm>
-0.234294

>  <SCORE.RESTR>
1.93552

>  <SCORE.RESTR.CAVITY>
1.93552

>  <SCORE.RESTR.norm>
0.0921677

>  <SCORE.SYSTEM>
0

>  <SCORE.SYSTEM.CONST>
0

>  <SCORE.SYSTEM.DIHEDRAL>
0

>  <SCORE.SYSTEM.SOLV>
0

>  <SCORE.SYSTEM.norm>
0

>  <SCORE.heavy>
21

>  <SCORE.norm>
-0.446447

>  <RMSD>
13.492

$$$$
lig.pdb
 OpenBabel11021811453D
libRbt.so/2013.1/901 2013/11/27
 21 23  0  0  0  0  0  0  0  0999 V2000
   -3.9041   12.3486    0.8161 C   0  0  0  0  0  0  0  0  0  0  0  0
   -3.4210   11.2981    1.4698 N   0  0  0  0  0  0  0  0  0  0  0  0
   -2.7688   10.3551    0.8139 C   0  0  0  0  0  0  0  0  0  0  0  0
   -2.6549   10.4259   -0.5278 C   0  0  0  0  0  0  0  0  0  0  0  0
   -3.1403   11.4888   -1.1832 C   0  0  0  0  0  0  0  0  0  0  0  0
   -3.0368   11.5646   -2.5095 N   0  0  0  0  0  0  0  0  0  0  0  0
   -3.7666   12.4462   -0.5069 N   0  0  0  0  0  0  0  0  0  0  0  0
   -2.2629    9.3075    1.4857 C   0  0  0  0  0  0  0  0  0  0  0  0
   -1.7487    8.2517    0.7834 C   0  0  0  0  0  0  0  0  0  0  0  0
   -2.0139    6.9482    1.2668 O   0  0  0  0  0  0  0  0  0  0  0  0
   -1.4708    8.4257   -0.5192 C   0  0  0  0  0  0  0  0  0  0  0  0
   -0.5382    7.5672   -1.1608 O   0  0  0  0  0  0  0  0  0  0  0  0
   -2.0121    9.4577   -1.1956 C   0  0  0  0  0  0  0  0  0  0  0  0
   -4.5408   13.2944    1.4849 N   0  0  0  0  0  0  0  0  0  0  0  0
   -5.8749   13.2165    1.5011 C   0  0  0  0  0  0  0  0  0  0  0  0
   -6.4444   13.7492    0.1950 C   0  0  0  0  0  0  0  0  0  0  0  0
   -6.0868   15.0725    0.0393 N   0  0  0  0  0  0  0  0  0  0  0  0
   -4.7109   15.1184   -0.0153 C   0  0  0  0  0  0  0  0  0  0  0  0
   -4.1390   14.5911    1.2901 C   0  0  0  0  0  0  0  0  0  0  0  0
   -0.8938    6.5174    1.9968 C   0  0  0  0  0  0  0  0  0  0  0  0
   -1.1980    6.8707   -2.1855 C   0  0  0  0  0  0  0  0  0  0  0  0
  1 14  1  0  0  0  0
  1  2  2  0  0  0  0
  3  2  1  0  0  0  0
  3  8  2  0  0  0  0
  4  3  1  0  0  0  0
  5  7  2  0  0  0  0
  5  4  1  0  0  0  0
  6  5  1  0  0  0  0
  7  1  1  0  0  0  0
  9 10  1  0  0  0  0
  9  8  1  0  0  0  0
 11  9  2  0  0  0  0
 12 11  1  0  0  0  0
 13  4  2  0  0  0  0
 13 11  1  0  0  0  0
 14 15  1  0  0  0  0
 16 15  1  0  0  0  0
 17 16  1  0  0  0  0
 18 17  1  0  0  0  0
 18 19  1  0  0  0  0
 19 14  1  0  0  0  0
 20 10  1  0  0  0  0
 21 12  1  0  0  0  0
M  END
>  <CHROM.1>
-96.77574925,-98.55209306,118.08773891,-3.17287256,10.85305534,0.14074401
2.91763397,1.02688181,-1.22844211

>  <Name>
lig.pdb

>  <RI>
2.05709e+07

>  <Rbt.Current_Directory>
/home/itssahil/PROJECTS/Mol_Feturizer/New_Systems/rnas/2lwk

>  <Rbt.Executable>
rbdock ($Id: //depot/dev/client3/rdock/2013.1/src/exe/rbdock.cxx#4 $)

>  <Rbt.Library>
libRbt.so (2013.1, Build901 2013/11/27)

>  <Rbt.Parameter_File>
/export/apps/rDock/src/rDock_2013.1_src/data/scripts/dock_solv.prm

>  <Rbt.Receptor>
prm/blind_docking_40.prm

>  <SCORE>
-9.32633

>  <SCORE.INTER>
-6.47001

>  <SCORE.INTER.CONST>
1

>  <SCORE.INTER.POLAR>
0

>  <SCORE.INTER.ROT>
3

>  <SCORE.INTER.SOLV>
8.02106

>  <SCORE.INTER.VDW>
-12.587

>  <SCORE.INTER.norm>
-0.308096

>  <SCORE.INTRA>
-4.90448

>  <SCORE.INTRA.DIHEDRAL>
0.0781734

>  <SCORE.INTRA.DIHEDRAL.0>
8.84257

>  <SCORE.INTRA.POLAR>
0

>  <SCORE.INTRA.POLAR.0>
0

>  <SCORE.INTRA.REPUL>
0

>  <SCORE.INTRA.REPUL.0>
0

>  <SCORE.INTRA.SOLV>
0.11091

>  <SCORE.INTRA.SOLV.lig_0>
-17.1313

>  <SCORE.INTRA.VDW>
-4.99903

>  <SCORE.INTRA.VDW.0>
6.34071

>  <SCORE.INTRA.norm>
-0.233547

>  <SCORE.RESTR>
2.04816

>  <SCORE.RESTR.CAVITY>
2.04816

>  <SCORE.RESTR.norm>
0.0975315

>  <SCORE.SYSTEM>
0

>  <SCORE.SYSTEM.CONST>
0

>  <SCORE.SYSTEM.DIHEDRAL>
0

>  <SCORE.SYSTEM.SOLV>
0

>  <SCORE.SYSTEM.norm>
0

>  <SCORE.heavy>
21

>  <SCORE.norm>
-0.444111

>  <RMSD>
13.517

$$$$
lig.pdb
 OpenBabel11021811453D
libRbt.so/2013.1/901 2013/11/27
 21 23  0  0  0  0  0  0  0  0999 V2000
   -3.8242   12.3425    0.8410 C   0  0  0  0  0  0  0  0  0  0  0  0
   -3.3290   11.2896    1.4816 N   0  0  0  0  0  0  0  0  0  0  0  0
   -2.7004   10.3427    0.8084 C   0  0  0  0  0  0  0  0  0  0  0  0
   -2.6233   10.4125   -0.5359 C   0  0  0  0  0  0  0  0  0  0  0  0
   -3.1207   11.4777   -1.1782 C   0  0  0  0  0  0  0  0  0  0  0  0
   -3.0535   11.5526   -2.5069 N   0  0  0  0  0  0  0  0  0  0  0  0
   -3.7228   12.4388   -0.4853 N   0  0  0  0  0  0  0  0  0  0  0  0
   -2.1819    9.2926    1.4665 C   0  0  0  0  0  0  0  0  0  0  0  0
   -1.6931    8.2337    0.7508 C   0  0  0  0  0  0  0  0  0  0  0  0
   -1.9521    6.9318    1.2419 O   0  0  0  0  0  0  0  0  0  0  0  0
   -1.4504    8.4057   -0.5591 C   0  0  0  0  0  0  0  0  0  0  0  0
   -0.5407    7.5419   -1.2258 O   0  0  0  0  0  0  0  0  0  0  0  0
   -2.0045    9.4405   -1.2208 C   0  0  0  0  0  0  0  0  0  0  0  0
   -4.4369   13.2920    1.5267 N   0  0  0  0  0  0  0  0  0  0  0  0
   -5.7692   13.2112    1.5952 C   0  0  0  0  0  0  0  0  0  0  0  0
   -6.3903   13.7325    0.3081 C   0  0  0  0  0  0  0  0  0  0  0  0
   -6.0424   15.0553    0.1284 N   0  0  0  0  0  0  0  0  0  0  0  0
   -4.6697   15.1039    0.0202 C   0  0  0  0  0  0  0  0  0  0  0  0
   -4.0463   14.5881    1.3065 C   0  0  0  0  0  0  0  0  0  0  0  0
   -0.8258    6.5068    1.9657 C   0  0  0  0  0  0  0  0  0  0  0  0
   -1.2288    6.8604   -2.2419 C   0  0  0  0  0  0  0  0  0  0  0  0
  1 14  1  0  0  0  0
  1  2  2  0  0  0  0
  3  2  1  0  0  0  0
  3  8  2  0  0  0  0
  4  3  1  0  0  0  0
  5  7  2  0  0  0  0
  5  4  1  0  0  0  0
  6  5  1  0  0  0  0
  7  1  1  0  0  0  0
  9 10  1  0  0  0  0
  9  8  1  0  0  0  0
 11  9  2  0  0  0  0
 12 11  1  0  0  0  0
 13  4  2  0  0  0  0
 13 11  1  0  0  0  0
 14 15  1  0  0  0  0
 16 15  1  0  0  0  0
 17 16  1  0  0  0  0
 18 17  1  0  0  0  0
 18 19  1  0  0  0  0
 19 14  1  0  0  0  0
 20 10  1  0  0  0  0
 21 12  1  0  0  0  0
M  END
>  <CHROM.1>
-95.88802599,-97.28296495,118.77827420,-3.12502877,10.84050344,0.14788102
2.96386617,1.03813461,-1.26743703

>  <Name>
lig.pdb

>  <RI>
2.05709e+07

>  <Rbt.Current_Directory>
/home/itssahil/PROJECTS/Mol_Feturizer/New_Systems/rnas/2lwk

>  <Rbt.Executable>
rbdock ($Id: //depot/dev/client3/rdock/2013.1/src/exe/rbdock.cxx#4 $)

>  <Rbt.Library>
libRbt.so (2013.1, Build901 2013/11/27)

>  <Rbt.Parameter_File>
/export/apps/rDock/src/rDock_2013.1_src/data/scripts/dock_solv.prm

>  <Rbt.Receptor>
prm/blind_docking_40.prm

>  <SCORE>
-8.57095

>  <SCORE.INTER>
-5.58006

>  <SCORE.INTER.CONST>
1

>  <SCORE.INTER.POLAR>
0

>  <SCORE.INTER.ROT>
3

>  <SCORE.INTER.SOLV>
8.27924

>  <SCORE.INTER.VDW>
-12.0798

>  <SCORE.INTER.norm>
-0.265717

>  <SCORE.INTRA>
-4.84818

>  <SCORE.INTRA.DIHEDRAL>
0.0179704

>  <SCORE.INTRA.DIHEDRAL.0>
8.84257

>  <SCORE.INTRA.POLAR>
0

>  <SCORE.INTRA.POLAR.0>
0

>  <SCORE.INTRA.REPUL>
0

>  <SCORE.INTRA.REPUL.0>
0

>  <SCORE.INTRA.SOLV>
0.108696

>  <SCORE.INTRA.SOLV.lig_0>
-17.1313

>  <SCORE.INTRA.VDW>
-4.91151

>  <SCORE.INTRA.VDW.0>
6.34071

>  <SCORE.INTRA.norm>
-0.230866

>  <SCORE.RESTR>
1.85729

>  <SCORE.RESTR.CAVITY>
1.85729

>  <SCORE.RESTR.norm>
0.0884423

>  <SCORE.SYSTEM>
0

>  <SCORE.SYSTEM.CONST>
0

>  <SCORE.SYSTEM.DIHEDRAL>
0

>  <SCORE.SYSTEM.SOLV>
0

>  <SCORE.SYSTEM.norm>
0

>  <SCORE.heavy>
21

>  <SCORE.norm>
-0.40814

>  <RMSD>
13.519

$$$$
lig.pdb
 OpenBabel11021811453D
libRbt.so/2013.1/901 2013/11/27
 21 23  0  0  0  0  0  0  0  0999 V2000
   -3.8138   12.3085    0.7553 C   0  0  0  0  0  0  0  0  0  0  0  0
   -3.2857   11.2702    1.3934 N   0  0  0  0  0  0  0  0  0  0  0  0
   -2.6543   10.3294    0.7144 C   0  0  0  0  0  0  0  0  0  0  0  0
   -2.6070   10.3894   -0.6319 C   0  0  0  0  0  0  0  0  0  0  0  0
   -3.1376   11.4401   -1.2717 C   0  0  0  0  0  0  0  0  0  0  0  0
   -3.1001   11.5051   -2.6021 N   0  0  0  0  0  0  0  0  0  0  0  0
   -3.7424   12.3957   -0.5737 N   0  0  0  0  0  0  0  0  0  0  0  0
   -2.1025    9.2944    1.3694 C   0  0  0  0  0  0  0  0  0  0  0  0
   -1.6097    8.2388    0.6517 C   0  0  0  0  0  0  0  0  0  0  0  0
   -1.8340    6.9365    1.1586 O   0  0  0  0  0  0  0  0  0  0  0  0
   -1.3981    8.4043   -0.6643 C   0  0  0  0  0  0  0  0  0  0  0  0
   -0.4870    7.5518   -1.3436 O   0  0  0  0  0  0  0  0  0  0  0  0
   -1.9851    9.4233   -1.3221 C   0  0  0  0  0  0  0  0  0  0  0  0
   -4.4292   13.2523    1.4464 N   0  0  0  0  0  0  0  0  0  0  0  0
   -5.7526   13.1239    1.5814 C   0  0  0  0  0  0  0  0  0  0  0  0
   -6.4537   13.5877    0.3136 C   0  0  0  0  0  0  0  0  0  0  0  0
   -6.1658   14.9174    0.0850 N   0  0  0  0  0  0  0  0  0  0  0  0
   -4.8026   15.0141   -0.0909 C   0  0  0  0  0  0  0  0  0  0  0  0
   -4.0995   14.5558    1.1759 C   0  0  0  0  0  0  0  0  0  0  0  0
   -0.7171    6.5692    1.9271 C   0  0  0  0  0  0  0  0  0  0  0  0
   -1.1874    6.8364   -2.3275 C   0  0  0  0  0  0  0  0  0  0  0  0
  1 14  1  0  0  0  0
  1  2  2  0  0  0  0
  3  2  1  0  0  0  0
  3  8  2  0  0  0  0
  4  3  1  0  0  0  0
  5  7  2  0  0  0  0
  5  4  1  0  0  0  0
  6  5  1  0  0  0  0
  7  1  1  0  0  0  0
  9 10  1  0  0  0  0
  9  8  1  0  0  0  0
 11  9  2  0  0  0  0
 12 11  1  0  0  0  0
 13  4  2  0  0  0  0
 13 11  1  0  0  0  0
 14 15  1  0  0  0  0
 16 15  1  0  0  0  0
 17 16  1  0  0  0  0
 18 17  1  0  0  0  0
 18 19  1  0  0  0  0
 19 14  1  0  0  0  0
 20 10  1  0  0  0  0
 21 12  1  0  0  0  0
M  END
>  <CHROM.1>
-93.75318644,-93.87236003,118.00530704,-3.11417049,10.80635275,0.06549812
3.00941879,1.02078603,-1.31258534

>  <Name>
lig.pdb

>  <RI>
4.07847e+07

>  <Rbt.Current_Directory>
/home/itssahil/PROJECTS/Mol_Feturizer/New_Systems/rnas/2lwk

>  <Rbt.Executable>
rbdock ($Id: //depot/dev/client3/rdock/2013.1/src/exe/rbdock.cxx#4 $)

>  <Rbt.Library>
libRbt.so (2013.1, Build901 2013/11/27)

>  <Rbt.Parameter_File>
/export/apps/rDock/src/rDock_2013.1_src/data/scripts/dock_solv.prm

>  <Rbt.Receptor>
prm/blind_docking_20.prm

>  <SCORE>
-9.43815

>  <SCORE.INTER>
-6.58075

>  <SCORE.INTER.CONST>
1

>  <SCORE.INTER.POLAR>
0

>  <SCORE.INTER.ROT>
3

>  <SCORE.INTER.SOLV>
8.22309

>  <SCORE.INTER.VDW>
-12.7282

>  <SCORE.INTER.norm>
-0.313369

>  <SCORE.INTRA>
-4.81122

>  <SCORE.INTRA.DIHEDRAL>
0.0104454

>  <SCORE.INTRA.DIHEDRAL.0>
8.84257

>  <SCORE.INTRA.POLAR>
0

>  <SCORE.INTRA.POLAR.0>
0

>  <SCORE.INTRA.REPUL>
0

>  <SCORE.INTRA.REPUL.0>
0

>  <SCORE.INTRA.SOLV>
0.105878

>  <SCORE.INTRA.SOLV.lig_0>
-17.1313

>  <SCORE.INTRA.VDW>
-4.86938

>  <SCORE.INTRA.VDW.0>
6.34071

>  <SCORE.INTRA.norm>
-0.229106

>  <SCORE.RESTR>
1.95382

>  <SCORE.RESTR.CAVITY>
1.95382

>  <SCORE.RESTR.norm>
0.0930391

>  <SCORE.SYSTEM>
0

>  <SCORE.SYSTEM.CONST>
0

>  <SCORE.SYSTEM.DIHEDRAL>
0

>  <SCORE.SYSTEM.SOLV>
0

>  <SCORE.SYSTEM.norm>
0

>  <SCORE.heavy>
21

>  <SCORE.norm>
-0.449436

>  <RMSD>
13.529

$$$$
lig.pdb
 OpenBabel11021811453D
libRbt.so/2013.1/901 2013/11/27
 21 23  0  0  0  0  0  0  0  0999 V2000
   -3.8199   12.3385    0.7905 C   0  0  0  0  0  0  0  0  0  0  0  0
   -3.3095   11.2917    1.4292 N   0  0  0  0  0  0  0  0  0  0  0  0
   -2.6790   10.3485    0.7526 C   0  0  0  0  0  0  0  0  0  0  0  0
   -2.6150   10.4154   -0.5926 C   0  0  0  0  0  0  0  0  0  0  0  0
   -3.1277   11.4746   -1.2330 C   0  0  0  0  0  0  0  0  0  0  0  0
   -3.0734   11.5464   -2.5625 N   0  0  0  0  0  0  0  0  0  0  0  0
   -3.7316   12.4322   -0.5370 N   0  0  0  0  0  0  0  0  0  0  0  0
   -2.1452    9.3047    1.4085 C   0  0  0  0  0  0  0  0  0  0  0  0
   -1.6539    8.2483    0.6910 C   0  0  0  0  0  0  0  0  0  0  0  0
   -1.8969    6.9455    1.1879 O   0  0  0  0  0  0  0  0  0  0  0  0
   -1.4248    8.4189   -0.6215 C   0  0  0  0  0  0  0  0  0  0  0  0
   -0.5139    7.5613   -1.2945 O   0  0  0  0  0  0  0  0  0  0  0  0
   -1.9941    9.4470   -1.2807 C   0  0  0  0  0  0  0  0  0  0  0  0
   -4.4345   13.2845    1.4794 N   0  0  0  0  0  0  0  0  0  0  0  0
   -5.7650   13.1900    1.5638 C   0  0  0  0  0  0  0  0  0  0  0  0
   -6.4065   13.6993    0.2820 C   0  0  0  0  0  0  0  0  0  0  0  0
   -6.0747   15.0249    0.0928 N   0  0  0  0  0  0  0  0  0  0  0  0
   -4.7039   15.0874   -0.0318 C   0  0  0  0  0  0  0  0  0  0  0  0
   -4.0601   14.5836    1.2493 C   0  0  0  0  0  0  0  0  0  0  0  0
   -0.8068    6.5754    1.9928 C   0  0  0  0  0  0  0  0  0  0  0  0
   -1.2110    6.8510   -2.2843 C   0  0  0  0  0  0  0  0  0  0  0  0
  1 14  1  0  0  0  0
  1  2  2  0  0  0  0
  3  2  1  0  0  0  0
  3  8  2  0  0  0  0
  4  3  1  0  0  0  0
  5  7  2  0  0  0  0
  5  4  1  0  0  0  0
  6  5  1  0  0  0  0
  7  1  1  0  0  0  0
  9 10  1  0  0  0  0
  9  8  1  0  0  0  0
 11  9  2  0  0  0  0
 12 11  1  0  0  0  0
 13  4  2  0  0  0  0
 13 11  1  0  0  0  0
 14 15  1  0  0  0  0
 16 15  1  0  0  0  0
 17 16  1  0  0  0  0
 18 17  1  0  0  0  0
 18 19  1  0  0  0  0
 19 14  1  0  0  0  0
 20 10  1  0  0  0  0
 21 12  1  0  0  0  0
M  END
>  <CHROM.1>
-95.69444134,-92.53568412,117.59134754,-3.11774879,10.84128696,0.10054964
2.98442719,1.03248777,-1.28928757

>  <Name>
lig.pdb

>  <RI>
2.05709e+07

>  <Rbt.Current_Directory>
/home/itssahil/PROJECTS/Mol_Feturizer/New_Systems/rnas/2lwk

>  <Rbt.Executable>
rbdock ($Id: //depot/dev/client3/rdock/2013.1/src/exe/rbdock.cxx#4 $)

>  <Rbt.Library>
libRbt.so (2013.1, Build901 2013/11/27)

>  <Rbt.Parameter_File>
/export/apps/rDock/src/rDock_2013.1_src/data/scripts/dock_solv.prm

>  <Rbt.Receptor>
prm/blind_docking_40.prm

>  <SCORE>
-8.90833

>  <SCORE.INTER>
-6.00239

>  <SCORE.INTER.CONST>
1

>  <SCORE.INTER.POLAR>
0

>  <SCORE.INTER.ROT>
3

>  <SCORE.INTER.SOLV>
8.24051

>  <SCORE.INTER.VDW>
-12.3484

>  <SCORE.INTER.norm>
-0.285828

>  <SCORE.INTRA>
-4.85755

>  <SCORE.INTRA.DIHEDRAL>
0.00542894

>  <SCORE.INTRA.DIHEDRAL.0>
8.84257

>  <SCORE.INTRA.POLAR>
0

>  <SCORE.INTRA.POLAR.0>
0

>  <SCORE.INTRA.REPUL>
0

>  <SCORE.INTRA.REPUL.0>
0

>  <SCORE.INTRA.SOLV>
0.105172

>  <SCORE.INTRA.SOLV.lig_0>
-17.1313

>  <SCORE.INTRA.VDW>
-4.91285

>  <SCORE.INTRA.VDW.0>
6.34071

>  <SCORE.INTRA.norm>
-0.231312

>  <SCORE.RESTR>
1.95161

>  <SCORE.RESTR.CAVITY>
1.95161

>  <SCORE.RESTR.norm>
0.0929338

>  <SCORE.SYSTEM>
0

>  <SCORE.SYSTEM.CONST>
0

>  <SCORE.SYSTEM.DIHEDRAL>
0

>  <SCORE.SYSTEM.SOLV>
0

>  <SCORE.SYSTEM.norm>
0

>  <SCORE.heavy>
21

>  <SCORE.norm>
-0.424206

>  <RMSD>
13.539

$$$$
lig.pdb
 OpenBabel11021811453D
libRbt.so/2013.1/901 2013/11/27
 21 23  0  0  0  0  0  0  0  0999 V2000
   -4.4771   11.4976   -0.6818 C   0  0  0  0  0  0  0  0  0  0  0  0
   -3.6626   10.6948   -0.0063 N   0  0  0  0  0  0  0  0  0  0  0  0
   -2.7892    9.9442   -0.6533 C   0  0  0  0  0  0  0  0  0  0  0  0
   -2.7731    9.9426   -2.0016 C   0  0  0  0  0  0  0  0  0  0  0  0
   -3.5936   10.7564   -2.6793 C   0  0  0  0  0  0  0  0  0  0  0  0
   -3.5881   10.7577   -4.0118 N   0  0  0  0  0  0  0  0  0  0  0  0
   -4.4457   11.5300   -2.0148 N   0  0  0  0  0  0  0  0  0  0  0  0
   -1.9530    9.1523    0.0384 C   0  0  0  0  0  0  0  0  0  0  0  0
   -1.1788    8.2494   -0.6381 C   0  0  0  0  0  0  0  0  0  0  0  0
   -1.0076    6.9677   -0.0628 O   0  0  0  0  0  0  0  0  0  0  0  0
   -1.0362    8.3983   -1.9654 C   0  0  0  0  0  0  0  0  0  0  0  0
    0.0788    7.8136   -2.6237 O   0  0  0  0  0  0  0  0  0  0  0  0
   -1.9015    9.1644   -2.6582 C   0  0  0  0  0  0  0  0  0  0  0  0
   -5.3360   12.2565   -0.0233 N   0  0  0  0  0  0  0  0  0  0  0  0
   -5.3792   13.5461   -0.3715 C   0  0  0  0  0  0  0  0  0  0  0  0
   -4.2195   14.2974    0.2646 C   0  0  0  0  0  0  0  0  0  0  0  0
   -4.3111   14.2134    1.6386 N   0  0  0  0  0  0  0  0  0  0  0  0
   -4.2226   12.8793    1.9715 C   0  0  0  0  0  0  0  0  0  0  0  0
   -5.3827   12.1269    1.3412 C   0  0  0  0  0  0  0  0  0  0  0  0
   -0.1175    7.0898    1.0170 C   0  0  0  0  0  0  0  0  0  0  0  0
   -0.3482    6.6538   -3.2891 C   0  0  0  0  0  0  0  0  0  0  0  0
  1 14  1  0  0  0  0
  1  2  2  0  0  0  0
  3  2  1  0  0  0  0
  3  8  2  0  0  0  0
  4  3  1  0  0  0  0
  5  7  2  0  0  0  0
  5  4  1  0  0  0  0
  6  5  1  0  0  0  0
  7  1  1  0  0  0  0
  9 10  1  0  0  0  0
  9  8  1  0  0  0  0
 11  9  2  0  0  0  0
 12 11  1  0  0  0  0
 13  4  2  0  0  0  0
 13 11  1  0  0  0  0
 14 15  1  0  0  0  0
 16 15  1  0  0  0  0
 17 16  1  0  0  0  0
 18 17  1  0  0  0  0
 18 19  1  0  0  0  0
 19 14  1  0  0  0  0
 20 10  1  0  0  0  0
 21 12  1  0  0  0  0
M  END
>  <CHROM.1>
131.49765086,-74.62261278,103.03365908,-2.91350627,10.36279806,-0.82486509
2.73454091,-0.90694023,1.44046624

>  <Name>
lig.pdb

>  <RI>
4.07847e+07

>  <Rbt.Current_Directory>
/home/itssahil/PROJECTS/Mol_Feturizer/New_Systems/rnas/2lwk

>  <Rbt.Executable>
rbdock ($Id: //depot/dev/client3/rdock/2013.1/src/exe/rbdock.cxx#4 $)

>  <Rbt.Library>
libRbt.so (2013.1, Build901 2013/11/27)

>  <Rbt.Parameter_File>
/export/apps/rDock/src/rDock_2013.1_src/data/scripts/dock_solv.prm

>  <Rbt.Receptor>
prm/blind_docking_20.prm

>  <SCORE>
-1.0693

>  <SCORE.INTER>
-1.02649

>  <SCORE.INTER.CONST>
1

>  <SCORE.INTER.POLAR>
0

>  <SCORE.INTER.ROT>
3

>  <SCORE.INTER.SOLV>
10.7734

>  <SCORE.INTER.VDW>
-9.87547

>  <SCORE.INTER.norm>
-0.0488803

>  <SCORE.INTRA>
-3.41028

>  <SCORE.INTRA.DIHEDRAL>
-0.0950744

>  <SCORE.INTRA.DIHEDRAL.0>
8.84257

>  <SCORE.INTRA.POLAR>
0

>  <SCORE.INTRA.POLAR.0>
0

>  <SCORE.INTRA.REPUL>
0

>  <SCORE.INTRA.REPUL.0>
0

>  <SCORE.INTRA.SOLV>
0.017158

>  <SCORE.INTRA.SOLV.lig_0>
-17.1313

>  <SCORE.INTRA.VDW>
-3.37132

>  <SCORE.INTRA.VDW.0>
6.34071

>  <SCORE.INTRA.norm>
-0.162394

>  <SCORE.RESTR>
3.36746

>  <SCORE.RESTR.CAVITY>
3.36746

>  <SCORE.RESTR.norm>
0.160355

>  <SCORE.SYSTEM>
0

>  <SCORE.SYSTEM.CONST>
0

>  <SCORE.SYSTEM.DIHEDRAL>
0

>  <SCORE.SYSTEM.SOLV>
0

>  <SCORE.SYSTEM.norm>
0

>  <SCORE.heavy>
21

>  <SCORE.norm>
-0.0509191

>  <RMSD>
13.573

$$$$
lig.pdb
 OpenBabel11021811453D
libRbt.so/2013.1/901 2013/11/27
 21 23  0  0  0  0  0  0  0  0999 V2000
   -3.3024   12.0790   -0.0872 C   0  0  0  0  0  0  0  0  0  0  0  0
   -2.5972   11.0939    0.4573 N   0  0  0  0  0  0  0  0  0  0  0  0
   -2.0424   10.1752   -0.3127 C   0  0  0  0  0  0  0  0  0  0  0  0
   -2.2508   10.1997   -1.6447 C   0  0  0  0  0  0  0  0  0  0  0  0
   -2.9597   11.1969   -2.1906 C   0  0  0  0  0  0  0  0  0  0  0  0
   -3.1750   11.2263   -3.5053 N   0  0  0  0  0  0  0  0  0  0  0  0
   -3.4857   12.1327   -1.4072 N   0  0  0  0  0  0  0  0  0  0  0  0
   -1.3111    9.1954    0.2439 C   0  0  0  0  0  0  0  0  0  0  0  0
   -0.8918    8.1523   -0.5361 C   0  0  0  0  0  0  0  0  0  0  0  0
   -0.9312    6.8536    0.0250 O   0  0  0  0  0  0  0  0  0  0  0  0
   -0.9405    8.2932   -1.8711 C   0  0  0  0  0  0  0  0  0  0  0  0
   -0.1175    7.4798   -2.6953 O   0  0  0  0  0  0  0  0  0  0  0  0
   -1.7059    9.2547   -2.4235 C   0  0  0  0  0  0  0  0  0  0  0  0
   -3.8394   13.0022    0.6917 N   0  0  0  0  0  0  0  0  0  0  0  0
   -4.3790   12.5741    1.8369 C   0  0  0  0  0  0  0  0  0  0  0  0
   -5.7570   11.9849    1.5761 C   0  0  0  0  0  0  0  0  0  0  0  0
   -6.5811   12.9533    1.0411 N   0  0  0  0  0  0  0  0  0  0  0  0
   -6.0233   13.3462   -0.1560 C   0  0  0  0  0  0  0  0  0  0  0  0
   -4.6483   13.9396    0.1019 C   0  0  0  0  0  0  0  0  0  0  0  0
    0.0037    6.8023    1.0720 C   0  0  0  0  0  0  0  0  0  0  0  0
   -0.9062    6.4628   -3.2558 C   0  0  0  0  0  0  0  0  0  0  0  0
  1 14  1  0  0  0  0
  1  2  2  0  0  0  0
  3  2  1  0  0  0  0
  3  8  2  0  0  0  0
  4  3  1  0  0  0  0
  5  7  2  0  0  0  0
  5  4  1  0  0  0  0
  6  5  1  0  0  0  0
  7  1  1  0  0  0  0
  9 10  1  0  0  0  0
  9  8  1  0  0  0  0
 11  9  2  0  0  0  0
 12 11  1  0  0  0  0
 13  4  2  0  0  0  0
 13 11  1  0  0  0  0
 14 15  1  0  0  0  0
 16 15  1  0  0  0  0
 17 16  1  0  0  0  0
 18 17  1  0  0  0  0
 18 19  1  0  0  0  0
 19 14  1  0  0  0  0
 20 10  1  0  0  0  0
 21 12  1  0  0  0  0
M  END
>  <CHROM.1>
-40.40359380,-66.35584237,102.79393909,-2.76312226,10.37045893,-0.62601808
-2.98269230,0.91054193,-1.42294528

>  <Name>
lig.pdb

>  <RI>
4.07847e+07

>  <Rbt.Current_Directory>
/home/itssahil/PROJECTS/Mol_Feturizer/New_Systems/rnas/2lwk

>  <Rbt.Executable>
rbdock ($Id: //depot/dev/client3/rdock/2013.1/src/exe/rbdock.cxx#4 $)

>  <Rbt.Library>
libRbt.so (2013.1, Build901 2013/11/27)

>  <Rbt.Parameter_File>
/export/apps/rDock/src/rDock_2013.1_src/data/scripts/dock_solv.prm

>  <Rbt.Receptor>
prm/blind_docking_20.prm

>  <SCORE>
-15.5846

>  <SCORE.INTER>
-15.0823

>  <SCORE.INTER.CONST>
1

>  <SCORE.INTER.POLAR>
-0.934761

>  <SCORE.INTER.ROT>
3

>  <SCORE.INTER.SOLV>
11.6947

>  <SCORE.INTER.VDW>
-16.4372

>  <SCORE.INTER.norm>
-0.718205

>  <SCORE.INTRA>
-2.83588

>  <SCORE.INTRA.DIHEDRAL>
-0.657576

>  <SCORE.INTRA.DIHEDRAL.0>
8.84257

>  <SCORE.INTRA.POLAR>
0

>  <SCORE.INTRA.POLAR.0>
0

>  <SCORE.INTRA.REPUL>
0

>  <SCORE.INTRA.REPUL.0>
0

>  <SCORE.INTRA.SOLV>
-0.0092283

>  <SCORE.INTRA.SOLV.lig_0>
-17.1313

>  <SCORE.INTRA.VDW>
-2.50248

>  <SCORE.INTRA.VDW.0>
6.34071

>  <SCORE.INTRA.norm>
-0.135042

>  <SCORE.RESTR>
2.33358

>  <SCORE.RESTR.CAVITY>
2.33358

>  <SCORE.RESTR.norm>
0.111123

>  <SCORE.SYSTEM>
0

>  <SCORE.SYSTEM.CONST>
0

>  <SCORE.SYSTEM.DIHEDRAL>
0

>  <SCORE.SYSTEM.SOLV>
0

>  <SCORE.SYSTEM.norm>
0

>  <SCORE.heavy>
21

>  <SCORE.norm>
-0.742124

>  <RMSD>
13.605

$$$$
lig.pdb
 OpenBabel11021811453D
libRbt.so/2013.1/901 2013/11/27
 21 23  0  0  0  0  0  0  0  0999 V2000
   -3.6442   12.0376    0.5779 C   0  0  0  0  0  0  0  0  0  0  0  0
   -2.9575   11.0208    1.0866 N   0  0  0  0  0  0  0  0  0  0  0  0
   -2.3125   10.1927    0.2846 C   0  0  0  0  0  0  0  0  0  0  0  0
   -2.4090   10.3404   -1.0522 C   0  0  0  0  0  0  0  0  0  0  0  0
   -3.0994   11.3694   -1.5615 C   0  0  0  0  0  0  0  0  0  0  0  0
   -3.2043   11.5201   -2.8812 N   0  0  0  0  0  0  0  0  0  0  0  0
   -3.7175   12.2137   -0.7421 N   0  0  0  0  0  0  0  0  0  0  0  0
   -1.6011    9.1805    0.8081 C   0  0  0  0  0  0  0  0  0  0  0  0
   -1.0863    8.2268   -0.0272 C   0  0  0  0  0  0  0  0  0  0  0  0
   -1.1332    6.8796    0.4042 O   0  0  0  0  0  0  0  0  0  0  0  0
   -1.0269    8.4940   -1.3422 C   0  0  0  0  0  0  0  0  0  0  0  0
   -0.1133    7.7820   -2.1648 O   0  0  0  0  0  0  0  0  0  0  0  0
   -1.7721    9.4869   -1.8661 C   0  0  0  0  0  0  0  0  0  0  0  0
   -4.2724   12.8696    1.3905 N   0  0  0  0  0  0  0  0  0  0  0  0
   -5.5352   12.5596    1.6995 C   0  0  0  0  0  0  0  0  0  0  0  0
   -6.4636   12.9602    0.5630 C   0  0  0  0  0  0  0  0  0  0  0  0
   -6.3863   14.3224    0.3599 N   0  0  0  0  0  0  0  0  0  0  0  0
   -5.0862   14.6075    0.0035 C   0  0  0  0  0  0  0  0  0  0  0  0
   -4.1566   14.2128    1.1390 C   0  0  0  0  0  0  0  0  0  0  0  0
   -0.0672    6.6693    1.2944 C   0  0  0  0  0  0  0  0  0  0  0  0
   -0.8343    6.8803   -2.9632 C   0  0  0  0  0  0  0  0  0  0  0  0
  1 14  1  0  0  0  0
  1  2  2  0  0  0  0
  3  2  1  0  0  0  0
  3  8  2  0  0  0  0
  4  3  1  0  0  0  0
  5  7  2  0  0  0  0
  5  4  1  0  0  0  0
  6  5  1  0  0  0  0
  7  1  1  0  0  0  0
  9 10  1  0  0  0  0
  9  8  1  0  0  0  0
 11  9  2  0  0  0  0
 12 11  1  0  0  0  0
 13  4  2  0  0  0  0
 13 11  1  0  0  0  0
 14 15  1  0  0  0  0
 16 15  1  0  0  0  0
 17 16  1  0  0  0  0
 18 17  1  0  0  0  0
 18 19  1  0  0  0  0
 19 14  1  0  0  0  0
 20 10  1  0  0  0  0
 21 12  1  0  0  0  0
M  END
>  <CHROM.1>
-90.23908431,-80.33112498,107.49228897,-2.90168520,10.63884848,-0.25422178
-3.07966798,0.93976055,-1.40514518

>  <Name>
lig.pdb

>  <RI>
1.99026e+07

>  <Rbt.Current_Directory>
/home/itssahil/PROJECTS/Mol_Feturizer/New_Systems/rnas/2lwk

>  <Rbt.Executable>
rbdock ($Id: //depot/dev/client3/rdock/2013.1/src/exe/rbdock.cxx#4 $)

>  <Rbt.Library>
libRbt.so (2013.1, Build901 2013/11/27)

>  <Rbt.Parameter_File>
/export/apps/rDock/src/rDock_2013.1_src/data/scripts/dock_solv.prm

>  <Rbt.Receptor>
prm/blind_docking_60.prm

>  <SCORE>
-10.1892

>  <SCORE.INTER>
-7.39472

>  <SCORE.INTER.CONST>
1

>  <SCORE.INTER.POLAR>
0

>  <SCORE.INTER.ROT>
3

>  <SCORE.INTER.SOLV>
10.2748

>  <SCORE.INTER.VDW>
-13.9548

>  <SCORE.INTER.norm>
-0.35213

>  <SCORE.INTRA>
-4.86966

>  <SCORE.INTRA.DIHEDRAL>
0.0758902

>  <SCORE.INTRA.DIHEDRAL.0>
8.84257

>  <SCORE.INTRA.POLAR>
0

>  <SCORE.INTRA.POLAR.0>
0

>  <SCORE.INTRA.REPUL>
0

>  <SCORE.INTRA.REPUL.0>
0

>  <SCORE.INTRA.SOLV>
0.101046

>  <SCORE.INTRA.SOLV.lig_0>
-17.1313

>  <SCORE.INTRA.VDW>
-4.95813

>  <SCORE.INTRA.VDW.0>
6.34071

>  <SCORE.INTRA.norm>
-0.231889

>  <SCORE.RESTR>
2.07519

>  <SCORE.RESTR.CAVITY>
2.07519

>  <SCORE.RESTR.norm>
0.0988186

>  <SCORE.SYSTEM>
0

>  <SCORE.SYSTEM.CONST>
0

>  <SCORE.SYSTEM.DIHEDRAL>
0

>  <SCORE.SYSTEM.SOLV>
0

>  <SCORE.SYSTEM.norm>
0

>  <SCORE.heavy>
21

>  <SCORE.norm>
-0.4852

>  <RMSD>
13.627

$$$$
lig.pdb
 OpenBabel11021811453D
libRbt.so/2013.1/901 2013/11/27
 21 23  0  0  0  0  0  0  0  0999 V2000
   -3.6536   12.0727    0.6120 C   0  0  0  0  0  0  0  0  0  0  0  0
   -2.9571   11.0604    1.1164 N   0  0  0  0  0  0  0  0  0  0  0  0
   -2.3281   10.2248    0.3096 C   0  0  0  0  0  0  0  0  0  0  0  0
   -2.4512   10.3600   -1.0264 C   0  0  0  0  0  0  0  0  0  0  0  0
   -3.1515   11.3843   -1.5314 C   0  0  0  0  0  0  0  0  0  0  0  0
   -3.2827   11.5227   -2.8502 N   0  0  0  0  0  0  0  0  0  0  0  0
   -3.7532   12.2364   -0.7079 N   0  0  0  0  0  0  0  0  0  0  0  0
   -1.6065    9.2173    0.8282 C   0  0  0  0  0  0  0  0  0  0  0  0
   -1.1086    8.2556   -0.0082 C   0  0  0  0  0  0  0  0  0  0  0  0
   -1.1470    6.9125    0.4366 O   0  0  0  0  0  0  0  0  0  0  0  0
   -1.0753    8.5106   -1.3266 C   0  0  0  0  0  0  0  0  0  0  0  0
   -0.1783    7.7907   -2.1604 O   0  0  0  0  0  0  0  0  0  0  0  0
   -1.8307    9.4987   -1.8449 C   0  0  0  0  0  0  0  0  0  0  0  0
   -4.2655   12.9123    1.4291 N   0  0  0  0  0  0  0  0  0  0  0  0
   -5.5260   12.6120    1.7564 C   0  0  0  0  0  0  0  0  0  0  0  0
   -6.4670   13.0134    0.6307 C   0  0  0  0  0  0  0  0  0  0  0  0
   -6.3836   14.3742    0.4203 N   0  0  0  0  0  0  0  0  0  0  0  0
   -5.0867   14.6493    0.0452 C   0  0  0  0  0  0  0  0  0  0  0  0
   -4.1445   14.2536    1.1699 C   0  0  0  0  0  0  0  0  0  0  0  0
   -0.0628    6.7100    1.3064 C   0  0  0  0  0  0  0  0  0  0  0  0
   -0.9161    6.8885   -2.9428 C   0  0  0  0  0  0  0  0  0  0  0  0
  1 14  1  0  0  0  0
  1  2  2  0  0  0  0
  3  2  1  0  0  0  0
  3  8  2  0  0  0  0
  4  3  1  0  0  0  0
  5  7  2  0  0  0  0
  5  4  1  0  0  0  0
  6  5  1  0  0  0  0
  7  1  1  0  0  0  0
  9 10  1  0  0  0  0
  9  8  1  0  0  0  0
 11  9  2  0  0  0  0
 12 11  1  0  0  0  0
 13  4  2  0  0  0  0
 13 11  1  0  0  0  0
 14 15  1  0  0  0  0
 16 15  1  0  0  0  0
 17 16  1  0  0  0  0
 18 17  1  0  0  0  0
 18 19  1  0  0  0  0
 19 14  1  0  0  0  0
 20 10  1  0  0  0  0
 21 12  1  0  0  0  0
M  END
>  <CHROM.1>
-90.82478435,-80.38566461,107.90899773,-2.92557679,10.66899869,-0.22304738
-3.04489563,0.94408823,-1.44379217

>  <Name>
lig.pdb

>  <RI>
1.99026e+07

>  <Rbt.Current_Directory>
/home/itssahil/PROJECTS/Mol_Feturizer/New_Systems/rnas/2lwk

>  <Rbt.Executable>
rbdock ($Id: //depot/dev/client3/rdock/2013.1/src/exe/rbdock.cxx#4 $)

>  <Rbt.Library>
libRbt.so (2013.1, Build901 2013/11/27)

>  <Rbt.Parameter_File>
/export/apps/rDock/src/rDock_2013.1_src/data/scripts/dock_solv.prm

>  <Rbt.Receptor>
prm/blind_docking_60.prm

>  <SCORE>
-10.3128

>  <SCORE.INTER>
-7.54071

>  <SCORE.INTER.CONST>
1

>  <SCORE.INTER.POLAR>
0

>  <SCORE.INTER.ROT>
3

>  <SCORE.INTER.SOLV>
10.0958

>  <SCORE.INTER.VDW>
-13.9924

>  <SCORE.INTER.norm>
-0.359081

>  <SCORE.INTRA>
-4.87675

>  <SCORE.INTRA.DIHEDRAL>
0.060457

>  <SCORE.INTRA.DIHEDRAL.0>
8.84257

>  <SCORE.INTRA.POLAR>
0

>  <SCORE.INTRA.POLAR.0>
0

>  <SCORE.INTRA.REPUL>
0

>  <SCORE.INTRA.REPUL.0>
0

>  <SCORE.INTRA.SOLV>
0.10103

>  <SCORE.INTRA.SOLV.lig_0>
-17.1313

>  <SCORE.INTRA.VDW>
-4.9575

>  <SCORE.INTRA.VDW.0>
6.34071

>  <SCORE.INTRA.norm>
-0.232226

>  <SCORE.RESTR>
2.10469

>  <SCORE.RESTR.CAVITY>
2.10469

>  <SCORE.RESTR.norm>
0.100223

>  <SCORE.SYSTEM>
0

>  <SCORE.SYSTEM.CONST>
0

>  <SCORE.SYSTEM.DIHEDRAL>
0

>  <SCORE.SYSTEM.SOLV>
0

>  <SCORE.SYSTEM.norm>
0

>  <SCORE.heavy>
21

>  <SCORE.norm>
-0.491085

>  <RMSD>
13.631

$$$$
lig.pdb
 OpenBabel11021811453D
libRbt.so/2013.1/901 2013/11/27
 21 23  0  0  0  0  0  0  0  0999 V2000
   -3.6659   12.0785    0.5966 C   0  0  0  0  0  0  0  0  0  0  0  0
   -2.9722   11.0684    1.1092 N   0  0  0  0  0  0  0  0  0  0  0  0
   -2.3382   10.2298    0.3095 C   0  0  0  0  0  0  0  0  0  0  0  0
   -2.4531   10.3598   -1.0277 C   0  0  0  0  0  0  0  0  0  0  0  0
   -3.1506   11.3820   -1.5410 C   0  0  0  0  0  0  0  0  0  0  0  0
   -3.2737   11.5153   -2.8611 N   0  0  0  0  0  0  0  0  0  0  0  0
   -3.7575   12.2371   -0.7244 N   0  0  0  0  0  0  0  0  0  0  0  0
   -1.6195    9.2246    0.8365 C   0  0  0  0  0  0  0  0  0  0  0  0
   -1.1161    8.2598    0.0069 C   0  0  0  0  0  0  0  0  0  0  0  0
   -1.1569    6.9185    0.4566 O   0  0  0  0  0  0  0  0  0  0  0  0
   -1.0749    8.5097   -1.3123 C   0  0  0  0  0  0  0  0  0  0  0  0
   -0.1727    7.7868   -2.1379 O   0  0  0  0  0  0  0  0  0  0  0  0
   -1.8273    9.4956   -1.8390 C   0  0  0  0  0  0  0  0  0  0  0  0
   -4.2830   12.9212    1.4068 N   0  0  0  0  0  0  0  0  0  0  0  0
   -5.5452   12.6215    1.7279 C   0  0  0  0  0  0  0  0  0  0  0  0
   -6.4798   13.0179    0.5950 C   0  0  0  0  0  0  0  0  0  0  0  0
   -6.3959   14.3779    0.3796 N   0  0  0  0  0  0  0  0  0  0  0  0
   -5.0969   14.6521    0.0110 C   0  0  0  0  0  0  0  0  0  0  0  0
   -4.1611   14.2615    1.1428 C   0  0  0  0  0  0  0  0  0  0  0  0
   -0.0535    6.7075    1.2999 C   0  0  0  0  0  0  0  0  0  0  0  0
   -0.9066    6.8905   -2.9305 C   0  0  0  0  0  0  0  0  0  0  0  0
  1 14  1  0  0  0  0
  1  2  2  0  0  0  0
  3  2  1  0  0  0  0
  3  8  2  0  0  0  0
  4  3  1  0  0  0  0
  5  7  2  0  0  0  0
  5  4  1  0  0  0  0
  6  5  1  0  0  0  0
  7  1  1  0  0  0  0
  9 10  1  0  0  0  0
  9  8  1  0  0  0  0
 11  9  2  0  0  0  0
 12 11  1  0  0  0  0
 13  4  2  0  0  0  0
 13 11  1  0  0  0  0
 14 15  1  0  0  0  0
 16 15  1  0  0  0  0
 17 16  1  0  0  0  0
 18 17  1  0  0  0  0
 18 19  1  0  0  0  0
 19 14  1  0  0  0  0
 20 10  1  0  0  0  0
 21 12  1  0  0  0  0
M  END
>  <CHROM.1>
-90.80322963,-82.25276926,108.47227643,-2.93132598,10.67158071,-0.23067320
-3.05347422,0.94252998,-1.44066193

>  <Name>
lig.pdb

>  <RI>
4.07847e+07

>  <Rbt.Current_Directory>
/home/itssahil/PROJECTS/Mol_Feturizer/New_Systems/rnas/2lwk

>  <Rbt.Executable>
rbdock ($Id: //depot/dev/client3/rdock/2013.1/src/exe/rbdock.cxx#4 $)

>  <Rbt.Library>
libRbt.so (2013.1, Build901 2013/11/27)

>  <Rbt.Parameter_File>
/export/apps/rDock/src/rDock_2013.1_src/data/scripts/dock_solv.prm

>  <Rbt.Receptor>
prm/blind_docking_20.prm

>  <SCORE>
-10.4963

>  <SCORE.INTER>
-7.74349

>  <SCORE.INTER.CONST>
1

>  <SCORE.INTER.POLAR>
0

>  <SCORE.INTER.ROT>
3

>  <SCORE.INTER.SOLV>
10.0225

>  <SCORE.INTER.VDW>
-14.1032

>  <SCORE.INTER.norm>
-0.368737

>  <SCORE.INTRA>
-4.90968

>  <SCORE.INTRA.DIHEDRAL>
0.130094

>  <SCORE.INTRA.DIHEDRAL.0>
8.84257

>  <SCORE.INTRA.POLAR>
0

>  <SCORE.INTRA.POLAR.0>
0

>  <SCORE.INTRA.REPUL>
0

>  <SCORE.INTRA.REPUL.0>
0

>  <SCORE.INTRA.SOLV>
0.102207

>  <SCORE.INTRA.SOLV.lig_0>
-17.1313

>  <SCORE.INTRA.VDW>
-5.02583

>  <SCORE.INTRA.VDW.0>
6.34071

>  <SCORE.INTRA.norm>
-0.233794

>  <SCORE.RESTR>
2.15682

>  <SCORE.RESTR.CAVITY>
2.15682

>  <SCORE.RESTR.norm>
0.102706

>  <SCORE.SYSTEM>
0

>  <SCORE.SYSTEM.CONST>
0

>  <SCORE.SYSTEM.DIHEDRAL>
0

>  <SCORE.SYSTEM.SOLV>
0

>  <SCORE.SYSTEM.norm>
0

>  <SCORE.heavy>
21

>  <SCORE.norm>
-0.499826

>  <RMSD>
13.633

$$$$
lig.pdb
 OpenBabel11021811453D
libRbt.so/2013.1/901 2013/11/27
 21 23  0  0  0  0  0  0  0  0999 V2000
   -3.3034   12.1568   -0.2317 C   0  0  0  0  0  0  0  0  0  0  0  0
   -2.6181   11.1719    0.3380 N   0  0  0  0  0  0  0  0  0  0  0  0
   -2.0650   10.2339   -0.4098 C   0  0  0  0  0  0  0  0  0  0  0  0
   -2.2554   10.2396   -1.7447 C   0  0  0  0  0  0  0  0  0  0  0  0
   -2.9442   11.2366   -2.3160 C   0  0  0  0  0  0  0  0  0  0  0  0
   -3.1416   11.2475   -3.6337 N   0  0  0  0  0  0  0  0  0  0  0  0
   -3.4685   12.1915   -1.5547 N   0  0  0  0  0  0  0  0  0  0  0  0
   -1.3537    9.2541    0.1722 C   0  0  0  0  0  0  0  0  0  0  0  0
   -0.9375    8.1934   -0.5854 C   0  0  0  0  0  0  0  0  0  0  0  0
   -1.0009    6.9045   -0.0042 O   0  0  0  0  0  0  0  0  0  0  0  0
   -0.9666    8.3133   -1.9230 C   0  0  0  0  0  0  0  0  0  0  0  0
   -0.1433    7.4764   -2.7229 O   0  0  0  0  0  0  0  0  0  0  0  0
   -1.7123    9.2753   -2.5009 C   0  0  0  0  0  0  0  0  0  0  0  0
   -3.8388   13.0991    0.5251 N   0  0  0  0  0  0  0  0  0  0  0  0
   -4.1828   12.7417    1.7661 C   0  0  0  0  0  0  0  0  0  0  0  0
   -5.5090   11.9970    1.7458 C   0  0  0  0  0  0  0  0  0  0  0  0
   -6.4944   12.8194    1.2400 N   0  0  0  0  0  0  0  0  0  0  0  0
   -6.1350   13.1383   -0.0513 C   0  0  0  0  0  0  0  0  0  0  0  0
   -4.8126   13.8866   -0.0339 C   0  0  0  0  0  0  0  0  0  0  0  0
   -0.0732    6.8550    1.0494 C   0  0  0  0  0  0  0  0  0  0  0  0
   -0.9397    6.4679   -3.2877 C   0  0  0  0  0  0  0  0  0  0  0  0
  1 14  1  0  0  0  0
  1  2  2  0  0  0  0
  3  2  1  0  0  0  0
  3  8  2  0  0  0  0
  4  3  1  0  0  0  0
  5  7  2  0  0  0  0
  5  4  1  0  0  0  0
  6  5  1  0  0  0  0
  7  1  1  0  0  0  0
  9 10  1  0  0  0  0
  9  8  1  0  0  0  0
 11  9  2  0  0  0  0
 12 11  1  0  0  0  0
 13  4  2  0  0  0  0
 13 11  1  0  0  0  0
 14 15  1  0  0  0  0
 16 15  1  0  0  0  0
 17 16  1  0  0  0  0
 18 17  1  0  0  0  0
 18 19  1  0  0  0  0
 19 14  1  0  0  0  0
 20 10  1  0  0  0  0
 21 12  1  0  0  0  0
M  END
>  <CHROM.1>
-28.84357944,-66.80589996,103.33768355,-2.76544076,10.39281611,-0.67686504
2.98789137,-0.91983781,1.74439343

>  <Name>
lig.pdb

>  <RI>
4.07847e+07

>  <Rbt.Current_Directory>
/home/itssahil/PROJECTS/Mol_Feturizer/New_Systems/rnas/2lwk

>  <Rbt.Executable>
rbdock ($Id: //depot/dev/client3/rdock/2013.1/src/exe/rbdock.cxx#4 $)

>  <Rbt.Library>
libRbt.so (2013.1, Build901 2013/11/27)

>  <Rbt.Parameter_File>
/export/apps/rDock/src/rDock_2013.1_src/data/scripts/dock_solv.prm

>  <Rbt.Receptor>
prm/blind_docking_20.prm

>  <SCORE>
-15.9029

>  <SCORE.INTER>
-15.4049

>  <SCORE.INTER.CONST>
1

>  <SCORE.INTER.POLAR>
-1.07234

>  <SCORE.INTER.ROT>
3

>  <SCORE.INTER.SOLV>
11.9057

>  <SCORE.INTER.VDW>
-16.2641

>  <SCORE.INTER.norm>
-0.733569

>  <SCORE.INTRA>
-2.63419

>  <SCORE.INTRA.DIHEDRAL>
-0.645817

>  <SCORE.INTRA.DIHEDRAL.0>
8.84257

>  <SCORE.INTRA.POLAR>
0

>  <SCORE.INTRA.POLAR.0>
0

>  <SCORE.INTRA.REPUL>
0

>  <SCORE.INTRA.REPUL.0>
0

>  <SCORE.INTRA.SOLV>
-0.0306812

>  <SCORE.INTRA.SOLV.lig_0>
-17.1313

>  <SCORE.INTRA.VDW>
-2.29594

>  <SCORE.INTRA.VDW.0>
6.34071

>  <SCORE.INTRA.norm>
-0.125438

>  <SCORE.RESTR>
2.13623

>  <SCORE.RESTR.CAVITY>
2.13623

>  <SCORE.RESTR.norm>
0.101725

>  <SCORE.SYSTEM>
0

>  <SCORE.SYSTEM.CONST>
0

>  <SCORE.SYSTEM.DIHEDRAL>
0

>  <SCORE.SYSTEM.SOLV>
0

>  <SCORE.SYSTEM.norm>
0

>  <SCORE.heavy>
21

>  <SCORE.norm>
-0.757281

>  <RMSD>
13.638

$$$$
lig.pdb
 OpenBabel11021811453D
libRbt.so/2013.1/901 2013/11/27
 21 23  0  0  0  0  0  0  0  0999 V2000
   -3.6601   12.0735    0.5836 C   0  0  0  0  0  0  0  0  0  0  0  0
   -2.9537   11.0673    1.0863 N   0  0  0  0  0  0  0  0  0  0  0  0
   -2.3256   10.2328    0.2777 C   0  0  0  0  0  0  0  0  0  0  0  0
   -2.4593   10.3626   -1.0578 C   0  0  0  0  0  0  0  0  0  0  0  0
   -3.1697   11.3808   -1.5611 C   0  0  0  0  0  0  0  0  0  0  0  0
   -3.3115   11.5138   -2.8794 N   0  0  0  0  0  0  0  0  0  0  0  0
   -3.7705   12.2321   -0.7361 N   0  0  0  0  0  0  0  0  0  0  0  0
   -1.5939    9.2316    0.7944 C   0  0  0  0  0  0  0  0  0  0  0  0
   -1.0962    8.2701   -0.0423 C   0  0  0  0  0  0  0  0  0  0  0  0
   -1.1230    6.9284    0.4073 O   0  0  0  0  0  0  0  0  0  0  0  0
   -1.0743    8.5207   -1.3618 C   0  0  0  0  0  0  0  0  0  0  0  0
   -0.1791    7.8034   -2.1998 O   0  0  0  0  0  0  0  0  0  0  0  0
   -1.8396    9.5023   -1.8779 C   0  0  0  0  0  0  0  0  0  0  0  0
   -4.2711   12.9122    1.4024 N   0  0  0  0  0  0  0  0  0  0  0  0
   -5.5390   12.6243    1.7118 C   0  0  0  0  0  0  0  0  0  0  0  0
   -6.4617   13.0492    0.5794 C   0  0  0  0  0  0  0  0  0  0  0  0
   -6.3590   14.4110    0.3844 N   0  0  0  0  0  0  0  0  0  0  0  0
   -5.0544   14.6736    0.0274 C   0  0  0  0  0  0  0  0  0  0  0  0
   -4.1305   14.2545    1.1587 C   0  0  0  0  0  0  0  0  0  0  0  0
   -0.0132    6.7266    1.2444 C   0  0  0  0  0  0  0  0  0  0  0  0
   -0.9162    6.8887   -2.9682 C   0  0  0  0  0  0  0  0  0  0  0  0
  1 14  1  0  0  0  0
  1  2  2  0  0  0  0
  3  2  1  0  0  0  0
  3  8  2  0  0  0  0
  4  3  1  0  0  0  0
  5  7  2  0  0  0  0
  5  4  1  0  0  0  0
  6  5  1  0  0  0  0
  7  1  1  0  0  0  0
  9 10  1  0  0  0  0
  9  8  1  0  0  0  0
 11  9  2  0  0  0  0
 12 11  1  0  0  0  0
 13  4  2  0  0  0  0
 13 11  1  0  0  0  0
 14 15  1  0  0  0  0
 16 15  1  0  0  0  0
 17 16  1  0  0  0  0
 18 17  1  0  0  0  0
 18 19  1  0  0  0  0
 19 14  1  0  0  0  0
 20 10  1  0  0  0  0
 21 12  1  0  0  0  0
M  END
>  <CHROM.1>
-92.55152913,-81.77235322,107.58217431,-2.92168260,10.67869260,-0.25594712
-3.02695955,0.94255947,-1.46573901

>  <Name>
lig.pdb

>  <RI>
4.07847e+07

>  <Rbt.Current_Directory>
/home/itssahil/PROJECTS/Mol_Feturizer/New_Systems/rnas/2lwk

>  <Rbt.Executable>
rbdock ($Id: //depot/dev/client3/rdock/2013.1/src/exe/rbdock.cxx#4 $)

>  <Rbt.Library>
libRbt.so (2013.1, Build901 2013/11/27)

>  <Rbt.Parameter_File>
/export/apps/rDock/src/rDock_2013.1_src/data/scripts/dock_solv.prm

>  <Rbt.Receptor>
prm/blind_docking_20.prm

>  <SCORE>
-10.5313

>  <SCORE.INTER>
-7.76717

>  <SCORE.INTER.CONST>
1

>  <SCORE.INTER.POLAR>
0

>  <SCORE.INTER.ROT>
3

>  <SCORE.INTER.SOLV>
10.1259

>  <SCORE.INTER.VDW>
-14.1534

>  <SCORE.INTER.norm>
-0.369865

>  <SCORE.INTRA>
-4.95014

>  <SCORE.INTRA.DIHEDRAL>
0.145465

>  <SCORE.INTRA.DIHEDRAL.0>
8.84257

>  <SCORE.INTRA.POLAR>
0

>  <SCORE.INTRA.POLAR.0>
0

>  <SCORE.INTRA.REPUL>
0

>  <SCORE.INTRA.REPUL.0>
0

>  <SCORE.INTRA.SOLV>
0.10324

>  <SCORE.INTRA.SOLV.lig_0>
-17.1313

>  <SCORE.INTRA.VDW>
-5.07449

>  <SCORE.INTRA.VDW.0>
6.34071

>  <SCORE.INTRA.norm>
-0.235721

>  <SCORE.RESTR>
2.186

>  <SCORE.RESTR.CAVITY>
2.186

>  <SCORE.RESTR.norm>
0.104095

>  <SCORE.SYSTEM>
0

>  <SCORE.SYSTEM.CONST>
0

>  <SCORE.SYSTEM.DIHEDRAL>
0

>  <SCORE.SYSTEM.SOLV>
0

>  <SCORE.SYSTEM.norm>
0

>  <SCORE.heavy>
21

>  <SCORE.norm>
-0.501491

>  <RMSD>
13.650

$$$$
lig.pdb
 OpenBabel11021811453D
libRbt.so/2013.1/901 2013/11/27
 21 23  0  0  0  0  0  0  0  0999 V2000
   -3.9168   12.1345   -0.9549 C   0  0  0  0  0  0  0  0  0  0  0  0
   -3.2444   11.2593   -0.2158 N   0  0  0  0  0  0  0  0  0  0  0  0
   -2.4732   10.3585   -0.7977 C   0  0  0  0  0  0  0  0  0  0  0  0
   -2.4240   10.2844   -2.1432 C   0  0  0  0  0  0  0  0  0  0  0  0
   -3.1008   11.1711   -2.8852 C   0  0  0  0  0  0  0  0  0  0  0  0
   -3.0621   11.1022   -4.2153 N   0  0  0  0  0  0  0  0  0  0  0  0
   -3.8480   12.0926   -2.2861 N   0  0  0  0  0  0  0  0  0  0  0  0
   -1.7780    9.4919   -0.0424 C   0  0  0  0  0  0  0  0  0  0  0  0
   -1.1263    8.4532   -0.6497 C   0  0  0  0  0  0  0  0  0  0  0  0
   -1.1571    7.1920   -0.0083 O   0  0  0  0  0  0  0  0  0  0  0  0
   -0.9307    8.5107   -1.9773 C   0  0  0  0  0  0  0  0  0  0  0  0
    0.1036    7.7386   -2.5707 O   0  0  0  0  0  0  0  0  0  0  0  0
   -1.6584    9.3559   -2.7335 C   0  0  0  0  0  0  0  0  0  0  0  0
   -4.6727   13.0421   -0.3614 N   0  0  0  0  0  0  0  0  0  0  0  0
   -4.1576   13.6282    0.7237 C   0  0  0  0  0  0  0  0  0  0  0  0
   -4.3015   12.7120    1.9294 C   0  0  0  0  0  0  0  0  0  0  0  0
   -5.6376   12.4600    2.1628 N   0  0  0  0  0  0  0  0  0  0  0  0
   -6.1319   11.8202    1.0472 C   0  0  0  0  0  0  0  0  0  0  0  0
   -5.9938   12.7350   -0.1584 C   0  0  0  0  0  0  0  0  0  0  0  0
   -0.1814    7.1926    1.0022 C   0  0  0  0  0  0  0  0  0  0  0  0
   -0.4757    6.6548   -3.2491 C   0  0  0  0  0  0  0  0  0  0  0  0
  1 14  1  0  0  0  0
  1  2  2  0  0  0  0
  3  2  1  0  0  0  0
  3  8  2  0  0  0  0
  4  3  1  0  0  0  0
  5  7  2  0  0  0  0
  5  4  1  0  0  0  0
  6  5  1  0  0  0  0
  7  1  1  0  0  0  0
  9 10  1  0  0  0  0
  9  8  1  0  0  0  0
 11  9  2  0  0  0  0
 12 11  1  0  0  0  0
 13  4  2  0  0  0  0
 13 11  1  0  0  0  0
 14 15  1  0  0  0  0
 16 15  1  0  0  0  0
 17 16  1  0  0  0  0
 18 17  1  0  0  0  0
 18 19  1  0  0  0  0
 19 14  1  0  0  0  0
 20 10  1  0  0  0  0
 21 12  1  0  0  0  0
M  END
>  <CHROM.1>
42.25312515,-80.89960950,105.90972034,-2.85845179,10.41481590,-0.86493626
2.94998671,-0.87969580,1.76528351

>  <Name>
lig.pdb

>  <RI>
1.05666e+07

>  <Rbt.Current_Directory>
/home/itssahil/PROJECTS/Mol_Feturizer/New_Systems/rnas/2lwk

>  <Rbt.Executable>
rbdock ($Id: //depot/dev/client3/rdock/2013.1/src/exe/rbdock.cxx#4 $)

>  <Rbt.Library>
libRbt.so (2013.1, Build901 2013/11/27)

>  <Rbt.Parameter_File>
/export/apps/rDock/src/rDock_2013.1_src/data/scripts/dock_solv.prm

>  <Rbt.Receptor>
prm/blind_docking_80.prm

>  <SCORE>
-7.93325

>  <SCORE.INTER>
-5.78589

>  <SCORE.INTER.CONST>
1

>  <SCORE.INTER.POLAR>
0

>  <SCORE.INTER.ROT>
3

>  <SCORE.INTER.SOLV>
12.7172

>  <SCORE.INTER.VDW>
-13.6963

>  <SCORE.INTER.norm>
-0.275519

>  <SCORE.INTRA>
-4.47342

>  <SCORE.INTRA.DIHEDRAL>
0.171187

>  <SCORE.INTRA.DIHEDRAL.0>
8.84257

>  <SCORE.INTRA.POLAR>
0

>  <SCORE.INTRA.POLAR.0>
0

>  <SCORE.INTRA.REPUL>
0

>  <SCORE.INTRA.REPUL.0>
0

>  <SCORE.INTRA.SOLV>
0.107324

>  <SCORE.INTRA.SOLV.lig_0>
-17.1313

>  <SCORE.INTRA.VDW>
-4.61267

>  <SCORE.INTRA.VDW.0>
6.34071

>  <SCORE.INTRA.norm>
-0.21302

>  <SCORE.RESTR>
2.32606

>  <SCORE.RESTR.CAVITY>
2.32606

>  <SCORE.RESTR.norm>
0.110765

>  <SCORE.SYSTEM>
0

>  <SCORE.SYSTEM.CONST>
0

>  <SCORE.SYSTEM.DIHEDRAL>
0

>  <SCORE.SYSTEM.SOLV>
0

>  <SCORE.SYSTEM.norm>
0

>  <SCORE.heavy>
21

>  <SCORE.norm>
-0.377774

>  <RMSD>
13.714

$$$$
lig.pdb
 OpenBabel11021811453D
libRbt.so/2013.1/901 2013/11/27
 21 23  0  0  0  0  0  0  0  0999 V2000
   -3.8754   11.3930    1.3774 C   0  0  0  0  0  0  0  0  0  0  0  0
   -3.8363   11.5255    0.0563 N   0  0  0  0  0  0  0  0  0  0  0  0
   -3.1159   10.6898   -0.6700 C   0  0  0  0  0  0  0  0  0  0  0  0
   -2.3666    9.7469   -0.0638 C   0  0  0  0  0  0  0  0  0  0  0  0
   -2.4115    9.6139    1.2686 C   0  0  0  0  0  0  0  0  0  0  0  0
   -1.6704    8.6883    1.8764 N   0  0  0  0  0  0  0  0  0  0  0  0
   -3.1654   10.4414    1.9849 N   0  0  0  0  0  0  0  0  0  0  0  0
   -3.1002   10.8160   -2.0074 C   0  0  0  0  0  0  0  0  0  0  0  0
   -2.2174   10.0668   -2.7364 C   0  0  0  0  0  0  0  0  0  0  0  0
   -1.5756   10.6891   -3.8337 O   0  0  0  0  0  0  0  0  0  0  0  0
   -1.6315    9.0135   -2.1435 C   0  0  0  0  0  0  0  0  0  0  0  0
   -1.0992    7.9638   -2.9391 O   0  0  0  0  0  0  0  0  0  0  0  0
   -1.6186    8.9130   -0.7999 C   0  0  0  0  0  0  0  0  0  0  0  0
   -4.6126   12.2247    2.0930 N   0  0  0  0  0  0  0  0  0  0  0  0
   -5.8950   12.3415    1.7353 C   0  0  0  0  0  0  0  0  0  0  0  0
   -6.0185   13.2608    0.5296 C   0  0  0  0  0  0  0  0  0  0  0  0
   -5.5398   14.5139    0.8515 N   0  0  0  0  0  0  0  0  0  0  0  0
   -4.2085   14.3699    1.1758 C   0  0  0  0  0  0  0  0  0  0  0  0
   -4.0821   13.4557    2.3830 C   0  0  0  0  0  0  0  0  0  0  0  0
   -2.5356   10.9024   -4.8367 C   0  0  0  0  0  0  0  0  0  0  0  0
   -2.0241    6.9084   -2.9700 C   0  0  0  0  0  0  0  0  0  0  0  0
  1 14  1  0  0  0  0
  1  2  2  0  0  0  0
  3  2  1  0  0  0  0
  3  8  2  0  0  0  0
  4  3  1  0  0  0  0
  5  7  2  0  0  0  0
  5  4  1  0  0  0  0
  6  5  1  0  0  0  0
  7  1  1  0  0  0  0
  9 10  1  0  0  0  0
  9  8  1  0  0  0  0
 11  9  2  0  0  0  0
 12 11  1  0  0  0  0
 13  4  2  0  0  0  0
 13 11  1  0  0  0  0
 14 15  1  0  0  0  0
 16 15  1  0  0  0  0
 17 16  1  0  0  0  0
 18 17  1  0  0  0  0
 18 19  1  0  0  0  0
 19 14  1  0  0  0  0
 20 10  1  0  0  0  0
 21 12  1  0  0  0  0
M  END
>  <CHROM.1>
53.30730431,-69.98659023,-99.33731286,-3.16730013,10.83643803,-0.39549797
-2.63690061,1.01965291,-1.34406829

>  <Name>
lig.pdb

>  <RI>
1.99026e+07

>  <Rbt.Current_Directory>
/home/itssahil/PROJECTS/Mol_Feturizer/New_Systems/rnas/2lwk

>  <Rbt.Executable>
rbdock ($Id: //depot/dev/client3/rdock/2013.1/src/exe/rbdock.cxx#4 $)

>  <Rbt.Library>
libRbt.so (2013.1, Build901 2013/11/27)

>  <Rbt.Parameter_File>
/export/apps/rDock/src/rDock_2013.1_src/data/scripts/dock_solv.prm

>  <Rbt.Receptor>
prm/blind_docking_60.prm

>  <SCORE>
6.93074

>  <SCORE.INTER>
10.7534

>  <SCORE.INTER.CONST>
1

>  <SCORE.INTER.POLAR>
-0.75948

>  <SCORE.INTER.ROT>
3

>  <SCORE.INTER.SOLV>
12.4384

>  <SCORE.INTER.VDW>
-0.0456064

>  <SCORE.INTER.norm>
0.512067

>  <SCORE.INTRA>
-4.34494

>  <SCORE.INTRA.DIHEDRAL>
-0.403153

>  <SCORE.INTRA.DIHEDRAL.0>
8.84257

>  <SCORE.INTRA.POLAR>
0

>  <SCORE.INTRA.POLAR.0>
0

>  <SCORE.INTRA.REPUL>
0

>  <SCORE.INTRA.REPUL.0>
0

>  <SCORE.INTRA.SOLV>
0.0595843

>  <SCORE.INTRA.SOLV.lig_0>
-17.1313

>  <SCORE.INTRA.VDW>
-4.17316

>  <SCORE.INTRA.VDW.0>
6.34071

>  <SCORE.INTRA.norm>
-0.206902

>  <SCORE.RESTR>
0.522279

>  <SCORE.RESTR.CAVITY>
0.522279

>  <SCORE.RESTR.norm>
0.0248704

>  <SCORE.SYSTEM>
0

>  <SCORE.SYSTEM.CONST>
0

>  <SCORE.SYSTEM.DIHEDRAL>
0

>  <SCORE.SYSTEM.SOLV>
0

>  <SCORE.SYSTEM.norm>
0

>  <SCORE.heavy>
21

>  <SCORE.norm>
0.330035

>  <RMSD>
13.726

$$$$
lig.pdb
 OpenBabel11021811453D
libRbt.so/2013.1/901 2013/11/27
 21 23  0  0  0  0  0  0  0  0999 V2000
   -3.9518   11.8767    1.0725 C   0  0  0  0  0  0  0  0  0  0  0  0
   -4.0465   11.8128   -0.2509 N   0  0  0  0  0  0  0  0  0  0  0  0
   -3.5061   10.7993   -0.9033 C   0  0  0  0  0  0  0  0  0  0  0  0
   -2.7997    9.8678   -0.2314 C   0  0  0  0  0  0  0  0  0  0  0  0
   -2.7094    9.9336    1.1036 C   0  0  0  0  0  0  0  0  0  0  0  0
   -2.0091    9.0203    1.7752 N   0  0  0  0  0  0  0  0  0  0  0  0
   -3.2850   10.9417    1.7507 N   0  0  0  0  0  0  0  0  0  0  0  0
   -3.6265   10.7297   -2.2395 C   0  0  0  0  0  0  0  0  0  0  0  0
   -2.9165    9.7807   -2.9234 C   0  0  0  0  0  0  0  0  0  0  0  0
   -2.3381   10.1555   -4.1596 O   0  0  0  0  0  0  0  0  0  0  0  0
   -2.3850    8.7591   -2.2320 C   0  0  0  0  0  0  0  0  0  0  0  0
   -2.0612    7.5488   -2.9016 O   0  0  0  0  0  0  0  0  0  0  0  0
   -2.2329    8.8512   -0.8964 C   0  0  0  0  0  0  0  0  0  0  0  0
   -4.5104   12.8868    1.7165 N   0  0  0  0  0  0  0  0  0  0  0  0
   -5.8221   12.7890    1.9534 C   0  0  0  0  0  0  0  0  0  0  0  0
   -6.6066   13.1471    0.7003 C   0  0  0  0  0  0  0  0  0  0  0  0
   -6.3256   14.4469    0.3335 N   0  0  0  0  0  0  0  0  0  0  0  0
   -4.9774   14.5090    0.0561 C   0  0  0  0  0  0  0  0  0  0  0  0
   -4.1908   14.1562    1.3076 C   0  0  0  0  0  0  0  0  0  0  0  0
   -3.3590   10.1986   -5.1234 C   0  0  0  0  0  0  0  0  0  0  0  0
   -0.6910    7.2938   -2.7342 C   0  0  0  0  0  0  0  0  0  0  0  0
  1 14  1  0  0  0  0
  1  2  2  0  0  0  0
  3  2  1  0  0  0  0
  3  8  2  0  0  0  0
  4  3  1  0  0  0  0
  5  7  2  0  0  0  0
  5  4  1  0  0  0  0
  6  5  1  0  0  0  0
  7  1  1  0  0  0  0
  9 10  1  0  0  0  0
  9  8  1  0  0  0  0
 11  9  2  0  0  0  0
 12 11  1  0  0  0  0
 13  4  2  0  0  0  0
 13 11  1  0  0  0  0
 14 15  1  0  0  0  0
 16 15  1  0  0  0  0
 17 16  1  0  0  0  0
 18 17  1  0  0  0  0
 18 19  1  0  0  0  0
 19 14  1  0  0  0  0
 20 10  1  0  0  0  0
 21 12  1  0  0  0  0
M  END
>  <CHROM.1>
81.43789245,-76.26799975,121.24929077,-3.53515362,10.92378170,-0.64093406
-2.48365550,0.95941389,-1.62866291

>  <Name>
lig.pdb

>  <RI>
3.07369e+07

>  <Rbt.Current_Directory>
/home/itssahil/PROJECTS/Mol_Feturizer/New_Systems/rnas/2lwk

>  <Rbt.Executable>
rbdock ($Id: //depot/dev/client3/rdock/2013.1/src/exe/rbdock.cxx#4 $)

>  <Rbt.Library>
libRbt.so (2013.1, Build901 2013/11/27)

>  <Rbt.Parameter_File>
/export/apps/rDock/src/rDock_2013.1_src/data/scripts/dock_solv.prm

>  <Rbt.Receptor>
prm/blind_docking_100.prm

>  <SCORE>
-8.2411

>  <SCORE.INTER>
-7.04868

>  <SCORE.INTER.CONST>
1

>  <SCORE.INTER.POLAR>
-1.11355

>  <SCORE.INTER.ROT>
3

>  <SCORE.INTER.SOLV>
10.3701

>  <SCORE.INTER.VDW>
-10.044

>  <SCORE.INTER.norm>
-0.335652

>  <SCORE.INTRA>
-4.3835

>  <SCORE.INTRA.DIHEDRAL>
-0.971932

>  <SCORE.INTRA.DIHEDRAL.0>
8.84257

>  <SCORE.INTRA.POLAR>
0

>  <SCORE.INTRA.POLAR.0>
0

>  <SCORE.INTRA.REPUL>
0

>  <SCORE.INTRA.REPUL.0>
0

>  <SCORE.INTRA.SOLV>
0.0959463

>  <SCORE.INTRA.SOLV.lig_0>
-17.1313

>  <SCORE.INTRA.VDW>
-3.94551

>  <SCORE.INTRA.VDW.0>
6.34071

>  <SCORE.INTRA.norm>
-0.208738

>  <SCORE.RESTR>
3.19109

>  <SCORE.RESTR.CAVITY>
3.19109

>  <SCORE.RESTR.norm>
0.151957

>  <SCORE.SYSTEM>
0

>  <SCORE.SYSTEM.CONST>
0

>  <SCORE.SYSTEM.DIHEDRAL>
0

>  <SCORE.SYSTEM.SOLV>
0

>  <SCORE.SYSTEM.norm>
0

>  <SCORE.heavy>
21

>  <SCORE.norm>
-0.392433

>  <RMSD>
13.728

$$$$
lig.pdb
 OpenBabel11021811453D
libRbt.so/2013.1/901 2013/11/27
 21 23  0  0  0  0  0  0  0  0999 V2000
   -3.9673   11.8829    1.0583 C   0  0  0  0  0  0  0  0  0  0  0  0
   -4.0537   11.8317   -0.2662 N   0  0  0  0  0  0  0  0  0  0  0  0
   -3.5061   10.8264   -0.9252 C   0  0  0  0  0  0  0  0  0  0  0  0
   -2.8010    9.8905   -0.2582 C   0  0  0  0  0  0  0  0  0  0  0  0
   -2.7191    9.9434    1.0780 C   0  0  0  0  0  0  0  0  0  0  0  0
   -2.0201    9.0257    1.7448 N   0  0  0  0  0  0  0  0  0  0  0  0
   -3.3018   10.9433    1.7313 N   0  0  0  0  0  0  0  0  0  0  0  0
   -3.6181   10.7696   -2.2627 C   0  0  0  0  0  0  0  0  0  0  0  0
   -2.9010    9.8296   -2.9515 C   0  0  0  0  0  0  0  0  0  0  0  0
   -2.3161   10.2183   -4.1804 O   0  0  0  0  0  0  0  0  0  0  0  0
   -2.3705    8.8029   -2.2670 C   0  0  0  0  0  0  0  0  0  0  0  0
   -2.0388    7.6002   -2.9465 O   0  0  0  0  0  0  0  0  0  0  0  0
   -2.2269    8.8823   -0.9296 C   0  0  0  0  0  0  0  0  0  0  0  0
   -4.5331   12.8849    1.7088 N   0  0  0  0  0  0  0  0  0  0  0  0
   -5.8457   12.7803    1.9374 C   0  0  0  0  0  0  0  0  0  0  0  0
   -6.6246   13.1475    0.6834 C   0  0  0  0  0  0  0  0  0  0  0  0
   -6.3461   14.4518    0.3305 N   0  0  0  0  0  0  0  0  0  0  0  0
   -4.9966   14.5211    0.0612 C   0  0  0  0  0  0  0  0  0  0  0  0
   -4.2158   14.1593    1.3136 C   0  0  0  0  0  0  0  0  0  0  0  0
   -3.3283   10.2519   -5.1538 C   0  0  0  0  0  0  0  0  0  0  0  0
   -0.6795    7.3223   -2.7331 C   0  0  0  0  0  0  0  0  0  0  0  0
  1 14  1  0  0  0  0
  1  2  2  0  0  0  0
  3  2  1  0  0  0  0
  3  8  2  0  0  0  0
  4  3  1  0  0  0  0
  5  7  2  0  0  0  0
  5  4  1  0  0  0  0
  6  5  1  0  0  0  0
  7  1  1  0  0  0  0
  9 10  1  0  0  0  0
  9  8  1  0  0  0  0
 11  9  2  0  0  0  0
 12 11  1  0  0  0  0
 13  4  2  0  0  0  0
 13 11  1  0  0  0  0
 14 15  1  0  0  0  0
 16 15  1  0  0  0  0
 17 16  1  0  0  0  0
 18 17  1  0  0  0  0
 18 19  1  0  0  0  0
 19 14  1  0  0  0  0
 20 10  1  0  0  0  0
 21 12  1  0  0  0  0
M  END
>  <CHROM.1>
81.48648326,-76.98200052,123.34630677,-3.53782811,10.94588003,-0.65985610
-2.49493752,0.95703976,-1.61112646

>  <Name>
lig.pdb

>  <RI>
1.05666e+07

>  <Rbt.Current_Directory>
/home/itssahil/PROJECTS/Mol_Feturizer/New_Systems/rnas/2lwk

>  <Rbt.Executable>
rbdock ($Id: //depot/dev/client3/rdock/2013.1/src/exe/rbdock.cxx#4 $)

>  <Rbt.Library>
libRbt.so (2013.1, Build901 2013/11/27)

>  <Rbt.Parameter_File>
/export/apps/rDock/src/rDock_2013.1_src/data/scripts/dock_solv.prm

>  <Rbt.Receptor>
prm/blind_docking_80.prm

>  <SCORE>
-8.46866

>  <SCORE.INTER>
-7.42719

>  <SCORE.INTER.CONST>
1

>  <SCORE.INTER.POLAR>
-1.11355

>  <SCORE.INTER.ROT>
3

>  <SCORE.INTER.SOLV>
10.431

>  <SCORE.INTER.VDW>
-10.3166

>  <SCORE.INTER.norm>
-0.353676

>  <SCORE.INTRA>
-4.2884

>  <SCORE.INTRA.DIHEDRAL>
-1.08227

>  <SCORE.INTRA.DIHEDRAL.0>
8.84257

>  <SCORE.INTRA.POLAR>
0

>  <SCORE.INTRA.POLAR.0>
0

>  <SCORE.INTRA.REPUL>
0

>  <SCORE.INTRA.REPUL.0>
0

>  <SCORE.INTRA.SOLV>
0.0948194

>  <SCORE.INTRA.SOLV.lig_0>
-17.1313

>  <SCORE.INTRA.VDW>
-3.79467

>  <SCORE.INTRA.VDW.0>
6.34071

>  <SCORE.INTRA.norm>
-0.20421

>  <SCORE.RESTR>
3.24693

>  <SCORE.RESTR.CAVITY>
3.24693

>  <SCORE.RESTR.norm>
0.154616

>  <SCORE.SYSTEM>
0

>  <SCORE.SYSTEM.CONST>
0

>  <SCORE.SYSTEM.DIHEDRAL>
0

>  <SCORE.SYSTEM.SOLV>
0

>  <SCORE.SYSTEM.norm>
0

>  <SCORE.heavy>
21

>  <SCORE.norm>
-0.403269

>  <RMSD>
13.756

$$$$
lig.pdb
 OpenBabel11021811453D
libRbt.so/2013.1/901 2013/11/27
 21 23  0  0  0  0  0  0  0  0999 V2000
   -3.8997   12.2401   -0.8882 C   0  0  0  0  0  0  0  0  0  0  0  0
   -3.2302   11.3602   -0.1520 N   0  0  0  0  0  0  0  0  0  0  0  0
   -2.4720   10.4507   -0.7374 C   0  0  0  0  0  0  0  0  0  0  0  0
   -2.4334   10.3731   -2.0830 C   0  0  0  0  0  0  0  0  0  0  0  0
   -3.1071   11.2645   -2.8221 C   0  0  0  0  0  0  0  0  0  0  0  0
   -3.0788   11.1922   -4.1524 N   0  0  0  0  0  0  0  0  0  0  0  0
   -3.8410   12.1945   -2.2198 N   0  0  0  0  0  0  0  0  0  0  0  0
   -1.7796    9.5792    0.0149 C   0  0  0  0  0  0  0  0  0  0  0  0
   -1.1423    8.5330   -0.5947 C   0  0  0  0  0  0  0  0  0  0  0  0
   -1.1804    7.2736    0.0499 O   0  0  0  0  0  0  0  0  0  0  0  0
   -0.9559    8.5856   -1.9239 C   0  0  0  0  0  0  0  0  0  0  0  0
    0.0667    7.8023   -2.5229 O   0  0  0  0  0  0  0  0  0  0  0  0
   -1.6810    9.4360   -2.6767 C   0  0  0  0  0  0  0  0  0  0  0  0
   -4.6425   13.1562   -0.2914 N   0  0  0  0  0  0  0  0  0  0  0  0
   -4.1586   13.6668    0.8450 C   0  0  0  0  0  0  0  0  0  0  0  0
   -4.4088   12.7056    1.9971 C   0  0  0  0  0  0  0  0  0  0  0  0
   -5.7657   12.5095    2.1503 N   0  0  0  0  0  0  0  0  0  0  0  0
   -6.2298   11.9456    0.9820 C   0  0  0  0  0  0  0  0  0  0  0  0
   -5.9854   12.9057   -0.1703 C   0  0  0  0  0  0  0  0  0  0  0  0
   -0.1301    7.2285    0.9815 C   0  0  0  0  0  0  0  0  0  0  0  0
   -0.5266    6.7126   -3.1794 C   0  0  0  0  0  0  0  0  0  0  0  0
  1 14  1  0  0  0  0
  1  2  2  0  0  0  0
  3  2  1  0  0  0  0
  3  8  2  0  0  0  0
  4  3  1  0  0  0  0
  5  7  2  0  0  0  0
  5  4  1  0  0  0  0
  6  5  1  0  0  0  0
  7  1  1  0  0  0  0
  9 10  1  0  0  0  0
  9  8  1  0  0  0  0
 11  9  2  0  0  0  0
 12 11  1  0  0  0  0
 13  4  2  0  0  0  0
 13 11  1  0  0  0  0
 14 15  1  0  0  0  0
 16 15  1  0  0  0  0
 17 16  1  0  0  0  0
 18 17  1  0  0  0  0
 18 19  1  0  0  0  0
 19 14  1  0  0  0  0
 20 10  1  0  0  0  0
 21 12  1  0  0  0  0
M  END
>  <CHROM.1>
37.34454654,-85.42845236,105.12689191,-2.87910555,10.49626246,-0.81854936
2.96323916,-0.87812901,1.77268769

>  <Name>
lig.pdb

>  <RI>
4.07847e+07

>  <Rbt.Current_Directory>
/home/itssahil/PROJECTS/Mol_Feturizer/New_Systems/rnas/2lwk

>  <Rbt.Executable>
rbdock ($Id: //depot/dev/client3/rdock/2013.1/src/exe/rbdock.cxx#4 $)

>  <Rbt.Library>
libRbt.so (2013.1, Build901 2013/11/27)

>  <Rbt.Parameter_File>
/export/apps/rDock/src/rDock_2013.1_src/data/scripts/dock_solv.prm

>  <Rbt.Receptor>
prm/blind_docking_20.prm

>  <SCORE>
-8.20228

>  <SCORE.INTER>
-6.17879

>  <SCORE.INTER.CONST>
1

>  <SCORE.INTER.POLAR>
0

>  <SCORE.INTER.ROT>
3

>  <SCORE.INTER.SOLV>
12.6381

>  <SCORE.INTER.VDW>
-13.9319

>  <SCORE.INTER.norm>
-0.294228

>  <SCORE.INTRA>
-4.39132

>  <SCORE.INTRA.DIHEDRAL>
0.414213

>  <SCORE.INTRA.DIHEDRAL.0>
8.84257

>  <SCORE.INTRA.POLAR>
0

>  <SCORE.INTRA.POLAR.0>
0

>  <SCORE.INTRA.REPUL>
0

>  <SCORE.INTRA.REPUL.0>
0

>  <SCORE.INTRA.SOLV>
0.106539

>  <SCORE.INTRA.SOLV.lig_0>
-17.1313

>  <SCORE.INTRA.VDW>
-4.65169

>  <SCORE.INTRA.VDW.0>
6.34071

>  <SCORE.INTRA.norm>
-0.20911

>  <SCORE.RESTR>
2.36783

>  <SCORE.RESTR.CAVITY>
2.36783

>  <SCORE.RESTR.norm>
0.112754

>  <SCORE.SYSTEM>
0

>  <SCORE.SYSTEM.CONST>
0

>  <SCORE.SYSTEM.DIHEDRAL>
0

>  <SCORE.SYSTEM.SOLV>
0

>  <SCORE.SYSTEM.norm>
0

>  <SCORE.heavy>
21

>  <SCORE.norm>
-0.390585

>  <RMSD>
13.760

$$$$
lig.pdb
 OpenBabel11021811453D
libRbt.so/2013.1/901 2013/11/27
 21 23  0  0  0  0  0  0  0  0999 V2000
   -3.9943   11.8408    1.0611 C   0  0  0  0  0  0  0  0  0  0  0  0
   -3.9298   11.8698   -0.2653 N   0  0  0  0  0  0  0  0  0  0  0  0
   -3.2116   10.9687   -0.9112 C   0  0  0  0  0  0  0  0  0  0  0  0
   -2.4897   10.0636   -0.2200 C   0  0  0  0  0  0  0  0  0  0  0  0
   -2.5602   10.0352    1.1176 C   0  0  0  0  0  0  0  0  0  0  0  0
   -1.8463    9.1476    1.8090 N   0  0  0  0  0  0  0  0  0  0  0  0
   -3.3119   10.9279    1.7536 N   0  0  0  0  0  0  0  0  0  0  0  0
   -3.1703   10.9905   -2.2538 C   0  0  0  0  0  0  0  0  0  0  0  0
   -2.2881   10.1728   -2.9061 C   0  0  0  0  0  0  0  0  0  0  0  0
   -1.6164   10.6976   -4.0359 O   0  0  0  0  0  0  0  0  0  0  0  0
   -1.7314    9.1594   -2.2226 C   0  0  0  0  0  0  0  0  0  0  0  0
   -1.2038    8.0426   -2.9246 O   0  0  0  0  0  0  0  0  0  0  0  0
   -1.7437    9.1632   -0.8752 C   0  0  0  0  0  0  0  0  0  0  0  0
   -4.7292   12.7374    1.6963 N   0  0  0  0  0  0  0  0  0  0  0  0
   -6.0467   12.5151    1.7240 C   0  0  0  0  0  0  0  0  0  0  0  0
   -6.6737   12.9302    0.4016 C   0  0  0  0  0  0  0  0  0  0  0  0
   -6.4632   14.2773    0.1918 N   0  0  0  0  0  0  0  0  0  0  0  0
   -5.1006   14.4708    0.1266 C   0  0  0  0  0  0  0  0  0  0  0  0
   -4.4718   14.0614    1.4481 C   0  0  0  0  0  0  0  0  0  0  0  0
   -2.5646   10.8989   -5.0525 C   0  0  0  0  0  0  0  0  0  0  0  0
   -2.1357    6.9944   -2.8693 C   0  0  0  0  0  0  0  0  0  0  0  0
  1 14  1  0  0  0  0
  1  2  2  0  0  0  0
  3  2  1  0  0  0  0
  3  8  2  0  0  0  0
  4  3  1  0  0  0  0
  5  7  2  0  0  0  0
  5  4  1  0  0  0  0
  6  5  1  0  0  0  0
  7  1  1  0  0  0  0
  9 10  1  0  0  0  0
  9  8  1  0  0  0  0
 11  9  2  0  0  0  0
 12 11  1  0  0  0  0
 13  4  2  0  0  0  0
 13 11  1  0  0  0  0
 14 15  1  0  0  0  0
 16 15  1  0  0  0  0
 17 16  1  0  0  0  0
 18 17  1  0  0  0  0
 18 19  1  0  0  0  0
 19 14  1  0  0  0  0
 20 10  1  0  0  0  0
 21 12  1  0  0  0  0
M  END
>  <CHROM.1>
79.14221314,-67.63462114,-100.45062088,-3.39489880,11.04107507,-0.65939064
-2.66188990,0.93811110,-1.39933308

>  <Name>
lig.pdb

>  <RI>
4.07847e+07

>  <Rbt.Current_Directory>
/home/itssahil/PROJECTS/Mol_Feturizer/New_Systems/rnas/2lwk

>  <Rbt.Executable>
rbdock ($Id: //depot/dev/client3/rdock/2013.1/src/exe/rbdock.cxx#4 $)

>  <Rbt.Library>
libRbt.so (2013.1, Build901 2013/11/27)

>  <Rbt.Parameter_File>
/export/apps/rDock/src/rDock_2013.1_src/data/scripts/dock_solv.prm

>  <Rbt.Receptor>
prm/blind_docking_20.prm

>  <SCORE>
-10.625

>  <SCORE.INTER>
-8.50765

>  <SCORE.INTER.CONST>
1

>  <SCORE.INTER.POLAR>
-0.939493

>  <SCORE.INTER.ROT>
3

>  <SCORE.INTER.SOLV>
11.4646

>  <SCORE.INTER.VDW>
-11.9617

>  <SCORE.INTER.norm>
-0.405126

>  <SCORE.INTRA>
-4.40045

>  <SCORE.INTRA.DIHEDRAL>
-0.617949

>  <SCORE.INTRA.DIHEDRAL.0>
8.84257

>  <SCORE.INTRA.POLAR>
0

>  <SCORE.INTRA.POLAR.0>
0

>  <SCORE.INTRA.REPUL>
0

>  <SCORE.INTRA.REPUL.0>
0

>  <SCORE.INTRA.SOLV>
0.056719

>  <SCORE.INTRA.SOLV.lig_0>
-17.1313

>  <SCORE.INTRA.VDW>
-4.11983

>  <SCORE.INTRA.VDW.0>
6.34071

>  <SCORE.INTRA.norm>
-0.209545

>  <SCORE.RESTR>
2.28306

>  <SCORE.RESTR.CAVITY>
2.28306

>  <SCORE.RESTR.norm>
0.108717

>  <SCORE.SYSTEM>
0

>  <SCORE.SYSTEM.CONST>
0

>  <SCORE.SYSTEM.DIHEDRAL>
0

>  <SCORE.SYSTEM.SOLV>
0

>  <SCORE.SYSTEM.norm>
0

>  <SCORE.heavy>
21

>  <SCORE.norm>
-0.505954

>  <RMSD>
13.929

$$$$
lig.pdb
 OpenBabel11021811453D
libRbt.so/2013.1/901 2013/11/27
 21 23  0  0  0  0  0  0  0  0999 V2000
   -3.9896   11.8467    1.0588 C   0  0  0  0  0  0  0  0  0  0  0  0
   -3.9176   11.8753   -0.2672 N   0  0  0  0  0  0  0  0  0  0  0  0
   -3.1958   10.9741   -0.9088 C   0  0  0  0  0  0  0  0  0  0  0  0
   -2.4779   10.0691   -0.2133 C   0  0  0  0  0  0  0  0  0  0  0  0
   -2.5560   10.0410    1.1239 C   0  0  0  0  0  0  0  0  0  0  0  0
   -1.8461    9.1535    1.8195 N   0  0  0  0  0  0  0  0  0  0  0  0
   -3.3112   10.9339    1.7553 N   0  0  0  0  0  0  0  0  0  0  0  0
   -3.1469   10.9955   -2.2512 C   0  0  0  0  0  0  0  0  0  0  0  0
   -2.2611   10.1776   -2.8982 C   0  0  0  0  0  0  0  0  0  0  0  0
   -1.5829   10.7021   -4.0243 O   0  0  0  0  0  0  0  0  0  0  0  0
   -1.7083    9.1643   -2.2113 C   0  0  0  0  0  0  0  0  0  0  0  0
   -1.1768    8.0473   -2.9101 O   0  0  0  0  0  0  0  0  0  0  0  0
   -1.7283    9.1684   -0.8641 C   0  0  0  0  0  0  0  0  0  0  0  0
   -4.7280   12.7434    1.6896 N   0  0  0  0  0  0  0  0  0  0  0  0
   -6.0445   12.5152    1.7200 C   0  0  0  0  0  0  0  0  0  0  0  0
   -6.6748   12.9196    0.3959 C   0  0  0  0  0  0  0  0  0  0  0  0
   -6.4708   14.2665    0.1780 N   0  0  0  0  0  0  0  0  0  0  0  0
   -5.1092   14.4660    0.1103 C   0  0  0  0  0  0  0  0  0  0  0  0
   -4.4772   14.0672    1.4335 C   0  0  0  0  0  0  0  0  0  0  0  0
   -2.5277   10.9168   -5.0414 C   0  0  0  0  0  0  0  0  0  0  0  0
   -2.1083    6.9985   -2.8582 C   0  0  0  0  0  0  0  0  0  0  0  0
  1 14  1  0  0  0  0
  1  2  2  0  0  0  0
  3  2  1  0  0  0  0
  3  8  2  0  0  0  0
  4  3  1  0  0  0  0
  5  7  2  0  0  0  0
  5  4  1  0  0  0  0
  6  5  1  0  0  0  0
  7  1  1  0  0  0  0
  9 10  1  0  0  0  0
  9  8  1  0  0  0  0
 11  9  2  0  0  0  0
 12 11  1  0  0  0  0
 13  4  2  0  0  0  0
 13 11  1  0  0  0  0
 14 15  1  0  0  0  0
 16 15  1  0  0  0  0
 17 16  1  0  0  0  0
 18 17  1  0  0  0  0
 18 19  1  0  0  0  0
 19 14  1  0  0  0  0
 20 10  1  0  0  0  0
 21 12  1  0  0  0  0
M  END
>  <CHROM.1>
79.71105400,-67.00574203,-100.53592040,-3.38319802,11.04467782,-0.65727677
-2.67169756,0.93531411,-1.39117857

>  <Name>
lig.pdb

>  <RI>
1.99026e+07

>  <Rbt.Current_Directory>
/home/itssahil/PROJECTS/Mol_Feturizer/New_Systems/rnas/2lwk

>  <Rbt.Executable>
rbdock ($Id: //depot/dev/client3/rdock/2013.1/src/exe/rbdock.cxx#4 $)

>  <Rbt.Library>
libRbt.so (2013.1, Build901 2013/11/27)

>  <Rbt.Parameter_File>
/export/apps/rDock/src/rDock_2013.1_src/data/scripts/dock_solv.prm

>  <Rbt.Receptor>
prm/blind_docking_60.prm

>  <SCORE>
-10.4381

>  <SCORE.INTER>
-8.33479

>  <SCORE.INTER.CONST>
1

>  <SCORE.INTER.POLAR>
-0.924193

>  <SCORE.INTER.ROT>
3

>  <SCORE.INTER.SOLV>
11.5491

>  <SCORE.INTER.VDW>
-11.9256

>  <SCORE.INTER.norm>
-0.396895

>  <SCORE.INTRA>
-4.34999

>  <SCORE.INTRA.DIHEDRAL>
-0.66621

>  <SCORE.INTRA.DIHEDRAL.0>
8.84257

>  <SCORE.INTRA.POLAR>
0

>  <SCORE.INTRA.POLAR.0>
0

>  <SCORE.INTRA.REPUL>
0

>  <SCORE.INTRA.REPUL.0>
0

>  <SCORE.INTRA.SOLV>
0.0557394

>  <SCORE.INTRA.SOLV.lig_0>
-17.1313

>  <SCORE.INTRA.VDW>
-4.04475

>  <SCORE.INTRA.VDW.0>
6.34071

>  <SCORE.INTRA.norm>
-0.207142

>  <SCORE.RESTR>
2.24665

>  <SCORE.RESTR.CAVITY>
2.24665

>  <SCORE.RESTR.norm>
0.106983

>  <SCORE.SYSTEM>
0

>  <SCORE.SYSTEM.CONST>
0

>  <SCORE.SYSTEM.DIHEDRAL>
0

>  <SCORE.SYSTEM.SOLV>
0

>  <SCORE.SYSTEM.norm>
0

>  <SCORE.heavy>
21

>  <SCORE.norm>
-0.497054

>  <RMSD>
13.938

$$$$
lig.pdb
 OpenBabel11021811453D
libRbt.so/2013.1/901 2013/11/27
 21 23  0  0  0  0  0  0  0  0999 V2000
   -3.9764   11.9351    1.0810 C   0  0  0  0  0  0  0  0  0  0  0  0
   -3.8983   11.9518   -0.2449 N   0  0  0  0  0  0  0  0  0  0  0  0
   -3.1915   11.0316   -0.8763 C   0  0  0  0  0  0  0  0  0  0  0  0
   -2.4941   10.1186   -0.1705 C   0  0  0  0  0  0  0  0  0  0  0  0
   -2.5782   10.1027    1.1665 C   0  0  0  0  0  0  0  0  0  0  0  0
   -1.8884    9.2073    1.8722 N   0  0  0  0  0  0  0  0  0  0  0  0
   -3.3186   11.0150    1.7876 N   0  0  0  0  0  0  0  0  0  0  0  0
   -3.1366   11.0414   -2.2185 C   0  0  0  0  0  0  0  0  0  0  0  0
   -2.2642   10.2014   -2.8553 C   0  0  0  0  0  0  0  0  0  0  0  0
   -1.5714   10.7036   -3.9826 O   0  0  0  0  0  0  0  0  0  0  0  0
   -1.7339    9.1831   -2.1580 C   0  0  0  0  0  0  0  0  0  0  0  0
   -1.2212    8.0506   -2.8456 O   0  0  0  0  0  0  0  0  0  0  0  0
   -1.7593    9.1984   -0.8109 C   0  0  0  0  0  0  0  0  0  0  0  0
   -4.6999   12.8510    1.7015 N   0  0  0  0  0  0  0  0  0  0  0  0
   -6.0166   12.6295    1.7607 C   0  0  0  0  0  0  0  0  0  0  0  0
   -6.6684   13.0030    0.4380 C   0  0  0  0  0  0  0  0  0  0  0  0
   -6.4628   14.3429    0.1823 N   0  0  0  0  0  0  0  0  0  0  0  0
   -5.1018   14.5345    0.0857 C   0  0  0  0  0  0  0  0  0  0  0  0
   -4.4482   14.1667    1.4073 C   0  0  0  0  0  0  0  0  0  0  0  0
   -2.5068   10.9231   -5.0073 C   0  0  0  0  0  0  0  0  0  0  0  0
   -2.1365    6.9939   -2.7186 C   0  0  0  0  0  0  0  0  0  0  0  0
  1 14  1  0  0  0  0
  1  2  2  0  0  0  0
  3  2  1  0  0  0  0
  3  8  2  0  0  0  0
  4  3  1  0  0  0  0
  5  7  2  0  0  0  0
  5  4  1  0  0  0  0
  6  5  1  0  0  0  0
  7  1  1  0  0  0  0
  9 10  1  0  0  0  0
  9  8  1  0  0  0  0
 11  9  2  0  0  0  0
 12 11  1  0  0  0  0
 13  4  2  0  0  0  0
 13 11  1  0  0  0  0
 14 15  1  0  0  0  0
 16 15  1  0  0  0  0
 17 16  1  0  0  0  0
 18 17  1  0  0  0  0
 18 19  1  0  0  0  0
 19 14  1  0  0  0  0
 20 10  1  0  0  0  0
 21 12  1  0  0  0  0
M  END
>  <CHROM.1>
81.52780463,-67.25157649,-104.15251292,-3.38497856,11.09842534,-0.62079327
-2.68857105,0.94766970,-1.38509797

>  <Name>
lig.pdb

>  <RI>
4.07847e+07

>  <Rbt.Current_Directory>
/home/itssahil/PROJECTS/Mol_Feturizer/New_Systems/rnas/2lwk

>  <Rbt.Executable>
rbdock ($Id: //depot/dev/client3/rdock/2013.1/src/exe/rbdock.cxx#4 $)

>  <Rbt.Library>
libRbt.so (2013.1, Build901 2013/11/27)

>  <Rbt.Parameter_File>
/export/apps/rDock/src/rDock_2013.1_src/data/scripts/dock_solv.prm

>  <Rbt.Receptor>
prm/blind_docking_20.prm

>  <SCORE>
-10.6285

>  <SCORE.INTER>
-8.69805

>  <SCORE.INTER.CONST>
1

>  <SCORE.INTER.POLAR>
-0.888709

>  <SCORE.INTER.ROT>
3

>  <SCORE.INTER.SOLV>
11.6034

>  <SCORE.INTER.VDW>
-12.3041

>  <SCORE.INTER.norm>
-0.414193

>  <SCORE.INTRA>
-4.22488

>  <SCORE.INTRA.DIHEDRAL>
-0.794015

>  <SCORE.INTRA.DIHEDRAL.0>
8.84257

>  <SCORE.INTRA.POLAR>
0

>  <SCORE.INTRA.POLAR.0>
0

>  <SCORE.INTRA.REPUL>
0

>  <SCORE.INTRA.REPUL.0>
0

>  <SCORE.INTRA.SOLV>
0.0527811

>  <SCORE.INTRA.SOLV.lig_0>
-17.1313

>  <SCORE.INTRA.VDW>
-3.85427

>  <SCORE.INTRA.VDW.0>
6.34071

>  <SCORE.INTRA.norm>
-0.201185

>  <SCORE.RESTR>
2.29441

>  <SCORE.RESTR.CAVITY>
2.29441

>  <SCORE.RESTR.norm>
0.109257

>  <SCORE.SYSTEM>
0

>  <SCORE.SYSTEM.CONST>
0

>  <SCORE.SYSTEM.DIHEDRAL>
0

>  <SCORE.SYSTEM.SOLV>
0

>  <SCORE.SYSTEM.norm>
0

>  <SCORE.heavy>
21

>  <SCORE.norm>
-0.50612

>  <RMSD>
13.967

$$$$
lig.pdb
 OpenBabel11021811453D
libRbt.so/2013.1/901 2013/11/27
 21 23  0  0  0  0  0  0  0  0999 V2000
   -3.9882   11.9469    1.0729 C   0  0  0  0  0  0  0  0  0  0  0  0
   -3.9081   11.9587   -0.2529 N   0  0  0  0  0  0  0  0  0  0  0  0
   -3.1987   11.0375   -0.8797 C   0  0  0  0  0  0  0  0  0  0  0  0
   -2.5008   10.1283   -0.1694 C   0  0  0  0  0  0  0  0  0  0  0  0
   -2.5869   10.1173    1.1675 C   0  0  0  0  0  0  0  0  0  0  0  0
   -1.8967    9.2257    1.8776 N   0  0  0  0  0  0  0  0  0  0  0  0
   -3.3299   11.0306    1.7841 N   0  0  0  0  0  0  0  0  0  0  0  0
   -3.1417   11.0423   -2.2218 C   0  0  0  0  0  0  0  0  0  0  0  0
   -2.2668   10.2015   -2.8541 C   0  0  0  0  0  0  0  0  0  0  0  0
   -1.5731   10.7007   -3.9822 O   0  0  0  0  0  0  0  0  0  0  0  0
   -1.7358    9.1867   -2.1523 C   0  0  0  0  0  0  0  0  0  0  0  0
   -1.2201    8.0526   -2.8348 O   0  0  0  0  0  0  0  0  0  0  0  0
   -1.7634    9.2070   -0.8053 C   0  0  0  0  0  0  0  0  0  0  0  0
   -4.7143   12.8638    1.6889 N   0  0  0  0  0  0  0  0  0  0  0  0
   -6.0338   12.6541    1.7225 C   0  0  0  0  0  0  0  0  0  0  0  0
   -6.6583   13.0458    0.3919 C   0  0  0  0  0  0  0  0  0  0  0  0
   -6.4358   14.3860    0.1524 N   0  0  0  0  0  0  0  0  0  0  0  0
   -5.0715   14.5657    0.0819 C   0  0  0  0  0  0  0  0  0  0  0  0
   -4.4452   14.1797    1.4115 C   0  0  0  0  0  0  0  0  0  0  0  0
   -2.5077   10.9169   -5.0084 C   0  0  0  0  0  0  0  0  0  0  0  0
   -2.1220    6.9875   -2.6843 C   0  0  0  0  0  0  0  0  0  0  0  0
  1 14  1  0  0  0  0
  1  2  2  0  0  0  0
  3  2  1  0  0  0  0
  3  8  2  0  0  0  0
  4  3  1  0  0  0  0
  5  7  2  0  0  0  0
  5  4  1  0  0  0  0
  6  5  1  0  0  0  0
  7  1  1  0  0  0  0
  9 10  1  0  0  0  0
  9  8  1  0  0  0  0
 11  9  2  0  0  0  0
 12 11  1  0  0  0  0
 13  4  2  0  0  0  0
 13 11  1  0  0  0  0
 14 15  1  0  0  0  0
 16 15  1  0  0  0  0
 17 16  1  0  0  0  0
 18 17  1  0  0  0  0
 18 19  1  0  0  0  0
 19 14  1  0  0  0  0
 20 10  1  0  0  0  0
 21 12  1  0  0  0  0
M  END
>  <CHROM.1>
80.17535795,-67.14974337,-105.23574409,-3.38584454,11.11044573,-0.62493318
-2.69512506,0.95057212,-1.38490997

>  <Name>
lig.pdb

>  <RI>
4.07847e+07

>  <Rbt.Current_Directory>
/home/itssahil/PROJECTS/Mol_Feturizer/New_Systems/rnas/2lwk

>  <Rbt.Executable>
rbdock ($Id: //depot/dev/client3/rdock/2013.1/src/exe/rbdock.cxx#4 $)

>  <Rbt.Library>
libRbt.so (2013.1, Build901 2013/11/27)

>  <Rbt.Parameter_File>
/export/apps/rDock/src/rDock_2013.1_src/data/scripts/dock_solv.prm

>  <Rbt.Receptor>
prm/blind_docking_20.prm

>  <SCORE>
-10.665

>  <SCORE.INTER>
-8.75985

>  <SCORE.INTER.CONST>
1

>  <SCORE.INTER.POLAR>
-0.888144

>  <SCORE.INTER.ROT>
3

>  <SCORE.INTER.SOLV>
11.5779

>  <SCORE.INTER.VDW>
-12.3387

>  <SCORE.INTER.norm>
-0.417136

>  <SCORE.INTRA>
-4.20313

>  <SCORE.INTRA.DIHEDRAL>
-0.850501

>  <SCORE.INTRA.DIHEDRAL.0>
8.84257

>  <SCORE.INTRA.POLAR>
0

>  <SCORE.INTRA.POLAR.0>
0

>  <SCORE.INTRA.REPUL>
0

>  <SCORE.INTRA.REPUL.0>
0

>  <SCORE.INTRA.SOLV>
0.0533806

>  <SCORE.INTRA.SOLV.lig_0>
-17.1313

>  <SCORE.INTRA.VDW>
-3.80457

>  <SCORE.INTRA.VDW.0>
6.34071

>  <SCORE.INTRA.norm>
-0.200149

>  <SCORE.RESTR>
2.29793

>  <SCORE.RESTR.CAVITY>
2.29793

>  <SCORE.RESTR.norm>
0.109425

>  <SCORE.SYSTEM>
0

>  <SCORE.SYSTEM.CONST>
0

>  <SCORE.SYSTEM.DIHEDRAL>
0

>  <SCORE.SYSTEM.SOLV>
0

>  <SCORE.SYSTEM.norm>
0

>  <SCORE.heavy>
21

>  <SCORE.norm>
-0.50786

>  <RMSD>
13.976

$$$$
lig.pdb
 OpenBabel11021811453D
libRbt.so/2013.1/901 2013/11/27
 21 23  0  0  0  0  0  0  0  0999 V2000
   -3.9947   11.9368    1.0589 C   0  0  0  0  0  0  0  0  0  0  0  0
   -3.9170   11.9563   -0.2669 N   0  0  0  0  0  0  0  0  0  0  0  0
   -3.2042   11.0420   -0.9000 C   0  0  0  0  0  0  0  0  0  0  0  0
   -2.5005   10.1324   -0.1961 C   0  0  0  0  0  0  0  0  0  0  0  0
   -2.5842   10.1136    1.1409 C   0  0  0  0  0  0  0  0  0  0  0  0
   -1.8882    9.2216    1.8449 N   0  0  0  0  0  0  0  0  0  0  0  0
   -3.3306   11.0198    1.7638 N   0  0  0  0  0  0  0  0  0  0  0  0
   -3.1497   11.0545   -2.2423 C   0  0  0  0  0  0  0  0  0  0  0  0
   -2.2717   10.2215   -2.8807 C   0  0  0  0  0  0  0  0  0  0  0  0
   -1.5826   10.7304   -4.0073 O   0  0  0  0  0  0  0  0  0  0  0  0
   -1.7344    9.2056   -2.1854 C   0  0  0  0  0  0  0  0  0  0  0  0
   -1.2143    8.0778   -2.8751 O   0  0  0  0  0  0  0  0  0  0  0  0
   -1.7597    9.2184   -0.8383 C   0  0  0  0  0  0  0  0  0  0  0  0
   -4.7242   12.8466    1.6812 N   0  0  0  0  0  0  0  0  0  0  0  0
   -6.0428   12.6314    1.7141 C   0  0  0  0  0  0  0  0  0  0  0  0
   -6.6696   13.0291    0.3864 C   0  0  0  0  0  0  0  0  0  0  0  0
   -6.4526   14.3718    0.1555 N   0  0  0  0  0  0  0  0  0  0  0  0
   -5.0892   14.5575    0.0856 C   0  0  0  0  0  0  0  0  0  0  0  0
   -4.4606   14.1654    1.4124 C   0  0  0  0  0  0  0  0  0  0  0  0
   -2.5158   10.9217   -5.0397 C   0  0  0  0  0  0  0  0  0  0  0  0
   -2.1056    7.0045   -2.7203 C   0  0  0  0  0  0  0  0  0  0  0  0
  1 14  1  0  0  0  0
  1  2  2  0  0  0  0
  3  2  1  0  0  0  0
  3  8  2  0  0  0  0
  4  3  1  0  0  0  0
  5  7  2  0  0  0  0
  5  4  1  0  0  0  0
  6  5  1  0  0  0  0
  7  1  1  0  0  0  0
  9 10  1  0  0  0  0
  9  8  1  0  0  0  0
 11  9  2  0  0  0  0
 12 11  1  0  0  0  0
 13  4  2  0  0  0  0
 13 11  1  0  0  0  0
 14 15  1  0  0  0  0
 16 15  1  0  0  0  0
 17 16  1  0  0  0  0
 18 17  1  0  0  0  0
 18 19  1  0  0  0  0
 19 14  1  0  0  0  0
 20 10  1  0  0  0  0
 21 12  1  0  0  0  0
M  END
>  <CHROM.1>
80.06622637,-68.34153011,-105.68130132,-3.39026217,11.11162333,-0.64470693
-2.68959280,0.94621029,-1.38429320

>  <Name>
lig.pdb

>  <RI>
4.07847e+07

>  <Rbt.Current_Directory>
/home/itssahil/PROJECTS/Mol_Feturizer/New_Systems/rnas/2lwk

>  <Rbt.Executable>
rbdock ($Id: //depot/dev/client3/rdock/2013.1/src/exe/rbdock.cxx#4 $)

>  <Rbt.Library>
libRbt.so (2013.1, Build901 2013/11/27)

>  <Rbt.Parameter_File>
/export/apps/rDock/src/rDock_2013.1_src/data/scripts/dock_solv.prm

>  <Rbt.Receptor>
prm/blind_docking_20.prm

>  <SCORE>
-10.7397

>  <SCORE.INTER>
-8.77899

>  <SCORE.INTER.CONST>
1

>  <SCORE.INTER.POLAR>
-0.910719

>  <SCORE.INTER.ROT>
3

>  <SCORE.INTER.SOLV>
11.5726

>  <SCORE.INTER.VDW>
-12.2745

>  <SCORE.INTER.norm>
-0.418047

>  <SCORE.INTRA>
-4.26197

>  <SCORE.INTRA.DIHEDRAL>
-0.78691

>  <SCORE.INTRA.DIHEDRAL.0>
8.84257

>  <SCORE.INTRA.POLAR>
0

>  <SCORE.INTRA.POLAR.0>
0

>  <SCORE.INTRA.REPUL>
0

>  <SCORE.INTRA.REPUL.0>
0

>  <SCORE.INTRA.SOLV>
0.0542414

>  <SCORE.INTRA.SOLV.lig_0>
-17.1313

>  <SCORE.INTRA.VDW>
-3.89564

>  <SCORE.INTRA.VDW.0>
6.34071

>  <SCORE.INTRA.norm>
-0.202951

>  <SCORE.RESTR>
2.30129

>  <SCORE.RESTR.CAVITY>
2.30129

>  <SCORE.RESTR.norm>
0.109585

>  <SCORE.SYSTEM>
0

>  <SCORE.SYSTEM.CONST>
0

>  <SCORE.SYSTEM.DIHEDRAL>
0

>  <SCORE.SYSTEM.SOLV>
0

>  <SCORE.SYSTEM.norm>
0

>  <SCORE.heavy>
21

>  <SCORE.norm>
-0.511413

>  <RMSD>
13.984

$$$$
lig.pdb
 OpenBabel11021811453D
libRbt.so/2013.1/901 2013/11/27
 21 23  0  0  0  0  0  0  0  0999 V2000
   -3.9913   11.9430    1.0560 C   0  0  0  0  0  0  0  0  0  0  0  0
   -3.9133   11.9613   -0.2699 N   0  0  0  0  0  0  0  0  0  0  0  0
   -3.2019   11.0453   -0.9021 C   0  0  0  0  0  0  0  0  0  0  0  0
   -2.4999   10.1351   -0.1971 C   0  0  0  0  0  0  0  0  0  0  0  0
   -2.5839   10.1176    1.1398 C   0  0  0  0  0  0  0  0  0  0  0  0
   -1.8897    9.2250    1.8447 N   0  0  0  0  0  0  0  0  0  0  0  0
   -3.3289   11.0255    1.7618 N   0  0  0  0  0  0  0  0  0  0  0  0
   -3.1470   11.0566   -2.2443 C   0  0  0  0  0  0  0  0  0  0  0  0
   -2.2703   10.2216   -2.8818 C   0  0  0  0  0  0  0  0  0  0  0  0
   -1.5800   10.7284   -4.0087 O   0  0  0  0  0  0  0  0  0  0  0  0
   -1.7349    9.2053   -2.1855 C   0  0  0  0  0  0  0  0  0  0  0  0
   -1.2165    8.0761   -2.8742 O   0  0  0  0  0  0  0  0  0  0  0  0
   -1.7605    9.2193   -0.8384 C   0  0  0  0  0  0  0  0  0  0  0  0
   -4.7194   12.8546    1.6773 N   0  0  0  0  0  0  0  0  0  0  0  0
   -6.0390   12.6443    1.7055 C   0  0  0  0  0  0  0  0  0  0  0  0
   -6.6598   13.0466    0.3764 C   0  0  0  0  0  0  0  0  0  0  0  0
   -6.4371   14.3887    0.1484 N   0  0  0  0  0  0  0  0  0  0  0  0
   -5.0727   14.5694    0.0832 C   0  0  0  0  0  0  0  0  0  0  0  0
   -4.4500   14.1728    1.4115 C   0  0  0  0  0  0  0  0  0  0  0  0
   -2.5119   10.9163   -5.0428 C   0  0  0  0  0  0  0  0  0  0  0  0
   -2.0974    6.9974   -2.6979 C   0  0  0  0  0  0  0  0  0  0  0  0
  1 14  1  0  0  0  0
  1  2  2  0  0  0  0
  3  2  1  0  0  0  0
  3  8  2  0  0  0  0
  4  3  1  0  0  0  0
  5  7  2  0  0  0  0
  5  4  1  0  0  0  0
  6  5  1  0  0  0  0
  7  1  1  0  0  0  0
  9 10  1  0  0  0  0
  9  8  1  0  0  0  0
 11  9  2  0  0  0  0
 12 11  1  0  0  0  0
 13  4  2  0  0  0  0
 13 11  1  0  0  0  0
 14 15  1  0  0  0  0
 16 15  1  0  0  0  0
 17 16  1  0  0  0  0
 18 17  1  0  0  0  0
 18 19  1  0  0  0  0
 19 14  1  0  0  0  0
 20 10  1  0  0  0  0
 21 12  1  0  0  0  0
M  END
>  <CHROM.1>
79.81208645,-68.52672161,-106.76276692,-3.38603719,11.11593770,-0.64603835
-2.69271022,0.94878196,-1.38314437

>  <Name>
lig.pdb

>  <RI>
4.07847e+07

>  <Rbt.Current_Directory>
/home/itssahil/PROJECTS/Mol_Feturizer/New_Systems/rnas/2lwk

>  <Rbt.Executable>
rbdock ($Id: //depot/dev/client3/rdock/2013.1/src/exe/rbdock.cxx#4 $)

>  <Rbt.Library>
libRbt.so (2013.1, Build901 2013/11/27)

>  <Rbt.Parameter_File>
/export/apps/rDock/src/rDock_2013.1_src/data/scripts/dock_solv.prm

>  <Rbt.Receptor>
prm/blind_docking_20.prm

>  <SCORE>
-10.651

>  <SCORE.INTER>
-8.69957

>  <SCORE.INTER.CONST>
1

>  <SCORE.INTER.POLAR>
-0.910627

>  <SCORE.INTER.ROT>
3

>  <SCORE.INTER.SOLV>
11.5856

>  <SCORE.INTER.VDW>
-12.2261

>  <SCORE.INTER.norm>
-0.414265

>  <SCORE.INTRA>
-4.23555

>  <SCORE.INTRA.DIHEDRAL>
-0.827354

>  <SCORE.INTRA.DIHEDRAL.0>
8.84257

>  <SCORE.INTRA.POLAR>
0

>  <SCORE.INTRA.POLAR.0>
0

>  <SCORE.INTRA.REPUL>
0

>  <SCORE.INTRA.REPUL.0>
0

>  <SCORE.INTRA.SOLV>
0.0541503

>  <SCORE.INTRA.SOLV.lig_0>
-17.1313

>  <SCORE.INTRA.VDW>
-3.84894

>  <SCORE.INTRA.VDW.0>
6.34071

>  <SCORE.INTRA.norm>
-0.201693

>  <SCORE.RESTR>
2.28412

>  <SCORE.RESTR.CAVITY>
2.28412

>  <SCORE.RESTR.norm>
0.108768

>  <SCORE.SYSTEM>
0

>  <SCORE.SYSTEM.CONST>
0

>  <SCORE.SYSTEM.DIHEDRAL>
0

>  <SCORE.SYSTEM.SOLV>
0

>  <SCORE.SYSTEM.norm>
0

>  <SCORE.heavy>
21

>  <SCORE.norm>
-0.50719

>  <RMSD>
13.989

$$$$
lig.pdb
 OpenBabel11021811453D
libRbt.so/2013.1/901 2013/11/27
 21 23  0  0  0  0  0  0  0  0999 V2000
   -3.9845   12.0024    1.0538 C   0  0  0  0  0  0  0  0  0  0  0  0
   -3.9169   12.0127   -0.2727 N   0  0  0  0  0  0  0  0  0  0  0  0
   -3.2237   11.0834   -0.9057 C   0  0  0  0  0  0  0  0  0  0  0  0
   -2.5291   10.1668   -0.2016 C   0  0  0  0  0  0  0  0  0  0  0  0
   -2.6027   10.1574    1.1360 C   0  0  0  0  0  0  0  0  0  0  0  0
   -1.9156    9.2586    1.8401 N   0  0  0  0  0  0  0  0  0  0  0  0
   -3.3296   11.0792    1.7591 N   0  0  0  0  0  0  0  0  0  0  0  0
   -3.1794   11.0869   -2.2484 C   0  0  0  0  0  0  0  0  0  0  0  0
   -2.3199   10.2362   -2.8885 C   0  0  0  0  0  0  0  0  0  0  0  0
   -1.6315   10.7272   -4.0234 O   0  0  0  0  0  0  0  0  0  0  0  0
   -1.7935    9.2160   -2.1911 C   0  0  0  0  0  0  0  0  0  0  0  0
   -1.2969    8.0758   -2.8779 O   0  0  0  0  0  0  0  0  0  0  0  0
   -1.8081    9.2372   -0.8439 C   0  0  0  0  0  0  0  0  0  0  0  0
   -4.6945   12.9275    1.6761 N   0  0  0  0  0  0  0  0  0  0  0  0
   -6.0210   12.7653    1.6677 C   0  0  0  0  0  0  0  0  0  0  0  0
   -6.5933   13.2166    0.3324 C   0  0  0  0  0  0  0  0  0  0  0  0
   -6.3164   14.5540    0.1381 N   0  0  0  0  0  0  0  0  0  0  0  0
   -4.9452   14.6857    0.1100 C   0  0  0  0  0  0  0  0  0  0  0  0
   -4.3709   14.2400    1.4445 C   0  0  0  0  0  0  0  0  0  0  0  0
   -2.5649   10.8993   -5.0589 C   0  0  0  0  0  0  0  0  0  0  0  0
   -2.1562    6.9931   -2.6338 C   0  0  0  0  0  0  0  0  0  0  0  0
  1 14  1  0  0  0  0
  1  2  2  0  0  0  0
  3  2  1  0  0  0  0
  3  8  2  0  0  0  0
  4  3  1  0  0  0  0
  5  7  2  0  0  0  0
  5  4  1  0  0  0  0
  6  5  1  0  0  0  0
  7  1  1  0  0  0  0
  9 10  1  0  0  0  0
  9  8  1  0  0  0  0
 11  9  2  0  0  0  0
 12 11  1  0  0  0  0
 13  4  2  0  0  0  0
 13 11  1  0  0  0  0
 14 15  1  0  0  0  0
 16 15  1  0  0  0  0
 17 16  1  0  0  0  0
 18 17  1  0  0  0  0
 18 19  1  0  0  0  0
 19 14  1  0  0  0  0
 20 10  1  0  0  0  0
 21 12  1  0  0  0  0
M  END
>  <CHROM.1>
77.10988882,-69.61801397,-109.69002474,-3.38987326,11.16706229,-0.64828050
-2.69130299,0.97383330,-1.39251854

>  <Name>
lig.pdb

>  <RI>
2.05709e+07

>  <Rbt.Current_Directory>
/home/itssahil/PROJECTS/Mol_Feturizer/New_Systems/rnas/2lwk

>  <Rbt.Executable>
rbdock ($Id: //depot/dev/client3/rdock/2013.1/src/exe/rbdock.cxx#4 $)

>  <Rbt.Library>
libRbt.so (2013.1, Build901 2013/11/27)

>  <Rbt.Parameter_File>
/export/apps/rDock/src/rDock_2013.1_src/data/scripts/dock_solv.prm

>  <Rbt.Receptor>
prm/blind_docking_40.prm

>  <SCORE>
-10.2525

>  <SCORE.INTER>
-8.48634

>  <SCORE.INTER.CONST>
1

>  <SCORE.INTER.POLAR>
-0.932616

>  <SCORE.INTER.ROT>
3

>  <SCORE.INTER.SOLV>
11.5132

>  <SCORE.INTER.VDW>
-11.9866

>  <SCORE.INTER.norm>
-0.404111

>  <SCORE.INTRA>
-4.20828

>  <SCORE.INTRA.DIHEDRAL>
-0.908408

>  <SCORE.INTRA.DIHEDRAL.0>
8.84257

>  <SCORE.INTRA.POLAR>
0

>  <SCORE.INTRA.POLAR.0>
0

>  <SCORE.INTRA.REPUL>
0

>  <SCORE.INTRA.REPUL.0>
0

>  <SCORE.INTRA.SOLV>
0.0558328

>  <SCORE.INTRA.SOLV.lig_0>
-17.1313

>  <SCORE.INTRA.VDW>
-3.782

>  <SCORE.INTRA.VDW.0>
6.34071

>  <SCORE.INTRA.norm>
-0.200395

>  <SCORE.RESTR>
2.4421

>  <SCORE.RESTR.CAVITY>
2.4421

>  <SCORE.RESTR.norm>
0.11629

>  <SCORE.SYSTEM>
0

>  <SCORE.SYSTEM.CONST>
0

>  <SCORE.SYSTEM.DIHEDRAL>
0

>  <SCORE.SYSTEM.SOLV>
0

>  <SCORE.SYSTEM.norm>
0

>  <SCORE.heavy>
21

>  <SCORE.norm>
-0.488216

>  <RMSD>
14.018

$$$$
lig.pdb
 OpenBabel11021811453D
libRbt.so/2013.1/901 2013/11/27
 21 23  0  0  0  0  0  0  0  0999 V2000
   -3.9648   12.1486    1.0118 C   0  0  0  0  0  0  0  0  0  0  0  0
   -3.9153   12.1308   -0.3154 N   0  0  0  0  0  0  0  0  0  0  0  0
   -3.2616   11.1670   -0.9388 C   0  0  0  0  0  0  0  0  0  0  0  0
   -2.5876   10.2421   -0.2259 C   0  0  0  0  0  0  0  0  0  0  0  0
   -2.6428   10.2611    1.1126 C   0  0  0  0  0  0  0  0  0  0  0  0
   -1.9757    9.3541    1.8252 N   0  0  0  0  0  0  0  0  0  0  0  0
   -3.3306   11.2182    1.7267 N   0  0  0  0  0  0  0  0  0  0  0  0
   -3.2359   11.1430   -2.2818 C   0  0  0  0  0  0  0  0  0  0  0  0
   -2.4135   10.2521   -2.9161 C   0  0  0  0  0  0  0  0  0  0  0  0
   -1.7254   10.6981   -4.0697 O   0  0  0  0  0  0  0  0  0  0  0  0
   -1.9110    9.2290   -2.2056 C   0  0  0  0  0  0  0  0  0  0  0  0
   -1.4614    8.0600   -2.8760 O   0  0  0  0  0  0  0  0  0  0  0  0
   -1.9062    9.2769   -0.8590 C   0  0  0  0  0  0  0  0  0  0  0  0
   -4.6355   13.1085    1.6249 N   0  0  0  0  0  0  0  0  0  0  0  0
   -5.9685   13.0165    1.5935 C   0  0  0  0  0  0  0  0  0  0  0  0
   -6.4932   13.5004    0.2502 C   0  0  0  0  0  0  0  0  0  0  0  0
   -6.1429   14.8217    0.0648 N   0  0  0  0  0  0  0  0  0  0  0  0
   -4.7664   14.8809    0.0604 C   0  0  0  0  0  0  0  0  0  0  0  0
   -4.2393   14.4025    1.4030 C   0  0  0  0  0  0  0  0  0  0  0  0
   -2.6615   10.8448   -5.1065 C   0  0  0  0  0  0  0  0  0  0  0  0
   -2.2629    6.9775   -2.4808 C   0  0  0  0  0  0  0  0  0  0  0  0
  1 14  1  0  0  0  0
  1  2  2  0  0  0  0
  3  2  1  0  0  0  0
  3  8  2  0  0  0  0
  4  3  1  0  0  0  0
  5  7  2  0  0  0  0
  5  4  1  0  0  0  0
  6  5  1  0  0  0  0
  7  1  1  0  0  0  0
  9 10  1  0  0  0  0
  9  8  1  0  0  0  0
 11  9  2  0  0  0  0
 12 11  1  0  0  0  0
 13  4  2  0  0  0  0
 13 11  1  0  0  0  0
 14 15  1  0  0  0  0
 16 15  1  0  0  0  0
 17 16  1  0  0  0  0
 18 17  1  0  0  0  0
 18 19  1  0  0  0  0
 19 14  1  0  0  0  0
 20 10  1  0  0  0  0
 21 12  1  0  0  0  0
M  END
>  <CHROM.1>
74.64981295,-71.23299176,-116.23761117,-3.40424460,11.26715393,-0.67702456
-2.68898966,1.01649107,-1.41836291

>  <Name>
lig.pdb

>  <RI>
2.05709e+07

>  <Rbt.Current_Directory>
/home/itssahil/PROJECTS/Mol_Feturizer/New_Systems/rnas/2lwk

>  <Rbt.Executable>
rbdock ($Id: //depot/dev/client3/rdock/2013.1/src/exe/rbdock.cxx#4 $)

>  <Rbt.Library>
libRbt.so (2013.1, Build901 2013/11/27)

>  <Rbt.Parameter_File>
/export/apps/rDock/src/rDock_2013.1_src/data/scripts/dock_solv.prm

>  <Rbt.Receptor>
prm/blind_docking_40.prm

>  <SCORE>
-10.442

>  <SCORE.INTER>
-8.89082

>  <SCORE.INTER.CONST>
1

>  <SCORE.INTER.POLAR>
-0.984319

>  <SCORE.INTER.ROT>
3

>  <SCORE.INTER.SOLV>
11.3657

>  <SCORE.INTER.VDW>
-12.0347

>  <SCORE.INTER.norm>
-0.423372

>  <SCORE.INTRA>
-3.95748

>  <SCORE.INTRA.DIHEDRAL>
-1.21438

>  <SCORE.INTRA.DIHEDRAL.0>
8.84257

>  <SCORE.INTRA.POLAR>
0

>  <SCORE.INTRA.POLAR.0>
0

>  <SCORE.INTRA.REPUL>
0

>  <SCORE.INTRA.REPUL.0>
0

>  <SCORE.INTRA.SOLV>
0.0554807

>  <SCORE.INTRA.SOLV.lig_0>
-17.1313

>  <SCORE.INTRA.VDW>
-3.37803

>  <SCORE.INTRA.VDW.0>
6.34071

>  <SCORE.INTRA.norm>
-0.188451

>  <SCORE.RESTR>
2.4063

>  <SCORE.RESTR.CAVITY>
2.4063

>  <SCORE.RESTR.norm>
0.114586

>  <SCORE.SYSTEM>
0

>  <SCORE.SYSTEM.CONST>
0

>  <SCORE.SYSTEM.DIHEDRAL>
0

>  <SCORE.SYSTEM.SOLV>
0

>  <SCORE.SYSTEM.norm>
0

>  <SCORE.heavy>
21

>  <SCORE.norm>
-0.497238

>  <RMSD>
14.083

$$$$
lig.pdb
 OpenBabel11021811453D
libRbt.so/2013.1/901 2013/11/27
 21 23  0  0  0  0  0  0  0  0999 V2000
   -3.9792   12.1512    1.0084 C   0  0  0  0  0  0  0  0  0  0  0  0
   -3.9310   12.1346   -0.3189 N   0  0  0  0  0  0  0  0  0  0  0  0
   -3.2751   11.1733   -0.9438 C   0  0  0  0  0  0  0  0  0  0  0  0
   -2.5977   10.2497   -0.2322 C   0  0  0  0  0  0  0  0  0  0  0  0
   -2.6516   10.2676    1.1063 C   0  0  0  0  0  0  0  0  0  0  0  0
   -1.9810    9.3620    1.8175 N   0  0  0  0  0  0  0  0  0  0  0  0
   -3.3415   11.2222    1.7219 N   0  0  0  0  0  0  0  0  0  0  0  0
   -3.2508   11.1503   -2.2868 C   0  0  0  0  0  0  0  0  0  0  0  0
   -2.4265   10.2624   -2.9226 C   0  0  0  0  0  0  0  0  0  0  0  0
   -1.7408   10.7112   -4.0765 O   0  0  0  0  0  0  0  0  0  0  0  0
   -1.9202    9.2401   -2.2134 C   0  0  0  0  0  0  0  0  0  0  0  0
   -1.4679    8.0730   -2.8852 O   0  0  0  0  0  0  0  0  0  0  0  0
   -1.9141    9.2871   -0.8668 C   0  0  0  0  0  0  0  0  0  0  0  0
   -4.6521   13.1087    1.6229 N   0  0  0  0  0  0  0  0  0  0  0  0
   -5.9848   13.0134    1.5919 C   0  0  0  0  0  0  0  0  0  0  0  0
   -6.5113   13.4976    0.2494 C   0  0  0  0  0  0  0  0  0  0  0  0
   -6.1644   14.8201    0.0655 N   0  0  0  0  0  0  0  0  0  0  0  0
   -4.7880   14.8827    0.0607 C   0  0  0  0  0  0  0  0  0  0  0  0
   -4.2592   14.4040    1.4024 C   0  0  0  0  0  0  0  0  0  0  0  0
   -2.6765   10.8445   -5.1156 C   0  0  0  0  0  0  0  0  0  0  0  0
   -2.2991    6.9987   -2.5313 C   0  0  0  0  0  0  0  0  0  0  0  0
  1 14  1  0  0  0  0
  1  2  2  0  0  0  0
  3  2  1  0  0  0  0
  3  8  2  0  0  0  0
  4  3  1  0  0  0  0
  5  7  2  0  0  0  0
  5  4  1  0  0  0  0
  6  5  1  0  0  0  0
  7  1  1  0  0  0  0
  9 10  1  0  0  0  0
  9  8  1  0  0  0  0
 11  9  2  0  0  0  0
 12 11  1  0  0  0  0
 13  4  2  0  0  0  0
 13 11  1  0  0  0  0
 14 15  1  0  0  0  0
 16 15  1  0  0  0  0
 17 16  1  0  0  0  0
 18 17  1  0  0  0  0
 18 19  1  0  0  0  0
 19 14  1  0  0  0  0
 20 10  1  0  0  0  0
 21 12  1  0  0  0  0
M  END
>  <CHROM.1>
74.59850951,-71.75216162,-113.90492246,-3.41918352,11.27291875,-0.68405567
-2.68137822,1.01406745,-1.42310414

>  <Name>
lig.pdb

>  <RI>
2.05709e+07

>  <Rbt.Current_Directory>
/home/itssahil/PROJECTS/Mol_Feturizer/New_Systems/rnas/2lwk

>  <Rbt.Executable>
rbdock ($Id: //depot/dev/client3/rdock/2013.1/src/exe/rbdock.cxx#4 $)

>  <Rbt.Library>
libRbt.so (2013.1, Build901 2013/11/27)

>  <Rbt.Parameter_File>
/export/apps/rDock/src/rDock_2013.1_src/data/scripts/dock_solv.prm

>  <Rbt.Receptor>
prm/blind_docking_40.prm

>  <SCORE>
-10.6648

>  <SCORE.INTER>
-9.01815

>  <SCORE.INTER.CONST>
1

>  <SCORE.INTER.POLAR>
-0.99299

>  <SCORE.INTER.ROT>
3

>  <SCORE.INTER.SOLV>
11.3085

>  <SCORE.INTER.VDW>
-12.0716

>  <SCORE.INTER.norm>
-0.429436

>  <SCORE.INTRA>
-4.12364

>  <SCORE.INTRA.DIHEDRAL>
-1.02174

>  <SCORE.INTRA.DIHEDRAL.0>
8.84257

>  <SCORE.INTRA.POLAR>
0

>  <SCORE.INTRA.POLAR.0>
0

>  <SCORE.INTRA.REPUL>
0

>  <SCORE.INTRA.REPUL.0>
0

>  <SCORE.INTRA.SOLV>
0.0571594

>  <SCORE.INTRA.SOLV.lig_0>
-17.1313

>  <SCORE.INTRA.VDW>
-3.64135

>  <SCORE.INTRA.VDW.0>
6.34071

>  <SCORE.INTRA.norm>
-0.196364

>  <SCORE.RESTR>
2.47703

>  <SCORE.RESTR.CAVITY>
2.47703

>  <SCORE.RESTR.norm>
0.117954

>  <SCORE.SYSTEM>
0

>  <SCORE.SYSTEM.CONST>
0

>  <SCORE.SYSTEM.DIHEDRAL>
0

>  <SCORE.SYSTEM.SOLV>
0

>  <SCORE.SYSTEM.norm>
0

>  <SCORE.heavy>
21

>  <SCORE.norm>
-0.507846

>  <RMSD>
14.086

$$$$
lig.pdb
 OpenBabel11021811453D
libRbt.so/2013.1/901 2013/11/27
 21 23  0  0  0  0  0  0  0  0999 V2000
   -3.9678   12.1580    1.0099 C   0  0  0  0  0  0  0  0  0  0  0  0
   -3.9119   12.1425   -0.3171 N   0  0  0  0  0  0  0  0  0  0  0  0
   -3.2548   11.1801   -0.9390 C   0  0  0  0  0  0  0  0  0  0  0  0
   -2.5839   10.2542   -0.2244 C   0  0  0  0  0  0  0  0  0  0  0  0
   -2.6456   10.2710    1.1138 C   0  0  0  0  0  0  0  0  0  0  0  0
   -1.9815    9.3631    1.8281 N   0  0  0  0  0  0  0  0  0  0  0  0
   -3.3367   11.2267    1.7263 N   0  0  0  0  0  0  0  0  0  0  0  0
   -3.2227   11.1583   -2.2819 C   0  0  0  0  0  0  0  0  0  0  0  0
   -2.3968   10.2689   -2.9137 C   0  0  0  0  0  0  0  0  0  0  0  0
   -1.7033   10.7170   -4.0632 O   0  0  0  0  0  0  0  0  0  0  0  0
   -1.8973    9.2447   -2.2025 C   0  0  0  0  0  0  0  0  0  0  0  0
   -1.4440    8.0770   -2.8727 O   0  0  0  0  0  0  0  0  0  0  0  0
   -1.8990    9.2904   -0.8558 C   0  0  0  0  0  0  0  0  0  0  0  0
   -4.6420   13.1166    1.6213 N   0  0  0  0  0  0  0  0  0  0  0  0
   -5.9746   13.0211    1.5881 C   0  0  0  0  0  0  0  0  0  0  0  0
   -6.4988   13.5027    0.2437 C   0  0  0  0  0  0  0  0  0  0  0  0
   -6.1516   14.8248    0.0578 N   0  0  0  0  0  0  0  0  0  0  0  0
   -4.7753   14.8876    0.0553 C   0  0  0  0  0  0  0  0  0  0  0  0
   -4.2488   14.4116    1.3990 C   0  0  0  0  0  0  0  0  0  0  0  0
   -2.6361   10.8748   -5.1015 C   0  0  0  0  0  0  0  0  0  0  0  0
   -2.2639    6.9990   -2.5042 C   0  0  0  0  0  0  0  0  0  0  0  0
  1 14  1  0  0  0  0
  1  2  2  0  0  0  0
  3  2  1  0  0  0  0
  3  8  2  0  0  0  0
  4  3  1  0  0  0  0
  5  7  2  0  0  0  0
  5  4  1  0  0  0  0
  6  5  1  0  0  0  0
  7  1  1  0  0  0  0
  9 10  1  0  0  0  0
  9  8  1  0  0  0  0
 11  9  2  0  0  0  0
 12 11  1  0  0  0  0
 13  4  2  0  0  0  0
 13 11  1  0  0  0  0
 14 15  1  0  0  0  0
 16 15  1  0  0  0  0
 17 16  1  0  0  0  0
 18 17  1  0  0  0  0
 18 19  1  0  0  0  0
 19 14  1  0  0  0  0
 20 10  1  0  0  0  0
 21 12  1  0  0  0  0
M  END
>  <CHROM.1>
74.92199051,-70.79765242,-115.05122890,-3.40111501,11.27942012,-0.67853685
-2.69621882,1.01455043,-1.40986267

>  <Name>
lig.pdb

>  <RI>
2.05709e+07

>  <Rbt.Current_Directory>
/home/itssahil/PROJECTS/Mol_Feturizer/New_Systems/rnas/2lwk

>  <Rbt.Executable>
rbdock ($Id: //depot/dev/client3/rdock/2013.1/src/exe/rbdock.cxx#4 $)

>  <Rbt.Library>
libRbt.so (2013.1, Build901 2013/11/27)

>  <Rbt.Parameter_File>
/export/apps/rDock/src/rDock_2013.1_src/data/scripts/dock_solv.prm

>  <Rbt.Receptor>
prm/blind_docking_40.prm

>  <SCORE>
-10.4774

>  <SCORE.INTER>
-8.87595

>  <SCORE.INTER.CONST>
1

>  <SCORE.INTER.POLAR>
-0.974167

>  <SCORE.INTER.ROT>
3

>  <SCORE.INTER.SOLV>
11.419

>  <SCORE.INTER.VDW>
-12.0764

>  <SCORE.INTER.norm>
-0.422664

>  <SCORE.INTRA>
-4.00714

>  <SCORE.INTRA.DIHEDRAL>
-1.1625

>  <SCORE.INTRA.DIHEDRAL.0>
8.84257

>  <SCORE.INTRA.POLAR>
0

>  <SCORE.INTRA.POLAR.0>
0

>  <SCORE.INTRA.REPUL>
0

>  <SCORE.INTRA.REPUL.0>
0

>  <SCORE.INTRA.SOLV>
0.0555922

>  <SCORE.INTRA.SOLV.lig_0>
-17.1313

>  <SCORE.INTRA.VDW>
-3.45369

>  <SCORE.INTRA.VDW.0>
6.34071

>  <SCORE.INTRA.norm>
-0.190816

>  <SCORE.RESTR>
2.40569

>  <SCORE.RESTR.CAVITY>
2.40569

>  <SCORE.RESTR.norm>
0.114557

>  <SCORE.SYSTEM>
0

>  <SCORE.SYSTEM.CONST>
0

>  <SCORE.SYSTEM.DIHEDRAL>
0

>  <SCORE.SYSTEM.SOLV>
0

>  <SCORE.SYSTEM.norm>
0

>  <SCORE.heavy>
21

>  <SCORE.norm>
-0.498924

>  <RMSD>
14.097

$$$$
lig.pdb
 OpenBabel11021811453D
libRbt.so/2013.1/901 2013/11/27
 21 23  0  0  0  0  0  0  0  0999 V2000
   -3.9851   12.1637    1.0097 C   0  0  0  0  0  0  0  0  0  0  0  0
   -3.9259   12.1494   -0.3171 N   0  0  0  0  0  0  0  0  0  0  0  0
   -3.2615   11.1913   -0.9381 C   0  0  0  0  0  0  0  0  0  0  0  0
   -2.5869   10.2689   -0.2224 C   0  0  0  0  0  0  0  0  0  0  0  0
   -2.6520   10.2844    1.1156 C   0  0  0  0  0  0  0  0  0  0  0  0
   -1.9843    9.3799    1.8310 N   0  0  0  0  0  0  0  0  0  0  0  0
   -3.3503   11.2356    1.7270 N   0  0  0  0  0  0  0  0  0  0  0  0
   -3.2259   11.1707   -2.2809 C   0  0  0  0  0  0  0  0  0  0  0  0
   -2.3933   10.2866   -2.9113 C   0  0  0  0  0  0  0  0  0  0  0  0
   -1.6996   10.7396   -4.0587 O   0  0  0  0  0  0  0  0  0  0  0  0
   -1.8895    9.2649   -2.1995 C   0  0  0  0  0  0  0  0  0  0  0  0
   -1.4276    8.1004   -2.8694 O   0  0  0  0  0  0  0  0  0  0  0  0
   -1.8948    9.3096   -0.8528 C   0  0  0  0  0  0  0  0  0  0  0  0
   -4.6664   13.1178    1.6202 N   0  0  0  0  0  0  0  0  0  0  0  0
   -5.9981   13.0076    1.5947 C   0  0  0  0  0  0  0  0  0  0  0  0
   -6.5348   13.4767    0.2509 C   0  0  0  0  0  0  0  0  0  0  0  0
   -6.2032   14.8016    0.0566 N   0  0  0  0  0  0  0  0  0  0  0  0
   -4.8276   14.8795    0.0463 C   0  0  0  0  0  0  0  0  0  0  0  0
   -4.2887   14.4159    1.3894 C   0  0  0  0  0  0  0  0  0  0  0  0
   -2.6283   10.8785   -5.1033 C   0  0  0  0  0  0  0  0  0  0  0  0
   -2.1787    6.9994   -2.4289 C   0  0  0  0  0  0  0  0  0  0  0  0
  1 14  1  0  0  0  0
  1  2  2  0  0  0  0
  3  2  1  0  0  0  0
  3  8  2  0  0  0  0
  4  3  1  0  0  0  0
  5  7  2  0  0  0  0
  5  4  1  0  0  0  0
  6  5  1  0  0  0  0
  7  1  1  0  0  0  0
  9 10  1  0  0  0  0
  9  8  1  0  0  0  0
 11  9  2  0  0  0  0
 12 11  1  0  0  0  0
 13  4  2  0  0  0  0
 13 11  1  0  0  0  0
 14 15  1  0  0  0  0
 16 15  1  0  0  0  0
 17 16  1  0  0  0  0
 18 17  1  0  0  0  0
 18 19  1  0  0  0  0
 19 14  1  0  0  0  0
 20 10  1  0  0  0  0
 21 12  1  0  0  0  0
M  END
>  <CHROM.1>
75.54913996,-71.43469493,-119.34271806,-3.40875565,11.28550600,-0.67385059
-2.70423633,1.00537974,-1.40385574

>  <Name>
lig.pdb

>  <RI>
2.05709e+07

>  <Rbt.Current_Directory>
/home/itssahil/PROJECTS/Mol_Feturizer/New_Systems/rnas/2lwk

>  <Rbt.Executable>
rbdock ($Id: //depot/dev/client3/rdock/2013.1/src/exe/rbdock.cxx#4 $)

>  <Rbt.Library>
libRbt.so (2013.1, Build901 2013/11/27)

>  <Rbt.Parameter_File>
/export/apps/rDock/src/rDock_2013.1_src/data/scripts/dock_solv.prm

>  <Rbt.Receptor>
prm/blind_docking_40.prm

>  <SCORE>
-10.5673

>  <SCORE.INTER>
-9.23645

>  <SCORE.INTER.CONST>
1

>  <SCORE.INTER.POLAR>
-0.968953

>  <SCORE.INTER.ROT>
3

>  <SCORE.INTER.SOLV>
11.4082

>  <SCORE.INTER.VDW>
-12.3305

>  <SCORE.INTER.norm>
-0.439831

>  <SCORE.INTRA>
-3.74824

>  <SCORE.INTRA.DIHEDRAL>
-1.4248

>  <SCORE.INTRA.DIHEDRAL.0>
8.84257

>  <SCORE.INTRA.POLAR>
0

>  <SCORE.INTRA.POLAR.0>
0

>  <SCORE.INTRA.REPUL>
0

>  <SCORE.INTRA.REPUL.0>
0

>  <SCORE.INTRA.SOLV>
0.0536709

>  <SCORE.INTRA.SOLV.lig_0>
-17.1313

>  <SCORE.INTRA.VDW>
-3.06268

>  <SCORE.INTRA.VDW.0>
6.34071

>  <SCORE.INTRA.norm>
-0.178488

>  <SCORE.RESTR>
2.4174

>  <SCORE.RESTR.CAVITY>
2.4174

>  <SCORE.RESTR.norm>
0.115114

>  <SCORE.SYSTEM>
0

>  <SCORE.SYSTEM.CONST>
0

>  <SCORE.SYSTEM.DIHEDRAL>
0

>  <SCORE.SYSTEM.SOLV>
0

>  <SCORE.SYSTEM.norm>
0

>  <SCORE.heavy>
21

>  <SCORE.norm>
-0.503204

>  <RMSD>
14.103

$$$$
lig.pdb
 OpenBabel11021811453D
libRbt.so/2013.1/901 2013/11/27
 21 23  0  0  0  0  0  0  0  0999 V2000
   -3.8593   12.4625    1.0781 C   0  0  0  0  0  0  0  0  0  0  0  0
   -3.8802   12.3944   -0.2482 N   0  0  0  0  0  0  0  0  0  0  0  0
   -3.3915   11.3320   -0.8626 C   0  0  0  0  0  0  0  0  0  0  0  0
   -2.8095   10.3496   -0.1454 C   0  0  0  0  0  0  0  0  0  0  0  0
   -2.7936   10.4201    1.1924 C   0  0  0  0  0  0  0  0  0  0  0  0
   -2.2161    9.4564    1.9088 N   0  0  0  0  0  0  0  0  0  0  0  0
   -3.3174   11.4801    1.7992 N   0  0  0  0  0  0  0  0  0  0  0  0
   -3.4376   11.2603   -2.2033 C   0  0  0  0  0  0  0  0  0  0  0  0
   -2.7728   10.2474   -2.8391 C   0  0  0  0  0  0  0  0  0  0  0  0
   -2.0915   10.5592   -4.0398 O   0  0  0  0  0  0  0  0  0  0  0  0
   -2.3737    9.1904   -2.1126 C   0  0  0  0  0  0  0  0  0  0  0  0
   -2.1164    7.9504   -2.7562 O   0  0  0  0  0  0  0  0  0  0  0  0
   -2.2941    9.2818   -0.7706 C   0  0  0  0  0  0  0  0  0  0  0  0
   -4.3659   13.5230    1.6830 N   0  0  0  0  0  0  0  0  0  0  0  0
   -5.6711   13.4791    1.9670 C   0  0  0  0  0  0  0  0  0  0  0  0
   -6.4868   13.7929    0.7220 C   0  0  0  0  0  0  0  0  0  0  0  0
   -6.1803   15.0615    0.2750 N   0  0  0  0  0  0  0  0  0  0  0  0
   -4.8411   15.0664   -0.0487 C   0  0  0  0  0  0  0  0  0  0  0  0
   -4.0233   14.7578    1.1944 C   0  0  0  0  0  0  0  0  0  0  0  0
   -3.0390   10.6230   -5.0749 C   0  0  0  0  0  0  0  0  0  0  0  0
   -0.7691    7.6105   -2.5573 C   0  0  0  0  0  0  0  0  0  0  0  0
  1 14  1  0  0  0  0
  1  2  2  0  0  0  0
  3  2  1  0  0  0  0
  3  8  2  0  0  0  0
  4  3  1  0  0  0  0
  5  7  2  0  0  0  0
  5  4  1  0  0  0  0
  6  5  1  0  0  0  0
  7  1  1  0  0  0  0
  9 10  1  0  0  0  0
  9  8  1  0  0  0  0
 11  9  2  0  0  0  0
 12 11  1  0  0  0  0
 13  4  2  0  0  0  0
 13 11  1  0  0  0  0
 14 15  1  0  0  0  0
 16 15  1  0  0  0  0
 17 16  1  0  0  0  0
 18 17  1  0  0  0  0
 18 19  1  0  0  0  0
 19 14  1  0  0  0  0
 20 10  1  0  0  0  0
 21 12  1  0  0  0  0
M  END
>  <CHROM.1>
88.24302569,-78.81303929,118.56316909,-3.45789821,11.43600096,-0.59325300
-2.57984949,1.02267193,-1.54585516

>  <Name>
lig.pdb

>  <RI>
4.07847e+07

>  <Rbt.Current_Directory>
/home/itssahil/PROJECTS/Mol_Feturizer/New_Systems/rnas/2lwk

>  <Rbt.Executable>
rbdock ($Id: //depot/dev/client3/rdock/2013.1/src/exe/rbdock.cxx#4 $)

>  <Rbt.Library>
libRbt.so (2013.1, Build901 2013/11/27)

>  <Rbt.Parameter_File>
/export/apps/rDock/src/rDock_2013.1_src/data/scripts/dock_solv.prm

>  <Rbt.Receptor>
prm/blind_docking_20.prm

>  <SCORE>
-12.9558

>  <SCORE.INTER>
-10.8984

>  <SCORE.INTER.CONST>
1

>  <SCORE.INTER.POLAR>
-1.01254

>  <SCORE.INTER.ROT>
3

>  <SCORE.INTER.SOLV>
11.7268

>  <SCORE.INTER.VDW>
-13.3995

>  <SCORE.INTER.norm>
-0.518974

>  <SCORE.INTRA>
-4.43987

>  <SCORE.INTRA.DIHEDRAL>
-0.641125

>  <SCORE.INTRA.DIHEDRAL.0>
8.84257

>  <SCORE.INTRA.POLAR>
0

>  <SCORE.INTRA.POLAR.0>
0

>  <SCORE.INTRA.REPUL>
0

>  <SCORE.INTRA.REPUL.0>
0

>  <SCORE.INTRA.SOLV>
0.0935268

>  <SCORE.INTRA.SOLV.lig_0>
-17.1313

>  <SCORE.INTRA.VDW>
-4.16607

>  <SCORE.INTRA.VDW.0>
6.34071

>  <SCORE.INTRA.norm>
-0.211422

>  <SCORE.RESTR>
2.3825

>  <SCORE.RESTR.CAVITY>
2.3825

>  <SCORE.RESTR.norm>
0.113452

>  <SCORE.SYSTEM>
0

>  <SCORE.SYSTEM.CONST>
0

>  <SCORE.SYSTEM.DIHEDRAL>
0

>  <SCORE.SYSTEM.SOLV>
0

>  <SCORE.SYSTEM.norm>
0

>  <SCORE.heavy>
21

>  <SCORE.norm>
-0.616944

>  <RMSD>
14.166

$$$$
lig.pdb
 OpenBabel11021811453D
libRbt.so/2013.1/901 2013/11/27
 21 23  0  0  0  0  0  0  0  0999 V2000
   -3.8607   12.4677    1.0807 C   0  0  0  0  0  0  0  0  0  0  0  0
   -3.8741   12.3971   -0.2457 N   0  0  0  0  0  0  0  0  0  0  0  0
   -3.3836   11.3328   -0.8552 C   0  0  0  0  0  0  0  0  0  0  0  0
   -2.8073   10.3508   -0.1328 C   0  0  0  0  0  0  0  0  0  0  0  0
   -2.7989   10.4238    1.2049 C   0  0  0  0  0  0  0  0  0  0  0  0
   -2.2271    9.4606    1.9265 N   0  0  0  0  0  0  0  0  0  0  0  0
   -3.3245   11.4858    1.8067 N   0  0  0  0  0  0  0  0  0  0  0  0
   -3.4221   11.2586   -2.1960 C   0  0  0  0  0  0  0  0  0  0  0  0
   -2.7554   10.2434   -2.8260 C   0  0  0  0  0  0  0  0  0  0  0  0
   -2.0668   10.5518   -4.0235 O   0  0  0  0  0  0  0  0  0  0  0  0
   -2.3621    9.1872   -2.0952 C   0  0  0  0  0  0  0  0  0  0  0  0
   -2.1031    7.9455   -2.7351 O   0  0  0  0  0  0  0  0  0  0  0  0
   -2.2900    9.2810   -0.7530 C   0  0  0  0  0  0  0  0  0  0  0  0
   -4.3691   13.5301    1.6806 N   0  0  0  0  0  0  0  0  0  0  0  0
   -5.6740   13.4850    1.9657 C   0  0  0  0  0  0  0  0  0  0  0  0
   -6.4910   13.7911    0.7196 C   0  0  0  0  0  0  0  0  0  0  0  0
   -6.1874   15.0581    0.2662 N   0  0  0  0  0  0  0  0  0  0  0  0
   -4.8483   15.0640   -0.0583 C   0  0  0  0  0  0  0  0  0  0  0  0
   -4.0292   14.7632    1.1857 C   0  0  0  0  0  0  0  0  0  0  0  0
   -3.0118   10.6446   -5.0585 C   0  0  0  0  0  0  0  0  0  0  0  0
   -0.7534    7.6121   -2.5421 C   0  0  0  0  0  0  0  0  0  0  0  0
  1 14  1  0  0  0  0
  1  2  2  0  0  0  0
  3  2  1  0  0  0  0
  3  8  2  0  0  0  0
  4  3  1  0  0  0  0
  5  7  2  0  0  0  0
  5  4  1  0  0  0  0
  6  5  1  0  0  0  0
  7  1  1  0  0  0  0
  9 10  1  0  0  0  0
  9  8  1  0  0  0  0
 11  9  2  0  0  0  0
 12 11  1  0  0  0  0
 13  4  2  0  0  0  0
 13 11  1  0  0  0  0
 14 15  1  0  0  0  0
 16 15  1  0  0  0  0
 17 16  1  0  0  0  0
 18 17  1  0  0  0  0
 18 19  1  0  0  0  0
 19 14  1  0  0  0  0
 20 10  1  0  0  0  0
 21 12  1  0  0  0  0
M  END
>  <CHROM.1>
88.69424773,-77.51974050,117.83211432,-3.45351298,11.43772393,-0.58588021
-2.59175359,1.02263063,-1.53640980

>  <Name>
lig.pdb

>  <RI>
4.07847e+07

>  <Rbt.Current_Directory>
/home/itssahil/PROJECTS/Mol_Feturizer/New_Systems/rnas/2lwk

>  <Rbt.Executable>
rbdock ($Id: //depot/dev/client3/rdock/2013.1/src/exe/rbdock.cxx#4 $)

>  <Rbt.Library>
libRbt.so (2013.1, Build901 2013/11/27)

>  <Rbt.Parameter_File>
/export/apps/rDock/src/rDock_2013.1_src/data/scripts/dock_solv.prm

>  <Rbt.Receptor>
prm/blind_docking_20.prm

>  <SCORE>
-12.976

>  <SCORE.INTER>
-10.9412

>  <SCORE.INTER.CONST>
1

>  <SCORE.INTER.POLAR>
-0.992528

>  <SCORE.INTER.ROT>
3

>  <SCORE.INTER.SOLV>
11.7723

>  <SCORE.INTER.VDW>
-13.5098

>  <SCORE.INTER.norm>
-0.52101

>  <SCORE.INTRA>
-4.42112

>  <SCORE.INTRA.DIHEDRAL>
-0.666201

>  <SCORE.INTRA.DIHEDRAL.0>
8.84257

>  <SCORE.INTRA.POLAR>
0

>  <SCORE.INTRA.POLAR.0>
0

>  <SCORE.INTRA.REPUL>
0

>  <SCORE.INTRA.REPUL.0>
0

>  <SCORE.INTRA.SOLV>
0.0925357

>  <SCORE.INTRA.SOLV.lig_0>
-17.1313

>  <SCORE.INTRA.VDW>
-4.13428

>  <SCORE.INTRA.VDW.0>
6.34071

>  <SCORE.INTRA.norm>
-0.210529

>  <SCORE.RESTR>
2.3863

>  <SCORE.RESTR.CAVITY>
2.3863

>  <SCORE.RESTR.norm>
0.113634

>  <SCORE.SYSTEM>
0

>  <SCORE.SYSTEM.CONST>
0

>  <SCORE.SYSTEM.DIHEDRAL>
0

>  <SCORE.SYSTEM.SOLV>
0

>  <SCORE.SYSTEM.norm>
0

>  <SCORE.heavy>
21

>  <SCORE.norm>
-0.617905

>  <RMSD>
14.168

$$$$
lig.pdb
 OpenBabel11021811453D
libRbt.so/2013.1/901 2013/11/27
 21 23  0  0  0  0  0  0  0  0999 V2000
   -3.8811   12.4650    1.0807 C   0  0  0  0  0  0  0  0  0  0  0  0
   -3.8970   12.3941   -0.2455 N   0  0  0  0  0  0  0  0  0  0  0  0
   -3.4007   11.3330   -0.8560 C   0  0  0  0  0  0  0  0  0  0  0  0
   -2.8163   10.3550   -0.1348 C   0  0  0  0  0  0  0  0  0  0  0  0
   -2.8055   10.4283    1.2029 C   0  0  0  0  0  0  0  0  0  0  0  0
   -2.2256    9.4689    1.9233 N   0  0  0  0  0  0  0  0  0  0  0  0
   -3.3368   11.4868    1.8058 N   0  0  0  0  0  0  0  0  0  0  0  0
   -3.4417   11.2584   -2.1967 C   0  0  0  0  0  0  0  0  0  0  0  0
   -2.7696   10.2475   -2.8281 C   0  0  0  0  0  0  0  0  0  0  0  0
   -2.0857   10.5604   -4.0271 O   0  0  0  0  0  0  0  0  0  0  0  0
   -2.3677    9.1941   -2.0980 C   0  0  0  0  0  0  0  0  0  0  0  0
   -2.1018    7.9541   -2.7383 O   0  0  0  0  0  0  0  0  0  0  0  0
   -2.2933    9.2886   -0.7560 C   0  0  0  0  0  0  0  0  0  0  0  0
   -4.3953   13.5241    1.6817 N   0  0  0  0  0  0  0  0  0  0  0  0
   -5.7057   13.4835    1.9408 C   0  0  0  0  0  0  0  0  0  0  0  0
   -6.4966   13.8070    0.6823 C   0  0  0  0  0  0  0  0  0  0  0  0
   -6.1772   15.0769    0.2480 N   0  0  0  0  0  0  0  0  0  0  0  0
   -4.8320   15.0785   -0.0503 C   0  0  0  0  0  0  0  0  0  0  0  0
   -4.0390   14.7602    1.2063 C   0  0  0  0  0  0  0  0  0  0  0  0
   -3.0345   10.6538   -5.0587 C   0  0  0  0  0  0  0  0  0  0  0  0
   -0.7528    7.6230   -2.5366 C   0  0  0  0  0  0  0  0  0  0  0  0
  1 14  1  0  0  0  0
  1  2  2  0  0  0  0
  3  2  1  0  0  0  0
  3  8  2  0  0  0  0
  4  3  1  0  0  0  0
  5  7  2  0  0  0  0
  5  4  1  0  0  0  0
  6  5  1  0  0  0  0
  7  1  1  0  0  0  0
  9 10  1  0  0  0  0
  9  8  1  0  0  0  0
 11  9  2  0  0  0  0
 12 11  1  0  0  0  0
 13  4  2  0  0  0  0
 13 11  1  0  0  0  0
 14 15  1  0  0  0  0
 16 15  1  0  0  0  0
 17 16  1  0  0  0  0
 18 17  1  0  0  0  0
 18 19  1  0  0  0  0
 19 14  1  0  0  0  0
 20 10  1  0  0  0  0
 21 12  1  0  0  0  0
M  END
>  <CHROM.1>
87.14502622,-77.20421098,118.42654862,-3.46355030,11.44306730,-0.58926639
-2.58997507,1.02137363,-1.54025209

>  <Name>
lig.pdb

>  <RI>
1.99026e+07

>  <Rbt.Current_Directory>
/home/itssahil/PROJECTS/Mol_Feturizer/New_Systems/rnas/2lwk

>  <Rbt.Executable>
rbdock ($Id: //depot/dev/client3/rdock/2013.1/src/exe/rbdock.cxx#4 $)

>  <Rbt.Library>
libRbt.so (2013.1, Build901 2013/11/27)

>  <Rbt.Parameter_File>
/export/apps/rDock/src/rDock_2013.1_src/data/scripts/dock_solv.prm

>  <Rbt.Receptor>
prm/blind_docking_60.prm

>  <SCORE>
-13.2742

>  <SCORE.INTER>
-11.3054

>  <SCORE.INTER.CONST>
1

>  <SCORE.INTER.POLAR>
-1.00127

>  <SCORE.INTER.ROT>
3

>  <SCORE.INTER.SOLV>
11.6957

>  <SCORE.INTER.VDW>
-13.6979

>  <SCORE.INTER.norm>
-0.538351

>  <SCORE.INTRA>
-4.42336

>  <SCORE.INTRA.DIHEDRAL>
-0.723483

>  <SCORE.INTRA.DIHEDRAL.0>
8.84257

>  <SCORE.INTRA.POLAR>
0

>  <SCORE.INTRA.POLAR.0>
0

>  <SCORE.INTRA.REPUL>
0

>  <SCORE.INTRA.REPUL.0>
0

>  <SCORE.INTRA.SOLV>
0.093338

>  <SCORE.INTRA.SOLV.lig_0>
-17.1313

>  <SCORE.INTRA.VDW>
-4.10829

>  <SCORE.INTRA.VDW.0>
6.34071

>  <SCORE.INTRA.norm>
-0.210636

>  <SCORE.RESTR>
2.4545

>  <SCORE.RESTR.CAVITY>
2.4545

>  <SCORE.RESTR.norm>
0.116881

>  <SCORE.SYSTEM>
0

>  <SCORE.SYSTEM.CONST>
0

>  <SCORE.SYSTEM.DIHEDRAL>
0

>  <SCORE.SYSTEM.SOLV>
0

>  <SCORE.SYSTEM.norm>
0

>  <SCORE.heavy>
21

>  <SCORE.norm>
-0.632106

>  <RMSD>
14.170

$$$$
lig.pdb
 OpenBabel11021811453D
libRbt.so/2013.1/901 2013/11/27
 21 23  0  0  0  0  0  0  0  0999 V2000
   -3.8673   12.4783    1.0876 C   0  0  0  0  0  0  0  0  0  0  0  0
   -3.8840   12.4115   -0.2389 N   0  0  0  0  0  0  0  0  0  0  0  0
   -3.3955   11.3487   -0.8527 C   0  0  0  0  0  0  0  0  0  0  0  0
   -2.8181   10.3643   -0.1346 C   0  0  0  0  0  0  0  0  0  0  0  0
   -2.8065   10.4335    1.2033 C   0  0  0  0  0  0  0  0  0  0  0  0
   -2.2335    9.4677    1.9207 N   0  0  0  0  0  0  0  0  0  0  0  0
   -3.3300   11.4940    1.8095 N   0  0  0  0  0  0  0  0  0  0  0  0
   -3.4373   11.2785   -2.1936 C   0  0  0  0  0  0  0  0  0  0  0  0
   -2.7726   10.2647   -2.8282 C   0  0  0  0  0  0  0  0  0  0  0  0
   -2.0867   10.5763   -4.0264 O   0  0  0  0  0  0  0  0  0  0  0  0
   -2.3783    9.2062   -2.1014 C   0  0  0  0  0  0  0  0  0  0  0  0
   -2.1215    7.9662   -2.7455 O   0  0  0  0  0  0  0  0  0  0  0  0
   -2.3029    9.2961   -0.7591 C   0  0  0  0  0  0  0  0  0  0  0  0
   -4.3737   13.5393    1.6919 N   0  0  0  0  0  0  0  0  0  0  0  0
   -5.6803   13.4988    1.9697 C   0  0  0  0  0  0  0  0  0  0  0  0
   -6.4892   13.8170    0.7214 C   0  0  0  0  0  0  0  0  0  0  0  0
   -6.1769   15.0855    0.2780 N   0  0  0  0  0  0  0  0  0  0  0  0
   -4.8362   15.0869   -0.0395 C   0  0  0  0  0  0  0  0  0  0  0  0
   -4.0251   14.7739    1.2069 C   0  0  0  0  0  0  0  0  0  0  0  0
   -3.0308   10.6449   -5.0642 C   0  0  0  0  0  0  0  0  0  0  0  0
   -0.7776    7.6194   -2.5360 C   0  0  0  0  0  0  0  0  0  0  0  0
  1 14  1  0  0  0  0
  1  2  2  0  0  0  0
  3  2  1  0  0  0  0
  3  8  2  0  0  0  0
  4  3  1  0  0  0  0
  5  7  2  0  0  0  0
  5  4  1  0  0  0  0
  6  5  1  0  0  0  0
  7  1  1  0  0  0  0
  9 10  1  0  0  0  0
  9  8  1  0  0  0  0
 11  9  2  0  0  0  0
 12 11  1  0  0  0  0
 13  4  2  0  0  0  0
 13 11  1  0  0  0  0
 14 15  1  0  0  0  0
 16 15  1  0  0  0  0
 17 16  1  0  0  0  0
 18 17  1  0  0  0  0
 18 19  1  0  0  0  0
 19 14  1  0  0  0  0
 20 10  1  0  0  0  0
 21 12  1  0  0  0  0
M  END
>  <CHROM.1>
88.14728319,-78.73619926,118.89488438,-3.46227181,11.45282645,-0.58332729
-2.58681625,1.02520256,-1.53924735

>  <Name>
lig.pdb

>  <RI>
4.07847e+07

>  <Rbt.Current_Directory>
/home/itssahil/PROJECTS/Mol_Feturizer/New_Systems/rnas/2lwk

>  <Rbt.Executable>
rbdock ($Id: //depot/dev/client3/rdock/2013.1/src/exe/rbdock.cxx#4 $)

>  <Rbt.Library>
libRbt.so (2013.1, Build901 2013/11/27)

>  <Rbt.Parameter_File>
/export/apps/rDock/src/rDock_2013.1_src/data/scripts/dock_solv.prm

>  <Rbt.Receptor>
prm/blind_docking_20.prm

>  <SCORE>
-13.0689

>  <SCORE.INTER>
-11.0557

>  <SCORE.INTER.CONST>
1

>  <SCORE.INTER.POLAR>
-0.999032

>  <SCORE.INTER.ROT>
3

>  <SCORE.INTER.SOLV>
11.7219

>  <SCORE.INTER.VDW>
-13.5476

>  <SCORE.INTER.norm>
-0.52646

>  <SCORE.INTRA>
-4.4245

>  <SCORE.INTRA.DIHEDRAL>
-0.667673

>  <SCORE.INTRA.DIHEDRAL.0>
8.84257

>  <SCORE.INTRA.POLAR>
0

>  <SCORE.INTRA.POLAR.0>
0

>  <SCORE.INTRA.REPUL>
0

>  <SCORE.INTRA.REPUL.0>
0

>  <SCORE.INTRA.SOLV>
0.0932834

>  <SCORE.INTRA.SOLV.lig_0>
-17.1313

>  <SCORE.INTRA.VDW>
-4.13731

>  <SCORE.INTRA.VDW.0>
6.34071

>  <SCORE.INTRA.norm>
-0.21069

>  <SCORE.RESTR>
2.4113

>  <SCORE.RESTR.CAVITY>
2.4113

>  <SCORE.RESTR.norm>
0.114824

>  <SCORE.SYSTEM>
0

>  <SCORE.SYSTEM.CONST>
0

>  <SCORE.SYSTEM.DIHEDRAL>
0

>  <SCORE.SYSTEM.SOLV>
0

>  <SCORE.SYSTEM.norm>
0

>  <SCORE.heavy>
21

>  <SCORE.norm>
-0.622327

>  <RMSD>
14.176

$$$$
lig.pdb
 OpenBabel11021811453D
libRbt.so/2013.1/901 2013/11/27
 21 23  0  0  0  0  0  0  0  0999 V2000
   -3.8710   12.4730    1.0887 C   0  0  0  0  0  0  0  0  0  0  0  0
   -3.8769   12.4074   -0.2379 N   0  0  0  0  0  0  0  0  0  0  0  0
   -3.3854   11.3443   -0.8486 C   0  0  0  0  0  0  0  0  0  0  0  0
   -2.8156   10.3582   -0.1267 C   0  0  0  0  0  0  0  0  0  0  0  0
   -2.8147   10.4262    1.2113 C   0  0  0  0  0  0  0  0  0  0  0  0
   -2.2493    9.4589    1.9325 N   0  0  0  0  0  0  0  0  0  0  0  0
   -3.3413   11.4872    1.8142 N   0  0  0  0  0  0  0  0  0  0  0  0
   -3.4164   11.2752   -2.1899 C   0  0  0  0  0  0  0  0  0  0  0  0
   -2.7484   10.2608   -2.8199 C   0  0  0  0  0  0  0  0  0  0  0  0
   -2.0522   10.5722   -4.0122 O   0  0  0  0  0  0  0  0  0  0  0  0
   -2.3618    9.2010   -2.0909 C   0  0  0  0  0  0  0  0  0  0  0  0
   -2.1021    7.9611   -2.7339 O   0  0  0  0  0  0  0  0  0  0  0  0
   -2.2972    9.2896   -0.7479 C   0  0  0  0  0  0  0  0  0  0  0  0
   -4.3803   13.5344    1.6898 N   0  0  0  0  0  0  0  0  0  0  0  0
   -5.6890   13.4955    1.9581 C   0  0  0  0  0  0  0  0  0  0  0  0
   -6.4883   13.8154    0.7040 C   0  0  0  0  0  0  0  0  0  0  0  0
   -6.1711   15.0836    0.2635 N   0  0  0  0  0  0  0  0  0  0  0  0
   -4.8281   15.0834   -0.0441 C   0  0  0  0  0  0  0  0  0  0  0  0
   -4.0266   14.7687    1.2080 C   0  0  0  0  0  0  0  0  0  0  0  0
   -2.9931   10.6895   -5.0486 C   0  0  0  0  0  0  0  0  0  0  0  0
   -0.7511    7.6301   -2.5455 C   0  0  0  0  0  0  0  0  0  0  0  0
  1 14  1  0  0  0  0
  1  2  2  0  0  0  0
  3  2  1  0  0  0  0
  3  8  2  0  0  0  0
  4  3  1  0  0  0  0
  5  7  2  0  0  0  0
  5  4  1  0  0  0  0
  6  5  1  0  0  0  0
  7  1  1  0  0  0  0
  9 10  1  0  0  0  0
  9  8  1  0  0  0  0
 11  9  2  0  0  0  0
 12 11  1  0  0  0  0
 13  4  2  0  0  0  0
 13 11  1  0  0  0  0
 14 15  1  0  0  0  0
 16 15  1  0  0  0  0
 17 16  1  0  0  0  0
 18 17  1  0  0  0  0
 18 19  1  0  0  0  0
 19 14  1  0  0  0  0
 20 10  1  0  0  0  0
 21 12  1  0  0  0  0
M  END
>  <CHROM.1>
88.20430761,-76.70531874,117.26660131,-3.45421433,11.45140872,-0.58076265
-2.60452731,1.02631529,-1.52178533

>  <Name>
lig.pdb

>  <RI>
4.07847e+07

>  <Rbt.Current_Directory>
/home/itssahil/PROJECTS/Mol_Feturizer/New_Systems/rnas/2lwk

>  <Rbt.Executable>
rbdock ($Id: //depot/dev/client3/rdock/2013.1/src/exe/rbdock.cxx#4 $)

>  <Rbt.Library>
libRbt.so (2013.1, Build901 2013/11/27)

>  <Rbt.Parameter_File>
/export/apps/rDock/src/rDock_2013.1_src/data/scripts/dock_solv.prm

>  <Rbt.Receptor>
prm/blind_docking_20.prm

>  <SCORE>
-13.0733

>  <SCORE.INTER>
-11.0475

>  <SCORE.INTER.CONST>
1

>  <SCORE.INTER.POLAR>
-0.97559

>  <SCORE.INTER.ROT>
3

>  <SCORE.INTER.SOLV>
11.7851

>  <SCORE.INTER.VDW>
-13.6414

>  <SCORE.INTER.norm>
-0.526071

>  <SCORE.INTRA>
-4.43138

>  <SCORE.INTRA.DIHEDRAL>
-0.676993

>  <SCORE.INTRA.DIHEDRAL.0>
8.84257

>  <SCORE.INTRA.POLAR>
0

>  <SCORE.INTRA.POLAR.0>
0

>  <SCORE.INTRA.REPUL>
0

>  <SCORE.INTRA.REPUL.0>
0

>  <SCORE.INTRA.SOLV>
0.0928105

>  <SCORE.INTRA.SOLV.lig_0>
-17.1313

>  <SCORE.INTRA.VDW>
-4.13929

>  <SCORE.INTRA.VDW.0>
6.34071

>  <SCORE.INTRA.norm>
-0.211018

>  <SCORE.RESTR>
2.40563

>  <SCORE.RESTR.CAVITY>
2.40563

>  <SCORE.RESTR.norm>
0.114554

>  <SCORE.SYSTEM>
0

>  <SCORE.SYSTEM.CONST>
0

>  <SCORE.SYSTEM.DIHEDRAL>
0

>  <SCORE.SYSTEM.SOLV>
0

>  <SCORE.SYSTEM.norm>
0

>  <SCORE.heavy>
21

>  <SCORE.norm>
-0.622536

>  <RMSD>
14.178

$$$$
lig.pdb
 OpenBabel11021811453D
libRbt.so/2013.1/901 2013/11/27
 21 23  0  0  0  0  0  0  0  0999 V2000
   -3.8680   12.4770    1.0914 C   0  0  0  0  0  0  0  0  0  0  0  0
   -3.8760   12.4122   -0.2352 N   0  0  0  0  0  0  0  0  0  0  0  0
   -3.3857   11.3492   -0.8472 C   0  0  0  0  0  0  0  0  0  0  0  0
   -2.8150   10.3626   -0.1267 C   0  0  0  0  0  0  0  0  0  0  0  0
   -2.8121   10.4299    1.2113 C   0  0  0  0  0  0  0  0  0  0  0  0
   -2.2458    9.4620    1.9311 N   0  0  0  0  0  0  0  0  0  0  0  0
   -3.3374   11.4907    1.8155 N   0  0  0  0  0  0  0  0  0  0  0  0
   -3.4188   11.2809   -2.1885 C   0  0  0  0  0  0  0  0  0  0  0  0
   -2.7520   10.2666   -2.8201 C   0  0  0  0  0  0  0  0  0  0  0  0
   -2.0576   10.5785   -4.0133 O   0  0  0  0  0  0  0  0  0  0  0  0
   -2.3646    9.2063   -2.0922 C   0  0  0  0  0  0  0  0  0  0  0  0
   -2.1061    7.9667   -2.7364 O   0  0  0  0  0  0  0  0  0  0  0  0
   -2.2979    9.2942   -0.7493 C   0  0  0  0  0  0  0  0  0  0  0  0
   -4.3761   13.5382    1.6939 N   0  0  0  0  0  0  0  0  0  0  0  0
   -5.6836   13.4979    1.9677 C   0  0  0  0  0  0  0  0  0  0  0  0
   -6.4887   13.8158    0.7168 C   0  0  0  0  0  0  0  0  0  0  0  0
   -6.1749   15.0841    0.2739 N   0  0  0  0  0  0  0  0  0  0  0  0
   -4.8332   15.0854   -0.0393 C   0  0  0  0  0  0  0  0  0  0  0  0
   -4.0260   14.7727    1.2096 C   0  0  0  0  0  0  0  0  0  0  0  0
   -2.9998   10.6948   -5.0486 C   0  0  0  0  0  0  0  0  0  0  0  0
   -0.7615    7.6222   -2.5275 C   0  0  0  0  0  0  0  0  0  0  0  0
  1 14  1  0  0  0  0
  1  2  2  0  0  0  0
  3  2  1  0  0  0  0
  3  8  2  0  0  0  0
  4  3  1  0  0  0  0
  5  7  2  0  0  0  0
  5  4  1  0  0  0  0
  6  5  1  0  0  0  0
  7  1  1  0  0  0  0
  9 10  1  0  0  0  0
  9  8  1  0  0  0  0
 11  9  2  0  0  0  0
 12 11  1  0  0  0  0
 13  4  2  0  0  0  0
 13 11  1  0  0  0  0
 14 15  1  0  0  0  0
 16 15  1  0  0  0  0
 17 16  1  0  0  0  0
 18 17  1  0  0  0  0
 18 19  1  0  0  0  0
 19 14  1  0  0  0  0
 20 10  1  0  0  0  0
 21 12  1  0  0  0  0
M  END
>  <CHROM.1>
88.39642679,-76.78549398,118.42866826,-3.45533240,11.45475852,-0.57766605
-2.60197870,1.02638253,-1.52408975

>  <Name>
lig.pdb

>  <RI>
4.07847e+07

>  <Rbt.Current_Directory>
/home/itssahil/PROJECTS/Mol_Feturizer/New_Systems/rnas/2lwk

>  <Rbt.Executable>
rbdock ($Id: //depot/dev/client3/rdock/2013.1/src/exe/rbdock.cxx#4 $)

>  <Rbt.Library>
libRbt.so (2013.1, Build901 2013/11/27)

>  <Rbt.Parameter_File>
/export/apps/rDock/src/rDock_2013.1_src/data/scripts/dock_solv.prm

>  <Rbt.Receptor>
prm/blind_docking_20.prm

>  <SCORE>
-13.048

>  <SCORE.INTER>
-11.0722

>  <SCORE.INTER.CONST>
1

>  <SCORE.INTER.POLAR>
-0.978927

>  <SCORE.INTER.ROT>
3

>  <SCORE.INTER.SOLV>
11.7747

>  <SCORE.INTER.VDW>
-13.6433

>  <SCORE.INTER.norm>
-0.527248

>  <SCORE.INTRA>
-4.37738

>  <SCORE.INTRA.DIHEDRAL>
-0.748572

>  <SCORE.INTRA.DIHEDRAL.0>
8.84257

>  <SCORE.INTRA.POLAR>
0

>  <SCORE.INTRA.POLAR.0>
0

>  <SCORE.INTRA.REPUL>
0

>  <SCORE.INTRA.REPUL.0>
0

>  <SCORE.INTRA.SOLV>
0.0917153

>  <SCORE.INTRA.SOLV.lig_0>
-17.1313

>  <SCORE.INTRA.VDW>
-4.04895

>  <SCORE.INTRA.VDW.0>
6.34071

>  <SCORE.INTRA.norm>
-0.208447

>  <SCORE.RESTR>
2.40156

>  <SCORE.RESTR.CAVITY>
2.40156

>  <SCORE.RESTR.norm>
0.11436

>  <SCORE.SYSTEM>
0

>  <SCORE.SYSTEM.CONST>
0

>  <SCORE.SYSTEM.DIHEDRAL>
0

>  <SCORE.SYSTEM.SOLV>
0

>  <SCORE.SYSTEM.norm>
0

>  <SCORE.heavy>
21

>  <SCORE.norm>
-0.621335

>  <RMSD>
14.180

$$$$
lig.pdb
 OpenBabel11021811453D
libRbt.so/2013.1/901 2013/11/27
 21 23  0  0  0  0  0  0  0  0999 V2000
   -3.8791   12.4806    1.0921 C   0  0  0  0  0  0  0  0  0  0  0  0
   -3.8870   12.4135   -0.2344 N   0  0  0  0  0  0  0  0  0  0  0  0
   -3.3924   11.3515   -0.8448 C   0  0  0  0  0  0  0  0  0  0  0  0
   -2.8177   10.3684   -0.1227 C   0  0  0  0  0  0  0  0  0  0  0  0
   -2.8150   10.4379    1.2152 C   0  0  0  0  0  0  0  0  0  0  0  0
   -2.2447    9.4735    1.9366 N   0  0  0  0  0  0  0  0  0  0  0  0
   -3.3445   11.4975    1.8178 N   0  0  0  0  0  0  0  0  0  0  0  0
   -3.4254   11.2809   -2.1859 C   0  0  0  0  0  0  0  0  0  0  0  0
   -2.7546   10.2683   -2.8159 C   0  0  0  0  0  0  0  0  0  0  0  0
   -2.0615   10.5810   -4.0097 O   0  0  0  0  0  0  0  0  0  0  0  0
   -2.3628    9.2107   -2.0864 C   0  0  0  0  0  0  0  0  0  0  0  0
   -2.0994    7.9712   -2.7285 O   0  0  0  0  0  0  0  0  0  0  0  0
   -2.2964    9.3011   -0.7436 C   0  0  0  0  0  0  0  0  0  0  0  0
   -4.3915   13.5407    1.6929 N   0  0  0  0  0  0  0  0  0  0  0  0
   -5.7010   13.5001    1.9568 C   0  0  0  0  0  0  0  0  0  0  0  0
   -6.4965   13.8208    0.7005 C   0  0  0  0  0  0  0  0  0  0  0  0
   -6.1791   15.0899    0.2626 N   0  0  0  0  0  0  0  0  0  0  0  0
   -4.8351   15.0915   -0.0406 C   0  0  0  0  0  0  0  0  0  0  0  0
   -4.0374   14.7760    1.2138 C   0  0  0  0  0  0  0  0  0  0  0  0
   -3.0045   10.6936   -5.0447 C   0  0  0  0  0  0  0  0  0  0  0  0
   -0.7539    7.6315   -2.5178 C   0  0  0  0  0  0  0  0  0  0  0  0
  1 14  1  0  0  0  0
  1  2  2  0  0  0  0
  3  2  1  0  0  0  0
  3  8  2  0  0  0  0
  4  3  1  0  0  0  0
  5  7  2  0  0  0  0
  5  4  1  0  0  0  0
  6  5  1  0  0  0  0
  7  1  1  0  0  0  0
  9 10  1  0  0  0  0
  9  8  1  0  0  0  0
 11  9  2  0  0  0  0
 12 11  1  0  0  0  0
 13  4  2  0  0  0  0
 13 11  1  0  0  0  0
 14 15  1  0  0  0  0
 16 15  1  0  0  0  0
 17 16  1  0  0  0  0
 18 17  1  0  0  0  0
 18 19  1  0  0  0  0
 19 14  1  0  0  0  0
 20 10  1  0  0  0  0
 21 12  1  0  0  0  0
M  END
>  <CHROM.1>
87.85406389,-76.70901937,118.50154747,-3.45990256,11.45921348,-0.57643806
-2.60234590,1.02417479,-1.52606943

>  <Name>
lig.pdb

>  <RI>
4.07847e+07

>  <Rbt.Current_Directory>
/home/itssahil/PROJECTS/Mol_Feturizer/New_Systems/rnas/2lwk

>  <Rbt.Executable>
rbdock ($Id: //depot/dev/client3/rdock/2013.1/src/exe/rbdock.cxx#4 $)

>  <Rbt.Library>
libRbt.so (2013.1, Build901 2013/11/27)

>  <Rbt.Parameter_File>
/export/apps/rDock/src/rDock_2013.1_src/data/scripts/dock_solv.prm

>  <Rbt.Receptor>
prm/blind_docking_20.prm

>  <SCORE>
-13.2365

>  <SCORE.INTER>
-11.2976

>  <SCORE.INTER.CONST>
1

>  <SCORE.INTER.POLAR>
-0.97892

>  <SCORE.INTER.ROT>
3

>  <SCORE.INTER.SOLV>
11.7563

>  <SCORE.INTER.VDW>
-13.7874

>  <SCORE.INTER.norm>
-0.537982

>  <SCORE.INTRA>
-4.38535

>  <SCORE.INTRA.DIHEDRAL>
-0.757829

>  <SCORE.INTRA.DIHEDRAL.0>
8.84257

>  <SCORE.INTRA.POLAR>
0

>  <SCORE.INTRA.POLAR.0>
0

>  <SCORE.INTRA.REPUL>
0

>  <SCORE.INTRA.REPUL.0>
0

>  <SCORE.INTRA.SOLV>
0.092144

>  <SCORE.INTRA.SOLV.lig_0>
-17.1313

>  <SCORE.INTRA.VDW>
-4.05251

>  <SCORE.INTRA.VDW.0>
6.34071

>  <SCORE.INTRA.norm>
-0.208826

>  <SCORE.RESTR>
2.44651

>  <SCORE.RESTR.CAVITY>
2.44651

>  <SCORE.RESTR.norm>
0.1165

>  <SCORE.SYSTEM>
0

>  <SCORE.SYSTEM.CONST>
0

>  <SCORE.SYSTEM.DIHEDRAL>
0

>  <SCORE.SYSTEM.SOLV>
0

>  <SCORE.SYSTEM.norm>
0

>  <SCORE.heavy>
21

>  <SCORE.norm>
-0.630308

>  <RMSD>
14.182

$$$$
lig.pdb
 OpenBabel11021811453D
libRbt.so/2013.1/901 2013/11/27
 21 23  0  0  0  0  0  0  0  0999 V2000
   -3.8737   12.4994    1.1023 C   0  0  0  0  0  0  0  0  0  0  0  0
   -3.8836   12.4308   -0.2241 N   0  0  0  0  0  0  0  0  0  0  0  0
   -3.3948   11.3658   -0.8338 C   0  0  0  0  0  0  0  0  0  0  0  0
   -2.8237   10.3810   -0.1113 C   0  0  0  0  0  0  0  0  0  0  0  0
   -2.8188   10.4520    1.2266 C   0  0  0  0  0  0  0  0  0  0  0  0
   -2.2521    9.4859    1.9483 N   0  0  0  0  0  0  0  0  0  0  0  0
   -3.3427   11.5148    1.8285 N   0  0  0  0  0  0  0  0  0  0  0  0
   -3.4298   11.2937   -2.1748 C   0  0  0  0  0  0  0  0  0  0  0  0
   -2.7645   10.2773   -2.8045 C   0  0  0  0  0  0  0  0  0  0  0  0
   -2.0716   10.5853   -3.9995 O   0  0  0  0  0  0  0  0  0  0  0  0
   -2.3767    9.2188   -2.0741 C   0  0  0  0  0  0  0  0  0  0  0  0
   -2.1199    7.9772   -2.7151 O   0  0  0  0  0  0  0  0  0  0  0  0
   -2.3081    9.3104   -0.7316 C   0  0  0  0  0  0  0  0  0  0  0  0
   -4.3804   13.5626    1.7024 N   0  0  0  0  0  0  0  0  0  0  0  0
   -5.6883   13.5254    1.9748 C   0  0  0  0  0  0  0  0  0  0  0  0
   -6.4912   13.8430    0.7223 C   0  0  0  0  0  0  0  0  0  0  0  0
   -6.1743   15.1099    0.2779 N   0  0  0  0  0  0  0  0  0  0  0  0
   -4.8322   15.1080   -0.0338 C   0  0  0  0  0  0  0  0  0  0  0  0
   -4.0271   14.7956    1.2166 C   0  0  0  0  0  0  0  0  0  0  0  0
   -3.0142   10.6892   -5.0358 C   0  0  0  0  0  0  0  0  0  0  0  0
   -0.7725    7.6376   -2.5161 C   0  0  0  0  0  0  0  0  0  0  0  0
  1 14  1  0  0  0  0
  1  2  2  0  0  0  0
  3  2  1  0  0  0  0
  3  8  2  0  0  0  0
  4  3  1  0  0  0  0
  5  7  2  0  0  0  0
  5  4  1  0  0  0  0
  6  5  1  0  0  0  0
  7  1  1  0  0  0  0
  9 10  1  0  0  0  0
  9  8  1  0  0  0  0
 11  9  2  0  0  0  0
 12 11  1  0  0  0  0
 13  4  2  0  0  0  0
 13 11  1  0  0  0  0
 14 15  1  0  0  0  0
 16 15  1  0  0  0  0
 17 16  1  0  0  0  0
 18 17  1  0  0  0  0
 18 19  1  0  0  0  0
 19 14  1  0  0  0  0
 20 10  1  0  0  0  0
 21 12  1  0  0  0  0
M  END
>  <CHROM.1>
88.21040477,-77.22766048,117.96883261,-3.46290213,11.47258696,-0.56540865
-2.59857216,1.02739447,-1.52976462

>  <Name>
lig.pdb

>  <RI>
1.99026e+07

>  <Rbt.Current_Directory>
/home/itssahil/PROJECTS/Mol_Feturizer/New_Systems/rnas/2lwk

>  <Rbt.Executable>
rbdock ($Id: //depot/dev/client3/rdock/2013.1/src/exe/rbdock.cxx#4 $)

>  <Rbt.Library>
libRbt.so (2013.1, Build901 2013/11/27)

>  <Rbt.Parameter_File>
/export/apps/rDock/src/rDock_2013.1_src/data/scripts/dock_solv.prm

>  <Rbt.Receptor>
prm/blind_docking_60.prm

>  <SCORE>
-13.1565

>  <SCORE.INTER>
-11.1776

>  <SCORE.INTER.CONST>
1

>  <SCORE.INTER.POLAR>
-0.974132

>  <SCORE.INTER.ROT>
3

>  <SCORE.INTER.SOLV>
11.7587

>  <SCORE.INTER.VDW>
-13.7242

>  <SCORE.INTER.norm>
-0.532266

>  <SCORE.INTRA>
-4.41801

>  <SCORE.INTRA.DIHEDRAL>
-0.692058

>  <SCORE.INTRA.DIHEDRAL.0>
8.84257

>  <SCORE.INTRA.POLAR>
0

>  <SCORE.INTRA.POLAR.0>
0

>  <SCORE.INTRA.REPUL>
0

>  <SCORE.INTRA.REPUL.0>
0

>  <SCORE.INTRA.SOLV>
0.0926719

>  <SCORE.INTRA.SOLV.lig_0>
-17.1313

>  <SCORE.INTRA.VDW>
-4.11831

>  <SCORE.INTRA.VDW.0>
6.34071

>  <SCORE.INTRA.norm>
-0.210381

>  <SCORE.RESTR>
2.43909

>  <SCORE.RESTR.CAVITY>
2.43909

>  <SCORE.RESTR.norm>
0.116147

>  <SCORE.SYSTEM>
0

>  <SCORE.SYSTEM.CONST>
0

>  <SCORE.SYSTEM.DIHEDRAL>
0

>  <SCORE.SYSTEM.SOLV>
0

>  <SCORE.SYSTEM.norm>
0

>  <SCORE.heavy>
21

>  <SCORE.norm>
-0.626501

>  <RMSD>
14.188

$$$$
lig.pdb
 OpenBabel11021811453D
libRbt.so/2013.1/901 2013/11/27
 21 23  0  0  0  0  0  0  0  0999 V2000
   -4.4214   13.4253    0.5109 C   0  0  0  0  0  0  0  0  0  0  0  0
   -4.1776   12.5846    1.5099 N   0  0  0  0  0  0  0  0  0  0  0  0
   -3.4020   11.5335    1.3139 C   0  0  0  0  0  0  0  0  0  0  0  0
   -2.9153   11.2778    0.0826 C   0  0  0  0  0  0  0  0  0  0  0  0
   -3.1604   12.1300   -0.9216 C   0  0  0  0  0  0  0  0  0  0  0  0
   -2.6878   11.8827   -2.1427 N   0  0  0  0  0  0  0  0  0  0  0  0
   -3.9164   13.2010   -0.7029 N   0  0  0  0  0  0  0  0  0  0  0  0
   -3.1412   10.7008    2.3353 C   0  0  0  0  0  0  0  0  0  0  0  0
   -2.4890    9.5242    2.0853 C   0  0  0  0  0  0  0  0  0  0  0  0
   -2.9246    8.3700    2.7790 O   0  0  0  0  0  0  0  0  0  0  0  0
   -1.8522    9.3839    0.9110 C   0  0  0  0  0  0  0  0  0  0  0  0
   -0.8086    8.4282    0.7858 O   0  0  0  0  0  0  0  0  0  0  0  0
   -2.1462   10.1991   -0.1208 C   0  0  0  0  0  0  0  0  0  0  0  0
   -5.1857   14.4828    0.7226 N   0  0  0  0  0  0  0  0  0  0  0  0
   -5.8595   14.9508   -0.3325 C   0  0  0  0  0  0  0  0  0  0  0  0
   -4.9393   15.7849   -1.2109 C   0  0  0  0  0  0  0  0  0  0  0  0
   -4.4581   16.8581   -0.4899 N   0  0  0  0  0  0  0  0  0  0  0  0
   -3.7350   16.3475    0.5659 C   0  0  0  0  0  0  0  0  0  0  0  0
   -4.6527   15.5175    1.4479 C   0  0  0  0  0  0  0  0  0  0  0  0
   -3.9080    7.7381    1.9999 C   0  0  0  0  0  0  0  0  0  0  0  0
   -1.2417    7.3964   -0.0616 C   0  0  0  0  0  0  0  0  0  0  0  0
  1 14  1  0  0  0  0
  1  2  2  0  0  0  0
  3  2  1  0  0  0  0
  3  8  2  0  0  0  0
  4  3  1  0  0  0  0
  5  7  2  0  0  0  0
  5  4  1  0  0  0  0
  6  5  1  0  0  0  0
  7  1  1  0  0  0  0
  9 10  1  0  0  0  0
  9  8  1  0  0  0  0
 11  9  2  0  0  0  0
 12 11  1  0  0  0  0
 13  4  2  0  0  0  0
 13 11  1  0  0  0  0
 14 15  1  0  0  0  0
 16 15  1  0  0  0  0
 17 16  1  0  0  0  0
 18 17  1  0  0  0  0
 18 19  1  0  0  0  0
 19 14  1  0  0  0  0
 20 10  1  0  0  0  0
 21 12  1  0  0  0  0
M  END
>  <CHROM.1>
-152.09170639,90.68812593,111.32857960,-3.42321767,11.96759699,0.51293594
2.24749007,1.01144796,-0.78008881

>  <Name>
lig.pdb

>  <RI>
2.05709e+07

>  <Rbt.Current_Directory>
/home/itssahil/PROJECTS/Mol_Feturizer/New_Systems/rnas/2lwk

>  <Rbt.Executable>
rbdock ($Id: //depot/dev/client3/rdock/2013.1/src/exe/rbdock.cxx#4 $)

>  <Rbt.Library>
libRbt.so (2013.1, Build901 2013/11/27)

>  <Rbt.Parameter_File>
/export/apps/rDock/src/rDock_2013.1_src/data/scripts/dock_solv.prm

>  <Rbt.Receptor>
prm/blind_docking_40.prm

>  <SCORE>
-12.9394

>  <SCORE.INTER>
-12.9693

>  <SCORE.INTER.CONST>
1

>  <SCORE.INTER.POLAR>
-1.30816

>  <SCORE.INTER.ROT>
3

>  <SCORE.INTER.SOLV>
9.35253

>  <SCORE.INTER.VDW>
-13.0032

>  <SCORE.INTER.norm>
-0.617587

>  <SCORE.INTRA>
-2.50226

>  <SCORE.INTRA.DIHEDRAL>
0.263933

>  <SCORE.INTRA.DIHEDRAL.0>
8.84257

>  <SCORE.INTRA.POLAR>
0

>  <SCORE.INTRA.POLAR.0>
0

>  <SCORE.INTRA.REPUL>
0

>  <SCORE.INTRA.REPUL.0>
0

>  <SCORE.INTRA.SOLV>
0.0565727

>  <SCORE.INTRA.SOLV.lig_0>
-17.1313

>  <SCORE.INTRA.VDW>
-2.66251

>  <SCORE.INTRA.VDW.0>
6.34071

>  <SCORE.INTRA.norm>
-0.119155

>  <SCORE.RESTR>
2.53217

>  <SCORE.RESTR.CAVITY>
2.53217

>  <SCORE.RESTR.norm>
0.120579

>  <SCORE.SYSTEM>
0

>  <SCORE.SYSTEM.CONST>
0

>  <SCORE.SYSTEM.DIHEDRAL>
0

>  <SCORE.SYSTEM.SOLV>
0

>  <SCORE.SYSTEM.norm>
0

>  <SCORE.heavy>
21

>  <SCORE.norm>
-0.616163

>  <RMSD>
14.196

$$$$
lig.pdb
 OpenBabel11021811453D
libRbt.so/2013.1/901 2013/11/27
 21 23  0  0  0  0  0  0  0  0999 V2000
   -4.0765   12.3452    1.1990 C   0  0  0  0  0  0  0  0  0  0  0  0
   -4.0618   12.3383   -0.1291 N   0  0  0  0  0  0  0  0  0  0  0  0
   -3.4846   11.3429   -0.7778 C   0  0  0  0  0  0  0  0  0  0  0  0
   -2.8508   10.3711   -0.0908 C   0  0  0  0  0  0  0  0  0  0  0  0
   -2.8709   10.3795    1.2488 C   0  0  0  0  0  0  0  0  0  0  0  0
   -2.2429    9.4260    1.9358 N   0  0  0  0  0  0  0  0  0  0  0  0
   -3.4828   11.3704    1.8890 N   0  0  0  0  0  0  0  0  0  0  0  0
   -3.4945   11.3313   -2.1211 C   0  0  0  0  0  0  0  0  0  0  0  0
   -2.7447   10.3985   -2.7844 C   0  0  0  0  0  0  0  0  0  0  0  0
   -2.0598   10.8134   -3.9514 O   0  0  0  0  0  0  0  0  0  0  0  0
   -2.2881    9.3391   -2.0962 C   0  0  0  0  0  0  0  0  0  0  0  0
   -1.9283    8.1518   -2.7884 O   0  0  0  0  0  0  0  0  0  0  0  0
   -2.2463    9.3727   -0.7498 C   0  0  0  0  0  0  0  0  0  0  0  0
   -4.6713   13.3380    1.8378 N   0  0  0  0  0  0  0  0  0  0  0  0
   -5.8704   13.7078    1.3777 C   0  0  0  0  0  0  0  0  0  0  0  0
   -5.7084   14.5888    0.1482 C   0  0  0  0  0  0  0  0  0  0  0  0
   -5.0003   15.7246    0.4823 N   0  0  0  0  0  0  0  0  0  0  0  0
   -3.7568   15.3167    0.9133 C   0  0  0  0  0  0  0  0  0  0  0  0
   -3.9151   14.4402    2.1445 C   0  0  0  0  0  0  0  0  0  0  0  0
   -2.9589   10.7543   -5.0290 C   0  0  0  0  0  0  0  0  0  0  0  0
   -0.6052    7.8204   -2.4568 C   0  0  0  0  0  0  0  0  0  0  0  0
  1 14  1  0  0  0  0
  1  2  2  0  0  0  0
  3  2  1  0  0  0  0
  3  8  2  0  0  0  0
  4  3  1  0  0  0  0
  5  7  2  0  0  0  0
  5  4  1  0  0  0  0
  6  5  1  0  0  0  0
  7  1  1  0  0  0  0
  9 10  1  0  0  0  0
  9  8  1  0  0  0  0
 11  9  2  0  0  0  0
 12 11  1  0  0  0  0
 13  4  2  0  0  0  0
 13 11  1  0  0  0  0
 14 15  1  0  0  0  0
 16 15  1  0  0  0  0
 17 16  1  0  0  0  0
 18 17  1  0  0  0  0
 18 19  1  0  0  0  0
 19 14  1  0  0  0  0
 20 10  1  0  0  0  0
 21 12  1  0  0  0  0
M  END
>  <CHROM.1>
44.92705795,-83.54996691,124.72044525,-3.33270768,11.55540644,-0.49566647
-2.62550290,1.10195275,-1.46496443

>  <Name>
lig.pdb

>  <RI>
4.07847e+07

>  <Rbt.Current_Directory>
/home/itssahil/PROJECTS/Mol_Feturizer/New_Systems/rnas/2lwk

>  <Rbt.Executable>
rbdock ($Id: //depot/dev/client3/rdock/2013.1/src/exe/rbdock.cxx#4 $)

>  <Rbt.Library>
libRbt.so (2013.1, Build901 2013/11/27)

>  <Rbt.Parameter_File>
/export/apps/rDock/src/rDock_2013.1_src/data/scripts/dock_solv.prm

>  <Rbt.Receptor>
prm/blind_docking_20.prm

>  <SCORE>
5.93223

>  <SCORE.INTER>
8.35699

>  <SCORE.INTER.CONST>
1

>  <SCORE.INTER.POLAR>
-0.934364

>  <SCORE.INTER.ROT>
3

>  <SCORE.INTER.SOLV>
12.4561

>  <SCORE.INTER.VDW>
-1.06615

>  <SCORE.INTER.norm>
0.397952

>  <SCORE.INTRA>
-3.90873

>  <SCORE.INTRA.DIHEDRAL>
-0.823061

>  <SCORE.INTRA.DIHEDRAL.0>
8.84257

>  <SCORE.INTRA.POLAR>
0

>  <SCORE.INTRA.POLAR.0>
0

>  <SCORE.INTRA.REPUL>
0

>  <SCORE.INTRA.REPUL.0>
0

>  <SCORE.INTRA.SOLV>
0.0963854

>  <SCORE.INTRA.SOLV.lig_0>
-17.1313

>  <SCORE.INTRA.VDW>
-3.54539

>  <SCORE.INTRA.VDW.0>
6.34071

>  <SCORE.INTRA.norm>
-0.18613

>  <SCORE.RESTR>
1.48396

>  <SCORE.RESTR.CAVITY>
1.48396

>  <SCORE.RESTR.norm>
0.0706649

>  <SCORE.SYSTEM>
0

>  <SCORE.SYSTEM.CONST>
0

>  <SCORE.SYSTEM.DIHEDRAL>
0

>  <SCORE.SYSTEM.SOLV>
0

>  <SCORE.SYSTEM.norm>
0

>  <SCORE.heavy>
21

>  <SCORE.norm>
0.282487

>  <RMSD>
14.260

$$$$
lig.pdb
 OpenBabel11021811453D
libRbt.so/2013.1/901 2013/11/27
 21 23  0  0  0  0  0  0  0  0999 V2000
   -3.9468   12.6922    1.1059 C   0  0  0  0  0  0  0  0  0  0  0  0
   -3.9423   12.6125   -0.2200 N   0  0  0  0  0  0  0  0  0  0  0  0
   -3.4484   11.5418   -0.8154 C   0  0  0  0  0  0  0  0  0  0  0  0
   -2.8866   10.5622   -0.0784 C   0  0  0  0  0  0  0  0  0  0  0  0
   -2.8962   10.6445    1.2587 C   0  0  0  0  0  0  0  0  0  0  0  0
   -2.3388    9.6837    1.9947 N   0  0  0  0  0  0  0  0  0  0  0  0
   -3.4251   11.7130    1.8460 N   0  0  0  0  0  0  0  0  0  0  0  0
   -3.4689   11.4585   -2.1560 C   0  0  0  0  0  0  0  0  0  0  0  0
   -2.7982   10.4359   -2.7699 C   0  0  0  0  0  0  0  0  0  0  0  0
   -2.0918   10.7330   -3.9598 O   0  0  0  0  0  0  0  0  0  0  0  0
   -2.4199    9.3831   -2.0265 C   0  0  0  0  0  0  0  0  0  0  0  0
   -2.1579    8.1358   -2.6542 O   0  0  0  0  0  0  0  0  0  0  0  0
   -2.3658    9.4859   -0.6841 C   0  0  0  0  0  0  0  0  0  0  0  0
   -4.4584   13.7611    1.6915 N   0  0  0  0  0  0  0  0  0  0  0  0
   -5.7906   13.8054    1.7898 C   0  0  0  0  0  0  0  0  0  0  0  0
   -6.3975   14.2353    0.4628 C   0  0  0  0  0  0  0  0  0  0  0  0
   -5.9426   15.4948    0.1318 N   0  0  0  0  0  0  0  0  0  0  0  0
   -4.5740   15.4108   -0.0031 C   0  0  0  0  0  0  0  0  0  0  0  0
   -3.9643   14.9860    1.3224 C   0  0  0  0  0  0  0  0  0  0  0  0
   -3.0044   10.7046   -5.0273 C   0  0  0  0  0  0  0  0  0  0  0  0
   -0.8193    7.7852   -2.4185 C   0  0  0  0  0  0  0  0  0  0  0  0
  1 14  1  0  0  0  0
  1  2  2  0  0  0  0
  3  2  1  0  0  0  0
  3  8  2  0  0  0  0
  4  3  1  0  0  0  0
  5  7  2  0  0  0  0
  5  4  1  0  0  0  0
  6  5  1  0  0  0  0
  7  1  1  0  0  0  0
  9 10  1  0  0  0  0
  9  8  1  0  0  0  0
 11  9  2  0  0  0  0
 12 11  1  0  0  0  0
 13  4  2  0  0  0  0
 13 11  1  0  0  0  0
 14 15  1  0  0  0  0
 16 15  1  0  0  0  0
 17 16  1  0  0  0  0
 18 17  1  0  0  0  0
 18 19  1  0  0  0  0
 19 14  1  0  0  0  0
 20 10  1  0  0  0  0
 21 12  1  0  0  0  0
M  END
>  <CHROM.1>
79.62588633,-82.71339112,118.95520253,-3.47497107,11.67297427,-0.56376194
-2.62354415,1.05671167,-1.52531377

>  <Name>
lig.pdb

>  <RI>
2.05709e+07

>  <Rbt.Current_Directory>
/home/itssahil/PROJECTS/Mol_Feturizer/New_Systems/rnas/2lwk

>  <Rbt.Executable>
rbdock ($Id: //depot/dev/client3/rdock/2013.1/src/exe/rbdock.cxx#4 $)

>  <Rbt.Library>
libRbt.so (2013.1, Build901 2013/11/27)

>  <Rbt.Parameter_File>
/export/apps/rDock/src/rDock_2013.1_src/data/scripts/dock_solv.prm

>  <Rbt.Receptor>
prm/blind_docking_40.prm

>  <SCORE>
-13.6328

>  <SCORE.INTER>
-11.1598

>  <SCORE.INTER.CONST>
1

>  <SCORE.INTER.POLAR>
-0.93681

>  <SCORE.INTER.ROT>
3

>  <SCORE.INTER.SOLV>
11.7872

>  <SCORE.INTER.VDW>
-13.8462

>  <SCORE.INTER.norm>
-0.53142

>  <SCORE.INTRA>
-4.7019

>  <SCORE.INTRA.DIHEDRAL>
-0.462171

>  <SCORE.INTRA.DIHEDRAL.0>
8.84257

>  <SCORE.INTRA.POLAR>
0

>  <SCORE.INTRA.POLAR.0>
0

>  <SCORE.INTRA.REPUL>
0

>  <SCORE.INTRA.REPUL.0>
0

>  <SCORE.INTRA.SOLV>
0.104995

>  <SCORE.INTRA.SOLV.lig_0>
-17.1313

>  <SCORE.INTRA.VDW>
-4.52331

>  <SCORE.INTRA.VDW.0>
6.34071

>  <SCORE.INTRA.norm>
-0.2239

>  <SCORE.RESTR>
2.22895

>  <SCORE.RESTR.CAVITY>
2.22895

>  <SCORE.RESTR.norm>
0.10614

>  <SCORE.SYSTEM>
0

>  <SCORE.SYSTEM.CONST>
0

>  <SCORE.SYSTEM.DIHEDRAL>
0

>  <SCORE.SYSTEM.SOLV>
0

>  <SCORE.SYSTEM.norm>
0

>  <SCORE.heavy>
21

>  <SCORE.norm>
-0.649179

>  <RMSD>
14.344

$$$$
lig.pdb
 OpenBabel11021811453D
libRbt.so/2013.1/901 2013/11/27
 21 23  0  0  0  0  0  0  0  0999 V2000
   -3.9586   12.7301    1.1066 C   0  0  0  0  0  0  0  0  0  0  0  0
   -3.9614   12.6369   -0.2184 N   0  0  0  0  0  0  0  0  0  0  0  0
   -3.4702   11.5605   -0.8056 C   0  0  0  0  0  0  0  0  0  0  0  0
   -2.9039   10.5887   -0.0618 C   0  0  0  0  0  0  0  0  0  0  0  0
   -2.9063   10.6845    1.2744 C   0  0  0  0  0  0  0  0  0  0  0  0
   -2.3443    9.7315    2.0171 N   0  0  0  0  0  0  0  0  0  0  0  0
   -3.4325   11.7587    1.8537 N   0  0  0  0  0  0  0  0  0  0  0  0
   -3.4980   11.4636   -2.1452 C   0  0  0  0  0  0  0  0  0  0  0  0
   -2.8302   10.4351   -2.7523 C   0  0  0  0  0  0  0  0  0  0  0  0
   -2.1305   10.7204   -3.9490 O   0  0  0  0  0  0  0  0  0  0  0  0
   -2.4473    9.3900   -2.0004 C   0  0  0  0  0  0  0  0  0  0  0  0
   -2.1881    8.1366   -2.6168 O   0  0  0  0  0  0  0  0  0  0  0  0
   -2.3859    9.5065   -0.6594 C   0  0  0  0  0  0  0  0  0  0  0  0
   -4.4676   13.8046    1.6841 N   0  0  0  0  0  0  0  0  0  0  0  0
   -5.8003   13.8607    1.7671 C   0  0  0  0  0  0  0  0  0  0  0  0
   -6.3884   14.2929    0.4324 C   0  0  0  0  0  0  0  0  0  0  0  0
   -5.9188   15.5478    0.1040 N   0  0  0  0  0  0  0  0  0  0  0  0
   -4.5495   15.4516   -0.0151 C   0  0  0  0  0  0  0  0  0  0  0  0
   -3.9587   15.0245    1.3182 C   0  0  0  0  0  0  0  0  0  0  0  0
   -3.0477   10.6749   -5.0120 C   0  0  0  0  0  0  0  0  0  0  0  0
   -0.8345    7.8147   -2.4314 C   0  0  0  0  0  0  0  0  0  0  0  0
  1 14  1  0  0  0  0
  1  2  2  0  0  0  0
  3  2  1  0  0  0  0
  3  8  2  0  0  0  0
  4  3  1  0  0  0  0
  5  7  2  0  0  0  0
  5  4  1  0  0  0  0
  6  5  1  0  0  0  0
  7  1  1  0  0  0  0
  9 10  1  0  0  0  0
  9  8  1  0  0  0  0
 11  9  2  0  0  0  0
 12 11  1  0  0  0  0
 13  4  2  0  0  0  0
 13 11  1  0  0  0  0
 14 15  1  0  0  0  0
 16 15  1  0  0  0  0
 17 16  1  0  0  0  0
 18 17  1  0  0  0  0
 18 19  1  0  0  0  0
 19 14  1  0  0  0  0
 20 10  1  0  0  0  0
 21 12  1  0  0  0  0
M  END
>  <CHROM.1>
78.43531849,-82.97663575,116.59296361,-3.48839106,11.69908419,-0.55925277
-2.61186583,1.05983848,-1.54449563

>  <Name>
lig.pdb

>  <RI>
2.05709e+07

>  <Rbt.Current_Directory>
/home/itssahil/PROJECTS/Mol_Feturizer/New_Systems/rnas/2lwk

>  <Rbt.Executable>
rbdock ($Id: //depot/dev/client3/rdock/2013.1/src/exe/rbdock.cxx#4 $)

>  <Rbt.Library>
libRbt.so (2013.1, Build901 2013/11/27)

>  <Rbt.Parameter_File>
/export/apps/rDock/src/rDock_2013.1_src/data/scripts/dock_solv.prm

>  <Rbt.Receptor>
prm/blind_docking_40.prm

>  <SCORE>
-13.6878

>  <SCORE.INTER>
-11.0996

>  <SCORE.INTER.CONST>
1

>  <SCORE.INTER.POLAR>
-0.934324

>  <SCORE.INTER.ROT>
3

>  <SCORE.INTER.SOLV>
11.7212

>  <SCORE.INTER.VDW>
-13.7924

>  <SCORE.INTER.norm>
-0.528552

>  <SCORE.INTRA>
-4.82939

>  <SCORE.INTRA.DIHEDRAL>
-0.294377

>  <SCORE.INTRA.DIHEDRAL.0>
8.84257

>  <SCORE.INTRA.POLAR>
0

>  <SCORE.INTRA.POLAR.0>
0

>  <SCORE.INTRA.REPUL>
0

>  <SCORE.INTRA.REPUL.0>
0

>  <SCORE.INTRA.SOLV>
0.10808

>  <SCORE.INTRA.SOLV.lig_0>
-17.1313

>  <SCORE.INTRA.VDW>
-4.73624

>  <SCORE.INTRA.VDW.0>
6.34071

>  <SCORE.INTRA.norm>
-0.229971

>  <SCORE.RESTR>
2.2412

>  <SCORE.RESTR.CAVITY>
2.2412

>  <SCORE.RESTR.norm>
0.106724

>  <SCORE.SYSTEM>
0

>  <SCORE.SYSTEM.CONST>
0

>  <SCORE.SYSTEM.DIHEDRAL>
0

>  <SCORE.SYSTEM.SOLV>
0

>  <SCORE.SYSTEM.norm>
0

>  <SCORE.heavy>
21

>  <SCORE.norm>
-0.651799

>  <RMSD>
14.356

$$$$
lig.pdb
 OpenBabel11021811453D
libRbt.so/2013.1/901 2013/11/27
 21 23  0  0  0  0  0  0  0  0999 V2000
   -3.9503   12.7165    1.1015 C   0  0  0  0  0  0  0  0  0  0  0  0
   -3.9484   12.6314   -0.2240 N   0  0  0  0  0  0  0  0  0  0  0  0
   -3.4543   11.5590   -0.8161 C   0  0  0  0  0  0  0  0  0  0  0  0
   -2.8898   10.5831   -0.0764 C   0  0  0  0  0  0  0  0  0  0  0  0
   -2.8968   10.6708    1.2605 C   0  0  0  0  0  0  0  0  0  0  0  0
   -2.3366    9.7137    1.9992 N   0  0  0  0  0  0  0  0  0  0  0  0
   -3.4259   11.7410    1.8445 N   0  0  0  0  0  0  0  0  0  0  0  0
   -3.4774   11.4702   -2.1564 C   0  0  0  0  0  0  0  0  0  0  0  0
   -2.8067   10.4461   -2.7674 C   0  0  0  0  0  0  0  0  0  0  0  0
   -2.1031   10.7392   -3.9600 O   0  0  0  0  0  0  0  0  0  0  0  0
   -2.4255    9.3967   -2.0206 C   0  0  0  0  0  0  0  0  0  0  0  0
   -2.1631    8.1473   -2.6438 O   0  0  0  0  0  0  0  0  0  0  0  0
   -2.3688    9.5050   -0.6787 C   0  0  0  0  0  0  0  0  0  0  0  0
   -4.4621   13.7871    1.6839 N   0  0  0  0  0  0  0  0  0  0  0  0
   -5.7947   13.8360    1.7731 C   0  0  0  0  0  0  0  0  0  0  0  0
   -6.3912   14.2682    0.4422 C   0  0  0  0  0  0  0  0  0  0  0  0
   -5.9297   15.5262    0.1144 N   0  0  0  0  0  0  0  0  0  0  0  0
   -4.5605   15.4374   -0.0112 C   0  0  0  0  0  0  0  0  0  0  0  0
   -3.9613   15.0104    1.3183 C   0  0  0  0  0  0  0  0  0  0  0  0
   -3.0128   10.6804   -5.0287 C   0  0  0  0  0  0  0  0  0  0  0  0
   -0.8278    7.7921   -2.3966 C   0  0  0  0  0  0  0  0  0  0  0  0
  1 14  1  0  0  0  0
  1  2  2  0  0  0  0
  3  2  1  0  0  0  0
  3  8  2  0  0  0  0
  4  3  1  0  0  0  0
  5  7  2  0  0  0  0
  5  4  1  0  0  0  0
  6  5  1  0  0  0  0
  7  1  1  0  0  0  0
  9 10  1  0  0  0  0
  9  8  1  0  0  0  0
 11  9  2  0  0  0  0
 12 11  1  0  0  0  0
 13  4  2  0  0  0  0
 13 11  1  0  0  0  0
 14 15  1  0  0  0  0
 16 15  1  0  0  0  0
 17 16  1  0  0  0  0
 18 17  1  0  0  0  0
 18 19  1  0  0  0  0
 19 14  1  0  0  0  0
 20 10  1  0  0  0  0
 21 12  1  0  0  0  0
M  END
>  <CHROM.1>
79.00538923,-83.81417455,119.61519249,-3.47723974,11.69150019,-0.56530488
-2.61898743,1.05774890,-1.53422797

>  <Name>
lig.pdb

>  <RI>
2.05709e+07

>  <Rbt.Current_Directory>
/home/itssahil/PROJECTS/Mol_Feturizer/New_Systems/rnas/2lwk

>  <Rbt.Executable>
rbdock ($Id: //depot/dev/client3/rdock/2013.1/src/exe/rbdock.cxx#4 $)

>  <Rbt.Library>
libRbt.so (2013.1, Build901 2013/11/27)

>  <Rbt.Parameter_File>
/export/apps/rDock/src/rDock_2013.1_src/data/scripts/dock_solv.prm

>  <Rbt.Receptor>
prm/blind_docking_40.prm

>  <SCORE>
-13.6564

>  <SCORE.INTER>
-11.188

>  <SCORE.INTER.CONST>
1

>  <SCORE.INTER.POLAR>
-0.938462

>  <SCORE.INTER.ROT>
3

>  <SCORE.INTER.SOLV>
11.7788

>  <SCORE.INTER.VDW>
-13.8567

>  <SCORE.INTER.norm>
-0.532761

>  <SCORE.INTRA>
-4.70276

>  <SCORE.INTRA.DIHEDRAL>
-0.455311

>  <SCORE.INTRA.DIHEDRAL.0>
8.84257

>  <SCORE.INTRA.POLAR>
0

>  <SCORE.INTRA.POLAR.0>
0

>  <SCORE.INTRA.REPUL>
0

>  <SCORE.INTRA.REPUL.0>
0

>  <SCORE.INTRA.SOLV>
0.105911

>  <SCORE.INTRA.SOLV.lig_0>
-17.1313

>  <SCORE.INTRA.VDW>
-4.52806

>  <SCORE.INTRA.VDW.0>
6.34071

>  <SCORE.INTRA.norm>
-0.223941

>  <SCORE.RESTR>
2.2343

>  <SCORE.RESTR.CAVITY>
2.2343

>  <SCORE.RESTR.norm>
0.106395

>  <SCORE.SYSTEM>
0

>  <SCORE.SYSTEM.CONST>
0

>  <SCORE.SYSTEM.DIHEDRAL>
0

>  <SCORE.SYSTEM.SOLV>
0

>  <SCORE.SYSTEM.norm>
0

>  <SCORE.heavy>
21

>  <SCORE.norm>
-0.650306

>  <RMSD>
14.358

$$$$
lig.pdb
 OpenBabel11021811453D
libRbt.so/2013.1/901 2013/11/27
 21 23  0  0  0  0  0  0  0  0999 V2000
   -4.1969   13.8439    1.1361 C   0  0  0  0  0  0  0  0  0  0  0  0
   -3.7688   12.8677    1.9285 N   0  0  0  0  0  0  0  0  0  0  0  0
   -3.3802   11.7174    1.4081 C   0  0  0  0  0  0  0  0  0  0  0  0
   -3.4841   11.5118    0.0796 C   0  0  0  0  0  0  0  0  0  0  0  0
   -3.9128   12.5000   -0.7169 C   0  0  0  0  0  0  0  0  0  0  0  0
   -4.0236   12.3040   -2.0302 N   0  0  0  0  0  0  0  0  0  0  0  0
   -4.2707   13.6635   -0.1833 N   0  0  0  0  0  0  0  0  0  0  0  0
   -2.9264   10.7433    2.2143 C   0  0  0  0  0  0  0  0  0  0  0  0
   -2.6965    9.4998    1.6918 C   0  0  0  0  0  0  0  0  0  0  0  0
   -3.0635    8.3791    2.4744 O   0  0  0  0  0  0  0  0  0  0  0  0
   -2.6189    9.3722    0.3569 C   0  0  0  0  0  0  0  0  0  0  0  0
   -1.9422    8.2568   -0.2055 O   0  0  0  0  0  0  0  0  0  0  0  0
   -3.1102   10.3366   -0.4456 C   0  0  0  0  0  0  0  0  0  0  0  0
   -4.5678   14.9966    1.6662 N   0  0  0  0  0  0  0  0  0  0  0  0
   -5.8476   15.3436    1.4998 C   0  0  0  0  0  0  0  0  0  0  0  0
   -6.0567   15.9120    0.1043 C   0  0  0  0  0  0  0  0  0  0  0  0
   -5.2751   17.0369   -0.0596 N   0  0  0  0  0  0  0  0  0  0  0  0
   -3.9618   16.6431    0.0762 C   0  0  0  0  0  0  0  0  0  0  0  0
   -3.7486   16.0791    1.4710 C   0  0  0  0  0  0  0  0  0  0  0  0
   -1.9947    7.4676    2.4591 C   0  0  0  0  0  0  0  0  0  0  0  0
   -0.6046    8.6124   -0.4394 C   0  0  0  0  0  0  0  0  0  0  0  0
  1 14  1  0  0  0  0
  1  2  2  0  0  0  0
  3  2  1  0  0  0  0
  3  8  2  0  0  0  0
  4  3  1  0  0  0  0
  5  7  2  0  0  0  0
  5  4  1  0  0  0  0
  6  5  1  0  0  0  0
  7  1  1  0  0  0  0
  9 10  1  0  0  0  0
  9  8  1  0  0  0  0
 11  9  2  0  0  0  0
 12 11  1  0  0  0  0
 13  4  2  0  0  0  0
 13 11  1  0  0  0  0
 14 15  1  0  0  0  0
 16 15  1  0  0  0  0
 17 16  1  0  0  0  0
 18 17  1  0  0  0  0
 18 19  1  0  0  0  0
 19 14  1  0  0  0  0
 20 10  1  0  0  0  0
 21 12  1  0  0  0  0
M  END
>  <CHROM.1>
-117.07007956,-133.31522641,-92.61257520,-3.58480605,12.22519542,0.67468192
2.83481168,1.19138015,-1.30429468

>  <Name>
lig.pdb

>  <RI>
2.05709e+07

>  <Rbt.Current_Directory>
/home/itssahil/PROJECTS/Mol_Feturizer/New_Systems/rnas/2lwk

>  <Rbt.Executable>
rbdock ($Id: //depot/dev/client3/rdock/2013.1/src/exe/rbdock.cxx#4 $)

>  <Rbt.Library>
libRbt.so (2013.1, Build901 2013/11/27)

>  <Rbt.Parameter_File>
/export/apps/rDock/src/rDock_2013.1_src/data/scripts/dock_solv.prm

>  <Rbt.Receptor>
prm/blind_docking_40.prm

>  <SCORE>
-13.1303

>  <SCORE.INTER>
-11.3583

>  <SCORE.INTER.CONST>
1

>  <SCORE.INTER.POLAR>
-0.938083

>  <SCORE.INTER.ROT>
3

>  <SCORE.INTER.SOLV>
8.4382

>  <SCORE.INTER.VDW>
-12.858

>  <SCORE.INTER.norm>
-0.54087

>  <SCORE.INTRA>
-4.04245

>  <SCORE.INTRA.DIHEDRAL>
-0.182133

>  <SCORE.INTRA.DIHEDRAL.0>
8.84257

>  <SCORE.INTRA.POLAR>
0

>  <SCORE.INTRA.POLAR.0>
0

>  <SCORE.INTRA.REPUL>
0

>  <SCORE.INTRA.REPUL.0>
0

>  <SCORE.INTRA.SOLV>
0.116888

>  <SCORE.INTRA.SOLV.lig_0>
-17.1313

>  <SCORE.INTRA.VDW>
-4.00983

>  <SCORE.INTRA.VDW.0>
6.34071

>  <SCORE.INTRA.norm>
-0.192498

>  <SCORE.RESTR>
2.27042

>  <SCORE.RESTR.CAVITY>
2.27042

>  <SCORE.RESTR.norm>
0.108115

>  <SCORE.SYSTEM>
0

>  <SCORE.SYSTEM.CONST>
0

>  <SCORE.SYSTEM.DIHEDRAL>
0

>  <SCORE.SYSTEM.SOLV>
0

>  <SCORE.SYSTEM.norm>
0

>  <SCORE.heavy>
21

>  <SCORE.norm>
-0.625253

>  <RMSD>
14.361

$$$$
lig.pdb
 OpenBabel11021811453D
libRbt.so/2013.1/901 2013/11/27
 21 23  0  0  0  0  0  0  0  0999 V2000
   -3.9631   12.7249    1.0985 C   0  0  0  0  0  0  0  0  0  0  0  0
   -3.9561   12.6406   -0.2271 N   0  0  0  0  0  0  0  0  0  0  0  0
   -3.4629   11.5671   -0.8179 C   0  0  0  0  0  0  0  0  0  0  0  0
   -2.9043   10.5891   -0.0765 C   0  0  0  0  0  0  0  0  0  0  0  0
   -2.9164   10.6759    1.2604 C   0  0  0  0  0  0  0  0  0  0  0  0
   -2.3621    9.7166    2.0007 N   0  0  0  0  0  0  0  0  0  0  0  0
   -3.4447   11.7473    1.8430 N   0  0  0  0  0  0  0  0  0  0  0  0
   -3.4808   11.4793   -2.1583 C   0  0  0  0  0  0  0  0  0  0  0  0
   -2.8107   10.4535   -2.7673 C   0  0  0  0  0  0  0  0  0  0  0  0
   -2.1014   10.7453   -3.9568 O   0  0  0  0  0  0  0  0  0  0  0  0
   -2.4357    9.4025   -2.0196 C   0  0  0  0  0  0  0  0  0  0  0  0
   -2.1745    8.1527   -2.6425 O   0  0  0  0  0  0  0  0  0  0  0  0
   -2.3841    9.5098   -0.6774 C   0  0  0  0  0  0  0  0  0  0  0  0
   -4.4741   13.7966    1.6794 N   0  0  0  0  0  0  0  0  0  0  0  0
   -5.8071   13.8516    1.7594 C   0  0  0  0  0  0  0  0  0  0  0  0
   -6.3921   14.2893    0.4252 C   0  0  0  0  0  0  0  0  0  0  0  0
   -5.9225   15.5458    0.1034 N   0  0  0  0  0  0  0  0  0  0  0  0
   -4.5529   15.4509   -0.0128 C   0  0  0  0  0  0  0  0  0  0  0  0
   -3.9650   15.0183    1.3200 C   0  0  0  0  0  0  0  0  0  0  0  0
   -3.0089   10.6996   -5.0280 C   0  0  0  0  0  0  0  0  0  0  0  0
   -0.8317    7.8100   -2.4196 C   0  0  0  0  0  0  0  0  0  0  0  0
  1 14  1  0  0  0  0
  1  2  2  0  0  0  0
  3  2  1  0  0  0  0
  3  8  2  0  0  0  0
  4  3  1  0  0  0  0
  5  7  2  0  0  0  0
  5  4  1  0  0  0  0
  6  5  1  0  0  0  0
  7  1  1  0  0  0  0
  9 10  1  0  0  0  0
  9  8  1  0  0  0  0
 11  9  2  0  0  0  0
 12 11  1  0  0  0  0
 13  4  2  0  0  0  0
 13 11  1  0  0  0  0
 14 15  1  0  0  0  0
 16 15  1  0  0  0  0
 17 16  1  0  0  0  0
 18 17  1  0  0  0  0
 18 19  1  0  0  0  0
 19 14  1  0  0  0  0
 20 10  1  0  0  0  0
 21 12  1  0  0  0  0
M  END
>  <CHROM.1>
78.79327146,-83.38686607,118.10071110,-3.48488327,11.70157267,-0.56882163
-2.62734929,1.06088627,-1.52523748

>  <Name>
lig.pdb

>  <RI>
2.05709e+07

>  <Rbt.Current_Directory>
/home/itssahil/PROJECTS/Mol_Feturizer/New_Systems/rnas/2lwk

>  <Rbt.Executable>
rbdock ($Id: //depot/dev/client3/rdock/2013.1/src/exe/rbdock.cxx#4 $)

>  <Rbt.Library>
libRbt.so (2013.1, Build901 2013/11/27)

>  <Rbt.Parameter_File>
/export/apps/rDock/src/rDock_2013.1_src/data/scripts/dock_solv.prm

>  <Rbt.Receptor>
prm/blind_docking_40.prm

>  <SCORE>
-13.7837

>  <SCORE.INTER>
-11.2646

>  <SCORE.INTER.CONST>
1

>  <SCORE.INTER.POLAR>
-0.929886

>  <SCORE.INTER.ROT>
3

>  <SCORE.INTER.SOLV>
11.7407

>  <SCORE.INTER.VDW>
-13.9237

>  <SCORE.INTER.norm>
-0.53641

>  <SCORE.INTRA>
-4.76825

>  <SCORE.INTRA.DIHEDRAL>
-0.372829

>  <SCORE.INTRA.DIHEDRAL.0>
8.84257

>  <SCORE.INTRA.POLAR>
0

>  <SCORE.INTRA.POLAR.0>
0

>  <SCORE.INTRA.REPUL>
0

>  <SCORE.INTRA.REPUL.0>
0

>  <SCORE.INTRA.SOLV>
0.106934

>  <SCORE.INTRA.SOLV.lig_0>
-17.1313

>  <SCORE.INTRA.VDW>
-4.6353

>  <SCORE.INTRA.VDW.0>
6.34071

>  <SCORE.INTRA.norm>
-0.227059

>  <SCORE.RESTR>
2.24918

>  <SCORE.RESTR.CAVITY>
2.24918

>  <SCORE.RESTR.norm>
0.107104

>  <SCORE.SYSTEM>
0

>  <SCORE.SYSTEM.CONST>
0

>  <SCORE.SYSTEM.DIHEDRAL>
0

>  <SCORE.SYSTEM.SOLV>
0

>  <SCORE.SYSTEM.norm>
0

>  <SCORE.heavy>
21

>  <SCORE.norm>
-0.656366

>  <RMSD>
14.365

$$$$
lig.pdb
 OpenBabel11021811453D
libRbt.so/2013.1/901 2013/11/27
 21 23  0  0  0  0  0  0  0  0999 V2000
   -3.9612   12.7272    1.0994 C   0  0  0  0  0  0  0  0  0  0  0  0
   -3.9571   12.6411   -0.2260 N   0  0  0  0  0  0  0  0  0  0  0  0
   -3.4628   11.5678   -0.8164 C   0  0  0  0  0  0  0  0  0  0  0  0
   -2.9005   10.5920   -0.0750 C   0  0  0  0  0  0  0  0  0  0  0  0
   -2.9098   10.6807    1.2618 C   0  0  0  0  0  0  0  0  0  0  0  0
   -2.3518    9.7236    2.0022 N   0  0  0  0  0  0  0  0  0  0  0  0
   -3.4390   11.7517    1.8441 N   0  0  0  0  0  0  0  0  0  0  0  0
   -3.4836   11.4781   -2.1567 C   0  0  0  0  0  0  0  0  0  0  0  0
   -2.8127   10.4528   -2.7658 C   0  0  0  0  0  0  0  0  0  0  0  0
   -2.1068   10.7445   -3.9573 O   0  0  0  0  0  0  0  0  0  0  0  0
   -2.4337    9.4037   -2.0175 C   0  0  0  0  0  0  0  0  0  0  0  0
   -2.1714    8.1536   -2.6393 O   0  0  0  0  0  0  0  0  0  0  0  0
   -2.3793    9.5130   -0.6756 C   0  0  0  0  0  0  0  0  0  0  0  0
   -4.4732   13.7986    1.6801 N   0  0  0  0  0  0  0  0  0  0  0  0
   -5.8061   13.8514    1.7619 C   0  0  0  0  0  0  0  0  0  0  0  0
   -6.3938   14.2868    0.4281 C   0  0  0  0  0  0  0  0  0  0  0  0
   -5.9268   15.5438    0.1043 N   0  0  0  0  0  0  0  0  0  0  0  0
   -4.5572   15.4510   -0.0137 C   0  0  0  0  0  0  0  0  0  0  0  0
   -3.9667   15.0208    1.3187 C   0  0  0  0  0  0  0  0  0  0  0  0
   -3.0194   10.7100   -5.0245 C   0  0  0  0  0  0  0  0  0  0  0  0
   -0.8266    7.8153   -2.4212 C   0  0  0  0  0  0  0  0  0  0  0  0
  1 14  1  0  0  0  0
  1  2  2  0  0  0  0
  3  2  1  0  0  0  0
  3  8  2  0  0  0  0
  4  3  1  0  0  0  0
  5  7  2  0  0  0  0
  5  4  1  0  0  0  0
  6  5  1  0  0  0  0
  7  1  1  0  0  0  0
  9 10  1  0  0  0  0
  9  8  1  0  0  0  0
 11  9  2  0  0  0  0
 12 11  1  0  0  0  0
 13  4  2  0  0  0  0
 13 11  1  0  0  0  0
 14 15  1  0  0  0  0
 16 15  1  0  0  0  0
 17 16  1  0  0  0  0
 18 17  1  0  0  0  0
 18 19  1  0  0  0  0
 19 14  1  0  0  0  0
 20 10  1  0  0  0  0
 21 12  1  0  0  0  0
M  END
>  <CHROM.1>
78.73522658,-82.74413365,117.98555973,-3.48437644,11.70357555,-0.56761030
-2.62331988,1.05908420,-1.53008952

>  <Name>
lig.pdb

>  <RI>
2.05709e+07

>  <Rbt.Current_Directory>
/home/itssahil/PROJECTS/Mol_Feturizer/New_Systems/rnas/2lwk

>  <Rbt.Executable>
rbdock ($Id: //depot/dev/client3/rdock/2013.1/src/exe/rbdock.cxx#4 $)

>  <Rbt.Library>
libRbt.so (2013.1, Build901 2013/11/27)

>  <Rbt.Parameter_File>
/export/apps/rDock/src/rDock_2013.1_src/data/scripts/dock_solv.prm

>  <Rbt.Receptor>
prm/blind_docking_40.prm

>  <SCORE>
-13.8057

>  <SCORE.INTER>
-11.3032

>  <SCORE.INTER.CONST>
1

>  <SCORE.INTER.POLAR>
-0.933126

>  <SCORE.INTER.ROT>
3

>  <SCORE.INTER.SOLV>
11.7509

>  <SCORE.INTER.VDW>
-13.942

>  <SCORE.INTER.norm>
-0.538246

>  <SCORE.INTRA>
-4.76012

>  <SCORE.INTRA.DIHEDRAL>
-0.395587

>  <SCORE.INTRA.DIHEDRAL.0>
8.84257

>  <SCORE.INTRA.POLAR>
0

>  <SCORE.INTRA.POLAR.0>
0

>  <SCORE.INTRA.REPUL>
0

>  <SCORE.INTRA.REPUL.0>
0

>  <SCORE.INTRA.SOLV>
0.106496

>  <SCORE.INTRA.SOLV.lig_0>
-17.1313

>  <SCORE.INTRA.VDW>
-4.61557

>  <SCORE.INTRA.VDW.0>
6.34071

>  <SCORE.INTRA.norm>
-0.226672

>  <SCORE.RESTR>
2.25761

>  <SCORE.RESTR.CAVITY>
2.25761

>  <SCORE.RESTR.norm>
0.107505

>  <SCORE.SYSTEM>
0

>  <SCORE.SYSTEM.CONST>
0

>  <SCORE.SYSTEM.DIHEDRAL>
0

>  <SCORE.SYSTEM.SOLV>
0

>  <SCORE.SYSTEM.norm>
0

>  <SCORE.heavy>
21

>  <SCORE.norm>
-0.657412

>  <RMSD>
14.366

$$$$
lig.pdb
 OpenBabel11021811453D
libRbt.so/2013.1/901 2013/11/27
 21 23  0  0  0  0  0  0  0  0999 V2000
   -4.2196   13.8457    1.1337 C   0  0  0  0  0  0  0  0  0  0  0  0
   -3.7792   12.8684    1.9181 N   0  0  0  0  0  0  0  0  0  0  0  0
   -3.3964   11.7197    1.3900 C   0  0  0  0  0  0  0  0  0  0  0  0
   -3.5186   11.5166    0.0626 C   0  0  0  0  0  0  0  0  0  0  0  0
   -3.9598   12.5059   -0.7257 C   0  0  0  0  0  0  0  0  0  0  0  0
   -4.0886   12.3123   -2.0378 N   0  0  0  0  0  0  0  0  0  0  0  0
   -4.3117   13.6678   -0.1849 N   0  0  0  0  0  0  0  0  0  0  0  0
   -2.9302   10.7446    2.1878 C   0  0  0  0  0  0  0  0  0  0  0  0
   -2.7060    9.5024    1.6596 C   0  0  0  0  0  0  0  0  0  0  0  0
   -3.0605    8.3797    2.4450 O   0  0  0  0  0  0  0  0  0  0  0  0
   -2.6469    9.3776    0.3235 C   0  0  0  0  0  0  0  0  0  0  0  0
   -1.9767    8.2643   -0.2506 O   0  0  0  0  0  0  0  0  0  0  0  0
   -3.1506   10.3430   -0.4701 C   0  0  0  0  0  0  0  0  0  0  0  0
   -4.5846   14.9968    1.6714 N   0  0  0  0  0  0  0  0  0  0  0  0
   -5.8592   15.3582    1.4952 C   0  0  0  0  0  0  0  0  0  0  0  0
   -6.0482   15.9422    0.1034 C   0  0  0  0  0  0  0  0  0  0  0  0
   -5.2539   17.0607   -0.0415 N   0  0  0  0  0  0  0  0  0  0  0  0
   -3.9460   16.6525    0.1038 C   0  0  0  0  0  0  0  0  0  0  0  0
   -3.7528   16.0729    1.4952 C   0  0  0  0  0  0  0  0  0  0  0  0
   -1.9774    7.4852    2.4412 C   0  0  0  0  0  0  0  0  0  0  0  0
   -0.6512    8.6316   -0.5306 C   0  0  0  0  0  0  0  0  0  0  0  0
  1 14  1  0  0  0  0
  1  2  2  0  0  0  0
  3  2  1  0  0  0  0
  3  8  2  0  0  0  0
  4  3  1  0  0  0  0
  5  7  2  0  0  0  0
  5  4  1  0  0  0  0
  6  5  1  0  0  0  0
  7  1  1  0  0  0  0
  9 10  1  0  0  0  0
  9  8  1  0  0  0  0
 11  9  2  0  0  0  0
 12 11  1  0  0  0  0
 13  4  2  0  0  0  0
 13 11  1  0  0  0  0
 14 15  1  0  0  0  0
 16 15  1  0  0  0  0
 17 16  1  0  0  0  0
 18 17  1  0  0  0  0
 18 19  1  0  0  0  0
 19 14  1  0  0  0  0
 20 10  1  0  0  0  0
 21 12  1  0  0  0  0
M  END
>  <CHROM.1>
-118.66470521,-131.81038922,-93.94015434,-3.60205187,12.23312524,0.66040974
2.87800384,1.19837081,-1.34394067

>  <Name>
lig.pdb

>  <RI>
2.05709e+07

>  <Rbt.Current_Directory>
/home/itssahil/PROJECTS/Mol_Feturizer/New_Systems/rnas/2lwk

>  <Rbt.Executable>
rbdock ($Id: //depot/dev/client3/rdock/2013.1/src/exe/rbdock.cxx#4 $)

>  <Rbt.Library>
libRbt.so (2013.1, Build901 2013/11/27)

>  <Rbt.Parameter_File>
/export/apps/rDock/src/rDock_2013.1_src/data/scripts/dock_solv.prm

>  <Rbt.Receptor>
prm/blind_docking_40.prm

>  <SCORE>
-13.2729

>  <SCORE.INTER>
-11.3691

>  <SCORE.INTER.CONST>
1

>  <SCORE.INTER.POLAR>
-0.938083

>  <SCORE.INTER.ROT>
3

>  <SCORE.INTER.SOLV>
8.27479

>  <SCORE.INTER.VDW>
-12.8107

>  <SCORE.INTER.norm>
-0.541385

>  <SCORE.INTRA>
-4.21759

>  <SCORE.INTRA.DIHEDRAL>
-0.103045

>  <SCORE.INTRA.DIHEDRAL.0>
8.84257

>  <SCORE.INTRA.POLAR>
0

>  <SCORE.INTRA.POLAR.0>
0

>  <SCORE.INTRA.REPUL>
0

>  <SCORE.INTRA.REPUL.0>
0

>  <SCORE.INTRA.SOLV>
0.114476

>  <SCORE.INTRA.SOLV.lig_0>
-17.1313

>  <SCORE.INTRA.VDW>
-4.22331

>  <SCORE.INTRA.VDW.0>
6.34071

>  <SCORE.INTRA.norm>
-0.200838

>  <SCORE.RESTR>
2.31379

>  <SCORE.RESTR.CAVITY>
2.31379

>  <SCORE.RESTR.norm>
0.110181

>  <SCORE.SYSTEM>
0

>  <SCORE.SYSTEM.CONST>
0

>  <SCORE.SYSTEM.DIHEDRAL>
0

>  <SCORE.SYSTEM.SOLV>
0

>  <SCORE.SYSTEM.norm>
0

>  <SCORE.heavy>
21

>  <SCORE.norm>
-0.632042

>  <RMSD>
14.366

$$$$
lig.pdb
 OpenBabel11021811453D
libRbt.so/2013.1/901 2013/11/27
 21 23  0  0  0  0  0  0  0  0999 V2000
   -3.9645   12.7320    1.1036 C   0  0  0  0  0  0  0  0  0  0  0  0
   -3.9552   12.6467   -0.2218 N   0  0  0  0  0  0  0  0  0  0  0  0
   -3.4629   11.5717   -0.8109 C   0  0  0  0  0  0  0  0  0  0  0  0
   -2.9075   10.5933   -0.0677 C   0  0  0  0  0  0  0  0  0  0  0  0
   -2.9220   10.6812    1.2691 C   0  0  0  0  0  0  0  0  0  0  0  0
   -2.3709    9.7214    2.0112 N   0  0  0  0  0  0  0  0  0  0  0  0
   -3.4493   11.7540    1.8498 N   0  0  0  0  0  0  0  0  0  0  0  0
   -3.4786   11.4829   -2.1512 C   0  0  0  0  0  0  0  0  0  0  0  0
   -2.8093   10.4554   -2.7582 C   0  0  0  0  0  0  0  0  0  0  0  0
   -2.0973   10.7449   -3.9466 O   0  0  0  0  0  0  0  0  0  0  0  0
   -2.4376    9.4043   -2.0090 C   0  0  0  0  0  0  0  0  0  0  0  0
   -2.1777    8.1535   -2.6305 O   0  0  0  0  0  0  0  0  0  0  0  0
   -2.3883    9.5125   -0.6668 C   0  0  0  0  0  0  0  0  0  0  0  0
   -4.4745   13.8052    1.6828 N   0  0  0  0  0  0  0  0  0  0  0  0
   -5.8074   13.8610    1.7635 C   0  0  0  0  0  0  0  0  0  0  0  0
   -6.3930   14.2965    0.4288 C   0  0  0  0  0  0  0  0  0  0  0  0
   -5.9229   15.5521    0.1042 N   0  0  0  0  0  0  0  0  0  0  0  0
   -4.5534   15.4561   -0.0126 C   0  0  0  0  0  0  0  0  0  0  0  0
   -3.9649   15.0258    1.3207 C   0  0  0  0  0  0  0  0  0  0  0  0
   -3.0052   10.7121   -5.0180 C   0  0  0  0  0  0  0  0  0  0  0  0
   -0.8345    7.8112   -2.4097 C   0  0  0  0  0  0  0  0  0  0  0  0
  1 14  1  0  0  0  0
  1  2  2  0  0  0  0
  3  2  1  0  0  0  0
  3  8  2  0  0  0  0
  4  3  1  0  0  0  0
  5  7  2  0  0  0  0
  5  4  1  0  0  0  0
  6  5  1  0  0  0  0
  7  1  1  0  0  0  0
  9 10  1  0  0  0  0
  9  8  1  0  0  0  0
 11  9  2  0  0  0  0
 12 11  1  0  0  0  0
 13  4  2  0  0  0  0
 13 11  1  0  0  0  0
 14 15  1  0  0  0  0
 16 15  1  0  0  0  0
 17 16  1  0  0  0  0
 18 17  1  0  0  0  0
 18 19  1  0  0  0  0
 19 14  1  0  0  0  0
 20 10  1  0  0  0  0
 21 12  1  0  0  0  0
M  END
>  <CHROM.1>
78.96567536,-82.85523546,117.84842170,-3.48610513,11.70668790,-0.56192051
-2.63163228,1.06207528,-1.52198091

>  <Name>
lig.pdb

>  <RI>
2.05709e+07

>  <Rbt.Current_Directory>
/home/itssahil/PROJECTS/Mol_Feturizer/New_Systems/rnas/2lwk

>  <Rbt.Executable>
rbdock ($Id: //depot/dev/client3/rdock/2013.1/src/exe/rbdock.cxx#4 $)

>  <Rbt.Library>
libRbt.so (2013.1, Build901 2013/11/27)

>  <Rbt.Parameter_File>
/export/apps/rDock/src/rDock_2013.1_src/data/scripts/dock_solv.prm

>  <Rbt.Receptor>
prm/blind_docking_40.prm

>  <SCORE>
-13.7933

>  <SCORE.INTER>
-11.2812

>  <SCORE.INTER.CONST>
1

>  <SCORE.INTER.POLAR>
-0.919944

>  <SCORE.INTER.ROT>
3

>  <SCORE.INTER.SOLV>
11.7379

>  <SCORE.INTER.VDW>
-13.967

>  <SCORE.INTER.norm>
-0.5372

>  <SCORE.INTRA>
-4.76557

>  <SCORE.INTRA.DIHEDRAL>
-0.381355

>  <SCORE.INTRA.DIHEDRAL.0>
8.84257

>  <SCORE.INTRA.POLAR>
0

>  <SCORE.INTRA.POLAR.0>
0

>  <SCORE.INTRA.REPUL>
0

>  <SCORE.INTRA.REPUL.0>
0

>  <SCORE.INTRA.SOLV>
0.10654

>  <SCORE.INTRA.SOLV.lig_0>
-17.1313

>  <SCORE.INTRA.VDW>
-4.62816

>  <SCORE.INTRA.VDW.0>
6.34071

>  <SCORE.INTRA.norm>
-0.226932

>  <SCORE.RESTR>
2.25348

>  <SCORE.RESTR.CAVITY>
2.25348

>  <SCORE.RESTR.norm>
0.107308

>  <SCORE.SYSTEM>
0

>  <SCORE.SYSTEM.CONST>
0

>  <SCORE.SYSTEM.DIHEDRAL>
0

>  <SCORE.SYSTEM.SOLV>
0

>  <SCORE.SYSTEM.norm>
0

>  <SCORE.heavy>
21

>  <SCORE.norm>
-0.656823

>  <RMSD>
14.367

$$$$
lig.pdb
 OpenBabel11021811453D
libRbt.so/2013.1/901 2013/11/27
 21 23  0  0  0  0  0  0  0  0999 V2000
   -3.9530   12.7332    1.1034 C   0  0  0  0  0  0  0  0  0  0  0  0
   -3.9522   12.6481   -0.2221 N   0  0  0  0  0  0  0  0  0  0  0  0
   -3.4624   11.5738   -0.8144 C   0  0  0  0  0  0  0  0  0  0  0  0
   -2.9010   10.5959   -0.0750 C   0  0  0  0  0  0  0  0  0  0  0  0
   -2.9069   10.6836    1.2618 C   0  0  0  0  0  0  0  0  0  0  0  0
   -2.3498    9.7245    2.0003 N   0  0  0  0  0  0  0  0  0  0  0  0
   -3.4317   11.7558    1.8462 N   0  0  0  0  0  0  0  0  0  0  0  0
   -3.4866   11.4851   -2.1547 C   0  0  0  0  0  0  0  0  0  0  0  0
   -2.8199   10.4585   -2.7661 C   0  0  0  0  0  0  0  0  0  0  0  0
   -2.1160   10.7491   -3.9591 O   0  0  0  0  0  0  0  0  0  0  0  0
   -2.4421    9.4078   -2.0195 C   0  0  0  0  0  0  0  0  0  0  0  0
   -2.1847    8.1574   -2.6428 O   0  0  0  0  0  0  0  0  0  0  0  0
   -2.3843    9.5159   -0.6776 C   0  0  0  0  0  0  0  0  0  0  0  0
   -4.4606   13.8056    1.6860 N   0  0  0  0  0  0  0  0  0  0  0  0
   -5.7929   13.8586    1.7777 C   0  0  0  0  0  0  0  0  0  0  0  0
   -6.3905   14.2918    0.4475 C   0  0  0  0  0  0  0  0  0  0  0  0
   -5.9258   15.5482    0.1182 N   0  0  0  0  0  0  0  0  0  0  0  0
   -4.5571   15.4552   -0.0099 C   0  0  0  0  0  0  0  0  0  0  0  0
   -3.9567   15.0272    1.3189 C   0  0  0  0  0  0  0  0  0  0  0  0
   -3.0216   10.6708   -5.0300 C   0  0  0  0  0  0  0  0  0  0  0  0
   -0.8384    7.8190   -2.4349 C   0  0  0  0  0  0  0  0  0  0  0  0
  1 14  1  0  0  0  0
  1  2  2  0  0  0  0
  3  2  1  0  0  0  0
  3  8  2  0  0  0  0
  4  3  1  0  0  0  0
  5  7  2  0  0  0  0
  5  4  1  0  0  0  0
  6  5  1  0  0  0  0
  7  1  1  0  0  0  0
  9 10  1  0  0  0  0
  9  8  1  0  0  0  0
 11  9  2  0  0  0  0
 12 11  1  0  0  0  0
 13  4  2  0  0  0  0
 13 11  1  0  0  0  0
 14 15  1  0  0  0  0
 16 15  1  0  0  0  0
 17 16  1  0  0  0  0
 18 17  1  0  0  0  0
 18 19  1  0  0  0  0
 19 14  1  0  0  0  0
 20 10  1  0  0  0  0
 21 12  1  0  0  0  0
M  END
>  <CHROM.1>
79.09061298,-84.81756854,117.63877916,-3.48423585,11.70608924,-0.56565580
-2.61567333,1.06040749,-1.53553475

>  <Name>
lig.pdb

>  <RI>
2.05709e+07

>  <Rbt.Current_Directory>
/home/itssahil/PROJECTS/Mol_Feturizer/New_Systems/rnas/2lwk

>  <Rbt.Executable>
rbdock ($Id: //depot/dev/client3/rdock/2013.1/src/exe/rbdock.cxx#4 $)

>  <Rbt.Library>
libRbt.so (2013.1, Build901 2013/11/27)

>  <Rbt.Parameter_File>
/export/apps/rDock/src/rDock_2013.1_src/data/scripts/dock_solv.prm

>  <Rbt.Receptor>
prm/blind_docking_40.prm

>  <SCORE>
-13.7124

>  <SCORE.INTER>
-11.1328

>  <SCORE.INTER.CONST>
1

>  <SCORE.INTER.POLAR>
-0.938542

>  <SCORE.INTER.ROT>
3

>  <SCORE.INTER.SOLV>
11.7629

>  <SCORE.INTER.VDW>
-13.8144

>  <SCORE.INTER.norm>
-0.530134

>  <SCORE.INTRA>
-4.81386

>  <SCORE.INTRA.DIHEDRAL>
-0.278134

>  <SCORE.INTRA.DIHEDRAL.0>
8.84257

>  <SCORE.INTRA.POLAR>
0

>  <SCORE.INTRA.POLAR.0>
0

>  <SCORE.INTRA.REPUL>
0

>  <SCORE.INTRA.REPUL.0>
0

>  <SCORE.INTRA.SOLV>
0.108387

>  <SCORE.INTRA.SOLV.lig_0>
-17.1313

>  <SCORE.INTRA.VDW>
-4.72899

>  <SCORE.INTRA.VDW.0>
6.34071

>  <SCORE.INTRA.norm>
-0.229232

>  <SCORE.RESTR>
2.23427

>  <SCORE.RESTR.CAVITY>
2.23427

>  <SCORE.RESTR.norm>
0.106394

>  <SCORE.SYSTEM>
0

>  <SCORE.SYSTEM.CONST>
0

>  <SCORE.SYSTEM.DIHEDRAL>
0

>  <SCORE.SYSTEM.SOLV>
0

>  <SCORE.SYSTEM.norm>
0

>  <SCORE.heavy>
21

>  <SCORE.norm>
-0.652972

>  <RMSD>
14.367

$$$$
lig.pdb
 OpenBabel11021811453D
libRbt.so/2013.1/901 2013/11/27
 21 23  0  0  0  0  0  0  0  0999 V2000
   -3.9730   12.7568    1.1024 C   0  0  0  0  0  0  0  0  0  0  0  0
   -3.9649   12.6658   -0.2228 N   0  0  0  0  0  0  0  0  0  0  0  0
   -3.4725   11.5886   -0.8076 C   0  0  0  0  0  0  0  0  0  0  0  0
   -2.9160   10.6136   -0.0607 C   0  0  0  0  0  0  0  0  0  0  0  0
   -2.9293   10.7072    1.2756 C   0  0  0  0  0  0  0  0  0  0  0  0
   -2.3771    9.7509    2.0214 N   0  0  0  0  0  0  0  0  0  0  0  0
   -3.4566   11.7823    1.8523 N   0  0  0  0  0  0  0  0  0  0  0  0
   -3.4893   11.4940   -2.1476 C   0  0  0  0  0  0  0  0  0  0  0  0
   -2.8201   10.4642   -2.7507 C   0  0  0  0  0  0  0  0  0  0  0  0
   -2.1093   10.7490   -3.9410 O   0  0  0  0  0  0  0  0  0  0  0  0
   -2.4472    9.4165   -1.9974 C   0  0  0  0  0  0  0  0  0  0  0  0
   -2.1872    8.1632   -2.6137 O   0  0  0  0  0  0  0  0  0  0  0  0
   -2.3968    9.5305   -0.6557 C   0  0  0  0  0  0  0  0  0  0  0  0
   -4.4831   13.8321    1.6774 N   0  0  0  0  0  0  0  0  0  0  0  0
   -5.8159   13.8882    1.7580 C   0  0  0  0  0  0  0  0  0  0  0  0
   -6.4018   14.3184    0.4217 C   0  0  0  0  0  0  0  0  0  0  0  0
   -5.9318   15.5728    0.0921 N   0  0  0  0  0  0  0  0  0  0  0  0
   -4.5623   15.4765   -0.0245 C   0  0  0  0  0  0  0  0  0  0  0  0
   -3.9736   15.0515    1.3104 C   0  0  0  0  0  0  0  0  0  0  0  0
   -3.0187   10.7145   -5.0110 C   0  0  0  0  0  0  0  0  0  0  0  0
   -0.8417    7.8260   -2.3989 C   0  0  0  0  0  0  0  0  0  0  0  0
  1 14  1  0  0  0  0
  1  2  2  0  0  0  0
  3  2  1  0  0  0  0
  3  8  2  0  0  0  0
  4  3  1  0  0  0  0
  5  7  2  0  0  0  0
  5  4  1  0  0  0  0
  6  5  1  0  0  0  0
  7  1  1  0  0  0  0
  9 10  1  0  0  0  0
  9  8  1  0  0  0  0
 11  9  2  0  0  0  0
 12 11  1  0  0  0  0
 13  4  2  0  0  0  0
 13 11  1  0  0  0  0
 14 15  1  0  0  0  0
 16 15  1  0  0  0  0
 17 16  1  0  0  0  0
 18 17  1  0  0  0  0
 18 19  1  0  0  0  0
 19 14  1  0  0  0  0
 20 10  1  0  0  0  0
 21 12  1  0  0  0  0
M  END
>  <CHROM.1>
78.91230902,-82.71047643,117.53006590,-3.49522252,11.72510583,-0.55959202
-2.62981065,1.06171971,-1.52763268

>  <Name>
lig.pdb

>  <RI>
2.05709e+07

>  <Rbt.Current_Directory>
/home/itssahil/PROJECTS/Mol_Feturizer/New_Systems/rnas/2lwk

>  <Rbt.Executable>
rbdock ($Id: //depot/dev/client3/rdock/2013.1/src/exe/rbdock.cxx#4 $)

>  <Rbt.Library>
libRbt.so (2013.1, Build901 2013/11/27)

>  <Rbt.Parameter_File>
/export/apps/rDock/src/rDock_2013.1_src/data/scripts/dock_solv.prm

>  <Rbt.Receptor>
prm/blind_docking_40.prm

>  <SCORE>
-14.0147

>  <SCORE.INTER>
-11.55

>  <SCORE.INTER.CONST>
1

>  <SCORE.INTER.POLAR>
-0.915106

>  <SCORE.INTER.ROT>
3

>  <SCORE.INTER.SOLV>
11.6999

>  <SCORE.INTER.VDW>
-14.1496

>  <SCORE.INTER.norm>
-0.549999

>  <SCORE.INTRA>
-4.77713

>  <SCORE.INTRA.DIHEDRAL>
-0.367452

>  <SCORE.INTRA.DIHEDRAL.0>
8.84257

>  <SCORE.INTRA.POLAR>
0

>  <SCORE.INTRA.POLAR.0>
0

>  <SCORE.INTRA.REPUL>
0

>  <SCORE.INTRA.REPUL.0>
0

>  <SCORE.INTRA.SOLV>
0.106715

>  <SCORE.INTRA.SOLV.lig_0>
-17.1313

>  <SCORE.INTRA.VDW>
-4.64676

>  <SCORE.INTRA.VDW.0>
6.34071

>  <SCORE.INTRA.norm>
-0.227482

>  <SCORE.RESTR>
2.31245

>  <SCORE.RESTR.CAVITY>
2.31245

>  <SCORE.RESTR.norm>
0.110116

>  <SCORE.SYSTEM>
0

>  <SCORE.SYSTEM.CONST>
0

>  <SCORE.SYSTEM.DIHEDRAL>
0

>  <SCORE.SYSTEM.SOLV>
0

>  <SCORE.SYSTEM.norm>
0

>  <SCORE.heavy>
21

>  <SCORE.norm>
-0.667364

>  <RMSD>
14.379

$$$$
lig.pdb
 OpenBabel11021811453D
libRbt.so/2013.1/901 2013/11/27
 21 23  0  0  0  0  0  0  0  0999 V2000
   -4.9335   13.3704    0.5782 C   0  0  0  0  0  0  0  0  0  0  0  0
   -4.6761   13.0363   -0.6814 N   0  0  0  0  0  0  0  0  0  0  0  0
   -3.8555   12.0353   -0.9445 C   0  0  0  0  0  0  0  0  0  0  0  0
   -3.2267   11.3990    0.0645 C   0  0  0  0  0  0  0  0  0  0  0  0
   -3.4916   11.7363    1.3337 C   0  0  0  0  0  0  0  0  0  0  0  0
   -2.8710   11.1165    2.3368 N   0  0  0  0  0  0  0  0  0  0  0  0
   -4.3438   12.7247    1.5852 N   0  0  0  0  0  0  0  0  0  0  0  0
   -3.6186   11.6885   -2.2205 C   0  0  0  0  0  0  0  0  0  0  0  0
   -2.6362   10.7752   -2.4909 C   0  0  0  0  0  0  0  0  0  0  0  0
   -1.8158   11.0062   -3.6208 O   0  0  0  0  0  0  0  0  0  0  0  0
   -2.1677   10.0233   -1.4812 C   0  0  0  0  0  0  0  0  0  0  0  0
   -1.5236    8.7888   -1.7628 O   0  0  0  0  0  0  0  0  0  0  0  0
   -2.3771   10.3976   -0.2039 C   0  0  0  0  0  0  0  0  0  0  0  0
   -5.7690   14.3632    0.8301 N   0  0  0  0  0  0  0  0  0  0  0  0
   -6.1410   15.1077   -0.2156 C   0  0  0  0  0  0  0  0  0  0  0  0
   -5.0475   16.1079   -0.5592 C   0  0  0  0  0  0  0  0  0  0  0  0
   -4.8303   16.9443    0.5162 N   0  0  0  0  0  0  0  0  0  0  0  0
   -4.4094   16.1568    1.5656 C   0  0  0  0  0  0  0  0  0  0  0  0
   -5.5017   15.1595    1.9142 C   0  0  0  0  0  0  0  0  0  0  0  0
   -2.5989   10.8251   -4.7727 C   0  0  0  0  0  0  0  0  0  0  0  0
   -2.4207    7.7420   -1.4989 C   0  0  0  0  0  0  0  0  0  0  0  0
  1 14  1  0  0  0  0
  1  2  2  0  0  0  0
  3  2  1  0  0  0  0
  3  8  2  0  0  0  0
  4  3  1  0  0  0  0
  5  7  2  0  0  0  0
  5  4  1  0  0  0  0
  6  5  1  0  0  0  0
  7  1  1  0  0  0  0
  9 10  1  0  0  0  0
  9  8  1  0  0  0  0
 11  9  2  0  0  0  0
 12 11  1  0  0  0  0
 13  4  2  0  0  0  0
 13 11  1  0  0  0  0
 14 15  1  0  0  0  0
 16 15  1  0  0  0  0
 17 16  1  0  0  0  0
 18 17  1  0  0  0  0
 18 19  1  0  0  0  0
 19 14  1  0  0  0  0
 20 10  1  0  0  0  0
 21 12  1  0  0  0  0
M  END
>  <CHROM.1>
-10.26788651,-69.37025458,-102.40955854,-3.70764415,12.40129084,-0.48016174
-2.92196427,1.13335555,-1.31629151

>  <Name>
lig.pdb

>  <RI>
2.05709e+07

>  <Rbt.Current_Directory>
/home/itssahil/PROJECTS/Mol_Feturizer/New_Systems/rnas/2lwk

>  <Rbt.Executable>
rbdock ($Id: //depot/dev/client3/rdock/2013.1/src/exe/rbdock.cxx#4 $)

>  <Rbt.Library>
libRbt.so (2013.1, Build901 2013/11/27)

>  <Rbt.Parameter_File>
/export/apps/rDock/src/rDock_2013.1_src/data/scripts/dock_solv.prm

>  <Rbt.Receptor>
prm/blind_docking_40.prm

>  <SCORE>
-12.4083

>  <SCORE.INTER>
-12.7877

>  <SCORE.INTER.CONST>
1

>  <SCORE.INTER.POLAR>
-1.249

>  <SCORE.INTER.ROT>
3

>  <SCORE.INTER.SOLV>
9.45525

>  <SCORE.INTER.VDW>
-13.1135

>  <SCORE.INTER.norm>
-0.608936

>  <SCORE.INTRA>
-2.40215

>  <SCORE.INTRA.DIHEDRAL>
-0.571931

>  <SCORE.INTRA.DIHEDRAL.0>
8.84257

>  <SCORE.INTRA.POLAR>
0

>  <SCORE.INTRA.POLAR.0>
0

>  <SCORE.INTRA.REPUL>
0

>  <SCORE.INTRA.REPUL.0>
0

>  <SCORE.INTRA.SOLV>
-0.0693175

>  <SCORE.INTRA.SOLV.lig_0>
-17.1313

>  <SCORE.INTRA.VDW>
-2.08152

>  <SCORE.INTRA.VDW.0>
6.34071

>  <SCORE.INTRA.norm>
-0.114388

>  <SCORE.RESTR>
2.78151

>  <SCORE.RESTR.CAVITY>
2.78151

>  <SCORE.RESTR.norm>
0.132453

>  <SCORE.SYSTEM>
0

>  <SCORE.SYSTEM.CONST>
0

>  <SCORE.SYSTEM.DIHEDRAL>
0

>  <SCORE.SYSTEM.SOLV>
0

>  <SCORE.SYSTEM.norm>
0

>  <SCORE.heavy>
21

>  <SCORE.norm>
-0.590871

>  <RMSD>
14.894

$$$$
lig.pdb
 OpenBabel11021811453D
libRbt.so/2013.1/901 2013/11/27
 21 23  0  0  0  0  0  0  0  0999 V2000
   -4.8089   13.2743    1.0285 C   0  0  0  0  0  0  0  0  0  0  0  0
   -3.8284   14.0888    0.6549 N   0  0  0  0  0  0  0  0  0  0  0  0
   -3.8053   15.3364    1.0883 C   0  0  0  0  0  0  0  0  0  0  0  0
   -4.8140   15.8008    1.8531 C   0  0  0  0  0  0  0  0  0  0  0  0
   -5.7992   14.9753    2.2309 C   0  0  0  0  0  0  0  0  0  0  0  0
   -6.8026   15.4269    2.9824 N   0  0  0  0  0  0  0  0  0  0  0  0
   -5.7935   13.7135    1.8136 N   0  0  0  0  0  0  0  0  0  0  0  0
   -2.7977   16.1471    0.7247 C   0  0  0  0  0  0  0  0  0  0  0  0
   -2.8728   17.4794    1.0275 C   0  0  0  0  0  0  0  0  0  0  0  0
   -2.4223   18.4020    0.0534 O   0  0  0  0  0  0  0  0  0  0  0  0
   -3.7721   17.8768    1.9427 C   0  0  0  0  0  0  0  0  0  0  0  0
   -3.5879   19.1114    2.6209 O   0  0  0  0  0  0  0  0  0  0  0  0
   -4.8014   17.0731    2.2747 C   0  0  0  0  0  0  0  0  0  0  0  0
   -4.8132   12.0232    0.6019 N   0  0  0  0  0  0  0  0  0  0  0  0
   -4.3258   11.1060    1.4431 C   0  0  0  0  0  0  0  0  0  0  0  0
   -2.8051   11.1193    1.4053 C   0  0  0  0  0  0  0  0  0  0  0  0
   -2.3708   10.8170    0.1313 N   0  0  0  0  0  0  0  0  0  0  0  0
   -2.8526   11.7990   -0.7066 C   0  0  0  0  0  0  0  0  0  0  0  0
   -4.3718   11.7851   -0.6745 C   0  0  0  0  0  0  0  0  0  0  0  0
   -3.5491   18.9639   -0.5693 C   0  0  0  0  0  0  0  0  0  0  0  0
   -2.3060   19.1247    3.1926 C   0  0  0  0  0  0  0  0  0  0  0  0
  1 14  1  0  0  0  0
  1  2  2  0  0  0  0
  3  2  1  0  0  0  0
  3  8  2  0  0  0  0
  4  3  1  0  0  0  0
  5  7  2  0  0  0  0
  5  4  1  0  0  0  0
  6  5  1  0  0  0  0
  7  1  1  0  0  0  0
  9 10  1  0  0  0  0
  9  8  1  0  0  0  0
 11  9  2  0  0  0  0
 12 11  1  0  0  0  0
 13  4  2  0  0  0  0
 13 11  1  0  0  0  0
 14 15  1  0  0  0  0
 16 15  1  0  0  0  0
 17 16  1  0  0  0  0
 18 17  1  0  0  0  0
 18 19  1  0  0  0  0
 19 14  1  0  0  0  0
 20 10  1  0  0  0  0
 21 12  1  0  0  0  0
M  END
>  <CHROM.1>
98.07920748,103.12042038,-53.42403386,-3.94978740,15.04349892,1.19253200
1.64630930,-0.63549299,-2.93304310

>  <Name>
lig.pdb

>  <RI>
2.05709e+07

>  <Rbt.Current_Directory>
/home/itssahil/PROJECTS/Mol_Feturizer/New_Systems/rnas/2lwk

>  <Rbt.Executable>
rbdock ($Id: //depot/dev/client3/rdock/2013.1/src/exe/rbdock.cxx#4 $)

>  <Rbt.Library>
libRbt.so (2013.1, Build901 2013/11/27)

>  <Rbt.Parameter_File>
/export/apps/rDock/src/rDock_2013.1_src/data/scripts/dock_solv.prm

>  <Rbt.Receptor>
prm/blind_docking_40.prm

>  <SCORE>
-7.13584

>  <SCORE.INTER>
-6.66331

>  <SCORE.INTER.CONST>
1

>  <SCORE.INTER.POLAR>
-0.559083

>  <SCORE.INTER.ROT>
3

>  <SCORE.INTER.SOLV>
8.4562

>  <SCORE.INTER.VDW>
-10.9973

>  <SCORE.INTER.norm>
-0.317301

>  <SCORE.INTRA>
-2.4562

>  <SCORE.INTRA.DIHEDRAL>
-1.33813

>  <SCORE.INTRA.DIHEDRAL.0>
8.84257

>  <SCORE.INTRA.POLAR>
0

>  <SCORE.INTRA.POLAR.0>
0

>  <SCORE.INTRA.REPUL>
0

>  <SCORE.INTRA.REPUL.0>
0

>  <SCORE.INTRA.SOLV>
0.0964882

>  <SCORE.INTRA.SOLV.lig_0>
-17.1313

>  <SCORE.INTRA.VDW>
-1.83538

>  <SCORE.INTRA.VDW.0>
6.34071

>  <SCORE.INTRA.norm>
-0.116962

>  <SCORE.RESTR>
1.98367

>  <SCORE.RESTR.CAVITY>
1.98367

>  <SCORE.RESTR.norm>
0.0944606

>  <SCORE.SYSTEM>
0

>  <SCORE.SYSTEM.CONST>
0

>  <SCORE.SYSTEM.DIHEDRAL>
0

>  <SCORE.SYSTEM.SOLV>
0

>  <SCORE.SYSTEM.norm>
0

>  <SCORE.heavy>
21

>  <SCORE.norm>
-0.339802

>  <RMSD>
17.488

$$$$
lig.pdb
 OpenBabel11021811453D
libRbt.so/2013.1/901 2013/11/27
 21 23  0  0  0  0  0  0  0  0999 V2000
   -4.0525   14.3513    0.9932 C   0  0  0  0  0  0  0  0  0  0  0  0
   -3.1053   15.2594    0.7870 N   0  0  0  0  0  0  0  0  0  0  0  0
   -3.2311   16.4719    1.2957 C   0  0  0  0  0  0  0  0  0  0  0  0
   -4.3528   16.8067    1.9649 C   0  0  0  0  0  0  0  0  0  0  0  0
   -5.3044   15.8871    2.1740 C   0  0  0  0  0  0  0  0  0  0  0  0
   -6.4184   16.2105    2.8297 N   0  0  0  0  0  0  0  0  0  0  0  0
   -5.1506   14.6615    1.6836 N   0  0  0  0  0  0  0  0  0  0  0  0
   -2.2578   17.3775    1.1024 C   0  0  0  0  0  0  0  0  0  0  0  0
   -2.4732   18.6763    1.4754 C   0  0  0  0  0  0  0  0  0  0  0  0
   -1.9927   19.6953    0.6188 O   0  0  0  0  0  0  0  0  0  0  0  0
   -3.4980   18.9418    2.3023 C   0  0  0  0  0  0  0  0  0  0  0  0
   -3.4905   20.1361    3.0716 O   0  0  0  0  0  0  0  0  0  0  0  0
   -4.4898   18.0439    2.4622 C   0  0  0  0  0  0  0  0  0  0  0  0
   -3.9085   13.1362    0.4932 N   0  0  0  0  0  0  0  0  0  0  0  0
   -4.7137   12.8116   -0.5229 C   0  0  0  0  0  0  0  0  0  0  0  0
   -6.0916   12.4381    0.0023 C   0  0  0  0  0  0  0  0  0  0  0  0
   -5.9877   11.3482    0.8416 N   0  0  0  0  0  0  0  0  0  0  0  0
   -5.1874   11.7234    1.8985 C   0  0  0  0  0  0  0  0  0  0  0  0
   -3.8085   12.0927    1.3775 C   0  0  0  0  0  0  0  0  0  0  0  0
   -3.0653   20.1442   -0.1694 C   0  0  0  0  0  0  0  0  0  0  0  0
   -2.6618   19.9473    4.1887 C   0  0  0  0  0  0  0  0  0  0  0  0
  1 14  1  0  0  0  0
  1  2  2  0  0  0  0
  3  2  1  0  0  0  0
  3  8  2  0  0  0  0
  4  3  1  0  0  0  0
  5  7  2  0  0  0  0
  5  4  1  0  0  0  0
  6  5  1  0  0  0  0
  7  1  1  0  0  0  0
  9 10  1  0  0  0  0
  9  8  1  0  0  0  0
 11  9  2  0  0  0  0
 12 11  1  0  0  0  0
 13  4  2  0  0  0  0
 13 11  1  0  0  0  0
 14 15  1  0  0  0  0
 16 15  1  0  0  0  0
 17 16  1  0  0  0  0
 18 17  1  0  0  0  0
 18 19  1  0  0  0  0
 19 14  1  0  0  0  0
 20 10  1  0  0  0  0
 21 12  1  0  0  0  0
M  END
>  <CHROM.1>
-109.37226706,98.62370530,-79.76224688,-4.07295386,16.02524920,1.47470811
-1.99919236,0.81262457,0.48587241

>  <Name>
lig.pdb

>  <RI>
2.05709e+07

>  <Rbt.Current_Directory>
/home/itssahil/PROJECTS/Mol_Feturizer/New_Systems/rnas/2lwk

>  <Rbt.Executable>
rbdock ($Id: //depot/dev/client3/rdock/2013.1/src/exe/rbdock.cxx#4 $)

>  <Rbt.Library>
libRbt.so (2013.1, Build901 2013/11/27)

>  <Rbt.Parameter_File>
/export/apps/rDock/src/rDock_2013.1_src/data/scripts/dock_solv.prm

>  <Rbt.Receptor>
prm/blind_docking_40.prm

>  <SCORE>
-7.71653

>  <SCORE.INTER>
-6.35007

>  <SCORE.INTER.CONST>
1

>  <SCORE.INTER.POLAR>
-1.17403

>  <SCORE.INTER.ROT>
3

>  <SCORE.INTER.SOLV>
7.14052

>  <SCORE.INTER.VDW>
-8.30011

>  <SCORE.INTER.norm>
-0.302384

>  <SCORE.INTRA>
-3.93894

>  <SCORE.INTRA.DIHEDRAL>
0.366333

>  <SCORE.INTRA.DIHEDRAL.0>
8.84257

>  <SCORE.INTRA.POLAR>
0

>  <SCORE.INTRA.POLAR.0>
0

>  <SCORE.INTRA.REPUL>
0

>  <SCORE.INTRA.REPUL.0>
0

>  <SCORE.INTRA.SOLV>
0.0827378

>  <SCORE.INTRA.SOLV.lig_0>
-17.1313

>  <SCORE.INTRA.VDW>
-4.16347

>  <SCORE.INTRA.VDW.0>
6.34071

>  <SCORE.INTRA.norm>
-0.187569

>  <SCORE.RESTR>
2.57248

>  <SCORE.RESTR.CAVITY>
2.57248

>  <SCORE.RESTR.norm>
0.122499

>  <SCORE.SYSTEM>
0

>  <SCORE.SYSTEM.CONST>
0

>  <SCORE.SYSTEM.DIHEDRAL>
0

>  <SCORE.SYSTEM.SOLV>
0

>  <SCORE.SYSTEM.norm>
0

>  <SCORE.heavy>
21

>  <SCORE.norm>
-0.367454

>  <RMSD>
18.392

$$$$
lig.pdb
 OpenBabel11021811453D
libRbt.so/2013.1/901 2013/11/27
 21 23  0  0  0  0  0  0  0  0999 V2000
   -4.9222   15.3397    1.3991 C   0  0  0  0  0  0  0  0  0  0  0  0
   -5.3860   16.1205    2.3684 N   0  0  0  0  0  0  0  0  0  0  0  0
   -4.7269   17.2138    2.7078 C   0  0  0  0  0  0  0  0  0  0  0  0
   -3.5486   17.4985    2.1173 C   0  0  0  0  0  0  0  0  0  0  0  0
   -3.0858   16.7106    1.1376 C   0  0  0  0  0  0  0  0  0  0  0  0
   -1.9199   16.9815    0.5521 N   0  0  0  0  0  0  0  0  0  0  0  0
   -3.7751   15.6307    0.7840 N   0  0  0  0  0  0  0  0  0  0  0  0
   -5.2148   18.0106    3.6731 C   0  0  0  0  0  0  0  0  0  0  0  0
   -4.4423   19.0382    4.1418 C   0  0  0  0  0  0  0  0  0  0  0  0
   -4.4608   19.2934    5.5338 O   0  0  0  0  0  0  0  0  0  0  0  0
   -3.3759   19.4171    3.4183 C   0  0  0  0  0  0  0  0  0  0  0  0
   -2.8354   20.7196    3.5901 O   0  0  0  0  0  0  0  0  0  0  0  0
   -2.8691   18.5964    2.4774 C   0  0  0  0  0  0  0  0  0  0  0  0
   -5.5985   14.2568    1.0565 N   0  0  0  0  0  0  0  0  0  0  0  0
   -5.6038   13.2542    1.9402 C   0  0  0  0  0  0  0  0  0  0  0  0
   -4.3005   12.4746    1.8524 C   0  0  0  0  0  0  0  0  0  0  0  0
   -4.1645   11.9404    0.5878 N   0  0  0  0  0  0  0  0  0  0  0  0
   -4.1207   12.9957   -0.2971 C   0  0  0  0  0  0  0  0  0  0  0  0
   -5.4234   13.7737   -0.2151 C   0  0  0  0  0  0  0  0  0  0  0  0
   -3.3176   18.7058    6.1002 C   0  0  0  0  0  0  0  0  0  0  0  0
   -1.4961   20.6021    3.9935 C   0  0  0  0  0  0  0  0  0  0  0  0
  1 14  1  0  0  0  0
  1  2  2  0  0  0  0
  3  2  1  0  0  0  0
  3  8  2  0  0  0  0
  4  3  1  0  0  0  0
  5  7  2  0  0  0  0
  5  4  1  0  0  0  0
  6  5  1  0  0  0  0
  7  1  1  0  0  0  0
  9 10  1  0  0  0  0
  9  8  1  0  0  0  0
 11  9  2  0  0  0  0
 12 11  1  0  0  0  0
 13  4  2  0  0  0  0
 13 11  1  0  0  0  0
 14 15  1  0  0  0  0
 16 15  1  0  0  0  0
 17 16  1  0  0  0  0
 18 17  1  0  0  0  0
 18 19  1  0  0  0  0
 19 14  1  0  0  0  0
 20 10  1  0  0  0  0
 21 12  1  0  0  0  0
M  END
>  <CHROM.1>
-70.36235161,99.51048983,120.70417084,-3.99650015,16.60032990,2.34663059
1.85673234,-0.77759673,-2.42918594

>  <Name>
lig.pdb

>  <RI>
2.05709e+07

>  <Rbt.Current_Directory>
/home/itssahil/PROJECTS/Mol_Feturizer/New_Systems/rnas/2lwk

>  <Rbt.Executable>
rbdock ($Id: //depot/dev/client3/rdock/2013.1/src/exe/rbdock.cxx#4 $)

>  <Rbt.Library>
libRbt.so (2013.1, Build901 2013/11/27)

>  <Rbt.Parameter_File>
/export/apps/rDock/src/rDock_2013.1_src/data/scripts/dock_solv.prm

>  <Rbt.Receptor>
prm/blind_docking_40.prm

>  <SCORE>
-8.59287

>  <SCORE.INTER>
-8.37717

>  <SCORE.INTER.CONST>
1

>  <SCORE.INTER.POLAR>
-0.518005

>  <SCORE.INTER.ROT>
3

>  <SCORE.INTER.SOLV>
7.59124

>  <SCORE.INTER.VDW>
-11.9885

>  <SCORE.INTER.norm>
-0.398913

>  <SCORE.INTRA>
-2.04711

>  <SCORE.INTRA.DIHEDRAL>
-0.680717

>  <SCORE.INTRA.DIHEDRAL.0>
8.84257

>  <SCORE.INTRA.POLAR>
0

>  <SCORE.INTRA.POLAR.0>
0

>  <SCORE.INTRA.REPUL>
0

>  <SCORE.INTRA.REPUL.0>
0

>  <SCORE.INTRA.SOLV>
0.0545277

>  <SCORE.INTRA.SOLV.lig_0>
-17.1313

>  <SCORE.INTRA.VDW>
-1.73401

>  <SCORE.INTRA.VDW.0>
6.34071

>  <SCORE.INTRA.norm>
-0.0974813

>  <SCORE.RESTR>
1.83141

>  <SCORE.RESTR.CAVITY>
1.83141

>  <SCORE.RESTR.norm>
0.0872099

>  <SCORE.SYSTEM>
0

>  <SCORE.SYSTEM.CONST>
0

>  <SCORE.SYSTEM.DIHEDRAL>
0

>  <SCORE.SYSTEM.SOLV>
0

>  <SCORE.SYSTEM.norm>
0

>  <SCORE.heavy>
21

>  <SCORE.norm>
-0.409184

>  <RMSD>
18.721

$$$$
lig.pdb
 OpenBabel11021811453D
libRbt.so/2013.1/901 2013/11/27
 21 23  0  0  0  0  0  0  0  0999 V2000
   -4.6986   14.8350    1.1641 C   0  0  0  0  0  0  0  0  0  0  0  0
   -4.0012   15.7754    1.7915 N   0  0  0  0  0  0  0  0  0  0  0  0
   -3.7132   16.9067    1.1735 C   0  0  0  0  0  0  0  0  0  0  0  0
   -4.0679   17.0769   -0.1162 C   0  0  0  0  0  0  0  0  0  0  0  0
   -4.7744   16.1278   -0.7445 C   0  0  0  0  0  0  0  0  0  0  0  0
   -5.1246   16.2853   -2.0205 N   0  0  0  0  0  0  0  0  0  0  0  0
   -5.0848   15.0073   -0.1007 N   0  0  0  0  0  0  0  0  0  0  0  0
   -3.0277   17.8623    1.8228 C   0  0  0  0  0  0  0  0  0  0  0  0
   -2.5794   18.9507    1.1252 C   0  0  0  0  0  0  0  0  0  0  0  0
   -1.2892   19.4441    1.4334 O   0  0  0  0  0  0  0  0  0  0  0  0
   -3.1024   19.1913   -0.0884 C   0  0  0  0  0  0  0  0  0  0  0  0
   -3.0369   20.5003   -0.6364 O   0  0  0  0  0  0  0  0  0  0  0  0
   -3.7564   18.2163   -0.7498 C   0  0  0  0  0  0  0  0  0  0  0  0
   -4.9952   13.7135    1.7977 N   0  0  0  0  0  0  0  0  0  0  0  0
   -4.0214   12.8019    1.8814 C   0  0  0  0  0  0  0  0  0  0  0  0
   -3.9080   12.0379    0.5709 C   0  0  0  0  0  0  0  0  0  0  0  0
   -5.0951   11.3850    0.3111 N   0  0  0  0  0  0  0  0  0  0  0  0
   -6.0716   12.3494    0.1893 C   0  0  0  0  0  0  0  0  0  0  0  0
   -6.1905   13.1114    1.4987 C   0  0  0  0  0  0  0  0  0  0  0  0
   -1.3988   20.2801    2.5569 C   0  0  0  0  0  0  0  0  0  0  0  0
   -3.8995   21.3364    0.0897 C   0  0  0  0  0  0  0  0  0  0  0  0
  1 14  1  0  0  0  0
  1  2  2  0  0  0  0
  3  2  1  0  0  0  0
  3  8  2  0  0  0  0
  4  3  1  0  0  0  0
  5  7  2  0  0  0  0
  5  4  1  0  0  0  0
  6  5  1  0  0  0  0
  7  1  1  0  0  0  0
  9 10  1  0  0  0  0
  9  8  1  0  0  0  0
 11  9  2  0  0  0  0
 12 11  1  0  0  0  0
 13  4  2  0  0  0  0
 13 11  1  0  0  0  0
 14 15  1  0  0  0  0
 16 15  1  0  0  0  0
 17 16  1  0  0  0  0
 18 17  1  0  0  0  0
 18 19  1  0  0  0  0
 19 14  1  0  0  0  0
 20 10  1  0  0  0  0
 21 12  1  0  0  0  0
M  END
>  <CHROM.1>
-79.02734071,-82.87822416,-70.06041944,-3.98232817,16.35683100,0.60655406
-2.14654216,-0.93907290,-0.49729727

>  <Name>
lig.pdb

>  <RI>
2.05709e+07

>  <Rbt.Current_Directory>
/home/itssahil/PROJECTS/Mol_Feturizer/New_Systems/rnas/2lwk

>  <Rbt.Executable>
rbdock ($Id: //depot/dev/client3/rdock/2013.1/src/exe/rbdock.cxx#4 $)

>  <Rbt.Library>
libRbt.so (2013.1, Build901 2013/11/27)

>  <Rbt.Parameter_File>
/export/apps/rDock/src/rDock_2013.1_src/data/scripts/dock_solv.prm

>  <Rbt.Receptor>
prm/blind_docking_40.prm

>  <SCORE>
-10.0952

>  <SCORE.INTER>
-7.99258

>  <SCORE.INTER.CONST>
1

>  <SCORE.INTER.POLAR>
-0.911022

>  <SCORE.INTER.ROT>
3

>  <SCORE.INTER.SOLV>
7.3811

>  <SCORE.INTER.VDW>
-10.352

>  <SCORE.INTER.norm>
-0.380599

>  <SCORE.INTRA>
-4.64058

>  <SCORE.INTRA.DIHEDRAL>
0.0917117

>  <SCORE.INTRA.DIHEDRAL.0>
8.84257

>  <SCORE.INTRA.POLAR>
0

>  <SCORE.INTRA.POLAR.0>
0

>  <SCORE.INTRA.REPUL>
0

>  <SCORE.INTRA.REPUL.0>
0

>  <SCORE.INTRA.SOLV>
0.0645315

>  <SCORE.INTRA.SOLV.lig_0>
-17.1313

>  <SCORE.INTRA.VDW>
-4.7187

>  <SCORE.INTRA.VDW.0>
6.34071

>  <SCORE.INTRA.norm>
-0.22098

>  <SCORE.RESTR>
2.538

>  <SCORE.RESTR.CAVITY>
2.538

>  <SCORE.RESTR.norm>
0.120857

>  <SCORE.SYSTEM>
0

>  <SCORE.SYSTEM.CONST>
0

>  <SCORE.SYSTEM.DIHEDRAL>
0

>  <SCORE.SYSTEM.SOLV>
0

>  <SCORE.SYSTEM.norm>
0

>  <SCORE.heavy>
21

>  <SCORE.norm>
-0.480722

>  <RMSD>
18.781

$$$$
lig.pdb
 OpenBabel11021811453D
libRbt.so/2013.1/901 2013/11/27
 21 23  0  0  0  0  0  0  0  0999 V2000
   -5.1158   15.0738    0.5024 C   0  0  0  0  0  0  0  0  0  0  0  0
   -4.6961   15.6554    1.6204 N   0  0  0  0  0  0  0  0  0  0  0  0
   -4.2904   16.9123    1.5986 C   0  0  0  0  0  0  0  0  0  0  0  0
   -4.2375   17.5811    0.4289 C   0  0  0  0  0  0  0  0  0  0  0  0
   -4.6650   16.9923   -0.6960 C   0  0  0  0  0  0  0  0  0  0  0  0
   -4.6115   17.6438   -1.8571 N   0  0  0  0  0  0  0  0  0  0  0  0
   -5.1006   15.7374   -0.6543 N   0  0  0  0  0  0  0  0  0  0  0  0
   -3.8896   17.5007    2.7379 C   0  0  0  0  0  0  0  0  0  0  0  0
   -3.3048   18.7363    2.6791 C   0  0  0  0  0  0  0  0  0  0  0  0
   -2.2003   18.9827    3.5291 O   0  0  0  0  0  0  0  0  0  0  0  0
   -3.4389   19.4535    1.5513 C   0  0  0  0  0  0  0  0  0  0  0  0
   -3.2753   20.8641    1.5903 O   0  0  0  0  0  0  0  0  0  0  0  0
   -3.8050   18.8495    0.4037 C   0  0  0  0  0  0  0  0  0  0  0  0
   -5.5350   13.8207    0.5390 N   0  0  0  0  0  0  0  0  0  0  0  0
   -5.4026   13.1827    1.7059 C   0  0  0  0  0  0  0  0  0  0  0  0
   -3.9667   12.7132    1.8837 C   0  0  0  0  0  0  0  0  0  0  0  0
   -3.6362   11.8390    0.8690 N   0  0  0  0  0  0  0  0  0  0  0  0
   -3.7414   12.5333   -0.3165 C   0  0  0  0  0  0  0  0  0  0  0  0
   -5.1760   12.9997   -0.4993 C   0  0  0  0  0  0  0  0  0  0  0  0
   -2.6246   19.8397    4.5581 C   0  0  0  0  0  0  0  0  0  0  0  0
   -1.9445   21.1725    1.2675 C   0  0  0  0  0  0  0  0  0  0  0  0
  1 14  1  0  0  0  0
  1  2  2  0  0  0  0
  3  2  1  0  0  0  0
  3  8  2  0  0  0  0
  4  3  1  0  0  0  0
  5  7  2  0  0  0  0
  5  4  1  0  0  0  0
  6  5  1  0  0  0  0
  7  1  1  0  0  0  0
  9 10  1  0  0  0  0
  9  8  1  0  0  0  0
 11  9  2  0  0  0  0
 12 11  1  0  0  0  0
 13  4  2  0  0  0  0
 13 11  1  0  0  0  0
 14 15  1  0  0  0  0
 16 15  1  0  0  0  0
 17 16  1  0  0  0  0
 18 17  1  0  0  0  0
 18 19  1  0  0  0  0
 19 14  1  0  0  0  0
 20 10  1  0  0  0  0
 21 12  1  0  0  0  0
M  END
>  <CHROM.1>
-5.27113972,-106.99595196,93.94783448,-4.00036562,16.59033174,1.12555829
2.32989572,1.21292498,2.66849891

>  <Name>
lig.pdb

>  <RI>
2.05709e+07

>  <Rbt.Current_Directory>
/home/itssahil/PROJECTS/Mol_Feturizer/New_Systems/rnas/2lwk

>  <Rbt.Executable>
rbdock ($Id: //depot/dev/client3/rdock/2013.1/src/exe/rbdock.cxx#4 $)

>  <Rbt.Library>
libRbt.so (2013.1, Build901 2013/11/27)

>  <Rbt.Parameter_File>
/export/apps/rDock/src/rDock_2013.1_src/data/scripts/dock_solv.prm

>  <Rbt.Receptor>
prm/blind_docking_40.prm

>  <SCORE>
-10.8318

>  <SCORE.INTER>
-9.02136

>  <SCORE.INTER.CONST>
1

>  <SCORE.INTER.POLAR>
-1.25813

>  <SCORE.INTER.ROT>
3

>  <SCORE.INTER.SOLV>
6.14587

>  <SCORE.INTER.VDW>
-9.46911

>  <SCORE.INTER.norm>
-0.429588

>  <SCORE.INTRA>
-3.28881

>  <SCORE.INTRA.DIHEDRAL>
0.974548

>  <SCORE.INTRA.DIHEDRAL.0>
8.84257

>  <SCORE.INTRA.POLAR>
0

>  <SCORE.INTRA.POLAR.0>
0

>  <SCORE.INTRA.REPUL>
0

>  <SCORE.INTRA.REPUL.0>
0

>  <SCORE.INTRA.SOLV>
0.0390056

>  <SCORE.INTRA.SOLV.lig_0>
-17.1313

>  <SCORE.INTRA.VDW>
-3.79559

>  <SCORE.INTRA.VDW.0>
6.34071

>  <SCORE.INTRA.norm>
-0.15661

>  <SCORE.RESTR>
1.47842

>  <SCORE.RESTR.CAVITY>
1.47842

>  <SCORE.RESTR.norm>
0.0704009

>  <SCORE.SYSTEM>
0

>  <SCORE.SYSTEM.CONST>
0

>  <SCORE.SYSTEM.DIHEDRAL>
0

>  <SCORE.SYSTEM.SOLV>
0

>  <SCORE.SYSTEM.norm>
0

>  <SCORE.heavy>
21

>  <SCORE.norm>
-0.515798

>  <RMSD>
18.873

$$$$
lig.pdb
 OpenBabel11021811453D
libRbt.so/2013.1/901 2013/11/27
 21 23  0  0  0  0  0  0  0  0999 V2000
   -4.6606   15.6250    1.0357 C   0  0  0  0  0  0  0  0  0  0  0  0
   -3.5905   16.3203    0.6677 N   0  0  0  0  0  0  0  0  0  0  0  0
   -3.2325   17.3923    1.3514 C   0  0  0  0  0  0  0  0  0  0  0  0
   -3.9935   17.8186    2.3796 C   0  0  0  0  0  0  0  0  0  0  0  0
   -5.0701   17.1126    2.7501 C   0  0  0  0  0  0  0  0  0  0  0  0
   -5.8309   17.5292    3.7617 N   0  0  0  0  0  0  0  0  0  0  0  0
   -5.4010   16.0179    2.0731 N   0  0  0  0  0  0  0  0  0  0  0  0
   -2.1354   18.0767    0.9870 C   0  0  0  0  0  0  0  0  0  0  0  0
   -1.8726   19.2799    1.5833 C   0  0  0  0  0  0  0  0  0  0  0  0
   -1.3771   20.3246    0.7671 O   0  0  0  0  0  0  0  0  0  0  0  0
   -2.5210   19.5848    2.7195 C   0  0  0  0  0  0  0  0  0  0  0  0
   -1.9751   20.5538    3.6033 O   0  0  0  0  0  0  0  0  0  0  0  0
   -3.6420   18.9190    3.0595 C   0  0  0  0  0  0  0  0  0  0  0  0
   -5.0003   14.5445    0.3541 N   0  0  0  0  0  0  0  0  0  0  0  0
   -6.2684   14.1400    0.4734 C   0  0  0  0  0  0  0  0  0  0  0  0
   -6.4534   13.3812    1.7788 C   0  0  0  0  0  0  0  0  0  0  0  0
   -5.6382   12.2684    1.7873 N   0  0  0  0  0  0  0  0  0  0  0  0
   -4.3378   12.7160    1.7048 C   0  0  0  0  0  0  0  0  0  0  0  0
   -4.1486   13.4705    0.3994 C   0  0  0  0  0  0  0  0  0  0  0  0
   -2.4741   21.0478    0.2705 C   0  0  0  0  0  0  0  0  0  0  0  0
   -0.6834   20.1484    3.9742 C   0  0  0  0  0  0  0  0  0  0  0  0
  1 14  1  0  0  0  0
  1  2  2  0  0  0  0
  3  2  1  0  0  0  0
  3  8  2  0  0  0  0
  4  3  1  0  0  0  0
  5  7  2  0  0  0  0
  5  4  1  0  0  0  0
  6  5  1  0  0  0  0
  7  1  1  0  0  0  0
  9 10  1  0  0  0  0
  9  8  1  0  0  0  0
 11  9  2  0  0  0  0
 12 11  1  0  0  0  0
 13  4  2  0  0  0  0
 13 11  1  0  0  0  0
 14 15  1  0  0  0  0
 16 15  1  0  0  0  0
 17 16  1  0  0  0  0
 18 17  1  0  0  0  0
 18 19  1  0  0  0  0
 19 14  1  0  0  0  0
 20 10  1  0  0  0  0
 21 12  1  0  0  0  0
M  END
>  <CHROM.1>
-159.18601120,90.29052097,-57.22448318,-3.81961661,16.97873905,1.79779807
-2.33951519,0.83290080,0.77132303

>  <Name>
lig.pdb

>  <RI>
2.05709e+07

>  <Rbt.Current_Directory>
/home/itssahil/PROJECTS/Mol_Feturizer/New_Systems/rnas/2lwk

>  <Rbt.Executable>
rbdock ($Id: //depot/dev/client3/rdock/2013.1/src/exe/rbdock.cxx#4 $)

>  <Rbt.Library>
libRbt.so (2013.1, Build901 2013/11/27)

>  <Rbt.Parameter_File>
/export/apps/rDock/src/rDock_2013.1_src/data/scripts/dock_solv.prm

>  <Rbt.Receptor>
prm/blind_docking_40.prm

>  <SCORE>
-8.81395

>  <SCORE.INTER>
-8.39849

>  <SCORE.INTER.CONST>
1

>  <SCORE.INTER.POLAR>
-0.63452

>  <SCORE.INTER.ROT>
3

>  <SCORE.INTER.SOLV>
6.44114

>  <SCORE.INTER.VDW>
-11.231

>  <SCORE.INTER.norm>
-0.399928

>  <SCORE.INTRA>
-2.37419

>  <SCORE.INTRA.DIHEDRAL>
-0.45051

>  <SCORE.INTRA.DIHEDRAL.0>
8.84257

>  <SCORE.INTRA.POLAR>
0

>  <SCORE.INTRA.POLAR.0>
0

>  <SCORE.INTRA.REPUL>
0

>  <SCORE.INTRA.REPUL.0>
0

>  <SCORE.INTRA.SOLV>
0.0411678

>  <SCORE.INTRA.SOLV.lig_0>
-17.1313

>  <SCORE.INTRA.VDW>
-2.16951

>  <SCORE.INTRA.VDW.0>
6.34071

>  <SCORE.INTRA.norm>
-0.113056

>  <SCORE.RESTR>
1.95872

>  <SCORE.RESTR.CAVITY>
1.95872

>  <SCORE.RESTR.norm>
0.0932724

>  <SCORE.SYSTEM>
0

>  <SCORE.SYSTEM.CONST>
0

>  <SCORE.SYSTEM.DIHEDRAL>
0

>  <SCORE.SYSTEM.SOLV>
0

>  <SCORE.SYSTEM.norm>
0

>  <SCORE.heavy>
21

>  <SCORE.norm>
-0.419712

>  <RMSD>
19.318

$$$$
lig.pdb
 OpenBabel11021811453D
libRbt.so/2013.1/901 2013/11/27
 21 23  0  0  0  0  0  0  0  0999 V2000
   -5.0386   15.9355   -0.1685 C   0  0  0  0  0  0  0  0  0  0  0  0
   -4.2304   16.3204    0.8128 N   0  0  0  0  0  0  0  0  0  0  0  0
   -3.5774   17.4648    0.7198 C   0  0  0  0  0  0  0  0  0  0  0  0
   -3.6786   18.2070   -0.4013 C   0  0  0  0  0  0  0  0  0  0  0  0
   -4.4976   17.8174   -1.3875 C   0  0  0  0  0  0  0  0  0  0  0  0
   -4.5999   18.5419   -2.5011 N   0  0  0  0  0  0  0  0  0  0  0  0
   -5.1733   16.6793   -1.2673 N   0  0  0  0  0  0  0  0  0  0  0  0
   -2.7800   17.8582    1.7269 C   0  0  0  0  0  0  0  0  0  0  0  0
   -1.9725   18.9485    1.5498 C   0  0  0  0  0  0  0  0  0  0  0  0
   -0.6616   18.8896    2.0800 O   0  0  0  0  0  0  0  0  0  0  0  0
   -2.2285   19.7726    0.5204 C   0  0  0  0  0  0  0  0  0  0  0  0
   -1.7541   21.1112    0.5553 O   0  0  0  0  0  0  0  0  0  0  0  0
   -2.9987   19.3576   -0.5044 C   0  0  0  0  0  0  0  0  0  0  0  0
   -5.6998   14.7963   -0.0576 N   0  0  0  0  0  0  0  0  0  0  0  0
   -6.6519   14.7497    0.8791 C   0  0  0  0  0  0  0  0  0  0  0  0
   -6.0268   14.5264    2.2478 C   0  0  0  0  0  0  0  0  0  0  0  0
   -5.3476   13.3257    2.2564 N   0  0  0  0  0  0  0  0  0  0  0  0
   -4.3482   13.4167    1.3123 C   0  0  0  0  0  0  0  0  0  0  0  0
   -4.9699   13.6352   -0.0570 C   0  0  0  0  0  0  0  0  0  0  0  0
   -0.5812   19.8002    3.1465 C   0  0  0  0  0  0  0  0  0  0  0  0
   -2.7269   21.9182    1.1657 C   0  0  0  0  0  0  0  0  0  0  0  0
  1 14  1  0  0  0  0
  1  2  2  0  0  0  0
  3  2  1  0  0  0  0
  3  8  2  0  0  0  0
  4  3  1  0  0  0  0
  5  7  2  0  0  0  0
  5  4  1  0  0  0  0
  6  5  1  0  0  0  0
  7  1  1  0  0  0  0
  9 10  1  0  0  0  0
  9  8  1  0  0  0  0
 11  9  2  0  0  0  0
 12 11  1  0  0  0  0
 13  4  2  0  0  0  0
 13 11  1  0  0  0  0
 14 15  1  0  0  0  0
 16 15  1  0  0  0  0
 17 16  1  0  0  0  0
 18 17  1  0  0  0  0
 18 19  1  0  0  0  0
 19 14  1  0  0  0  0
 20 10  1  0  0  0  0
 21 12  1  0  0  0  0
M  END
>  <CHROM.1>
67.89956075,-111.44377949,-89.47295214,-3.76893082,17.30541817,0.62288397
2.48935309,0.85480556,2.41516163

>  <Name>
lig.pdb

>  <RI>
2.05709e+07

>  <Rbt.Current_Directory>
/home/itssahil/PROJECTS/Mol_Feturizer/New_Systems/rnas/2lwk

>  <Rbt.Executable>
rbdock ($Id: //depot/dev/client3/rdock/2013.1/src/exe/rbdock.cxx#4 $)

>  <Rbt.Library>
libRbt.so (2013.1, Build901 2013/11/27)

>  <Rbt.Parameter_File>
/export/apps/rDock/src/rDock_2013.1_src/data/scripts/dock_solv.prm

>  <Rbt.Receptor>
prm/blind_docking_40.prm

>  <SCORE>
-18.6952

>  <SCORE.INTER>
-16.8202

>  <SCORE.INTER.CONST>
1

>  <SCORE.INTER.POLAR>
-1.98761

>  <SCORE.INTER.ROT>
3

>  <SCORE.INTER.SOLV>
9.04767

>  <SCORE.INTER.VDW>
-13.204

>  <SCORE.INTER.norm>
-0.800962

>  <SCORE.INTRA>
-5.31428

>  <SCORE.INTRA.DIHEDRAL>
0.901342

>  <SCORE.INTRA.DIHEDRAL.0>
8.84257

>  <SCORE.INTRA.POLAR>
0

>  <SCORE.INTRA.POLAR.0>
0

>  <SCORE.INTRA.REPUL>
0

>  <SCORE.INTRA.REPUL.0>
0

>  <SCORE.INTRA.SOLV>
0.107689

>  <SCORE.INTRA.SOLV.lig_0>
-17.1313

>  <SCORE.INTRA.VDW>
-5.81879

>  <SCORE.INTRA.VDW.0>
6.34071

>  <SCORE.INTRA.norm>
-0.253061

>  <SCORE.RESTR>
3.43929

>  <SCORE.RESTR.CAVITY>
3.43929

>  <SCORE.RESTR.norm>
0.163776

>  <SCORE.SYSTEM>
0

>  <SCORE.SYSTEM.CONST>
0

>  <SCORE.SYSTEM.DIHEDRAL>
0

>  <SCORE.SYSTEM.SOLV>
0

>  <SCORE.SYSTEM.norm>
0

>  <SCORE.heavy>
21

>  <SCORE.norm>
-0.890247

>  <RMSD>
19.678

$$$$
lig.pdb
 OpenBabel11021811453D
libRbt.so/2013.1/901 2013/11/27
 21 23  0  0  0  0  0  0  0  0999 V2000
    1.8660   22.3688    2.5132 C   0  0  0  0  0  0  0  0  0  0  0  0
    0.7469   22.1569    1.8299 N   0  0  0  0  0  0  0  0  0  0  0  0
   -0.1184   21.2492    2.2450 C   0  0  0  0  0  0  0  0  0  0  0  0
    0.1682   20.4911    3.3227 C   0  0  0  0  0  0  0  0  0  0  0  0
    1.2963   20.7103    4.0114 C   0  0  0  0  0  0  0  0  0  0  0  0
    1.5900   19.9625    5.0745 N   0  0  0  0  0  0  0  0  0  0  0  0
    2.1433   21.6485    3.6009 N   0  0  0  0  0  0  0  0  0  0  0  0
   -1.2588   21.0573    1.5615 C   0  0  0  0  0  0  0  0  0  0  0  0
   -2.0620   19.9994    1.8903 C   0  0  0  0  0  0  0  0  0  0  0  0
   -2.6723   19.2831    0.8331 O   0  0  0  0  0  0  0  0  0  0  0  0
   -1.8618   19.3875    3.0691 C   0  0  0  0  0  0  0  0  0  0  0  0
   -2.9106   18.6304    3.6565 O   0  0  0  0  0  0  0  0  0  0  0  0
   -0.7001   19.5551    3.7309 C   0  0  0  0  0  0  0  0  0  0  0  0
    2.7171   23.2909    2.0977 N   0  0  0  0  0  0  0  0  0  0  0  0
    2.2534   24.5428    2.0333 C   0  0  0  0  0  0  0  0  0  0  0  0
    1.4269   24.7285    0.7698 C   0  0  0  0  0  0  0  0  0  0  0  0
    2.2162   24.4984   -0.3380 N   0  0  0  0  0  0  0  0  0  0  0  0
    2.6460   23.1913   -0.2669 C   0  0  0  0  0  0  0  0  0  0  0  0
    3.4760   23.0037    0.9921 C   0  0  0  0  0  0  0  0  0  0  0  0
   -3.6995   20.0804    0.3019 C   0  0  0  0  0  0  0  0  0  0  0  0
   -3.5384   19.4149    4.6366 C   0  0  0  0  0  0  0  0  0  0  0  0
  1 14  1  0  0  0  0
  1  2  2  0  0  0  0
  3  2  1  0  0  0  0
  3  8  2  0  0  0  0
  4  3  1  0  0  0  0
  5  7  2  0  0  0  0
  5  4  1  0  0  0  0
  6  5  1  0  0  0  0
  7  1  1  0  0  0  0
  9 10  1  0  0  0  0
  9  8  1  0  0  0  0
 11  9  2  0  0  0  0
 12 11  1  0  0  0  0
 13  4  2  0  0  0  0
 13 11  1  0  0  0  0
 14 15  1  0  0  0  0
 16 15  1  0  0  0  0
 17 16  1  0  0  0  0
 18 17  1  0  0  0  0
 18 19  1  0  0  0  0
 19 14  1  0  0  0  0
 20 10  1  0  0  0  0
 21 12  1  0  0  0  0
M  END
>  <CHROM.1>
60.25282974,-73.08965722,-99.26287842,0.15030125,21.38579145,2.25171510,-0.58545004
0.49446635,2.13084885

>  <Name>
lig.pdb

>  <RI>
1.05666e+07

>  <Rbt.Current_Directory>
/home/itssahil/PROJECTS/Mol_Feturizer/New_Systems/rnas/2lwk

>  <Rbt.Executable>
rbdock ($Id: //depot/dev/client3/rdock/2013.1/src/exe/rbdock.cxx#4 $)

>  <Rbt.Library>
libRbt.so (2013.1, Build901 2013/11/27)

>  <Rbt.Parameter_File>
/export/apps/rDock/src/rDock_2013.1_src/data/scripts/dock_solv.prm

>  <Rbt.Receptor>
prm/blind_docking_80.prm

>  <SCORE>
-6.62317

>  <SCORE.INTER>
-4.30401

>  <SCORE.INTER.CONST>
1

>  <SCORE.INTER.POLAR>
-0.170632

>  <SCORE.INTER.ROT>
3

>  <SCORE.INTER.SOLV>
9.88993

>  <SCORE.INTER.VDW>
-11.1972

>  <SCORE.INTER.norm>
-0.204953

>  <SCORE.INTRA>
-4.67227

>  <SCORE.INTRA.DIHEDRAL>
-0.196207

>  <SCORE.INTRA.DIHEDRAL.0>
8.84257

>  <SCORE.INTRA.POLAR>
0

>  <SCORE.INTRA.POLAR.0>
0

>  <SCORE.INTRA.REPUL>
0

>  <SCORE.INTRA.REPUL.0>
0

>  <SCORE.INTRA.SOLV>
0.0657964

>  <SCORE.INTRA.SOLV.lig_0>
-17.1313

>  <SCORE.INTRA.VDW>
-4.60707

>  <SCORE.INTRA.VDW.0>
6.34071

>  <SCORE.INTRA.norm>
-0.222489

>  <SCORE.RESTR>
2.35312

>  <SCORE.RESTR.CAVITY>
2.35312

>  <SCORE.RESTR.norm>
0.112053

>  <SCORE.SYSTEM>
0

>  <SCORE.SYSTEM.CONST>
0

>  <SCORE.SYSTEM.DIHEDRAL>
0

>  <SCORE.SYSTEM.SOLV>
0

>  <SCORE.SYSTEM.norm>
0

>  <SCORE.heavy>
21

>  <SCORE.norm>
-0.315389

>  <RMSD>
23.666

$$$$
lig.pdb
 OpenBabel11021811453D
libRbt.so/2013.1/901 2013/11/27
 21 23  0  0  0  0  0  0  0  0999 V2000
    1.8741   22.3742    2.5137 C   0  0  0  0  0  0  0  0  0  0  0  0
    0.7556   22.1626    1.8292 N   0  0  0  0  0  0  0  0  0  0  0  0
   -0.1108   21.2560    2.2442 C   0  0  0  0  0  0  0  0  0  0  0  0
    0.1739   20.4986    3.3228 C   0  0  0  0  0  0  0  0  0  0  0  0
    1.3013   20.7174    4.0127 C   0  0  0  0  0  0  0  0  0  0  0  0
    1.5933   19.9703    5.0767 N   0  0  0  0  0  0  0  0  0  0  0  0
    2.1495   21.6547    3.6023 N   0  0  0  0  0  0  0  0  0  0  0  0
   -1.2507   21.0643    1.5595 C   0  0  0  0  0  0  0  0  0  0  0  0
   -2.0551   20.0074    1.8883 C   0  0  0  0  0  0  0  0  0  0  0  0
   -2.6647   19.2906    0.8310 O   0  0  0  0  0  0  0  0  0  0  0  0
   -1.8567   19.3963    3.0679 C   0  0  0  0  0  0  0  0  0  0  0  0
   -2.9067   18.6405    3.6546 O   0  0  0  0  0  0  0  0  0  0  0  0
   -0.6956   19.5636    3.7308 C   0  0  0  0  0  0  0  0  0  0  0  0
    2.7263   23.2954    2.0984 N   0  0  0  0  0  0  0  0  0  0  0  0
    2.2582   24.5443    2.0142 C   0  0  0  0  0  0  0  0  0  0  0  0
    1.4467   24.7124    0.7386 C   0  0  0  0  0  0  0  0  0  0  0  0
    2.2506   24.4734   -0.3567 N   0  0  0  0  0  0  0  0  0  0  0  0
    2.6850   23.1690   -0.2656 C   0  0  0  0  0  0  0  0  0  0  0  0
    3.5001   22.9991    1.0055 C   0  0  0  0  0  0  0  0  0  0  0  0
   -3.6458   20.1141    0.2545 C   0  0  0  0  0  0  0  0  0  0  0  0
   -3.5836   19.4516    4.5789 C   0  0  0  0  0  0  0  0  0  0  0  0
  1 14  1  0  0  0  0
  1  2  2  0  0  0  0
  3  2  1  0  0  0  0
  3  8  2  0  0  0  0
  4  3  1  0  0  0  0
  5  7  2  0  0  0  0
  5  4  1  0  0  0  0
  6  5  1  0  0  0  0
  7  1  1  0  0  0  0
  9 10  1  0  0  0  0
  9  8  1  0  0  0  0
 11  9  2  0  0  0  0
 12 11  1  0  0  0  0
 13  4  2  0  0  0  0
 13 11  1  0  0  0  0
 14 15  1  0  0  0  0
 16 15  1  0  0  0  0
 17 16  1  0  0  0  0
 18 17  1  0  0  0  0
 18 19  1  0  0  0  0
 19 14  1  0  0  0  0
 20 10  1  0  0  0  0
 21 12  1  0  0  0  0
M  END
>  <CHROM.1>
59.33302299,-70.18847034,-95.93663983,0.16092197,21.39083282,2.24334785,-0.58034048
0.49268584,2.12606420

>  <Name>
lig.pdb

>  <RI>
1.05666e+07

>  <Rbt.Current_Directory>
/home/itssahil/PROJECTS/Mol_Feturizer/New_Systems/rnas/2lwk

>  <Rbt.Executable>
rbdock ($Id: //depot/dev/client3/rdock/2013.1/src/exe/rbdock.cxx#4 $)

>  <Rbt.Library>
libRbt.so (2013.1, Build901 2013/11/27)

>  <Rbt.Parameter_File>
/export/apps/rDock/src/rDock_2013.1_src/data/scripts/dock_solv.prm

>  <Rbt.Receptor>
prm/blind_docking_80.prm

>  <SCORE>
-6.431

>  <SCORE.INTER>
-4.14622

>  <SCORE.INTER.CONST>
1

>  <SCORE.INTER.POLAR>
-0.17761

>  <SCORE.INTER.ROT>
3

>  <SCORE.INTER.SOLV>
9.95739

>  <SCORE.INTER.VDW>
-11.0912

>  <SCORE.INTER.norm>
-0.197439

>  <SCORE.INTRA>
-4.58937

>  <SCORE.INTRA.DIHEDRAL>
-0.298438

>  <SCORE.INTRA.DIHEDRAL.0>
8.84257

>  <SCORE.INTRA.POLAR>
0

>  <SCORE.INTRA.POLAR.0>
0

>  <SCORE.INTRA.REPUL>
0

>  <SCORE.INTRA.REPUL.0>
0

>  <SCORE.INTRA.SOLV>
0.0647763

>  <SCORE.INTRA.SOLV.lig_0>
-17.1313

>  <SCORE.INTRA.VDW>
-4.47254

>  <SCORE.INTRA.VDW.0>
6.34071

>  <SCORE.INTRA.norm>
-0.218541

>  <SCORE.RESTR>
2.30459

>  <SCORE.RESTR.CAVITY>
2.30459

>  <SCORE.RESTR.norm>
0.109743

>  <SCORE.SYSTEM>
0

>  <SCORE.SYSTEM.CONST>
0

>  <SCORE.SYSTEM.DIHEDRAL>
0

>  <SCORE.SYSTEM.SOLV>
0

>  <SCORE.SYSTEM.norm>
0

>  <SCORE.heavy>
21

>  <SCORE.norm>
-0.306238

>  <RMSD>
23.675

$$$$
lig.pdb
 OpenBabel11021811453D
libRbt.so/2013.1/901 2013/11/27
 21 23  0  0  0  0  0  0  0  0999 V2000
    1.9916   22.9651    0.8912 C   0  0  0  0  0  0  0  0  0  0  0  0
    0.7125   22.6332    0.7560 N   0  0  0  0  0  0  0  0  0  0  0  0
    0.1482   21.8123    1.6234 C   0  0  0  0  0  0  0  0  0  0  0  0
    0.8893   21.2580    2.6041 C   0  0  0  0  0  0  0  0  0  0  0  0
    2.1781   21.5979    2.7395 C   0  0  0  0  0  0  0  0  0  0  0  0
    2.9192   21.0513    3.7025 N   0  0  0  0  0  0  0  0  0  0  0  0
    2.7252   22.4499    1.8786 N   0  0  0  0  0  0  0  0  0  0  0  0
   -1.1519   21.5000    1.4934 C   0  0  0  0  0  0  0  0  0  0  0  0
   -1.6824   20.5159    2.2823 C   0  0  0  0  0  0  0  0  0  0  0  0
   -2.6052   19.6222    1.6883 O   0  0  0  0  0  0  0  0  0  0  0  0
   -0.9913   20.1233    3.3652 C   0  0  0  0  0  0  0  0  0  0  0  0
   -1.6672   19.4807    4.4368 O   0  0  0  0  0  0  0  0  0  0  0  0
    0.3215   20.4079    3.4710 C   0  0  0  0  0  0  0  0  0  0  0  0
    2.5417   23.8003    0.0269 N   0  0  0  0  0  0  0  0  0  0  0  0
    3.4269   23.2762   -0.8262 C   0  0  0  0  0  0  0  0  0  0  0  0
    4.7711   23.0952   -0.1374 C   0  0  0  0  0  0  0  0  0  0  0  0
    5.2444   24.3205    0.2839 N   0  0  0  0  0  0  0  0  0  0  0  0
    4.3347   24.8180    1.1913 C   0  0  0  0  0  0  0  0  0  0  0  0
    2.9919   25.0044    0.5048 C   0  0  0  0  0  0  0  0  0  0  0  0
   -3.7170   19.5136    2.5399 C   0  0  0  0  0  0  0  0  0  0  0  0
   -2.1398   20.4607    5.3237 C   0  0  0  0  0  0  0  0  0  0  0  0
  1 14  1  0  0  0  0
  1  2  2  0  0  0  0
  3  2  1  0  0  0  0
  3  8  2  0  0  0  0
  4  3  1  0  0  0  0
  5  7  2  0  0  0  0
  5  4  1  0  0  0  0
  6  5  1  0  0  0  0
  7  1  1  0  0  0  0
  9 10  1  0  0  0  0
  9  8  1  0  0  0  0
 11  9  2  0  0  0  0
 12 11  1  0  0  0  0
 13  4  2  0  0  0  0
 13 11  1  0  0  0  0
 14 15  1  0  0  0  0
 16 15  1  0  0  0  0
 17 16  1  0  0  0  0
 18 17  1  0  0  0  0
 18 19  1  0  0  0  0
 19 14  1  0  0  0  0
 20 10  1  0  0  0  0
 21 12  1  0  0  0  0
M  END
>  <CHROM.1>
-109.15852450,-132.41360678,-88.12060309,1.00641174,21.87663368,1.91560633
0.59569578,-0.35519315,-1.11161023

>  <Name>
lig.pdb

>  <RI>
1.05666e+07

>  <Rbt.Current_Directory>
/home/itssahil/PROJECTS/Mol_Feturizer/New_Systems/rnas/2lwk

>  <Rbt.Executable>
rbdock ($Id: //depot/dev/client3/rdock/2013.1/src/exe/rbdock.cxx#4 $)

>  <Rbt.Library>
libRbt.so (2013.1, Build901 2013/11/27)

>  <Rbt.Parameter_File>
/export/apps/rDock/src/rDock_2013.1_src/data/scripts/dock_solv.prm

>  <Rbt.Receptor>
prm/blind_docking_80.prm

>  <SCORE>
-10.8528

>  <SCORE.INTER>
-9.57147

>  <SCORE.INTER.CONST>
1

>  <SCORE.INTER.POLAR>
-0.668752

>  <SCORE.INTER.ROT>
3

>  <SCORE.INTER.SOLV>
12.7039

>  <SCORE.INTER.VDW>
-13.9864

>  <SCORE.INTER.norm>
-0.455784

>  <SCORE.INTRA>
-4.09765

>  <SCORE.INTRA.DIHEDRAL>
-0.0871759

>  <SCORE.INTRA.DIHEDRAL.0>
8.84257

>  <SCORE.INTRA.POLAR>
0

>  <SCORE.INTRA.POLAR.0>
0

>  <SCORE.INTRA.REPUL>
0

>  <SCORE.INTRA.REPUL.0>
0

>  <SCORE.INTRA.SOLV>
0.119506

>  <SCORE.INTRA.SOLV.lig_0>
-17.1313

>  <SCORE.INTRA.VDW>
-4.11382

>  <SCORE.INTRA.VDW.0>
6.34071

>  <SCORE.INTRA.norm>
-0.195126

>  <SCORE.RESTR>
2.8163

>  <SCORE.RESTR.CAVITY>
2.8163

>  <SCORE.RESTR.norm>
0.134109

>  <SCORE.SYSTEM>
0

>  <SCORE.SYSTEM.CONST>
0

>  <SCORE.SYSTEM.DIHEDRAL>
0

>  <SCORE.SYSTEM.SOLV>
0

>  <SCORE.SYSTEM.norm>
0

>  <SCORE.heavy>
21

>  <SCORE.norm>
-0.516801

>  <RMSD>
24.479

$$$$
lig.pdb
 OpenBabel11021811453D
libRbt.so/2013.1/901 2013/11/27
 21 23  0  0  0  0  0  0  0  0999 V2000
    1.9630   23.0501    0.9020 C   0  0  0  0  0  0  0  0  0  0  0  0
    0.7308   22.5932    0.7092 N   0  0  0  0  0  0  0  0  0  0  0  0
    0.1381   21.8765    1.6473 C   0  0  0  0  0  0  0  0  0  0  0  0
    0.8105   21.5515    2.7699 C   0  0  0  0  0  0  0  0  0  0  0  0
    2.0519   22.0172    2.9624 C   0  0  0  0  0  0  0  0  0  0  0  0
    2.7257   21.6969    4.0665 N   0  0  0  0  0  0  0  0  0  0  0  0
    2.6247   22.7640    2.0240 N   0  0  0  0  0  0  0  0  0  0  0  0
   -1.1169   21.4378    1.4544 C   0  0  0  0  0  0  0  0  0  0  0  0
   -1.6566   20.5510    2.3458 C   0  0  0  0  0  0  0  0  0  0  0  0
   -2.4491   19.4984    1.8290 O   0  0  0  0  0  0  0  0  0  0  0  0
   -1.0555   20.3971    3.5371 C   0  0  0  0  0  0  0  0  0  0  0  0
   -1.7923   19.8790    4.6357 O   0  0  0  0  0  0  0  0  0  0  0  0
    0.2165   20.8057    3.7121 C   0  0  0  0  0  0  0  0  0  0  0  0
    2.5403   23.7801   -0.0367 N   0  0  0  0  0  0  0  0  0  0  0  0
    3.4848   23.1757   -0.7638 C   0  0  0  0  0  0  0  0  0  0  0  0
    4.7920   23.1307    0.0127 C   0  0  0  0  0  0  0  0  0  0  0  0
    5.2107   24.4157    0.2897 N   0  0  0  0  0  0  0  0  0  0  0  0
    4.2394   25.0002    1.0729 C   0  0  0  0  0  0  0  0  0  0  0  0
    2.9332   25.0508    0.2979 C   0  0  0  0  0  0  0  0  0  0  0  0
   -3.5929   20.0624    1.2399 C   0  0  0  0  0  0  0  0  0  0  0  0
   -2.6840   20.8653    5.0855 C   0  0  0  0  0  0  0  0  0  0  0  0
  1 14  1  0  0  0  0
  1  2  2  0  0  0  0
  3  2  1  0  0  0  0
  3  8  2  0  0  0  0
  4  3  1  0  0  0  0
  5  7  2  0  0  0  0
  5  4  1  0  0  0  0
  6  5  1  0  0  0  0
  7  1  1  0  0  0  0
  9 10  1  0  0  0  0
  9  8  1  0  0  0  0
 11  9  2  0  0  0  0
 12 11  1  0  0  0  0
 13  4  2  0  0  0  0
 13 11  1  0  0  0  0
 14 15  1  0  0  0  0
 16 15  1  0  0  0  0
 17 16  1  0  0  0  0
 18 17  1  0  0  0  0
 18 19  1  0  0  0  0
 19 14  1  0  0  0  0
 20 10  1  0  0  0  0
 21 12  1  0  0  0  0
M  END
>  <CHROM.1>
-105.01640367,-64.93350678,-73.06027835,0.95117382,22.06627908,1.90775063
0.50567392,-0.43504348,-1.28915254

>  <Name>
lig.pdb

>  <RI>
1.05666e+07

>  <Rbt.Current_Directory>
/home/itssahil/PROJECTS/Mol_Feturizer/New_Systems/rnas/2lwk

>  <Rbt.Executable>
rbdock ($Id: //depot/dev/client3/rdock/2013.1/src/exe/rbdock.cxx#4 $)

>  <Rbt.Library>
libRbt.so (2013.1, Build901 2013/11/27)

>  <Rbt.Parameter_File>
/export/apps/rDock/src/rDock_2013.1_src/data/scripts/dock_solv.prm

>  <Rbt.Receptor>
prm/blind_docking_80.prm

>  <SCORE>
-11.4928

>  <SCORE.INTER>
-10.6411

>  <SCORE.INTER.CONST>
1

>  <SCORE.INTER.POLAR>
-1.07003

>  <SCORE.INTER.ROT>
3

>  <SCORE.INTER.SOLV>
11.8138

>  <SCORE.INTER.VDW>
-13.0652

>  <SCORE.INTER.norm>
-0.506718

>  <SCORE.INTRA>
-4.57504

>  <SCORE.INTRA.DIHEDRAL>
-0.902448

>  <SCORE.INTRA.DIHEDRAL.0>
8.84257

>  <SCORE.INTRA.POLAR>
0

>  <SCORE.INTRA.POLAR.0>
0

>  <SCORE.INTRA.REPUL>
0

>  <SCORE.INTRA.REPUL.0>
0

>  <SCORE.INTRA.SOLV>
0.0650558

>  <SCORE.INTRA.SOLV.lig_0>
-17.1313

>  <SCORE.INTRA.VDW>
-4.15634

>  <SCORE.INTRA.VDW.0>
6.34071

>  <SCORE.INTRA.norm>
-0.217859

>  <SCORE.RESTR>
3.72337

>  <SCORE.RESTR.CAVITY>
3.72337

>  <SCORE.RESTR.norm>
0.177303

>  <SCORE.SYSTEM>
0

>  <SCORE.SYSTEM.CONST>
0

>  <SCORE.SYSTEM.DIHEDRAL>
0

>  <SCORE.SYSTEM.SOLV>
0

>  <SCORE.SYSTEM.norm>
0

>  <SCORE.heavy>
21

>  <SCORE.norm>
-0.547274

>  <RMSD>
24.641

$$$$
