@<TRIPOS>MOLECULE
2lwk_rdock.pdb
 1023 1102 0 0 0
SMALL
GASTEIGER

@<TRIPOS>ATOM
      1  O5'      -11.3940   23.0040   -2.1580 O.3     1  G1         -0.3924
      2  C5'      -12.3470   23.3110   -3.1870 C.3     1  G1          0.0730
      3  C4'      -11.7170   23.3680   -4.5720 C.3     1  G1          0.1133
      4  O4'      -10.7190   24.3980   -4.6310 O.3     1  G1         -0.3456
      5  C3'      -10.9380   22.0800   -4.8520 C.3     1  G1          0.1241
      6  O3'      -11.7460   21.0540   -5.4190 O.3     1  G1         -0.3187
      7  C2'       -9.9250   22.5370   -5.8710 C.3     1  G1          0.1292
      8  O2'      -10.4770   22.5020   -7.1920 O.3     1  G1         -0.3846
      9  C1'       -9.6130   23.9620   -5.4500 C.3     1  G1          0.1667
     10   N9       -8.3410   23.9920   -4.7080 N.ar    1  G1         -0.2854
     11   C8       -8.1340   23.9010   -3.3590 C.ar    1  G1          0.1005
     12   N7       -6.8800   23.8600   -3.0110 N.ar    1  G1         -0.2286
     13   C5       -6.1970   23.9350   -4.2230 C.ar    1  G1          0.1721
     14   C6       -4.7990   23.9340   -4.4860 C.ar    1  G1          0.2803
     15   O6       -3.8770   23.8520   -3.6780 O.2     1  G1         -0.2654
     16   N.1      -4.5360   24.0270   -5.8430 N.ar    1  G1         -0.2934
     17   C.2      -5.4940   24.1110   -6.8270 C.ar    1  G1          0.1950
     18   N.2      -5.0370   24.2000   -8.0780 N.pl3   1  G1         -0.3289
     19   N.3      -6.8090   24.1110   -6.5920 N.ar    1  G1         -0.1963
     20   C4       -7.0860   24.0210   -5.2690 C.ar    1  G1          0.1712
     21  H5'      -12.7790   24.2820   -2.9950 H       1  G1          0.0584
     22 H5''      -13.1370   22.5480   -3.1690 H       1  G1          0.0584
     23  H4'      -12.4750   23.5270   -5.3360 H       1  G1          0.0647
     24  H3'      -10.4440   21.7400   -3.9420 H       1  G1          0.0655
     25  H2'       -9.0260   21.9220   -5.8110 H       1  G1          0.0666
     26 HO2'      -11.2120   23.1190   -7.2070 H       1  G1          0.2101
     27  H1'       -9.5350   24.5950   -6.3330 H       1  G1          0.0866
     28   H8       -8.9410   23.8740   -2.6320 H       1  G1          0.1030
     29   H1       -3.5640   24.0250   -6.1170 H       1  G1          0.1716
     30  H21       -4.0390   24.2010   -8.2530 H       1  G1          0.1451
     31  H22       -5.6860   24.2660   -8.8510 H       1  G1          0.1451
     32 HO5'      -11.0760   23.8360   -1.8010 H       1  G1          0.2095
     33    P.3    -11.3210   19.5130   -5.2190 P.3     2  A2          0.2131
     34  OP1      -12.4100   18.6620   -5.7440 O.2     2  A2         -0.5172
     35  OP2      -10.8570   19.3370   -3.8250 O.3     2  A2         -0.4373
     36  O5'      -10.0420   19.3650   -6.1940 O.3     2  A2         -0.3248
     37  C5'      -10.1750   19.4850   -7.6180 C.3     2  A2          0.0837
     38  C4'       -8.8180   19.4390   -8.3220 C.3     2  A2          0.1139
     39  O4'       -7.9930   20.5170   -7.8580 O.3     2  A2         -0.3456
     40  C3'       -7.9870   18.2070   -7.9360 C.3     2  A2          0.1241
     41  O3'       -8.3130   17.0560   -8.7130 O.3     2  A2         -0.3187
     42  C2'       -6.5720   18.6500   -8.2280 C.3     2  A2          0.1292
     43  O2'       -6.2100   18.4170   -9.5980 O.3     2  A2         -0.3846
     44  C1'       -6.6020   20.1350   -7.9060 C.3     2  A2          0.1667
     45   N9       -5.9360   20.3710   -6.6130 N.ar    2  A2         -0.2855
     46   C8       -6.4830   20.4240   -5.3590 C.ar    2  A2          0.1004
     47   N7       -5.6130   20.5730   -4.4000 N.ar    2  A2         -0.2306
     48   C5       -4.3920   20.6250   -5.0700 C.ar    2  A2          0.1473
     49   C6       -3.0670   20.7720   -4.6240 C.ar    2  A2          0.1472
     50   N6       -2.7370   20.8950   -3.3390 N.pl3   2  A2         -0.3413
     51   N.1      -2.1010   20.7850   -5.5580 N.ar    2  A2         -0.2188
     52   C.2      -2.4330   20.6600   -6.8370 C.ar    2  A2          0.1205
     53   N.3      -3.6320   20.5150   -7.3780 N.ar    2  A2         -0.2159
     54   C4       -4.5800   20.5060   -6.4180 C.ar    2  A2          0.1674
     55  H5'      -10.6640   20.4300   -7.8470 H       2  A2          0.0591
     56 H5''      -10.7960   18.6660   -7.9910 H       2  A2          0.0591
     57  H4'       -8.9400   19.4900   -9.4020 H       2  A2          0.0647
     58  H3'       -8.1060   18.0040   -6.8710 H       2  A2          0.0655
     59  H2'       -5.8770   18.1420   -7.5560 H       2  A2          0.0666
     60 HO2'       -5.3620   17.9700   -9.6030 H       2  A2          0.2101
     61  H1'       -6.0940   20.6910   -8.6900 H       2  A2          0.0866
     62   H8       -7.5550   20.3490   -5.1690 H       2  A2          0.1030
     63  H61       -1.7670   20.9980   -3.0730 H       2  A2          0.1438
     64  H62       -3.4560   20.8860   -2.6300 H       2  A2          0.1438
     65   H2       -1.6020   20.6830   -7.5420 H       2  A2          0.1048
     66    P.3     -7.9930   15.5910   -8.1210 P.3     3  G3          0.2131
     67  OP1       -8.5970   14.5820   -9.0190 O.2     3  G3         -0.5172
     68  OP2       -8.3300   15.5950   -6.6790 O.3     3  G3         -0.4373
     69  O5'       -6.3940   15.4980   -8.2610 O.3     3  G3         -0.3248
     70  C5'       -5.7940   15.4920   -9.5540 C.3     3  G3          0.0837
     71  C4'       -4.2720   15.5590   -9.4820 C.3     3  G3          0.1139
     72  O4'       -3.8460   16.7560   -8.8180 O.3     3  G3         -0.3456
     73  C3'       -3.6700   14.4470   -8.5810 C.3     3  G3          0.1241
     74  O3'       -3.5090   13.2050   -9.2590 O.3     3  G3         -0.3187
     75  C2'       -2.3240   15.0260   -8.2200 C.3     3  G3          0.1292
     76  O2'       -1.3430   14.7310   -9.2220 O.3     3  G3         -0.3846
     77  C1'       -2.5930   16.5200   -8.1390 C.3     3  G3          0.1667
     78   N9       -2.6680   16.9370   -6.7290 N.ar    3  G3         -0.2854
     79   C8       -3.7660   17.0300   -5.9170 C.ar    3  G3          0.1005
     80   N7       -3.4980   17.3670   -4.6890 N.ar    3  G3         -0.2286
     81   C5       -2.1140   17.5160   -4.6800 C.ar    3  G3          0.1721
     82   C6       -1.2410   17.8760   -3.6170 C.ar    3  G3          0.2803
     83   O6       -1.5340   18.1290   -2.4510 O.2     3  G3         -0.2654
     84   N.1       0.0810   17.9130   -4.0330 N.ar    3  G3         -0.2934
     85   C.2       0.5140   17.6390   -5.3110 C.ar    3  G3          0.1950
     86   N.2       1.8290   17.7350   -5.5140 N.pl3   3  G3         -0.3289
     87   N.3      -0.2970   17.2970   -6.3160 N.ar    3  G3         -0.1963
     88   C4       -1.5950   17.2550   -5.9280 C.ar    3  G3          0.1712
     89  H5'       -6.1640   16.3480  -10.1170 H       3  G3          0.0591
     90 H5''       -6.0810   14.5770  -10.0700 H       3  G3          0.0591
     91  H4'       -3.8340   15.4970  -10.4780 H       3  G3          0.0647
     92  H3'       -4.2860   14.3290   -7.6880 H       3  G3          0.0655
     93  H2'       -2.0060   14.6510   -7.2440 H       3  G3          0.0666
     94 HO2'       -0.5560   15.2350   -9.0090 H       3  G3          0.2101
     95  H1'       -1.7940   17.0640   -8.6390 H       3  G3          0.0866
     96   H8       -4.7810   16.8440   -6.2620 H       3  G3          0.1030
     97   H1        0.7680   18.1590   -3.3360 H       3  G3          0.1716
     98  H21        2.4390   17.9940   -4.7520 H       3  G3          0.1451
     99  H22        2.2140   17.5490   -6.4290 H       3  G3          0.1451
    100    P.3     -3.4940   11.8420   -8.4070 P.3     4  U4          0.2131
    101  OP1       -3.4530   10.7000   -9.3480 O.2     4  U4         -0.5172
    102  OP2       -4.5680   11.9240   -7.3910 O.3     4  U4         -0.4373
    103  O5'       -2.0790   11.9240   -7.6490 O.3     4  U4         -0.3248
    104  C5'       -0.8730   11.8860   -8.4060 C.3     4  U4          0.0837
    105  C4'        0.3560   12.1900   -7.5560 C.3     4  U4          0.1139
    106  O4'        0.2760   13.4990   -6.9730 O.3     4  U4         -0.3456
    107  C3'        0.4410   11.2650   -6.3240 C.3     4  U4          0.1241
    108  O3'        1.0160    9.9970   -6.6250 O.3     4  U4         -0.3187
    109  C2'        1.3460   12.0540   -5.4130 C.3     4  U4          0.1293
    110  O2'        2.7260   11.8400   -5.7330 O.3     4  U4         -0.3846
    111  C1'        0.9340   13.4930   -5.6840 C.3     4  U4          0.1680
    112   N.1       0.0270   13.9510   -4.6200 N.ar    4  U4         -0.2715
    113   C.2       0.5970   14.5000   -3.4870 C.ar    4  U4          0.3314
    114   O.2       1.8100   14.6730   -3.3830 O.2     4  U4         -0.2464
    115   N.3      -0.2780   14.8450   -2.4750 N.ar    4  U4         -0.2749
    116   C4       -1.6530   14.6970   -2.5010 C.ar    4  U4          0.2539
    117   O4       -2.3360   15.0260   -1.5350 O.2     4  U4         -0.2677
    118   C5       -2.1600   14.1220   -3.7270 C.ar    4  U4          0.0192
    119   C6       -1.3220   13.7760   -4.7310 C.ar    4  U4          0.0171
    120  H5'       -0.9410   12.6150   -9.2130 H       4  U4          0.0591
    121 H5''       -0.7620   10.8920   -8.8340 H       4  U4          0.0591
    122  H4'        1.2680   12.0890   -8.1440 H       4  U4          0.0647
    123  H3'       -0.5480   11.1530   -5.8750 H       4  U4          0.0655
    124  H2'        1.1440   11.7960   -4.3700 H       4  U4          0.0666
    125 HO2'        2.8100   11.8950   -6.6880 H       4  U4          0.2101
    126  H1'        1.8170   14.1300   -5.7160 H       4  U4          0.0867
    127   H3        0.1230   15.2430   -1.6380 H       4  U4          0.1734
    128   H5       -3.2310   13.9640   -3.8450 H       4  U4          0.0686
    129   H6       -1.7310   13.3470   -5.6460 H       4  U4          0.0813
    130    P.3      0.6840    8.7420   -5.6740 P.3     5  A5          0.2131
    131  OP1        1.1840    7.5130   -6.3280 O.2     5  A5         -0.5172
    132  OP2       -0.7370    8.8370   -5.2670 O.3     5  A5         -0.4373
    133  O5'        1.5960    9.0340   -4.3840 O.3     5  A5         -0.3248
    134  C5'        3.0160    8.9740   -4.4970 C.3     5  A5          0.0837
    135  C4'        3.7180    9.4320   -3.2250 C.3     5  A5          0.1139
    136  O4'        3.3900   10.7970   -2.9220 O.3     5  A5         -0.3456
    137  C3'        3.2050    8.7170   -2.0200 C.3     5  A5          0.1241
    138  O3'        3.8120    7.4360   -1.8950 O.3     5  A5         -0.3187
    139  C2'        3.6160    9.6160   -0.8850 C.3     5  A5          0.1292
    140  O2'        4.9820    9.3900   -0.5070 O.3     5  A5         -0.3846
    141  C1'        3.4290   10.9960   -1.4910 C.3     5  A5          0.1667
    142   N9        2.1640   11.5840   -1.0090 N.ar    5  A5         -0.2855
    143   C8        0.9110   11.4900   -1.5570 C.ar    5  A5          0.1004
    144   N7       -0.0260   12.0540   -0.8530 N.ar    5  A5         -0.2306
    145   C5        0.6540   12.5670    0.2470 C.ar    5  A5          0.1473
    146   C6        0.2230   13.2860    1.3720 C.ar    5  A5          0.1472
    147   N6       -1.0520   13.6150    1.5760 N.pl3   5  A5         -0.3413
    148   N.1       1.1550   13.6440    2.2700 N.ar    5  A5         -0.2188
    149   C.2       2.4220   13.3060    2.0580 C.ar    5  A5          0.1205
    150   N.3       2.9500   12.6340    1.0450 N.ar    5  A5         -0.2159
    151   C4        1.9890   12.2900    0.1610 C.ar    5  A5          0.1674
    152  H5'        3.3290    9.6050   -5.3260 H       5  A5          0.0591
    153 H5''        3.3050    7.9450   -4.7050 H       5  A5          0.0591
    154  H4'        4.7980    9.3080   -3.3110 H       5  A5          0.0647
    155  H3'        2.1180    8.6320   -2.0620 H       5  A5          0.0655
    156  H2'        2.9440    9.4820   -0.0330 H       5  A5          0.0666
    157 HO2'        5.5080   10.0970   -0.8910 H       5  A5          0.2101
    158  H1'        4.2670   11.6370   -1.2230 H       5  A5          0.0866
    159   H8        0.7060   10.9840   -2.5010 H       5  A5          0.1030
    160  H61       -1.3160   14.1350    2.4000 H       5  A5          0.1438
    161  H62       -1.7550   13.3430    0.9040 H       5  A5          0.1438
    162   H2        3.1290   13.6310    2.8230 H       5  A5          0.1048
    163    P.3      3.0540    6.2940   -1.0540 P.3     6  G6          0.2131
    164  OP1        3.7770    5.0180   -1.2400 O.3     6  G6         -0.4373
    165  OP2        1.6080    6.3780   -1.3650 O.2     6  G6         -0.5172
    166  O5'        3.2690    6.7820    0.4630 O.3     6  G6         -0.3248
    167  C5'        4.5830    6.8150    1.0140 C.3     6  G6          0.0837
    168  C4'        4.6200    7.4910    2.3810 C.3     6  G6          0.1139
    169  O4'        4.1330    8.8370    2.2960 O.3     6  G6         -0.3456
    170  C3'        3.6400    6.8750    3.3920 C.3     6  G6          0.1241
    171  O3'        4.1890    5.7240    4.0310 O.3     6  G6         -0.3187
    172  C2'        3.4330    7.9760    4.4010 C.3     6  G6          0.1292
    173  O2'        4.4060    7.9050    5.4520 O.3     6  G6         -0.3846
    174  C1'        3.5970    9.2430    3.5760 C.3     6  G6          0.1667
    175   N9        2.2870    9.8980    3.4270 N.ar    6  G6         -0.2854
    176   C8        1.3520    9.7420    2.4380 C.ar    6  G6          0.1005
    177   N7        0.2450   10.3960    2.6400 N.ar    6  G6         -0.2286
    178   C5        0.4560   11.0420    3.8550 C.ar    6  G6          0.1721
    179   C6       -0.4000   11.9050    4.5930 C.ar    6  G6          0.2803
    180   O6       -1.5400   12.2650    4.3070 O.2     6  G6         -0.2654
    181   N.1       0.2000   12.3400    5.7640 N.ar    6  G6         -0.2934
    182   C.2       1.4660   11.9920    6.1780 C.ar    6  G6          0.1950
    183   N.2       1.8650   12.5210    7.3370 N.pl3   6  G6         -0.3289
    184   N.3       2.2780   11.1820    5.4950 N.ar    6  G6         -0.1963
    185   C4        1.7080   10.7450    4.3450 C.ar    6  G6          0.1712
    186  H5'        5.2360    7.3570    0.3320 H       6  G6          0.0591
    187 H5''        4.9470    5.7950    1.1180 H       6  G6          0.0591
    188  H4'        5.6270    7.4740    2.7950 H       6  G6          0.0647
    189  H3'        2.7010    6.6370    2.8910 H       6  G6          0.0655
    190  H2'        2.4200    7.9260    4.8080 H       6  G6          0.0666
    191 HO2'        5.2610    8.1210    5.0680 H       6  G6          0.2101
    192  H1'        4.2930    9.9200    4.0690 H       6  G6          0.0866
    193   H8        1.5140    9.1290    1.5540 H       6  G6          0.1030
    194   H1       -0.3440   12.9560    6.3500 H       6  G6          0.1716
    195  H21        1.2480   13.1340    7.8520 H       6  G6          0.1451
    196  H22        2.7830   12.3080    7.7010 H       6  G6          0.1451
    197    P.3      3.1940    4.6370    4.6830 P.3     7  A7          0.2131
    198  OP1        3.9980    3.5020    5.1860 O.3     7  A7         -0.4373
    199  OP2        2.0840    4.3940    3.7340 O.2     7  A7         -0.5172
    200  O5'        2.5980    5.4320    5.9450 O.3     7  A7         -0.3248
    201  C5'        3.4610    5.8690    6.9920 C.3     7  A7          0.0837
    202  C4'        2.7320    6.7660    7.9870 C.3     7  A7          0.1139
    203  O4'        2.1800    7.9000    7.3040 O.3     7  A7         -0.3456
    204  C3'        1.4650    6.0910    8.6000 C.3     7  A7          0.1241
    205  O3'        1.7410    5.2850    9.7460 O.3     7  A7         -0.3187
    206  C2'        0.6650    7.3010    9.0290 C.3     7  A7          0.1292
    207  O2'        1.0500    7.7390   10.3370 O.3     7  A7         -0.3846
    208  C1'        0.9870    8.3470    7.9710 C.3     7  A7          0.1667
    209   N9       -0.1280    8.5160    7.0180 N.ar    7  A7         -0.2855
    210   C8       -0.3190    7.9230    5.7980 C.ar    7  A7          0.1004
    211   N7       -1.4000    8.3060    5.1800 N.ar    7  A7         -0.2306
    212   C5       -1.9710    9.2240    6.0570 C.ar    7  A7          0.1473
    213   C6       -3.1420    9.9980    5.9900 C.ar    7  A7          0.1472
    214   N6       -3.9760    9.9660    4.9540 N.pl3   7  A7         -0.3413
    215   N.1      -3.4090   10.8030    7.0330 N.ar    7  A7         -0.2188
    216   C.2      -2.5700   10.8310    8.0610 C.ar    7  A7          0.1205
    217   N.3      -1.4470   10.1560    8.2410 N.ar    7  A7         -0.2159
    218   C4       -1.2050    9.3570    7.1800 C.ar    7  A7          0.1674
    219  H5'        4.2950    6.4180    6.5570 H       7  A7          0.0591
    220 H5''        3.8430    4.9960    7.5170 H       7  A7          0.0591
    221  H4'        3.4040    7.0850    8.7830 H       7  A7          0.0647
    222  H3'        0.9360    5.5230    7.8360 H       7  A7          0.0655
    223  H2'       -0.4020    7.0640    9.0040 H       7  A7          0.0666
    224 HO2'        1.5270    8.5640   10.2340 H       7  A7          0.2101
    225  H1'        1.1880    9.2990    8.4610 H       7  A7          0.0866
    226   H8        0.3730    7.1970    5.3700 H       7  A7          0.1030
    227  H61       -4.8070   10.5430    4.9530 H       7  A7          0.1438
    228  H62       -3.7800    9.3640    4.1680 H       7  A7          0.1438
    229   H2       -2.8440   11.5070    8.8710 H       7  A7          0.1048
    230    P.3      0.7840    4.0540   10.1380 P.3     8  A8          0.2131
    231  OP1        1.4080    3.3380   11.2720 O.3     8  A8         -0.4373
    232  OP2        0.4430    3.3210    8.9000 O.2     8  A8         -0.5172
    233  O5'       -0.5460    4.7900   10.6790 O.3     8  A8         -0.3248
    234  C5'       -0.4880    5.5650   11.8780 C.3     8  A8          0.0837
    235  C4'       -1.7670    6.3590   12.1310 C.3     8  A8          0.1139
    236  O4'       -1.9780    7.3320   11.1140 O.3     8  A8         -0.3456
    237  C3'       -3.0130    5.4370   12.0910 C.3     8  A8          0.1241
    238  O3'       -3.2870    4.7720   13.3270 O.3     8  A8         -0.3187
    239  C2'       -4.0880    6.4760   11.8180 C.3     8  A8          0.1292
    240  O2'       -4.5940    7.0220   13.0440 O.3     8  A8         -0.3846
    241  C1'       -3.3890    7.5550   10.9850 C.3     8  A8          0.1667
    242   N9       -3.8210    7.5020    9.5760 N.ar    8  A8         -0.2855
    243   C8       -3.2510    6.8400    8.5230 C.ar    8  A8          0.1004
    244   N7       -3.8990    6.9650    7.4000 N.ar    8  A8         -0.2306
    245   C5       -4.9820    7.7740    7.7330 C.ar    8  A8          0.1473
    246   C6       -6.0570    8.2820    6.9820 C.ar    8  A8          0.1472
    247   N6       -6.2230    8.0310    5.6850 N.pl3   8  A8         -0.3413
    248   N.1      -6.9480    9.0530    7.6260 N.ar    8  A8         -0.2188
    249   C.2      -6.7800    9.2960    8.9200 C.ar    8  A8          0.1205
    250   N.3      -5.8200    8.8780    9.7300 N.ar    8  A8         -0.2159
    251   C4       -4.9400    8.1080    9.0560 C.ar    8  A8          0.1674
    252  H5'        0.3490    6.2560   11.8080 H       8  A8          0.0591
    253 H5''       -0.3240    4.8970   12.7220 H       8  A8          0.0591
    254  H4'       -1.7340    6.8390   13.1080 H       8  A8          0.0647
    255  H3'       -2.9440    4.7260   11.2670 H       8  A8          0.0655
    256  H2'       -4.8970    6.0270   11.2390 H       8  A8          0.0666
    257 HO2'       -3.9560    6.8150   13.7320 H       8  A8          0.2101
    258  H1'       -3.6290    8.5330   11.3970 H       8  A8          0.0866
    259   H8       -2.3300    6.2620    8.6060 H       8  A8          0.1030
    260  H61       -7.0140    8.4210    5.1910 H       8  A8          0.1438
    261  H62       -5.5580    7.4510    5.1950 H       8  A8          0.1438
    262   H2       -7.5360    9.9310    9.3810 H       8  A8          0.1048
    263    P.3     -4.1400    3.4050   13.3340 P.3     9  A9          0.2131
    264  OP1       -4.0310    2.7910   14.6760 O.3     9  A9         -0.4373
    265  OP2       -3.7720    2.6220   12.1330 O.2     9  A9         -0.5172
    266  O5'       -5.6470    3.9310   13.1440 O.3     9  A9         -0.3248
    267  C5'       -6.2670    4.7060   14.1700 C.3     9  A9          0.0837
    268  C4'       -7.6120    5.2690   13.7230 C.3     9  A9          0.1139
    269  O4'       -7.4400    6.1410   12.6030 O.3     9  A9         -0.3456
    270  C3'       -8.6000    4.1790   13.1510 C.3     9  A9          0.1241
    271  O3'       -9.3620    3.5160   14.1530 O.3     9  A9         -0.3187
    272  C2'       -9.5180    5.0120   12.2890 C.3     9  A9          0.1292
    273  O2'      -10.6250    5.5130   13.0480 O.3     9  A9         -0.3846
    274  C1'       -8.6340    6.1460   11.7930 C.3     9  A9          0.1667
    275   N9       -8.3120    5.9470   10.3720 N.ar    9  A9         -0.2855
    276   C8       -7.2500    5.2850    9.8180 C.ar    9  A9          0.1004
    277   N7       -7.2700    5.2370    8.5180 N.ar    9  A9         -0.2306
    278   C5       -8.4350    5.9220    8.1820 C.ar    9  A9          0.1473
    279   C6       -9.0360    6.2240    6.9500 C.ar    9  A9          0.1472
    280   N6       -8.5180    5.8570    5.7790 N.pl3   9  A9         -0.3413
    281   N.1     -10.1850    6.9190    6.9780 N.ar    9  A9         -0.2188
    282   C.2     -10.6960    7.2800    8.1490 C.ar    9  A9          0.1205
    283   N.3     -10.2300    7.0560    9.3670 N.ar    9  A9         -0.2159
    284   C4       -9.0760    6.3580    9.3060 C.ar    9  A9          0.1674
    285  H5'       -5.6080    5.5310   14.4350 H       9  A9          0.0591
    286 H5''       -6.4200    4.0770   15.0480 H       9  A9          0.0591
    287  H4'       -8.1060    5.7910   14.5410 H       9  A9          0.0647
    288  H3'       -8.0450    3.4630   12.5420 H       9  A9          0.0655
    289  H2'       -9.8710    4.4200   11.4430 H       9  A9          0.0666
    290 HO2'      -10.7630    6.4250   12.7830 H       9  A9          0.2101
    291  H1'       -9.1550    7.0930   11.9190 H       9  A9          0.0866
    292   H8       -6.4530    4.8330   10.4090 H       9  A9          0.1030
    293  H61       -8.9900    6.0990    4.9190 H       9  A9          0.1438
    294  H62       -7.6540    5.3360    5.7510 H       9  A9          0.1438
    295   H2      -11.6280    7.8430    8.1010 H       9  A9          0.1048
    296    P.3     -9.9260    2.0410   13.8590 P.3    10  C10         0.2131
    297  OP1      -10.4950    1.5010   15.1130 O.3    10  C10        -0.4373
    298  OP2       -8.8780    1.2850   13.1350 O.2    10  C10        -0.5172
    299  O5'      -11.1340    2.3270   12.8330 O.3    10  C10        -0.3248
    300  C5'      -12.2810    3.0600   13.2640 C.3    10  C10         0.0837
    301  C4'      -13.2220    3.3890   12.1080 C.3    10  C10         0.1139
    302  O4'      -12.5300    4.1390   11.1000 O.3    10  C10        -0.3456
    303  C3'      -13.6750    2.1590   11.2810 C.3    10  C10         0.1241
    304  O3'      -14.7780    1.4880   11.8790 O.3    10  C10        -0.3187
    305  C2'      -14.0960    2.7670    9.9650 C.3    10  C10         0.1293
    306  O2'      -15.4700    3.1650    9.9940 O.3    10  C10        -0.3846
    307  C1'      -13.1820    3.9690    9.8250 C.3    10  C10         0.1680
    308   N.1     -12.1950    3.7240    8.7630 N.ar   10  C10        -0.2700
    309   C.2     -12.5550    4.0350    7.4610 C.ar   10  C10         0.3522
    310   O.2     -13.6470    4.5470    7.2290 O.2    10  C10        -0.2444
    311   N.3     -11.6680    3.7590    6.4640 N.ar   10  C10        -0.1783
    312   C4      -10.4800    3.1990    6.7370 C.ar   10  C10         0.1230
    313   N.4      -9.6350    2.9330    5.7430 N.pl3  10  C10        -0.3430
    314   C5      -10.1070    2.8840    8.0810 C.ar   10  C10        -0.0056
    315   C6      -10.9910    3.1610    9.0560 C.ar   10  C10         0.0152
    316  H5'      -11.9510    3.9890   13.7280 H      10  C10         0.0591
    317 H5''      -12.8220    2.4680   14.0000 H      10  C10         0.0591
    318  H4'      -14.0950    3.9380   12.4610 H      10  C10         0.0647
    319  H3'      -12.8330    1.4790   11.1400 H      10  C10         0.0655
    320  H2'      -13.9140    2.0620    9.1520 H      10  C10         0.0666
    321 HO2'      -15.9450    2.5960    9.3820 H      10  C10         0.2101
    322  H1'      -13.7690    4.8520    9.5860 H      10  C10         0.0867
    323  H41       -9.8880    3.1530    4.7910 H      10  C10         0.1437
    324  H42       -8.7380    2.5120    5.9440 H      10  C10         0.1437
    325   H5       -9.1430    2.4310    8.3080 H      10  C10         0.0666
    326   H6      -10.7410    2.9330   10.0920 H      10  C10         0.0812
    327    P.3    -15.0360   -0.0600   11.5350 P.3    11  A11         0.2131
    328  OP1      -15.7140   -0.6870   12.6890 O.3    11  A11        -0.4373
    329  OP2      -13.7740   -0.6330   11.0150 O.2    11  A11        -0.5172
    330  O5'      -16.0830    0.0320   10.3200 O.3    11  A11        -0.3248
    331  C5'      -17.4060    0.5360   10.5270 C.3    11  A11         0.0837
    332  C4'      -18.1580    0.6420    9.2080 C.3    11  A11         0.1139
    333  O4'      -17.4760    1.5510    8.3370 O.3    11  A11        -0.3456
    334  C3'      -18.1680   -0.6740    8.3890 C.3    11  A11         0.1241
    335  O3'      -19.2270   -1.5570    8.7610 O.3    11  A11        -0.3187
    336  C2'      -18.3970   -0.1740    6.9850 C.3    11  A11         0.1292
    337  O2'      -19.7980   -0.0340    6.7130 O.3    11  A11        -0.3846
    338  C1'      -17.6970    1.1770    6.9640 C.3    11  A11         0.1667
    339   N9      -16.4270    1.0790    6.2220 N.ar   11  A11        -0.2855
    340   C8      -15.1630    0.8480    6.6960 C.ar   11  A11         0.1004
    341   N7      -14.2500    0.7770    5.7690 N.ar   11  A11        -0.2306
    342   C5      -14.9640    0.9780    4.5890 C.ar   11  A11         0.1473
    343   C6      -14.5790    1.0220    3.2380 C.ar   11  A11         0.1472
    344   N6      -13.3210    0.8570    2.8320 N.pl3  11  A11        -0.3413
    345   N.1     -15.5430    1.2420    2.3290 N.ar   11  A11        -0.2188
    346   C.2     -16.7950    1.4050    2.7380 C.ar   11  A11         0.1205
    347   N.3     -17.2800    1.3850    3.9690 N.ar   11  A11        -0.2159
    348   C4      -16.2900    1.1630    4.8580 C.ar   11  A11         0.1674
    349  H5'      -17.3450    1.5240   10.9820 H      11  A11         0.0591
    350 H5''      -17.9480   -0.1340   11.1960 H      11  A11         0.0591
    351  H4'      -19.1830    0.9700    9.3720 H      11  A11         0.0647
    352  H3'      -17.1970   -1.1650    8.4710 H      11  A11         0.0655
    353  H2'      -17.9290   -0.8490    6.2650 H      11  A11         0.0666
    354 HO2'      -19.8870    0.5790    5.9810 H      11  A11         0.2101
    355  H1'      -18.3410    1.9120    6.4860 H      11  A11         0.0866
    356   H8      -14.9310    0.7330    7.7560 H      11  A11         0.1030
    357  H61      -13.0980    0.8990    1.8470 H      11  A11         0.1438
    358  H62      -12.5900    0.6920    3.5080 H      11  A11         0.1438
    359   H2      -17.5270    1.5830    1.9500 H      11  A11         0.1048
    360    P.3    -19.1150   -3.1260    8.4130 P.3    12  A12         0.2131
    361  OP1      -20.2330   -3.8320    9.0760 O.3    12  A12        -0.4373
    362  OP2      -17.7200   -3.5520    8.6640 O.2    12  A12        -0.5172
    363  O5'      -19.3690   -3.1570    6.8220 O.3    12  A12        -0.3248
    364  C5'      -20.6260   -2.7410    6.2700 C.3    12  A12         0.0837
    365  C4'      -20.5700   -2.6990    4.7460 C.3    12  A12         0.1139
    366  O4'      -19.5310   -1.8040    4.3340 O.3    12  A12        -0.3456
    367  C3'      -20.1250   -4.0400    4.0710 C.3    12  A12         0.1241
    368  O3'      -21.2030   -4.9510    3.8580 O.3    12  A12        -0.3187
    369  C2'      -19.5960   -3.5660    2.7390 C.3    12  A12         0.1292
    370  O2'      -20.6460   -3.4840    1.7670 O.3    12  A12        -0.3846
    371  C1'      -19.0210   -2.1940    3.0460 C.3    12  A12         0.1667
    372   N9      -17.5490   -2.2550    3.0480 N.ar   12  A12        -0.2855
    373   C8      -16.6910   -2.4560    4.0980 C.ar   12  A12         0.1004
    374   N7      -15.4350   -2.5110    3.7570 N.ar   12  A12        -0.2306
    375   C5      -15.4610   -2.3320    2.3760 C.ar   12  A12         0.1473
    376   C6      -14.4490   -2.2850    1.4020 C.ar   12  A12         0.1472
    377   N6      -13.1560   -2.4270    1.6860 N.pl3  12  A12        -0.3413
    378   N.1     -14.8290   -2.0910    0.1270 N.ar   12  A12        -0.2188
    379   C.2     -16.1200   -1.9520   -0.1510 C.ar   12  A12         0.1205
    380   N.3     -17.1570   -1.9770    0.6690 N.ar   12  A12        -0.2159
    381   C4      -16.7450   -2.1730    1.9390 C.ar   12  A12         0.1674
    382  H5'      -20.8710   -1.7480    6.6450 H      12  A12         0.0591
    383 H5''      -21.4020   -3.4420    6.5790 H      12  A12         0.0591
    384  H4'      -21.5280   -2.3890    4.3300 H      12  A12         0.0647
    385  H3'      -19.3290   -4.5020    4.6570 H      12  A12         0.0655
    386  H2'      -18.8040   -4.2320    2.3920 H      12  A12         0.0666
    387 HO2'      -21.4790   -3.5710    2.2370 H      12  A12         0.2101
    388  H1'      -19.3540   -1.4840    2.2920 H      12  A12         0.0866
    389   H8      -17.0230   -2.5630    5.1320 H      12  A12         0.1030
    390  H61      -12.4680   -2.3870    0.9460 H      12  A12         0.1438
    391  H62      -12.8620   -2.5750    2.6400 H      12  A12         0.1438
    392   H2      -16.3590   -1.7950   -1.2030 H      12  A12         0.1048
    393    P.3    -20.8970   -6.5230    3.6680 P.3    13  G13         0.2131
    394  OP1      -22.1850   -7.2500    3.6940 O.2    13  G13        -0.5172
    395  OP2      -19.8210   -6.8960    4.6140 O.3    13  G13        -0.4373
    396  O5'      -20.3010   -6.5990    2.1690 O.3    13  G13        -0.3248
    397  C5'      -21.1310   -6.2810    1.0480 C.3    13  G13         0.0837
    398  C4'      -20.3490   -6.2250   -0.2670 C.3    13  G13         0.1139
    399  O4'      -19.3190   -5.2270   -0.1940 O.3    13  G13        -0.3456
    400  C3'      -19.5370   -7.4950   -0.5500 C.3    13  G13         0.1241
    401  O3'      -20.3160   -8.5220   -1.1630 O.3    13  G13        -0.3187
    402  C2'      -18.4910   -7.0090   -1.5230 C.3    13  G13         0.1292
    403  O2'      -18.9830   -7.0350   -2.8700 O.3    13  G13        -0.3846
    404  C1'      -18.2200   -5.5900   -1.0580 C.3    13  G13         0.1667
    405   N9      -16.9420   -5.5490   -0.3290 N.ar   13  G13        -0.2854
    406   C8      -16.7260   -5.6890    1.0160 C.ar   13  G13         0.1005
    407   N7      -15.4740   -5.6730    1.3640 N.ar   13  G13        -0.2286
    408   C5      -14.7960   -5.5060    0.1600 C.ar   13  G13         0.1721
    409   C6      -13.4010   -5.4140   -0.0940 C.ar   13  G13         0.2803
    410   O6      -12.4790   -5.4650    0.7180 O.2    13  G13        -0.2654
    411   N.1     -13.1390   -5.2490   -1.4440 N.ar   13  G13        -0.2934
    412   C.2     -14.0950   -5.1800   -2.4300 C.ar   13  G13         0.1950
    413   N.2     -13.6360   -5.0160   -3.6720 N.pl3  13  G13        -0.3289
    414   N.3     -15.4110   -5.2650   -2.2050 N.ar   13  G13        -0.1963
    415   C4      -15.6880   -5.4280   -0.8870 C.ar   13  G13         0.1712
    416  H5'      -21.5990   -5.3130    1.2230 H      13  G13         0.0591
    417 H5''      -21.9070   -7.0390    0.9610 H      13  G13         0.0591
    418  H4'      -21.0160   -6.0210   -1.1050 H      13  G13         0.0647
    419  H3'      -19.0710   -7.8480    0.3690 H      13  G13         0.0655
    420  H2'      -17.5830   -7.6120   -1.4300 H      13  G13         0.0666
    421 HO2'      -19.2690   -6.1440   -3.0880 H      13  G13         0.2101
    422  H1'      -18.1810   -4.9180   -1.9140 H      13  G13         0.0866
    423   H8      -17.5310   -5.8050    1.7400 H      13  G13         0.1030
    424   H1      -12.1680   -5.1750   -1.7110 H      13  G13         0.1716
    425  H21      -12.6410   -4.9520   -3.8370 H      13  G13         0.1451
    426  H22      -14.2810   -4.9560   -4.4470 H      13  G13         0.1451
    427    P.3    -19.8490  -10.0600   -1.0330 P.3    14  G14         0.2131
    428  OP1      -20.9100  -10.9160   -1.6060 O.2    14  G14        -0.5172
    429  OP2      -19.3830  -10.2880    0.3530 O.3    14  G14        -0.4373
    430  O5'      -18.5690  -10.1260   -2.0090 O.3    14  G14        -0.3248
    431  C5'      -18.7350   -9.9330   -3.4140 C.3    14  G14         0.0837
    432  C4'      -17.4010   -9.8890   -4.1590 C.3    14  G14         0.1139
    433  O4'      -16.5890   -8.8050   -3.6840 O.3    14  G14        -0.3456
    434  C3'      -16.5280  -11.1170   -3.8590 C.3    14  G14         0.1241
    435  O3'      -16.8620  -12.2370   -4.6800 O.3    14  G14        -0.3187
    436  C2'      -15.1420  -10.6230   -4.1940 C.3    14  G14         0.1292
    437  O2'      -14.8540  -10.7820   -5.5890 O.3    14  G14        -0.3846
    438  C1'      -15.1910   -9.1540   -3.8040 C.3    14  G14         0.1667
    439   N9      -14.4810   -8.9610   -2.5270 N.ar   14  G14        -0.2854
    440   C8      -14.9880   -8.9920   -1.2550 C.ar   14  G14         0.1005
    441   N7      -14.0950   -8.8700   -0.3180 N.ar   14  G14        -0.2286
    442   C5      -12.8970   -8.7420   -1.0140 C.ar   14  G14         0.1721
    443   C6      -11.5720   -8.5770   -0.5260 C.ar   14  G14         0.2803
    444   O6      -11.1990   -8.5190    0.6440 O.2    14  G14        -0.2654
    445   N.1     -10.6560   -8.4860   -1.5600 N.ar   14  G14        -0.2934
    446   C.2     -10.9680   -8.5450   -2.8980 C.ar   14  G14         0.1950
    447   N.2      -9.9380   -8.4300   -3.7390 N.pl3  14  G14        -0.3289
    448   N.3     -12.2090   -8.7030   -3.3710 N.ar   14  G14        -0.1963
    449   C4      -13.1220   -8.7940   -2.3720 C.ar   14  G14         0.1712
    450  H5'      -19.2650   -8.9960   -3.5770 H      14  G14         0.0591
    451 H5''      -19.3300  -10.7510   -3.8110 H      14  G14         0.0591
    452  H4'      -17.5620   -9.8000   -5.2330 H      14  G14         0.0647
    453  H3'      -16.5980  -11.3700   -2.8000 H      14  G14         0.0655
    454  H2'      -14.4030  -11.1460   -3.5830 H      14  G14         0.0666
    455 HO2'      -15.6380  -11.1500   -6.0040 H      14  G14         0.2101
    456  H1'      -14.7250   -8.5500   -4.5800 H      14  G14         0.0866
    457   H8      -16.0480   -9.1040   -1.0380 H      14  G14         0.1030
    458   H1       -9.6880   -8.3670   -1.2980 H      14  G14         0.1716
    459  H21       -9.0020   -8.3110   -3.3760 H      14  G14         0.1451
    460  H22      -10.0920   -8.4640   -4.7370 H      14  G14         0.1451
    461    P.3    -16.5430  -13.7340   -4.1630 P.3    15  C15         0.2131
    462  OP1      -17.1640  -14.6930   -5.1040 O.2    15  C15        -0.5172
    463  OP2      -16.8700  -13.8020   -2.7210 O.3    15  C15        -0.4373
    464  O5'      -14.9420  -13.8360   -4.3230 O.3    15  C15        -0.3248
    465  C5'      -14.3590  -13.8190   -5.6260 C.3    15  C15         0.0837
    466  C4'      -12.8310  -13.7900   -5.5910 C.3    15  C15         0.1139
    467  O4'      -12.3550  -12.6020   -4.9460 O.3    15  C15        -0.3456
    468  C3'      -12.2620  -14.9200   -4.7110 C.3    15  C15         0.1241
    469  O3'      -12.1500  -16.1650   -5.4000 O.3    15  C15        -0.3187
    470  C2'      -10.8900  -14.3920   -4.3780 C.3    15  C15         0.1293
    471  O2'       -9.9470  -14.7080   -5.4060 O.3    15  C15        -0.3846
    472  C1'      -11.1040  -12.8880   -4.2810 C.3    15  C15         0.1680
    473   N.1     -11.1380  -12.4900   -2.8660 N.ar   15  C15        -0.2700
    474   C.2      -9.9250  -12.2290   -2.2520 C.ar   15  C15         0.3522
    475   O.2      -8.8870  -12.2480   -2.9080 O.2    15  C15        -0.2444
    476   N.3      -9.9230  -11.9520   -0.9200 N.ar   15  C15        -0.1783
    477   C4      -11.0660  -11.9270   -0.2230 C.ar   15  C15         0.1230
    478   N.4     -11.0330  -11.6660    1.0820 N.pl3  15  C15        -0.3430
    479   C5      -12.3200  -12.1860   -0.8580 C.ar   15  C15        -0.0056
    480   C6      -12.3100  -12.4590   -2.1750 C.ar   15  C15         0.0152
    481  H5'      -14.7190  -12.9400   -6.1600 H      15  C15         0.0591
    482 H5''      -14.6770  -14.7110   -6.1600 H      15  C15         0.0591
    483  H4'      -12.4210  -13.8640   -6.5980 H      15  C15         0.0647
    484  H3'      -12.8640  -15.0210   -3.8070 H      15  C15         0.0655
    485  H2'      -10.5610  -14.7870   -3.4160 H      15  C15         0.0666
    486 HO2'       -9.1600  -15.0520   -4.9740 H      15  C15         0.2101
    487  H1'      -10.2930  -12.3690   -4.7870 H      15  C15         0.0867
    488  H41      -10.1510  -11.4850    1.5390 H      15  C15         0.1437
    489  H42      -11.8920  -11.6480    1.6140 H      15  C15         0.1437
    490   H5      -13.2530  -12.1610   -0.2960 H      15  C15         0.0666
    491   H6      -13.2480  -12.6560   -2.6940 H      15  C15         0.0812
    492    P.3    -12.2350  -17.5420   -4.5630 P.3    16  U16         0.2131
    493  OP1      -12.2460  -18.6710   -5.5210 O.2    16  U16        -0.5172
    494  OP2      -13.3250  -17.4100   -3.5690 O.3    16  U16        -0.4373
    495  O5'      -10.8310  -17.5680   -3.7670 O.3    16  U16        -0.3248
    496  C5'       -9.6020  -17.7140   -4.4840 C.3    16  U16         0.0837
    497  C4'       -8.3740  -17.5470   -3.5840 C.3    16  U16         0.1139
    498  O4'       -8.3490  -16.2340   -3.0040 O.3    16  U16        -0.3456
    499  C3'       -8.4270  -18.4500   -2.3480 C.3    16  U16         0.1241
    500  O3'       -7.9170  -19.7510   -2.6260 O.3    16  U16        -0.3187
    501  C2'       -7.5210  -17.7450   -1.3670 C.3    16  U16         0.1293
    502  O2'       -6.1600  -18.1540   -1.5290 O.3    16  U16        -0.3846
    503  C1'       -7.6950  -16.2780   -1.7160 C.3    16  U16         0.1680
    504   N.1      -8.5120  -15.6230   -0.6840 N.ar   16  U16        -0.2715
    505   C.2      -7.8610  -15.1450    0.4380 C.ar   16  U16         0.3314
    506   O.2      -6.6370  -15.1800    0.5500 O.2    16  U16        -0.2464
    507   N.3      -8.6690  -14.6160    1.4270 N.ar   16  U16        -0.2749
    508   C4      -10.0490  -14.5270    1.3910 C.ar   16  U16         0.2539
    509   O4      -10.6690  -14.0540    2.3390 O.2    16  U16        -0.2677
    510   C5      -10.6410  -15.0440    0.1770 C.ar   16  U16         0.0192
    511   C6       -9.8700  -15.5670   -0.8040 C.ar   16  U16         0.0171
    512  H5'       -9.5670  -16.9640   -5.2740 H      16  U16         0.0591
    513 H5''       -9.5740  -18.7040   -4.9350 H      16  U16         0.0591
    514  H4'       -7.4570  -17.7330   -4.1440 H      16  U16         0.0647
    515  H3'       -9.4460  -18.5010   -1.9630 H      16  U16         0.0655
    516  H2'       -7.8610  -17.9270   -0.3450 H      16  U16         0.0666
    517 HO2'       -5.6150  -17.3660   -1.4490 H      16  U16         0.2101
    518  H1'       -6.7210  -15.7950   -1.7780 H      16  U16         0.0867
    519   H3       -8.2090  -14.2690    2.2570 H      16  U16         0.1734
    520   H5      -11.7220  -15.0190    0.0530 H      16  U16         0.0686
    521   H6      -10.3420  -15.9480   -1.7090 H      16  U16         0.0813
    522    P.3     -8.4150  -20.9990   -1.7390 P.3    17  U17         0.2131
    523  OP1       -8.4450  -22.2010   -2.6010 O.2    17  U17        -0.5172
    524  OP2       -9.6330  -20.5860   -1.0060 O.3    17  U17        -0.4373
    525  O5'       -7.2240  -21.1640   -0.6710 O.3    17  U17        -0.3248
    526  C5'       -6.8350  -22.4590   -0.2090 C.3    17  U17         0.0837
    527  C4'       -5.4150  -22.4410    0.3510 C.3    17  U17         0.1139
    528  O4'       -4.5030  -22.0940   -0.6950 O.3    17  U17        -0.3456
    529  C3'       -5.3310  -21.3600    1.4070 C.3    17  U17         0.1241
    530  O3'       -4.3620  -21.7580    2.3860 O.3    17  U17        -0.3187
    531  C2'       -4.8140  -20.1520    0.6560 C.3    17  U17         0.1293
    532  O2'       -3.9810  -19.3350    1.4840 O.3    17  U17        -0.3846
    533  C1'       -4.0270  -20.7470   -0.5090 C.3    17  U17         0.1680
    534   N.1      -4.2040  -19.9520   -1.7410 N.ar   17  U17        -0.2715
    535   C.2      -3.4030  -18.8350   -1.8990 C.ar   17  U17         0.3314
    536   O.2      -2.5970  -18.4810   -1.0410 O.2    17  U17        -0.2464
    537   N.3      -3.5660  -18.1320   -3.0790 N.ar   17  U17        -0.2749
    538   C4       -4.4430  -18.4440   -4.1010 C.ar   17  U17         0.2539
    539   O4       -4.5010  -17.7450   -5.1110 O.2    17  U17        -0.2677
    540   C5       -5.2420  -19.6220   -3.8510 C.ar   17  U17         0.0192
    541   C6       -5.1010  -20.3280   -2.7020 C.ar   17  U17         0.0171
    542  H5'       -6.8810  -23.1610   -1.0410 H      17  U17         0.0591
    543 H5''       -7.5240  -22.7830    0.5720 H      17  U17         0.0591
    544  H4'       -5.1520  -23.3990    0.7990 H      17  U17         0.0647
    545  H3'       -6.3030  -21.1610    1.8600 H      17  U17         0.0655
    546  H2'       -5.6560  -19.5720    0.2720 H      17  U17         0.0666
    547 HO2'       -4.3320  -18.4400    1.4470 H      17  U17         0.2101
    548  H1'       -2.9690  -20.7730   -0.2480 H      17  U17         0.0867
    549   H3       -2.9860  -17.3130   -3.2090 H      17  U17         0.1734
    550   H5       -5.9640  -19.9500   -4.5980 H      17  U17         0.0686
    551   H6       -5.7230  -21.2080   -2.5370 H      17  U17         0.0813
    552    P.3     -4.6490  -21.5840    3.9590 P.3    18  C18         0.2131
    553  OP1       -3.5240  -22.1990    4.6980 O.3    18  C18        -0.4373
    554  OP2       -6.0360  -22.0180    4.2340 O.2    18  C18        -0.5172
    555  O5'       -4.5710  -19.9880    4.1460 O.3    18  C18        -0.3248
    556  C5'       -3.3620  -19.2780    3.8710 C.3    18  C18         0.0837
    557  C4'       -3.5720  -17.7680    3.9250 C.3    18  C18         0.1139
    558  O4'       -4.6520  -17.4020    3.0520 O.3    18  C18        -0.3456
    559  C3'       -3.9500  -17.3850    5.2910 C.3    18  C18         0.1241
    560  O3'       -3.3330  -16.1150    5.5340 O.3    18  C18        -0.3187
    561  C2'       -5.4500  -17.2080    5.2620 C.3    18  C18         0.1293
    562  O2'       -5.8800  -16.1910    6.1710 O.3    18  C18        -0.3846
    563  C1'       -5.7120  -16.8150    3.8190 C.3    18  C18         0.1680
    564   N.1      -7.0330  -17.2630    3.3450 N.ar   18  C18        -0.2700
    565   C.2      -8.1170  -16.4530    3.6380 C.ar   18  C18         0.3522
    566   O.2      -7.9650  -15.4490    4.3280 O.2    18  C18        -0.2444
    567   N.3      -9.3360  -16.8010    3.1430 N.ar   18  C18        -0.1783
    568   C4       -9.4840  -17.9010    2.3930 C.ar   18  C18         0.1230
    569   N.4     -10.6870  -18.2070    1.9090 N.pl3  18  C18        -0.3430
    570   C5       -8.3700  -18.7450    2.0970 C.ar   18  C18        -0.0056
    571   C6       -7.1680  -18.3920    2.5920 C.ar   18  C18         0.0152
    572  H5'       -3.0020  -19.5530    2.8790 H      18  C18         0.0591
    573 H5''       -2.6140  -19.5560    4.6100 H      18  C18         0.0591
    574  H4'       -2.6610  -17.2350    3.6570 H      18  C18         0.0647
    575  H3'       -3.6500  -18.1280    6.0290 H      18  C18         0.0655
    576  H2'       -5.9380  -18.1610    5.4860 H      18  C18         0.0666
    577 HO2'       -6.8250  -16.0800    6.0490 H      18  C18         0.2101
    578  H1'       -5.6530  -15.7300    3.7340 H      18  C18         0.0867
    579  H41      -11.4800  -17.6150    2.1130 H      18  C18         0.1437
    580  H42      -10.8060  -19.0340    1.3400 H      18  C18         0.1437
    581   H5       -8.4880  -19.6420    1.4900 H      18  C18         0.0666
    582   H6       -6.2950  -19.0120    2.3850 H      18  C18         0.0812
    583    P.3     -3.0440  -15.5930    7.0280 P.3    19  G19         0.2131
    584  OP1       -2.7240  -16.7610    7.8780 O.3    19  G19        -0.4373
    585  OP2       -4.1420  -14.6770    7.4150 O.2    19  G19        -0.5172
    586  O5'       -1.7030  -14.7260    6.8330 O.3    19  G19        -0.3248
    587  C5'       -0.4550  -15.3890    6.6260 C.3    19  G19         0.0837
    588  C4'        0.4970  -14.5700    5.7600 C.3    19  G19         0.1139
    589  O4'        0.7030  -15.2220    4.5110 O.3    19  G19        -0.3456
    590  C3'       -0.1160  -13.2190    5.4200 C.3    19  G19         0.1241
    591  O3'        0.2840  -12.2190    6.3630 O.3    19  G19        -0.3187
    592  C2'        0.4780  -12.8980    4.0540 C.3    19  G19         0.1292
    593  O2'        1.5530  -11.9550    4.1680 O.3    19  G19        -0.3846
    594  C1'        0.9830  -14.2370    3.5170 C.3    19  G19         0.1667
    595   N9        0.3590  -14.5760    2.2230 N.ar   19  G19        -0.2854
    596   C8        0.9780  -14.9770    1.0730 C.ar   19  G19         0.1005
    597   N7        0.1740  -15.2060    0.0790 N.ar   19  G19        -0.2286
    598   C5       -1.0860  -14.9410    0.6030 C.ar   19  G19         0.1721
    599   C6       -2.3620  -15.0190   -0.0160 C.ar   19  G19         0.2803
    600   O6       -2.6210  -15.3370   -1.1750 O.2    19  G19        -0.2654
    601   N.1      -3.3760  -14.6710    0.8610 N.ar   19  G19        -0.2934
    602   C.2      -3.1910  -14.2950    2.1730 C.ar   19  G19         0.1950
    603   N.2      -4.3020  -14.0040    2.8570 N.pl3  19  G19        -0.3289
    604   N.3      -1.9950  -14.2150    2.7670 N.ar   19  G19        -0.1963
    605   C4       -0.9880  -14.5530    1.9230 C.ar   19  G19         0.1712
    606  H5'       -0.6370  -16.3490    6.1440 H      19  G19         0.0591
    607 H5''        0.0160  -15.5650    7.5930 H      19  G19         0.0591
    608  H4'        1.4480  -14.4210    6.2720 H      19  G19         0.0647
    609  H3'       -1.2010  -13.2880    5.3600 H      19  G19         0.0655
    610  H2'       -0.3000  -12.5080    3.3960 H      19  G19         0.0666
    611 HO2'        1.3440  -11.2130    3.5940 H      19  G19         0.2101
    612  H1'        2.0610  -14.1770    3.3820 H      19  G19         0.0866
    613   H8        2.0560  -15.1080    0.9920 H      19  G19         0.1030
    614   H1       -4.3170  -14.7020    0.4990 H      19  G19         0.1716
    615  H21       -5.2040  -14.0660    2.4050 H      19  G19         0.1451
    616  H22       -4.2410  -13.7210    3.8250 H      19  G19         0.1451
    617    P.3     -0.3460  -10.7360    6.2910 P.3    20  G20         0.2131
    618  OP1        0.2230   -9.9300    7.3950 O.3    20  G20        -0.4373
    619  OP2       -1.8130  -10.8630    6.1520 O.2    20  G20        -0.5172
    620  O5'        0.2370  -10.1720    4.9030 O.3    20  G20        -0.3248
    621  C5'       -0.5330   -9.2630    4.1120 C.3    20  G20         0.0837
    622  C4'       -0.6120   -9.7200    2.6640 C.3    20  G20         0.1139
    623  O4'       -1.4630  -10.8670    2.5640 O.3    20  G20        -0.3456
    624  C3'       -1.2850   -8.6340    1.8090 C.3    20  G20         0.1241
    625  O3'       -0.3290   -7.7550    1.2270 O.3    20  G20        -0.3187
    626  C2'       -1.9640   -9.4440    0.7300 C.3    20  G20         0.1292
    627  O2'       -1.0800   -9.6840   -0.3750 O.3    20  G20        -0.3846
    628  C1'       -2.3390  -10.7410    1.4290 C.3    20  G20         0.1667
    629   N9       -3.7500  -10.6990    1.8570 N.ar   20  G20        -0.2854
    630   C8       -4.2670  -10.2840    3.0540 C.ar   20  G20         0.1005
    631   N7       -5.5650  -10.3410    3.1290 N.ar   20  G20        -0.2286
    632   C5       -5.9470  -10.8360    1.8860 C.ar   20  G20         0.1721
    633   C6       -7.2450  -11.1150    1.3740 C.ar   20  G20         0.2803
    634   O6       -8.3280  -10.9740    1.9380 O.2    20  G20        -0.2654
    635   N.1      -7.1870  -11.6000    0.0770 N.ar   20  G20        -0.2934
    636   C.2      -6.0300  -11.7950   -0.6410 C.ar   20  G20         0.1950
    637   N.2      -6.1850  -12.2720   -1.8760 N.pl3  20  G20        -0.3289
    638   N.3      -4.8050  -11.5350   -0.1720 N.ar   20  G20        -0.1963
    639   C4       -4.8400  -11.0590    1.0970 C.ar   20  G20         0.1712
    640  H5'       -0.0690   -8.2780    4.1470 H      20  G20         0.0591
    641 H5''       -1.5430   -9.1960    4.5210 H      20  G20         0.0591
    642  H4'        0.3810   -9.9410    2.2750 H      20  G20         0.0647
    643  H3'       -2.0210   -8.0780    2.3910 H      20  G20         0.0655
    644  H2'       -2.8650   -8.9300    0.3920 H      20  G20         0.0666
    645 HO2'       -1.4740  -10.3750   -0.9140 H      20  G20         0.2101
    646  H1'       -2.1870  -11.5790    0.7520 H      20  G20         0.0866
    647   H8       -3.6510   -9.9360    3.8820 H      20  G20         0.1030
    648   H1       -8.0680  -11.8220   -0.3620 H      20  G20         0.1716
    649  H21       -7.1120  -12.4670   -2.2280 H      20  G20         0.1451
    650  H22       -5.3770  -12.4380   -2.4590 H      20  G20         0.1451
    651    P.3     -0.7380   -6.2320    0.9160 P.3    21  C21         0.2131
    652  OP1        0.4800   -5.5040    0.4970 O.2    21  C21        -0.5172
    653  OP2       -1.5470   -5.7310    2.0490 O.3    21  C21        -0.4373
    654  O5'       -1.7030   -6.3830   -0.3620 O.3    21  C21        -0.3248
    655  C5'       -1.1740   -6.8330   -1.6090 C.3    21  C21         0.0837
    656  C4'       -2.2670   -7.0400   -2.6520 C.3    21  C21         0.1139
    657  O4'       -3.1950   -8.0390   -2.2030 O.3    21  C21        -0.3456
    658  C3'       -3.1510   -5.8120   -2.7860 C.3    21  C21         0.1241
    659  O3'       -2.6070   -4.8690   -3.7100 O.3    21  C21        -0.3187
    660  C2'       -4.4540   -6.3620   -3.3150 C.3    21  C21         0.1293
    661  O2'       -4.4620   -6.4020   -4.7480 O.3    21  C21        -0.3846
    662  C1'       -4.5110   -7.7590   -2.7230 C.3    21  C21         0.1680
    663   N.1      -5.5240   -7.7980   -1.6540 N.ar   21  C21        -0.2700
    664   C.2      -6.8350   -8.0530   -2.0220 C.ar   21  C21         0.3522
    665   O.2      -7.1060   -8.3100   -3.1920 O.2    21  C21        -0.2444
    666   N.3      -7.7960   -8.0150   -1.0570 N.ar   21  C21        -0.1783
    667   C4       -7.4810   -7.7390    0.2160 C.ar   21  C21         0.1230
    668   N.4      -8.4430   -7.6990    1.1380 N.pl3  21  C21        -0.3430
    669   C5       -6.1290   -7.4830    0.5990 C.ar   21  C21        -0.0056
    670   C6       -5.1870   -7.5220   -0.3630 C.ar   21  C21         0.0152
    671  H5'       -0.6480   -7.7740   -1.4490 H      21  C21         0.0591
    672 H5''       -0.4700   -6.0920   -1.9810 H      21  C21         0.0591
    673  H4'       -1.8380   -7.3200   -3.6150 H      21  C21         0.0647
    674  H3'       -3.3000   -5.3570   -1.8060 H      21  C21         0.0655
    675  H2'       -5.2890   -5.7650   -2.9400 H      21  C21         0.0666
    676 HO2'       -4.9420   -7.1900   -5.0100 H      21  C21         0.2101
    677  H1'       -4.7670   -8.4790   -3.4970 H      21  C21         0.0867
    678  H41       -9.4020   -7.8770    0.8780 H      21  C21         0.1437
    679  H42       -8.2100   -7.4920    2.1000 H      21  C21         0.1437
    680   H5       -5.8680   -7.2610    1.6340 H      21  C21         0.0666
    681   H6       -4.1450   -7.3340   -0.1050 H      21  C21         0.0812
    682    P.3     -2.9570   -3.3040   -3.5460 P.3    22  C22         0.2131
    683  OP1       -2.1210   -2.5380   -4.4980 O.2    22  C22        -0.5172
    684  OP2       -2.9230   -2.9710   -2.1040 O.3    22  C22        -0.4373
    685  O5'       -4.4900   -3.2340   -4.0450 O.3    22  C22        -0.3248
    686  C5'       -4.8070   -3.4960   -5.4130 C.3    22  C22         0.0837
    687  C4'       -6.3120   -3.5300   -5.6730 C.3    22  C22         0.1139
    688  O4'       -6.9380   -4.5730   -4.9220 O.3    22  C22        -0.3456
    689  C3'       -6.9980   -2.2480   -5.1560 C.3    22  C22         0.1241
    690  O3'       -6.9910   -1.2280   -6.1550 O.3    22  C22        -0.3187
    691  C2'       -8.4170   -2.6970   -4.8920 C.3    22  C22         0.1293
    692  O2'       -9.2510   -2.4650   -6.0340 O.3    22  C22        -0.3846
    693  C1'       -8.2900   -4.1890   -4.5980 C.3    22  C22         0.1680
    694   N.1      -8.5940   -4.4540   -3.1830 N.ar   22  C22        -0.2700
    695   C.2      -9.9150   -4.7090   -2.8530 C.ar   22  C22         0.3522
    696   O.2     -10.7720   -4.7470   -3.7320 O.2    22  C22        -0.2444
    697   N.3     -10.2250   -4.9120   -1.5430 N.ar   22  C22        -0.1783
    698   C4       -9.2760   -4.8700   -0.5980 C.ar   22  C22         0.1230
    699   N.4      -9.6080   -5.0670    0.6770 N.pl3  22  C22        -0.3430
    700   C5       -7.9110   -4.6120   -0.9380 C.ar   22  C22        -0.0056
    701   C6       -7.6160   -4.4130   -2.2350 C.ar   22  C22         0.0152
    702  H5'       -4.3750   -4.4550   -5.6960 H      22  C22         0.0591
    703 H5''       -4.3670   -2.7150   -6.0270 H      22  C22         0.0591
    704  H4'       -6.5160   -3.6550   -6.7360 H      22  C22         0.0647
    705  H3'       -6.5280   -1.9000   -4.2350 H      22  C22         0.0655
    706  H2'       -8.8130   -2.1770   -4.0170 H      22  C22         0.0666
    707 HO2'      -10.0370   -3.0060   -5.9280 H      22  C22         0.2101
    708  H1'       -8.9840   -4.7420   -5.2260 H      22  C22         0.0867
    709  H41      -10.5700   -5.2480    0.9260 H      22  C22         0.1437
    710  H42       -8.8970   -5.0360    1.3940 H      22  C22         0.1437
    711   H5       -7.1360   -4.5810   -0.1730 H      22  C22         0.0666
    712   H6       -6.5860   -4.2150   -2.5310 H      22  C22         0.0812
    713    P.3     -6.9500    0.3210   -5.7090 P.3    23  U23         0.2131
    714  OP1       -6.8560    1.1570   -6.9260 O.2    23  U23        -0.5172
    715  OP2       -5.9430    0.4650   -4.6330 O.3    23  U23        -0.4373
    716  O5'       -8.4090    0.5350   -5.0630 O.3    23  U23        -0.3248
    717  C5'       -9.5750    0.3960   -5.8730 C.3    23  U23         0.0837
    718  C4'      -10.8610    0.6010   -5.0770 C.3    23  U23         0.1139
    719  O4'      -10.9290   -0.3360   -3.9910 O.3    23  U23        -0.3456
    720  C3'      -10.8540    1.9670   -4.3710 C.3    23  U23         0.1241
    721  O3'      -11.3570    3.0140   -5.1970 O.3    23  U23        -0.3187
    722  C2'      -11.7980    1.7320   -3.2170 C.3    23  U23         0.1293
    723  O2'      -13.1570    1.9350   -3.6100 O.3    23  U23        -0.3846
    724  C1'      -11.5510    0.2820   -2.8450 C.3    23  U23         0.1680
    725   N.1     -10.6730    0.2150   -1.6670 N.ar   23  U23        -0.2715
    726   C.2     -11.2460    0.4190   -0.4260 C.ar   23  U23         0.3314
    727   O.2     -12.4560    0.5900   -0.2830 O.2    23  U23        -0.2464
    728   N.3     -10.3790    0.4190    0.6490 N.ar   23  U23        -0.2749
    729   C4       -9.0080    0.2360    0.5920 C.ar   23  U23         0.2539
    730   O4       -8.3290    0.2710    1.6140 O.2    23  U23        -0.2677
    731   C5       -8.4990    0.0240   -0.7450 C.ar   23  U23         0.0192
    732   C6       -9.3300    0.0210   -1.8130 C.ar   23  U23         0.0171
    733  H5'       -9.5830   -0.6020   -6.3090 H      23  U23         0.0591
    734 H5''       -9.5380    1.1330   -6.6730 H      23  U23         0.0591
    735  H4'      -11.7360    0.5060   -5.7210 H      23  U23         0.0647
    736  H3'       -9.8530    2.2030   -4.0060 H      23  U23         0.0655
    737  H2'      -11.5360    2.3820   -2.3800 H      23  U23         0.0666
    738 HO2'      -13.7090    1.6670   -2.8700 H      23  U23         0.2101
    739  H1'      -12.4990   -0.2090   -2.6280 H      23  U23         0.0867
    740   H3      -10.7810    0.5740    1.5630 H      23  U23         0.1734
    741   H5       -7.4310   -0.1250   -0.8960 H      23  U23         0.0686
    742   H6       -8.9190   -0.1400   -2.8100 H      23  U23         0.0813
    743    P.3    -10.8870    4.5270   -4.9160 P.3    24  G24         0.2131
    744  OP1      -11.0490    5.3090   -6.1600 O.2    24  G24        -0.5172
    745  OP2       -9.5730    4.4850   -4.2330 O.3    24  G24        -0.4373
    746  O5'      -11.9860    5.0290   -3.8540 O.3    24  G24        -0.3248
    747  C5'      -13.3640    5.1470   -4.2230 C.3    24  G24         0.0837
    748  C4'      -14.2340    5.3740   -2.9950 C.3    24  G24         0.1139
    749  O4'      -14.0840    4.2830   -2.0790 O.3    24  G24        -0.3456
    750  C3'      -13.8070    6.6210   -2.1550 C.3    24  G24         0.1241
    751  O3'      -14.3750    7.8430   -2.6190 O.3    24  G24        -0.3187
    752  C2'      -14.3830    6.2670   -0.8040 C.3    24  G24         0.1292
    753  O2'      -15.7680    6.6210   -0.7200 O.3    24  G24        -0.3846
    754  C1'      -14.1970    4.7610   -0.7240 C.3    24  G24         0.1667
    755   N9      -12.9860    4.4590    0.0530 N.ar   24  G24        -0.2854
    756   C8      -11.7010    4.2960   -0.3840 C.ar   24  G24         0.1005
    757   N7      -10.8310    4.1150    0.5670 N.ar   24  G24        -0.2286
    758   C5      -11.5980    4.1560    1.7290 C.ar   24  G24         0.1721
    759   C6      -11.2080    4.0200    3.0890 C.ar   24  G24         0.2803
    760   O6      -10.0790    3.8410    3.5380 O.2    24  G24        -0.2654
    761   N.1     -12.2970    4.1230    3.9440 N.ar   24  G24        -0.2934
    762   C.2     -13.5980    4.3300    3.5410 C.ar   24  G24         0.1950
    763   N.2     -14.5100    4.3960    4.5120 N.pl3  24  G24        -0.3289
    764   N.3     -13.9710    4.4620    2.2680 N.ar   24  G24        -0.1963
    765   C4      -12.9220    4.3640    1.4200 C.ar   24  G24         0.1712
    766  H5'      -13.6820    4.2310   -4.7190 H      24  G24         0.0591
    767 H5''      -13.4840    5.9870   -4.9090 H      24  G24         0.0591
    768  H4'      -15.2790    5.4900   -3.2790 H      24  G24         0.0647
    769  H3'      -12.7200    6.6870   -2.1040 H      24  G24         0.0655
    770  H2'      -13.8110    6.7560   -0.0130 H      24  G24         0.0666
    771 HO2'      -16.0940    6.7060   -1.6180 H      24  G24         0.2101
    772  H1'      -15.0620    4.3080   -0.2430 H      24  G24         0.0866
    773   H8      -11.4210    4.3110   -1.4370 H      24  G24         0.1030
    774   H1      -12.1070    4.0400    4.9310 H      24  G24         0.1716
    775  H21      -14.2300    4.2960    5.4760 H      24  G24         0.1451
    776  H22      -15.4830    4.5460    4.2810 H      24  G24         0.1451
    777    P.3    -13.6620    9.2380   -2.2420 P.3    25  C25         0.2131
    778  OP1      -14.3320   10.3240   -2.9900 O.2    25  C25        -0.5172
    779  OP2      -12.1970    9.0550   -2.3600 O.3    25  C25        -0.4373
    780  O5'      -14.0180    9.4030   -0.6830 O.3    25  C25        -0.3248
    781  C5'      -15.3770    9.5520   -0.2560 C.3    25  C25         0.0837
    782  C4'      -15.4730    9.5260    1.2630 C.3    25  C25         0.1139
    783  O4'      -14.9610    8.2980    1.7870 O.3    25  C25        -0.3456
    784  C3'      -14.5820   10.6210    1.9300 C.3    25  C25         0.1241
    785  O3'      -15.2200   11.8950    1.9690 O.3    25  C25        -0.3187
    786  C2'      -14.4130   10.0460    3.3170 C.3    25  C25         0.1293
    787  O2'      -15.5270   10.3690    4.1600 O.3    25  C25        -0.3846
    788  C1'      -14.3260    8.5420    3.0610 C.3    25  C25         0.1680
    789   N.1     -12.9140    8.1170    3.0380 N.ar   25  C25        -0.2700
    790   C.2     -12.3300    7.7850    4.2490 C.ar   25  C25         0.3522
    791   O.2     -13.0020    7.7890    5.2760 O.2    25  C25        -0.2444
    792   N.3     -11.0080    7.4540    4.2590 N.ar   25  C25        -0.1783
    793   C4      -10.2920    7.4460    3.1270 C.ar   25  C25         0.1230
    794   N.4      -8.9990    7.1270    3.1700 N.pl3  25  C25        -0.3430
    795   C5      -10.8940    7.7800    1.8750 C.ar   25  C25        -0.0056
    796   C6      -12.2010    8.1080    1.8760 C.ar   25  C25         0.0152
    797  H5'      -15.9720    8.7360   -0.6640 H      25  C25         0.0591
    798 H5''      -15.7680   10.5010   -0.6270 H      25  C25         0.0591
    799  H4'      -16.5030    9.6750    1.5850 H      25  C25         0.0647
    800  H3'      -13.6150   10.6860    1.4280 H      25  C25         0.0655
    801  H2'      -13.4780   10.4040    3.7570 H      25  C25         0.0666
    802 HO2'      -15.1740   10.7340    4.9740 H      25  C25         0.2101
    803  H1'      -14.8570    8.0040    3.8440 H      25  C25         0.0867
    804  H41       -8.5650    6.8910    4.0510 H      25  C25         0.1437
    805  H42       -8.4520    7.1190    2.3200 H      25  C25         0.1437
    806   H5      -10.3170    7.7690    0.9500 H      25  C25         0.0666
    807   H6      -12.6940    8.3640    0.9370 H      25  C25         0.0812
    808    P.3    -14.2990   13.2140    2.0120 P.3    26  U26         0.2131
    809  OP1      -15.1740   14.4030    1.9120 O.3    26  U26        -0.4373
    810  OP2      -13.1840   13.0320    1.0550 O.2    26  U26        -0.5172
    811  O5'      -13.6960   13.1540    3.5070 O.3    26  U26        -0.3248
    812  C5'      -14.5700   13.2770    4.6300 C.3    26  U26         0.0837
    813  C4'      -13.8640   13.0210    5.9610 C.3    26  U26         0.1139
    814  O4'      -13.3130   11.6970    6.0140 O.3    26  U26        -0.3456
    815  C3'      -12.6310   13.9250    6.1330 C.3    26  U26         0.1241
    816  O3'      -12.9690   15.2160    6.6300 O.3    26  U26        -0.3187
    817  C2'      -11.8210   13.1670    7.1520 C.3    26  U26         0.1293
    818  O2'      -12.2400   13.4710    8.4900 O.3    26  U26        -0.3846
    819  C1'      -12.0970   11.7110    6.7990 C.3    26  U26         0.1680
    820   N.1     -10.9630   11.1700    6.0320 N.ar   26  U26        -0.2715
    821   C.2      -9.9140   10.6240    6.7470 C.ar   26  U26         0.3314
    822   O.2      -9.9430   10.5160    7.9710 O.2    26  U26        -0.2464
    823   N.3      -8.8290   10.2010    6.0040 N.ar   26  U26        -0.2749
    824   C4       -8.7030   10.2740    4.6280 C.ar   26  U26         0.2539
    825   O4       -7.6810    9.8830    4.0720 O.2    26  U26        -0.2677
    826   C5       -9.8500   10.8520    3.9620 C.ar   26  U26         0.0192
    827   C6      -10.9240   11.2740    4.6700 C.ar   26  U26         0.0171
    828  H5'      -15.3870   12.5660    4.5170 H      26  U26         0.0591
    829 H5''      -14.9790   14.2850    4.6450 H      26  U26         0.0591
    830  H4'      -14.5440   13.1850    6.7970 H      26  U26         0.0647
    831  H3'      -12.0850   13.9990    5.1930 H      26  U26         0.0655
    832  H2'      -10.7600   13.3860    7.0200 H      26  U26         0.0666
    833 HO2'      -13.0050   12.9240    8.6820 H      26  U26         0.2101
    834  H1'      -12.2370   11.1310    7.7090 H      26  U26         0.0867
    835   H3       -8.0510    9.8060    6.5130 H      26  U26         0.1734
    836   H5       -9.8460   10.9550    2.8780 H      26  U26         0.0686
    837   H6      -11.7760   11.7060    4.1420 H      26  U26         0.0813
    838    P.3    -11.9690   16.4450    6.3490 P.3    27  U27         0.2131
    839  OP1      -12.6030   17.6900    6.8370 O.3    27  U27        -0.4373
    840  OP2      -11.5060   16.3520    4.9450 O.2    27  U27        -0.5172
    841  O5'      -10.7270   16.1020    7.3110 O.3    27  U27        -0.3248
    842  C5'      -10.9200   16.0820    8.7220 C.3    27  U27         0.0837
    843  C4'       -9.7030   15.5570    9.4750 C.3    27  U27         0.1139
    844  O4'       -9.3860   14.2170    9.0910 O.3    27  U27        -0.3456
    845  C3'       -8.4190   16.3590    9.1170 C.3    27  U27         0.1241
    846  O3'       -8.2880   17.5660    9.8610 O.3    27  U27        -0.3187
    847  C2'       -7.3470   15.3800    9.5220 C.3    27  U27         0.1293
    848  O2'       -7.0540   15.4880   10.9210 O.3    27  U27        -0.3846
    849  C1'       -7.9580   14.0210    9.1900 C.3    27  U27         0.1680
    850   N.1      -7.3960   13.5180    7.9260 N.ar   27  U27        -0.2715
    851   C.2      -6.2200   12.7950    7.9980 C.ar   27  U27         0.3314
    852   O.2      -5.6780   12.5320    9.0700 O.2    27  U27        -0.2464
    853   N.3      -5.6840   12.3870    6.7910 N.ar   27  U27        -0.2749
    854   C4       -6.2200   12.6260    5.5390 C.ar   27  U27         0.2539
    855   O4       -5.6510   12.2240    4.5280 O.2    27  U27        -0.2677
    856   C5       -7.4530   13.3840    5.5610 C.ar   27  U27         0.0192
    857   C6       -7.9950   13.7950    6.7310 C.ar   27  U27         0.0171
    858  H5'      -11.7780   15.4520    8.9490 H      27  U27         0.0591
    859 H5''      -11.1270   17.0960    9.0610 H      27  U27         0.0591
    860  H4'       -9.8610   15.6160   10.5520 H      27  U27         0.0647
    861  H3'       -8.3750   16.5510    8.0440 H      27  U27         0.0655
    862  H2'       -6.4470   15.5430    8.9230 H      27  U27         0.0666
    863 HO2'       -7.8460   15.2340   11.4000 H      27  U27         0.2101
    864  H1'       -7.7420   13.3190    9.9920 H      27  U27         0.0867
    865   H3       -4.8230   11.8620    6.8270 H      27  U27         0.1734
    866   H5       -7.9510   13.6250    4.6240 H      27  U27         0.0686
    867   H6       -8.9260   14.3640    6.7190 H      27  U27         0.0813
    868    P.3     -7.4320   18.7790    9.2400 P.3    28  U28         0.2131
    869  OP1       -7.5810   19.9590   10.1220 O.3    28  U28        -0.4373
    870  OP2       -7.7590   18.8850    7.8000 O.2    28  U28        -0.5172
    871  O5'       -5.9250   18.2390    9.3730 O.3    28  U28        -0.3248
    872  C5'       -5.3570   18.0420   10.6650 C.3    28  U28         0.0837
    873  C4'       -4.0320   17.2910   10.6060 C.3    28  U28         0.1139
    874  O4'       -4.1990   15.9910   10.0190 O.3    28  U28        -0.3456
    875  C3'       -3.0290   17.9670    9.6600 C.3    28  U28         0.1241
    876  O3'       -2.3380   19.0420   10.2840 O.3    28  U28        -0.3187
    877  C2'       -2.0810   16.8380    9.3520 C.3    28  U28         0.1293
    878  O2'       -1.0940   16.6890   10.3760 O.3    28  U28        -0.3846
    879  C1'       -3.0020   15.6310    9.2920 C.3    28  U28         0.1680
    880   N.1      -3.3070   15.3260    7.8860 N.ar   28  U28        -0.2715
    881   C.2      -2.4380   14.4900    7.2090 C.ar   28  U28         0.3314
    882   O.2      -1.4910   13.9380    7.7680 O.2    28  U28        -0.2464
    883   N.3      -2.6990   14.3050    5.8650 N.ar   28  U28        -0.2749
    884   C4       -3.7400   14.8710    5.1510 C.ar   28  U28         0.2539
    885   O4       -3.8670   14.6510    3.9500 O.2    28  U28        -0.2677
    886   C5       -4.6020   15.7220    5.9420 C.ar   28  U28         0.0192
    887   C6       -4.3640   15.9190    7.2590 C.ar   28  U28         0.0171
    888  H5'       -6.0600   17.4790   11.2760 H      28  U28         0.0591
    889 H5''       -5.1860   19.0140   11.1230 H      28  U28         0.0591
    890  H4'       -3.5870   17.2090   11.5980 H      28  U28         0.0647
    891  H3'       -3.5320   18.2980    8.7510 H      28  U28         0.0655
    892  H2'       -1.6110   16.9990    8.3790 H      28  U28         0.0666
    893 HO2'       -1.4900   16.1680   11.0820 H      28  U28         0.2101
    894  H1'       -2.5230   14.7740    9.7630 H      28  U28         0.0867
    895   H3       -2.0660   13.7070    5.3530 H      28  U28         0.1734
    896   H5       -5.4510   16.2140    5.4710 H      28  U28         0.0686
    897   H6       -5.0290   16.5670    7.8320 H      28  U28         0.0813
    898    P.3     -1.6880   20.1880    9.3630 P.3    29  U29         0.2131
    899  OP1       -1.2920   21.3180   10.2310 O.3    29  U29        -0.4373
    900  OP2       -2.5870   20.4210    8.2090 O.2    29  U29        -0.5172
    901  O5'       -0.3530   19.4770    8.8230 O.3    29  U29        -0.3248
    902  C5'        0.6870   19.1560    9.7400 C.3    29  U29         0.0837
    903  C4'        1.7920   18.3250    9.1020 C.3    29  U29         0.1139
    904  O4'        1.2930   17.0660    8.6290 O.3    29  U29        -0.3456
    905  C3'        2.3340   18.9860    7.8350 C.3    29  U29         0.1241
    906  O3'        3.2980   19.9830    8.1550 O.3    29  U29        -0.3187
    907  C2'        2.9720   17.8230    7.1220 C.3    29  U29         0.1293
    908  O2'        4.2930   17.5630    7.6160 O.3    29  U29        -0.3846
    909  C1'        2.0200   16.6770    7.4400 C.3    29  U29         0.1680
    910   N.1       1.1050   16.4730    6.3050 N.ar   29  U29        -0.2715
    911   C.2       1.5180   15.6250    5.2950 C.ar   29  U29         0.3314
    912   O.2       2.5710   14.9920    5.3620 O.2    29  U29        -0.2464
    913   N.3       0.6760   15.5260    4.2030 N.ar   29  U29        -0.2749
    914   C4       -0.5280   16.1870    4.0390 C.ar   29  U29         0.2539
    915   O4       -1.1890   16.0370    3.0140 O.2    29  U29        -0.2677
    916   C5       -0.8840   17.0450    5.1470 C.ar   29  U29         0.0192
    917   C6       -0.0750   17.1590    6.2260 C.ar   29  U29         0.0171
    918  H5'        0.2590   18.6030   10.5750 H      29  U29         0.0591
    919 H5''        1.1200   20.0820   10.1140 H      29  U29         0.0591
    920  H4'        2.6140   18.1720    9.8010 H      29  U29         0.0647
    921  H3'        1.5260   19.4030    7.2320 H      29  U29         0.0655
    922  H2'        2.9880   18.0080    6.0460 H      29  U29         0.0666
    923 HO2'        4.2000   17.1580    8.4820 H      29  U29         0.2101
    924  H1'        2.5860   15.7670    7.6300 H      29  U29         0.0867
    925   H3        0.9690   14.9180    3.4520 H      29  U29         0.1734
    926   H5       -1.8150   17.6100    5.1110 H      29  U29         0.0686
    927   H6       -0.3670   17.8150    7.0470 H      29  U29         0.0813
    928    P.3      3.5230   21.1970    7.1240 P.3    30  G30         0.2131
    929  OP1        4.4420   22.1780    7.7450 O.3    30  G30        -0.4373
    930  OP2        2.1990   21.6340    6.6300 O.2    30  G30        -0.5172
    931  O5'        4.2980   20.4770    5.9150 O.3    30  G30        -0.3248
    932  C5'        5.5990   19.9480    6.1390 C.3    30  G30         0.0837
    933  C4'        6.1140   19.1420    4.9540 C.3    30  G30         0.1139
    934  O4'        5.2820   18.0130    4.6920 O.3    30  G30        -0.3456
    935  C3'        6.0510   19.9730    3.6380 C.3    30  G30         0.1241
    936  O3'        7.1750   20.8310    3.4500 O.3    30  G30        -0.3187
    937  C2'        6.0630   18.8710    2.6040 C.3    30  G30         0.1292
    938  O2'        7.4050   18.5060    2.2610 O.3    30  G30        -0.3846
    939  C1'        5.3360   17.7110    3.2830 C.3    30  G30         0.1667
    940   N9        3.9870   17.5510    2.7150 N.ar   30  G30        -0.2854
    941   C8        2.7980   18.0590    3.1650 C.ar   30  G30         0.1005
    942   N7        1.7760   17.7730    2.4130 N.ar   30  G30        -0.2286
    943   C5        2.3230   17.0120    1.3840 C.ar   30  G30         0.1721
    944   C6        1.6950   16.4120    0.2590 C.ar   30  G30         0.2803
    945   O6        0.5070   16.4470   -0.0520 O.2    30  G30        -0.2654
    946   N.1       2.6090   15.7330   -0.5330 N.ar   30  G30        -0.2934
    947   C.2       3.9580   15.6400   -0.2770 C.ar   30  G30         0.1950
    948   N.2       4.6700   14.9380   -1.1600 N.pl3  30  G30        -0.3289
    949   N.3       4.5580   16.2000    0.7760 N.ar   30  G30        -0.1963
    950   C4        3.6800   16.8700    1.5620 C.ar   30  G30         0.1712
    951  H5'        5.5690   19.3070    7.0180 H      30  G30         0.0591
    952 H5''        6.2850   20.7710    6.3250 H      30  G30         0.0591
    953  H4'        7.1420   18.8240    5.1210 H      30  G30         0.0647
    954  H3'        5.1170   20.5330    3.5910 H      30  G30         0.0655
    955  H2'        5.5110   19.1900    1.7150 H      30  G30         0.0666
    956 HO2'        7.7720   18.0270    3.0070 H      30  G30         0.2101
    957  H1'        5.9010   16.7940    3.1360 H      30  G30         0.0866
    958   H8        2.7060   18.6500    4.0750 H      30  G30         0.1030
    959   H1        2.2440   15.2790   -1.3570 H      30  G30         0.1716
    960  H21        4.2120   14.5150   -1.9550 H      30  G30         0.1451
    961  H22        5.6660   14.8290   -1.0330 H      30  G30         0.1451
    962    P.3      7.0090   22.1690    2.5710 P.3    31  C31         0.2131
    963  OP1        8.2680   22.9420    2.6520 O.2    31  C31        -0.5172
    964  OP2        5.7250   22.8090    2.9410 O.3    31  C31        -0.4373
    965  O5'        6.8700   21.5870    1.0760 O.3    31  C31        -0.3248
    966  C5'        7.9780   20.9230    0.4690 C.3    31  C31         0.0837
    967  C4'        7.6150   20.2740   -0.8650 C.3    31  C31         0.1139
    968  O4'        6.5960   19.2810   -0.6930 O.3    31  C31        -0.3456
    969  C3'        6.9560   21.2760   -1.8390 C.3    31  C31         0.1241
    970  O3'        7.9150   22.0320   -2.5720 O.3    31  C31        -0.3187
    971  C2'        6.1960   20.3700   -2.7740 C.3    31  C31         0.1293
    972  O2'        7.0250   19.9310   -3.8540 O.3    31  C31        -0.3846
    973  C1'        5.7850   19.2040   -1.8880 C.3    31  C31         0.1680
    974   N.1       4.3550   19.3050   -1.5640 N.ar   31  C31        -0.2700
    975   C.2       3.4510   18.7680   -2.4660 C.ar   31  C31         0.3522
    976   O.2       3.8540   18.1860   -3.4700 O.2    31  C31        -0.2444
    977   N.3       2.1210   18.9060   -2.2060 N.ar   31  C31        -0.1783
    978   C4        1.7000   19.5460   -1.1060 C.ar   31  C31         0.1230
    979   N.4       0.3940   19.6730   -0.8770 N.pl3  31  C31        -0.3430
    980   C5        2.6320   20.0950   -0.1730 C.ar   31  C31        -0.0056
    981   C6        3.9420   19.9530   -0.4400 C.ar   31  C31         0.0152
    982  H5'        8.3450   20.1570    1.1500 H      31  C31         0.0591
    983 H5''        8.7680   21.6510    0.2960 H      31  C31         0.0591
    984  H4'        8.4970   19.8400   -1.3370 H      31  C31         0.0647
    985  H3'        6.2720   21.9290   -1.2960 H      31  C31         0.0655
    986  H2'        5.3100   20.8840   -3.1510 H      31  C31         0.0666
    987 HO2'        6.7040   19.0680   -4.1270 H      31  C31         0.2101
    988  H1'        5.9780   18.2670   -2.4050 H      31  C31         0.0867
    989  H41       -0.2740   19.2880   -1.5290 H      31  C31         0.1437
    990  H42        0.0720   20.1550   -0.0480 H      31  C31         0.1437
    991   H5        2.2950   20.6130    0.7240 H      31  C31         0.0666
    992   H6        4.6810   20.3600    0.2490 H      31  C31         0.0812
    993    P.3      7.5110   23.4870   -3.1290 P.3    32  U32         0.2131
    994  OP1        8.7220   24.1200   -3.6960 O.2    32  U32        -0.5172
    995  OP2        6.7310   24.1840   -2.0820 O.3    32  U32        -0.4373
    996  O5'        6.5170   23.1280   -4.3430 O.3    32  U32        -0.3248
    997  C5'        7.0220   22.4480   -5.4890 C.3    32  U32         0.0836
    998  C4'        5.9250   22.0930   -6.4880 C.3    32  U32         0.1133
    999  O4'        4.9670   21.2200   -5.8900 O.3    32  U32        -0.3456
   1000  C3'        5.1090   23.3380   -6.8780 C.3    32  U32         0.1135
   1001  O3'        5.6860   24.0550   -7.9720 O.3    32  U32        -0.3864
   1002  C2'        3.7620   22.7620   -7.2490 C.3    32  U32         0.1286
   1003  O2'        3.6900   22.5060   -8.6560 O.3    32  U32        -0.3847
   1004  C1'        3.6640   21.4670   -6.4470 C.3    32  U32         0.1679
   1005   N.1       2.6550   21.6010   -5.3830 N.ar   32  U32        -0.2715
   1006   C.2       1.3500   21.2650   -5.6920 C.ar   32  U32         0.3314
   1007   O.2       1.0310   20.8190   -6.7930 O.2    32  U32        -0.2464
   1008   N.3       0.4210   21.4560   -4.6860 N.ar   32  U32        -0.2749
   1009   C4        0.6810   21.9420   -3.4170 C.ar   32  U32         0.2539
   1010   O4       -0.2280   22.0860   -2.6040 O.2    32  U32        -0.2677
   1011   C5        2.0720   22.2610   -3.1830 C.ar   32  U32         0.0192
   1012   C6        2.9990   22.0840   -4.1530 C.ar   32  U32         0.0171
   1013  H5'        7.5140   21.5330   -5.1620 H      32  U32         0.0591
   1014 H5''        7.7530   23.0860   -5.9820 H      32  U32         0.0591
   1015  H4'        6.3530   21.6330   -7.3780 H      32  U32         0.0647
   1016  H3'        5.0070   23.9870   -6.0030 H      32  U32         0.0647
   1017 HO3'        6.2720   23.4480   -8.4330 H      32  U32         0.2100
   1018  H2'        2.9700   23.4460   -6.9430 H      32  U32         0.0665
   1019 HO2'        3.2130   23.2390   -9.0560 H      32  U32         0.2101
   1020  H1'        3.3900   20.6480   -7.1100 H      32  U32         0.0867
   1021   H3       -0.5390   21.2210   -4.8970 H      32  U32         0.1734
   1022   H5        2.3770   22.6530   -2.2140 H      32  U32         0.0686
   1023   H6        4.0410   22.3300   -3.9480 H      32  U32         0.0813
@<TRIPOS>BOND
     1    91    71    1
     2    89    70    1
     3    90    70    1
     4    60    43    1
     5    43    42    1
     6    70    71    1
     7    70    69    1
     8    71    72    1
     9    71    73    1
    10    57    38    1
    11   101   100    2
    12    74    73    1
    13    74   100    1
    14    76    94    1
    15    76    75    1
    16   120   104    1
    17  1019  1003    1
    18    67    66    2
    19    31    18    1
    20   121   104    1
    21    72    77    1
    22    41    66    1
    23    41    40    1
    24    61    44    1
    25  1003  1002    1
    26    95    77    1
    27    73    75    1
    28    73    92    1
    29  1017  1001    1
    30   100   103    1
    31   100   102    1
    32   104   103    1
    33   104   105    1
    34    38    40    1
    35    38    39    1
    36    38    37    1
    37    69    66    1
    38    30    18    1
    39    42    40    1
    40    42    44    1
    41    42    59    1
    42    75    77    1
    43    75    93    1
    44   122   105    1
    45    77    78    1
    46    66    68    1
    47    18    17    1
    48    56    37    1
    49  1001  1000    1
    50    40    58    1
    51    44    39    1
    52    44    45    1
    53    55    37    1
    54    37    36    1
    55   105   106    1
    56   105   107    1
    57    65    52    1
    58  1015   998    1
    59    53    52   ar
    60    53    54   ar
    61  1002  1018    1
    62  1002  1000    1
    63  1002  1004    1
    64    26     8    1
    65     8     7    1
    66  1020  1004    1
    67   106   111    1
    68   714   713    2
    69  1000   998    1
    70  1000  1016    1
    71    52    51   ar
    72    17    19   ar
    73    17    16   ar
    74  1007  1006    2
    75   704   687    1
    76    78    88   ar
    77    78    79   ar
    78   125   110    1
    79   734   717    1
    80   108   107    1
    81   108   130    1
    82    45    54   ar
    83    45    46   ar
    84   483   466    1
    85    19    20   ar
    86   998   999    1
    87   998   997    1
    88  1004   999    1
    89  1004  1005    1
    90    99    86    1
    91    54    48   ar
    92    27     9    1
    93   131   130    2
    94   107   123    1
    95   107   109    1
    96    87    88   ar
    97    87    85   ar
    98   733   717    1
    99    96    79    1
   100    36    33    1
   101   744   743    2
   102   482   465    1
   103   481   465    1
   104   690   713    1
   105   690   689    1
   106    29    16    1
   107   692   707    1
   108   692   691    1
   109   703   686    1
   110   455   437    1
   111  1014   997    1
   112    88    81   ar
   113    79    80   ar
   114   717   718    1
   115   717   716    1
   116     7    25    1
   117     7     9    1
   118     7     5    1
   119    16    14   ar
   120    34    33    2
   121   110   109    1
   122   735   718    1
   123   126   111    1
   124   713   716    1
   125   713   715    1
   126   702   686    1
   127  1006  1005   ar
   128  1006  1008   ar
   129   111   109    1
   130   111   112    1
   131   130   132    1
   132   130   133    1
   133   687   686    1
   134   687   689    1
   135   687   688    1
   136   129   119    1
   137   465   466    1
   138   465   464    1
   139   466   467    1
   140   466   468    1
   141   437   436    1
   142    51    49   ar
   143   493   492    2
   144    86    85    1
   145    86    98    1
   146   997  1013    1
   147   997   996    1
   148     9    10    1
   149     9     4    1
   150     6    33    1
   151     6     5    1
   152   109   124    1
   153   686   685    1
   154   471   486    1
   155   471   470    1
   156   469   468    1
   157   469   492    1
   158  1005  1012   ar
   159    46    62    1
   160    46    47   ar
   161    23     3    1
   162   152   134    1
   163    85    84   ar
   164   512   496    1
   165    20    10   ar
   166    20    13   ar
   167   452   432    1
   168   708   693    1
   169    33    35    1
   170   721   743    1
   171   721   720    1
   172   689   691    1
   173   689   705    1
   174   539   538    2
   175   462   461    2
   176   718   720    1
   177   718   719    1
   178    48    49   ar
   179    48    47   ar
   180   676   661    1
   181   467   472    1
   182   513   496    1
   183   688   693    1
   184   743   745    1
   185   743   746    1
   186   767   747    1
   187  1021  1008    1
   188   691   693    1
   189   691   706    1
   190     5     3    1
   191     5    24    1
   192   487   472    1
   193   661   660    1
   194   460   447    1
   195   119   112   ar
   196   119   118   ar
   197   766   747    1
   198   468   470    1
   199   468   484    1
   200    10    11   ar
   201   153   134    1
   202    80    81   ar
   203  1008  1009   ar
   204   435   461    1
   205   435   434    1
   206    81    82   ar
   207     4     3    1
   208    49    50    1
   209   112   113   ar
   210   693   694    1
   211   550   540    1
   212   456   438    1
   213     3     2    1
   214   492   495    1
   215   492   494    1
   216   683   682    2
   217   134   133    1
   218   134   135    1
   219    14    13   ar
   220    14    15    2
   221   496   495    1
   222   496   497    1
   223   426   413    1
   224   470   472    1
   225   470   485    1
   226   720   736    1
   227   720   722    1
   228   996   993    1
   229   464   461    1
   230   472   473    1
   231    13    12   ar
   232   747   746    1
   233   747   748    1
   234   436   434    1
   235   436   438    1
   236   436   454    1
   237   461   463    1
   238   432   434    1
   239   432   433    1
   240   432   431    1
   241  1012  1023    1
   242  1012  1011   ar
   243   514   497    1
   244   987   972    1
   245   538   540   ar
   246   538   537   ar
   247   685   682    1
   248    84    82   ar
   249    84    97    1
   250   719   724    1
   251   434   453    1
   252   972   971    1
   253   540   541   ar
   254   128   118    1
   255   425   413    1
   256   451   431    1
   257   438   433    1
   258   438   439    1
   259   447   459    1
   260   447   446    1
   261   696   695    2
   262   118   116   ar
   263   659   682    1
   264   659   658    1
   265   994   993    2
   266   413   412    1
   267    82    83    2
   268   673   656    1
   269   723   722    1
   270   723   738    1
   271   497   498    1
   272   497   499    1
   273   450   431    1
   274   682   684    1
   275   677   662    1
   276   113   114    2
   277   113   115   ar
   278   976   975    2
   279  1009  1011   ar
   280  1009  1010    2
   281   431   430    1
   282   448   446   ar
   283   448   449   ar
   284    11    12   ar
   285    11    28    1
   286    50    63    1
   287    50    64    1
   288   660   675    1
   289   660   658    1
   290   660   662    1
   291   154   135    1
   292   768   748    1
   293   135   136    1
   294   135   137    1
   295   722   724    1
   296   722   737    1
   297   549   537    1
   298   665   664    2
   299     2    22    1
   300     2    21    1
   301     2     1    1
   302  1011  1022    1
   303   694   695   ar
   304   694   701   ar
   305   986   971    1
   306   993   970    1
   307   993   995    1
   308   421   403    1
   309   537   535   ar
   310   498   503    1
   311   748   750    1
   312   748   749    1
   313   778   777    2
   314   136   141    1
   315   475   474    2
   316   446   445   ar
   317   403   402    1
   318   473   474   ar
   319   473   480   ar
   320   695   697   ar
   321   724   739    1
   322   724   725    1
   323   742   732    1
   324   658   656    1
   325   658   674    1
   326   971   973    1
   327   971   969    1
   328   662   657    1
   329   662   663    1
   330   541   551    1
   331   541   534   ar
   332   491   480    1
   333   656   657    1
   334   656   655    1
   335   500   499    1
   336   500   522    1
   337   751   777    1
   338   751   750    1
   339   523   522    2
   340   970   969    1
   341   712   701    1
   342   439   449   ar
   343   439   440   ar
   344   116   115   ar
   345   116   117    2
   346   159   143    1
   347   115   127    1
   348   975   977   ar
   349   975   974   ar
   350   650   637    1
   351   412   414   ar
   352   412   411   ar
   353   988   973    1
   354   449   442   ar
   355   779   777    1
   356   499   515    1
   357   499   501    1
   358   474   476   ar
   359   777   780    1
   360   701   700   ar
   361   649   637    1
   362   977   978   ar
   363   414   415   ar
   364   480   479   ar
   365     1    32    1
   366   750   769    1
   367   750   752    1
   368   749   754    1
   369   155   137    1
   370   664   663   ar
   371   664   666   ar
   372   137   138    1
   373   137   139    1
   374   430   427    1
   375   672   655    1
   376   960   948    1
   377   422   404    1
   378   535   534   ar
   379   535   536    2
   380   138   163    1
   381   973   974    1
   382   973   968    1
   383   637   636    1
   384   969   985    1
   385   969   967    1
   386   732   725   ar
   387   732   731   ar
   388   518   503    1
   389   534   533    1
   390   522   524    1
   391   522   525    1
   392   503   501    1
   393   503   504    1
   394   424   411    1
   395   521   511    1
   396   725   726   ar
   397   663   670   ar
   398   771   753    1
   399   655   671    1
   400   655   654    1
   401   428   427    2
   402   974   981   ar
   403   445   458    1
   404   445   443   ar
   405   143   142   ar
   406   143   144   ar
   407   697   698   ar
   408   989   979    1
   409   502   517    1
   410   502   501    1
   411   402   420    1
   412   402   404    1
   413   402   400    1
   414   141   158    1
   415   141   142    1
   416   141   139    1
   417   411   409   ar
   418   773   756    1
   419   501   516    1
   420   165   163    2
   421   959   946    1
   422   984   967    1
   423   440   457    1
   424   440   441   ar
   425   164   163    1
   426   392   379    1
   427   600   599    2
   428   401   427    1
   429   401   400    1
   430   948   961    1
   431   948   947    1
   432   978   979    1
   433   978   980   ar
   434   418   398    1
   435   404   405    1
   436   404   399    1
   437   666   667   ar
   438   163   166    1
   439   542   526    1
   440   427   429    1
   441   442   443   ar
   442   442   441   ar
   443   142   151   ar
   444   700   698   ar
   445   700   711    1
   446   476   477   ar
   447   645   627    1
   448   741   731    1
   449   157   140    1
   450   415   405   ar
   451   415   408   ar
   452   139   140    1
   453   139   156    1
   454   979   990    1
   455   967   968    1
   456   967   966    1
   457   479   490    1
   458   479   477   ar
   459   144   145   ar
   460   752   754    1
   461   752   753    1
   462   752   770    1
   463   511   504   ar
   464   511   510   ar
   465   731   729   ar
   466   754   772    1
   467   754   755    1
   468   528   533    1
   469   528   527    1
   470   504   505   ar
   471   780   781    1
   472   525   526    1
   473   797   781    1
   474   636   638   ar
   475   636   635   ar
   476   798   781    1
   477   698   699    1
   478   400   398    1
   479   400   419    1
   480   946   947   ar
   481   946   944   ar
   482   443   444    2
   483   533   548    1
   484   533   531    1
   485   981   980   ar
   486   981   992    1
   487   726   727    2
   488   726   728   ar
   489   756   755   ar
   490   756   757   ar
   491   627   626    1
   492   670   681    1
   493   670   669   ar
   494   648   635    1
   495   654   651    1
   496   405   406   ar
   497   947   949   ar
   498   398   399    1
   499   398   397    1
   500   781   782    1
   501   477   478    1
   502   526   527    1
   503   526   543    1
   504   980   991    1
   505   638   639   ar
   506   379   378   ar
   507   379   380   ar
   508   409   408   ar
   509   409   410    2
   510   945   944    2
   511   599   598   ar
   512   599   601   ar
   513   520   510    1
   514   755   765   ar
   515   635   633   ar
   516   597   598   ar
   517   597   596   ar
   518   378   376   ar
   519   408   407   ar
   520   151   145   ar
   521   151   150   ar
   522   510   508   ar
   523   667   669   ar
   524   667   668    1
   525   145   146   ar
   526   944   943   ar
   527   546   531    1
   528   983   966    1
   529   186   167    1
   530   527   544    1
   531   527   529    1
   532   644   626    1
   533   505   506    2
   534   505   507   ar
   535   166   167    1
   536   966   965    1
   537   966   982    1
   538   652   651    2
   539   614   601    1
   540   757   758   ar
   541   729   728   ar
   542   729   730    2
   543   669   680    1
   544   598   605   ar
   545   728   740    1
   546   531   529    1
   547   531   532    1
   548   380   381   ar
   549   699   709    1
   550   699   710    1
   551   626   628    1
   552   626   624    1
   553   646   628    1
   554   949   950   ar
   555   601   602   ar
   556   678   668    1
   557   161   147    1
   558   651   625    1
   559   651   653    1
   560   807   796    1
   561   390   377    1
   562   806   795    1
   563   417   397    1
   564   613   596    1
   565   167   187    1
   566   167   168    1
   567   406   407   ar
   568   406   423    1
   569   150   149   ar
   570   397   416    1
   571   397   396    1
   572   810   808    2
   573   596   595   ar
   574   965   962    1
   575   478   488    1
   576   478   489    1
   577   639   629   ar
   578   639   632   ar
   579   668   679    1
   580   625   624    1
   581   782   799    1
   582   782   783    1
   583   782   784    1
   584   580   569    1
   585   146   147    1
   586   146   148   ar
   587   633   632   ar
   588   633   634    2
   589   943   950   ar
   590   943   942   ar
   591   508   507   ar
   592   508   509    2
   593   376   377    1
   594   376   375   ar
   595   529   545    1
   596   529   530    1
   597   765   758   ar
   598   765   764   ar
   599   507   519    1
   600   800   784    1
   601   628   629    1
   602   628   623    1
   603   547   532    1
   604   581   570    1
   605   193   176    1
   606   950   940   ar
   607   147   160    1
   608   377   391    1
   609   955   937    1
   610   758   759   ar
   611   370   387    1
   612   370   369    1
   613   783   788    1
   614   624   643    1
   615   624   622    1
   616   357   344    1
   617   629   630   ar
   618   795   796   ar
   619   795   793   ar
   620   796   789   ar
   621   632   631   ar
   622   569   579    1
   623   569   568    1
   624   809   808    1
   625   605   595   ar
   626   605   604   ar
   627   784   785    1
   628   784   786    1
   629   381   375   ar
   630   381   372   ar
   631   359   346    1
   632   785   808    1
   633   808   811    1
   634   149   148   ar
   635   149   162    1
   636   570   568   ar
   637   570   571   ar
   638   396   393    1
   639   602   604   ar
   640   602   603    1
   641   595   594    1
   642   938   937    1
   643   938   956    1
   644   764   762   ar
   645   642   622    1
   646   388   371    1
   647   169   168    1
   648   169   174    1
   649   805   794    1
   650   345   346   ar
   651   345   343   ar
   652   375   374   ar
   653   168   188    1
   654   168   170    1
   655   582   571    1
   656   530   552    1
   657   386   369    1
   658   568   567   ar
   659   615   603    1
   660   942   941   ar
   661   176   177   ar
   662   176   175   ar
   663   623   622    1
   664   962   963    2
   665   962   964    1
   666   962   936    1
   667   571   564   ar
   668   937   939    1
   669   937   935    1
   670   177   178   ar
   671   622   621    1
   672   940   941   ar
   673   940   939    1
   674   346   347   ar
   675   369   371    1
   676   369   367    1
   677   344   343    1
   678   344   358    1
   679   603   616    1
   680   836   826    1
   681   572   556    1
   682   189   170    1
   683   915   914    2
   684   789   788    1
   685   789   790   ar
   686   371   372    1
   687   371   366    1
   688   372   373   ar
   689   558   563    1
   690   558   557    1
   691   630   631   ar
   692   630   647    1
   693   788   786    1
   694   788   803    1
   695   759   760    2
   696   759   761   ar
   697   793   794    1
   698   793   792   ar
   699   957   939    1
   700   567   565   ar
   701   941   958    1
   702   794   804    1
   703   343   342   ar
   704   939   934    1
   705   786   801    1
   706   786   787    1
   707   564   565   ar
   708   564   563    1
   709   612   594    1
   710   170   171    1
   711   170   172    1
   712   610   592    1
   713   175   174    1
   714   175   185   ar
   715   936   935    1
   716   925   913    1
   717   811   812    1
   718   594   592    1
   719   594   589    1
   720   762   761   ar
   721   762   763    1
   722   174   192    1
   723   174   172    1
   724   954   935    1
   725   611   593    1
   726   935   933    1
   727   565   566    2
   728   574   557    1
   729   393   394    2
   730   393   368    1
   731   393   395    1
   732   578   563    1
   733   199   197    2
   734   374   373   ar
   735   563   561    1
   736   178   185   ar
   737   178   179   ar
   738   368   367    1
   739   556   557    1
   740   556   555    1
   741   556   573    1
   742   557   559    1
   743   761   774    1
   744   885   884    2
   745   552   555    1
   746   552   554    2
   747   552   553    1
   748   826   824   ar
   749   826   827   ar
   750   347   348   ar
   751   171   197    1
   752   914   913   ar
   753   914   916   ar
   754   592   593    1
   755   592   590    1
   756   367   385    1
   757   367   365    1
   758   825   824    2
   759   373   389    1
   760   621   640    1
   761   621   641    1
   762   621   620    1
   763   837   827    1
   764   787   802    1
   765   228   214    1
   766   913   911   ar
   767   790   792   ar
   768   790   791    2
   769   776   763    1
   770   180   179    2
   771   384   365    1
   772   366   365    1
   773   185   184   ar
   774   172   190    1
   775   172   173    1
   776   589   588    1
   777   763   775    1
   778   828   812    1
   779   855   854    2
   780   342   348   ar
   781   342   341   ar
   782   179   181   ar
   783   866   856    1
   784   824   823   ar
   785   812   829    1
   786   812   813    1
   787   827   820   ar
   788   197   198    1
   789   197   200    1
   790   934   933    1
   791   365   364    1
   792   323   313    1
   793   348   339   ar
   794   620   617    1
   795   293   280    1
   796   840   838    2
   797   227   214    1
   798   933   953    1
   799   933   932    1
   800   214   213    1
   801   191   173    1
   802   926   916    1
   803   916   917   ar
   804   884   883   ar
   805   884   886   ar
   806   211   210   ar
   807   211   212   ar
   808   260   247    1
   809   831   815    1
   810   261   247    1
   811   561   559    1
   812   561   576    1
   813   561   562    1
   814   559   560    1
   815   559   575    1
   816   911   912    2
   817   911   910   ar
   818   895   883    1
   819   609   590    1
   820   226   210    1
   821   590   588    1
   822   590   591    1
   823   896   886    1
   824   184   182   ar
   825   560   583    1
   826   854   856   ar
   827   854   853   ar
   828   856   857   ar
   829   247   246    1
   830   313   324    1
   831   313   312    1
   832   294   280    1
   833   588   608    1
   834   588   587    1
   835   181   182   ar
   836   181   194    1
   837   341   340   ar
   838   280   279    1
   839   210   209   ar
   840   883   881   ar
   841   931   932    1
   842   931   928    1
   843   886   887   ar
   844   200   201    1
   845   813   814    1
   846   813   815    1
   847   813   830    1
   848   354   337    1
   849   213   212   ar
   850   213   215   ar
   851   823   835    1
   852   823   821   ar
   853   814   819    1
   854   820   821   ar
   855   820   819    1
   856   922   907    1
   857   577   562    1
   858   212   218   ar
   859   815   816    1
   860   815   817    1
   861   932   952    1
   862   932   951    1
   863   606   587    1
   864   619   617    2
   865   182   183    1
   866   339   340   ar
   867   339   338    1
   868   917   910   ar
   869   917   927    1
   870   353   336    1
   871   364   383    1
   872   364   382    1
   873   364   363    1
   874   617   591    1
   875   617   618    1
   876   910   909    1
   877   838   816    1
   878   838   839    1
   879   838   841    1
   880   311   312   ar
   881   311   309   ar
   882   355   338    1
   883   219   201    1
   884   587   586    1
   885   587   607    1
   886   930   928    2
   887   340   356    1
   888   337   336    1
   889   867   857    1
   890   857   850   ar
   891   312   314   ar
   892   821   822    2
   893   853   865    1
   894   853   851   ar
   895   819   817    1
   896   819   834    1
   897   363   360    1
   898   586   583    1
   899   279   281   ar
   900   279   278   ar
   901   338   336    1
   902   338   333    1
   903   281   282   ar
   904   246   248   ar
   905   246   245   ar
   906   336   334    1
   907   201   220    1
   908   201   202    1
   909   209   218   ar
   910   209   208    1
   911   832   817    1
   912   583   585    2
   913   583   584    1
   914   215   216   ar
   915   907   909    1
   916   907   908    1
   917   907   905    1
   918   928   929    1
   919   928   906    1
   920   817   818    1
   921   218   217   ar
   922   881   882    2
   923   881   880   ar
   924   310   309    2
   925   921   905    1
   926   887   897    1
   927   887   880   ar
   928   203   208    1
   929   203   202    1
   930   841   842    1
   931   183   196    1
   932   183   195    1
   933   244   245   ar
   934   244   243   ar
   935   909   924    1
   936   909   904    1
   937   309   308   ar
   938   908   923    1
   939   248   249   ar
   940   245   251   ar
   941   870   868    2
   942   905   906    1
   943   905   903    1
   944   222   204    1
   945   880   879    1
   946   850   851   ar
   947   850   849    1
   948   208   225    1
   949   208   206    1
   950   202   204    1
   951   202   221    1
   952   851   852    2
   953   861   845    1
   954   216   217   ar
   955   216   229    1
   956   314   325    1
   957   314   315   ar
   958   295   282    1
   959   282   283   ar
   960   278   277   ar
   961   278   284   ar
   962   900   898    2
   963   333   332    1
   964   892   877    1
   965   334   352    1
   966   334   335    1
   967   334   332    1
   968   360   362    2
   969   360   335    1
   970   360   361    1
   971   818   833    1
   972   277   276   ar
   973   243   259    1
   974   243   242   ar
   975   204   206    1
   976   204   205    1
   977   904   903    1
   978   842   858    1
   979   842   859    1
   980   842   843    1
   981   891   875    1
   982   308   315   ar
   983   308   307    1
   984   901   898    1
   985   901   902    1
   986   232   230    2
   987   249   262    1
   988   249   250   ar
   989   862   847    1
   990   223   206    1
   991   206   207    1
   992   251   242   ar
   993   251   250   ar
   994   315   326    1
   995   844   849    1
   996   844   843    1
   997   903   902    1
   998   903   920    1
   999   845   843    1
  1000   845   847    1
  1001   845   846    1
  1002   320   305    1
  1003   849   847    1
  1004   849   864    1
  1005   332   351    1
  1006   332   331    1
  1007   868   871    1
  1008   868   846    1
  1009   868   869    1
  1010   879   877    1
  1011   879   894    1
  1012   879   874    1
  1013   284   283   ar
  1014   284   275   ar
  1015   877   875    1
  1016   877   878    1
  1017   898   899    1
  1018   898   876    1
  1019   871   872    1
  1020   321   306    1
  1021   843   860    1
  1022   847   848    1
  1023   242   241    1
  1024   322   307    1
  1025   875   876    1
  1026   875   873    1
  1027   902   919    1
  1028   902   918    1
  1029   205   230    1
  1030   276   275   ar
  1031   276   292    1
  1032   307   305    1
  1033   307   302    1
  1034   305   306    1
  1035   305   303    1
  1036   874   873    1
  1037   230   233    1
  1038   230   231    1
  1039   224   207    1
  1040   330   331    1
  1041   330   327    1
  1042   275   274    1
  1043   878   893    1
  1044   331   349    1
  1045   331   350    1
  1046   873   872    1
  1047   873   890    1
  1048   872   889    1
  1049   872   888    1
  1050   233   234    1
  1051   848   863    1
  1052   241   236    1
  1053   241   258    1
  1054   241   239    1
  1055   329   327    2
  1056   302   301    1
  1057   236   235    1
  1058   319   303    1
  1059   256   239    1
  1060   255   237    1
  1061   303   304    1
  1062   303   301    1
  1063   289   272    1
  1064   327   304    1
  1065   327   328    1
  1066   274   291    1
  1067   274   272    1
  1068   274   269    1
  1069   252   234    1
  1070   239   237    1
  1071   239   240    1
  1072   234   235    1
  1073   234   253    1
  1074   237   235    1
  1075   237   238    1
  1076   301   318    1
  1077   301   300    1
  1078   235   254    1
  1079   265   263    2
  1080   272   273    1
  1081   272   270    1
  1082   288   270    1
  1083   269   268    1
  1084   290   273    1
  1085   299   300    1
  1086   299   296    1
  1087   240   257    1
  1088   298   296    2
  1089   266   263    1
  1090   266   267    1
  1091   270   268    1
  1092   270   271    1
  1093   300   316    1
  1094   300   317    1
  1095   238   263    1
  1096   263   264    1
  1097   268   267    1
  1098   268   287    1
  1099   296   271    1
  1100   296   297    1
  1101   267   285    1
  1102   267   286    1
