ligand
  PyMOL2.2          3D                             0

 27 29  0  0  0  0  0  0  0  0999 V2000
   48.3070   57.4420   28.6680 N   0  0  0  0  0  0  0  0  0  0  0  0
   48.3360   56.5750   27.4910 C   0  0  0  0  0  0  0  0  0  0  0  0
   47.1510   56.8800   26.6210 C   0  0  0  0  0  0  0  0  0  0  0  0
   46.9620   56.2350   25.5950 O   0  0  0  0  0  0  0  0  0  0  0  0
   48.2820   55.1070   27.9120 C   0  0  0  0  0  0  0  0  0  0  0  0
   49.2810   54.8800   29.0320 C   0  0  0  0  0  0  0  0  0  0  0  0
   49.2850   53.1780   29.6800 S   0  0  0  0  0  0  0  0  0  0  0  0
   48.4590   52.1990   28.3910 C   0  0  0  0  0  0  0  0  0  0  0  0
   47.7330   53.1110   30.7620 C   0  0  0  0  0  0  0  0  0  0  0  0
   47.7870   53.6870   32.2390 C   0  0  0  0  0  0  0  0  0  0  0  0
   47.4270   55.0340   32.4470 O   0  0  0  0  0  0  0  0  0  0  0  0
   48.9280   53.3860   33.1260 C   0  0  0  0  0  0  0  0  0  0  0  0
   49.6980   52.2710   32.6750 O   0  0  0  0  0  0  0  0  0  0  0  0
   49.6450   54.8120   32.9930 C   0  0  0  0  0  0  0  0  0  0  0  0
   50.6610   54.9460   33.9410 O   0  0  0  0  0  0  0  0  0  0  0  0
   48.4630   55.7390   33.2700 C   0  0  0  0  0  0  0  0  0  0  0  0
   46.3540   57.7450   26.9610 O   0  0  0  0  0  0  0  0  0  0  0  0
   45.2320   58.8980   30.8800 N   0  0  0  0  0  0  0  0  0  0  0  0
   45.1590   57.5850   31.1140 C   0  0  0  0  0  0  0  0  0  0  0  0
   46.1140   56.9510   31.7880 N   0  0  0  0  0  0  0  0  0  0  0  0
   47.2380   57.5790   32.1680 C   0  0  0  0  0  0  0  0  0  0  0  0
   47.3870   58.9630   31.8930 C   0  0  0  0  0  0  0  0  0  0  0  0
   46.3160   59.6200   31.2260 C   0  0  0  0  0  0  0  0  0  0  0  0
   46.3770   60.9680   30.9360 N   0  0  0  0  0  0  0  0  0  0  0  0
   48.5880   59.3370   32.3680 N   0  0  0  0  0  0  0  0  0  0  0  0
   49.1840   58.3040   32.9010 C   0  0  0  0  0  0  0  0  0  0  0  0
   48.3950   57.1910   32.8180 N   0  0  0  0  0  0  0  0  0  0  0  0
  1  2  1  0  0  0  0
  2  3  1  0  0  0  0
  2  5  1  0  0  0  0
  3  4  4  0  0  0  0
  3 17  4  0  0  0  0
  5  6  1  0  0  0  0
  6  7  1  0  0  0  0
  7  8  1  0  0  0  0
  7  9  1  0  0  0  0
  9 10  1  0  0  0  0
 10 11  1  0  0  0  0
 10 12  1  0  0  0  0
 11 16  1  0  0  0  0
 12 13  1  0  0  0  0
 12 14  1  0  0  0  0
 14 15  1  0  0  0  0
 14 16  1  0  0  0  0
 16 27  1  0  0  0  0
 18 19  4  0  0  0  0
 19 20  4  0  0  0  0
 20 21  4  0  0  0  0
 21 22  4  0  0  0  0
 22 23  4  0  0  0  0
 18 23  4  0  0  0  0
 23 24  1  0  0  0  0
 22 25  4  0  0  0  0
 25 26  4  0  0  0  0
 21 27  4  0  0  0  0
 26 27  4  0  0  0  0
M  END
$$$$
