ligand
 OpenBabel11021811483D
libRbt.so/2013.1/901 2013/11/27
 27 29  0  0  0  0  0  0  0  0999 V2000
   47.2291   58.4166   29.0457 N   0  0  0  0  0  0  0  0  0  0  0  0
   47.8860   57.2664   28.4265 C   0  0  2  0  0  0  0  0  0  0  0  0
   47.0756   56.8069   27.2491 C   0  0  0  0  0  0  0  0  0  0  0  0
   45.8714   56.6097   27.3736 O   0  0  0  0  0  0  0  0  0  0  0  0
   48.0043   56.1196   29.4296 C   0  0  0  0  0  0  0  0  0  0  0  0
   48.7883   54.9874   28.7913 C   0  0  0  0  0  0  0  0  0  0  0  0
   49.2378   53.6583   29.9524 S   0  0  2  0  0  0  0  0  0  0  0  0
   49.2397   52.1504   28.9383 C   0  0  0  0  0  0  0  0  0  0  0  0
   47.5819   53.1664   30.7271 C   0  0  0  0  0  0  0  0  0  0  0  0
   47.1895   53.7358   32.1547 C   0  0  2  0  0  0  0  0  0  0  0  0
   46.8468   55.0990   32.2619 O   0  0  0  0  0  0  0  0  0  0  0  0
   47.9722   53.3749   33.3532 C   0  0  1  0  0  0  0  0  0  0  0  0
   48.7915   52.2229   33.1505 O   0  0  0  0  0  0  0  0  0  0  0  0
   48.7615   54.7626   33.4816 C   0  0  2  0  0  0  0  0  0  0  0  0
   49.4272   54.8423   34.7061 O   0  0  0  0  0  0  0  0  0  0  0  0
   47.5987   55.7483   33.3848 C   0  0  1  0  0  0  0  0  0  0  0  0
   47.6130   56.6702   26.1576 O   0  0  0  0  0  0  0  0  0  0  0  0
   44.7409   59.5340   31.4790 N   0  0  0  0  0  0  0  0  0  0  0  0
   44.4526   58.2499   31.7065 C   0  0  0  0  0  0  0  0  0  0  0  0
   45.3495   57.4264   32.2409 N   0  0  0  0  0  0  0  0  0  0  0  0
   46.6110   57.8213   32.4750 C   0  0  0  0  0  0  0  0  0  0  0  0
   46.9815   59.1626   32.1974 C   0  0  0  0  0  0  0  0  0  0  0  0
   45.9768   60.0299   31.6857 C   0  0  0  0  0  0  0  0  0  0  0  0
   46.2529   61.3527   31.4046 N   0  0  0  0  0  0  0  0  0  0  0  0
   48.2824   59.2904   32.5127 N   0  0  0  0  0  0  0  0  0  0  0  0
   48.7365   58.1466   32.9508 C   0  0  0  0  0  0  0  0  0  0  0  0
   47.7479   57.2028   32.9614 N   0  0  0  0  0  0  0  0  0  0  0  0
  2  1  1  1  0  0  0
  2  3  1  0  0  0  0
  2  5  1  0  0  0  0
  3  4  1  0  0  0  0
  3 17  1  0  0  0  0
  5  6  1  0  0  0  0
  7  6  1  6  0  0  0
  7  8  1  0  0  0  0
  7  9  1  0  0  0  0
 10  9  1  6  0  0  0
 10 11  1  0  0  0  0
 10 12  1  0  0  0  0
 11 16  1  0  0  0  0
 12 13  1  6  0  0  0
 12 14  1  0  0  0  0
 14 15  1  1  0  0  0
 14 16  1  0  0  0  0
 16 27  1  6  0  0  0
 18 19  2  0  0  0  0
 18 23  1  0  0  0  0
 19 20  1  0  0  0  0
 20 21  2  0  0  0  0
 21 22  1  0  0  0  0
 21 27  1  0  0  0  0
 22 23  2  0  0  0  0
 22 25  1  0  0  0  0
 23 24  1  0  0  0  0
 25 26  2  0  0  0  0
 26 27  1  0  0  0  0
M  END
>  <CHROM.1>
-50.27089839,-175.45646050,170.84067080,148.24525120,-99.20807707,71.64357738
46.57942123,47.53112844,56.22370336,31.02751371,3.10527666,-1.17742202,1.48003039

>  <Name>
ligand

>  <RI>
0

>  <Rbt.Current_Directory>
/home/itssahil/PROJECTS/Mol_Feturizer/New_Systems/rnas/3IQR

>  <Rbt.Executable>
rbdock ($Id: //depot/dev/client3/rdock/2013.1/src/exe/rbdock.cxx#4 $)

>  <Rbt.Library>
libRbt.so (2013.1, Build901 2013/11/27)

>  <Rbt.Parameter_File>
/export/apps/rDock/src/rDock_2013.1_src/data/scripts/dock_solv.prm

>  <Rbt.Receptor>
prm/pocket_docking_2.prm

>  <SCORE>
-14.3966

>  <SCORE.INTER>
-10.8951

>  <SCORE.INTER.CONST>
1

>  <SCORE.INTER.POLAR>
0

>  <SCORE.INTER.ROT>
7

>  <SCORE.INTER.SOLV>
21.4249

>  <SCORE.INTER.VDW>
-22.6717

>  <SCORE.INTER.norm>
-0.403521

>  <SCORE.INTRA>
-4.79038

>  <SCORE.INTRA.DIHEDRAL>
-1.25226

>  <SCORE.INTRA.DIHEDRAL.0>
9.29433

>  <SCORE.INTRA.POLAR>
0

>  <SCORE.INTRA.POLAR.0>
0

>  <SCORE.INTRA.REPUL>
0

>  <SCORE.INTRA.REPUL.0>
0

>  <SCORE.INTRA.SOLV>
1.05886

>  <SCORE.INTRA.SOLV.lig_0>
-48.5102

>  <SCORE.INTRA.VDW>
-4.69368

>  <SCORE.INTRA.VDW.0>
0.379549

>  <SCORE.INTRA.norm>
-0.177422

>  <SCORE.RESTR>
1.28881

>  <SCORE.RESTR.CAVITY>
1.28881

>  <SCORE.RESTR.norm>
0.0477337

>  <SCORE.SYSTEM>
0

>  <SCORE.SYSTEM.CONST>
0

>  <SCORE.SYSTEM.DIHEDRAL>
0

>  <SCORE.SYSTEM.SOLV>
0

>  <SCORE.SYSTEM.norm>
0

>  <SCORE.heavy>
27

>  <SCORE.norm>
-0.533209

>  <RMSD>
0.948

$$$$
ligand
 OpenBabel11021811483D
libRbt.so/2013.1/901 2013/11/27
 27 29  0  0  0  0  0  0  0  0999 V2000
   47.4951   57.4640   29.1275 N   0  0  0  0  0  0  0  0  0  0  0  0
   48.1583   57.1883   27.8539 C   0  0  2  0  0  0  0  0  0  0  0  0
   47.1211   57.0063   26.7837 C   0  0  0  0  0  0  0  0  0  0  0  0
   47.4656   56.8470   25.6174 O   0  0  0  0  0  0  0  0  0  0  0  0
   48.9978   55.9156   27.9576 C   0  0  0  0  0  0  0  0  0  0  0  0
   48.0828   54.7484   28.2802 C   0  0  0  0  0  0  0  0  0  0  0  0
   48.9653   53.1847   28.5851 S   0  0  2  0  0  0  0  0  0  0  0  0
   47.6466   51.9632   28.8521 C   0  0  0  0  0  0  0  0  0  0  0  0
   49.3302   53.2353   30.4420 C   0  0  0  0  0  0  0  0  0  0  0  0
   48.1711   53.6208   31.4540 C   0  0  2  0  0  0  0  0  0  0  0  0
   47.6434   54.9270   31.4030 O   0  0  0  0  0  0  0  0  0  0  0  0
   48.2440   53.2221   32.8735 C   0  0  1  0  0  0  0  0  0  0  0  0
   49.1934   52.1809   33.1058 O   0  0  0  0  0  0  0  0  0  0  0  0
   48.6512   54.6608   33.4476 C   0  0  2  0  0  0  0  0  0  0  0  0
   48.5528   54.6845   34.8399 O   0  0  0  0  0  0  0  0  0  0  0  0
   47.5940   55.5332   32.7733 C   0  0  1  0  0  0  0  0  0  0  0  0
   45.9350   56.9762   27.0858 O   0  0  0  0  0  0  0  0  0  0  0  0
   44.7043   59.5737   31.5674 N   0  0  0  0  0  0  0  0  0  0  0  0
   44.4049   58.2739   31.6373 C   0  0  0  0  0  0  0  0  0  0  0  0
   45.3153   57.3757   32.0017 N   0  0  0  0  0  0  0  0  0  0  0  0
   46.5955   57.7211   32.2108 C   0  0  0  0  0  0  0  0  0  0  0  0
   46.9750   59.0834   32.0943 C   0  0  0  0  0  0  0  0  0  0  0  0
   45.9593   60.0231   31.7646 C   0  0  0  0  0  0  0  0  0  0  0  0
   46.2441   61.3686   31.6477 N   0  0  0  0  0  0  0  0  0  0  0  0
   48.2941   59.1528   32.3456 N   0  0  0  0  0  0  0  0  0  0  0  0
   48.7508   57.9553   32.5981 C   0  0  0  0  0  0  0  0  0  0  0  0
   47.7465   57.0298   32.5409 N   0  0  0  0  0  0  0  0  0  0  0  0
  2  1  1  1  0  0  0
  2  3  1  0  0  0  0
  2  5  1  0  0  0  0
  3  4  1  0  0  0  0
  3 17  1  0  0  0  0
  5  6  1  0  0  0  0
  7  6  1  1  0  0  0
  7  8  1  0  0  0  0
  7  9  1  0  0  0  0
 10  9  1  1  0  0  0
 10 11  1  0  0  0  0
 10 12  1  0  0  0  0
 11 16  1  0  0  0  0
 12 13  1  6  0  0  0
 12 14  1  0  0  0  0
 14 15  1  1  0  0  0
 14 16  1  0  0  0  0
 16 27  1  6  0  0  0
 18 19  2  0  0  0  0
 18 23  1  0  0  0  0
 19 20  1  0  0  0  0
 20 21  2  0  0  0  0
 21 22  1  0  0  0  0
 21 27  1  0  0  0  0
 22 23  2  0  0  0  0
 22 25  1  0  0  0  0
 23 24  1  0  0  0  0
 25 26  2  0  0  0  0
 26 27  1  0  0  0  0
M  END
>  <CHROM.1>
175.50272430,61.30957148,-174.70511602,-177.06960829,47.56504499,-65.58707694
83.24193299,47.58367646,56.09919844,30.63391758,2.85226343,-1.18086827,1.50139750

>  <Name>
ligand

>  <RI>
0

>  <Rbt.Current_Directory>
/home/itssahil/PROJECTS/Mol_Feturizer/New_Systems/rnas/3IQR

>  <Rbt.Executable>
rbdock ($Id: //depot/dev/client3/rdock/2013.1/src/exe/rbdock.cxx#4 $)

>  <Rbt.Library>
libRbt.so (2013.1, Build901 2013/11/27)

>  <Rbt.Parameter_File>
/export/apps/rDock/src/rDock_2013.1_src/data/scripts/dock_solv.prm

>  <Rbt.Receptor>
prm/pocket_docking_2.prm

>  <SCORE>
-13.5643

>  <SCORE.INTER>
-10.6195

>  <SCORE.INTER.CONST>
1

>  <SCORE.INTER.POLAR>
0

>  <SCORE.INTER.ROT>
7

>  <SCORE.INTER.SOLV>
19.3281

>  <SCORE.INTER.VDW>
-21.789

>  <SCORE.INTER.norm>
-0.393316

>  <SCORE.INTRA>
-4.21074

>  <SCORE.INTRA.DIHEDRAL>
-4.45342

>  <SCORE.INTRA.DIHEDRAL.0>
9.29433

>  <SCORE.INTRA.POLAR>
0

>  <SCORE.INTRA.POLAR.0>
0

>  <SCORE.INTRA.REPUL>
0

>  <SCORE.INTRA.REPUL.0>
0

>  <SCORE.INTRA.SOLV>
1.48348

>  <SCORE.INTRA.SOLV.lig_0>
-48.5102

>  <SCORE.INTRA.VDW>
-2.72577

>  <SCORE.INTRA.VDW.0>
0.379549

>  <SCORE.INTRA.norm>
-0.155953

>  <SCORE.RESTR>
1.26597

>  <SCORE.RESTR.CAVITY>
1.26597

>  <SCORE.RESTR.norm>
0.0468876

>  <SCORE.SYSTEM>
0

>  <SCORE.SYSTEM.CONST>
0

>  <SCORE.SYSTEM.DIHEDRAL>
0

>  <SCORE.SYSTEM.SOLV>
0

>  <SCORE.SYSTEM.norm>
0

>  <SCORE.heavy>
27

>  <SCORE.norm>
-0.502381

>  <RMSD>
1.015

$$$$
ligand
 OpenBabel11021811483D
libRbt.so/2013.1/901 2013/11/27
 27 29  0  0  0  0  0  0  0  0999 V2000
   48.5424   58.2659   28.5952 N   0  0  0  0  0  0  0  0  0  0  0  0
   47.5937   57.1546   28.6488 C   0  0  2  0  0  0  0  0  0  0  0  0
   46.3407   57.6052   29.3425 C   0  0  0  0  0  0  0  0  0  0  0  0
   45.6514   56.7933   29.9508 O   0  0  0  0  0  0  0  0  0  0  0  0
   48.1958   55.9797   29.4183 C   0  0  0  0  0  0  0  0  0  0  0  0
   47.5083   54.7001   28.9781 C   0  0  0  0  0  0  0  0  0  0  0  0
   47.8806   53.2643   30.0349 S   0  0  2  0  0  0  0  0  0  0  0  0
   47.2205   51.8414   29.1174 C   0  0  0  0  0  0  0  0  0  0  0  0
   46.4166   53.2036   31.2337 C   0  0  0  0  0  0  0  0  0  0  0  0
   46.5489   53.8836   32.6607 C   0  0  2  0  0  0  0  0  0  0  0  0
   46.4194   55.2844   32.7506 O   0  0  0  0  0  0  0  0  0  0  0  0
   47.6115   53.4707   33.5987 C   0  0  1  0  0  0  0  0  0  0  0  0
   48.1873   52.2087   33.2588 O   0  0  0  0  0  0  0  0  0  0  0  0
   48.5610   54.7402   33.3708 C   0  0  2  0  0  0  0  0  0  0  0  0
   49.5732   54.7807   34.3314 O   0  0  0  0  0  0  0  0  0  0  0  0
   47.5495   55.8720   33.5414 C   0  0  1  0  0  0  0  0  0  0  0  0
   46.0334   58.7903   29.3330 O   0  0  0  0  0  0  0  0  0  0  0  0
   44.7270   59.6375   31.5450 N   0  0  0  0  0  0  0  0  0  0  0  0
   44.3953   58.3978   31.9153 C   0  0  0  0  0  0  0  0  0  0  0  0
   45.2940   57.5730   32.4447 N   0  0  0  0  0  0  0  0  0  0  0  0
   46.5902   57.9115   32.5310 C   0  0  0  0  0  0  0  0  0  0  0  0
   47.0020   59.1987   32.0987 C   0  0  0  0  0  0  0  0  0  0  0  0
   46.0004   60.0755   31.5969 C   0  0  0  0  0  0  0  0  0  0  0  0
   46.3170   61.3495   31.1709 N   0  0  0  0  0  0  0  0  0  0  0  0
   48.3310   59.2765   32.2871 N   0  0  0  0  0  0  0  0  0  0  0  0
   48.7641   58.1510   32.7890 C   0  0  0  0  0  0  0  0  0  0  0  0
   47.7337   57.2720   32.9729 N   0  0  0  0  0  0  0  0  0  0  0  0
  2  1  1  1  0  0  0
  2  3  1  0  0  0  0
  2  5  1  0  0  0  0
  3  4  1  0  0  0  0
  3 17  1  0  0  0  0
  5  6  1  0  0  0  0
  7  6  1  6  0  0  0
  7  8  1  0  0  0  0
  7  9  1  0  0  0  0
 10  9  1  6  0  0  0
 10 11  1  0  0  0  0
 10 12  1  0  0  0  0
 11 16  1  0  0  0  0
 12 13  1  6  0  0  0
 12 14  1  0  0  0  0
 14 15  1  1  0  0  0
 14 16  1  0  0  0  0
 16 27  1  6  0  0  0
 18 19  2  0  0  0  0
 18 23  1  0  0  0  0
 19 20  1  0  0  0  0
 20 21  2  0  0  0  0
 21 22  1  0  0  0  0
 21 27  1  0  0  0  0
 22 23  2  0  0  0  0
 22 25  1  0  0  0  0
 23 24  1  0  0  0  0
 25 26  2  0  0  0  0
 26 27  1  0  0  0  0
M  END
>  <CHROM.1>
-151.84580462,-156.16655218,-168.48907457,-169.20116407,-95.81865512,78.38872090
33.30271363,47.12474797,56.31208865,31.38383589,2.65429479,-1.31131959,0.98565694

>  <Name>
ligand

>  <RI>
0

>  <Rbt.Current_Directory>
/home/itssahil/PROJECTS/Mol_Feturizer/New_Systems/rnas/3IQR

>  <Rbt.Executable>
rbdock ($Id: //depot/dev/client3/rdock/2013.1/src/exe/rbdock.cxx#4 $)

>  <Rbt.Library>
libRbt.so (2013.1, Build901 2013/11/27)

>  <Rbt.Parameter_File>
/export/apps/rDock/src/rDock_2013.1_src/data/scripts/dock_solv.prm

>  <Rbt.Receptor>
prm/pocket_docking_2.prm

>  <SCORE>
-9.93932

>  <SCORE.INTER>
-6.73081

>  <SCORE.INTER.CONST>
1

>  <SCORE.INTER.POLAR>
0

>  <SCORE.INTER.ROT>
7

>  <SCORE.INTER.SOLV>
24.6879

>  <SCORE.INTER.VDW>
-20.9832

>  <SCORE.INTER.norm>
-0.249289

>  <SCORE.INTRA>
-4.29656

>  <SCORE.INTRA.DIHEDRAL>
1.4148

>  <SCORE.INTRA.DIHEDRAL.0>
9.29433

>  <SCORE.INTRA.POLAR>
0

>  <SCORE.INTRA.POLAR.0>
0

>  <SCORE.INTRA.REPUL>
0

>  <SCORE.INTRA.REPUL.0>
0

>  <SCORE.INTRA.SOLV>
-0.424816

>  <SCORE.INTRA.SOLV.lig_0>
-48.5102

>  <SCORE.INTRA.VDW>
-4.79155

>  <SCORE.INTRA.VDW.0>
0.379549

>  <SCORE.INTRA.norm>
-0.159132

>  <SCORE.RESTR>
1.08805

>  <SCORE.RESTR.CAVITY>
1.08805

>  <SCORE.RESTR.norm>
0.040298

>  <SCORE.SYSTEM>
0

>  <SCORE.SYSTEM.CONST>
0

>  <SCORE.SYSTEM.DIHEDRAL>
0

>  <SCORE.SYSTEM.SOLV>
0

>  <SCORE.SYSTEM.norm>
0

>  <SCORE.heavy>
27

>  <SCORE.norm>
-0.368123

>  <RMSD>
1.609

$$$$
ligand
 OpenBabel11021811483D
libRbt.so/2013.1/901 2013/11/27
 27 29  0  0  0  0  0  0  0  0999 V2000
   47.4695   57.8139   28.8716 N   0  0  0  0  0  0  0  0  0  0  0  0
   48.1048   57.0851   27.7748 C   0  0  2  0  0  0  0  0  0  0  0  0
   47.0626   56.7032   26.7638 C   0  0  0  0  0  0  0  0  0  0  0  0
   47.3945   56.4297   25.6151 O   0  0  0  0  0  0  0  0  0  0  0  0
   48.7791   55.8183   28.2999 C   0  0  0  0  0  0  0  0  0  0  0  0
   47.7762   55.0346   29.1270 C   0  0  0  0  0  0  0  0  0  0  0  0
   48.4047   53.4312   29.7192 S   0  0  2  0  0  0  0  0  0  0  0  0
   48.0338   52.2714   28.3703 C   0  0  0  0  0  0  0  0  0  0  0  0
   46.9687   52.7415   30.7420 C   0  0  0  0  0  0  0  0  0  0  0  0
   46.6983   53.3189   32.1945 C   0  0  2  0  0  0  0  0  0  0  0  0
   45.9087   54.4802   32.3182 O   0  0  0  0  0  0  0  0  0  0  0  0
   47.7881   53.4103   33.1861 C   0  0  1  0  0  0  0  0  0  0  0  0
   48.9126   52.5983   32.8460 O   0  0  0  0  0  0  0  0  0  0  0  0
   48.0205   54.9898   33.0584 C   0  0  2  0  0  0  0  0  0  0  0  0
   48.8476   55.4533   34.0830 O   0  0  0  0  0  0  0  0  0  0  0  0
   46.5837   55.4894   33.1977 C   0  0  1  0  0  0  0  0  0  0  0  0
   45.8881   56.6261   27.1011 O   0  0  0  0  0  0  0  0  0  0  0  0
   48.5128   59.8666   31.3949 N   0  0  0  0  0  0  0  0  0  0  0  0
   49.1159   58.7888   31.9037 C   0  0  0  0  0  0  0  0  0  0  0  0
   48.4160   57.7291   32.2978 N   0  0  0  0  0  0  0  0  0  0  0  0
   47.0735   57.7379   32.3004 C   0  0  0  0  0  0  0  0  0  0  0  0
   46.3857   58.8825   31.8207 C   0  0  0  0  0  0  0  0  0  0  0  0
   47.1701   59.9713   31.3488 C   0  0  0  0  0  0  0  0  0  0  0  0
   46.5770   61.1143   30.8521 N   0  0  0  0  0  0  0  0  0  0  0  0
   45.0693   58.6344   31.9367 N   0  0  0  0  0  0  0  0  0  0  0  0
   44.8959   57.4454   32.4490 C   0  0  0  0  0  0  0  0  0  0  0  0
   46.0972   56.8376   32.6849 N   0  0  0  0  0  0  0  0  0  0  0  0
  2  1  1  1  0  0  0
  2  3  1  0  0  0  0
  2  5  1  0  0  0  0
  3  4  1  0  0  0  0
  3 17  1  0  0  0  0
  5  6  1  0  0  0  0
  7  6  1  6  0  0  0
  7  8  1  0  0  0  0
  7  9  1  0  0  0  0
 10  9  1  6  0  0  0
 10 11  1  0  0  0  0
 10 12  1  0  0  0  0
 11 16  1  0  0  0  0
 12 13  1  6  0  0  0
 12 14  1  0  0  0  0
 14 15  1  1  0  0  0
 14 16  1  0  0  0  0
 16 27  1  6  0  0  0
 18 19  2  0  0  0  0
 18 23  1  0  0  0  0
 19 20  1  0  0  0  0
 20 21  2  0  0  0  0
 21 22  1  0  0  0  0
 21 27  1  0  0  0  0
 22 23  2  0  0  0  0
 22 25  1  0  0  0  0
 23 24  1  0  0  0  0
 25 26  2  0  0  0  0
 26 27  1  0  0  0  0
M  END
>  <CHROM.1>
159.57111337,51.62939603,175.70845007,-87.34242777,-76.55705989,85.39139230
-123.64876568,47.39504579,56.10617304,30.73379028,-2.99261454,-1.41389559
1.75715427

>  <Name>
ligand

>  <RI>
0

>  <Rbt.Current_Directory>
/home/itssahil/PROJECTS/Mol_Feturizer/New_Systems/rnas/3IQR

>  <Rbt.Executable>
rbdock ($Id: //depot/dev/client3/rdock/2013.1/src/exe/rbdock.cxx#4 $)

>  <Rbt.Library>
libRbt.so (2013.1, Build901 2013/11/27)

>  <Rbt.Parameter_File>
/export/apps/rDock/src/rDock_2013.1_src/data/scripts/dock_solv.prm

>  <Rbt.Receptor>
prm/pocket_docking_2.prm

>  <SCORE>
-16.0233

>  <SCORE.INTER>
-12.0453

>  <SCORE.INTER.CONST>
1

>  <SCORE.INTER.POLAR>
0

>  <SCORE.INTER.ROT>
7

>  <SCORE.INTER.SOLV>
20.1269

>  <SCORE.INTER.VDW>
-23.0058

>  <SCORE.INTER.norm>
-0.446122

>  <SCORE.INTRA>
-4.43536

>  <SCORE.INTRA.DIHEDRAL>
-2.65664

>  <SCORE.INTRA.DIHEDRAL.0>
9.29433

>  <SCORE.INTRA.POLAR>
0

>  <SCORE.INTRA.POLAR.0>
0

>  <SCORE.INTRA.REPUL>
0

>  <SCORE.INTRA.REPUL.0>
0

>  <SCORE.INTRA.SOLV>
1.98772

>  <SCORE.INTRA.SOLV.lig_0>
-48.5102

>  <SCORE.INTRA.VDW>
-4.10091

>  <SCORE.INTRA.VDW.0>
0.379549

>  <SCORE.INTRA.norm>
-0.164273

>  <SCORE.RESTR>
0.457415

>  <SCORE.RESTR.CAVITY>
0.457415

>  <SCORE.RESTR.norm>
0.0169413

>  <SCORE.SYSTEM>
0

>  <SCORE.SYSTEM.CONST>
0

>  <SCORE.SYSTEM.DIHEDRAL>
0

>  <SCORE.SYSTEM.SOLV>
0

>  <SCORE.SYSTEM.norm>
0

>  <SCORE.heavy>
27

>  <SCORE.norm>
-0.593454

>  <RMSD>
1.920

$$$$
ligand
 OpenBabel11021811483D
libRbt.so/2013.1/901 2013/11/27
 27 29  0  0  0  0  0  0  0  0999 V2000
   47.1314   57.7679   28.9231 N   0  0  0  0  0  0  0  0  0  0  0  0
   47.8601   57.1440   27.8196 C   0  0  2  0  0  0  0  0  0  0  0  0
   46.8916   56.7676   26.7358 C   0  0  0  0  0  0  0  0  0  0  0  0
   47.2892   56.6118   25.5860 O   0  0  0  0  0  0  0  0  0  0  0  0
   48.5813   55.8867   28.3037 C   0  0  0  0  0  0  0  0  0  0  0  0
   47.6045   55.0324   29.0910 C   0  0  0  0  0  0  0  0  0  0  0  0
   48.3188   53.4725   29.7020 S   0  0  2  0  0  0  0  0  0  0  0  0
   47.9729   52.2680   28.3860 C   0  0  0  0  0  0  0  0  0  0  0  0
   46.9383   52.7403   30.7707 C   0  0  0  0  0  0  0  0  0  0  0  0
   46.6859   53.3227   32.2244 C   0  0  2  0  0  0  0  0  0  0  0  0
   45.9033   54.4882   32.3533 O   0  0  0  0  0  0  0  0  0  0  0  0
   47.7864   53.4112   33.2044 C   0  0  1  0  0  0  0  0  0  0  0  0
   48.9033   52.5928   32.8548 O   0  0  0  0  0  0  0  0  0  0  0  0
   48.0251   54.9892   33.0702 C   0  0  2  0  0  0  0  0  0  0  0  0
   48.8652   55.4512   34.0850 O   0  0  0  0  0  0  0  0  0  0  0  0
   46.5924   55.4963   33.2231 C   0  0  1  0  0  0  0  0  0  0  0  0
   45.7142   56.5771   27.0121 O   0  0  0  0  0  0  0  0  0  0  0  0
   48.5281   59.9110   31.5220 N   0  0  0  0  0  0  0  0  0  0  0  0
   49.1274   58.8333   32.0354 C   0  0  0  0  0  0  0  0  0  0  0  0
   48.4270   57.7628   32.3985 N   0  0  0  0  0  0  0  0  0  0  0  0
   47.0850   57.7591   32.3643 C   0  0  0  0  0  0  0  0  0  0  0  0
   46.3997   58.9026   31.8784 C   0  0  0  0  0  0  0  0  0  0  0  0
   47.1862   60.0039   31.4402 C   0  0  0  0  0  0  0  0  0  0  0  0
   46.5960   61.1468   30.9399 N   0  0  0  0  0  0  0  0  0  0  0  0
   45.0830   58.6411   31.9555 N   0  0  0  0  0  0  0  0  0  0  0  0
   44.9070   57.4448   32.4498 C   0  0  0  0  0  0  0  0  0  0  0  0
   46.1072   56.8455   32.7119 N   0  0  0  0  0  0  0  0  0  0  0  0
  2  1  1  1  0  0  0
  2  3  1  0  0  0  0
  2  5  1  0  0  0  0
  3  4  1  0  0  0  0
  3 17  1  0  0  0  0
  5  6  1  0  0  0  0
  7  6  1  6  0  0  0
  7  8  1  0  0  0  0
  7  9  1  0  0  0  0
 10  9  1  6  0  0  0
 10 11  1  0  0  0  0
 10 12  1  0  0  0  0
 11 16  1  0  0  0  0
 12 13  1  6  0  0  0
 12 14  1  0  0  0  0
 14 15  1  1  0  0  0
 14 16  1  0  0  0  0
 16 27  1  6  0  0  0
 18 19  2  0  0  0  0
 18 23  1  0  0  0  0
 19 20  1  0  0  0  0
 20 21  2  0  0  0  0
 21 22  1  0  0  0  0
 21 27  1  0  0  0  0
 22 23  2  0  0  0  0
 22 25  1  0  0  0  0
 23 24  1  0  0  0  0
 25 26  2  0  0  0  0
 26 27  1  0  0  0  0
M  END
>  <CHROM.1>
158.01896843,48.81089420,178.66715743,-91.22495841,-77.39786299,82.72094457
-126.09503210,47.33881907,56.12801649,30.75880629,3.00492381,-1.42339483
1.46441055

>  <Name>
ligand

>  <RI>
0

>  <Rbt.Current_Directory>
/home/itssahil/PROJECTS/Mol_Feturizer/New_Systems/rnas/3IQR

>  <Rbt.Executable>
rbdock ($Id: //depot/dev/client3/rdock/2013.1/src/exe/rbdock.cxx#4 $)

>  <Rbt.Library>
libRbt.so (2013.1, Build901 2013/11/27)

>  <Rbt.Parameter_File>
/export/apps/rDock/src/rDock_2013.1_src/data/scripts/dock_solv.prm

>  <Rbt.Receptor>
prm/pocket_docking_2.prm

>  <SCORE>
-16.1893

>  <SCORE.INTER>
-12.2791

>  <SCORE.INTER.CONST>
1

>  <SCORE.INTER.POLAR>
0

>  <SCORE.INTER.ROT>
7

>  <SCORE.INTER.SOLV>
19.6248

>  <SCORE.INTER.VDW>
-22.9944

>  <SCORE.INTER.norm>
-0.454783

>  <SCORE.INTRA>
-4.37298

>  <SCORE.INTRA.DIHEDRAL>
-2.43745

>  <SCORE.INTRA.DIHEDRAL.0>
9.29433

>  <SCORE.INTRA.POLAR>
0

>  <SCORE.INTRA.POLAR.0>
0

>  <SCORE.INTRA.REPUL>
0

>  <SCORE.INTRA.REPUL.0>
0

>  <SCORE.INTRA.SOLV>
1.7811

>  <SCORE.INTRA.SOLV.lig_0>
-48.5102

>  <SCORE.INTRA.VDW>
-4.0448

>  <SCORE.INTRA.VDW.0>
0.379549

>  <SCORE.INTRA.norm>
-0.161962

>  <SCORE.RESTR>
0.462876

>  <SCORE.RESTR.CAVITY>
0.462876

>  <SCORE.RESTR.norm>
0.0171436

>  <SCORE.SYSTEM>
0

>  <SCORE.SYSTEM.CONST>
0

>  <SCORE.SYSTEM.DIHEDRAL>
0

>  <SCORE.SYSTEM.SOLV>
0

>  <SCORE.SYSTEM.norm>
0

>  <SCORE.heavy>
27

>  <SCORE.norm>
-0.599602

>  <RMSD>
1.947

$$$$
ligand
 OpenBabel11021811483D
libRbt.so/2013.1/901 2013/11/27
 27 29  0  0  0  0  0  0  0  0999 V2000
   47.2847   57.4307   28.8136 N   0  0  0  0  0  0  0  0  0  0  0  0
   47.8994   56.8854   27.6042 C   0  0  2  0  0  0  0  0  0  0  0  0
   46.8369   56.6536   26.5691 C   0  0  0  0  0  0  0  0  0  0  0  0
   45.6828   57.0081   26.7857 O   0  0  0  0  0  0  0  0  0  0  0  0
   48.5934   55.5595   27.9133 C   0  0  0  0  0  0  0  0  0  0  0  0
   48.4817   55.2817   29.4014 C   0  0  0  0  0  0  0  0  0  0  0  0
   48.9676   53.5909   29.8722 S   0  0  2  0  0  0  0  0  0  0  0  0
   48.8602   52.6403   28.3273 C   0  0  0  0  0  0  0  0  0  0  0  0
   47.3524   52.8201   30.4893 C   0  0  0  0  0  0  0  0  0  0  0  0
   46.8040   53.2056   31.9270 C   0  0  2  0  0  0  0  0  0  0  0  0
   45.9326   54.3081   32.0388 O   0  0  0  0  0  0  0  0  0  0  0  0
   47.7023   53.2238   33.0983 C   0  0  1  0  0  0  0  0  0  0  0  0
   48.9175   52.5083   32.8725 O   0  0  0  0  0  0  0  0  0  0  0  0
   47.8520   54.8158   33.1901 C   0  0  2  0  0  0  0  0  0  0  0  0
   48.4627   55.1876   34.3891 O   0  0  0  0  0  0  0  0  0  0  0  0
   46.3835   55.2321   33.1299 C   0  0  1  0  0  0  0  0  0  0  0  0
   47.1352   56.1482   25.4946 O   0  0  0  0  0  0  0  0  0  0  0  0
   48.3206   59.8482   32.0956 N   0  0  0  0  0  0  0  0  0  0  0  0
   48.8998   58.7437   32.5737 C   0  0  0  0  0  0  0  0  0  0  0  0
   48.2067   57.6223   32.7480 N   0  0  0  0  0  0  0  0  0  0  0  0
   46.8792   57.5820   32.5528 C   0  0  0  0  0  0  0  0  0  0  0  0
   46.2085   58.7466   32.0976 C   0  0  0  0  0  0  0  0  0  0  0  0
   46.9947   59.9086   31.8624 C   0  0  0  0  0  0  0  0  0  0  0  0
   46.4202   61.0770   31.4044 N   0  0  0  0  0  0  0  0  0  0  0  0
   44.9038   58.4396   31.9912 N   0  0  0  0  0  0  0  0  0  0  0  0
   44.7209   57.1959   32.3463 C   0  0  0  0  0  0  0  0  0  0  0  0
   45.9060   56.6099   32.6931 N   0  0  0  0  0  0  0  0  0  0  0  0
  2  1  1  1  0  0  0
  2  3  1  0  0  0  0
  2  5  1  0  0  0  0
  3  4  1  0  0  0  0
  3 17  1  0  0  0  0
  5  6  1  0  0  0  0
  7  6  1  6  0  0  0
  7  8  1  0  0  0  0
  7  9  1  0  0  0  0
 10  9  1  6  0  0  0
 10 11  1  0  0  0  0
 10 12  1  0  0  0  0
 11 16  1  0  0  0  0
 12 13  1  6  0  0  0
 12 14  1  0  0  0  0
 14 15  1  1  0  0  0
 14 16  1  0  0  0  0
 16 27  1  6  0  0  0
 18 19  2  0  0  0  0
 18 23  1  0  0  0  0
 19 20  1  0  0  0  0
 20 21  2  0  0  0  0
 21 22  1  0  0  0  0
 21 27  1  0  0  0  0
 22 23  2  0  0  0  0
 22 25  1  0  0  0  0
 23 24  1  0  0  0  0
 25 26  2  0  0  0  0
 26 27  1  0  0  0  0
M  END
>  <CHROM.1>
5.13201238,-3.15455263,168.53187765,-19.61851124,-76.41603388,90.08036914
-121.91285829,47.37817722,56.03110773,30.80531642,0.53888433,1.31212663,-1.48507808

>  <Name>
ligand

>  <RI>
0

>  <Rbt.Current_Directory>
/home/itssahil/PROJECTS/Mol_Feturizer/New_Systems/rnas/3IQR

>  <Rbt.Executable>
rbdock ($Id: //depot/dev/client3/rdock/2013.1/src/exe/rbdock.cxx#4 $)

>  <Rbt.Library>
libRbt.so (2013.1, Build901 2013/11/27)

>  <Rbt.Parameter_File>
/export/apps/rDock/src/rDock_2013.1_src/data/scripts/dock_solv.prm

>  <Rbt.Receptor>
prm/pocket_docking_2.prm

>  <SCORE>
-5.95163

>  <SCORE.INTER>
-11.0717

>  <SCORE.INTER.CONST>
1

>  <SCORE.INTER.POLAR>
0

>  <SCORE.INTER.ROT>
7

>  <SCORE.INTER.SOLV>
18.3751

>  <SCORE.INTER.VDW>
-21.7728

>  <SCORE.INTER.norm>
-0.410062

>  <SCORE.INTRA>
4.23304

>  <SCORE.INTRA.DIHEDRAL>
6.98277

>  <SCORE.INTRA.DIHEDRAL.0>
9.29433

>  <SCORE.INTRA.POLAR>
0

>  <SCORE.INTRA.POLAR.0>
0

>  <SCORE.INTRA.REPUL>
0

>  <SCORE.INTRA.REPUL.0>
0

>  <SCORE.INTRA.SOLV>
0.190535

>  <SCORE.INTRA.SOLV.lig_0>
-48.5102

>  <SCORE.INTRA.VDW>
0.646384

>  <SCORE.INTRA.VDW.0>
0.379549

>  <SCORE.INTRA.norm>
0.156779

>  <SCORE.RESTR>
0.887015

>  <SCORE.RESTR.CAVITY>
0.887015

>  <SCORE.RESTR.norm>
0.0328524

>  <SCORE.SYSTEM>
0

>  <SCORE.SYSTEM.CONST>
0

>  <SCORE.SYSTEM.DIHEDRAL>
0

>  <SCORE.SYSTEM.SOLV>
0

>  <SCORE.SYSTEM.norm>
0

>  <SCORE.heavy>
27

>  <SCORE.norm>
-0.220431

>  <RMSD>
1.970

$$$$
ligand
 OpenBabel11021811483D
libRbt.so/2013.1/901 2013/11/27
 27 29  0  0  0  0  0  0  0  0999 V2000
   49.0838   55.4613   26.9266 N   0  0  0  0  0  0  0  0  0  0  0  0
   47.7429   55.1297   27.4062 C   0  0  2  0  0  0  0  0  0  0  0  0
   46.7433   56.0393   26.7523 C   0  0  0  0  0  0  0  0  0  0  0  0
   47.1155   56.8648   25.9249 O   0  0  0  0  0  0  0  0  0  0  0  0
   47.6628   55.3068   28.9219 C   0  0  0  0  0  0  0  0  0  0  0  0
   48.8299   54.5791   29.5640 C   0  0  0  0  0  0  0  0  0  0  0  0
   48.5404   52.7980   29.8100 S   0  0  2  0  0  0  0  0  0  0  0  0
   47.8130   52.2351   28.2427 C   0  0  0  0  0  0  0  0  0  0  0  0
   46.8447   52.7354   30.6495 C   0  0  0  0  0  0  0  0  0  0  0  0
   46.6799   53.3133   32.1175 C   0  0  2  0  0  0  0  0  0  0  0  0
   45.9000   54.4737   32.2977 O   0  0  0  0  0  0  0  0  0  0  0  0
   47.8388   53.4065   33.0272 C   0  0  1  0  0  0  0  0  0  0  0  0
   48.9366   52.5956   32.6067 O   0  0  0  0  0  0  0  0  0  0  0  0
   48.0594   54.9862   32.8822 C   0  0  2  0  0  0  0  0  0  0  0  0
   48.9583   55.4513   33.8438 O   0  0  0  0  0  0  0  0  0  0  0  0
   46.6360   55.4842   33.1253 C   0  0  1  0  0  0  0  0  0  0  0  0
   45.5534   55.9254   27.0173 O   0  0  0  0  0  0  0  0  0  0  0  0
   48.4420   59.9663   31.4580 N   0  0  0  0  0  0  0  0  0  0  0  0
   49.0746   58.8928   31.9391 C   0  0  0  0  0  0  0  0  0  0  0  0
   48.4047   57.8020   32.2991 N   0  0  0  0  0  0  0  0  0  0  0  0
   47.0627   57.7710   32.2950 C   0  0  0  0  0  0  0  0  0  0  0  0
   46.3432   58.9080   31.8445 C   0  0  0  0  0  0  0  0  0  0  0  0
   47.0970   60.0326   31.4079 C   0  0  0  0  0  0  0  0  0  0  0  0
   46.4723   61.1713   30.9408 N   0  0  0  0  0  0  0  0  0  0  0  0
   45.0343   58.6179   31.9464 N   0  0  0  0  0  0  0  0  0  0  0  0
   44.8940   57.4100   32.4238 C   0  0  0  0  0  0  0  0  0  0  0  0
   46.1118   56.8315   32.6485 N   0  0  0  0  0  0  0  0  0  0  0  0
  2  1  1  6  0  0  0
  2  3  1  0  0  0  0
  2  5  1  0  0  0  0
  3  4  1  0  0  0  0
  3 17  1  0  0  0  0
  5  6  1  0  0  0  0
  7  6  1  6  0  0  0
  7  8  1  0  0  0  0
  7  9  1  0  0  0  0
 10  9  1  6  0  0  0
 10 11  1  0  0  0  0
 10 12  1  0  0  0  0
 11 16  1  0  0  0  0
 12 13  1  6  0  0  0
 12 14  1  0  0  0  0
 14 15  1  1  0  0  0
 14 16  1  0  0  0  0
 16 27  1  6  0  0  0
 18 19  2  0  0  0  0
 18 23  1  0  0  0  0
 19 20  1  0  0  0  0
 20 21  2  0  0  0  0
 21 22  1  0  0  0  0
 21 27  1  0  0  0  0
 22 23  2  0  0  0  0
 22 25  1  0  0  0  0
 23 24  1  0  0  0  0
 25 26  2  0  0  0  0
 26 27  1  0  0  0  0
M  END
>  <CHROM.1>
2.13613283,-50.02420916,-83.25039922,45.11578280,-67.05157601,112.34260253
-128.66707020,47.39847924,55.84904180,30.66849651,0.52156571,1.38349903,-1.63749635

>  <Name>
ligand

>  <RI>
0

>  <Rbt.Current_Directory>
/home/itssahil/PROJECTS/Mol_Feturizer/New_Systems/rnas/3IQR

>  <Rbt.Executable>
rbdock ($Id: //depot/dev/client3/rdock/2013.1/src/exe/rbdock.cxx#4 $)

>  <Rbt.Library>
libRbt.so (2013.1, Build901 2013/11/27)

>  <Rbt.Parameter_File>
/export/apps/rDock/src/rDock_2013.1_src/data/scripts/dock_solv.prm

>  <Rbt.Receptor>
prm/pocket_docking_2.prm

>  <SCORE>
-10.3031

>  <SCORE.INTER>
-10.1618

>  <SCORE.INTER.CONST>
1

>  <SCORE.INTER.POLAR>
0

>  <SCORE.INTER.ROT>
7

>  <SCORE.INTER.SOLV>
19.4613

>  <SCORE.INTER.VDW>
-21.5283

>  <SCORE.INTER.norm>
-0.376362

>  <SCORE.INTRA>
-0.594778

>  <SCORE.INTRA.DIHEDRAL>
0.812469

>  <SCORE.INTRA.DIHEDRAL.0>
9.29433

>  <SCORE.INTRA.POLAR>
0

>  <SCORE.INTRA.POLAR.0>
0

>  <SCORE.INTRA.REPUL>
0

>  <SCORE.INTRA.REPUL.0>
0

>  <SCORE.INTRA.SOLV>
1.00388

>  <SCORE.INTRA.SOLV.lig_0>
-48.5102

>  <SCORE.INTRA.VDW>
-1.50295

>  <SCORE.INTRA.VDW.0>
0.379549

>  <SCORE.INTRA.norm>
-0.0220288

>  <SCORE.RESTR>
0.453427

>  <SCORE.RESTR.CAVITY>
0.453427

>  <SCORE.RESTR.norm>
0.0167936

>  <SCORE.SYSTEM>
0

>  <SCORE.SYSTEM.CONST>
0

>  <SCORE.SYSTEM.DIHEDRAL>
0

>  <SCORE.SYSTEM.SOLV>
0

>  <SCORE.SYSTEM.norm>
0

>  <SCORE.heavy>
27

>  <SCORE.norm>
-0.381598

>  <RMSD>
2.023

$$$$
ligand
 OpenBabel11021811483D
libRbt.so/2013.1/901 2013/11/27
 27 29  0  0  0  0  0  0  0  0999 V2000
   47.4463   58.1043   28.8122 N   0  0  0  0  0  0  0  0  0  0  0  0
   48.0341   57.1640   27.8593 C   0  0  2  0  0  0  0  0  0  0  0  0
   47.2536   57.2040   26.5773 C   0  0  0  0  0  0  0  0  0  0  0  0
   46.5866   58.1944   26.2968 O   0  0  0  0  0  0  0  0  0  0  0  0
   47.9962   55.7441   28.4230 C   0  0  0  0  0  0  0  0  0  0  0  0
   49.0050   55.6367   29.5521 C   0  0  0  0  0  0  0  0  0  0  0  0
   49.3645   53.9241   30.0565 S   0  0  2  0  0  0  0  0  0  0  0  0
   49.6233   53.0347   28.4931 C   0  0  0  0  0  0  0  0  0  0  0  0
   47.6485   53.1470   30.2447 C   0  0  0  0  0  0  0  0  0  0  0  0
   46.8246   53.3903   31.5782 C   0  0  2  0  0  0  0  0  0  0  0  0
   45.8991   54.4532   31.6100 O   0  0  0  0  0  0  0  0  0  0  0  0
   47.4866   53.3329   32.8964 C   0  0  1  0  0  0  0  0  0  0  0  0
   48.7534   52.6753   32.8491 O   0  0  0  0  0  0  0  0  0  0  0  0
   47.5449   54.9147   33.1415 C   0  0  2  0  0  0  0  0  0  0  0  0
   47.9037   55.1987   34.4604 O   0  0  0  0  0  0  0  0  0  0  0  0
   46.0964   55.2919   32.8370 C   0  0  1  0  0  0  0  0  0  0  0  0
   47.3189   56.2634   25.7964 O   0  0  0  0  0  0  0  0  0  0  0  0
   48.1279   59.8889   31.9038 N   0  0  0  0  0  0  0  0  0  0  0  0
   48.6839   58.7631   32.3594 C   0  0  0  0  0  0  0  0  0  0  0  0
   47.9680   57.6525   32.5087 N   0  0  0  0  0  0  0  0  0  0  0  0
   46.6403   57.6429   32.3105 C   0  0  0  0  0  0  0  0  0  0  0  0
   45.9942   58.8302   31.8790 C   0  0  0  0  0  0  0  0  0  0  0  0
   46.8040   59.9808   31.6697 C   0  0  0  0  0  0  0  0  0  0  0  0
   46.2541   61.1699   31.2355 N   0  0  0  0  0  0  0  0  0  0  0  0
   44.6837   58.5519   31.7639 N   0  0  0  0  0  0  0  0  0  0  0  0
   44.4752   57.3049   32.0923 C   0  0  0  0  0  0  0  0  0  0  0  0
   45.6475   56.6879   32.4286 N   0  0  0  0  0  0  0  0  0  0  0  0
  2  1  1  1  0  0  0
  2  3  1  0  0  0  0
  2  5  1  0  0  0  0
  3  4  1  0  0  0  0
  3 17  1  0  0  0  0
  5  6  1  0  0  0  0
  7  6  1  6  0  0  0
  7  8  1  0  0  0  0
  7  9  1  0  0  0  0
 10  9  1  6  0  0  0
 10 11  1  0  0  0  0
 10 12  1  0  0  0  0
 11 16  1  0  0  0  0
 12 13  1  6  0  0  0
 12 14  1  0  0  0  0
 14 15  1  1  0  0  0
 14 16  1  0  0  0  0
 16 27  1  6  0  0  0
 18 19  2  0  0  0  0
 18 23  1  0  0  0  0
 19 20  1  0  0  0  0
 20 21  2  0  0  0  0
 21 22  1  0  0  0  0
 21 27  1  0  0  0  0
 22 23  2  0  0  0  0
 22 25  1  0  0  0  0
 23 24  1  0  0  0  0
 25 26  2  0  0  0  0
 26 27  1  0  0  0  0
M  END
>  <CHROM.1>
22.78342401,-71.29798242,-166.12022134,46.33082354,-81.21840139,94.04693197
-110.10242807,47.38587096,56.26019858,30.72375520,-2.54451428,-1.21495431
2.05075969

>  <Name>
ligand

>  <RI>
0

>  <Rbt.Current_Directory>
/home/itssahil/PROJECTS/Mol_Feturizer/New_Systems/rnas/3IQR

>  <Rbt.Executable>
rbdock ($Id: //depot/dev/client3/rdock/2013.1/src/exe/rbdock.cxx#4 $)

>  <Rbt.Library>
libRbt.so (2013.1, Build901 2013/11/27)

>  <Rbt.Parameter_File>
/export/apps/rDock/src/rDock_2013.1_src/data/scripts/dock_solv.prm

>  <Rbt.Receptor>
prm/pocket_docking_2.prm

>  <SCORE>
-15.2838

>  <SCORE.INTER>
-12.7465

>  <SCORE.INTER.CONST>
1

>  <SCORE.INTER.POLAR>
0

>  <SCORE.INTER.ROT>
7

>  <SCORE.INTER.SOLV>
20.2547

>  <SCORE.INTER.VDW>
-23.5159

>  <SCORE.INTER.norm>
-0.472092

>  <SCORE.INTRA>
-3.27605

>  <SCORE.INTRA.DIHEDRAL>
-1.15459

>  <SCORE.INTRA.DIHEDRAL.0>
9.29433

>  <SCORE.INTRA.POLAR>
0

>  <SCORE.INTRA.POLAR.0>
0

>  <SCORE.INTRA.REPUL>
0

>  <SCORE.INTRA.REPUL.0>
0

>  <SCORE.INTRA.SOLV>
1.0539

>  <SCORE.INTRA.SOLV.lig_0>
-48.5102

>  <SCORE.INTRA.VDW>
-3.22571

>  <SCORE.INTRA.VDW.0>
0.379549

>  <SCORE.INTRA.norm>
-0.121335

>  <SCORE.RESTR>
0.738796

>  <SCORE.RESTR.CAVITY>
0.738796

>  <SCORE.RESTR.norm>
0.0273628

>  <SCORE.SYSTEM>
0

>  <SCORE.SYSTEM.CONST>
0

>  <SCORE.SYSTEM.DIHEDRAL>
0

>  <SCORE.SYSTEM.SOLV>
0

>  <SCORE.SYSTEM.norm>
0

>  <SCORE.heavy>
27

>  <SCORE.norm>
-0.566065

>  <RMSD>
2.065

$$$$
ligand
 OpenBabel11021811483D
libRbt.so/2013.1/901 2013/11/27
 27 29  0  0  0  0  0  0  0  0999 V2000
   45.7300   57.0209   29.7893 N   0  0  0  0  0  0  0  0  0  0  0  0
   46.9968   57.2021   29.0821 C   0  0  2  0  0  0  0  0  0  0  0  0
   46.7532   57.1321   27.6022 C   0  0  0  0  0  0  0  0  0  0  0  0
   45.7046   56.6599   27.1756 O   0  0  0  0  0  0  0  0  0  0  0  0
   47.9866   56.1071   29.4777 C   0  0  0  0  0  0  0  0  0  0  0  0
   47.4510   54.7672   29.0069 C   0  0  0  0  0  0  0  0  0  0  0  0
   48.2228   53.3369   29.8288 S   0  0  2  0  0  0  0  0  0  0  0  0
   47.9636   51.9561   28.6762 C   0  0  0  0  0  0  0  0  0  0  0  0
   46.8537   52.6831   30.9610 C   0  0  0  0  0  0  0  0  0  0  0  0
   46.6619   53.3207   32.4007 C   0  0  2  0  0  0  0  0  0  0  0  0
   45.8924   54.4962   32.5164 O   0  0  0  0  0  0  0  0  0  0  0  0
   47.8004   53.4369   33.3333 C   0  0  1  0  0  0  0  0  0  0  0  0
   48.8977   52.5975   32.9713 O   0  0  0  0  0  0  0  0  0  0  0  0
   48.0437   55.0070   33.1312 C   0  0  2  0  0  0  0  0  0  0  0  0
   48.9256   55.4997   34.0947 O   0  0  0  0  0  0  0  0  0  0  0  0
   46.6213   55.5304   33.3206 C   0  0  1  0  0  0  0  0  0  0  0  0
   47.5856   57.5851   26.8271 O   0  0  0  0  0  0  0  0  0  0  0  0
   48.5197   59.8968   31.4601 N   0  0  0  0  0  0  0  0  0  0  0  0
   49.1295   58.8353   31.9944 C   0  0  0  0  0  0  0  0  0  0  0  0
   48.4374   57.7748   32.4000 N   0  0  0  0  0  0  0  0  0  0  0  0
   47.0951   57.7681   32.3885 C   0  0  0  0  0  0  0  0  0  0  0  0
   46.3995   58.8960   31.8812 C   0  0  0  0  0  0  0  0  0  0  0  0
   47.1764   59.9852   31.3981 C   0  0  0  0  0  0  0  0  0  0  0  0
   46.5757   61.1123   30.8749 N   0  0  0  0  0  0  0  0  0  0  0  0
   45.0848   58.6349   31.9878 N   0  0  0  0  0  0  0  0  0  0  0  0
   44.9194   57.4532   32.5195 C   0  0  0  0  0  0  0  0  0  0  0  0
   46.1249   56.8635   32.7787 N   0  0  0  0  0  0  0  0  0  0  0  0
  2  1  1  1  0  0  0
  2  3  1  0  0  0  0
  2  5  1  0  0  0  0
  3  4  1  0  0  0  0
  3 17  1  0  0  0  0
  5  6  1  0  0  0  0
  7  6  1  6  0  0  0
  7  8  1  0  0  0  0
  7  9  1  0  0  0  0
 10  9  1  6  0  0  0
 10 11  1  0  0  0  0
 10 12  1  0  0  0  0
 11 16  1  0  0  0  0
 12 13  1  6  0  0  0
 12 14  1  0  0  0  0
 14 15  1  1  0  0  0
 14 16  1  0  0  0  0
 16 27  1  6  0  0  0
 18 19  2  0  0  0  0
 18 23  1  0  0  0  0
 19 20  1  0  0  0  0
 20 21  2  0  0  0  0
 21 22  1  0  0  0  0
 21 27  1  0  0  0  0
 22 23  2  0  0  0  0
 22 25  1  0  0  0  0
 23 24  1  0  0  0  0
 25 26  2  0  0  0  0
 26 27  1  0  0  0  0
M  END
>  <CHROM.1>
-16.20651093,64.82109158,-162.02637119,-157.24564689,-85.07782285,84.16540199
-127.54035256,47.23262800,56.13479254,31.01060995,2.73739199,-1.40513629
1.07788003

>  <Name>
ligand

>  <RI>
0

>  <Rbt.Current_Directory>
/home/itssahil/PROJECTS/Mol_Feturizer/New_Systems/rnas/3IQR

>  <Rbt.Executable>
rbdock ($Id: //depot/dev/client3/rdock/2013.1/src/exe/rbdock.cxx#4 $)

>  <Rbt.Library>
libRbt.so (2013.1, Build901 2013/11/27)

>  <Rbt.Parameter_File>
/export/apps/rDock/src/rDock_2013.1_src/data/scripts/dock_solv.prm

>  <Rbt.Receptor>
prm/pocket_docking_2.prm

>  <SCORE>
-13.6143

>  <SCORE.INTER>
-11.4059

>  <SCORE.INTER.CONST>
1

>  <SCORE.INTER.POLAR>
0

>  <SCORE.INTER.ROT>
7

>  <SCORE.INTER.SOLV>
18.0625

>  <SCORE.INTER.VDW>
-21.8914

>  <SCORE.INTER.norm>
-0.42244

>  <SCORE.INTRA>
-2.84913

>  <SCORE.INTRA.DIHEDRAL>
0.786165

>  <SCORE.INTRA.DIHEDRAL.0>
9.29433

>  <SCORE.INTRA.POLAR>
0

>  <SCORE.INTRA.POLAR.0>
0

>  <SCORE.INTRA.REPUL>
0

>  <SCORE.INTRA.REPUL.0>
0

>  <SCORE.INTRA.SOLV>
3.80699

>  <SCORE.INTRA.SOLV.lig_0>
-48.5102

>  <SCORE.INTRA.VDW>
-5.14571

>  <SCORE.INTRA.VDW.0>
0.379549

>  <SCORE.INTRA.norm>
-0.105523

>  <SCORE.RESTR>
0.640701

>  <SCORE.RESTR.CAVITY>
0.640701

>  <SCORE.RESTR.norm>
0.0237297

>  <SCORE.SYSTEM>
0

>  <SCORE.SYSTEM.CONST>
0

>  <SCORE.SYSTEM.DIHEDRAL>
0

>  <SCORE.SYSTEM.SOLV>
0

>  <SCORE.SYSTEM.norm>
0

>  <SCORE.heavy>
27

>  <SCORE.norm>
-0.504233

>  <RMSD>
2.112

$$$$
ligand
 OpenBabel11021811483D
libRbt.so/2013.1/901 2013/11/27
 27 29  0  0  0  0  0  0  0  0999 V2000
   49.5866   55.7839   28.6885 N   0  0  0  0  0  0  0  0  0  0  0  0
   48.6693   56.1644   27.6154 C   0  0  2  0  0  0  0  0  0  0  0  0
   47.8717   57.3614   28.0459 C   0  0  0  0  0  0  0  0  0  0  0  0
   47.3972   58.1165   27.2038 O   0  0  0  0  0  0  0  0  0  0  0  0
   47.7137   55.0140   27.3015 C   0  0  0  0  0  0  0  0  0  0  0  0
   47.0387   54.5712   28.5869 C   0  0  0  0  0  0  0  0  0  0  0  0
   48.0658   53.4755   29.6171 S   0  0  2  0  0  0  0  0  0  0  0  0
   48.1654   51.9260   28.6730 C   0  0  0  0  0  0  0  0  0  0  0  0
   46.8224   52.6969   30.8137 C   0  0  0  0  0  0  0  0  0  0  0  0
   46.6455   53.3136   32.2644 C   0  0  2  0  0  0  0  0  0  0  0  0
   45.8785   54.4880   32.4048 O   0  0  0  0  0  0  0  0  0  0  0  0
   47.7932   53.4149   33.1873 C   0  0  1  0  0  0  0  0  0  0  0  0
   48.8859   52.5798   32.8024 O   0  0  0  0  0  0  0  0  0  0  0  0
   48.0363   54.9876   33.0059 C   0  0  2  0  0  0  0  0  0  0  0  0
   48.9282   55.4652   33.9678 O   0  0  0  0  0  0  0  0  0  0  0  0
   46.6164   55.5096   33.2169 C   0  0  1  0  0  0  0  0  0  0  0  0
   47.6629   57.5564   29.2364 O   0  0  0  0  0  0  0  0  0  0  0  0
   48.5025   59.9118   31.4296 N   0  0  0  0  0  0  0  0  0  0  0  0
   49.1155   58.8424   31.9440 C   0  0  0  0  0  0  0  0  0  0  0  0
   48.4263   57.7734   32.3323 N   0  0  0  0  0  0  0  0  0  0  0  0
   47.0839   57.7643   32.3232 C   0  0  0  0  0  0  0  0  0  0  0  0
   46.3851   58.8995   31.8372 C   0  0  0  0  0  0  0  0  0  0  0  0
   47.1589   59.9986   31.3718 C   0  0  0  0  0  0  0  0  0  0  0  0
   46.5550   61.1335   30.8695 N   0  0  0  0  0  0  0  0  0  0  0  0
   45.0711   58.6339   31.9418 N   0  0  0  0  0  0  0  0  0  0  0  0
   44.9092   57.4427   32.4529 C   0  0  0  0  0  0  0  0  0  0  0  0
   46.1164   56.8511   32.6994 N   0  0  0  0  0  0  0  0  0  0  0  0
  2  1  1  1  0  0  0
  2  3  1  0  0  0  0
  2  5  1  0  0  0  0
  3  4  1  0  0  0  0
  3 17  1  0  0  0  0
  5  6  1  0  0  0  0
  7  6  1  6  0  0  0
  7  8  1  0  0  0  0
  7  9  1  0  0  0  0
 10  9  1  6  0  0  0
 10 11  1  0  0  0  0
 10 12  1  0  0  0  0
 11 16  1  0  0  0  0
 12 13  1  6  0  0  0
 12 14  1  0  0  0  0
 14 15  1  1  0  0  0
 14 16  1  0  0  0  0
 16 27  1  6  0  0  0
 18 19  2  0  0  0  0
 18 23  1  0  0  0  0
 19 20  1  0  0  0  0
 20 21  2  0  0  0  0
 21 22  1  0  0  0  0
 21 27  1  0  0  0  0
 22 23  2  0  0  0  0
 22 25  1  0  0  0  0
 23 24  1  0  0  0  0
 25 26  2  0  0  0  0
 26 27  1  0  0  0  0
M  END
>  <CHROM.1>
155.12286696,53.25613983,-80.25062374,-69.05768808,-97.14014146,78.24285891
-128.05134711,47.49609539,56.08205130,30.86990966,-0.88617661,1.36711324
-0.56676223

>  <Name>
ligand

>  <RI>
0

>  <Rbt.Current_Directory>
/home/itssahil/PROJECTS/Mol_Feturizer/New_Systems/rnas/3IQR

>  <Rbt.Executable>
rbdock ($Id: //depot/dev/client3/rdock/2013.1/src/exe/rbdock.cxx#4 $)

>  <Rbt.Library>
libRbt.so (2013.1, Build901 2013/11/27)

>  <Rbt.Parameter_File>
/export/apps/rDock/src/rDock_2013.1_src/data/scripts/dock_solv.prm

>  <Rbt.Receptor>
prm/pocket_docking_2.prm

>  <SCORE>
-14.3174

>  <SCORE.INTER>
-11.0744

>  <SCORE.INTER.CONST>
1

>  <SCORE.INTER.POLAR>
0

>  <SCORE.INTER.ROT>
7

>  <SCORE.INTER.SOLV>
19.8889

>  <SCORE.INTER.VDW>
-22.2792

>  <SCORE.INTER.norm>
-0.410162

>  <SCORE.INTRA>
-3.69109

>  <SCORE.INTRA.DIHEDRAL>
-0.648976

>  <SCORE.INTRA.DIHEDRAL.0>
9.29433

>  <SCORE.INTRA.POLAR>
0

>  <SCORE.INTRA.POLAR.0>
0

>  <SCORE.INTRA.REPUL>
0

>  <SCORE.INTRA.REPUL.0>
0

>  <SCORE.INTRA.SOLV>
1.11542

>  <SCORE.INTRA.SOLV.lig_0>
-48.5102

>  <SCORE.INTRA.VDW>
-3.92431

>  <SCORE.INTRA.VDW.0>
0.379549

>  <SCORE.INTRA.norm>
-0.136707

>  <SCORE.RESTR>
0.448036

>  <SCORE.RESTR.CAVITY>
0.448036

>  <SCORE.RESTR.norm>
0.0165939

>  <SCORE.SYSTEM>
0

>  <SCORE.SYSTEM.CONST>
0

>  <SCORE.SYSTEM.DIHEDRAL>
0

>  <SCORE.SYSTEM.SOLV>
0

>  <SCORE.SYSTEM.norm>
0

>  <SCORE.heavy>
27

>  <SCORE.norm>
-0.530275

>  <RMSD>
2.117

$$$$
ligand
 OpenBabel11021811483D
libRbt.so/2013.1/901 2013/11/27
 27 29  0  0  0  0  0  0  0  0999 V2000
   48.5399   55.9888   26.4406 N   0  0  0  0  0  0  0  0  0  0  0  0
   47.9285   55.8678   27.7633 C   0  0  2  0  0  0  0  0  0  0  0  0
   47.2614   57.1642   28.1218 C   0  0  0  0  0  0  0  0  0  0  0  0
   46.4343   57.1978   29.0268 O   0  0  0  0  0  0  0  0  0  0  0  0
   48.9925   55.5468   28.8121 C   0  0  0  0  0  0  0  0  0  0  0  0
   48.3183   54.9250   30.0216 C   0  0  0  0  0  0  0  0  0  0  0  0
   48.2796   53.1046   29.9871 S   0  0  2  0  0  0  0  0  0  0  0  0
   47.3582   52.6982   28.4745 C   0  0  0  0  0  0  0  0  0  0  0  0
   46.7748   52.6720   31.0512 C   0  0  0  0  0  0  0  0  0  0  0  0
   46.6083   53.3470   32.4770 C   0  0  2  0  0  0  0  0  0  0  0  0
   45.8534   54.5337   32.5729 O   0  0  0  0  0  0  0  0  0  0  0  0
   47.7596   53.4731   33.3923 C   0  0  1  0  0  0  0  0  0  0  0  0
   48.8428   52.6125   33.0377 O   0  0  0  0  0  0  0  0  0  0  0  0
   48.0178   55.0348   33.1484 C   0  0  2  0  0  0  0  0  0  0  0  0
   48.9172   55.5410   34.0885 O   0  0  0  0  0  0  0  0  0  0  0  0
   46.6038   55.5790   33.3423 C   0  0  1  0  0  0  0  0  0  0  0  0
   47.5764   58.1922   27.5360 O   0  0  0  0  0  0  0  0  0  0  0  0
   48.5286   59.8939   31.3910 N   0  0  0  0  0  0  0  0  0  0  0  0
   49.1320   58.8396   31.9463 C   0  0  0  0  0  0  0  0  0  0  0  0
   48.4335   57.7921   32.3742 N   0  0  0  0  0  0  0  0  0  0  0  0
   47.0911   57.7940   32.3641 C   0  0  0  0  0  0  0  0  0  0  0  0
   46.4023   58.9158   31.8345 C   0  0  0  0  0  0  0  0  0  0  0  0
   47.1858   59.9899   31.3285 C   0  0  0  0  0  0  0  0  0  0  0  0
   46.5919   61.1099   30.7828 N   0  0  0  0  0  0  0  0  0  0  0  0
   45.0861   58.6655   31.9477 N   0  0  0  0  0  0  0  0  0  0  0  0
   44.9136   57.4961   32.5036 C   0  0  0  0  0  0  0  0  0  0  0  0
   46.1155   56.9040   32.7737 N   0  0  0  0  0  0  0  0  0  0  0  0
  2  1  1  6  0  0  0
  2  3  1  0  0  0  0
  2  5  1  0  0  0  0
  3  4  1  0  0  0  0
  3 17  1  0  0  0  0
  5  6  1  0  0  0  0
  7  6  1  6  0  0  0
  7  8  1  0  0  0  0
  7  9  1  0  0  0  0
 10  9  1  6  0  0  0
 10 11  1  0  0  0  0
 10 12  1  0  0  0  0
 11 16  1  0  0  0  0
 12 13  1  6  0  0  0
 12 14  1  0  0  0  0
 14 15  1  1  0  0  0
 14 16  1  0  0  0  0
 16 27  1  6  0  0  0
 18 19  2  0  0  0  0
 18 23  1  0  0  0  0
 19 20  1  0  0  0  0
 20 21  2  0  0  0  0
 21 22  1  0  0  0  0
 21 27  1  0  0  0  0
 22 23  2  0  0  0  0
 22 25  1  0  0  0  0
 23 24  1  0  0  0  0
 25 26  2  0  0  0  0
 26 27  1  0  0  0  0
M  END
>  <CHROM.1>
163.06089379,-158.94183383,93.41512465,-59.66472645,-48.99324104,92.82867958
-128.28961991,47.44733922,56.11028835,30.98436917,-0.85186374,1.37739840
-0.75742708

>  <Name>
ligand

>  <RI>
0

>  <Rbt.Current_Directory>
/home/itssahil/PROJECTS/Mol_Feturizer/New_Systems/rnas/3IQR

>  <Rbt.Executable>
rbdock ($Id: //depot/dev/client3/rdock/2013.1/src/exe/rbdock.cxx#4 $)

>  <Rbt.Library>
libRbt.so (2013.1, Build901 2013/11/27)

>  <Rbt.Parameter_File>
/export/apps/rDock/src/rDock_2013.1_src/data/scripts/dock_solv.prm

>  <Rbt.Receptor>
prm/pocket_docking_2.prm

>  <SCORE>
-13.216

>  <SCORE.INTER>
-10.1843

>  <SCORE.INTER.CONST>
1

>  <SCORE.INTER.POLAR>
0

>  <SCORE.INTER.ROT>
7

>  <SCORE.INTER.SOLV>
21.2183

>  <SCORE.INTER.VDW>
-22.129

>  <SCORE.INTER.norm>
-0.377198

>  <SCORE.INTRA>
-3.57997

>  <SCORE.INTRA.DIHEDRAL>
3.28083

>  <SCORE.INTRA.DIHEDRAL.0>
9.29433

>  <SCORE.INTRA.POLAR>
0

>  <SCORE.INTRA.POLAR.0>
0

>  <SCORE.INTRA.REPUL>
0

>  <SCORE.INTRA.REPUL.0>
0

>  <SCORE.INTRA.SOLV>
-0.506465

>  <SCORE.INTRA.SOLV.lig_0>
-48.5102

>  <SCORE.INTRA.VDW>
-4.96715

>  <SCORE.INTRA.VDW.0>
0.379549

>  <SCORE.INTRA.norm>
-0.132592

>  <SCORE.RESTR>
0.548366

>  <SCORE.RESTR.CAVITY>
0.548366

>  <SCORE.RESTR.norm>
0.0203098

>  <SCORE.SYSTEM>
0

>  <SCORE.SYSTEM.CONST>
0

>  <SCORE.SYSTEM.DIHEDRAL>
0

>  <SCORE.SYSTEM.SOLV>
0

>  <SCORE.SYSTEM.norm>
0

>  <SCORE.heavy>
27

>  <SCORE.norm>
-0.48948

>  <RMSD>
2.127

$$$$
ligand
 OpenBabel11021811483D
libRbt.so/2013.1/901 2013/11/27
 27 29  0  0  0  0  0  0  0  0999 V2000
   45.3502   56.4029   27.5013 N   0  0  0  0  0  0  0  0  0  0  0  0
   46.8105   56.4033   27.5747 C   0  0  2  0  0  0  0  0  0  0  0  0
   47.3420   57.6188   26.8717 C   0  0  0  0  0  0  0  0  0  0  0  0
   47.0425   57.8296   25.7011 O   0  0  0  0  0  0  0  0  0  0  0  0
   47.3757   55.1516   26.9047 C   0  0  0  0  0  0  0  0  0  0  0  0
   47.0943   53.9510   27.7897 C   0  0  0  0  0  0  0  0  0  0  0  0
   48.0525   53.9383   29.3383 S   0  0  2  0  0  0  0  0  0  0  0  0
   49.2967   52.6369   29.0923 C   0  0  0  0  0  0  0  0  0  0  0  0
   47.0495   52.8014   30.4721 C   0  0  0  0  0  0  0  0  0  0  0  0
   46.6989   53.2798   31.9433 C   0  0  2  0  0  0  0  0  0  0  0  0
   45.8998   54.4302   32.1017 O   0  0  0  0  0  0  0  0  0  0  0  0
   47.7332   53.3040   32.9964 C   0  0  1  0  0  0  0  0  0  0  0  0
   48.8772   52.5165   32.6640 O   0  0  0  0  0  0  0  0  0  0  0  0
   47.9666   54.8885   32.9879 C   0  0  2  0  0  0  0  0  0  0  0  0
   48.7355   55.2819   34.0847 O   0  0  0  0  0  0  0  0  0  0  0  0
   46.5227   55.3779   33.0823 C   0  0  1  0  0  0  0  0  0  0  0  0
   48.0400   58.4177   27.4829 O   0  0  0  0  0  0  0  0  0  0  0  0
   48.5192   59.7544   31.3530 N   0  0  0  0  0  0  0  0  0  0  0  0
   49.1069   58.6414   31.8001 C   0  0  0  0  0  0  0  0  0  0  0  0
   48.3892   57.5905   32.1859 N   0  0  0  0  0  0  0  0  0  0  0  0
   47.0489   57.6405   32.2429 C   0  0  0  0  0  0  0  0  0  0  0  0
   46.3799   58.8218   31.8305 C   0  0  0  0  0  0  0  0  0  0  0  0
   47.1798   59.9020   31.3646 C   0  0  0  0  0  0  0  0  0  0  0  0
   46.6047   61.0795   30.9313 N   0  0  0  0  0  0  0  0  0  0  0  0
   45.0618   58.6105   31.9909 N   0  0  0  0  0  0  0  0  0  0  0  0
   44.8705   57.4100   32.4691 C   0  0  0  0  0  0  0  0  0  0  0  0
   46.0600   56.7576   32.6356 N   0  0  0  0  0  0  0  0  0  0  0  0
  2  1  1  6  0  0  0
  2  3  1  0  0  0  0
  2  5  1  0  0  0  0
  3  4  1  0  0  0  0
  3 17  1  0  0  0  0
  5  6  1  0  0  0  0
  7  6  1  6  0  0  0
  7  8  1  0  0  0  0
  7  9  1  0  0  0  0
 10  9  1  6  0  0  0
 10 11  1  0  0  0  0
 10 12  1  0  0  0  0
 11 16  1  0  0  0  0
 12 13  1  6  0  0  0
 12 14  1  0  0  0  0
 14 15  1  1  0  0  0
 14 16  1  0  0  0  0
 16 27  1  6  0  0  0
 18 19  2  0  0  0  0
 18 23  1  0  0  0  0
 19 20  1  0  0  0  0
 20 21  2  0  0  0  0
 21 22  1  0  0  0  0
 21 27  1  0  0  0  0
 22 23  2  0  0  0  0
 22 25  1  0  0  0  0
 23 24  1  0  0  0  0
 25 26  2  0  0  0  0
 26 27  1  0  0  0  0
M  END
>  <CHROM.1>
-56.04096458,-72.38690190,-69.49261812,-107.04554604,-130.96083043,62.29163181
-117.63782737,47.29081130,56.13579890,30.54586356,-2.68714850,-1.41814172
1.56441004

>  <Name>
ligand

>  <RI>
0

>  <Rbt.Current_Directory>
/home/itssahil/PROJECTS/Mol_Feturizer/New_Systems/rnas/3IQR

>  <Rbt.Executable>
rbdock ($Id: //depot/dev/client3/rdock/2013.1/src/exe/rbdock.cxx#4 $)

>  <Rbt.Library>
libRbt.so (2013.1, Build901 2013/11/27)

>  <Rbt.Parameter_File>
/export/apps/rDock/src/rDock_2013.1_src/data/scripts/dock_solv.prm

>  <Rbt.Receptor>
prm/pocket_docking_2.prm

>  <SCORE>
-11.6088

>  <SCORE.INTER>
-9.31878

>  <SCORE.INTER.CONST>
1

>  <SCORE.INTER.POLAR>
0

>  <SCORE.INTER.ROT>
7

>  <SCORE.INTER.SOLV>
21.5403

>  <SCORE.INTER.VDW>
-21.6593

>  <SCORE.INTER.norm>
-0.34514

>  <SCORE.INTRA>
-2.80838

>  <SCORE.INTRA.DIHEDRAL>
2.32923

>  <SCORE.INTRA.DIHEDRAL.0>
9.29433

>  <SCORE.INTRA.POLAR>
0

>  <SCORE.INTRA.POLAR.0>
0

>  <SCORE.INTRA.REPUL>
0

>  <SCORE.INTRA.REPUL.0>
0

>  <SCORE.INTRA.SOLV>
-0.377138

>  <SCORE.INTRA.SOLV.lig_0>
-48.5102

>  <SCORE.INTRA.VDW>
-3.78442

>  <SCORE.INTRA.VDW.0>
0.379549

>  <SCORE.INTRA.norm>
-0.104014

>  <SCORE.RESTR>
0.518315

>  <SCORE.RESTR.CAVITY>
0.518315

>  <SCORE.RESTR.norm>
0.0191969

>  <SCORE.SYSTEM>
0

>  <SCORE.SYSTEM.CONST>
0

>  <SCORE.SYSTEM.DIHEDRAL>
0

>  <SCORE.SYSTEM.SOLV>
0

>  <SCORE.SYSTEM.norm>
0

>  <SCORE.heavy>
27

>  <SCORE.norm>
-0.429957

>  <RMSD>
2.157

$$$$
ligand
 OpenBabel11021811483D
libRbt.so/2013.1/901 2013/11/27
 27 29  0  0  0  0  0  0  0  0999 V2000
   49.2650   55.7864   27.1636 N   0  0  0  0  0  0  0  0  0  0  0  0
   47.9790   56.1100   26.5475 C   0  0  2  0  0  0  0  0  0  0  0  0
   47.5583   57.4873   26.9719 C   0  0  0  0  0  0  0  0  0  0  0  0
   48.0464   57.9948   27.9762 O   0  0  0  0  0  0  0  0  0  0  0  0
   46.9137   55.1054   26.9846 C   0  0  0  0  0  0  0  0  0  0  0  0
   46.8555   55.0795   28.5011 C   0  0  0  0  0  0  0  0  0  0  0  0
   48.1593   54.0665   29.2698 S   0  0  2  0  0  0  0  0  0  0  0  0
   48.5028   52.7651   28.0489 C   0  0  0  0  0  0  0  0  0  0  0  0
   47.1948   52.8412   30.3432 C   0  0  0  0  0  0  0  0  0  0  0  0
   46.7350   53.2736   31.7985 C   0  0  2  0  0  0  0  0  0  0  0  0
   45.8585   54.3702   31.9267 O   0  0  0  0  0  0  0  0  0  0  0  0
   47.7065   53.3444   32.9078 C   0  0  1  0  0  0  0  0  0  0  0  0
   48.9138   52.6340   32.6298 O   0  0  0  0  0  0  0  0  0  0  0  0
   47.8412   54.9402   32.9322 C   0  0  2  0  0  0  0  0  0  0  0  0
   48.5229   55.3624   34.0750 O   0  0  0  0  0  0  0  0  0  0  0  0
   46.3667   55.3385   32.9523 C   0  0  1  0  0  0  0  0  0  0  0  0
   46.7592   58.1159   26.2897 O   0  0  0  0  0  0  0  0  0  0  0  0
   48.1492   60.0069   31.8757 N   0  0  0  0  0  0  0  0  0  0  0  0
   48.7636   58.9283   32.3689 C   0  0  0  0  0  0  0  0  0  0  0  0
   48.1086   57.7857   32.5523 N   0  0  0  0  0  0  0  0  0  0  0  0
   46.7842   57.6976   32.3513 C   0  0  0  0  0  0  0  0  0  0  0  0
   46.0763   58.8334   31.8800 C   0  0  0  0  0  0  0  0  0  0  0  0
   46.8233   60.0190   31.6355 C   0  0  0  0  0  0  0  0  0  0  0  0
   46.2113   61.1619   31.1617 N   0  0  0  0  0  0  0  0  0  0  0  0
   44.7834   58.4805   31.7707 N   0  0  0  0  0  0  0  0  0  0  0  0
   44.6416   57.2352   32.1388 C   0  0  0  0  0  0  0  0  0  0  0  0
   45.8443   56.6942   32.4978 N   0  0  0  0  0  0  0  0  0  0  0  0
  2  1  1  1  0  0  0
  2  3  1  0  0  0  0
  2  5  1  0  0  0  0
  3  4  1  0  0  0  0
  3 17  1  0  0  0  0
  5  6  1  0  0  0  0
  7  6  1  6  0  0  0
  7  8  1  0  0  0  0
  7  9  1  0  0  0  0
 10  9  1  6  0  0  0
 10 11  1  0  0  0  0
 10 12  1  0  0  0  0
 11 16  1  0  0  0  0
 12 13  1  6  0  0  0
 12 14  1  0  0  0  0
 14 15  1  1  0  0  0
 14 16  1  0  0  0  0
 16 27  1  6  0  0  0
 18 19  2  0  0  0  0
 18 23  1  0  0  0  0
 19 20  1  0  0  0  0
 20 21  2  0  0  0  0
 21 22  1  0  0  0  0
 21 27  1  0  0  0  0
 22 23  2  0  0  0  0
 22 25  1  0  0  0  0
 23 24  1  0  0  0  0
 25 26  2  0  0  0  0
 26 27  1  0  0  0  0
M  END
>  <CHROM.1>
-19.98588118,55.43469361,-80.46513186,-29.98124422,-84.08960722,61.21099187
-126.34729887,47.30454836,56.17849738,30.54981026,0.02310575,1.36237995,-0.99851825

>  <Name>
ligand

>  <RI>
0

>  <Rbt.Current_Directory>
/home/itssahil/PROJECTS/Mol_Feturizer/New_Systems/rnas/3IQR

>  <Rbt.Executable>
rbdock ($Id: //depot/dev/client3/rdock/2013.1/src/exe/rbdock.cxx#4 $)

>  <Rbt.Library>
libRbt.so (2013.1, Build901 2013/11/27)

>  <Rbt.Parameter_File>
/export/apps/rDock/src/rDock_2013.1_src/data/scripts/dock_solv.prm

>  <Rbt.Receptor>
prm/pocket_docking_2.prm

>  <SCORE>
-10.1906

>  <SCORE.INTER>
-9.95961

>  <SCORE.INTER.CONST>
1

>  <SCORE.INTER.POLAR>
0

>  <SCORE.INTER.ROT>
7

>  <SCORE.INTER.SOLV>
19.5331

>  <SCORE.INTER.VDW>
-21.4174

>  <SCORE.INTER.norm>
-0.368875

>  <SCORE.INTRA>
-0.86152

>  <SCORE.INTRA.DIHEDRAL>
0.13895

>  <SCORE.INTRA.DIHEDRAL.0>
9.29433

>  <SCORE.INTRA.POLAR>
0

>  <SCORE.INTRA.POLAR.0>
0

>  <SCORE.INTRA.REPUL>
0

>  <SCORE.INTRA.REPUL.0>
0

>  <SCORE.INTRA.SOLV>
1.60539

>  <SCORE.INTRA.SOLV.lig_0>
-48.5102

>  <SCORE.INTRA.VDW>
-1.73369

>  <SCORE.INTRA.VDW.0>
0.379549

>  <SCORE.INTRA.norm>
-0.0319081

>  <SCORE.RESTR>
0.630501

>  <SCORE.RESTR.CAVITY>
0.630501

>  <SCORE.RESTR.norm>
0.0233519

>  <SCORE.SYSTEM>
0

>  <SCORE.SYSTEM.CONST>
0

>  <SCORE.SYSTEM.DIHEDRAL>
0

>  <SCORE.SYSTEM.SOLV>
0

>  <SCORE.SYSTEM.norm>
0

>  <SCORE.heavy>
27

>  <SCORE.norm>
-0.377431

>  <RMSD>
2.172

$$$$
ligand
 OpenBabel11021811483D
libRbt.so/2013.1/901 2013/11/27
 27 29  0  0  0  0  0  0  0  0999 V2000
   47.5333   55.7225   26.6550 N   0  0  0  0  0  0  0  0  0  0  0  0
   47.5378   56.0419   28.0818 C   0  0  2  0  0  0  0  0  0  0  0  0
   47.2831   57.5105   28.2621 C   0  0  0  0  0  0  0  0  0  0  0  0
   46.4417   57.8919   29.0689 O   0  0  0  0  0  0  0  0  0  0  0  0
   48.8902   55.6898   28.7001 C   0  0  0  0  0  0  0  0  0  0  0  0
   49.2619   54.2748   28.2957 C   0  0  0  0  0  0  0  0  0  0  0  0
   49.0502   53.0501   29.6268 S   0  0  2  0  0  0  0  0  0  0  0  0
   48.8825   51.4616   28.7603 C   0  0  0  0  0  0  0  0  0  0  0  0
   47.1894   53.0873   29.9729 C   0  0  0  0  0  0  0  0  0  0  0  0
   46.6752   53.4200   31.4362 C   0  0  2  0  0  0  0  0  0  0  0  0
   45.8160   54.5240   31.6102 O   0  0  0  0  0  0  0  0  0  0  0  0
   47.5984   53.3849   32.5875 C   0  0  1  0  0  0  0  0  0  0  0  0
   48.8022   52.6693   32.3075 O   0  0  0  0  0  0  0  0  0  0  0  0
   47.7638   54.9707   32.7386 C   0  0  2  0  0  0  0  0  0  0  0  0
   48.4032   55.2901   33.9378 O   0  0  0  0  0  0  0  0  0  0  0  0
   46.2982   55.4007   32.7268 C   0  0  1  0  0  0  0  0  0  0  0  0
   47.9464   58.3242   27.6320 O   0  0  0  0  0  0  0  0  0  0  0  0
   48.2673   59.9792   31.5910 N   0  0  0  0  0  0  0  0  0  0  0  0
   48.8548   58.8512   31.9988 C   0  0  0  0  0  0  0  0  0  0  0  0
   48.1480   57.7463   32.2180 N   0  0  0  0  0  0  0  0  0  0  0  0
   46.8077   57.7457   32.1422 C   0  0  0  0  0  0  0  0  0  0  0  0
   46.1330   58.9359   31.7663 C   0  0  0  0  0  0  0  0  0  0  0  0
   46.9282   60.0798   31.4786 C   0  0  0  0  0  0  0  0  0  0  0  0
   46.3490   61.2713   31.0913 N   0  0  0  0  0  0  0  0  0  0  0  0
   44.8157   58.6667   31.7728 N   0  0  0  0  0  0  0  0  0  0  0  0
   44.6294   57.4225   32.1245 C   0  0  0  0  0  0  0  0  0  0  0  0
   45.8234   56.7984   32.3550 N   0  0  0  0  0  0  0  0  0  0  0  0
  2  1  1  6  0  0  0
  2  3  1  0  0  0  0
  2  5  1  0  0  0  0
  3  4  1  0  0  0  0
  3 17  1  0  0  0  0
  5  6  1  0  0  0  0
  7  6  1  6  0  0  0
  7  8  1  0  0  0  0
  7  9  1  0  0  0  0
 10  9  1  6  0  0  0
 10 11  1  0  0  0  0
 10 12  1  0  0  0  0
 11 16  1  0  0  0  0
 12 13  1  6  0  0  0
 12 14  1  0  0  0  0
 14 15  1  1  0  0  0
 14 16  1  0  0  0  0
 16 27  1  6  0  0  0
 18 19  2  0  0  0  0
 18 23  1  0  0  0  0
 19 20  1  0  0  0  0
 20 21  2  0  0  0  0
 21 22  1  0  0  0  0
 21 27  1  0  0  0  0
 22 23  2  0  0  0  0
 22 25  1  0  0  0  0
 23 24  1  0  0  0  0
 25 26  2  0  0  0  0
 26 27  1  0  0  0  0
M  END
>  <CHROM.1>
131.58801174,-49.58404800,-104.52519021,157.50195219,-122.55374385,121.76604942
-117.63069381,47.44464919,56.08216088,30.69496233,-0.57226328,1.24647240
-0.76450559

>  <Name>
ligand

>  <RI>
0

>  <Rbt.Current_Directory>
/home/itssahil/PROJECTS/Mol_Feturizer/New_Systems/rnas/3IQR

>  <Rbt.Executable>
rbdock ($Id: //depot/dev/client3/rdock/2013.1/src/exe/rbdock.cxx#4 $)

>  <Rbt.Library>
libRbt.so (2013.1, Build901 2013/11/27)

>  <Rbt.Parameter_File>
/export/apps/rDock/src/rDock_2013.1_src/data/scripts/dock_solv.prm

>  <Rbt.Receptor>
prm/pocket_docking_2.prm

>  <SCORE>
-8.811

>  <SCORE.INTER>
-9.31655

>  <SCORE.INTER.CONST>
1

>  <SCORE.INTER.POLAR>
0

>  <SCORE.INTER.ROT>
7

>  <SCORE.INTER.SOLV>
18.1057

>  <SCORE.INTER.VDW>
-20.5129

>  <SCORE.INTER.norm>
-0.345058

>  <SCORE.INTRA>
0.206456

>  <SCORE.INTRA.DIHEDRAL>
8.33172

>  <SCORE.INTRA.DIHEDRAL.0>
9.29433

>  <SCORE.INTRA.POLAR>
0

>  <SCORE.INTRA.POLAR.0>
0

>  <SCORE.INTRA.REPUL>
0

>  <SCORE.INTRA.REPUL.0>
0

>  <SCORE.INTRA.SOLV>
0.218085

>  <SCORE.INTRA.SOLV.lig_0>
-48.5102

>  <SCORE.INTRA.VDW>
-4.06845

>  <SCORE.INTRA.VDW.0>
0.379549

>  <SCORE.INTRA.norm>
0.00764652

>  <SCORE.RESTR>
0.299097

>  <SCORE.RESTR.CAVITY>
0.299097

>  <SCORE.RESTR.norm>
0.0110777

>  <SCORE.SYSTEM>
0

>  <SCORE.SYSTEM.CONST>
0

>  <SCORE.SYSTEM.DIHEDRAL>
0

>  <SCORE.SYSTEM.SOLV>
0

>  <SCORE.SYSTEM.norm>
0

>  <SCORE.heavy>
27

>  <SCORE.norm>
-0.326333

>  <RMSD>
2.205

$$$$
ligand
 OpenBabel11021811483D
libRbt.so/2013.1/901 2013/11/27
 27 29  0  0  0  0  0  0  0  0999 V2000
   47.0199   57.4932   25.7152 N   0  0  0  0  0  0  0  0  0  0  0  0
   46.8494   56.8726   27.0280 C   0  0  2  0  0  0  0  0  0  0  0  0
   47.4061   57.7837   28.0835 C   0  0  0  0  0  0  0  0  0  0  0  0
   46.7009   58.1356   29.0233 O   0  0  0  0  0  0  0  0  0  0  0  0
   47.5871   55.5354   27.0825 C   0  0  0  0  0  0  0  0  0  0  0  0
   47.3939   54.9234   28.4581 C   0  0  0  0  0  0  0  0  0  0  0  0
   48.0486   53.2307   28.6083 S   0  0  2  0  0  0  0  0  0  0  0  0
   47.0658   52.2570   27.4301 C   0  0  0  0  0  0  0  0  0  0  0  0
   47.0747   52.5050   30.0605 C   0  0  0  0  0  0  0  0  0  0  0  0
   47.3537   53.0357   31.5290 C   0  0  2  0  0  0  0  0  0  0  0  0
   46.5098   54.0367   32.0518 O   0  0  0  0  0  0  0  0  0  0  0  0
   48.7290   53.3299   31.9774 C   0  0  1  0  0  0  0  0  0  0  0  0
   49.7212   52.7312   31.1428 O   0  0  0  0  0  0  0  0  0  0  0  0
   48.6186   54.9244   31.8740 C   0  0  2  0  0  0  0  0  0  0  0  0
   49.7122   55.5376   32.4881 O   0  0  0  0  0  0  0  0  0  0  0  0
   47.3155   55.1580   32.6358 C   0  0  1  0  0  0  0  0  0  0  0  0
   48.5762   58.1393   28.0238 O   0  0  0  0  0  0  0  0  0  0  0  0
   47.8132   60.1417   31.6130 N   0  0  0  0  0  0  0  0  0  0  0  0
   48.7326   59.1956   31.8220 C   0  0  0  0  0  0  0  0  0  0  0  0
   48.3827   57.9334   32.0513 N   0  0  0  0  0  0  0  0  0  0  0  0
   47.0956   57.5770   32.1877 C   0  0  0  0  0  0  0  0  0  0  0  0
   46.0830   58.5582   32.0294 C   0  0  0  0  0  0  0  0  0  0  0  0
   46.4948   59.8847   31.7223 C   0  0  0  0  0  0  0  0  0  0  0  0
   45.5707   60.8931   31.5378 N   0  0  0  0  0  0  0  0  0  0  0  0
   44.9011   57.9459   32.2195 N   0  0  0  0  0  0  0  0  0  0  0  0
   45.1050   56.6832   32.4849 C   0  0  0  0  0  0  0  0  0  0  0  0
   46.4404   56.3923   32.4684 N   0  0  0  0  0  0  0  0  0  0  0  0
  2  1  1  6  0  0  0
  2  3  1  0  0  0  0
  2  5  1  0  0  0  0
  3  4  1  0  0  0  0
  3 17  1  0  0  0  0
  5  6  1  0  0  0  0
  7  6  1  6  0  0  0
  7  8  1  0  0  0  0
  7  9  1  0  0  0  0
 10  9  1  6  0  0  0
 10 11  1  0  0  0  0
 10 12  1  0  0  0  0
 11 16  1  0  0  0  0
 12 13  1  6  0  0  0
 12 14  1  0  0  0  0
 14 15  1  1  0  0  0
 14 16  1  0  0  0  0
 16 27  1  6  0  0  0
 18 19  2  0  0  0  0
 18 23  1  0  0  0  0
 19 20  1  0  0  0  0
 20 21  2  0  0  0  0
 21 22  1  0  0  0  0
 21 27  1  0  0  0  0
 22 23  2  0  0  0  0
 22 25  1  0  0  0  0
 23 24  1  0  0  0  0
 25 26  2  0  0  0  0
 26 27  1  0  0  0  0
M  END
>  <CHROM.1>
124.93761019,179.76223588,172.98568516,-62.88909787,-70.20465699,96.48332025
-144.28517686,47.40997064,56.11850229,30.36618023,0.35706622,1.36921962,-1.60605627

>  <Name>
ligand

>  <RI>
0

>  <Rbt.Current_Directory>
/home/itssahil/PROJECTS/Mol_Feturizer/New_Systems/rnas/3IQR

>  <Rbt.Executable>
rbdock ($Id: //depot/dev/client3/rdock/2013.1/src/exe/rbdock.cxx#4 $)

>  <Rbt.Library>
libRbt.so (2013.1, Build901 2013/11/27)

>  <Rbt.Parameter_File>
/export/apps/rDock/src/rDock_2013.1_src/data/scripts/dock_solv.prm

>  <Rbt.Receptor>
prm/pocket_docking_2.prm

>  <SCORE>
-14.1603

>  <SCORE.INTER>
-8.3487

>  <SCORE.INTER.CONST>
1

>  <SCORE.INTER.POLAR>
0

>  <SCORE.INTER.ROT>
7

>  <SCORE.INTER.SOLV>
24.6048

>  <SCORE.INTER.VDW>
-22.0341

>  <SCORE.INTER.norm>
-0.309211

>  <SCORE.INTRA>
-5.96633

>  <SCORE.INTRA.DIHEDRAL>
-2.05999

>  <SCORE.INTRA.DIHEDRAL.0>
9.29433

>  <SCORE.INTRA.POLAR>
0

>  <SCORE.INTRA.POLAR.0>
0

>  <SCORE.INTRA.REPUL>
0

>  <SCORE.INTRA.REPUL.0>
0

>  <SCORE.INTRA.SOLV>
-1.21358

>  <SCORE.INTRA.SOLV.lig_0>
-48.5102

>  <SCORE.INTRA.VDW>
-4.32954

>  <SCORE.INTRA.VDW.0>
0.379549

>  <SCORE.INTRA.norm>
-0.220975

>  <SCORE.RESTR>
0.154724

>  <SCORE.RESTR.CAVITY>
0.154724

>  <SCORE.RESTR.norm>
0.0057305

>  <SCORE.SYSTEM>
0

>  <SCORE.SYSTEM.CONST>
0

>  <SCORE.SYSTEM.DIHEDRAL>
0

>  <SCORE.SYSTEM.SOLV>
0

>  <SCORE.SYSTEM.norm>
0

>  <SCORE.heavy>
27

>  <SCORE.norm>
-0.524456

>  <RMSD>
2.220

$$$$
ligand
 OpenBabel11021811483D
libRbt.so/2013.1/901 2013/11/27
 27 29  0  0  0  0  0  0  0  0999 V2000
   48.5718   58.2415   27.9839 N   0  0  0  0  0  0  0  0  0  0  0  0
   47.7837   57.1066   27.5056 C   0  0  2  0  0  0  0  0  0  0  0  0
   46.4013   57.1827   28.0864 C   0  0  0  0  0  0  0  0  0  0  0  0
   46.2218   57.7253   29.1716 O   0  0  0  0  0  0  0  0  0  0  0  0
   48.4337   55.7914   27.9336 C   0  0  0  0  0  0  0  0  0  0  0  0
   48.8681   55.9070   29.3833 C   0  0  0  0  0  0  0  0  0  0  0  0
   49.4351   54.3357   30.1086 S   0  0  2  0  0  0  0  0  0  0  0  0
   50.0193   53.3642   28.6883 C   0  0  0  0  0  0  0  0  0  0  0  0
   47.8564   53.2953   30.2041 C   0  0  0  0  0  0  0  0  0  0  0  0
   46.8844   53.4657   31.4460 C   0  0  2  0  0  0  0  0  0  0  0  0
   45.9634   54.5329   31.4352 O   0  0  0  0  0  0  0  0  0  0  0  0
   47.3897   53.3239   32.8258 C   0  0  1  0  0  0  0  0  0  0  0  0
   48.6523   52.6591   32.8852 O   0  0  0  0  0  0  0  0  0  0  0  0
   47.4222   54.8875   33.1710 C   0  0  2  0  0  0  0  0  0  0  0  0
   47.6268   55.0891   34.5372 O   0  0  0  0  0  0  0  0  0  0  0  0
   46.0193   55.2950   32.7251 C   0  0  1  0  0  0  0  0  0  0  0  0
   45.4513   56.7388   27.4544 O   0  0  0  0  0  0  0  0  0  0  0  0
   48.2177   59.8435   31.9448 N   0  0  0  0  0  0  0  0  0  0  0  0
   48.7296   58.6865   32.3732 C   0  0  0  0  0  0  0  0  0  0  0  0
   47.9744   57.5976   32.4834 N   0  0  0  0  0  0  0  0  0  0  0  0
   46.6494   57.6398   32.2720 C   0  0  0  0  0  0  0  0  0  0  0  0
   46.0492   58.8606   31.8686 C   0  0  0  0  0  0  0  0  0  0  0  0
   46.9003   59.9879   31.7005 C   0  0  0  0  0  0  0  0  0  0  0  0
   46.3963   61.2073   31.2955 N   0  0  0  0  0  0  0  0  0  0  0  0
   44.7313   58.6313   31.7327 N   0  0  0  0  0  0  0  0  0  0  0  0
   44.4764   57.3834   32.0229 C   0  0  0  0  0  0  0  0  0  0  0  0
   45.6231   56.7168   32.3528 N   0  0  0  0  0  0  0  0  0  0  0  0
  2  1  1  1  0  0  0
  2  3  1  0  0  0  0
  2  5  1  0  0  0  0
  3  4  1  0  0  0  0
  3 17  1  0  0  0  0
  5  6  1  0  0  0  0
  7  6  1  6  0  0  0
  7  8  1  0  0  0  0
  7  9  1  0  0  0  0
 10  9  1  6  0  0  0
 10 11  1  0  0  0  0
 10 12  1  0  0  0  0
 11 16  1  0  0  0  0
 12 13  1  6  0  0  0
 12 14  1  0  0  0  0
 14 15  1  1  0  0  0
 14 16  1  0  0  0  0
 16 27  1  6  0  0  0
 18 19  2  0  0  0  0
 18 23  1  0  0  0  0
 19 20  1  0  0  0  0
 20 21  2  0  0  0  0
 21 22  1  0  0  0  0
 21 27  1  0  0  0  0
 22 23  2  0  0  0  0
 22 25  1  0  0  0  0
 23 24  1  0  0  0  0
 25 26  2  0  0  0  0
 26 27  1  0  0  0  0
M  END
>  <CHROM.1>
-28.44950855,44.00646119,171.37667631,25.99193256,-84.10256698,82.09740841
-103.58294580,47.33451550,56.32830313,30.88569387,-2.55209361,-1.15585754
2.19568032

>  <Name>
ligand

>  <RI>
0

>  <Rbt.Current_Directory>
/home/itssahil/PROJECTS/Mol_Feturizer/New_Systems/rnas/3IQR

>  <Rbt.Executable>
rbdock ($Id: //depot/dev/client3/rdock/2013.1/src/exe/rbdock.cxx#4 $)

>  <Rbt.Library>
libRbt.so (2013.1, Build901 2013/11/27)

>  <Rbt.Parameter_File>
/export/apps/rDock/src/rDock_2013.1_src/data/scripts/dock_solv.prm

>  <Rbt.Receptor>
prm/pocket_docking_2.prm

>  <SCORE>
-12.3248

>  <SCORE.INTER>
-9.3153

>  <SCORE.INTER.CONST>
1

>  <SCORE.INTER.POLAR>
0

>  <SCORE.INTER.ROT>
7

>  <SCORE.INTER.SOLV>
24.2945

>  <SCORE.INTER.VDW>
-22.575

>  <SCORE.INTER.norm>
-0.345011

>  <SCORE.INTRA>
-3.95271

>  <SCORE.INTRA.DIHEDRAL>
-0.91631

>  <SCORE.INTRA.DIHEDRAL.0>
9.29433

>  <SCORE.INTRA.POLAR>
0

>  <SCORE.INTRA.POLAR.0>
0

>  <SCORE.INTRA.REPUL>
0

>  <SCORE.INTRA.REPUL.0>
0

>  <SCORE.INTRA.SOLV>
-0.541921

>  <SCORE.INTRA.SOLV.lig_0>
-48.5102

>  <SCORE.INTRA.VDW>
-3.2236

>  <SCORE.INTRA.VDW.0>
0.379549

>  <SCORE.INTRA.norm>
-0.146397

>  <SCORE.RESTR>
0.943194

>  <SCORE.RESTR.CAVITY>
0.943194

>  <SCORE.RESTR.norm>
0.0349331

>  <SCORE.SYSTEM>
0

>  <SCORE.SYSTEM.CONST>
0

>  <SCORE.SYSTEM.DIHEDRAL>
0

>  <SCORE.SYSTEM.SOLV>
0

>  <SCORE.SYSTEM.norm>
0

>  <SCORE.heavy>
27

>  <SCORE.norm>
-0.456475

>  <RMSD>
2.231

$$$$
ligand
 OpenBabel11021811483D
libRbt.so/2013.1/901 2013/11/27
 27 29  0  0  0  0  0  0  0  0999 V2000
   48.5754   58.2526   27.9482 N   0  0  0  0  0  0  0  0  0  0  0  0
   47.7495   57.1321   27.5006 C   0  0  2  0  0  0  0  0  0  0  0  0
   46.3728   57.2665   28.0844 C   0  0  0  0  0  0  0  0  0  0  0  0
   45.4133   56.7581   27.5142 O   0  0  0  0  0  0  0  0  0  0  0  0
   48.3591   55.8077   27.9584 C   0  0  0  0  0  0  0  0  0  0  0  0
   48.8133   55.9480   29.3999 C   0  0  0  0  0  0  0  0  0  0  0  0
   49.4445   54.4017   30.1258 S   0  0  2  0  0  0  0  0  0  0  0  0
   50.0721   53.4563   28.7064 C   0  0  0  0  0  0  0  0  0  0  0  0
   47.9109   53.2956   30.2176 C   0  0  0  0  0  0  0  0  0  0  0  0
   46.9165   53.4420   31.4448 C   0  0  2  0  0  0  0  0  0  0  0  0
   45.9850   54.5000   31.4306 O   0  0  0  0  0  0  0  0  0  0  0  0
   47.4000   53.2893   32.8312 C   0  0  1  0  0  0  0  0  0  0  0  0
   48.6682   52.6366   32.9044 O   0  0  0  0  0  0  0  0  0  0  0  0
   47.4108   54.8492   33.1947 C   0  0  2  0  0  0  0  0  0  0  0  0
   47.5904   55.0371   34.5663 O   0  0  0  0  0  0  0  0  0  0  0  0
   46.0114   55.2476   32.7298 C   0  0  1  0  0  0  0  0  0  0  0  0
   46.2189   57.8487   29.1504 O   0  0  0  0  0  0  0  0  0  0  0  0
   48.1826   59.8155   31.9873 N   0  0  0  0  0  0  0  0  0  0  0  0
   48.7009   58.6587   32.4083 C   0  0  0  0  0  0  0  0  0  0  0  0
   47.9524   57.5643   32.5090 N   0  0  0  0  0  0  0  0  0  0  0  0
   46.6276   57.5997   32.2951 C   0  0  0  0  0  0  0  0  0  0  0  0
   46.0205   58.8195   31.8993 C   0  0  0  0  0  0  0  0  0  0  0  0
   46.8648   59.9534   31.7412 C   0  0  0  0  0  0  0  0  0  0  0  0
   46.3540   61.1725   31.3440 N   0  0  0  0  0  0  0  0  0  0  0  0
   44.7044   58.5829   31.7589 N   0  0  0  0  0  0  0  0  0  0  0  0
   44.4568   57.3313   32.0395 C   0  0  0  0  0  0  0  0  0  0  0  0
   45.6070   56.6696   32.3670 N   0  0  0  0  0  0  0  0  0  0  0  0
  2  1  1  1  0  0  0
  2  3  1  0  0  0  0
  2  5  1  0  0  0  0
  3  4  1  0  0  0  0
  3 17  1  0  0  0  0
  5  6  1  0  0  0  0
  7  6  1  6  0  0  0
  7  8  1  0  0  0  0
  7  9  1  0  0  0  0
 10  9  1  6  0  0  0
 10 11  1  0  0  0  0
 10 12  1  0  0  0  0
 11 16  1  0  0  0  0
 12 13  1  6  0  0  0
 12 14  1  0  0  0  0
 14 15  1  1  0  0  0
 14 16  1  0  0  0  0
 16 27  1  6  0  0  0
 18 19  2  0  0  0  0
 18 23  1  0  0  0  0
 19 20  1  0  0  0  0
 20 21  2  0  0  0  0
 21 22  1  0  0  0  0
 21 27  1  0  0  0  0
 22 23  2  0  0  0  0
 22 25  1  0  0  0  0
 23 24  1  0  0  0  0
 25 26  2  0  0  0  0
 26 27  1  0  0  0  0
M  END
>  <CHROM.1>
154.31075443,43.56395820,175.44304501,27.24734121,-83.04392924,79.67167723
-102.68074276,47.32264000,56.32691867,30.90285630,-2.52385221,-1.14358606
2.19398979

>  <Name>
ligand

>  <RI>
0

>  <Rbt.Current_Directory>
/home/itssahil/PROJECTS/Mol_Feturizer/New_Systems/rnas/3IQR

>  <Rbt.Executable>
rbdock ($Id: //depot/dev/client3/rdock/2013.1/src/exe/rbdock.cxx#4 $)

>  <Rbt.Library>
libRbt.so (2013.1, Build901 2013/11/27)

>  <Rbt.Parameter_File>
/export/apps/rDock/src/rDock_2013.1_src/data/scripts/dock_solv.prm

>  <Rbt.Receptor>
prm/pocket_docking_2.prm

>  <SCORE>
-12.8438

>  <SCORE.INTER>
-9.51158

>  <SCORE.INTER.CONST>
1

>  <SCORE.INTER.POLAR>
0

>  <SCORE.INTER.ROT>
7

>  <SCORE.INTER.SOLV>
24.1949

>  <SCORE.INTER.VDW>
-22.6727

>  <SCORE.INTER.norm>
-0.352281

>  <SCORE.INTRA>
-4.30058

>  <SCORE.INTRA.DIHEDRAL>
-1.6679

>  <SCORE.INTRA.DIHEDRAL.0>
9.29433

>  <SCORE.INTRA.POLAR>
0

>  <SCORE.INTRA.POLAR.0>
0

>  <SCORE.INTRA.REPUL>
0

>  <SCORE.INTRA.REPUL.0>
0

>  <SCORE.INTRA.SOLV>
-0.52347

>  <SCORE.INTRA.SOLV.lig_0>
-48.5102

>  <SCORE.INTRA.VDW>
-3.20489

>  <SCORE.INTRA.VDW.0>
0.379549

>  <SCORE.INTRA.norm>
-0.159281

>  <SCORE.RESTR>
0.968363

>  <SCORE.RESTR.CAVITY>
0.968363

>  <SCORE.RESTR.norm>
0.0358653

>  <SCORE.SYSTEM>
0

>  <SCORE.SYSTEM.CONST>
0

>  <SCORE.SYSTEM.DIHEDRAL>
0

>  <SCORE.SYSTEM.SOLV>
0

>  <SCORE.SYSTEM.norm>
0

>  <SCORE.heavy>
27

>  <SCORE.norm>
-0.475696

>  <RMSD>
2.246

$$$$
ligand
 OpenBabel11021811483D
libRbt.so/2013.1/901 2013/11/27
 27 29  0  0  0  0  0  0  0  0999 V2000
   47.6119   56.6517   26.3770 N   0  0  0  0  0  0  0  0  0  0  0  0
   46.8976   56.8340   27.6397 C   0  0  2  0  0  0  0  0  0  0  0  0
   47.4631   58.0223   28.3623 C   0  0  0  0  0  0  0  0  0  0  0  0
   48.5982   58.4111   28.1077 O   0  0  0  0  0  0  0  0  0  0  0  0
   47.0513   55.5944   28.5199 C   0  0  0  0  0  0  0  0  0  0  0  0
   47.4346   54.4148   27.6449 C   0  0  0  0  0  0  0  0  0  0  0  0
   48.3843   53.1295   28.5181 S   0  0  2  0  0  0  0  0  0  0  0  0
   48.1323   51.6267   27.5279 C   0  0  0  0  0  0  0  0  0  0  0  0
   47.1751   52.4985   29.8310 C   0  0  0  0  0  0  0  0  0  0  0  0
   47.3398   52.9743   31.3352 C   0  0  2  0  0  0  0  0  0  0  0  0
   46.4545   53.9537   31.8295 O   0  0  0  0  0  0  0  0  0  0  0  0
   48.6759   53.2533   31.8974 C   0  0  1  0  0  0  0  0  0  0  0  0
   49.7310   52.6877   31.1186 O   0  0  0  0  0  0  0  0  0  0  0  0
   48.5670   54.8504   31.8454 C   0  0  2  0  0  0  0  0  0  0  0  0
   49.6083   55.4417   32.5631 O   0  0  0  0  0  0  0  0  0  0  0  0
   47.2089   55.0535   32.5143 C   0  0  1  0  0  0  0  0  0  0  0  0
   46.7728   58.6248   29.1745 O   0  0  0  0  0  0  0  0  0  0  0  0
   47.7614   60.0704   31.7045 N   0  0  0  0  0  0  0  0  0  0  0  0
   48.6666   59.1186   31.9463 C   0  0  0  0  0  0  0  0  0  0  0  0
   48.3056   57.8487   32.1056 N   0  0  0  0  0  0  0  0  0  0  0  0
   47.0133   57.4865   32.1360 C   0  0  0  0  0  0  0  0  0  0  0  0
   46.0113   58.4715   31.9391 C   0  0  0  0  0  0  0  0  0  0  0  0
   46.4395   59.8084   31.7090 C   0  0  0  0  0  0  0  0  0  0  0  0
   45.5275   60.8217   31.4933 N   0  0  0  0  0  0  0  0  0  0  0  0
   44.8209   57.8517   32.0218 N   0  0  0  0  0  0  0  0  0  0  0  0
   45.0096   56.5807   32.2570 C   0  0  0  0  0  0  0  0  0  0  0  0
   46.3437   56.2920   32.3271 N   0  0  0  0  0  0  0  0  0  0  0  0
  2  1  1  6  0  0  0
  2  3  1  0  0  0  0
  2  5  1  0  0  0  0
  3  4  1  0  0  0  0
  3 17  1  0  0  0  0
  5  6  1  0  0  0  0
  7  6  1  6  0  0  0
  7  8  1  0  0  0  0
  7  9  1  0  0  0  0
 10  9  1  6  0  0  0
 10 11  1  0  0  0  0
 10 12  1  0  0  0  0
 11 16  1  0  0  0  0
 12 13  1  6  0  0  0
 12 14  1  0  0  0  0
 14 15  1  1  0  0  0
 14 16  1  0  0  0  0
 16 27  1  6  0  0  0
 18 19  2  0  0  0  0
 18 23  1  0  0  0  0
 19 20  1  0  0  0  0
 20 21  2  0  0  0  0
 21 22  1  0  0  0  0
 21 27  1  0  0  0  0
 22 23  2  0  0  0  0
 22 25  1  0  0  0  0
 23 24  1  0  0  0  0
 25 26  2  0  0  0  0
 26 27  1  0  0  0  0
M  END
>  <CHROM.1>
-22.23120877,-20.61390730,152.88862294,157.90804430,-102.40251850,103.50835347
-144.03744276,47.45532891,56.02844744,30.40141714,0.04748269,1.34343668,-1.30365607

>  <Name>
ligand

>  <RI>
0

>  <Rbt.Current_Directory>
/home/itssahil/PROJECTS/Mol_Feturizer/New_Systems/rnas/3IQR

>  <Rbt.Executable>
rbdock ($Id: //depot/dev/client3/rdock/2013.1/src/exe/rbdock.cxx#4 $)

>  <Rbt.Library>
libRbt.so (2013.1, Build901 2013/11/27)

>  <Rbt.Parameter_File>
/export/apps/rDock/src/rDock_2013.1_src/data/scripts/dock_solv.prm

>  <Rbt.Receptor>
prm/pocket_docking_2.prm

>  <SCORE>
-5.47177

>  <SCORE.INTER>
-6.40862

>  <SCORE.INTER.CONST>
1

>  <SCORE.INTER.POLAR>
0

>  <SCORE.INTER.ROT>
7

>  <SCORE.INTER.SOLV>
20.1872

>  <SCORE.INTER.VDW>
-19.2681

>  <SCORE.INTER.norm>
-0.237356

>  <SCORE.INTRA>
0.714968

>  <SCORE.INTRA.DIHEDRAL>
7.88327

>  <SCORE.INTRA.DIHEDRAL.0>
9.29433

>  <SCORE.INTRA.POLAR>
0

>  <SCORE.INTRA.POLAR.0>
0

>  <SCORE.INTRA.REPUL>
0

>  <SCORE.INTRA.REPUL.0>
0

>  <SCORE.INTRA.SOLV>
0.598096

>  <SCORE.INTRA.SOLV.lig_0>
-48.5102

>  <SCORE.INTRA.VDW>
-3.52571

>  <SCORE.INTRA.VDW.0>
0.379549

>  <SCORE.INTRA.norm>
0.0264803

>  <SCORE.RESTR>
0.221883

>  <SCORE.RESTR.CAVITY>
0.221883

>  <SCORE.RESTR.norm>
0.00821788

>  <SCORE.SYSTEM>
0

>  <SCORE.SYSTEM.CONST>
0

>  <SCORE.SYSTEM.DIHEDRAL>
0

>  <SCORE.SYSTEM.SOLV>
0

>  <SCORE.SYSTEM.norm>
0

>  <SCORE.heavy>
27

>  <SCORE.norm>
-0.202658

>  <RMSD>
2.255

$$$$
ligand
 OpenBabel11021811483D
libRbt.so/2013.1/901 2013/11/27
 27 29  0  0  0  0  0  0  0  0999 V2000
   48.8013   55.0773   26.7247 N   0  0  0  0  0  0  0  0  0  0  0  0
   47.6755   55.4397   27.5845 C   0  0  2  0  0  0  0  0  0  0  0  0
   46.9818   56.6422   27.0128 C   0  0  0  0  0  0  0  0  0  0  0  0
   47.5942   57.4123   26.2805 O   0  0  0  0  0  0  0  0  0  0  0  0
   48.1683   55.7698   28.9928 C   0  0  0  0  0  0  0  0  0  0  0  0
   48.1061   54.5134   29.8423 C   0  0  0  0  0  0  0  0  0  0  0  0
   46.5563   53.5754   29.6552 S   0  0  2  0  0  0  0  0  0  0  0  0
   45.2585   54.7311   30.1866 C   0  0  0  0  0  0  0  0  0  0  0  0
   46.4132   52.6242   31.2857 C   0  0  0  0  0  0  0  0  0  0  0  0
   46.5876   53.3997   32.6584 C   0  0  2  0  0  0  0  0  0  0  0  0
   45.8928   54.6133   32.8360 O   0  0  0  0  0  0  0  0  0  0  0  0
   47.9197   53.5514   33.2764 C   0  0  1  0  0  0  0  0  0  0  0  0
   48.8798   52.6350   32.7493 O   0  0  0  0  0  0  0  0  0  0  0  0
   48.1387   55.0841   32.8662 C   0  0  2  0  0  0  0  0  0  0  0  0
   49.2370   55.6245   33.5376 O   0  0  0  0  0  0  0  0  0  0  0  0
   46.8150   55.6844   33.3358 C   0  0  1  0  0  0  0  0  0  0  0  0
   45.7944   56.8272   27.2468 O   0  0  0  0  0  0  0  0  0  0  0  0
   48.4127   60.1340   31.3918 N   0  0  0  0  0  0  0  0  0  0  0  0
   49.0957   59.1137   31.9177 C   0  0  0  0  0  0  0  0  0  0  0  0
   48.4759   58.0194   32.3497 N   0  0  0  0  0  0  0  0  0  0  0  0
   47.1362   57.9367   32.3742 C   0  0  0  0  0  0  0  0  0  0  0  0
   46.3646   59.0187   31.8771 C   0  0  0  0  0  0  0  0  0  0  0  0
   47.0655   60.1458   31.3651 C   0  0  0  0  0  0  0  0  0  0  0  0
   46.3881   61.2322   30.8495 N   0  0  0  0  0  0  0  0  0  0  0  0
   45.0701   58.6847   32.0209 N   0  0  0  0  0  0  0  0  0  0  0  0
   44.9862   57.5004   32.5658 C   0  0  0  0  0  0  0  0  0  0  0  0
   46.2296   56.9823   32.7972 N   0  0  0  0  0  0  0  0  0  0  0  0
  2  1  1  6  0  0  0
  2  3  1  0  0  0  0
  2  5  1  0  0  0  0
  3  4  1  0  0  0  0
  3 17  1  0  0  0  0
  5  6  1  0  0  0  0
  7  6  1  1  0  0  0
  7  8  1  0  0  0  0
  7  9  1  0  0  0  0
 10  9  1  6  0  0  0
 10 11  1  0  0  0  0
 10 12  1  0  0  0  0
 11 16  1  0  0  0  0
 12 13  1  6  0  0  0
 12 14  1  0  0  0  0
 14 15  1  1  0  0  0
 14 16  1  0  0  0  0
 16 27  1  6  0  0  0
 18 19  2  0  0  0  0
 18 23  1  0  0  0  0
 19 20  1  0  0  0  0
 20 21  2  0  0  0  0
 21 22  1  0  0  0  0
 21 27  1  0  0  0  0
 22 23  2  0  0  0  0
 22 25  1  0  0  0  0
 23 24  1  0  0  0  0
 25 26  2  0  0  0  0
 26 27  1  0  0  0  0
M  END
>  <CHROM.1>
-24.35036710,-92.78710182,-45.09399878,-60.62857782,49.52194700,47.19189822
-141.86436515,47.16472284,56.17126202,30.85495034,0.09118942,1.52553911,-1.71733990

>  <Name>
ligand

>  <RI>
0

>  <Rbt.Current_Directory>
/home/itssahil/PROJECTS/Mol_Feturizer/New_Systems/rnas/3IQR

>  <Rbt.Executable>
rbdock ($Id: //depot/dev/client3/rdock/2013.1/src/exe/rbdock.cxx#4 $)

>  <Rbt.Library>
libRbt.so (2013.1, Build901 2013/11/27)

>  <Rbt.Parameter_File>
/export/apps/rDock/src/rDock_2013.1_src/data/scripts/dock_solv.prm

>  <Rbt.Receptor>
prm/pocket_docking_2.prm

>  <SCORE>
-9.29874

>  <SCORE.INTER>
-8.14088

>  <SCORE.INTER.CONST>
1

>  <SCORE.INTER.POLAR>
0

>  <SCORE.INTER.ROT>
7

>  <SCORE.INTER.SOLV>
18.9276

>  <SCORE.INTER.VDW>
-20.0031

>  <SCORE.INTER.norm>
-0.301514

>  <SCORE.INTRA>
-2.66044

>  <SCORE.INTRA.DIHEDRAL>
-0.249988

>  <SCORE.INTRA.DIHEDRAL.0>
9.29433

>  <SCORE.INTRA.POLAR>
0

>  <SCORE.INTRA.POLAR.0>
0

>  <SCORE.INTRA.REPUL>
0

>  <SCORE.INTRA.REPUL.0>
0

>  <SCORE.INTRA.SOLV>
-0.0632571

>  <SCORE.INTRA.SOLV.lig_0>
-48.5102

>  <SCORE.INTRA.VDW>
-2.50382

>  <SCORE.INTRA.VDW.0>
0.379549

>  <SCORE.INTRA.norm>
-0.0985349

>  <SCORE.RESTR>
1.50258

>  <SCORE.RESTR.CAVITY>
1.50258

>  <SCORE.RESTR.norm>
0.0556513

>  <SCORE.SYSTEM>
0

>  <SCORE.SYSTEM.CONST>
0

>  <SCORE.SYSTEM.DIHEDRAL>
0

>  <SCORE.SYSTEM.SOLV>
0

>  <SCORE.SYSTEM.norm>
0

>  <SCORE.heavy>
27

>  <SCORE.norm>
-0.344398

>  <RMSD>
2.263

$$$$
ligand
 OpenBabel11021811483D
libRbt.so/2013.1/901 2013/11/27
 27 29  0  0  0  0  0  0  0  0999 V2000
   46.1435   55.9069   27.2214 N   0  0  0  0  0  0  0  0  0  0  0  0
   47.3717   56.2918   27.9152 C   0  0  2  0  0  0  0  0  0  0  0  0
   47.5053   57.7871   27.8943 C   0  0  0  0  0  0  0  0  0  0  0  0
   47.2773   58.4082   26.8615 O   0  0  0  0  0  0  0  0  0  0  0  0
   48.5867   55.6720   27.2262 C   0  0  0  0  0  0  0  0  0  0  0  0
   48.8023   54.2733   27.7749 C   0  0  0  0  0  0  0  0  0  0  0  0
   48.9632   54.2115   29.5879 S   0  0  2  0  0  0  0  0  0  0  0  0
   50.1168   52.8415   29.8954 C   0  0  0  0  0  0  0  0  0  0  0  0
   47.5015   53.1359   30.1271 C   0  0  0  0  0  0  0  0  0  0  0  0
   46.7702   53.4460   31.5002 C   0  0  2  0  0  0  0  0  0  0  0  0
   45.9003   54.5536   31.5615 O   0  0  0  0  0  0  0  0  0  0  0  0
   47.5053   53.3822   32.7788 C   0  0  1  0  0  0  0  0  0  0  0  0
   48.7341   52.6622   32.6732 O   0  0  0  0  0  0  0  0  0  0  0  0
   47.6538   54.9637   32.9841 C   0  0  2  0  0  0  0  0  0  0  0  0
   48.1029   55.2559   34.2733 O   0  0  0  0  0  0  0  0  0  0  0  0
   46.2097   55.4057   32.7556 C   0  0  1  0  0  0  0  0  0  0  0  0
   47.8017   58.3852   28.9207 O   0  0  0  0  0  0  0  0  0  0  0  0
   48.4044   59.8349   31.4532 N   0  0  0  0  0  0  0  0  0  0  0  0
   48.9361   58.6912   31.8927 C   0  0  0  0  0  0  0  0  0  0  0  0
   48.1747   57.6328   32.1541 N   0  0  0  0  0  0  0  0  0  0  0  0
   46.8355   57.7005   32.0900 C   0  0  0  0  0  0  0  0  0  0  0  0
   46.2202   58.9119   31.6813 C   0  0  0  0  0  0  0  0  0  0  0  0
   47.0712   60.0024   31.3493 C   0  0  0  0  0  0  0  0  0  0  0  0
   46.5514   61.2096   30.9283 N   0  0  0  0  0  0  0  0  0  0  0  0
   44.8907   58.7129   31.7082 N   0  0  0  0  0  0  0  0  0  0  0  0
   44.6431   57.4923   32.1020 C   0  0  0  0  0  0  0  0  0  0  0  0
   45.8050   56.8138   32.3424 N   0  0  0  0  0  0  0  0  0  0  0  0
  2  1  1  6  0  0  0
  2  3  1  0  0  0  0
  2  5  1  0  0  0  0
  3  4  1  0  0  0  0
  3 17  1  0  0  0  0
  5  6  1  0  0  0  0
  7  6  1  6  0  0  0
  7  8  1  0  0  0  0
  7  9  1  0  0  0  0
 10  9  1  6  0  0  0
 10 11  1  0  0  0  0
 10 12  1  0  0  0  0
 11 16  1  0  0  0  0
 12 13  1  6  0  0  0
 12 14  1  0  0  0  0
 14 15  1  1  0  0  0
 14 16  1  0  0  0  0
 16 27  1  6  0  0  0
 18 19  2  0  0  0  0
 18 23  1  0  0  0  0
 19 20  1  0  0  0  0
 20 21  2  0  0  0  0
 21 22  1  0  0  0  0
 21 27  1  0  0  0  0
 22 23  2  0  0  0  0
 22 25  1  0  0  0  0
 23 24  1  0  0  0  0
 25 26  2  0  0  0  0
 26 27  1  0  0  0  0
M  END
>  <CHROM.1>
-44.08054766,-85.85715683,-55.07746779,-147.25641731,-145.66250036,75.53972318
-107.44521229,47.45641613,56.26255237,30.65154189,-2.49735754,-1.24359200
2.21908870

>  <Name>
ligand

>  <RI>
0

>  <Rbt.Current_Directory>
/home/itssahil/PROJECTS/Mol_Feturizer/New_Systems/rnas/3IQR

>  <Rbt.Executable>
rbdock ($Id: //depot/dev/client3/rdock/2013.1/src/exe/rbdock.cxx#4 $)

>  <Rbt.Library>
libRbt.so (2013.1, Build901 2013/11/27)

>  <Rbt.Parameter_File>
/export/apps/rDock/src/rDock_2013.1_src/data/scripts/dock_solv.prm

>  <Rbt.Receptor>
prm/pocket_docking_2.prm

>  <SCORE>
-11.2915

>  <SCORE.INTER>
-9.07281

>  <SCORE.INTER.CONST>
1

>  <SCORE.INTER.POLAR>
0

>  <SCORE.INTER.ROT>
7

>  <SCORE.INTER.SOLV>
19.6984

>  <SCORE.INTER.VDW>
-20.8814

>  <SCORE.INTER.norm>
-0.33603

>  <SCORE.INTRA>
-2.62403

>  <SCORE.INTRA.DIHEDRAL>
4.54004

>  <SCORE.INTRA.DIHEDRAL.0>
9.29433

>  <SCORE.INTRA.POLAR>
0

>  <SCORE.INTRA.POLAR.0>
0

>  <SCORE.INTRA.REPUL>
0

>  <SCORE.INTRA.REPUL.0>
0

>  <SCORE.INTRA.SOLV>
0.284309

>  <SCORE.INTRA.SOLV.lig_0>
-48.5102

>  <SCORE.INTRA.VDW>
-5.0362

>  <SCORE.INTRA.VDW.0>
0.379549

>  <SCORE.INTRA.norm>
-0.0971861

>  <SCORE.RESTR>
0.405366

>  <SCORE.RESTR.CAVITY>
0.405366

>  <SCORE.RESTR.norm>
0.0150135

>  <SCORE.SYSTEM>
0

>  <SCORE.SYSTEM.CONST>
0

>  <SCORE.SYSTEM.DIHEDRAL>
0

>  <SCORE.SYSTEM.SOLV>
0

>  <SCORE.SYSTEM.norm>
0

>  <SCORE.heavy>
27

>  <SCORE.norm>
-0.418203

>  <RMSD>
2.263

$$$$
ligand
 OpenBabel11021811483D
libRbt.so/2013.1/901 2013/11/27
 27 29  0  0  0  0  0  0  0  0999 V2000
   45.4002   57.2105   28.6054 N   0  0  0  0  0  0  0  0  0  0  0  0
   46.7656   56.9528   29.0607 C   0  0  2  0  0  0  0  0  0  0  0  0
   47.7341   57.4161   28.0112 C   0  0  0  0  0  0  0  0  0  0  0  0
   48.6737   58.1408   28.3218 O   0  0  0  0  0  0  0  0  0  0  0  0
   46.9703   55.4582   29.3045 C   0  0  0  0  0  0  0  0  0  0  0  0
   48.2968   55.2531   30.0131 C   0  0  0  0  0  0  0  0  0  0  0  0
   48.7018   53.5050   30.3240 S   0  0  2  0  0  0  0  0  0  0  0  0
   48.4753   52.6927   28.7143 C   0  0  0  0  0  0  0  0  0  0  0  0
   47.0710   52.7759   30.9508 C   0  0  0  0  0  0  0  0  0  0  0  0
   46.4711   53.2795   32.3302 C   0  0  2  0  0  0  0  0  0  0  0  0
   45.6432   54.4204   32.3246 O   0  0  0  0  0  0  0  0  0  0  0  0
   47.3120   53.3419   33.5419 C   0  0  1  0  0  0  0  0  0  0  0  0
   48.5051   52.5655   33.4258 O   0  0  0  0  0  0  0  0  0  0  0  0
   47.5248   54.9293   33.5360 C   0  0  2  0  0  0  0  0  0  0  0  0
   48.0925   55.3575   34.7373 O   0  0  0  0  0  0  0  0  0  0  0  0
   46.0801   55.3980   33.3739 C   0  0  1  0  0  0  0  0  0  0  0  0
   47.6059   57.0345   26.8549 O   0  0  0  0  0  0  0  0  0  0  0  0
   48.2987   59.6918   31.7090 N   0  0  0  0  0  0  0  0  0  0  0  0
   48.8220   58.5951   32.2635 C   0  0  0  0  0  0  0  0  0  0  0  0
   48.0559   57.5639   32.6070 N   0  0  0  0  0  0  0  0  0  0  0  0
   46.7182   57.6224   32.5103 C   0  0  0  0  0  0  0  0  0  0  0  0
   46.1108   58.7892   31.9785 C   0  0  0  0  0  0  0  0  0  0  0  0
   46.9679   59.8459   31.5635 C   0  0  0  0  0  0  0  0  0  0  0  0
   46.4561   61.0076   31.0217 N   0  0  0  0  0  0  0  0  0  0  0  0
   44.7811   58.5906   31.9973 N   0  0  0  0  0  0  0  0  0  0  0  0
   44.5261   57.4113   32.4980 C   0  0  0  0  0  0  0  0  0  0  0  0
   45.6833   56.7607   32.8235 N   0  0  0  0  0  0  0  0  0  0  0  0
  2  1  1  6  0  0  0
  2  3  1  0  0  0  0
  2  5  1  0  0  0  0
  3  4  1  0  0  0  0
  3 17  1  0  0  0  0
  5  6  1  0  0  0  0
  7  6  1  6  0  0  0
  7  8  1  0  0  0  0
  7  9  1  0  0  0  0
 10  9  1  6  0  0  0
 10 11  1  0  0  0  0
 10 12  1  0  0  0  0
 11 16  1  0  0  0  0
 12 13  1  6  0  0  0
 12 14  1  0  0  0  0
 14 15  1  1  0  0  0
 14 16  1  0  0  0  0
 16 27  1  6  0  0  0
 18 19  2  0  0  0  0
 18 23  1  0  0  0  0
 19 20  1  0  0  0  0
 20 21  2  0  0  0  0
 21 22  1  0  0  0  0
 21 27  1  0  0  0  0
 22 23  2  0  0  0  0
 22 25  1  0  0  0  0
 23 24  1  0  0  0  0
 25 26  2  0  0  0  0
 26 27  1  0  0  0  0
M  END
>  <CHROM.1>
129.94354294,-169.66166463,-178.16513991,50.52930649,-65.15679623,86.94509069
-114.03337394,47.20693388,56.15330780,31.19982700,-2.13305549,-1.28956126
2.35465652

>  <Name>
ligand

>  <RI>
0

>  <Rbt.Current_Directory>
/home/itssahil/PROJECTS/Mol_Feturizer/New_Systems/rnas/3IQR

>  <Rbt.Executable>
rbdock ($Id: //depot/dev/client3/rdock/2013.1/src/exe/rbdock.cxx#4 $)

>  <Rbt.Library>
libRbt.so (2013.1, Build901 2013/11/27)

>  <Rbt.Parameter_File>
/export/apps/rDock/src/rDock_2013.1_src/data/scripts/dock_solv.prm

>  <Rbt.Receptor>
prm/pocket_docking_3.prm

>  <SCORE>
-19.3332

>  <SCORE.INTER>
-11.9611

>  <SCORE.INTER.CONST>
1

>  <SCORE.INTER.POLAR>
0

>  <SCORE.INTER.ROT>
7

>  <SCORE.INTER.SOLV>
18.7829

>  <SCORE.INTER.VDW>
-22.5017

>  <SCORE.INTER.norm>
-0.443004

>  <SCORE.INTRA>
-7.37208

>  <SCORE.INTRA.DIHEDRAL>
-3.12321

>  <SCORE.INTRA.DIHEDRAL.0>
9.29433

>  <SCORE.INTRA.POLAR>
0

>  <SCORE.INTRA.POLAR.0>
0

>  <SCORE.INTRA.REPUL>
0

>  <SCORE.INTRA.REPUL.0>
0

>  <SCORE.INTRA.SOLV>
-0.786976

>  <SCORE.INTRA.SOLV.lig_0>
-48.5102

>  <SCORE.INTRA.VDW>
-5.41698

>  <SCORE.INTRA.VDW.0>
0.379549

>  <SCORE.INTRA.norm>
-0.27304

>  <SCORE.RESTR>
0

>  <SCORE.RESTR.CAVITY>
0

>  <SCORE.RESTR.norm>
0

>  <SCORE.SYSTEM>
0

>  <SCORE.SYSTEM.CONST>
0

>  <SCORE.SYSTEM.DIHEDRAL>
0

>  <SCORE.SYSTEM.SOLV>
0

>  <SCORE.SYSTEM.norm>
0

>  <SCORE.heavy>
27

>  <SCORE.norm>
-0.716044

>  <RMSD>
2.289

$$$$
ligand
 OpenBabel11021811483D
libRbt.so/2013.1/901 2013/11/27
 27 29  0  0  0  0  0  0  0  0999 V2000
   45.4380   57.0401   27.2699 N   0  0  0  0  0  0  0  0  0  0  0  0
   46.5457   56.1936   27.7108 C   0  0  2  0  0  0  0  0  0  0  0  0
   47.6304   57.0567   28.2874 C   0  0  0  0  0  0  0  0  0  0  0  0
   48.5713   57.4099   27.5842 O   0  0  0  0  0  0  0  0  0  0  0  0
   47.1106   55.4024   26.5317 C   0  0  0  0  0  0  0  0  0  0  0  0
   47.2761   53.9520   26.9475 C   0  0  0  0  0  0  0  0  0  0  0  0
   48.3203   53.7244   28.4221 S   0  0  2  0  0  0  0  0  0  0  0  0
   49.2106   52.1706   28.1132 C   0  0  0  0  0  0  0  0  0  0  0  0
   47.1721   52.8529   29.6493 C   0  0  0  0  0  0  0  0  0  0  0  0
   47.2572   53.2178   31.1907 C   0  0  2  0  0  0  0  0  0  0  0  0
   46.3758   54.1938   31.6983 O   0  0  0  0  0  0  0  0  0  0  0  0
   48.5638   53.4070   31.8512 C   0  0  1  0  0  0  0  0  0  0  0  0
   49.6464   52.8566   31.0998 O   0  0  0  0  0  0  0  0  0  0  0  0
   48.5119   55.0068   31.9058 C   0  0  2  0  0  0  0  0  0  0  0  0
   49.5250   55.5077   32.7254 O   0  0  0  0  0  0  0  0  0  0  0  0
   47.1218   55.2148   32.5038 C   0  0  1  0  0  0  0  0  0  0  0  0
   47.5503   57.4394   29.4477 O   0  0  0  0  0  0  0  0  0  0  0  0
   47.8866   60.1951   31.6426 N   0  0  0  0  0  0  0  0  0  0  0  0
   48.7534   59.1993   31.8450 C   0  0  0  0  0  0  0  0  0  0  0  0
   48.3369   57.9498   32.0281 N   0  0  0  0  0  0  0  0  0  0  0  0
   47.0310   57.6535   32.1231 C   0  0  0  0  0  0  0  0  0  0  0  0
   46.0716   58.6876   31.9701 C   0  0  0  0  0  0  0  0  0  0  0  0
   46.5550   60.0004   31.7127 C   0  0  0  0  0  0  0  0  0  0  0  0
   45.6859   61.0580   31.5364 N   0  0  0  0  0  0  0  0  0  0  0  0
   44.8569   58.1291   32.1137 N   0  0  0  0  0  0  0  0  0  0  0  0
   44.9925   56.8507   32.3459 C   0  0  0  0  0  0  0  0  0  0  0  0
   46.3122   56.4950   32.3525 N   0  0  0  0  0  0  0  0  0  0  0  0
  2  1  1  6  0  0  0
  2  3  1  0  0  0  0
  2  5  1  0  0  0  0
  3  4  1  0  0  0  0
  3 17  1  0  0  0  0
  5  6  1  0  0  0  0
  7  6  1  6  0  0  0
  7  8  1  0  0  0  0
  7  9  1  0  0  0  0
 10  9  1  6  0  0  0
 10 11  1  0  0  0  0
 10 12  1  0  0  0  0
 11 16  1  0  0  0  0
 12 13  1  6  0  0  0
 12 14  1  0  0  0  0
 14 15  1  1  0  0  0
 14 16  1  0  0  0  0
 16 27  1  6  0  0  0
 18 19  2  0  0  0  0
 18 23  1  0  0  0  0
 19 20  1  0  0  0  0
 20 21  2  0  0  0  0
 21 22  1  0  0  0  0
 21 27  1  0  0  0  0
 22 23  2  0  0  0  0
 22 25  1  0  0  0  0
 23 24  1  0  0  0  0
 25 26  2  0  0  0  0
 26 27  1  0  0  0  0
M  END
>  <CHROM.1>
-95.37336948,-133.07726170,-56.42184657,-144.69695791,-142.70450451,94.50612241
-136.37149223,47.43231257,56.06631903,30.33175824,0.69611748,1.25760980,-1.81310574

>  <Name>
ligand

>  <RI>
0

>  <Rbt.Current_Directory>
/home/itssahil/PROJECTS/Mol_Feturizer/New_Systems/rnas/3IQR

>  <Rbt.Executable>
rbdock ($Id: //depot/dev/client3/rdock/2013.1/src/exe/rbdock.cxx#4 $)

>  <Rbt.Library>
libRbt.so (2013.1, Build901 2013/11/27)

>  <Rbt.Parameter_File>
/export/apps/rDock/src/rDock_2013.1_src/data/scripts/dock_solv.prm

>  <Rbt.Receptor>
prm/pocket_docking_2.prm

>  <SCORE>
-7.34045

>  <SCORE.INTER>
-7.33832

>  <SCORE.INTER.CONST>
1

>  <SCORE.INTER.POLAR>
0

>  <SCORE.INTER.ROT>
7

>  <SCORE.INTER.SOLV>
20.5512

>  <SCORE.INTER.VDW>
-20.0093

>  <SCORE.INTER.norm>
-0.27179

>  <SCORE.INTRA>
-0.0404603

>  <SCORE.INTRA.DIHEDRAL>
9.65551

>  <SCORE.INTRA.DIHEDRAL.0>
9.29433

>  <SCORE.INTRA.POLAR>
0

>  <SCORE.INTRA.POLAR.0>
0

>  <SCORE.INTRA.REPUL>
0

>  <SCORE.INTRA.REPUL.0>
0

>  <SCORE.INTRA.SOLV>
-0.918553

>  <SCORE.INTRA.SOLV.lig_0>
-48.5102

>  <SCORE.INTRA.VDW>
-4.40894

>  <SCORE.INTRA.VDW.0>
0.379549

>  <SCORE.INTRA.norm>
-0.00149853

>  <SCORE.RESTR>
0.0383303

>  <SCORE.RESTR.CAVITY>
0.0383303

>  <SCORE.RESTR.norm>
0.00141964

>  <SCORE.SYSTEM>
0

>  <SCORE.SYSTEM.CONST>
0

>  <SCORE.SYSTEM.DIHEDRAL>
0

>  <SCORE.SYSTEM.SOLV>
0

>  <SCORE.SYSTEM.norm>
0

>  <SCORE.heavy>
27

>  <SCORE.norm>
-0.271868

>  <RMSD>
2.292

$$$$
ligand
 OpenBabel11021811483D
libRbt.so/2013.1/901 2013/11/27
 27 29  0  0  0  0  0  0  0  0999 V2000
   45.7350   57.5003   28.6323 N   0  0  0  0  0  0  0  0  0  0  0  0
   47.0970   57.0077   28.4321 C   0  0  2  0  0  0  0  0  0  0  0  0
   47.1578   56.2236   27.1532 C   0  0  0  0  0  0  0  0  0  0  0  0
   46.3069   55.3730   26.9150 O   0  0  0  0  0  0  0  0  0  0  0  0
   47.5100   56.1035   29.5926 C   0  0  0  0  0  0  0  0  0  0  0  0
   48.9355   55.6337   29.3662 C   0  0  0  0  0  0  0  0  0  0  0  0
   49.4264   54.2366   30.4263 S   0  0  2  0  0  0  0  0  0  0  0  0
   50.2175   53.0598   29.2899 C   0  0  0  0  0  0  0  0  0  0  0  0
   47.8688   53.1628   30.4956 C   0  0  0  0  0  0  0  0  0  0  0  0
   46.8663   53.3214   31.7146 C   0  0  2  0  0  0  0  0  0  0  0  0
   45.9343   54.3787   31.6831 O   0  0  0  0  0  0  0  0  0  0  0  0
   47.3406   53.1835   33.1057 C   0  0  1  0  0  0  0  0  0  0  0  0
   48.6085   52.5322   33.1940 O   0  0  0  0  0  0  0  0  0  0  0  0
   47.3482   54.7470   33.4529 C   0  0  2  0  0  0  0  0  0  0  0  0
   47.5185   54.9492   34.8237 O   0  0  0  0  0  0  0  0  0  0  0  0
   45.9517   55.1398   32.9746 C   0  0  1  0  0  0  0  0  0  0  0  0
   48.0342   56.4654   26.3331 O   0  0  0  0  0  0  0  0  0  0  0  0
   48.1404   59.6686   32.0631 N   0  0  0  0  0  0  0  0  0  0  0  0
   48.6613   58.5159   32.4921 C   0  0  0  0  0  0  0  0  0  0  0  0
   47.9062   57.4315   32.6407 N   0  0  0  0  0  0  0  0  0  0  0  0
   46.5755   57.4757   32.4692 C   0  0  0  0  0  0  0  0  0  0  0  0
   45.9673   58.6929   32.0670 C   0  0  0  0  0  0  0  0  0  0  0  0
   46.8166   59.8145   31.8570 C   0  0  0  0  0  0  0  0  0  0  0  0
   46.3045   61.0299   31.4502 N   0  0  0  0  0  0  0  0  0  0  0  0
   44.6451   58.4666   31.9745 N   0  0  0  0  0  0  0  0  0  0  0  0
   44.3950   57.2239   32.2901 C   0  0  0  0  0  0  0  0  0  0  0  0
   45.5491   56.5578   32.5944 N   0  0  0  0  0  0  0  0  0  0  0  0
  2  1  1  1  0  0  0
  2  3  1  0  0  0  0
  2  5  1  0  0  0  0
  3  4  1  0  0  0  0
  3 17  1  0  0  0  0
  5  6  1  0  0  0  0
  7  6  1  6  0  0  0
  7  8  1  0  0  0  0
  7  9  1  0  0  0  0
 10  9  1  6  0  0  0
 10 11  1  0  0  0  0
 10 12  1  0  0  0  0
 11 16  1  0  0  0  0
 12 13  1  6  0  0  0
 12 14  1  0  0  0  0
 14 15  1  1  0  0  0
 14 16  1  0  0  0  0
 16 27  1  6  0  0  0
 18 19  2  0  0  0  0
 18 23  1  0  0  0  0
 19 20  1  0  0  0  0
 20 21  2  0  0  0  0
 21 22  1  0  0  0  0
 21 27  1  0  0  0  0
 22 23  2  0  0  0  0
 22 25  1  0  0  0  0
 23 24  1  0  0  0  0
 25 26  2  0  0  0  0
 26 27  1  0  0  0  0
M  END
>  <CHROM.1>
-47.62760179,-178.88190289,-165.54078252,132.77427010,-95.75850917,81.28855065
-100.27085860,47.27842869,56.04553800,31.02366087,-3.01731757,-1.18582915
1.94802856

>  <Name>
ligand

>  <RI>
0

>  <Rbt.Current_Directory>
/home/itssahil/PROJECTS/Mol_Feturizer/New_Systems/rnas/3IQR

>  <Rbt.Executable>
rbdock ($Id: //depot/dev/client3/rdock/2013.1/src/exe/rbdock.cxx#4 $)

>  <Rbt.Library>
libRbt.so (2013.1, Build901 2013/11/27)

>  <Rbt.Parameter_File>
/export/apps/rDock/src/rDock_2013.1_src/data/scripts/dock_solv.prm

>  <Rbt.Receptor>
prm/pocket_docking_3.prm

>  <SCORE>
-16.4177

>  <SCORE.INTER>
-11.574

>  <SCORE.INTER.CONST>
1

>  <SCORE.INTER.POLAR>
0

>  <SCORE.INTER.ROT>
7

>  <SCORE.INTER.SOLV>
18.2148

>  <SCORE.INTER.VDW>
-22.0543

>  <SCORE.INTER.norm>
-0.428666

>  <SCORE.INTRA>
-4.84524

>  <SCORE.INTRA.DIHEDRAL>
0.96948

>  <SCORE.INTRA.DIHEDRAL.0>
9.29433

>  <SCORE.INTRA.POLAR>
0

>  <SCORE.INTRA.POLAR.0>
0

>  <SCORE.INTRA.REPUL>
0

>  <SCORE.INTRA.REPUL.0>
0

>  <SCORE.INTRA.SOLV>
-0.761837

>  <SCORE.INTRA.SOLV.lig_0>
-48.5102

>  <SCORE.INTRA.VDW>
-4.94906

>  <SCORE.INTRA.VDW.0>
0.379549

>  <SCORE.INTRA.norm>
-0.179453

>  <SCORE.RESTR>
0.001543

>  <SCORE.RESTR.CAVITY>
0.001543

>  <SCORE.RESTR.norm>
5.71481e-05

>  <SCORE.SYSTEM>
0

>  <SCORE.SYSTEM.CONST>
0

>  <SCORE.SYSTEM.DIHEDRAL>
0

>  <SCORE.SYSTEM.SOLV>
0

>  <SCORE.SYSTEM.norm>
0

>  <SCORE.heavy>
27

>  <SCORE.norm>
-0.608062

>  <RMSD>
2.303

$$$$
ligand
 OpenBabel11021811483D
libRbt.so/2013.1/901 2013/11/27
 27 29  0  0  0  0  0  0  0  0999 V2000
   49.0634   55.7341   27.3709 N   0  0  0  0  0  0  0  0  0  0  0  0
   47.9991   55.9915   26.4020 C   0  0  2  0  0  0  0  0  0  0  0  0
   47.4135   57.3501   26.6576 C   0  0  0  0  0  0  0  0  0  0  0  0
   46.7977   57.9290   25.7688 O   0  0  0  0  0  0  0  0  0  0  0  0
   46.8976   54.9403   26.5321 C   0  0  0  0  0  0  0  0  0  0  0  0
   47.4625   53.5861   26.1434 C   0  0  0  0  0  0  0  0  0  0  0  0
   47.6374   52.4333   27.5424 S   0  0  2  0  0  0  0  0  0  0  0  0
   46.0040   52.4340   28.3389 C   0  0  0  0  0  0  0  0  0  0  0  0
   48.3412   53.5171   28.9258 C   0  0  0  0  0  0  0  0  0  0  0  0
   47.8112   53.3297   30.4091 C   0  0  2  0  0  0  0  0  0  0  0  0
   46.7393   54.1349   30.8449 O   0  0  0  0  0  0  0  0  0  0  0  0
   48.7542   53.1904   31.5363 C   0  0  1  0  0  0  0  0  0  0  0  0
   50.0753   52.8529   31.1117 O   0  0  0  0  0  0  0  0  0  0  0  0
   48.5773   54.6759   32.1083 C   0  0  2  0  0  0  0  0  0  0  0  0
   49.1680   54.7956   33.3675 O   0  0  0  0  0  0  0  0  0  0  0  0
   47.0536   54.7660   32.1680 C   0  0  1  0  0  0  0  0  0  0  0  0
   47.5177   57.8579   27.7668 O   0  0  0  0  0  0  0  0  0  0  0  0
   47.9276   59.7806   31.6979 N   0  0  0  0  0  0  0  0  0  0  0  0
   48.7724   58.7485   31.7710 C   0  0  0  0  0  0  0  0  0  0  0  0
   48.3274   57.4992   31.8673 N   0  0  0  0  0  0  0  0  0  0  0  0
   47.0191   57.2301   32.0019 C   0  0  0  0  0  0  0  0  0  0  0  0
   46.0853   58.2983   31.9859 C   0  0  0  0  0  0  0  0  0  0  0  0
   46.5955   59.6154   31.8176 C   0  0  0  0  0  0  0  0  0  0  0  0
   45.7516   60.7067   31.7760 N   0  0  0  0  0  0  0  0  0  0  0  0
   44.8624   57.7614   32.1418 N   0  0  0  0  0  0  0  0  0  0  0  0
   44.9699   56.4647   32.2570 C   0  0  0  0  0  0  0  0  0  0  0  0
   46.2770   56.0752   32.1672 N   0  0  0  0  0  0  0  0  0  0  0  0
  2  1  1  1  0  0  0
  2  3  1  0  0  0  0
  2  5  1  0  0  0  0
  3  4  1  0  0  0  0
  3 17  1  0  0  0  0
  5  6  1  0  0  0  0
  7  6  1  6  0  0  0
  7  8  1  0  0  0  0
  7  9  1  0  0  0  0
 10  9  1  6  0  0  0
 10 11  1  0  0  0  0
 10 12  1  0  0  0  0
 11 16  1  0  0  0  0
 12 13  1  6  0  0  0
 12 14  1  0  0  0  0
 14 15  1  1  0  0  0
 14 16  1  0  0  0  0
 16 27  1  6  0  0  0
 18 19  2  0  0  0  0
 18 23  1  0  0  0  0
 19 20  1  0  0  0  0
 20 21  2  0  0  0  0
 21 22  1  0  0  0  0
 21 27  1  0  0  0  0
 22 23  2  0  0  0  0
 22 25  1  0  0  0  0
 23 24  1  0  0  0  0
 25 26  2  0  0  0  0
 26 27  1  0  0  0  0
M  END
>  <CHROM.1>
159.08049133,-65.31250001,110.34477982,51.77846472,139.70483005,-92.72763009
-106.45631500,47.43783456,55.76265981,29.92481566,0.93653242,1.33211325,-1.77884840

>  <Name>
ligand

>  <RI>
0

>  <Rbt.Current_Directory>
/home/itssahil/PROJECTS/Mol_Feturizer/New_Systems/rnas/3IQR

>  <Rbt.Executable>
rbdock ($Id: //depot/dev/client3/rdock/2013.1/src/exe/rbdock.cxx#4 $)

>  <Rbt.Library>
libRbt.so (2013.1, Build901 2013/11/27)

>  <Rbt.Parameter_File>
/export/apps/rDock/src/rDock_2013.1_src/data/scripts/dock_solv.prm

>  <Rbt.Receptor>
prm/pocket_docking_2.prm

>  <SCORE>
-5.12972

>  <SCORE.INTER>
-9.43509

>  <SCORE.INTER.CONST>
1

>  <SCORE.INTER.POLAR>
0

>  <SCORE.INTER.ROT>
7

>  <SCORE.INTER.SOLV>
18.3072

>  <SCORE.INTER.VDW>
-20.6591

>  <SCORE.INTER.norm>
-0.349448

>  <SCORE.INTRA>
3.08174

>  <SCORE.INTRA.DIHEDRAL>
4.65827

>  <SCORE.INTRA.DIHEDRAL.0>
9.29433

>  <SCORE.INTRA.POLAR>
0

>  <SCORE.INTRA.POLAR.0>
0

>  <SCORE.INTRA.REPUL>
0

>  <SCORE.INTRA.REPUL.0>
0

>  <SCORE.INTRA.SOLV>
1.48952

>  <SCORE.INTRA.SOLV.lig_0>
-48.5102

>  <SCORE.INTRA.VDW>
0.00784242

>  <SCORE.INTRA.VDW.0>
0.379549

>  <SCORE.INTRA.norm>
0.114139

>  <SCORE.RESTR>
1.22362

>  <SCORE.RESTR.CAVITY>
1.22362

>  <SCORE.RESTR.norm>
0.0453194

>  <SCORE.SYSTEM>
0

>  <SCORE.SYSTEM.CONST>
0

>  <SCORE.SYSTEM.DIHEDRAL>
0

>  <SCORE.SYSTEM.SOLV>
0

>  <SCORE.SYSTEM.norm>
0

>  <SCORE.heavy>
27

>  <SCORE.norm>
-0.18999

>  <RMSD>
2.320

$$$$
ligand
 OpenBabel11021811483D
libRbt.so/2013.1/901 2013/11/27
 27 29  0  0  0  0  0  0  0  0999 V2000
   47.5821   56.5826   25.6997 N   0  0  0  0  0  0  0  0  0  0  0  0
   46.7271   56.4677   26.8803 C   0  0  2  0  0  0  0  0  0  0  0  0
   47.3044   57.2941   27.9930 C   0  0  0  0  0  0  0  0  0  0  0  0
   48.2403   58.0547   27.7693 O   0  0  0  0  0  0  0  0  0  0  0  0
   46.6409   55.0108   27.3330 C   0  0  0  0  0  0  0  0  0  0  0  0
   48.0467   54.4734   27.5299 C   0  0  0  0  0  0  0  0  0  0  0  0
   48.5821   54.4345   29.2701 S   0  0  2  0  0  0  0  0  0  0  0  0
   49.9746   53.2672   29.2913 C   0  0  0  0  0  0  0  0  0  0  0  0
   47.4486   53.1371   30.0548 C   0  0  0  0  0  0  0  0  0  0  0  0
   46.8082   53.4199   31.4782 C   0  0  2  0  0  0  0  0  0  0  0  0
   45.9041   54.4940   31.6052 O   0  0  0  0  0  0  0  0  0  0  0  0
   47.6364   53.3845   32.6997 C   0  0  1  0  0  0  0  0  0  0  0  0
   48.8804   52.7112   32.5032 O   0  0  0  0  0  0  0  0  0  0  0  0
   47.7399   54.9705   32.8973 C   0  0  2  0  0  0  0  0  0  0  0  0
   48.2704   55.2799   34.1510 O   0  0  0  0  0  0  0  0  0  0  0  0
   46.2673   55.3577   32.7756 C   0  0  1  0  0  0  0  0  0  0  0  0
   46.8110   57.2361   29.1120 O   0  0  0  0  0  0  0  0  0  0  0  0
   48.1913   59.9844   31.7646 N   0  0  0  0  0  0  0  0  0  0  0  0
   48.7834   58.8642   32.1871 C   0  0  0  0  0  0  0  0  0  0  0  0
   48.0901   57.7437   32.3664 N   0  0  0  0  0  0  0  0  0  0  0  0
   46.7544   57.7177   32.2337 C   0  0  0  0  0  0  0  0  0  0  0  0
   46.0727   58.8981   31.8399 C   0  0  0  0  0  0  0  0  0  0  0  0
   46.8564   60.0600   31.5963 C   0  0  0  0  0  0  0  0  0  0  0  0
   46.2705   61.2435   31.1951 N   0  0  0  0  0  0  0  0  0  0  0  0
   44.7618   58.6032   31.7881 N   0  0  0  0  0  0  0  0  0  0  0  0
   44.5857   57.3523   32.1207 C   0  0  0  0  0  0  0  0  0  0  0  0
   45.7810   56.7493   32.3962 N   0  0  0  0  0  0  0  0  0  0  0  0
  2  1  1  6  0  0  0
  2  3  1  0  0  0  0
  2  5  1  0  0  0  0
  3  4  1  0  0  0  0
  3 17  1  0  0  0  0
  5  6  1  0  0  0  0
  7  6  1  6  0  0  0
  7  8  1  0  0  0  0
  7  9  1  0  0  0  0
 10  9  1  6  0  0  0
 10 11  1  0  0  0  0
 10 12  1  0  0  0  0
 11 16  1  0  0  0  0
 12 13  1  6  0  0  0
 12 14  1  0  0  0  0
 14 15  1  1  0  0  0
 14 16  1  0  0  0  0
 16 27  1  6  0  0  0
 18 19  2  0  0  0  0
 18 23  1  0  0  0  0
 19 20  1  0  0  0  0
 20 21  2  0  0  0  0
 21 22  1  0  0  0  0
 21 27  1  0  0  0  0
 22 23  2  0  0  0  0
 22 25  1  0  0  0  0
 23 24  1  0  0  0  0
 25 26  2  0  0  0  0
 26 27  1  0  0  0  0
M  END
>  <CHROM.1>
9.20782734,54.01354080,100.39172093,161.03279826,-137.05056568,64.10401948
-115.21909328,47.32056076,56.23967407,30.59750687,0.03611125,1.30906157,-1.17236714

>  <Name>
ligand

>  <RI>
0

>  <Rbt.Current_Directory>
/home/itssahil/PROJECTS/Mol_Feturizer/New_Systems/rnas/3IQR

>  <Rbt.Executable>
rbdock ($Id: //depot/dev/client3/rdock/2013.1/src/exe/rbdock.cxx#4 $)

>  <Rbt.Library>
libRbt.so (2013.1, Build901 2013/11/27)

>  <Rbt.Parameter_File>
/export/apps/rDock/src/rDock_2013.1_src/data/scripts/dock_solv.prm

>  <Rbt.Receptor>
prm/pocket_docking_2.prm

>  <SCORE>
-10.4924

>  <SCORE.INTER>
-8.23607

>  <SCORE.INTER.CONST>
1

>  <SCORE.INTER.POLAR>
0

>  <SCORE.INTER.ROT>
7

>  <SCORE.INTER.SOLV>
22.2528

>  <SCORE.INTER.VDW>
-21.175

>  <SCORE.INTER.norm>
-0.30504

>  <SCORE.INTRA>
-2.62606

>  <SCORE.INTRA.DIHEDRAL>
3.27992

>  <SCORE.INTRA.DIHEDRAL.0>
9.29433

>  <SCORE.INTRA.POLAR>
0

>  <SCORE.INTRA.POLAR.0>
0

>  <SCORE.INTRA.REPUL>
0

>  <SCORE.INTRA.REPUL.0>
0

>  <SCORE.INTRA.SOLV>
-0.288974

>  <SCORE.INTRA.SOLV.lig_0>
-48.5102

>  <SCORE.INTRA.VDW>
-4.12153

>  <SCORE.INTRA.VDW.0>
0.379549

>  <SCORE.INTRA.norm>
-0.0972613

>  <SCORE.RESTR>
0.369688

>  <SCORE.RESTR.CAVITY>
0.369688

>  <SCORE.RESTR.norm>
0.0136921

>  <SCORE.SYSTEM>
0

>  <SCORE.SYSTEM.CONST>
0

>  <SCORE.SYSTEM.DIHEDRAL>
0

>  <SCORE.SYSTEM.SOLV>
0

>  <SCORE.SYSTEM.norm>
0

>  <SCORE.heavy>
27

>  <SCORE.norm>
-0.388609

>  <RMSD>
2.326

$$$$
ligand
 OpenBabel11021811483D
libRbt.so/2013.1/901 2013/11/27
 27 29  0  0  0  0  0  0  0  0999 V2000
   46.9828   57.6287   29.0051 N   0  0  0  0  0  0  0  0  0  0  0  0
   47.6534   57.3315   27.7402 C   0  0  2  0  0  0  0  0  0  0  0  0
   46.6344   57.2807   26.6387 C   0  0  0  0  0  0  0  0  0  0  0  0
   46.8138   57.9211   25.6081 O   0  0  0  0  0  0  0  0  0  0  0  0
   48.3678   55.9832   27.8225 C   0  0  0  0  0  0  0  0  0  0  0  0
   49.0265   55.8585   29.1843 C   0  0  0  0  0  0  0  0  0  0  0  0
   49.9533   54.3077   29.4135 S   0  0  2  0  0  0  0  0  0  0  0  0
   48.9424   53.0469   28.5824 C   0  0  0  0  0  0  0  0  0  0  0  0
   49.3757   53.6913   31.1078 C   0  0  0  0  0  0  0  0  0  0  0  0
   47.8235   53.5256   31.3893 C   0  0  2  0  0  0  0  0  0  0  0  0
   46.9499   54.5403   30.9483 O   0  0  0  0  0  0  0  0  0  0  0  0
   47.3397   53.0577   32.7032 C   0  0  1  0  0  0  0  0  0  0  0  0
   48.3631   52.4286   33.4756 O   0  0  0  0  0  0  0  0  0  0  0  0
   46.8571   54.4871   33.2408 C   0  0  2  0  0  0  0  0  0  0  0  0
   46.0955   54.3482   34.4025 O   0  0  0  0  0  0  0  0  0  0  0  0
   46.0243   54.9596   32.0506 C   0  0  1  0  0  0  0  0  0  0  0  0
   45.6470   56.5665   26.7567 O   0  0  0  0  0  0  0  0  0  0  0  0
   48.1615   59.5679   32.6232 N   0  0  0  0  0  0  0  0  0  0  0  0
   48.5570   58.3623   33.0406 C   0  0  0  0  0  0  0  0  0  0  0  0
   47.8535   57.2700   32.7575 N   0  0  0  0  0  0  0  0  0  0  0  0
   46.6665   57.3432   32.1348 C   0  0  0  0  0  0  0  0  0  0  0  0
   46.1767   58.6087   31.7204 C   0  0  0  0  0  0  0  0  0  0  0  0
   46.9879   59.7468   31.9854 C   0  0  0  0  0  0  0  0  0  0  0  0
   46.5897   61.0110   31.6005 N   0  0  0  0  0  0  0  0  0  0  0  0
   44.9836   58.4027   31.1355 N   0  0  0  0  0  0  0  0  0  0  0  0
   44.7022   57.1273   31.1628 C   0  0  0  0  0  0  0  0  0  0  0  0
   45.7090   56.4198   31.7577 N   0  0  0  0  0  0  0  0  0  0  0  0
  2  1  1  1  0  0  0
  2  3  1  0  0  0  0
  2  5  1  0  0  0  0
  3  4  1  0  0  0  0
  3 17  1  0  0  0  0
  5  6  1  0  0  0  0
  7  6  1  6  0  0  0
  7  8  1  0  0  0  0
  7  9  1  0  0  0  0
 10  9  1  1  0  0  0
 10 11  1  0  0  0  0
 10 12  1  0  0  0  0
 11 16  1  0  0  0  0
 12 13  1  1  0  0  0
 12 14  1  0  0  0  0
 14 15  1  1  0  0  0
 14 16  1  0  0  0  0
 16 27  1  1  0  0  0
 18 19  2  0  0  0  0
 18 23  1  0  0  0  0
 19 20  1  0  0  0  0
 20 21  2  0  0  0  0
 21 22  1  0  0  0  0
 21 27  1  0  0  0  0
 22 23  2  0  0  0  0
 22 25  1  0  0  0  0
 23 24  1  0  0  0  0
 25 26  2  0  0  0  0
 26 27  1  0  0  0  0
M  END
>  <CHROM.1>
129.74755486,-40.68937747,-178.68246815,-38.23953474,53.63448996,-43.13936007
-79.79609168,47.36989809,56.16204517,30.64010908,-2.06960531,-1.18857759
1.92813079

>  <Name>
ligand

>  <RI>
0

>  <Rbt.Current_Directory>
/home/itssahil/PROJECTS/Mol_Feturizer/New_Systems/rnas/3IQR

>  <Rbt.Executable>
rbdock ($Id: //depot/dev/client3/rdock/2013.1/src/exe/rbdock.cxx#4 $)

>  <Rbt.Library>
libRbt.so (2013.1, Build901 2013/11/27)

>  <Rbt.Parameter_File>
/export/apps/rDock/src/rDock_2013.1_src/data/scripts/dock_solv.prm

>  <Rbt.Receptor>
prm/pocket_docking_2.prm

>  <SCORE>
-11.3523

>  <SCORE.INTER>
-11.0497

>  <SCORE.INTER.CONST>
1

>  <SCORE.INTER.POLAR>
0

>  <SCORE.INTER.ROT>
7

>  <SCORE.INTER.SOLV>
18.6838

>  <SCORE.INTER.VDW>
-21.8611

>  <SCORE.INTER.norm>
-0.409248

>  <SCORE.INTRA>
-1.69357

>  <SCORE.INTRA.DIHEDRAL>
-0.903442

>  <SCORE.INTRA.DIHEDRAL.0>
9.29433

>  <SCORE.INTRA.POLAR>
0

>  <SCORE.INTRA.POLAR.0>
0

>  <SCORE.INTRA.REPUL>
0

>  <SCORE.INTRA.REPUL.0>
0

>  <SCORE.INTRA.SOLV>
2.65148

>  <SCORE.INTRA.SOLV.lig_0>
-48.5102

>  <SCORE.INTRA.VDW>
-2.56759

>  <SCORE.INTRA.VDW.0>
0.379549

>  <SCORE.INTRA.norm>
-0.0627249

>  <SCORE.RESTR>
1.39092

>  <SCORE.RESTR.CAVITY>
1.39092

>  <SCORE.RESTR.norm>
0.0515157

>  <SCORE.SYSTEM>
0

>  <SCORE.SYSTEM.CONST>
0

>  <SCORE.SYSTEM.DIHEDRAL>
0

>  <SCORE.SYSTEM.SOLV>
0

>  <SCORE.SYSTEM.norm>
0

>  <SCORE.heavy>
27

>  <SCORE.norm>
-0.420457

>  <RMSD>
2.329

$$$$
ligand
 OpenBabel11021811483D
libRbt.so/2013.1/901 2013/11/27
 27 29  0  0  0  0  0  0  0  0999 V2000
   49.3628   55.9814   28.1996 N   0  0  0  0  0  0  0  0  0  0  0  0
   48.3323   56.5247   27.3161 C   0  0  2  0  0  0  0  0  0  0  0  0
   47.4731   57.4843   28.0875 C   0  0  0  0  0  0  0  0  0  0  0  0
   46.6280   58.1552   27.5042 O   0  0  0  0  0  0  0  0  0  0  0  0
   47.4560   55.3991   26.7680 C   0  0  0  0  0  0  0  0  0  0  0  0
   46.9099   54.5910   27.9311 C   0  0  0  0  0  0  0  0  0  0  0  0
   48.0127   53.2478   28.4753 S   0  0  2  0  0  0  0  0  0  0  0  0
   46.8883   51.9092   28.9711 C   0  0  0  0  0  0  0  0  0  0  0  0
   48.3584   53.6644   30.2894 C   0  0  0  0  0  0  0  0  0  0  0  0
   47.1628   53.6595   31.3318 C   0  0  2  0  0  0  0  0  0  0  0  0
   46.1929   54.6788   31.2445 O   0  0  0  0  0  0  0  0  0  0  0  0
   47.4098   53.3975   32.7635 C   0  0  1  0  0  0  0  0  0  0  0  0
   48.6795   52.7887   33.0016 O   0  0  0  0  0  0  0  0  0  0  0  0
   47.2760   54.9164   33.2538 C   0  0  2  0  0  0  0  0  0  0  0  0
   47.2086   54.9833   34.6466 O   0  0  0  0  0  0  0  0  0  0  0  0
   45.9575   55.3036   32.5868 C   0  0  1  0  0  0  0  0  0  0  0  0
   47.5913   57.5635   29.3035 O   0  0  0  0  0  0  0  0  0  0  0  0
   48.1323   59.8270   31.6169 N   0  0  0  0  0  0  0  0  0  0  0  0
   48.6693   58.6558   31.9690 C   0  0  0  0  0  0  0  0  0  0  0  0
   47.9126   57.5777   32.1514 N   0  0  0  0  0  0  0  0  0  0  0  0
   46.5730   57.6444   32.0941 C   0  0  0  0  0  0  0  0  0  0  0  0
   45.9522   58.8804   31.7778 C   0  0  0  0  0  0  0  0  0  0  0  0
   46.7984   59.9962   31.5274 C   0  0  0  0  0  0  0  0  0  0  0  0
   46.2729   61.2293   31.1984 N   0  0  0  0  0  0  0  0  0  0  0  0
   44.6236   58.6744   31.7912 N   0  0  0  0  0  0  0  0  0  0  0  0
   44.3816   57.4267   32.0930 C   0  0  0  0  0  0  0  0  0  0  0  0
   45.5466   56.7370   32.2805 N   0  0  0  0  0  0  0  0  0  0  0  0
  2  1  1  1  0  0  0
  2  3  1  0  0  0  0
  2  5  1  0  0  0  0
  3  4  1  0  0  0  0
  3 17  1  0  0  0  0
  5  6  1  0  0  0  0
  7  6  1  6  0  0  0
  7  8  1  0  0  0  0
  7  9  1  0  0  0  0
 10  9  1  1  0  0  0
 10 11  1  0  0  0  0
 10 12  1  0  0  0  0
 11 16  1  0  0  0  0
 12 13  1  6  0  0  0
 12 14  1  0  0  0  0
 14 15  1  1  0  0  0
 14 16  1  0  0  0  0
 16 27  1  6  0  0  0
 18 19  2  0  0  0  0
 18 23  1  0  0  0  0
 19 20  1  0  0  0  0
 20 21  2  0  0  0  0
 21 22  1  0  0  0  0
 21 27  1  0  0  0  0
 22 23  2  0  0  0  0
 22 25  1  0  0  0  0
 23 24  1  0  0  0  0
 25 26  2  0  0  0  0
 26 27  1  0  0  0  0
M  END
>  <CHROM.1>
172.78884362,54.15108522,-87.22642518,-144.69514067,63.85224449,-70.18871037
-84.90074060,47.16051049,56.11528218,30.62253277,-0.46903079,1.34275289,-0.73145842

>  <Name>
ligand

>  <RI>
0

>  <Rbt.Current_Directory>
/home/itssahil/PROJECTS/Mol_Feturizer/New_Systems/rnas/3IQR

>  <Rbt.Executable>
rbdock ($Id: //depot/dev/client3/rdock/2013.1/src/exe/rbdock.cxx#4 $)

>  <Rbt.Library>
libRbt.so (2013.1, Build901 2013/11/27)

>  <Rbt.Parameter_File>
/export/apps/rDock/src/rDock_2013.1_src/data/scripts/dock_solv.prm

>  <Rbt.Receptor>
prm/pocket_docking_2.prm

>  <SCORE>
-8.97922

>  <SCORE.INTER>
-8.06903

>  <SCORE.INTER.CONST>
1

>  <SCORE.INTER.POLAR>
0

>  <SCORE.INTER.ROT>
7

>  <SCORE.INTER.SOLV>
18.9567

>  <SCORE.INTER.VDW>
-19.9649

>  <SCORE.INTER.norm>
-0.298853

>  <SCORE.INTRA>
-1.88731

>  <SCORE.INTRA.DIHEDRAL>
1.08806

>  <SCORE.INTRA.DIHEDRAL.0>
9.29433

>  <SCORE.INTRA.POLAR>
0

>  <SCORE.INTRA.POLAR.0>
0

>  <SCORE.INTRA.REPUL>
0

>  <SCORE.INTRA.REPUL.0>
0

>  <SCORE.INTRA.SOLV>
1.24454

>  <SCORE.INTRA.SOLV.lig_0>
-48.5102

>  <SCORE.INTRA.VDW>
-3.05362

>  <SCORE.INTRA.VDW.0>
0.379549

>  <SCORE.INTRA.norm>
-0.0699005

>  <SCORE.RESTR>
0.977127

>  <SCORE.RESTR.CAVITY>
0.977127

>  <SCORE.RESTR.norm>
0.0361899

>  <SCORE.SYSTEM>
0

>  <SCORE.SYSTEM.CONST>
0

>  <SCORE.SYSTEM.DIHEDRAL>
0

>  <SCORE.SYSTEM.SOLV>
0

>  <SCORE.SYSTEM.norm>
0

>  <SCORE.heavy>
27

>  <SCORE.norm>
-0.332564

>  <RMSD>
2.359

$$$$
ligand
 OpenBabel11021811483D
libRbt.so/2013.1/901 2013/11/27
 27 29  0  0  0  0  0  0  0  0999 V2000
   47.0275   57.4484   26.3727 N   0  0  0  0  0  0  0  0  0  0  0  0
   47.0975   56.7623   27.6620 C   0  0  2  0  0  0  0  0  0  0  0  0
   47.0287   57.7758   28.7675 C   0  0  0  0  0  0  0  0  0  0  0  0
   48.0228   58.4321   29.0598 O   0  0  0  0  0  0  0  0  0  0  0  0
   48.4075   55.9842   27.7785 C   0  0  0  0  0  0  0  0  0  0  0  0
   48.2640   54.9414   28.8720 C   0  0  0  0  0  0  0  0  0  0  0  0
   46.9336   53.7353   28.5680 S   0  0  2  0  0  0  0  0  0  0  0  0
   45.4784   54.4466   29.3918 C   0  0  0  0  0  0  0  0  0  0  0  0
   47.1446   52.4788   29.9682 C   0  0  0  0  0  0  0  0  0  0  0  0
   47.3993   52.9946   31.4465 C   0  0  2  0  0  0  0  0  0  0  0  0
   46.5471   53.9904   31.9655 O   0  0  0  0  0  0  0  0  0  0  0  0
   48.7671   53.2837   31.9206 C   0  0  1  0  0  0  0  0  0  0  0  0
   49.7729   52.6932   31.0964 O   0  0  0  0  0  0  0  0  0  0  0  0
   48.6587   54.8792   31.8316 C   0  0  2  0  0  0  0  0  0  0  0  0
   49.7420   55.4858   32.4699 O   0  0  0  0  0  0  0  0  0  0  0  0
   47.3431   55.1055   32.5741 C   0  0  1  0  0  0  0  0  0  0  0  0
   45.9679   57.9728   29.3463 O   0  0  0  0  0  0  0  0  0  0  0  0
   47.8608   60.1060   31.6481 N   0  0  0  0  0  0  0  0  0  0  0  0
   48.7757   59.1573   31.8649 C   0  0  0  0  0  0  0  0  0  0  0  0
   48.4216   57.8911   32.0639 N   0  0  0  0  0  0  0  0  0  0  0  0
   47.1319   57.5315   32.1610 C   0  0  0  0  0  0  0  0  0  0  0  0
   46.1224   58.5143   31.9930 C   0  0  0  0  0  0  0  0  0  0  0  0
   46.5404   59.8462   31.7189 C   0  0  0  0  0  0  0  0  0  0  0  0
   45.6201   60.8567   31.5274 N   0  0  0  0  0  0  0  0  0  0  0  0
   44.9368   57.8980   32.1423 N   0  0  0  0  0  0  0  0  0  0  0  0
   45.1354   56.6312   32.3916 C   0  0  0  0  0  0  0  0  0  0  0  0
   46.4711   56.3417   32.4048 N   0  0  0  0  0  0  0  0  0  0  0  0
  2  1  1  6  0  0  0
  2  3  1  0  0  0  0
  2  5  1  0  0  0  0
  3  4  1  0  0  0  0
  3 17  1  0  0  0  0
  5  6  1  0  0  0  0
  7  6  1  1  0  0  0
  7  8  1  0  0  0  0
  7  9  1  0  0  0  0
 10  9  1  6  0  0  0
 10 11  1  0  0  0  0
 10 12  1  0  0  0  0
 11 16  1  0  0  0  0
 12 13  1  6  0  0  0
 12 14  1  0  0  0  0
 14 15  1  1  0  0  0
 14 16  1  0  0  0  0
 16 27  1  6  0  0  0
 18 19  2  0  0  0  0
 18 23  1  0  0  0  0
 19 20  1  0  0  0  0
 20 21  2  0  0  0  0
 21 22  1  0  0  0  0
 21 27  1  0  0  0  0
 22 23  2  0  0  0  0
 22 25  1  0  0  0  0
 23 24  1  0  0  0  0
 25 26  2  0  0  0  0
 26 27  1  0  0  0  0
M  END
>  <CHROM.1>
-78.20156629,-161.35651265,60.02994000,-92.10021811,44.53567150,49.48485083
-144.94153673,47.28790646,56.23380932,30.57484921,2.52638993,-1.33780772
1.10313448

>  <Name>
ligand

>  <RI>
0

>  <Rbt.Current_Directory>
/home/itssahil/PROJECTS/Mol_Feturizer/New_Systems/rnas/3IQR

>  <Rbt.Executable>
rbdock ($Id: //depot/dev/client3/rdock/2013.1/src/exe/rbdock.cxx#4 $)

>  <Rbt.Library>
libRbt.so (2013.1, Build901 2013/11/27)

>  <Rbt.Parameter_File>
/export/apps/rDock/src/rDock_2013.1_src/data/scripts/dock_solv.prm

>  <Rbt.Receptor>
prm/pocket_docking_2.prm

>  <SCORE>
-11.1943

>  <SCORE.INTER>
-6.21293

>  <SCORE.INTER.CONST>
1

>  <SCORE.INTER.POLAR>
0

>  <SCORE.INTER.ROT>
7

>  <SCORE.INTER.SOLV>
21.8593

>  <SCORE.INTER.VDW>
-19.6951

>  <SCORE.INTER.norm>
-0.230108

>  <SCORE.INTRA>
-6.53485

>  <SCORE.INTRA.DIHEDRAL>
-2.7282

>  <SCORE.INTRA.DIHEDRAL.0>
9.29433

>  <SCORE.INTRA.POLAR>
0

>  <SCORE.INTRA.POLAR.0>
0

>  <SCORE.INTRA.REPUL>
0

>  <SCORE.INTRA.REPUL.0>
0

>  <SCORE.INTRA.SOLV>
-0.175103

>  <SCORE.INTRA.SOLV.lig_0>
-48.5102

>  <SCORE.INTRA.VDW>
-5.0832

>  <SCORE.INTRA.VDW.0>
0.379549

>  <SCORE.INTRA.norm>
-0.242032

>  <SCORE.RESTR>
1.55347

>  <SCORE.RESTR.CAVITY>
1.55347

>  <SCORE.RESTR.norm>
0.0575359

>  <SCORE.SYSTEM>
0

>  <SCORE.SYSTEM.CONST>
0

>  <SCORE.SYSTEM.DIHEDRAL>
0

>  <SCORE.SYSTEM.SOLV>
0

>  <SCORE.SYSTEM.norm>
0

>  <SCORE.heavy>
27

>  <SCORE.norm>
-0.414604

>  <RMSD>
2.375

$$$$
ligand
 OpenBabel11021811483D
libRbt.so/2013.1/901 2013/11/27
 27 29  0  0  0  0  0  0  0  0999 V2000
   46.2206   53.8799   26.9242 N   0  0  0  0  0  0  0  0  0  0  0  0
   46.6602   55.0530   27.6782 C   0  0  2  0  0  0  0  0  0  0  0  0
   45.9455   56.2692   27.1643 C   0  0  0  0  0  0  0  0  0  0  0  0
   44.9243   56.6602   27.7199 O   0  0  0  0  0  0  0  0  0  0  0  0
   48.1665   55.2534   27.5169 C   0  0  0  0  0  0  0  0  0  0  0  0
   48.8902   54.1007   28.1890 C   0  0  0  0  0  0  0  0  0  0  0  0
   48.8561   54.1719   30.0085 S   0  0  2  0  0  0  0  0  0  0  0  0
   49.9928   52.8559   30.5361 C   0  0  0  0  0  0  0  0  0  0  0  0
   47.3631   53.1019   30.4669 C   0  0  0  0  0  0  0  0  0  0  0  0
   46.5724   53.4011   31.8091 C   0  0  2  0  0  0  0  0  0  0  0  0
   45.6994   54.5075   31.8407 O   0  0  0  0  0  0  0  0  0  0  0  0
   47.2512   53.3284   33.1180 C   0  0  1  0  0  0  0  0  0  0  0  0
   48.4843   52.6101   33.0607 O   0  0  0  0  0  0  0  0  0  0  0  0
   47.3888   54.9084   33.3414 C   0  0  2  0  0  0  0  0  0  0  0  0
   47.7811   55.1913   34.6509 O   0  0  0  0  0  0  0  0  0  0  0  0
   45.9555   55.3509   33.0534 C   0  0  1  0  0  0  0  0  0  0  0  0
   46.4083   56.8910   26.2166 O   0  0  0  0  0  0  0  0  0  0  0  0
   48.2027   59.7505   31.7404 N   0  0  0  0  0  0  0  0  0  0  0  0
   48.7205   58.6027   32.1860 C   0  0  0  0  0  0  0  0  0  0  0  0
   47.9467   57.5539   32.4492 N   0  0  0  0  0  0  0  0  0  0  0  0
   46.6085   57.6360   32.3808 C   0  0  0  0  0  0  0  0  0  0  0  0
   46.0078   58.8525   31.9654 C   0  0  0  0  0  0  0  0  0  0  0  0
   46.8718   59.9322   31.6318 C   0  0  0  0  0  0  0  0  0  0  0  0
   46.3665   61.1434   31.2044 N   0  0  0  0  0  0  0  0  0  0  0  0
   44.6761   58.6682   31.9890 N   0  0  0  0  0  0  0  0  0  0  0  0
   44.4140   57.4520   32.3869 C   0  0  0  0  0  0  0  0  0  0  0  0
   45.5676   56.7617   32.6334 N   0  0  0  0  0  0  0  0  0  0  0  0
  2  1  1  6  0  0  0
  2  3  1  0  0  0  0
  2  5  1  0  0  0  0
  3  4  1  0  0  0  0
  3 17  1  0  0  0  0
  5  6  1  0  0  0  0
  7  6  1  6  0  0  0
  7  8  1  0  0  0  0
  7  9  1  0  0  0  0
 10  9  1  6  0  0  0
 10 11  1  0  0  0  0
 10 12  1  0  0  0  0
 11 16  1  0  0  0  0
 12 13  1  6  0  0  0
 12 14  1  0  0  0  0
 14 15  1  1  0  0  0
 14 16  1  0  0  0  0
 16 27  1  6  0  0  0
 18 19  2  0  0  0  0
 18 23  1  0  0  0  0
 19 20  1  0  0  0  0
 20 21  2  0  0  0  0
 21 22  1  0  0  0  0
 21 27  1  0  0  0  0
 22 23  2  0  0  0  0
 22 25  1  0  0  0  0
 23 24  1  0  0  0  0
 25 26  2  0  0  0  0
 26 27  1  0  0  0  0
M  END
>  <CHROM.1>
95.19021805,-66.76943008,-73.25106797,-171.35431427,-151.88945885,76.13882729
-104.93785115,47.06777546,55.90847149,30.81337147,0.77404642,1.23503441,-1.80334950

>  <Name>
ligand

>  <RI>
0

>  <Rbt.Current_Directory>
/home/itssahil/PROJECTS/Mol_Feturizer/New_Systems/rnas/3IQR

>  <Rbt.Executable>
rbdock ($Id: //depot/dev/client3/rdock/2013.1/src/exe/rbdock.cxx#4 $)

>  <Rbt.Library>
libRbt.so (2013.1, Build901 2013/11/27)

>  <Rbt.Parameter_File>
/export/apps/rDock/src/rDock_2013.1_src/data/scripts/dock_solv.prm

>  <Rbt.Receptor>
prm/pocket_docking_4.prm

>  <SCORE>
-12.646

>  <SCORE.INTER>
-10.065

>  <SCORE.INTER.CONST>
1

>  <SCORE.INTER.POLAR>
0

>  <SCORE.INTER.ROT>
7

>  <SCORE.INTER.SOLV>
18.3509

>  <SCORE.INTER.VDW>
-21.0937

>  <SCORE.INTER.norm>
-0.37278

>  <SCORE.INTRA>
-2.58098

>  <SCORE.INTRA.DIHEDRAL>
0.198524

>  <SCORE.INTRA.DIHEDRAL.0>
9.29433

>  <SCORE.INTRA.POLAR>
0

>  <SCORE.INTRA.POLAR.0>
0

>  <SCORE.INTRA.REPUL>
0

>  <SCORE.INTRA.REPUL.0>
0

>  <SCORE.INTRA.SOLV>
0.431618

>  <SCORE.INTRA.SOLV.lig_0>
-48.5102

>  <SCORE.INTRA.VDW>
-2.89605

>  <SCORE.INTRA.VDW.0>
0.379549

>  <SCORE.INTRA.norm>
-0.0955917

>  <SCORE.RESTR>
0

>  <SCORE.RESTR.CAVITY>
0

>  <SCORE.RESTR.norm>
0

>  <SCORE.SYSTEM>
0

>  <SCORE.SYSTEM.CONST>
0

>  <SCORE.SYSTEM.DIHEDRAL>
0

>  <SCORE.SYSTEM.SOLV>
0

>  <SCORE.SYSTEM.norm>
0

>  <SCORE.heavy>
27

>  <SCORE.norm>
-0.468371

>  <RMSD>
2.385

$$$$
ligand
 OpenBabel11021811483D
libRbt.so/2013.1/901 2013/11/27
 27 29  0  0  0  0  0  0  0  0999 V2000
   49.2265   55.0949   26.4901 N   0  0  0  0  0  0  0  0  0  0  0  0
   47.7819   55.3167   26.4459 C   0  0  2  0  0  0  0  0  0  0  0  0
   47.5026   56.7881   26.5514 C   0  0  0  0  0  0  0  0  0  0  0  0
   46.7892   57.3375   25.7186 O   0  0  0  0  0  0  0  0  0  0  0  0
   47.0986   54.5941   27.6061 C   0  0  0  0  0  0  0  0  0  0  0  0
   47.4099   53.1114   27.5131 C   0  0  0  0  0  0  0  0  0  0  0  0
   46.9413   52.1671   28.9981 S   0  0  2  0  0  0  0  0  0  0  0  0
   45.2996   52.8062   29.4439 C   0  0  0  0  0  0  0  0  0  0  0  0
   47.7342   53.1427   30.4135 C   0  0  0  0  0  0  0  0  0  0  0  0
   46.9034   53.4084   31.7384 C   0  0  2  0  0  0  0  0  0  0  0  0
   45.9602   54.4561   31.7397 O   0  0  0  0  0  0  0  0  0  0  0  0
   47.5634   53.3981   33.0588 C   0  0  1  0  0  0  0  0  0  0  0  0
   48.8411   52.7607   33.0318 O   0  0  0  0  0  0  0  0  0  0  0  0
   47.5947   54.9866   33.2608 C   0  0  2  0  0  0  0  0  0  0  0  0
   47.9458   55.3125   34.5721 O   0  0  0  0  0  0  0  0  0  0  0  0
   46.1408   55.3310   32.9436 C   0  0  1  0  0  0  0  0  0  0  0  0
   47.9550   57.4266   27.4930 O   0  0  0  0  0  0  0  0  0  0  0  0
   48.0713   59.9812   32.0603 N   0  0  0  0  0  0  0  0  0  0  0  0
   48.6385   58.8785   32.5567 C   0  0  0  0  0  0  0  0  0  0  0  0
   47.9513   57.7470   32.6827 N   0  0  0  0  0  0  0  0  0  0  0  0
   46.6364   57.6929   32.4176 C   0  0  0  0  0  0  0  0  0  0  0  0
   45.9760   58.8543   31.9400 C   0  0  0  0  0  0  0  0  0  0  0  0
   46.7588   60.0282   31.7583 C   0  0  0  0  0  0  0  0  0  0  0  0
   46.1945   61.1945   31.2829 N   0  0  0  0  0  0  0  0  0  0  0  0
   44.6826   58.5329   31.7619 N   0  0  0  0  0  0  0  0  0  0  0  0
   44.4969   57.2833   32.0940 C   0  0  0  0  0  0  0  0  0  0  0  0
   45.6695   56.7077   32.4966 N   0  0  0  0  0  0  0  0  0  0  0  0
  2  1  1  1  0  0  0
  2  3  1  0  0  0  0
  2  5  1  0  0  0  0
  3  4  1  0  0  0  0
  3 17  1  0  0  0  0
  5  6  1  0  0  0  0
  7  6  1  6  0  0  0
  7  8  1  0  0  0  0
  7  9  1  0  0  0  0
 10  9  1  6  0  0  0
 10 11  1  0  0  0  0
 10 12  1  0  0  0  0
 11 16  1  0  0  0  0
 12 13  1  6  0  0  0
 12 14  1  0  0  0  0
 14 15  1  1  0  0  0
 14 16  1  0  0  0  0
 16 27  1  6  0  0  0
 18 19  2  0  0  0  0
 18 23  1  0  0  0  0
 19 20  1  0  0  0  0
 20 21  2  0  0  0  0
 21 22  1  0  0  0  0
 21 27  1  0  0  0  0
 22 23  2  0  0  0  0
 22 25  1  0  0  0  0
 23 24  1  0  0  0  0
 25 26  2  0  0  0  0
 26 27  1  0  0  0  0
M  END
>  <CHROM.1>
127.52644858,-58.67284265,168.64335638,43.27692362,136.45912796,-80.20842899
-113.17827614,47.04067855,55.83406491,30.55712236,0.01860498,1.47542066,-0.83731717

>  <Name>
ligand

>  <RI>
0

>  <Rbt.Current_Directory>
/home/itssahil/PROJECTS/Mol_Feturizer/New_Systems/rnas/3IQR

>  <Rbt.Executable>
rbdock ($Id: //depot/dev/client3/rdock/2013.1/src/exe/rbdock.cxx#4 $)

>  <Rbt.Library>
libRbt.so (2013.1, Build901 2013/11/27)

>  <Rbt.Parameter_File>
/export/apps/rDock/src/rDock_2013.1_src/data/scripts/dock_solv.prm

>  <Rbt.Receptor>
prm/pocket_docking_2.prm

>  <SCORE>
-10.0289

>  <SCORE.INTER>
-12.1341

>  <SCORE.INTER.CONST>
1

>  <SCORE.INTER.POLAR>
0

>  <SCORE.INTER.ROT>
7

>  <SCORE.INTER.SOLV>
18.7387

>  <SCORE.INTER.VDW>
-22.6023

>  <SCORE.INTER.norm>
-0.449412

>  <SCORE.INTRA>
0.00401517

>  <SCORE.INTRA.DIHEDRAL>
-0.99363

>  <SCORE.INTRA.DIHEDRAL.0>
9.29433

>  <SCORE.INTRA.POLAR>
0

>  <SCORE.INTRA.POLAR.0>
0

>  <SCORE.INTRA.REPUL>
0

>  <SCORE.INTRA.REPUL.0>
0

>  <SCORE.INTRA.SOLV>
-0.843347

>  <SCORE.INTRA.SOLV.lig_0>
-48.5102

>  <SCORE.INTRA.VDW>
0.922504

>  <SCORE.INTRA.VDW.0>
0.379549

>  <SCORE.INTRA.norm>
0.00014871

>  <SCORE.RESTR>
2.10117

>  <SCORE.RESTR.CAVITY>
2.10117

>  <SCORE.RESTR.norm>
0.0778211

>  <SCORE.SYSTEM>
0

>  <SCORE.SYSTEM.CONST>
0

>  <SCORE.SYSTEM.DIHEDRAL>
0

>  <SCORE.SYSTEM.SOLV>
0

>  <SCORE.SYSTEM.norm>
0

>  <SCORE.heavy>
27

>  <SCORE.norm>
-0.371442

>  <RMSD>
2.395

$$$$
ligand
 OpenBabel11021811483D
libRbt.so/2013.1/901 2013/11/27
 27 29  0  0  0  0  0  0  0  0999 V2000
   48.6266   58.4009   29.8073 N   0  0  0  0  0  0  0  0  0  0  0  0
   48.1470   57.2235   29.0851 C   0  0  2  0  0  0  0  0  0  0  0  0
   46.8063   57.5247   28.4803 C   0  0  0  0  0  0  0  0  0  0  0  0
   46.5719   57.2048   27.3196 O   0  0  0  0  0  0  0  0  0  0  0  0
   48.0101   56.0363   30.0374 C   0  0  0  0  0  0  0  0  0  0  0  0
   47.7831   54.7762   29.2222 C   0  0  0  0  0  0  0  0  0  0  0  0
   48.1551   53.2391   30.1255 S   0  0  2  0  0  0  0  0  0  0  0  0
   48.1429   51.9469   28.8479 C   0  0  0  0  0  0  0  0  0  0  0  0
   46.4615   52.6715   30.7527 C   0  0  0  0  0  0  0  0  0  0  0  0
   45.9121   53.2334   32.1306 C   0  0  2  0  0  0  0  0  0  0  0  0
   45.1835   54.4402   32.1199 O   0  0  0  0  0  0  0  0  0  0  0  0
   46.7604   53.2328   33.3387 C   0  0  1  0  0  0  0  0  0  0  0  0
   47.8830   52.3576   33.2239 O   0  0  0  0  0  0  0  0  0  0  0  0
   47.1065   54.7965   33.3207 C   0  0  2  0  0  0  0  0  0  0  0  0
   47.7134   55.1834   34.5169 O   0  0  0  0  0  0  0  0  0  0  0  0
   45.7059   55.3845   33.1606 C   0  0  1  0  0  0  0  0  0  0  0  0
   45.9367   58.0521   29.1619 O   0  0  0  0  0  0  0  0  0  0  0  0
   48.1961   59.7401   32.1815 N   0  0  0  0  0  0  0  0  0  0  0  0
   48.6002   58.6176   32.7821 C   0  0  0  0  0  0  0  0  0  0  0  0
   47.7854   57.5750   32.9142 N   0  0  0  0  0  0  0  0  0  0  0  0
   46.4959   57.6429   32.5471 C   0  0  0  0  0  0  0  0  0  0  0  0
   46.0045   58.8348   31.9545 C   0  0  0  0  0  0  0  0  0  0  0  0
   46.9228   59.9058   31.7724 C   0  0  0  0  0  0  0  0  0  0  0  0
   46.5271   61.0926   31.1894 N   0  0  0  0  0  0  0  0  0  0  0  0
   44.7004   58.6407   31.6905 N   0  0  0  0  0  0  0  0  0  0  0  0
   44.3544   57.4411   32.0748 C   0  0  0  0  0  0  0  0  0  0  0  0
   45.4233   56.7721   32.6019 N   0  0  0  0  0  0  0  0  0  0  0  0
  2  1  1  1  0  0  0
  2  3  1  0  0  0  0
  2  5  1  0  0  0  0
  3  4  1  0  0  0  0
  3 17  1  0  0  0  0
  5  6  1  0  0  0  0
  7  6  1  6  0  0  0
  7  8  1  0  0  0  0
  7  9  1  0  0  0  0
 10  9  1  6  0  0  0
 10 11  1  0  0  0  0
 10 12  1  0  0  0  0
 11 16  1  0  0  0  0
 12 13  1  6  0  0  0
 12 14  1  0  0  0  0
 14 15  1  1  0  0  0
 14 16  1  0  0  0  0
 16 27  1  6  0  0  0
 18 19  2  0  0  0  0
 18 23  1  0  0  0  0
 19 20  1  0  0  0  0
 20 21  2  0  0  0  0
 21 22  1  0  0  0  0
 21 27  1  0  0  0  0
 22 23  2  0  0  0  0
 22 25  1  0  0  0  0
 23 24  1  0  0  0  0
 25 26  2  0  0  0  0
 26 27  1  0  0  0  0
M  END
>  <CHROM.1>
134.69412304,-168.81643366,160.46645941,-168.48004374,-86.32983283,87.71272369
-127.41815959,46.95496836,56.14904359,31.26267026,-2.01397664,-1.35206155
2.66937093

>  <Name>
ligand

>  <RI>
0

>  <Rbt.Current_Directory>
/home/itssahil/PROJECTS/Mol_Feturizer/New_Systems/rnas/3IQR

>  <Rbt.Executable>
rbdock ($Id: //depot/dev/client3/rdock/2013.1/src/exe/rbdock.cxx#4 $)

>  <Rbt.Library>
libRbt.so (2013.1, Build901 2013/11/27)

>  <Rbt.Parameter_File>
/export/apps/rDock/src/rDock_2013.1_src/data/scripts/dock_solv.prm

>  <Rbt.Receptor>
prm/pocket_docking_3.prm

>  <SCORE>
-15.9496

>  <SCORE.INTER>
-11.0281

>  <SCORE.INTER.CONST>
1

>  <SCORE.INTER.POLAR>
0

>  <SCORE.INTER.ROT>
7

>  <SCORE.INTER.SOLV>
21.0218

>  <SCORE.INTER.VDW>
-22.626

>  <SCORE.INTER.norm>
-0.408447

>  <SCORE.INTRA>
-4.92154

>  <SCORE.INTRA.DIHEDRAL>
0.645177

>  <SCORE.INTRA.DIHEDRAL.0>
9.29433

>  <SCORE.INTRA.POLAR>
0

>  <SCORE.INTRA.POLAR.0>
0

>  <SCORE.INTRA.REPUL>
0

>  <SCORE.INTRA.REPUL.0>
0

>  <SCORE.INTRA.SOLV>
2.91035

>  <SCORE.INTRA.SOLV.lig_0>
-48.5102

>  <SCORE.INTRA.VDW>
-6.69931

>  <SCORE.INTRA.VDW.0>
0.379549

>  <SCORE.INTRA.norm>
-0.182279

>  <SCORE.RESTR>
0

>  <SCORE.RESTR.CAVITY>
0

>  <SCORE.RESTR.norm>
0

>  <SCORE.SYSTEM>
0

>  <SCORE.SYSTEM.CONST>
0

>  <SCORE.SYSTEM.DIHEDRAL>
0

>  <SCORE.SYSTEM.SOLV>
0

>  <SCORE.SYSTEM.norm>
0

>  <SCORE.heavy>
27

>  <SCORE.norm>
-0.590726

>  <RMSD>
2.400

$$$$
ligand
 OpenBabel11021811483D
libRbt.so/2013.1/901 2013/11/27
 27 29  0  0  0  0  0  0  0  0999 V2000
   48.7002   56.8700   27.5254 N   0  0  0  0  0  0  0  0  0  0  0  0
   47.4752   57.1519   26.7786 C   0  0  2  0  0  0  0  0  0  0  0  0
   46.3499   57.3907   27.7434 C   0  0  0  0  0  0  0  0  0  0  0  0
   45.2248   56.9748   27.4874 O   0  0  0  0  0  0  0  0  0  0  0  0
   47.1189   55.9697   25.8782 C   0  0  0  0  0  0  0  0  0  0  0  0
   47.0339   54.7140   26.7267 C   0  0  0  0  0  0  0  0  0  0  0  0
   48.6223   53.8425   26.9114 S   0  0  2  0  0  0  0  0  0  0  0  0
   48.1584   52.1375   27.3361 C   0  0  0  0  0  0  0  0  0  0  0  0
   49.1105   54.1849   28.7081 C   0  0  0  0  0  0  0  0  0  0  0  0
   48.1409   53.7326   29.8792 C   0  0  2  0  0  0  0  0  0  0  0  0
   47.0242   54.5406   30.1750 O   0  0  0  0  0  0  0  0  0  0  0  0
   48.6828   53.2316   31.1577 C   0  0  1  0  0  0  0  0  0  0  0  0
   50.0538   52.8437   31.0613 O   0  0  0  0  0  0  0  0  0  0  0  0
   48.4053   54.5603   32.0078 C   0  0  2  0  0  0  0  0  0  0  0  0
   48.5835   54.3220   33.3718 O   0  0  0  0  0  0  0  0  0  0  0  0
   46.9432   54.8154   31.6466 C   0  0  1  0  0  0  0  0  0  0  0  0
   46.5689   57.9644   28.8026 O   0  0  0  0  0  0  0  0  0  0  0  0
   48.1514   59.7739   31.3562 N   0  0  0  0  0  0  0  0  0  0  0  0
   48.9219   58.6831   31.3332 C   0  0  0  0  0  0  0  0  0  0  0  0
   48.3934   57.4646   31.3979 N   0  0  0  0  0  0  0  0  0  0  0  0
   47.0783   57.2811   31.5954 C   0  0  0  0  0  0  0  0  0  0  0  0
   46.2249   58.4113   31.6822 C   0  0  0  0  0  0  0  0  0  0  0  0
   46.8193   59.6964   31.5450 C   0  0  0  0  0  0  0  0  0  0  0  0
   46.0557   60.8446   31.6021 N   0  0  0  0  0  0  0  0  0  0  0  0
   44.9766   57.9540   31.8838 N   0  0  0  0  0  0  0  0  0  0  0  0
   44.9960   56.6488   31.9333 C   0  0  0  0  0  0  0  0  0  0  0  0
   46.2646   56.1741   31.7505 N   0  0  0  0  0  0  0  0  0  0  0  0
  2  1  1  1  0  0  0
  2  3  1  0  0  0  0
  2  5  1  0  0  0  0
  3  4  1  0  0  0  0
  3 17  1  0  0  0  0
  5  6  1  0  0  0  0
  7  6  1  1  0  0  0
  7  8  1  0  0  0  0
  7  9  1  0  0  0  0
 10  9  1  1  0  0  0
 10 11  1  0  0  0  0
 10 12  1  0  0  0  0
 11 16  1  0  0  0  0
 12 13  1  6  0  0  0
 12 14  1  0  0  0  0
 14 15  1  1  0  0  0
 14 16  1  0  0  0  0
 16 27  1  6  0  0  0
 18 19  2  0  0  0  0
 18 23  1  0  0  0  0
 19 20  1  0  0  0  0
 20 21  2  0  0  0  0
 21 22  1  0  0  0  0
 21 27  1  0  0  0  0
 22 23  2  0  0  0  0
 22 25  1  0  0  0  0
 23 24  1  0  0  0  0
 25 26  2  0  0  0  0
 26 27  1  0  0  0  0
M  END
>  <CHROM.1>
-142.04603932,54.87863708,-88.43798402,-157.80046754,58.91585271,-79.83614670
-82.81318677,47.48470059,56.04900355,29.79479870,0.80844256,1.17022401,-1.77921719

>  <Name>
ligand

>  <RI>
0

>  <Rbt.Current_Directory>
/home/itssahil/PROJECTS/Mol_Feturizer/New_Systems/rnas/3IQR

>  <Rbt.Executable>
rbdock ($Id: //depot/dev/client3/rdock/2013.1/src/exe/rbdock.cxx#4 $)

>  <Rbt.Library>
libRbt.so (2013.1, Build901 2013/11/27)

>  <Rbt.Parameter_File>
/export/apps/rDock/src/rDock_2013.1_src/data/scripts/dock_solv.prm

>  <Rbt.Receptor>
prm/pocket_docking_2.prm

>  <SCORE>
-6.85513

>  <SCORE.INTER>
-6.42858

>  <SCORE.INTER.CONST>
1

>  <SCORE.INTER.POLAR>
0

>  <SCORE.INTER.ROT>
7

>  <SCORE.INTER.SOLV>
19.4059

>  <SCORE.INTER.VDW>
-19.021

>  <SCORE.INTER.norm>
-0.238096

>  <SCORE.INTRA>
-1.12382

>  <SCORE.INTRA.DIHEDRAL>
0.733199

>  <SCORE.INTRA.DIHEDRAL.0>
9.29433

>  <SCORE.INTRA.POLAR>
0

>  <SCORE.INTRA.POLAR.0>
0

>  <SCORE.INTRA.REPUL>
0

>  <SCORE.INTRA.REPUL.0>
0

>  <SCORE.INTRA.SOLV>
2.08361

>  <SCORE.INTRA.SOLV.lig_0>
-48.5102

>  <SCORE.INTRA.VDW>
-2.53222

>  <SCORE.INTRA.VDW.0>
0.379549

>  <SCORE.INTRA.norm>
-0.0416228

>  <SCORE.RESTR>
0.697274

>  <SCORE.RESTR.CAVITY>
0.697274

>  <SCORE.RESTR.norm>
0.025825

>  <SCORE.SYSTEM>
0

>  <SCORE.SYSTEM.CONST>
0

>  <SCORE.SYSTEM.DIHEDRAL>
0

>  <SCORE.SYSTEM.SOLV>
0

>  <SCORE.SYSTEM.norm>
0

>  <SCORE.heavy>
27

>  <SCORE.norm>
-0.253894

>  <RMSD>
2.421

$$$$
ligand
 OpenBabel11021811483D
libRbt.so/2013.1/901 2013/11/27
 27 29  0  0  0  0  0  0  0  0999 V2000
   46.9075   57.6944   25.5394 N   0  0  0  0  0  0  0  0  0  0  0  0
   46.2959   57.0283   26.6883 C   0  0  2  0  0  0  0  0  0  0  0  0
   46.9439   57.5208   27.9499 C   0  0  0  0  0  0  0  0  0  0  0  0
   46.4194   57.2968   29.0358 O   0  0  0  0  0  0  0  0  0  0  0  0
   46.4854   55.5153   26.5871 C   0  0  0  0  0  0  0  0  0  0  0  0
   47.9708   55.2038   26.6068 C   0  0  0  0  0  0  0  0  0  0  0  0
   48.6902   55.1576   28.2793 S   0  0  2  0  0  0  0  0  0  0  0  0
   50.3562   54.4729   28.0386 C   0  0  0  0  0  0  0  0  0  0  0  0
   48.0841   53.5059   28.9781 C   0  0  0  0  0  0  0  0  0  0  0  0
   47.6555   53.4148   30.5027 C   0  0  2  0  0  0  0  0  0  0  0  0
   46.6117   54.2465   30.9566 O   0  0  0  0  0  0  0  0  0  0  0  0
   48.6725   53.3487   31.5707 C   0  0  1  0  0  0  0  0  0  0  0  0
   49.9636   52.9845   31.0810 O   0  0  0  0  0  0  0  0  0  0  0  0
   48.5278   54.8682   32.0561 C   0  0  2  0  0  0  0  0  0  0  0  0
   49.2011   55.0691   33.2624 O   0  0  0  0  0  0  0  0  0  0  0  0
   47.0112   54.9620   32.2121 C   0  0  1  0  0  0  0  0  0  0  0  0
   48.0161   58.1091   27.8928 O   0  0  0  0  0  0  0  0  0  0  0  0
   47.8569   59.9556   31.5201 N   0  0  0  0  0  0  0  0  0  0  0  0
   48.7066   58.9292   31.6127 C   0  0  0  0  0  0  0  0  0  0  0  0
   48.2681   57.6837   31.7701 N   0  0  0  0  0  0  0  0  0  0  0  0
   46.9646   57.4174   31.9488 C   0  0  0  0  0  0  0  0  0  0  0  0
   46.0272   58.4821   31.9141 C   0  0  0  0  0  0  0  0  0  0  0  0
   46.5289   59.7925   31.6804 C   0  0  0  0  0  0  0  0  0  0  0  0
   45.6806   60.8794   31.6169 N   0  0  0  0  0  0  0  0  0  0  0  0
   44.8105   57.9492   32.1225 N   0  0  0  0  0  0  0  0  0  0  0  0
   44.9251   56.6583   32.2866 C   0  0  0  0  0  0  0  0  0  0  0  0
   46.2307   56.2684   32.1790 N   0  0  0  0  0  0  0  0  0  0  0  0
  2  1  1  6  0  0  0
  2  3  1  0  0  0  0
  2  5  1  0  0  0  0
  3  4  1  0  0  0  0
  3 17  1  0  0  0  0
  5  6  1  0  0  0  0
  7  6  1  6  0  0  0
  7  8  1  0  0  0  0
  7  9  1  0  0  0  0
 10  9  1  6  0  0  0
 10 11  1  0  0  0  0
 10 12  1  0  0  0  0
 11 16  1  0  0  0  0
 12 13  1  6  0  0  0
 12 14  1  0  0  0  0
 14 15  1  1  0  0  0
 14 16  1  0  0  0  0
 16 27  1  6  0  0  0
 18 19  2  0  0  0  0
 18 23  1  0  0  0  0
 19 20  1  0  0  0  0
 20 21  2  0  0  0  0
 21 22  1  0  0  0  0
 21 27  1  0  0  0  0
 22 23  2  0  0  0  0
 22 25  1  0  0  0  0
 23 24  1  0  0  0  0
 25 26  2  0  0  0  0
 26 27  1  0  0  0  0
M  END
>  <CHROM.1>
165.81536754,61.89588996,82.20325404,169.80931940,-141.43776072,59.17812489
-109.23335216,47.50336674,56.34125209,30.09206472,0.58059719,1.14208736,-1.51155656

>  <Name>
ligand

>  <RI>
0

>  <Rbt.Current_Directory>
/home/itssahil/PROJECTS/Mol_Feturizer/New_Systems/rnas/3IQR

>  <Rbt.Executable>
rbdock ($Id: //depot/dev/client3/rdock/2013.1/src/exe/rbdock.cxx#4 $)

>  <Rbt.Library>
libRbt.so (2013.1, Build901 2013/11/27)

>  <Rbt.Parameter_File>
/export/apps/rDock/src/rDock_2013.1_src/data/scripts/dock_solv.prm

>  <Rbt.Receptor>
prm/pocket_docking_2.prm

>  <SCORE>
-10.6959

>  <SCORE.INTER>
-6.82267

>  <SCORE.INTER.CONST>
1

>  <SCORE.INTER.POLAR>
0

>  <SCORE.INTER.ROT>
7

>  <SCORE.INTER.SOLV>
24.7292

>  <SCORE.INTER.VDW>
-21.0582

>  <SCORE.INTER.norm>
-0.252692

>  <SCORE.INTRA>
-4.27637

>  <SCORE.INTRA.DIHEDRAL>
0.139227

>  <SCORE.INTRA.DIHEDRAL.0>
9.29433

>  <SCORE.INTRA.POLAR>
0

>  <SCORE.INTRA.POLAR.0>
0

>  <SCORE.INTRA.REPUL>
0

>  <SCORE.INTRA.REPUL.0>
0

>  <SCORE.INTRA.SOLV>
-0.220579

>  <SCORE.INTRA.SOLV.lig_0>
-48.5102

>  <SCORE.INTRA.VDW>
-4.2357

>  <SCORE.INTRA.VDW.0>
0.379549

>  <SCORE.INTRA.norm>
-0.158384

>  <SCORE.RESTR>
0.403127

>  <SCORE.RESTR.CAVITY>
0.403127

>  <SCORE.RESTR.norm>
0.0149306

>  <SCORE.SYSTEM>
0

>  <SCORE.SYSTEM.CONST>
0

>  <SCORE.SYSTEM.DIHEDRAL>
0

>  <SCORE.SYSTEM.SOLV>
0

>  <SCORE.SYSTEM.norm>
0

>  <SCORE.heavy>
27

>  <SCORE.norm>
-0.396145

>  <RMSD>
2.440

$$$$
ligand
 OpenBabel11021811483D
libRbt.so/2013.1/901 2013/11/27
 27 29  0  0  0  0  0  0  0  0999 V2000
   47.6655   56.2844   26.8570 N   0  0  0  0  0  0  0  0  0  0  0  0
   46.5559   55.8713   27.7150 C   0  0  2  0  0  0  0  0  0  0  0  0
   46.7322   56.4743   29.0786 C   0  0  0  0  0  0  0  0  0  0  0  0
   47.7002   57.1907   29.3113 O   0  0  0  0  0  0  0  0  0  0  0  0
   46.5223   54.3488   27.8425 C   0  0  0  0  0  0  0  0  0  0  0  0
   47.9126   53.8549   28.1992 C   0  0  0  0  0  0  0  0  0  0  0  0
   48.3492   54.0898   29.9516 S   0  0  2  0  0  0  0  0  0  0  0  0
   49.7309   52.9436   30.2333 C   0  0  0  0  0  0  0  0  0  0  0  0
   47.1653   52.9280   30.8640 C   0  0  0  0  0  0  0  0  0  0  0  0
   46.5360   53.3849   32.2466 C   0  0  2  0  0  0  0  0  0  0  0  0
   45.6882   54.5112   32.2578 O   0  0  0  0  0  0  0  0  0  0  0  0
   47.3574   53.4301   33.4723 C   0  0  1  0  0  0  0  0  0  0  0  0
   48.5656   52.6777   33.3546 O   0  0  0  0  0  0  0  0  0  0  0  0
   47.5423   55.0205   33.5109 C   0  0  2  0  0  0  0  0  0  0  0  0
   48.0842   55.4268   34.7316 O   0  0  0  0  0  0  0  0  0  0  0  0
   46.0921   55.4683   33.3388 C   0  0  1  0  0  0  0  0  0  0  0  0
   45.8859   56.2818   29.9422 O   0  0  0  0  0  0  0  0  0  0  0  0
   48.2616   59.7753   31.6434 N   0  0  0  0  0  0  0  0  0  0  0  0
   48.8013   58.6713   32.1668 C   0  0  0  0  0  0  0  0  0  0  0  0
   48.0451   57.6381   32.5260 N   0  0  0  0  0  0  0  0  0  0  0  0
   46.7050   57.7007   32.4775 C   0  0  0  0  0  0  0  0  0  0  0  0
   46.0822   58.8747   31.9805 C   0  0  0  0  0  0  0  0  0  0  0  0
   46.9268   59.9340   31.5469 C   0  0  0  0  0  0  0  0  0  0  0  0
   46.3992   61.1027   31.0364 N   0  0  0  0  0  0  0  0  0  0  0  0
   44.7535   58.6789   32.0444 N   0  0  0  0  0  0  0  0  0  0  0  0
   44.5134   57.4947   32.5408 C   0  0  0  0  0  0  0  0  0  0  0  0
   45.6796   56.8379   32.8178 N   0  0  0  0  0  0  0  0  0  0  0  0
  2  1  1  6  0  0  0
  2  3  1  0  0  0  0
  2  5  1  0  0  0  0
  3  4  1  0  0  0  0
  3 17  1  0  0  0  0
  5  6  1  0  0  0  0
  7  6  1  6  0  0  0
  7  8  1  0  0  0  0
  7  9  1  0  0  0  0
 10  9  1  6  0  0  0
 10 11  1  0  0  0  0
 10 12  1  0  0  0  0
 11 16  1  0  0  0  0
 12 13  1  6  0  0  0
 12 14  1  0  0  0  0
 14 15  1  1  0  0  0
 14 16  1  0  0  0  0
 16 27  1  6  0  0  0
 18 19  2  0  0  0  0
 18 23  1  0  0  0  0
 19 20  1  0  0  0  0
 20 21  2  0  0  0  0
 21 22  1  0  0  0  0
 21 27  1  0  0  0  0
 22 23  2  0  0  0  0
 22 25  1  0  0  0  0
 23 24  1  0  0  0  0
 25 26  2  0  0  0  0
 26 27  1  0  0  0  0
M  END
>  <CHROM.1>
0.19018735,49.38903631,77.71653332,160.91466123,-141.80653430,63.30938321
-110.79273280,47.13307971,56.00898043,31.17986029,-0.04052570,1.34272738
-1.30011136

>  <Name>
ligand

>  <RI>
0

>  <Rbt.Current_Directory>
/home/itssahil/PROJECTS/Mol_Feturizer/New_Systems/rnas/3IQR

>  <Rbt.Executable>
rbdock ($Id: //depot/dev/client3/rdock/2013.1/src/exe/rbdock.cxx#4 $)

>  <Rbt.Library>
libRbt.so (2013.1, Build901 2013/11/27)

>  <Rbt.Parameter_File>
/export/apps/rDock/src/rDock_2013.1_src/data/scripts/dock_solv.prm

>  <Rbt.Receptor>
prm/pocket_docking_3.prm

>  <SCORE>
-14.3752

>  <SCORE.INTER>
-9.12258

>  <SCORE.INTER.CONST>
1

>  <SCORE.INTER.POLAR>
0

>  <SCORE.INTER.ROT>
7

>  <SCORE.INTER.SOLV>
18.7772

>  <SCORE.INTER.VDW>
-20.6074

>  <SCORE.INTER.norm>
-0.337873

>  <SCORE.INTRA>
-5.25538

>  <SCORE.INTRA.DIHEDRAL>
0.180764

>  <SCORE.INTRA.DIHEDRAL.0>
9.29433

>  <SCORE.INTRA.POLAR>
0

>  <SCORE.INTRA.POLAR.0>
0

>  <SCORE.INTRA.REPUL>
0

>  <SCORE.INTRA.REPUL.0>
0

>  <SCORE.INTRA.SOLV>
0.170649

>  <SCORE.INTRA.SOLV.lig_0>
-48.5102

>  <SCORE.INTRA.VDW>
-5.43109

>  <SCORE.INTRA.VDW.0>
0.379549

>  <SCORE.INTRA.norm>
-0.194644

>  <SCORE.RESTR>
0.0027301

>  <SCORE.RESTR.CAVITY>
0.0027301

>  <SCORE.RESTR.norm>
0.000101115

>  <SCORE.SYSTEM>
0

>  <SCORE.SYSTEM.CONST>
0

>  <SCORE.SYSTEM.DIHEDRAL>
0

>  <SCORE.SYSTEM.SOLV>
0

>  <SCORE.SYSTEM.norm>
0

>  <SCORE.heavy>
27

>  <SCORE.norm>
-0.532416

>  <RMSD>
2.457

$$$$
ligand
 OpenBabel11021811483D
libRbt.so/2013.1/901 2013/11/27
 27 29  0  0  0  0  0  0  0  0999 V2000
   48.9746   56.1238   26.9974 N   0  0  0  0  0  0  0  0  0  0  0  0
   47.7934   56.9849   26.9608 C   0  0  2  0  0  0  0  0  0  0  0  0
   47.5674   57.5750   28.3228 C   0  0  0  0  0  0  0  0  0  0  0  0
   48.5186   57.7657   29.0734 O   0  0  0  0  0  0  0  0  0  0  0  0
   46.5608   56.1777   26.5554 C   0  0  0  0  0  0  0  0  0  0  0  0
   46.4182   54.9936   27.4943 C   0  0  0  0  0  0  0  0  0  0  0  0
   47.6642   53.6918   27.2306 S   0  0  2  0  0  0  0  0  0  0  0  0
   46.8314   52.1571   27.7340 C   0  0  0  0  0  0  0  0  0  0  0  0
   48.6671   53.7050   28.8362 C   0  0  0  0  0  0  0  0  0  0  0  0
   47.9254   53.4812   30.2204 C   0  0  2  0  0  0  0  0  0  0  0  0
   46.8604   54.3412   30.5573 O   0  0  0  0  0  0  0  0  0  0  0  0
   48.6917   53.2127   31.4533 C   0  0  1  0  0  0  0  0  0  0  0  0
   50.0330   52.7990   31.1899 O   0  0  0  0  0  0  0  0  0  0  0  0
   48.5382   54.6756   32.0871 C   0  0  2  0  0  0  0  0  0  0  0  0
   48.9557   54.6847   33.4192 O   0  0  0  0  0  0  0  0  0  0  0  0
   47.0306   54.8772   31.9471 C   0  0  1  0  0  0  0  0  0  0  0  0
   46.4379   57.9023   28.6635 O   0  0  0  0  0  0  0  0  0  0  0  0
   48.2913   59.8205   31.6226 N   0  0  0  0  0  0  0  0  0  0  0  0
   49.0533   58.7285   31.7281 C   0  0  0  0  0  0  0  0  0  0  0  0
   48.5142   57.5138   31.7743 N   0  0  0  0  0  0  0  0  0  0  0  0
   47.1841   57.3393   31.8242 C   0  0  0  0  0  0  0  0  0  0  0  0
   46.3325   58.4730   31.7709 C   0  0  0  0  0  0  0  0  0  0  0  0
   46.9459   59.7515   31.6580 C   0  0  0  0  0  0  0  0  0  0  0  0
   46.1870   60.9020   31.5851 N   0  0  0  0  0  0  0  0  0  0  0  0
   45.0668   58.0248   31.8423 N   0  0  0  0  0  0  0  0  0  0  0  0
   45.0733   56.7222   31.9402 C   0  0  0  0  0  0  0  0  0  0  0  0
   46.3519   56.2395   31.9230 N   0  0  0  0  0  0  0  0  0  0  0  0
  2  1  1  1  0  0  0
  2  3  1  0  0  0  0
  2  5  1  0  0  0  0
  3  4  1  0  0  0  0
  3 17  1  0  0  0  0
  5  6  1  0  0  0  0
  7  6  1  1  0  0  0
  7  8  1  0  0  0  0
  7  9  1  0  0  0  0
 10  9  1  6  0  0  0
 10 11  1  0  0  0  0
 10 12  1  0  0  0  0
 11 16  1  0  0  0  0
 12 13  1  6  0  0  0
 12 14  1  0  0  0  0
 14 15  1  1  0  0  0
 14 16  1  0  0  0  0
 16 27  1  6  0  0  0
 18 19  2  0  0  0  0
 18 23  1  0  0  0  0
 19 20  1  0  0  0  0
 20 21  2  0  0  0  0
 21 22  1  0  0  0  0
 21 27  1  0  0  0  0
 22 23  2  0  0  0  0
 22 25  1  0  0  0  0
 23 24  1  0  0  0  0
 25 26  2  0  0  0  0
 26 27  1  0  0  0  0
M  END
>  <CHROM.1>
28.99447012,54.81192974,-72.06807910,-150.67117757,57.03393745,-56.12155551
-101.53224302,47.52981112,56.06202645,30.06667580,1.00693198,1.29652676,-2.02725084

>  <Name>
ligand

>  <RI>
0

>  <Rbt.Current_Directory>
/home/itssahil/PROJECTS/Mol_Feturizer/New_Systems/rnas/3IQR

>  <Rbt.Executable>
rbdock ($Id: //depot/dev/client3/rdock/2013.1/src/exe/rbdock.cxx#4 $)

>  <Rbt.Library>
libRbt.so (2013.1, Build901 2013/11/27)

>  <Rbt.Parameter_File>
/export/apps/rDock/src/rDock_2013.1_src/data/scripts/dock_solv.prm

>  <Rbt.Receptor>
prm/pocket_docking_2.prm

>  <SCORE>
-8.27352

>  <SCORE.INTER>
-6.20961

>  <SCORE.INTER.CONST>
1

>  <SCORE.INTER.POLAR>
0

>  <SCORE.INTER.ROT>
7

>  <SCORE.INTER.SOLV>
19.6039

>  <SCORE.INTER.VDW>
-18.941

>  <SCORE.INTER.norm>
-0.229985

>  <SCORE.INTRA>
-2.55298

>  <SCORE.INTRA.DIHEDRAL>
-1.70835

>  <SCORE.INTRA.DIHEDRAL.0>
9.29433

>  <SCORE.INTRA.POLAR>
0

>  <SCORE.INTRA.POLAR.0>
0

>  <SCORE.INTRA.REPUL>
0

>  <SCORE.INTRA.REPUL.0>
0

>  <SCORE.INTRA.SOLV>
1.903

>  <SCORE.INTRA.SOLV.lig_0>
-48.5102

>  <SCORE.INTRA.VDW>
-2.6503

>  <SCORE.INTRA.VDW.0>
0.379549

>  <SCORE.INTRA.norm>
-0.0945546

>  <SCORE.RESTR>
0.489062

>  <SCORE.RESTR.CAVITY>
0.489062

>  <SCORE.RESTR.norm>
0.0181134

>  <SCORE.SYSTEM>
0

>  <SCORE.SYSTEM.CONST>
0

>  <SCORE.SYSTEM.DIHEDRAL>
0

>  <SCORE.SYSTEM.SOLV>
0

>  <SCORE.SYSTEM.norm>
0

>  <SCORE.heavy>
27

>  <SCORE.norm>
-0.306427

>  <RMSD>
2.459

$$$$
ligand
 OpenBabel11021811483D
libRbt.so/2013.1/901 2013/11/27
 27 29  0  0  0  0  0  0  0  0999 V2000
   48.6857   52.1538   24.9138 N   0  0  0  0  0  0  0  0  0  0  0  0
   47.7543   53.2808   24.8955 C   0  0  2  0  0  0  0  0  0  0  0  0
   48.4259   54.4692   24.2704 C   0  0  0  0  0  0  0  0  0  0  0  0
   47.7721   55.4719   24.0028 O   0  0  0  0  0  0  0  0  0  0  0  0
   47.3273   53.6393   26.3183 C   0  0  0  0  0  0  0  0  0  0  0  0
   46.3269   52.6071   26.8059 C   0  0  0  0  0  0  0  0  0  0  0  0
   45.7450   52.8937   28.5076 S   0  0  2  0  0  0  0  0  0  0  0  0
   45.3673   54.6703   28.5656 C   0  0  0  0  0  0  0  0  0  0  0  0
   47.3434   53.1751   29.4822 C   0  0  0  0  0  0  0  0  0  0  0  0
   47.2763   53.3420   31.0582 C   0  0  2  0  0  0  0  0  0  0  0  0
   46.3574   54.2658   31.5962 O   0  0  0  0  0  0  0  0  0  0  0  0
   48.5115   53.4181   31.8631 C   0  0  1  0  0  0  0  0  0  0  0  0
   49.6590   52.9425   31.1585 O   0  0  0  0  0  0  0  0  0  0  0  0
   48.4692   54.9992   32.1150 C   0  0  2  0  0  0  0  0  0  0  0  0
   49.3993   55.3710   33.0875 O   0  0  0  0  0  0  0  0  0  0  0  0
   47.0280   55.1611   32.5944 C   0  0  1  0  0  0  0  0  0  0  0  0
   49.6332   54.4482   24.0678 O   0  0  0  0  0  0  0  0  0  0  0  0
   47.7916   60.0576   31.3406 N   0  0  0  0  0  0  0  0  0  0  0  0
   48.6455   59.0346   31.4316 C   0  0  0  0  0  0  0  0  0  0  0  0
   48.2273   57.8145   31.7555 N   0  0  0  0  0  0  0  0  0  0  0  0
   46.9529   57.5813   32.1071 C   0  0  0  0  0  0  0  0  0  0  0  0
   46.0186   58.6488   32.0797 C   0  0  0  0  0  0  0  0  0  0  0  0
   46.4908   59.9256   31.6670 C   0  0  0  0  0  0  0  0  0  0  0  0
   45.6416   61.0116   31.5988 N   0  0  0  0  0  0  0  0  0  0  0  0
   44.8337   58.1520   32.4760 N   0  0  0  0  0  0  0  0  0  0  0  0
   44.9655   56.8810   32.7472 C   0  0  0  0  0  0  0  0  0  0  0  0
   46.2497   56.4676   32.5277 N   0  0  0  0  0  0  0  0  0  0  0  0
  2  1  1  1  0  0  0
  2  3  1  0  0  0  0
  2  5  1  0  0  0  0
  3  4  1  0  0  0  0
  3 17  1  0  0  0  0
  5  6  1  0  0  0  0
  7  6  1  6  0  0  0
  7  8  1  0  0  0  0
  7  9  1  0  0  0  0
 10  9  1  6  0  0  0
 10 11  1  0  0  0  0
 10 12  1  0  0  0  0
 11 16  1  0  0  0  0
 12 13  1  6  0  0  0
 12 14  1  0  0  0  0
 14 15  1  1  0  0  0
 14 16  1  0  0  0  0
 16 27  1  6  0  0  0
 18 19  2  0  0  0  0
 18 23  1  0  0  0  0
 19 20  1  0  0  0  0
 20 21  2  0  0  0  0
 21 22  1  0  0  0  0
 21 27  1  0  0  0  0
 22 23  2  0  0  0  0
 22 25  1  0  0  0  0
 23 24  1  0  0  0  0
 25 26  2  0  0  0  0
 26 27  1  0  0  0  0
M  END
>  <CHROM.1>
170.88194968,-75.59983768,179.12811630,45.70760661,-174.81637311,-50.21540486
-116.95904300,47.25335457,55.42204350,29.68916807,-0.42743188,-1.43138862
2.10870512

>  <Name>
ligand

>  <RI>
0

>  <Rbt.Current_Directory>
/home/itssahil/PROJECTS/Mol_Feturizer/New_Systems/rnas/3IQR

>  <Rbt.Executable>
rbdock ($Id: //depot/dev/client3/rdock/2013.1/src/exe/rbdock.cxx#4 $)

>  <Rbt.Library>
libRbt.so (2013.1, Build901 2013/11/27)

>  <Rbt.Parameter_File>
/export/apps/rDock/src/rDock_2013.1_src/data/scripts/dock_solv.prm

>  <Rbt.Receptor>
prm/pocket_docking_5.prm

>  <SCORE>
-13.0303

>  <SCORE.INTER>
-8.91958

>  <SCORE.INTER.CONST>
1

>  <SCORE.INTER.POLAR>
0

>  <SCORE.INTER.ROT>
7

>  <SCORE.INTER.SOLV>
17.2804

>  <SCORE.INTER.VDW>
-19.9732

>  <SCORE.INTER.norm>
-0.330355

>  <SCORE.INTRA>
-4.11075

>  <SCORE.INTRA.DIHEDRAL>
-3.67617

>  <SCORE.INTRA.DIHEDRAL.0>
9.29433

>  <SCORE.INTRA.POLAR>
0

>  <SCORE.INTRA.POLAR.0>
0

>  <SCORE.INTRA.REPUL>
0

>  <SCORE.INTRA.REPUL.0>
0

>  <SCORE.INTRA.SOLV>
-1.13438

>  <SCORE.INTRA.SOLV.lig_0>
-48.5102

>  <SCORE.INTRA.VDW>
-1.70548

>  <SCORE.INTRA.VDW.0>
0.379549

>  <SCORE.INTRA.norm>
-0.15225

>  <SCORE.RESTR>
0

>  <SCORE.RESTR.CAVITY>
0

>  <SCORE.RESTR.norm>
0

>  <SCORE.SYSTEM>
0

>  <SCORE.SYSTEM.CONST>
0

>  <SCORE.SYSTEM.DIHEDRAL>
0

>  <SCORE.SYSTEM.SOLV>
0

>  <SCORE.SYSTEM.norm>
0

>  <SCORE.heavy>
27

>  <SCORE.norm>
-0.482605

>  <RMSD>
3.016

$$$$
ligand
 OpenBabel11021811483D
libRbt.so/2013.1/901 2013/11/27
 27 29  0  0  0  0  0  0  0  0999 V2000
   48.7767   52.4234   23.9552 N   0  0  0  0  0  0  0  0  0  0  0  0
   47.6892   53.0064   24.7397 C   0  0  2  0  0  0  0  0  0  0  0  0
   48.0248   54.4320   25.0698 C   0  0  0  0  0  0  0  0  0  0  0  0
   49.1522   54.7225   25.4559 O   0  0  0  0  0  0  0  0  0  0  0  0
   47.4944   52.2254   26.0387 C   0  0  0  0  0  0  0  0  0  0  0  0
   46.2224   52.7047   26.7141 C   0  0  0  0  0  0  0  0  0  0  0  0
   46.0744   52.1884   28.4543 S   0  0  2  0  0  0  0  0  0  0  0  0
   44.8146   53.2969   29.1517 C   0  0  0  0  0  0  0  0  0  0  0  0
   47.4475   53.1592   29.3240 C   0  0  0  0  0  0  0  0  0  0  0  0
   47.4126   53.3149   30.9022 C   0  0  2  0  0  0  0  0  0  0  0  0
   46.4925   54.2219   31.4663 O   0  0  0  0  0  0  0  0  0  0  0  0
   48.6638   53.4036   31.6804 C   0  0  1  0  0  0  0  0  0  0  0  0
   49.8024   52.9492   30.9478 O   0  0  0  0  0  0  0  0  0  0  0  0
   48.6045   54.9823   31.9439 C   0  0  2  0  0  0  0  0  0  0  0  0
   49.5503   55.3612   32.8983 O   0  0  0  0  0  0  0  0  0  0  0  0
   47.1720   55.1203   32.4557 C   0  0  1  0  0  0  0  0  0  0  0  0
   47.1826   55.3067   24.9126 O   0  0  0  0  0  0  0  0  0  0  0  0
   47.8919   60.0750   31.4247 N   0  0  0  0  0  0  0  0  0  0  0  0
   48.7599   59.0629   31.5037 C   0  0  0  0  0  0  0  0  0  0  0  0
   48.3524   57.8243   31.7644 N   0  0  0  0  0  0  0  0  0  0  0  0
   47.0712   57.5567   32.0630 C   0  0  0  0  0  0  0  0  0  0  0  0
   46.1200   58.6094   32.0466 C   0  0  0  0  0  0  0  0  0  0  0  0
   46.5834   59.9092   31.7014 C   0  0  0  0  0  0  0  0  0  0  0  0
   45.7183   60.9833   31.6478 N   0  0  0  0  0  0  0  0  0  0  0  0
   44.9313   58.0781   32.3824 N   0  0  0  0  0  0  0  0  0  0  0  0
   45.0761   56.7994   32.6070 C   0  0  0  0  0  0  0  0  0  0  0  0
   46.3739   56.4158   32.4148 N   0  0  0  0  0  0  0  0  0  0  0  0
  2  1  1  1  0  0  0
  2  3  1  0  0  0  0
  2  5  1  0  0  0  0
  3  4  1  0  0  0  0
  3 17  1  0  0  0  0
  5  6  1  0  0  0  0
  7  6  1  6  0  0  0
  7  8  1  0  0  0  0
  7  9  1  0  0  0  0
 10  9  1  6  0  0  0
 10 11  1  0  0  0  0
 10 12  1  0  0  0  0
 11 16  1  0  0  0  0
 12 13  1  6  0  0  0
 12 14  1  0  0  0  0
 14 15  1  1  0  0  0
 14 16  1  0  0  0  0
 16 27  1  6  0  0  0
 18 19  2  0  0  0  0
 18 23  1  0  0  0  0
 19 20  1  0  0  0  0
 20 21  2  0  0  0  0
 21 22  1  0  0  0  0
 21 27  1  0  0  0  0
 22 23  2  0  0  0  0
 22 25  1  0  0  0  0
 23 24  1  0  0  0  0
 25 26  2  0  0  0  0
 26 27  1  0  0  0  0
M  END
>  <CHROM.1>
-44.29062558,-170.65716247,-165.17156497,162.20016497,162.93477303,-75.38304512
-120.67352578,47.28186701,55.25330582,29.71845499,0.52491643,1.48147329,-1.23270467

>  <Name>
ligand

>  <RI>
0

>  <Rbt.Current_Directory>
/home/itssahil/PROJECTS/Mol_Feturizer/New_Systems/rnas/3IQR

>  <Rbt.Executable>
rbdock ($Id: //depot/dev/client3/rdock/2013.1/src/exe/rbdock.cxx#4 $)

>  <Rbt.Library>
libRbt.so (2013.1, Build901 2013/11/27)

>  <Rbt.Parameter_File>
/export/apps/rDock/src/rDock_2013.1_src/data/scripts/dock_solv.prm

>  <Rbt.Receptor>
prm/pocket_docking_5.prm

>  <SCORE>
-15.6726

>  <SCORE.INTER>
-11.18

>  <SCORE.INTER.CONST>
1

>  <SCORE.INTER.POLAR>
0

>  <SCORE.INTER.ROT>
7

>  <SCORE.INTER.SOLV>
17.766

>  <SCORE.INTER.VDW>
-21.642

>  <SCORE.INTER.norm>
-0.414073

>  <SCORE.INTRA>
-4.4926

>  <SCORE.INTRA.DIHEDRAL>
-3.24013

>  <SCORE.INTRA.DIHEDRAL.0>
9.29433

>  <SCORE.INTRA.POLAR>
0

>  <SCORE.INTRA.POLAR.0>
0

>  <SCORE.INTRA.REPUL>
0

>  <SCORE.INTRA.REPUL.0>
0

>  <SCORE.INTRA.SOLV>
-1.704

>  <SCORE.INTRA.SOLV.lig_0>
-48.5102

>  <SCORE.INTRA.VDW>
-2.02053

>  <SCORE.INTRA.VDW.0>
0.379549

>  <SCORE.INTRA.norm>
-0.166393

>  <SCORE.RESTR>
0

>  <SCORE.RESTR.CAVITY>
0

>  <SCORE.RESTR.norm>
0

>  <SCORE.SYSTEM>
0

>  <SCORE.SYSTEM.CONST>
0

>  <SCORE.SYSTEM.DIHEDRAL>
0

>  <SCORE.SYSTEM.SOLV>
0

>  <SCORE.SYSTEM.norm>
0

>  <SCORE.heavy>
27

>  <SCORE.norm>
-0.580466

>  <RMSD>
3.024

$$$$
ligand
 OpenBabel11021811483D
libRbt.so/2013.1/901 2013/11/27
 27 29  0  0  0  0  0  0  0  0999 V2000
   48.5290   51.9475   24.3406 N   0  0  0  0  0  0  0  0  0  0  0  0
   47.3940   52.5318   25.0535 C   0  0  2  0  0  0  0  0  0  0  0  0
   47.5904   54.0160   25.1671 C   0  0  0  0  0  0  0  0  0  0  0  0
   46.6267   54.7481   25.3664 O   0  0  0  0  0  0  0  0  0  0  0  0
   47.2833   51.9339   26.4554 C   0  0  0  0  0  0  0  0  0  0  0  0
   45.9967   52.4206   27.0970 C   0  0  0  0  0  0  0  0  0  0  0  0
   45.8729   52.0437   28.8745 S   0  0  2  0  0  0  0  0  0  0  0  0
   44.6560   53.2352   29.5081 C   0  0  0  0  0  0  0  0  0  0  0  0
   47.2877   53.0420   29.6398 C   0  0  0  0  0  0  0  0  0  0  0  0
   47.2956   53.3105   31.2031 C   0  0  2  0  0  0  0  0  0  0  0  0
   46.4064   54.2732   31.7226 O   0  0  0  0  0  0  0  0  0  0  0  0
   48.5676   53.4301   31.9427 C   0  0  1  0  0  0  0  0  0  0  0  0
   49.6789   52.9024   31.2174 O   0  0  0  0  0  0  0  0  0  0  0  0
   48.5431   55.0244   32.0934 C   0  0  2  0  0  0  0  0  0  0  0  0
   49.5193   55.4519   32.9952 O   0  0  0  0  0  0  0  0  0  0  0  0
   47.1266   55.2265   32.6283 C   0  0  1  0  0  0  0  0  0  0  0  0
   48.7189   54.4864   25.1014 O   0  0  0  0  0  0  0  0  0  0  0  0
   47.9473   60.1178   31.3903 N   0  0  0  0  0  0  0  0  0  0  0  0
   48.7969   59.0969   31.5317 C   0  0  0  0  0  0  0  0  0  0  0  0
   48.3642   57.8778   31.8396 N   0  0  0  0  0  0  0  0  0  0  0  0
   47.0734   57.6440   32.1248 C   0  0  0  0  0  0  0  0  0  0  0  0
   46.1401   58.7096   32.0425 C   0  0  0  0  0  0  0  0  0  0  0  0
   46.6313   59.9851   31.6484 C   0  0  0  0  0  0  0  0  0  0  0  0
   45.7852   61.0690   31.5298 N   0  0  0  0  0  0  0  0  0  0  0  0
   44.9368   58.2126   32.3785 N   0  0  0  0  0  0  0  0  0  0  0  0
   45.0562   56.9433   32.6630 C   0  0  0  0  0  0  0  0  0  0  0  0
   46.3508   56.5312   32.5137 N   0  0  0  0  0  0  0  0  0  0  0  0
  2  1  1  1  0  0  0
  2  3  1  0  0  0  0
  2  5  1  0  0  0  0
  3  4  1  0  0  0  0
  3 17  1  0  0  0  0
  5  6  1  0  0  0  0
  7  6  1  6  0  0  0
  7  8  1  0  0  0  0
  7  9  1  0  0  0  0
 10  9  1  6  0  0  0
 10 11  1  0  0  0  0
 10 12  1  0  0  0  0
 11 16  1  0  0  0  0
 12 13  1  6  0  0  0
 12 14  1  0  0  0  0
 14 15  1  1  0  0  0
 14 16  1  0  0  0  0
 16 27  1  6  0  0  0
 18 19  2  0  0  0  0
 18 23  1  0  0  0  0
 19 20  1  0  0  0  0
 20 21  2  0  0  0  0
 21 22  1  0  0  0  0
 21 27  1  0  0  0  0
 22 23  2  0  0  0  0
 22 25  1  0  0  0  0
 23 24  1  0  0  0  0
 25 26  2  0  0  0  0
 26 27  1  0  0  0  0
M  END
>  <CHROM.1>
158.86129573,-172.56191942,-169.30963541,158.52601370,163.37306845,-75.17746579
-123.62070539,47.15146001,55.17453536,29.89654449,1.09914128,1.49326974,-1.86786156

>  <Name>
ligand

>  <RI>
0

>  <Rbt.Current_Directory>
/home/itssahil/PROJECTS/Mol_Feturizer/New_Systems/rnas/3IQR

>  <Rbt.Executable>
rbdock ($Id: //depot/dev/client3/rdock/2013.1/src/exe/rbdock.cxx#4 $)

>  <Rbt.Library>
libRbt.so (2013.1, Build901 2013/11/27)

>  <Rbt.Parameter_File>
/export/apps/rDock/src/rDock_2013.1_src/data/scripts/dock_solv.prm

>  <Rbt.Receptor>
prm/pocket_docking_5.prm

>  <SCORE>
-15.6887

>  <SCORE.INTER>
-11.2996

>  <SCORE.INTER.CONST>
1

>  <SCORE.INTER.POLAR>
0

>  <SCORE.INTER.ROT>
7

>  <SCORE.INTER.SOLV>
19.0065

>  <SCORE.INTER.VDW>
-22.1352

>  <SCORE.INTER.norm>
-0.418503

>  <SCORE.INTRA>
-4.38908

>  <SCORE.INTRA.DIHEDRAL>
-3.77395

>  <SCORE.INTRA.DIHEDRAL.0>
9.29433

>  <SCORE.INTRA.POLAR>
0

>  <SCORE.INTRA.POLAR.0>
0

>  <SCORE.INTRA.REPUL>
0

>  <SCORE.INTRA.REPUL.0>
0

>  <SCORE.INTRA.SOLV>
-1.70354

>  <SCORE.INTRA.SOLV.lig_0>
-48.5102

>  <SCORE.INTRA.VDW>
-1.65033

>  <SCORE.INTRA.VDW.0>
0.379549

>  <SCORE.INTRA.norm>
-0.162559

>  <SCORE.RESTR>
0

>  <SCORE.RESTR.CAVITY>
0

>  <SCORE.RESTR.norm>
0

>  <SCORE.SYSTEM>
0

>  <SCORE.SYSTEM.CONST>
0

>  <SCORE.SYSTEM.DIHEDRAL>
0

>  <SCORE.SYSTEM.SOLV>
0

>  <SCORE.SYSTEM.norm>
0

>  <SCORE.heavy>
27

>  <SCORE.norm>
-0.581061

>  <RMSD>
3.059

$$$$
ligand
 OpenBabel11021811483D
libRbt.so/2013.1/901 2013/11/27
 27 29  0  0  0  0  0  0  0  0999 V2000
   51.0748   52.4671   26.1245 N   0  0  0  0  0  0  0  0  0  0  0  0
   49.9242   51.9840   26.8863 C   0  0  2  0  0  0  0  0  0  0  0  0
   48.8542   51.5314   25.9353 C   0  0  0  0  0  0  0  0  0  0  0  0
   48.8235   50.3648   25.5577 O   0  0  0  0  0  0  0  0  0  0  0  0
   49.3675   53.0990   27.7707 C   0  0  0  0  0  0  0  0  0  0  0  0
   48.2982   52.5186   28.6783 C   0  0  0  0  0  0  0  0  0  0  0  0
   47.7292   53.6672   29.9721 S   0  0  2  0  0  0  0  0  0  0  0  0
   49.0834   53.6941   31.1836 C   0  0  0  0  0  0  0  0  0  0  0  0
   46.6932   52.5703   31.1155 C   0  0  0  0  0  0  0  0  0  0  0  0
   46.1132   53.1762   32.4619 C   0  0  2  0  0  0  0  0  0  0  0  0
   45.3960   54.3882   32.3975 O   0  0  0  0  0  0  0  0  0  0  0  0
   46.9297   53.2035   33.6914 C   0  0  1  0  0  0  0  0  0  0  0  0
   48.0471   52.3161   33.6313 O   0  0  0  0  0  0  0  0  0  0  0  0
   47.2903   54.7631   33.6378 C   0  0  2  0  0  0  0  0  0  0  0  0
   47.8693   55.1793   34.8379 O   0  0  0  0  0  0  0  0  0  0  0  0
   45.8996   55.3578   33.4241 C   0  0  1  0  0  0  0  0  0  0  0  0
   47.9908   52.3198   25.5721 O   0  0  0  0  0  0  0  0  0  0  0  0
   48.5107   59.5512   32.1096 N   0  0  0  0  0  0  0  0  0  0  0  0
   48.9009   58.4390   32.7379 C   0  0  0  0  0  0  0  0  0  0  0  0
   48.0519   57.4406   32.9627 N   0  0  0  0  0  0  0  0  0  0  0  0
   46.7475   57.5499   32.6647 C   0  0  0  0  0  0  0  0  0  0  0  0
   46.2735   58.7355   32.0460 C   0  0  0  0  0  0  0  0  0  0  0  0
   47.2242   59.7556   31.7643 C   0  0  0  0  0  0  0  0  0  0  0  0
   46.8460   60.9323   31.1502 N   0  0  0  0  0  0  0  0  0  0  0  0
   44.9495   58.5885   31.8637 N   0  0  0  0  0  0  0  0  0  0  0  0
   44.5759   57.4234   32.3213 C   0  0  0  0  0  0  0  0  0  0  0  0
   45.6442   56.7309   32.8186 N   0  0  0  0  0  0  0  0  0  0  0  0
  2  1  1  6  0  0  0
  2  3  1  0  0  0  0
  2  5  1  0  0  0  0
  3  4  1  0  0  0  0
  3 17  1  0  0  0  0
  5  6  1  0  0  0  0
  7  6  1  6  0  0  0
  7  8  1  0  0  0  0
  7  9  1  0  0  0  0
 10  9  1  6  0  0  0
 10 11  1  0  0  0  0
 10 12  1  0  0  0  0
 11 16  1  0  0  0  0
 12 13  1  6  0  0  0
 12 14  1  0  0  0  0
 14 15  1  1  0  0  0
 14 16  1  0  0  0  0
 16 27  1  6  0  0  0
 18 19  2  0  0  0  0
 18 23  1  0  0  0  0
 19 20  1  0  0  0  0
 20 21  2  0  0  0  0
 21 22  1  0  0  0  0
 21 27  1  0  0  0  0
 22 23  2  0  0  0  0
 22 25  1  0  0  0  0
 23 24  1  0  0  0  0
 25 26  2  0  0  0  0
 26 27  1  0  0  0  0
M  END
>  <CHROM.1>
90.59672654,-172.59268471,170.76520531,-74.75479672,174.55250267,51.10270494
-122.20684362,47.55569115,54.92769270,30.85652408,-0.61012816,1.23696124
-0.16125885

>  <Name>
ligand

>  <RI>
0

>  <Rbt.Current_Directory>
/home/itssahil/PROJECTS/Mol_Feturizer/New_Systems/rnas/3IQR

>  <Rbt.Executable>
rbdock ($Id: //depot/dev/client3/rdock/2013.1/src/exe/rbdock.cxx#4 $)

>  <Rbt.Library>
libRbt.so (2013.1, Build901 2013/11/27)

>  <Rbt.Parameter_File>
/export/apps/rDock/src/rDock_2013.1_src/data/scripts/dock_solv.prm

>  <Rbt.Receptor>
prm/pocket_docking_6.prm

>  <SCORE>
-16.7063

>  <SCORE.INTER>
-12.2567

>  <SCORE.INTER.CONST>
1

>  <SCORE.INTER.POLAR>
0

>  <SCORE.INTER.ROT>
7

>  <SCORE.INTER.SOLV>
18.6224

>  <SCORE.INTER.VDW>
-22.6453

>  <SCORE.INTER.norm>
-0.453951

>  <SCORE.INTRA>
-4.44966

>  <SCORE.INTRA.DIHEDRAL>
-4.50785

>  <SCORE.INTRA.DIHEDRAL.0>
9.29433

>  <SCORE.INTRA.POLAR>
0

>  <SCORE.INTRA.POLAR.0>
0

>  <SCORE.INTRA.REPUL>
0

>  <SCORE.INTRA.REPUL.0>
0

>  <SCORE.INTRA.SOLV>
-1.22495

>  <SCORE.INTRA.SOLV.lig_0>
-48.5102

>  <SCORE.INTRA.VDW>
-1.58326

>  <SCORE.INTRA.VDW.0>
0.379549

>  <SCORE.INTRA.norm>
-0.164802

>  <SCORE.RESTR>
0

>  <SCORE.RESTR.CAVITY>
0

>  <SCORE.RESTR.norm>
0

>  <SCORE.SYSTEM>
0

>  <SCORE.SYSTEM.CONST>
0

>  <SCORE.SYSTEM.DIHEDRAL>
0

>  <SCORE.SYSTEM.SOLV>
0

>  <SCORE.SYSTEM.norm>
0

>  <SCORE.heavy>
27

>  <SCORE.norm>
-0.618753

>  <RMSD>
3.406

$$$$
ligand
 OpenBabel11021811483D
libRbt.so/2013.1/901 2013/11/27
 27 29  0  0  0  0  0  0  0  0999 V2000
   49.3923   53.5299   27.2641 N   0  0  0  0  0  0  0  0  0  0  0  0
   49.1119   53.1352   28.6437 C   0  0  2  0  0  0  0  0  0  0  0  0
   50.4066   52.9788   29.3877 C   0  0  0  0  0  0  0  0  0  0  0  0
   51.4720   53.1625   28.8086 O   0  0  0  0  0  0  0  0  0  0  0  0
   48.3556   51.8077   28.6725 C   0  0  0  0  0  0  0  0  0  0  0  0
   46.9174   52.0524   28.2532 C   0  0  0  0  0  0  0  0  0  0  0  0
   45.9122   52.8836   29.5242 S   0  0  2  0  0  0  0  0  0  0  0  0
   46.3326   54.6436   29.3569 C   0  0  0  0  0  0  0  0  0  0  0  0
   46.9736   52.7518   31.0863 C   0  0  0  0  0  0  0  0  0  0  0  0
   46.4091   53.3059   32.4613 C   0  0  2  0  0  0  0  0  0  0  0  0
   45.5992   54.4595   32.4374 O   0  0  0  0  0  0  0  0  0  0  0  0
   47.2748   53.3907   33.6540 C   0  0  1  0  0  0  0  0  0  0  0  0
   48.4530   52.5919   33.5383 O   0  0  0  0  0  0  0  0  0  0  0  0
   47.5123   54.9736   33.5962 C   0  0  2  0  0  0  0  0  0  0  0  0
   48.1103   55.4281   34.7729 O   0  0  0  0  0  0  0  0  0  0  0  0
   46.0721   55.4607   33.4482 C   0  0  1  0  0  0  0  0  0  0  0  0
   50.3925   52.7084   30.5817 O   0  0  0  0  0  0  0  0  0  0  0  0
   48.3200   59.7418   31.7899 N   0  0  0  0  0  0  0  0  0  0  0  0
   48.8311   58.6566   32.3773 C   0  0  0  0  0  0  0  0  0  0  0  0
   48.0599   57.6263   32.7118 N   0  0  0  0  0  0  0  0  0  0  0  0
   46.7257   57.6755   32.5717 C   0  0  0  0  0  0  0  0  0  0  0  0
   46.1294   58.8307   32.0031 C   0  0  0  0  0  0  0  0  0  0  0  0
   46.9937   59.8860   31.5997 C   0  0  0  0  0  0  0  0  0  0  0  0
   46.4932   61.0364   31.0243 N   0  0  0  0  0  0  0  0  0  0  0  0
   44.8008   58.6247   31.9826 N   0  0  0  0  0  0  0  0  0  0  0  0
   44.5363   57.4516   32.4928 C   0  0  0  0  0  0  0  0  0  0  0  0
   45.6859   56.8126   32.8648 N   0  0  0  0  0  0  0  0  0  0  0  0
  2  1  1  6  0  0  0
  2  3  1  0  0  0  0
  2  5  1  0  0  0  0
  3  4  1  0  0  0  0
  3 17  1  0  0  0  0
  5  6  1  0  0  0  0
  7  6  1  6  0  0  0
  7  8  1  0  0  0  0
  7  9  1  0  0  0  0
 10  9  1  6  0  0  0
 10 11  1  0  0  0  0
 10 12  1  0  0  0  0
 11 16  1  0  0  0  0
 12 13  1  6  0  0  0
 12 14  1  0  0  0  0
 14 15  1  1  0  0  0
 14 16  1  0  0  0  0
 16 27  1  6  0  0  0
 18 19  2  0  0  0  0
 18 23  1  0  0  0  0
 19 20  1  0  0  0  0
 20 21  2  0  0  0  0
 21 22  1  0  0  0  0
 21 27  1  0  0  0  0
 22 23  2  0  0  0  0
 22 25  1  0  0  0  0
 23 24  1  0  0  0  0
 25 26  2  0  0  0  0
 26 27  1  0  0  0  0
M  END
>  <CHROM.1>
-0.98016567,-74.65345455,-73.84155677,80.99576721,-177.02106895,-35.10230493
-117.34438210,47.42267889,55.18020983,31.26891933,-0.99626263,0.99917706
-0.03003382

>  <Name>
ligand

>  <RI>
0

>  <Rbt.Current_Directory>
/home/itssahil/PROJECTS/Mol_Feturizer/New_Systems/rnas/3IQR

>  <Rbt.Executable>
rbdock ($Id: //depot/dev/client3/rdock/2013.1/src/exe/rbdock.cxx#4 $)

>  <Rbt.Library>
libRbt.so (2013.1, Build901 2013/11/27)

>  <Rbt.Parameter_File>
/export/apps/rDock/src/rDock_2013.1_src/data/scripts/dock_solv.prm

>  <Rbt.Receptor>
prm/pocket_docking_3.prm

>  <SCORE>
-16.5634

>  <SCORE.INTER>
-14.917

>  <SCORE.INTER.CONST>
1

>  <SCORE.INTER.POLAR>
0

>  <SCORE.INTER.ROT>
7

>  <SCORE.INTER.SOLV>
17.6829

>  <SCORE.INTER.VDW>
-24.1056

>  <SCORE.INTER.norm>
-0.55248

>  <SCORE.INTRA>
-1.64642

>  <SCORE.INTRA.DIHEDRAL>
0.336385

>  <SCORE.INTRA.DIHEDRAL.0>
9.29433

>  <SCORE.INTRA.POLAR>
0

>  <SCORE.INTRA.POLAR.0>
0

>  <SCORE.INTRA.REPUL>
0

>  <SCORE.INTRA.REPUL.0>
0

>  <SCORE.INTRA.SOLV>
0.0899987

>  <SCORE.INTRA.SOLV.lig_0>
-48.5102

>  <SCORE.INTRA.VDW>
-1.85961

>  <SCORE.INTRA.VDW.0>
0.379549

>  <SCORE.INTRA.norm>
-0.0609786

>  <SCORE.RESTR>
0

>  <SCORE.RESTR.CAVITY>
0

>  <SCORE.RESTR.norm>
0

>  <SCORE.SYSTEM>
0

>  <SCORE.SYSTEM.CONST>
0

>  <SCORE.SYSTEM.DIHEDRAL>
0

>  <SCORE.SYSTEM.SOLV>
0

>  <SCORE.SYSTEM.norm>
0

>  <SCORE.heavy>
27

>  <SCORE.norm>
-0.613459

>  <RMSD>
3.440

$$$$
ligand
 OpenBabel11021811483D
libRbt.so/2013.1/901 2013/11/27
 27 29  0  0  0  0  0  0  0  0999 V2000
   46.9974   53.7194   25.4630 N   0  0  0  0  0  0  0  0  0  0  0  0
   46.9304   52.2630   25.3520 C   0  0  2  0  0  0  0  0  0  0  0  0
   45.5716   51.7944   25.7859 C   0  0  0  0  0  0  0  0  0  0  0  0
   45.1803   52.0217   26.9259 O   0  0  0  0  0  0  0  0  0  0  0  0
   47.9902   51.6139   26.2413 C   0  0  0  0  0  0  0  0  0  0  0  0
   49.3630   51.9079   25.6642 C   0  0  0  0  0  0  0  0  0  0  0  0
   49.9344   53.6120   25.9579 S   0  0  2  0  0  0  0  0  0  0  0  0
   51.7052   53.5739   25.5513 C   0  0  0  0  0  0  0  0  0  0  0  0
   50.3332   53.6341   27.8084 C   0  0  0  0  0  0  0  0  0  0  0  0
   49.1543   53.5015   28.8614 C   0  0  2  0  0  0  0  0  0  0  0  0
   48.1331   54.4732   28.8508 O   0  0  0  0  0  0  0  0  0  0  0  0
   49.4346   53.1614   30.2704 C   0  0  1  0  0  0  0  0  0  0  0  0
   50.7366   52.6043   30.4547 O   0  0  0  0  0  0  0  0  0  0  0  0
   49.2315   54.6370   30.8592 C   0  0  2  0  0  0  0  0  0  0  0  0
   49.1807   54.6111   32.2540 O   0  0  0  0  0  0  0  0  0  0  0  0
   47.8858   54.9981   30.2332 C   0  0  1  0  0  0  0  0  0  0  0  0
   44.8419   51.2227   24.9862 O   0  0  0  0  0  0  0  0  0  0  0  0
   47.8828   59.4810   32.6896 N   0  0  0  0  0  0  0  0  0  0  0  0
   48.2870   58.2695   33.0809 C   0  0  0  0  0  0  0  0  0  0  0  0
   48.2220   57.2237   32.2621 N   0  0  0  0  0  0  0  0  0  0  0  0
   47.6520   57.3172   31.0503 C   0  0  0  0  0  0  0  0  0  0  0  0
   47.1569   58.5722   30.6108 C   0  0  0  0  0  0  0  0  0  0  0  0
   47.3018   59.6809   31.4903 C   0  0  0  0  0  0  0  0  0  0  0  0
   46.8602   60.9381   31.1308 N   0  0  0  0  0  0  0  0  0  0  0  0
   46.6397   58.3892   29.3832 N   0  0  0  0  0  0  0  0  0  0  0  0
   46.7706   57.1356   29.0403 C   0  0  0  0  0  0  0  0  0  0  0  0
   47.3989   56.4252   30.0246 N   0  0  0  0  0  0  0  0  0  0  0  0
  2  1  1  1  0  0  0
  2  3  1  0  0  0  0
  2  5  1  0  0  0  0
  3  4  1  0  0  0  0
  3 17  1  0  0  0  0
  5  6  1  0  0  0  0
  7  6  1  1  0  0  0
  7  8  1  0  0  0  0
  7  9  1  0  0  0  0
 10  9  1  1  0  0  0
 10 11  1  0  0  0  0
 10 12  1  0  0  0  0
 11 16  1  0  0  0  0
 12 13  1  6  0  0  0
 12 14  1  0  0  0  0
 14 15  1  1  0  0  0
 14 16  1  0  0  0  0
 16 27  1  6  0  0  0
 18 19  2  0  0  0  0
 18 23  1  0  0  0  0
 19 20  1  0  0  0  0
 20 21  2  0  0  0  0
 21 22  1  0  0  0  0
 21 27  1  0  0  0  0
 22 23  2  0  0  0  0
 22 25  1  0  0  0  0
 23 24  1  0  0  0  0
 25 26  2  0  0  0  0
 26 27  1  0  0  0  0
M  END
>  <CHROM.1>
-60.27023661,-69.00849749,75.50419951,166.49254810,-67.81003545,-59.77527553
-152.23435518,48.13763312,54.89521829,28.77877441,1.54089036,0.46259706,-2.38033605

>  <Name>
ligand

>  <RI>
0

>  <Rbt.Current_Directory>
/home/itssahil/PROJECTS/Mol_Feturizer/New_Systems/rnas/3IQR

>  <Rbt.Executable>
rbdock ($Id: //depot/dev/client3/rdock/2013.1/src/exe/rbdock.cxx#4 $)

>  <Rbt.Library>
libRbt.so (2013.1, Build901 2013/11/27)

>  <Rbt.Parameter_File>
/export/apps/rDock/src/rDock_2013.1_src/data/scripts/dock_solv.prm

>  <Rbt.Receptor>
prm/pocket_docking_6.prm

>  <SCORE>
-12.0801

>  <SCORE.INTER>
-7.34379

>  <SCORE.INTER.CONST>
1

>  <SCORE.INTER.POLAR>
0

>  <SCORE.INTER.ROT>
7

>  <SCORE.INTER.SOLV>
19.0476

>  <SCORE.INTER.VDW>
-19.5117

>  <SCORE.INTER.norm>
-0.271992

>  <SCORE.INTRA>
-4.7363

>  <SCORE.INTRA.DIHEDRAL>
-4.09572

>  <SCORE.INTRA.DIHEDRAL.0>
9.29433

>  <SCORE.INTRA.POLAR>
0

>  <SCORE.INTRA.POLAR.0>
0

>  <SCORE.INTRA.REPUL>
0

>  <SCORE.INTRA.REPUL.0>
0

>  <SCORE.INTRA.SOLV>
1.46208

>  <SCORE.INTRA.SOLV.lig_0>
-48.5102

>  <SCORE.INTRA.VDW>
-3.41948

>  <SCORE.INTRA.VDW.0>
0.379549

>  <SCORE.INTRA.norm>
-0.175419

>  <SCORE.RESTR>
0

>  <SCORE.RESTR.CAVITY>
0

>  <SCORE.RESTR.norm>
0

>  <SCORE.SYSTEM>
0

>  <SCORE.SYSTEM.CONST>
0

>  <SCORE.SYSTEM.DIHEDRAL>
0

>  <SCORE.SYSTEM.SOLV>
0

>  <SCORE.SYSTEM.norm>
0

>  <SCORE.heavy>
27

>  <SCORE.norm>
-0.447411

>  <RMSD>
3.707

$$$$
ligand
 OpenBabel11021811483D
libRbt.so/2013.1/901 2013/11/27
 27 29  0  0  0  0  0  0  0  0999 V2000
   46.9677   53.8893   26.4443 N   0  0  0  0  0  0  0  0  0  0  0  0
   47.8918   54.9989   26.6738 C   0  0  2  0  0  0  0  0  0  0  0  0
   47.4609   56.1808   25.8543 C   0  0  0  0  0  0  0  0  0  0  0  0
   47.1382   56.0278   24.6808 O   0  0  0  0  0  0  0  0  0  0  0  0
   49.3103   54.6005   26.2685 C   0  0  0  0  0  0  0  0  0  0  0  0
   49.7881   53.4872   27.1829 C   0  0  0  0  0  0  0  0  0  0  0  0
   50.5123   54.0790   28.7456 S   0  0  2  0  0  0  0  0  0  0  0  0
   50.0155   52.8372   29.9758 C   0  0  0  0  0  0  0  0  0  0  0  0
   49.2153   55.2898   29.4057 C   0  0  0  0  0  0  0  0  0  0  0  0
   49.5642   56.2000   30.6571 C   0  0  2  0  0  0  0  0  0  0  0  0
   49.6779   55.5868   31.9214 O   0  0  0  0  0  0  0  0  0  0  0  0
   48.9019   57.5052   30.8501 C   0  0  1  0  0  0  0  0  0  0  0  0
   48.2794   57.9891   29.6593 O   0  0  0  0  0  0  0  0  0  0  0  0
   47.8973   57.0323   32.0044 C   0  0  2  0  0  0  0  0  0  0  0  0
   47.2775   58.1310   32.6024 O   0  0  0  0  0  0  0  0  0  0  0  0
   48.8739   56.3299   32.9456 C   0  0  1  0  0  0  0  0  0  0  0  0
   47.3935   57.2879   26.3728 O   0  0  0  0  0  0  0  0  0  0  0  0
   44.6202   54.1919   34.8075 N   0  0  0  0  0  0  0  0  0  0  0  0
   44.7884   55.2095   33.9588 C   0  0  0  0  0  0  0  0  0  0  0  0
   46.0026   55.5966   33.5790 N   0  0  0  0  0  0  0  0  0  0  0  0
   47.1091   55.0540   34.1113 C   0  0  0  0  0  0  0  0  0  0  0  0
   46.9817   54.0064   35.0596 C   0  0  0  0  0  0  0  0  0  0  0  0
   45.6669   53.5773   35.3929 C   0  0  0  0  0  0  0  0  0  0  0  0
   45.4586   52.5538   36.2950 N   0  0  0  0  0  0  0  0  0  0  0  0
   48.2241   53.6520   35.4319 N   0  0  0  0  0  0  0  0  0  0  0  0
   49.0940   54.3937   34.7999 C   0  0  0  0  0  0  0  0  0  0  0  0
   48.4663   55.2715   33.9610 N   0  0  0  0  0  0  0  0  0  0  0  0
  2  1  1  6  0  0  0
  2  3  1  0  0  0  0
  2  5  1  0  0  0  0
  3  4  1  0  0  0  0
  3 17  1  0  0  0  0
  5  6  1  0  0  0  0
  7  6  1  6  0  0  0
  7  8  1  0  0  0  0
  7  9  1  0  0  0  0
 10  9  1  6  0  0  0
 10 11  1  0  0  0  0
 10 12  1  0  0  0  0
 11 16  1  0  0  0  0
 12 13  1  6  0  0  0
 12 14  1  0  0  0  0
 14 15  1  1  0  0  0
 14 16  1  0  0  0  0
 16 27  1  1  0  0  0
 18 19  2  0  0  0  0
 18 23  1  0  0  0  0
 19 20  1  0  0  0  0
 20 21  2  0  0  0  0
 21 22  1  0  0  0  0
 21 27  1  0  0  0  0
 22 23  2  0  0  0  0
 22 25  1  0  0  0  0
 23 24  1  0  0  0  0
 25 26  2  0  0  0  0
 26 27  1  0  0  0  0
M  END
>  <CHROM.1>
-45.20838107,-64.96560347,-85.10322875,144.59532032,-170.73093742,-70.59783238
-118.21242865,48.02507860,55.20681206,30.87482411,1.26023724,0.78627232,-1.24540430

>  <Name>
ligand

>  <RI>
0

>  <Rbt.Current_Directory>
/home/itssahil/PROJECTS/Mol_Feturizer/New_Systems/rnas/3IQR

>  <Rbt.Executable>
rbdock ($Id: //depot/dev/client3/rdock/2013.1/src/exe/rbdock.cxx#4 $)

>  <Rbt.Library>
libRbt.so (2013.1, Build901 2013/11/27)

>  <Rbt.Parameter_File>
/export/apps/rDock/src/rDock_2013.1_src/data/scripts/dock_solv.prm

>  <Rbt.Receptor>
prm/pocket_docking_6.prm

>  <SCORE>
-17.9544

>  <SCORE.INTER>
-14.8021

>  <SCORE.INTER.CONST>
1

>  <SCORE.INTER.POLAR>
0

>  <SCORE.INTER.ROT>
7

>  <SCORE.INTER.SOLV>
12.1739

>  <SCORE.INTER.VDW>
-22.1927

>  <SCORE.INTER.norm>
-0.548224

>  <SCORE.INTRA>
-3.15232

>  <SCORE.INTRA.DIHEDRAL>
-0.898273

>  <SCORE.INTRA.DIHEDRAL.0>
9.29433

>  <SCORE.INTRA.POLAR>
0

>  <SCORE.INTRA.POLAR.0>
0

>  <SCORE.INTRA.REPUL>
0

>  <SCORE.INTRA.REPUL.0>
0

>  <SCORE.INTRA.SOLV>
-0.0955186

>  <SCORE.INTRA.SOLV.lig_0>
-48.5102

>  <SCORE.INTRA.VDW>
-2.65543

>  <SCORE.INTRA.VDW.0>
0.379549

>  <SCORE.INTRA.norm>
-0.116753

>  <SCORE.RESTR>
0

>  <SCORE.RESTR.CAVITY>
0

>  <SCORE.RESTR.norm>
0

>  <SCORE.SYSTEM>
0

>  <SCORE.SYSTEM.CONST>
0

>  <SCORE.SYSTEM.DIHEDRAL>
0

>  <SCORE.SYSTEM.SOLV>
0

>  <SCORE.SYSTEM.norm>
0

>  <SCORE.heavy>
27

>  <SCORE.norm>
-0.664977

>  <RMSD>
4.269

$$$$
ligand
 OpenBabel11021811483D
libRbt.so/2013.1/901 2013/11/27
 27 29  0  0  0  0  0  0  0  0999 V2000
   48.3310   52.8535   28.0362 N   0  0  0  0  0  0  0  0  0  0  0  0
   48.1515   53.6340   29.2595 C   0  0  2  0  0  0  0  0  0  0  0  0
   49.4955   53.9376   29.8559 C   0  0  0  0  0  0  0  0  0  0  0  0
   49.8247   55.1006   30.0642 O   0  0  0  0  0  0  0  0  0  0  0  0
   47.3212   52.8479   30.2733 C   0  0  0  0  0  0  0  0  0  0  0  0
   46.8353   53.7980   31.3527 C   0  0  0  0  0  0  0  0  0  0  0  0
   48.1301   54.2929   32.5339 S   0  0  2  0  0  0  0  0  0  0  0  0
   47.9906   53.0922   33.8907 C   0  0  0  0  0  0  0  0  0  0  0  0
   47.2865   55.6206   33.5873 C   0  0  0  0  0  0  0  0  0  0  0  0
   47.2426   57.1180   33.0658 C   0  0  2  0  0  0  0  0  0  0  0  0
   46.9297   57.3471   31.7105 O   0  0  0  0  0  0  0  0  0  0  0  0
   48.2894   58.0840   33.4535 C   0  0  1  0  0  0  0  0  0  0  0  0
   49.0417   57.6556   34.5893 O   0  0  0  0  0  0  0  0  0  0  0  0
   49.0809   58.0655   32.0612 C   0  0  2  0  0  0  0  0  0  0  0  0
   50.0185   59.0986   32.0106 O   0  0  0  0  0  0  0  0  0  0  0  0
   47.9244   58.2793   31.0866 C   0  0  1  0  0  0  0  0  0  0  0  0
   50.2421   53.0197   30.1707 O   0  0  0  0  0  0  0  0  0  0  0  0
   45.1443   55.6035   27.7336 N   0  0  0  0  0  0  0  0  0  0  0  0
   45.0001   55.7742   29.0505 C   0  0  0  0  0  0  0  0  0  0  0  0
   45.8354   56.5447   29.7411 N   0  0  0  0  0  0  0  0  0  0  0  0
   46.9165   57.0959   29.1671 C   0  0  0  0  0  0  0  0  0  0  0  0
   47.1437   56.8976   27.7806 C   0  0  0  0  0  0  0  0  0  0  0  0
   46.1933   56.1194   27.0631 C   0  0  0  0  0  0  0  0  0  0  0  0
   46.3343   55.8931   25.7090 N   0  0  0  0  0  0  0  0  0  0  0  0
   48.2804   57.5433   27.4663 N   0  0  0  0  0  0  0  0  0  0  0  0
   48.7670   58.1106   28.5377 C   0  0  0  0  0  0  0  0  0  0  0  0
   47.9626   57.8793   29.6183 N   0  0  0  0  0  0  0  0  0  0  0  0
  2  1  1  6  0  0  0
  2  3  1  0  0  0  0
  2  5  1  0  0  0  0
  3  4  1  0  0  0  0
  3 17  1  0  0  0  0
  5  6  1  0  0  0  0
  7  6  1  6  0  0  0
  7  8  1  0  0  0  0
  7  9  1  0  0  0  0
 10  9  1  6  0  0  0
 10 11  1  0  0  0  0
 10 12  1  0  0  0  0
 11 16  1  0  0  0  0
 12 13  1  1  0  0  0
 12 14  1  0  0  0  0
 14 15  1  1  0  0  0
 14 16  1  0  0  0  0
 16 27  1  6  0  0  0
 18 19  2  0  0  0  0
 18 23  1  0  0  0  0
 19 20  1  0  0  0  0
 20 21  2  0  0  0  0
 21 22  1  0  0  0  0
 21 27  1  0  0  0  0
 22 23  2  0  0  0  0
 22 25  1  0  0  0  0
 23 24  1  0  0  0  0
 25 26  2  0  0  0  0
 26 27  1  0  0  0  0
M  END
>  <CHROM.1>
123.41258993,-164.74321523,-74.82835914,-92.65061448,-83.78349175,43.48944708
16.21410353,47.83239173,55.87657178,30.51063756,-2.88107555,-1.29027755,0.12034111

>  <Name>
ligand

>  <RI>
0

>  <Rbt.Current_Directory>
/home/itssahil/PROJECTS/Mol_Feturizer/New_Systems/rnas/3IQR

>  <Rbt.Executable>
rbdock ($Id: //depot/dev/client3/rdock/2013.1/src/exe/rbdock.cxx#4 $)

>  <Rbt.Library>
libRbt.so (2013.1, Build901 2013/11/27)

>  <Rbt.Parameter_File>
/export/apps/rDock/src/rDock_2013.1_src/data/scripts/dock_solv.prm

>  <Rbt.Receptor>
prm/pocket_docking_2.prm

>  <SCORE>
-7.32659

>  <SCORE.INTER>
-4.96856

>  <SCORE.INTER.CONST>
1

>  <SCORE.INTER.POLAR>
0

>  <SCORE.INTER.ROT>
7

>  <SCORE.INTER.SOLV>
16.2794

>  <SCORE.INTER.VDW>
-17.0055

>  <SCORE.INTER.norm>
-0.184021

>  <SCORE.INTRA>
-6.07616

>  <SCORE.INTRA.DIHEDRAL>
-1.37583

>  <SCORE.INTRA.DIHEDRAL.0>
9.29433

>  <SCORE.INTRA.POLAR>
0

>  <SCORE.INTRA.POLAR.0>
0

>  <SCORE.INTRA.REPUL>
0

>  <SCORE.INTRA.REPUL.0>
0

>  <SCORE.INTRA.SOLV>
-1.25146

>  <SCORE.INTRA.SOLV.lig_0>
-48.5102

>  <SCORE.INTRA.VDW>
-4.76251

>  <SCORE.INTRA.VDW.0>
0.379549

>  <SCORE.INTRA.norm>
-0.225043

>  <SCORE.RESTR>
3.71813

>  <SCORE.RESTR.CAVITY>
3.71813

>  <SCORE.RESTR.norm>
0.137708

>  <SCORE.SYSTEM>
0

>  <SCORE.SYSTEM.CONST>
0

>  <SCORE.SYSTEM.DIHEDRAL>
0

>  <SCORE.SYSTEM.SOLV>
0

>  <SCORE.SYSTEM.norm>
0

>  <SCORE.heavy>
27

>  <SCORE.norm>
-0.271355

>  <RMSD>
4.439

$$$$
ligand
 OpenBabel11021811483D
libRbt.so/2013.1/901 2013/11/27
 27 29  0  0  0  0  0  0  0  0999 V2000
   49.2419   52.4653   24.1715 N   0  0  0  0  0  0  0  0  0  0  0  0
   48.7437   53.5718   24.9872 C   0  0  2  0  0  0  0  0  0  0  0  0
   48.7076   54.8226   24.1575 C   0  0  0  0  0  0  0  0  0  0  0  0
   49.6894   55.1496   23.4990 O   0  0  0  0  0  0  0  0  0  0  0  0
   49.6578   53.7971   26.1909 C   0  0  0  0  0  0  0  0  0  0  0  0
   49.0381   54.8534   27.0876 C   0  0  0  0  0  0  0  0  0  0  0  0
   50.0200   55.2223   28.5764 S   0  0  2  0  0  0  0  0  0  0  0  0
   49.6983   53.8236   29.6910 C   0  0  0  0  0  0  0  0  0  0  0  0
   48.8773   56.3332   29.5982 C   0  0  0  0  0  0  0  0  0  0  0  0
   49.3592   56.8515   31.0178 C   0  0  2  0  0  0  0  0  0  0  0  0
   49.2623   55.9771   32.1192 O   0  0  0  0  0  0  0  0  0  0  0  0
   49.0049   58.2053   31.4878 C   0  0  1  0  0  0  0  0  0  0  0  0
   48.5739   59.0615   30.4292 O   0  0  0  0  0  0  0  0  0  0  0  0
   47.8591   57.7505   32.5104 C   0  0  2  0  0  0  0  0  0  0  0  0
   47.4774   58.8132   33.3313 O   0  0  0  0  0  0  0  0  0  0  0  0
   48.5973   56.6561   33.2787 C   0  0  1  0  0  0  0  0  0  0  0  0
   47.6825   55.4902   24.1088 O   0  0  0  0  0  0  0  0  0  0  0  0
   44.0089   54.4179   33.5391 N   0  0  0  0  0  0  0  0  0  0  0  0
   44.4222   55.4889   32.8563 C   0  0  0  0  0  0  0  0  0  0  0  0
   45.6873   55.8950   32.9109 N   0  0  0  0  0  0  0  0  0  0  0  0
   46.5747   55.3134   33.7333 C   0  0  0  0  0  0  0  0  0  0  0  0
   46.1686   54.2055   34.5214 C   0  0  0  0  0  0  0  0  0  0  0  0
   44.8239   53.7611   34.3879 C   0  0  0  0  0  0  0  0  0  0  0  0
   44.3556   52.6807   35.1079 N   0  0  0  0  0  0  0  0  0  0  0  0
   47.2328   53.8216   35.2482 N   0  0  0  0  0  0  0  0  0  0  0  0
   48.2462   54.6000   34.9771 C   0  0  0  0  0  0  0  0  0  0  0  0
   47.9047   55.5343   34.0398 N   0  0  0  0  0  0  0  0  0  0  0  0
  2  1  1  6  0  0  0
  2  3  1  0  0  0  0
  2  5  1  0  0  0  0
  3  4  1  0  0  0  0
  3 17  1  0  0  0  0
  5  6  1  0  0  0  0
  7  6  1  6  0  0  0
  7  8  1  0  0  0  0
  7  9  1  0  0  0  0
 10  9  1  6  0  0  0
 10 11  1  0  0  0  0
 10 12  1  0  0  0  0
 11 16  1  0  0  0  0
 12 13  1  6  0  0  0
 12 14  1  0  0  0  0
 14 15  1  1  0  0  0
 14 16  1  0  0  0  0
 16 27  1  6  0  0  0
 18 19  2  0  0  0  0
 18 23  1  0  0  0  0
 19 20  1  0  0  0  0
 20 21  2  0  0  0  0
 21 22  1  0  0  0  0
 21 27  1  0  0  0  0
 22 23  2  0  0  0  0
 22 25  1  0  0  0  0
 23 24  1  0  0  0  0
 25 26  2  0  0  0  0
 26 27  1  0  0  0  0
M  END
>  <CHROM.1>
-49.09158748,-174.31415916,179.72472546,-76.82196635,178.39530064,-79.88852792
-94.60932494,47.96664071,55.38766284,30.44682264,1.03826078,-0.93937264,-2.08947216

>  <Name>
ligand

>  <RI>
0

>  <Rbt.Current_Directory>
/home/itssahil/PROJECTS/Mol_Feturizer/New_Systems/rnas/3IQR

>  <Rbt.Executable>
rbdock ($Id: //depot/dev/client3/rdock/2013.1/src/exe/rbdock.cxx#4 $)

>  <Rbt.Library>
libRbt.so (2013.1, Build901 2013/11/27)

>  <Rbt.Parameter_File>
/export/apps/rDock/src/rDock_2013.1_src/data/scripts/dock_solv.prm

>  <Rbt.Receptor>
prm/pocket_docking_5.prm

>  <SCORE>
-17.1729

>  <SCORE.INTER>
-11.9511

>  <SCORE.INTER.CONST>
1

>  <SCORE.INTER.POLAR>
0

>  <SCORE.INTER.ROT>
7

>  <SCORE.INTER.SOLV>
11.6764

>  <SCORE.INTER.VDW>
-20.1262

>  <SCORE.INTER.norm>
-0.442633

>  <SCORE.INTRA>
-5.26822

>  <SCORE.INTRA.DIHEDRAL>
-4.15637

>  <SCORE.INTRA.DIHEDRAL.0>
9.29433

>  <SCORE.INTRA.POLAR>
0

>  <SCORE.INTRA.POLAR.0>
0

>  <SCORE.INTRA.REPUL>
0

>  <SCORE.INTRA.REPUL.0>
0

>  <SCORE.INTRA.SOLV>
-1.80648

>  <SCORE.INTRA.SOLV.lig_0>
-48.5102

>  <SCORE.INTRA.VDW>
-2.28679

>  <SCORE.INTRA.VDW.0>
0.379549

>  <SCORE.INTRA.norm>
-0.195119

>  <SCORE.RESTR>
0.0464166

>  <SCORE.RESTR.CAVITY>
0.0464166

>  <SCORE.RESTR.norm>
0.00171913

>  <SCORE.SYSTEM>
0

>  <SCORE.SYSTEM.CONST>
0

>  <SCORE.SYSTEM.DIHEDRAL>
0

>  <SCORE.SYSTEM.SOLV>
0

>  <SCORE.SYSTEM.norm>
0

>  <SCORE.heavy>
27

>  <SCORE.norm>
-0.636033

>  <RMSD>
4.518

$$$$
ligand
 OpenBabel11021811483D
libRbt.so/2013.1/901 2013/11/27
 27 29  0  0  0  0  0  0  0  0999 V2000
   46.5433   53.6692   25.3933 N   0  0  0  0  0  0  0  0  0  0  0  0
   46.2423   54.8858   26.1465 C   0  0  2  0  0  0  0  0  0  0  0  0
   47.2654   55.9357   25.8224 C   0  0  0  0  0  0  0  0  0  0  0  0
   46.9550   57.1220   25.8475 O   0  0  0  0  0  0  0  0  0  0  0  0
   46.2758   54.6022   27.6477 C   0  0  0  0  0  0  0  0  0  0  0  0
   45.7366   55.8124   28.3885 C   0  0  0  0  0  0  0  0  0  0  0  0
   46.4869   56.0650   30.0286 S   0  0  2  0  0  0  0  0  0  0  0  0
   46.0879   57.7869   30.4505 C   0  0  0  0  0  0  0  0  0  0  0  0
   48.2731   56.5492   29.6301 C   0  0  0  0  0  0  0  0  0  0  0  0
   49.2976   56.7936   30.8162 C   0  0  2  0  0  0  0  0  0  0  0  0
   49.4226   55.8012   31.8095 O   0  0  0  0  0  0  0  0  0  0  0  0
   49.3819   58.1080   31.4829 C   0  0  1  0  0  0  0  0  0  0  0  0
   48.7815   59.1539   30.7179 O   0  0  0  0  0  0  0  0  0  0  0  0
   48.5909   57.6909   32.8116 C   0  0  2  0  0  0  0  0  0  0  0  0
   48.7157   58.6763   33.7925 O   0  0  0  0  0  0  0  0  0  0  0  0
   49.3311   56.4060   33.1783 C   0  0  1  0  0  0  0  0  0  0  0  0
   48.4178   55.6051   25.5742 O   0  0  0  0  0  0  0  0  0  0  0  0
   44.7599   54.5289   34.4863 N   0  0  0  0  0  0  0  0  0  0  0  0
   45.0903   55.5979   33.7568 C   0  0  0  0  0  0  0  0  0  0  0  0
   46.3622   55.8988   33.5121 N   0  0  0  0  0  0  0  0  0  0  0  0
   47.3663   55.2063   34.0730 C   0  0  0  0  0  0  0  0  0  0  0  0
   47.0650   54.0946   34.9016 C   0  0  0  0  0  0  0  0  0  0  0  0
   45.6936   53.7660   35.0883 C   0  0  0  0  0  0  0  0  0  0  0  0
   45.3182   52.6901   35.8670 N   0  0  0  0  0  0  0  0  0  0  0  0
   48.2344   53.5899   35.3327 N   0  0  0  0  0  0  0  0  0  0  0  0
   49.2179   54.2984   34.8457 C   0  0  0  0  0  0  0  0  0  0  0  0
   48.7452   55.3046   34.0505 N   0  0  0  0  0  0  0  0  0  0  0  0
  2  1  1  6  0  0  0
  2  3  1  0  0  0  0
  2  5  1  0  0  0  0
  3  4  1  0  0  0  0
  3 17  1  0  0  0  0
  5  6  1  0  0  0  0
  7  6  1  6  0  0  0
  7  8  1  0  0  0  0
  7  9  1  0  0  0  0
 10  9  1  1  0  0  0
 10 11  1  0  0  0  0
 10 12  1  0  0  0  0
 11 16  1  0  0  0  0
 12 13  1  6  0  0  0
 12 14  1  0  0  0  0
 14 15  1  1  0  0  0
 14 16  1  0  0  0  0
 16 27  1  1  0  0  0
 18 19  2  0  0  0  0
 18 23  1  0  0  0  0
 19 20  1  0  0  0  0
 20 21  2  0  0  0  0
 21 22  1  0  0  0  0
 21 27  1  0  0  0  0
 22 23  2  0  0  0  0
 22 25  1  0  0  0  0
 23 24  1  0  0  0  0
 25 26  2  0  0  0  0
 26 27  1  0  0  0  0
M  END
>  <CHROM.1>
149.20602250,-170.63905599,-148.40549325,162.71775736,-177.12801536,51.34873890
-85.61590281,47.37517972,55.83836150,31.15705612,1.60079397,-0.87010741,-1.43708702

>  <Name>
ligand

>  <RI>
0

>  <Rbt.Current_Directory>
/home/itssahil/PROJECTS/Mol_Feturizer/New_Systems/rnas/3IQR

>  <Rbt.Executable>
rbdock ($Id: //depot/dev/client3/rdock/2013.1/src/exe/rbdock.cxx#4 $)

>  <Rbt.Library>
libRbt.so (2013.1, Build901 2013/11/27)

>  <Rbt.Parameter_File>
/export/apps/rDock/src/rDock_2013.1_src/data/scripts/dock_solv.prm

>  <Rbt.Receptor>
prm/pocket_docking_7.prm

>  <SCORE>
-17.7264

>  <SCORE.INTER>
-12.2533

>  <SCORE.INTER.CONST>
1

>  <SCORE.INTER.POLAR>
0

>  <SCORE.INTER.ROT>
7

>  <SCORE.INTER.SOLV>
15.9865

>  <SCORE.INTER.VDW>
-21.7644

>  <SCORE.INTER.norm>
-0.453827

>  <SCORE.INTRA>
-5.47303

>  <SCORE.INTRA.DIHEDRAL>
-1.61079

>  <SCORE.INTRA.DIHEDRAL.0>
9.29433

>  <SCORE.INTRA.POLAR>
0

>  <SCORE.INTRA.POLAR.0>
0

>  <SCORE.INTRA.REPUL>
0

>  <SCORE.INTRA.REPUL.0>
0

>  <SCORE.INTRA.SOLV>
-1.2998

>  <SCORE.INTRA.SOLV.lig_0>
-48.5102

>  <SCORE.INTRA.VDW>
-4.01774

>  <SCORE.INTRA.VDW.0>
0.379549

>  <SCORE.INTRA.norm>
-0.202705

>  <SCORE.RESTR>
0

>  <SCORE.RESTR.CAVITY>
0

>  <SCORE.RESTR.norm>
0

>  <SCORE.SYSTEM>
0

>  <SCORE.SYSTEM.CONST>
0

>  <SCORE.SYSTEM.DIHEDRAL>
0

>  <SCORE.SYSTEM.SOLV>
0

>  <SCORE.SYSTEM.norm>
0

>  <SCORE.heavy>
27

>  <SCORE.norm>
-0.656532

>  <RMSD>
4.541

$$$$
ligand
 OpenBabel11021811483D
libRbt.so/2013.1/901 2013/11/27
 27 29  0  0  0  0  0  0  0  0999 V2000
   49.4820   54.5598   26.7764 N   0  0  0  0  0  0  0  0  0  0  0  0
   48.0347   54.7433   26.6790 C   0  0  2  0  0  0  0  0  0  0  0  0
   47.7422   55.9161   25.7884 C   0  0  0  0  0  0  0  0  0  0  0  0
   47.3706   55.7314   24.6342 O   0  0  0  0  0  0  0  0  0  0  0  0
   47.4389   55.0050   28.0616 C   0  0  0  0  0  0  0  0  0  0  0  0
   45.9261   55.0483   27.9445 C   0  0  0  0  0  0  0  0  0  0  0  0
   45.0881   55.6278   29.4541 S   0  0  2  0  0  0  0  0  0  0  0  0
   43.4117   56.0634   28.9045 C   0  0  0  0  0  0  0  0  0  0  0  0
   45.5607   57.4585   29.5496 C   0  0  0  0  0  0  0  0  0  0  0  0
   47.0424   57.8613   29.9477 C   0  0  2  0  0  0  0  0  0  0  0  0
   47.8270   56.9231   30.6487 O   0  0  0  0  0  0  0  0  0  0  0  0
   47.3390   59.1969   30.5022 C   0  0  1  0  0  0  0  0  0  0  0  0
   46.2925   60.1386   30.2621 O   0  0  0  0  0  0  0  0  0  0  0  0
   47.5044   58.7307   32.0255 C   0  0  2  0  0  0  0  0  0  0  0  0
   48.0518   59.7547   32.8004 O   0  0  0  0  0  0  0  0  0  0  0  0
   48.4646   57.5559   31.8489 C   0  0  1  0  0  0  0  0  0  0  0  0
   47.8363   57.0537   26.2312 O   0  0  0  0  0  0  0  0  0  0  0  0
   45.5208   54.4030   34.5919 N   0  0  0  0  0  0  0  0  0  0  0  0
   45.2024   55.4373   33.8090 C   0  0  0  0  0  0  0  0  0  0  0  0
   46.1375   56.1200   33.1549 N   0  0  0  0  0  0  0  0  0  0  0  0
   47.4437   55.8682   33.3355 C   0  0  0  0  0  0  0  0  0  0  0  0
   47.8344   54.8142   34.2013 C   0  0  0  0  0  0  0  0  0  0  0  0
   46.8030   54.0660   34.8338 C   0  0  0  0  0  0  0  0  0  0  0  0
   47.1000   53.0155   35.6782 N   0  0  0  0  0  0  0  0  0  0  0  0
   49.1786   54.7800   34.2067 N   0  0  0  0  0  0  0  0  0  0  0  0
   49.6391   55.7217   33.4273 C   0  0  0  0  0  0  0  0  0  0  0  0
   48.6152   56.4207   32.8518 N   0  0  0  0  0  0  0  0  0  0  0  0
  2  1  1  1  0  0  0
  2  3  1  0  0  0  0
  2  5  1  0  0  0  0
  3  4  1  0  0  0  0
  3 17  1  0  0  0  0
  5  6  1  0  0  0  0
  7  6  1  6  0  0  0
  7  8  1  0  0  0  0
  7  9  1  0  0  0  0
 10  9  1  1  0  0  0
 10 11  1  0  0  0  0
 10 12  1  0  0  0  0
 11 16  1  0  0  0  0
 12 13  1  1  0  0  0
 12 14  1  0  0  0  0
 14 15  1  1  0  0  0
 14 16  1  0  0  0  0
 16 27  1  1  0  0  0
 18 19  2  0  0  0  0
 18 23  1  0  0  0  0
 19 20  1  0  0  0  0
 20 21  2  0  0  0  0
 21 22  1  0  0  0  0
 21 27  1  0  0  0  0
 22 23  2  0  0  0  0
 22 25  1  0  0  0  0
 23 24  1  0  0  0  0
 25 26  2  0  0  0  0
 26 27  1  0  0  0  0
M  END
>  <CHROM.1>
102.62537797,-174.24912249,-170.27342437,163.33623739,-72.38007542,-21.38480103
-65.28034579,47.06733764,56.24865490,30.65742449,1.85957751,-1.48176453,-1.19713235

>  <Name>
ligand

>  <RI>
0

>  <Rbt.Current_Directory>
/home/itssahil/PROJECTS/Mol_Feturizer/New_Systems/rnas/3IQR

>  <Rbt.Executable>
rbdock ($Id: //depot/dev/client3/rdock/2013.1/src/exe/rbdock.cxx#4 $)

>  <Rbt.Library>
libRbt.so (2013.1, Build901 2013/11/27)

>  <Rbt.Parameter_File>
/export/apps/rDock/src/rDock_2013.1_src/data/scripts/dock_solv.prm

>  <Rbt.Receptor>
prm/pocket_docking_4.prm

>  <SCORE>
-16.3219

>  <SCORE.INTER>
-11.0797

>  <SCORE.INTER.CONST>
1

>  <SCORE.INTER.POLAR>
0

>  <SCORE.INTER.ROT>
7

>  <SCORE.INTER.SOLV>
12.9794

>  <SCORE.INTER.VDW>
-19.9796

>  <SCORE.INTER.norm>
-0.41036

>  <SCORE.INTRA>
-5.24216

>  <SCORE.INTRA.DIHEDRAL>
-1.709

>  <SCORE.INTRA.DIHEDRAL.0>
9.29433

>  <SCORE.INTRA.POLAR>
0

>  <SCORE.INTRA.POLAR.0>
0

>  <SCORE.INTRA.REPUL>
0

>  <SCORE.INTRA.REPUL.0>
0

>  <SCORE.INTRA.SOLV>
-1.73569

>  <SCORE.INTRA.SOLV.lig_0>
-48.5102

>  <SCORE.INTRA.VDW>
-3.51981

>  <SCORE.INTRA.VDW.0>
0.379549

>  <SCORE.INTRA.norm>
-0.194154

>  <SCORE.RESTR>
0

>  <SCORE.RESTR.CAVITY>
0

>  <SCORE.RESTR.norm>
0

>  <SCORE.SYSTEM>
0

>  <SCORE.SYSTEM.CONST>
0

>  <SCORE.SYSTEM.DIHEDRAL>
0

>  <SCORE.SYSTEM.SOLV>
0

>  <SCORE.SYSTEM.norm>
0

>  <SCORE.heavy>
27

>  <SCORE.norm>
-0.604514

>  <RMSD>
4.614

$$$$
ligand
 OpenBabel11021811483D
libRbt.so/2013.1/901 2013/11/27
 27 29  0  0  0  0  0  0  0  0999 V2000
   50.7593   53.6990   26.5902 N   0  0  0  0  0  0  0  0  0  0  0  0
   49.5430   53.3589   25.8536 C   0  0  2  0  0  0  0  0  0  0  0  0
   49.7982   53.5032   24.3811 C   0  0  0  0  0  0  0  0  0  0  0  0
   50.3485   54.5113   23.9506 O   0  0  0  0  0  0  0  0  0  0  0  0
   48.4008   54.2908   26.2563 C   0  0  0  0  0  0  0  0  0  0  0  0
   47.8581   53.8493   27.6033 C   0  0  0  0  0  0  0  0  0  0  0  0
   49.0137   54.1171   28.9852 S   0  0  2  0  0  0  0  0  0  0  0  0
   48.1262   53.4998   30.4459 C   0  0  0  0  0  0  0  0  0  0  0  0
   48.6776   55.9062   29.5049 C   0  0  0  0  0  0  0  0  0  0  0  0
   49.4300   56.5061   30.7659 C   0  0  2  0  0  0  0  0  0  0  0  0
   49.5937   55.6870   31.9015 O   0  0  0  0  0  0  0  0  0  0  0  0
   49.1400   57.8743   31.2384 C   0  0  1  0  0  0  0  0  0  0  0  0
   48.4700   58.6663   30.2569 O   0  0  0  0  0  0  0  0  0  0  0  0
   48.2490   57.4481   32.4991 C   0  0  2  0  0  0  0  0  0  0  0  0
   48.0148   58.5429   33.3331 O   0  0  0  0  0  0  0  0  0  0  0  0
   49.1658   56.4099   33.1432 C   0  0  1  0  0  0  0  0  0  0  0  0
   49.4929   52.5945   23.6194 O   0  0  0  0  0  0  0  0  0  0  0  0
   44.7799   54.2558   34.6446 N   0  0  0  0  0  0  0  0  0  0  0  0
   45.0124   55.3072   33.8543 C   0  0  0  0  0  0  0  0  0  0  0  0
   46.2523   55.6924   33.5670 N   0  0  0  0  0  0  0  0  0  0  0  0
   47.3173   55.1104   34.1407 C   0  0  0  0  0  0  0  0  0  0  0  0
   47.1189   54.0240   35.0315 C   0  0  0  0  0  0  0  0  0  0  0  0
   45.7811   53.6004   35.2644 C   0  0  0  0  0  0  0  0  0  0  0  0
   45.5051   52.5412   36.1053 N   0  0  0  0  0  0  0  0  0  0  0  0
   48.3317   53.6349   35.4624 N   0  0  0  0  0  0  0  0  0  0  0  0
   49.2478   54.3908   34.9185 C   0  0  0  0  0  0  0  0  0  0  0  0
   48.6837   55.3140   34.0832 N   0  0  0  0  0  0  0  0  0  0  0  0
  2  1  1  1  0  0  0
  2  3  1  0  0  0  0
  2  5  1  0  0  0  0
  3  4  1  0  0  0  0
  3 17  1  0  0  0  0
  5  6  1  0  0  0  0
  7  6  1  6  0  0  0
  7  8  1  0  0  0  0
  7  9  1  0  0  0  0
 10  9  1  6  0  0  0
 10 11  1  0  0  0  0
 10 12  1  0  0  0  0
 11 16  1  0  0  0  0
 12 13  1  6  0  0  0
 12 14  1  0  0  0  0
 14 15  1  1  0  0  0
 14 16  1  0  0  0  0
 16 27  1  1  0  0  0
 18 19  2  0  0  0  0
 18 23  1  0  0  0  0
 19 20  1  0  0  0  0
 20 21  2  0  0  0  0
 21 22  1  0  0  0  0
 21 27  1  0  0  0  0
 22 23  2  0  0  0  0
 22 25  1  0  0  0  0
 23 24  1  0  0  0  0
 25 26  2  0  0  0  0
 26 27  1  0  0  0  0
M  END
>  <CHROM.1>
-47.48711402,-77.34486727,68.64096327,-179.62289969,175.96392386,-40.51936738
-98.78027010,48.30182771,54.96095690,30.80282374,0.89588401,-1.11927422,-2.31246503

>  <Name>
ligand

>  <RI>
0

>  <Rbt.Current_Directory>
/home/itssahil/PROJECTS/Mol_Feturizer/New_Systems/rnas/3IQR

>  <Rbt.Executable>
rbdock ($Id: //depot/dev/client3/rdock/2013.1/src/exe/rbdock.cxx#4 $)

>  <Rbt.Library>
libRbt.so (2013.1, Build901 2013/11/27)

>  <Rbt.Parameter_File>
/export/apps/rDock/src/rDock_2013.1_src/data/scripts/dock_solv.prm

>  <Rbt.Receptor>
prm/pocket_docking_5.prm

>  <SCORE>
-14.5008

>  <SCORE.INTER>
-10.549

>  <SCORE.INTER.CONST>
1

>  <SCORE.INTER.POLAR>
0

>  <SCORE.INTER.ROT>
7

>  <SCORE.INTER.SOLV>
11.9084

>  <SCORE.INTER.VDW>
-19.2688

>  <SCORE.INTER.norm>
-0.390705

>  <SCORE.INTRA>
-3.95706

>  <SCORE.INTRA.DIHEDRAL>
-2.42594

>  <SCORE.INTRA.DIHEDRAL.0>
9.29433

>  <SCORE.INTRA.POLAR>
0

>  <SCORE.INTRA.POLAR.0>
0

>  <SCORE.INTRA.REPUL>
0

>  <SCORE.INTRA.REPUL.0>
0

>  <SCORE.INTRA.SOLV>
0.496586

>  <SCORE.INTRA.SOLV.lig_0>
-48.5102

>  <SCORE.INTRA.VDW>
-2.99238

>  <SCORE.INTRA.VDW.0>
0.379549

>  <SCORE.INTRA.norm>
-0.146558

>  <SCORE.RESTR>
0.00526695

>  <SCORE.RESTR.CAVITY>
0.00526695

>  <SCORE.RESTR.norm>
0.000195072

>  <SCORE.SYSTEM>
0

>  <SCORE.SYSTEM.CONST>
0

>  <SCORE.SYSTEM.DIHEDRAL>
0

>  <SCORE.SYSTEM.SOLV>
0

>  <SCORE.SYSTEM.norm>
0

>  <SCORE.heavy>
27

>  <SCORE.norm>
-0.537068

>  <RMSD>
4.651

$$$$
ligand
 OpenBabel11021811483D
libRbt.so/2013.1/901 2013/11/27
 27 29  0  0  0  0  0  0  0  0999 V2000
   46.2020   54.8327   25.9443 N   0  0  0  0  0  0  0  0  0  0  0  0
   47.2728   55.6114   25.3239 C   0  0  2  0  0  0  0  0  0  0  0  0
   47.8617   54.8271   24.1871 C   0  0  0  0  0  0  0  0  0  0  0  0
   48.2200   53.6674   24.3636 O   0  0  0  0  0  0  0  0  0  0  0  0
   48.3697   55.9122   26.3444 C   0  0  0  0  0  0  0  0  0  0  0  0
   47.8663   56.9702   27.3093 C   0  0  0  0  0  0  0  0  0  0  0  0
   46.7304   56.3266   28.5791 S   0  0  2  0  0  0  0  0  0  0  0  0
   45.1790   57.2312   28.3016 C   0  0  0  0  0  0  0  0  0  0  0  0
   47.1108   57.3925   30.0967 C   0  0  0  0  0  0  0  0  0  0  0  0
   48.4968   57.2137   30.8473 C   0  0  2  0  0  0  0  0  0  0  0  0
   48.6934   56.0548   31.6254 O   0  0  0  0  0  0  0  0  0  0  0  0
   49.1199   58.3448   31.5626 C   0  0  1  0  0  0  0  0  0  0  0  0
   48.5792   59.6082   31.1740 O   0  0  0  0  0  0  0  0  0  0  0  0
   48.7360   57.8611   33.0404 C   0  0  2  0  0  0  0  0  0  0  0  0
   49.4186   58.6109   34.0000 O   0  0  0  0  0  0  0  0  0  0  0  0
   49.2130   56.4110   32.9858 C   0  0  1  0  0  0  0  0  0  0  0  0
   47.9439   55.3354   23.0763 O   0  0  0  0  0  0  0  0  0  0  0  0
   44.7541   54.4751   34.5672 N   0  0  0  0  0  0  0  0  0  0  0  0
   45.0253   55.5421   33.8110 C   0  0  0  0  0  0  0  0  0  0  0  0
   46.2764   55.8606   33.4919 N   0  0  0  0  0  0  0  0  0  0  0  0
   47.3216   55.1893   34.0009 C   0  0  0  0  0  0  0  0  0  0  0  0
   47.0857   54.0810   34.8548 C   0  0  0  0  0  0  0  0  0  0  0  0
   45.7325   53.7327   35.1218 C   0  0  0  0  0  0  0  0  0  0  0  0
   45.4192   52.6586   35.9300 N   0  0  0  0  0  0  0  0  0  0  0  0
   48.2856   53.5989   35.2233 N   0  0  0  0  0  0  0  0  0  0  0  0
   49.2284   54.3179   34.6751 C   0  0  0  0  0  0  0  0  0  0  0  0
   48.6953   55.3090   33.8993 N   0  0  0  0  0  0  0  0  0  0  0  0
  2  1  1  1  0  0  0
  2  3  1  0  0  0  0
  2  5  1  0  0  0  0
  3  4  1  0  0  0  0
  3 17  1  0  0  0  0
  5  6  1  0  0  0  0
  7  6  1  6  0  0  0
  7  8  1  0  0  0  0
  7  9  1  0  0  0  0
 10  9  1  1  0  0  0
 10 11  1  0  0  0  0
 10 12  1  0  0  0  0
 11 16  1  0  0  0  0
 12 13  1  6  0  0  0
 12 14  1  0  0  0  0
 14 15  1  1  0  0  0
 14 16  1  0  0  0  0
 16 27  1  1  0  0  0
 18 19  2  0  0  0  0
 18 23  1  0  0  0  0
 19 20  1  0  0  0  0
 20 21  2  0  0  0  0
 21 22  1  0  0  0  0
 21 27  1  0  0  0  0
 22 23  2  0  0  0  0
 22 25  1  0  0  0  0
 23 24  1  0  0  0  0
 25 26  2  0  0  0  0
 26 27  1  0  0  0  0
M  END
>  <CHROM.1>
-50.90346726,-73.38040458,77.83889594,-119.19293919,-69.92835204,-72.83253236
-61.63379397,47.49831095,55.88365371,30.67866610,1.51727552,-1.02656621,-1.57150579

>  <Name>
ligand

>  <RI>
0

>  <Rbt.Current_Directory>
/home/itssahil/PROJECTS/Mol_Feturizer/New_Systems/rnas/3IQR

>  <Rbt.Executable>
rbdock ($Id: //depot/dev/client3/rdock/2013.1/src/exe/rbdock.cxx#4 $)

>  <Rbt.Library>
libRbt.so (2013.1, Build901 2013/11/27)

>  <Rbt.Parameter_File>
/export/apps/rDock/src/rDock_2013.1_src/data/scripts/dock_solv.prm

>  <Rbt.Receptor>
prm/pocket_docking_6.prm

>  <SCORE>
-18.5091

>  <SCORE.INTER>
-15.4123

>  <SCORE.INTER.CONST>
1

>  <SCORE.INTER.POLAR>
0

>  <SCORE.INTER.ROT>
7

>  <SCORE.INTER.SOLV>
17.5783

>  <SCORE.INTER.VDW>
-24.401

>  <SCORE.INTER.norm>
-0.570828

>  <SCORE.INTRA>
-3.09672

>  <SCORE.INTRA.DIHEDRAL>
0.20944

>  <SCORE.INTRA.DIHEDRAL.0>
9.29433

>  <SCORE.INTRA.POLAR>
0

>  <SCORE.INTRA.POLAR.0>
0

>  <SCORE.INTRA.REPUL>
0

>  <SCORE.INTRA.REPUL.0>
0

>  <SCORE.INTRA.SOLV>
0.73457

>  <SCORE.INTRA.SOLV.lig_0>
-48.5102

>  <SCORE.INTRA.VDW>
-3.56873

>  <SCORE.INTRA.VDW.0>
0.379549

>  <SCORE.INTRA.norm>
-0.114693

>  <SCORE.RESTR>
0

>  <SCORE.RESTR.CAVITY>
0

>  <SCORE.RESTR.norm>
0

>  <SCORE.SYSTEM>
0

>  <SCORE.SYSTEM.CONST>
0

>  <SCORE.SYSTEM.DIHEDRAL>
0

>  <SCORE.SYSTEM.SOLV>
0

>  <SCORE.SYSTEM.norm>
0

>  <SCORE.heavy>
27

>  <SCORE.norm>
-0.685521

>  <RMSD>
4.651

$$$$
ligand
 OpenBabel11021811483D
libRbt.so/2013.1/901 2013/11/27
 27 29  0  0  0  0  0  0  0  0999 V2000
   50.4190   51.8576   26.5711 N   0  0  0  0  0  0  0  0  0  0  0  0
   49.1451   51.3277   27.0551 C   0  0  2  0  0  0  0  0  0  0  0  0
   48.0175   52.0624   26.3898 C   0  0  0  0  0  0  0  0  0  0  0  0
   46.9518   51.4915   26.1830 O   0  0  0  0  0  0  0  0  0  0  0  0
   49.0357   51.5092   28.5685 C   0  0  0  0  0  0  0  0  0  0  0  0
   49.3947   52.9418   28.9187 C   0  0  0  0  0  0  0  0  0  0  0  0
   49.1866   53.3418   30.6832 S   0  0  2  0  0  0  0  0  0  0  0  0
   47.3965   53.2165   30.9695 C   0  0  0  0  0  0  0  0  0  0  0  0
   49.0836   55.2320   30.7011 C   0  0  0  0  0  0  0  0  0  0  0  0
   48.6976   55.9789   32.0462 C   0  0  2  0  0  0  0  0  0  0  0  0
   47.7302   55.3905   32.8861 O   0  0  0  0  0  0  0  0  0  0  0  0
   48.4778   57.4386   32.0635 C   0  0  1  0  0  0  0  0  0  0  0  0
   49.0193   58.0915   30.9146 O   0  0  0  0  0  0  0  0  0  0  0  0
   46.8784   57.3826   32.1290 C   0  0  2  0  0  0  0  0  0  0  0  0
   46.3500   58.6422   32.4170 O   0  0  0  0  0  0  0  0  0  0  0  0
   46.6865   56.3933   33.2769 C   0  0  1  0  0  0  0  0  0  0  0  0
   48.1522   53.2426   26.0932 O   0  0  0  0  0  0  0  0  0  0  0  0
   42.3375   55.2775   30.8331 N   0  0  0  0  0  0  0  0  0  0  0  0
   43.3247   56.1212   30.5207 C   0  0  0  0  0  0  0  0  0  0  0  0
   44.3979   56.2437   31.2963 N   0  0  0  0  0  0  0  0  0  0  0  0
   44.4867   55.6071   32.4749 C   0  0  0  0  0  0  0  0  0  0  0  0
   43.4369   54.7415   32.8773 C   0  0  0  0  0  0  0  0  0  0  0  0
   42.3347   54.5882   31.9911 C   0  0  0  0  0  0  0  0  0  0  0  0
   41.2810   53.7529   32.3023 N   0  0  0  0  0  0  0  0  0  0  0  0
   43.7701   54.2432   34.0809 N   0  0  0  0  0  0  0  0  0  0  0  0
   44.9242   54.7327   34.4481 C   0  0  0  0  0  0  0  0  0  0  0  0
   45.4223   55.5732   33.4923 N   0  0  0  0  0  0  0  0  0  0  0  0
  2  1  1  6  0  0  0
  2  3  1  0  0  0  0
  2  5  1  0  0  0  0
  3  4  1  0  0  0  0
  3 17  1  0  0  0  0
  5  6  1  0  0  0  0
  7  6  1  6  0  0  0
  7  8  1  0  0  0  0
  7  9  1  0  0  0  0
 10  9  1  6  0  0  0
 10 11  1  0  0  0  0
 10 12  1  0  0  0  0
 11 16  1  0  0  0  0
 12 13  1  6  0  0  0
 12 14  1  0  0  0  0
 14 15  1  1  0  0  0
 14 16  1  0  0  0  0
 16 27  1  6  0  0  0
 18 19  2  0  0  0  0
 18 23  1  0  0  0  0
 19 20  1  0  0  0  0
 20 21  2  0  0  0  0
 21 22  1  0  0  0  0
 21 27  1  0  0  0  0
 22 23  2  0  0  0  0
 22 25  1  0  0  0  0
 23 24  1  0  0  0  0
 25 26  2  0  0  0  0
 26 27  1  0  0  0  0
M  END
>  <CHROM.1>
149.54462188,48.82730714,175.62481137,-65.82872951,171.58132021,-37.53532401
-102.16059318,46.73131534,54.62210817,30.76119767,-0.91890289,0.23022198
0.80894977

>  <Name>
ligand

>  <RI>
0

>  <Rbt.Current_Directory>
/home/itssahil/PROJECTS/Mol_Feturizer/New_Systems/rnas/3IQR

>  <Rbt.Executable>
rbdock ($Id: //depot/dev/client3/rdock/2013.1/src/exe/rbdock.cxx#4 $)

>  <Rbt.Library>
libRbt.so (2013.1, Build901 2013/11/27)

>  <Rbt.Parameter_File>
/export/apps/rDock/src/rDock_2013.1_src/data/scripts/dock_solv.prm

>  <Rbt.Receptor>
prm/pocket_docking_6.prm

>  <SCORE>
-15.0122

>  <SCORE.INTER>
-11.2199

>  <SCORE.INTER.CONST>
1

>  <SCORE.INTER.POLAR>
0

>  <SCORE.INTER.ROT>
7

>  <SCORE.INTER.SOLV>
8.27214

>  <SCORE.INTER.VDW>
-18.5039

>  <SCORE.INTER.norm>
-0.41555

>  <SCORE.INTRA>
-3.79236

>  <SCORE.INTRA.DIHEDRAL>
-3.45141

>  <SCORE.INTRA.DIHEDRAL.0>
9.29433

>  <SCORE.INTRA.POLAR>
0

>  <SCORE.INTRA.POLAR.0>
0

>  <SCORE.INTRA.REPUL>
0

>  <SCORE.INTRA.REPUL.0>
0

>  <SCORE.INTRA.SOLV>
-0.870574

>  <SCORE.INTRA.SOLV.lig_0>
-48.5102

>  <SCORE.INTRA.VDW>
-1.63136

>  <SCORE.INTRA.VDW.0>
0.379549

>  <SCORE.INTRA.norm>
-0.140458

>  <SCORE.RESTR>
0

>  <SCORE.RESTR.CAVITY>
0

>  <SCORE.RESTR.norm>
0

>  <SCORE.SYSTEM>
0

>  <SCORE.SYSTEM.CONST>
0

>  <SCORE.SYSTEM.DIHEDRAL>
0

>  <SCORE.SYSTEM.SOLV>
0

>  <SCORE.SYSTEM.norm>
0

>  <SCORE.heavy>
27

>  <SCORE.norm>
-0.556008

>  <RMSD>
4.652

$$$$
ligand
 OpenBabel11021811483D
libRbt.so/2013.1/901 2013/11/27
 27 29  0  0  0  0  0  0  0  0999 V2000
   50.8787   52.2204   25.2091 N   0  0  0  0  0  0  0  0  0  0  0  0
   50.3188   53.4187   25.8322 C   0  0  2  0  0  0  0  0  0  0  0  0
   50.1408   54.4834   24.7887 C   0  0  0  0  0  0  0  0  0  0  0  0
   49.0951   55.1223   24.7373 O   0  0  0  0  0  0  0  0  0  0  0  0
   51.2569   53.9382   26.9209 C   0  0  0  0  0  0  0  0  0  0  0  0
   50.5469   55.0290   27.7019 C   0  0  0  0  0  0  0  0  0  0  0  0
   49.1153   54.4356   28.6585 S   0  0  2  0  0  0  0  0  0  0  0  0
   47.7082   54.6009   27.5206 C   0  0  0  0  0  0  0  0  0  0  0  0
   48.5545   55.9692   29.6163 C   0  0  0  0  0  0  0  0  0  0  0  0
   49.4141   56.4756   30.8495 C   0  0  2  0  0  0  0  0  0  0  0  0
   49.5465   55.6277   31.9680 O   0  0  0  0  0  0  0  0  0  0  0  0
   49.2774   57.8581   31.3489 C   0  0  1  0  0  0  0  0  0  0  0  0
   48.6453   58.7249   30.4063 O   0  0  0  0  0  0  0  0  0  0  0  0
   48.4039   57.5002   32.6429 C   0  0  2  0  0  0  0  0  0  0  0  0
   48.3118   58.5998   33.4980 O   0  0  0  0  0  0  0  0  0  0  0  0
   49.2433   56.3697   33.2350 C   0  0  1  0  0  0  0  0  0  0  0  0
   51.0575   54.7384   24.0181 O   0  0  0  0  0  0  0  0  0  0  0  0
   44.7524   54.3510   34.6088 N   0  0  0  0  0  0  0  0  0  0  0  0
   45.0406   55.3747   33.8007 C   0  0  0  0  0  0  0  0  0  0  0  0
   46.2996   55.7256   33.5553 N   0  0  0  0  0  0  0  0  0  0  0  0
   47.3268   55.1378   34.1888 C   0  0  0  0  0  0  0  0  0  0  0  0
   47.0677   54.0812   35.0997 C   0  0  0  0  0  0  0  0  0  0  0  0
   45.7123   53.6924   35.2877 C   0  0  0  0  0  0  0  0  0  0  0  0
   45.3783   52.6634   36.1447 N   0  0  0  0  0  0  0  0  0  0  0  0
   48.2527   53.6790   35.5916 N   0  0  0  0  0  0  0  0  0  0  0  0
   49.2070   54.3999   35.0664 C   0  0  0  0  0  0  0  0  0  0  0  0
   48.6985   55.3109   34.1834 N   0  0  0  0  0  0  0  0  0  0  0  0
  2  1  1  6  0  0  0
  2  3  1  0  0  0  0
  2  5  1  0  0  0  0
  3  4  1  0  0  0  0
  3 17  1  0  0  0  0
  5  6  1  0  0  0  0
  7  6  1  6  0  0  0
  7  8  1  0  0  0  0
  7  9  1  0  0  0  0
 10  9  1  1  0  0  0
 10 11  1  0  0  0  0
 10 12  1  0  0  0  0
 11 16  1  0  0  0  0
 12 13  1  6  0  0  0
 12 14  1  0  0  0  0
 14 15  1  1  0  0  0
 14 16  1  0  0  0  0
 16 27  1  1  0  0  0
 18 19  2  0  0  0  0
 18 23  1  0  0  0  0
 19 20  1  0  0  0  0
 20 21  2  0  0  0  0
 21 22  1  0  0  0  0
 21 27  1  0  0  0  0
 22 23  2  0  0  0  0
 22 25  1  0  0  0  0
 23 24  1  0  0  0  0
 25 26  2  0  0  0  0
 26 27  1  0  0  0  0
M  END
>  <CHROM.1>
134.24734846,-170.45606181,66.16640330,-90.28763154,-73.74792679,-63.03416605
-91.90238491,48.56163132,55.17290866,30.75069959,0.67452022,-1.11986429,-2.48184992

>  <Name>
ligand

>  <RI>
0

>  <Rbt.Current_Directory>
/home/itssahil/PROJECTS/Mol_Feturizer/New_Systems/rnas/3IQR

>  <Rbt.Executable>
rbdock ($Id: //depot/dev/client3/rdock/2013.1/src/exe/rbdock.cxx#4 $)

>  <Rbt.Library>
libRbt.so (2013.1, Build901 2013/11/27)

>  <Rbt.Parameter_File>
/export/apps/rDock/src/rDock_2013.1_src/data/scripts/dock_solv.prm

>  <Rbt.Receptor>
prm/pocket_docking_6.prm

>  <SCORE>
-20.441

>  <SCORE.INTER>
-14.7163

>  <SCORE.INTER.CONST>
1

>  <SCORE.INTER.POLAR>
0

>  <SCORE.INTER.ROT>
7

>  <SCORE.INTER.SOLV>
11.5767

>  <SCORE.INTER.VDW>
-21.9365

>  <SCORE.INTER.norm>
-0.545049

>  <SCORE.INTRA>
-5.72465

>  <SCORE.INTRA.DIHEDRAL>
-4.07971

>  <SCORE.INTRA.DIHEDRAL.0>
9.29433

>  <SCORE.INTRA.POLAR>
0

>  <SCORE.INTRA.POLAR.0>
0

>  <SCORE.INTRA.REPUL>
0

>  <SCORE.INTRA.REPUL.0>
0

>  <SCORE.INTRA.SOLV>
-1.54188

>  <SCORE.INTRA.SOLV.lig_0>
-48.5102

>  <SCORE.INTRA.VDW>
-2.91386

>  <SCORE.INTRA.VDW.0>
0.379549

>  <SCORE.INTRA.norm>
-0.212024

>  <SCORE.RESTR>
0

>  <SCORE.RESTR.CAVITY>
0

>  <SCORE.RESTR.norm>
0

>  <SCORE.SYSTEM>
0

>  <SCORE.SYSTEM.CONST>
0

>  <SCORE.SYSTEM.DIHEDRAL>
0

>  <SCORE.SYSTEM.SOLV>
0

>  <SCORE.SYSTEM.norm>
0

>  <SCORE.heavy>
27

>  <SCORE.norm>
-0.757073

>  <RMSD>
4.660

$$$$
ligand
 OpenBabel11021811483D
libRbt.so/2013.1/901 2013/11/27
 27 29  0  0  0  0  0  0  0  0999 V2000
   49.1337   53.2041   29.7400 N   0  0  0  0  0  0  0  0  0  0  0  0
   47.9264   52.4012   29.5512 C   0  0  2  0  0  0  0  0  0  0  0  0
   47.3253   52.7168   28.2121 C   0  0  0  0  0  0  0  0  0  0  0  0
   47.0992   53.8816   27.9012 O   0  0  0  0  0  0  0  0  0  0  0  0
   46.9049   52.7143   30.6437 C   0  0  0  0  0  0  0  0  0  0  0  0
   46.9647   54.1973   30.9619 C   0  0  0  0  0  0  0  0  0  0  0  0
   48.3121   54.6514   32.0999 S   0  0  2  0  0  0  0  0  0  0  0  0
   48.4158   53.2573   33.2608 C   0  0  0  0  0  0  0  0  0  0  0  0
   47.4491   55.7116   33.4095 C   0  0  0  0  0  0  0  0  0  0  0  0
   47.0300   57.2000   33.0553 C   0  0  2  0  0  0  0  0  0  0  0  0
   46.2945   57.4264   31.8741 O   0  0  0  0  0  0  0  0  0  0  0  0
   47.9901   58.3112   33.2053 C   0  0  1  0  0  0  0  0  0  0  0  0
   49.1033   57.9703   34.0325 O   0  0  0  0  0  0  0  0  0  0  0  0
   48.3210   58.4794   31.6472 C   0  0  2  0  0  0  0  0  0  0  0  0
   49.0368   59.6557   31.4170 O   0  0  0  0  0  0  0  0  0  0  0  0
   46.9070   58.5352   31.0722 C   0  0  1  0  0  0  0  0  0  0  0  0
   47.1010   51.8122   27.4182 O   0  0  0  0  0  0  0  0  0  0  0  0
   48.8061   55.8503   27.1587 N   0  0  0  0  0  0  0  0  0  0  0  0
   49.3122   56.1129   28.3666 C   0  0  0  0  0  0  0  0  0  0  0  0
   48.6300   56.8234   29.2599 N   0  0  0  0  0  0  0  0  0  0  0  0
   47.4550   57.3945   28.9510 C   0  0  0  0  0  0  0  0  0  0  0  0
   46.9018   57.1905   27.6605 C   0  0  0  0  0  0  0  0  0  0  0  0
   47.6315   56.3723   26.7540 C   0  0  0  0  0  0  0  0  0  0  0  0
   47.1538   56.1128   25.4854 N   0  0  0  0  0  0  0  0  0  0  0  0
   45.7407   57.8670   27.6127 N   0  0  0  0  0  0  0  0  0  0  0  0
   45.5421   58.4681   28.7553 C   0  0  0  0  0  0  0  0  0  0  0  0
   46.5616   58.2049   29.6269 N   0  0  0  0  0  0  0  0  0  0  0  0
  2  1  1  1  0  0  0
  2  3  1  0  0  0  0
  2  5  1  0  0  0  0
  3  4  1  0  0  0  0
  3 17  1  0  0  0  0
  5  6  1  0  0  0  0
  7  6  1  6  0  0  0
  7  8  1  0  0  0  0
  7  9  1  0  0  0  0
 10  9  1  6  0  0  0
 10 11  1  0  0  0  0
 10 12  1  0  0  0  0
 11 16  1  0  0  0  0
 12 13  1  1  0  0  0
 12 14  1  0  0  0  0
 14 15  1  1  0  0  0
 14 16  1  0  0  0  0
 16 27  1  6  0  0  0
 18 19  2  0  0  0  0
 18 23  1  0  0  0  0
 19 20  1  0  0  0  0
 20 21  2  0  0  0  0
 21 22  1  0  0  0  0
 21 27  1  0  0  0  0
 22 23  2  0  0  0  0
 22 25  1  0  0  0  0
 23 24  1  0  0  0  0
 25 26  2  0  0  0  0
 26 27  1  0  0  0  0
M  END
>  <CHROM.1>
-52.16424343,37.01869886,-81.53166935,-36.24792665,-75.19637467,50.66826426
-88.59601136,47.63971685,55.92870210,30.12452568,-2.03757225,-1.39912702
0.45989166

>  <Name>
ligand

>  <RI>
0

>  <Rbt.Current_Directory>
/home/itssahil/PROJECTS/Mol_Feturizer/New_Systems/rnas/3IQR

>  <Rbt.Executable>
rbdock ($Id: //depot/dev/client3/rdock/2013.1/src/exe/rbdock.cxx#4 $)

>  <Rbt.Library>
libRbt.so (2013.1, Build901 2013/11/27)

>  <Rbt.Parameter_File>
/export/apps/rDock/src/rDock_2013.1_src/data/scripts/dock_solv.prm

>  <Rbt.Receptor>
prm/pocket_docking_2.prm

>  <SCORE>
-8.75212

>  <SCORE.INTER>
-8.2614

>  <SCORE.INTER.CONST>
1

>  <SCORE.INTER.POLAR>
0

>  <SCORE.INTER.ROT>
7

>  <SCORE.INTER.SOLV>
16.667

>  <SCORE.INTER.VDW>
-19.3299

>  <SCORE.INTER.norm>
-0.305978

>  <SCORE.INTRA>
-1.6585

>  <SCORE.INTRA.DIHEDRAL>
0.981113

>  <SCORE.INTRA.DIHEDRAL.0>
9.29433

>  <SCORE.INTRA.POLAR>
0

>  <SCORE.INTRA.POLAR.0>
0

>  <SCORE.INTRA.REPUL>
0

>  <SCORE.INTRA.REPUL.0>
0

>  <SCORE.INTRA.SOLV>
2.73267

>  <SCORE.INTRA.SOLV.lig_0>
-48.5102

>  <SCORE.INTRA.VDW>
-3.51539

>  <SCORE.INTRA.VDW.0>
0.379549

>  <SCORE.INTRA.norm>
-0.0614258

>  <SCORE.RESTR>
1.16778

>  <SCORE.RESTR.CAVITY>
1.16778

>  <SCORE.RESTR.norm>
0.043251

>  <SCORE.SYSTEM>
0

>  <SCORE.SYSTEM.CONST>
0

>  <SCORE.SYSTEM.DIHEDRAL>
0

>  <SCORE.SYSTEM.SOLV>
0

>  <SCORE.SYSTEM.norm>
0

>  <SCORE.heavy>
27

>  <SCORE.norm>
-0.324153

>  <RMSD>
4.669

$$$$
ligand
 OpenBabel11021811483D
libRbt.so/2013.1/901 2013/11/27
 27 29  0  0  0  0  0  0  0  0999 V2000
   48.0327   53.0099   25.0366 N   0  0  0  0  0  0  0  0  0  0  0  0
   47.6715   52.2937   26.2591 C   0  0  2  0  0  0  0  0  0  0  0  0
   46.1782   52.1557   26.3302 C   0  0  0  0  0  0  0  0  0  0  0  0
   45.6515   51.7124   27.3454 O   0  0  0  0  0  0  0  0  0  0  0  0
   48.1614   53.0598   27.4872 C   0  0  0  0  0  0  0  0  0  0  0  0
   49.6712   53.1962   27.4112 C   0  0  0  0  0  0  0  0  0  0  0  0
   50.4210   53.9138   28.9077 S   0  0  2  0  0  0  0  0  0  0  0  0
   49.7219   52.9438   30.2762 C   0  0  0  0  0  0  0  0  0  0  0  0
   49.2816   55.3679   29.3218 C   0  0  0  0  0  0  0  0  0  0  0  0
   49.6053   56.2780   30.5800 C   0  0  2  0  0  0  0  0  0  0  0  0
   49.7163   55.6615   31.8429 O   0  0  0  0  0  0  0  0  0  0  0  0
   48.9220   57.5725   30.7718 C   0  0  1  0  0  0  0  0  0  0  0  0
   48.3036   58.0520   29.5772 O   0  0  0  0  0  0  0  0  0  0  0  0
   47.9138   57.0802   31.9148 C   0  0  2  0  0  0  0  0  0  0  0  0
   47.2723   58.1672   32.5113 O   0  0  0  0  0  0  0  0  0  0  0  0
   48.8918   56.3884   32.8624 C   0  0  1  0  0  0  0  0  0  0  0  0
   45.4881   52.5253   25.3888 O   0  0  0  0  0  0  0  0  0  0  0  0
   44.6516   54.1996   34.6955 N   0  0  0  0  0  0  0  0  0  0  0  0
   44.8134   55.2239   33.8537 C   0  0  0  0  0  0  0  0  0  0  0  0
   46.0252   55.6246   33.4807 N   0  0  0  0  0  0  0  0  0  0  0  0
   47.1349   55.0891   34.0137 C   0  0  0  0  0  0  0  0  0  0  0  0
   47.0138   54.0344   34.9552 C   0  0  0  0  0  0  0  0  0  0  0  0
   45.7019   53.5911   35.2810 C   0  0  0  0  0  0  0  0  0  0  0  0
   45.4998   52.5602   36.1761 N   0  0  0  0  0  0  0  0  0  0  0  0
   48.2581   53.6893   35.3298 N   0  0  0  0  0  0  0  0  0  0  0  0
   49.1233   54.4430   34.7055 C   0  0  0  0  0  0  0  0  0  0  0  0
   48.4905   55.3200   33.8697 N   0  0  0  0  0  0  0  0  0  0  0  0
  2  1  1  6  0  0  0
  2  3  1  0  0  0  0
  2  5  1  0  0  0  0
  3  4  1  0  0  0  0
  3 17  1  0  0  0  0
  5  6  1  0  0  0  0
  7  6  1  6  0  0  0
  7  8  1  0  0  0  0
  7  9  1  0  0  0  0
 10  9  1  6  0  0  0
 10 11  1  0  0  0  0
 10 12  1  0  0  0  0
 11 16  1  0  0  0  0
 12 13  1  6  0  0  0
 12 14  1  0  0  0  0
 14 15  1  1  0  0  0
 14 16  1  0  0  0  0
 16 27  1  1  0  0  0
 18 19  2  0  0  0  0
 18 23  1  0  0  0  0
 19 20  1  0  0  0  0
 20 21  2  0  0  0  0
 21 22  1  0  0  0  0
 21 27  1  0  0  0  0
 22 23  2  0  0  0  0
 22 25  1  0  0  0  0
 23 24  1  0  0  0  0
 25 26  2  0  0  0  0
 26 27  1  0  0  0  0
M  END
>  <CHROM.1>
-172.18586154,-59.97946962,-173.04274426,50.00771002,-179.47780791,-56.65664034
-118.68259161,47.83111987,54.54108886,30.91206995,1.41482730,-0.76773752
-1.92230470

>  <Name>
ligand

>  <RI>
0

>  <Rbt.Current_Directory>
/home/itssahil/PROJECTS/Mol_Feturizer/New_Systems/rnas/3IQR

>  <Rbt.Executable>
rbdock ($Id: //depot/dev/client3/rdock/2013.1/src/exe/rbdock.cxx#4 $)

>  <Rbt.Library>
libRbt.so (2013.1, Build901 2013/11/27)

>  <Rbt.Parameter_File>
/export/apps/rDock/src/rDock_2013.1_src/data/scripts/dock_solv.prm

>  <Rbt.Receptor>
prm/pocket_docking_5.prm

>  <SCORE>
-17.6486

>  <SCORE.INTER>
-13.6818

>  <SCORE.INTER.CONST>
1

>  <SCORE.INTER.POLAR>
0

>  <SCORE.INTER.ROT>
7

>  <SCORE.INTER.SOLV>
11.5579

>  <SCORE.INTER.VDW>
-21.2405

>  <SCORE.INTER.norm>
-0.506735

>  <SCORE.INTRA>
-4.04293

>  <SCORE.INTRA.DIHEDRAL>
-4.86784

>  <SCORE.INTRA.DIHEDRAL.0>
9.29433

>  <SCORE.INTRA.POLAR>
0

>  <SCORE.INTRA.POLAR.0>
0

>  <SCORE.INTRA.REPUL>
0

>  <SCORE.INTRA.REPUL.0>
0

>  <SCORE.INTRA.SOLV>
-0.987848

>  <SCORE.INTRA.SOLV.lig_0>
-48.5102

>  <SCORE.INTRA.VDW>
-1.11508

>  <SCORE.INTRA.VDW.0>
0.379549

>  <SCORE.INTRA.norm>
-0.149738

>  <SCORE.RESTR>
0.0761899

>  <SCORE.RESTR.CAVITY>
0.0761899

>  <SCORE.RESTR.norm>
0.00282185

>  <SCORE.SYSTEM>
0

>  <SCORE.SYSTEM.CONST>
0

>  <SCORE.SYSTEM.DIHEDRAL>
0

>  <SCORE.SYSTEM.SOLV>
0

>  <SCORE.SYSTEM.norm>
0

>  <SCORE.heavy>
27

>  <SCORE.norm>
-0.653651

>  <RMSD>
4.682

$$$$
ligand
 OpenBabel11021811483D
libRbt.so/2013.1/901 2013/11/27
 27 29  0  0  0  0  0  0  0  0999 V2000
   48.5112   55.0427   35.0040 N   0  0  0  0  0  0  0  0  0  0  0  0
   48.2395   55.4423   33.6240 C   0  0  2  0  0  0  0  0  0  0  0  0
   48.6083   56.8864   33.4440 C   0  0  0  0  0  0  0  0  0  0  0  0
   49.7639   57.1943   33.1715 O   0  0  0  0  0  0  0  0  0  0  0  0
   46.7567   55.2614   33.3015 C   0  0  0  0  0  0  0  0  0  0  0  0
   46.6175   54.8394   31.8502 C   0  0  0  0  0  0  0  0  0  0  0  0
   47.4129   53.2463   31.4680 S   0  0  2  0  0  0  0  0  0  0  0  0
   47.9315   52.5980   33.0845 C   0  0  0  0  0  0  0  0  0  0  0  0
   49.1976   53.7277   31.0594 C   0  0  0  0  0  0  0  0  0  0  0  0
   49.4775   54.7655   29.8928 C   0  0  2  0  0  0  0  0  0  0  0  0
   48.9468   56.0661   30.0108 O   0  0  0  0  0  0  0  0  0  0  0  0
   49.3616   54.3608   28.4778 C   0  0  1  0  0  0  0  0  0  0  0  0
   49.3780   52.9431   28.3065 O   0  0  0  0  0  0  0  0  0  0  0  0
   47.9516   55.0679   28.1997 C   0  0  2  0  0  0  0  0  0  0  0  0
   47.6670   55.0849   26.8331 O   0  0  0  0  0  0  0  0  0  0  0  0
   48.2316   56.4633   28.7544 C   0  0  1  0  0  0  0  0  0  0  0  0
   47.7442   57.7496   33.5293 O   0  0  0  0  0  0  0  0  0  0  0  0
   47.6365   60.3131   32.0643 N   0  0  0  0  0  0  0  0  0  0  0  0
   48.6670   59.4889   31.8574 C   0  0  0  0  0  0  0  0  0  0  0  0
   48.6235   58.5551   30.9117 N   0  0  0  0  0  0  0  0  0  0  0  0
   47.5080   58.3314   30.1991 C   0  0  0  0  0  0  0  0  0  0  0  0
   46.3672   59.1455   30.4212 C   0  0  0  0  0  0  0  0  0  0  0  0
   46.4739   60.1749   31.3972 C   0  0  0  0  0  0  0  0  0  0  0  0
   45.4144   61.0191   31.6612 N   0  0  0  0  0  0  0  0  0  0  0  0
   45.4009   58.7127   29.5925 N   0  0  0  0  0  0  0  0  0  0  0  0
   45.8499   57.7058   28.8918 C   0  0  0  0  0  0  0  0  0  0  0  0
   47.1494   57.4303   29.2136 N   0  0  0  0  0  0  0  0  0  0  0  0
  2  1  1  1  0  0  0
  2  3  1  0  0  0  0
  2  5  1  0  0  0  0
  3  4  1  0  0  0  0
  3 17  1  0  0  0  0
  5  6  1  0  0  0  0
  7  6  1  1  0  0  0
  7  8  1  0  0  0  0
  7  9  1  0  0  0  0
 10  9  1  1  0  0  0
 10 11  1  0  0  0  0
 10 12  1  0  0  0  0
 11 16  1  0  0  0  0
 12 13  1  1  0  0  0
 12 14  1  0  0  0  0
 14 15  1  6  0  0  0
 14 16  1  0  0  0  0
 16 27  1  1  0  0  0
 18 19  2  0  0  0  0
 18 23  1  0  0  0  0
 19 20  1  0  0  0  0
 20 21  2  0  0  0  0
 21 22  1  0  0  0  0
 21 27  1  0  0  0  0
 22 23  2  0  0  0  0
 22 25  1  0  0  0  0
 23 24  1  0  0  0  0
 25 26  2  0  0  0  0
 26 27  1  0  0  0  0
M  END
>  <CHROM.1>
85.66194596,-145.49217546,61.97760330,7.34361102,-57.39267791,60.94060455
40.19844589,47.82192888,56.34832919,30.99752344,-0.38100739,-1.29915548,1.35310167

>  <Name>
ligand

>  <RI>
0

>  <Rbt.Current_Directory>
/home/itssahil/PROJECTS/Mol_Feturizer/New_Systems/rnas/3IQR

>  <Rbt.Executable>
rbdock ($Id: //depot/dev/client3/rdock/2013.1/src/exe/rbdock.cxx#4 $)

>  <Rbt.Library>
libRbt.so (2013.1, Build901 2013/11/27)

>  <Rbt.Parameter_File>
/export/apps/rDock/src/rDock_2013.1_src/data/scripts/dock_solv.prm

>  <Rbt.Receptor>
prm/pocket_docking_2.prm

>  <SCORE>
-6.95372

>  <SCORE.INTER>
-8.79038

>  <SCORE.INTER.CONST>
1

>  <SCORE.INTER.POLAR>
0

>  <SCORE.INTER.ROT>
7

>  <SCORE.INTER.SOLV>
20.1155

>  <SCORE.INTER.VDW>
-20.8321

>  <SCORE.INTER.norm>
-0.32557

>  <SCORE.INTRA>
0.438052

>  <SCORE.INTRA.DIHEDRAL>
1.45238

>  <SCORE.INTRA.DIHEDRAL.0>
9.29433

>  <SCORE.INTRA.POLAR>
0

>  <SCORE.INTRA.POLAR.0>
0

>  <SCORE.INTRA.REPUL>
0

>  <SCORE.INTRA.REPUL.0>
0

>  <SCORE.INTRA.SOLV>
0.711818

>  <SCORE.INTRA.SOLV.lig_0>
-48.5102

>  <SCORE.INTRA.VDW>
-0.644048

>  <SCORE.INTRA.VDW.0>
0.379549

>  <SCORE.INTRA.norm>
0.0162241

>  <SCORE.RESTR>
1.39861

>  <SCORE.RESTR.CAVITY>
1.39861

>  <SCORE.RESTR.norm>
0.0518003

>  <SCORE.SYSTEM>
0

>  <SCORE.SYSTEM.CONST>
0

>  <SCORE.SYSTEM.DIHEDRAL>
0

>  <SCORE.SYSTEM.SOLV>
0

>  <SCORE.SYSTEM.norm>
0

>  <SCORE.heavy>
27

>  <SCORE.norm>
-0.257545

>  <RMSD>
4.698

$$$$
ligand
 OpenBabel11021811483D
libRbt.so/2013.1/901 2013/11/27
 27 29  0  0  0  0  0  0  0  0999 V2000
   47.5600   52.9770   24.9168 N   0  0  0  0  0  0  0  0  0  0  0  0
   47.6426   54.3597   24.4486 C   0  0  2  0  0  0  0  0  0  0  0  0
   48.0537   54.3707   23.0046 C   0  0  0  0  0  0  0  0  0  0  0  0
   47.8847   55.3791   22.3271 O   0  0  0  0  0  0  0  0  0  0  0  0
   48.6730   55.1364   25.2673 C   0  0  0  0  0  0  0  0  0  0  0  0
   48.2199   55.1777   26.7154 C   0  0  0  0  0  0  0  0  0  0  0  0
   49.3320   56.1200   27.8071 S   0  0  2  0  0  0  0  0  0  0  0  0
   50.8215   55.0874   27.9393 C   0  0  0  0  0  0  0  0  0  0  0  0
   48.7889   55.6049   29.5460 C   0  0  0  0  0  0  0  0  0  0  0  0
   49.5073   56.2430   30.8081 C   0  0  2  0  0  0  0  0  0  0  0  0
   49.6010   55.4744   31.9861 O   0  0  0  0  0  0  0  0  0  0  0  0
   49.2387   57.6395   31.2043 C   0  0  1  0  0  0  0  0  0  0  0  0
   48.6322   58.4021   30.1603 O   0  0  0  0  0  0  0  0  0  0  0  0
   48.2855   57.2981   32.4453 C   0  0  2  0  0  0  0  0  0  0  0  0
   48.0502   58.4371   33.2173 O   0  0  0  0  0  0  0  0  0  0  0  0
   49.1448   56.2668   33.1743 C   0  0  1  0  0  0  0  0  0  0  0  0
   48.5946   53.3854   22.5192 O   0  0  0  0  0  0  0  0  0  0  0  0
   44.6352   54.3601   34.6433 N   0  0  0  0  0  0  0  0  0  0  0  0
   44.9318   55.3686   33.8193 C   0  0  0  0  0  0  0  0  0  0  0  0
   46.1937   55.6897   33.5496 N   0  0  0  0  0  0  0  0  0  0  0  0
   47.2185   55.0867   34.1728 C   0  0  0  0  0  0  0  0  0  0  0  0
   46.9520   54.0458   35.0994 C   0  0  0  0  0  0  0  0  0  0  0  0
   45.5919   53.6883   35.3138 C   0  0  0  0  0  0  0  0  0  0  0  0
   45.2503   52.6759   36.1874 N   0  0  0  0  0  0  0  0  0  0  0  0
   48.1361   53.6236   35.5764 N   0  0  0  0  0  0  0  0  0  0  0  0
   49.0968   54.3181   35.0277 C   0  0  0  0  0  0  0  0  0  0  0  0
   48.5933   55.2303   34.1431 N   0  0  0  0  0  0  0  0  0  0  0  0
  2  1  1  1  0  0  0
  2  3  1  0  0  0  0
  2  5  1  0  0  0  0
  3  4  1  0  0  0  0
  3 17  1  0  0  0  0
  5  6  1  0  0  0  0
  7  6  1  6  0  0  0
  7  8  1  0  0  0  0
  7  9  1  0  0  0  0
 10  9  1  6  0  0  0
 10 11  1  0  0  0  0
 10 12  1  0  0  0  0
 11 16  1  0  0  0  0
 12 13  1  6  0  0  0
 12 14  1  0  0  0  0
 14 15  1  1  0  0  0
 14 16  1  0  0  0  0
 16 27  1  1  0  0  0
 18 19  2  0  0  0  0
 18 23  1  0  0  0  0
 19 20  1  0  0  0  0
 20 21  2  0  0  0  0
 21 22  1  0  0  0  0
 21 27  1  0  0  0  0
 22 23  2  0  0  0  0
 22 25  1  0  0  0  0
 23 24  1  0  0  0  0
 25 26  2  0  0  0  0
 26 27  1  0  0  0  0
M  END
>  <CHROM.1>
162.90815745,-62.55372567,-178.24818357,-70.77427724,-178.65794239,-149.94649561
-100.07095006,48.05587297,55.31314000,30.29235965,1.35379989,-0.86659044
-1.75565219

>  <Name>
ligand

>  <RI>
0

>  <Rbt.Current_Directory>
/home/itssahil/PROJECTS/Mol_Feturizer/New_Systems/rnas/3IQR

>  <Rbt.Executable>
rbdock ($Id: //depot/dev/client3/rdock/2013.1/src/exe/rbdock.cxx#4 $)

>  <Rbt.Library>
libRbt.so (2013.1, Build901 2013/11/27)

>  <Rbt.Parameter_File>
/export/apps/rDock/src/rDock_2013.1_src/data/scripts/dock_solv.prm

>  <Rbt.Receptor>
prm/pocket_docking_6.prm

>  <SCORE>
-20.5628

>  <SCORE.INTER>
-16.218

>  <SCORE.INTER.CONST>
1

>  <SCORE.INTER.POLAR>
0

>  <SCORE.INTER.ROT>
7

>  <SCORE.INTER.SOLV>
12.8616

>  <SCORE.INTER.VDW>
-23.3658

>  <SCORE.INTER.norm>
-0.600665

>  <SCORE.INTRA>
-4.34487

>  <SCORE.INTRA.DIHEDRAL>
-3.06036

>  <SCORE.INTRA.DIHEDRAL.0>
9.29433

>  <SCORE.INTRA.POLAR>
0

>  <SCORE.INTRA.POLAR.0>
0

>  <SCORE.INTRA.REPUL>
0

>  <SCORE.INTRA.REPUL.0>
0

>  <SCORE.INTRA.SOLV>
-0.964647

>  <SCORE.INTRA.SOLV.lig_0>
-48.5102

>  <SCORE.INTRA.VDW>
-2.33236

>  <SCORE.INTRA.VDW.0>
0.379549

>  <SCORE.INTRA.norm>
-0.160921

>  <SCORE.RESTR>
0

>  <SCORE.RESTR.CAVITY>
0

>  <SCORE.RESTR.norm>
0

>  <SCORE.SYSTEM>
0

>  <SCORE.SYSTEM.CONST>
0

>  <SCORE.SYSTEM.DIHEDRAL>
0

>  <SCORE.SYSTEM.SOLV>
0

>  <SCORE.SYSTEM.norm>
0

>  <SCORE.heavy>
27

>  <SCORE.norm>
-0.761587

>  <RMSD>
4.700

$$$$
ligand
 OpenBabel11021811483D
libRbt.so/2013.1/901 2013/11/27
 27 29  0  0  0  0  0  0  0  0999 V2000
   48.2419   52.2927   28.5488 N   0  0  0  0  0  0  0  0  0  0  0  0
   49.3482   53.2361   28.7038 C   0  0  2  0  0  0  0  0  0  0  0  0
   50.5523   52.7125   27.9757 C   0  0  0  0  0  0  0  0  0  0  0  0
   51.6435   53.2511   28.1295 O   0  0  0  0  0  0  0  0  0  0  0  0
   49.6945   53.4094   30.1821 C   0  0  0  0  0  0  0  0  0  0  0  0
   48.5610   54.1494   30.8688 C   0  0  0  0  0  0  0  0  0  0  0  0
   48.8210   54.3994   32.6539 S   0  0  2  0  0  0  0  0  0  0  0  0
   48.2318   52.8599   33.4189 C   0  0  0  0  0  0  0  0  0  0  0  0
   47.2540   55.3054   33.2084 C   0  0  0  0  0  0  0  0  0  0  0  0
   46.9438   56.7503   32.6322 C   0  0  2  0  0  0  0  0  0  0  0  0
   46.6807   56.8801   31.2534 O   0  0  0  0  0  0  0  0  0  0  0  0
   47.7470   57.9175   33.0469 C   0  0  1  0  0  0  0  0  0  0  0  0
   48.4940   57.6770   34.2400 O   0  0  0  0  0  0  0  0  0  0  0  0
   48.6155   58.0284   31.7058 C   0  0  2  0  0  0  0  0  0  0  0  0
   49.3271   59.2290   31.6743 O   0  0  0  0  0  0  0  0  0  0  0  0
   47.5060   57.9804   30.6570 C   0  0  1  0  0  0  0  0  0  0  0  0
   50.4484   51.7229   27.2624 O   0  0  0  0  0  0  0  0  0  0  0  0
   45.7938   54.4815   27.3470 N   0  0  0  0  0  0  0  0  0  0  0  0
   45.5536   54.6434   28.6509 C   0  0  0  0  0  0  0  0  0  0  0  0
   46.0905   55.6525   29.3304 N   0  0  0  0  0  0  0  0  0  0  0  0
   46.9770   56.4858   28.7631 C   0  0  0  0  0  0  0  0  0  0  0  0
   47.3073   56.3204   27.3931 C   0  0  0  0  0  0  0  0  0  0  0  0
   46.6640   55.2684   26.6839 C   0  0  0  0  0  0  0  0  0  0  0  0
   46.9193   55.0512   25.3451 N   0  0  0  0  0  0  0  0  0  0  0  0
   48.2082   57.2691   27.0827 N   0  0  0  0  0  0  0  0  0  0  0  0
   48.4591   57.9915   28.1417 C   0  0  0  0  0  0  0  0  0  0  0  0
   47.7202   57.5631   29.2088 N   0  0  0  0  0  0  0  0  0  0  0  0
  2  1  1  1  0  0  0
  2  3  1  0  0  0  0
  2  5  1  0  0  0  0
  3  4  1  0  0  0  0
  3 17  1  0  0  0  0
  5  6  1  0  0  0  0
  7  6  1  6  0  0  0
  7  8  1  0  0  0  0
  7  9  1  0  0  0  0
 10  9  1  6  0  0  0
 10 11  1  0  0  0  0
 10 12  1  0  0  0  0
 11 16  1  0  0  0  0
 12 13  1  1  0  0  0
 12 14  1  0  0  0  0
 14 15  1  1  0  0  0
 14 16  1  0  0  0  0
 16 27  1  6  0  0  0
 18 19  2  0  0  0  0
 18 23  1  0  0  0  0
 19 20  1  0  0  0  0
 20 21  2  0  0  0  0
 21 22  1  0  0  0  0
 21 27  1  0  0  0  0
 22 23  2  0  0  0  0
 22 25  1  0  0  0  0
 23 24  1  0  0  0  0
 25 26  2  0  0  0  0
 26 27  1  0  0  0  0
M  END
>  <CHROM.1>
-169.79044703,-69.21428039,178.80472168,-84.73070039,-63.76355450,65.16856331
10.07039464,48.14935957,55.43102886,29.97991532,-1.35617036,-1.09736974,1.21181355

>  <Name>
ligand

>  <RI>
0

>  <Rbt.Current_Directory>
/home/itssahil/PROJECTS/Mol_Feturizer/New_Systems/rnas/3IQR

>  <Rbt.Executable>
rbdock ($Id: //depot/dev/client3/rdock/2013.1/src/exe/rbdock.cxx#4 $)

>  <Rbt.Library>
libRbt.so (2013.1, Build901 2013/11/27)

>  <Rbt.Parameter_File>
/export/apps/rDock/src/rDock_2013.1_src/data/scripts/dock_solv.prm

>  <Rbt.Receptor>
prm/pocket_docking_5.prm

>  <SCORE>
-13.4159

>  <SCORE.INTER>
-8.42791

>  <SCORE.INTER.CONST>
1

>  <SCORE.INTER.POLAR>
0

>  <SCORE.INTER.ROT>
7

>  <SCORE.INTER.SOLV>
14.0851

>  <SCORE.INTER.VDW>
-18.5803

>  <SCORE.INTER.norm>
-0.312145

>  <SCORE.INTRA>
-4.98798

>  <SCORE.INTRA.DIHEDRAL>
-4.48778

>  <SCORE.INTRA.DIHEDRAL.0>
9.29433

>  <SCORE.INTRA.POLAR>
0

>  <SCORE.INTRA.POLAR.0>
0

>  <SCORE.INTRA.REPUL>
0

>  <SCORE.INTRA.REPUL.0>
0

>  <SCORE.INTRA.SOLV>
-0.120228

>  <SCORE.INTRA.SOLV.lig_0>
-48.5102

>  <SCORE.INTRA.VDW>
-2.68398

>  <SCORE.INTRA.VDW.0>
0.379549

>  <SCORE.INTRA.norm>
-0.18474

>  <SCORE.RESTR>
0

>  <SCORE.RESTR.CAVITY>
0

>  <SCORE.RESTR.norm>
0

>  <SCORE.SYSTEM>
0

>  <SCORE.SYSTEM.CONST>
0

>  <SCORE.SYSTEM.DIHEDRAL>
0

>  <SCORE.SYSTEM.SOLV>
0

>  <SCORE.SYSTEM.norm>
0

>  <SCORE.heavy>
27

>  <SCORE.norm>
-0.496885

>  <RMSD>
4.753

$$$$
ligand
 OpenBabel11021811483D
libRbt.so/2013.1/901 2013/11/27
 27 29  0  0  0  0  0  0  0  0999 V2000
   49.5862   54.0217   28.6524 N   0  0  0  0  0  0  0  0  0  0  0  0
   49.2473   52.9189   29.5507 C   0  0  2  0  0  0  0  0  0  0  0  0
   48.4657   51.8846   28.7934 C   0  0  0  0  0  0  0  0  0  0  0  0
   47.4985   52.2206   28.1180 O   0  0  0  0  0  0  0  0  0  0  0  0
   48.4031   53.4266   30.7189 C   0  0  0  0  0  0  0  0  0  0  0  0
   49.2513   54.3517   31.5726 C   0  0  0  0  0  0  0  0  0  0  0  0
   48.6275   54.5634   33.2704 S   0  0  2  0  0  0  0  0  0  0  0  0
   47.9236   52.9444   33.7012 C   0  0  0  0  0  0  0  0  0  0  0  0
   46.8932   55.2800   33.0202 C   0  0  0  0  0  0  0  0  0  0  0  0
   46.7329   56.7703   32.5009 C   0  0  2  0  0  0  0  0  0  0  0  0
   46.4760   56.9788   31.1306 O   0  0  0  0  0  0  0  0  0  0  0  0
   47.6570   57.8303   32.9500 C   0  0  1  0  0  0  0  0  0  0  0  0
   48.3824   57.4679   34.1256 O   0  0  0  0  0  0  0  0  0  0  0  0
   48.5238   57.9000   31.6049 C   0  0  2  0  0  0  0  0  0  0  0  0
   49.3575   59.0198   31.6103 O   0  0  0  0  0  0  0  0  0  0  0  0
   47.4087   58.0083   30.5666 C   0  0  1  0  0  0  0  0  0  0  0  0
   48.8223   50.7136   28.8199 O   0  0  0  0  0  0  0  0  0  0  0  0
   45.8267   54.3910   27.3196 N   0  0  0  0  0  0  0  0  0  0  0  0
   45.6560   54.5180   28.6382 C   0  0  0  0  0  0  0  0  0  0  0  0
   46.1375   55.5677   29.2974 N   0  0  0  0  0  0  0  0  0  0  0  0
   46.9033   56.4865   28.6879 C   0  0  0  0  0  0  0  0  0  0  0  0
   47.1597   56.3651   27.2977 C   0  0  0  0  0  0  0  0  0  0  0  0
   46.5747   55.2628   26.6149 C   0  0  0  0  0  0  0  0  0  0  0  0
   46.7634   55.0825   25.2596 N   0  0  0  0  0  0  0  0  0  0  0  0
   47.9453   57.3978   26.9453 N   0  0  0  0  0  0  0  0  0  0  0  0
   48.1940   58.1317   27.9970 C   0  0  0  0  0  0  0  0  0  0  0  0
   47.5685   57.6258   29.1019 N   0  0  0  0  0  0  0  0  0  0  0  0
  2  1  1  6  0  0  0
  2  3  1  0  0  0  0
  2  5  1  0  0  0  0
  3  4  1  0  0  0  0
  3 17  1  0  0  0  0
  5  6  1  0  0  0  0
  7  6  1  6  0  0  0
  7  8  1  0  0  0  0
  7  9  1  0  0  0  0
 10  9  1  6  0  0  0
 10 11  1  0  0  0  0
 10 12  1  0  0  0  0
 11 16  1  0  0  0  0
 12 13  1  1  0  0  0
 12 14  1  0  0  0  0
 14 15  1  1  0  0  0
 14 16  1  0  0  0  0
 16 27  1  6  0  0  0
 18 19  2  0  0  0  0
 18 23  1  0  0  0  0
 19 20  1  0  0  0  0
 20 21  2  0  0  0  0
 21 22  1  0  0  0  0
 21 27  1  0  0  0  0
 22 23  2  0  0  0  0
 22 25  1  0  0  0  0
 23 24  1  0  0  0  0
 25 26  2  0  0  0  0
 26 27  1  0  0  0  0
M  END
>  <CHROM.1>
-49.86210703,-66.34536209,-159.32874388,34.83346018,-70.92403174,98.83392096
-1.91688426,47.77093802,55.38180629,30.14716362,-2.12303420,-1.34015741,0.60134922

>  <Name>
ligand

>  <RI>
0

>  <Rbt.Current_Directory>
/home/itssahil/PROJECTS/Mol_Feturizer/New_Systems/rnas/3IQR

>  <Rbt.Executable>
rbdock ($Id: //depot/dev/client3/rdock/2013.1/src/exe/rbdock.cxx#4 $)

>  <Rbt.Library>
libRbt.so (2013.1, Build901 2013/11/27)

>  <Rbt.Parameter_File>
/export/apps/rDock/src/rDock_2013.1_src/data/scripts/dock_solv.prm

>  <Rbt.Receptor>
prm/pocket_docking_3.prm

>  <SCORE>
-11.7722

>  <SCORE.INTER>
-9.49522

>  <SCORE.INTER.CONST>
1

>  <SCORE.INTER.POLAR>
0

>  <SCORE.INTER.ROT>
7

>  <SCORE.INTER.SOLV>
13.3757

>  <SCORE.INTER.VDW>
-19.0554

>  <SCORE.INTER.norm>
-0.351675

>  <SCORE.INTRA>
-2.27696

>  <SCORE.INTRA.DIHEDRAL>
-0.242414

>  <SCORE.INTRA.DIHEDRAL.0>
9.29433

>  <SCORE.INTRA.POLAR>
0

>  <SCORE.INTRA.POLAR.0>
0

>  <SCORE.INTRA.REPUL>
0

>  <SCORE.INTRA.REPUL.0>
0

>  <SCORE.INTRA.SOLV>
-0.0266019

>  <SCORE.INTRA.SOLV.lig_0>
-48.5102

>  <SCORE.INTRA.VDW>
-2.14246

>  <SCORE.INTRA.VDW.0>
0.379549

>  <SCORE.INTRA.norm>
-0.084332

>  <SCORE.RESTR>
0

>  <SCORE.RESTR.CAVITY>
0

>  <SCORE.RESTR.norm>
0

>  <SCORE.SYSTEM>
0

>  <SCORE.SYSTEM.CONST>
0

>  <SCORE.SYSTEM.DIHEDRAL>
0

>  <SCORE.SYSTEM.SOLV>
0

>  <SCORE.SYSTEM.norm>
0

>  <SCORE.heavy>
27

>  <SCORE.norm>
-0.436007

>  <RMSD>
4.759

$$$$
ligand
 OpenBabel11021811483D
libRbt.so/2013.1/901 2013/11/27
 27 29  0  0  0  0  0  0  0  0999 V2000
   47.3885   52.3922   26.0718 N   0  0  0  0  0  0  0  0  0  0  0  0
   47.4235   52.9174   27.4359 C   0  0  2  0  0  0  0  0  0  0  0  0
   46.4085   52.1934   28.2724 C   0  0  0  0  0  0  0  0  0  0  0  0
   45.2947   51.9573   27.8161 O   0  0  0  0  0  0  0  0  0  0  0  0
   47.0990   54.4107   27.4380 C   0  0  0  0  0  0  0  0  0  0  0  0
   48.2642   55.1675   26.8267 C   0  0  0  0  0  0  0  0  0  0  0  0
   49.5520   55.6302   28.0285 S   0  0  2  0  0  0  0  0  0  0  0  0
   49.8910   54.0976   28.9441 C   0  0  0  0  0  0  0  0  0  0  0  0
   48.5674   56.3175   29.4921 C   0  0  0  0  0  0  0  0  0  0  0  0
   49.3397   56.8300   30.7793 C   0  0  2  0  0  0  0  0  0  0  0  0
   49.5149   55.9371   31.8560 O   0  0  0  0  0  0  0  0  0  0  0  0
   49.0627   58.1651   31.3450 C   0  0  1  0  0  0  0  0  0  0  0  0
   48.3831   59.0227   30.4272 O   0  0  0  0  0  0  0  0  0  0  0  0
   48.1868   57.6600   32.5872 C   0  0  2  0  0  0  0  0  0  0  0  0
   47.9693   58.6983   33.4947 O   0  0  0  0  0  0  0  0  0  0  0  0
   49.1074   56.5781   33.1486 C   0  0  1  0  0  0  0  0  0  0  0  0
   46.7106   51.8045   29.3933 O   0  0  0  0  0  0  0  0  0  0  0  0
   44.7283   54.3944   34.6269 N   0  0  0  0  0  0  0  0  0  0  0  0
   44.9570   55.4970   33.9085 C   0  0  0  0  0  0  0  0  0  0  0  0
   46.1948   55.8812   33.6109 N   0  0  0  0  0  0  0  0  0  0  0  0
   47.2653   55.2405   34.1066 C   0  0  0  0  0  0  0  0  0  0  0  0
   47.0731   54.0950   34.9215 C   0  0  0  0  0  0  0  0  0  0  0  0
   45.7350   53.6783   35.1652 C   0  0  0  0  0  0  0  0  0  0  0  0
   45.4642   52.5650   35.9348 N   0  0  0  0  0  0  0  0  0  0  0  0
   48.2906   53.6547   35.2842 N   0  0  0  0  0  0  0  0  0  0  0  0
   49.2043   54.4328   34.7682 C   0  0  0  0  0  0  0  0  0  0  0  0
   48.6329   55.4244   34.0209 N   0  0  0  0  0  0  0  0  0  0  0  0
  2  1  1  6  0  0  0
  2  3  1  0  0  0  0
  2  5  1  0  0  0  0
  3  4  1  0  0  0  0
  3 17  1  0  0  0  0
  5  6  1  0  0  0  0
  7  6  1  6  0  0  0
  7  8  1  0  0  0  0
  7  9  1  0  0  0  0
 10  9  1  6  0  0  0
 10 11  1  0  0  0  0
 10 12  1  0  0  0  0
 11 16  1  0  0  0  0
 12 13  1  6  0  0  0
 12 14  1  0  0  0  0
 14 15  1  1  0  0  0
 14 16  1  0  0  0  0
 16 27  1  1  0  0  0
 18 19  2  0  0  0  0
 18 23  1  0  0  0  0
 19 20  1  0  0  0  0
 20 21  2  0  0  0  0
 21 22  1  0  0  0  0
 21 27  1  0  0  0  0
 22 23  2  0  0  0  0
 22 25  1  0  0  0  0
 23 24  1  0  0  0  0
 25 26  2  0  0  0  0
 26 27  1  0  0  0  0
M  END
>  <CHROM.1>
-42.48646660,-70.88469739,-87.90340261,48.99670722,179.52234276,-94.65281711
-100.11886546,47.72634525,55.03313042,31.22409222,1.36776008,-0.99665218
-1.92302862

>  <Name>
ligand

>  <RI>
0

>  <Rbt.Current_Directory>
/home/itssahil/PROJECTS/Mol_Feturizer/New_Systems/rnas/3IQR

>  <Rbt.Executable>
rbdock ($Id: //depot/dev/client3/rdock/2013.1/src/exe/rbdock.cxx#4 $)

>  <Rbt.Library>
libRbt.so (2013.1, Build901 2013/11/27)

>  <Rbt.Parameter_File>
/export/apps/rDock/src/rDock_2013.1_src/data/scripts/dock_solv.prm

>  <Rbt.Receptor>
prm/pocket_docking_5.prm

>  <SCORE>
-16.3058

>  <SCORE.INTER>
-14.4813

>  <SCORE.INTER.CONST>
1

>  <SCORE.INTER.POLAR>
0

>  <SCORE.INTER.ROT>
7

>  <SCORE.INTER.SOLV>
13.405

>  <SCORE.INTER.VDW>
-22.3892

>  <SCORE.INTER.norm>
-0.536344

>  <SCORE.INTRA>
-1.82457

>  <SCORE.INTRA.DIHEDRAL>
0.173285

>  <SCORE.INTRA.DIHEDRAL.0>
9.29433

>  <SCORE.INTRA.POLAR>
0

>  <SCORE.INTRA.POLAR.0>
0

>  <SCORE.INTRA.REPUL>
0

>  <SCORE.INTRA.REPUL.0>
0

>  <SCORE.INTRA.SOLV>
-0.46327

>  <SCORE.INTRA.SOLV.lig_0>
-48.5102

>  <SCORE.INTRA.VDW>
-1.67958

>  <SCORE.INTRA.VDW.0>
0.379549

>  <SCORE.INTRA.norm>
-0.0675766

>  <SCORE.RESTR>
0

>  <SCORE.RESTR.CAVITY>
0

>  <SCORE.RESTR.norm>
0

>  <SCORE.SYSTEM>
0

>  <SCORE.SYSTEM.CONST>
0

>  <SCORE.SYSTEM.DIHEDRAL>
0

>  <SCORE.SYSTEM.SOLV>
0

>  <SCORE.SYSTEM.norm>
0

>  <SCORE.heavy>
27

>  <SCORE.norm>
-0.60392

>  <RMSD>
4.760

$$$$
ligand
 OpenBabel11021811483D
libRbt.so/2013.1/901 2013/11/27
 27 29  0  0  0  0  0  0  0  0999 V2000
   45.1687   54.1043   28.9853 N   0  0  0  0  0  0  0  0  0  0  0  0
   46.2345   53.1324   28.7456 C   0  0  2  0  0  0  0  0  0  0  0  0
   45.7817   52.1454   27.7088 C   0  0  0  0  0  0  0  0  0  0  0  0
   44.6027   51.8115   27.6544 O   0  0  0  0  0  0  0  0  0  0  0  0
   46.5697   52.3839   30.0350 C   0  0  0  0  0  0  0  0  0  0  0  0
   47.0869   53.3773   31.0595 C   0  0  0  0  0  0  0  0  0  0  0  0
   48.5119   54.3538   30.4826 S   0  0  2  0  0  0  0  0  0  0  0  0
   49.8260   53.1271   30.2175 C   0  0  0  0  0  0  0  0  0  0  0  0
   49.3358   54.9280   32.0874 C   0  0  0  0  0  0  0  0  0  0  0  0
   48.5558   55.9141   33.0546 C   0  0  2  0  0  0  0  0  0  0  0  0
   47.4449   55.4166   33.7657 O   0  0  0  0  0  0  0  0  0  0  0  0
   48.2366   57.2919   32.6315 C   0  0  1  0  0  0  0  0  0  0  0  0
   49.0152   57.7198   31.5133 O   0  0  0  0  0  0  0  0  0  0  0  0
   46.6850   57.0357   32.3276 C   0  0  2  0  0  0  0  0  0  0  0  0
   46.0115   58.2435   32.1372 O   0  0  0  0  0  0  0  0  0  0  0  0
   46.2667   56.3317   33.6170 C   0  0  1  0  0  0  0  0  0  0  0  0
   46.5844   51.7086   26.8940 O   0  0  0  0  0  0  0  0  0  0  0  0
   42.0695   55.1199   30.9627 N   0  0  0  0  0  0  0  0  0  0  0  0
   43.0092   56.0426   30.7400 C   0  0  0  0  0  0  0  0  0  0  0  0
   44.0499   56.1775   31.5568 N   0  0  0  0  0  0  0  0  0  0  0  0
   44.1454   55.4681   32.6924 C   0  0  0  0  0  0  0  0  0  0  0  0
   43.1421   54.5136   33.0014 C   0  0  0  0  0  0  0  0  0  0  0  0
   42.0777   54.3537   32.0713 C   0  0  0  0  0  0  0  0  0  0  0  0
   41.0711   53.4354   32.2911 N   0  0  0  0  0  0  0  0  0  0  0  0
   43.4719   53.9552   34.1792 N   0  0  0  0  0  0  0  0  0  0  0  0
   44.5814   54.4886   34.6161 C   0  0  0  0  0  0  0  0  0  0  0  0
   45.0519   55.4221   33.7355 N   0  0  0  0  0  0  0  0  0  0  0  0
  2  1  1  1  0  0  0
  2  3  1  0  0  0  0
  2  5  1  0  0  0  0
  3  4  1  0  0  0  0
  3 17  1  0  0  0  0
  5  6  1  0  0  0  0
  7  6  1  1  0  0  0
  7  8  1  0  0  0  0
  7  9  1  0  0  0  0
 10  9  1  6  0  0  0
 10 11  1  0  0  0  0
 10 12  1  0  0  0  0
 11 16  1  0  0  0  0
 12 13  1  6  0  0  0
 12 14  1  0  0  0  0
 14 15  1  1  0  0  0
 14 16  1  0  0  0  0
 16 27  1  6  0  0  0
 18 19  2  0  0  0  0
 18 23  1  0  0  0  0
 19 20  1  0  0  0  0
 20 21  2  0  0  0  0
 21 22  1  0  0  0  0
 21 27  1  0  0  0  0
 22 23  2  0  0  0  0
 22 25  1  0  0  0  0
 23 24  1  0  0  0  0
 25 26  2  0  0  0  0
 26 27  1  0  0  0  0
M  END
>  <CHROM.1>
-34.06952957,-62.50213318,-55.60898347,-63.52826931,-64.84607593,70.46493182
-125.02088341,45.93191212,54.71673512,31.34229891,1.18323571,-0.17111693
-2.24990374

>  <Name>
ligand

>  <RI>
0

>  <Rbt.Current_Directory>
/home/itssahil/PROJECTS/Mol_Feturizer/New_Systems/rnas/3IQR

>  <Rbt.Executable>
rbdock ($Id: //depot/dev/client3/rdock/2013.1/src/exe/rbdock.cxx#4 $)

>  <Rbt.Library>
libRbt.so (2013.1, Build901 2013/11/27)

>  <Rbt.Parameter_File>
/export/apps/rDock/src/rDock_2013.1_src/data/scripts/dock_solv.prm

>  <Rbt.Receptor>
prm/pocket_docking_6.prm

>  <SCORE>
-18.142

>  <SCORE.INTER>
-11.929

>  <SCORE.INTER.CONST>
1

>  <SCORE.INTER.POLAR>
0

>  <SCORE.INTER.ROT>
7

>  <SCORE.INTER.SOLV>
6.10205

>  <SCORE.INTER.VDW>
-18.2534

>  <SCORE.INTER.norm>
-0.441816

>  <SCORE.INTRA>
-6.21296

>  <SCORE.INTRA.DIHEDRAL>
-4.55501

>  <SCORE.INTRA.DIHEDRAL.0>
9.29433

>  <SCORE.INTRA.POLAR>
0

>  <SCORE.INTRA.POLAR.0>
0

>  <SCORE.INTRA.REPUL>
0

>  <SCORE.INTRA.REPUL.0>
0

>  <SCORE.INTRA.SOLV>
0.750312

>  <SCORE.INTRA.SOLV.lig_0>
-48.5102

>  <SCORE.INTRA.VDW>
-4.31061

>  <SCORE.INTRA.VDW.0>
0.379549

>  <SCORE.INTRA.norm>
-0.23011

>  <SCORE.RESTR>
0

>  <SCORE.RESTR.CAVITY>
0

>  <SCORE.RESTR.norm>
0

>  <SCORE.SYSTEM>
0

>  <SCORE.SYSTEM.CONST>
0

>  <SCORE.SYSTEM.DIHEDRAL>
0

>  <SCORE.SYSTEM.SOLV>
0

>  <SCORE.SYSTEM.norm>
0

>  <SCORE.heavy>
27

>  <SCORE.norm>
-0.671926

>  <RMSD>
4.767

$$$$
ligand
 OpenBabel11021811483D
libRbt.so/2013.1/901 2013/11/27
 27 29  0  0  0  0  0  0  0  0999 V2000
   45.3270   52.6933   26.3040 N   0  0  0  0  0  0  0  0  0  0  0  0
   46.7795   52.8102   26.4237 C   0  0  2  0  0  0  0  0  0  0  0  0
   47.2492   51.9861   27.5876 C   0  0  0  0  0  0  0  0  0  0  0  0
   46.5287   51.8474   28.5705 O   0  0  0  0  0  0  0  0  0  0  0  0
   47.1775   54.2680   26.6509 C   0  0  0  0  0  0  0  0  0  0  0  0
   48.6864   54.3885   26.5389 C   0  0  0  0  0  0  0  0  0  0  0  0
   49.3916   55.7426   27.5318 S   0  0  2  0  0  0  0  0  0  0  0  0
   51.0968   55.2154   27.8733 C   0  0  0  0  0  0  0  0  0  0  0  0
   48.8761   55.3109   29.3014 C   0  0  0  0  0  0  0  0  0  0  0  0
   49.5395   56.0842   30.5172 C   0  0  2  0  0  0  0  0  0  0  0  0
   49.6783   55.4081   31.7464 O   0  0  0  0  0  0  0  0  0  0  0  0
   49.1715   57.4827   30.8142 C   0  0  1  0  0  0  0  0  0  0  0  0
   48.5205   58.1263   29.7180 O   0  0  0  0  0  0  0  0  0  0  0  0
   48.2358   57.1627   32.0741 C   0  0  2  0  0  0  0  0  0  0  0  0
   47.9163   58.3336   32.7640 O   0  0  0  0  0  0  0  0  0  0  0  0
   49.1599   56.2475   32.8752 C   0  0  1  0  0  0  0  0  0  0  0  0
   48.3340   51.4211   27.5337 O   0  0  0  0  0  0  0  0  0  0  0  0
   44.7755   54.1967   34.5188 N   0  0  0  0  0  0  0  0  0  0  0  0
   45.0086   55.1666   33.6306 C   0  0  0  0  0  0  0  0  0  0  0  0
   46.2484   55.5375   33.3248 N   0  0  0  0  0  0  0  0  0  0  0  0
   47.3106   55.0301   33.9700 C   0  0  0  0  0  0  0  0  0  0  0  0
   47.1104   54.0358   34.9623 C   0  0  0  0  0  0  0  0  0  0  0  0
   45.7739   53.6200   35.2164 C   0  0  0  0  0  0  0  0  0  0  0  0
   45.4966   52.6468   36.1550 N   0  0  0  0  0  0  0  0  0  0  0  0
   48.3204   53.7080   35.4483 N   0  0  0  0  0  0  0  0  0  0  0  0
   49.2364   54.4176   34.8452 C   0  0  0  0  0  0  0  0  0  0  0  0
   48.6753   55.2449   33.9131 N   0  0  0  0  0  0  0  0  0  0  0  0
  2  1  1  1  0  0  0
  2  3  1  0  0  0  0
  2  5  1  0  0  0  0
  3  4  1  0  0  0  0
  3 17  1  0  0  0  0
  5  6  1  0  0  0  0
  7  6  1  6  0  0  0
  7  8  1  0  0  0  0
  7  9  1  0  0  0  0
 10  9  1  6  0  0  0
 10 11  1  0  0  0  0
 10 12  1  0  0  0  0
 11 16  1  0  0  0  0
 12 13  1  6  0  0  0
 12 14  1  0  0  0  0
 14 15  1  1  0  0  0
 14 16  1  0  0  0  0
 16 27  1  1  0  0  0
 18 19  2  0  0  0  0
 18 23  1  0  0  0  0
 19 20  1  0  0  0  0
 20 21  2  0  0  0  0
 21 22  1  0  0  0  0
 21 27  1  0  0  0  0
 22 23  2  0  0  0  0
 22 25  1  0  0  0  0
 23 24  1  0  0  0  0
 25 26  2  0  0  0  0
 26 27  1  0  0  0  0
M  END
>  <CHROM.1>
-32.18772853,-170.64355892,-151.46960811,153.82325441,167.63155891,-150.06133411
-101.45981362,47.87376163,54.80640407,30.87682819,1.32129044,-0.91358014
-1.87626153

>  <Name>
ligand

>  <RI>
0

>  <Rbt.Current_Directory>
/home/itssahil/PROJECTS/Mol_Feturizer/New_Systems/rnas/3IQR

>  <Rbt.Executable>
rbdock ($Id: //depot/dev/client3/rdock/2013.1/src/exe/rbdock.cxx#4 $)

>  <Rbt.Library>
libRbt.so (2013.1, Build901 2013/11/27)

>  <Rbt.Parameter_File>
/export/apps/rDock/src/rDock_2013.1_src/data/scripts/dock_solv.prm

>  <Rbt.Receptor>
prm/pocket_docking_5.prm

>  <SCORE>
-15.7544

>  <SCORE.INTER>
-12.5222

>  <SCORE.INTER.CONST>
1

>  <SCORE.INTER.POLAR>
0

>  <SCORE.INTER.ROT>
7

>  <SCORE.INTER.SOLV>
14.0389

>  <SCORE.INTER.VDW>
-21.2944

>  <SCORE.INTER.norm>
-0.463786

>  <SCORE.INTRA>
-3.28995

>  <SCORE.INTRA.DIHEDRAL>
0.213678

>  <SCORE.INTRA.DIHEDRAL.0>
9.29433

>  <SCORE.INTRA.POLAR>
0

>  <SCORE.INTRA.POLAR.0>
0

>  <SCORE.INTRA.REPUL>
0

>  <SCORE.INTRA.REPUL.0>
0

>  <SCORE.INTRA.SOLV>
-1.59106

>  <SCORE.INTRA.SOLV.lig_0>
-48.5102

>  <SCORE.INTRA.VDW>
-2.60126

>  <SCORE.INTRA.VDW.0>
0.379549

>  <SCORE.INTRA.norm>
-0.12185

>  <SCORE.RESTR>
0.0577427

>  <SCORE.RESTR.CAVITY>
0.0577427

>  <SCORE.RESTR.norm>
0.00213862

>  <SCORE.SYSTEM>
0

>  <SCORE.SYSTEM.CONST>
0

>  <SCORE.SYSTEM.DIHEDRAL>
0

>  <SCORE.SYSTEM.SOLV>
0

>  <SCORE.SYSTEM.norm>
0

>  <SCORE.heavy>
27

>  <SCORE.norm>
-0.583497

>  <RMSD>
4.777

$$$$
ligand
 OpenBabel11021811483D
libRbt.so/2013.1/901 2013/11/27
 27 29  0  0  0  0  0  0  0  0999 V2000
   47.3787   54.1802   28.4743 N   0  0  0  0  0  0  0  0  0  0  0  0
   48.3302   53.2346   29.0560 C   0  0  2  0  0  0  0  0  0  0  0  0
   48.2036   51.9112   28.3584 C   0  0  0  0  0  0  0  0  0  0  0  0
   49.0283   51.0274   28.5667 O   0  0  0  0  0  0  0  0  0  0  0  0
   48.0453   53.0437   30.5451 C   0  0  0  0  0  0  0  0  0  0  0  0
   48.3442   54.3418   31.2729 C   0  0  0  0  0  0  0  0  0  0  0  0
   48.4785   54.1576   33.0797 S   0  0  2  0  0  0  0  0  0  0  0  0
   46.7739   54.3380   33.6829 C   0  0  0  0  0  0  0  0  0  0  0  0
   48.9013   55.9046   33.6741 C   0  0  0  0  0  0  0  0  0  0  0  0
   47.8532   57.0758   33.4600 C   0  0  2  0  0  0  0  0  0  0  0  0
   46.8101   56.8809   32.5320 O   0  0  0  0  0  0  0  0  0  0  0  0
   48.3004   58.4779   33.3435 C   0  0  1  0  0  0  0  0  0  0  0  0
   49.6302   58.6745   33.8257 O   0  0  0  0  0  0  0  0  0  0  0  0
   48.1231   58.5958   31.7561 C   0  0  2  0  0  0  0  0  0  0  0  0
   48.2309   59.9249   31.3429 O   0  0  0  0  0  0  0  0  0  0  0  0
   46.7056   58.0490   31.5981 C   0  0  1  0  0  0  0  0  0  0  0  0
   47.2530   51.7046   27.6149 O   0  0  0  0  0  0  0  0  0  0  0  0
   48.3287   56.8623   26.8983 N   0  0  0  0  0  0  0  0  0  0  0  0
   48.9488   57.4783   27.9083 C   0  0  0  0  0  0  0  0  0  0  0  0
   48.3423   57.6681   29.0763 N   0  0  0  0  0  0  0  0  0  0  0  0
   47.0514   57.3461   29.2557 C   0  0  0  0  0  0  0  0  0  0  0  0
   46.3330   56.7393   28.1931 C   0  0  0  0  0  0  0  0  0  0  0  0
   47.0347   56.4951   26.9800 C   0  0  0  0  0  0  0  0  0  0  0  0
   46.4115   55.8946   25.9048 N   0  0  0  0  0  0  0  0  0  0  0  0
   45.0788   56.5280   28.6292 N   0  0  0  0  0  0  0  0  0  0  0  0
   44.9692   56.9571   29.8581 C   0  0  0  0  0  0  0  0  0  0  0  0
   46.1579   57.4633   30.3043 N   0  0  0  0  0  0  0  0  0  0  0  0
  2  1  1  6  0  0  0
  2  3  1  0  0  0  0
  2  5  1  0  0  0  0
  3  4  1  0  0  0  0
  3 17  1  0  0  0  0
  5  6  1  0  0  0  0
  7  6  1  6  0  0  0
  7  8  1  0  0  0  0
  7  9  1  0  0  0  0
 10  9  1  6  0  0  0
 10 11  1  0  0  0  0
 10 12  1  0  0  0  0
 11 16  1  0  0  0  0
 12 13  1  6  0  0  0
 12 14  1  0  0  0  0
 14 15  1  1  0  0  0
 14 16  1  0  0  0  0
 16 27  1  6  0  0  0
 18 19  2  0  0  0  0
 18 23  1  0  0  0  0
 19 20  1  0  0  0  0
 20 21  2  0  0  0  0
 21 22  1  0  0  0  0
 21 27  1  0  0  0  0
 22 23  2  0  0  0  0
 22 25  1  0  0  0  0
 23 24  1  0  0  0  0
 25 26  2  0  0  0  0
 26 27  1  0  0  0  0
M  END
>  <CHROM.1>
170.32129265,-67.00972833,-164.72159526,-87.30604262,63.88945733,-16.82756441
-106.64756072,47.66047586,55.84506140,30.38346720,-1.87102174,-1.32180288
0.57259276

>  <Name>
ligand

>  <RI>
0

>  <Rbt.Current_Directory>
/home/itssahil/PROJECTS/Mol_Feturizer/New_Systems/rnas/3IQR

>  <Rbt.Executable>
rbdock ($Id: //depot/dev/client3/rdock/2013.1/src/exe/rbdock.cxx#4 $)

>  <Rbt.Library>
libRbt.so (2013.1, Build901 2013/11/27)

>  <Rbt.Parameter_File>
/export/apps/rDock/src/rDock_2013.1_src/data/scripts/dock_solv.prm

>  <Rbt.Receptor>
prm/pocket_docking_2.prm

>  <SCORE>
-8.20934

>  <SCORE.INTER>
-9.24311

>  <SCORE.INTER.CONST>
1

>  <SCORE.INTER.POLAR>
0

>  <SCORE.INTER.ROT>
7

>  <SCORE.INTER.SOLV>
14.1211

>  <SCORE.INTER.VDW>
-19.1358

>  <SCORE.INTER.norm>
-0.342337

>  <SCORE.INTRA>
-0.325313

>  <SCORE.INTRA.DIHEDRAL>
-0.113563

>  <SCORE.INTRA.DIHEDRAL.0>
9.29433

>  <SCORE.INTRA.POLAR>
0

>  <SCORE.INTRA.POLAR.0>
0

>  <SCORE.INTRA.REPUL>
0

>  <SCORE.INTRA.REPUL.0>
0

>  <SCORE.INTRA.SOLV>
3.84899

>  <SCORE.INTRA.SOLV.lig_0>
-48.5102

>  <SCORE.INTRA.VDW>
-2.19303

>  <SCORE.INTRA.VDW.0>
0.379549

>  <SCORE.INTRA.norm>
-0.0120486

>  <SCORE.RESTR>
1.35908

>  <SCORE.RESTR.CAVITY>
1.35908

>  <SCORE.RESTR.norm>
0.0503362

>  <SCORE.SYSTEM>
0

>  <SCORE.SYSTEM.CONST>
0

>  <SCORE.SYSTEM.DIHEDRAL>
0

>  <SCORE.SYSTEM.SOLV>
0

>  <SCORE.SYSTEM.norm>
0

>  <SCORE.heavy>
27

>  <SCORE.norm>
-0.30405

>  <RMSD>
4.781

$$$$
ligand
 OpenBabel11021811483D
libRbt.so/2013.1/901 2013/11/27
 27 29  0  0  0  0  0  0  0  0999 V2000
   47.7120   52.7902   25.9181 N   0  0  0  0  0  0  0  0  0  0  0  0
   47.8323   54.1990   26.2907 C   0  0  2  0  0  0  0  0  0  0  0  0
   47.7776   55.0460   25.0522 C   0  0  0  0  0  0  0  0  0  0  0  0
   47.1586   56.1048   25.0610 O   0  0  0  0  0  0  0  0  0  0  0  0
   49.1591   54.4468   27.0071 C   0  0  0  0  0  0  0  0  0  0  0  0
   49.2091   55.8940   27.4619 C   0  0  0  0  0  0  0  0  0  0  0  0
   48.2077   56.2339   28.9446 S   0  0  2  0  0  0  0  0  0  0  0  0
   46.4949   56.2671   28.3384 C   0  0  0  0  0  0  0  0  0  0  0  0
   48.2273   58.1227   29.0706 C   0  0  0  0  0  0  0  0  0  0  0  0
   47.7365   58.8199   30.4082 C   0  0  2  0  0  0  0  0  0  0  0  0
   48.2751   58.3752   31.6327 O   0  0  0  0  0  0  0  0  0  0  0  0
   46.3061   59.1114   30.6273 C   0  0  1  0  0  0  0  0  0  0  0  0
   45.5446   59.0754   29.4197 O   0  0  0  0  0  0  0  0  0  0  0  0
   46.0281   57.9090   31.6482 C   0  0  2  0  0  0  0  0  0  0  0  0
   44.7817   58.0563   32.2596 O   0  0  0  0  0  0  0  0  0  0  0  0
   47.1845   58.1079   32.6261 C   0  0  1  0  0  0  0  0  0  0  0  0
   48.3864   54.6960   24.0492 O   0  0  0  0  0  0  0  0  0  0  0  0
   45.7093   53.6497   34.6457 N   0  0  0  0  0  0  0  0  0  0  0  0
   45.0321   54.5537   33.9329 C   0  0  0  0  0  0  0  0  0  0  0  0
   45.6232   55.6532   33.4746 N   0  0  0  0  0  0  0  0  0  0  0  0
   46.8915   55.9529   33.7968 C   0  0  0  0  0  0  0  0  0  0  0  0
   47.6360   55.0498   34.5989 C   0  0  0  0  0  0  0  0  0  0  0  0
   46.9886   53.8541   35.0170 C   0  0  0  0  0  0  0  0  0  0  0  0
   47.6490   52.9176   35.7862 N   0  0  0  0  0  0  0  0  0  0  0  0
   48.8568   55.5853   34.7743 N   0  0  0  0  0  0  0  0  0  0  0  0
   48.9187   56.7345   34.1564 C   0  0  0  0  0  0  0  0  0  0  0  0
   47.7387   57.0111   33.5245 N   0  0  0  0  0  0  0  0  0  0  0  0
  2  1  1  6  0  0  0
  2  3  1  0  0  0  0
  2  5  1  0  0  0  0
  3  4  1  0  0  0  0
  3 17  1  0  0  0  0
  5  6  1  0  0  0  0
  7  6  1  6  0  0  0
  7  8  1  0  0  0  0
  7  9  1  0  0  0  0
 10  9  1  6  0  0  0
 10 11  1  0  0  0  0
 10 12  1  0  0  0  0
 11 16  1  0  0  0  0
 12 13  1  6  0  0  0
 12 14  1  0  0  0  0
 14 15  1  1  0  0  0
 14 16  1  0  0  0  0
 16 27  1  6  0  0  0
 18 19  2  0  0  0  0
 18 23  1  0  0  0  0
 19 20  1  0  0  0  0
 20 21  2  0  0  0  0
 21 22  1  0  0  0  0
 21 27  1  0  0  0  0
 22 23  2  0  0  0  0
 22 25  1  0  0  0  0
 23 24  1  0  0  0  0
 25 26  2  0  0  0  0
 26 27  1  0  0  0  0
M  END
>  <CHROM.1>
140.07188369,-176.18854909,76.90238958,-75.98312675,-166.54226905,50.55287085
-133.79542342,47.33325545,56.12727750,30.51961126,-0.98174598,-1.34863696
2.11592508

>  <Name>
ligand

>  <RI>
0

>  <Rbt.Current_Directory>
/home/itssahil/PROJECTS/Mol_Feturizer/New_Systems/rnas/3IQR

>  <Rbt.Executable>
rbdock ($Id: //depot/dev/client3/rdock/2013.1/src/exe/rbdock.cxx#4 $)

>  <Rbt.Library>
libRbt.so (2013.1, Build901 2013/11/27)

>  <Rbt.Parameter_File>
/export/apps/rDock/src/rDock_2013.1_src/data/scripts/dock_solv.prm

>  <Rbt.Receptor>
prm/pocket_docking_4.prm

>  <SCORE>
-18.9649

>  <SCORE.INTER>
-13.8912

>  <SCORE.INTER.CONST>
1

>  <SCORE.INTER.POLAR>
0

>  <SCORE.INTER.ROT>
7

>  <SCORE.INTER.SOLV>
11.3382

>  <SCORE.INTER.VDW>
-21.3068

>  <SCORE.INTER.norm>
-0.514488

>  <SCORE.INTRA>
-5.07376

>  <SCORE.INTRA.DIHEDRAL>
-2.86427

>  <SCORE.INTRA.DIHEDRAL.0>
9.29433

>  <SCORE.INTRA.POLAR>
0

>  <SCORE.INTRA.POLAR.0>
0

>  <SCORE.INTRA.REPUL>
0

>  <SCORE.INTRA.REPUL.0>
0

>  <SCORE.INTRA.SOLV>
-0.945072

>  <SCORE.INTRA.SOLV.lig_0>
-48.5102

>  <SCORE.INTRA.VDW>
-3.16909

>  <SCORE.INTRA.VDW.0>
0.379549

>  <SCORE.INTRA.norm>
-0.187917

>  <SCORE.RESTR>
0

>  <SCORE.RESTR.CAVITY>
0

>  <SCORE.RESTR.norm>
0

>  <SCORE.SYSTEM>
0

>  <SCORE.SYSTEM.CONST>
0

>  <SCORE.SYSTEM.DIHEDRAL>
0

>  <SCORE.SYSTEM.SOLV>
0

>  <SCORE.SYSTEM.norm>
0

>  <SCORE.heavy>
27

>  <SCORE.norm>
-0.702405

>  <RMSD>
4.786

$$$$
ligand
 OpenBabel11021811483D
libRbt.so/2013.1/901 2013/11/27
 27 29  0  0  0  0  0  0  0  0999 V2000
   47.8576   51.3548   29.0902 N   0  0  0  0  0  0  0  0  0  0  0  0
   48.0372   52.8002   29.2185 C   0  0  2  0  0  0  0  0  0  0  0  0
   48.9434   53.2864   28.1246 C   0  0  0  0  0  0  0  0  0  0  0  0
   50.1254   53.5113   28.3628 O   0  0  0  0  0  0  0  0  0  0  0  0
   48.6611   53.1392   30.5717 C   0  0  0  0  0  0  0  0  0  0  0  0
   47.8059   54.1888   31.2578 C   0  0  0  0  0  0  0  0  0  0  0  0
   48.5308   54.8360   32.7981 S   0  0  2  0  0  0  0  0  0  0  0  0
   48.3412   53.4810   33.9940 C   0  0  0  0  0  0  0  0  0  0  0  0
   47.0993   55.7796   33.6007 C   0  0  0  0  0  0  0  0  0  0  0  0
   46.7859   57.2635   33.1359 C   0  0  2  0  0  0  0  0  0  0  0  0
   46.0453   57.4529   31.9515 O   0  0  0  0  0  0  0  0  0  0  0  0
   47.8298   58.3063   33.1833 C   0  0  1  0  0  0  0  0  0  0  0  0
   48.9311   57.9467   34.0184 O   0  0  0  0  0  0  0  0  0  0  0  0
   48.1400   58.3269   31.6121 C   0  0  2  0  0  0  0  0  0  0  0  0
   48.9372   59.4234   31.2789 O   0  0  0  0  0  0  0  0  0  0  0  0
   46.7226   58.4458   31.0553 C   0  0  1  0  0  0  0  0  0  0  0  0
   48.5079   53.4171   26.9878 O   0  0  0  0  0  0  0  0  0  0  0  0
   48.7217   56.0163   27.0264 N   0  0  0  0  0  0  0  0  0  0  0  0
   49.2712   56.3846   28.1868 C   0  0  0  0  0  0  0  0  0  0  0  0
   48.5544   56.9952   29.1257 N   0  0  0  0  0  0  0  0  0  0  0  0
   47.2814   57.3614   28.9077 C   0  0  0  0  0  0  0  0  0  0  0  0
   46.6694   57.0414   27.6682 C   0  0  0  0  0  0  0  0  0  0  0  0
   47.4495   56.3319   26.7134 C   0  0  0  0  0  0  0  0  0  0  0  0
   46.9226   55.9699   25.4901 N   0  0  0  0  0  0  0  0  0  0  0  0
   45.4134   57.5196   27.7082 N   0  0  0  0  0  0  0  0  0  0  0  0
   45.2096   58.1063   28.8575 C   0  0  0  0  0  0  0  0  0  0  0  0
   46.3234   58.0314   29.6460 N   0  0  0  0  0  0  0  0  0  0  0  0
  2  1  1  1  0  0  0
  2  3  1  0  0  0  0
  2  5  1  0  0  0  0
  3  4  1  0  0  0  0
  3 17  1  0  0  0  0
  5  6  1  0  0  0  0
  7  6  1  6  0  0  0
  7  8  1  0  0  0  0
  7  9  1  0  0  0  0
 10  9  1  6  0  0  0
 10 11  1  0  0  0  0
 10 12  1  0  0  0  0
 11 16  1  0  0  0  0
 12 13  1  1  0  0  0
 12 14  1  0  0  0  0
 14 15  1  1  0  0  0
 14 16  1  0  0  0  0
 16 27  1  6  0  0  0
 18 19  2  0  0  0  0
 18 23  1  0  0  0  0
 19 20  1  0  0  0  0
 20 21  2  0  0  0  0
 21 22  1  0  0  0  0
 21 27  1  0  0  0  0
 22 23  2  0  0  0  0
 22 25  1  0  0  0  0
 23 24  1  0  0  0  0
 25 26  2  0  0  0  0
 26 27  1  0  0  0  0
M  END
>  <CHROM.1>
-100.69108274,-127.61938309,-173.21773383,-72.91306241,-82.58323849,80.56042772
-103.21995612,47.81403055,55.94813147,30.17634553,-1.42600097,-1.24647906
1.27513903

>  <Name>
ligand

>  <RI>
0

>  <Rbt.Current_Directory>
/home/itssahil/PROJECTS/Mol_Feturizer/New_Systems/rnas/3IQR

>  <Rbt.Executable>
rbdock ($Id: //depot/dev/client3/rdock/2013.1/src/exe/rbdock.cxx#4 $)

>  <Rbt.Library>
libRbt.so (2013.1, Build901 2013/11/27)

>  <Rbt.Parameter_File>
/export/apps/rDock/src/rDock_2013.1_src/data/scripts/dock_solv.prm

>  <Rbt.Receptor>
prm/pocket_docking_2.prm

>  <SCORE>
-8.80559

>  <SCORE.INTER>
-6.44432

>  <SCORE.INTER.CONST>
1

>  <SCORE.INTER.POLAR>
0

>  <SCORE.INTER.ROT>
7

>  <SCORE.INTER.SOLV>
20.0258

>  <SCORE.INTER.VDW>
-19.2382

>  <SCORE.INTER.norm>
-0.238678

>  <SCORE.INTRA>
-3.77719

>  <SCORE.INTRA.DIHEDRAL>
2.17569

>  <SCORE.INTRA.DIHEDRAL.0>
9.29433

>  <SCORE.INTRA.POLAR>
0

>  <SCORE.INTRA.POLAR.0>
0

>  <SCORE.INTRA.REPUL>
0

>  <SCORE.INTRA.REPUL.0>
0

>  <SCORE.INTRA.SOLV>
-0.693948

>  <SCORE.INTRA.SOLV.lig_0>
-48.5102

>  <SCORE.INTRA.VDW>
-4.51807

>  <SCORE.INTRA.VDW.0>
0.379549

>  <SCORE.INTRA.norm>
-0.139896

>  <SCORE.RESTR>
1.41592

>  <SCORE.RESTR.CAVITY>
1.41592

>  <SCORE.RESTR.norm>
0.0524416

>  <SCORE.SYSTEM>
0

>  <SCORE.SYSTEM.CONST>
0

>  <SCORE.SYSTEM.DIHEDRAL>
0

>  <SCORE.SYSTEM.SOLV>
0

>  <SCORE.SYSTEM.norm>
0

>  <SCORE.heavy>
27

>  <SCORE.norm>
-0.326133

>  <RMSD>
4.800

$$$$
ligand
 OpenBabel11021811483D
libRbt.so/2013.1/901 2013/11/27
 27 29  0  0  0  0  0  0  0  0999 V2000
   47.7658   52.8726   25.7415 N   0  0  0  0  0  0  0  0  0  0  0  0
   47.8622   54.2636   26.1817 C   0  0  2  0  0  0  0  0  0  0  0  0
   47.8522   55.1654   24.9813 C   0  0  0  0  0  0  0  0  0  0  0  0
   48.4726   54.8486   23.9718 O   0  0  0  0  0  0  0  0  0  0  0  0
   49.1574   54.4847   26.9618 C   0  0  0  0  0  0  0  0  0  0  0  0
   49.2037   55.9247   27.4392 C   0  0  0  0  0  0  0  0  0  0  0  0
   48.1152   56.2640   28.8594 S   0  0  2  0  0  0  0  0  0  0  0  0
   46.4452   56.3314   28.1461 C   0  0  0  0  0  0  0  0  0  0  0  0
   48.1555   58.1508   29.0092 C   0  0  0  0  0  0  0  0  0  0  0  0
   47.7032   58.8348   30.3670 C   0  0  2  0  0  0  0  0  0  0  0  0
   48.2603   58.3637   31.5733 O   0  0  0  0  0  0  0  0  0  0  0  0
   46.2821   59.1439   30.6204 C   0  0  1  0  0  0  0  0  0  0  0  0
   45.4953   59.1375   29.4286 O   0  0  0  0  0  0  0  0  0  0  0  0
   46.0072   57.9304   31.6289 C   0  0  2  0  0  0  0  0  0  0  0  0
   44.7762   58.0868   32.2684 O   0  0  0  0  0  0  0  0  0  0  0  0
   47.1866   58.0974   32.5852 C   0  0  1  0  0  0  0  0  0  0  0  0
   47.1902   56.1952   25.0003 O   0  0  0  0  0  0  0  0  0  0  0  0
   45.5879   53.8063   34.8571 N   0  0  0  0  0  0  0  0  0  0  0  0
   44.9134   54.7456   34.1885 C   0  0  0  0  0  0  0  0  0  0  0  0
   45.5371   55.7872   33.6460 N   0  0  0  0  0  0  0  0  0  0  0  0
   46.8497   55.9947   33.8364 C   0  0  0  0  0  0  0  0  0  0  0  0
   47.5997   55.0529   34.5873 C   0  0  0  0  0  0  0  0  0  0  0  0
   46.9090   53.9191   35.0979 C   0  0  0  0  0  0  0  0  0  0  0  0
   47.5699   52.9498   35.8250 N   0  0  0  0  0  0  0  0  0  0  0  0
   48.8684   55.4964   34.6299 N   0  0  0  0  0  0  0  0  0  0  0  0
   48.9550   56.6251   33.9780 C   0  0  0  0  0  0  0  0  0  0  0  0
   47.7427   56.9791   33.4554 N   0  0  0  0  0  0  0  0  0  0  0  0
  2  1  1  6  0  0  0
  2  3  1  0  0  0  0
  2  5  1  0  0  0  0
  3  4  1  0  0  0  0
  3 17  1  0  0  0  0
  5  6  1  0  0  0  0
  7  6  1  6  0  0  0
  7  8  1  0  0  0  0
  7  9  1  0  0  0  0
 10  9  1  6  0  0  0
 10 11  1  0  0  0  0
 10 12  1  0  0  0  0
 11 16  1  0  0  0  0
 12 13  1  6  0  0  0
 12 14  1  0  0  0  0
 14 15  1  1  0  0  0
 14 16  1  0  0  0  0
 16 27  1  6  0  0  0
 18 19  2  0  0  0  0
 18 23  1  0  0  0  0
 19 20  1  0  0  0  0
 20 21  2  0  0  0  0
 21 22  1  0  0  0  0
 21 27  1  0  0  0  0
 22 23  2  0  0  0  0
 22 25  1  0  0  0  0
 23 24  1  0  0  0  0
 25 26  2  0  0  0  0
 26 27  1  0  0  0  0
M  END
>  <CHROM.1>
-40.13014974,-178.25689935,75.80767086,-75.79795972,-161.52250943,50.17450077
-139.82030027,47.30845777,56.17287563,30.49060288,-1.00988655,-1.31480436
2.09549534

>  <Name>
ligand

>  <RI>
0

>  <Rbt.Current_Directory>
/home/itssahil/PROJECTS/Mol_Feturizer/New_Systems/rnas/3IQR

>  <Rbt.Executable>
rbdock ($Id: //depot/dev/client3/rdock/2013.1/src/exe/rbdock.cxx#4 $)

>  <Rbt.Library>
libRbt.so (2013.1, Build901 2013/11/27)

>  <Rbt.Parameter_File>
/export/apps/rDock/src/rDock_2013.1_src/data/scripts/dock_solv.prm

>  <Rbt.Receptor>
prm/pocket_docking_7.prm

>  <SCORE>
-19.3436

>  <SCORE.INTER>
-14.6013

>  <SCORE.INTER.CONST>
1

>  <SCORE.INTER.POLAR>
0

>  <SCORE.INTER.ROT>
7

>  <SCORE.INTER.SOLV>
11.4603

>  <SCORE.INTER.VDW>
-21.821

>  <SCORE.INTER.norm>
-0.54079

>  <SCORE.INTRA>
-4.74226

>  <SCORE.INTRA.DIHEDRAL>
-2.31505

>  <SCORE.INTRA.DIHEDRAL.0>
9.29433

>  <SCORE.INTRA.POLAR>
0

>  <SCORE.INTRA.POLAR.0>
0

>  <SCORE.INTRA.REPUL>
0

>  <SCORE.INTRA.REPUL.0>
0

>  <SCORE.INTRA.SOLV>
-0.95797

>  <SCORE.INTRA.SOLV.lig_0>
-48.5102

>  <SCORE.INTRA.VDW>
-3.10575

>  <SCORE.INTRA.VDW.0>
0.379549

>  <SCORE.INTRA.norm>
-0.175639

>  <SCORE.RESTR>
0

>  <SCORE.RESTR.CAVITY>
0

>  <SCORE.RESTR.norm>
0

>  <SCORE.SYSTEM>
0

>  <SCORE.SYSTEM.CONST>
0

>  <SCORE.SYSTEM.DIHEDRAL>
0

>  <SCORE.SYSTEM.SOLV>
0

>  <SCORE.SYSTEM.norm>
0

>  <SCORE.heavy>
27

>  <SCORE.norm>
-0.716429

>  <RMSD>
4.804

$$$$
ligand
 OpenBabel11021811483D
libRbt.so/2013.1/901 2013/11/27
 27 29  0  0  0  0  0  0  0  0999 V2000
   49.6558   54.0496   25.9235 N   0  0  0  0  0  0  0  0  0  0  0  0
   50.1346   55.0227   26.9042 C   0  0  2  0  0  0  0  0  0  0  0  0
   51.4785   54.5909   27.4158 C   0  0  0  0  0  0  0  0  0  0  0  0
   52.3620   55.4226   27.5949 O   0  0  0  0  0  0  0  0  0  0  0  0
   49.1601   55.1170   28.0775 C   0  0  0  0  0  0  0  0  0  0  0  0
   47.9311   55.8897   27.6344 C   0  0  0  0  0  0  0  0  0  0  0  0
   46.6304   55.9938   28.9050 S   0  0  2  0  0  0  0  0  0  0  0  0
   45.3765   57.0930   28.1827 C   0  0  0  0  0  0  0  0  0  0  0  0
   47.2308   57.3830   30.0424 C   0  0  0  0  0  0  0  0  0  0  0  0
   48.5782   57.1951   30.8581 C   0  0  2  0  0  0  0  0  0  0  0  0
   48.7214   56.0451   31.6607 O   0  0  0  0  0  0  0  0  0  0  0  0
   49.1853   58.3274   31.5851 C   0  0  1  0  0  0  0  0  0  0  0  0
   48.6824   59.5927   31.1543 O   0  0  0  0  0  0  0  0  0  0  0  0
   48.7271   57.8714   33.0505 C   0  0  2  0  0  0  0  0  0  0  0  0
   49.3767   58.6252   34.0297 O   0  0  0  0  0  0  0  0  0  0  0  0
   49.1839   56.4138   33.0383 C   0  0  1  0  0  0  0  0  0  0  0  0
   51.6744   53.4143   27.6919 O   0  0  0  0  0  0  0  0  0  0  0  0
   44.6275   54.5876   34.4651 N   0  0  0  0  0  0  0  0  0  0  0  0
   44.9501   55.6401   33.7086 C   0  0  0  0  0  0  0  0  0  0  0  0
   46.2189   55.9292   33.4352 N   0  0  0  0  0  0  0  0  0  0  0  0
   47.2294   55.2427   33.9918 C   0  0  0  0  0  0  0  0  0  0  0  0
   46.9375   54.1493   34.8478 C   0  0  0  0  0  0  0  0  0  0  0  0
   45.5680   53.8319   35.0654 C   0  0  0  0  0  0  0  0  0  0  0  0
   45.2013   52.7738   35.8722 N   0  0  0  0  0  0  0  0  0  0  0  0
   48.1119   53.6471   35.2679 N   0  0  0  0  0  0  0  0  0  0  0  0
   49.0900   54.3404   34.7493 C   0  0  0  0  0  0  0  0  0  0  0  0
   48.6082   55.3331   33.9427 N   0  0  0  0  0  0  0  0  0  0  0  0
  2  1  1  6  0  0  0
  2  3  1  0  0  0  0
  2  5  1  0  0  0  0
  3  4  1  0  0  0  0
  3 17  1  0  0  0  0
  5  6  1  0  0  0  0
  7  6  1  6  0  0  0
  7  8  1  0  0  0  0
  7  9  1  0  0  0  0
 10  9  1  1  0  0  0
 10 11  1  0  0  0  0
 10 12  1  0  0  0  0
 11 16  1  0  0  0  0
 12 13  1  6  0  0  0
 12 14  1  0  0  0  0
 14 15  1  1  0  0  0
 14 16  1  0  0  0  0
 16 27  1  1  0  0  0
 18 19  2  0  0  0  0
 18 23  1  0  0  0  0
 19 20  1  0  0  0  0
 20 21  2  0  0  0  0
 21 22  1  0  0  0  0
 21 27  1  0  0  0  0
 22 23  2  0  0  0  0
 22 25  1  0  0  0  0
 23 24  1  0  0  0  0
 25 26  2  0  0  0  0
 26 27  1  0  0  0  0
M  END
>  <CHROM.1>
139.32350547,-74.67214010,176.41044155,174.48290284,-64.08716121,-53.27658237
-62.17285302,48.15053471,55.74397909,31.24310013,-0.22098612,-1.13372425
2.94986154

>  <Name>
ligand

>  <RI>
0

>  <Rbt.Current_Directory>
/home/itssahil/PROJECTS/Mol_Feturizer/New_Systems/rnas/3IQR

>  <Rbt.Executable>
rbdock ($Id: //depot/dev/client3/rdock/2013.1/src/exe/rbdock.cxx#4 $)

>  <Rbt.Library>
libRbt.so (2013.1, Build901 2013/11/27)

>  <Rbt.Parameter_File>
/export/apps/rDock/src/rDock_2013.1_src/data/scripts/dock_solv.prm

>  <Rbt.Receptor>
prm/pocket_docking_6.prm

>  <SCORE>
-21.4653

>  <SCORE.INTER>
-15.1567

>  <SCORE.INTER.CONST>
1

>  <SCORE.INTER.POLAR>
0

>  <SCORE.INTER.ROT>
7

>  <SCORE.INTER.SOLV>
13.9867

>  <SCORE.INTER.VDW>
-23.0334

>  <SCORE.INTER.norm>
-0.56136

>  <SCORE.INTRA>
-6.32991

>  <SCORE.INTRA.DIHEDRAL>
-4.21423

>  <SCORE.INTRA.DIHEDRAL.0>
9.29433

>  <SCORE.INTRA.POLAR>
0

>  <SCORE.INTRA.POLAR.0>
0

>  <SCORE.INTRA.REPUL>
0

>  <SCORE.INTRA.REPUL.0>
0

>  <SCORE.INTRA.SOLV>
-1.24214

>  <SCORE.INTRA.SOLV.lig_0>
-48.5102

>  <SCORE.INTRA.VDW>
-3.60173

>  <SCORE.INTRA.VDW.0>
0.379549

>  <SCORE.INTRA.norm>
-0.234441

>  <SCORE.RESTR>
0.0213796

>  <SCORE.RESTR.CAVITY>
0.0213796

>  <SCORE.RESTR.norm>
0.000791836

>  <SCORE.SYSTEM>
0

>  <SCORE.SYSTEM.CONST>
0

>  <SCORE.SYSTEM.DIHEDRAL>
0

>  <SCORE.SYSTEM.SOLV>
0

>  <SCORE.SYSTEM.norm>
0

>  <SCORE.heavy>
27

>  <SCORE.norm>
-0.795009

>  <RMSD>
4.806

$$$$
ligand
 OpenBabel11021811483D
libRbt.so/2013.1/901 2013/11/27
 27 29  0  0  0  0  0  0  0  0999 V2000
   48.6364   54.4351   29.1763 N   0  0  0  0  0  0  0  0  0  0  0  0
   49.2519   53.1581   29.5345 C   0  0  2  0  0  0  0  0  0  0  0  0
   48.2966   52.0425   29.2233 C   0  0  0  0  0  0  0  0  0  0  0  0
   47.0892   52.2161   29.3516 O   0  0  0  0  0  0  0  0  0  0  0  0
   49.5847   53.1294   31.0257 C   0  0  0  0  0  0  0  0  0  0  0  0
   48.3217   53.4175   31.8167 C   0  0  0  0  0  0  0  0  0  0  0  0
   48.5707   53.4303   33.6207 S   0  0  2  0  0  0  0  0  0  0  0  0
   46.8906   53.4836   34.3110 C   0  0  0  0  0  0  0  0  0  0  0  0
   48.8216   55.2634   34.0215 C   0  0  0  0  0  0  0  0  0  0  0  0
   47.7185   56.3154   33.5825 C   0  0  2  0  0  0  0  0  0  0  0  0
   46.7830   55.9350   32.5989 O   0  0  0  0  0  0  0  0  0  0  0  0
   48.0751   57.7271   33.3396 C   0  0  1  0  0  0  0  0  0  0  0  0
   49.3369   58.0825   33.9062 O   0  0  0  0  0  0  0  0  0  0  0  0
   48.0393   57.6529   31.7401 C   0  0  2  0  0  0  0  0  0  0  0  0
   48.0917   58.9321   31.1834 O   0  0  0  0  0  0  0  0  0  0  0  0
   46.6846   56.9797   31.5281 C   0  0  1  0  0  0  0  0  0  0  0  0
   48.7247   50.9754   28.8025 O   0  0  0  0  0  0  0  0  0  0  0  0
   47.5559   57.1244   26.4931 N   0  0  0  0  0  0  0  0  0  0  0  0
   47.9109   57.9670   27.4668 C   0  0  0  0  0  0  0  0  0  0  0  0
   47.5978   57.7244   28.7362 N   0  0  0  0  0  0  0  0  0  0  0  0
   46.8239   56.6828   29.0800 C   0  0  0  0  0  0  0  0  0  0  0  0
   46.3750   55.7892   28.0734 C   0  0  0  0  0  0  0  0  0  0  0  0
   46.7834   56.0470   26.7354 C   0  0  0  0  0  0  0  0  0  0  0  0
   46.4019   55.2164   25.7012 N   0  0  0  0  0  0  0  0  0  0  0  0
   45.6241   54.8520   28.6781 N   0  0  0  0  0  0  0  0  0  0  0  0
   45.5715   55.0992   29.9597 C   0  0  0  0  0  0  0  0  0  0  0  0
   46.3027   56.2114   30.2707 N   0  0  0  0  0  0  0  0  0  0  0  0
  2  1  1  1  0  0  0
  2  3  1  0  0  0  0
  2  5  1  0  0  0  0
  3  4  1  0  0  0  0
  3 17  1  0  0  0  0
  5  6  1  0  0  0  0
  7  6  1  6  0  0  0
  7  8  1  0  0  0  0
  7  9  1  0  0  0  0
 10  9  1  6  0  0  0
 10 11  1  0  0  0  0
 10 12  1  0  0  0  0
 11 16  1  0  0  0  0
 12 13  1  6  0  0  0
 12 14  1  0  0  0  0
 14 15  1  6  0  0  0
 14 16  1  0  0  0  0
 16 27  1  6  0  0  0
 18 19  2  0  0  0  0
 18 23  1  0  0  0  0
 19 20  1  0  0  0  0
 20 21  2  0  0  0  0
 21 22  1  0  0  0  0
 21 27  1  0  0  0  0
 22 23  2  0  0  0  0
 22 25  1  0  0  0  0
 23 24  1  0  0  0  0
 25 26  2  0  0  0  0
 26 27  1  0  0  0  0
M  END
>  <CHROM.1>
-34.06454037,55.64256188,-179.48929348,-169.83882757,55.46969026,-17.49479769
-145.60148629,47.69254333,55.28396635,30.59000383,-2.60490425,-1.34779318
0.57504757

>  <Name>
ligand

>  <RI>
0

>  <Rbt.Current_Directory>
/home/itssahil/PROJECTS/Mol_Feturizer/New_Systems/rnas/3IQR

>  <Rbt.Executable>
rbdock ($Id: //depot/dev/client3/rdock/2013.1/src/exe/rbdock.cxx#4 $)

>  <Rbt.Library>
libRbt.so (2013.1, Build901 2013/11/27)

>  <Rbt.Parameter_File>
/export/apps/rDock/src/rDock_2013.1_src/data/scripts/dock_solv.prm

>  <Rbt.Receptor>
prm/pocket_docking_3.prm

>  <SCORE>
-13.7231

>  <SCORE.INTER>
-11.3742

>  <SCORE.INTER.CONST>
1

>  <SCORE.INTER.POLAR>
0

>  <SCORE.INTER.ROT>
7

>  <SCORE.INTER.SOLV>
12.9669

>  <SCORE.INTER.VDW>
-20.1717

>  <SCORE.INTER.norm>
-0.421266

>  <SCORE.INTRA>
-2.34896

>  <SCORE.INTRA.DIHEDRAL>
-0.566307

>  <SCORE.INTRA.DIHEDRAL.0>
9.29433

>  <SCORE.INTRA.POLAR>
0

>  <SCORE.INTRA.POLAR.0>
0

>  <SCORE.INTRA.REPUL>
0

>  <SCORE.INTRA.REPUL.0>
0

>  <SCORE.INTRA.SOLV>
3.35675

>  <SCORE.INTRA.SOLV.lig_0>
-48.5102

>  <SCORE.INTRA.VDW>
-3.74418

>  <SCORE.INTRA.VDW.0>
0.379549

>  <SCORE.INTRA.norm>
-0.0869985

>  <SCORE.RESTR>
0

>  <SCORE.RESTR.CAVITY>
0

>  <SCORE.RESTR.norm>
0

>  <SCORE.SYSTEM>
0

>  <SCORE.SYSTEM.CONST>
0

>  <SCORE.SYSTEM.DIHEDRAL>
0

>  <SCORE.SYSTEM.SOLV>
0

>  <SCORE.SYSTEM.norm>
0

>  <SCORE.heavy>
27

>  <SCORE.norm>
-0.508264

>  <RMSD>
4.813

$$$$
ligand
 OpenBabel11021811483D
libRbt.so/2013.1/901 2013/11/27
 27 29  0  0  0  0  0  0  0  0999 V2000
   48.9687   54.2279   26.2474 N   0  0  0  0  0  0  0  0  0  0  0  0
   49.5254   55.1683   27.2188 C   0  0  2  0  0  0  0  0  0  0  0  0
   50.8255   54.6295   27.7418 C   0  0  0  0  0  0  0  0  0  0  0  0
   51.8014   55.3668   27.8341 O   0  0  0  0  0  0  0  0  0  0  0  0
   48.5582   55.3598   28.3863 C   0  0  0  0  0  0  0  0  0  0  0  0
   47.3591   56.1565   27.9052 C   0  0  0  0  0  0  0  0  0  0  0  0
   46.0990   56.4365   29.1899 S   0  0  2  0  0  0  0  0  0  0  0  0
   44.9750   57.6660   28.4638 C   0  0  0  0  0  0  0  0  0  0  0  0
   46.8776   57.7623   30.2944 C   0  0  0  0  0  0  0  0  0  0  0  0
   48.3029   57.5007   30.9398 C   0  0  2  0  0  0  0  0  0  0  0  0
   48.5042   56.3048   31.6586 O   0  0  0  0  0  0  0  0  0  0  0  0
   49.0189   58.5775   31.6518 C   0  0  1  0  0  0  0  0  0  0  0  0
   48.5054   59.8752   31.3490 O   0  0  0  0  0  0  0  0  0  0  0  0
   48.7168   58.0501   33.1336 C   0  0  2  0  0  0  0  0  0  0  0  0
   49.4931   58.7342   34.0708 O   0  0  0  0  0  0  0  0  0  0  0  0
   49.1292   56.5862   32.9920 C   0  0  1  0  0  0  0  0  0  0  0  0
   50.8952   53.4651   28.1136 O   0  0  0  0  0  0  0  0  0  0  0  0
   44.7042   54.5352   34.5231 N   0  0  0  0  0  0  0  0  0  0  0  0
   44.9564   55.6107   33.7722 C   0  0  0  0  0  0  0  0  0  0  0  0
   46.2022   55.9612   33.4667 N   0  0  0  0  0  0  0  0  0  0  0  0
   47.2587   55.3149   33.9848 C   0  0  0  0  0  0  0  0  0  0  0  0
   47.0419   54.1988   34.8336 C   0  0  0  0  0  0  0  0  0  0  0  0
   45.6953   53.8161   35.0860 C   0  0  0  0  0  0  0  0  0  0  0  0
   45.4008   52.7324   35.8883 N   0  0  0  0  0  0  0  0  0  0  0  0
   48.2497   53.7458   35.2132 N   0  0  0  0  0  0  0  0  0  0  0  0
   49.1797   54.4897   34.6764 C   0  0  0  0  0  0  0  0  0  0  0  0
   48.6299   55.4691   33.8976 N   0  0  0  0  0  0  0  0  0  0  0  0
  2  1  1  6  0  0  0
  2  3  1  0  0  0  0
  2  5  1  0  0  0  0
  3  4  1  0  0  0  0
  3 17  1  0  0  0  0
  5  6  1  0  0  0  0
  7  6  1  6  0  0  0
  7  8  1  0  0  0  0
  7  9  1  0  0  0  0
 10  9  1  1  0  0  0
 10 11  1  0  0  0  0
 10 12  1  0  0  0  0
 11 16  1  0  0  0  0
 12 13  1  1  0  0  0
 12 14  1  0  0  0  0
 14 15  1  1  0  0  0
 14 16  1  0  0  0  0
 16 27  1  1  0  0  0
 18 19  2  0  0  0  0
 18 23  1  0  0  0  0
 19 20  1  0  0  0  0
 20 21  2  0  0  0  0
 21 22  1  0  0  0  0
 21 27  1  0  0  0  0
 22 23  2  0  0  0  0
 22 25  1  0  0  0  0
 23 24  1  0  0  0  0
 25 26  2  0  0  0  0
 26 27  1  0  0  0  0
M  END
>  <CHROM.1>
134.63751622,-71.18936723,178.88823538,168.95632968,-55.84151062,-52.00720446
-55.42819615,47.91430729,55.91666654,31.38210034,-0.77990263,-1.08430931
2.39416985

>  <Name>
ligand

>  <RI>
0

>  <Rbt.Current_Directory>
/home/itssahil/PROJECTS/Mol_Feturizer/New_Systems/rnas/3IQR

>  <Rbt.Executable>
rbdock ($Id: //depot/dev/client3/rdock/2013.1/src/exe/rbdock.cxx#4 $)

>  <Rbt.Library>
libRbt.so (2013.1, Build901 2013/11/27)

>  <Rbt.Parameter_File>
/export/apps/rDock/src/rDock_2013.1_src/data/scripts/dock_solv.prm

>  <Rbt.Receptor>
prm/pocket_docking_7.prm

>  <SCORE>
-20.4882

>  <SCORE.INTER>
-14.364

>  <SCORE.INTER.CONST>
1

>  <SCORE.INTER.POLAR>
0

>  <SCORE.INTER.ROT>
7

>  <SCORE.INTER.SOLV>
13.5639

>  <SCORE.INTER.VDW>
-22.364

>  <SCORE.INTER.norm>
-0.532001

>  <SCORE.INTRA>
-6.32556

>  <SCORE.INTRA.DIHEDRAL>
-4.26597

>  <SCORE.INTRA.DIHEDRAL.0>
9.29433

>  <SCORE.INTRA.POLAR>
0

>  <SCORE.INTRA.POLAR.0>
0

>  <SCORE.INTRA.REPUL>
0

>  <SCORE.INTRA.REPUL.0>
0

>  <SCORE.INTRA.SOLV>
-1.15629

>  <SCORE.INTRA.SOLV.lig_0>
-48.5102

>  <SCORE.INTRA.VDW>
-3.61443

>  <SCORE.INTRA.VDW.0>
0.379549

>  <SCORE.INTRA.norm>
-0.23428

>  <SCORE.RESTR>
0.201403

>  <SCORE.RESTR.CAVITY>
0.201403

>  <SCORE.RESTR.norm>
0.00745935

>  <SCORE.SYSTEM>
0

>  <SCORE.SYSTEM.CONST>
0

>  <SCORE.SYSTEM.DIHEDRAL>
0

>  <SCORE.SYSTEM.SOLV>
0

>  <SCORE.SYSTEM.norm>
0

>  <SCORE.heavy>
27

>  <SCORE.norm>
-0.758822

>  <RMSD>
4.820

$$$$
ligand
 OpenBabel11021811483D
libRbt.so/2013.1/901 2013/11/27
 27 29  0  0  0  0  0  0  0  0999 V2000
   45.8314   54.4646   32.5941 N   0  0  0  0  0  0  0  0  0  0  0  0
   46.2021   54.8145   31.2237 C   0  0  2  0  0  0  0  0  0  0  0  0
   45.2399   55.8391   30.6959 C   0  0  0  0  0  0  0  0  0  0  0  0
   45.6535   56.7819   30.0293 O   0  0  0  0  0  0  0  0  0  0  0  0
   46.1545   53.5768   30.3287 C   0  0  0  0  0  0  0  0  0  0  0  0
   46.6090   53.9621   28.9327 C   0  0  0  0  0  0  0  0  0  0  0  0
   46.8942   52.5386   27.8332 S   0  0  2  0  0  0  0  0  0  0  0  0
   48.5165   51.8932   28.3367 C   0  0  0  0  0  0  0  0  0  0  0  0
   47.6557   53.3185   26.2853 C   0  0  0  0  0  0  0  0  0  0  0  0
   48.6044   54.5810   26.4348 C   0  0  2  0  0  0  0  0  0  0  0  0
   49.3196   54.7435   27.6387 O   0  0  0  0  0  0  0  0  0  0  0  0
   48.1582   55.9175   25.9946 C   0  0  1  0  0  0  0  0  0  0  0  0
   47.0360   55.8617   25.1131 O   0  0  0  0  0  0  0  0  0  0  0  0
   47.8532   56.4994   27.4553 C   0  0  2  0  0  0  0  0  0  0  0  0
   47.6412   57.8784   27.4050 O   0  0  0  0  0  0  0  0  0  0  0  0
   49.1523   56.1349   28.1714 C   0  0  1  0  0  0  0  0  0  0  0  0
   44.0397   55.7069   30.8984 O   0  0  0  0  0  0  0  0  0  0  0  0
   48.5047   58.9413   32.3946 N   0  0  0  0  0  0  0  0  0  0  0  0
   48.4334   59.2749   31.1033 C   0  0  0  0  0  0  0  0  0  0  0  0
   48.6145   58.3694   30.1465 N   0  0  0  0  0  0  0  0  0  0  0  0
   48.9801   57.1101   30.4341 C   0  0  0  0  0  0  0  0  0  0  0  0
   49.1232   56.7214   31.7912 C   0  0  0  0  0  0  0  0  0  0  0  0
   48.8593   57.7019   32.7875 C   0  0  0  0  0  0  0  0  0  0  0  0
   48.9611   57.3989   34.1301 N   0  0  0  0  0  0  0  0  0  0  0  0
   49.4963   55.4296   31.7989 N   0  0  0  0  0  0  0  0  0  0  0  0
   49.5984   55.0008   30.5692 C   0  0  0  0  0  0  0  0  0  0  0  0
   49.2811   55.9902   29.6812 N   0  0  0  0  0  0  0  0  0  0  0  0
  2  1  1  1  0  0  0
  2  3  1  0  0  0  0
  2  5  1  0  0  0  0
  3  4  1  0  0  0  0
  3 17  1  0  0  0  0
  5  6  1  0  0  0  0
  7  6  1  1  0  0  0
  7  8  1  0  0  0  0
  7  9  1  0  0  0  0
 10  9  1  1  0  0  0
 10 11  1  0  0  0  0
 10 12  1  0  0  0  0
 11 16  1  0  0  0  0
 12 13  1  6  0  0  0
 12 14  1  0  0  0  0
 14 15  1  6  0  0  0
 14 16  1  0  0  0  0
 16 27  1  1  0  0  0
 18 19  2  0  0  0  0
 18 23  1  0  0  0  0
 19 20  1  0  0  0  0
 20 21  2  0  0  0  0
 21 22  1  0  0  0  0
 21 27  1  0  0  0  0
 22 23  2  0  0  0  0
 22 25  1  0  0  0  0
 23 24  1  0  0  0  0
 25 26  2  0  0  0  0
 26 27  1  0  0  0  0
M  END
>  <CHROM.1>
138.65342446,-177.27547512,169.50027959,-78.36246823,34.14857758,27.35997269
-171.31608997,47.70602807,55.61093266,29.48770563,1.40079765,0.97051840,1.12796595

>  <Name>
ligand

>  <RI>
0

>  <Rbt.Current_Directory>
/home/itssahil/PROJECTS/Mol_Feturizer/New_Systems/rnas/3IQR

>  <Rbt.Executable>
rbdock ($Id: //depot/dev/client3/rdock/2013.1/src/exe/rbdock.cxx#4 $)

>  <Rbt.Library>
libRbt.so (2013.1, Build901 2013/11/27)

>  <Rbt.Parameter_File>
/export/apps/rDock/src/rDock_2013.1_src/data/scripts/dock_solv.prm

>  <Rbt.Receptor>
prm/pocket_docking_3.prm

>  <SCORE>
-14.5645

>  <SCORE.INTER>
-7.28049

>  <SCORE.INTER.CONST>
1

>  <SCORE.INTER.POLAR>
0

>  <SCORE.INTER.ROT>
7

>  <SCORE.INTER.SOLV>
16.4807

>  <SCORE.INTER.VDW>
-18.6139

>  <SCORE.INTER.norm>
-0.269648

>  <SCORE.INTRA>
-7.30452

>  <SCORE.INTRA.DIHEDRAL>
-1.70118

>  <SCORE.INTRA.DIHEDRAL.0>
9.29433

>  <SCORE.INTRA.POLAR>
0

>  <SCORE.INTRA.POLAR.0>
0

>  <SCORE.INTRA.REPUL>
0

>  <SCORE.INTRA.REPUL.0>
0

>  <SCORE.INTRA.SOLV>
-1.04443

>  <SCORE.INTRA.SOLV.lig_0>
-48.5102

>  <SCORE.INTRA.VDW>
-5.93171

>  <SCORE.INTRA.VDW.0>
0.379549

>  <SCORE.INTRA.norm>
-0.270538

>  <SCORE.RESTR>
0.0205197

>  <SCORE.RESTR.CAVITY>
0.0205197

>  <SCORE.RESTR.norm>
0.000759989

>  <SCORE.SYSTEM>
0

>  <SCORE.SYSTEM.CONST>
0

>  <SCORE.SYSTEM.DIHEDRAL>
0

>  <SCORE.SYSTEM.SOLV>
0

>  <SCORE.SYSTEM.norm>
0

>  <SCORE.heavy>
27

>  <SCORE.norm>
-0.539425

>  <RMSD>
4.831

$$$$
ligand
 OpenBabel11021811483D
libRbt.so/2013.1/901 2013/11/27
 27 29  0  0  0  0  0  0  0  0999 V2000
   49.1889   50.3199   25.2395 N   0  0  0  0  0  0  0  0  0  0  0  0
   48.6798   51.5608   25.8217 C   0  0  2  0  0  0  0  0  0  0  0  0
   48.5067   52.5835   24.7363 C   0  0  0  0  0  0  0  0  0  0  0  0
   49.3493   52.6859   23.8510 O   0  0  0  0  0  0  0  0  0  0  0  0
   49.6596   52.0990   26.8636 C   0  0  0  0  0  0  0  0  0  0  0  0
   49.0479   53.3180   27.5297 C   0  0  0  0  0  0  0  0  0  0  0  0
   50.0823   54.0326   28.8474 S   0  0  2  0  0  0  0  0  0  0  0  0
   49.8162   52.9416   30.2761 C   0  0  0  0  0  0  0  0  0  0  0  0
   48.9691   55.3560   29.6176 C   0  0  0  0  0  0  0  0  0  0  0  0
   49.4894   56.1807   30.8687 C   0  0  2  0  0  0  0  0  0  0  0  0
   49.6055   55.5179   32.1074 O   0  0  0  0  0  0  0  0  0  0  0  0
   48.9907   57.5444   31.1350 C   0  0  1  0  0  0  0  0  0  0  0  0
   48.3596   58.1329   29.9971 O   0  0  0  0  0  0  0  0  0  0  0  0
   48.0069   57.1487   32.3354 C   0  0  2  0  0  0  0  0  0  0  0  0
   47.5503   58.2894   32.9982 O   0  0  0  0  0  0  0  0  0  0  0  0
   48.9504   56.3120   33.1974 C   0  0  1  0  0  0  0  0  0  0  0  0
   47.5029   53.2843   24.7161 O   0  0  0  0  0  0  0  0  0  0  0  0
   44.6069   54.1274   34.7761 N   0  0  0  0  0  0  0  0  0  0  0  0
   44.8213   55.1246   33.9137 C   0  0  0  0  0  0  0  0  0  0  0  0
   46.0536   55.5294   33.6208 N   0  0  0  0  0  0  0  0  0  0  0  0
   47.1250   55.0280   34.2556 C   0  0  0  0  0  0  0  0  0  0  0  0
   46.9438   54.0044   35.2214 C   0  0  0  0  0  0  0  0  0  0  0  0
   45.6159   53.5541   35.4611 C   0  0  0  0  0  0  0  0  0  0  0  0
   45.3573   52.5514   36.3736 N   0  0  0  0  0  0  0  0  0  0  0  0
   48.1595   53.6897   35.7020 N   0  0  0  0  0  0  0  0  0  0  0  0
   49.0615   54.4339   35.1198 C   0  0  0  0  0  0  0  0  0  0  0  0
   48.4849   55.2730   34.2078 N   0  0  0  0  0  0  0  0  0  0  0  0
  2  1  1  6  0  0  0
  2  3  1  0  0  0  0
  2  5  1  0  0  0  0
  3  4  1  0  0  0  0
  3 17  1  0  0  0  0
  5  6  1  0  0  0  0
  7  6  1  6  0  0  0
  7  8  1  0  0  0  0
  7  9  1  0  0  0  0
 10  9  1  6  0  0  0
 10 11  1  0  0  0  0
 10 12  1  0  0  0  0
 11 16  1  0  0  0  0
 12 13  1  6  0  0  0
 12 14  1  0  0  0  0
 14 15  1  1  0  0  0
 14 16  1  0  0  0  0
 16 27  1  1  0  0  0
 18 19  2  0  0  0  0
 18 23  1  0  0  0  0
 19 20  1  0  0  0  0
 20 21  2  0  0  0  0
 21 22  1  0  0  0  0
 21 27  1  0  0  0  0
 22 23  2  0  0  0  0
 22 25  1  0  0  0  0
 23 24  1  0  0  0  0
 25 26  2  0  0  0  0
 26 27  1  0  0  0  0
M  END
>  <CHROM.1>
-40.60408536,-175.24602941,177.75872375,-78.33556728,177.27399263,-70.69114807
-106.62607718,48.20446150,54.46612563,30.84364689,1.01881543,-1.11679117
-2.33772123

>  <Name>
ligand

>  <RI>
0

>  <Rbt.Current_Directory>
/home/itssahil/PROJECTS/Mol_Feturizer/New_Systems/rnas/3IQR

>  <Rbt.Executable>
rbdock ($Id: //depot/dev/client3/rdock/2013.1/src/exe/rbdock.cxx#4 $)

>  <Rbt.Library>
libRbt.so (2013.1, Build901 2013/11/27)

>  <Rbt.Parameter_File>
/export/apps/rDock/src/rDock_2013.1_src/data/scripts/dock_solv.prm

>  <Rbt.Receptor>
prm/pocket_docking_8.prm

>  <SCORE>
-18.1656

>  <SCORE.INTER>
-12.7476

>  <SCORE.INTER.CONST>
1

>  <SCORE.INTER.POLAR>
0

>  <SCORE.INTER.ROT>
7

>  <SCORE.INTER.SOLV>
16.9263

>  <SCORE.INTER.VDW>
-22.4072

>  <SCORE.INTER.norm>
-0.472135

>  <SCORE.INTRA>
-5.42351

>  <SCORE.INTRA.DIHEDRAL>
-4.78627

>  <SCORE.INTRA.DIHEDRAL.0>
9.29433

>  <SCORE.INTRA.POLAR>
0

>  <SCORE.INTRA.POLAR.0>
0

>  <SCORE.INTRA.REPUL>
0

>  <SCORE.INTRA.REPUL.0>
0

>  <SCORE.INTRA.SOLV>
-1.76027

>  <SCORE.INTRA.SOLV.lig_0>
-48.5102

>  <SCORE.INTRA.VDW>
-2.15024

>  <SCORE.INTRA.VDW.0>
0.379549

>  <SCORE.INTRA.norm>
-0.200871

>  <SCORE.RESTR>
0.0055047

>  <SCORE.RESTR.CAVITY>
0.0055047

>  <SCORE.RESTR.norm>
0.000203878

>  <SCORE.SYSTEM>
0

>  <SCORE.SYSTEM.CONST>
0

>  <SCORE.SYSTEM.DIHEDRAL>
0

>  <SCORE.SYSTEM.SOLV>
0

>  <SCORE.SYSTEM.norm>
0

>  <SCORE.heavy>
27

>  <SCORE.norm>
-0.672801

>  <RMSD>
4.857

$$$$
ligand
 OpenBabel11021811483D
libRbt.so/2013.1/901 2013/11/27
 27 29  0  0  0  0  0  0  0  0999 V2000
   47.0745   55.8482   32.1211 N   0  0  0  0  0  0  0  0  0  0  0  0
   46.5331   54.5009   32.2934 C   0  0  2  0  0  0  0  0  0  0  0  0
   47.4407   53.7129   33.1930 C   0  0  0  0  0  0  0  0  0  0  0  0
   48.1024   54.2874   34.0512 O   0  0  0  0  0  0  0  0  0  0  0  0
   46.4311   53.7935   30.9427 C   0  0  0  0  0  0  0  0  0  0  0  0
   47.8294   53.5861   30.3899 C   0  0  0  0  0  0  0  0  0  0  0  0
   47.8587   52.9271   28.6924 S   0  0  2  0  0  0  0  0  0  0  0  0
   48.4328   51.2133   28.8800 C   0  0  0  0  0  0  0  0  0  0  0  0
   49.5570   53.4523   28.0413 C   0  0  0  0  0  0  0  0  0  0  0  0
   49.7408   54.9014   27.4230 C   0  0  2  0  0  0  0  0  0  0  0  0
   49.8236   56.0002   28.3023 O   0  0  0  0  0  0  0  0  0  0  0  0
   48.9553   55.3264   26.2475 C   0  0  1  0  0  0  0  0  0  0  0  0
   48.3733   54.2268   25.5463 O   0  0  0  0  0  0  0  0  0  0  0  0
   47.9215   56.2552   27.0437 C   0  0  2  0  0  0  0  0  0  0  0  0
   47.1695   57.0305   26.1593 O   0  0  0  0  0  0  0  0  0  0  0  0
   48.8912   57.0935   27.8745 C   0  0  1  0  0  0  0  0  0  0  0  0
   47.4858   52.4934   33.0935 O   0  0  0  0  0  0  0  0  0  0  0  0
   44.8600   59.4602   29.9430 N   0  0  0  0  0  0  0  0  0  0  0  0
   45.0476   58.9607   28.7185 C   0  0  0  0  0  0  0  0  0  0  0  0
   46.1830   58.3520   28.3890 N   0  0  0  0  0  0  0  0  0  0  0  0
   47.2248   58.3074   29.2346 C   0  0  0  0  0  0  0  0  0  0  0  0
   47.0933   58.8739   30.5288 C   0  0  0  0  0  0  0  0  0  0  0  0
   45.8418   59.4601   30.8661 C   0  0  0  0  0  0  0  0  0  0  0  0
   45.6286   60.0185   32.1102 N   0  0  0  0  0  0  0  0  0  0  0  0
   48.2672   58.7007   31.1612 N   0  0  0  0  0  0  0  0  0  0  0  0
   49.1012   58.0857   30.3658 C   0  0  0  0  0  0  0  0  0  0  0  0
   48.5115   57.8062   29.1649 N   0  0  0  0  0  0  0  0  0  0  0  0
  2  1  1  6  0  0  0
  2  3  1  0  0  0  0
  2  5  1  0  0  0  0
  3  4  1  0  0  0  0
  3 17  1  0  0  0  0
  5  6  1  0  0  0  0
  7  6  1  1  0  0  0
  7  8  1  0  0  0  0
  7  9  1  0  0  0  0
 10  9  1  1  0  0  0
 10 11  1  0  0  0  0
 10 12  1  0  0  0  0
 11 16  1  0  0  0  0
 12 13  1  1  0  0  0
 12 14  1  0  0  0  0
 14 15  1  6  0  0  0
 14 16  1  0  0  0  0
 16 27  1  1  0  0  0
 18 19  2  0  0  0  0
 18 23  1  0  0  0  0
 19 20  1  0  0  0  0
 20 21  2  0  0  0  0
 21 22  1  0  0  0  0
 21 27  1  0  0  0  0
 22 23  2  0  0  0  0
 22 25  1  0  0  0  0
 23 24  1  0  0  0  0
 25 26  2  0  0  0  0
 26 27  1  0  0  0  0
M  END
>  <CHROM.1>
29.17729278,65.31798881,-173.24052953,-108.51865221,-84.53624636,76.45676010
-145.69202470,47.64520872,55.85702050,29.59929991,2.58437291,1.20921481,-0.83808802

>  <Name>
ligand

>  <RI>
0

>  <Rbt.Current_Directory>
/home/itssahil/PROJECTS/Mol_Feturizer/New_Systems/rnas/3IQR

>  <Rbt.Executable>
rbdock ($Id: //depot/dev/client3/rdock/2013.1/src/exe/rbdock.cxx#4 $)

>  <Rbt.Library>
libRbt.so (2013.1, Build901 2013/11/27)

>  <Rbt.Parameter_File>
/export/apps/rDock/src/rDock_2013.1_src/data/scripts/dock_solv.prm

>  <Rbt.Receptor>
prm/pocket_docking_2.prm

>  <SCORE>
2.27829

>  <SCORE.INTER>
2.09258

>  <SCORE.INTER.CONST>
1

>  <SCORE.INTER.POLAR>
0

>  <SCORE.INTER.ROT>
7

>  <SCORE.INTER.SOLV>
15.6285

>  <SCORE.INTER.VDW>
-12.0811

>  <SCORE.INTER.norm>
0.077503

>  <SCORE.INTRA>
-2.7455

>  <SCORE.INTRA.DIHEDRAL>
-1.0333

>  <SCORE.INTRA.DIHEDRAL.0>
9.29433

>  <SCORE.INTRA.POLAR>
0

>  <SCORE.INTRA.POLAR.0>
0

>  <SCORE.INTRA.REPUL>
0

>  <SCORE.INTRA.REPUL.0>
0

>  <SCORE.INTRA.SOLV>
0.535029

>  <SCORE.INTRA.SOLV.lig_0>
-48.5102

>  <SCORE.INTRA.VDW>
-2.49636

>  <SCORE.INTRA.VDW.0>
0.379549

>  <SCORE.INTRA.norm>
-0.101685

>  <SCORE.RESTR>
2.93121

>  <SCORE.RESTR.CAVITY>
2.93121

>  <SCORE.RESTR.norm>
0.108563

>  <SCORE.SYSTEM>
0

>  <SCORE.SYSTEM.CONST>
0

>  <SCORE.SYSTEM.DIHEDRAL>
0

>  <SCORE.SYSTEM.SOLV>
0

>  <SCORE.SYSTEM.norm>
0

>  <SCORE.heavy>
27

>  <SCORE.norm>
0.0843812

>  <RMSD>
4.862

$$$$
ligand
 OpenBabel11021811483D
libRbt.so/2013.1/901 2013/11/27
 27 29  0  0  0  0  0  0  0  0999 V2000
   46.9443   58.4189   29.4330 N   0  0  0  0  0  0  0  0  0  0  0  0
   48.0868   57.7702   28.7915 C   0  0  2  0  0  0  0  0  0  0  0  0
   47.7045   57.3545   27.4004 C   0  0  0  0  0  0  0  0  0  0  0  0
   46.6925   57.8126   26.8804 O   0  0  0  0  0  0  0  0  0  0  0  0
   48.5086   56.5337   29.5842 C   0  0  0  0  0  0  0  0  0  0  0  0
   49.1453   56.9795   30.8880 C   0  0  0  0  0  0  0  0  0  0  0  0
   47.9541   57.6252   32.1049 S   0  0  2  0  0  0  0  0  0  0  0  0
   48.9048   58.8322   33.0752 C   0  0  0  0  0  0  0  0  0  0  0  0
   48.0455   56.3743   33.5229 C   0  0  0  0  0  0  0  0  0  0  0  0
   47.6745   54.8566   33.2487 C   0  0  2  0  0  0  0  0  0  0  0  0
   46.3276   54.5321   32.9879 O   0  0  0  0  0  0  0  0  0  0  0  0
   48.2422   53.7778   34.0812 C   0  0  1  0  0  0  0  0  0  0  0  0
   49.3878   54.1984   34.8229 O   0  0  0  0  0  0  0  0  0  0  0  0
   46.9254   53.5052   34.9513 C   0  0  2  0  0  0  0  0  0  0  0  0
   47.0562   52.3296   35.6928 O   0  0  0  0  0  0  0  0  0  0  0  0
   45.8846   53.3810   33.8402 C   0  0  1  0  0  0  0  0  0  0  0  0
   48.4278   56.5906   26.7740 O   0  0  0  0  0  0  0  0  0  0  0  0
   41.7513   54.6214   31.1001 N   0  0  0  0  0  0  0  0  0  0  0  0
   43.0418   54.5662   30.7602 C   0  0  0  0  0  0  0  0  0  0  0  0
   43.9693   54.1885   31.6350 N   0  0  0  0  0  0  0  0  0  0  0  0
   43.6641   53.9503   32.9204 C   0  0  0  0  0  0  0  0  0  0  0  0
   42.3134   54.0501   33.3433 C   0  0  0  0  0  0  0  0  0  0  0  0
   41.3413   54.3950   32.3637 C   0  0  0  0  0  0  0  0  0  0  0  0
   40.0045   54.4973   32.6915 N   0  0  0  0  0  0  0  0  0  0  0  0
   42.2855   53.7707   34.6583 N   0  0  0  0  0  0  0  0  0  0  0  0
   43.4978   53.5164   35.0730 C   0  0  0  0  0  0  0  0  0  0  0  0
   44.3920   53.6006   34.0427 N   0  0  0  0  0  0  0  0  0  0  0  0
  2  1  1  1  0  0  0
  2  3  1  0  0  0  0
  2  5  1  0  0  0  0
  3  4  1  0  0  0  0
  3 17  1  0  0  0  0
  5  6  1  0  0  0  0
  7  6  1  6  0  0  0
  7  8  1  0  0  0  0
  7  9  1  0  0  0  0
 10  9  1  1  0  0  0
 10 11  1  0  0  0  0
 10 12  1  0  0  0  0
 11 16  1  0  0  0  0
 12 13  1  1  0  0  0
 12 14  1  0  0  0  0
 14 15  1  6  0  0  0
 14 16  1  0  0  0  0
 16 27  1  1  0  0  0
 18 19  2  0  0  0  0
 18 23  1  0  0  0  0
 19 20  1  0  0  0  0
 20 21  2  0  0  0  0
 21 22  1  0  0  0  0
 21 27  1  0  0  0  0
 22 23  2  0  0  0  0
 22 25  1  0  0  0  0
 23 24  1  0  0  0  0
 25 26  2  0  0  0  0
 26 27  1  0  0  0  0
M  END
>  <CHROM.1>
15.07821208,-70.80278812,73.10803340,-150.66042452,-60.48525743,-69.65476772
44.91578872,46.05797136,55.40171883,32.07705927,0.85424529,-0.25556399,-1.08542636

>  <Name>
ligand

>  <RI>
0

>  <Rbt.Current_Directory>
/home/itssahil/PROJECTS/Mol_Feturizer/New_Systems/rnas/3IQR

>  <Rbt.Executable>
rbdock ($Id: //depot/dev/client3/rdock/2013.1/src/exe/rbdock.cxx#4 $)

>  <Rbt.Library>
libRbt.so (2013.1, Build901 2013/11/27)

>  <Rbt.Parameter_File>
/export/apps/rDock/src/rDock_2013.1_src/data/scripts/dock_solv.prm

>  <Rbt.Receptor>
prm/pocket_docking_8.prm

>  <SCORE>
-16.6408

>  <SCORE.INTER>
-14.152

>  <SCORE.INTER.CONST>
1

>  <SCORE.INTER.POLAR>
0

>  <SCORE.INTER.ROT>
7

>  <SCORE.INTER.SOLV>
12.2487

>  <SCORE.INTER.VDW>
-21.7842

>  <SCORE.INTER.norm>
-0.524148

>  <SCORE.INTRA>
-2.48875

>  <SCORE.INTRA.DIHEDRAL>
-1.00075

>  <SCORE.INTRA.DIHEDRAL.0>
9.29433

>  <SCORE.INTRA.POLAR>
0

>  <SCORE.INTRA.POLAR.0>
0

>  <SCORE.INTRA.REPUL>
0

>  <SCORE.INTRA.REPUL.0>
0

>  <SCORE.INTRA.SOLV>
0.434001

>  <SCORE.INTRA.SOLV.lig_0>
-48.5102

>  <SCORE.INTRA.VDW>
-2.20538

>  <SCORE.INTRA.VDW.0>
0.379549

>  <SCORE.INTRA.norm>
-0.0921759

>  <SCORE.RESTR>
0

>  <SCORE.RESTR.CAVITY>
0

>  <SCORE.RESTR.norm>
0

>  <SCORE.SYSTEM>
0

>  <SCORE.SYSTEM.CONST>
0

>  <SCORE.SYSTEM.DIHEDRAL>
0

>  <SCORE.SYSTEM.SOLV>
0

>  <SCORE.SYSTEM.norm>
0

>  <SCORE.heavy>
27

>  <SCORE.norm>
-0.616324

>  <RMSD>
4.864

$$$$
ligand
 OpenBabel11021811483D
libRbt.so/2013.1/901 2013/11/27
 27 29  0  0  0  0  0  0  0  0999 V2000
   47.1577   52.5535   30.3218 N   0  0  0  0  0  0  0  0  0  0  0  0
   48.3645   53.0955   29.6990 C   0  0  2  0  0  0  0  0  0  0  0  0
   48.8704   52.1255   28.6708 C   0  0  0  0  0  0  0  0  0  0  0  0
   49.4914   52.5350   27.6955 O   0  0  0  0  0  0  0  0  0  0  0  0
   49.4498   53.3193   30.7513 C   0  0  0  0  0  0  0  0  0  0  0  0
   49.0104   54.4364   31.6803 C   0  0  0  0  0  0  0  0  0  0  0  0
   48.6358   53.8801   33.3735 S   0  0  2  0  0  0  0  0  0  0  0  0
   46.8674   53.4637   33.3343 C   0  0  0  0  0  0  0  0  0  0  0  0
   48.2630   55.4897   34.2976 C   0  0  0  0  0  0  0  0  0  0  0  0
   47.4217   56.6253   33.5772 C   0  0  2  0  0  0  0  0  0  0  0  0
   46.5433   56.2528   32.5395 O   0  0  0  0  0  0  0  0  0  0  0  0
   48.0517   57.9040   33.1937 C   0  0  1  0  0  0  0  0  0  0  0  0
   49.2891   58.1335   33.8687 O   0  0  0  0  0  0  0  0  0  0  0  0
   48.1740   57.5862   31.6287 C   0  0  2  0  0  0  0  0  0  0  0  0
   48.5161   58.7362   30.9149 O   0  0  0  0  0  0  0  0  0  0  0  0
   46.7504   57.1181   31.3329 C   0  0  1  0  0  0  0  0  0  0  0  0
   48.6968   50.9242   28.8312 O   0  0  0  0  0  0  0  0  0  0  0  0
   47.3384   56.9853   26.2567 N   0  0  0  0  0  0  0  0  0  0  0  0
   47.6683   57.9207   27.1512 C   0  0  0  0  0  0  0  0  0  0  0  0
   47.4454   57.7414   28.4499 N   0  0  0  0  0  0  0  0  0  0  0  0
   46.7861   56.6644   28.9052 C   0  0  0  0  0  0  0  0  0  0  0  0
   46.3656   55.6680   27.9867 C   0  0  0  0  0  0  0  0  0  0  0  0
   46.6784   55.8657   26.6131 C   0  0  0  0  0  0  0  0  0  0  0  0
   46.3179   54.9358   25.6591 N   0  0  0  0  0  0  0  0  0  0  0  0
   45.7337   54.7148   28.6937 N   0  0  0  0  0  0  0  0  0  0  0  0
   45.7272   55.0453   29.9575 C   0  0  0  0  0  0  0  0  0  0  0  0
   46.3723   56.2345   30.1525 N   0  0  0  0  0  0  0  0  0  0  0  0
  2  1  1  1  0  0  0
  2  3  1  0  0  0  0
  2  5  1  0  0  0  0
  3  4  1  0  0  0  0
  3 17  1  0  0  0  0
  5  6  1  0  0  0  0
  7  6  1  6  0  0  0
  7  8  1  0  0  0  0
  7  9  1  0  0  0  0
 10  9  1  6  0  0  0
 10 11  1  0  0  0  0
 10 12  1  0  0  0  0
 11 16  1  0  0  0  0
 12 13  1  1  0  0  0
 12 14  1  0  0  0  0
 14 15  1  6  0  0  0
 14 16  1  0  0  0  0
 16 27  1  6  0  0  0
 18 19  2  0  0  0  0
 18 23  1  0  0  0  0
 19 20  1  0  0  0  0
 20 21  2  0  0  0  0
 21 22  1  0  0  0  0
 21 27  1  0  0  0  0
 22 23  2  0  0  0  0
 22 25  1  0  0  0  0
 23 24  1  0  0  0  0
 25 26  2  0  0  0  0
 26 27  1  0  0  0  0
M  END
>  <CHROM.1>
151.01202190,-67.53084786,111.60267652,-89.92470639,40.14997827,24.87211546
-164.23814377,47.71355313,55.30984568,30.41435064,-2.10345657,-1.31556083
0.81976591

>  <Name>
ligand

>  <RI>
0

>  <Rbt.Current_Directory>
/home/itssahil/PROJECTS/Mol_Feturizer/New_Systems/rnas/3IQR

>  <Rbt.Executable>
rbdock ($Id: //depot/dev/client3/rdock/2013.1/src/exe/rbdock.cxx#4 $)

>  <Rbt.Library>
libRbt.so (2013.1, Build901 2013/11/27)

>  <Rbt.Parameter_File>
/export/apps/rDock/src/rDock_2013.1_src/data/scripts/dock_solv.prm

>  <Rbt.Receptor>
prm/pocket_docking_3.prm

>  <SCORE>
-11.9771

>  <SCORE.INTER>
-9.82637

>  <SCORE.INTER.CONST>
1

>  <SCORE.INTER.POLAR>
0

>  <SCORE.INTER.ROT>
7

>  <SCORE.INTER.SOLV>
15.0696

>  <SCORE.INTER.VDW>
-19.8408

>  <SCORE.INTER.norm>
-0.36394

>  <SCORE.INTRA>
-2.15069

>  <SCORE.INTRA.DIHEDRAL>
3.73284

>  <SCORE.INTRA.DIHEDRAL.0>
9.29433

>  <SCORE.INTRA.POLAR>
0

>  <SCORE.INTRA.POLAR.0>
0

>  <SCORE.INTRA.REPUL>
0

>  <SCORE.INTRA.REPUL.0>
0

>  <SCORE.INTRA.SOLV>
2.43941

>  <SCORE.INTRA.SOLV.lig_0>
-48.5102

>  <SCORE.INTRA.VDW>
-5.23681

>  <SCORE.INTRA.VDW.0>
0.379549

>  <SCORE.INTRA.norm>
-0.079655

>  <SCORE.RESTR>
0

>  <SCORE.RESTR.CAVITY>
0

>  <SCORE.RESTR.norm>
0

>  <SCORE.SYSTEM>
0

>  <SCORE.SYSTEM.CONST>
0

>  <SCORE.SYSTEM.DIHEDRAL>
0

>  <SCORE.SYSTEM.SOLV>
0

>  <SCORE.SYSTEM.norm>
0

>  <SCORE.heavy>
27

>  <SCORE.norm>
-0.443595

>  <RMSD>
4.883

$$$$
ligand
 OpenBabel11021811483D
libRbt.so/2013.1/901 2013/11/27
 27 29  0  0  0  0  0  0  0  0999 V2000
   46.9498   53.5253   24.9224 N   0  0  0  0  0  0  0  0  0  0  0  0
   47.6919   54.6405   24.3364 C   0  0  2  0  0  0  0  0  0  0  0  0
   49.0343   54.1539   23.8726 C   0  0  0  0  0  0  0  0  0  0  0  0
   49.8135   54.9303   23.3300 O   0  0  0  0  0  0  0  0  0  0  0  0
   47.8918   55.7468   25.3715 C   0  0  0  0  0  0  0  0  0  0  0  0
   48.5843   55.1615   26.5887 C   0  0  0  0  0  0  0  0  0  0  0  0
   49.1242   56.4105   27.7992 S   0  0  2  0  0  0  0  0  0  0  0  0
   49.4222   55.4672   29.3235 C   0  0  0  0  0  0  0  0  0  0  0  0
   47.4986   57.0808   28.5008 C   0  0  0  0  0  0  0  0  0  0  0  0
   47.5370   58.1426   29.6786 C   0  0  2  0  0  0  0  0  0  0  0  0
   48.2570   57.8219   30.8474 O   0  0  0  0  0  0  0  0  0  0  0  0
   46.3141   58.8607   30.0885 C   0  0  1  0  0  0  0  0  0  0  0  0
   45.2807   58.7962   29.1049 O   0  0  0  0  0  0  0  0  0  0  0  0
   46.0436   58.0162   31.4222 C   0  0  2  0  0  0  0  0  0  0  0  0
   45.0619   58.6267   32.2047 O   0  0  0  0  0  0  0  0  0  0  0  0
   47.4261   58.0768   32.0690 C   0  0  1  0  0  0  0  0  0  0  0  0
   49.3628   52.9920   24.0753 O   0  0  0  0  0  0  0  0  0  0  0  0
   45.6810   54.1115   34.7824 N   0  0  0  0  0  0  0  0  0  0  0  0
   45.0475   54.9627   33.9710 C   0  0  0  0  0  0  0  0  0  0  0  0
   45.7061   55.9253   33.3322 N   0  0  0  0  0  0  0  0  0  0  0  0
   47.0107   56.1490   33.5561 C   0  0  0  0  0  0  0  0  0  0  0  0
   47.7159   55.3053   34.4529 C   0  0  0  0  0  0  0  0  0  0  0  0
   46.9908   54.2475   35.0684 C   0  0  0  0  0  0  0  0  0  0  0  0
   47.6078   53.3739   35.9409 N   0  0  0  0  0  0  0  0  0  0  0  0
   48.9858   55.7447   34.4987 N   0  0  0  0  0  0  0  0  0  0  0  0
   49.1138   56.7824   33.7157 C   0  0  0  0  0  0  0  0  0  0  0  0
   47.9303   57.0737   33.0971 N   0  0  0  0  0  0  0  0  0  0  0  0
  2  1  1  1  0  0  0
  2  3  1  0  0  0  0
  2  5  1  0  0  0  0
  3  4  1  0  0  0  0
  3 17  1  0  0  0  0
  5  6  1  0  0  0  0
  7  6  1  6  0  0  0
  7  8  1  0  0  0  0
  7  9  1  0  0  0  0
 10  9  1  1  0  0  0
 10 11  1  0  0  0  0
 10 12  1  0  0  0  0
 11 16  1  0  0  0  0
 12 13  1  6  0  0  0
 12 14  1  0  0  0  0
 14 15  1  1  0  0  0
 14 16  1  0  0  0  0
 16 27  1  1  0  0  0
 18 19  2  0  0  0  0
 18 23  1  0  0  0  0
 19 20  1  0  0  0  0
 20 21  2  0  0  0  0
 21 22  1  0  0  0  0
 21 27  1  0  0  0  0
 22 23  2  0  0  0  0
 22 25  1  0  0  0  0
 23 24  1  0  0  0  0
 25 26  2  0  0  0  0
 26 27  1  0  0  0  0
M  END
>  <CHROM.1>
178.97262099,55.98408797,170.93085990,162.92090602,175.93145927,-54.43994305
-118.41747240,47.60932913,56.04117722,29.98744976,-1.07100091,-1.17018592
1.91910823

>  <Name>
ligand

>  <RI>
0

>  <Rbt.Current_Directory>
/home/itssahil/PROJECTS/Mol_Feturizer/New_Systems/rnas/3IQR

>  <Rbt.Executable>
rbdock ($Id: //depot/dev/client3/rdock/2013.1/src/exe/rbdock.cxx#4 $)

>  <Rbt.Library>
libRbt.so (2013.1, Build901 2013/11/27)

>  <Rbt.Parameter_File>
/export/apps/rDock/src/rDock_2013.1_src/data/scripts/dock_solv.prm

>  <Rbt.Receptor>
prm/pocket_docking_6.prm

>  <SCORE>
-18.5152

>  <SCORE.INTER>
-14.1936

>  <SCORE.INTER.CONST>
1

>  <SCORE.INTER.POLAR>
0

>  <SCORE.INTER.ROT>
7

>  <SCORE.INTER.SOLV>
13.7037

>  <SCORE.INTER.VDW>
-22.297

>  <SCORE.INTER.norm>
-0.52569

>  <SCORE.INTRA>
-4.32156

>  <SCORE.INTRA.DIHEDRAL>
-4.78283

>  <SCORE.INTRA.DIHEDRAL.0>
9.29433

>  <SCORE.INTRA.POLAR>
0

>  <SCORE.INTRA.POLAR.0>
0

>  <SCORE.INTRA.REPUL>
0

>  <SCORE.INTRA.REPUL.0>
0

>  <SCORE.INTRA.SOLV>
-0.953069

>  <SCORE.INTRA.SOLV.lig_0>
-48.5102

>  <SCORE.INTRA.VDW>
-1.45362

>  <SCORE.INTRA.VDW.0>
0.379549

>  <SCORE.INTRA.norm>
-0.160058

>  <SCORE.RESTR>
0

>  <SCORE.RESTR.CAVITY>
0

>  <SCORE.RESTR.norm>
0

>  <SCORE.SYSTEM>
0

>  <SCORE.SYSTEM.CONST>
0

>  <SCORE.SYSTEM.DIHEDRAL>
0

>  <SCORE.SYSTEM.SOLV>
0

>  <SCORE.SYSTEM.norm>
0

>  <SCORE.heavy>
27

>  <SCORE.norm>
-0.685748

>  <RMSD>
4.894

$$$$
ligand
 OpenBabel11021811483D
libRbt.so/2013.1/901 2013/11/27
 27 29  0  0  0  0  0  0  0  0999 V2000
   51.3149   53.0539   28.0078 N   0  0  0  0  0  0  0  0  0  0  0  0
   50.0598   52.8183   28.7198 C   0  0  2  0  0  0  0  0  0  0  0  0
   49.3714   51.6220   28.1290 C   0  0  0  0  0  0  0  0  0  0  0  0
   49.5991   51.2949   26.9689 O   0  0  0  0  0  0  0  0  0  0  0  0
   49.1428   54.0344   28.5951 C   0  0  0  0  0  0  0  0  0  0  0  0
   47.9616   53.8571   29.5317 C   0  0  0  0  0  0  0  0  0  0  0  0
   46.8309   55.2843   29.5674 S   0  0  2  0  0  0  0  0  0  0  0  0
   46.3020   55.4885   27.8409 C   0  0  0  0  0  0  0  0  0  0  0  0
   47.9901   56.7734   29.4157 C   0  0  0  0  0  0  0  0  0  0  0  0
   49.0123   57.0880   30.5871 C   0  0  2  0  0  0  0  0  0  0  0  0
   49.2527   56.0901   31.5534 O   0  0  0  0  0  0  0  0  0  0  0  0
   48.9857   58.3892   31.2838 C   0  0  1  0  0  0  0  0  0  0  0  0
   48.2722   59.3898   30.5563 O   0  0  0  0  0  0  0  0  0  0  0  0
   48.2671   57.8689   32.6172 C   0  0  2  0  0  0  0  0  0  0  0  0
   48.3190   58.8396   33.6191 O   0  0  0  0  0  0  0  0  0  0  0  0
   49.1339   56.6528   32.9380 C   0  0  1  0  0  0  0  0  0  0  0  0
   48.6157   50.9522   28.8213 O   0  0  0  0  0  0  0  0  0  0  0  0
   44.7803   54.5292   34.5710 N   0  0  0  0  0  0  0  0  0  0  0  0
   45.0010   55.6504   33.8794 C   0  0  0  0  0  0  0  0  0  0  0  0
   46.2315   56.0135   33.5299 N   0  0  0  0  0  0  0  0  0  0  0  0
   47.3087   55.3289   33.9462 C   0  0  0  0  0  0  0  0  0  0  0  0
   47.1283   54.1605   34.7308 C   0  0  0  0  0  0  0  0  0  0  0  0
   45.7939   53.7693   35.0307 C   0  0  0  0  0  0  0  0  0  0  0  0
   45.5336   52.6367   35.7752 N   0  0  0  0  0  0  0  0  0  0  0  0
   48.3507   53.6772   35.0133 N   0  0  0  0  0  0  0  0  0  0  0  0
   49.2569   54.4498   34.4764 C   0  0  0  0  0  0  0  0  0  0  0  0
   48.6745   55.4812   33.7945 N   0  0  0  0  0  0  0  0  0  0  0  0
  2  1  1  6  0  0  0
  2  3  1  0  0  0  0
  2  5  1  0  0  0  0
  3  4  1  0  0  0  0
  3 17  1  0  0  0  0
  5  6  1  0  0  0  0
  7  6  1  6  0  0  0
  7  8  1  0  0  0  0
  7  9  1  0  0  0  0
 10  9  1  1  0  0  0
 10 11  1  0  0  0  0
 10 12  1  0  0  0  0
 11 16  1  0  0  0  0
 12 13  1  6  0  0  0
 12 14  1  0  0  0  0
 14 15  1  1  0  0  0
 14 16  1  0  0  0  0
 16 27  1  1  0  0  0
 18 19  2  0  0  0  0
 18 23  1  0  0  0  0
 19 20  1  0  0  0  0
 20 21  2  0  0  0  0
 21 22  1  0  0  0  0
 21 27  1  0  0  0  0
 22 23  2  0  0  0  0
 22 25  1  0  0  0  0
 23 24  1  0  0  0  0
 25 26  2  0  0  0  0
 26 27  1  0  0  0  0
M  END
>  <CHROM.1>
-24.85158269,-170.42898287,176.39435120,57.65984588,-65.91572349,14.68573737
-91.65099814,47.98719455,55.03526437,31.42394169,0.57495465,-1.19210147,-2.94813723

>  <Name>
ligand

>  <RI>
0

>  <Rbt.Current_Directory>
/home/itssahil/PROJECTS/Mol_Feturizer/New_Systems/rnas/3IQR

>  <Rbt.Executable>
rbdock ($Id: //depot/dev/client3/rdock/2013.1/src/exe/rbdock.cxx#4 $)

>  <Rbt.Library>
libRbt.so (2013.1, Build901 2013/11/27)

>  <Rbt.Parameter_File>
/export/apps/rDock/src/rDock_2013.1_src/data/scripts/dock_solv.prm

>  <Rbt.Receptor>
prm/pocket_docking_5.prm

>  <SCORE>
-14.7935

>  <SCORE.INTER>
-10.7534

>  <SCORE.INTER.CONST>
1

>  <SCORE.INTER.POLAR>
0

>  <SCORE.INTER.ROT>
7

>  <SCORE.INTER.SOLV>
17.3366

>  <SCORE.INTER.VDW>
-21.2144

>  <SCORE.INTER.norm>
-0.398273

>  <SCORE.INTRA>
-4.0401

>  <SCORE.INTRA.DIHEDRAL>
-1.21304

>  <SCORE.INTRA.DIHEDRAL.0>
9.29433

>  <SCORE.INTRA.POLAR>
0

>  <SCORE.INTRA.POLAR.0>
0

>  <SCORE.INTRA.REPUL>
0

>  <SCORE.INTRA.REPUL.0>
0

>  <SCORE.INTRA.SOLV>
-1.58467

>  <SCORE.INTRA.SOLV.lig_0>
-48.5102

>  <SCORE.INTRA.VDW>
-2.64125

>  <SCORE.INTRA.VDW.0>
0.379549

>  <SCORE.INTRA.norm>
-0.149633

>  <SCORE.RESTR>
0

>  <SCORE.RESTR.CAVITY>
0

>  <SCORE.RESTR.norm>
0

>  <SCORE.SYSTEM>
0

>  <SCORE.SYSTEM.CONST>
0

>  <SCORE.SYSTEM.DIHEDRAL>
0

>  <SCORE.SYSTEM.SOLV>
0

>  <SCORE.SYSTEM.norm>
0

>  <SCORE.heavy>
27

>  <SCORE.norm>
-0.547906

>  <RMSD>
4.898

$$$$
ligand
 OpenBabel11021811483D
libRbt.so/2013.1/901 2013/11/27
 27 29  0  0  0  0  0  0  0  0999 V2000
   47.0965   52.6240   29.0528 N   0  0  0  0  0  0  0  0  0  0  0  0
   48.5162   52.9646   29.1333 C   0  0  2  0  0  0  0  0  0  0  0  0
   49.3195   51.9133   28.4235 C   0  0  0  0  0  0  0  0  0  0  0  0
   48.9794   50.7365   28.4857 O   0  0  0  0  0  0  0  0  0  0  0  0
   48.9631   53.0340   30.5929 C   0  0  0  0  0  0  0  0  0  0  0  0
   48.1364   54.0855   31.3104 C   0  0  0  0  0  0  0  0  0  0  0  0
   48.5426   54.2608   33.0770 S   0  0  2  0  0  0  0  0  0  0  0  0
   47.7065   52.8596   33.8769 C   0  0  0  0  0  0  0  0  0  0  0  0
   47.2193   55.4517   33.7210 C   0  0  0  0  0  0  0  0  0  0  0  0
   47.2114   56.9553   33.2158 C   0  0  2  0  0  0  0  0  0  0  0  0
   46.7901   57.2171   31.8962 O   0  0  0  0  0  0  0  0  0  0  0  0
   48.3410   57.8581   33.5130 C   0  0  1  0  0  0  0  0  0  0  0  0
   49.1683   57.3760   34.5726 O   0  0  0  0  0  0  0  0  0  0  0  0
   49.0008   57.8128   32.0543 C   0  0  2  0  0  0  0  0  0  0  0  0
   49.9858   58.7937   31.9254 O   0  0  0  0  0  0  0  0  0  0  0  0
   47.7744   58.1009   31.1906 C   0  0  1  0  0  0  0  0  0  0  0  0
   50.2885   52.2403   27.7504 O   0  0  0  0  0  0  0  0  0  0  0  0
   50.1036   55.0830   27.7851 N   0  0  0  0  0  0  0  0  0  0  0  0
   50.4140   55.3759   29.0508 C   0  0  0  0  0  0  0  0  0  0  0  0
   49.6455   56.1790   29.7806 N   0  0  0  0  0  0  0  0  0  0  0  0
   48.5882   56.8115   29.2475 C   0  0  0  0  0  0  0  0  0  0  0  0
   48.2502   56.5757   27.8898 C   0  0  0  0  0  0  0  0  0  0  0  0
   49.0593   55.6613   27.1598 C   0  0  0  0  0  0  0  0  0  0  0  0
   48.7874   55.3663   25.8392 N   0  0  0  0  0  0  0  0  0  0  0  0
   47.1700   57.3264   27.6115 N   0  0  0  0  0  0  0  0  0  0  0  0
   46.8254   58.0011   28.6757 C   0  0  0  0  0  0  0  0  0  0  0  0
   47.6572   57.7167   29.7223 N   0  0  0  0  0  0  0  0  0  0  0  0
  2  1  1  1  0  0  0
  2  3  1  0  0  0  0
  2  5  1  0  0  0  0
  3  4  1  0  0  0  0
  3 17  1  0  0  0  0
  5  6  1  0  0  0  0
  7  6  1  6  0  0  0
  7  8  1  0  0  0  0
  7  9  1  0  0  0  0
 10  9  1  6  0  0  0
 10 11  1  0  0  0  0
 10 12  1  0  0  0  0
 11 16  1  0  0  0  0
 12 13  1  1  0  0  0
 12 14  1  0  0  0  0
 14 15  1  1  0  0  0
 14 16  1  0  0  0  0
 16 27  1  6  0  0  0
 18 19  2  0  0  0  0
 18 23  1  0  0  0  0
 19 20  1  0  0  0  0
 20 21  2  0  0  0  0
 21 22  1  0  0  0  0
 21 27  1  0  0  0  0
 22 23  2  0  0  0  0
 22 25  1  0  0  0  0
 23 24  1  0  0  0  0
 25 26  2  0  0  0  0
 26 27  1  0  0  0  0
M  END
>  <CHROM.1>
-36.78386267,-59.24077852,179.04915039,-78.50787441,-66.75536649,72.80605867
-96.93056446,48.51187033,55.40294935,30.43738350,-0.09508863,-1.43596782
2.42147785

>  <Name>
ligand

>  <RI>
0

>  <Rbt.Current_Directory>
/home/itssahil/PROJECTS/Mol_Feturizer/New_Systems/rnas/3IQR

>  <Rbt.Executable>
rbdock ($Id: //depot/dev/client3/rdock/2013.1/src/exe/rbdock.cxx#4 $)

>  <Rbt.Library>
libRbt.so (2013.1, Build901 2013/11/27)

>  <Rbt.Parameter_File>
/export/apps/rDock/src/rDock_2013.1_src/data/scripts/dock_solv.prm

>  <Rbt.Receptor>
prm/pocket_docking_4.prm

>  <SCORE>
-20.402

>  <SCORE.INTER>
-12.3233

>  <SCORE.INTER.CONST>
1

>  <SCORE.INTER.POLAR>
0

>  <SCORE.INTER.ROT>
7

>  <SCORE.INTER.SOLV>
13.7973

>  <SCORE.INTER.VDW>
-21.0813

>  <SCORE.INTER.norm>
-0.456419

>  <SCORE.INTRA>
-8.07871

>  <SCORE.INTRA.DIHEDRAL>
-4.72833

>  <SCORE.INTRA.DIHEDRAL.0>
9.29433

>  <SCORE.INTRA.POLAR>
0

>  <SCORE.INTRA.POLAR.0>
0

>  <SCORE.INTRA.REPUL>
0

>  <SCORE.INTRA.REPUL.0>
0

>  <SCORE.INTRA.SOLV>
-0.0292625

>  <SCORE.INTRA.SOLV.lig_0>
-48.5102

>  <SCORE.INTRA.VDW>
-5.69992

>  <SCORE.INTRA.VDW.0>
0.379549

>  <SCORE.INTRA.norm>
-0.299212

>  <SCORE.RESTR>
0

>  <SCORE.RESTR.CAVITY>
0

>  <SCORE.RESTR.norm>
0

>  <SCORE.SYSTEM>
0

>  <SCORE.SYSTEM.CONST>
0

>  <SCORE.SYSTEM.DIHEDRAL>
0

>  <SCORE.SYSTEM.SOLV>
0

>  <SCORE.SYSTEM.norm>
0

>  <SCORE.heavy>
27

>  <SCORE.norm>
-0.755631

>  <RMSD>
4.902

$$$$
ligand
 OpenBabel11021811483D
libRbt.so/2013.1/901 2013/11/27
 27 29  0  0  0  0  0  0  0  0999 V2000
   48.9420   52.1412   26.6705 N   0  0  0  0  0  0  0  0  0  0  0  0
   48.1953   52.9501   27.6327 C   0  0  2  0  0  0  0  0  0  0  0  0
   47.0943   52.1215   28.2287 C   0  0  0  0  0  0  0  0  0  0  0  0
   47.0708   51.9115   29.4369 O   0  0  0  0  0  0  0  0  0  0  0  0
   47.5852   54.1686   26.9411 C   0  0  0  0  0  0  0  0  0  0  0  0
   48.7035   55.0994   26.5089 C   0  0  0  0  0  0  0  0  0  0  0  0
   49.1370   56.3558   27.7541 S   0  0  2  0  0  0  0  0  0  0  0  0
   49.3714   55.4121   29.2893 C   0  0  0  0  0  0  0  0  0  0  0  0
   47.4553   56.9773   28.3622 C   0  0  0  0  0  0  0  0  0  0  0  0
   47.3939   58.2070   29.3623 C   0  0  2  0  0  0  0  0  0  0  0  0
   48.1553   58.1463   30.5472 O   0  0  0  0  0  0  0  0  0  0  0  0
   46.1065   58.8511   29.6894 C   0  0  1  0  0  0  0  0  0  0  0  0
   45.0758   58.5298   28.7545 O   0  0  0  0  0  0  0  0  0  0  0  0
   45.9397   58.2000   31.1432 C   0  0  2  0  0  0  0  0  0  0  0  0
   44.9072   58.8208   31.8485 O   0  0  0  0  0  0  0  0  0  0  0  0
   47.3145   58.5010   31.7367 C   0  0  1  0  0  0  0  0  0  0  0  0
   46.1999   51.6925   27.5109 O   0  0  0  0  0  0  0  0  0  0  0  0
   46.6870   54.0585   34.1863 N   0  0  0  0  0  0  0  0  0  0  0  0
   45.9656   54.6345   33.2210 C   0  0  0  0  0  0  0  0  0  0  0  0
   46.3247   55.8024   32.6961 N   0  0  0  0  0  0  0  0  0  0  0  0
   47.3622   56.5004   33.1844 C   0  0  0  0  0  0  0  0  0  0  0  0
   48.1268   55.9552   34.2481 C   0  0  0  0  0  0  0  0  0  0  0  0
   47.7496   54.6749   34.7403 C   0  0  0  0  0  0  0  0  0  0  0  0
   48.4516   54.0693   35.7627 N   0  0  0  0  0  0  0  0  0  0  0  0
   49.0886   56.8464   34.5456 N   0  0  0  0  0  0  0  0  0  0  0  0
   48.9733   57.8858   33.7629 C   0  0  0  0  0  0  0  0  0  0  0  0
   47.9316   57.7260   32.8925 N   0  0  0  0  0  0  0  0  0  0  0  0
  2  1  1  6  0  0  0
  2  3  1  0  0  0  0
  2  5  1  0  0  0  0
  3  4  1  0  0  0  0
  3 17  1  0  0  0  0
  5  6  1  0  0  0  0
  7  6  1  6  0  0  0
  7  8  1  0  0  0  0
  7  9  1  0  0  0  0
 10  9  1  1  0  0  0
 10 11  1  0  0  0  0
 10 12  1  0  0  0  0
 11 16  1  0  0  0  0
 12 13  1  6  0  0  0
 12 14  1  0  0  0  0
 14 15  1  1  0  0  0
 14 16  1  0  0  0  0
 16 27  1  1  0  0  0
 18 19  2  0  0  0  0
 18 23  1  0  0  0  0
 19 20  1  0  0  0  0
 20 21  2  0  0  0  0
 21 22  1  0  0  0  0
 21 27  1  0  0  0  0
 22 23  2  0  0  0  0
 22 25  1  0  0  0  0
 23 24  1  0  0  0  0
 25 26  2  0  0  0  0
 26 27  1  0  0  0  0
M  END
>  <CHROM.1>
119.14960233,-67.70293617,-90.98206426,50.37255494,-173.60116124,-53.31532698
-94.99641651,47.51191106,55.80816377,30.53752771,-1.02058749,-1.43462035
1.67337839

>  <Name>
ligand

>  <RI>
0

>  <Rbt.Current_Directory>
/home/itssahil/PROJECTS/Mol_Feturizer/New_Systems/rnas/3IQR

>  <Rbt.Executable>
rbdock ($Id: //depot/dev/client3/rdock/2013.1/src/exe/rbdock.cxx#4 $)

>  <Rbt.Library>
libRbt.so (2013.1, Build901 2013/11/27)

>  <Rbt.Parameter_File>
/export/apps/rDock/src/rDock_2013.1_src/data/scripts/dock_solv.prm

>  <Rbt.Receptor>
prm/pocket_docking_3.prm

>  <SCORE>
-15.1434

>  <SCORE.INTER>
-12.1795

>  <SCORE.INTER.CONST>
1

>  <SCORE.INTER.POLAR>
0

>  <SCORE.INTER.ROT>
7

>  <SCORE.INTER.SOLV>
14.822

>  <SCORE.INTER.VDW>
-21.327

>  <SCORE.INTER.norm>
-0.451093

>  <SCORE.INTRA>
-2.96694

>  <SCORE.INTRA.DIHEDRAL>
-1.5074

>  <SCORE.INTRA.DIHEDRAL.0>
9.29433

>  <SCORE.INTRA.POLAR>
0

>  <SCORE.INTRA.POLAR.0>
0

>  <SCORE.INTRA.REPUL>
0

>  <SCORE.INTRA.REPUL.0>
0

>  <SCORE.INTRA.SOLV>
-0.482075

>  <SCORE.INTRA.SOLV.lig_0>
-48.5102

>  <SCORE.INTRA.VDW>
-1.9722

>  <SCORE.INTRA.VDW.0>
0.379549

>  <SCORE.INTRA.norm>
-0.109887

>  <SCORE.RESTR>
0.00300643

>  <SCORE.RESTR.CAVITY>
0.00300643

>  <SCORE.RESTR.norm>
0.000111349

>  <SCORE.SYSTEM>
0

>  <SCORE.SYSTEM.CONST>
0

>  <SCORE.SYSTEM.DIHEDRAL>
0

>  <SCORE.SYSTEM.SOLV>
0

>  <SCORE.SYSTEM.norm>
0

>  <SCORE.heavy>
27

>  <SCORE.norm>
-0.560868

>  <RMSD>
4.904

$$$$
ligand
 OpenBabel11021811483D
libRbt.so/2013.1/901 2013/11/27
 27 29  0  0  0  0  0  0  0  0999 V2000
   50.4961   53.0980   25.9987 N   0  0  0  0  0  0  0  0  0  0  0  0
   50.2099   53.7715   27.2646 C   0  0  2  0  0  0  0  0  0  0  0  0
   50.0626   52.7450   28.3503 C   0  0  0  0  0  0  0  0  0  0  0  0
   49.5055   51.6783   28.1134 O   0  0  0  0  0  0  0  0  0  0  0  0
   48.9143   54.5746   27.1572 C   0  0  0  0  0  0  0  0  0  0  0  0
   48.7405   55.3981   28.4203 C   0  0  0  0  0  0  0  0  0  0  0  0
   47.1523   56.2852   28.5071 S   0  0  2  0  0  0  0  0  0  0  0  0
   47.3559   57.6933   27.3766 C   0  0  0  0  0  0  0  0  0  0  0  0
   47.3609   57.4240   30.0049 C   0  0  0  0  0  0  0  0  0  0  0  0
   48.6941   57.3494   30.8612 C   0  0  2  0  0  0  0  0  0  0  0  0
   48.9123   56.2118   31.6647 O   0  0  0  0  0  0  0  0  0  0  0  0
   49.1780   58.5262   31.6097 C   0  0  1  0  0  0  0  0  0  0  0  0
   48.5803   59.7454   31.1672 O   0  0  0  0  0  0  0  0  0  0  0  0
   48.7169   58.0241   33.0591 C   0  0  2  0  0  0  0  0  0  0  0  0
   49.2683   58.8262   34.0598 O   0  0  0  0  0  0  0  0  0  0  0  0
   49.2988   56.6119   33.0569 C   0  0  1  0  0  0  0  0  0  0  0  0
   50.5364   52.9603   29.4585 O   0  0  0  0  0  0  0  0  0  0  0  0
   44.8594   54.5855   34.5790 N   0  0  0  0  0  0  0  0  0  0  0  0
   45.1199   55.6751   33.8516 C   0  0  0  0  0  0  0  0  0  0  0  0
   46.3677   56.0157   33.5432 N   0  0  0  0  0  0  0  0  0  0  0  0
   47.4196   55.3429   34.0361 C   0  0  0  0  0  0  0  0  0  0  0  0
   47.1948   54.2098   34.8601 C   0  0  0  0  0  0  0  0  0  0  0  0
   45.8452   53.8397   35.1155 C   0  0  0  0  0  0  0  0  0  0  0  0
   45.5427   52.7412   35.8944 N   0  0  0  0  0  0  0  0  0  0  0  0
   48.3995   53.7315   35.2178 N   0  0  0  0  0  0  0  0  0  0  0  0
   49.3350   54.4752   34.6904 C   0  0  0  0  0  0  0  0  0  0  0  0
   48.7920   55.4804   33.9402 N   0  0  0  0  0  0  0  0  0  0  0  0
  2  1  1  6  0  0  0
  2  3  1  0  0  0  0
  2  5  1  0  0  0  0
  3  4  1  0  0  0  0
  3 17  1  0  0  0  0
  5  6  1  0  0  0  0
  7  6  1  6  0  0  0
  7  8  1  0  0  0  0
  7  9  1  0  0  0  0
 10  9  1  1  0  0  0
 10 11  1  0  0  0  0
 10 12  1  0  0  0  0
 11 16  1  0  0  0  0
 12 13  1  6  0  0  0
 12 14  1  0  0  0  0
 14 15  1  1  0  0  0
 14 16  1  0  0  0  0
 16 27  1  1  0  0  0
 18 19  2  0  0  0  0
 18 23  1  0  0  0  0
 19 20  1  0  0  0  0
 20 21  2  0  0  0  0
 21 22  1  0  0  0  0
 21 27  1  0  0  0  0
 22 23  2  0  0  0  0
 22 25  1  0  0  0  0
 23 24  1  0  0  0  0
 25 26  2  0  0  0  0
 26 27  1  0  0  0  0
M  END
>  <CHROM.1>
-38.04367440,-172.84588854,-174.29389545,-76.21190222,-3.04824767,-70.85838163
-67.51738023,48.20413087,55.51600048,31.32682652,0.00212886,-1.27040538,3.02719114

>  <Name>
ligand

>  <RI>
0

>  <Rbt.Current_Directory>
/home/itssahil/PROJECTS/Mol_Feturizer/New_Systems/rnas/3IQR

>  <Rbt.Executable>
rbdock ($Id: //depot/dev/client3/rdock/2013.1/src/exe/rbdock.cxx#4 $)

>  <Rbt.Library>
libRbt.so (2013.1, Build901 2013/11/27)

>  <Rbt.Parameter_File>
/export/apps/rDock/src/rDock_2013.1_src/data/scripts/dock_solv.prm

>  <Rbt.Receptor>
prm/pocket_docking_7.prm

>  <SCORE>
-18.7538

>  <SCORE.INTER>
-14.8912

>  <SCORE.INTER.CONST>
1

>  <SCORE.INTER.POLAR>
0

>  <SCORE.INTER.ROT>
7

>  <SCORE.INTER.SOLV>
13.2662

>  <SCORE.INTER.VDW>
-22.6162

>  <SCORE.INTER.norm>
-0.551528

>  <SCORE.INTRA>
-3.8625

>  <SCORE.INTRA.DIHEDRAL>
-0.279697

>  <SCORE.INTRA.DIHEDRAL.0>
9.29433

>  <SCORE.INTRA.POLAR>
0

>  <SCORE.INTRA.POLAR.0>
0

>  <SCORE.INTRA.REPUL>
0

>  <SCORE.INTRA.REPUL.0>
0

>  <SCORE.INTRA.SOLV>
-1.80858

>  <SCORE.INTRA.SOLV.lig_0>
-48.5102

>  <SCORE.INTRA.VDW>
-2.81837

>  <SCORE.INTRA.VDW.0>
0.379549

>  <SCORE.INTRA.norm>
-0.143056

>  <SCORE.RESTR>
0

>  <SCORE.RESTR.CAVITY>
0

>  <SCORE.RESTR.norm>
0

>  <SCORE.SYSTEM>
0

>  <SCORE.SYSTEM.CONST>
0

>  <SCORE.SYSTEM.DIHEDRAL>
0

>  <SCORE.SYSTEM.SOLV>
0

>  <SCORE.SYSTEM.norm>
0

>  <SCORE.heavy>
27

>  <SCORE.norm>
-0.694583

>  <RMSD>
4.906

$$$$
ligand
 OpenBabel11021811483D
libRbt.so/2013.1/901 2013/11/27
 27 29  0  0  0  0  0  0  0  0999 V2000
   51.4441   52.3400   24.3368 N   0  0  0  0  0  0  0  0  0  0  0  0
   50.5811   53.3644   24.9232 C   0  0  2  0  0  0  0  0  0  0  0  0
   50.5964   54.5853   24.0495 C   0  0  0  0  0  0  0  0  0  0  0  0
   49.5492   55.1733   23.8002 O   0  0  0  0  0  0  0  0  0  0  0  0
   51.0783   53.7419   26.3180 C   0  0  0  0  0  0  0  0  0  0  0  0
   50.0686   54.6731   26.9641 C   0  0  0  0  0  0  0  0  0  0  0  0
   50.4666   55.1076   28.6873 S   0  0  2  0  0  0  0  0  0  0  0  0
   49.8621   53.6985   29.6625 C   0  0  0  0  0  0  0  0  0  0  0  0
   48.9872   56.1545   29.2345 C   0  0  0  0  0  0  0  0  0  0  0  0
   49.1143   57.0698   30.5237 C   0  0  2  0  0  0  0  0  0  0  0  0
   49.3639   56.4493   31.7647 O   0  0  0  0  0  0  0  0  0  0  0  0
   48.1684   58.1785   30.7593 C   0  0  1  0  0  0  0  0  0  0  0  0
   47.4534   58.5531   29.5812 O   0  0  0  0  0  0  0  0  0  0  0  0
   47.2977   57.4411   31.8834 C   0  0  2  0  0  0  0  0  0  0  0  0
   46.4401   58.3427   32.5163 O   0  0  0  0  0  0  0  0  0  0  0  0
   48.4082   56.9456   32.8077 C   0  0  1  0  0  0  0  0  0  0  0  0
   51.6608   55.0138   23.6225 O   0  0  0  0  0  0  0  0  0  0  0  0
   44.7077   54.0303   34.7921 N   0  0  0  0  0  0  0  0  0  0  0  0
   44.6453   55.1047   34.0011 C   0  0  0  0  0  0  0  0  0  0  0  0
   45.7491   55.7092   33.5715 N   0  0  0  0  0  0  0  0  0  0  0  0
   46.9651   55.3327   33.9978 C   0  0  0  0  0  0  0  0  0  0  0  0
   47.0797   54.2302   34.8837 C   0  0  0  0  0  0  0  0  0  0  0  0
   45.8805   53.5700   35.2705 C   0  0  0  0  0  0  0  0  0  0  0  0
   45.9082   52.4801   36.1169 N   0  0  0  0  0  0  0  0  0  0  0  0
   48.3870   54.0700   35.1541 N   0  0  0  0  0  0  0  0  0  0  0  0
   49.0757   54.9792   34.5174 C   0  0  0  0  0  0  0  0  0  0  0  0
   48.2539   55.7821   33.7771 N   0  0  0  0  0  0  0  0  0  0  0  0
  2  1  1  6  0  0  0
  2  3  1  0  0  0  0
  2  5  1  0  0  0  0
  3  4  1  0  0  0  0
  3 17  1  0  0  0  0
  5  6  1  0  0  0  0
  7  6  1  6  0  0  0
  7  8  1  0  0  0  0
  7  9  1  0  0  0  0
 10  9  1  6  0  0  0
 10 11  1  0  0  0  0
 10 12  1  0  0  0  0
 11 16  1  0  0  0  0
 12 13  1  6  0  0  0
 12 14  1  0  0  0  0
 14 15  1  1  0  0  0
 14 16  1  0  0  0  0
 16 27  1  1  0  0  0
 18 19  2  0  0  0  0
 18 23  1  0  0  0  0
 19 20  1  0  0  0  0
 20 21  2  0  0  0  0
 21 22  1  0  0  0  0
 21 27  1  0  0  0  0
 22 23  2  0  0  0  0
 22 25  1  0  0  0  0
 23 24  1  0  0  0  0
 25 26  2  0  0  0  0
 26 27  1  0  0  0  0
M  END
>  <CHROM.1>
136.50861592,-173.01011464,175.55459271,-81.75843073,-162.84036181,-61.87755720
-124.00767209,48.55386994,55.29158347,30.43429939,-0.34317345,-1.12433022
2.69691079

>  <Name>
ligand

>  <RI>
0

>  <Rbt.Current_Directory>
/home/itssahil/PROJECTS/Mol_Feturizer/New_Systems/rnas/3IQR

>  <Rbt.Executable>
rbdock ($Id: //depot/dev/client3/rdock/2013.1/src/exe/rbdock.cxx#4 $)

>  <Rbt.Library>
libRbt.so (2013.1, Build901 2013/11/27)

>  <Rbt.Parameter_File>
/export/apps/rDock/src/rDock_2013.1_src/data/scripts/dock_solv.prm

>  <Rbt.Receptor>
prm/pocket_docking_7.prm

>  <SCORE>
-19.3015

>  <SCORE.INTER>
-14.2782

>  <SCORE.INTER.CONST>
1

>  <SCORE.INTER.POLAR>
0

>  <SCORE.INTER.ROT>
7

>  <SCORE.INTER.SOLV>
11.4731

>  <SCORE.INTER.VDW>
-21.6098

>  <SCORE.INTER.norm>
-0.528824

>  <SCORE.INTRA>
-5.02326

>  <SCORE.INTRA.DIHEDRAL>
-3.30438

>  <SCORE.INTRA.DIHEDRAL.0>
9.29433

>  <SCORE.INTRA.POLAR>
0

>  <SCORE.INTRA.POLAR.0>
0

>  <SCORE.INTRA.REPUL>
0

>  <SCORE.INTRA.REPUL.0>
0

>  <SCORE.INTRA.SOLV>
-1.75929

>  <SCORE.INTRA.SOLV.lig_0>
-48.5102

>  <SCORE.INTRA.VDW>
-2.49143

>  <SCORE.INTRA.VDW.0>
0.379549

>  <SCORE.INTRA.norm>
-0.186047

>  <SCORE.RESTR>
0

>  <SCORE.RESTR.CAVITY>
0

>  <SCORE.RESTR.norm>
0

>  <SCORE.SYSTEM>
0

>  <SCORE.SYSTEM.CONST>
0

>  <SCORE.SYSTEM.DIHEDRAL>
0

>  <SCORE.SYSTEM.SOLV>
0

>  <SCORE.SYSTEM.norm>
0

>  <SCORE.heavy>
27

>  <SCORE.norm>
-0.714871

>  <RMSD>
4.915

$$$$
ligand
 OpenBabel11021811483D
libRbt.so/2013.1/901 2013/11/27
 27 29  0  0  0  0  0  0  0  0999 V2000
   48.7749   53.9131   26.6450 N   0  0  0  0  0  0  0  0  0  0  0  0
   48.8453   53.6083   28.0733 C   0  0  2  0  0  0  0  0  0  0  0  0
   50.1272   52.8824   28.3629 C   0  0  0  0  0  0  0  0  0  0  0  0
   50.6056   52.1256   27.5246 O   0  0  0  0  0  0  0  0  0  0  0  0
   47.6675   52.7264   28.4862 C   0  0  0  0  0  0  0  0  0  0  0  0
   46.3849   53.5279   28.3580 C   0  0  0  0  0  0  0  0  0  0  0  0
   46.2764   54.9316   29.5132 S   0  0  2  0  0  0  0  0  0  0  0  0
   44.5999   55.5901   29.2721 C   0  0  0  0  0  0  0  0  0  0  0  0
   47.0120   56.3732   28.5310 C   0  0  0  0  0  0  0  0  0  0  0  0
   47.3794   57.7212   29.2821 C   0  0  2  0  0  0  0  0  0  0  0  0
   48.2095   57.6503   30.4193 O   0  0  0  0  0  0  0  0  0  0  0  0
   46.3492   58.7459   29.5424 C   0  0  1  0  0  0  0  0  0  0  0  0
   45.1835   58.5735   28.7355 O   0  0  0  0  0  0  0  0  0  0  0  0
   46.1582   58.4228   31.0994 C   0  0  2  0  0  0  0  0  0  0  0  0
   45.4032   59.4179   31.7229 O   0  0  0  0  0  0  0  0  0  0  0  0
   47.6149   58.4219   31.5589 C   0  0  1  0  0  0  0  0  0  0  0  0
   50.7125   53.0807   29.4199 O   0  0  0  0  0  0  0  0  0  0  0  0
   46.7158   54.1302   34.1864 N   0  0  0  0  0  0  0  0  0  0  0  0
   46.0939   54.6533   33.1264 C   0  0  0  0  0  0  0  0  0  0  0  0
   46.5123   55.7874   32.5723 N   0  0  0  0  0  0  0  0  0  0  0  0
   47.5065   56.5074   33.1157 C   0  0  0  0  0  0  0  0  0  0  0  0
   48.1626   56.0205   34.2758 C   0  0  0  0  0  0  0  0  0  0  0  0
   47.7280   54.7724   34.8021 C   0  0  0  0  0  0  0  0  0  0  0  0
   48.3250   54.2231   35.9187 N   0  0  0  0  0  0  0  0  0  0  0  0
   49.1012   56.9228   34.6115 N   0  0  0  0  0  0  0  0  0  0  0  0
   49.0702   57.9162   33.7638 C   0  0  0  0  0  0  0  0  0  0  0  0
   48.1131   57.7116   32.8097 N   0  0  0  0  0  0  0  0  0  0  0  0
  2  1  1  6  0  0  0
  2  3  1  0  0  0  0
  2  5  1  0  0  0  0
  3  4  1  0  0  0  0
  3 17  1  0  0  0  0
  5  6  1  0  0  0  0
  7  6  1  6  0  0  0
  7  8  1  0  0  0  0
  7  9  1  0  0  0  0
 10  9  1  1  0  0  0
 10 11  1  0  0  0  0
 10 12  1  0  0  0  0
 11 16  1  0  0  0  0
 12 13  1  6  0  0  0
 12 14  1  0  0  0  0
 14 15  1  1  0  0  0
 14 16  1  0  0  0  0
 16 27  1  1  0  0  0
 18 19  2  0  0  0  0
 18 23  1  0  0  0  0
 19 20  1  0  0  0  0
 20 21  2  0  0  0  0
 21 22  1  0  0  0  0
 21 27  1  0  0  0  0
 22 23  2  0  0  0  0
 22 25  1  0  0  0  0
 23 24  1  0  0  0  0
 25 26  2  0  0  0  0
 26 27  1  0  0  0  0
M  END
>  <CHROM.1>
-33.06419141,-67.07159426,-65.56059138,-174.11540432,-167.40207497,52.92880988
-75.33473983,47.50963348,55.75020662,30.79930549,1.19992910,1.00002998,-1.82455157

>  <Name>
ligand

>  <RI>
0

>  <Rbt.Current_Directory>
/home/itssahil/PROJECTS/Mol_Feturizer/New_Systems/rnas/3IQR

>  <Rbt.Executable>
rbdock ($Id: //depot/dev/client3/rdock/2013.1/src/exe/rbdock.cxx#4 $)

>  <Rbt.Library>
libRbt.so (2013.1, Build901 2013/11/27)

>  <Rbt.Parameter_File>
/export/apps/rDock/src/rDock_2013.1_src/data/scripts/dock_solv.prm

>  <Rbt.Receptor>
prm/pocket_docking_4.prm

>  <SCORE>
-13.7304

>  <SCORE.INTER>
-7.95809

>  <SCORE.INTER.CONST>
1

>  <SCORE.INTER.POLAR>
0

>  <SCORE.INTER.ROT>
7

>  <SCORE.INTER.SOLV>
13.6125

>  <SCORE.INTER.VDW>
-18.1096

>  <SCORE.INTER.norm>
-0.294744

>  <SCORE.INTRA>
-5.77233

>  <SCORE.INTRA.DIHEDRAL>
-2.93328

>  <SCORE.INTRA.DIHEDRAL.0>
9.29433

>  <SCORE.INTRA.POLAR>
0

>  <SCORE.INTRA.POLAR.0>
0

>  <SCORE.INTRA.REPUL>
0

>  <SCORE.INTRA.REPUL.0>
0

>  <SCORE.INTRA.SOLV>
0.648865

>  <SCORE.INTRA.SOLV.lig_0>
-48.5102

>  <SCORE.INTRA.VDW>
-4.63012

>  <SCORE.INTRA.VDW.0>
0.379549

>  <SCORE.INTRA.norm>
-0.21379

>  <SCORE.RESTR>
0

>  <SCORE.RESTR.CAVITY>
0

>  <SCORE.RESTR.norm>
0

>  <SCORE.SYSTEM>
0

>  <SCORE.SYSTEM.CONST>
0

>  <SCORE.SYSTEM.DIHEDRAL>
0

>  <SCORE.SYSTEM.SOLV>
0

>  <SCORE.SYSTEM.norm>
0

>  <SCORE.heavy>
27

>  <SCORE.norm>
-0.508534

>  <RMSD>
4.919

$$$$
ligand
 OpenBabel11021811483D
libRbt.so/2013.1/901 2013/11/27
 27 29  0  0  0  0  0  0  0  0999 V2000
   49.5902   52.5205   26.4803 N   0  0  0  0  0  0  0  0  0  0  0  0
   49.3858   53.3051   27.6971 C   0  0  2  0  0  0  0  0  0  0  0  0
   49.1804   52.3755   28.8580 C   0  0  0  0  0  0  0  0  0  0  0  0
   48.5099   51.3582   28.7171 O   0  0  0  0  0  0  0  0  0  0  0  0
   48.1563   54.2007   27.5506 C   0  0  0  0  0  0  0  0  0  0  0  0
   48.0741   55.1230   28.7533 C   0  0  0  0  0  0  0  0  0  0  0  0
   46.7905   56.4068   28.6091 S   0  0  2  0  0  0  0  0  0  0  0  0
   47.4958   57.6279   27.4628 C   0  0  0  0  0  0  0  0  0  0  0  0
   47.1368   57.5482   30.0792 C   0  0  0  0  0  0  0  0  0  0  0  0
   48.5151   57.4243   30.8546 C   0  0  2  0  0  0  0  0  0  0  0  0
   48.7468   56.2701   31.6300 O   0  0  0  0  0  0  0  0  0  0  0  0
   49.0757   58.5766   31.5876 C   0  0  1  0  0  0  0  0  0  0  0  0
   48.4887   59.8181   31.1957 O   0  0  0  0  0  0  0  0  0  0  0  0
   48.6858   58.0678   33.0553 C   0  0  2  0  0  0  0  0  0  0  0  0
   49.3177   58.8401   34.0316 O   0  0  0  0  0  0  0  0  0  0  0  0
   49.2254   56.6398   33.0018 C   0  0  1  0  0  0  0  0  0  0  0  0
   49.7181   52.6157   29.9315 O   0  0  0  0  0  0  0  0  0  0  0  0
   44.8217   54.5797   34.5808 N   0  0  0  0  0  0  0  0  0  0  0  0
   45.0640   55.6654   33.8415 C   0  0  0  0  0  0  0  0  0  0  0  0
   46.3053   56.0166   33.5191 N   0  0  0  0  0  0  0  0  0  0  0  0
   47.3687   55.3596   34.0088 C   0  0  0  0  0  0  0  0  0  0  0  0
   47.1634   54.2317   34.8448 C   0  0  0  0  0  0  0  0  0  0  0  0
   45.8201   53.8493   35.1153 C   0  0  0  0  0  0  0  0  0  0  0  0
   45.5363   52.7548   35.9067 N   0  0  0  0  0  0  0  0  0  0  0  0
   48.3762   53.7695   35.1962 N   0  0  0  0  0  0  0  0  0  0  0  0
   49.2990   54.5185   34.6540 C   0  0  0  0  0  0  0  0  0  0  0  0
   48.7387   55.5110   33.8996 N   0  0  0  0  0  0  0  0  0  0  0  0
  2  1  1  6  0  0  0
  2  3  1  0  0  0  0
  2  5  1  0  0  0  0
  3  4  1  0  0  0  0
  3 17  1  0  0  0  0
  5  6  1  0  0  0  0
  7  6  1  1  0  0  0
  7  8  1  0  0  0  0
  7  9  1  0  0  0  0
 10  9  1  1  0  0  0
 10 11  1  0  0  0  0
 10 12  1  0  0  0  0
 11 16  1  0  0  0  0
 12 13  1  6  0  0  0
 12 14  1  0  0  0  0
 14 15  1  1  0  0  0
 14 16  1  0  0  0  0
 16 27  1  1  0  0  0
 18 19  2  0  0  0  0
 18 23  1  0  0  0  0
 19 20  1  0  0  0  0
 20 21  2  0  0  0  0
 21 22  1  0  0  0  0
 21 27  1  0  0  0  0
 22 23  2  0  0  0  0
 22 25  1  0  0  0  0
 23 24  1  0  0  0  0
 25 26  2  0  0  0  0
 26 27  1  0  0  0  0
M  END
>  <CHROM.1>
-39.68336801,-172.97176268,171.96730921,-76.05110017,13.99612849,-69.34467881
-63.66221305,47.92502200,55.44751762,31.44907299,0.40893662,-1.35144038,-2.89319395

>  <Name>
ligand

>  <RI>
0

>  <Rbt.Current_Directory>
/home/itssahil/PROJECTS/Mol_Feturizer/New_Systems/rnas/3IQR

>  <Rbt.Executable>
rbdock ($Id: //depot/dev/client3/rdock/2013.1/src/exe/rbdock.cxx#4 $)

>  <Rbt.Library>
libRbt.so (2013.1, Build901 2013/11/27)

>  <Rbt.Parameter_File>
/export/apps/rDock/src/rDock_2013.1_src/data/scripts/dock_solv.prm

>  <Rbt.Receptor>
prm/pocket_docking_7.prm

>  <SCORE>
-18.5864

>  <SCORE.INTER>
-14.0393

>  <SCORE.INTER.CONST>
1

>  <SCORE.INTER.POLAR>
0

>  <SCORE.INTER.ROT>
7

>  <SCORE.INTER.SOLV>
12.8663

>  <SCORE.INTER.VDW>
-21.915

>  <SCORE.INTER.norm>
-0.519974

>  <SCORE.INTRA>
-4.54711

>  <SCORE.INTRA.DIHEDRAL>
-1.43739

>  <SCORE.INTRA.DIHEDRAL.0>
9.29433

>  <SCORE.INTRA.POLAR>
0

>  <SCORE.INTRA.POLAR.0>
0

>  <SCORE.INTRA.REPUL>
0

>  <SCORE.INTRA.REPUL.0>
0

>  <SCORE.INTRA.SOLV>
-1.76914

>  <SCORE.INTRA.SOLV.lig_0>
-48.5102

>  <SCORE.INTRA.VDW>
-2.94385

>  <SCORE.INTRA.VDW.0>
0.379549

>  <SCORE.INTRA.norm>
-0.168412

>  <SCORE.RESTR>
0

>  <SCORE.RESTR.CAVITY>
0

>  <SCORE.RESTR.norm>
0

>  <SCORE.SYSTEM>
0

>  <SCORE.SYSTEM.CONST>
0

>  <SCORE.SYSTEM.DIHEDRAL>
0

>  <SCORE.SYSTEM.SOLV>
0

>  <SCORE.SYSTEM.norm>
0

>  <SCORE.heavy>
27

>  <SCORE.norm>
-0.688385

>  <RMSD>
4.928

$$$$
ligand
 OpenBabel11021811483D
libRbt.so/2013.1/901 2013/11/27
 27 29  0  0  0  0  0  0  0  0999 V2000
   48.0544   52.2165   24.7975 N   0  0  0  0  0  0  0  0  0  0  0  0
   47.6446   53.5293   25.2939 C   0  0  2  0  0  0  0  0  0  0  0  0
   48.7702   54.5046   25.1046 C   0  0  0  0  0  0  0  0  0  0  0  0
   49.8878   54.2418   25.5363 O   0  0  0  0  0  0  0  0  0  0  0  0
   47.2972   53.4497   26.7799 C   0  0  0  0  0  0  0  0  0  0  0  0
   45.9933   52.6892   26.9396 C   0  0  0  0  0  0  0  0  0  0  0  0
   45.4624   52.4954   28.6709 S   0  0  2  0  0  0  0  0  0  0  0  0
   43.7073   52.0378   28.5594 C   0  0  0  0  0  0  0  0  0  0  0  0
   44.9974   54.2549   29.1924 C   0  0  0  0  0  0  0  0  0  0  0  0
   46.1397   55.3386   29.3845 C   0  0  2  0  0  0  0  0  0  0  0  0
   47.0648   55.1591   30.4330 O   0  0  0  0  0  0  0  0  0  0  0  0
   45.8355   56.7805   29.2972 C   0  0  1  0  0  0  0  0  0  0  0  0
   44.5852   57.0427   28.6590 O   0  0  0  0  0  0  0  0  0  0  0  0
   45.8752   57.0720   30.8716 C   0  0  2  0  0  0  0  0  0  0  0  0
   45.8715   58.4455   31.1214 O   0  0  0  0  0  0  0  0  0  0  0  0
   47.2054   56.4163   31.2375 C   0  0  1  0  0  0  0  0  0  0  0  0
   48.5777   55.5417   24.4829 O   0  0  0  0  0  0  0  0  0  0  0  0
   45.8988   52.7253   34.5238 N   0  0  0  0  0  0  0  0  0  0  0  0
   45.3923   53.0556   33.3328 C   0  0  0  0  0  0  0  0  0  0  0  0
   45.9057   54.0524   32.6181 N   0  0  0  0  0  0  0  0  0  0  0  0
   46.8814   54.8344   33.1065 C   0  0  0  0  0  0  0  0  0  0  0  0
   47.4151   54.5578   34.3918 C   0  0  0  0  0  0  0  0  0  0  0  0
   46.8828   53.4442   35.0991 C   0  0  0  0  0  0  0  0  0  0  0  0
   47.3586   53.0997   36.3481 N   0  0  0  0  0  0  0  0  0  0  0  0
   48.3610   55.4810   34.6381 N   0  0  0  0  0  0  0  0  0  0  0  0
   48.4457   56.2966   33.6213 C   0  0  0  0  0  0  0  0  0  0  0  0
   47.5644   55.9419   32.6386 N   0  0  0  0  0  0  0  0  0  0  0  0
  2  1  1  1  0  0  0
  2  3  1  0  0  0  0
  2  5  1  0  0  0  0
  3  4  1  0  0  0  0
  3 17  1  0  0  0  0
  5  6  1  0  0  0  0
  7  6  1  6  0  0  0
  7  8  1  0  0  0  0
  7  9  1  0  0  0  0
 10  9  1  1  0  0  0
 10 11  1  0  0  0  0
 10 12  1  0  0  0  0
 11 16  1  0  0  0  0
 12 13  1  1  0  0  0
 12 14  1  0  0  0  0
 14 15  1  6  0  0  0
 14 16  1  0  0  0  0
 16 27  1  1  0  0  0
 18 19  2  0  0  0  0
 18 23  1  0  0  0  0
 19 20  1  0  0  0  0
 20 21  2  0  0  0  0
 21 22  1  0  0  0  0
 21 27  1  0  0  0  0
 22 23  2  0  0  0  0
 22 25  1  0  0  0  0
 23 24  1  0  0  0  0
 25 26  2  0  0  0  0
 26 27  1  0  0  0  0
M  END
>  <CHROM.1>
-52.89683872,-71.20957785,179.22853566,163.28975347,-70.48420254,-66.26457701
-41.40769459,46.70922994,54.54088523,30.05917067,1.32943196,-1.25650549,-1.88785225

>  <Name>
ligand

>  <RI>
0

>  <Rbt.Current_Directory>
/home/itssahil/PROJECTS/Mol_Feturizer/New_Systems/rnas/3IQR

>  <Rbt.Executable>
rbdock ($Id: //depot/dev/client3/rdock/2013.1/src/exe/rbdock.cxx#4 $)

>  <Rbt.Library>
libRbt.so (2013.1, Build901 2013/11/27)

>  <Rbt.Parameter_File>
/export/apps/rDock/src/rDock_2013.1_src/data/scripts/dock_solv.prm

>  <Rbt.Receptor>
prm/pocket_docking_7.prm

>  <SCORE>
-11.2709

>  <SCORE.INTER>
-5.08098

>  <SCORE.INTER.CONST>
1

>  <SCORE.INTER.POLAR>
0

>  <SCORE.INTER.ROT>
7

>  <SCORE.INTER.SOLV>
10.0802

>  <SCORE.INTER.VDW>
-15.0141

>  <SCORE.INTER.norm>
-0.188184

>  <SCORE.INTRA>
-6.18989

>  <SCORE.INTRA.DIHEDRAL>
-4.61941

>  <SCORE.INTRA.DIHEDRAL.0>
9.29433

>  <SCORE.INTRA.POLAR>
0

>  <SCORE.INTRA.POLAR.0>
0

>  <SCORE.INTRA.REPUL>
0

>  <SCORE.INTRA.REPUL.0>
0

>  <SCORE.INTRA.SOLV>
-1.21871

>  <SCORE.INTRA.SOLV.lig_0>
-48.5102

>  <SCORE.INTRA.VDW>
-3.27083

>  <SCORE.INTRA.VDW.0>
0.379549

>  <SCORE.INTRA.norm>
-0.229255

>  <SCORE.RESTR>
0

>  <SCORE.RESTR.CAVITY>
0

>  <SCORE.RESTR.norm>
0

>  <SCORE.SYSTEM>
0

>  <SCORE.SYSTEM.CONST>
0

>  <SCORE.SYSTEM.DIHEDRAL>
0

>  <SCORE.SYSTEM.SOLV>
0

>  <SCORE.SYSTEM.norm>
0

>  <SCORE.heavy>
27

>  <SCORE.norm>
-0.41744

>  <RMSD>
4.931

$$$$
ligand
 OpenBabel11021811483D
libRbt.so/2013.1/901 2013/11/27
 27 29  0  0  0  0  0  0  0  0999 V2000
   46.6384   52.5310   29.0568 N   0  0  0  0  0  0  0  0  0  0  0  0
   48.0447   52.9159   28.9463 C   0  0  2  0  0  0  0  0  0  0  0  0
   48.7881   51.8629   28.1765 C   0  0  0  0  0  0  0  0  0  0  0  0
   48.9274   50.7406   28.6514 O   0  0  0  0  0  0  0  0  0  0  0  0
   48.6679   53.0531   30.3348 C   0  0  0  0  0  0  0  0  0  0  0  0
   47.9063   54.1107   31.1128 C   0  0  0  0  0  0  0  0  0  0  0  0
   48.5451   54.3879   32.7956 S   0  0  2  0  0  0  0  0  0  0  0  0
   47.9772   52.9436   33.7410 C   0  0  0  0  0  0  0  0  0  0  0  0
   47.2176   55.4703   33.6019 C   0  0  0  0  0  0  0  0  0  0  0  0
   46.9651   56.9357   33.0494 C   0  0  2  0  0  0  0  0  0  0  0  0
   46.4457   57.0809   31.7470 O   0  0  0  0  0  0  0  0  0  0  0  0
   47.9638   58.0031   33.2552 C   0  0  1  0  0  0  0  0  0  0  0  0
   48.9038   57.6882   34.2832 O   0  0  0  0  0  0  0  0  0  0  0  0
   48.5506   57.9952   31.7649 C   0  0  2  0  0  0  0  0  0  0  0  0
   49.3741   59.1020   31.5508 O   0  0  0  0  0  0  0  0  0  0  0  0
   47.2542   58.0685   30.9605 C   0  0  1  0  0  0  0  0  0  0  0  0
   49.2171   52.1167   27.0582 O   0  0  0  0  0  0  0  0  0  0  0  0
   49.7312   55.1293   27.5906 N   0  0  0  0  0  0  0  0  0  0  0  0
   50.0567   55.5026   28.8310 C   0  0  0  0  0  0  0  0  0  0  0  0
   49.2436   56.2639   29.5573 N   0  0  0  0  0  0  0  0  0  0  0  0
   48.1154   56.7756   29.0402 C   0  0  0  0  0  0  0  0  0  0  0  0
   47.7540   56.4527   27.7066 C   0  0  0  0  0  0  0  0  0  0  0  0
   48.6177   55.5843   26.9831 C   0  0  0  0  0  0  0  0  0  0  0  0
   48.3288   55.2100   25.6864 N   0  0  0  0  0  0  0  0  0  0  0  0
   46.6008   57.0908   27.4402 N   0  0  0  0  0  0  0  0  0  0  0  0
   46.2328   57.7767   28.4893 C   0  0  0  0  0  0  0  0  0  0  0  0
   47.1224   57.6130   29.5140 N   0  0  0  0  0  0  0  0  0  0  0  0
  2  1  1  1  0  0  0
  2  3  1  0  0  0  0
  2  5  1  0  0  0  0
  3  4  1  0  0  0  0
  3 17  1  0  0  0  0
  5  6  1  0  0  0  0
  7  6  1  6  0  0  0
  7  8  1  0  0  0  0
  7  9  1  0  0  0  0
 10  9  1  6  0  0  0
 10 11  1  0  0  0  0
 10 12  1  0  0  0  0
 11 16  1  0  0  0  0
 12 13  1  1  0  0  0
 12 14  1  0  0  0  0
 14 15  1  1  0  0  0
 14 16  1  0  0  0  0
 16 27  1  6  0  0  0
 18 19  2  0  0  0  0
 18 23  1  0  0  0  0
 19 20  1  0  0  0  0
 20 21  2  0  0  0  0
 21 22  1  0  0  0  0
 21 27  1  0  0  0  0
 22 23  2  0  0  0  0
 22 25  1  0  0  0  0
 23 24  1  0  0  0  0
 25 26  2  0  0  0  0
 26 27  1  0  0  0  0
M  END
>  <CHROM.1>
-66.51565682,-59.50355650,-179.80446048,-74.86626810,-65.40539732,66.13391155
-93.63044941,48.14934609,55.41318527,30.22427788,-0.70921231,-1.44659464
1.75717776

>  <Name>
ligand

>  <RI>
0

>  <Rbt.Current_Directory>
/home/itssahil/PROJECTS/Mol_Feturizer/New_Systems/rnas/3IQR

>  <Rbt.Executable>
rbdock ($Id: //depot/dev/client3/rdock/2013.1/src/exe/rbdock.cxx#4 $)

>  <Rbt.Library>
libRbt.so (2013.1, Build901 2013/11/27)

>  <Rbt.Parameter_File>
/export/apps/rDock/src/rDock_2013.1_src/data/scripts/dock_solv.prm

>  <Rbt.Receptor>
prm/pocket_docking_3.prm

>  <SCORE>
-18.5843

>  <SCORE.INTER>
-10.3879

>  <SCORE.INTER.CONST>
1

>  <SCORE.INTER.POLAR>
0

>  <SCORE.INTER.ROT>
7

>  <SCORE.INTER.SOLV>
11.9687

>  <SCORE.INTER.VDW>
-19.1815

>  <SCORE.INTER.norm>
-0.384738

>  <SCORE.INTRA>
-8.20299

>  <SCORE.INTRA.DIHEDRAL>
-5.27019

>  <SCORE.INTRA.DIHEDRAL.0>
9.29433

>  <SCORE.INTRA.POLAR>
0

>  <SCORE.INTRA.POLAR.0>
0

>  <SCORE.INTRA.REPUL>
0

>  <SCORE.INTRA.REPUL.0>
0

>  <SCORE.INTRA.SOLV>
0.442502

>  <SCORE.INTRA.SOLV.lig_0>
-48.5102

>  <SCORE.INTRA.VDW>
-5.78915

>  <SCORE.INTRA.VDW.0>
0.379549

>  <SCORE.INTRA.norm>
-0.303814

>  <SCORE.RESTR>
0.00659023

>  <SCORE.RESTR.CAVITY>
0.00659023

>  <SCORE.RESTR.norm>
0.000244082

>  <SCORE.SYSTEM>
0

>  <SCORE.SYSTEM.CONST>
0

>  <SCORE.SYSTEM.DIHEDRAL>
0

>  <SCORE.SYSTEM.SOLV>
0

>  <SCORE.SYSTEM.norm>
0

>  <SCORE.heavy>
27

>  <SCORE.norm>
-0.688308

>  <RMSD>
4.935

$$$$
ligand
 OpenBabel11021811483D
libRbt.so/2013.1/901 2013/11/27
 27 29  0  0  0  0  0  0  0  0999 V2000
   50.7491   52.5654   25.6571 N   0  0  0  0  0  0  0  0  0  0  0  0
   50.1862   53.7543   26.2956 C   0  0  2  0  0  0  0  0  0  0  0  0
   51.0147   54.1121   27.4954 C   0  0  0  0  0  0  0  0  0  0  0  0
   51.1110   53.3243   28.4306 O   0  0  0  0  0  0  0  0  0  0  0  0
   48.7496   53.4867   26.7423 C   0  0  0  0  0  0  0  0  0  0  0  0
   47.9929   54.8021   26.7775 C   0  0  0  0  0  0  0  0  0  0  0  0
   48.6679   56.0071   27.9645 S   0  0  2  0  0  0  0  0  0  0  0  0
   48.6179   55.1462   29.5641 C   0  0  0  0  0  0  0  0  0  0  0  0
   47.1613   57.0466   28.4475 C   0  0  0  0  0  0  0  0  0  0  0  0
   47.3421   58.2624   29.4502 C   0  0  2  0  0  0  0  0  0  0  0  0
   48.1382   58.0723   30.5979 O   0  0  0  0  0  0  0  0  0  0  0  0
   46.1897   59.0997   29.8378 C   0  0  1  0  0  0  0  0  0  0  0  0
   45.0789   58.9533   28.9523 O   0  0  0  0  0  0  0  0  0  0  0  0
   45.9893   58.4716   31.2975 C   0  0  2  0  0  0  0  0  0  0  0  0
   45.1021   59.2424   32.0509 O   0  0  0  0  0  0  0  0  0  0  0  0
   47.4205   58.5461   31.8259 C   0  0  1  0  0  0  0  0  0  0  0  0
   51.6254   55.1731   27.5178 O   0  0  0  0  0  0  0  0  0  0  0  0
   46.5071   53.9956   33.9682 N   0  0  0  0  0  0  0  0  0  0  0  0
   45.8479   54.6628   33.0171 C   0  0  0  0  0  0  0  0  0  0  0  0
   46.2774   55.8426   32.5793 N   0  0  0  0  0  0  0  0  0  0  0  0
   47.3262   56.4604   33.1455 C   0  0  0  0  0  0  0  0  0  0  0  0
   48.0262   55.8160   34.1981 C   0  0  0  0  0  0  0  0  0  0  0  0
   47.5748   54.5269   34.5957 C   0  0  0  0  0  0  0  0  0  0  0  0
   48.2113   53.8277   35.6012 N   0  0  0  0  0  0  0  0  0  0  0  0
   49.0150   56.6416   34.5836 N   0  0  0  0  0  0  0  0  0  0  0  0
   48.9747   57.7313   33.8645 C   0  0  0  0  0  0  0  0  0  0  0  0
   47.9597   57.6738   32.9509 N   0  0  0  0  0  0  0  0  0  0  0  0
  2  1  1  1  0  0  0
  2  3  1  0  0  0  0
  2  5  1  0  0  0  0
  3  4  1  0  0  0  0
  3 17  1  0  0  0  0
  5  6  1  0  0  0  0
  7  6  1  6  0  0  0
  7  8  1  0  0  0  0
  7  9  1  0  0  0  0
 10  9  1  1  0  0  0
 10 11  1  0  0  0  0
 10 12  1  0  0  0  0
 11 16  1  0  0  0  0
 12 13  1  6  0  0  0
 12 14  1  0  0  0  0
 14 15  1  1  0  0  0
 14 16  1  0  0  0  0
 16 27  1  1  0  0  0
 18 19  2  0  0  0  0
 18 23  1  0  0  0  0
 19 20  1  0  0  0  0
 20 21  2  0  0  0  0
 21 22  1  0  0  0  0
 21 27  1  0  0  0  0
 22 23  2  0  0  0  0
 22 25  1  0  0  0  0
 23 24  1  0  0  0  0
 25 26  2  0  0  0  0
 26 27  1  0  0  0  0
M  END
>  <CHROM.1>
-61.94237981,-153.52826793,-62.14461567,-57.38980535,-177.96398821,-44.15992842
-86.29584253,48.07201253,56.06008693,30.43629075,-0.83782318,-0.94117853
1.81941239

>  <Name>
ligand

>  <RI>
0

>  <Rbt.Current_Directory>
/home/itssahil/PROJECTS/Mol_Feturizer/New_Systems/rnas/3IQR

>  <Rbt.Executable>
rbdock ($Id: //depot/dev/client3/rdock/2013.1/src/exe/rbdock.cxx#4 $)

>  <Rbt.Library>
libRbt.so (2013.1, Build901 2013/11/27)

>  <Rbt.Parameter_File>
/export/apps/rDock/src/rDock_2013.1_src/data/scripts/dock_solv.prm

>  <Rbt.Receptor>
prm/pocket_docking_4.prm

>  <SCORE>
-15.9828

>  <SCORE.INTER>
-11.1902

>  <SCORE.INTER.CONST>
1

>  <SCORE.INTER.POLAR>
0

>  <SCORE.INTER.ROT>
7

>  <SCORE.INTER.SOLV>
12.8263

>  <SCORE.INTER.VDW>
-20.0022

>  <SCORE.INTER.norm>
-0.41445

>  <SCORE.INTRA>
-4.82748

>  <SCORE.INTRA.DIHEDRAL>
-1.422

>  <SCORE.INTRA.DIHEDRAL.0>
9.29433

>  <SCORE.INTRA.POLAR>
0

>  <SCORE.INTRA.POLAR.0>
0

>  <SCORE.INTRA.REPUL>
0

>  <SCORE.INTRA.REPUL.0>
0

>  <SCORE.INTRA.SOLV>
-1.59816

>  <SCORE.INTRA.SOLV.lig_0>
-48.5102

>  <SCORE.INTRA.VDW>
-3.3174

>  <SCORE.INTRA.VDW.0>
0.379549

>  <SCORE.INTRA.norm>
-0.178796

>  <SCORE.RESTR>
0.0348211

>  <SCORE.RESTR.CAVITY>
0.0348211

>  <SCORE.RESTR.norm>
0.00128967

>  <SCORE.SYSTEM>
0

>  <SCORE.SYSTEM.CONST>
0

>  <SCORE.SYSTEM.DIHEDRAL>
0

>  <SCORE.SYSTEM.SOLV>
0

>  <SCORE.SYSTEM.norm>
0

>  <SCORE.heavy>
27

>  <SCORE.norm>
-0.591956

>  <RMSD>
4.944

$$$$
ligand
 OpenBabel11021811483D
libRbt.so/2013.1/901 2013/11/27
 27 29  0  0  0  0  0  0  0  0999 V2000
   49.8503   52.3152   28.6310 N   0  0  0  0  0  0  0  0  0  0  0  0
   48.7993   52.6595   29.5874 C   0  0  2  0  0  0  0  0  0  0  0  0
   47.5038   52.0439   29.1435 C   0  0  0  0  0  0  0  0  0  0  0  0
   47.3088   51.8178   27.9538 O   0  0  0  0  0  0  0  0  0  0  0  0
   48.6303   54.1762   29.6668 C   0  0  0  0  0  0  0  0  0  0  0  0
   47.7484   54.5107   30.8560 C   0  0  0  0  0  0  0  0  0  0  0  0
   48.6555   54.6441   32.4296 S   0  0  2  0  0  0  0  0  0  0  0  0
   48.2331   53.1221   33.3282 C   0  0  0  0  0  0  0  0  0  0  0  0
   47.4888   55.6491   33.5310 C   0  0  0  0  0  0  0  0  0  0  0  0
   46.9194   57.0330   33.0050 C   0  0  2  0  0  0  0  0  0  0  0  0
   46.0991   57.0283   31.8586 O   0  0  0  0  0  0  0  0  0  0  0  0
   47.7844   58.2271   32.9321 C   0  0  1  0  0  0  0  0  0  0  0  0
   48.9698   58.0982   33.7181 O   0  0  0  0  0  0  0  0  0  0  0  0
   48.0075   58.1957   31.3464 C   0  0  2  0  0  0  0  0  0  0  0  0
   48.6014   59.3798   30.9061 O   0  0  0  0  0  0  0  0  0  0  0  0
   46.5629   58.0556   30.8701 C   0  0  1  0  0  0  0  0  0  0  0  0
   46.6625   51.7315   29.9763 O   0  0  0  0  0  0  0  0  0  0  0  0
   48.7623   56.0081   26.7347 N   0  0  0  0  0  0  0  0  0  0  0  0
   49.2972   56.5497   27.8323 C   0  0  0  0  0  0  0  0  0  0  0  0
   48.5314   57.0090   28.8175 N   0  0  0  0  0  0  0  0  0  0  0  0
   47.1940   57.0453   28.7064 C   0  0  0  0  0  0  0  0  0  0  0  0
   46.5805   56.5319   27.5345 C   0  0  0  0  0  0  0  0  0  0  0  0
   47.4305   55.9914   26.5300 C   0  0  0  0  0  0  0  0  0  0  0  0
   46.9107   55.4586   25.3677 N   0  0  0  0  0  0  0  0  0  0  0  0
   45.2531   56.6923   27.6762 N   0  0  0  0  0  0  0  0  0  0  0  0
   45.0057   57.2622   28.8254 C   0  0  0  0  0  0  0  0  0  0  0  0
   46.1643   57.4948   29.5122 N   0  0  0  0  0  0  0  0  0  0  0  0
  2  1  1  6  0  0  0
  2  3  1  0  0  0  0
  2  5  1  0  0  0  0
  3  4  1  0  0  0  0
  3 17  1  0  0  0  0
  5  6  1  0  0  0  0
  7  6  1  6  0  0  0
  7  8  1  0  0  0  0
  7  9  1  0  0  0  0
 10  9  1  6  0  0  0
 10 11  1  0  0  0  0
 10 12  1  0  0  0  0
 11 16  1  0  0  0  0
 12 13  1  1  0  0  0
 12 14  1  0  0  0  0
 14 15  1  6  0  0  0
 14 16  1  0  0  0  0
 16 27  1  6  0  0  0
 18 19  2  0  0  0  0
 18 23  1  0  0  0  0
 19 20  1  0  0  0  0
 20 21  2  0  0  0  0
 21 22  1  0  0  0  0
 21 27  1  0  0  0  0
 22 23  2  0  0  0  0
 22 25  1  0  0  0  0
 23 24  1  0  0  0  0
 25 26  2  0  0  0  0
 26 27  1  0  0  0  0
M  END
>  <CHROM.1>
-27.00719289,-168.54190163,85.48696173,-105.51192894,-52.39112288,62.81645786
-108.76833028,47.65296564,55.65117672,30.08499048,-1.66700596,-1.34160914
0.84173148

>  <Name>
ligand

>  <RI>
0

>  <Rbt.Current_Directory>
/home/itssahil/PROJECTS/Mol_Feturizer/New_Systems/rnas/3IQR

>  <Rbt.Executable>
rbdock ($Id: //depot/dev/client3/rdock/2013.1/src/exe/rbdock.cxx#4 $)

>  <Rbt.Library>
libRbt.so (2013.1, Build901 2013/11/27)

>  <Rbt.Parameter_File>
/export/apps/rDock/src/rDock_2013.1_src/data/scripts/dock_solv.prm

>  <Rbt.Receptor>
prm/pocket_docking_4.prm

>  <SCORE>
-15.9775

>  <SCORE.INTER>
-10.1185

>  <SCORE.INTER.CONST>
1

>  <SCORE.INTER.POLAR>
0

>  <SCORE.INTER.ROT>
7

>  <SCORE.INTER.SOLV>
15.2214

>  <SCORE.INTER.VDW>
-20.0861

>  <SCORE.INTER.norm>
-0.37476

>  <SCORE.INTRA>
-5.85901

>  <SCORE.INTRA.DIHEDRAL>
0.184454

>  <SCORE.INTRA.DIHEDRAL.0>
9.29433

>  <SCORE.INTRA.POLAR>
0

>  <SCORE.INTRA.POLAR.0>
0

>  <SCORE.INTRA.REPUL>
0

>  <SCORE.INTRA.REPUL.0>
0

>  <SCORE.INTRA.SOLV>
-1.35693

>  <SCORE.INTRA.SOLV.lig_0>
-48.5102

>  <SCORE.INTRA.VDW>
-5.27278

>  <SCORE.INTRA.VDW.0>
0.379549

>  <SCORE.INTRA.norm>
-0.217

>  <SCORE.RESTR>
0

>  <SCORE.RESTR.CAVITY>
0

>  <SCORE.RESTR.norm>
0

>  <SCORE.SYSTEM>
0

>  <SCORE.SYSTEM.CONST>
0

>  <SCORE.SYSTEM.DIHEDRAL>
0

>  <SCORE.SYSTEM.SOLV>
0

>  <SCORE.SYSTEM.norm>
0

>  <SCORE.heavy>
27

>  <SCORE.norm>
-0.591761

>  <RMSD>
4.948

$$$$
ligand
 OpenBabel11021811483D
libRbt.so/2013.1/901 2013/11/27
 27 29  0  0  0  0  0  0  0  0999 V2000
   49.6386   55.3306   30.0542 N   0  0  0  0  0  0  0  0  0  0  0  0
   49.4787   53.9033   29.7798 C   0  0  2  0  0  0  0  0  0  0  0  0
   48.2910   53.7005   28.8840 C   0  0  0  0  0  0  0  0  0  0  0  0
   47.2789   54.3740   29.0466 O   0  0  0  0  0  0  0  0  0  0  0  0
   49.2596   53.1340   31.0818 C   0  0  0  0  0  0  0  0  0  0  0  0
   48.1178   53.7782   31.8469 C   0  0  0  0  0  0  0  0  0  0  0  0
   48.6314   55.1757   32.8957 S   0  0  2  0  0  0  0  0  0  0  0  0
   48.8791   54.4428   34.5400 C   0  0  0  0  0  0  0  0  0  0  0  0
   46.9911   55.9384   33.4540 C   0  0  0  0  0  0  0  0  0  0  0  0
   46.5108   57.3083   32.8147 C   0  0  2  0  0  0  0  0  0  0  0  0
   45.7417   57.2642   31.6341 O   0  0  0  0  0  0  0  0  0  0  0  0
   47.4334   58.4557   32.7058 C   0  0  1  0  0  0  0  0  0  0  0  0
   48.5761   58.3268   33.5526 O   0  0  0  0  0  0  0  0  0  0  0  0
   47.7233   58.3098   31.1374 C   0  0  2  0  0  0  0  0  0  0  0  0
   48.3909   59.4350   30.6503 O   0  0  0  0  0  0  0  0  0  0  0  0
   46.2959   58.2025   30.6045 C   0  0  1  0  0  0  0  0  0  0  0  0
   48.3523   52.8913   27.9672 O   0  0  0  0  0  0  0  0  0  0  0  0
   48.6113   56.1468   26.5371 N   0  0  0  0  0  0  0  0  0  0  0  0
   49.1135   56.7579   27.6134 C   0  0  0  0  0  0  0  0  0  0  0  0
   48.3222   57.2046   28.5842 N   0  0  0  0  0  0  0  0  0  0  0  0
   46.9850   57.1565   28.4757 C   0  0  0  0  0  0  0  0  0  0  0  0
   46.4025   56.5663   27.3243 C   0  0  0  0  0  0  0  0  0  0  0  0
   47.2827   56.0429   26.3369 C   0  0  0  0  0  0  0  0  0  0  0  0
   46.7951   55.4393   25.1955 N   0  0  0  0  0  0  0  0  0  0  0  0
   45.0680   56.6515   27.4642 N   0  0  0  0  0  0  0  0  0  0  0  0
   44.7877   57.2455   28.5933 C   0  0  0  0  0  0  0  0  0  0  0  0
   45.9307   57.5714   29.2683 N   0  0  0  0  0  0  0  0  0  0  0  0
  2  1  1  1  0  0  0
  2  3  1  0  0  0  0
  2  5  1  0  0  0  0
  3  4  1  0  0  0  0
  3 17  1  0  0  0  0
  5  6  1  0  0  0  0
  7  6  1  6  0  0  0
  7  8  1  0  0  0  0
  7  9  1  0  0  0  0
 10  9  1  6  0  0  0
 10 11  1  0  0  0  0
 10 12  1  0  0  0  0
 11 16  1  0  0  0  0
 12 13  1  1  0  0  0
 12 14  1  0  0  0  0
 14 15  1  6  0  0  0
 14 16  1  0  0  0  0
 16 27  1  6  0  0  0
 18 19  2  0  0  0  0
 18 23  1  0  0  0  0
 19 20  1  0  0  0  0
 20 21  2  0  0  0  0
 21 22  1  0  0  0  0
 21 27  1  0  0  0  0
 22 23  2  0  0  0  0
 22 25  1  0  0  0  0
 23 24  1  0  0  0  0
 25 26  2  0  0  0  0
 26 27  1  0  0  0  0
M  END
>  <CHROM.1>
-38.97867481,52.59742226,-85.57766078,-95.27460175,-105.75738303,88.45510329
-115.61713171,47.65714125,56.11663026,30.13800856,-1.25442495,1.08854619
-1.92539077

>  <Name>
ligand

>  <RI>
0

>  <Rbt.Current_Directory>
/home/itssahil/PROJECTS/Mol_Feturizer/New_Systems/rnas/3IQR

>  <Rbt.Executable>
rbdock ($Id: //depot/dev/client3/rdock/2013.1/src/exe/rbdock.cxx#4 $)

>  <Rbt.Library>
libRbt.so (2013.1, Build901 2013/11/27)

>  <Rbt.Parameter_File>
/export/apps/rDock/src/rDock_2013.1_src/data/scripts/dock_solv.prm

>  <Rbt.Receptor>
prm/pocket_docking_3.prm

>  <SCORE>
-12.1545

>  <SCORE.INTER>
-9.85537

>  <SCORE.INTER.CONST>
1

>  <SCORE.INTER.POLAR>
0

>  <SCORE.INTER.ROT>
7

>  <SCORE.INTER.SOLV>
16.1692

>  <SCORE.INTER.VDW>
-20.2267

>  <SCORE.INTER.norm>
-0.365014

>  <SCORE.INTRA>
-2.29916

>  <SCORE.INTRA.DIHEDRAL>
3.33422

>  <SCORE.INTRA.DIHEDRAL.0>
9.29433

>  <SCORE.INTRA.POLAR>
0

>  <SCORE.INTRA.POLAR.0>
0

>  <SCORE.INTRA.REPUL>
0

>  <SCORE.INTRA.REPUL.0>
0

>  <SCORE.INTRA.SOLV>
3.01864

>  <SCORE.INTRA.SOLV.lig_0>
-48.5102

>  <SCORE.INTRA.VDW>
-5.47559

>  <SCORE.INTRA.VDW.0>
0.379549

>  <SCORE.INTRA.norm>
-0.0851541

>  <SCORE.RESTR>
0

>  <SCORE.RESTR.CAVITY>
0

>  <SCORE.RESTR.norm>
0

>  <SCORE.SYSTEM>
0

>  <SCORE.SYSTEM.CONST>
0

>  <SCORE.SYSTEM.DIHEDRAL>
0

>  <SCORE.SYSTEM.SOLV>
0

>  <SCORE.SYSTEM.norm>
0

>  <SCORE.heavy>
27

>  <SCORE.norm>
-0.450168

>  <RMSD>
4.953

$$$$
ligand
 OpenBabel11021811483D
libRbt.so/2013.1/901 2013/11/27
 27 29  0  0  0  0  0  0  0  0999 V2000
   47.5615   53.2562   30.4488 N   0  0  0  0  0  0  0  0  0  0  0  0
   46.1446   53.1849   30.0949 C   0  0  2  0  0  0  0  0  0  0  0  0
   45.9878   52.3825   28.8356 C   0  0  0  0  0  0  0  0  0  0  0  0
   46.9792   52.0408   28.1994 O   0  0  0  0  0  0  0  0  0  0  0  0
   45.5836   54.5878   29.8665 C   0  0  0  0  0  0  0  0  0  0  0  0
   46.4530   55.3052   28.8500 C   0  0  0  0  0  0  0  0  0  0  0  0
   45.8744   56.9829   28.4410 S   0  0  2  0  0  0  0  0  0  0  0  0
   47.2422   57.7179   27.4970 C   0  0  0  0  0  0  0  0  0  0  0  0
   46.3463   57.9997   29.9666 C   0  0  0  0  0  0  0  0  0  0  0  0
   47.8171   57.8917   30.5509 C   0  0  2  0  0  0  0  0  0  0  0  0
   48.1694   56.7315   31.2700 O   0  0  0  0  0  0  0  0  0  0  0  0
   48.4499   59.0443   31.2219 C   0  0  1  0  0  0  0  0  0  0  0  0
   47.7948   60.2795   30.9313 O   0  0  0  0  0  0  0  0  0  0  0  0
   48.2666   58.5078   32.7199 C   0  0  2  0  0  0  0  0  0  0  0  0
   49.0089   59.2786   33.6165 O   0  0  0  0  0  0  0  0  0  0  0  0
   48.8191   57.0914   32.5723 C   0  0  1  0  0  0  0  0  0  0  0  0
   44.8715   52.0367   28.4704 O   0  0  0  0  0  0  0  0  0  0  0  0
   44.6938   54.6353   34.3275 N   0  0  0  0  0  0  0  0  0  0  0  0
   44.8035   55.7218   33.5583 C   0  0  0  0  0  0  0  0  0  0  0  0
   45.9932   56.1888   33.1911 N   0  0  0  0  0  0  0  0  0  0  0  0
   47.1312   55.6547   33.6620 C   0  0  0  0  0  0  0  0  0  0  0  0
   47.0652   54.5323   34.5276 C   0  0  0  0  0  0  0  0  0  0  0  0
   45.7760   54.0227   34.8467 C   0  0  0  0  0  0  0  0  0  0  0  0
   45.6274   52.9245   35.6693 N   0  0  0  0  0  0  0  0  0  0  0  0
   48.3281   54.2037   34.8516 N   0  0  0  0  0  0  0  0  0  0  0  0
   49.1544   55.0288   34.2660 C   0  0  0  0  0  0  0  0  0  0  0  0
   48.4750   55.9411   33.5081 N   0  0  0  0  0  0  0  0  0  0  0  0
  2  1  1  6  0  0  0
  2  3  1  0  0  0  0
  2  5  1  0  0  0  0
  3  4  1  0  0  0  0
  3 17  1  0  0  0  0
  5  6  1  0  0  0  0
  7  6  1  1  0  0  0
  7  8  1  0  0  0  0
  7  9  1  0  0  0  0
 10  9  1  1  0  0  0
 10 11  1  0  0  0  0
 10 12  1  0  0  0  0
 11 16  1  0  0  0  0
 12 13  1  1  0  0  0
 12 14  1  0  0  0  0
 14 15  1  1  0  0  0
 14 16  1  0  0  0  0
 16 27  1  1  0  0  0
 18 19  2  0  0  0  0
 18 23  1  0  0  0  0
 19 20  1  0  0  0  0
 20 21  2  0  0  0  0
 21 22  1  0  0  0  0
 21 27  1  0  0  0  0
 22 23  2  0  0  0  0
 22 25  1  0  0  0  0
 23 24  1  0  0  0  0
 25 26  2  0  0  0  0
 26 27  1  0  0  0  0
M  END
>  <CHROM.1>
-8.30055146,53.45263885,178.37177285,168.90522711,49.00648856,-74.67939623
-55.75349109,46.93613018,55.76491909,31.46422710,2.45302756,-1.20917096,-1.18531043

>  <Name>
ligand

>  <RI>
0

>  <Rbt.Current_Directory>
/home/itssahil/PROJECTS/Mol_Feturizer/New_Systems/rnas/3IQR

>  <Rbt.Executable>
rbdock ($Id: //depot/dev/client3/rdock/2013.1/src/exe/rbdock.cxx#4 $)

>  <Rbt.Library>
libRbt.so (2013.1, Build901 2013/11/27)

>  <Rbt.Parameter_File>
/export/apps/rDock/src/rDock_2013.1_src/data/scripts/dock_solv.prm

>  <Rbt.Receptor>
prm/pocket_docking_5.prm

>  <SCORE>
-19.2691

>  <SCORE.INTER>
-13.5429

>  <SCORE.INTER.CONST>
1

>  <SCORE.INTER.POLAR>
0

>  <SCORE.INTER.ROT>
7

>  <SCORE.INTER.SOLV>
13.9503

>  <SCORE.INTER.VDW>
-21.9454

>  <SCORE.INTER.norm>
-0.501588

>  <SCORE.INTRA>
-5.72623

>  <SCORE.INTRA.DIHEDRAL>
-4.55188

>  <SCORE.INTRA.DIHEDRAL.0>
9.29433

>  <SCORE.INTRA.POLAR>
0

>  <SCORE.INTRA.POLAR.0>
0

>  <SCORE.INTRA.REPUL>
0

>  <SCORE.INTRA.REPUL.0>
0

>  <SCORE.INTRA.SOLV>
-0.340663

>  <SCORE.INTRA.SOLV.lig_0>
-48.5102

>  <SCORE.INTRA.VDW>
-3.27996

>  <SCORE.INTRA.VDW.0>
0.379549

>  <SCORE.INTRA.norm>
-0.212083

>  <SCORE.RESTR>
0

>  <SCORE.RESTR.CAVITY>
0

>  <SCORE.RESTR.norm>
0

>  <SCORE.SYSTEM>
0

>  <SCORE.SYSTEM.CONST>
0

>  <SCORE.SYSTEM.DIHEDRAL>
0

>  <SCORE.SYSTEM.SOLV>
0

>  <SCORE.SYSTEM.norm>
0

>  <SCORE.heavy>
27

>  <SCORE.norm>
-0.71367

>  <RMSD>
4.963

$$$$
ligand
 OpenBabel11021811483D
libRbt.so/2013.1/901 2013/11/27
 27 29  0  0  0  0  0  0  0  0999 V2000
   49.5818   51.0063   25.0054 N   0  0  0  0  0  0  0  0  0  0  0  0
   48.4671   51.2252   25.9260 C   0  0  2  0  0  0  0  0  0  0  0  0
   47.4135   52.0478   25.2425 C   0  0  0  0  0  0  0  0  0  0  0  0
   46.2287   51.8629   25.5004 O   0  0  0  0  0  0  0  0  0  0  0  0
   48.9472   51.9651   27.1739 C   0  0  0  0  0  0  0  0  0  0  0  0
   47.7700   52.1620   28.1117 C   0  0  0  0  0  0  0  0  0  0  0  0
   48.0477   53.4360   29.3830 S   0  0  2  0  0  0  0  0  0  0  0  0
   46.3856   53.8280   30.0043 C   0  0  0  0  0  0  0  0  0  0  0  0
   48.0868   55.0496   28.3937 C   0  0  0  0  0  0  0  0  0  0  0  0
   48.8917   56.2929   28.9617 C   0  0  2  0  0  0  0  0  0  0  0  0
   49.3941   56.2223   30.2769 O   0  0  0  0  0  0  0  0  0  0  0  0
   48.4097   57.6704   28.7394 C   0  0  1  0  0  0  0  0  0  0  0  0
   47.4475   57.7550   27.6875 O   0  0  0  0  0  0  0  0  0  0  0  0
   47.8330   57.9033   30.2154 C   0  0  2  0  0  0  0  0  0  0  0  0
   47.5170   59.2481   30.4173 O   0  0  0  0  0  0  0  0  0  0  0  0
   49.0302   57.4538   31.0506 C   0  0  1  0  0  0  0  0  0  0  0  0
   47.7437   52.9296   24.4598 O   0  0  0  0  0  0  0  0  0  0  0  0
   48.6400   53.0954   33.6931 N   0  0  0  0  0  0  0  0  0  0  0  0
   48.6163   53.3258   32.3777 C   0  0  0  0  0  0  0  0  0  0  0  0
   48.7622   54.5546   31.8906 N   0  0  0  0  0  0  0  0  0  0  0  0
   48.8324   55.6245   32.6984 C   0  0  0  0  0  0  0  0  0  0  0  0
   48.8057   55.4359   34.1044 C   0  0  0  0  0  0  0  0  0  0  0  0
   48.7124   54.1011   34.5873 C   0  0  0  0  0  0  0  0  0  0  0  0
   48.6963   53.8324   35.9410 N   0  0  0  0  0  0  0  0  0  0  0  0
   48.8841   56.6524   34.6716 N   0  0  0  0  0  0  0  0  0  0  0  0
   48.9499   57.5628   33.7371 C   0  0  0  0  0  0  0  0  0  0  0  0
   48.9334   56.9886   32.4968 N   0  0  0  0  0  0  0  0  0  0  0  0
  2  1  1  6  0  0  0
  2  3  1  0  0  0  0
  2  5  1  0  0  0  0
  3  4  1  0  0  0  0
  3 17  1  0  0  0  0
  5  6  1  0  0  0  0
  7  6  1  6  0  0  0
  7  8  1  0  0  0  0
  7  9  1  0  0  0  0
 10  9  1  1  0  0  0
 10 11  1  0  0  0  0
 10 12  1  0  0  0  0
 11 16  1  0  0  0  0
 12 13  1  6  0  0  0
 12 14  1  0  0  0  0
 14 15  1  6  0  0  0
 14 16  1  0  0  0  0
 16 27  1  1  0  0  0
 18 19  2  0  0  0  0
 18 23  1  0  0  0  0
 19 20  1  0  0  0  0
 20 21  2  0  0  0  0
 21 22  1  0  0  0  0
 21 27  1  0  0  0  0
 22 23  2  0  0  0  0
 22 25  1  0  0  0  0
 23 24  1  0  0  0  0
 25 26  2  0  0  0  0
 26 27  1  0  0  0  0
M  END
>  <CHROM.1>
146.42002462,-179.41644585,-162.60538349,163.11045197,-153.90926452,-9.01771135
-16.44675124,48.28971811,54.72841913,29.95796559,-2.44491994,-1.44871755
0.23883859

>  <Name>
ligand

>  <RI>
0

>  <Rbt.Current_Directory>
/home/itssahil/PROJECTS/Mol_Feturizer/New_Systems/rnas/3IQR

>  <Rbt.Executable>
rbdock ($Id: //depot/dev/client3/rdock/2013.1/src/exe/rbdock.cxx#4 $)

>  <Rbt.Library>
libRbt.so (2013.1, Build901 2013/11/27)

>  <Rbt.Parameter_File>
/export/apps/rDock/src/rDock_2013.1_src/data/scripts/dock_solv.prm

>  <Rbt.Receptor>
prm/pocket_docking_4.prm

>  <SCORE>
-12.1986

>  <SCORE.INTER>
-11.2989

>  <SCORE.INTER.CONST>
1

>  <SCORE.INTER.POLAR>
0

>  <SCORE.INTER.ROT>
7

>  <SCORE.INTER.SOLV>
17.6874

>  <SCORE.INTER.VDW>
-21.6951

>  <SCORE.INTER.norm>
-0.418476

>  <SCORE.INTRA>
-0.91483

>  <SCORE.INTRA.DIHEDRAL>
2.23069

>  <SCORE.INTRA.DIHEDRAL.0>
9.29433

>  <SCORE.INTRA.POLAR>
0

>  <SCORE.INTRA.POLAR.0>
0

>  <SCORE.INTRA.REPUL>
0

>  <SCORE.INTRA.REPUL.0>
0

>  <SCORE.INTRA.SOLV>
-1.68436

>  <SCORE.INTRA.SOLV.lig_0>
-48.5102

>  <SCORE.INTRA.VDW>
-1.18799

>  <SCORE.INTRA.VDW.0>
0.379549

>  <SCORE.INTRA.norm>
-0.0338826

>  <SCORE.RESTR>
0.0150839

>  <SCORE.RESTR.CAVITY>
0.0150839

>  <SCORE.RESTR.norm>
0.000558665

>  <SCORE.SYSTEM>
0

>  <SCORE.SYSTEM.CONST>
0

>  <SCORE.SYSTEM.DIHEDRAL>
0

>  <SCORE.SYSTEM.SOLV>
0

>  <SCORE.SYSTEM.norm>
0

>  <SCORE.heavy>
27

>  <SCORE.norm>
-0.4518

>  <RMSD>
4.972

$$$$
ligand
 OpenBabel11021811483D
libRbt.so/2013.1/901 2013/11/27
 27 29  0  0  0  0  0  0  0  0999 V2000
   46.8441   55.1342   28.5758 N   0  0  0  0  0  0  0  0  0  0  0  0
   47.6480   56.1228   29.2929 C   0  0  2  0  0  0  0  0  0  0  0  0
   48.4445   56.9252   28.3050 C   0  0  0  0  0  0  0  0  0  0  0  0
   49.0248   56.3609   27.3834 O   0  0  0  0  0  0  0  0  0  0  0  0
   48.6058   55.4275   30.2595 C   0  0  0  0  0  0  0  0  0  0  0  0
   49.2347   56.4716   31.1641 C   0  0  0  0  0  0  0  0  0  0  0  0
   48.0560   57.2615   32.3058 S   0  0  2  0  0  0  0  0  0  0  0  0
   49.0349   58.5289   33.1646 C   0  0  0  0  0  0  0  0  0  0  0  0
   48.1060   56.1484   33.8363 C   0  0  0  0  0  0  0  0  0  0  0  0
   47.7292   54.6139   33.6968 C   0  0  2  0  0  0  0  0  0  0  0  0
   46.4023   54.2771   33.3606 O   0  0  0  0  0  0  0  0  0  0  0  0
   48.2056   53.6262   34.6851 C   0  0  1  0  0  0  0  0  0  0  0  0
   49.2946   54.1129   35.4704 O   0  0  0  0  0  0  0  0  0  0  0  0
   46.8168   53.4637   35.4662 C   0  0  2  0  0  0  0  0  0  0  0  0
   46.8634   52.3745   36.3382 O   0  0  0  0  0  0  0  0  0  0  0  0
   45.8685   53.2303   34.2917 C   0  0  1  0  0  0  0  0  0  0  0  0
   48.4779   58.1455   28.3993 O   0  0  0  0  0  0  0  0  0  0  0  0
   42.0625   54.5709   31.1535 N   0  0  0  0  0  0  0  0  0  0  0  0
   43.3789   54.4842   30.9447 C   0  0  0  0  0  0  0  0  0  0  0  0
   44.2045   54.0841   31.9073 N   0  0  0  0  0  0  0  0  0  0  0  0
   43.7660   53.8535   33.1550 C   0  0  0  0  0  0  0  0  0  0  0  0
   42.3825   53.9863   33.4405 C   0  0  0  0  0  0  0  0  0  0  0  0
   41.5224   54.3548   32.3690 C   0  0  0  0  0  0  0  0  0  0  0  0
   40.1623   54.4897   32.5612 N   0  0  0  0  0  0  0  0  0  0  0  0
   42.2159   53.7079   34.7453 N   0  0  0  0  0  0  0  0  0  0  0  0
   43.3739   53.4240   35.2791 C   0  0  0  0  0  0  0  0  0  0  0  0
   44.3688   53.4862   34.3439 N   0  0  0  0  0  0  0  0  0  0  0  0
  2  1  1  6  0  0  0
  2  3  1  0  0  0  0
  2  5  1  0  0  0  0
  3  4  1  0  0  0  0
  3 17  1  0  0  0  0
  5  6  1  0  0  0  0
  7  6  1  6  0  0  0
  7  8  1  0  0  0  0
  7  9  1  0  0  0  0
 10  9  1  1  0  0  0
 10 11  1  0  0  0  0
 10 12  1  0  0  0  0
 11 16  1  0  0  0  0
 12 13  1  1  0  0  0
 12 14  1  0  0  0  0
 14 15  1  1  0  0  0
 14 16  1  0  0  0  0
 16 27  1  1  0  0  0
 18 19  2  0  0  0  0
 18 23  1  0  0  0  0
 19 20  1  0  0  0  0
 20 21  2  0  0  0  0
 21 22  1  0  0  0  0
 21 27  1  0  0  0  0
 22 23  2  0  0  0  0
 22 25  1  0  0  0  0
 23 24  1  0  0  0  0
 25 26  2  0  0  0  0
 26 27  1  0  0  0  0
M  END
>  <CHROM.1>
-44.37577596,-169.62666470,67.07582692,-176.00141364,-58.98010791,-66.05236740
38.53519060,46.20953105,55.05687062,32.42238786,0.72753041,-0.25040375,-1.17699191

>  <Name>
ligand

>  <RI>
0

>  <Rbt.Current_Directory>
/home/itssahil/PROJECTS/Mol_Feturizer/New_Systems/rnas/3IQR

>  <Rbt.Executable>
rbdock ($Id: //depot/dev/client3/rdock/2013.1/src/exe/rbdock.cxx#4 $)

>  <Rbt.Library>
libRbt.so (2013.1, Build901 2013/11/27)

>  <Rbt.Parameter_File>
/export/apps/rDock/src/rDock_2013.1_src/data/scripts/dock_solv.prm

>  <Rbt.Receptor>
prm/pocket_docking_7.prm

>  <SCORE>
-18.9229

>  <SCORE.INTER>
-13.2842

>  <SCORE.INTER.CONST>
1

>  <SCORE.INTER.POLAR>
0

>  <SCORE.INTER.ROT>
7

>  <SCORE.INTER.SOLV>
9.28657

>  <SCORE.INTER.VDW>
-20.2183

>  <SCORE.INTER.norm>
-0.492008

>  <SCORE.INTRA>
-5.63872

>  <SCORE.INTRA.DIHEDRAL>
-3.75396

>  <SCORE.INTRA.DIHEDRAL.0>
9.29433

>  <SCORE.INTRA.POLAR>
0

>  <SCORE.INTRA.POLAR.0>
0

>  <SCORE.INTRA.REPUL>
0

>  <SCORE.INTRA.REPUL.0>
0

>  <SCORE.INTRA.SOLV>
-1.62744

>  <SCORE.INTRA.SOLV.lig_0>
-48.5102

>  <SCORE.INTRA.VDW>
-2.94801

>  <SCORE.INTRA.VDW.0>
0.379549

>  <SCORE.INTRA.norm>
-0.208841

>  <SCORE.RESTR>
0

>  <SCORE.RESTR.CAVITY>
0

>  <SCORE.RESTR.norm>
0

>  <SCORE.SYSTEM>
0

>  <SCORE.SYSTEM.CONST>
0

>  <SCORE.SYSTEM.DIHEDRAL>
0

>  <SCORE.SYSTEM.SOLV>
0

>  <SCORE.SYSTEM.norm>
0

>  <SCORE.heavy>
27

>  <SCORE.norm>
-0.700849

>  <RMSD>
4.974

$$$$
ligand
 OpenBabel11021811483D
libRbt.so/2013.1/901 2013/11/27
 27 29  0  0  0  0  0  0  0  0999 V2000
   48.7107   51.7848   29.1086 N   0  0  0  0  0  0  0  0  0  0  0  0
   48.2474   53.1216   29.4776 C   0  0  2  0  0  0  0  0  0  0  0  0
   46.8525   53.3235   28.9603 C   0  0  0  0  0  0  0  0  0  0  0  0
   45.9751   53.7389   29.7100 O   0  0  0  0  0  0  0  0  0  0  0  0
   49.1630   54.1858   28.8740 C   0  0  0  0  0  0  0  0  0  0  0  0
   48.7796   55.5415   29.4389 C   0  0  0  0  0  0  0  0  0  0  0  0
   47.3399   56.2988   28.6202 S   0  0  2  0  0  0  0  0  0  0  0  0
   47.7776   56.3174   26.8566 C   0  0  0  0  0  0  0  0  0  0  0  0
   47.6807   58.1564   28.7510 C   0  0  0  0  0  0  0  0  0  0  0  0
   47.3971   58.9065   30.1197 C   0  0  2  0  0  0  0  0  0  0  0  0
   48.0608   58.4584   31.2799 O   0  0  0  0  0  0  0  0  0  0  0  0
   46.0220   59.2795   30.5059 C   0  0  1  0  0  0  0  0  0  0  0  0
   45.1150   59.2602   29.4030 O   0  0  0  0  0  0  0  0  0  0  0  0
   45.8123   58.1151   31.5854 C   0  0  2  0  0  0  0  0  0  0  0  0
   44.6612   58.3424   32.3419 O   0  0  0  0  0  0  0  0  0  0  0  0
   47.0904   58.2710   32.4072 C   0  0  1  0  0  0  0  0  0  0  0  0
   46.6054   53.1116   27.7800 O   0  0  0  0  0  0  0  0  0  0  0  0
   45.6452   53.9581   34.7397 N   0  0  0  0  0  0  0  0  0  0  0  0
   44.9321   54.8840   34.0932 C   0  0  0  0  0  0  0  0  0  0  0  0
   45.5186   55.9351   33.5278 N   0  0  0  0  0  0  0  0  0  0  0  0
   46.8331   56.1656   33.6728 C   0  0  0  0  0  0  0  0  0  0  0  0
   47.6248   55.2386   34.3989 C   0  0  0  0  0  0  0  0  0  0  0  0
   46.9717   54.0941   34.9348 C   0  0  0  0  0  0  0  0  0  0  0  0
   47.6739   53.1380   35.6403 N   0  0  0  0  0  0  0  0  0  0  0  0
   48.8862   55.7040   34.3972 N   0  0  0  0  0  0  0  0  0  0  0  0
   48.9308   56.8326   33.7409 C   0  0  0  0  0  0  0  0  0  0  0  0
   47.6954   57.1644   33.2596 N   0  0  0  0  0  0  0  0  0  0  0  0
  2  1  1  6  0  0  0
  2  3  1  0  0  0  0
  2  5  1  0  0  0  0
  3  4  1  0  0  0  0
  3 17  1  0  0  0  0
  5  6  1  0  0  0  0
  7  6  1  1  0  0  0
  7  8  1  0  0  0  0
  7  9  1  0  0  0  0
 10  9  1  6  0  0  0
 10 11  1  0  0  0  0
 10 12  1  0  0  0  0
 11 16  1  0  0  0  0
 12 13  1  6  0  0  0
 12 14  1  0  0  0  0
 14 15  1  1  0  0  0
 14 16  1  0  0  0  0
 16 27  1  6  0  0  0
 18 19  2  0  0  0  0
 18 23  1  0  0  0  0
 19 20  1  0  0  0  0
 20 21  2  0  0  0  0
 21 22  1  0  0  0  0
 21 27  1  0  0  0  0
 22 23  2  0  0  0  0
 22 25  1  0  0  0  0
 23 24  1  0  0  0  0
 25 26  2  0  0  0  0
 26 27  1  0  0  0  0
M  END
>  <CHROM.1>
130.00019091,-171.76384276,-80.88231278,-54.54021298,-78.74555516,58.17502757
-134.33751539,47.10269393,55.94209262,31.16880675,-1.12027023,-1.33142864
2.01877759

>  <Name>
ligand

>  <RI>
0

>  <Rbt.Current_Directory>
/home/itssahil/PROJECTS/Mol_Feturizer/New_Systems/rnas/3IQR

>  <Rbt.Executable>
rbdock ($Id: //depot/dev/client3/rdock/2013.1/src/exe/rbdock.cxx#4 $)

>  <Rbt.Library>
libRbt.so (2013.1, Build901 2013/11/27)

>  <Rbt.Parameter_File>
/export/apps/rDock/src/rDock_2013.1_src/data/scripts/dock_solv.prm

>  <Rbt.Receptor>
prm/pocket_docking_5.prm

>  <SCORE>
-17.2874

>  <SCORE.INTER>
-11.8332

>  <SCORE.INTER.CONST>
1

>  <SCORE.INTER.POLAR>
0

>  <SCORE.INTER.ROT>
7

>  <SCORE.INTER.SOLV>
14.6599

>  <SCORE.INTER.VDW>
-21.0421

>  <SCORE.INTER.norm>
-0.438267

>  <SCORE.INTRA>
-5.53585

>  <SCORE.INTRA.DIHEDRAL>
-2.39301

>  <SCORE.INTRA.DIHEDRAL.0>
9.29433

>  <SCORE.INTRA.POLAR>
0

>  <SCORE.INTRA.POLAR.0>
0

>  <SCORE.INTRA.REPUL>
0

>  <SCORE.INTRA.REPUL.0>
0

>  <SCORE.INTRA.SOLV>
-1.34956

>  <SCORE.INTRA.SOLV.lig_0>
-48.5102

>  <SCORE.INTRA.VDW>
-3.66456

>  <SCORE.INTRA.VDW.0>
0.379549

>  <SCORE.INTRA.norm>
-0.205031

>  <SCORE.RESTR>
0.0816518

>  <SCORE.RESTR.CAVITY>
0.0816518

>  <SCORE.RESTR.norm>
0.00302414

>  <SCORE.SYSTEM>
0

>  <SCORE.SYSTEM.CONST>
0

>  <SCORE.SYSTEM.DIHEDRAL>
0

>  <SCORE.SYSTEM.SOLV>
0

>  <SCORE.SYSTEM.norm>
0

>  <SCORE.heavy>
27

>  <SCORE.norm>
-0.640275

>  <RMSD>
4.983

$$$$
ligand
 OpenBabel11021811483D
libRbt.so/2013.1/901 2013/11/27
 27 29  0  0  0  0  0  0  0  0999 V2000
   47.9443   52.6440   24.8454 N   0  0  0  0  0  0  0  0  0  0  0  0
   48.0297   54.0707   25.1537 C   0  0  2  0  0  0  0  0  0  0  0  0
   49.3009   54.6268   24.5803 C   0  0  0  0  0  0  0  0  0  0  0  0
   49.2586   55.3824   23.6150 O   0  0  0  0  0  0  0  0  0  0  0  0
   48.0271   54.2876   26.6663 C   0  0  0  0  0  0  0  0  0  0  0  0
   48.0527   55.7788   26.9488 C   0  0  0  0  0  0  0  0  0  0  0  0
   47.7951   56.1996   28.7019 S   0  0  2  0  0  0  0  0  0  0  0  0
   45.9928   56.1342   28.9249 C   0  0  0  0  0  0  0  0  0  0  0  0
   47.7527   58.0922   28.7029 C   0  0  0  0  0  0  0  0  0  0  0  0
   47.4585   58.8647   30.0567 C   0  0  2  0  0  0  0  0  0  0  0  0
   48.1145   58.4371   31.2289 O   0  0  0  0  0  0  0  0  0  0  0  0
   46.0801   59.2421   30.4269 C   0  0  1  0  0  0  0  0  0  0  0  0
   45.1809   59.2029   29.3182 O   0  0  0  0  0  0  0  0  0  0  0  0
   45.8644   58.0956   31.5244 C   0  0  2  0  0  0  0  0  0  0  0  0
   44.7077   58.3338   32.2688 O   0  0  0  0  0  0  0  0  0  0  0  0
   47.1365   58.2672   32.3524 C   0  0  1  0  0  0  0  0  0  0  0  0
   50.3736   54.3562   25.1048 O   0  0  0  0  0  0  0  0  0  0  0  0
   45.6733   54.0103   34.7750 N   0  0  0  0  0  0  0  0  0  0  0  0
   44.9640   54.9258   34.1096 C   0  0  0  0  0  0  0  0  0  0  0  0
   45.5549   55.9622   33.5222 N   0  0  0  0  0  0  0  0  0  0  0  0
   46.8705   56.1898   33.6617 C   0  0  0  0  0  0  0  0  0  0  0  0
   47.6583   55.2747   34.4067 C   0  0  0  0  0  0  0  0  0  0  0  0
   47.0005   54.1445   34.9667 C   0  0  0  0  0  0  0  0  0  0  0  0
   47.6988   53.2002   35.6917 N   0  0  0  0  0  0  0  0  0  0  0  0
   48.9219   55.7343   34.3948 N   0  0  0  0  0  0  0  0  0  0  0  0
   48.9712   56.8487   33.7150 C   0  0  0  0  0  0  0  0  0  0  0  0
   47.7369   57.1759   33.2274 N   0  0  0  0  0  0  0  0  0  0  0  0
  2  1  1  1  0  0  0
  2  3  1  0  0  0  0
  2  5  1  0  0  0  0
  3  4  1  0  0  0  0
  3 17  1  0  0  0  0
  5  6  1  0  0  0  0
  7  6  1  6  0  0  0
  7  8  1  0  0  0  0
  7  9  1  0  0  0  0
 10  9  1  6  0  0  0
 10 11  1  0  0  0  0
 10 12  1  0  0  0  0
 11 16  1  0  0  0  0
 12 13  1  6  0  0  0
 12 14  1  0  0  0  0
 14 15  1  1  0  0  0
 14 16  1  0  0  0  0
 16 27  1  6  0  0  0
 18 19  2  0  0  0  0
 18 23  1  0  0  0  0
 19 20  1  0  0  0  0
 20 21  2  0  0  0  0
 21 22  1  0  0  0  0
 21 27  1  0  0  0  0
 22 23  2  0  0  0  0
 22 25  1  0  0  0  0
 23 24  1  0  0  0  0
 25 26  2  0  0  0  0
 26 27  1  0  0  0  0
M  END
>  <CHROM.1>
109.14625664,-177.44962286,171.10462633,-81.54410845,176.49583908,44.43857759
-134.93198092,47.36191146,56.16248424,30.27835497,-0.95401344,-1.19636803
2.02855467

>  <Name>
ligand

>  <RI>
0

>  <Rbt.Current_Directory>
/home/itssahil/PROJECTS/Mol_Feturizer/New_Systems/rnas/3IQR

>  <Rbt.Executable>
rbdock ($Id: //depot/dev/client3/rdock/2013.1/src/exe/rbdock.cxx#4 $)

>  <Rbt.Library>
libRbt.so (2013.1, Build901 2013/11/27)

>  <Rbt.Parameter_File>
/export/apps/rDock/src/rDock_2013.1_src/data/scripts/dock_solv.prm

>  <Rbt.Receptor>
prm/pocket_docking_5.prm

>  <SCORE>
-18.3578

>  <SCORE.INTER>
-13.3281

>  <SCORE.INTER.CONST>
1

>  <SCORE.INTER.POLAR>
0

>  <SCORE.INTER.ROT>
7

>  <SCORE.INTER.SOLV>
12.067

>  <SCORE.INTER.VDW>
-21.1744

>  <SCORE.INTER.norm>
-0.493634

>  <SCORE.INTRA>
-5.10673

>  <SCORE.INTRA.DIHEDRAL>
-4.10939

>  <SCORE.INTRA.DIHEDRAL.0>
9.29433

>  <SCORE.INTRA.POLAR>
0

>  <SCORE.INTRA.POLAR.0>
0

>  <SCORE.INTRA.REPUL>
0

>  <SCORE.INTRA.REPUL.0>
0

>  <SCORE.INTRA.SOLV>
-1.25982

>  <SCORE.INTRA.SOLV.lig_0>
-48.5102

>  <SCORE.INTRA.VDW>
-2.42213

>  <SCORE.INTRA.VDW.0>
0.379549

>  <SCORE.INTRA.norm>
-0.189138

>  <SCORE.RESTR>
0.0770234

>  <SCORE.RESTR.CAVITY>
0.0770234

>  <SCORE.RESTR.norm>
0.00285272

>  <SCORE.SYSTEM>
0

>  <SCORE.SYSTEM.CONST>
0

>  <SCORE.SYSTEM.DIHEDRAL>
0

>  <SCORE.SYSTEM.SOLV>
0

>  <SCORE.SYSTEM.norm>
0

>  <SCORE.heavy>
27

>  <SCORE.norm>
-0.67992

>  <RMSD>
4.983

$$$$
ligand
 OpenBabel11021811483D
libRbt.so/2013.1/901 2013/11/27
 27 29  0  0  0  0  0  0  0  0999 V2000
   47.7146   53.3239   24.9835 N   0  0  0  0  0  0  0  0  0  0  0  0
   47.9212   54.7559   24.7723 C   0  0  2  0  0  0  0  0  0  0  0  0
   49.1485   54.9613   23.9323 C   0  0  0  0  0  0  0  0  0  0  0  0
   49.0448   55.4103   22.7956 O   0  0  0  0  0  0  0  0  0  0  0  0
   48.1074   55.4681   26.1114 C   0  0  0  0  0  0  0  0  0  0  0  0
   46.7994   55.4194   26.8799 C   0  0  0  0  0  0  0  0  0  0  0  0
   46.9466   55.9486   28.6163 S   0  0  2  0  0  0  0  0  0  0  0  0
   45.2372   56.2790   29.1372 C   0  0  0  0  0  0  0  0  0  0  0  0
   47.2935   57.8052   28.4870 C   0  0  0  0  0  0  0  0  0  0  0  0
   47.3162   58.6876   29.8049 C   0  0  2  0  0  0  0  0  0  0  0  0
   48.0737   58.2328   30.9034 O   0  0  0  0  0  0  0  0  0  0  0  0
   46.0754   59.2876   30.3338 C   0  0  1  0  0  0  0  0  0  0  0  0
   45.0240   59.3217   29.3679 O   0  0  0  0  0  0  0  0  0  0  0  0
   45.8676   58.2497   31.5358 C   0  0  2  0  0  0  0  0  0  0  0  0
   44.8802   58.7000   32.4140 O   0  0  0  0  0  0  0  0  0  0  0  0
   47.2605   58.2747   32.1623 C   0  0  1  0  0  0  0  0  0  0  0  0
   50.2533   54.7184   24.4008 O   0  0  0  0  0  0  0  0  0  0  0  0
   45.6248   54.1722   34.7360 N   0  0  0  0  0  0  0  0  0  0  0  0
   44.9490   55.1261   34.0899 C   0  0  0  0  0  0  0  0  0  0  0  0
   45.5812   56.1080   33.4539 N   0  0  0  0  0  0  0  0  0  0  0  0
   46.9152   56.2423   33.5225 C   0  0  0  0  0  0  0  0  0  0  0  0
   47.6732   55.2841   34.2441 C   0  0  0  0  0  0  0  0  0  0  0  0
   46.9662   54.2131   34.8579 C   0  0  0  0  0  0  0  0  0  0  0  0
   47.6320   53.2322   35.5646 N   0  0  0  0  0  0  0  0  0  0  0  0
   48.9640   55.6511   34.1597 N   0  0  0  0  0  0  0  0  0  0  0  0
   49.0574   56.7486   33.4574 C   0  0  0  0  0  0  0  0  0  0  0  0
   47.8261   57.1565   33.0265 N   0  0  0  0  0  0  0  0  0  0  0  0
  2  1  1  1  0  0  0
  2  3  1  0  0  0  0
  2  5  1  0  0  0  0
  3  4  1  0  0  0  0
  3 17  1  0  0  0  0
  5  6  1  0  0  0  0
  7  6  1  6  0  0  0
  7  8  1  0  0  0  0
  7  9  1  0  0  0  0
 10  9  1  6  0  0  0
 10 11  1  0  0  0  0
 10 12  1  0  0  0  0
 11 16  1  0  0  0  0
 12 13  1  6  0  0  0
 12 14  1  0  0  0  0
 14 15  1  1  0  0  0
 14 16  1  0  0  0  0
 16 27  1  1  0  0  0
 18 19  2  0  0  0  0
 18 23  1  0  0  0  0
 19 20  1  0  0  0  0
 20 21  2  0  0  0  0
 21 22  1  0  0  0  0
 21 27  1  0  0  0  0
 22 23  2  0  0  0  0
 22 25  1  0  0  0  0
 23 24  1  0  0  0  0
 25 26  2  0  0  0  0
 26 27  1  0  0  0  0
M  END
>  <CHROM.1>
112.68497761,-67.55857420,169.13212758,163.40766459,172.65686481,48.77323194
-127.46422197,47.17703503,56.26828815,30.09116023,-1.13759298,-1.13107277
1.88307601

>  <Name>
ligand

>  <RI>
0

>  <Rbt.Current_Directory>
/home/itssahil/PROJECTS/Mol_Feturizer/New_Systems/rnas/3IQR

>  <Rbt.Executable>
rbdock ($Id: //depot/dev/client3/rdock/2013.1/src/exe/rbdock.cxx#4 $)

>  <Rbt.Library>
libRbt.so (2013.1, Build901 2013/11/27)

>  <Rbt.Parameter_File>
/export/apps/rDock/src/rDock_2013.1_src/data/scripts/dock_solv.prm

>  <Rbt.Receptor>
prm/pocket_docking_5.prm

>  <SCORE>
-18.8872

>  <SCORE.INTER>
-14.0949

>  <SCORE.INTER.CONST>
1

>  <SCORE.INTER.POLAR>
0

>  <SCORE.INTER.ROT>
7

>  <SCORE.INTER.SOLV>
12.5026

>  <SCORE.INTER.VDW>
-21.8308

>  <SCORE.INTER.norm>
-0.522034

>  <SCORE.INTRA>
-4.79572

>  <SCORE.INTRA.DIHEDRAL>
-4.28292

>  <SCORE.INTRA.DIHEDRAL.0>
9.29433

>  <SCORE.INTRA.POLAR>
0

>  <SCORE.INTRA.POLAR.0>
0

>  <SCORE.INTRA.REPUL>
0

>  <SCORE.INTRA.REPUL.0>
0

>  <SCORE.INTRA.SOLV>
-0.528607

>  <SCORE.INTRA.SOLV.lig_0>
-48.5102

>  <SCORE.INTRA.VDW>
-2.38996

>  <SCORE.INTRA.VDW.0>
0.379549

>  <SCORE.INTRA.norm>
-0.177619

>  <SCORE.RESTR>
0.00341435

>  <SCORE.RESTR.CAVITY>
0.00341435

>  <SCORE.RESTR.norm>
0.000126458

>  <SCORE.SYSTEM>
0

>  <SCORE.SYSTEM.CONST>
0

>  <SCORE.SYSTEM.DIHEDRAL>
0

>  <SCORE.SYSTEM.SOLV>
0

>  <SCORE.SYSTEM.norm>
0

>  <SCORE.heavy>
27

>  <SCORE.norm>
-0.699527

>  <RMSD>
4.994

$$$$
ligand
 OpenBabel11021811483D
libRbt.so/2013.1/901 2013/11/27
 27 29  0  0  0  0  0  0  0  0999 V2000
   49.3535   55.2396   32.8662 N   0  0  0  0  0  0  0  0  0  0  0  0
   48.3127   54.2977   32.4571 C   0  0  2  0  0  0  0  0  0  0  0  0
   47.7304   53.6418   33.6757 C   0  0  0  0  0  0  0  0  0  0  0  0
   46.6312   53.1011   33.6143 O   0  0  0  0  0  0  0  0  0  0  0  0
   48.8996   53.2225   31.5434 C   0  0  0  0  0  0  0  0  0  0  0  0
   49.5311   53.8938   30.3374 C   0  0  0  0  0  0  0  0  0  0  0  0
   50.0925   52.7272   29.0565 S   0  0  2  0  0  0  0  0  0  0  0  0
   51.2528   53.6899   28.0420 C   0  0  0  0  0  0  0  0  0  0  0  0
   48.7636   52.8666   27.7155 C   0  0  0  0  0  0  0  0  0  0  0  0
   48.5148   54.2638   27.0069 C   0  0  2  0  0  0  0  0  0  0  0  0
   48.9436   55.4348   27.6642 O   0  0  0  0  0  0  0  0  0  0  0  0
   47.2231   54.5620   26.3573 C   0  0  1  0  0  0  0  0  0  0  0  0
   46.4499   53.3886   26.1029 O   0  0  0  0  0  0  0  0  0  0  0  0
   46.6555   55.5198   27.5087 C   0  0  2  0  0  0  0  0  0  0  0  0
   45.5120   56.1926   27.0744 O   0  0  0  0  0  0  0  0  0  0  0  0
   47.8472   56.4567   27.6968 C   0  0  1  0  0  0  0  0  0  0  0  0
   48.3743   53.6132   34.7167 O   0  0  0  0  0  0  0  0  0  0  0  0
   45.5019   59.9429   30.6083 N   0  0  0  0  0  0  0  0  0  0  0  0
   45.1496   59.3987   29.4405 C   0  0  0  0  0  0  0  0  0  0  0  0
   45.9054   58.4744   28.8551 N   0  0  0  0  0  0  0  0  0  0  0  0
   47.1015   58.1273   29.3562 C   0  0  0  0  0  0  0  0  0  0  0  0
   47.5453   58.7193   30.5669 C   0  0  0  0  0  0  0  0  0  0  0  0
   46.6803   59.6570   31.1963 C   0  0  0  0  0  0  0  0  0  0  0  0
   47.0321   60.2653   32.3842 N   0  0  0  0  0  0  0  0  0  0  0  0
   48.7586   58.2079   30.8396 N   0  0  0  0  0  0  0  0  0  0  0  0
   49.0939   57.3637   29.9009 C   0  0  0  0  0  0  0  0  0  0  0  0
   48.1058   57.2626   28.9621 N   0  0  0  0  0  0  0  0  0  0  0  0
  2  1  1  1  0  0  0
  2  3  1  0  0  0  0
  2  5  1  0  0  0  0
  3  4  1  0  0  0  0
  3 17  1  0  0  0  0
  5  6  1  0  0  0  0
  7  6  1  1  0  0  0
  7  8  1  0  0  0  0
  7  9  1  0  0  0  0
 10  9  1  1  0  0  0
 10 11  1  0  0  0  0
 10 12  1  0  0  0  0
 11 16  1  0  0  0  0
 12 13  1  1  0  0  0
 12 14  1  0  0  0  0
 14 15  1  6  0  0  0
 14 16  1  0  0  0  0
 16 27  1  1  0  0  0
 18 19  2  0  0  0  0
 18 23  1  0  0  0  0
 19 20  1  0  0  0  0
 20 21  2  0  0  0  0
 21 22  1  0  0  0  0
 21 27  1  0  0  0  0
 22 23  2  0  0  0  0
 22 25  1  0  0  0  0
 23 24  1  0  0  0  0
 25 26  2  0  0  0  0
 26 27  1  0  0  0  0
M  END
>  <CHROM.1>
160.52747388,-57.92991987,-172.85950330,-162.02293454,60.74594920,-20.73987348
-169.08043389,47.93154458,55.66798688,29.78871741,-0.30512700,-1.13992424
1.40007740

>  <Name>
ligand

>  <RI>
0

>  <Rbt.Current_Directory>
/home/itssahil/PROJECTS/Mol_Feturizer/New_Systems/rnas/3IQR

>  <Rbt.Executable>
rbdock ($Id: //depot/dev/client3/rdock/2013.1/src/exe/rbdock.cxx#4 $)

>  <Rbt.Library>
libRbt.so (2013.1, Build901 2013/11/27)

>  <Rbt.Parameter_File>
/export/apps/rDock/src/rDock_2013.1_src/data/scripts/dock_solv.prm

>  <Rbt.Receptor>
prm/pocket_docking_3.prm

>  <SCORE>
-6.68046

>  <SCORE.INTER>
-4.03205

>  <SCORE.INTER.CONST>
1

>  <SCORE.INTER.POLAR>
0

>  <SCORE.INTER.ROT>
7

>  <SCORE.INTER.SOLV>
20.8309

>  <SCORE.INTER.VDW>
-17.8983

>  <SCORE.INTER.norm>
-0.149335

>  <SCORE.INTRA>
-2.6818

>  <SCORE.INTRA.DIHEDRAL>
0.0270746

>  <SCORE.INTRA.DIHEDRAL.0>
9.29433

>  <SCORE.INTRA.POLAR>
0

>  <SCORE.INTRA.POLAR.0>
0

>  <SCORE.INTRA.REPUL>
0

>  <SCORE.INTRA.REPUL.0>
0

>  <SCORE.INTRA.SOLV>
-0.366769

>  <SCORE.INTRA.SOLV.lig_0>
-48.5102

>  <SCORE.INTRA.VDW>
-2.51195

>  <SCORE.INTRA.VDW.0>
0.379549

>  <SCORE.INTRA.norm>
-0.0993259

>  <SCORE.RESTR>
0.033392

>  <SCORE.RESTR.CAVITY>
0.033392

>  <SCORE.RESTR.norm>
0.00123674

>  <SCORE.SYSTEM>
0

>  <SCORE.SYSTEM.CONST>
0

>  <SCORE.SYSTEM.DIHEDRAL>
0

>  <SCORE.SYSTEM.SOLV>
0

>  <SCORE.SYSTEM.norm>
0

>  <SCORE.heavy>
27

>  <SCORE.norm>
-0.247424

>  <RMSD>
5.006

$$$$
ligand
 OpenBabel11021811483D
libRbt.so/2013.1/901 2013/11/27
 27 29  0  0  0  0  0  0  0  0999 V2000
   48.7640   57.4299   28.7812 N   0  0  0  0  0  0  0  0  0  0  0  0
   47.9807   56.3515   28.1801 C   0  0  2  0  0  0  0  0  0  0  0  0
   47.2265   56.8863   26.9971 C   0  0  0  0  0  0  0  0  0  0  0  0
   46.8326   56.1199   26.1243 O   0  0  0  0  0  0  0  0  0  0  0  0
   46.9855   55.7896   29.1946 C   0  0  0  0  0  0  0  0  0  0  0  0
   46.1244   56.9245   29.7185 C   0  0  0  0  0  0  0  0  0  0  0  0
   45.8800   56.8894   31.5229 S   0  0  2  0  0  0  0  0  0  0  0  0
   45.0976   58.4840   31.9066 C   0  0  0  0  0  0  0  0  0  0  0  0
   47.5337   57.5065   32.2073 C   0  0  0  0  0  0  0  0  0  0  0  0
   48.7075   56.4704   32.4616 C   0  0  2  0  0  0  0  0  0  0  0  0
   49.4232   55.9817   31.3497 O   0  0  0  0  0  0  0  0  0  0  0  0
   48.5362   55.3527   33.4106 C   0  0  1  0  0  0  0  0  0  0  0  0
   47.4374   55.5492   34.3015 O   0  0  0  0  0  0  0  0  0  0  0  0
   48.3291   54.2076   32.3101 C   0  0  2  0  0  0  0  0  0  0  0  0
   48.3901   52.9415   32.8950 O   0  0  0  0  0  0  0  0  0  0  0  0
   49.5221   54.4865   31.3978 C   0  0  1  0  0  0  0  0  0  0  0  0
   46.9714   58.0818   26.9289 O   0  0  0  0  0  0  0  0  0  0  0  0
   46.8111   51.7710   28.0204 N   0  0  0  0  0  0  0  0  0  0  0  0
   46.6307   51.9703   29.3287 C   0  0  0  0  0  0  0  0  0  0  0  0
   47.4541   52.7462   30.0275 N   0  0  0  0  0  0  0  0  0  0  0  0
   48.5573   53.2743   29.4742 C   0  0  0  0  0  0  0  0  0  0  0  0
   48.8223   53.0450   28.0993 C   0  0  0  0  0  0  0  0  0  0  0  0
   47.8846   52.2620   27.3704 C   0  0  0  0  0  0  0  0  0  0  0  0
   48.0622   52.0063   26.0258 N   0  0  0  0  0  0  0  0  0  0  0  0
   49.9747   53.6723   27.8052 N   0  0  0  0  0  0  0  0  0  0  0  0
   50.4362   54.2564   28.8785 C   0  0  0  0  0  0  0  0  0  0  0  0
   49.5985   54.0559   29.9397 N   0  0  0  0  0  0  0  0  0  0  0  0
  2  1  1  1  0  0  0
  2  3  1  0  0  0  0
  2  5  1  0  0  0  0
  3  4  1  0  0  0  0
  3 17  1  0  0  0  0
  5  6  1  0  0  0  0
  7  6  1  6  0  0  0
  7  8  1  0  0  0  0
  7  9  1  0  0  0  0
 10  9  1  6  0  0  0
 10 11  1  0  0  0  0
 10 12  1  0  0  0  0
 11 16  1  0  0  0  0
 12 13  1  1  0  0  0
 12 14  1  0  0  0  0
 14 15  1  1  0  0  0
 14 16  1  0  0  0  0
 16 27  1  6  0  0  0
 18 19  2  0  0  0  0
 18 23  1  0  0  0  0
 19 20  1  0  0  0  0
 20 21  2  0  0  0  0
 21 22  1  0  0  0  0
 21 27  1  0  0  0  0
 22 23  2  0  0  0  0
 22 25  1  0  0  0  0
 23 24  1  0  0  0  0
 25 26  2  0  0  0  0
 26 27  1  0  0  0  0
M  END
>  <CHROM.1>
158.43876683,55.56123879,-135.89032959,169.97116603,-87.07470074,75.76303874
-116.76718652,47.80087798,55.13582627,29.92270292,1.95009332,-1.17891441
1.38307998

>  <Name>
ligand

>  <RI>
0

>  <Rbt.Current_Directory>
/home/itssahil/PROJECTS/Mol_Feturizer/New_Systems/rnas/3IQR

>  <Rbt.Executable>
rbdock ($Id: //depot/dev/client3/rdock/2013.1/src/exe/rbdock.cxx#4 $)

>  <Rbt.Library>
libRbt.so (2013.1, Build901 2013/11/27)

>  <Rbt.Parameter_File>
/export/apps/rDock/src/rDock_2013.1_src/data/scripts/dock_solv.prm

>  <Rbt.Receptor>
prm/pocket_docking_3.prm

>  <SCORE>
-11.7451

>  <SCORE.INTER>
-8.12298

>  <SCORE.INTER.CONST>
1

>  <SCORE.INTER.POLAR>
0

>  <SCORE.INTER.ROT>
7

>  <SCORE.INTER.SOLV>
10.6009

>  <SCORE.INTER.VDW>
-17.2156

>  <SCORE.INTER.norm>
-0.300851

>  <SCORE.INTRA>
-3.62209

>  <SCORE.INTRA.DIHEDRAL>
1.08616

>  <SCORE.INTRA.DIHEDRAL.0>
9.29433

>  <SCORE.INTRA.POLAR>
0

>  <SCORE.INTRA.POLAR.0>
0

>  <SCORE.INTRA.REPUL>
0

>  <SCORE.INTRA.REPUL.0>
0

>  <SCORE.INTRA.SOLV>
2.87413

>  <SCORE.INTRA.SOLV.lig_0>
-48.5102

>  <SCORE.INTRA.VDW>
-5.60224

>  <SCORE.INTRA.VDW.0>
0.379549

>  <SCORE.INTRA.norm>
-0.134151

>  <SCORE.RESTR>
0

>  <SCORE.RESTR.CAVITY>
0

>  <SCORE.RESTR.norm>
0

>  <SCORE.SYSTEM>
0

>  <SCORE.SYSTEM.CONST>
0

>  <SCORE.SYSTEM.DIHEDRAL>
0

>  <SCORE.SYSTEM.SOLV>
0

>  <SCORE.SYSTEM.norm>
0

>  <SCORE.heavy>
27

>  <SCORE.norm>
-0.435003

>  <RMSD>
5.008

$$$$
ligand
 OpenBabel11021811483D
libRbt.so/2013.1/901 2013/11/27
 27 29  0  0  0  0  0  0  0  0999 V2000
   50.6631   53.2512   28.6547 N   0  0  0  0  0  0  0  0  0  0  0  0
   49.3144   53.6937   28.3036 C   0  0  2  0  0  0  0  0  0  0  0  0
   48.5842   52.5698   27.6269 C   0  0  0  0  0  0  0  0  0  0  0  0
   49.1647   51.8698   26.8039 O   0  0  0  0  0  0  0  0  0  0  0  0
   49.3786   54.8903   27.3554 C   0  0  0  0  0  0  0  0  0  0  0  0
   47.9733   55.4210   27.1382 C   0  0  0  0  0  0  0  0  0  0  0  0
   47.1822   56.0494   28.6534 S   0  0  2  0  0  0  0  0  0  0  0  0
   45.5175   56.5493   28.1232 C   0  0  0  0  0  0  0  0  0  0  0  0
   47.7317   57.8597   28.7234 C   0  0  0  0  0  0  0  0  0  0  0  0
   47.5132   58.6896   30.0574 C   0  0  2  0  0  0  0  0  0  0  0  0
   48.1851   58.2725   31.2244 O   0  0  0  0  0  0  0  0  0  0  0  0
   46.1647   59.1410   30.4540 C   0  0  1  0  0  0  0  0  0  0  0  0
   45.2313   59.1052   29.3737 O   0  0  0  0  0  0  0  0  0  0  0  0
   45.9322   58.0429   31.5965 C   0  0  2  0  0  0  0  0  0  0  0  0
   44.8103   58.3579   32.3653 O   0  0  0  0  0  0  0  0  0  0  0  0
   47.2352   58.1847   32.3809 C   0  0  1  0  0  0  0  0  0  0  0  0
   47.4224   52.3302   27.9301 O   0  0  0  0  0  0  0  0  0  0  0  0
   45.7341   53.8891   34.7101 N   0  0  0  0  0  0  0  0  0  0  0  0
   45.0406   54.7974   34.0187 C   0  0  0  0  0  0  0  0  0  0  0  0
   45.6403   55.8469   33.4646 N   0  0  0  0  0  0  0  0  0  0  0  0
   46.9445   56.0947   33.6647 C   0  0  0  0  0  0  0  0  0  0  0  0
   47.7128   55.1875   34.4392 C   0  0  0  0  0  0  0  0  0  0  0  0
   47.0489   54.0433   34.9623 C   0  0  0  0  0  0  0  0  0  0  0  0
   47.7291   53.1056   35.7126 N   0  0  0  0  0  0  0  0  0  0  0  0
   48.9679   55.6674   34.4870 N   0  0  0  0  0  0  0  0  0  0  0  0
   49.0296   56.7869   33.8167 C   0  0  0  0  0  0  0  0  0  0  0  0
   47.8134   57.0975   33.2758 N   0  0  0  0  0  0  0  0  0  0  0  0
  2  1  1  6  0  0  0
  2  3  1  0  0  0  0
  2  5  1  0  0  0  0
  3  4  1  0  0  0  0
  3 17  1  0  0  0  0
  5  6  1  0  0  0  0
  7  6  1  6  0  0  0
  7  8  1  0  0  0  0
  7  9  1  0  0  0  0
 10  9  1  6  0  0  0
 10 11  1  0  0  0  0
 10 12  1  0  0  0  0
 11 16  1  0  0  0  0
 12 13  1  6  0  0  0
 12 14  1  0  0  0  0
 14 15  1  1  0  0  0
 14 16  1  0  0  0  0
 16 27  1  1  0  0  0
 18 19  2  0  0  0  0
 18 23  1  0  0  0  0
 19 20  1  0  0  0  0
 20 21  2  0  0  0  0
 21 22  1  0  0  0  0
 21 27  1  0  0  0  0
 22 23  2  0  0  0  0
 22 25  1  0  0  0  0
 23 24  1  0  0  0  0
 25 26  2  0  0  0  0
 26 27  1  0  0  0  0
M  END
>  <CHROM.1>
-41.42567792,-173.61401866,62.84851147,-177.81096796,-166.96764197,63.01077115
-128.94232432,47.37144911,55.83034766,30.87077497,-0.90677647,-1.15885579
1.89115083

>  <Name>
ligand

>  <RI>
0

>  <Rbt.Current_Directory>
/home/itssahil/PROJECTS/Mol_Feturizer/New_Systems/rnas/3IQR

>  <Rbt.Executable>
rbdock ($Id: //depot/dev/client3/rdock/2013.1/src/exe/rbdock.cxx#4 $)

>  <Rbt.Library>
libRbt.so (2013.1, Build901 2013/11/27)

>  <Rbt.Parameter_File>
/export/apps/rDock/src/rDock_2013.1_src/data/scripts/dock_solv.prm

>  <Rbt.Receptor>
prm/pocket_docking_4.prm

>  <SCORE>
-17.5613

>  <SCORE.INTER>
-12.6365

>  <SCORE.INTER.CONST>
1

>  <SCORE.INTER.POLAR>
0

>  <SCORE.INTER.ROT>
7

>  <SCORE.INTER.SOLV>
14.2548

>  <SCORE.INTER.VDW>
-21.4426

>  <SCORE.INTER.norm>
-0.46802

>  <SCORE.INTRA>
-4.9417

>  <SCORE.INTRA.DIHEDRAL>
-3.29566

>  <SCORE.INTRA.DIHEDRAL.0>
9.29433

>  <SCORE.INTRA.POLAR>
0

>  <SCORE.INTRA.POLAR.0>
0

>  <SCORE.INTRA.REPUL>
0

>  <SCORE.INTRA.REPUL.0>
0

>  <SCORE.INTRA.SOLV>
-1.05426

>  <SCORE.INTRA.SOLV.lig_0>
-48.5102

>  <SCORE.INTRA.VDW>
-2.76674

>  <SCORE.INTRA.VDW.0>
0.379549

>  <SCORE.INTRA.norm>
-0.183026

>  <SCORE.RESTR>
0.0169449

>  <SCORE.RESTR.CAVITY>
0.0169449

>  <SCORE.RESTR.norm>
0.000627588

>  <SCORE.SYSTEM>
0

>  <SCORE.SYSTEM.CONST>
0

>  <SCORE.SYSTEM.DIHEDRAL>
0

>  <SCORE.SYSTEM.SOLV>
0

>  <SCORE.SYSTEM.norm>
0

>  <SCORE.heavy>
27

>  <SCORE.norm>
-0.650418

>  <RMSD>
5.008

$$$$
ligand
 OpenBabel11021811483D
libRbt.so/2013.1/901 2013/11/27
 27 29  0  0  0  0  0  0  0  0999 V2000
   49.5477   55.8332   30.3230 N   0  0  0  0  0  0  0  0  0  0  0  0
   49.5102   54.4839   29.7610 C   0  0  2  0  0  0  0  0  0  0  0  0
   50.6390   54.3219   28.7844 C   0  0  0  0  0  0  0  0  0  0  0  0
   51.0419   55.2896   28.1476 O   0  0  0  0  0  0  0  0  0  0  0  0
   48.1854   54.2475   29.0370 C   0  0  0  0  0  0  0  0  0  0  0  0
   48.0626   55.2444   27.8990 C   0  0  0  0  0  0  0  0  0  0  0  0
   46.9435   56.6356   28.2577 S   0  0  2  0  0  0  0  0  0  0  0  0
   46.7534   57.4885   26.6644 C   0  0  0  0  0  0  0  0  0  0  0  0
   48.1078   57.9944   28.8757 C   0  0  0  0  0  0  0  0  0  0  0  0
   47.7303   58.8091   30.1834 C   0  0  2  0  0  0  0  0  0  0  0  0
   48.3144   58.4220   31.4066 O   0  0  0  0  0  0  0  0  0  0  0  0
   46.3313   59.1934   30.4566 C   0  0  1  0  0  0  0  0  0  0  0  0
   45.5014   59.1151   29.2970 O   0  0  0  0  0  0  0  0  0  0  0  0
   46.0510   58.0822   31.5755 C   0  0  2  0  0  0  0  0  0  0  0  0
   44.8507   58.3401   32.2400 O   0  0  0  0  0  0  0  0  0  0  0  0
   47.2700   58.2850   32.4734 C   0  0  1  0  0  0  0  0  0  0  0  0
   51.1811   53.2314   28.6576 O   0  0  0  0  0  0  0  0  0  0  0  0
   46.0910   53.5916   34.1205 N   0  0  0  0  0  0  0  0  0  0  0  0
   45.4193   54.4372   33.3344 C   0  0  0  0  0  0  0  0  0  0  0  0
   45.9267   55.6208   33.0031 N   0  0  0  0  0  0  0  0  0  0  0  0
   47.0822   56.0591   33.5272 C   0  0  0  0  0  0  0  0  0  0  0  0
   47.8063   55.2187   34.4119 C   0  0  0  0  0  0  0  0  0  0  0  0
   47.2621   53.9346   34.6923 C   0  0  0  0  0  0  0  0  0  0  0  0
   47.9131   53.0523   35.5305 N   0  0  0  0  0  0  0  0  0  0  0  0
   48.9073   55.8917   34.7899 N   0  0  0  0  0  0  0  0  0  0  0  0
   48.9139   57.0668   34.2194 C   0  0  0  0  0  0  0  0  0  0  0  0
   47.8178   57.2248   33.4184 N   0  0  0  0  0  0  0  0  0  0  0  0
  2  1  1  6  0  0  0
  2  3  1  0  0  0  0
  2  5  1  0  0  0  0
  3  4  1  0  0  0  0
  3 17  1  0  0  0  0
  5  6  1  0  0  0  0
  7  6  1  6  0  0  0
  7  8  1  0  0  0  0
  7  9  1  0  0  0  0
 10  9  1  6  0  0  0
 10 11  1  0  0  0  0
 10 12  1  0  0  0  0
 11 16  1  0  0  0  0
 12 13  1  6  0  0  0
 12 14  1  0  0  0  0
 14 15  1  1  0  0  0
 14 16  1  0  0  0  0
 16 27  1  1  0  0  0
 18 19  2  0  0  0  0
 18 23  1  0  0  0  0
 19 20  1  0  0  0  0
 20 21  2  0  0  0  0
 21 22  1  0  0  0  0
 21 27  1  0  0  0  0
 22 23  2  0  0  0  0
 22 25  1  0  0  0  0
 23 24  1  0  0  0  0
 25 26  2  0  0  0  0
 26 27  1  0  0  0  0
M  END
>  <CHROM.1>
-30.85032062,61.14491180,-102.71712032,-170.28719797,-133.77049213,98.05058579
-116.79338875,47.71938804,56.24223440,31.05984695,-1.26318305,-0.87100230
1.98340692

>  <Name>
ligand

>  <RI>
0

>  <Rbt.Current_Directory>
/home/itssahil/PROJECTS/Mol_Feturizer/New_Systems/rnas/3IQR

>  <Rbt.Executable>
rbdock ($Id: //depot/dev/client3/rdock/2013.1/src/exe/rbdock.cxx#4 $)

>  <Rbt.Library>
libRbt.so (2013.1, Build901 2013/11/27)

>  <Rbt.Parameter_File>
/export/apps/rDock/src/rDock_2013.1_src/data/scripts/dock_solv.prm

>  <Rbt.Receptor>
prm/pocket_docking_3.prm

>  <SCORE>
-11.688

>  <SCORE.INTER>
-13.7486

>  <SCORE.INTER.CONST>
1

>  <SCORE.INTER.POLAR>
0

>  <SCORE.INTER.ROT>
7

>  <SCORE.INTER.SOLV>
14.2586

>  <SCORE.INTER.VDW>
-22.1852

>  <SCORE.INTER.norm>
-0.509206

>  <SCORE.INTRA>
2.05238

>  <SCORE.INTRA.DIHEDRAL>
7.62201

>  <SCORE.INTRA.DIHEDRAL.0>
9.29433

>  <SCORE.INTRA.POLAR>
0

>  <SCORE.INTRA.POLAR.0>
0

>  <SCORE.INTRA.REPUL>
0

>  <SCORE.INTRA.REPUL.0>
0

>  <SCORE.INTRA.SOLV>
3.46526

>  <SCORE.INTRA.SOLV.lig_0>
-48.5102

>  <SCORE.INTRA.VDW>
-3.49125

>  <SCORE.INTRA.VDW.0>
0.379549

>  <SCORE.INTRA.norm>
0.0760142

>  <SCORE.RESTR>
0.00816669

>  <SCORE.RESTR.CAVITY>
0.00816669

>  <SCORE.RESTR.norm>
0.00030247

>  <SCORE.SYSTEM>
0

>  <SCORE.SYSTEM.CONST>
0

>  <SCORE.SYSTEM.DIHEDRAL>
0

>  <SCORE.SYSTEM.SOLV>
0

>  <SCORE.SYSTEM.norm>
0

>  <SCORE.heavy>
27

>  <SCORE.norm>
-0.432889

>  <RMSD>
5.010

$$$$
ligand
 OpenBabel11021811483D
libRbt.so/2013.1/901 2013/11/27
 27 29  0  0  0  0  0  0  0  0999 V2000
   46.7010   52.3327   30.2473 N   0  0  0  0  0  0  0  0  0  0  0  0
   47.9271   53.1288   30.2791 C   0  0  2  0  0  0  0  0  0  0  0  0
   48.9415   52.5140   29.3587 C   0  0  0  0  0  0  0  0  0  0  0  0
   48.8841   51.3175   29.0951 O   0  0  0  0  0  0  0  0  0  0  0  0
   48.4974   53.1682   31.6962 C   0  0  0  0  0  0  0  0  0  0  0  0
   49.2328   54.4813   31.8935 C   0  0  0  0  0  0  0  0  0  0  0  0
   48.9329   55.2558   33.5143 S   0  0  2  0  0  0  0  0  0  0  0  0
   48.4677   53.8741   34.5991 C   0  0  0  0  0  0  0  0  0  0  0  0
   47.1278   55.8168   33.4113 C   0  0  0  0  0  0  0  0  0  0  0  0
   46.7996   57.3219   33.0330 C   0  0  2  0  0  0  0  0  0  0  0  0
   46.0883   57.5743   31.8424 O   0  0  0  0  0  0  0  0  0  0  0  0
   47.8221   58.3770   33.1763 C   0  0  1  0  0  0  0  0  0  0  0  0
   48.9067   57.9834   34.0179 O   0  0  0  0  0  0  0  0  0  0  0  0
   48.1748   58.5034   31.6190 C   0  0  2  0  0  0  0  0  0  0  0  0
   48.9602   59.6323   31.3790 O   0  0  0  0  0  0  0  0  0  0  0  0
   46.7712   58.6337   31.0307 C   0  0  1  0  0  0  0  0  0  0  0  0
   49.7987   53.2188   28.8414 O   0  0  0  0  0  0  0  0  0  0  0  0
   48.6954   56.0224   27.0799 N   0  0  0  0  0  0  0  0  0  0  0  0
   49.2077   56.2904   28.2840 C   0  0  0  0  0  0  0  0  0  0  0  0
   48.5174   56.9777   29.1891 N   0  0  0  0  0  0  0  0  0  0  0  0
   47.3250   57.5206   28.8965 C   0  0  0  0  0  0  0  0  0  0  0  0
   46.7632   57.3105   27.6107 C   0  0  0  0  0  0  0  0  0  0  0  0
   47.5035   56.5168   26.6912 C   0  0  0  0  0  0  0  0  0  0  0  0
   47.0189   56.2530   25.4261 N   0  0  0  0  0  0  0  0  0  0  0  0
   45.5848   57.9574   27.5797 N   0  0  0  0  0  0  0  0  0  0  0  0
   45.3834   58.5462   28.7282 C   0  0  0  0  0  0  0  0  0  0  0  0
   46.4186   58.3037   29.5871 N   0  0  0  0  0  0  0  0  0  0  0  0
  2  1  1  1  0  0  0
  2  3  1  0  0  0  0
  2  5  1  0  0  0  0
  3  4  1  0  0  0  0
  3 17  1  0  0  0  0
  5  6  1  0  0  0  0
  7  6  1  6  0  0  0
  7  8  1  0  0  0  0
  7  9  1  0  0  0  0
 10  9  1  6  0  0  0
 10 11  1  0  0  0  0
 10 12  1  0  0  0  0
 11 16  1  0  0  0  0
 12 13  1  1  0  0  0
 12 14  1  0  0  0  0
 14 15  1  1  0  0  0
 14 16  1  0  0  0  0
 16 27  1  6  0  0  0
 18 19  2  0  0  0  0
 18 23  1  0  0  0  0
 19 20  1  0  0  0  0
 20 21  2  0  0  0  0
 21 22  1  0  0  0  0
 21 27  1  0  0  0  0
 22 23  2  0  0  0  0
 22 25  1  0  0  0  0
 23 24  1  0  0  0  0
 25 26  2  0  0  0  0
 26 27  1  0  0  0  0
M  END
>  <CHROM.1>
-25.17043646,-149.90241212,138.08846279,24.63299148,-97.46500396,116.88383605
-93.67661927,47.87985990,56.03109571,30.52249443,-0.95328955,1.26774318,-2.03427839

>  <Name>
ligand

>  <RI>
0

>  <Rbt.Current_Directory>
/home/itssahil/PROJECTS/Mol_Feturizer/New_Systems/rnas/3IQR

>  <Rbt.Executable>
rbdock ($Id: //depot/dev/client3/rdock/2013.1/src/exe/rbdock.cxx#4 $)

>  <Rbt.Library>
libRbt.so (2013.1, Build901 2013/11/27)

>  <Rbt.Parameter_File>
/export/apps/rDock/src/rDock_2013.1_src/data/scripts/dock_solv.prm

>  <Rbt.Receptor>
prm/pocket_docking_2.prm

>  <SCORE>
-6.50175

>  <SCORE.INTER>
-9.93606

>  <SCORE.INTER.CONST>
1

>  <SCORE.INTER.POLAR>
0

>  <SCORE.INTER.ROT>
7

>  <SCORE.INTER.SOLV>
20.9318

>  <SCORE.INTER.VDW>
-21.868

>  <SCORE.INTER.norm>
-0.368002

>  <SCORE.INTRA>
1.78558

>  <SCORE.INTRA.DIHEDRAL>
9.43146

>  <SCORE.INTRA.DIHEDRAL.0>
9.29433

>  <SCORE.INTRA.POLAR>
0

>  <SCORE.INTRA.POLAR.0>
0

>  <SCORE.INTRA.REPUL>
0

>  <SCORE.INTRA.REPUL.0>
0

>  <SCORE.INTRA.SOLV>
-1.27768

>  <SCORE.INTRA.SOLV.lig_0>
-48.5102

>  <SCORE.INTRA.VDW>
-2.29131

>  <SCORE.INTRA.VDW.0>
0.379549

>  <SCORE.INTRA.norm>
0.0661326

>  <SCORE.RESTR>
1.64873

>  <SCORE.RESTR.CAVITY>
1.64873

>  <SCORE.RESTR.norm>
0.061064

>  <SCORE.SYSTEM>
0

>  <SCORE.SYSTEM.CONST>
0

>  <SCORE.SYSTEM.DIHEDRAL>
0

>  <SCORE.SYSTEM.SOLV>
0

>  <SCORE.SYSTEM.norm>
0

>  <SCORE.heavy>
27

>  <SCORE.norm>
-0.240806

>  <RMSD>
5.018

$$$$
ligand
 OpenBabel11021811483D
libRbt.so/2013.1/901 2013/11/27
 27 29  0  0  0  0  0  0  0  0999 V2000
   49.6695   52.8009   28.5084 N   0  0  0  0  0  0  0  0  0  0  0  0
   48.6509   52.6667   29.5487 C   0  0  2  0  0  0  0  0  0  0  0  0
   47.4913   51.8806   29.0090 C   0  0  0  0  0  0  0  0  0  0  0  0
   47.4199   51.6402   27.8083 O   0  0  0  0  0  0  0  0  0  0  0  0
   48.1584   54.0444   29.9898 C   0  0  0  0  0  0  0  0  0  0  0  0
   47.4723   53.9127   31.3373 C   0  0  0  0  0  0  0  0  0  0  0  0
   48.6094   54.0242   32.7555 S   0  0  2  0  0  0  0  0  0  0  0  0
   47.5236   54.2828   34.1895 C   0  0  0  0  0  0  0  0  0  0  0  0
   49.1154   55.8483   32.7768 C   0  0  0  0  0  0  0  0  0  0  0  0
   47.9975   56.9686   32.6702 C   0  0  2  0  0  0  0  0  0  0  0  0
   47.0526   56.8761   31.6282 O   0  0  0  0  0  0  0  0  0  0  0  0
   48.3385   58.3948   32.8405 C   0  0  1  0  0  0  0  0  0  0  0  0
   49.6045   58.5874   33.4729 O   0  0  0  0  0  0  0  0  0  0  0  0
   48.2825   58.7835   31.2878 C   0  0  2  0  0  0  0  0  0  0  0  0
   48.3164   60.1693   31.1225 O   0  0  0  0  0  0  0  0  0  0  0  0
   46.9311   58.1835   30.9045 C   0  0  1  0  0  0  0  0  0  0  0  0
   46.6415   51.4465   29.7762 O   0  0  0  0  0  0  0  0  0  0  0  0
   48.9401   55.8271   26.8373 N   0  0  0  0  0  0  0  0  0  0  0  0
   49.4837   56.1639   28.0100 C   0  0  0  0  0  0  0  0  0  0  0  0
   48.7650   56.7597   28.9569 N   0  0  0  0  0  0  0  0  0  0  0  0
   47.4972   57.1428   28.7372 C   0  0  0  0  0  0  0  0  0  0  0  0
   46.8923   56.8567   27.4860 C   0  0  0  0  0  0  0  0  0  0  0  0
   47.6735   56.1617   26.5215 C   0  0  0  0  0  0  0  0  0  0  0  0
   47.1532   55.8325   25.2862 N   0  0  0  0  0  0  0  0  0  0  0  0
   45.6405   57.3457   27.5270 N   0  0  0  0  0  0  0  0  0  0  0  0
   45.4328   57.9081   28.6877 C   0  0  0  0  0  0  0  0  0  0  0  0
   46.5396   57.8048   29.4830 N   0  0  0  0  0  0  0  0  0  0  0  0
  2  1  1  6  0  0  0
  2  3  1  0  0  0  0
  2  5  1  0  0  0  0
  3  4  1  0  0  0  0
  3 17  1  0  0  0  0
  5  6  1  0  0  0  0
  7  6  1  6  0  0  0
  7  8  1  0  0  0  0
  7  9  1  0  0  0  0
 10  9  1  6  0  0  0
 10 11  1  0  0  0  0
 10 12  1  0  0  0  0
 11 16  1  0  0  0  0
 12 13  1  6  0  0  0
 12 14  1  0  0  0  0
 14 15  1  1  0  0  0
 14 16  1  0  0  0  0
 16 27  1  6  0  0  0
 18 19  2  0  0  0  0
 18 23  1  0  0  0  0
 19 20  1  0  0  0  0
 20 21  2  0  0  0  0
 21 22  1  0  0  0  0
 21 27  1  0  0  0  0
 22 23  2  0  0  0  0
 22 25  1  0  0  0  0
 23 24  1  0  0  0  0
 25 26  2  0  0  0  0
 26 27  1  0  0  0  0
M  END
>  <CHROM.1>
-10.89253666,-161.64038037,86.55634115,165.43645311,48.18729630,-50.77255206
-67.85089621,47.87068795,55.75185359,30.09686198,-2.01569088,-1.38789416
0.31597533

>  <Name>
ligand

>  <RI>
0

>  <Rbt.Current_Directory>
/home/itssahil/PROJECTS/Mol_Feturizer/New_Systems/rnas/3IQR

>  <Rbt.Executable>
rbdock ($Id: //depot/dev/client3/rdock/2013.1/src/exe/rbdock.cxx#4 $)

>  <Rbt.Library>
libRbt.so (2013.1, Build901 2013/11/27)

>  <Rbt.Parameter_File>
/export/apps/rDock/src/rDock_2013.1_src/data/scripts/dock_solv.prm

>  <Rbt.Receptor>
prm/pocket_docking_6.prm

>  <SCORE>
-17.1244

>  <SCORE.INTER>
-11.6453

>  <SCORE.INTER.CONST>
1

>  <SCORE.INTER.POLAR>
0

>  <SCORE.INTER.ROT>
7

>  <SCORE.INTER.SOLV>
16.4911

>  <SCORE.INTER.VDW>
-21.5272

>  <SCORE.INTER.norm>
-0.431307

>  <SCORE.INTRA>
-5.47907

>  <SCORE.INTRA.DIHEDRAL>
-1.4505

>  <SCORE.INTRA.DIHEDRAL.0>
9.29433

>  <SCORE.INTRA.POLAR>
0

>  <SCORE.INTRA.POLAR.0>
0

>  <SCORE.INTRA.REPUL>
0

>  <SCORE.INTRA.REPUL.0>
0

>  <SCORE.INTRA.SOLV>
-0.903085

>  <SCORE.INTRA.SOLV.lig_0>
-48.5102

>  <SCORE.INTRA.VDW>
-4.30227

>  <SCORE.INTRA.VDW.0>
0.379549

>  <SCORE.INTRA.norm>
-0.202928

>  <SCORE.RESTR>
0

>  <SCORE.RESTR.CAVITY>
0

>  <SCORE.RESTR.norm>
0

>  <SCORE.SYSTEM>
0

>  <SCORE.SYSTEM.CONST>
0

>  <SCORE.SYSTEM.DIHEDRAL>
0

>  <SCORE.SYSTEM.SOLV>
0

>  <SCORE.SYSTEM.norm>
0

>  <SCORE.heavy>
27

>  <SCORE.norm>
-0.634236

>  <RMSD>
5.022

$$$$
ligand
 OpenBabel11021811483D
libRbt.so/2013.1/901 2013/11/27
 27 29  0  0  0  0  0  0  0  0999 V2000
   47.6253   52.6807   28.9571 N   0  0  0  0  0  0  0  0  0  0  0  0
   48.8753   53.4384   28.9879 C   0  0  2  0  0  0  0  0  0  0  0  0
   49.9375   52.6732   28.2528 C   0  0  0  0  0  0  0  0  0  0  0  0
   51.0685   53.1371   28.1527 O   0  0  0  0  0  0  0  0  0  0  0  0
   49.3267   53.6587   30.4311 C   0  0  0  0  0  0  0  0  0  0  0  0
   48.3169   54.5497   31.1312 C   0  0  0  0  0  0  0  0  0  0  0  0
   48.7813   54.9887   32.8366 S   0  0  2  0  0  0  0  0  0  0  0  0
   48.4152   53.4959   33.8060 C   0  0  0  0  0  0  0  0  0  0  0  0
   47.2319   55.8400   33.5138 C   0  0  0  0  0  0  0  0  0  0  0  0
   46.7736   57.2286   32.8989 C   0  0  2  0  0  0  0  0  0  0  0  0
   46.0296   57.2189   31.7016 O   0  0  0  0  0  0  0  0  0  0  0  0
   47.7052   58.3722   32.8384 C   0  0  1  0  0  0  0  0  0  0  0  0
   48.8288   58.2147   33.7057 O   0  0  0  0  0  0  0  0  0  0  0  0
   48.0277   58.2635   31.2734 C   0  0  2  0  0  0  0  0  0  0  0  0
   48.7123   59.3961   30.8288 O   0  0  0  0  0  0  0  0  0  0  0  0
   46.6113   58.1789   30.7078 C   0  0  1  0  0  0  0  0  0  0  0  0
   49.6811   51.5686   27.7910 O   0  0  0  0  0  0  0  0  0  0  0  0
   48.9475   55.8002   26.8329 N   0  0  0  0  0  0  0  0  0  0  0  0
   49.4404   56.3551   27.9433 C   0  0  0  0  0  0  0  0  0  0  0  0
   48.6412   56.9095   28.8500 N   0  0  0  0  0  0  0  0  0  0  0  0
   47.3208   57.0297   28.6398 C   0  0  0  0  0  0  0  0  0  0  0  0
   46.7567   56.5046   27.4484 C   0  0  0  0  0  0  0  0  0  0  0  0
   47.6354   55.8628   26.5321 C   0  0  0  0  0  0  0  0  0  0  0  0
   47.1627   55.3126   25.3578 N   0  0  0  0  0  0  0  0  0  0  0  0
   45.4371   56.7596   27.4857 N   0  0  0  0  0  0  0  0  0  0  0  0
   45.1500   57.3973   28.5891 C   0  0  0  0  0  0  0  0  0  0  0  0
   46.2709   57.5837   29.3487 N   0  0  0  0  0  0  0  0  0  0  0  0
  2  1  1  1  0  0  0
  2  3  1  0  0  0  0
  2  5  1  0  0  0  0
  3  4  1  0  0  0  0
  3 17  1  0  0  0  0
  5  6  1  0  0  0  0
  7  6  1  6  0  0  0
  7  8  1  0  0  0  0
  7  9  1  0  0  0  0
 10  9  1  6  0  0  0
 10 11  1  0  0  0  0
 10 12  1  0  0  0  0
 11 16  1  0  0  0  0
 12 13  1  1  0  0  0
 12 14  1  0  0  0  0
 14 15  1  6  0  0  0
 14 16  1  0  0  0  0
 16 27  1  6  0  0  0
 18 19  2  0  0  0  0
 18 23  1  0  0  0  0
 19 20  1  0  0  0  0
 20 21  2  0  0  0  0
 21 22  1  0  0  0  0
 21 27  1  0  0  0  0
 22 23  2  0  0  0  0
 22 25  1  0  0  0  0
 23 24  1  0  0  0  0
 25 26  2  0  0  0  0
 26 27  1  0  0  0  0
M  END
>  <CHROM.1>
179.62224607,-65.55185080,-176.25210413,-76.74198032,-66.25379277,81.84216123
-107.79481549,48.02713849,55.80260878,30.01496687,-1.19951481,-1.07143566
1.33290831

>  <Name>
ligand

>  <RI>
0

>  <Rbt.Current_Directory>
/home/itssahil/PROJECTS/Mol_Feturizer/New_Systems/rnas/3IQR

>  <Rbt.Executable>
rbdock ($Id: //depot/dev/client3/rdock/2013.1/src/exe/rbdock.cxx#4 $)

>  <Rbt.Library>
libRbt.so (2013.1, Build901 2013/11/27)

>  <Rbt.Parameter_File>
/export/apps/rDock/src/rDock_2013.1_src/data/scripts/dock_solv.prm

>  <Rbt.Receptor>
prm/pocket_docking_4.prm

>  <SCORE>
-18.9176

>  <SCORE.INTER>
-11.3212

>  <SCORE.INTER.CONST>
1

>  <SCORE.INTER.POLAR>
0

>  <SCORE.INTER.ROT>
7

>  <SCORE.INTER.SOLV>
13

>  <SCORE.INTER.VDW>
-20.1475

>  <SCORE.INTER.norm>
-0.419304

>  <SCORE.INTRA>
-7.59636

>  <SCORE.INTRA.DIHEDRAL>
-3.88924

>  <SCORE.INTRA.DIHEDRAL.0>
9.29433

>  <SCORE.INTRA.POLAR>
0

>  <SCORE.INTRA.POLAR.0>
0

>  <SCORE.INTRA.REPUL>
0

>  <SCORE.INTRA.REPUL.0>
0

>  <SCORE.INTRA.SOLV>
-0.476216

>  <SCORE.INTRA.SOLV.lig_0>
-48.5102

>  <SCORE.INTRA.VDW>
-5.41363

>  <SCORE.INTRA.VDW.0>
0.379549

>  <SCORE.INTRA.norm>
-0.281347

>  <SCORE.RESTR>
0

>  <SCORE.RESTR.CAVITY>
0

>  <SCORE.RESTR.norm>
0

>  <SCORE.SYSTEM>
0

>  <SCORE.SYSTEM.CONST>
0

>  <SCORE.SYSTEM.DIHEDRAL>
0

>  <SCORE.SYSTEM.SOLV>
0

>  <SCORE.SYSTEM.norm>
0

>  <SCORE.heavy>
27

>  <SCORE.norm>
-0.700651

>  <RMSD>
5.044

$$$$
ligand
 OpenBabel11021811483D
libRbt.so/2013.1/901 2013/11/27
 27 29  0  0  0  0  0  0  0  0999 V2000
   47.6092   53.2187   28.5226 N   0  0  0  0  0  0  0  0  0  0  0  0
   48.9184   53.0400   27.8964 C   0  0  2  0  0  0  0  0  0  0  0  0
   49.2750   51.5816   27.9001 C   0  0  0  0  0  0  0  0  0  0  0  0
   50.0751   51.1444   27.0797 O   0  0  0  0  0  0  0  0  0  0  0  0
   49.9853   53.8171   28.6665 C   0  0  0  0  0  0  0  0  0  0  0  0
   49.8020   55.2999   28.3990 C   0  0  0  0  0  0  0  0  0  0  0  0
   48.4341   56.0527   29.3364 S   0  0  2  0  0  0  0  0  0  0  0  0
   48.1894   57.6765   28.5583 C   0  0  0  0  0  0  0  0  0  0  0  0
   49.2997   56.8616   30.8130 C   0  0  0  0  0  0  0  0  0  0  0  0
   48.4289   57.4402   32.0059 C   0  0  2  0  0  0  0  0  0  0  0  0
   47.4062   56.6322   32.5429 O   0  0  0  0  0  0  0  0  0  0  0  0
   47.9316   58.8298   31.9735 C   0  0  1  0  0  0  0  0  0  0  0  0
   48.6230   59.6409   31.0228 O   0  0  0  0  0  0  0  0  0  0  0  0
   46.4163   58.4737   31.5964 C   0  0  2  0  0  0  0  0  0  0  0  0
   45.5944   59.5932   31.7378 O   0  0  0  0  0  0  0  0  0  0  0  0
   46.1208   57.3977   32.6395 C   0  0  1  0  0  0  0  0  0  0  0  0
   48.7964   50.8410   28.7496 O   0  0  0  0  0  0  0  0  0  0  0  0
   43.0823   55.4569   29.0158 N   0  0  0  0  0  0  0  0  0  0  0  0
   43.9423   56.4783   28.9815 C   0  0  0  0  0  0  0  0  0  0  0  0
   44.6648   56.8069   30.0484 N   0  0  0  0  0  0  0  0  0  0  0  0
   44.4849   56.1976   31.2310 C   0  0  0  0  0  0  0  0  0  0  0  0
   43.5419   55.1423   31.3319 C   0  0  0  0  0  0  0  0  0  0  0  0
   42.8339   54.7779   30.1531 C   0  0  0  0  0  0  0  0  0  0  0  0
   41.9111   53.7517   30.1645 N   0  0  0  0  0  0  0  0  0  0  0  0
   43.5550   54.7163   32.6072 N   0  0  0  0  0  0  0  0  0  0  0  0
   44.4162   55.4216   33.2908 C   0  0  0  0  0  0  0  0  0  0  0  0
   45.0308   56.3454   32.4927 N   0  0  0  0  0  0  0  0  0  0  0  0
  2  1  1  1  0  0  0
  2  3  1  0  0  0  0
  2  5  1  0  0  0  0
  3  4  1  0  0  0  0
  3 17  1  0  0  0  0
  5  6  1  0  0  0  0
  7  6  1  6  0  0  0
  7  8  1  0  0  0  0
  7  9  1  0  0  0  0
 10  9  1  6  0  0  0
 10 11  1  0  0  0  0
 10 12  1  0  0  0  0
 11 16  1  0  0  0  0
 12 13  1  6  0  0  0
 12 14  1  0  0  0  0
 14 15  1  1  0  0  0
 14 16  1  0  0  0  0
 16 27  1  6  0  0  0
 18 19  2  0  0  0  0
 18 23  1  0  0  0  0
 19 20  1  0  0  0  0
 20 21  2  0  0  0  0
 21 22  1  0  0  0  0
 21 27  1  0  0  0  0
 22 23  2  0  0  0  0
 22 25  1  0  0  0  0
 23 24  1  0  0  0  0
 25 26  2  0  0  0  0
 26 27  1  0  0  0  0
M  END
>  <CHROM.1>
156.36602734,-72.66506107,77.62322101,-167.18049622,-170.46702734,47.92935576
-97.41785580,46.77839432,55.67941034,30.25515949,0.88971702,-0.25831014,-2.67012235

>  <Name>
ligand

>  <RI>
0

>  <Rbt.Current_Directory>
/home/itssahil/PROJECTS/Mol_Feturizer/New_Systems/rnas/3IQR

>  <Rbt.Executable>
rbdock ($Id: //depot/dev/client3/rdock/2013.1/src/exe/rbdock.cxx#4 $)

>  <Rbt.Library>
libRbt.so (2013.1, Build901 2013/11/27)

>  <Rbt.Parameter_File>
/export/apps/rDock/src/rDock_2013.1_src/data/scripts/dock_solv.prm

>  <Rbt.Receptor>
prm/pocket_docking_8.prm

>  <SCORE>
-17.0539

>  <SCORE.INTER>
-12.9363

>  <SCORE.INTER.CONST>
1

>  <SCORE.INTER.POLAR>
0

>  <SCORE.INTER.ROT>
7

>  <SCORE.INTER.SOLV>
6.71906

>  <SCORE.INTER.VDW>
-19.1306

>  <SCORE.INTER.norm>
-0.479123

>  <SCORE.INTRA>
-4.11753

>  <SCORE.INTRA.DIHEDRAL>
-1.14333

>  <SCORE.INTRA.DIHEDRAL.0>
9.29433

>  <SCORE.INTRA.POLAR>
0

>  <SCORE.INTRA.POLAR.0>
0

>  <SCORE.INTRA.REPUL>
0

>  <SCORE.INTRA.REPUL.0>
0

>  <SCORE.INTRA.SOLV>
0.677494

>  <SCORE.INTRA.SOLV.lig_0>
-48.5102

>  <SCORE.INTRA.VDW>
-3.88462

>  <SCORE.INTRA.VDW.0>
0.379549

>  <SCORE.INTRA.norm>
-0.152501

>  <SCORE.RESTR>
0

>  <SCORE.RESTR.CAVITY>
0

>  <SCORE.RESTR.norm>
0

>  <SCORE.SYSTEM>
0

>  <SCORE.SYSTEM.CONST>
0

>  <SCORE.SYSTEM.DIHEDRAL>
0

>  <SCORE.SYSTEM.SOLV>
0

>  <SCORE.SYSTEM.norm>
0

>  <SCORE.heavy>
27

>  <SCORE.norm>
-0.631624

>  <RMSD>
5.046

$$$$
ligand
 OpenBabel11021811483D
libRbt.so/2013.1/901 2013/11/27
 27 29  0  0  0  0  0  0  0  0999 V2000
   48.0241   52.1200   25.9097 N   0  0  0  0  0  0  0  0  0  0  0  0
   46.7317   51.7453   26.4817 C   0  0  2  0  0  0  0  0  0  0  0  0
   45.6439   52.0544   25.4942 C   0  0  0  0  0  0  0  0  0  0  0  0
   45.8896   52.7387   24.5063 O   0  0  0  0  0  0  0  0  0  0  0  0
   46.4746   52.5273   27.7692 C   0  0  0  0  0  0  0  0  0  0  0  0
   46.6513   54.0084   27.4880 C   0  0  0  0  0  0  0  0  0  0  0  0
   46.4745   55.0629   28.9623 S   0  0  2  0  0  0  0  0  0  0  0  0
   44.7659   55.6762   28.8801 C   0  0  0  0  0  0  0  0  0  0  0  0
   47.1326   56.7426   28.3885 C   0  0  0  0  0  0  0  0  0  0  0  0
   47.3609   57.8957   29.4537 C   0  0  2  0  0  0  0  0  0  0  0  0
   48.1407   57.6111   30.5931 O   0  0  0  0  0  0  0  0  0  0  0  0
   46.2444   58.7623   29.8798 C   0  0  1  0  0  0  0  0  0  0  0  0
   45.1337   58.7115   28.9835 O   0  0  0  0  0  0  0  0  0  0  0  0
   46.0072   58.0690   31.3041 C   0  0  2  0  0  0  0  0  0  0  0  0
   45.1504   58.8386   32.0931 O   0  0  0  0  0  0  0  0  0  0  0  0
   47.4370   58.0523   31.8412 C   0  0  1  0  0  0  0  0  0  0  0  0
   44.5241   51.5872   25.6575 O   0  0  0  0  0  0  0  0  0  0  0  0
   45.7282   54.0817   34.5698 N   0  0  0  0  0  0  0  0  0  0  0  0
   45.1015   54.8821   33.7034 C   0  0  0  0  0  0  0  0  0  0  0  0
   45.7496   55.8572   33.0730 N   0  0  0  0  0  0  0  0  0  0  0  0
   47.0293   56.1460   33.3579 C   0  0  0  0  0  0  0  0  0  0  0  0
   47.7227   55.3585   34.3130 C   0  0  0  0  0  0  0  0  0  0  0  0
   47.0137   54.2847   34.9194 C   0  0  0  0  0  0  0  0  0  0  0  0
   47.6217   53.4627   35.8466 N   0  0  0  0  0  0  0  0  0  0  0  0
   48.9677   55.8566   34.4124 N   0  0  0  0  0  0  0  0  0  0  0  0
   49.0908   56.8789   33.6085 C   0  0  0  0  0  0  0  0  0  0  0  0
   47.9300   57.0999   32.9215 N   0  0  0  0  0  0  0  0  0  0  0  0
  2  1  1  6  0  0  0
  2  3  1  0  0  0  0
  2  5  1  0  0  0  0
  3  4  1  0  0  0  0
  3 17  1  0  0  0  0
  5  6  1  0  0  0  0
  7  6  1  6  0  0  0
  7  8  1  0  0  0  0
  7  9  1  0  0  0  0
 10  9  1  1  0  0  0
 10 11  1  0  0  0  0
 10 12  1  0  0  0  0
 11 16  1  0  0  0  0
 12 13  1  6  0  0  0
 12 14  1  0  0  0  0
 14 15  1  1  0  0  0
 14 16  1  0  0  0  0
 16 27  1  1  0  0  0
 18 19  2  0  0  0  0
 18 23  1  0  0  0  0
 19 20  1  0  0  0  0
 20 21  2  0  0  0  0
 21 22  1  0  0  0  0
 21 27  1  0  0  0  0
 22 23  2  0  0  0  0
 22 25  1  0  0  0  0
 23 24  1  0  0  0  0
 25 26  2  0  0  0  0
 26 27  1  0  0  0  0
M  END
>  <CHROM.1>
-11.90934911,52.69504360,-176.46459660,-98.26393086,-170.58806562,52.58267317
-106.93347454,46.61125702,55.40413254,30.34805004,-2.46161474,-1.40615344
0.25929092

>  <Name>
ligand

>  <RI>
0

>  <Rbt.Current_Directory>
/home/itssahil/PROJECTS/Mol_Feturizer/New_Systems/rnas/3IQR

>  <Rbt.Executable>
rbdock ($Id: //depot/dev/client3/rdock/2013.1/src/exe/rbdock.cxx#4 $)

>  <Rbt.Library>
libRbt.so (2013.1, Build901 2013/11/27)

>  <Rbt.Parameter_File>
/export/apps/rDock/src/rDock_2013.1_src/data/scripts/dock_solv.prm

>  <Rbt.Receptor>
prm/pocket_docking_5.prm

>  <SCORE>
-15.3425

>  <SCORE.INTER>
-11.287

>  <SCORE.INTER.CONST>
1

>  <SCORE.INTER.POLAR>
0

>  <SCORE.INTER.ROT>
7

>  <SCORE.INTER.SOLV>
12.427

>  <SCORE.INTER.VDW>
-19.9337

>  <SCORE.INTER.norm>
-0.418038

>  <SCORE.INTRA>
-4.06603

>  <SCORE.INTRA.DIHEDRAL>
-2.69103

>  <SCORE.INTRA.DIHEDRAL.0>
9.29433

>  <SCORE.INTRA.POLAR>
0

>  <SCORE.INTRA.POLAR.0>
0

>  <SCORE.INTRA.REPUL>
0

>  <SCORE.INTRA.REPUL.0>
0

>  <SCORE.INTRA.SOLV>
-0.482977

>  <SCORE.INTRA.SOLV.lig_0>
-48.5102

>  <SCORE.INTRA.VDW>
-2.47903

>  <SCORE.INTRA.VDW.0>
0.379549

>  <SCORE.INTRA.norm>
-0.150594

>  <SCORE.RESTR>
0.0106145

>  <SCORE.RESTR.CAVITY>
0.0106145

>  <SCORE.RESTR.norm>
0.000393129

>  <SCORE.SYSTEM>
0

>  <SCORE.SYSTEM.CONST>
0

>  <SCORE.SYSTEM.DIHEDRAL>
0

>  <SCORE.SYSTEM.SOLV>
0

>  <SCORE.SYSTEM.norm>
0

>  <SCORE.heavy>
27

>  <SCORE.norm>
-0.568239

>  <RMSD>
5.047

$$$$
ligand
 OpenBabel11021811483D
libRbt.so/2013.1/901 2013/11/27
 27 29  0  0  0  0  0  0  0  0999 V2000
   46.0108   55.4499   27.3662 N   0  0  0  0  0  0  0  0  0  0  0  0
   46.3386   56.8117   27.7857 C   0  0  2  0  0  0  0  0  0  0  0  0
   47.8202   57.0240   27.6675 C   0  0  0  0  0  0  0  0  0  0  0  0
   48.5478   56.0940   27.3357 O   0  0  0  0  0  0  0  0  0  0  0  0
   45.9160   57.0359   29.2370 C   0  0  0  0  0  0  0  0  0  0  0  0
   45.9253   58.5259   29.5268 C   0  0  0  0  0  0  0  0  0  0  0  0
   45.4708   58.9446   31.2399 S   0  0  2  0  0  0  0  0  0  0  0  0
   46.0230   60.6631   31.4495 C   0  0  0  0  0  0  0  0  0  0  0  0
   46.9420   58.3207   32.2550 C   0  0  0  0  0  0  0  0  0  0  0  0
   47.3981   56.8076   32.1177 C   0  0  2  0  0  0  0  0  0  0  0  0
   46.4489   55.7958   32.3678 O   0  0  0  0  0  0  0  0  0  0  0  0
   48.6908   56.3553   32.6686 C   0  0  1  0  0  0  0  0  0  0  0  0
   49.5829   57.4368   32.9410 O   0  0  0  0  0  0  0  0  0  0  0  0
   48.0928   55.6193   33.9594 C   0  0  2  0  0  0  0  0  0  0  0  0
   49.0709   54.8447   34.5856 O   0  0  0  0  0  0  0  0  0  0  0  0
   47.0035   54.7689   33.3088 C   0  0  1  0  0  0  0  0  0  0  0  0
   48.2922   58.1367   27.8630 O   0  0  0  0  0  0  0  0  0  0  0  0
   41.9463   54.3718   32.6782 N   0  0  0  0  0  0  0  0  0  0  0  0
   42.8744   54.9851   31.9390 C   0  0  0  0  0  0  0  0  0  0  0  0
   44.1605   54.9443   32.2747 N   0  0  0  0  0  0  0  0  0  0  0  0
   44.5673   54.3784   33.4220 C   0  0  0  0  0  0  0  0  0  0  0  0
   43.6108   53.7615   34.2693 C   0  0  0  0  0  0  0  0  0  0  0  0
   42.2531   53.7707   33.8447 C   0  0  0  0  0  0  0  0  0  0  0  0
   41.2648   53.1786   34.6046 N   0  0  0  0  0  0  0  0  0  0  0  0
   44.2732   53.2847   35.3378 N   0  0  0  0  0  0  0  0  0  0  0  0
   45.5442   53.5616   35.2187 C   0  0  0  0  0  0  0  0  0  0  0  0
   45.7896   54.2266   34.0501 N   0  0  0  0  0  0  0  0  0  0  0  0
  2  1  1  1  0  0  0
  2  3  1  0  0  0  0
  2  5  1  0  0  0  0
  3  4  1  0  0  0  0
  3 17  1  0  0  0  0
  5  6  1  0  0  0  0
  7  6  1  6  0  0  0
  7  8  1  0  0  0  0
  7  9  1  0  0  0  0
 10  9  1  1  0  0  0
 10 11  1  0  0  0  0
 10 12  1  0  0  0  0
 11 16  1  0  0  0  0
 12 13  1  1  0  0  0
 12 14  1  0  0  0  0
 14 15  1  6  0  0  0
 14 16  1  0  0  0  0
 16 27  1  1  0  0  0
 18 19  2  0  0  0  0
 18 23  1  0  0  0  0
 19 20  1  0  0  0  0
 20 21  2  0  0  0  0
 21 22  1  0  0  0  0
 21 27  1  0  0  0  0
 22 23  2  0  0  0  0
 22 25  1  0  0  0  0
 23 24  1  0  0  0  0
 25 26  2  0  0  0  0
 26 27  1  0  0  0  0
M  END
>  <CHROM.1>
-3.89337946,-165.23108214,-178.87081284,163.93747009,-54.82023671,-56.27333663
22.43338147,45.98842955,56.09905568,31.81983859,1.03311516,-0.34524702,-1.12986163

>  <Name>
ligand

>  <RI>
0

>  <Rbt.Current_Directory>
/home/itssahil/PROJECTS/Mol_Feturizer/New_Systems/rnas/3IQR

>  <Rbt.Executable>
rbdock ($Id: //depot/dev/client3/rdock/2013.1/src/exe/rbdock.cxx#4 $)

>  <Rbt.Library>
libRbt.so (2013.1, Build901 2013/11/27)

>  <Rbt.Parameter_File>
/export/apps/rDock/src/rDock_2013.1_src/data/scripts/dock_solv.prm

>  <Rbt.Receptor>
prm/pocket_docking_8.prm

>  <SCORE>
-18.9911

>  <SCORE.INTER>
-14.5676

>  <SCORE.INTER.CONST>
1

>  <SCORE.INTER.POLAR>
0

>  <SCORE.INTER.ROT>
7

>  <SCORE.INTER.SOLV>
11.1904

>  <SCORE.INTER.VDW>
-21.7086

>  <SCORE.INTER.norm>
-0.539542

>  <SCORE.INTRA>
-4.42344

>  <SCORE.INTRA.DIHEDRAL>
-3.97486

>  <SCORE.INTRA.DIHEDRAL.0>
9.29433

>  <SCORE.INTRA.POLAR>
0

>  <SCORE.INTRA.POLAR.0>
0

>  <SCORE.INTRA.REPUL>
0

>  <SCORE.INTRA.REPUL.0>
0

>  <SCORE.INTRA.SOLV>
-1.70275

>  <SCORE.INTRA.SOLV.lig_0>
-48.5102

>  <SCORE.INTRA.VDW>
-1.58464

>  <SCORE.INTRA.VDW.0>
0.379549

>  <SCORE.INTRA.norm>
-0.163831

>  <SCORE.RESTR>
0

>  <SCORE.RESTR.CAVITY>
0

>  <SCORE.RESTR.norm>
0

>  <SCORE.SYSTEM>
0

>  <SCORE.SYSTEM.CONST>
0

>  <SCORE.SYSTEM.DIHEDRAL>
0

>  <SCORE.SYSTEM.SOLV>
0

>  <SCORE.SYSTEM.norm>
0

>  <SCORE.heavy>
27

>  <SCORE.norm>
-0.703373

>  <RMSD>
5.050

$$$$
ligand
 OpenBabel11021811483D
libRbt.so/2013.1/901 2013/11/27
 27 29  0  0  0  0  0  0  0  0999 V2000
   47.6794   52.6863   29.4003 N   0  0  0  0  0  0  0  0  0  0  0  0
   48.6048   53.7787   29.1033 C   0  0  2  0  0  0  0  0  0  0  0  0
   49.4761   54.0298   30.2999 C   0  0  0  0  0  0  0  0  0  0  0  0
   50.0139   53.0889   30.8744 O   0  0  0  0  0  0  0  0  0  0  0  0
   47.8310   55.0543   28.7723 C   0  0  0  0  0  0  0  0  0  0  0  0
   46.7627   54.7282   27.7446 C   0  0  0  0  0  0  0  0  0  0  0  0
   45.6875   56.1381   27.3289 S   0  0  2  0  0  0  0  0  0  0  0  0
   46.8300   57.4225   26.7395 C   0  0  0  0  0  0  0  0  0  0  0  0
   45.4819   57.0418   28.9797 C   0  0  0  0  0  0  0  0  0  0  0  0
   46.6591   57.9583   29.5185 C   0  0  2  0  0  0  0  0  0  0  0  0
   47.6074   57.3875   30.3916 O   0  0  0  0  0  0  0  0  0  0  0  0
   46.3933   59.3341   29.9832 C   0  0  1  0  0  0  0  0  0  0  0  0
   45.1336   59.8344   29.5332 O   0  0  0  0  0  0  0  0  0  0  0  0
   46.4845   59.0192   31.5509 C   0  0  2  0  0  0  0  0  0  0  0  0
   46.5264   60.2014   32.2921 O   0  0  0  0  0  0  0  0  0  0  0  0
   47.8054   58.2535   31.5993 C   0  0  1  0  0  0  0  0  0  0  0  0
   49.6800   55.1779   30.6731 O   0  0  0  0  0  0  0  0  0  0  0  0
   45.8386   54.2464   34.0904 N   0  0  0  0  0  0  0  0  0  0  0  0
   45.3004   55.0581   33.1763 C   0  0  0  0  0  0  0  0  0  0  0  0
   46.0067   56.0417   32.6269 N   0  0  0  0  0  0  0  0  0  0  0  0
   47.2511   56.3270   33.0422 C   0  0  0  0  0  0  0  0  0  0  0  0
   47.8468   55.5270   34.0514 C   0  0  0  0  0  0  0  0  0  0  0  0
   47.0824   54.4450   34.5695 C   0  0  0  0  0  0  0  0  0  0  0  0
   47.5960   53.6109   35.5419 N   0  0  0  0  0  0  0  0  0  0  0  0
   49.0748   56.0241   34.2813 N   0  0  0  0  0  0  0  0  0  0  0  0
   49.2760   57.0570   33.5074 C   0  0  0  0  0  0  0  0  0  0  0  0
   48.1894   57.2868   32.7107 N   0  0  0  0  0  0  0  0  0  0  0  0
  2  1  1  1  0  0  0
  2  3  1  0  0  0  0
  2  5  1  0  0  0  0
  3  4  1  0  0  0  0
  3 17  1  0  0  0  0
  5  6  1  0  0  0  0
  7  6  1  1  0  0  0
  7  8  1  0  0  0  0
  7  9  1  0  0  0  0
 10  9  1  1  0  0  0
 10 11  1  0  0  0  0
 10 12  1  0  0  0  0
 11 16  1  0  0  0  0
 12 13  1  1  0  0  0
 12 14  1  0  0  0  0
 14 15  1  1  0  0  0
 14 16  1  0  0  0  0
 16 27  1  1  0  0  0
 18 19  2  0  0  0  0
 18 23  1  0  0  0  0
 19 20  1  0  0  0  0
 20 21  2  0  0  0  0
 21 22  1  0  0  0  0
 21 27  1  0  0  0  0
 22 23  2  0  0  0  0
 22 25  1  0  0  0  0
 23 24  1  0  0  0  0
 25 26  2  0  0  0  0
 26 27  1  0  0  0  0
M  END
>  <CHROM.1>
47.18238901,-49.11130177,176.37207730,57.51500096,77.47187076,-92.98827823
-61.68918702,47.26219242,56.20694510,30.94901067,-2.29016662,-1.17017383
1.27707000

>  <Name>
ligand

>  <RI>
0

>  <Rbt.Current_Directory>
/home/itssahil/PROJECTS/Mol_Feturizer/New_Systems/rnas/3IQR

>  <Rbt.Executable>
rbdock ($Id: //depot/dev/client3/rdock/2013.1/src/exe/rbdock.cxx#4 $)

>  <Rbt.Library>
libRbt.so (2013.1, Build901 2013/11/27)

>  <Rbt.Parameter_File>
/export/apps/rDock/src/rDock_2013.1_src/data/scripts/dock_solv.prm

>  <Rbt.Receptor>
prm/pocket_docking_3.prm

>  <SCORE>
-9.89075

>  <SCORE.INTER>
-9.6702

>  <SCORE.INTER.CONST>
1

>  <SCORE.INTER.POLAR>
0

>  <SCORE.INTER.ROT>
7

>  <SCORE.INTER.SOLV>
13.7405

>  <SCORE.INTER.VDW>
-19.2936

>  <SCORE.INTER.norm>
-0.358155

>  <SCORE.INTRA>
-0.220551

>  <SCORE.INTRA.DIHEDRAL>
-0.738112

>  <SCORE.INTRA.DIHEDRAL.0>
9.29433

>  <SCORE.INTRA.POLAR>
0

>  <SCORE.INTRA.POLAR.0>
0

>  <SCORE.INTRA.REPUL>
0

>  <SCORE.INTRA.REPUL.0>
0

>  <SCORE.INTRA.SOLV>
-0.592238

>  <SCORE.INTRA.SOLV.lig_0>
-48.5102

>  <SCORE.INTRA.VDW>
0.444623

>  <SCORE.INTRA.VDW.0>
0.379549

>  <SCORE.INTRA.norm>
-0.00816857

>  <SCORE.RESTR>
0

>  <SCORE.RESTR.CAVITY>
0

>  <SCORE.RESTR.norm>
0

>  <SCORE.SYSTEM>
0

>  <SCORE.SYSTEM.CONST>
0

>  <SCORE.SYSTEM.DIHEDRAL>
0

>  <SCORE.SYSTEM.SOLV>
0

>  <SCORE.SYSTEM.norm>
0

>  <SCORE.heavy>
27

>  <SCORE.norm>
-0.366324

>  <RMSD>
5.059

$$$$
ligand
 OpenBabel11021811483D
libRbt.so/2013.1/901 2013/11/27
 27 29  0  0  0  0  0  0  0  0999 V2000
   48.3553   53.4116   25.1384 N   0  0  0  0  0  0  0  0  0  0  0  0
   49.0330   54.7054   25.2075 C   0  0  2  0  0  0  0  0  0  0  0  0
   50.4801   54.5270   24.8496 C   0  0  0  0  0  0  0  0  0  0  0  0
   51.2231   53.8990   25.5967 O   0  0  0  0  0  0  0  0  0  0  0  0
   48.9349   55.2809   26.6197 C   0  0  0  0  0  0  0  0  0  0  0  0
   47.4801   55.5881   26.9251 C   0  0  0  0  0  0  0  0  0  0  0  0
   47.1793   56.0790   28.6529 S   0  0  2  0  0  0  0  0  0  0  0  0
   45.3990   56.4371   28.7203 C   0  0  0  0  0  0  0  0  0  0  0  0
   47.5785   57.9296   28.6648 C   0  0  0  0  0  0  0  0  0  0  0  0
   47.4568   58.7446   30.0202 C   0  0  2  0  0  0  0  0  0  0  0  0
   48.1557   58.2741   31.1505 O   0  0  0  0  0  0  0  0  0  0  0  0
   46.1499   59.2533   30.4812 C   0  0  1  0  0  0  0  0  0  0  0  0
   45.1716   59.2825   29.4412 O   0  0  0  0  0  0  0  0  0  0  0  0
   45.9118   58.1470   31.6146 C   0  0  2  0  0  0  0  0  0  0  0  0
   44.8398   58.5017   32.4356 O   0  0  0  0  0  0  0  0  0  0  0  0
   47.2518   58.2112   32.3449 C   0  0  1  0  0  0  0  0  0  0  0  0
   50.9042   54.9744   23.7918 O   0  0  0  0  0  0  0  0  0  0  0  0
   45.6131   54.0334   34.7927 N   0  0  0  0  0  0  0  0  0  0  0  0
   44.9394   54.9932   34.1531 C   0  0  0  0  0  0  0  0  0  0  0  0
   45.5726   55.9964   33.5524 N   0  0  0  0  0  0  0  0  0  0  0  0
   46.9030   56.1452   33.6528 C   0  0  0  0  0  0  0  0  0  0  0  0
   47.6575   55.1806   34.3695 C   0  0  0  0  0  0  0  0  0  0  0  0
   46.9511   54.0878   34.9444 C   0  0  0  0  0  0  0  0  0  0  0  0
   47.6139   53.0996   35.6437 N   0  0  0  0  0  0  0  0  0  0  0  0
   48.9450   55.5649   34.3210 N   0  0  0  0  0  0  0  0  0  0  0  0
   49.0397   56.6786   33.6449 C   0  0  0  0  0  0  0  0  0  0  0  0
   47.8128   57.0811   33.1966 N   0  0  0  0  0  0  0  0  0  0  0  0
  2  1  1  1  0  0  0
  2  3  1  0  0  0  0
  2  5  1  0  0  0  0
  3  4  1  0  0  0  0
  3 17  1  0  0  0  0
  5  6  1  0  0  0  0
  7  6  1  6  0  0  0
  7  8  1  0  0  0  0
  7  9  1  0  0  0  0
 10  9  1  6  0  0  0
 10 11  1  0  0  0  0
 10 12  1  0  0  0  0
 11 16  1  0  0  0  0
 12 13  1  6  0  0  0
 12 14  1  0  0  0  0
 14 15  1  1  0  0  0
 14 16  1  0  0  0  0
 16 27  1  6  0  0  0
 18 19  2  0  0  0  0
 18 23  1  0  0  0  0
 19 20  1  0  0  0  0
 20 21  2  0  0  0  0
 21 22  1  0  0  0  0
 21 27  1  0  0  0  0
 22 23  2  0  0  0  0
 22 25  1  0  0  0  0
 23 24  1  0  0  0  0
 25 26  2  0  0  0  0
 26 27  1  0  0  0  0
M  END
>  <CHROM.1>
-67.83284936,-65.49624045,172.48451672,178.10392828,-179.17064041,53.99127660
-131.57298268,47.49521521,56.17688979,30.31588533,-0.97660787,-0.98692165
1.96458307

>  <Name>
ligand

>  <RI>
0

>  <Rbt.Current_Directory>
/home/itssahil/PROJECTS/Mol_Feturizer/New_Systems/rnas/3IQR

>  <Rbt.Executable>
rbdock ($Id: //depot/dev/client3/rdock/2013.1/src/exe/rbdock.cxx#4 $)

>  <Rbt.Library>
libRbt.so (2013.1, Build901 2013/11/27)

>  <Rbt.Parameter_File>
/export/apps/rDock/src/rDock_2013.1_src/data/scripts/dock_solv.prm

>  <Rbt.Receptor>
prm/pocket_docking_8.prm

>  <SCORE>
-19.0152

>  <SCORE.INTER>
-13.9264

>  <SCORE.INTER.CONST>
1

>  <SCORE.INTER.POLAR>
0

>  <SCORE.INTER.ROT>
7

>  <SCORE.INTER.SOLV>
11.3866

>  <SCORE.INTER.VDW>
-21.3465

>  <SCORE.INTER.norm>
-0.515794

>  <SCORE.INTRA>
-5.08871

>  <SCORE.INTRA.DIHEDRAL>
-4.42905

>  <SCORE.INTRA.DIHEDRAL.0>
9.29433

>  <SCORE.INTRA.POLAR>
0

>  <SCORE.INTRA.POLAR.0>
0

>  <SCORE.INTRA.REPUL>
0

>  <SCORE.INTRA.REPUL.0>
0

>  <SCORE.INTRA.SOLV>
-0.517628

>  <SCORE.INTRA.SOLV.lig_0>
-48.5102

>  <SCORE.INTRA.VDW>
-2.61537

>  <SCORE.INTRA.VDW.0>
0.379549

>  <SCORE.INTRA.norm>
-0.188471

>  <SCORE.RESTR>
0

>  <SCORE.RESTR.CAVITY>
0

>  <SCORE.RESTR.norm>
0

>  <SCORE.SYSTEM>
0

>  <SCORE.SYSTEM.CONST>
0

>  <SCORE.SYSTEM.DIHEDRAL>
0

>  <SCORE.SYSTEM.SOLV>
0

>  <SCORE.SYSTEM.norm>
0

>  <SCORE.heavy>
27

>  <SCORE.norm>
-0.704265

>  <RMSD>
5.059

$$$$
ligand
 OpenBabel11021811483D
libRbt.so/2013.1/901 2013/11/27
 27 29  0  0  0  0  0  0  0  0999 V2000
   44.4545   53.0187   29.0393 N   0  0  0  0  0  0  0  0  0  0  0  0
   45.6120   52.7680   28.1820 C   0  0  2  0  0  0  0  0  0  0  0  0
   46.7118   52.1554   29.0001 C   0  0  0  0  0  0  0  0  0  0  0  0
   47.6231   51.5497   28.4459 O   0  0  0  0  0  0  0  0  0  0  0  0
   46.1130   54.0761   27.5711 C   0  0  0  0  0  0  0  0  0  0  0  0
   47.1251   53.7558   26.4862 C   0  0  0  0  0  0  0  0  0  0  0  0
   48.0669   55.2036   25.9086 S   0  0  2  0  0  0  0  0  0  0  0  0
   49.6531   54.5187   25.3454 C   0  0  0  0  0  0  0  0  0  0  0  0
   48.8814   55.8617   27.4858 C   0  0  0  0  0  0  0  0  0  0  0  0
   48.5137   57.3147   28.0050 C   0  0  2  0  0  0  0  0  0  0  0  0
   48.8528   57.6594   29.3292 O   0  0  0  0  0  0  0  0  0  0  0  0
   47.1959   57.9113   27.7102 C   0  0  1  0  0  0  0  0  0  0  0  0
   46.5176   57.2496   26.6418 O   0  0  0  0  0  0  0  0  0  0  0  0
   46.5639   57.6882   29.1649 C   0  0  2  0  0  0  0  0  0  0  0  0
   45.3656   58.3920   29.2977 O   0  0  0  0  0  0  0  0  0  0  0  0
   47.6777   58.2633   30.0378 C   0  0  1  0  0  0  0  0  0  0  0  0
   46.7166   52.2984   30.2160 O   0  0  0  0  0  0  0  0  0  0  0  0
   48.6636   54.1532   32.9129 N   0  0  0  0  0  0  0  0  0  0  0  0
   48.4145   54.2668   31.6056 C   0  0  0  0  0  0  0  0  0  0  0  0
   48.2049   55.4541   31.0446 N   0  0  0  0  0  0  0  0  0  0  0  0
   48.1294   56.5735   31.7817 C   0  0  0  0  0  0  0  0  0  0  0  0
   48.3321   56.4965   33.1840 C   0  0  0  0  0  0  0  0  0  0  0  0
   48.6165   55.2176   33.7381 C   0  0  0  0  0  0  0  0  0  0  0  0
   48.8412   55.0610   35.0908 N   0  0  0  0  0  0  0  0  0  0  0  0
   48.1987   57.7410   33.6752 N   0  0  0  0  0  0  0  0  0  0  0  0
   47.9274   58.5655   32.6989 C   0  0  0  0  0  0  0  0  0  0  0  0
   47.8825   57.9051   31.5031 N   0  0  0  0  0  0  0  0  0  0  0  0
  2  1  1  1  0  0  0
  2  3  1  0  0  0  0
  2  5  1  0  0  0  0
  3  4  1  0  0  0  0
  3 17  1  0  0  0  0
  5  6  1  0  0  0  0
  7  6  1  1  0  0  0
  7  8  1  0  0  0  0
  7  9  1  0  0  0  0
 10  9  1  1  0  0  0
 10 11  1  0  0  0  0
 10 12  1  0  0  0  0
 11 16  1  0  0  0  0
 12 13  1  6  0  0  0
 12 14  1  0  0  0  0
 14 15  1  6  0  0  0
 14 16  1  0  0  0  0
 16 27  1  1  0  0  0
 18 19  2  0  0  0  0
 18 23  1  0  0  0  0
 19 20  1  0  0  0  0
 20 21  2  0  0  0  0
 21 22  1  0  0  0  0
 21 27  1  0  0  0  0
 22 23  2  0  0  0  0
 22 25  1  0  0  0  0
 23 24  1  0  0  0  0
 25 26  2  0  0  0  0
 26 27  1  0  0  0  0
M  END
>  <CHROM.1>
160.92975688,-168.93087729,-167.82069236,151.99963655,-117.36788141,164.24264253
-50.93464703,47.59289702,55.55801712,29.54743784,2.63877213,-1.41454676,-0.83292335

>  <Name>
ligand

>  <RI>
0

>  <Rbt.Current_Directory>
/home/itssahil/PROJECTS/Mol_Feturizer/New_Systems/rnas/3IQR

>  <Rbt.Executable>
rbdock ($Id: //depot/dev/client3/rdock/2013.1/src/exe/rbdock.cxx#4 $)

>  <Rbt.Library>
libRbt.so (2013.1, Build901 2013/11/27)

>  <Rbt.Parameter_File>
/export/apps/rDock/src/rDock_2013.1_src/data/scripts/dock_solv.prm

>  <Rbt.Receptor>
prm/pocket_docking_4.prm

>  <SCORE>
-11.9288

>  <SCORE.INTER>
-9.03433

>  <SCORE.INTER.CONST>
1

>  <SCORE.INTER.POLAR>
0

>  <SCORE.INTER.ROT>
7

>  <SCORE.INTER.SOLV>
17.4552

>  <SCORE.INTER.VDW>
-20.108

>  <SCORE.INTER.norm>
-0.334605

>  <SCORE.INTRA>
-2.89449

>  <SCORE.INTRA.DIHEDRAL>
0.924467

>  <SCORE.INTRA.DIHEDRAL.0>
9.29433

>  <SCORE.INTRA.POLAR>
0

>  <SCORE.INTRA.POLAR.0>
0

>  <SCORE.INTRA.REPUL>
0

>  <SCORE.INTRA.REPUL.0>
0

>  <SCORE.INTRA.SOLV>
-1.22503

>  <SCORE.INTRA.SOLV.lig_0>
-48.5102

>  <SCORE.INTRA.VDW>
-2.74421

>  <SCORE.INTRA.VDW.0>
0.379549

>  <SCORE.INTRA.norm>
-0.107203

>  <SCORE.RESTR>
0

>  <SCORE.RESTR.CAVITY>
0

>  <SCORE.RESTR.norm>
0

>  <SCORE.SYSTEM>
0

>  <SCORE.SYSTEM.CONST>
0

>  <SCORE.SYSTEM.DIHEDRAL>
0

>  <SCORE.SYSTEM.SOLV>
0

>  <SCORE.SYSTEM.norm>
0

>  <SCORE.heavy>
27

>  <SCORE.norm>
-0.441808

>  <RMSD>
5.060

$$$$
ligand
 OpenBabel11021811483D
libRbt.so/2013.1/901 2013/11/27
 27 29  0  0  0  0  0  0  0  0999 V2000
   50.1206   53.4491   26.3047 N   0  0  0  0  0  0  0  0  0  0  0  0
   50.0381   52.9749   27.6853 C   0  0  2  0  0  0  0  0  0  0  0  0
   49.2539   51.6952   27.7242 C   0  0  0  0  0  0  0  0  0  0  0  0
   49.0057   51.0969   26.6827 O   0  0  0  0  0  0  0  0  0  0  0  0
   49.3416   54.0145   28.5625 C   0  0  0  0  0  0  0  0  0  0  0  0
   48.0735   54.4744   27.8666 C   0  0  0  0  0  0  0  0  0  0  0  0
   47.0197   55.5483   28.8928 S   0  0  2  0  0  0  0  0  0  0  0  0
   45.6686   56.0506   27.7862 C   0  0  0  0  0  0  0  0  0  0  0  0
   47.8258   57.2530   28.7250 C   0  0  0  0  0  0  0  0  0  0  0  0
   47.7526   58.2726   29.9379 C   0  0  2  0  0  0  0  0  0  0  0  0
   48.3732   57.9157   31.1523 O   0  0  0  0  0  0  0  0  0  0  0  0
   46.4919   58.9670   30.2661 C   0  0  1  0  0  0  0  0  0  0  0  0
   45.5472   58.9301   29.1958 O   0  0  0  0  0  0  0  0  0  0  0  0
   46.1170   58.0737   31.5416 C   0  0  2  0  0  0  0  0  0  0  0  0
   45.0659   58.6492   32.2577 O   0  0  0  0  0  0  0  0  0  0  0  0
   47.4384   58.1212   32.3063 C   0  0  1  0  0  0  0  0  0  0  0  0
   48.9002   51.2317   28.8008 O   0  0  0  0  0  0  0  0  0  0  0  0
   45.6066   53.8966   34.5262 N   0  0  0  0  0  0  0  0  0  0  0  0
   45.0347   54.7593   33.6819 C   0  0  0  0  0  0  0  0  0  0  0  0
   45.7089   55.7972   33.1956 N   0  0  0  0  0  0  0  0  0  0  0  0
   46.9529   56.0818   33.6123 C   0  0  0  0  0  0  0  0  0  0  0  0
   47.5835   55.2253   34.5515 C   0  0  0  0  0  0  0  0  0  0  0  0
   46.8531   54.0901   35.0003 C   0  0  0  0  0  0  0  0  0  0  0  0
   47.4018   53.2003   35.9014 N   0  0  0  0  0  0  0  0  0  0  0  0
   48.8032   55.7342   34.7992 N   0  0  0  0  0  0  0  0  0  0  0  0
   48.9676   56.8253   34.1000 C   0  0  0  0  0  0  0  0  0  0  0  0
   47.8631   57.0859   33.3383 N   0  0  0  0  0  0  0  0  0  0  0  0
  2  1  1  6  0  0  0
  2  3  1  0  0  0  0
  2  5  1  0  0  0  0
  3  4  1  0  0  0  0
  3 17  1  0  0  0  0
  5  6  1  0  0  0  0
  7  6  1  6  0  0  0
  7  8  1  0  0  0  0
  7  9  1  0  0  0  0
 10  9  1  6  0  0  0
 10 11  1  0  0  0  0
 10 12  1  0  0  0  0
 11 16  1  0  0  0  0
 12 13  1  6  0  0  0
 12 14  1  0  0  0  0
 14 15  1  1  0  0  0
 14 16  1  0  0  0  0
 16 27  1  1  0  0  0
 18 19  2  0  0  0  0
 18 23  1  0  0  0  0
 19 20  1  0  0  0  0
 20 21  2  0  0  0  0
 21 22  1  0  0  0  0
 21 27  1  0  0  0  0
 22 23  2  0  0  0  0
 22 25  1  0  0  0  0
 23 24  1  0  0  0  0
 25 26  2  0  0  0  0
 26 27  1  0  0  0  0
M  END
>  <CHROM.1>
12.84243963,47.76447981,172.19568154,175.55031505,-148.42215652,62.76348436
-113.84990233,47.48205647,55.53764325,30.85194019,0.66004764,1.19584628,-1.18344154

>  <Name>
ligand

>  <RI>
0

>  <Rbt.Current_Directory>
/home/itssahil/PROJECTS/Mol_Feturizer/New_Systems/rnas/3IQR

>  <Rbt.Executable>
rbdock ($Id: //depot/dev/client3/rdock/2013.1/src/exe/rbdock.cxx#4 $)

>  <Rbt.Library>
libRbt.so (2013.1, Build901 2013/11/27)

>  <Rbt.Parameter_File>
/export/apps/rDock/src/rDock_2013.1_src/data/scripts/dock_solv.prm

>  <Rbt.Receptor>
prm/pocket_docking_4.prm

>  <SCORE>
-15.1395

>  <SCORE.INTER>
-12.0958

>  <SCORE.INTER.CONST>
1

>  <SCORE.INTER.POLAR>
0

>  <SCORE.INTER.ROT>
7

>  <SCORE.INTER.SOLV>
10.7014

>  <SCORE.INTER.VDW>
-19.8977

>  <SCORE.INTER.norm>
-0.447993

>  <SCORE.INTRA>
-3.04364

>  <SCORE.INTRA.DIHEDRAL>
-1.14699

>  <SCORE.INTRA.DIHEDRAL.0>
9.29433

>  <SCORE.INTRA.POLAR>
0

>  <SCORE.INTRA.POLAR.0>
0

>  <SCORE.INTRA.REPUL>
0

>  <SCORE.INTRA.REPUL.0>
0

>  <SCORE.INTRA.SOLV>
-0.520546

>  <SCORE.INTRA.SOLV.lig_0>
-48.5102

>  <SCORE.INTRA.VDW>
-2.20987

>  <SCORE.INTRA.VDW.0>
0.379549

>  <SCORE.INTRA.norm>
-0.112727

>  <SCORE.RESTR>
0

>  <SCORE.RESTR.CAVITY>
0

>  <SCORE.RESTR.norm>
0

>  <SCORE.SYSTEM>
0

>  <SCORE.SYSTEM.CONST>
0

>  <SCORE.SYSTEM.DIHEDRAL>
0

>  <SCORE.SYSTEM.SOLV>
0

>  <SCORE.SYSTEM.norm>
0

>  <SCORE.heavy>
27

>  <SCORE.norm>
-0.560721

>  <RMSD>
5.062

$$$$
ligand
 OpenBabel11021811483D
libRbt.so/2013.1/901 2013/11/27
 27 29  0  0  0  0  0  0  0  0999 V2000
   47.5321   57.9781   27.5381 N   0  0  0  0  0  0  0  0  0  0  0  0
   47.4286   57.0390   28.6541 C   0  0  2  0  0  0  0  0  0  0  0  0
   46.1364   56.2820   28.5470 C   0  0  0  0  0  0  0  0  0  0  0  0
   45.1314   56.8424   28.1223 O   0  0  0  0  0  0  0  0  0  0  0  0
   47.4585   57.7905   29.9843 C   0  0  0  0  0  0  0  0  0  0  0  0
   47.6378   56.7889   31.1106 C   0  0  0  0  0  0  0  0  0  0  0  0
   47.4058   57.5001   32.7710 S   0  0  2  0  0  0  0  0  0  0  0  0
   48.9005   58.4945   33.0524 C   0  0  0  0  0  0  0  0  0  0  0  0
   48.0552   56.1493   33.9275 C   0  0  0  0  0  0  0  0  0  0  0  0
   47.6665   54.6359   33.6541 C   0  0  2  0  0  0  0  0  0  0  0  0
   46.3220   54.3317   33.3587 O   0  0  0  0  0  0  0  0  0  0  0  0
   48.1930   53.5542   34.5097 C   0  0  1  0  0  0  0  0  0  0  0  0
   49.3248   53.9615   35.2796 O   0  0  0  0  0  0  0  0  0  0  0  0
   46.8485   53.3101   35.3452 C   0  0  2  0  0  0  0  0  0  0  0  0
   46.9392   52.1383   36.0985 O   0  0  0  0  0  0  0  0  0  0  0  0
   45.8366   53.1947   34.2068 C   0  0  1  0  0  0  0  0  0  0  0  0
   46.1009   55.0951   28.8455 O   0  0  0  0  0  0  0  0  0  0  0  0
   41.8170   54.5668   31.3624 N   0  0  0  0  0  0  0  0  0  0  0  0
   43.1163   54.4918   31.0620 C   0  0  0  0  0  0  0  0  0  0  0  0
   44.0082   54.0800   31.9582 N   0  0  0  0  0  0  0  0  0  0  0  0
   43.6579   53.8248   33.2288 C   0  0  0  0  0  0  0  0  0  0  0  0
   42.2966   53.9440   33.6110 C   0  0  0  0  0  0  0  0  0  0  0  0
   41.3629   54.3260   32.6081 C   0  0  0  0  0  0  0  0  0  0  0  0
   40.0187   54.4491   32.8957 N   0  0  0  0  0  0  0  0  0  0  0  0
   42.2217   53.6417   34.9190 N   0  0  0  0  0  0  0  0  0  0  0  0
   43.4151   53.3556   35.3667 C   0  0  0  0  0  0  0  0  0  0  0  0
   44.3429   53.4404   34.3666 N   0  0  0  0  0  0  0  0  0  0  0  0
  2  1  1  6  0  0  0
  2  3  1  0  0  0  0
  2  5  1  0  0  0  0
  3  4  1  0  0  0  0
  3 17  1  0  0  0  0
  5  6  1  0  0  0  0
  7  6  1  6  0  0  0
  7  8  1  0  0  0  0
  7  9  1  0  0  0  0
 10  9  1  1  0  0  0
 10 11  1  0  0  0  0
 10 12  1  0  0  0  0
 11 16  1  0  0  0  0
 12 13  1  1  0  0  0
 12 14  1  0  0  0  0
 14 15  1  6  0  0  0
 14 16  1  0  0  0  0
 16 27  1  1  0  0  0
 18 19  2  0  0  0  0
 18 23  1  0  0  0  0
 19 20  1  0  0  0  0
 20 21  2  0  0  0  0
 21 22  1  0  0  0  0
 21 27  1  0  0  0  0
 22 23  2  0  0  0  0
 22 25  1  0  0  0  0
 23 24  1  0  0  0  0
 25 26  2  0  0  0  0
 26 27  1  0  0  0  0
M  END
>  <CHROM.1>
-35.62524407,-168.46537059,-170.02705489,-73.60336536,-43.52855889,-45.70943368
43.41146138,45.69900522,55.14665502,32.46291418,0.99770973,-0.29017505,-1.06038455

>  <Name>
ligand

>  <RI>
0

>  <Rbt.Current_Directory>
/home/itssahil/PROJECTS/Mol_Feturizer/New_Systems/rnas/3IQR

>  <Rbt.Executable>
rbdock ($Id: //depot/dev/client3/rdock/2013.1/src/exe/rbdock.cxx#4 $)

>  <Rbt.Library>
libRbt.so (2013.1, Build901 2013/11/27)

>  <Rbt.Parameter_File>
/export/apps/rDock/src/rDock_2013.1_src/data/scripts/dock_solv.prm

>  <Rbt.Receptor>
prm/pocket_docking_7.prm

>  <SCORE>
-16.045

>  <SCORE.INTER>
-11.2349

>  <SCORE.INTER.CONST>
1

>  <SCORE.INTER.POLAR>
0

>  <SCORE.INTER.ROT>
7

>  <SCORE.INTER.SOLV>
14.6699

>  <SCORE.INTER.VDW>
-20.6466

>  <SCORE.INTER.norm>
-0.416108

>  <SCORE.INTRA>
-4.81005

>  <SCORE.INTRA.DIHEDRAL>
-2.28828

>  <SCORE.INTRA.DIHEDRAL.0>
9.29433

>  <SCORE.INTRA.POLAR>
0

>  <SCORE.INTRA.POLAR.0>
0

>  <SCORE.INTRA.REPUL>
0

>  <SCORE.INTRA.REPUL.0>
0

>  <SCORE.INTRA.SOLV>
-1.83261

>  <SCORE.INTRA.SOLV.lig_0>
-48.5102

>  <SCORE.INTRA.VDW>
-2.7496

>  <SCORE.INTRA.VDW.0>
0.379549

>  <SCORE.INTRA.norm>
-0.17815

>  <SCORE.RESTR>
0

>  <SCORE.RESTR.CAVITY>
0

>  <SCORE.RESTR.norm>
0

>  <SCORE.SYSTEM>
0

>  <SCORE.SYSTEM.CONST>
0

>  <SCORE.SYSTEM.DIHEDRAL>
0

>  <SCORE.SYSTEM.SOLV>
0

>  <SCORE.SYSTEM.norm>
0

>  <SCORE.heavy>
27

>  <SCORE.norm>
-0.594258

>  <RMSD>
5.063

$$$$
ligand
 OpenBabel11021811483D
libRbt.so/2013.1/901 2013/11/27
 27 29  0  0  0  0  0  0  0  0999 V2000
   50.2634   53.5395   27.0382 N   0  0  0  0  0  0  0  0  0  0  0  0
   48.9074   53.4101   27.5696 C   0  0  2  0  0  0  0  0  0  0  0  0
   48.4850   51.9707   27.5059 C   0  0  0  0  0  0  0  0  0  0  0  0
   47.7183   51.5192   28.3501 O   0  0  0  0  0  0  0  0  0  0  0  0
   47.9330   54.2535   26.7484 C   0  0  0  0  0  0  0  0  0  0  0  0
   48.1736   55.7204   27.0552 C   0  0  0  0  0  0  0  0  0  0  0  0
   47.7831   56.1863   28.7719 S   0  0  2  0  0  0  0  0  0  0  0  0
   45.9679   56.1525   28.8502 C   0  0  0  0  0  0  0  0  0  0  0  0
   47.7719   58.0789   28.7269 C   0  0  0  0  0  0  0  0  0  0  0  0
   47.4661   58.8884   30.0563 C   0  0  2  0  0  0  0  0  0  0  0  0
   48.1139   58.4950   31.2450 O   0  0  0  0  0  0  0  0  0  0  0  0
   46.0845   59.2737   30.4054 C   0  0  1  0  0  0  0  0  0  0  0  0
   45.1938   59.2020   29.2913 O   0  0  0  0  0  0  0  0  0  0  0  0
   45.8621   58.1580   31.5328 C   0  0  2  0  0  0  0  0  0  0  0  0
   44.6994   58.4150   32.2615 O   0  0  0  0  0  0  0  0  0  0  0  0
   47.1275   58.3549   32.3653 C   0  0  1  0  0  0  0  0  0  0  0  0
   48.8755   51.2629   26.5864 O   0  0  0  0  0  0  0  0  0  0  0  0
   45.7084   54.0425   34.7148 N   0  0  0  0  0  0  0  0  0  0  0  0
   45.0000   54.9278   34.0088 C   0  0  0  0  0  0  0  0  0  0  0  0
   45.5795   55.9873   33.4522 N   0  0  0  0  0  0  0  0  0  0  0  0
   46.8749   56.2689   33.6635 C   0  0  0  0  0  0  0  0  0  0  0  0
   47.6572   55.3872   34.4534 C   0  0  0  0  0  0  0  0  0  0  0  0
   47.0163   54.2312   34.9792 C   0  0  0  0  0  0  0  0  0  0  0  0
   47.7116   53.3167   35.7442 N   0  0  0  0  0  0  0  0  0  0  0  0
   48.8996   55.8983   34.5100 N   0  0  0  0  0  0  0  0  0  0  0  0
   48.9407   57.0135   33.8310 C   0  0  0  0  0  0  0  0  0  0  0  0
   47.7229   57.2896   33.2751 N   0  0  0  0  0  0  0  0  0  0  0  0
  2  1  1  6  0  0  0
  2  3  1  0  0  0  0
  2  5  1  0  0  0  0
  3  4  1  0  0  0  0
  3 17  1  0  0  0  0
  5  6  1  0  0  0  0
  7  6  1  6  0  0  0
  7  8  1  0  0  0  0
  7  9  1  0  0  0  0
 10  9  1  6  0  0  0
 10 11  1  0  0  0  0
 10 12  1  0  0  0  0
 11 16  1  0  0  0  0
 12 13  1  6  0  0  0
 12 14  1  0  0  0  0
 14 15  1  1  0  0  0
 14 16  1  0  0  0  0
 16 27  1  1  0  0  0
 18 19  2  0  0  0  0
 18 23  1  0  0  0  0
 19 20  1  0  0  0  0
 20 21  2  0  0  0  0
 21 22  1  0  0  0  0
 21 27  1  0  0  0  0
 22 23  2  0  0  0  0
 22 25  1  0  0  0  0
 23 24  1  0  0  0  0
 25 26  2  0  0  0  0
 26 27  1  0  0  0  0
M  END
>  <CHROM.1>
148.53760851,-72.18038825,-65.47550829,-72.34757082,-179.92855979,45.64980371
-131.07560741,47.32669987,55.84397014,30.79756663,-0.64386257,-1.26352823
2.03821739

>  <Name>
ligand

>  <RI>
0

>  <Rbt.Current_Directory>
/home/itssahil/PROJECTS/Mol_Feturizer/New_Systems/rnas/3IQR

>  <Rbt.Executable>
rbdock ($Id: //depot/dev/client3/rdock/2013.1/src/exe/rbdock.cxx#4 $)

>  <Rbt.Library>
libRbt.so (2013.1, Build901 2013/11/27)

>  <Rbt.Parameter_File>
/export/apps/rDock/src/rDock_2013.1_src/data/scripts/dock_solv.prm

>  <Rbt.Receptor>
prm/pocket_docking_5.prm

>  <SCORE>
-18.5279

>  <SCORE.INTER>
-13.1541

>  <SCORE.INTER.CONST>
1

>  <SCORE.INTER.POLAR>
0

>  <SCORE.INTER.ROT>
7

>  <SCORE.INTER.SOLV>
11.3606

>  <SCORE.INTER.VDW>
-20.8229

>  <SCORE.INTER.norm>
-0.487189

>  <SCORE.INTRA>
-5.3738

>  <SCORE.INTRA.DIHEDRAL>
-4.03905

>  <SCORE.INTRA.DIHEDRAL.0>
9.29433

>  <SCORE.INTRA.POLAR>
0

>  <SCORE.INTRA.POLAR.0>
0

>  <SCORE.INTRA.REPUL>
0

>  <SCORE.INTRA.REPUL.0>
0

>  <SCORE.INTRA.SOLV>
-0.153294

>  <SCORE.INTRA.SOLV.lig_0>
-48.5102

>  <SCORE.INTRA.VDW>
-3.27763

>  <SCORE.INTRA.VDW.0>
0.379549

>  <SCORE.INTRA.norm>
-0.19903

>  <SCORE.RESTR>
0

>  <SCORE.RESTR.CAVITY>
0

>  <SCORE.RESTR.norm>
0

>  <SCORE.SYSTEM>
0

>  <SCORE.SYSTEM.CONST>
0

>  <SCORE.SYSTEM.DIHEDRAL>
0

>  <SCORE.SYSTEM.SOLV>
0

>  <SCORE.SYSTEM.norm>
0

>  <SCORE.heavy>
27

>  <SCORE.norm>
-0.686219

>  <RMSD>
5.067

$$$$
ligand
 OpenBabel11021811483D
libRbt.so/2013.1/901 2013/11/27
 27 29  0  0  0  0  0  0  0  0999 V2000
   49.2304   53.4304   28.4075 N   0  0  0  0  0  0  0  0  0  0  0  0
   48.6835   53.1221   29.7279 C   0  0  2  0  0  0  0  0  0  0  0  0
   47.2083   52.8699   29.6073 C   0  0  0  0  0  0  0  0  0  0  0  0
   46.4609   53.7702   29.2395 O   0  0  0  0  0  0  0  0  0  0  0  0
   48.9138   54.2918   30.6839 C   0  0  0  0  0  0  0  0  0  0  0  0
   48.5933   53.8415   32.0976 C   0  0  0  0  0  0  0  0  0  0  0  0
   48.8607   55.1288   33.3578 S   0  0  2  0  0  0  0  0  0  0  0  0
   48.7814   54.2390   34.9402 C   0  0  0  0  0  0  0  0  0  0  0  0
   47.1292   55.8397   33.6409 C   0  0  0  0  0  0  0  0  0  0  0  0
   46.7207   57.2010   32.9366 C   0  0  2  0  0  0  0  0  0  0  0  0
   45.9603   57.1408   31.7510 O   0  0  0  0  0  0  0  0  0  0  0  0
   47.6981   58.2972   32.7869 C   0  0  1  0  0  0  0  0  0  0  0  0
   48.8261   58.1520   33.6506 O   0  0  0  0  0  0  0  0  0  0  0  0
   47.9940   58.0678   31.2296 C   0  0  2  0  0  0  0  0  0  0  0  0
   48.7190   59.1370   30.7003 O   0  0  0  0  0  0  0  0  0  0  0  0
   46.5676   58.0048   30.6869 C   0  0  1  0  0  0  0  0  0  0  0  0
   46.7618   51.7533   29.8372 O   0  0  0  0  0  0  0  0  0  0  0  0
   48.8246   55.7838   26.6739 N   0  0  0  0  0  0  0  0  0  0  0  0
   49.3429   56.4253   27.7246 C   0  0  0  0  0  0  0  0  0  0  0  0
   48.5650   56.9143   28.6858 N   0  0  0  0  0  0  0  0  0  0  0  0
   47.2265   56.8785   28.5897 C   0  0  0  0  0  0  0  0  0  0  0  0
   46.6276   56.2562   27.4640 C   0  0  0  0  0  0  0  0  0  0  0  0
   47.4932   55.6889   26.4881 C   0  0  0  0  0  0  0  0  0  0  0  0
   46.9890   55.0525   25.3720 N   0  0  0  0  0  0  0  0  0  0  0  0
   45.2953   56.3620   27.6116 N   0  0  0  0  0  0  0  0  0  0  0  0
   45.0315   56.9976   28.7219 C   0  0  0  0  0  0  0  0  0  0  0  0
   46.1839   57.3327   29.3760 N   0  0  0  0  0  0  0  0  0  0  0  0
  2  1  1  6  0  0  0
  2  3  1  0  0  0  0
  2  5  1  0  0  0  0
  3  4  1  0  0  0  0
  3 17  1  0  0  0  0
  5  6  1  0  0  0  0
  7  6  1  6  0  0  0
  7  8  1  0  0  0  0
  7  9  1  0  0  0  0
 10  9  1  6  0  0  0
 10 11  1  0  0  0  0
 10 12  1  0  0  0  0
 11 16  1  0  0  0  0
 12 13  1  1  0  0  0
 12 14  1  0  0  0  0
 14 15  1  6  0  0  0
 14 16  1  0  0  0  0
 16 27  1  6  0  0  0
 18 19  2  0  0  0  0
 18 23  1  0  0  0  0
 19 20  1  0  0  0  0
 20 21  2  0  0  0  0
 21 22  1  0  0  0  0
 21 27  1  0  0  0  0
 22 23  2  0  0  0  0
 22 25  1  0  0  0  0
 23 24  1  0  0  0  0
 25 26  2  0  0  0  0
 26 27  1  0  0  0  0
M  END
>  <CHROM.1>
-63.66661931,-168.75381376,178.66047968,-167.42722990,-99.94853260,98.84248432
-117.99508158,47.65116890,55.80299577,30.30609097,-2.21332374,-1.32317164
0.78054767

>  <Name>
ligand

>  <RI>
0

>  <Rbt.Current_Directory>
/home/itssahil/PROJECTS/Mol_Feturizer/New_Systems/rnas/3IQR

>  <Rbt.Executable>
rbdock ($Id: //depot/dev/client3/rdock/2013.1/src/exe/rbdock.cxx#4 $)

>  <Rbt.Library>
libRbt.so (2013.1, Build901 2013/11/27)

>  <Rbt.Parameter_File>
/export/apps/rDock/src/rDock_2013.1_src/data/scripts/dock_solv.prm

>  <Rbt.Receptor>
prm/pocket_docking_3.prm

>  <SCORE>
-16.8061

>  <SCORE.INTER>
-12.2808

>  <SCORE.INTER.CONST>
1

>  <SCORE.INTER.POLAR>
0

>  <SCORE.INTER.ROT>
7

>  <SCORE.INTER.SOLV>
11.6707

>  <SCORE.INTER.VDW>
-20.3441

>  <SCORE.INTER.norm>
-0.454846

>  <SCORE.INTRA>
-4.52524

>  <SCORE.INTRA.DIHEDRAL>
2.08345

>  <SCORE.INTRA.DIHEDRAL.0>
9.29433

>  <SCORE.INTRA.POLAR>
0

>  <SCORE.INTRA.POLAR.0>
0

>  <SCORE.INTRA.REPUL>
0

>  <SCORE.INTRA.REPUL.0>
0

>  <SCORE.INTRA.SOLV>
0.918739

>  <SCORE.INTRA.SOLV.lig_0>
-48.5102

>  <SCORE.INTRA.VDW>
-6.02634

>  <SCORE.INTRA.VDW.0>
0.379549

>  <SCORE.INTRA.norm>
-0.167601

>  <SCORE.RESTR>
0

>  <SCORE.RESTR.CAVITY>
0

>  <SCORE.RESTR.norm>
0

>  <SCORE.SYSTEM>
0

>  <SCORE.SYSTEM.CONST>
0

>  <SCORE.SYSTEM.DIHEDRAL>
0

>  <SCORE.SYSTEM.SOLV>
0

>  <SCORE.SYSTEM.norm>
0

>  <SCORE.heavy>
27

>  <SCORE.norm>
-0.622448

>  <RMSD>
5.068

$$$$
ligand
 OpenBabel11021811483D
libRbt.so/2013.1/901 2013/11/27
 27 29  0  0  0  0  0  0  0  0999 V2000
   46.3210   51.8049   29.7830 N   0  0  0  0  0  0  0  0  0  0  0  0
   46.6062   53.2379   29.7278 C   0  0  2  0  0  0  0  0  0  0  0  0
   46.9702   53.6173   28.3215 C   0  0  0  0  0  0  0  0  0  0  0  0
   46.3815   54.5371   27.7632 O   0  0  0  0  0  0  0  0  0  0  0  0
   47.7702   53.5832   30.6556 C   0  0  0  0  0  0  0  0  0  0  0  0
   47.2751   53.5717   32.0904 C   0  0  0  0  0  0  0  0  0  0  0  0
   48.5951   53.7919   33.3256 S   0  0  2  0  0  0  0  0  0  0  0  0
   47.7160   54.2051   34.8614 C   0  0  0  0  0  0  0  0  0  0  0  0
   49.1128   55.5995   33.1050 C   0  0  0  0  0  0  0  0  0  0  0  0
   48.0469   56.6593   32.5982 C   0  0  2  0  0  0  0  0  0  0  0  0
   47.5319   56.5210   31.2933 O   0  0  0  0  0  0  0  0  0  0  0  0
   48.2336   58.1009   32.8558 C   0  0  1  0  0  0  0  0  0  0  0  0
   49.1870   58.3578   33.8875 O   0  0  0  0  0  0  0  0  0  0  0  0
   48.7040   58.4924   31.3757 C   0  0  2  0  0  0  0  0  0  0  0  0
   48.7226   59.8787   31.2123 O   0  0  0  0  0  0  0  0  0  0  0  0
   47.6044   57.8230   30.5536 C   0  0  1  0  0  0  0  0  0  0  0  0
   47.8828   53.0332   27.7513 O   0  0  0  0  0  0  0  0  0  0  0  0
   50.3407   54.6051   27.6745 N   0  0  0  0  0  0  0  0  0  0  0  0
   50.4134   54.8909   28.9773 C   0  0  0  0  0  0  0  0  0  0  0  0
   49.5750   55.7556   29.5409 N   0  0  0  0  0  0  0  0  0  0  0  0
   48.6933   56.4550   28.8090 C   0  0  0  0  0  0  0  0  0  0  0  0
   48.6160   56.2270   27.4107 C   0  0  0  0  0  0  0  0  0  0  0  0
   49.4861   55.2484   26.8548 C   0  0  0  0  0  0  0  0  0  0  0  0
   49.4618   54.9571   25.5060 N   0  0  0  0  0  0  0  0  0  0  0  0
   47.6698   57.0491   26.9243 N   0  0  0  0  0  0  0  0  0  0  0  0
   47.1700   57.7597   27.8998 C   0  0  0  0  0  0  0  0  0  0  0  0
   47.7542   57.4299   29.0906 N   0  0  0  0  0  0  0  0  0  0  0  0
  2  1  1  6  0  0  0
  2  3  1  0  0  0  0
  2  5  1  0  0  0  0
  3  4  1  0  0  0  0
  3 17  1  0  0  0  0
  5  6  1  0  0  0  0
  7  6  1  6  0  0  0
  7  8  1  0  0  0  0
  7  9  1  0  0  0  0
 10  9  1  6  0  0  0
 10 11  1  0  0  0  0
 10 12  1  0  0  0  0
 11 16  1  0  0  0  0
 12 13  1  1  0  0  0
 12 14  1  0  0  0  0
 14 15  1  1  0  0  0
 14 16  1  0  0  0  0
 16 27  1  6  0  0  0
 18 19  2  0  0  0  0
 18 23  1  0  0  0  0
 19 20  1  0  0  0  0
 20 21  2  0  0  0  0
 21 22  1  0  0  0  0
 21 27  1  0  0  0  0
 22 23  2  0  0  0  0
 22 25  1  0  0  0  0
 23 24  1  0  0  0  0
 25 26  2  0  0  0  0
 26 27  1  0  0  0  0
M  END
>  <CHROM.1>
127.12949037,-75.69795793,173.81584384,164.60159182,29.31068769,-65.35401960
-46.85658489,48.21977944,55.58705068,30.21318566,1.66930952,-1.38159657,-1.71343586

>  <Name>
ligand

>  <RI>
0

>  <Rbt.Current_Directory>
/home/itssahil/PROJECTS/Mol_Feturizer/New_Systems/rnas/3IQR

>  <Rbt.Executable>
rbdock ($Id: //depot/dev/client3/rdock/2013.1/src/exe/rbdock.cxx#4 $)

>  <Rbt.Library>
libRbt.so (2013.1, Build901 2013/11/27)

>  <Rbt.Parameter_File>
/export/apps/rDock/src/rDock_2013.1_src/data/scripts/dock_solv.prm

>  <Rbt.Receptor>
prm/pocket_docking_4.prm

>  <SCORE>
-17.9896

>  <SCORE.INTER>
-10.0011

>  <SCORE.INTER.CONST>
1

>  <SCORE.INTER.POLAR>
0

>  <SCORE.INTER.ROT>
7

>  <SCORE.INTER.SOLV>
17.0238

>  <SCORE.INTER.VDW>
-20.6087

>  <SCORE.INTER.norm>
-0.37041

>  <SCORE.INTRA>
-7.99223

>  <SCORE.INTRA.DIHEDRAL>
-2.71948

>  <SCORE.INTRA.DIHEDRAL.0>
9.29433

>  <SCORE.INTRA.POLAR>
0

>  <SCORE.INTRA.POLAR.0>
0

>  <SCORE.INTRA.REPUL>
0

>  <SCORE.INTRA.REPUL.0>
0

>  <SCORE.INTRA.SOLV>
-0.238598

>  <SCORE.INTRA.SOLV.lig_0>
-48.5102

>  <SCORE.INTRA.VDW>
-6.51319

>  <SCORE.INTRA.VDW.0>
0.379549

>  <SCORE.INTRA.norm>
-0.296008

>  <SCORE.RESTR>
0.00372901

>  <SCORE.RESTR.CAVITY>
0.00372901

>  <SCORE.RESTR.norm>
0.000138111

>  <SCORE.SYSTEM>
0

>  <SCORE.SYSTEM.CONST>
0

>  <SCORE.SYSTEM.DIHEDRAL>
0

>  <SCORE.SYSTEM.SOLV>
0

>  <SCORE.SYSTEM.norm>
0

>  <SCORE.heavy>
27

>  <SCORE.norm>
-0.66628

>  <RMSD>
5.071

$$$$
ligand
 OpenBabel11021811483D
libRbt.so/2013.1/901 2013/11/27
 27 29  0  0  0  0  0  0  0  0999 V2000
   49.5352   53.2621   30.7551 N   0  0  0  0  0  0  0  0  0  0  0  0
   48.1936   53.4816   30.2168 C   0  0  2  0  0  0  0  0  0  0  0  0
   47.9292   52.4875   29.1232 C   0  0  0  0  0  0  0  0  0  0  0  0
   48.7959   52.2500   28.2884 O   0  0  0  0  0  0  0  0  0  0  0  0
   48.0753   54.8945   29.6469 C   0  0  0  0  0  0  0  0  0  0  0  0
   46.6117   55.1957   29.3799 C   0  0  0  0  0  0  0  0  0  0  0  0
   46.3439   56.6022   28.2545 S   0  0  2  0  0  0  0  0  0  0  0  0
   47.2536   56.1568   26.7458 C   0  0  0  0  0  0  0  0  0  0  0  0
   47.7021   57.8271   28.7432 C   0  0  0  0  0  0  0  0  0  0  0  0
   47.5022   58.7431   30.0227 C   0  0  2  0  0  0  0  0  0  0  0  0
   48.1596   58.3810   31.2160 O   0  0  0  0  0  0  0  0  0  0  0  0
   46.1652   59.2537   30.3848 C   0  0  1  0  0  0  0  0  0  0  0  0
   45.2341   59.1762   29.3048 O   0  0  0  0  0  0  0  0  0  0  0  0
   45.9004   58.2346   31.5917 C   0  0  2  0  0  0  0  0  0  0  0  0
   44.7852   58.6259   32.3349 O   0  0  0  0  0  0  0  0  0  0  0  0
   47.2045   58.3898   32.3716 C   0  0  1  0  0  0  0  0  0  0  0  0
   46.8629   51.8864   29.0930 O   0  0  0  0  0  0  0  0  0  0  0  0
   46.0252   53.7219   34.0892 N   0  0  0  0  0  0  0  0  0  0  0  0
   45.3546   54.5546   33.2886 C   0  0  0  0  0  0  0  0  0  0  0  0
   45.8619   55.7332   32.9399 N   0  0  0  0  0  0  0  0  0  0  0  0
   47.0160   56.1805   33.4596 C   0  0  0  0  0  0  0  0  0  0  0  0
   47.7388   55.3545   34.3589 C   0  0  0  0  0  0  0  0  0  0  0  0
   47.1948   54.0746   34.6581 C   0  0  0  0  0  0  0  0  0  0  0  0
   47.8446   53.2059   35.5114 N   0  0  0  0  0  0  0  0  0  0  0  0
   48.8384   56.0341   34.7287 N   0  0  0  0  0  0  0  0  0  0  0  0
   48.8455   57.2002   34.1400 C   0  0  0  0  0  0  0  0  0  0  0  0
   47.7510   57.3448   33.3342 N   0  0  0  0  0  0  0  0  0  0  0  0
  2  1  1  6  0  0  0
  2  3  1  0  0  0  0
  2  5  1  0  0  0  0
  3  4  1  0  0  0  0
  3 17  1  0  0  0  0
  5  6  1  0  0  0  0
  7  6  1  1  0  0  0
  7  8  1  0  0  0  0
  7  9  1  0  0  0  0
 10  9  1  6  0  0  0
 10 11  1  0  0  0  0
 10 12  1  0  0  0  0
 11 16  1  0  0  0  0
 12 13  1  6  0  0  0
 12 14  1  0  0  0  0
 14 15  1  1  0  0  0
 14 16  1  0  0  0  0
 16 27  1  1  0  0  0
 18 19  2  0  0  0  0
 18 23  1  0  0  0  0
 19 20  1  0  0  0  0
 20 21  2  0  0  0  0
 21 22  1  0  0  0  0
 21 27  1  0  0  0  0
 22 23  2  0  0  0  0
 22 25  1  0  0  0  0
 23 24  1  0  0  0  0
 25 26  2  0  0  0  0
 26 27  1  0  0  0  0
M  END
>  <CHROM.1>
-43.62244844,-167.68229385,-162.43877615,56.70098896,-79.84961329,101.53389283
-109.58780789,47.15934618,55.90635191,31.16571530,-1.31177912,1.31334725
-1.64882532

>  <Name>
ligand

>  <RI>
0

>  <Rbt.Current_Directory>
/home/itssahil/PROJECTS/Mol_Feturizer/New_Systems/rnas/3IQR

>  <Rbt.Executable>
rbdock ($Id: //depot/dev/client3/rdock/2013.1/src/exe/rbdock.cxx#4 $)

>  <Rbt.Library>
libRbt.so (2013.1, Build901 2013/11/27)

>  <Rbt.Parameter_File>
/export/apps/rDock/src/rDock_2013.1_src/data/scripts/dock_solv.prm

>  <Rbt.Receptor>
prm/pocket_docking_3.prm

>  <SCORE>
-15.2304

>  <SCORE.INTER>
-11.0215

>  <SCORE.INTER.CONST>
1

>  <SCORE.INTER.POLAR>
0

>  <SCORE.INTER.ROT>
7

>  <SCORE.INTER.SOLV>
15.3256

>  <SCORE.INTER.VDW>
-20.7229

>  <SCORE.INTER.norm>
-0.408204

>  <SCORE.INTRA>
-4.21811

>  <SCORE.INTRA.DIHEDRAL>
0.293836

>  <SCORE.INTRA.DIHEDRAL.0>
9.29433

>  <SCORE.INTRA.POLAR>
0

>  <SCORE.INTRA.POLAR.0>
0

>  <SCORE.INTRA.REPUL>
0

>  <SCORE.INTRA.REPUL.0>
0

>  <SCORE.INTRA.SOLV>
-1.25874

>  <SCORE.INTRA.SOLV.lig_0>
-48.5102

>  <SCORE.INTRA.VDW>
-3.73565

>  <SCORE.INTRA.VDW.0>
0.379549

>  <SCORE.INTRA.norm>
-0.156226

>  <SCORE.RESTR>
0.0092295

>  <SCORE.RESTR.CAVITY>
0.0092295

>  <SCORE.RESTR.norm>
0.000341833

>  <SCORE.SYSTEM>
0

>  <SCORE.SYSTEM.CONST>
0

>  <SCORE.SYSTEM.DIHEDRAL>
0

>  <SCORE.SYSTEM.SOLV>
0

>  <SCORE.SYSTEM.norm>
0

>  <SCORE.heavy>
27

>  <SCORE.norm>
-0.564089

>  <RMSD>
5.075

$$$$
ligand
 OpenBabel11021811483D
libRbt.so/2013.1/901 2013/11/27
 27 29  0  0  0  0  0  0  0  0999 V2000
   50.1636   53.0372   29.0428 N   0  0  0  0  0  0  0  0  0  0  0  0
   48.9591   52.7586   29.8235 C   0  0  2  0  0  0  0  0  0  0  0  0
   48.0825   51.8077   29.0609 C   0  0  0  0  0  0  0  0  0  0  0  0
   46.9894   51.4847   29.5139 O   0  0  0  0  0  0  0  0  0  0  0  0
   48.1858   54.0505   30.0850 C   0  0  0  0  0  0  0  0  0  0  0  0
   47.4806   53.9385   31.4244 C   0  0  0  0  0  0  0  0  0  0  0  0
   48.5863   54.1428   32.8570 S   0  0  2  0  0  0  0  0  0  0  0  0
   47.4646   54.3873   34.2656 C   0  0  0  0  0  0  0  0  0  0  0  0
   49.0041   55.9892   32.8358 C   0  0  0  0  0  0  0  0  0  0  0  0
   47.8337   57.0518   32.7047 C   0  0  2  0  0  0  0  0  0  0  0  0
   46.9254   56.9203   31.6348 O   0  0  0  0  0  0  0  0  0  0  0  0
   48.0961   58.4920   32.8954 C   0  0  1  0  0  0  0  0  0  0  0  0
   49.3317   58.7434   33.5659 O   0  0  0  0  0  0  0  0  0  0  0  0
   48.0650   58.8910   31.3446 C   0  0  2  0  0  0  0  0  0  0  0  0
   48.0325   60.2782   31.1905 O   0  0  0  0  0  0  0  0  0  0  0  0
   46.7579   58.2261   30.9175 C   0  0  1  0  0  0  0  0  0  0  0  0
   48.4451   51.3900   27.9686 O   0  0  0  0  0  0  0  0  0  0  0  0
   48.9459   55.8668   26.9454 N   0  0  0  0  0  0  0  0  0  0  0  0
   49.4387   56.2105   28.1384 C   0  0  0  0  0  0  0  0  0  0  0  0
   48.6782   56.8057   29.0526 N   0  0  0  0  0  0  0  0  0  0  0  0
   47.4187   57.1811   28.7792 C   0  0  0  0  0  0  0  0  0  0  0  0
   46.8676   56.8875   27.5051 C   0  0  0  0  0  0  0  0  0  0  0  0
   47.6917   56.1934   26.5763 C   0  0  0  0  0  0  0  0  0  0  0  0
   47.2247   55.8572   25.3218 N   0  0  0  0  0  0  0  0  0  0  0  0
   45.6126   57.3699   27.4926 N   0  0  0  0  0  0  0  0  0  0  0  0
   45.3541   57.9350   28.6415 C   0  0  0  0  0  0  0  0  0  0  0  0
   46.4275   57.8405   29.4824 N   0  0  0  0  0  0  0  0  0  0  0  0
  2  1  1  6  0  0  0
  2  3  1  0  0  0  0
  2  5  1  0  0  0  0
  3  4  1  0  0  0  0
  3 17  1  0  0  0  0
  5  6  1  0  0  0  0
  7  6  1  6  0  0  0
  7  8  1  0  0  0  0
  7  9  1  0  0  0  0
 10  9  1  6  0  0  0
 10 11  1  0  0  0  0
 10 12  1  0  0  0  0
 11 16  1  0  0  0  0
 12 13  1  6  0  0  0
 12 14  1  0  0  0  0
 14 15  1  1  0  0  0
 14 16  1  0  0  0  0
 16 27  1  6  0  0  0
 18 19  2  0  0  0  0
 18 23  1  0  0  0  0
 19 20  1  0  0  0  0
 20 21  2  0  0  0  0
 21 22  1  0  0  0  0
 21 27  1  0  0  0  0
 22 23  2  0  0  0  0
 22 25  1  0  0  0  0
 23 24  1  0  0  0  0
 25 26  2  0  0  0  0
 26 27  1  0  0  0  0
M  END
>  <CHROM.1>
-176.93325471,-148.38256380,76.06143867,166.12041049,49.20652177,-53.24070239
-65.04850158,47.89988954,55.80760454,30.16815570,-1.39954212,-1.34941675
0.82554575

>  <Name>
ligand

>  <RI>
0

>  <Rbt.Current_Directory>
/home/itssahil/PROJECTS/Mol_Feturizer/New_Systems/rnas/3IQR

>  <Rbt.Executable>
rbdock ($Id: //depot/dev/client3/rdock/2013.1/src/exe/rbdock.cxx#4 $)

>  <Rbt.Library>
libRbt.so (2013.1, Build901 2013/11/27)

>  <Rbt.Parameter_File>
/export/apps/rDock/src/rDock_2013.1_src/data/scripts/dock_solv.prm

>  <Rbt.Receptor>
prm/pocket_docking_4.prm

>  <SCORE>
-17.0568

>  <SCORE.INTER>
-11.9527

>  <SCORE.INTER.CONST>
1

>  <SCORE.INTER.POLAR>
0

>  <SCORE.INTER.ROT>
7

>  <SCORE.INTER.SOLV>
17.7936

>  <SCORE.INTER.VDW>
-22.1663

>  <SCORE.INTER.norm>
-0.442691

>  <SCORE.INTRA>
-5.10413

>  <SCORE.INTRA.DIHEDRAL>
-1.04354

>  <SCORE.INTRA.DIHEDRAL.0>
9.29433

>  <SCORE.INTRA.POLAR>
0

>  <SCORE.INTRA.POLAR.0>
0

>  <SCORE.INTRA.REPUL>
0

>  <SCORE.INTRA.REPUL.0>
0

>  <SCORE.INTRA.SOLV>
-0.756439

>  <SCORE.INTRA.SOLV.lig_0>
-48.5102

>  <SCORE.INTRA.VDW>
-4.20414

>  <SCORE.INTRA.VDW.0>
0.379549

>  <SCORE.INTRA.norm>
-0.189042

>  <SCORE.RESTR>
0

>  <SCORE.RESTR.CAVITY>
0

>  <SCORE.RESTR.norm>
0

>  <SCORE.SYSTEM>
0

>  <SCORE.SYSTEM.CONST>
0

>  <SCORE.SYSTEM.DIHEDRAL>
0

>  <SCORE.SYSTEM.SOLV>
0

>  <SCORE.SYSTEM.norm>
0

>  <SCORE.heavy>
27

>  <SCORE.norm>
-0.631733

>  <RMSD>
5.076

$$$$
ligand
 OpenBabel11021811483D
libRbt.so/2013.1/901 2013/11/27
 27 29  0  0  0  0  0  0  0  0999 V2000
   49.0341   51.9133   28.8776 N   0  0  0  0  0  0  0  0  0  0  0  0
   49.4111   53.3109   28.6716 C   0  0  2  0  0  0  0  0  0  0  0  0
   50.7068   53.3689   27.9153 C   0  0  0  0  0  0  0  0  0  0  0  0
   51.4031   54.3771   27.9692 O   0  0  0  0  0  0  0  0  0  0  0  0
   49.5851   54.0171   30.0155 C   0  0  0  0  0  0  0  0  0  0  0  0
   49.5331   55.5176   29.7925 C   0  0  0  0  0  0  0  0  0  0  0  0
   48.0336   56.0806   28.9258 S   0  0  2  0  0  0  0  0  0  0  0  0
   48.4929   56.0676   27.1677 C   0  0  0  0  0  0  0  0  0  0  0  0
   48.1741   57.9679   28.9754 C   0  0  0  0  0  0  0  0  0  0  0  0
   47.7919   58.7434   30.3053 C   0  0  2  0  0  0  0  0  0  0  0  0
   48.3539   58.3056   31.5218 O   0  0  0  0  0  0  0  0  0  0  0  0
   46.3956   59.1400   30.5738 C   0  0  1  0  0  0  0  0  0  0  0  0
   45.5799   59.1145   29.4018 O   0  0  0  0  0  0  0  0  0  0  0  0
   46.0835   57.9959   31.6503 C   0  0  2  0  0  0  0  0  0  0  0  0
   44.8786   58.2499   32.3081 O   0  0  0  0  0  0  0  0  0  0  0  0
   47.2935   58.1487   32.5700 C   0  0  1  0  0  0  0  0  0  0  0  0
   51.0838   52.3925   27.2799 O   0  0  0  0  0  0  0  0  0  0  0  0
   45.6879   53.7545   34.6301 N   0  0  0  0  0  0  0  0  0  0  0  0
   45.0396   54.6676   33.9021 C   0  0  0  0  0  0  0  0  0  0  0  0
   45.6625   55.7459   33.4355 N   0  0  0  0  0  0  0  0  0  0  0  0
   46.9360   56.0159   33.7633 C   0  0  0  0  0  0  0  0  0  0  0  0
   47.6510   55.1030   34.5810 C   0  0  0  0  0  0  0  0  0  0  0  0
   46.9695   53.9297   35.0082 C   0  0  0  0  0  0  0  0  0  0  0  0
   47.5999   52.9853   35.7928 N   0  0  0  0  0  0  0  0  0  0  0  0
   48.8842   55.6085   34.7590 N   0  0  0  0  0  0  0  0  0  0  0  0
   48.9805   56.7484   34.1283 C   0  0  0  0  0  0  0  0  0  0  0  0
   47.8125   57.0483   33.4848 N   0  0  0  0  0  0  0  0  0  0  0  0
  2  1  1  1  0  0  0
  2  3  1  0  0  0  0
  2  5  1  0  0  0  0
  3  4  1  0  0  0  0
  3 17  1  0  0  0  0
  5  6  1  0  0  0  0
  7  6  1  1  0  0  0
  7  8  1  0  0  0  0
  7  9  1  0  0  0  0
 10  9  1  6  0  0  0
 10 11  1  0  0  0  0
 10 12  1  0  0  0  0
 11 16  1  0  0  0  0
 12 13  1  6  0  0  0
 12 14  1  0  0  0  0
 14 15  1  1  0  0  0
 14 16  1  0  0  0  0
 16 27  1  6  0  0  0
 18 19  2  0  0  0  0
 18 23  1  0  0  0  0
 19 20  1  0  0  0  0
 20 21  2  0  0  0  0
 21 22  1  0  0  0  0
 21 27  1  0  0  0  0
 22 23  2  0  0  0  0
 22 25  1  0  0  0  0
 23 24  1  0  0  0  0
 25 26  2  0  0  0  0
 26 27  1  0  0  0  0
M  END
>  <CHROM.1>
-158.52998593,-162.11017126,54.70352174,-91.64422909,-78.77510014,50.12513848
-129.76735571,47.92053186,55.82544406,31.16899996,-0.50587696,-0.99567396
2.24075097

>  <Name>
ligand

>  <RI>
0

>  <Rbt.Current_Directory>
/home/itssahil/PROJECTS/Mol_Feturizer/New_Systems/rnas/3IQR

>  <Rbt.Executable>
rbdock ($Id: //depot/dev/client3/rdock/2013.1/src/exe/rbdock.cxx#4 $)

>  <Rbt.Library>
libRbt.so (2013.1, Build901 2013/11/27)

>  <Rbt.Parameter_File>
/export/apps/rDock/src/rDock_2013.1_src/data/scripts/dock_solv.prm

>  <Rbt.Receptor>
prm/pocket_docking_4.prm

>  <SCORE>
-19.2851

>  <SCORE.INTER>
-14.9744

>  <SCORE.INTER.CONST>
1

>  <SCORE.INTER.POLAR>
0

>  <SCORE.INTER.ROT>
7

>  <SCORE.INTER.SOLV>
14.4095

>  <SCORE.INTER.VDW>
-23.0528

>  <SCORE.INTER.norm>
-0.554608

>  <SCORE.INTRA>
-4.31071

>  <SCORE.INTRA.DIHEDRAL>
-2.48147

>  <SCORE.INTRA.DIHEDRAL.0>
9.29433

>  <SCORE.INTRA.POLAR>
0

>  <SCORE.INTRA.POLAR.0>
0

>  <SCORE.INTRA.REPUL>
0

>  <SCORE.INTRA.REPUL.0>
0

>  <SCORE.INTRA.SOLV>
-0.930164

>  <SCORE.INTRA.SOLV.lig_0>
-48.5102

>  <SCORE.INTRA.VDW>
-2.6049

>  <SCORE.INTRA.VDW.0>
0.379549

>  <SCORE.INTRA.norm>
-0.159656

>  <SCORE.RESTR>
0

>  <SCORE.RESTR.CAVITY>
0

>  <SCORE.RESTR.norm>
0

>  <SCORE.SYSTEM>
0

>  <SCORE.SYSTEM.CONST>
0

>  <SCORE.SYSTEM.DIHEDRAL>
0

>  <SCORE.SYSTEM.SOLV>
0

>  <SCORE.SYSTEM.norm>
0

>  <SCORE.heavy>
27

>  <SCORE.norm>
-0.714264

>  <RMSD>
5.079

$$$$
ligand
 OpenBabel11021811483D
libRbt.so/2013.1/901 2013/11/27
 27 29  0  0  0  0  0  0  0  0999 V2000
   45.5384   57.3789   31.2183 N   0  0  0  0  0  0  0  0  0  0  0  0
   46.8342   57.0897   30.6058 C   0  0  2  0  0  0  0  0  0  0  0  0
   47.7016   58.3129   30.6792 C   0  0  0  0  0  0  0  0  0  0  0  0
   48.9161   58.1961   30.8049 O   0  0  0  0  0  0  0  0  0  0  0  0
   46.6520   56.6936   29.1411 C   0  0  0  0  0  0  0  0  0  0  0  0
   47.9697   56.1606   28.6088 C   0  0  0  0  0  0  0  0  0  0  0  0
   47.9056   55.6540   26.8606 S   0  0  2  0  0  0  0  0  0  0  0  0
   47.1443   57.0656   26.0061 C   0  0  0  0  0  0  0  0  0  0  0  0
   46.2890   54.6761   26.7406 C   0  0  0  0  0  0  0  0  0  0  0  0
   46.1900   53.2471   27.4221 C   0  0  2  0  0  0  0  0  0  0  0  0
   45.8325   53.1771   28.7839 O   0  0  0  0  0  0  0  0  0  0  0  0
   47.2210   52.2197   27.1759 C   0  0  1  0  0  0  0  0  0  0  0  0
   48.0166   52.5016   26.0240 O   0  0  0  0  0  0  0  0  0  0  0  0
   47.9728   52.3736   28.5818 C   0  0  2  0  0  0  0  0  0  0  0  0
   48.8803   51.3306   28.7751 O   0  0  0  0  0  0  0  0  0  0  0  0
   46.7836   52.2965   29.5374 C   0  0  1  0  0  0  0  0  0  0  0  0
   47.1969   59.4232   30.5717 O   0  0  0  0  0  0  0  0  0  0  0  0
   49.4571   55.6016   32.3762 N   0  0  0  0  0  0  0  0  0  0  0  0
   49.6607   55.1494   31.1360 C   0  0  0  0  0  0  0  0  0  0  0  0
   48.8146   54.2965   30.5660 N   0  0  0  0  0  0  0  0  0  0  0  0
   47.7825   53.7734   31.2466 C   0  0  0  0  0  0  0  0  0  0  0  0
   47.5567   54.1809   32.5868 C   0  0  0  0  0  0  0  0  0  0  0  0
   48.4466   55.1426   33.1406 C   0  0  0  0  0  0  0  0  0  0  0  0
   48.2857   55.6020   34.4322 N   0  0  0  0  0  0  0  0  0  0  0  0
   46.4786   53.5113   33.0311 N   0  0  0  0  0  0  0  0  0  0  0  0
   46.0333   52.7297   32.0838 C   0  0  0  0  0  0  0  0  0  0  0  0
   46.7909   52.8557   30.9532 N   0  0  0  0  0  0  0  0  0  0  0  0
  2  1  1  6  0  0  0
  2  3  1  0  0  0  0
  2  5  1  0  0  0  0
  3  4  1  0  0  0  0
  3 17  1  0  0  0  0
  5  6  1  0  0  0  0
  7  6  1  1  0  0  0
  7  8  1  0  0  0  0
  7  9  1  0  0  0  0
 10  9  1  1  0  0  0
 10 11  1  0  0  0  0
 10 12  1  0  0  0  0
 11 16  1  0  0  0  0
 12 13  1  6  0  0  0
 12 14  1  0  0  0  0
 14 15  1  1  0  0  0
 14 16  1  0  0  0  0
 16 27  1  1  0  0  0
 18 19  2  0  0  0  0
 18 23  1  0  0  0  0
 19 20  1  0  0  0  0
 20 21  2  0  0  0  0
 21 22  1  0  0  0  0
 21 27  1  0  0  0  0
 22 23  2  0  0  0  0
 22 25  1  0  0  0  0
 23 24  1  0  0  0  0
 25 26  2  0  0  0  0
 26 27  1  0  0  0  0
M  END
>  <CHROM.1>
147.34218206,-169.82996381,-179.70574911,49.73212234,-71.04843658,86.04570187
-93.87818138,47.51443526,54.90078878,29.74692928,0.28329493,-1.48334047,-0.26678075

>  <Name>
ligand

>  <RI>
0

>  <Rbt.Current_Directory>
/home/itssahil/PROJECTS/Mol_Feturizer/New_Systems/rnas/3IQR

>  <Rbt.Executable>
rbdock ($Id: //depot/dev/client3/rdock/2013.1/src/exe/rbdock.cxx#4 $)

>  <Rbt.Library>
libRbt.so (2013.1, Build901 2013/11/27)

>  <Rbt.Parameter_File>
/export/apps/rDock/src/rDock_2013.1_src/data/scripts/dock_solv.prm

>  <Rbt.Receptor>
prm/pocket_docking_3.prm

>  <SCORE>
-12.6318

>  <SCORE.INTER>
-5.18368

>  <SCORE.INTER.CONST>
1

>  <SCORE.INTER.POLAR>
0

>  <SCORE.INTER.ROT>
7

>  <SCORE.INTER.SOLV>
12.1668

>  <SCORE.INTER.VDW>
-15.778

>  <SCORE.INTER.norm>
-0.191988

>  <SCORE.INTRA>
-7.49456

>  <SCORE.INTRA.DIHEDRAL>
-3.32096

>  <SCORE.INTRA.DIHEDRAL.0>
9.29433

>  <SCORE.INTRA.POLAR>
0

>  <SCORE.INTRA.POLAR.0>
0

>  <SCORE.INTRA.REPUL>
0

>  <SCORE.INTRA.REPUL.0>
0

>  <SCORE.INTRA.SOLV>
-0.991871

>  <SCORE.INTRA.SOLV.lig_0>
-48.5102

>  <SCORE.INTRA.VDW>
-5.33815

>  <SCORE.INTRA.VDW.0>
0.379549

>  <SCORE.INTRA.norm>
-0.277576

>  <SCORE.RESTR>
0.0464812

>  <SCORE.RESTR.CAVITY>
0.0464812

>  <SCORE.RESTR.norm>
0.00172153

>  <SCORE.SYSTEM>
0

>  <SCORE.SYSTEM.CONST>
0

>  <SCORE.SYSTEM.DIHEDRAL>
0

>  <SCORE.SYSTEM.SOLV>
0

>  <SCORE.SYSTEM.norm>
0

>  <SCORE.heavy>
27

>  <SCORE.norm>
-0.467843

>  <RMSD>
5.080

$$$$
ligand
 OpenBabel11021811483D
libRbt.so/2013.1/901 2013/11/27
 27 29  0  0  0  0  0  0  0  0999 V2000
   50.1645   53.5725   27.0017 N   0  0  0  0  0  0  0  0  0  0  0  0
   48.7532   53.5330   27.3818 C   0  0  2  0  0  0  0  0  0  0  0  0
   48.2310   52.1364   27.2054 C   0  0  0  0  0  0  0  0  0  0  0  0
   48.5818   51.4687   26.2382 O   0  0  0  0  0  0  0  0  0  0  0  0
   47.9407   54.4846   26.5046 C   0  0  0  0  0  0  0  0  0  0  0  0
   48.1953   55.9102   26.9595 C   0  0  0  0  0  0  0  0  0  0  0  0
   47.7033   56.2309   28.6834 S   0  0  2  0  0  0  0  0  0  0  0  0
   45.8946   56.3941   28.6170 C   0  0  0  0  0  0  0  0  0  0  0  0
   47.8922   58.1065   28.8576 C   0  0  0  0  0  0  0  0  0  0  0  0
   47.6260   58.7894   30.2644 C   0  0  2  0  0  0  0  0  0  0  0  0
   48.2466   58.2399   31.4047 O   0  0  0  0  0  0  0  0  0  0  0  0
   46.2662   59.2117   30.6540 C   0  0  1  0  0  0  0  0  0  0  0  0
   45.3773   59.3048   29.5402 O   0  0  0  0  0  0  0  0  0  0  0  0
   45.9787   57.9991   31.6600 C   0  0  2  0  0  0  0  0  0  0  0  0
   44.8289   58.2425   32.4136 O   0  0  0  0  0  0  0  0  0  0  0  0
   47.2497   58.0388   32.5062 C   0  0  1  0  0  0  0  0  0  0  0  0
   47.4882   51.6540   28.0507 O   0  0  0  0  0  0  0  0  0  0  0  0
   45.4922   53.8479   34.8467 N   0  0  0  0  0  0  0  0  0  0  0  0
   44.8452   54.8597   34.2623 C   0  0  0  0  0  0  0  0  0  0  0  0
   45.5062   55.8561   33.6805 N   0  0  0  0  0  0  0  0  0  0  0  0
   46.8442   55.9423   33.7476 C   0  0  0  0  0  0  0  0  0  0  0  0
   47.5738   54.9192   34.4065 C   0  0  0  0  0  0  0  0  0  0  0  0
   46.8349   53.8377   34.9615 C   0  0  0  0  0  0  0  0  0  0  0  0
   47.4714   52.7957   35.6049 N   0  0  0  0  0  0  0  0  0  0  0  0
   48.8755   55.2482   34.3348 N   0  0  0  0  0  0  0  0  0  0  0  0
   49.0017   56.3813   33.6972 C   0  0  0  0  0  0  0  0  0  0  0  0
   47.7824   56.8539   33.2996 N   0  0  0  0  0  0  0  0  0  0  0  0
  2  1  1  6  0  0  0
  2  3  1  0  0  0  0
  2  5  1  0  0  0  0
  3  4  1  0  0  0  0
  3 17  1  0  0  0  0
  5  6  1  0  0  0  0
  7  6  1  6  0  0  0
  7  8  1  0  0  0  0
  7  9  1  0  0  0  0
 10  9  1  6  0  0  0
 10 11  1  0  0  0  0
 10 12  1  0  0  0  0
 11 16  1  0  0  0  0
 12 13  1  6  0  0  0
 12 14  1  0  0  0  0
 14 15  1  1  0  0  0
 14 16  1  0  0  0  0
 16 27  1  6  0  0  0
 18 19  2  0  0  0  0
 18 23  1  0  0  0  0
 19 20  1  0  0  0  0
 20 21  2  0  0  0  0
 21 22  1  0  0  0  0
 21 27  1  0  0  0  0
 22 23  2  0  0  0  0
 22 25  1  0  0  0  0
 23 24  1  0  0  0  0
 25 26  2  0  0  0  0
 26 27  1  0  0  0  0
M  END
>  <CHROM.1>
-39.44941703,-75.52726511,-60.92074295,-77.31298530,-176.81999084,49.10143837
-140.09426356,47.29265173,55.73542978,30.78440312,-0.59575406,-1.29292761
2.21660421

>  <Name>
ligand

>  <RI>
0

>  <Rbt.Current_Directory>
/home/itssahil/PROJECTS/Mol_Feturizer/New_Systems/rnas/3IQR

>  <Rbt.Executable>
rbdock ($Id: //depot/dev/client3/rdock/2013.1/src/exe/rbdock.cxx#4 $)

>  <Rbt.Library>
libRbt.so (2013.1, Build901 2013/11/27)

>  <Rbt.Parameter_File>
/export/apps/rDock/src/rDock_2013.1_src/data/scripts/dock_solv.prm

>  <Rbt.Receptor>
prm/pocket_docking_5.prm

>  <SCORE>
-18.4162

>  <SCORE.INTER>
-13.1863

>  <SCORE.INTER.CONST>
1

>  <SCORE.INTER.POLAR>
0

>  <SCORE.INTER.ROT>
7

>  <SCORE.INTER.SOLV>
11.155

>  <SCORE.INTER.VDW>
-20.7758

>  <SCORE.INTER.norm>
-0.48838

>  <SCORE.INTRA>
-5.25479

>  <SCORE.INTRA.DIHEDRAL>
-3.62647

>  <SCORE.INTRA.DIHEDRAL.0>
9.29433

>  <SCORE.INTRA.POLAR>
0

>  <SCORE.INTRA.POLAR.0>
0

>  <SCORE.INTRA.REPUL>
0

>  <SCORE.INTRA.REPUL.0>
0

>  <SCORE.INTRA.SOLV>
-0.136776

>  <SCORE.INTRA.SOLV.lig_0>
-48.5102

>  <SCORE.INTRA.VDW>
-3.37317

>  <SCORE.INTRA.VDW.0>
0.379549

>  <SCORE.INTRA.norm>
-0.194622

>  <SCORE.RESTR>
0.0248025

>  <SCORE.RESTR.CAVITY>
0.0248025

>  <SCORE.RESTR.norm>
0.000918613

>  <SCORE.SYSTEM>
0

>  <SCORE.SYSTEM.CONST>
0

>  <SCORE.SYSTEM.DIHEDRAL>
0

>  <SCORE.SYSTEM.SOLV>
0

>  <SCORE.SYSTEM.norm>
0

>  <SCORE.heavy>
27

>  <SCORE.norm>
-0.682083

>  <RMSD>
5.080

$$$$
ligand
 OpenBabel11021811483D
libRbt.so/2013.1/901 2013/11/27
 27 29  0  0  0  0  0  0  0  0999 V2000
   50.5245   53.5258   27.3989 N   0  0  0  0  0  0  0  0  0  0  0  0
   49.0940   53.3953   27.6720 C   0  0  2  0  0  0  0  0  0  0  0  0
   48.6722   51.9734   27.4390 C   0  0  0  0  0  0  0  0  0  0  0  0
   49.5173   51.1115   27.2214 O   0  0  0  0  0  0  0  0  0  0  0  0
   48.2920   54.3120   26.7491 C   0  0  0  0  0  0  0  0  0  0  0  0
   48.5181   55.7527   27.1700 C   0  0  0  0  0  0  0  0  0  0  0  0
   47.8460   56.1523   28.8148 S   0  0  2  0  0  0  0  0  0  0  0  0
   46.0529   56.2873   28.5526 C   0  0  0  0  0  0  0  0  0  0  0  0
   48.0000   58.0366   28.9118 C   0  0  0  0  0  0  0  0  0  0  0  0
   47.6502   58.7785   30.2695 C   0  0  2  0  0  0  0  0  0  0  0  0
   48.2523   58.3196   31.4587 O   0  0  0  0  0  0  0  0  0  0  0  0
   46.2588   59.1550   30.5880 C   0  0  1  0  0  0  0  0  0  0  0  0
   45.4089   59.1472   29.4403 O   0  0  0  0  0  0  0  0  0  0  0  0
   45.9898   57.9841   31.6472 C   0  0  2  0  0  0  0  0  0  0  0  0
   44.8026   58.2112   32.3459 O   0  0  0  0  0  0  0  0  0  0  0  0
   47.2251   58.1287   32.5340 C   0  0  1  0  0  0  0  0  0  0  0  0
   47.4876   51.6718   27.5081 O   0  0  0  0  0  0  0  0  0  0  0  0
   45.6256   53.8493   34.8272 N   0  0  0  0  0  0  0  0  0  0  0  0
   44.9511   54.7863   34.1556 C   0  0  0  0  0  0  0  0  0  0  0  0
   45.5749   55.8249   33.6075 N   0  0  0  0  0  0  0  0  0  0  0  0
   46.8880   56.0318   33.7949 C   0  0  0  0  0  0  0  0  0  0  0  0
   47.6383   55.0926   34.5487 C   0  0  0  0  0  0  0  0  0  0  0  0
   46.9472   53.9617   35.0654 C   0  0  0  0  0  0  0  0  0  0  0  0
   47.6083   52.9949   35.7956 N   0  0  0  0  0  0  0  0  0  0  0  0
   48.9075   55.5349   34.5873 N   0  0  0  0  0  0  0  0  0  0  0  0
   48.9942   56.6606   33.9304 C   0  0  0  0  0  0  0  0  0  0  0  0
   47.7814   57.0136   33.4081 N   0  0  0  0  0  0  0  0  0  0  0  0
  2  1  1  6  0  0  0
  2  3  1  0  0  0  0
  2  5  1  0  0  0  0
  3  4  1  0  0  0  0
  3 17  1  0  0  0  0
  5  6  1  0  0  0  0
  7  6  1  6  0  0  0
  7  8  1  0  0  0  0
  7  9  1  0  0  0  0
 10  9  1  6  0  0  0
 10 11  1  0  0  0  0
 10 12  1  0  0  0  0
 11 16  1  0  0  0  0
 12 13  1  6  0  0  0
 12 14  1  0  0  0  0
 14 15  1  1  0  0  0
 14 16  1  0  0  0  0
 16 27  1  6  0  0  0
 18 19  2  0  0  0  0
 18 23  1  0  0  0  0
 19 20  1  0  0  0  0
 20 21  2  0  0  0  0
 21 22  1  0  0  0  0
 21 27  1  0  0  0  0
 22 23  2  0  0  0  0
 22 25  1  0  0  0  0
 23 24  1  0  0  0  0
 25 26  2  0  0  0  0
 26 27  1  0  0  0  0
M  END
>  <CHROM.1>
8.09193986,-70.86000110,-66.08973137,-75.79025964,-173.84488540,51.21616229
-135.75525563,47.43838895,55.72138678,30.88339986,-0.59327075,-1.23988581
2.14112073

>  <Name>
ligand

>  <RI>
0

>  <Rbt.Current_Directory>
/home/itssahil/PROJECTS/Mol_Feturizer/New_Systems/rnas/3IQR

>  <Rbt.Executable>
rbdock ($Id: //depot/dev/client3/rdock/2013.1/src/exe/rbdock.cxx#4 $)

>  <Rbt.Library>
libRbt.so (2013.1, Build901 2013/11/27)

>  <Rbt.Parameter_File>
/export/apps/rDock/src/rDock_2013.1_src/data/scripts/dock_solv.prm

>  <Rbt.Receptor>
prm/pocket_docking_6.prm

>  <SCORE>
-18.8605

>  <SCORE.INTER>
-13.9661

>  <SCORE.INTER.CONST>
1

>  <SCORE.INTER.POLAR>
0

>  <SCORE.INTER.ROT>
7

>  <SCORE.INTER.SOLV>
11.798

>  <SCORE.INTER.VDW>
-21.5101

>  <SCORE.INTER.norm>
-0.517262

>  <SCORE.INTRA>
-4.89441

>  <SCORE.INTRA.DIHEDRAL>
-3.98251

>  <SCORE.INTRA.DIHEDRAL.0>
9.29433

>  <SCORE.INTRA.POLAR>
0

>  <SCORE.INTRA.POLAR.0>
0

>  <SCORE.INTRA.REPUL>
0

>  <SCORE.INTRA.REPUL.0>
0

>  <SCORE.INTRA.SOLV>
-0.123469

>  <SCORE.INTRA.SOLV.lig_0>
-48.5102

>  <SCORE.INTRA.VDW>
-2.84142

>  <SCORE.INTRA.VDW.0>
0.379549

>  <SCORE.INTRA.norm>
-0.181275

>  <SCORE.RESTR>
0

>  <SCORE.RESTR.CAVITY>
0

>  <SCORE.RESTR.norm>
0

>  <SCORE.SYSTEM>
0

>  <SCORE.SYSTEM.CONST>
0

>  <SCORE.SYSTEM.DIHEDRAL>
0

>  <SCORE.SYSTEM.SOLV>
0

>  <SCORE.SYSTEM.norm>
0

>  <SCORE.heavy>
27

>  <SCORE.norm>
-0.698536

>  <RMSD>
5.086

$$$$
ligand
 OpenBabel11021811483D
libRbt.so/2013.1/901 2013/11/27
 27 29  0  0  0  0  0  0  0  0999 V2000
   44.7012   56.2039   27.5471 N   0  0  0  0  0  0  0  0  0  0  0  0
   45.5926   57.3102   27.8924 C   0  0  2  0  0  0  0  0  0  0  0  0
   46.7657   57.3129   26.9554 C   0  0  0  0  0  0  0  0  0  0  0  0
   47.6597   58.1409   27.0952 O   0  0  0  0  0  0  0  0  0  0  0  0
   46.0987   57.1562   29.3260 C   0  0  0  0  0  0  0  0  0  0  0  0
   46.7499   58.4569   29.7596 C   0  0  0  0  0  0  0  0  0  0  0  0
   46.4811   58.8646   31.5141 S   0  0  2  0  0  0  0  0  0  0  0  0
   46.1422   60.6499   31.5191 C   0  0  0  0  0  0  0  0  0  0  0  0
   48.2299   59.1684   32.1725 C   0  0  0  0  0  0  0  0  0  0  0  0
   49.2888   57.9875   32.1462 C   0  0  2  0  0  0  0  0  0  0  0  0
   49.6043   57.3974   30.9054 O   0  0  0  0  0  0  0  0  0  0  0  0
   49.2458   56.9117   33.1561 C   0  0  1  0  0  0  0  0  0  0  0  0
   48.4677   57.2612   34.3015 O   0  0  0  0  0  0  0  0  0  0  0  0
   48.6025   55.7940   32.2063 C   0  0  2  0  0  0  0  0  0  0  0  0
   48.6624   54.5366   32.8100 O   0  0  0  0  0  0  0  0  0  0  0  0
   49.5242   55.9029   30.9932 C   0  0  1  0  0  0  0  0  0  0  0  0
   46.8459   56.4611   26.0795 O   0  0  0  0  0  0  0  0  0  0  0  0
   46.7798   52.2369   28.7217 N   0  0  0  0  0  0  0  0  0  0  0  0
   47.0914   52.4272   30.0065 C   0  0  0  0  0  0  0  0  0  0  0  0
   47.8085   53.4781   30.3933 N   0  0  0  0  0  0  0  0  0  0  0  0
   48.3378   54.3312   29.5022 C   0  0  0  0  0  0  0  0  0  0  0  0
   48.0810   54.1393   28.1200 C   0  0  0  0  0  0  0  0  0  0  0  0
   47.2572   53.0400   27.7505 C   0  0  0  0  0  0  0  0  0  0  0  0
   46.9478   52.7941   26.4281 N   0  0  0  0  0  0  0  0  0  0  0  0
   48.7236   55.1158   27.4556 N   0  0  0  0  0  0  0  0  0  0  0  0
   49.3520   55.8796   28.3089 C   0  0  0  0  0  0  0  0  0  0  0  0
   49.1425   55.4521   29.5902 N   0  0  0  0  0  0  0  0  0  0  0  0
  2  1  1  6  0  0  0
  2  3  1  0  0  0  0
  2  5  1  0  0  0  0
  3  4  1  0  0  0  0
  3 17  1  0  0  0  0
  5  6  1  0  0  0  0
  7  6  1  6  0  0  0
  7  8  1  0  0  0  0
  7  9  1  0  0  0  0
 10  9  1  6  0  0  0
 10 11  1  0  0  0  0
 10 12  1  0  0  0  0
 11 16  1  0  0  0  0
 12 13  1  1  0  0  0
 12 14  1  0  0  0  0
 14 15  1  1  0  0  0
 14 16  1  0  0  0  0
 16 27  1  6  0  0  0
 18 19  2  0  0  0  0
 18 23  1  0  0  0  0
 19 20  1  0  0  0  0
 20 21  2  0  0  0  0
 21 22  1  0  0  0  0
 21 27  1  0  0  0  0
 22 23  2  0  0  0  0
 22 25  1  0  0  0  0
 23 24  1  0  0  0  0
 25 26  2  0  0  0  0
 26 27  1  0  0  0  0
M  END
>  <CHROM.1>
-177.87525620,-167.13508280,144.15669241,-138.33273157,-62.07873267,58.50690628
-146.49754333,47.65060957,56.28641361,29.84834011,1.84821827,1.10466149,-2.52938662

>  <Name>
ligand

>  <RI>
0

>  <Rbt.Current_Directory>
/home/itssahil/PROJECTS/Mol_Feturizer/New_Systems/rnas/3IQR

>  <Rbt.Executable>
rbdock ($Id: //depot/dev/client3/rdock/2013.1/src/exe/rbdock.cxx#4 $)

>  <Rbt.Library>
libRbt.so (2013.1, Build901 2013/11/27)

>  <Rbt.Parameter_File>
/export/apps/rDock/src/rDock_2013.1_src/data/scripts/dock_solv.prm

>  <Rbt.Receptor>
prm/pocket_docking_3.prm

>  <SCORE>
-16.7954

>  <SCORE.INTER>
-12.1861

>  <SCORE.INTER.CONST>
1

>  <SCORE.INTER.POLAR>
0

>  <SCORE.INTER.ROT>
7

>  <SCORE.INTER.SOLV>
14.8343

>  <SCORE.INTER.VDW>
-21.3355

>  <SCORE.INTER.norm>
-0.451335

>  <SCORE.INTRA>
-4.60931

>  <SCORE.INTRA.DIHEDRAL>
2.73396

>  <SCORE.INTRA.DIHEDRAL.0>
9.29433

>  <SCORE.INTRA.POLAR>
0

>  <SCORE.INTRA.POLAR.0>
0

>  <SCORE.INTRA.REPUL>
0

>  <SCORE.INTRA.REPUL.0>
0

>  <SCORE.INTRA.SOLV>
-0.719977

>  <SCORE.INTRA.SOLV.lig_0>
-48.5102

>  <SCORE.INTRA.VDW>
-5.6163

>  <SCORE.INTRA.VDW.0>
0.379549

>  <SCORE.INTRA.norm>
-0.170715

>  <SCORE.RESTR>
0

>  <SCORE.RESTR.CAVITY>
0

>  <SCORE.RESTR.norm>
0

>  <SCORE.SYSTEM>
0

>  <SCORE.SYSTEM.CONST>
0

>  <SCORE.SYSTEM.DIHEDRAL>
0

>  <SCORE.SYSTEM.SOLV>
0

>  <SCORE.SYSTEM.norm>
0

>  <SCORE.heavy>
27

>  <SCORE.norm>
-0.622051

>  <RMSD>
5.089

$$$$
ligand
 OpenBabel11021811483D
libRbt.so/2013.1/901 2013/11/27
 27 29  0  0  0  0  0  0  0  0999 V2000
   47.8425   52.6481   29.0340 N   0  0  0  0  0  0  0  0  0  0  0  0
   49.0156   53.5189   29.0918 C   0  0  2  0  0  0  0  0  0  0  0  0
   50.1595   52.8581   28.3785 C   0  0  0  0  0  0  0  0  0  0  0  0
   49.9511   51.8985   27.6436 O   0  0  0  0  0  0  0  0  0  0  0  0
   49.4143   53.7761   30.5445 C   0  0  0  0  0  0  0  0  0  0  0  0
   48.3431   54.6247   31.2051 C   0  0  0  0  0  0  0  0  0  0  0  0
   48.7490   55.1265   32.9081 S   0  0  2  0  0  0  0  0  0  0  0  0
   48.3825   53.6582   33.9141 C   0  0  0  0  0  0  0  0  0  0  0  0
   47.1648   55.9683   33.5127 C   0  0  0  0  0  0  0  0  0  0  0  0
   46.7190   57.3466   32.8663 C   0  0  2  0  0  0  0  0  0  0  0  0
   45.9780   57.3164   31.6674 O   0  0  0  0  0  0  0  0  0  0  0  0
   47.6596   58.4813   32.7833 C   0  0  1  0  0  0  0  0  0  0  0  0
   48.7797   58.3342   33.6570 O   0  0  0  0  0  0  0  0  0  0  0  0
   47.9853   58.3359   31.2219 C   0  0  2  0  0  0  0  0  0  0  0  0
   48.6798   59.4531   30.7546 O   0  0  0  0  0  0  0  0  0  0  0  0
   46.5697   58.2499   30.6544 C   0  0  1  0  0  0  0  0  0  0  0  0
   51.2924   53.3061   28.5010 O   0  0  0  0  0  0  0  0  0  0  0  0
   48.9007   55.7848   26.8307 N   0  0  0  0  0  0  0  0  0  0  0  0
   49.3948   56.3611   27.9297 C   0  0  0  0  0  0  0  0  0  0  0  0
   48.5968   56.9365   28.8243 N   0  0  0  0  0  0  0  0  0  0  0  0
   47.2768   57.0562   28.6110 C   0  0  0  0  0  0  0  0  0  0  0  0
   46.7118   56.5082   27.4304 C   0  0  0  0  0  0  0  0  0  0  0  0
   47.5890   55.8450   26.5280 C   0  0  0  0  0  0  0  0  0  0  0  0
   47.1152   55.2720   25.3651 N   0  0  0  0  0  0  0  0  0  0  0  0
   45.3929   56.7677   27.4618 N   0  0  0  0  0  0  0  0  0  0  0  0
   45.1071   57.4289   28.5516 C   0  0  0  0  0  0  0  0  0  0  0  0
   46.2282   57.6277   29.3078 N   0  0  0  0  0  0  0  0  0  0  0  0
  2  1  1  1  0  0  0
  2  3  1  0  0  0  0
  2  5  1  0  0  0  0
  3  4  1  0  0  0  0
  3 17  1  0  0  0  0
  5  6  1  0  0  0  0
  7  6  1  6  0  0  0
  7  8  1  0  0  0  0
  7  9  1  0  0  0  0
 10  9  1  6  0  0  0
 10 11  1  0  0  0  0
 10 12  1  0  0  0  0
 11 16  1  0  0  0  0
 12 13  1  1  0  0  0
 12 14  1  0  0  0  0
 14 15  1  6  0  0  0
 14 16  1  0  0  0  0
 16 27  1  6  0  0  0
 18 19  2  0  0  0  0
 18 23  1  0  0  0  0
 19 20  1  0  0  0  0
 20 21  2  0  0  0  0
 21 22  1  0  0  0  0
 21 27  1  0  0  0  0
 22 23  2  0  0  0  0
 22 25  1  0  0  0  0
 23 24  1  0  0  0  0
 25 26  2  0  0  0  0
 26 27  1  0  0  0  0
M  END
>  <CHROM.1>
14.65088143,-68.28378081,-175.30891973,-78.97148479,-67.82278981,84.38136548
-108.10913616,48.03787451,55.88529619,30.03093996,-1.19535726,-1.02044518
1.33871147

>  <Name>
ligand

>  <RI>
0

>  <Rbt.Current_Directory>
/home/itssahil/PROJECTS/Mol_Feturizer/New_Systems/rnas/3IQR

>  <Rbt.Executable>
rbdock ($Id: //depot/dev/client3/rdock/2013.1/src/exe/rbdock.cxx#4 $)

>  <Rbt.Library>
libRbt.so (2013.1, Build901 2013/11/27)

>  <Rbt.Parameter_File>
/export/apps/rDock/src/rDock_2013.1_src/data/scripts/dock_solv.prm

>  <Rbt.Receptor>
prm/pocket_docking_3.prm

>  <SCORE>
-18.9645

>  <SCORE.INTER>
-11.8719

>  <SCORE.INTER.CONST>
1

>  <SCORE.INTER.POLAR>
0

>  <SCORE.INTER.ROT>
7

>  <SCORE.INTER.SOLV>
13.3341

>  <SCORE.INTER.VDW>
-20.626

>  <SCORE.INTER.norm>
-0.439701

>  <SCORE.INTRA>
-7.09252

>  <SCORE.INTRA.DIHEDRAL>
-3.44843

>  <SCORE.INTRA.DIHEDRAL.0>
9.29433

>  <SCORE.INTRA.POLAR>
0

>  <SCORE.INTRA.POLAR.0>
0

>  <SCORE.INTRA.REPUL>
0

>  <SCORE.INTRA.REPUL.0>
0

>  <SCORE.INTRA.SOLV>
-0.603315

>  <SCORE.INTRA.SOLV.lig_0>
-48.5102

>  <SCORE.INTRA.VDW>
-5.06664

>  <SCORE.INTRA.VDW.0>
0.379549

>  <SCORE.INTRA.norm>
-0.262686

>  <SCORE.RESTR>
0

>  <SCORE.RESTR.CAVITY>
0

>  <SCORE.RESTR.norm>
0

>  <SCORE.SYSTEM>
0

>  <SCORE.SYSTEM.CONST>
0

>  <SCORE.SYSTEM.DIHEDRAL>
0

>  <SCORE.SYSTEM.SOLV>
0

>  <SCORE.SYSTEM.norm>
0

>  <SCORE.heavy>
27

>  <SCORE.norm>
-0.702387

>  <RMSD>
5.090

$$$$
ligand
 OpenBabel11021811483D
libRbt.so/2013.1/901 2013/11/27
 27 29  0  0  0  0  0  0  0  0999 V2000
   47.4565   52.7231   25.8394 N   0  0  0  0  0  0  0  0  0  0  0  0
   48.6378   53.3038   25.2028 C   0  0  2  0  0  0  0  0  0  0  0  0
   49.6160   52.2110   24.8820 C   0  0  0  0  0  0  0  0  0  0  0  0
   49.4989   51.1097   25.4091 O   0  0  0  0  0  0  0  0  0  0  0  0
   49.3037   54.3113   26.1391 C   0  0  0  0  0  0  0  0  0  0  0  0
   48.3029   55.4001   26.4812 C   0  0  0  0  0  0  0  0  0  0  0  0
   48.9137   56.6020   27.7055 S   0  0  2  0  0  0  0  0  0  0  0  0
   49.1544   55.6262   29.2195 C   0  0  0  0  0  0  0  0  0  0  0  0
   47.3296   57.3587   28.4138 C   0  0  0  0  0  0  0  0  0  0  0  0
   47.4285   58.3989   29.6073 C   0  0  2  0  0  0  0  0  0  0  0  0
   48.1928   58.0501   30.7393 O   0  0  0  0  0  0  0  0  0  0  0  0
   46.2317   59.1222   30.0802 C   0  0  1  0  0  0  0  0  0  0  0  0
   45.1577   59.0858   29.1395 O   0  0  0  0  0  0  0  0  0  0  0  0
   46.0075   58.2569   31.4092 C   0  0  2  0  0  0  0  0  0  0  0  0
   45.0659   58.8635   32.2424 O   0  0  0  0  0  0  0  0  0  0  0  0
   47.4162   58.2917   31.9987 C   0  0  1  0  0  0  0  0  0  0  0  0
   50.5037   52.4111   24.0628 O   0  0  0  0  0  0  0  0  0  0  0  0
   45.7594   54.2518   34.6566 N   0  0  0  0  0  0  0  0  0  0  0  0
   45.1013   55.1203   33.8842 C   0  0  0  0  0  0  0  0  0  0  0  0
   45.7388   56.1015   33.2526 N   0  0  0  0  0  0  0  0  0  0  0  0
   47.0481   56.3253   33.4472 C   0  0  0  0  0  0  0  0  0  0  0  0
   47.7803   55.4624   34.3032 C   0  0  0  0  0  0  0  0  0  0  0  0
   47.0760   54.3863   34.9110 C   0  0  0  0  0  0  0  0  0  0  0  0
   47.7194   53.4938   35.7443 N   0  0  0  0  0  0  0  0  0  0  0  0
   49.0493   55.9063   34.3262 N   0  0  0  0  0  0  0  0  0  0  0  0
   49.1523   56.9639   33.5665 C   0  0  0  0  0  0  0  0  0  0  0  0
   47.9516   57.2654   32.9873 N   0  0  0  0  0  0  0  0  0  0  0  0
  2  1  1  1  0  0  0
  2  3  1  0  0  0  0
  2  5  1  0  0  0  0
  3  4  1  0  0  0  0
  3 17  1  0  0  0  0
  5  6  1  0  0  0  0
  7  6  1  6  0  0  0
  7  8  1  0  0  0  0
  7  9  1  0  0  0  0
 10  9  1  1  0  0  0
 10 11  1  0  0  0  0
 10 12  1  0  0  0  0
 11 16  1  0  0  0  0
 12 13  1  6  0  0  0
 12 14  1  0  0  0  0
 14 15  1  1  0  0  0
 14 16  1  0  0  0  0
 16 27  1  1  0  0  0
 18 19  2  0  0  0  0
 18 23  1  0  0  0  0
 19 20  1  0  0  0  0
 20 21  2  0  0  0  0
 21 22  1  0  0  0  0
 21 27  1  0  0  0  0
 22 23  2  0  0  0  0
 22 25  1  0  0  0  0
 23 24  1  0  0  0  0
 25 26  2  0  0  0  0
 26 27  1  0  0  0  0
M  END
>  <CHROM.1>
-16.03636279,-58.90159751,175.13917496,-64.19050552,175.67814812,-50.63794531
-117.13807211,47.72198494,55.83315294,30.12236680,-0.72224900,-1.21075824
2.02541060

>  <Name>
ligand

>  <RI>
0

>  <Rbt.Current_Directory>
/home/itssahil/PROJECTS/Mol_Feturizer/New_Systems/rnas/3IQR

>  <Rbt.Executable>
rbdock ($Id: //depot/dev/client3/rdock/2013.1/src/exe/rbdock.cxx#4 $)

>  <Rbt.Library>
libRbt.so (2013.1, Build901 2013/11/27)

>  <Rbt.Parameter_File>
/export/apps/rDock/src/rDock_2013.1_src/data/scripts/dock_solv.prm

>  <Rbt.Receptor>
prm/pocket_docking_5.prm

>  <SCORE>
-17.6318

>  <SCORE.INTER>
-12.8585

>  <SCORE.INTER.CONST>
1

>  <SCORE.INTER.POLAR>
0

>  <SCORE.INTER.ROT>
7

>  <SCORE.INTER.SOLV>
11.9126

>  <SCORE.INTER.VDW>
-20.8099

>  <SCORE.INTER.norm>
-0.47624

>  <SCORE.INTRA>
-4.77331

>  <SCORE.INTRA.DIHEDRAL>
-4.68163

>  <SCORE.INTRA.DIHEDRAL.0>
9.29433

>  <SCORE.INTRA.POLAR>
0

>  <SCORE.INTRA.POLAR.0>
0

>  <SCORE.INTRA.REPUL>
0

>  <SCORE.INTRA.REPUL.0>
0

>  <SCORE.INTRA.SOLV>
-0.903264

>  <SCORE.INTRA.SOLV.lig_0>
-48.5102

>  <SCORE.INTRA.VDW>
-1.98086

>  <SCORE.INTRA.VDW.0>
0.379549

>  <SCORE.INTRA.norm>
-0.176789

>  <SCORE.RESTR>
0

>  <SCORE.RESTR.CAVITY>
0

>  <SCORE.RESTR.norm>
0

>  <SCORE.SYSTEM>
0

>  <SCORE.SYSTEM.CONST>
0

>  <SCORE.SYSTEM.DIHEDRAL>
0

>  <SCORE.SYSTEM.SOLV>
0

>  <SCORE.SYSTEM.norm>
0

>  <SCORE.heavy>
27

>  <SCORE.norm>
-0.65303

>  <RMSD>
5.095

$$$$
ligand
 OpenBabel11021811483D
libRbt.so/2013.1/901 2013/11/27
 27 29  0  0  0  0  0  0  0  0999 V2000
   49.3521   52.2756   28.9590 N   0  0  0  0  0  0  0  0  0  0  0  0
   48.8835   53.5141   29.5789 C   0  0  2  0  0  0  0  0  0  0  0  0
   49.3878   54.6864   28.7879 C   0  0  0  0  0  0  0  0  0  0  0  0
   49.5303   54.5902   27.5734 O   0  0  0  0  0  0  0  0  0  0  0  0
   49.4018   53.6189   31.0127 C   0  0  0  0  0  0  0  0  0  0  0  0
   48.5432   54.6124   31.7741 C   0  0  0  0  0  0  0  0  0  0  0  0
   49.3142   55.2294   33.3043 S   0  0  2  0  0  0  0  0  0  0  0  0
   48.7798   54.0580   34.5868 C   0  0  0  0  0  0  0  0  0  0  0  0
   48.0813   56.5209   33.9335 C   0  0  0  0  0  0  0  0  0  0  0  0
   47.3382   57.4606   32.8938 C   0  0  2  0  0  0  0  0  0  0  0  0
   46.4821   56.8657   31.9449 O   0  0  0  0  0  0  0  0  0  0  0  0
   48.0576   58.5603   32.2210 C   0  0  1  0  0  0  0  0  0  0  0  0
   49.2781   58.9042   32.8780 O   0  0  0  0  0  0  0  0  0  0  0  0
   48.2241   57.8312   30.8047 C   0  0  2  0  0  0  0  0  0  0  0  0
   48.6620   58.7320   29.8322 O   0  0  0  0  0  0  0  0  0  0  0  0
   46.7885   57.3673   30.5657 C   0  0  1  0  0  0  0  0  0  0  0  0
   49.6158   55.7482   29.3532 O   0  0  0  0  0  0  0  0  0  0  0  0
   47.1203   56.1068   25.6229 N   0  0  0  0  0  0  0  0  0  0  0  0
   47.4356   57.2374   26.2603 C   0  0  0  0  0  0  0  0  0  0  0  0
   47.2921   57.3489   27.5776 N   0  0  0  0  0  0  0  0  0  0  0  0
   46.7273   56.3727   28.3057 C   0  0  0  0  0  0  0  0  0  0  0  0
   46.3243   55.1728   27.6646 C   0  0  0  0  0  0  0  0  0  0  0  0
   46.5523   55.0667   26.2645 C   0  0  0  0  0  0  0  0  0  0  0  0
   46.2030   53.9262   25.5700 N   0  0  0  0  0  0  0  0  0  0  0  0
   45.7920   54.3760   28.6078 N   0  0  0  0  0  0  0  0  0  0  0  0
   45.8298   54.9861   29.7622 C   0  0  0  0  0  0  0  0  0  0  0  0
   46.4069   56.2192   29.6419 N   0  0  0  0  0  0  0  0  0  0  0  0
  2  1  1  6  0  0  0
  2  3  1  0  0  0  0
  2  5  1  0  0  0  0
  3  4  1  0  0  0  0
  3 17  1  0  0  0  0
  5  6  1  0  0  0  0
  7  6  1  6  0  0  0
  7  8  1  0  0  0  0
  7  9  1  0  0  0  0
 10  9  1  6  0  0  0
 10 11  1  0  0  0  0
 10 12  1  0  0  0  0
 11 16  1  0  0  0  0
 12 13  1  1  0  0  0
 12 14  1  0  0  0  0
 14 15  1  6  0  0  0
 14 16  1  0  0  0  0
 16 27  1  6  0  0  0
 18 19  2  0  0  0  0
 18 23  1  0  0  0  0
 19 20  1  0  0  0  0
 20 21  2  0  0  0  0
 21 22  1  0  0  0  0
 21 27  1  0  0  0  0
 22 23  2  0  0  0  0
 22 25  1  0  0  0  0
 23 24  1  0  0  0  0
 25 26  2  0  0  0  0
 26 27  1  0  0  0  0
M  END
>  <CHROM.1>
32.65433722,-160.42127395,-162.26014221,-89.83817573,-38.38328655,62.83205783
-173.33559413,47.94740253,55.81901457,30.05488819,-2.18728944,-1.17798902
0.81068434

>  <Name>
ligand

>  <RI>
0

>  <Rbt.Current_Directory>
/home/itssahil/PROJECTS/Mol_Feturizer/New_Systems/rnas/3IQR

>  <Rbt.Executable>
rbdock ($Id: //depot/dev/client3/rdock/2013.1/src/exe/rbdock.cxx#4 $)

>  <Rbt.Library>
libRbt.so (2013.1, Build901 2013/11/27)

>  <Rbt.Parameter_File>
/export/apps/rDock/src/rDock_2013.1_src/data/scripts/dock_solv.prm

>  <Rbt.Receptor>
prm/pocket_docking_3.prm

>  <SCORE>
-16.5015

>  <SCORE.INTER>
-9.38519

>  <SCORE.INTER.CONST>
1

>  <SCORE.INTER.POLAR>
0

>  <SCORE.INTER.ROT>
7

>  <SCORE.INTER.SOLV>
14.3282

>  <SCORE.INTER.VDW>
-19.2995

>  <SCORE.INTER.norm>
-0.347599

>  <SCORE.INTRA>
-7.11629

>  <SCORE.INTRA.DIHEDRAL>
-0.0323765

>  <SCORE.INTRA.DIHEDRAL.0>
9.29433

>  <SCORE.INTRA.POLAR>
0

>  <SCORE.INTRA.POLAR.0>
0

>  <SCORE.INTRA.REPUL>
0

>  <SCORE.INTRA.REPUL.0>
0

>  <SCORE.INTRA.SOLV>
-1.05496

>  <SCORE.INTRA.SOLV.lig_0>
-48.5102

>  <SCORE.INTRA.VDW>
-6.57263

>  <SCORE.INTRA.VDW.0>
0.379549

>  <SCORE.INTRA.norm>
-0.263566

>  <SCORE.RESTR>
0

>  <SCORE.RESTR.CAVITY>
0

>  <SCORE.RESTR.norm>
0

>  <SCORE.SYSTEM>
0

>  <SCORE.SYSTEM.CONST>
0

>  <SCORE.SYSTEM.DIHEDRAL>
0

>  <SCORE.SYSTEM.SOLV>
0

>  <SCORE.SYSTEM.norm>
0

>  <SCORE.heavy>
27

>  <SCORE.norm>
-0.611166

>  <RMSD>
5.102

$$$$
ligand
 OpenBabel11021811483D
libRbt.so/2013.1/901 2013/11/27
 27 29  0  0  0  0  0  0  0  0999 V2000
   45.0184   58.1543   28.0838 N   0  0  0  0  0  0  0  0  0  0  0  0
   46.2706   57.9518   28.8112 C   0  0  2  0  0  0  0  0  0  0  0  0
   47.3925   57.7788   27.8286 C   0  0  0  0  0  0  0  0  0  0  0  0
   47.1449   57.5304   26.6533 O   0  0  0  0  0  0  0  0  0  0  0  0
   46.1784   56.7044   29.6890 C   0  0  0  0  0  0  0  0  0  0  0  0
   47.2505   56.7777   30.7610 C   0  0  0  0  0  0  0  0  0  0  0  0
   46.7848   57.7947   32.1982 S   0  0  2  0  0  0  0  0  0  0  0  0
   47.4352   59.4477   31.8151 C   0  0  0  0  0  0  0  0  0  0  0  0
   48.1930   57.4972   33.4280 C   0  0  0  0  0  0  0  0  0  0  0  0
   49.0027   56.1343   33.3710 C   0  0  2  0  0  0  0  0  0  0  0  0
   49.7257   55.8323   32.1992 O   0  0  0  0  0  0  0  0  0  0  0  0
   48.4034   54.8784   33.8639 C   0  0  1  0  0  0  0  0  0  0  0  0
   47.2722   55.1008   34.7069 O   0  0  0  0  0  0  0  0  0  0  0  0
   48.0736   54.2556   32.4256 C   0  0  2  0  0  0  0  0  0  0  0  0
   47.7121   52.9119   32.5387 O   0  0  0  0  0  0  0  0  0  0  0  0
   49.4219   54.4405   31.7322 C   0  0  1  0  0  0  0  0  0  0  0  0
   48.5508   57.9275   28.1965 O   0  0  0  0  0  0  0  0  0  0  0  0
   48.1482   51.7247   27.5930 N   0  0  0  0  0  0  0  0  0  0  0  0
   47.9780   51.4695   28.8930 C   0  0  0  0  0  0  0  0  0  0  0  0
   48.3676   52.3372   29.8223 N   0  0  0  0  0  0  0  0  0  0  0  0
   49.0411   53.4529   29.5005 C   0  0  0  0  0  0  0  0  0  0  0  0
   49.2954   53.7409   28.1346 C   0  0  0  0  0  0  0  0  0  0  0  0
   48.8075   52.8199   27.1664 C   0  0  0  0  0  0  0  0  0  0  0  0
   49.0001   53.0358   25.8169 N   0  0  0  0  0  0  0  0  0  0  0  0
   49.9806   54.8970   28.0915 N   0  0  0  0  0  0  0  0  0  0  0  0
   50.1705   55.3337   29.3079 C   0  0  0  0  0  0  0  0  0  0  0  0
   49.6033   54.4901   30.2216 N   0  0  0  0  0  0  0  0  0  0  0  0
  2  1  1  6  0  0  0
  2  3  1  0  0  0  0
  2  5  1  0  0  0  0
  3  4  1  0  0  0  0
  3 17  1  0  0  0  0
  5  6  1  0  0  0  0
  7  6  1  6  0  0  0
  7  8  1  0  0  0  0
  7  9  1  0  0  0  0
 10  9  1  6  0  0  0
 10 11  1  0  0  0  0
 10 12  1  0  0  0  0
 11 16  1  0  0  0  0
 12 13  1  1  0  0  0
 12 14  1  0  0  0  0
 14 15  1  1  0  0  0
 14 16  1  0  0  0  0
 16 27  1  6  0  0  0
 18 19  2  0  0  0  0
 18 23  1  0  0  0  0
 19 20  1  0  0  0  0
 20 21  2  0  0  0  0
 21 22  1  0  0  0  0
 21 27  1  0  0  0  0
 22 23  2  0  0  0  0
 22 25  1  0  0  0  0
 23 24  1  0  0  0  0
 25 26  2  0  0  0  0
 26 27  1  0  0  0  0
M  END
>  <CHROM.1>
-15.84613263,-160.63620486,82.17406788,-93.03019089,-27.05884196,62.09672788
-162.93179835,48.06886936,55.52212508,30.25187234,2.11176093,-1.21945879
1.46358974

>  <Name>
ligand

>  <RI>
0

>  <Rbt.Current_Directory>
/home/itssahil/PROJECTS/Mol_Feturizer/New_Systems/rnas/3IQR

>  <Rbt.Executable>
rbdock ($Id: //depot/dev/client3/rdock/2013.1/src/exe/rbdock.cxx#4 $)

>  <Rbt.Library>
libRbt.so (2013.1, Build901 2013/11/27)

>  <Rbt.Parameter_File>
/export/apps/rDock/src/rDock_2013.1_src/data/scripts/dock_solv.prm

>  <Rbt.Receptor>
prm/pocket_docking_3.prm

>  <SCORE>
-15.4435

>  <SCORE.INTER>
-11.1348

>  <SCORE.INTER.CONST>
1

>  <SCORE.INTER.POLAR>
0

>  <SCORE.INTER.ROT>
7

>  <SCORE.INTER.SOLV>
11.9852

>  <SCORE.INTER.VDW>
-19.6849

>  <SCORE.INTER.norm>
-0.412398

>  <SCORE.INTRA>
-4.42004

>  <SCORE.INTRA.DIHEDRAL>
2.17522

>  <SCORE.INTRA.DIHEDRAL.0>
9.29433

>  <SCORE.INTRA.POLAR>
0

>  <SCORE.INTRA.POLAR.0>
0

>  <SCORE.INTRA.REPUL>
0

>  <SCORE.INTRA.REPUL.0>
0

>  <SCORE.INTRA.SOLV>
-0.923674

>  <SCORE.INTRA.SOLV.lig_0>
-48.5102

>  <SCORE.INTRA.VDW>
-5.04581

>  <SCORE.INTRA.VDW.0>
0.379549

>  <SCORE.INTRA.norm>
-0.163705

>  <SCORE.RESTR>
0.111288

>  <SCORE.RESTR.CAVITY>
0.111288

>  <SCORE.RESTR.norm>
0.00412179

>  <SCORE.SYSTEM>
0

>  <SCORE.SYSTEM.CONST>
0

>  <SCORE.SYSTEM.DIHEDRAL>
0

>  <SCORE.SYSTEM.SOLV>
0

>  <SCORE.SYSTEM.norm>
0

>  <SCORE.heavy>
27

>  <SCORE.norm>
-0.571982

>  <RMSD>
5.103

$$$$
ligand
 OpenBabel11021811483D
libRbt.so/2013.1/901 2013/11/27
 27 29  0  0  0  0  0  0  0  0999 V2000
   45.9824   57.1809   32.2554 N   0  0  0  0  0  0  0  0  0  0  0  0
   46.1540   57.7705   30.9285 C   0  0  2  0  0  0  0  0  0  0  0  0
   45.8171   59.2323   30.9878 C   0  0  0  0  0  0  0  0  0  0  0  0
   46.6028   60.0609   30.5399 O   0  0  0  0  0  0  0  0  0  0  0  0
   45.2319   57.0858   29.9204 C   0  0  0  0  0  0  0  0  0  0  0  0
   45.6325   57.5119   28.5198 C   0  0  0  0  0  0  0  0  0  0  0  0
   47.1404   56.6959   27.9059 S   0  0  2  0  0  0  0  0  0  0  0  0
   47.1576   57.0535   26.1243 C   0  0  0  0  0  0  0  0  0  0  0  0
   46.5789   54.9193   27.5703 C   0  0  0  0  0  0  0  0  0  0  0  0
   47.2847   53.7214   28.3339 C   0  0  2  0  0  0  0  0  0  0  0  0
   47.3896   53.7902   29.7380 O   0  0  0  0  0  0  0  0  0  0  0  0
   48.5358   53.1303   27.8194 C   0  0  1  0  0  0  0  0  0  0  0  0
   48.7794   53.4593   26.4512 O   0  0  0  0  0  0  0  0  0  0  0  0
   49.5164   53.8277   28.8765 C   0  0  2  0  0  0  0  0  0  0  0  0
   50.7915   53.2622   28.8174 O   0  0  0  0  0  0  0  0  0  0  0  0
   48.7920   53.4979   30.1801 C   0  0  1  0  0  0  0  0  0  0  0  0
   44.7395   59.5895   31.4463 O   0  0  0  0  0  0  0  0  0  0  0  0
   47.7560   53.0217   35.1632 N   0  0  0  0  0  0  0  0  0  0  0  0
   47.4363   52.2443   34.1251 C   0  0  0  0  0  0  0  0  0  0  0  0
   47.8340   52.5433   32.8920 N   0  0  0  0  0  0  0  0  0  0  0  0
   48.4798   53.6890   32.6228 C   0  0  0  0  0  0  0  0  0  0  0  0
   48.7937   54.5753   33.6854 C   0  0  0  0  0  0  0  0  0  0  0  0
   48.4071   54.1901   34.9991 C   0  0  0  0  0  0  0  0  0  0  0  0
   48.6892   54.9895   36.0882 N   0  0  0  0  0  0  0  0  0  0  0  0
   49.4267   55.6332   33.1487 N   0  0  0  0  0  0  0  0  0  0  0  0
   49.5200   55.4721   31.8557 C   0  0  0  0  0  0  0  0  0  0  0  0
   48.9630   54.2843   31.4722 N   0  0  0  0  0  0  0  0  0  0  0  0
  2  1  1  1  0  0  0
  2  3  1  0  0  0  0
  2  5  1  0  0  0  0
  3  4  1  0  0  0  0
  3 17  1  0  0  0  0
  5  6  1  0  0  0  0
  7  6  1  1  0  0  0
  7  8  1  0  0  0  0
  7  9  1  0  0  0  0
 10  9  1  6  0  0  0
 10 11  1  0  0  0  0
 10 12  1  0  0  0  0
 11 16  1  0  0  0  0
 12 13  1  6  0  0  0
 12 14  1  0  0  0  0
 14 15  1  1  0  0  0
 14 16  1  0  0  0  0
 16 27  1  1  0  0  0
 18 19  2  0  0  0  0
 18 23  1  0  0  0  0
 19 20  1  0  0  0  0
 20 21  2  0  0  0  0
 21 22  1  0  0  0  0
 21 27  1  0  0  0  0
 22 23  2  0  0  0  0
 22 25  1  0  0  0  0
 23 24  1  0  0  0  0
 25 26  2  0  0  0  0
 26 27  1  0  0  0  0
M  END
>  <CHROM.1>
128.94439356,-168.42948291,76.14869136,166.54171181,-120.46729050,51.37753303
82.65161286,47.63858945,55.38787012,30.59987885,1.04634250,-1.05341798,1.57472989

>  <Name>
ligand

>  <RI>
0

>  <Rbt.Current_Directory>
/home/itssahil/PROJECTS/Mol_Feturizer/New_Systems/rnas/3IQR

>  <Rbt.Executable>
rbdock ($Id: //depot/dev/client3/rdock/2013.1/src/exe/rbdock.cxx#4 $)

>  <Rbt.Library>
libRbt.so (2013.1, Build901 2013/11/27)

>  <Rbt.Parameter_File>
/export/apps/rDock/src/rDock_2013.1_src/data/scripts/dock_solv.prm

>  <Rbt.Receptor>
prm/pocket_docking_3.prm

>  <SCORE>
-13.1616

>  <SCORE.INTER>
-9.05122

>  <SCORE.INTER.CONST>
1

>  <SCORE.INTER.POLAR>
0

>  <SCORE.INTER.ROT>
7

>  <SCORE.INTER.SOLV>
17.7468

>  <SCORE.INTER.VDW>
-20.2164

>  <SCORE.INTER.norm>
-0.33523

>  <SCORE.INTRA>
-4.59776

>  <SCORE.INTRA.DIHEDRAL>
0.597113

>  <SCORE.INTRA.DIHEDRAL.0>
9.29433

>  <SCORE.INTRA.POLAR>
0

>  <SCORE.INTRA.POLAR.0>
0

>  <SCORE.INTRA.REPUL>
0

>  <SCORE.INTRA.REPUL.0>
0

>  <SCORE.INTRA.SOLV>
-1.35979

>  <SCORE.INTRA.SOLV.lig_0>
-48.5102

>  <SCORE.INTRA.VDW>
-4.21642

>  <SCORE.INTRA.VDW.0>
0.379549

>  <SCORE.INTRA.norm>
-0.170287

>  <SCORE.RESTR>
0.487385

>  <SCORE.RESTR.CAVITY>
0.487385

>  <SCORE.RESTR.norm>
0.0180513

>  <SCORE.SYSTEM>
0

>  <SCORE.SYSTEM.CONST>
0

>  <SCORE.SYSTEM.DIHEDRAL>
0

>  <SCORE.SYSTEM.SOLV>
0

>  <SCORE.SYSTEM.norm>
0

>  <SCORE.heavy>
27

>  <SCORE.norm>
-0.487466

>  <RMSD>
5.107

$$$$
ligand
 OpenBabel11021811483D
libRbt.so/2013.1/901 2013/11/27
 27 29  0  0  0  0  0  0  0  0999 V2000
   46.4608   57.8773   31.1968 N   0  0  0  0  0  0  0  0  0  0  0  0
   47.9042   57.7087   31.0355 C   0  0  2  0  0  0  0  0  0  0  0  0
   48.6078   58.9251   31.5641 C   0  0  0  0  0  0  0  0  0  0  0  0
   48.2808   60.0406   31.1727 O   0  0  0  0  0  0  0  0  0  0  0  0
   48.2557   57.5304   29.5591 C   0  0  0  0  0  0  0  0  0  0  0  0
   47.6265   56.2439   29.0561 C   0  0  0  0  0  0  0  0  0  0  0  0
   47.9684   55.8951   27.3016 S   0  0  2  0  0  0  0  0  0  0  0  0
   47.1075   57.2168   26.3993 C   0  0  0  0  0  0  0  0  0  0  0  0
   46.6198   54.6552   26.8243 C   0  0  0  0  0  0  0  0  0  0  0  0
   46.4086   53.3546   27.7076 C   0  0  2  0  0  0  0  0  0  0  0  0
   46.4851   53.4768   29.1099 O   0  0  0  0  0  0  0  0  0  0  0  0
   47.0449   52.0760   27.3338 C   0  0  1  0  0  0  0  0  0  0  0  0
   47.4867   52.0561   25.9759 O   0  0  0  0  0  0  0  0  0  0  0  0
   48.2096   52.1227   28.4323 C   0  0  2  0  0  0  0  0  0  0  0  0
   48.8647   50.8925   28.5122 O   0  0  0  0  0  0  0  0  0  0  0  0
   47.3916   52.4303   29.6850 C   0  0  1  0  0  0  0  0  0  0  0  0
   49.4785   58.8014   32.4159 O   0  0  0  0  0  0  0  0  0  0  0  0
   45.7640   54.7984   33.9127 N   0  0  0  0  0  0  0  0  0  0  0  0
   45.0979   54.3792   32.8335 C   0  0  0  0  0  0  0  0  0  0  0  0
   45.7206   53.7522   31.8398 N   0  0  0  0  0  0  0  0  0  0  0  0
   47.0553   53.6086   31.8295 C   0  0  0  0  0  0  0  0  0  0  0  0
   47.8137   54.0876   32.9289 C   0  0  0  0  0  0  0  0  0  0  0  0
   47.1047   54.6960   34.0017 C   0  0  0  0  0  0  0  0  0  0  0  0
   47.7678   55.1736   35.1140 N   0  0  0  0  0  0  0  0  0  0  0  0
   49.1061   53.8257   32.6663 N   0  0  0  0  0  0  0  0  0  0  0  0
   49.2014   53.2366   31.5043 C   0  0  0  0  0  0  0  0  0  0  0  0
   47.9668   53.0647   30.9435 N   0  0  0  0  0  0  0  0  0  0  0  0
  2  1  1  6  0  0  0
  2  3  1  0  0  0  0
  2  5  1  0  0  0  0
  3  4  1  0  0  0  0
  3 17  1  0  0  0  0
  5  6  1  0  0  0  0
  7  6  1  1  0  0  0
  7  8  1  0  0  0  0
  7  9  1  0  0  0  0
 10  9  1  6  0  0  0
 10 11  1  0  0  0  0
 10 12  1  0  0  0  0
 11 16  1  0  0  0  0
 12 13  1  6  0  0  0
 12 14  1  0  0  0  0
 14 15  1  1  0  0  0
 14 16  1  0  0  0  0
 16 27  1  1  0  0  0
 18 19  2  0  0  0  0
 18 23  1  0  0  0  0
 19 20  1  0  0  0  0
 20 21  2  0  0  0  0
 21 22  1  0  0  0  0
 21 27  1  0  0  0  0
 22 23  2  0  0  0  0
 22 25  1  0  0  0  0
 23 24  1  0  0  0  0
 25 26  2  0  0  0  0
 26 27  1  0  0  0  0
M  END
>  <CHROM.1>
-52.49221845,-64.11988482,-179.77878412,-66.26697070,-52.13084719,40.79832030
51.37883638,47.54914822,54.96242052,30.18039671,-1.12427627,-1.46057218,-1.79370910

>  <Name>
ligand

>  <RI>
0

>  <Rbt.Current_Directory>
/home/itssahil/PROJECTS/Mol_Feturizer/New_Systems/rnas/3IQR

>  <Rbt.Executable>
rbdock ($Id: //depot/dev/client3/rdock/2013.1/src/exe/rbdock.cxx#4 $)

>  <Rbt.Library>
libRbt.so (2013.1, Build901 2013/11/27)

>  <Rbt.Parameter_File>
/export/apps/rDock/src/rDock_2013.1_src/data/scripts/dock_solv.prm

>  <Rbt.Receptor>
prm/pocket_docking_3.prm

>  <SCORE>
-12.6361

>  <SCORE.INTER>
-6.1355

>  <SCORE.INTER.CONST>
1

>  <SCORE.INTER.POLAR>
0

>  <SCORE.INTER.ROT>
7

>  <SCORE.INTER.SOLV>
14.0085

>  <SCORE.INTER.VDW>
-17.0265

>  <SCORE.INTER.norm>
-0.227241

>  <SCORE.INTRA>
-6.50055

>  <SCORE.INTRA.DIHEDRAL>
-3.62219

>  <SCORE.INTRA.DIHEDRAL.0>
9.29433

>  <SCORE.INTRA.POLAR>
0

>  <SCORE.INTRA.POLAR.0>
0

>  <SCORE.INTRA.REPUL>
0

>  <SCORE.INTRA.REPUL.0>
0

>  <SCORE.INTRA.SOLV>
-0.90642

>  <SCORE.INTRA.SOLV.lig_0>
-48.5102

>  <SCORE.INTRA.VDW>
-4.23625

>  <SCORE.INTRA.VDW.0>
0.379549

>  <SCORE.INTRA.norm>
-0.240761

>  <SCORE.RESTR>
0

>  <SCORE.RESTR.CAVITY>
0

>  <SCORE.RESTR.norm>
0

>  <SCORE.SYSTEM>
0

>  <SCORE.SYSTEM.CONST>
0

>  <SCORE.SYSTEM.DIHEDRAL>
0

>  <SCORE.SYSTEM.SOLV>
0

>  <SCORE.SYSTEM.norm>
0

>  <SCORE.heavy>
27

>  <SCORE.norm>
-0.468002

>  <RMSD>
5.107

$$$$
ligand
 OpenBabel11021811483D
libRbt.so/2013.1/901 2013/11/27
 27 29  0  0  0  0  0  0  0  0999 V2000
   46.0569   61.0787   31.3159 N   0  0  0  0  0  0  0  0  0  0  0  0
   47.0341   60.0168   31.0808 C   0  0  2  0  0  0  0  0  0  0  0  0
   46.5510   59.1365   29.9647 C   0  0  0  0  0  0  0  0  0  0  0  0
   45.3537   59.0778   29.7050 O   0  0  0  0  0  0  0  0  0  0  0  0
   47.2132   59.1720   32.3415 C   0  0  0  0  0  0  0  0  0  0  0  0
   48.6936   59.0766   32.6629 C   0  0  0  0  0  0  0  0  0  0  0  0
   49.3119   57.3676   32.7801 S   0  0  2  0  0  0  0  0  0  0  0  0
   49.0499   56.6746   31.1208 C   0  0  0  0  0  0  0  0  0  0  0  0
   47.8259   56.4023   33.4463 C   0  0  0  0  0  0  0  0  0  0  0  0
   47.8303   54.8176   33.3750 C   0  0  2  0  0  0  0  0  0  0  0  0
   48.6004   54.1936   32.3726 O   0  0  0  0  0  0  0  0  0  0  0  0
   46.5767   54.0515   33.5191 C   0  0  1  0  0  0  0  0  0  0  0  0
   45.5229   54.8220   34.0983 O   0  0  0  0  0  0  0  0  0  0  0  0
   46.3958   53.7021   31.9665 C   0  0  2  0  0  0  0  0  0  0  0  0
   45.3996   52.7404   31.7880 O   0  0  0  0  0  0  0  0  0  0  0  0
   47.7889   53.1656   31.6431 C   0  0  1  0  0  0  0  0  0  0  0  0
   47.3594   58.5114   29.2902 O   0  0  0  0  0  0  0  0  0  0  0  0
   47.0898   55.3687   27.0837 N   0  0  0  0  0  0  0  0  0  0  0  0
   46.3876   55.4602   28.2162 C   0  0  0  0  0  0  0  0  0  0  0  0
   46.7636   54.8116   29.3145 N   0  0  0  0  0  0  0  0  0  0  0  0
   47.7991   53.9573   29.3035 C   0  0  0  0  0  0  0  0  0  0  0  0
   48.5433   53.7836   28.1080 C   0  0  0  0  0  0  0  0  0  0  0  0
   48.1487   54.5428   26.9715 C   0  0  0  0  0  0  0  0  0  0  0  0
   48.8305   54.4424   25.7757 N   0  0  0  0  0  0  0  0  0  0  0  0
   49.5074   52.8825   28.3657 N   0  0  0  0  0  0  0  0  0  0  0  0
   49.4120   52.4891   29.6077 C   0  0  0  0  0  0  0  0  0  0  0  0
   48.3824   53.1261   30.2419 N   0  0  0  0  0  0  0  0  0  0  0  0
  2  1  1  1  0  0  0
  2  3  1  0  0  0  0
  2  5  1  0  0  0  0
  3  4  1  0  0  0  0
  3 17  1  0  0  0  0
  5  6  1  0  0  0  0
  7  6  1  6  0  0  0
  7  8  1  0  0  0  0
  7  9  1  0  0  0  0
 10  9  1  6  0  0  0
 10 11  1  0  0  0  0
 10 12  1  0  0  0  0
 11 16  1  0  0  0  0
 12 13  1  6  0  0  0
 12 14  1  0  0  0  0
 14 15  1  1  0  0  0
 14 16  1  0  0  0  0
 16 27  1  6  0  0  0
 18 19  2  0  0  0  0
 18 23  1  0  0  0  0
 19 20  1  0  0  0  0
 20 21  2  0  0  0  0
 21 22  1  0  0  0  0
 21 27  1  0  0  0  0
 22 23  2  0  0  0  0
 22 25  1  0  0  0  0
 23 24  1  0  0  0  0
 25 26  2  0  0  0  0
 26 27  1  0  0  0  0
M  END
>  <CHROM.1>
-23.71249483,-128.39057905,-123.75592546,62.35927584,165.64289801,-26.25031181
-92.18913755,47.58970000,55.85089870,30.73438439,-3.05214524,-1.43170047
2.14849568

>  <Name>
ligand

>  <RI>
0

>  <Rbt.Current_Directory>
/home/itssahil/PROJECTS/Mol_Feturizer/New_Systems/rnas/3IQR

>  <Rbt.Executable>
rbdock ($Id: //depot/dev/client3/rdock/2013.1/src/exe/rbdock.cxx#4 $)

>  <Rbt.Library>
libRbt.so (2013.1, Build901 2013/11/27)

>  <Rbt.Parameter_File>
/export/apps/rDock/src/rDock_2013.1_src/data/scripts/dock_solv.prm

>  <Rbt.Receptor>
prm/pocket_docking_3.prm

>  <SCORE>
-8.14208

>  <SCORE.INTER>
-9.34247

>  <SCORE.INTER.CONST>
1

>  <SCORE.INTER.POLAR>
0

>  <SCORE.INTER.ROT>
7

>  <SCORE.INTER.SOLV>
14.9392

>  <SCORE.INTER.VDW>
-19.4747

>  <SCORE.INTER.norm>
-0.346017

>  <SCORE.INTRA>
1.20039

>  <SCORE.INTRA.DIHEDRAL>
8.96177

>  <SCORE.INTRA.DIHEDRAL.0>
9.29433

>  <SCORE.INTRA.POLAR>
0

>  <SCORE.INTRA.POLAR.0>
0

>  <SCORE.INTRA.REPUL>
0

>  <SCORE.INTRA.REPUL.0>
0

>  <SCORE.INTRA.SOLV>
-1.5098

>  <SCORE.INTRA.SOLV.lig_0>
-48.5102

>  <SCORE.INTRA.VDW>
-2.5256

>  <SCORE.INTRA.VDW.0>
0.379549

>  <SCORE.INTRA.norm>
0.0444587

>  <SCORE.RESTR>
0

>  <SCORE.RESTR.CAVITY>
0

>  <SCORE.RESTR.norm>
0

>  <SCORE.SYSTEM>
0

>  <SCORE.SYSTEM.CONST>
0

>  <SCORE.SYSTEM.DIHEDRAL>
0

>  <SCORE.SYSTEM.SOLV>
0

>  <SCORE.SYSTEM.norm>
0

>  <SCORE.heavy>
27

>  <SCORE.norm>
-0.301559

>  <RMSD>
5.108

$$$$
ligand
 OpenBabel11021811483D
libRbt.so/2013.1/901 2013/11/27
 27 29  0  0  0  0  0  0  0  0999 V2000
   49.3055   53.5337   27.6425 N   0  0  0  0  0  0  0  0  0  0  0  0
   48.9795   54.3720   28.7953 C   0  0  2  0  0  0  0  0  0  0  0  0
   49.5604   53.7573   30.0357 C   0  0  0  0  0  0  0  0  0  0  0  0
   49.0834   54.0253   31.1335 O   0  0  0  0  0  0  0  0  0  0  0  0
   47.4642   54.4859   28.9567 C   0  0  0  0  0  0  0  0  0  0  0  0
   46.8664   54.9766   27.6507 C   0  0  0  0  0  0  0  0  0  0  0  0
   46.4050   56.7383   27.6692 S   0  0  2  0  0  0  0  0  0  0  0  0
   46.8715   57.3476   26.0220 C   0  0  0  0  0  0  0  0  0  0  0  0
   47.9137   57.5846   28.4382 C   0  0  0  0  0  0  0  0  0  0  0  0
   47.7184   58.5387   29.6903 C   0  0  2  0  0  0  0  0  0  0  0  0
   48.3608   58.1995   30.8984 O   0  0  0  0  0  0  0  0  0  0  0  0
   46.3869   59.0798   30.0274 C   0  0  1  0  0  0  0  0  0  0  0  0
   45.4630   58.9869   28.9423 O   0  0  0  0  0  0  0  0  0  0  0  0
   46.0967   58.0987   31.2597 C   0  0  2  0  0  0  0  0  0  0  0  0
   44.9821   58.5277   31.9827 O   0  0  0  0  0  0  0  0  0  0  0  0
   47.3971   58.2551   32.0455 C   0  0  1  0  0  0  0  0  0  0  0  0
   50.4829   52.9576   29.9430 O   0  0  0  0  0  0  0  0  0  0  0  0
   46.8142   53.2994   33.1557 N   0  0  0  0  0  0  0  0  0  0  0  0
   46.1798   54.0793   32.2762 C   0  0  0  0  0  0  0  0  0  0  0  0
   46.5095   55.3588   32.1263 N   0  0  0  0  0  0  0  0  0  0  0  0
   47.4166   55.9462   32.9227 C   0  0  0  0  0  0  0  0  0  0  0  0
   48.0785   55.1719   33.9104 C   0  0  0  0  0  0  0  0  0  0  0  0
   47.7440   53.7920   33.9976 C   0  0  0  0  0  0  0  0  0  0  0  0
   48.3542   52.9678   34.9213 N   0  0  0  0  0  0  0  0  0  0  0  0
   48.9200   55.9929   34.5631 N   0  0  0  0  0  0  0  0  0  0  0  0
   48.8243   57.1967   34.0650 C   0  0  0  0  0  0  0  0  0  0  0  0
   47.9196   57.2287   33.0409 N   0  0  0  0  0  0  0  0  0  0  0  0
  2  1  1  6  0  0  0
  2  3  1  0  0  0  0
  2  5  1  0  0  0  0
  3  4  1  0  0  0  0
  3 17  1  0  0  0  0
  5  6  1  0  0  0  0
  7  6  1  6  0  0  0
  7  8  1  0  0  0  0
  7  9  1  0  0  0  0
 10  9  1  6  0  0  0
 10 11  1  0  0  0  0
 10 12  1  0  0  0  0
 11 16  1  0  0  0  0
 12 13  1  6  0  0  0
 12 14  1  0  0  0  0
 14 15  1  1  0  0  0
 14 16  1  0  0  0  0
 16 27  1  1  0  0  0
 18 19  2  0  0  0  0
 18 23  1  0  0  0  0
 19 20  1  0  0  0  0
 20 21  2  0  0  0  0
 21 22  1  0  0  0  0
 21 27  1  0  0  0  0
 22 23  2  0  0  0  0
 22 25  1  0  0  0  0
 23 24  1  0  0  0  0
 25 26  2  0  0  0  0
 26 27  1  0  0  0  0
M  END
>  <CHROM.1>
-156.98646085,-54.31548093,-102.93395875,140.78288512,-126.67882992,118.88025263
-91.37540560,47.56925305,56.00740710,30.74062623,-2.07541013,-1.11171019
1.56758817

>  <Name>
ligand

>  <RI>
0

>  <Rbt.Current_Directory>
/home/itssahil/PROJECTS/Mol_Feturizer/New_Systems/rnas/3IQR

>  <Rbt.Executable>
rbdock ($Id: //depot/dev/client3/rdock/2013.1/src/exe/rbdock.cxx#4 $)

>  <Rbt.Library>
libRbt.so (2013.1, Build901 2013/11/27)

>  <Rbt.Parameter_File>
/export/apps/rDock/src/rDock_2013.1_src/data/scripts/dock_solv.prm

>  <Rbt.Receptor>
prm/pocket_docking_2.prm

>  <SCORE>
-4.55601

>  <SCORE.INTER>
-7.31719

>  <SCORE.INTER.CONST>
1

>  <SCORE.INTER.POLAR>
0

>  <SCORE.INTER.ROT>
7

>  <SCORE.INTER.SOLV>
13.0929

>  <SCORE.INTER.VDW>
-17.5091

>  <SCORE.INTER.norm>
-0.271007

>  <SCORE.INTRA>
1.17781

>  <SCORE.INTRA.DIHEDRAL>
9.30888

>  <SCORE.INTRA.DIHEDRAL.0>
9.29433

>  <SCORE.INTRA.POLAR>
0

>  <SCORE.INTRA.POLAR.0>
0

>  <SCORE.INTRA.REPUL>
0

>  <SCORE.INTRA.REPUL.0>
0

>  <SCORE.INTRA.SOLV>
-0.0410932

>  <SCORE.INTRA.SOLV.lig_0>
-48.5102

>  <SCORE.INTRA.VDW>
-3.45608

>  <SCORE.INTRA.VDW.0>
0.379549

>  <SCORE.INTRA.norm>
0.0436227

>  <SCORE.RESTR>
1.58337

>  <SCORE.RESTR.CAVITY>
1.58337

>  <SCORE.RESTR.norm>
0.0586434

>  <SCORE.SYSTEM>
0

>  <SCORE.SYSTEM.CONST>
0

>  <SCORE.SYSTEM.DIHEDRAL>
0

>  <SCORE.SYSTEM.SOLV>
0

>  <SCORE.SYSTEM.norm>
0

>  <SCORE.heavy>
27

>  <SCORE.norm>
-0.168741

>  <RMSD>
5.112

$$$$
ligand
 OpenBabel11021811483D
libRbt.so/2013.1/901 2013/11/27
 27 29  0  0  0  0  0  0  0  0999 V2000
   46.5369   53.4699   28.8043 N   0  0  0  0  0  0  0  0  0  0  0  0
   47.6707   52.9096   28.0706 C   0  0  2  0  0  0  0  0  0  0  0  0
   48.5807   52.1995   29.0306 C   0  0  0  0  0  0  0  0  0  0  0  0
   48.9331   52.7551   30.0657 O   0  0  0  0  0  0  0  0  0  0  0  0
   48.4518   54.0215   27.3714 C   0  0  0  0  0  0  0  0  0  0  0  0
   48.6829   55.1534   28.3559 C   0  0  0  0  0  0  0  0  0  0  0  0
   47.2706   56.2927   28.5112 S   0  0  2  0  0  0  0  0  0  0  0  0
   46.9125   56.8078   26.8057 C   0  0  0  0  0  0  0  0  0  0  0  0
   48.0850   57.9631   28.8724 C   0  0  0  0  0  0  0  0  0  0  0  0
   47.7077   58.7432   30.2010 C   0  0  2  0  0  0  0  0  0  0  0  0
   48.2912   58.3235   31.4137 O   0  0  0  0  0  0  0  0  0  0  0  0
   46.3090   59.1211   30.4839 C   0  0  1  0  0  0  0  0  0  0  0  0
   45.4794   59.0743   29.3224 O   0  0  0  0  0  0  0  0  0  0  0  0
   46.0275   57.9810   31.5729 C   0  0  2  0  0  0  0  0  0  0  0  0
   44.8272   58.2221   32.2438 O   0  0  0  0  0  0  0  0  0  0  0  0
   47.2464   58.1590   32.4762 C   0  0  1  0  0  0  0  0  0  0  0  0
   48.9347   51.0511   28.7961 O   0  0  0  0  0  0  0  0  0  0  0  0
   45.6961   53.8143   34.6786 N   0  0  0  0  0  0  0  0  0  0  0  0
   45.0261   54.7166   33.9569 C   0  0  0  0  0  0  0  0  0  0  0  0
   45.6366   55.7822   33.4471 N   0  0  0  0  0  0  0  0  0  0  0  0
   46.9224   56.0517   33.7231 C   0  0  0  0  0  0  0  0  0  0  0  0
   47.6625   55.1509   34.5319 C   0  0  0  0  0  0  0  0  0  0  0  0
   46.9914   53.9898   35.0064 C   0  0  0  0  0  0  0  0  0  0  0  0
   47.6455   53.0572   35.7859 N   0  0  0  0  0  0  0  0  0  0  0  0
   48.9037   55.6529   34.6551 N   0  0  0  0  0  0  0  0  0  0  0  0
   48.9823   56.7799   33.9993 C   0  0  0  0  0  0  0  0  0  0  0  0
   47.7931   57.0737   33.3929 N   0  0  0  0  0  0  0  0  0  0  0  0
  2  1  1  1  0  0  0
  2  3  1  0  0  0  0
  2  5  1  0  0  0  0
  3  4  1  0  0  0  0
  3 17  1  0  0  0  0
  5  6  1  0  0  0  0
  7  6  1  6  0  0  0
  7  8  1  0  0  0  0
  7  9  1  0  0  0  0
 10  9  1  6  0  0  0
 10 11  1  0  0  0  0
 10 12  1  0  0  0  0
 11 16  1  0  0  0  0
 12 13  1  6  0  0  0
 12 14  1  0  0  0  0
 14 15  1  1  0  0  0
 14 16  1  0  0  0  0
 16 27  1  6  0  0  0
 18 19  2  0  0  0  0
 18 23  1  0  0  0  0
 19 20  1  0  0  0  0
 20 21  2  0  0  0  0
 21 22  1  0  0  0  0
 21 27  1  0  0  0  0
 22 23  2  0  0  0  0
 22 25  1  0  0  0  0
 23 24  1  0  0  0  0
 25 26  2  0  0  0  0
 26 27  1  0  0  0  0
M  END
>  <CHROM.1>
-48.73149811,46.96339190,-82.63676636,-53.38520223,-121.96560810,78.37888083
-131.67599535,47.30348380,55.75590106,31.09769037,-1.01350705,-1.30033101
1.97254380

>  <Name>
ligand

>  <RI>
0

>  <Rbt.Current_Directory>
/home/itssahil/PROJECTS/Mol_Feturizer/New_Systems/rnas/3IQR

>  <Rbt.Executable>
rbdock ($Id: //depot/dev/client3/rdock/2013.1/src/exe/rbdock.cxx#4 $)

>  <Rbt.Library>
libRbt.so (2013.1, Build901 2013/11/27)

>  <Rbt.Parameter_File>
/export/apps/rDock/src/rDock_2013.1_src/data/scripts/dock_solv.prm

>  <Rbt.Receptor>
prm/pocket_docking_4.prm

>  <SCORE>
-14.3567

>  <SCORE.INTER>
-14.5637

>  <SCORE.INTER.CONST>
1

>  <SCORE.INTER.POLAR>
0

>  <SCORE.INTER.ROT>
7

>  <SCORE.INTER.SOLV>
11.173

>  <SCORE.INTER.VDW>
-21.7002

>  <SCORE.INTER.norm>
-0.539398

>  <SCORE.INTRA>
0.198442

>  <SCORE.INTRA.DIHEDRAL>
3.30618

>  <SCORE.INTRA.DIHEDRAL.0>
9.29433

>  <SCORE.INTRA.POLAR>
0

>  <SCORE.INTRA.POLAR.0>
0

>  <SCORE.INTRA.REPUL>
0

>  <SCORE.INTRA.REPUL.0>
0

>  <SCORE.INTRA.SOLV>
1.29742

>  <SCORE.INTRA.SOLV.lig_0>
-48.5102

>  <SCORE.INTRA.VDW>
-2.10336

>  <SCORE.INTRA.VDW.0>
0.379549

>  <SCORE.INTRA.norm>
0.00734971

>  <SCORE.RESTR>
0.0085547

>  <SCORE.RESTR.CAVITY>
0.0085547

>  <SCORE.RESTR.norm>
0.000316841

>  <SCORE.SYSTEM>
0

>  <SCORE.SYSTEM.CONST>
0

>  <SCORE.SYSTEM.DIHEDRAL>
0

>  <SCORE.SYSTEM.SOLV>
0

>  <SCORE.SYSTEM.norm>
0

>  <SCORE.heavy>
27

>  <SCORE.norm>
-0.531731

>  <RMSD>
5.114

$$$$
ligand
 OpenBabel11021811483D
libRbt.so/2013.1/901 2013/11/27
 27 29  0  0  0  0  0  0  0  0999 V2000
   46.0717   52.0529   28.5754 N   0  0  0  0  0  0  0  0  0  0  0  0
   47.2566   52.7166   29.1171 C   0  0  2  0  0  0  0  0  0  0  0  0
   48.4798   51.9302   28.7438 C   0  0  0  0  0  0  0  0  0  0  0  0
   49.4660   52.5066   28.2970 O   0  0  0  0  0  0  0  0  0  0  0  0
   47.1653   52.8054   30.6399 C   0  0  0  0  0  0  0  0  0  0  0  0
   48.2066   53.7911   31.1379 C   0  0  0  0  0  0  0  0  0  0  0  0
   48.4507   53.7539   32.9423 S   0  0  2  0  0  0  0  0  0  0  0  0
   46.7870   53.9985   33.6311 C   0  0  0  0  0  0  0  0  0  0  0  0
   48.9163   55.5397   33.3644 C   0  0  0  0  0  0  0  0  0  0  0  0
   47.9555   56.7214   32.9210 C   0  0  2  0  0  0  0  0  0  0  0  0
   47.3385   56.6451   31.6559 O   0  0  0  0  0  0  0  0  0  0  0  0
   48.3343   58.1296   33.1506 C   0  0  1  0  0  0  0  0  0  0  0  0
   49.3811   58.2694   34.1120 O   0  0  0  0  0  0  0  0  0  0  0  0
   48.7456   58.4580   31.6379 C   0  0  2  0  0  0  0  0  0  0  0  0
   48.9222   59.8312   31.4595 O   0  0  0  0  0  0  0  0  0  0  0  0
   47.5182   57.9271   30.8997 C   0  0  1  0  0  0  0  0  0  0  0  0
   48.5031   50.7197   28.9257 O   0  0  0  0  0  0  0  0  0  0  0  0
   50.1904   54.9513   27.7162 N   0  0  0  0  0  0  0  0  0  0  0  0
   50.4013   55.2755   28.9946 C   0  0  0  0  0  0  0  0  0  0  0  0
   49.5542   56.0589   29.6557 N   0  0  0  0  0  0  0  0  0  0  0  0
   48.5128   56.6411   29.0403 C   0  0  0  0  0  0  0  0  0  0  0  0
   48.2784   56.3714   27.6671 C   0  0  0  0  0  0  0  0  0  0  0  0
   49.1703   55.4784   27.0107 C   0  0  0  0  0  0  0  0  0  0  0  0
   49.0016   55.1528   25.6802 N   0  0  0  0  0  0  0  0  0  0  0  0
   47.1921   57.0747   27.3023 N   0  0  0  0  0  0  0  0  0  0  0  0
   46.7494   57.7515   28.3281 C   0  0  0  0  0  0  0  0  0  0  0  0
   47.5173   57.5161   29.4340 N   0  0  0  0  0  0  0  0  0  0  0  0
  2  1  1  1  0  0  0
  2  3  1  0  0  0  0
  2  5  1  0  0  0  0
  3  4  1  0  0  0  0
  3 17  1  0  0  0  0
  5  6  1  0  0  0  0
  7  6  1  6  0  0  0
  7  8  1  0  0  0  0
  7  9  1  0  0  0  0
 10  9  1  6  0  0  0
 10 11  1  0  0  0  0
 10 12  1  0  0  0  0
 11 16  1  0  0  0  0
 12 13  1  1  0  0  0
 12 14  1  0  0  0  0
 14 15  1  1  0  0  0
 14 16  1  0  0  0  0
 16 27  1  6  0  0  0
 18 19  2  0  0  0  0
 18 23  1  0  0  0  0
 19 20  1  0  0  0  0
 20 21  2  0  0  0  0
 21 22  1  0  0  0  0
 21 27  1  0  0  0  0
 22 23  2  0  0  0  0
 22 25  1  0  0  0  0
 23 24  1  0  0  0  0
 25 26  2  0  0  0  0
 26 27  1  0  0  0  0
M  END
>  <CHROM.1>
133.70062867,-165.71924399,-168.23673182,-54.26734154,54.74784766,-39.32580520
-60.65256351,48.30763319,55.38337104,30.27450035,1.68195811,-1.47104269,-2.28525182

>  <Name>
ligand

>  <RI>
0

>  <Rbt.Current_Directory>
/home/itssahil/PROJECTS/Mol_Feturizer/New_Systems/rnas/3IQR

>  <Rbt.Executable>
rbdock ($Id: //depot/dev/client3/rdock/2013.1/src/exe/rbdock.cxx#4 $)

>  <Rbt.Library>
libRbt.so (2013.1, Build901 2013/11/27)

>  <Rbt.Parameter_File>
/export/apps/rDock/src/rDock_2013.1_src/data/scripts/dock_solv.prm

>  <Rbt.Receptor>
prm/pocket_docking_3.prm

>  <SCORE>
-17.4483

>  <SCORE.INTER>
-11.4422

>  <SCORE.INTER.CONST>
1

>  <SCORE.INTER.POLAR>
0

>  <SCORE.INTER.ROT>
7

>  <SCORE.INTER.SOLV>
15.6534

>  <SCORE.INTER.VDW>
-21.1126

>  <SCORE.INTER.norm>
-0.423786

>  <SCORE.INTRA>
-6.00608

>  <SCORE.INTRA.DIHEDRAL>
-2.11556

>  <SCORE.INTRA.DIHEDRAL.0>
9.29433

>  <SCORE.INTRA.POLAR>
0

>  <SCORE.INTRA.POLAR.0>
0

>  <SCORE.INTRA.REPUL>
0

>  <SCORE.INTRA.REPUL.0>
0

>  <SCORE.INTRA.SOLV>
-1.36961

>  <SCORE.INTRA.SOLV.lig_0>
-48.5102

>  <SCORE.INTRA.VDW>
-4.2635

>  <SCORE.INTRA.VDW.0>
0.379549

>  <SCORE.INTRA.norm>
-0.222447

>  <SCORE.RESTR>
0

>  <SCORE.RESTR.CAVITY>
0

>  <SCORE.RESTR.norm>
0

>  <SCORE.SYSTEM>
0

>  <SCORE.SYSTEM.CONST>
0

>  <SCORE.SYSTEM.DIHEDRAL>
0

>  <SCORE.SYSTEM.SOLV>
0

>  <SCORE.SYSTEM.norm>
0

>  <SCORE.heavy>
27

>  <SCORE.norm>
-0.646234

>  <RMSD>
5.115

$$$$
ligand
 OpenBabel11021811483D
libRbt.so/2013.1/901 2013/11/27
 27 29  0  0  0  0  0  0  0  0999 V2000
   45.6705   52.1137   28.8240 N   0  0  0  0  0  0  0  0  0  0  0  0
   46.7319   53.1151   28.7316 C   0  0  2  0  0  0  0  0  0  0  0  0
   48.0443   52.4262   28.4923 C   0  0  0  0  0  0  0  0  0  0  0  0
   48.9591   53.0262   27.9378 O   0  0  0  0  0  0  0  0  0  0  0  0
   46.8183   53.9178   30.0291 C   0  0  0  0  0  0  0  0  0  0  0  0
   47.6258   55.1776   29.7746 C   0  0  0  0  0  0  0  0  0  0  0  0
   46.9001   56.2740   28.5144 S   0  0  2  0  0  0  0  0  0  0  0  0
   47.8763   55.9525   27.0157 C   0  0  0  0  0  0  0  0  0  0  0  0
   47.8030   57.9164   28.7815 C   0  0  0  0  0  0  0  0  0  0  0  0
   47.5810   58.7172   30.1327 C   0  0  2  0  0  0  0  0  0  0  0  0
   48.2332   58.2622   31.2967 O   0  0  0  0  0  0  0  0  0  0  0  0
   46.2347   59.1789   30.5248 C   0  0  1  0  0  0  0  0  0  0  0  0
   45.3135   59.1829   29.4335 O   0  0  0  0  0  0  0  0  0  0  0  0
   45.9730   58.0572   31.6377 C   0  0  2  0  0  0  0  0  0  0  0  0
   44.8469   58.3702   32.4012 O   0  0  0  0  0  0  0  0  0  0  0  0
   47.2686   58.1608   32.4400 C   0  0  1  0  0  0  0  0  0  0  0  0
   48.2102   51.2799   28.8892 O   0  0  0  0  0  0  0  0  0  0  0  0
   45.6280   53.9477   34.8253 N   0  0  0  0  0  0  0  0  0  0  0  0
   44.9590   54.8918   34.1581 C   0  0  0  0  0  0  0  0  0  0  0  0
   45.5929   55.9089   33.5820 N   0  0  0  0  0  0  0  0  0  0  0  0
   46.9145   56.0878   33.7354 C   0  0  0  0  0  0  0  0  0  0  0  0
   47.6613   55.1407   34.4829 C   0  0  0  0  0  0  0  0  0  0  0  0
   46.9573   54.0325   35.0304 C   0  0  0  0  0  0  0  0  0  0  0  0
   47.6137   53.0597   35.7568 N   0  0  0  0  0  0  0  0  0  0  0  0
   48.9407   55.5540   34.4855 N   0  0  0  0  0  0  0  0  0  0  0  0
   49.0372   56.6694   33.8123 C   0  0  0  0  0  0  0  0  0  0  0  0
   47.8205   57.0439   33.3148 N   0  0  0  0  0  0  0  0  0  0  0  0
  2  1  1  1  0  0  0
  2  3  1  0  0  0  0
  2  5  1  0  0  0  0
  3  4  1  0  0  0  0
  3 17  1  0  0  0  0
  5  6  1  0  0  0  0
  7  6  1  1  0  0  0
  7  8  1  0  0  0  0
  7  9  1  0  0  0  0
 10  9  1  6  0  0  0
 10 11  1  0  0  0  0
 10 12  1  0  0  0  0
 11 16  1  0  0  0  0
 12 13  1  6  0  0  0
 12 14  1  0  0  0  0
 14 15  1  1  0  0  0
 14 16  1  0  0  0  0
 16 27  1  6  0  0  0
 18 19  2  0  0  0  0
 18 23  1  0  0  0  0
 19 20  1  0  0  0  0
 20 21  2  0  0  0  0
 21 22  1  0  0  0  0
 21 27  1  0  0  0  0
 22 23  2  0  0  0  0
 22 25  1  0  0  0  0
 23 24  1  0  0  0  0
 25 26  2  0  0  0  0
 26 27  1  0  0  0  0
M  END
>  <CHROM.1>
154.82786832,-163.97192300,60.63186321,-101.47245101,-65.95133117,76.67419103
-132.67012928,47.07513726,55.72310733,31.17850043,-0.86133680,-1.41750831
2.00831256

>  <Name>
ligand

>  <RI>
0

>  <Rbt.Current_Directory>
/home/itssahil/PROJECTS/Mol_Feturizer/New_Systems/rnas/3IQR

>  <Rbt.Executable>
rbdock ($Id: //depot/dev/client3/rdock/2013.1/src/exe/rbdock.cxx#4 $)

>  <Rbt.Library>
libRbt.so (2013.1, Build901 2013/11/27)

>  <Rbt.Parameter_File>
/export/apps/rDock/src/rDock_2013.1_src/data/scripts/dock_solv.prm

>  <Rbt.Receptor>
prm/pocket_docking_6.prm

>  <SCORE>
-18.4358

>  <SCORE.INTER>
-12.3896

>  <SCORE.INTER.CONST>
1

>  <SCORE.INTER.POLAR>
0

>  <SCORE.INTER.ROT>
7

>  <SCORE.INTER.SOLV>
14.1296

>  <SCORE.INTER.VDW>
-21.2362

>  <SCORE.INTER.norm>
-0.458872

>  <SCORE.INTRA>
-6.04625

>  <SCORE.INTRA.DIHEDRAL>
-1.85091

>  <SCORE.INTRA.DIHEDRAL.0>
9.29433

>  <SCORE.INTRA.POLAR>
0

>  <SCORE.INTRA.POLAR.0>
0

>  <SCORE.INTRA.REPUL>
0

>  <SCORE.INTRA.REPUL.0>
0

>  <SCORE.INTRA.SOLV>
-1.07578

>  <SCORE.INTRA.SOLV.lig_0>
-48.5102

>  <SCORE.INTRA.VDW>
-4.5829

>  <SCORE.INTRA.VDW.0>
0.379549

>  <SCORE.INTRA.norm>
-0.223935

>  <SCORE.RESTR>
0

>  <SCORE.RESTR.CAVITY>
0

>  <SCORE.RESTR.norm>
0

>  <SCORE.SYSTEM>
0

>  <SCORE.SYSTEM.CONST>
0

>  <SCORE.SYSTEM.DIHEDRAL>
0

>  <SCORE.SYSTEM.SOLV>
0

>  <SCORE.SYSTEM.norm>
0

>  <SCORE.heavy>
27

>  <SCORE.norm>
-0.682808

>  <RMSD>
5.117

$$$$
ligand
 OpenBabel11021811483D
libRbt.so/2013.1/901 2013/11/27
 27 29  0  0  0  0  0  0  0  0999 V2000
   49.1547   54.8466   28.6341 N   0  0  0  0  0  0  0  0  0  0  0  0
   49.6140   54.3304   29.9227 C   0  0  2  0  0  0  0  0  0  0  0  0
   49.6031   52.8295   29.8881 C   0  0  0  0  0  0  0  0  0  0  0  0
   49.1218   52.2423   28.9248 O   0  0  0  0  0  0  0  0  0  0  0  0
   48.6945   54.8109   31.0447 C   0  0  0  0  0  0  0  0  0  0  0  0
   49.0742   56.2328   31.4161 C   0  0  0  0  0  0  0  0  0  0  0  0
   48.0286   56.9565   32.7198 S   0  0  2  0  0  0  0  0  0  0  0  0
   48.9095   58.4635   33.2247 C   0  0  0  0  0  0  0  0  0  0  0  0
   48.5975   56.0663   34.2907 C   0  0  0  0  0  0  0  0  0  0  0  0
   48.3738   54.5016   34.4245 C   0  0  2  0  0  0  0  0  0  0  0  0
   47.3544   53.9020   33.6573 O   0  0  0  0  0  0  0  0  0  0  0  0
   48.3820   53.8478   35.7480 C   0  0  1  0  0  0  0  0  0  0  0  0
   48.9811   54.6582   36.7598 O   0  0  0  0  0  0  0  0  0  0  0  0
   46.7960   53.6608   35.8702 C   0  0  2  0  0  0  0  0  0  0  0  0
   46.4772   52.8183   36.9368 O   0  0  0  0  0  0  0  0  0  0  0  0
   46.4904   53.0267   34.5146 C   0  0  1  0  0  0  0  0  0  0  0  0
   50.1127   52.1968   30.8041 O   0  0  0  0  0  0  0  0  0  0  0  0
   43.5030   56.3089   31.9782 N   0  0  0  0  0  0  0  0  0  0  0  0
   44.6742   56.4890   32.5946 C   0  0  0  0  0  0  0  0  0  0  0  0
   45.3062   55.4774   33.1824 N   0  0  0  0  0  0  0  0  0  0  0  0
   44.7472   54.2604   33.2737 C   0  0  0  0  0  0  0  0  0  0  0  0
   43.4776   54.0333   32.6821 C   0  0  0  0  0  0  0  0  0  0  0  0
   42.8619   55.1239   32.0076 C   0  0  0  0  0  0  0  0  0  0  0  0
   41.6344   54.9803   31.3931 N   0  0  0  0  0  0  0  0  0  0  0  0
   43.1501   52.7511   32.9204 N   0  0  0  0  0  0  0  0  0  0  0  0
   44.1032   52.1811   33.6082 C   0  0  0  0  0  0  0  0  0  0  0  0
   45.1224   53.0598   33.8477 N   0  0  0  0  0  0  0  0  0  0  0  0
  2  1  1  6  0  0  0
  2  3  1  0  0  0  0
  2  5  1  0  0  0  0
  3  4  1  0  0  0  0
  3 17  1  0  0  0  0
  5  6  1  0  0  0  0
  7  6  1  6  0  0  0
  7  8  1  0  0  0  0
  7  9  1  0  0  0  0
 10  9  1  1  0  0  0
 10 11  1  0  0  0  0
 10 12  1  0  0  0  0
 11 16  1  0  0  0  0
 12 13  1  1  0  0  0
 12 14  1  0  0  0  0
 14 15  1  1  0  0  0
 14 16  1  0  0  0  0
 16 27  1  6  0  0  0
 18 19  2  0  0  0  0
 18 23  1  0  0  0  0
 19 20  1  0  0  0  0
 20 21  2  0  0  0  0
 21 22  1  0  0  0  0
 21 27  1  0  0  0  0
 22 23  2  0  0  0  0
 22 25  1  0  0  0  0
 23 24  1  0  0  0  0
 25 26  2  0  0  0  0
 26 27  1  0  0  0  0
M  END
>  <CHROM.1>
-7.07878568,-80.34124932,178.51246982,167.61273421,-64.39263528,-23.48057736
-35.94715881,46.90238337,54.55688269,32.83470742,0.45599933,-0.06015297,-1.57426289

>  <Name>
ligand

>  <RI>
0

>  <Rbt.Current_Directory>
/home/itssahil/PROJECTS/Mol_Feturizer/New_Systems/rnas/3IQR

>  <Rbt.Executable>
rbdock ($Id: //depot/dev/client3/rdock/2013.1/src/exe/rbdock.cxx#4 $)

>  <Rbt.Library>
libRbt.so (2013.1, Build901 2013/11/27)

>  <Rbt.Parameter_File>
/export/apps/rDock/src/rDock_2013.1_src/data/scripts/dock_solv.prm

>  <Rbt.Receptor>
prm/pocket_docking_8.prm

>  <SCORE>
-21.1159

>  <SCORE.INTER>
-16.3614

>  <SCORE.INTER.CONST>
1

>  <SCORE.INTER.POLAR>
0

>  <SCORE.INTER.ROT>
7

>  <SCORE.INTER.SOLV>
11.7182

>  <SCORE.INTER.VDW>
-23.0803

>  <SCORE.INTER.norm>
-0.605978

>  <SCORE.INTRA>
-4.76721

>  <SCORE.INTRA.DIHEDRAL>
-0.908082

>  <SCORE.INTRA.DIHEDRAL.0>
9.29433

>  <SCORE.INTRA.POLAR>
0

>  <SCORE.INTRA.POLAR.0>
0

>  <SCORE.INTRA.REPUL>
0

>  <SCORE.INTRA.REPUL.0>
0

>  <SCORE.INTRA.SOLV>
-1.06053

>  <SCORE.INTRA.SOLV.lig_0>
-48.5102

>  <SCORE.INTRA.VDW>
-3.78291

>  <SCORE.INTRA.VDW.0>
0.379549

>  <SCORE.INTRA.norm>
-0.176563

>  <SCORE.RESTR>
0.0127468

>  <SCORE.RESTR.CAVITY>
0.0127468

>  <SCORE.RESTR.norm>
0.000472103

>  <SCORE.SYSTEM>
0

>  <SCORE.SYSTEM.CONST>
0

>  <SCORE.SYSTEM.DIHEDRAL>
0

>  <SCORE.SYSTEM.SOLV>
0

>  <SCORE.SYSTEM.norm>
0

>  <SCORE.heavy>
27

>  <SCORE.norm>
-0.78207

>  <RMSD>
5.119

$$$$
ligand
 OpenBabel11021811483D
libRbt.so/2013.1/901 2013/11/27
 27 29  0  0  0  0  0  0  0  0999 V2000
   47.5625   53.1883   31.0174 N   0  0  0  0  0  0  0  0  0  0  0  0
   47.3980   53.2904   29.5681 C   0  0  2  0  0  0  0  0  0  0  0  0
   47.0898   51.9323   29.0071 C   0  0  0  0  0  0  0  0  0  0  0  0
   46.0402   51.7434   28.4012 O   0  0  0  0  0  0  0  0  0  0  0  0
   48.6798   53.8176   28.9245 C   0  0  0  0  0  0  0  0  0  0  0  0
   48.7895   55.3069   29.1965 C   0  0  0  0  0  0  0  0  0  0  0  0
   47.3896   56.2772   28.5519 S   0  0  2  0  0  0  0  0  0  0  0  0
   47.7021   56.3942   26.7656 C   0  0  0  0  0  0  0  0  0  0  0  0
   47.9443   58.0712   28.7928 C   0  0  0  0  0  0  0  0  0  0  0  0
   47.5848   58.8238   30.1421 C   0  0  2  0  0  0  0  0  0  0  0  0
   48.2208   58.4105   31.3303 O   0  0  0  0  0  0  0  0  0  0  0  0
   46.1842   59.1516   30.4741 C   0  0  1  0  0  0  0  0  0  0  0  0
   45.3194   59.0897   29.3393 O   0  0  0  0  0  0  0  0  0  0  0  0
   45.9760   57.9909   31.5579 C   0  0  2  0  0  0  0  0  0  0  0  0
   44.7908   58.1845   32.2697 O   0  0  0  0  0  0  0  0  0  0  0  0
   47.2169   58.1998   32.4237 C   0  0  1  0  0  0  0  0  0  0  0  0
   47.9072   51.0279   29.1208 O   0  0  0  0  0  0  0  0  0  0  0  0
   45.8310   53.8773   34.7745 N   0  0  0  0  0  0  0  0  0  0  0  0
   45.1104   54.7726   34.0940 C   0  0  0  0  0  0  0  0  0  0  0  0
   45.6822   55.8330   33.5311 N   0  0  0  0  0  0  0  0  0  0  0  0
   46.9844   56.1048   33.7113 C   0  0  0  0  0  0  0  0  0  0  0  0
   47.7811   55.2119   34.4738 C   0  0  0  0  0  0  0  0  0  0  0  0
   47.1465   54.0557   35.0066 C   0  0  0  0  0  0  0  0  0  0  0  0
   47.8553   53.1307   35.7462 N   0  0  0  0  0  0  0  0  0  0  0  0
   49.0277   55.7149   34.5025 N   0  0  0  0  0  0  0  0  0  0  0  0
   49.0585   56.8353   33.8316 C   0  0  0  0  0  0  0  0  0  0  0  0
   47.8287   57.1234   33.3094 N   0  0  0  0  0  0  0  0  0  0  0  0
  2  1  1  1  0  0  0
  2  3  1  0  0  0  0
  2  5  1  0  0  0  0
  3  4  1  0  0  0  0
  3 17  1  0  0  0  0
  5  6  1  0  0  0  0
  7  6  1  1  0  0  0
  7  8  1  0  0  0  0
  7  9  1  0  0  0  0
 10  9  1  6  0  0  0
 10 11  1  0  0  0  0
 10 12  1  0  0  0  0
 11 16  1  0  0  0  0
 12 13  1  6  0  0  0
 12 14  1  0  0  0  0
 14 15  1  1  0  0  0
 14 16  1  0  0  0  0
 16 27  1  6  0  0  0
 18 19  2  0  0  0  0
 18 23  1  0  0  0  0
 19 20  1  0  0  0  0
 20 21  2  0  0  0  0
 21 22  1  0  0  0  0
 21 27  1  0  0  0  0
 22 23  2  0  0  0  0
 22 25  1  0  0  0  0
 23 24  1  0  0  0  0
 25 26  2  0  0  0  0
 26 27  1  0  0  0  0
M  END
>  <CHROM.1>
120.10205260,-75.00084263,-59.25405055,-76.84810397,-90.71779149,69.19821621
-134.87672199,47.18488014,55.72047187,31.24361614,-1.00667028,-1.46227139
2.03803811

>  <Name>
ligand

>  <RI>
0

>  <Rbt.Current_Directory>
/home/itssahil/PROJECTS/Mol_Feturizer/New_Systems/rnas/3IQR

>  <Rbt.Executable>
rbdock ($Id: //depot/dev/client3/rdock/2013.1/src/exe/rbdock.cxx#4 $)

>  <Rbt.Library>
libRbt.so (2013.1, Build901 2013/11/27)

>  <Rbt.Parameter_File>
/export/apps/rDock/src/rDock_2013.1_src/data/scripts/dock_solv.prm

>  <Rbt.Receptor>
prm/pocket_docking_4.prm

>  <SCORE>
-19.2853

>  <SCORE.INTER>
-13.9735

>  <SCORE.INTER.CONST>
1

>  <SCORE.INTER.POLAR>
0

>  <SCORE.INTER.ROT>
7

>  <SCORE.INTER.SOLV>
13.0587

>  <SCORE.INTER.VDW>
-21.9353

>  <SCORE.INTER.norm>
-0.517538

>  <SCORE.INTRA>
-5.31176

>  <SCORE.INTRA.DIHEDRAL>
-2.6524

>  <SCORE.INTRA.DIHEDRAL.0>
9.29433

>  <SCORE.INTRA.POLAR>
0

>  <SCORE.INTRA.POLAR.0>
0

>  <SCORE.INTRA.REPUL>
0

>  <SCORE.INTRA.REPUL.0>
0

>  <SCORE.INTRA.SOLV>
-0.316746

>  <SCORE.INTRA.SOLV.lig_0>
-48.5102

>  <SCORE.INTRA.VDW>
-3.82718

>  <SCORE.INTRA.VDW.0>
0.379549

>  <SCORE.INTRA.norm>
-0.196732

>  <SCORE.RESTR>
0

>  <SCORE.RESTR.CAVITY>
0

>  <SCORE.RESTR.norm>
0

>  <SCORE.SYSTEM>
0

>  <SCORE.SYSTEM.CONST>
0

>  <SCORE.SYSTEM.DIHEDRAL>
0

>  <SCORE.SYSTEM.SOLV>
0

>  <SCORE.SYSTEM.norm>
0

>  <SCORE.heavy>
27

>  <SCORE.norm>
-0.714269

>  <RMSD>
5.121

$$$$
ligand
 OpenBabel11021811483D
libRbt.so/2013.1/901 2013/11/27
 27 29  0  0  0  0  0  0  0  0999 V2000
   50.4171   53.1235   29.7669 N   0  0  0  0  0  0  0  0  0  0  0  0
   48.9834   53.4101   29.7803 C   0  0  2  0  0  0  0  0  0  0  0  0
   48.2514   52.3122   29.0643 C   0  0  0  0  0  0  0  0  0  0  0  0
   47.1408   51.9629   29.4505 O   0  0  0  0  0  0  0  0  0  0  0  0
   48.7014   54.7384   29.0794 C   0  0  0  0  0  0  0  0  0  0  0  0
   47.2314   55.0788   29.2446 C   0  0  0  0  0  0  0  0  0  0  0  0
   46.6988   56.5271   28.2775 S   0  0  2  0  0  0  0  0  0  0  0  0
   47.5495   56.3461   26.6820 C   0  0  0  0  0  0  0  0  0  0  0  0
   47.9133   57.8817   28.8009 C   0  0  0  0  0  0  0  0  0  0  0  0
   47.7027   58.6246   30.1866 C   0  0  2  0  0  0  0  0  0  0  0  0
   48.3117   58.0833   31.3369 O   0  0  0  0  0  0  0  0  0  0  0  0
   46.3717   59.1283   30.5790 C   0  0  1  0  0  0  0  0  0  0  0  0
   45.4722   59.2286   29.4743 O   0  0  0  0  0  0  0  0  0  0  0  0
   46.0385   57.9666   31.6301 C   0  0  2  0  0  0  0  0  0  0  0  0
   44.9138   58.2935   32.3897 O   0  0  0  0  0  0  0  0  0  0  0  0
   47.3224   57.9705   32.4577 C   0  0  1  0  0  0  0  0  0  0  0  0
   48.7487   51.7973   28.0711 O   0  0  0  0  0  0  0  0  0  0  0  0
   45.3994   53.9020   34.8827 N   0  0  0  0  0  0  0  0  0  0  0  0
   44.7932   54.9211   34.2679 C   0  0  0  0  0  0  0  0  0  0  0  0
   45.4936   55.8792   33.6682 N   0  0  0  0  0  0  0  0  0  0  0  0
   46.8332   55.9205   33.7457 C   0  0  0  0  0  0  0  0  0  0  0  0
   47.5209   54.8892   34.4362 C   0  0  0  0  0  0  0  0  0  0  0  0
   46.7399   53.8480   35.0103 C   0  0  0  0  0  0  0  0  0  0  0  0
   47.3340   52.8006   35.6847 N   0  0  0  0  0  0  0  0  0  0  0  0
   48.8339   55.1708   34.3687 N   0  0  0  0  0  0  0  0  0  0  0  0
   49.0050   56.2828   33.7050 C   0  0  0  0  0  0  0  0  0  0  0  0
   47.8064   56.7876   33.2846 N   0  0  0  0  0  0  0  0  0  0  0  0
  2  1  1  6  0  0  0
  2  3  1  0  0  0  0
  2  5  1  0  0  0  0
  3  4  1  0  0  0  0
  3 17  1  0  0  0  0
  5  6  1  0  0  0  0
  7  6  1  1  0  0  0
  7  8  1  0  0  0  0
  7  9  1  0  0  0  0
 10  9  1  6  0  0  0
 10 11  1  0  0  0  0
 10 12  1  0  0  0  0
 11 16  1  0  0  0  0
 12 13  1  6  0  0  0
 12 14  1  0  0  0  0
 14 15  1  1  0  0  0
 14 16  1  0  0  0  0
 16 27  1  6  0  0  0
 18 19  2  0  0  0  0
 18 23  1  0  0  0  0
 19 20  1  0  0  0  0
 20 21  2  0  0  0  0
 21 22  1  0  0  0  0
 21 27  1  0  0  0  0
 22 23  2  0  0  0  0
 22 25  1  0  0  0  0
 23 24  1  0  0  0  0
 25 26  2  0  0  0  0
 26 27  1  0  0  0  0
M  END
>  <CHROM.1>
145.00522605,-173.83908085,-172.46279549,40.63024346,-78.56007177,89.56817023
-138.40798367,47.28213027,55.71667789,31.21102283,-1.05675150,-1.21168322
2.10377211

>  <Name>
ligand

>  <RI>
0

>  <Rbt.Current_Directory>
/home/itssahil/PROJECTS/Mol_Feturizer/New_Systems/rnas/3IQR

>  <Rbt.Executable>
rbdock ($Id: //depot/dev/client3/rdock/2013.1/src/exe/rbdock.cxx#4 $)

>  <Rbt.Library>
libRbt.so (2013.1, Build901 2013/11/27)

>  <Rbt.Parameter_File>
/export/apps/rDock/src/rDock_2013.1_src/data/scripts/dock_solv.prm

>  <Rbt.Receptor>
prm/pocket_docking_5.prm

>  <SCORE>
-17.3681

>  <SCORE.INTER>
-12.6461

>  <SCORE.INTER.CONST>
1

>  <SCORE.INTER.POLAR>
0

>  <SCORE.INTER.ROT>
7

>  <SCORE.INTER.SOLV>
16.5884

>  <SCORE.INTER.VDW>
-22.2269

>  <SCORE.INTER.norm>
-0.468376

>  <SCORE.INTRA>
-4.72195

>  <SCORE.INTRA.DIHEDRAL>
-2.45938

>  <SCORE.INTRA.DIHEDRAL.0>
9.29433

>  <SCORE.INTRA.POLAR>
0

>  <SCORE.INTRA.POLAR.0>
0

>  <SCORE.INTRA.REPUL>
0

>  <SCORE.INTRA.REPUL.0>
0

>  <SCORE.INTRA.SOLV>
-1.3124

>  <SCORE.INTRA.SOLV.lig_0>
-48.5102

>  <SCORE.INTRA.VDW>
-2.83606

>  <SCORE.INTRA.VDW.0>
0.379549

>  <SCORE.INTRA.norm>
-0.174887

>  <SCORE.RESTR>
0

>  <SCORE.RESTR.CAVITY>
0

>  <SCORE.RESTR.norm>
0

>  <SCORE.SYSTEM>
0

>  <SCORE.SYSTEM.CONST>
0

>  <SCORE.SYSTEM.DIHEDRAL>
0

>  <SCORE.SYSTEM.SOLV>
0

>  <SCORE.SYSTEM.norm>
0

>  <SCORE.heavy>
27

>  <SCORE.norm>
-0.643263

>  <RMSD>
5.121

$$$$
ligand
 OpenBabel11021811483D
libRbt.so/2013.1/901 2013/11/27
 27 29  0  0  0  0  0  0  0  0999 V2000
   49.6081   52.0401   28.9993 N   0  0  0  0  0  0  0  0  0  0  0  0
   49.6002   53.4930   29.1634 C   0  0  2  0  0  0  0  0  0  0  0  0
   48.6112   53.8663   30.2296 C   0  0  0  0  0  0  0  0  0  0  0  0
   47.4961   53.3556   30.2368 O   0  0  0  0  0  0  0  0  0  0  0  0
   49.2032   54.1727   27.8537 C   0  0  0  0  0  0  0  0  0  0  0  0
   49.2802   55.6774   28.0379 C   0  0  0  0  0  0  0  0  0  0  0  0
   47.7876   56.4038   28.7870 S   0  0  2  0  0  0  0  0  0  0  0  0
   46.8053   56.9835   27.3724 C   0  0  0  0  0  0  0  0  0  0  0  0
   48.3097   58.1794   29.1854 C   0  0  0  0  0  0  0  0  0  0  0  0
   47.9133   58.8131   30.5844 C   0  0  2  0  0  0  0  0  0  0  0  0
   48.4246   58.2217   31.7575 O   0  0  0  0  0  0  0  0  0  0  0  0
   46.5231   59.2260   30.8600 C   0  0  1  0  0  0  0  0  0  0  0  0
   45.7421   59.3613   29.6720 O   0  0  0  0  0  0  0  0  0  0  0  0
   46.1427   57.9796   31.7913 C   0  0  2  0  0  0  0  0  0  0  0  0
   44.9276   58.2002   32.4423 O   0  0  0  0  0  0  0  0  0  0  0  0
   47.3291   57.9852   32.7533 C   0  0  1  0  0  0  0  0  0  0  0  0
   48.9364   54.6492   31.1130 O   0  0  0  0  0  0  0  0  0  0  0  0
   45.3613   53.7179   34.7652 N   0  0  0  0  0  0  0  0  0  0  0  0
   44.7716   54.7517   34.1589 C   0  0  0  0  0  0  0  0  0  0  0  0
   45.4840   55.7665   33.6783 N   0  0  0  0  0  0  0  0  0  0  0  0
   46.8096   55.8468   33.8747 C   0  0  0  0  0  0  0  0  0  0  0  0
   47.4743   54.7988   34.5626 C   0  0  0  0  0  0  0  0  0  0  0  0
   46.6871   53.7001   35.0060 C   0  0  0  0  0  0  0  0  0  0  0  0
   47.2606   52.6340   35.6690 N   0  0  0  0  0  0  0  0  0  0  0  0
   48.7768   55.1267   34.6262 N   0  0  0  0  0  0  0  0  0  0  0  0
   48.9618   56.2816   34.0445 C   0  0  0  0  0  0  0  0  0  0  0  0
   47.7852   56.7713   33.5504 N   0  0  0  0  0  0  0  0  0  0  0  0
  2  1  1  6  0  0  0
  2  3  1  0  0  0  0
  2  5  1  0  0  0  0
  3  4  1  0  0  0  0
  3 17  1  0  0  0  0
  5  6  1  0  0  0  0
  7  6  1  6  0  0  0
  7  8  1  0  0  0  0
  7  9  1  0  0  0  0
 10  9  1  6  0  0  0
 10 11  1  0  0  0  0
 10 12  1  0  0  0  0
 11 16  1  0  0  0  0
 12 13  1  6  0  0  0
 12 14  1  0  0  0  0
 14 15  1  1  0  0  0
 14 16  1  0  0  0  0
 16 27  1  6  0  0  0
 18 19  2  0  0  0  0
 18 23  1  0  0  0  0
 19 20  1  0  0  0  0
 20 21  2  0  0  0  0
 21 22  1  0  0  0  0
 21 27  1  0  0  0  0
 22 23  2  0  0  0  0
 22 25  1  0  0  0  0
 23 24  1  0  0  0  0
 25 26  2  0  0  0  0
 26 27  1  0  0  0  0
M  END
>  <CHROM.1>
-45.49120725,-176.88589793,-83.84006512,-96.04603794,-136.25908062,62.63533238
-140.00692626,47.49273618,55.91275415,31.44504699,-1.04100382,-1.09840416
2.30409047

>  <Name>
ligand

>  <RI>
0

>  <Rbt.Current_Directory>
/home/itssahil/PROJECTS/Mol_Feturizer/New_Systems/rnas/3IQR

>  <Rbt.Executable>
rbdock ($Id: //depot/dev/client3/rdock/2013.1/src/exe/rbdock.cxx#4 $)

>  <Rbt.Library>
libRbt.so (2013.1, Build901 2013/11/27)

>  <Rbt.Parameter_File>
/export/apps/rDock/src/rDock_2013.1_src/data/scripts/dock_solv.prm

>  <Rbt.Receptor>
prm/pocket_docking_5.prm

>  <SCORE>
-16.5446

>  <SCORE.INTER>
-12.5171

>  <SCORE.INTER.CONST>
1

>  <SCORE.INTER.POLAR>
0

>  <SCORE.INTER.ROT>
7

>  <SCORE.INTER.SOLV>
15.5131

>  <SCORE.INTER.VDW>
-21.7824

>  <SCORE.INTER.norm>
-0.463597

>  <SCORE.INTRA>
-4.02744

>  <SCORE.INTRA.DIHEDRAL>
2.16846

>  <SCORE.INTRA.DIHEDRAL.0>
9.29433

>  <SCORE.INTRA.POLAR>
0

>  <SCORE.INTRA.POLAR.0>
0

>  <SCORE.INTRA.REPUL>
0

>  <SCORE.INTRA.REPUL.0>
0

>  <SCORE.INTRA.SOLV>
-1.21869

>  <SCORE.INTRA.SOLV.lig_0>
-48.5102

>  <SCORE.INTRA.VDW>
-4.50233

>  <SCORE.INTRA.VDW.0>
0.379549

>  <SCORE.INTRA.norm>
-0.149165

>  <SCORE.RESTR>
0

>  <SCORE.RESTR.CAVITY>
0

>  <SCORE.RESTR.norm>
0

>  <SCORE.SYSTEM>
0

>  <SCORE.SYSTEM.CONST>
0

>  <SCORE.SYSTEM.DIHEDRAL>
0

>  <SCORE.SYSTEM.SOLV>
0

>  <SCORE.SYSTEM.norm>
0

>  <SCORE.heavy>
27

>  <SCORE.norm>
-0.612761

>  <RMSD>
5.122

$$$$
ligand
 OpenBabel11021811483D
libRbt.so/2013.1/901 2013/11/27
 27 29  0  0  0  0  0  0  0  0999 V2000
   49.3511   54.6666   25.8902 N   0  0  0  0  0  0  0  0  0  0  0  0
   50.6826   54.4962   26.4698 C   0  0  2  0  0  0  0  0  0  0  0  0
   51.0278   53.0353   26.4986 C   0  0  0  0  0  0  0  0  0  0  0  0
   50.2807   52.2187   25.9699 O   0  0  0  0  0  0  0  0  0  0  0  0
   50.7149   55.0453   27.8954 C   0  0  0  0  0  0  0  0  0  0  0  0
   49.6950   54.2963   28.7337 C   0  0  0  0  0  0  0  0  0  0  0  0
   49.5672   54.8983   30.4477 S   0  0  2  0  0  0  0  0  0  0  0  0
   48.2226   53.9161   31.1754 C   0  0  0  0  0  0  0  0  0  0  0  0
   48.4267   56.4027   30.3062 C   0  0  0  0  0  0  0  0  0  0  0  0
   47.8630   57.0804   31.6250 C   0  0  2  0  0  0  0  0  0  0  0  0
   47.0992   56.2926   32.5099 O   0  0  0  0  0  0  0  0  0  0  0  0
   47.2546   58.4248   31.5828 C   0  0  1  0  0  0  0  0  0  0  0  0
   47.5887   59.1443   30.3953 O   0  0  0  0  0  0  0  0  0  0  0  0
   45.7314   57.9401   31.6841 C   0  0  2  0  0  0  0  0  0  0  0  0
   44.8826   59.0214   31.9275 O   0  0  0  0  0  0  0  0  0  0  0  0
   45.8252   56.9920   32.8780 C   0  0  1  0  0  0  0  0  0  0  0  0
   52.0758   52.6685   27.0145 O   0  0  0  0  0  0  0  0  0  0  0  0
   41.6821   54.8803   30.7553 N   0  0  0  0  0  0  0  0  0  0  0  0
   42.3916   55.9567   30.4059 C   0  0  0  0  0  0  0  0  0  0  0  0
   43.4689   56.3248   31.0932 N   0  0  0  0  0  0  0  0  0  0  0  0
   43.8266   55.6964   32.2243 C   0  0  0  0  0  0  0  0  0  0  0  0
   43.0708   54.5802   32.6673 C   0  0  0  0  0  0  0  0  0  0  0  0
   41.9629   54.1783   31.8708 C   0  0  0  0  0  0  0  0  0  0  0  0
   41.1869   53.0932   32.2249 N   0  0  0  0  0  0  0  0  0  0  0  0
   43.6317   54.1469   33.8099 N   0  0  0  0  0  0  0  0  0  0  0  0
   44.6558   54.9027   34.1037 C   0  0  0  0  0  0  0  0  0  0  0  0
   44.8336   55.8709   33.1555 N   0  0  0  0  0  0  0  0  0  0  0  0
  2  1  1  1  0  0  0
  2  3  1  0  0  0  0
  2  5  1  0  0  0  0
  3  4  1  0  0  0  0
  3 17  1  0  0  0  0
  5  6  1  0  0  0  0
  7  6  1  6  0  0  0
  7  8  1  0  0  0  0
  7  9  1  0  0  0  0
 10  9  1  6  0  0  0
 10 11  1  0  0  0  0
 10 12  1  0  0  0  0
 11 16  1  0  0  0  0
 12 13  1  6  0  0  0
 12 14  1  0  0  0  0
 14 15  1  1  0  0  0
 14 16  1  0  0  0  0
 16 27  1  6  0  0  0
 18 19  2  0  0  0  0
 18 23  1  0  0  0  0
 19 20  1  0  0  0  0
 20 21  2  0  0  0  0
 21 22  1  0  0  0  0
 21 27  1  0  0  0  0
 22 23  2  0  0  0  0
 22 25  1  0  0  0  0
 23 24  1  0  0  0  0
 25 26  2  0  0  0  0
 26 27  1  0  0  0  0
M  END
>  <CHROM.1>
6.16690888,59.68719634,-177.35807177,176.43301535,169.84336653,-58.66926252
-108.95643194,46.79819283,55.39874793,30.51152865,0.47440415,-0.43237256
-2.58808845

>  <Name>
ligand

>  <RI>
0

>  <Rbt.Current_Directory>
/home/itssahil/PROJECTS/Mol_Feturizer/New_Systems/rnas/3IQR

>  <Rbt.Executable>
rbdock ($Id: //depot/dev/client3/rdock/2013.1/src/exe/rbdock.cxx#4 $)

>  <Rbt.Library>
libRbt.so (2013.1, Build901 2013/11/27)

>  <Rbt.Parameter_File>
/export/apps/rDock/src/rDock_2013.1_src/data/scripts/dock_solv.prm

>  <Rbt.Receptor>
prm/pocket_docking_8.prm

>  <SCORE>
-16.5454

>  <SCORE.INTER>
-12.4261

>  <SCORE.INTER.CONST>
1

>  <SCORE.INTER.POLAR>
0

>  <SCORE.INTER.ROT>
7

>  <SCORE.INTER.SOLV>
7.08856

>  <SCORE.INTER.VDW>
-18.9136

>  <SCORE.INTER.norm>
-0.460227

>  <SCORE.INTRA>
-4.11929

>  <SCORE.INTRA.DIHEDRAL>
-5.11063

>  <SCORE.INTRA.DIHEDRAL.0>
9.29433

>  <SCORE.INTRA.POLAR>
0

>  <SCORE.INTRA.POLAR.0>
0

>  <SCORE.INTRA.REPUL>
0

>  <SCORE.INTRA.REPUL.0>
0

>  <SCORE.INTRA.SOLV>
-0.98023

>  <SCORE.INTRA.SOLV.lig_0>
-48.5102

>  <SCORE.INTRA.VDW>
-1.07386

>  <SCORE.INTRA.VDW.0>
0.379549

>  <SCORE.INTRA.norm>
-0.152566

>  <SCORE.RESTR>
0

>  <SCORE.RESTR.CAVITY>
0

>  <SCORE.RESTR.norm>
0

>  <SCORE.SYSTEM>
0

>  <SCORE.SYSTEM.CONST>
0

>  <SCORE.SYSTEM.DIHEDRAL>
0

>  <SCORE.SYSTEM.SOLV>
0

>  <SCORE.SYSTEM.norm>
0

>  <SCORE.heavy>
27

>  <SCORE.norm>
-0.612793

>  <RMSD>
5.122

$$$$
ligand
 OpenBabel11021811483D
libRbt.so/2013.1/901 2013/11/27
 27 29  0  0  0  0  0  0  0  0999 V2000
   51.0229   53.7015   28.2603 N   0  0  0  0  0  0  0  0  0  0  0  0
   49.5897   53.4668   28.0905 C   0  0  2  0  0  0  0  0  0  0  0  0
   49.3650   52.0362   27.6943 C   0  0  0  0  0  0  0  0  0  0  0  0
   50.2250   51.4336   27.0604 O   0  0  0  0  0  0  0  0  0  0  0  0
   49.0278   54.3807   27.0023 C   0  0  0  0  0  0  0  0  0  0  0  0
   49.1179   55.8203   27.4749 C   0  0  0  0  0  0  0  0  0  0  0  0
   48.1169   56.1723   28.9551 S   0  0  2  0  0  0  0  0  0  0  0  0
   46.4219   56.3523   28.3253 C   0  0  0  0  0  0  0  0  0  0  0  0
   48.2686   58.0484   29.1581 C   0  0  0  0  0  0  0  0  0  0  0  0
   47.8816   58.7163   30.5438 C   0  0  2  0  0  0  0  0  0  0  0  0
   48.4027   58.1552   31.7274 O   0  0  0  0  0  0  0  0  0  0  0  0
   46.4926   59.1336   30.8195 C   0  0  1  0  0  0  0  0  0  0  0  0
   45.7026   59.2379   29.6344 O   0  0  0  0  0  0  0  0  0  0  0  0
   46.1215   57.9103   31.7844 C   0  0  2  0  0  0  0  0  0  0  0  0
   44.9110   58.1451   32.4388 O   0  0  0  0  0  0  0  0  0  0  0  0
   47.3151   57.9420   32.7370 C   0  0  1  0  0  0  0  0  0  0  0  0
   48.3402   51.4632   28.0416 O   0  0  0  0  0  0  0  0  0  0  0  0
   45.3816   53.6930   34.8198 N   0  0  0  0  0  0  0  0  0  0  0  0
   44.7846   54.7080   34.1895 C   0  0  0  0  0  0  0  0  0  0  0  0
   45.4888   55.7211   33.6936 N   0  0  0  0  0  0  0  0  0  0  0  0
   46.8120   55.8202   33.8970 C   0  0  0  0  0  0  0  0  0  0  0  0
   47.4838   54.7935   34.6096 C   0  0  0  0  0  0  0  0  0  0  0  0
   46.7059   53.6949   35.0695 C   0  0  0  0  0  0  0  0  0  0  0  0
   47.2869   52.6485   35.7570 N   0  0  0  0  0  0  0  0  0  0  0  0
   48.7821   55.1372   34.6751 N   0  0  0  0  0  0  0  0  0  0  0  0
   48.9580   56.2825   34.0720 C   0  0  0  0  0  0  0  0  0  0  0  0
   47.7794   56.7491   33.5609 N   0  0  0  0  0  0  0  0  0  0  0  0
  2  1  1  6  0  0  0
  2  3  1  0  0  0  0
  2  5  1  0  0  0  0
  3  4  1  0  0  0  0
  3 17  1  0  0  0  0
  5  6  1  0  0  0  0
  7  6  1  6  0  0  0
  7  8  1  0  0  0  0
  7  9  1  0  0  0  0
 10  9  1  6  0  0  0
 10 11  1  0  0  0  0
 10 12  1  0  0  0  0
 11 16  1  0  0  0  0
 12 13  1  6  0  0  0
 12 14  1  0  0  0  0
 14 15  1  1  0  0  0
 14 16  1  0  0  0  0
 16 27  1  6  0  0  0
 18 19  2  0  0  0  0
 18 23  1  0  0  0  0
 19 20  1  0  0  0  0
 20 21  2  0  0  0  0
 21 22  1  0  0  0  0
 21 27  1  0  0  0  0
 22 23  2  0  0  0  0
 22 25  1  0  0  0  0
 23 24  1  0  0  0  0
 25 26  2  0  0  0  0
 26 27  1  0  0  0  0
M  END
>  <CHROM.1>
-29.25406678,-66.13896394,-63.09012835,-78.91753218,-163.13474170,48.40993407
-138.98761391,47.64901807,55.64543518,31.05465510,-0.39706991,-1.14687300
2.36022000

>  <Name>
ligand

>  <RI>
0

>  <Rbt.Current_Directory>
/home/itssahil/PROJECTS/Mol_Feturizer/New_Systems/rnas/3IQR

>  <Rbt.Executable>
rbdock ($Id: //depot/dev/client3/rdock/2013.1/src/exe/rbdock.cxx#4 $)

>  <Rbt.Library>
libRbt.so (2013.1, Build901 2013/11/27)

>  <Rbt.Parameter_File>
/export/apps/rDock/src/rDock_2013.1_src/data/scripts/dock_solv.prm

>  <Rbt.Receptor>
prm/pocket_docking_5.prm

>  <SCORE>
-18.2525

>  <SCORE.INTER>
-13.2957

>  <SCORE.INTER.CONST>
1

>  <SCORE.INTER.POLAR>
0

>  <SCORE.INTER.ROT>
7

>  <SCORE.INTER.SOLV>
15.0588

>  <SCORE.INTER.VDW>
-22.1501

>  <SCORE.INTER.norm>
-0.492434

>  <SCORE.INTRA>
-4.95682

>  <SCORE.INTRA.DIHEDRAL>
-3.03637

>  <SCORE.INTRA.DIHEDRAL.0>
9.29433

>  <SCORE.INTRA.POLAR>
0

>  <SCORE.INTRA.POLAR.0>
0

>  <SCORE.INTRA.REPUL>
0

>  <SCORE.INTRA.REPUL.0>
0

>  <SCORE.INTRA.SOLV>
-0.0702661

>  <SCORE.INTRA.SOLV.lig_0>
-48.5102

>  <SCORE.INTRA.VDW>
-3.4035

>  <SCORE.INTRA.VDW.0>
0.379549

>  <SCORE.INTRA.norm>
-0.183586

>  <SCORE.RESTR>
0

>  <SCORE.RESTR.CAVITY>
0

>  <SCORE.RESTR.norm>
0

>  <SCORE.SYSTEM>
0

>  <SCORE.SYSTEM.CONST>
0

>  <SCORE.SYSTEM.DIHEDRAL>
0

>  <SCORE.SYSTEM.SOLV>
0

>  <SCORE.SYSTEM.norm>
0

>  <SCORE.heavy>
27

>  <SCORE.norm>
-0.67602

>  <RMSD>
5.131

$$$$
ligand
 OpenBabel11021811483D
libRbt.so/2013.1/901 2013/11/27
 27 29  0  0  0  0  0  0  0  0999 V2000
   48.2962   52.7497   25.0638 N   0  0  0  0  0  0  0  0  0  0  0  0
   47.7981   52.0677   26.2574 C   0  0  2  0  0  0  0  0  0  0  0  0
   46.3021   51.9651   26.1820 C   0  0  0  0  0  0  0  0  0  0  0  0
   45.6584   51.6528   27.1782 O   0  0  0  0  0  0  0  0  0  0  0  0
   48.1826   52.8481   27.5137 C   0  0  0  0  0  0  0  0  0  0  0  0
   49.6943   52.9713   27.5721 C   0  0  0  0  0  0  0  0  0  0  0  0
   50.3039   53.8527   29.0446 S   0  0  2  0  0  0  0  0  0  0  0  0
   49.5232   52.9947   30.4434 C   0  0  0  0  0  0  0  0  0  0  0  0
   49.0982   55.3008   29.2263 C   0  0  0  0  0  0  0  0  0  0  0  0
   49.1994   56.2447   30.4971 C   0  0  2  0  0  0  0  0  0  0  0  0
   48.8102   55.7273   31.7494 O   0  0  0  0  0  0  0  0  0  0  0  0
   48.7490   57.6491   30.4329 C   0  0  1  0  0  0  0  0  0  0  0  0
   48.6171   58.1252   29.0930 O   0  0  0  0  0  0  0  0  0  0  0  0
   47.3720   57.4364   31.2228 C   0  0  2  0  0  0  0  0  0  0  0  0
   46.8008   58.6643   31.5621 O   0  0  0  0  0  0  0  0  0  0  0  0
   47.8735   56.6691   32.4446 C   0  0  1  0  0  0  0  0  0  0  0  0
   45.7264   52.2342   25.1354 O   0  0  0  0  0  0  0  0  0  0  0  0
   48.3460   53.3487   36.3023 N   0  0  0  0  0  0  0  0  0  0  0  0
   49.2702   53.9898   35.5820 C   0  0  0  0  0  0  0  0  0  0  0  0
   48.9259   54.8446   34.6233 N   0  0  0  0  0  0  0  0  0  0  0  0
   47.6431   55.0190   34.2679 C   0  0  0  0  0  0  0  0  0  0  0  0
   46.6274   54.3173   34.9673 C   0  0  0  0  0  0  0  0  0  0  0  0
   47.0313   53.4602   36.0283 C   0  0  0  0  0  0  0  0  0  0  0  0
   46.1032   52.7546   36.7671 N   0  0  0  0  0  0  0  0  0  0  0  0
   45.4511   54.6641   34.4160 N   0  0  0  0  0  0  0  0  0  0  0  0
   45.6614   55.5081   33.4414 C   0  0  0  0  0  0  0  0  0  0  0  0
   46.9953   55.7750   33.3086 N   0  0  0  0  0  0  0  0  0  0  0  0
  2  1  1  6  0  0  0
  2  3  1  0  0  0  0
  2  5  1  0  0  0  0
  3  4  1  0  0  0  0
  3 17  1  0  0  0  0
  5  6  1  0  0  0  0
  7  6  1  6  0  0  0
  7  8  1  0  0  0  0
  7  9  1  0  0  0  0
 10  9  1  6  0  0  0
 10 11  1  0  0  0  0
 10 12  1  0  0  0  0
 11 16  1  0  0  0  0
 12 13  1  6  0  0  0
 12 14  1  0  0  0  0
 14 15  1  1  0  0  0
 14 16  1  0  0  0  0
 16 27  1  6  0  0  0
 18 19  2  0  0  0  0
 18 23  1  0  0  0  0
 19 20  1  0  0  0  0
 20 21  2  0  0  0  0
 21 22  1  0  0  0  0
 21 27  1  0  0  0  0
 22 23  2  0  0  0  0
 22 25  1  0  0  0  0
 23 24  1  0  0  0  0
 25 26  2  0  0  0  0
 26 27  1  0  0  0  0
M  END
>  <CHROM.1>
-166.65690090,-58.91395483,-178.74888061,52.63968504,173.89563845,-70.68318466
60.40916898,47.90061888,54.52865311,30.91092140,1.39993835,-1.26089378,-1.95511802

>  <Name>
ligand

>  <RI>
0

>  <Rbt.Current_Directory>
/home/itssahil/PROJECTS/Mol_Feturizer/New_Systems/rnas/3IQR

>  <Rbt.Executable>
rbdock ($Id: //depot/dev/client3/rdock/2013.1/src/exe/rbdock.cxx#4 $)

>  <Rbt.Library>
libRbt.so (2013.1, Build901 2013/11/27)

>  <Rbt.Parameter_File>
/export/apps/rDock/src/rDock_2013.1_src/data/scripts/dock_solv.prm

>  <Rbt.Receptor>
prm/pocket_docking_7.prm

>  <SCORE>
-16.8488

>  <SCORE.INTER>
-12.8414

>  <SCORE.INTER.CONST>
1

>  <SCORE.INTER.POLAR>
0

>  <SCORE.INTER.ROT>
7

>  <SCORE.INTER.SOLV>
10.9835

>  <SCORE.INTER.VDW>
-20.4888

>  <SCORE.INTER.norm>
-0.475608

>  <SCORE.INTRA>
-4.00737

>  <SCORE.INTRA.DIHEDRAL>
-4.93453

>  <SCORE.INTRA.DIHEDRAL.0>
9.29433

>  <SCORE.INTRA.POLAR>
0

>  <SCORE.INTRA.POLAR.0>
0

>  <SCORE.INTRA.REPUL>
0

>  <SCORE.INTRA.REPUL.0>
0

>  <SCORE.INTRA.SOLV>
-1.10897

>  <SCORE.INTRA.SOLV.lig_0>
-48.5102

>  <SCORE.INTRA.VDW>
-0.985622

>  <SCORE.INTRA.VDW.0>
0.379549

>  <SCORE.INTRA.norm>
-0.148421

>  <SCORE.RESTR>
0

>  <SCORE.RESTR.CAVITY>
0

>  <SCORE.RESTR.norm>
0

>  <SCORE.SYSTEM>
0

>  <SCORE.SYSTEM.CONST>
0

>  <SCORE.SYSTEM.DIHEDRAL>
0

>  <SCORE.SYSTEM.SOLV>
0

>  <SCORE.SYSTEM.norm>
0

>  <SCORE.heavy>
27

>  <SCORE.norm>
-0.624029

>  <RMSD>
5.134

$$$$
ligand
 OpenBabel11021811483D
libRbt.so/2013.1/901 2013/11/27
 27 29  0  0  0  0  0  0  0  0999 V2000
   47.3796   53.0930   31.0463 N   0  0  0  0  0  0  0  0  0  0  0  0
   47.4492   53.2997   29.6005 C   0  0  2  0  0  0  0  0  0  0  0  0
   47.3162   51.9767   28.9034 C   0  0  0  0  0  0  0  0  0  0  0  0
   48.2245   51.1551   28.9697 O   0  0  0  0  0  0  0  0  0  0  0  0
   48.7866   53.9331   29.2190 C   0  0  0  0  0  0  0  0  0  0  0  0
   48.7558   55.4053   29.5874 C   0  0  0  0  0  0  0  0  0  0  0  0
   47.4509   56.3490   28.7368 S   0  0  2  0  0  0  0  0  0  0  0  0
   47.9885   56.4056   27.0019 C   0  0  0  0  0  0  0  0  0  0  0  0
   47.9732   58.1517   28.9846 C   0  0  0  0  0  0  0  0  0  0  0  0
   47.6504   58.8749   30.3591 C   0  0  2  0  0  0  0  0  0  0  0  0
   48.2449   58.3752   31.5355 O   0  0  0  0  0  0  0  0  0  0  0  0
   46.2714   59.2830   30.6924 C   0  0  1  0  0  0  0  0  0  0  0  0
   45.4164   59.3224   29.5492 O   0  0  0  0  0  0  0  0  0  0  0  0
   45.9749   58.0985   31.7288 C   0  0  2  0  0  0  0  0  0  0  0  0
   44.7978   58.3439   32.4381 O   0  0  0  0  0  0  0  0  0  0  0  0
   47.2178   58.1907   32.6119 C   0  0  1  0  0  0  0  0  0  0  0  0
   46.2829   51.7064   28.3048 O   0  0  0  0  0  0  0  0  0  0  0  0
   45.5482   53.8310   34.6942 N   0  0  0  0  0  0  0  0  0  0  0  0
   44.8947   54.7934   34.0380 C   0  0  0  0  0  0  0  0  0  0  0  0
   45.5352   55.8508   33.5482 N   0  0  0  0  0  0  0  0  0  0  0  0
   46.8421   56.0487   33.7829 C   0  0  0  0  0  0  0  0  0  0  0  0
   47.5689   55.0809   34.5234 C   0  0  0  0  0  0  0  0  0  0  0  0
   46.8621   53.9324   34.9763 C   0  0  0  0  0  0  0  0  0  0  0  0
   47.5004   52.9381   35.6895 N   0  0  0  0  0  0  0  0  0  0  0  0
   48.8364   55.5196   34.6169 N   0  0  0  0  0  0  0  0  0  0  0  0
   48.9434   56.6689   34.0054 C   0  0  0  0  0  0  0  0  0  0  0  0
   47.7471   57.0429   33.4603 N   0  0  0  0  0  0  0  0  0  0  0  0
  2  1  1  1  0  0  0
  2  3  1  0  0  0  0
  2  5  1  0  0  0  0
  3  4  1  0  0  0  0
  3 17  1  0  0  0  0
  5  6  1  0  0  0  0
  7  6  1  1  0  0  0
  7  8  1  0  0  0  0
  7  9  1  0  0  0  0
 10  9  1  6  0  0  0
 10 11  1  0  0  0  0
 10 12  1  0  0  0  0
 11 16  1  0  0  0  0
 12 13  1  6  0  0  0
 12 14  1  0  0  0  0
 14 15  1  1  0  0  0
 14 16  1  0  0  0  0
 16 27  1  6  0  0  0
 18 19  2  0  0  0  0
 18 23  1  0  0  0  0
 19 20  1  0  0  0  0
 20 21  2  0  0  0  0
 21 22  1  0  0  0  0
 21 27  1  0  0  0  0
 22 23  2  0  0  0  0
 22 25  1  0  0  0  0
 23 24  1  0  0  0  0
 25 26  2  0  0  0  0
 26 27  1  0  0  0  0
M  END
>  <CHROM.1>
-70.12727839,-75.89867750,-60.49499370,-69.61959553,-80.62175101,63.17354635
-133.04357291,47.17223120,55.73146590,31.35024623,-0.38520284,-1.41506198
2.43178879

>  <Name>
ligand

>  <RI>
0

>  <Rbt.Current_Directory>
/home/itssahil/PROJECTS/Mol_Feturizer/New_Systems/rnas/3IQR

>  <Rbt.Executable>
rbdock ($Id: //depot/dev/client3/rdock/2013.1/src/exe/rbdock.cxx#4 $)

>  <Rbt.Library>
libRbt.so (2013.1, Build901 2013/11/27)

>  <Rbt.Parameter_File>
/export/apps/rDock/src/rDock_2013.1_src/data/scripts/dock_solv.prm

>  <Rbt.Receptor>
prm/pocket_docking_7.prm

>  <SCORE>
-20.1862

>  <SCORE.INTER>
-14.3003

>  <SCORE.INTER.CONST>
1

>  <SCORE.INTER.POLAR>
0

>  <SCORE.INTER.ROT>
7

>  <SCORE.INTER.SOLV>
13.086

>  <SCORE.INTER.VDW>
-22.1622

>  <SCORE.INTER.norm>
-0.52964

>  <SCORE.INTRA>
-5.88588

>  <SCORE.INTRA.DIHEDRAL>
-3.8017

>  <SCORE.INTRA.DIHEDRAL.0>
9.29433

>  <SCORE.INTRA.POLAR>
0

>  <SCORE.INTRA.POLAR.0>
0

>  <SCORE.INTRA.REPUL>
0

>  <SCORE.INTRA.REPUL.0>
0

>  <SCORE.INTRA.SOLV>
-0.361449

>  <SCORE.INTRA.SOLV.lig_0>
-48.5102

>  <SCORE.INTRA.VDW>
-3.8043

>  <SCORE.INTRA.VDW.0>
0.379549

>  <SCORE.INTRA.norm>
-0.217995

>  <SCORE.RESTR>
0

>  <SCORE.RESTR.CAVITY>
0

>  <SCORE.RESTR.norm>
0

>  <SCORE.SYSTEM>
0

>  <SCORE.SYSTEM.CONST>
0

>  <SCORE.SYSTEM.DIHEDRAL>
0

>  <SCORE.SYSTEM.SOLV>
0

>  <SCORE.SYSTEM.norm>
0

>  <SCORE.heavy>
27

>  <SCORE.norm>
-0.747635

>  <RMSD>
5.141

$$$$
ligand
 OpenBabel11021811483D
libRbt.so/2013.1/901 2013/11/27
 27 29  0  0  0  0  0  0  0  0999 V2000
   45.7080   53.6162   30.6042 N   0  0  0  0  0  0  0  0  0  0  0  0
   46.4532   53.5055   29.3511 C   0  0  2  0  0  0  0  0  0  0  0  0
   46.4215   52.0805   28.8794 C   0  0  0  0  0  0  0  0  0  0  0  0
   46.1109   51.8255   27.7205 O   0  0  0  0  0  0  0  0  0  0  0  0
   47.9062   53.9309   29.5585 C   0  0  0  0  0  0  0  0  0  0  0  0
   47.9497   55.4283   29.8028 C   0  0  0  0  0  0  0  0  0  0  0  0
   47.0916   56.4065   28.5286 S   0  0  2  0  0  0  0  0  0  0  0  0
   48.1218   56.2211   27.0431 C   0  0  0  0  0  0  0  0  0  0  0  0
   47.7495   58.1611   28.7976 C   0  0  0  0  0  0  0  0  0  0  0  0
   47.4333   58.9120   30.1587 C   0  0  2  0  0  0  0  0  0  0  0  0
   48.0695   58.4650   31.3346 O   0  0  0  0  0  0  0  0  0  0  0  0
   46.0493   59.2847   30.5119 C   0  0  1  0  0  0  0  0  0  0  0  0
   45.1686   59.2643   29.3879 O   0  0  0  0  0  0  0  0  0  0  0  0
   45.8145   58.1210   31.5870 C   0  0  2  0  0  0  0  0  0  0  0  0
   44.6457   58.3483   32.3159 O   0  0  0  0  0  0  0  0  0  0  0  0
   47.0727   58.2780   32.4387 C   0  0  1  0  0  0  0  0  0  0  0  0
   46.7462   51.1802   29.6430 O   0  0  0  0  0  0  0  0  0  0  0  0
   45.5981   53.9171   34.6611 N   0  0  0  0  0  0  0  0  0  0  0  0
   44.8989   54.8383   33.9929 C   0  0  0  0  0  0  0  0  0  0  0  0
   45.4922   55.9048   33.4648 N   0  0  0  0  0  0  0  0  0  0  0  0
   46.7950   56.1551   33.6703 C   0  0  0  0  0  0  0  0  0  0  0  0
   47.5691   55.2334   34.4216 C   0  0  0  0  0  0  0  0  0  0  0  0
   46.9122   54.0727   34.9164 C   0  0  0  0  0  0  0  0  0  0  0  0
   47.5984   53.1206   35.6428 N   0  0  0  0  0  0  0  0  0  0  0  0
   48.8214   55.7192   34.4807 N   0  0  0  0  0  0  0  0  0  0  0  0
   48.8761   56.8554   33.8384 C   0  0  0  0  0  0  0  0  0  0  0  0
   47.6578   57.1723   33.3060 N   0  0  0  0  0  0  0  0  0  0  0  0
  2  1  1  1  0  0  0
  2  3  1  0  0  0  0
  2  5  1  0  0  0  0
  3  4  1  0  0  0  0
  3 17  1  0  0  0  0
  5  6  1  0  0  0  0
  7  6  1  1  0  0  0
  7  8  1  0  0  0  0
  7  9  1  0  0  0  0
 10  9  1  6  0  0  0
 10 11  1  0  0  0  0
 10 12  1  0  0  0  0
 11 16  1  0  0  0  0
 12 13  1  6  0  0  0
 12 14  1  0  0  0  0
 14 15  1  1  0  0  0
 14 16  1  0  0  0  0
 16 27  1  6  0  0  0
 18 19  2  0  0  0  0
 18 23  1  0  0  0  0
 19 20  1  0  0  0  0
 20 21  2  0  0  0  0
 21 22  1  0  0  0  0
 21 27  1  0  0  0  0
 22 23  2  0  0  0  0
 22 25  1  0  0  0  0
 23 24  1  0  0  0  0
 25 26  2  0  0  0  0
 26 27  1  0  0  0  0
M  END
>  <CHROM.1>
130.53784087,-69.52525026,-52.72896320,-69.03905340,-64.27606541,70.77595086
-132.70275006,46.84063060,55.81412897,31.25237613,1.38932416,-1.55791642
-1.87267502

>  <Name>
ligand

>  <RI>
0

>  <Rbt.Current_Directory>
/home/itssahil/PROJECTS/Mol_Feturizer/New_Systems/rnas/3IQR

>  <Rbt.Executable>
rbdock ($Id: //depot/dev/client3/rdock/2013.1/src/exe/rbdock.cxx#4 $)

>  <Rbt.Library>
libRbt.so (2013.1, Build901 2013/11/27)

>  <Rbt.Parameter_File>
/export/apps/rDock/src/rDock_2013.1_src/data/scripts/dock_solv.prm

>  <Rbt.Receptor>
prm/pocket_docking_5.prm

>  <SCORE>
-19.635

>  <SCORE.INTER>
-13.3599

>  <SCORE.INTER.CONST>
1

>  <SCORE.INTER.POLAR>
0

>  <SCORE.INTER.ROT>
7

>  <SCORE.INTER.SOLV>
11.8132

>  <SCORE.INTER.VDW>
-21.111

>  <SCORE.INTER.norm>
-0.494811

>  <SCORE.INTRA>
-6.34864

>  <SCORE.INTRA.DIHEDRAL>
-4.34929

>  <SCORE.INTRA.DIHEDRAL.0>
9.29433

>  <SCORE.INTRA.POLAR>
0

>  <SCORE.INTRA.POLAR.0>
0

>  <SCORE.INTRA.REPUL>
0

>  <SCORE.INTRA.REPUL.0>
0

>  <SCORE.INTRA.SOLV>
0.280561

>  <SCORE.INTRA.SOLV.lig_0>
-48.5102

>  <SCORE.INTRA.VDW>
-4.31428

>  <SCORE.INTRA.VDW.0>
0.379549

>  <SCORE.INTRA.norm>
-0.235135

>  <SCORE.RESTR>
0.0735005

>  <SCORE.RESTR.CAVITY>
0.0735005

>  <SCORE.RESTR.norm>
0.00272224

>  <SCORE.SYSTEM>
0

>  <SCORE.SYSTEM.CONST>
0

>  <SCORE.SYSTEM.DIHEDRAL>
0

>  <SCORE.SYSTEM.SOLV>
0

>  <SCORE.SYSTEM.norm>
0

>  <SCORE.heavy>
27

>  <SCORE.norm>
-0.727224

>  <RMSD>
5.144

$$$$
ligand
 OpenBabel11021811483D
libRbt.so/2013.1/901 2013/11/27
 27 29  0  0  0  0  0  0  0  0999 V2000
   47.1639   52.4385   30.1447 N   0  0  0  0  0  0  0  0  0  0  0  0
   47.8180   53.6756   29.7207 C   0  0  2  0  0  0  0  0  0  0  0  0
   49.2977   53.5565   29.9454 C   0  0  0  0  0  0  0  0  0  0  0  0
   50.0720   54.2732   29.3199 O   0  0  0  0  0  0  0  0  0  0  0  0
   47.2844   54.8604   30.5250 C   0  0  0  0  0  0  0  0  0  0  0  0
   47.2695   54.4885   31.9965 C   0  0  0  0  0  0  0  0  0  0  0  0
   48.8727   54.7182   32.8293 S   0  0  2  0  0  0  0  0  0  0  0  0
   48.5033   54.4991   34.5950 C   0  0  0  0  0  0  0  0  0  0  0  0
   48.9889   56.5937   33.0596 C   0  0  0  0  0  0  0  0  0  0  0  0
   47.6753   57.4758   32.9469 C   0  0  2  0  0  0  0  0  0  0  0  0
   46.7092   57.1198   31.9840 O   0  0  0  0  0  0  0  0  0  0  0  0
   47.7497   58.9497   32.9834 C   0  0  1  0  0  0  0  0  0  0  0  0
   48.9892   59.4265   33.5085 O   0  0  0  0  0  0  0  0  0  0  0  0
   47.5360   59.1832   31.4133 C   0  0  2  0  0  0  0  0  0  0  0  0
   47.2983   60.5316   31.1408 O   0  0  0  0  0  0  0  0  0  0  0  0
   46.3033   58.3136   31.1731 C   0  0  1  0  0  0  0  0  0  0  0  0
   49.7240   52.7722   30.7833 O   0  0  0  0  0  0  0  0  0  0  0  0
   48.5390   56.6819   26.8754 N   0  0  0  0  0  0  0  0  0  0  0  0
   49.0543   57.2555   27.9660 C   0  0  0  0  0  0  0  0  0  0  0  0
   48.2856   57.5852   28.9998 N   0  0  0  0  0  0  0  0  0  0  0  0
   46.9505   57.4542   28.9498 C   0  0  0  0  0  0  0  0  0  0  0  0
   46.3501   56.9007   27.7894 C   0  0  0  0  0  0  0  0  0  0  0  0
   47.2114   56.5017   26.7299 C   0  0  0  0  0  0  0  0  0  0  0  0
   46.7069   55.9407   25.5742 N   0  0  0  0  0  0  0  0  0  0  0  0
   45.0215   56.8868   27.9957 N   0  0  0  0  0  0  0  0  0  0  0  0
   44.7607   57.3874   29.1737 C   0  0  0  0  0  0  0  0  0  0  0  0
   45.9128   57.7458   29.8158 N   0  0  0  0  0  0  0  0  0  0  0  0
  2  1  1  1  0  0  0
  2  3  1  0  0  0  0
  2  5  1  0  0  0  0
  3  4  1  0  0  0  0
  3 17  1  0  0  0  0
  5  6  1  0  0  0  0
  7  6  1  6  0  0  0
  7  8  1  0  0  0  0
  7  9  1  0  0  0  0
 10  9  1  6  0  0  0
 10 11  1  0  0  0  0
 10 12  1  0  0  0  0
 11 16  1  0  0  0  0
 12 13  1  6  0  0  0
 12 14  1  0  0  0  0
 14 15  1  1  0  0  0
 14 16  1  0  0  0  0
 16 27  1  6  0  0  0
 18 19  2  0  0  0  0
 18 23  1  0  0  0  0
 19 20  1  0  0  0  0
 20 21  2  0  0  0  0
 21 22  1  0  0  0  0
 21 27  1  0  0  0  0
 22 23  2  0  0  0  0
 22 25  1  0  0  0  0
 23 24  1  0  0  0  0
 25 26  2  0  0  0  0
 26 27  1  0  0  0  0
M  END
>  <CHROM.1>
158.27943843,46.99866282,83.38967593,170.08185341,17.67312741,-37.33858256
-80.32935763,47.72859351,56.32530501,30.48992500,-2.38200458,-1.18499094
0.90443200

>  <Name>
ligand

>  <RI>
0

>  <Rbt.Current_Directory>
/home/itssahil/PROJECTS/Mol_Feturizer/New_Systems/rnas/3IQR

>  <Rbt.Executable>
rbdock ($Id: //depot/dev/client3/rdock/2013.1/src/exe/rbdock.cxx#4 $)

>  <Rbt.Library>
libRbt.so (2013.1, Build901 2013/11/27)

>  <Rbt.Parameter_File>
/export/apps/rDock/src/rDock_2013.1_src/data/scripts/dock_solv.prm

>  <Rbt.Receptor>
prm/pocket_docking_2.prm

>  <SCORE>
-8.28985

>  <SCORE.INTER>
-7.76064

>  <SCORE.INTER.CONST>
1

>  <SCORE.INTER.POLAR>
0

>  <SCORE.INTER.ROT>
7

>  <SCORE.INTER.SOLV>
18.7744

>  <SCORE.INTER.VDW>
-19.6986

>  <SCORE.INTER.norm>
-0.287431

>  <SCORE.INTRA>
-2.335

>  <SCORE.INTRA.DIHEDRAL>
1.15927

>  <SCORE.INTRA.DIHEDRAL.0>
9.29433

>  <SCORE.INTRA.POLAR>
0

>  <SCORE.INTRA.POLAR.0>
0

>  <SCORE.INTRA.REPUL>
0

>  <SCORE.INTRA.REPUL.0>
0

>  <SCORE.INTRA.SOLV>
-0.0775566

>  <SCORE.INTRA.SOLV.lig_0>
-48.5102

>  <SCORE.INTRA.VDW>
-2.87585

>  <SCORE.INTRA.VDW.0>
0.379549

>  <SCORE.INTRA.norm>
-0.0864813

>  <SCORE.RESTR>
1.80578

>  <SCORE.RESTR.CAVITY>
1.80578

>  <SCORE.RESTR.norm>
0.0668808

>  <SCORE.SYSTEM>
0

>  <SCORE.SYSTEM.CONST>
0

>  <SCORE.SYSTEM.DIHEDRAL>
0

>  <SCORE.SYSTEM.SOLV>
0

>  <SCORE.SYSTEM.norm>
0

>  <SCORE.heavy>
27

>  <SCORE.norm>
-0.307032

>  <RMSD>
5.145

$$$$
ligand
 OpenBabel11021811483D
libRbt.so/2013.1/901 2013/11/27
 27 29  0  0  0  0  0  0  0  0999 V2000
   47.5959   53.0097   31.1668 N   0  0  0  0  0  0  0  0  0  0  0  0
   47.2416   52.6377   29.7979 C   0  0  2  0  0  0  0  0  0  0  0  0
   48.4918   52.3110   29.0333 C   0  0  0  0  0  0  0  0  0  0  0  0
   49.5894   52.4712   29.5566 O   0  0  0  0  0  0  0  0  0  0  0  0
   46.5193   53.7921   29.1044 C   0  0  0  0  0  0  0  0  0  0  0  0
   47.3190   55.0659   29.3093 C   0  0  0  0  0  0  0  0  0  0  0  0
   46.7097   56.4808   28.3380 S   0  0  2  0  0  0  0  0  0  0  0  0
   47.5046   56.2937   26.7146 C   0  0  0  0  0  0  0  0  0  0  0  0
   47.9043   57.8779   28.7909 C   0  0  0  0  0  0  0  0  0  0  0  0
   47.6847   58.6850   30.1388 C   0  0  2  0  0  0  0  0  0  0  0  0
   48.3056   58.2116   31.3125 O   0  0  0  0  0  0  0  0  0  0  0  0
   46.3465   59.1853   30.5102 C   0  0  1  0  0  0  0  0  0  0  0  0
   45.4427   59.2157   29.4049 O   0  0  0  0  0  0  0  0  0  0  0  0
   46.0354   58.0719   31.6187 C   0  0  2  0  0  0  0  0  0  0  0  0
   44.9073   58.4173   32.3649 O   0  0  0  0  0  0  0  0  0  0  0  0
   47.3211   58.1382   32.4408 C   0  0  1  0  0  0  0  0  0  0  0  0
   48.4093   51.8461   27.9037 O   0  0  0  0  0  0  0  0  0  0  0  0
   45.5284   53.9609   34.7790 N   0  0  0  0  0  0  0  0  0  0  0  0
   44.8967   54.9227   34.1008 C   0  0  0  0  0  0  0  0  0  0  0  0
   45.5673   55.9254   33.5411 N   0  0  0  0  0  0  0  0  0  0  0  0
   46.8894   56.0714   33.7225 C   0  0  0  0  0  0  0  0  0  0  0  0
   47.5969   55.1046   34.4826 C   0  0  0  0  0  0  0  0  0  0  0  0
   46.8547   54.0126   35.0121 C   0  0  0  0  0  0  0  0  0  0  0  0
   47.4718   53.0223   35.7493 N   0  0  0  0  0  0  0  0  0  0  0  0
   48.8858   55.4864   34.5132 N   0  0  0  0  0  0  0  0  0  0  0  0
   49.0235   56.6007   33.8455 C   0  0  0  0  0  0  0  0  0  0  0  0
   47.8270   57.0060   33.3237 N   0  0  0  0  0  0  0  0  0  0  0  0
  2  1  1  1  0  0  0
  2  3  1  0  0  0  0
  2  5  1  0  0  0  0
  3  4  1  0  0  0  0
  3 17  1  0  0  0  0
  5  6  1  0  0  0  0
  7  6  1  1  0  0  0
  7  8  1  0  0  0  0
  7  9  1  0  0  0  0
 10  9  1  6  0  0  0
 10 11  1  0  0  0  0
 10 12  1  0  0  0  0
 11 16  1  0  0  0  0
 12 13  1  6  0  0  0
 12 14  1  0  0  0  0
 14 15  1  1  0  0  0
 14 16  1  0  0  0  0
 16 27  1  6  0  0  0
 18 19  2  0  0  0  0
 18 23  1  0  0  0  0
 19 20  1  0  0  0  0
 20 21  2  0  0  0  0
 21 22  1  0  0  0  0
 21 27  1  0  0  0  0
 22 23  2  0  0  0  0
 22 25  1  0  0  0  0
 23 24  1  0  0  0  0
 25 26  2  0  0  0  0
 26 27  1  0  0  0  0
M  END
>  <CHROM.1>
-5.01650357,49.18691027,171.62185312,-84.97662407,-81.38355951,89.67000559
-132.23844561,47.16308875,55.74909334,31.25833838,-1.21227299,-1.31080135
1.95910641

>  <Name>
ligand

>  <RI>
0

>  <Rbt.Current_Directory>
/home/itssahil/PROJECTS/Mol_Feturizer/New_Systems/rnas/3IQR

>  <Rbt.Executable>
rbdock ($Id: //depot/dev/client3/rdock/2013.1/src/exe/rbdock.cxx#4 $)

>  <Rbt.Library>
libRbt.so (2013.1, Build901 2013/11/27)

>  <Rbt.Parameter_File>
/export/apps/rDock/src/rDock_2013.1_src/data/scripts/dock_solv.prm

>  <Rbt.Receptor>
prm/pocket_docking_6.prm

>  <SCORE>
-17.9372

>  <SCORE.INTER>
-13.7858

>  <SCORE.INTER.CONST>
1

>  <SCORE.INTER.POLAR>
0

>  <SCORE.INTER.ROT>
7

>  <SCORE.INTER.SOLV>
13.1214

>  <SCORE.INTER.VDW>
-21.831

>  <SCORE.INTER.norm>
-0.510584

>  <SCORE.INTRA>
-4.15142

>  <SCORE.INTRA.DIHEDRAL>
-1.53764

>  <SCORE.INTRA.DIHEDRAL.0>
9.29433

>  <SCORE.INTRA.POLAR>
0

>  <SCORE.INTRA.POLAR.0>
0

>  <SCORE.INTRA.REPUL>
0

>  <SCORE.INTRA.REPUL.0>
0

>  <SCORE.INTRA.SOLV>
-0.482289

>  <SCORE.INTRA.SOLV.lig_0>
-48.5102

>  <SCORE.INTRA.VDW>
-3.14145

>  <SCORE.INTRA.VDW.0>
0.379549

>  <SCORE.INTRA.norm>
-0.153756

>  <SCORE.RESTR>
0

>  <SCORE.RESTR.CAVITY>
0

>  <SCORE.RESTR.norm>
0

>  <SCORE.SYSTEM>
0

>  <SCORE.SYSTEM.CONST>
0

>  <SCORE.SYSTEM.DIHEDRAL>
0

>  <SCORE.SYSTEM.SOLV>
0

>  <SCORE.SYSTEM.norm>
0

>  <SCORE.heavy>
27

>  <SCORE.norm>
-0.66434

>  <RMSD>
5.150

$$$$
ligand
 OpenBabel11021811483D
libRbt.so/2013.1/901 2013/11/27
 27 29  0  0  0  0  0  0  0  0999 V2000
   47.2689   52.6925   32.1877 N   0  0  0  0  0  0  0  0  0  0  0  0
   47.6174   53.5597   31.0631 C   0  0  2  0  0  0  0  0  0  0  0  0
   47.0187   53.0032   29.8037 C   0  0  0  0  0  0  0  0  0  0  0  0
   47.1321   51.8092   29.5470 O   0  0  0  0  0  0  0  0  0  0  0  0
   49.1351   53.6368   30.9031 C   0  0  0  0  0  0  0  0  0  0  0  0
   49.4904   54.9387   30.2083 C   0  0  0  0  0  0  0  0  0  0  0  0
   49.1024   54.9522   28.4289 S   0  0  2  0  0  0  0  0  0  0  0  0
   50.7245   54.9397   27.6099 C   0  0  0  0  0  0  0  0  0  0  0  0
   48.8885   56.7915   28.0349 C   0  0  0  0  0  0  0  0  0  0  0  0
   47.7286   57.6105   28.7421 C   0  0  2  0  0  0  0  0  0  0  0  0
   47.5124   57.4124   30.1210 O   0  0  0  0  0  0  0  0  0  0  0  0
   46.4085   57.7599   28.0984 C   0  0  1  0  0  0  0  0  0  0  0  0
   46.4389   57.4619   26.7021 O   0  0  0  0  0  0  0  0  0  0  0  0
   45.6380   56.6919   29.0099 C   0  0  2  0  0  0  0  0  0  0  0  0
   44.2584   56.7776   28.8146 O   0  0  0  0  0  0  0  0  0  0  0  0
   46.0605   57.1636   30.3999 C   0  0  1  0  0  0  0  0  0  0  0  0
   46.3832   53.7367   29.0572 O   0  0  0  0  0  0  0  0  0  0  0  0
   49.1285   55.9335   34.2993 N   0  0  0  0  0  0  0  0  0  0  0  0
   49.3495   56.6808   33.2145 C   0  0  0  0  0  0  0  0  0  0  0  0
   48.3897   56.8983   32.3203 N   0  0  0  0  0  0  0  0  0  0  0  0
   47.1953   56.2925   32.4134 C   0  0  0  0  0  0  0  0  0  0  0  0
   46.9314   55.4443   33.5198 C   0  0  0  0  0  0  0  0  0  0  0  0
   47.9614   55.2868   34.4882 C   0  0  0  0  0  0  0  0  0  0  0  0
   47.7777   54.4913   35.6010 N   0  0  0  0  0  0  0  0  0  0  0  0
   45.6829   54.9685   33.3687 N   0  0  0  0  0  0  0  0  0  0  0  0
   45.1673   55.4464   32.2677 C   0  0  0  0  0  0  0  0  0  0  0  0
   46.0498   56.2798   31.6393 N   0  0  0  0  0  0  0  0  0  0  0  0
  2  1  1  1  0  0  0
  2  3  1  0  0  0  0
  2  5  1  0  0  0  0
  3  4  1  0  0  0  0
  3 17  1  0  0  0  0
  5  6  1  0  0  0  0
  7  6  1  1  0  0  0
  7  8  1  0  0  0  0
  7  9  1  0  0  0  0
 10  9  1  6  0  0  0
 10 11  1  0  0  0  0
 10 12  1  0  0  0  0
 11 16  1  0  0  0  0
 12 13  1  6  0  0  0
 12 14  1  0  0  0  0
 14 15  1  1  0  0  0
 14 16  1  0  0  0  0
 16 27  1  1  0  0  0
 18 19  2  0  0  0  0
 18 23  1  0  0  0  0
 19 20  1  0  0  0  0
 20 21  2  0  0  0  0
 21 22  1  0  0  0  0
 21 27  1  0  0  0  0
 22 23  2  0  0  0  0
 22 25  1  0  0  0  0
 23 24  1  0  0  0  0
 25 26  2  0  0  0  0
 26 27  1  0  0  0  0
M  END
>  <CHROM.1>
-46.84207975,-154.99138786,-73.92931367,-110.37159158,-62.47606564,43.40935271
20.19384391,47.49673578,55.46829628,30.60259279,-1.53678048,0.86694929,-1.38424139

>  <Name>
ligand

>  <RI>
0

>  <Rbt.Current_Directory>
/home/itssahil/PROJECTS/Mol_Feturizer/New_Systems/rnas/3IQR

>  <Rbt.Executable>
rbdock ($Id: //depot/dev/client3/rdock/2013.1/src/exe/rbdock.cxx#4 $)

>  <Rbt.Library>
libRbt.so (2013.1, Build901 2013/11/27)

>  <Rbt.Parameter_File>
/export/apps/rDock/src/rDock_2013.1_src/data/scripts/dock_solv.prm

>  <Rbt.Receptor>
prm/pocket_docking_5.prm

>  <SCORE>
-11.2712

>  <SCORE.INTER>
-6.15193

>  <SCORE.INTER.CONST>
1

>  <SCORE.INTER.POLAR>
0

>  <SCORE.INTER.ROT>
7

>  <SCORE.INTER.SOLV>
15.789

>  <SCORE.INTER.VDW>
-17.631

>  <SCORE.INTER.norm>
-0.227849

>  <SCORE.INTRA>
-5.11923

>  <SCORE.INTRA.DIHEDRAL>
0.874645

>  <SCORE.INTRA.DIHEDRAL.0>
9.29433

>  <SCORE.INTRA.POLAR>
0

>  <SCORE.INTRA.POLAR.0>
0

>  <SCORE.INTRA.REPUL>
0

>  <SCORE.INTRA.REPUL.0>
0

>  <SCORE.INTRA.SOLV>
1.70788

>  <SCORE.INTRA.SOLV.lig_0>
-48.5102

>  <SCORE.INTRA.VDW>
-6.4105

>  <SCORE.INTRA.VDW.0>
0.379549

>  <SCORE.INTRA.norm>
-0.189601

>  <SCORE.RESTR>
0

>  <SCORE.RESTR.CAVITY>
0

>  <SCORE.RESTR.norm>
0

>  <SCORE.SYSTEM>
0

>  <SCORE.SYSTEM.CONST>
0

>  <SCORE.SYSTEM.DIHEDRAL>
0

>  <SCORE.SYSTEM.SOLV>
0

>  <SCORE.SYSTEM.norm>
0

>  <SCORE.heavy>
27

>  <SCORE.norm>
-0.417451

>  <RMSD>
5.154

$$$$
ligand
 OpenBabel11021811483D
libRbt.so/2013.1/901 2013/11/27
 27 29  0  0  0  0  0  0  0  0999 V2000
   49.5733   56.2999   27.8244 N   0  0  0  0  0  0  0  0  0  0  0  0
   48.2246   56.1528   28.3697 C   0  0  2  0  0  0  0  0  0  0  0  0
   47.2487   55.9867   27.2410 C   0  0  0  0  0  0  0  0  0  0  0  0
   46.2771   55.2501   27.3745 O   0  0  0  0  0  0  0  0  0  0  0  0
   47.8431   57.3897   29.1820 C   0  0  0  0  0  0  0  0  0  0  0  0
   48.7549   57.4834   30.3919 C   0  0  0  0  0  0  0  0  0  0  0  0
   48.1232   58.5748   31.7059 S   0  0  2  0  0  0  0  0  0  0  0  0
   49.2874   58.3491   33.0828 C   0  0  0  0  0  0  0  0  0  0  0  0
   46.8325   57.5071   32.5879 C   0  0  0  0  0  0  0  0  0  0  0  0
   47.2629   56.1062   33.1951 C   0  0  2  0  0  0  0  0  0  0  0  0
   48.2679   55.3698   32.5355 O   0  0  0  0  0  0  0  0  0  0  0  0
   46.2486   55.1481   33.6772 C   0  0  1  0  0  0  0  0  0  0  0  0
   44.9757   55.7569   33.8976 O   0  0  0  0  0  0  0  0  0  0  0  0
   46.3245   54.1543   32.4235 C   0  0  2  0  0  0  0  0  0  0  0  0
   45.6414   52.9665   32.6909 O   0  0  0  0  0  0  0  0  0  0  0  0
   47.8352   53.9494   32.3282 C   0  0  1  0  0  0  0  0  0  0  0  0
   47.4043   56.6200   26.2048 O   0  0  0  0  0  0  0  0  0  0  0  0
   46.7503   51.8775   27.7828 N   0  0  0  0  0  0  0  0  0  0  0  0
   45.9732   52.1183   28.8421 C   0  0  0  0  0  0  0  0  0  0  0  0
   46.4592   52.6983   29.9357 N   0  0  0  0  0  0  0  0  0  0  0  0
   47.7680   52.9685   30.0624 C   0  0  0  0  0  0  0  0  0  0  0  0
   48.6442   52.6796   28.9844 C   0  0  0  0  0  0  0  0  0  0  0  0
   48.0761   52.1177   27.8075 C   0  0  0  0  0  0  0  0  0  0  0  0
   48.8584   51.8223   26.7095 N   0  0  0  0  0  0  0  0  0  0  0  0
   49.8819   53.0372   29.3696 N   0  0  0  0  0  0  0  0  0  0  0  0
   49.8371   53.5114   30.5859 C   0  0  0  0  0  0  0  0  0  0  0  0
   48.5564   53.5051   31.0635 N   0  0  0  0  0  0  0  0  0  0  0  0
  2  1  1  6  0  0  0
  2  3  1  0  0  0  0
  2  5  1  0  0  0  0
  3  4  1  0  0  0  0
  3 17  1  0  0  0  0
  5  6  1  0  0  0  0
  7  6  1  6  0  0  0
  7  8  1  0  0  0  0
  7  9  1  0  0  0  0
 10  9  1  6  0  0  0
 10 11  1  0  0  0  0
 10 12  1  0  0  0  0
 11 16  1  0  0  0  0
 12 13  1  6  0  0  0
 12 14  1  0  0  0  0
 14 15  1  1  0  0  0
 14 16  1  0  0  0  0
 16 27  1  6  0  0  0
 18 19  2  0  0  0  0
 18 23  1  0  0  0  0
 19 20  1  0  0  0  0
 20 21  2  0  0  0  0
 21 22  1  0  0  0  0
 21 27  1  0  0  0  0
 22 23  2  0  0  0  0
 22 25  1  0  0  0  0
 23 24  1  0  0  0  0
 25 26  2  0  0  0  0
 26 27  1  0  0  0  0
M  END
>  <CHROM.1>
144.62045561,-64.96823903,-162.26657896,173.53646456,56.89048824,-32.91370288
-126.81945103,47.65837546,55.03151981,30.31886820,-1.34787096,1.24538942
0.70543690

>  <Name>
ligand

>  <RI>
0

>  <Rbt.Current_Directory>
/home/itssahil/PROJECTS/Mol_Feturizer/New_Systems/rnas/3IQR

>  <Rbt.Executable>
rbdock ($Id: //depot/dev/client3/rdock/2013.1/src/exe/rbdock.cxx#4 $)

>  <Rbt.Library>
libRbt.so (2013.1, Build901 2013/11/27)

>  <Rbt.Parameter_File>
/export/apps/rDock/src/rDock_2013.1_src/data/scripts/dock_solv.prm

>  <Rbt.Receptor>
prm/pocket_docking_5.prm

>  <SCORE>
-18.0257

>  <SCORE.INTER>
-12.0586

>  <SCORE.INTER.CONST>
1

>  <SCORE.INTER.POLAR>
0

>  <SCORE.INTER.ROT>
7

>  <SCORE.INTER.SOLV>
12.3491

>  <SCORE.INTER.VDW>
-20.4221

>  <SCORE.INTER.norm>
-0.446613

>  <SCORE.INTRA>
-5.96712

>  <SCORE.INTRA.DIHEDRAL>
-2.22276

>  <SCORE.INTRA.DIHEDRAL.0>
9.29433

>  <SCORE.INTRA.POLAR>
0

>  <SCORE.INTRA.POLAR.0>
0

>  <SCORE.INTRA.REPUL>
0

>  <SCORE.INTRA.REPUL.0>
0

>  <SCORE.INTRA.SOLV>
-0.42258

>  <SCORE.INTRA.SOLV.lig_0>
-48.5102

>  <SCORE.INTRA.VDW>
-4.64445

>  <SCORE.INTRA.VDW.0>
0.379549

>  <SCORE.INTRA.norm>
-0.221005

>  <SCORE.RESTR>
0

>  <SCORE.RESTR.CAVITY>
0

>  <SCORE.RESTR.norm>
0

>  <SCORE.SYSTEM>
0

>  <SCORE.SYSTEM.CONST>
0

>  <SCORE.SYSTEM.DIHEDRAL>
0

>  <SCORE.SYSTEM.SOLV>
0

>  <SCORE.SYSTEM.norm>
0

>  <SCORE.heavy>
27

>  <SCORE.norm>
-0.667618

>  <RMSD>
5.154

$$$$
ligand
 OpenBabel11021811483D
libRbt.so/2013.1/901 2013/11/27
 27 29  0  0  0  0  0  0  0  0999 V2000
   48.4659   53.1591   27.6070 N   0  0  0  0  0  0  0  0  0  0  0  0
   49.7271   53.8075   27.9629 C   0  0  2  0  0  0  0  0  0  0  0  0
   50.8593   52.8477   27.7366 C   0  0  0  0  0  0  0  0  0  0  0  0
   50.6487   51.7693   27.1917 O   0  0  0  0  0  0  0  0  0  0  0  0
   49.7126   54.2253   29.4327 C   0  0  0  0  0  0  0  0  0  0  0  0
   49.4276   55.7138   29.5176 C   0  0  0  0  0  0  0  0  0  0  0  0
   47.8173   56.1953   28.8164 S   0  0  2  0  0  0  0  0  0  0  0  0
   48.1031   56.2587   27.0230 C   0  0  0  0  0  0  0  0  0  0  0  0
   47.8381   58.0858   28.9129 C   0  0  0  0  0  0  0  0  0  0  0  0
   47.5497   58.7988   30.3003 C   0  0  2  0  0  0  0  0  0  0  0  0
   48.1878   58.3019   31.4549 O   0  0  0  0  0  0  0  0  0  0  0  0
   46.1768   59.1872   30.6790 C   0  0  1  0  0  0  0  0  0  0  0  0
   45.2855   59.2201   29.5637 O   0  0  0  0  0  0  0  0  0  0  0  0
   45.9289   57.9944   31.7188 C   0  0  2  0  0  0  0  0  0  0  0  0
   44.7717   58.2212   32.4661 O   0  0  0  0  0  0  0  0  0  0  0  0
   47.1979   58.0993   32.5625 C   0  0  1  0  0  0  0  0  0  0  0  0
   51.9973   53.1631   28.0602 O   0  0  0  0  0  0  0  0  0  0  0  0
   45.6048   53.8249   34.8696 N   0  0  0  0  0  0  0  0  0  0  0  0
   44.9218   54.7909   34.2497 C   0  0  0  0  0  0  0  0  0  0  0  0
   45.5441   55.8218   33.6857 N   0  0  0  0  0  0  0  0  0  0  0  0
   46.8704   55.9907   33.8063 C   0  0  0  0  0  0  0  0  0  0  0  0
   47.6334   55.0190   34.5043 C   0  0  0  0  0  0  0  0  0  0  0  0
   46.9397   53.8981   35.0390 C   0  0  0  0  0  0  0  0  0  0  0  0
   47.6117   52.9018   35.7178 N   0  0  0  0  0  0  0  0  0  0  0  0
   48.9144   55.4268   34.4824 N   0  0  0  0  0  0  0  0  0  0  0  0
   48.9973   56.5610   33.8397 C   0  0  0  0  0  0  0  0  0  0  0  0
   47.7688   56.9549   33.3882 N   0  0  0  0  0  0  0  0  0  0  0  0
  2  1  1  1  0  0  0
  2  3  1  0  0  0  0
  2  5  1  0  0  0  0
  3  4  1  0  0  0  0
  3 17  1  0  0  0  0
  5  6  1  0  0  0  0
  7  6  1  1  0  0  0
  7  8  1  0  0  0  0
  7  9  1  0  0  0  0
 10  9  1  6  0  0  0
 10 11  1  0  0  0  0
 10 12  1  0  0  0  0
 11 16  1  0  0  0  0
 12 13  1  6  0  0  0
 12 14  1  0  0  0  0
 14 15  1  1  0  0  0
 14 16  1  0  0  0  0
 16 27  1  6  0  0  0
 18 19  2  0  0  0  0
 18 23  1  0  0  0  0
 19 20  1  0  0  0  0
 20 21  2  0  0  0  0
 21 22  1  0  0  0  0
 21 27  1  0  0  0  0
 22 23  2  0  0  0  0
 22 25  1  0  0  0  0
 23 24  1  0  0  0  0
 25 26  2  0  0  0  0
 26 27  1  0  0  0  0
M  END
>  <CHROM.1>
7.21452825,-101.31855815,60.95130661,-80.15596317,-78.24792372,45.28607935
-136.99770872,47.81698512,55.82171916,31.06573699,-0.54712376,-0.97534958
2.13982869

>  <Name>
ligand

>  <RI>
0

>  <Rbt.Current_Directory>
/home/itssahil/PROJECTS/Mol_Feturizer/New_Systems/rnas/3IQR

>  <Rbt.Executable>
rbdock ($Id: //depot/dev/client3/rdock/2013.1/src/exe/rbdock.cxx#4 $)

>  <Rbt.Library>
libRbt.so (2013.1, Build901 2013/11/27)

>  <Rbt.Parameter_File>
/export/apps/rDock/src/rDock_2013.1_src/data/scripts/dock_solv.prm

>  <Rbt.Receptor>
prm/pocket_docking_7.prm

>  <SCORE>
-18.4005

>  <SCORE.INTER>
-16.2176

>  <SCORE.INTER.CONST>
1

>  <SCORE.INTER.POLAR>
0

>  <SCORE.INTER.ROT>
7

>  <SCORE.INTER.SOLV>
11.4763

>  <SCORE.INTER.VDW>
-22.9038

>  <SCORE.INTER.norm>
-0.60065

>  <SCORE.INTRA>
-2.18293

>  <SCORE.INTRA.DIHEDRAL>
0.265862

>  <SCORE.INTRA.DIHEDRAL.0>
9.29433

>  <SCORE.INTRA.POLAR>
0

>  <SCORE.INTRA.POLAR.0>
0

>  <SCORE.INTRA.REPUL>
0

>  <SCORE.INTRA.REPUL.0>
0

>  <SCORE.INTRA.SOLV>
1.03948

>  <SCORE.INTRA.SOLV.lig_0>
-48.5102

>  <SCORE.INTRA.VDW>
-2.8356

>  <SCORE.INTRA.VDW.0>
0.379549

>  <SCORE.INTRA.norm>
-0.0808493

>  <SCORE.RESTR>
0

>  <SCORE.RESTR.CAVITY>
0

>  <SCORE.RESTR.norm>
0

>  <SCORE.SYSTEM>
0

>  <SCORE.SYSTEM.CONST>
0

>  <SCORE.SYSTEM.DIHEDRAL>
0

>  <SCORE.SYSTEM.SOLV>
0

>  <SCORE.SYSTEM.norm>
0

>  <SCORE.heavy>
27

>  <SCORE.norm>
-0.681499

>  <RMSD>
5.154

$$$$
ligand
 OpenBabel11021811483D
libRbt.so/2013.1/901 2013/11/27
 27 29  0  0  0  0  0  0  0  0999 V2000
   47.7234   58.2855   27.3468 N   0  0  0  0  0  0  0  0  0  0  0  0
   47.5783   57.1610   28.2700 C   0  0  2  0  0  0  0  0  0  0  0  0
   46.6370   56.1519   27.6785 C   0  0  0  0  0  0  0  0  0  0  0  0
   45.7447   56.5171   26.9203 O   0  0  0  0  0  0  0  0  0  0  0  0
   47.0185   57.6421   29.6081 C   0  0  0  0  0  0  0  0  0  0  0  0
   48.0802   58.4617   30.3187 C   0  0  0  0  0  0  0  0  0  0  0  0
   47.5916   59.0123   31.9845 S   0  0  2  0  0  0  0  0  0  0  0  0
   49.0906   58.8032   32.9901 C   0  0  0  0  0  0  0  0  0  0  0  0
   46.8255   57.4631   32.7573 C   0  0  0  0  0  0  0  0  0  0  0  0
   47.7468   56.2096   33.0673 C   0  0  2  0  0  0  0  0  0  0  0  0
   48.7194   55.8406   32.1159 O   0  0  0  0  0  0  0  0  0  0  0  0
   47.1724   54.9694   33.6250 C   0  0  1  0  0  0  0  0  0  0  0  0
   45.8768   55.1680   34.1922 O   0  0  0  0  0  0  0  0  0  0  0  0
   47.2020   54.1252   32.2642 C   0  0  2  0  0  0  0  0  0  0  0  0
   46.9453   52.7757   32.5127 O   0  0  0  0  0  0  0  0  0  0  0  0
   48.6425   54.3728   31.8205 C   0  0  1  0  0  0  0  0  0  0  0  0
   46.7895   54.9620   27.9231 O   0  0  0  0  0  0  0  0  0  0  0  0
   47.6573   51.5860   27.6500 N   0  0  0  0  0  0  0  0  0  0  0  0
   47.1820   51.4953   28.8949 C   0  0  0  0  0  0  0  0  0  0  0  0
   47.5580   52.3517   29.8402 N   0  0  0  0  0  0  0  0  0  0  0  0
   48.5069   53.2736   29.6128 C   0  0  0  0  0  0  0  0  0  0  0  0
   49.0827   53.3731   28.3198 C   0  0  0  0  0  0  0  0  0  0  0  0
   48.6088   52.4808   27.3184 C   0  0  0  0  0  0  0  0  0  0  0  0
   49.1069   52.5239   26.0320 N   0  0  0  0  0  0  0  0  0  0  0  0
   49.9963   54.3586   28.3648 N   0  0  0  0  0  0  0  0  0  0  0  0
   50.0314   54.8623   29.5696 C   0  0  0  0  0  0  0  0  0  0  0  0
   49.1257   54.2408   30.3831 N   0  0  0  0  0  0  0  0  0  0  0  0
  2  1  1  6  0  0  0
  2  3  1  0  0  0  0
  2  5  1  0  0  0  0
  3  4  1  0  0  0  0
  3 17  1  0  0  0  0
  5  6  1  0  0  0  0
  7  6  1  6  0  0  0
  7  8  1  0  0  0  0
  7  9  1  0  0  0  0
 10  9  1  6  0  0  0
 10 11  1  0  0  0  0
 10 12  1  0  0  0  0
 11 16  1  0  0  0  0
 12 13  1  6  0  0  0
 12 14  1  0  0  0  0
 14 15  1  1  0  0  0
 14 16  1  0  0  0  0
 16 27  1  6  0  0  0
 18 19  2  0  0  0  0
 18 23  1  0  0  0  0
 19 20  1  0  0  0  0
 20 21  2  0  0  0  0
 21 22  1  0  0  0  0
 21 27  1  0  0  0  0
 22 23  2  0  0  0  0
 22 25  1  0  0  0  0
 23 24  1  0  0  0  0
 25 26  2  0  0  0  0
 26 27  1  0  0  0  0
M  END
>  <CHROM.1>
-29.43278690,-70.13746001,-176.15656898,139.44103795,66.96463542,-41.44286875
-144.40552244,47.81246878,55.35985704,30.18913458,3.08474435,-1.47972287
2.31393953

>  <Name>
ligand

>  <RI>
0

>  <Rbt.Current_Directory>
/home/itssahil/PROJECTS/Mol_Feturizer/New_Systems/rnas/3IQR

>  <Rbt.Executable>
rbdock ($Id: //depot/dev/client3/rdock/2013.1/src/exe/rbdock.cxx#4 $)

>  <Rbt.Library>
libRbt.so (2013.1, Build901 2013/11/27)

>  <Rbt.Parameter_File>
/export/apps/rDock/src/rDock_2013.1_src/data/scripts/dock_solv.prm

>  <Rbt.Receptor>
prm/pocket_docking_3.prm

>  <SCORE>
-14.2984

>  <SCORE.INTER>
-9.6538

>  <SCORE.INTER.CONST>
1

>  <SCORE.INTER.POLAR>
0

>  <SCORE.INTER.ROT>
7

>  <SCORE.INTER.SOLV>
12.5427

>  <SCORE.INTER.VDW>
-18.8834

>  <SCORE.INTER.norm>
-0.357548

>  <SCORE.INTRA>
-4.76895

>  <SCORE.INTRA.DIHEDRAL>
-1.51005

>  <SCORE.INTRA.DIHEDRAL.0>
9.29433

>  <SCORE.INTRA.POLAR>
0

>  <SCORE.INTRA.POLAR.0>
0

>  <SCORE.INTRA.REPUL>
0

>  <SCORE.INTRA.REPUL.0>
0

>  <SCORE.INTRA.SOLV>
-0.624327

>  <SCORE.INTRA.SOLV.lig_0>
-48.5102

>  <SCORE.INTRA.VDW>
-3.70176

>  <SCORE.INTRA.VDW.0>
0.379549

>  <SCORE.INTRA.norm>
-0.176628

>  <SCORE.RESTR>
0.124325

>  <SCORE.RESTR.CAVITY>
0.124325

>  <SCORE.RESTR.norm>
0.00460462

>  <SCORE.SYSTEM>
0

>  <SCORE.SYSTEM.CONST>
0

>  <SCORE.SYSTEM.DIHEDRAL>
0

>  <SCORE.SYSTEM.SOLV>
0

>  <SCORE.SYSTEM.norm>
0

>  <SCORE.heavy>
27

>  <SCORE.norm>
-0.529571

>  <RMSD>
5.156

$$$$
ligand
 OpenBabel11021811483D
libRbt.so/2013.1/901 2013/11/27
 27 29  0  0  0  0  0  0  0  0999 V2000
   47.9071   52.0118   26.7647 N   0  0  0  0  0  0  0  0  0  0  0  0
   47.9033   52.4776   28.1507 C   0  0  2  0  0  0  0  0  0  0  0  0
   48.9321   51.7139   28.9333 C   0  0  0  0  0  0  0  0  0  0  0  0
   49.6402   52.2974   29.7474 O   0  0  0  0  0  0  0  0  0  0  0  0
   46.5294   52.2551   28.7814 C   0  0  0  0  0  0  0  0  0  0  0  0
   45.6117   53.3936   28.3744 C   0  0  0  0  0  0  0  0  0  0  0  0
   46.0587   54.9978   29.1117 S   0  0  2  0  0  0  0  0  0  0  0  0
   45.1056   56.2171   28.1592 C   0  0  0  0  0  0  0  0  0  0  0  0
   47.6430   55.4818   28.1955 C   0  0  0  0  0  0  0  0  0  0  0  0
   48.6021   56.5786   28.8226 C   0  0  2  0  0  0  0  0  0  0  0  0
   49.1456   56.3418   30.1016 O   0  0  0  0  0  0  0  0  0  0  0  0
   48.2664   58.0136   28.7371 C   0  0  1  0  0  0  0  0  0  0  0  0
   47.2783   58.2906   27.7439 O   0  0  0  0  0  0  0  0  0  0  0  0
   47.7781   58.1785   30.2535 C   0  0  2  0  0  0  0  0  0  0  0  0
   47.6207   59.5269   30.5794 O   0  0  0  0  0  0  0  0  0  0  0  0
   48.9508   57.5337   30.9898 C   0  0  1  0  0  0  0  0  0  0  0  0
   49.0323   50.5027   28.7856 O   0  0  0  0  0  0  0  0  0  0  0  0
   47.8630   53.1019   33.2934 N   0  0  0  0  0  0  0  0  0  0  0  0
   47.7964   53.4590   32.0081 C   0  0  0  0  0  0  0  0  0  0  0  0
   48.1558   54.6764   31.6116 N   0  0  0  0  0  0  0  0  0  0  0  0
   48.4981   55.6280   32.4944 C   0  0  0  0  0  0  0  0  0  0  0  0
   48.5303   55.3127   33.8775 C   0  0  0  0  0  0  0  0  0  0  0  0
   48.2003   53.9820   34.2566 C   0  0  0  0  0  0  0  0  0  0  0  0
   48.2230   53.5916   35.5802 N   0  0  0  0  0  0  0  0  0  0  0  0
   48.8940   56.4292   34.5327 N   0  0  0  0  0  0  0  0  0  0  0  0
   49.0794   57.3951   33.6730 C   0  0  0  0  0  0  0  0  0  0  0  0
   48.8609   56.9585   32.3964 N   0  0  0  0  0  0  0  0  0  0  0  0
  2  1  1  6  0  0  0
  2  3  1  0  0  0  0
  2  5  1  0  0  0  0
  3  4  1  0  0  0  0
  3 17  1  0  0  0  0
  5  6  1  0  0  0  0
  7  6  1  6  0  0  0
  7  8  1  0  0  0  0
  7  9  1  0  0  0  0
 10  9  1  1  0  0  0
 10 11  1  0  0  0  0
 10 12  1  0  0  0  0
 11 16  1  0  0  0  0
 12 13  1  6  0  0  0
 12 14  1  0  0  0  0
 14 15  1  1  0  0  0
 14 16  1  0  0  0  0
 16 27  1  1  0  0  0
 18 19  2  0  0  0  0
 18 23  1  0  0  0  0
 19 20  1  0  0  0  0
 20 21  2  0  0  0  0
 21 22  1  0  0  0  0
 21 27  1  0  0  0  0
 22 23  2  0  0  0  0
 22 25  1  0  0  0  0
 23 24  1  0  0  0  0
 25 26  2  0  0  0  0
 26 27  1  0  0  0  0
M  END
>  <CHROM.1>
138.68679331,-81.83027588,-68.83708458,166.11646167,-161.36058489,59.12410114
-22.15282406,47.90075924,55.05436940,30.44057248,-2.26173121,-1.31665698
0.23051113

>  <Name>
ligand

>  <RI>
0

>  <Rbt.Current_Directory>
/home/itssahil/PROJECTS/Mol_Feturizer/New_Systems/rnas/3IQR

>  <Rbt.Executable>
rbdock ($Id: //depot/dev/client3/rdock/2013.1/src/exe/rbdock.cxx#4 $)

>  <Rbt.Library>
libRbt.so (2013.1, Build901 2013/11/27)

>  <Rbt.Parameter_File>
/export/apps/rDock/src/rDock_2013.1_src/data/scripts/dock_solv.prm

>  <Rbt.Receptor>
prm/pocket_docking_4.prm

>  <SCORE>
-14.0487

>  <SCORE.INTER>
-9.6947

>  <SCORE.INTER.CONST>
1

>  <SCORE.INTER.POLAR>
0

>  <SCORE.INTER.ROT>
7

>  <SCORE.INTER.SOLV>
14.8372

>  <SCORE.INTER.VDW>
-19.6755

>  <SCORE.INTER.norm>
-0.359063

>  <SCORE.INTRA>
-4.35403

>  <SCORE.INTRA.DIHEDRAL>
-1.5637

>  <SCORE.INTRA.DIHEDRAL.0>
9.29433

>  <SCORE.INTRA.POLAR>
0

>  <SCORE.INTRA.POLAR.0>
0

>  <SCORE.INTRA.REPUL>
0

>  <SCORE.INTRA.REPUL.0>
0

>  <SCORE.INTRA.SOLV>
0.237699

>  <SCORE.INTRA.SOLV.lig_0>
-48.5102

>  <SCORE.INTRA.VDW>
-3.69103

>  <SCORE.INTRA.VDW.0>
0.379549

>  <SCORE.INTRA.norm>
-0.161261

>  <SCORE.RESTR>
0

>  <SCORE.RESTR.CAVITY>
0

>  <SCORE.RESTR.norm>
0

>  <SCORE.SYSTEM>
0

>  <SCORE.SYSTEM.CONST>
0

>  <SCORE.SYSTEM.DIHEDRAL>
0

>  <SCORE.SYSTEM.SOLV>
0

>  <SCORE.SYSTEM.norm>
0

>  <SCORE.heavy>
27

>  <SCORE.norm>
-0.520324

>  <RMSD>
5.156

$$$$
ligand
 OpenBabel11021811483D
libRbt.so/2013.1/901 2013/11/27
 27 29  0  0  0  0  0  0  0  0999 V2000
   46.4400   58.0096   29.0648 N   0  0  0  0  0  0  0  0  0  0  0  0
   45.5446   58.1965   30.2055 C   0  0  2  0  0  0  0  0  0  0  0  0
   45.8133   59.5337   30.8331 C   0  0  0  0  0  0  0  0  0  0  0  0
   46.8350   60.1498   30.5486 O   0  0  0  0  0  0  0  0  0  0  0  0
   45.7751   57.1011   31.2459 C   0  0  0  0  0  0  0  0  0  0  0  0
   47.2620   57.0024   31.5343 C   0  0  0  0  0  0  0  0  0  0  0  0
   47.8584   58.2230   32.7473 S   0  0  2  0  0  0  0  0  0  0  0  0
   49.4895   58.7247   32.1229 C   0  0  0  0  0  0  0  0  0  0  0  0
   48.6694   57.1587   34.0864 C   0  0  0  0  0  0  0  0  0  0  0  0
   49.3681   55.7937   33.6804 C   0  0  2  0  0  0  0  0  0  0  0  0
   49.7880   55.6266   32.3451 O   0  0  0  0  0  0  0  0  0  0  0  0
   48.8279   54.5010   34.1454 C   0  0  1  0  0  0  0  0  0  0  0  0
   47.9321   54.6424   35.2486 O   0  0  0  0  0  0  0  0  0  0  0  0
   48.1458   54.0779   32.7594 C   0  0  2  0  0  0  0  0  0  0  0  0
   47.7456   52.7409   32.7920 O   0  0  0  0  0  0  0  0  0  0  0  0
   49.3093   54.3151   31.7986 C   0  0  1  0  0  0  0  0  0  0  0  0
   44.9903   60.0234   31.5959 O   0  0  0  0  0  0  0  0  0  0  0  0
   46.9515   52.2101   27.7811 N   0  0  0  0  0  0  0  0  0  0  0  0
   47.0653   51.7941   29.0453 C   0  0  0  0  0  0  0  0  0  0  0  0
   47.7122   52.5185   29.9536 N   0  0  0  0  0  0  0  0  0  0  0  0
   48.3667   53.6414   29.6174 C   0  0  0  0  0  0  0  0  0  0  0  0
   48.3218   54.0954   28.2738 C   0  0  0  0  0  0  0  0  0  0  0  0
   47.5669   53.3268   27.3448 C   0  0  0  0  0  0  0  0  0  0  0  0
   47.4611   53.7095   26.0229 N   0  0  0  0  0  0  0  0  0  0  0  0
   49.0536   55.2215   28.2086 N   0  0  0  0  0  0  0  0  0  0  0  0
   49.5435   55.4888   29.3897 C   0  0  0  0  0  0  0  0  0  0  0  0
   49.1450   54.5546   30.3043 N   0  0  0  0  0  0  0  0  0  0  0  0
  2  1  1  6  0  0  0
  2  3  1  0  0  0  0
  2  5  1  0  0  0  0
  3  4  1  0  0  0  0
  3 17  1  0  0  0  0
  5  6  1  0  0  0  0
  7  6  1  6  0  0  0
  7  8  1  0  0  0  0
  7  9  1  0  0  0  0
 10  9  1  6  0  0  0
 10 11  1  0  0  0  0
 10 12  1  0  0  0  0
 11 16  1  0  0  0  0
 12 13  1  1  0  0  0
 12 14  1  0  0  0  0
 14 15  1  1  0  0  0
 14 16  1  0  0  0  0
 16 27  1  6  0  0  0
 18 19  2  0  0  0  0
 18 23  1  0  0  0  0
 19 20  1  0  0  0  0
 20 21  2  0  0  0  0
 21 22  1  0  0  0  0
 21 27  1  0  0  0  0
 22 23  2  0  0  0  0
 22 25  1  0  0  0  0
 23 24  1  0  0  0  0
 25 26  2  0  0  0  0
 26 27  1  0  0  0  0
M  END
>  <CHROM.1>
-14.43375700,49.83395923,82.81331914,-141.69595995,31.95888104,22.15368717
-162.34013919,47.80711397,55.83067330,31.00752622,1.84510673,-1.16529144
0.84128496

>  <Name>
ligand

>  <RI>
0

>  <Rbt.Current_Directory>
/home/itssahil/PROJECTS/Mol_Feturizer/New_Systems/rnas/3IQR

>  <Rbt.Executable>
rbdock ($Id: //depot/dev/client3/rdock/2013.1/src/exe/rbdock.cxx#4 $)

>  <Rbt.Library>
libRbt.so (2013.1, Build901 2013/11/27)

>  <Rbt.Parameter_File>
/export/apps/rDock/src/rDock_2013.1_src/data/scripts/dock_solv.prm

>  <Rbt.Receptor>
prm/pocket_docking_2.prm

>  <SCORE>
-14.7064

>  <SCORE.INTER>
-14.7896

>  <SCORE.INTER.CONST>
1

>  <SCORE.INTER.POLAR>
0

>  <SCORE.INTER.ROT>
7

>  <SCORE.INTER.SOLV>
9.51766

>  <SCORE.INTER.VDW>
-21.299

>  <SCORE.INTER.norm>
-0.547765

>  <SCORE.INTRA>
-1.67505

>  <SCORE.INTRA.DIHEDRAL>
4.40133

>  <SCORE.INTRA.DIHEDRAL.0>
9.29433

>  <SCORE.INTRA.POLAR>
0

>  <SCORE.INTRA.POLAR.0>
0

>  <SCORE.INTRA.REPUL>
0

>  <SCORE.INTRA.REPUL.0>
0

>  <SCORE.INTRA.SOLV>
0.419198

>  <SCORE.INTRA.SOLV.lig_0>
-48.5102

>  <SCORE.INTRA.VDW>
-4.08531

>  <SCORE.INTRA.VDW.0>
0.379549

>  <SCORE.INTRA.norm>
-0.0620387

>  <SCORE.RESTR>
1.75832

>  <SCORE.RESTR.CAVITY>
1.75832

>  <SCORE.RESTR.norm>
0.0651229

>  <SCORE.SYSTEM>
0

>  <SCORE.SYSTEM.CONST>
0

>  <SCORE.SYSTEM.DIHEDRAL>
0

>  <SCORE.SYSTEM.SOLV>
0

>  <SCORE.SYSTEM.norm>
0

>  <SCORE.heavy>
27

>  <SCORE.norm>
-0.544681

>  <RMSD>
5.160

$$$$
ligand
 OpenBabel11021811483D
libRbt.so/2013.1/901 2013/11/27
 27 29  0  0  0  0  0  0  0  0999 V2000
   45.2851   57.6859   29.7850 N   0  0  0  0  0  0  0  0  0  0  0  0
   44.9636   58.4084   31.0148 C   0  0  2  0  0  0  0  0  0  0  0  0
   45.7523   59.6851   31.0608 C   0  0  0  0  0  0  0  0  0  0  0  0
   45.4080   60.5913   31.8122 O   0  0  0  0  0  0  0  0  0  0  0  0
   45.3152   57.5597   32.2360 C   0  0  0  0  0  0  0  0  0  0  0  0
   46.7467   57.0735   32.1007 C   0  0  0  0  0  0  0  0  0  0  0  0
   47.8455   57.6409   33.4377 S   0  0  2  0  0  0  0  0  0  0  0  0
   48.6348   59.1368   32.7732 C   0  0  0  0  0  0  0  0  0  0  0  0
   49.4332   56.6481   33.1594 C   0  0  0  0  0  0  0  0  0  0  0  0
   49.3693   55.0631   33.1470 C   0  0  2  0  0  0  0  0  0  0  0  0
   49.5388   54.3948   31.9175 O   0  0  0  0  0  0  0  0  0  0  0  0
   48.3301   54.3430   33.9090 C   0  0  1  0  0  0  0  0  0  0  0  0
   47.7095   55.1595   34.9029 O   0  0  0  0  0  0  0  0  0  0  0  0
   47.4070   53.9712   32.6541 C   0  0  2  0  0  0  0  0  0  0  0  0
   46.4308   53.0409   33.0155 O   0  0  0  0  0  0  0  0  0  0  0  0
   48.4533   53.3816   31.7103 C   0  0  1  0  0  0  0  0  0  0  0  0
   46.7615   59.8009   30.3772 O   0  0  0  0  0  0  0  0  0  0  0  0
   48.1406   56.4990   27.6711 N   0  0  0  0  0  0  0  0  0  0  0  0
   48.1926   56.7646   28.9791 C   0  0  0  0  0  0  0  0  0  0  0  0
   48.2990   55.7893   29.8767 N   0  0  0  0  0  0  0  0  0  0  0  0
   48.2517   54.4971   29.5159 C   0  0  0  0  0  0  0  0  0  0  0  0
   48.1408   54.1637   28.1412 C   0  0  0  0  0  0  0  0  0  0  0  0
   48.0932   55.2349   27.2064 C   0  0  0  0  0  0  0  0  0  0  0  0
   48.0012   54.9940   25.8505 N   0  0  0  0  0  0  0  0  0  0  0  0
   48.1093   52.8221   28.0575 N   0  0  0  0  0  0  0  0  0  0  0  0
   48.1849   52.3112   29.2573 C   0  0  0  0  0  0  0  0  0  0  0  0
   48.2861   53.2960   30.1997 N   0  0  0  0  0  0  0  0  0  0  0  0
  2  1  1  6  0  0  0
  2  3  1  0  0  0  0
  2  5  1  0  0  0  0
  3  4  1  0  0  0  0
  3 17  1  0  0  0  0
  5  6  1  0  0  0  0
  7  6  1  6  0  0  0
  7  8  1  0  0  0  0
  7  9  1  0  0  0  0
 10  9  1  6  0  0  0
 10 11  1  0  0  0  0
 10 12  1  0  0  0  0
 11 16  1  0  0  0  0
 12 13  1  1  0  0  0
 12 14  1  0  0  0  0
 14 15  1  1  0  0  0
 14 16  1  0  0  0  0
 16 27  1  6  0  0  0
 18 19  2  0  0  0  0
 18 23  1  0  0  0  0
 19 20  1  0  0  0  0
 20 21  2  0  0  0  0
 21 22  1  0  0  0  0
 21 27  1  0  0  0  0
 22 23  2  0  0  0  0
 22 25  1  0  0  0  0
 23 24  1  0  0  0  0
 25 26  2  0  0  0  0
 26 27  1  0  0  0  0
M  END
>  <CHROM.1>
161.87414827,51.44576875,119.16037656,-95.02387299,-57.36370147,108.57000909
-44.85989918,47.59235806,56.05557324,31.07927378,2.38502852,-1.21201820,1.40229121

>  <Name>
ligand

>  <RI>
0

>  <Rbt.Current_Directory>
/home/itssahil/PROJECTS/Mol_Feturizer/New_Systems/rnas/3IQR

>  <Rbt.Executable>
rbdock ($Id: //depot/dev/client3/rdock/2013.1/src/exe/rbdock.cxx#4 $)

>  <Rbt.Library>
libRbt.so (2013.1, Build901 2013/11/27)

>  <Rbt.Parameter_File>
/export/apps/rDock/src/rDock_2013.1_src/data/scripts/dock_solv.prm

>  <Rbt.Receptor>
prm/pocket_docking_2.prm

>  <SCORE>
-11.677

>  <SCORE.INTER>
-11.1787

>  <SCORE.INTER.CONST>
1

>  <SCORE.INTER.POLAR>
0

>  <SCORE.INTER.ROT>
7

>  <SCORE.INTER.SOLV>
10.0658

>  <SCORE.INTER.VDW>
-19.0744

>  <SCORE.INTER.norm>
-0.414025

>  <SCORE.INTRA>
-1.36846

>  <SCORE.INTRA.DIHEDRAL>
5.61906

>  <SCORE.INTRA.DIHEDRAL.0>
9.29433

>  <SCORE.INTRA.POLAR>
0

>  <SCORE.INTRA.POLAR.0>
0

>  <SCORE.INTRA.REPUL>
0

>  <SCORE.INTRA.REPUL.0>
0

>  <SCORE.INTRA.SOLV>
0.646522

>  <SCORE.INTRA.SOLV.lig_0>
-48.5102

>  <SCORE.INTRA.VDW>
-4.50125

>  <SCORE.INTRA.VDW.0>
0.379549

>  <SCORE.INTRA.norm>
-0.0506836

>  <SCORE.RESTR>
0.87015

>  <SCORE.RESTR.CAVITY>
0.87015

>  <SCORE.RESTR.norm>
0.0322278

>  <SCORE.SYSTEM>
0

>  <SCORE.SYSTEM.CONST>
0

>  <SCORE.SYSTEM.DIHEDRAL>
0

>  <SCORE.SYSTEM.SOLV>
0

>  <SCORE.SYSTEM.norm>
0

>  <SCORE.heavy>
27

>  <SCORE.norm>
-0.432481

>  <RMSD>
5.164

$$$$
ligand
 OpenBabel11021811483D
libRbt.so/2013.1/901 2013/11/27
 27 29  0  0  0  0  0  0  0  0999 V2000
   48.6412   57.2169   28.0173 N   0  0  0  0  0  0  0  0  0  0  0  0
   47.2397   56.8000   28.0088 C   0  0  2  0  0  0  0  0  0  0  0  0
   46.7860   56.6145   26.5896 C   0  0  0  0  0  0  0  0  0  0  0  0
   46.1977   55.5889   26.2636 O   0  0  0  0  0  0  0  0  0  0  0  0
   46.3666   57.8609   28.6777 C   0  0  0  0  0  0  0  0  0  0  0  0
   46.4210   57.6648   30.1819 C   0  0  0  0  0  0  0  0  0  0  0  0
   47.8212   58.5095   30.9834 S   0  0  2  0  0  0  0  0  0  0  0  0
   49.1892   57.3176   30.8824 C   0  0  0  0  0  0  0  0  0  0  0  0
   47.5826   58.1195   32.8205 C   0  0  0  0  0  0  0  0  0  0  0  0
   47.2457   56.6345   33.2648 C   0  0  2  0  0  0  0  0  0  0  0  0
   48.1205   55.6018   32.8705 O   0  0  0  0  0  0  0  0  0  0  0  0
   45.8675   56.1133   33.1745 C   0  0  1  0  0  0  0  0  0  0  0  0
   44.8930   57.1496   33.0482 O   0  0  0  0  0  0  0  0  0  0  0  0
   46.0938   55.2226   31.8627 C   0  0  2  0  0  0  0  0  0  0  0  0
   45.0072   54.3729   31.6474 O   0  0  0  0  0  0  0  0  0  0  0  0
   47.3575   54.4634   32.2626 C   0  0  1  0  0  0  0  0  0  0  0  0
   46.9689   57.5069   25.7716 O   0  0  0  0  0  0  0  0  0  0  0  0
   47.2322   51.7101   27.9574 N   0  0  0  0  0  0  0  0  0  0  0  0
   46.2501   52.1049   28.7721 C   0  0  0  0  0  0  0  0  0  0  0  0
   46.5019   52.8495   29.8447 N   0  0  0  0  0  0  0  0  0  0  0  0
   47.7586   53.1457   30.2124 C   0  0  0  0  0  0  0  0  0  0  0  0
   48.8402   52.7013   29.4088 C   0  0  0  0  0  0  0  0  0  0  0  0
   48.5268   51.9611   28.2351 C   0  0  0  0  0  0  0  0  0  0  0  0
   49.5210   51.5065   27.3926 N   0  0  0  0  0  0  0  0  0  0  0  0
   49.9735   53.1230   29.9967 N   0  0  0  0  0  0  0  0  0  0  0  0
   49.6780   53.7780   31.0876 C   0  0  0  0  0  0  0  0  0  0  0  0
   48.3244   53.8355   31.2686 N   0  0  0  0  0  0  0  0  0  0  0  0
  2  1  1  6  0  0  0
  2  3  1  0  0  0  0
  2  5  1  0  0  0  0
  3  4  1  0  0  0  0
  3 17  1  0  0  0  0
  5  6  1  0  0  0  0
  7  6  1  6  0  0  0
  7  8  1  0  0  0  0
  7  9  1  0  0  0  0
 10  9  1  6  0  0  0
 10 11  1  0  0  0  0
 10 12  1  0  0  0  0
 11 16  1  0  0  0  0
 12 13  1  6  0  0  0
 12 14  1  0  0  0  0
 14 15  1  1  0  0  0
 14 16  1  0  0  0  0
 16 27  1  6  0  0  0
 18 19  2  0  0  0  0
 18 23  1  0  0  0  0
 19 20  1  0  0  0  0
 20 21  2  0  0  0  0
 21 22  1  0  0  0  0
 21 27  1  0  0  0  0
 22 23  2  0  0  0  0
 22 25  1  0  0  0  0
 23 24  1  0  0  0  0
 25 26  2  0  0  0  0
 26 27  1  0  0  0  0
M  END
>  <CHROM.1>
130.83855314,-82.51385885,86.33515417,-87.12673911,45.86266023,55.62806541
-154.77934335,47.40666336,55.39484647,30.07133023,0.45865741,1.36534763,-1.31327879

>  <Name>
ligand

>  <RI>
0

>  <Rbt.Current_Directory>
/home/itssahil/PROJECTS/Mol_Feturizer/New_Systems/rnas/3IQR

>  <Rbt.Executable>
rbdock ($Id: //depot/dev/client3/rdock/2013.1/src/exe/rbdock.cxx#4 $)

>  <Rbt.Library>
libRbt.so (2013.1, Build901 2013/11/27)

>  <Rbt.Parameter_File>
/export/apps/rDock/src/rDock_2013.1_src/data/scripts/dock_solv.prm

>  <Rbt.Receptor>
prm/pocket_docking_4.prm

>  <SCORE>
-13.7287

>  <SCORE.INTER>
-10.9386

>  <SCORE.INTER.CONST>
1

>  <SCORE.INTER.POLAR>
0

>  <SCORE.INTER.ROT>
7

>  <SCORE.INTER.SOLV>
14.4303

>  <SCORE.INTER.VDW>
-20.3692

>  <SCORE.INTER.norm>
-0.405134

>  <SCORE.INTRA>
-2.79011

>  <SCORE.INTRA.DIHEDRAL>
-0.593392

>  <SCORE.INTRA.DIHEDRAL.0>
9.29433

>  <SCORE.INTRA.POLAR>
0

>  <SCORE.INTRA.POLAR.0>
0

>  <SCORE.INTRA.REPUL>
0

>  <SCORE.INTRA.REPUL.0>
0

>  <SCORE.INTRA.SOLV>
1.85001

>  <SCORE.INTRA.SOLV.lig_0>
-48.5102

>  <SCORE.INTRA.VDW>
-3.41842

>  <SCORE.INTRA.VDW.0>
0.379549

>  <SCORE.INTRA.norm>
-0.103337

>  <SCORE.RESTR>
0

>  <SCORE.RESTR.CAVITY>
0

>  <SCORE.RESTR.norm>
0

>  <SCORE.SYSTEM>
0

>  <SCORE.SYSTEM.CONST>
0

>  <SCORE.SYSTEM.DIHEDRAL>
0

>  <SCORE.SYSTEM.SOLV>
0

>  <SCORE.SYSTEM.norm>
0

>  <SCORE.heavy>
27

>  <SCORE.norm>
-0.508471

>  <RMSD>
5.167

$$$$
ligand
 OpenBabel11021811483D
libRbt.so/2013.1/901 2013/11/27
 27 29  0  0  0  0  0  0  0  0999 V2000
   46.3225   56.9858   28.5502 N   0  0  0  0  0  0  0  0  0  0  0  0
   47.6605   56.6583   28.0598 C   0  0  2  0  0  0  0  0  0  0  0  0
   47.5440   55.7526   26.8681 C   0  0  0  0  0  0  0  0  0  0  0  0
   48.4072   55.7723   25.9969 O   0  0  0  0  0  0  0  0  0  0  0  0
   48.4660   55.9504   29.1485 C   0  0  0  0  0  0  0  0  0  0  0  0
   48.9694   56.9850   30.1385 C   0  0  0  0  0  0  0  0  0  0  0  0
   47.6853   57.6039   31.2720 S   0  0  2  0  0  0  0  0  0  0  0  0
   48.1744   59.3191   31.6198 C   0  0  0  0  0  0  0  0  0  0  0  0
   48.2971   57.0560   32.9777 C   0  0  0  0  0  0  0  0  0  0  0  0
   48.4198   55.5081   33.3017 C   0  0  2  0  0  0  0  0  0  0  0  0
   49.2344   54.7117   32.4714 O   0  0  0  0  0  0  0  0  0  0  0  0
   47.2268   54.7132   33.6544 C   0  0  1  0  0  0  0  0  0  0  0  0
   46.1184   55.5252   34.0438 O   0  0  0  0  0  0  0  0  0  0  0  0
   47.0727   53.9764   32.2407 C   0  0  2  0  0  0  0  0  0  0  0  0
   46.1512   52.9311   32.3247 O   0  0  0  0  0  0  0  0  0  0  0  0
   48.5021   53.4786   32.0349 C   0  0  1  0  0  0  0  0  0  0  0  0
   46.6079   54.9673   26.7907 O   0  0  0  0  0  0  0  0  0  0  0  0
   46.9480   52.0066   27.3928 N   0  0  0  0  0  0  0  0  0  0  0  0
   46.2682   52.1752   28.5301 C   0  0  0  0  0  0  0  0  0  0  0  0
   46.8717   52.5958   29.6378 N   0  0  0  0  0  0  0  0  0  0  0  0
   48.2024   52.7661   29.6890 C   0  0  0  0  0  0  0  0  0  0  0  0
   48.9760   52.5455   28.5202 C   0  0  0  0  0  0  0  0  0  0  0  0
   48.2860   52.1575   27.3383 C   0  0  0  0  0  0  0  0  0  0  0  0
   48.9644   51.9387   26.1564 N   0  0  0  0  0  0  0  0  0  0  0  0
   50.2606   52.7777   28.8425 N   0  0  0  0  0  0  0  0  0  0  0  0
   50.3373   53.1134   30.1026 C   0  0  0  0  0  0  0  0  0  0  0  0
   49.0971   53.1348   30.6765 N   0  0  0  0  0  0  0  0  0  0  0  0
  2  1  1  1  0  0  0
  2  3  1  0  0  0  0
  2  5  1  0  0  0  0
  3  4  1  0  0  0  0
  3 17  1  0  0  0  0
  5  6  1  0  0  0  0
  7  6  1  6  0  0  0
  7  8  1  0  0  0  0
  7  9  1  0  0  0  0
 10  9  1  6  0  0  0
 10 11  1  0  0  0  0
 10 12  1  0  0  0  0
 11 16  1  0  0  0  0
 12 13  1  6  0  0  0
 12 14  1  0  0  0  0
 14 15  1  1  0  0  0
 14 16  1  0  0  0  0
 16 27  1  6  0  0  0
 18 19  2  0  0  0  0
 18 23  1  0  0  0  0
 19 20  1  0  0  0  0
 20 21  2  0  0  0  0
 21 22  1  0  0  0  0
 21 27  1  0  0  0  0
 22 23  2  0  0  0  0
 22 25  1  0  0  0  0
 23 24  1  0  0  0  0
 25 26  2  0  0  0  0
 26 27  1  0  0  0  0
M  END
>  <CHROM.1>
150.77798465,-78.27551714,75.52411256,-148.65196120,-63.75918183,57.26884961
-136.68307642,47.92948255,54.76013841,30.03565062,0.35540622,1.50504210,-0.90213105

>  <Name>
ligand

>  <RI>
0

>  <Rbt.Current_Directory>
/home/itssahil/PROJECTS/Mol_Feturizer/New_Systems/rnas/3IQR

>  <Rbt.Executable>
rbdock ($Id: //depot/dev/client3/rdock/2013.1/src/exe/rbdock.cxx#4 $)

>  <Rbt.Library>
libRbt.so (2013.1, Build901 2013/11/27)

>  <Rbt.Parameter_File>
/export/apps/rDock/src/rDock_2013.1_src/data/scripts/dock_solv.prm

>  <Rbt.Receptor>
prm/pocket_docking_3.prm

>  <SCORE>
-17.9766

>  <SCORE.INTER>
-11.606

>  <SCORE.INTER.CONST>
1

>  <SCORE.INTER.POLAR>
0

>  <SCORE.INTER.ROT>
7

>  <SCORE.INTER.SOLV>
7.48031

>  <SCORE.INTER.VDW>
-18.4974

>  <SCORE.INTER.norm>
-0.429853

>  <SCORE.INTRA>
-6.37062

>  <SCORE.INTRA.DIHEDRAL>
-0.0609904

>  <SCORE.INTRA.DIHEDRAL.0>
9.29433

>  <SCORE.INTRA.POLAR>
0

>  <SCORE.INTRA.POLAR.0>
0

>  <SCORE.INTRA.REPUL>
0

>  <SCORE.INTRA.REPUL.0>
0

>  <SCORE.INTRA.SOLV>
0.942936

>  <SCORE.INTRA.SOLV.lig_0>
-48.5102

>  <SCORE.INTRA.VDW>
-6.81159

>  <SCORE.INTRA.VDW.0>
0.379549

>  <SCORE.INTRA.norm>
-0.235949

>  <SCORE.RESTR>
0

>  <SCORE.RESTR.CAVITY>
0

>  <SCORE.RESTR.norm>
0

>  <SCORE.SYSTEM>
0

>  <SCORE.SYSTEM.CONST>
0

>  <SCORE.SYSTEM.DIHEDRAL>
0

>  <SCORE.SYSTEM.SOLV>
0

>  <SCORE.SYSTEM.norm>
0

>  <SCORE.heavy>
27

>  <SCORE.norm>
-0.665801

>  <RMSD>
5.172

$$$$
ligand
 OpenBabel11021811483D
libRbt.so/2013.1/901 2013/11/27
 27 29  0  0  0  0  0  0  0  0999 V2000
   49.8088   52.5035   25.8628 N   0  0  0  0  0  0  0  0  0  0  0  0
   50.0039   53.8296   26.4470 C   0  0  2  0  0  0  0  0  0  0  0  0
   51.1008   53.7644   27.4702 C   0  0  0  0  0  0  0  0  0  0  0  0
   51.0917   52.8825   28.3226 O   0  0  0  0  0  0  0  0  0  0  0  0
   48.7186   54.3063   27.1222 C   0  0  0  0  0  0  0  0  0  0  0  0
   48.9252   55.7226   27.6276 C   0  0  0  0  0  0  0  0  0  0  0  0
   47.5788   56.3260   28.6952 S   0  0  2  0  0  0  0  0  0  0  0  0
   46.2538   56.7859   27.5396 C   0  0  0  0  0  0  0  0  0  0  0  0
   48.0104   58.1492   28.9667 C   0  0  0  0  0  0  0  0  0  0  0  0
   47.6135   58.8490   30.3338 C   0  0  2  0  0  0  0  0  0  0  0  0
   48.2002   58.3751   31.5248 O   0  0  0  0  0  0  0  0  0  0  0  0
   46.2068   59.1848   30.6300 C   0  0  1  0  0  0  0  0  0  0  0  0
   45.3826   59.1855   29.4638 O   0  0  0  0  0  0  0  0  0  0  0  0
   45.9429   57.9822   31.6544 C   0  0  2  0  0  0  0  0  0  0  0  0
   44.7357   58.1642   32.3316 O   0  0  0  0  0  0  0  0  0  0  0  0
   47.1547   58.1338   32.5718 C   0  0  1  0  0  0  0  0  0  0  0  0
   52.0234   54.5680   27.4242 O   0  0  0  0  0  0  0  0  0  0  0  0
   45.5860   53.8084   34.7990 N   0  0  0  0  0  0  0  0  0  0  0  0
   44.9052   54.7494   34.1395 C   0  0  0  0  0  0  0  0  0  0  0  0
   45.5215   55.8010   33.6080 N   0  0  0  0  0  0  0  0  0  0  0  0
   46.8324   56.0161   33.8015 C   0  0  0  0  0  0  0  0  0  0  0  0
   47.5889   55.0724   34.5433 C   0  0  0  0  0  0  0  0  0  0  0  0
   46.9061   53.9283   35.0419 C   0  0  0  0  0  0  0  0  0  0  0  0
   47.5736   52.9566   35.7597 N   0  0  0  0  0  0  0  0  0  0  0  0
   48.8542   55.5246   34.5914 N   0  0  0  0  0  0  0  0  0  0  0  0
   48.9330   56.6605   33.9510 C   0  0  0  0  0  0  0  0  0  0  0  0
   47.7184   57.0109   33.4311 N   0  0  0  0  0  0  0  0  0  0  0  0
  2  1  1  1  0  0  0
  2  3  1  0  0  0  0
  2  5  1  0  0  0  0
  3  4  1  0  0  0  0
  3 17  1  0  0  0  0
  5  6  1  0  0  0  0
  7  6  1  6  0  0  0
  7  8  1  0  0  0  0
  7  9  1  0  0  0  0
 10  9  1  6  0  0  0
 10 11  1  0  0  0  0
 10 12  1  0  0  0  0
 11 16  1  0  0  0  0
 12 13  1  6  0  0  0
 12 14  1  0  0  0  0
 14 15  1  1  0  0  0
 14 16  1  0  0  0  0
 16 27  1  6  0  0  0
 18 19  2  0  0  0  0
 18 23  1  0  0  0  0
 19 20  1  0  0  0  0
 20 21  2  0  0  0  0
 21 22  1  0  0  0  0
 21 27  1  0  0  0  0
 22 23  2  0  0  0  0
 22 25  1  0  0  0  0
 23 24  1  0  0  0  0
 25 26  2  0  0  0  0
 26 27  1  0  0  0  0
M  END
>  <CHROM.1>
-48.63505624,-175.91631890,-170.41033382,-78.55573460,-148.40070247,63.53337396
-137.29617791,47.75495351,55.97974690,30.81934158,-0.76377469,-0.93865352
2.05545395

>  <Name>
ligand

>  <RI>
0

>  <Rbt.Current_Directory>
/home/itssahil/PROJECTS/Mol_Feturizer/New_Systems/rnas/3IQR

>  <Rbt.Executable>
rbdock ($Id: //depot/dev/client3/rdock/2013.1/src/exe/rbdock.cxx#4 $)

>  <Rbt.Library>
libRbt.so (2013.1, Build901 2013/11/27)

>  <Rbt.Parameter_File>
/export/apps/rDock/src/rDock_2013.1_src/data/scripts/dock_solv.prm

>  <Rbt.Receptor>
prm/pocket_docking_8.prm

>  <SCORE>
-19.4118

>  <SCORE.INTER>
-14.9532

>  <SCORE.INTER.CONST>
1

>  <SCORE.INTER.POLAR>
0

>  <SCORE.INTER.ROT>
7

>  <SCORE.INTER.SOLV>
11.353

>  <SCORE.INTER.VDW>
-22.0198

>  <SCORE.INTER.norm>
-0.553823

>  <SCORE.INTRA>
-4.45859

>  <SCORE.INTRA.DIHEDRAL>
-1.46498

>  <SCORE.INTRA.DIHEDRAL.0>
9.29433

>  <SCORE.INTRA.POLAR>
0

>  <SCORE.INTRA.POLAR.0>
0

>  <SCORE.INTRA.REPUL>
0

>  <SCORE.INTRA.REPUL.0>
0

>  <SCORE.INTRA.SOLV>
-1.3297

>  <SCORE.INTRA.SOLV.lig_0>
-48.5102

>  <SCORE.INTRA.VDW>
-3.06125

>  <SCORE.INTRA.VDW.0>
0.379549

>  <SCORE.INTRA.norm>
-0.165133

>  <SCORE.RESTR>
0

>  <SCORE.RESTR.CAVITY>
0

>  <SCORE.RESTR.norm>
0

>  <SCORE.SYSTEM>
0

>  <SCORE.SYSTEM.CONST>
0

>  <SCORE.SYSTEM.DIHEDRAL>
0

>  <SCORE.SYSTEM.SOLV>
0

>  <SCORE.SYSTEM.norm>
0

>  <SCORE.heavy>
27

>  <SCORE.norm>
-0.718957

>  <RMSD>
5.177

$$$$
ligand
 OpenBabel11021811483D
libRbt.so/2013.1/901 2013/11/27
 27 29  0  0  0  0  0  0  0  0999 V2000
   50.5936   52.9998   29.8552 N   0  0  0  0  0  0  0  0  0  0  0  0
   49.3289   52.5667   30.4474 C   0  0  2  0  0  0  0  0  0  0  0  0
   48.3613   52.2210   29.3527 C   0  0  0  0  0  0  0  0  0  0  0  0
   47.2328   51.8307   29.6331 O   0  0  0  0  0  0  0  0  0  0  0  0
   48.7348   53.6832   31.3051 C   0  0  0  0  0  0  0  0  0  0  0  0
   48.2725   53.0952   32.6258 C   0  0  0  0  0  0  0  0  0  0  0  0
   47.5359   54.3175   33.7572 S   0  0  2  0  0  0  0  0  0  0  0  0
   46.0310   54.8762   32.9055 C   0  0  0  0  0  0  0  0  0  0  0  0
   48.4206   55.9294   33.3069 C   0  0  0  0  0  0  0  0  0  0  0  0
   47.5710   57.1702   32.8022 C   0  0  2  0  0  0  0  0  0  0  0  0
   46.9272   57.0779   31.5515 O   0  0  0  0  0  0  0  0  0  0  0  0
   48.0884   58.5460   32.9393 C   0  0  1  0  0  0  0  0  0  0  0  0
   49.1607   58.6410   33.8778 O   0  0  0  0  0  0  0  0  0  0  0  0
   48.5026   58.7402   31.4044 C   0  0  2  0  0  0  0  0  0  0  0  0
   48.8082   60.0762   31.1389 O   0  0  0  0  0  0  0  0  0  0  0  0
   47.2167   58.2879   30.7151 C   0  0  1  0  0  0  0  0  0  0  0  0
   48.6891   52.3695   28.1825 O   0  0  0  0  0  0  0  0  0  0  0  0
   49.6066   54.9583   27.6601 N   0  0  0  0  0  0  0  0  0  0  0  0
   49.8722   55.3441   28.9110 C   0  0  0  0  0  0  0  0  0  0  0  0
   49.0950   56.2194   29.5419 N   0  0  0  0  0  0  0  0  0  0  0  0
   48.0767   56.8305   28.9160 C   0  0  0  0  0  0  0  0  0  0  0  0
   47.7886   56.4949   27.5677 C   0  0  0  0  0  0  0  0  0  0  0  0
   48.6036   55.5078   26.9472 C   0  0  0  0  0  0  0  0  0  0  0  0
   48.3787   55.1147   25.6435 N   0  0  0  0  0  0  0  0  0  0  0  0
   46.7400   57.2446   27.1854 N   0  0  0  0  0  0  0  0  0  0  0  0
   46.3693   58.0092   28.1775 C   0  0  0  0  0  0  0  0  0  0  0  0
   47.1501   57.7908   29.2779 N   0  0  0  0  0  0  0  0  0  0  0  0
  2  1  1  6  0  0  0
  2  3  1  0  0  0  0
  2  5  1  0  0  0  0
  3  4  1  0  0  0  0
  3 17  1  0  0  0  0
  5  6  1  0  0  0  0
  7  6  1  6  0  0  0
  7  8  1  0  0  0  0
  7  9  1  0  0  0  0
 10  9  1  6  0  0  0
 10 11  1  0  0  0  0
 10 12  1  0  0  0  0
 11 16  1  0  0  0  0
 12 13  1  1  0  0  0
 12 14  1  0  0  0  0
 14 15  1  1  0  0  0
 14 16  1  0  0  0  0
 16 27  1  6  0  0  0
 18 19  2  0  0  0  0
 18 23  1  0  0  0  0
 19 20  1  0  0  0  0
 20 21  2  0  0  0  0
 21 22  1  0  0  0  0
 21 27  1  0  0  0  0
 22 23  2  0  0  0  0
 22 25  1  0  0  0  0
 23 24  1  0  0  0  0
 25 26  2  0  0  0  0
 26 27  1  0  0  0  0
M  END
>  <CHROM.1>
179.92386244,-134.16938901,-179.93659404,64.90051172,120.42051185,-67.60052005
-62.61838384,48.15532803,55.69630156,30.43687625,-0.34671670,-1.45227934
2.06589942

>  <Name>
ligand

>  <RI>
0

>  <Rbt.Current_Directory>
/home/itssahil/PROJECTS/Mol_Feturizer/New_Systems/rnas/3IQR

>  <Rbt.Executable>
rbdock ($Id: //depot/dev/client3/rdock/2013.1/src/exe/rbdock.cxx#4 $)

>  <Rbt.Library>
libRbt.so (2013.1, Build901 2013/11/27)

>  <Rbt.Parameter_File>
/export/apps/rDock/src/rDock_2013.1_src/data/scripts/dock_solv.prm

>  <Rbt.Receptor>
prm/pocket_docking_2.prm

>  <SCORE>
-3.36475

>  <SCORE.INTER>
-8.29796

>  <SCORE.INTER.CONST>
1

>  <SCORE.INTER.POLAR>
0

>  <SCORE.INTER.ROT>
7

>  <SCORE.INTER.SOLV>
16.7827

>  <SCORE.INTER.VDW>
-19.3929

>  <SCORE.INTER.norm>
-0.307332

>  <SCORE.INTRA>
3.70021

>  <SCORE.INTRA.DIHEDRAL>
4.8834

>  <SCORE.INTRA.DIHEDRAL.0>
9.29433

>  <SCORE.INTRA.POLAR>
0

>  <SCORE.INTRA.POLAR.0>
0

>  <SCORE.INTRA.REPUL>
0

>  <SCORE.INTRA.REPUL.0>
0

>  <SCORE.INTRA.SOLV>
0.221018

>  <SCORE.INTRA.SOLV.lig_0>
-48.5102

>  <SCORE.INTRA.VDW>
1.148

>  <SCORE.INTRA.VDW.0>
0.379549

>  <SCORE.INTRA.norm>
0.137045

>  <SCORE.RESTR>
1.23301

>  <SCORE.RESTR.CAVITY>
1.23301

>  <SCORE.RESTR.norm>
0.0456669

>  <SCORE.SYSTEM>
0

>  <SCORE.SYSTEM.CONST>
0

>  <SCORE.SYSTEM.DIHEDRAL>
0

>  <SCORE.SYSTEM.SOLV>
0

>  <SCORE.SYSTEM.norm>
0

>  <SCORE.heavy>
27

>  <SCORE.norm>
-0.12462

>  <RMSD>
5.178

$$$$
ligand
 OpenBabel11021811483D
libRbt.so/2013.1/901 2013/11/27
 27 29  0  0  0  0  0  0  0  0999 V2000
   50.5483   52.8314   25.9120 N   0  0  0  0  0  0  0  0  0  0  0  0
   50.5568   54.1626   26.5168 C   0  0  2  0  0  0  0  0  0  0  0  0
   51.7129   54.2674   27.4690 C   0  0  0  0  0  0  0  0  0  0  0  0
   52.3120   55.3307   27.5905 O   0  0  0  0  0  0  0  0  0  0  0  0
   49.2563   54.4062   27.2814 C   0  0  0  0  0  0  0  0  0  0  0  0
   49.2082   55.8588   27.7189 C   0  0  0  0  0  0  0  0  0  0  0  0
   47.7640   56.2689   28.7497 S   0  0  2  0  0  0  0  0  0  0  0  0
   46.3716   56.3165   27.5830 C   0  0  0  0  0  0  0  0  0  0  0  0
   47.7968   58.1602   28.8281 C   0  0  0  0  0  0  0  0  0  0  0  0
   47.4287   58.8905   30.1872 C   0  0  2  0  0  0  0  0  0  0  0  0
   48.0456   58.4477   31.3749 O   0  0  0  0  0  0  0  0  0  0  0  0
   46.0278   59.2272   30.5086 C   0  0  1  0  0  0  0  0  0  0  0  0
   45.1763   59.1965   29.3624 O   0  0  0  0  0  0  0  0  0  0  0  0
   45.7939   58.0482   31.5671 C   0  0  2  0  0  0  0  0  0  0  0  0
   44.6021   58.2409   32.2681 O   0  0  0  0  0  0  0  0  0  0  0  0
   47.0262   58.2268   32.4517 C   0  0  1  0  0  0  0  0  0  0  0  0
   52.0274   53.3011   28.1518 O   0  0  0  0  0  0  0  0  0  0  0  0
   45.5633   53.8799   34.7089 N   0  0  0  0  0  0  0  0  0  0  0  0
   44.8607   54.7963   34.0376 C   0  0  0  0  0  0  0  0  0  0  0  0
   45.4513   55.8596   33.5000 N   0  0  0  0  0  0  0  0  0  0  0  0
   46.7548   56.1120   33.6984 C   0  0  0  0  0  0  0  0  0  0  0  0
   47.5325   55.1955   34.4525 C   0  0  0  0  0  0  0  0  0  0  0  0
   46.8783   54.0378   34.9576 C   0  0  0  0  0  0  0  0  0  0  0  0
   47.5680   53.0908   35.6874 N   0  0  0  0  0  0  0  0  0  0  0  0
   48.7848   55.6824   34.5031 N   0  0  0  0  0  0  0  0  0  0  0  0
   48.8362   56.8144   33.8531 C   0  0  0  0  0  0  0  0  0  0  0  0
   47.6155   57.1271   33.3238 N   0  0  0  0  0  0  0  0  0  0  0  0
  2  1  1  1  0  0  0
  2  3  1  0  0  0  0
  2  5  1  0  0  0  0
  3  4  1  0  0  0  0
  3 17  1  0  0  0  0
  5  6  1  0  0  0  0
  7  6  1  6  0  0  0
  7  8  1  0  0  0  0
  7  9  1  0  0  0  0
 10  9  1  6  0  0  0
 10 11  1  0  0  0  0
 10 12  1  0  0  0  0
 11 16  1  0  0  0  0
 12 13  1  6  0  0  0
 12 14  1  0  0  0  0
 14 15  1  1  0  0  0
 14 16  1  0  0  0  0
 16 27  1  6  0  0  0
 18 19  2  0  0  0  0
 18 23  1  0  0  0  0
 19 20  1  0  0  0  0
 20 21  2  0  0  0  0
 21 22  1  0  0  0  0
 21 27  1  0  0  0  0
 22 23  2  0  0  0  0
 22 25  1  0  0  0  0
 23 24  1  0  0  0  0
 25 26  2  0  0  0  0
 26 27  1  0  0  0  0
M  END
>  <CHROM.1>
144.78848129,-171.67822339,-175.81268847,-74.49969662,-140.94226006,48.74972706
-135.03179158,47.84980189,56.10289773,30.77318841,-0.71022088,-0.82272403
2.06312194

>  <Name>
ligand

>  <RI>
0

>  <Rbt.Current_Directory>
/home/itssahil/PROJECTS/Mol_Feturizer/New_Systems/rnas/3IQR

>  <Rbt.Executable>
rbdock ($Id: //depot/dev/client3/rdock/2013.1/src/exe/rbdock.cxx#4 $)

>  <Rbt.Library>
libRbt.so (2013.1, Build901 2013/11/27)

>  <Rbt.Parameter_File>
/export/apps/rDock/src/rDock_2013.1_src/data/scripts/dock_solv.prm

>  <Rbt.Receptor>
prm/pocket_docking_5.prm

>  <SCORE>
-20.3467

>  <SCORE.INTER>
-16.2394

>  <SCORE.INTER.CONST>
1

>  <SCORE.INTER.POLAR>
0

>  <SCORE.INTER.ROT>
7

>  <SCORE.INTER.SOLV>
11.8898

>  <SCORE.INTER.VDW>
-23.0562

>  <SCORE.INTER.norm>
-0.60146

>  <SCORE.INTRA>
-4.19018

>  <SCORE.INTRA.DIHEDRAL>
-0.82242

>  <SCORE.INTRA.DIHEDRAL.0>
9.29433

>  <SCORE.INTRA.POLAR>
0

>  <SCORE.INTRA.POLAR.0>
0

>  <SCORE.INTRA.REPUL>
0

>  <SCORE.INTRA.REPUL.0>
0

>  <SCORE.INTRA.SOLV>
-1.43083

>  <SCORE.INTRA.SOLV.lig_0>
-48.5102

>  <SCORE.INTRA.VDW>
-3.06355

>  <SCORE.INTRA.VDW.0>
0.379549

>  <SCORE.INTRA.norm>
-0.155192

>  <SCORE.RESTR>
0.0828682

>  <SCORE.RESTR.CAVITY>
0.0828682

>  <SCORE.RESTR.norm>
0.00306919

>  <SCORE.SYSTEM>
0

>  <SCORE.SYSTEM.CONST>
0

>  <SCORE.SYSTEM.DIHEDRAL>
0

>  <SCORE.SYSTEM.SOLV>
0

>  <SCORE.SYSTEM.norm>
0

>  <SCORE.heavy>
27

>  <SCORE.norm>
-0.753582

>  <RMSD>
5.181

$$$$
ligand
 OpenBabel11021811483D
libRbt.so/2013.1/901 2013/11/27
 27 29  0  0  0  0  0  0  0  0999 V2000
   50.9149   52.4967   24.7391 N   0  0  0  0  0  0  0  0  0  0  0  0
   50.0311   53.6483   24.9149 C   0  0  2  0  0  0  0  0  0  0  0  0
   50.2243   54.6010   23.7708 C   0  0  0  0  0  0  0  0  0  0  0  0
   49.2551   55.1614   23.2699 O   0  0  0  0  0  0  0  0  0  0  0  0
   50.3520   54.3682   26.2241 C   0  0  0  0  0  0  0  0  0  0  0  0
   49.9878   53.4613   27.3855 C   0  0  0  0  0  0  0  0  0  0  0  0
   50.3602   54.1738   29.0197 S   0  0  2  0  0  0  0  0  0  0  0  0
   49.4907   53.0945   30.1949 C   0  0  0  0  0  0  0  0  0  0  0  0
   49.0390   55.5130   29.2319 C   0  0  0  0  0  0  0  0  0  0  0  0
   49.0841   56.4577   30.5053 C   0  0  2  0  0  0  0  0  0  0  0  0
   48.7262   55.9147   31.7561 O   0  0  0  0  0  0  0  0  0  0  0  0
   48.5512   57.8331   30.4448 C   0  0  1  0  0  0  0  0  0  0  0  0
   48.3913   58.3042   29.1062 O   0  0  0  0  0  0  0  0  0  0  0  0
   47.1892   57.5371   31.2339 C   0  0  2  0  0  0  0  0  0  0  0  0
   46.5463   58.7279   31.5764 O   0  0  0  0  0  0  0  0  0  0  0  0
   47.7354   56.7975   32.4537 C   0  0  1  0  0  0  0  0  0  0  0  0
   51.3543   54.8468   23.3687 O   0  0  0  0  0  0  0  0  0  0  0  0
   48.4330   53.3371   36.1510 N   0  0  0  0  0  0  0  0  0  0  0  0
   49.3137   54.0266   35.4208 C   0  0  0  0  0  0  0  0  0  0  0  0
   48.9130   54.9111   34.5123 N   0  0  0  0  0  0  0  0  0  0  0  0
   47.6135   55.0713   34.2161 C   0  0  0  0  0  0  0  0  0  0  0  0
   46.6417   54.3201   34.9265 C   0  0  0  0  0  0  0  0  0  0  0  0
   47.1062   53.4305   35.9347 C   0  0  0  0  0  0  0  0  0  0  0  0
   46.2237   52.6758   36.6808 N   0  0  0  0  0  0  0  0  0  0  0  0
   45.4370   54.6627   34.4374 N   0  0  0  0  0  0  0  0  0  0  0  0
   45.5900   55.5492   33.4903 C   0  0  0  0  0  0  0  0  0  0  0  0
   46.9116   55.8505   33.3150 N   0  0  0  0  0  0  0  0  0  0  0  0
  2  1  1  6  0  0  0
  2  3  1  0  0  0  0
  2  5  1  0  0  0  0
  3  4  1  0  0  0  0
  3 17  1  0  0  0  0
  5  6  1  0  0  0  0
  7  6  1  6  0  0  0
  7  8  1  0  0  0  0
  7  9  1  0  0  0  0
 10  9  1  6  0  0  0
 10 11  1  0  0  0  0
 10 12  1  0  0  0  0
 11 16  1  0  0  0  0
 12 13  1  6  0  0  0
 12 14  1  0  0  0  0
 14 15  1  1  0  0  0
 14 16  1  0  0  0  0
 16 27  1  6  0  0  0
 18 19  2  0  0  0  0
 18 23  1  0  0  0  0
 19 20  1  0  0  0  0
 20 21  2  0  0  0  0
 21 22  1  0  0  0  0
 21 27  1  0  0  0  0
 22 23  2  0  0  0  0
 22 25  1  0  0  0  0
 23 24  1  0  0  0  0
 25 26  2  0  0  0  0
 26 27  1  0  0  0  0
M  END
>  <CHROM.1>
139.66619924,-67.05909553,178.41541484,167.13245229,-175.38560888,-72.56217536
56.55967233,48.61772020,55.05782770,30.46529474,-0.83836786,-1.09979161,2.21868983

>  <Name>
ligand

>  <RI>
0

>  <Rbt.Current_Directory>
/home/itssahil/PROJECTS/Mol_Feturizer/New_Systems/rnas/3IQR

>  <Rbt.Executable>
rbdock ($Id: //depot/dev/client3/rdock/2013.1/src/exe/rbdock.cxx#4 $)

>  <Rbt.Library>
libRbt.so (2013.1, Build901 2013/11/27)

>  <Rbt.Parameter_File>
/export/apps/rDock/src/rDock_2013.1_src/data/scripts/dock_solv.prm

>  <Rbt.Receptor>
prm/pocket_docking_7.prm

>  <SCORE>
-18.7424

>  <SCORE.INTER>
-13.2033

>  <SCORE.INTER.CONST>
1

>  <SCORE.INTER.POLAR>
0

>  <SCORE.INTER.ROT>
7

>  <SCORE.INTER.SOLV>
10.9412

>  <SCORE.INTER.VDW>
-20.716

>  <SCORE.INTER.norm>
-0.489013

>  <SCORE.INTRA>
-5.53906

>  <SCORE.INTRA.DIHEDRAL>
-4.41594

>  <SCORE.INTRA.DIHEDRAL.0>
9.29433

>  <SCORE.INTRA.POLAR>
0

>  <SCORE.INTRA.POLAR.0>
0

>  <SCORE.INTRA.REPUL>
0

>  <SCORE.INTRA.REPUL.0>
0

>  <SCORE.INTRA.SOLV>
-1.22114

>  <SCORE.INTRA.SOLV.lig_0>
-48.5102

>  <SCORE.INTRA.VDW>
-2.72052

>  <SCORE.INTRA.VDW.0>
0.379549

>  <SCORE.INTRA.norm>
-0.20515

>  <SCORE.RESTR>
0

>  <SCORE.RESTR.CAVITY>
0

>  <SCORE.RESTR.norm>
0

>  <SCORE.SYSTEM>
0

>  <SCORE.SYSTEM.CONST>
0

>  <SCORE.SYSTEM.DIHEDRAL>
0

>  <SCORE.SYSTEM.SOLV>
0

>  <SCORE.SYSTEM.norm>
0

>  <SCORE.heavy>
27

>  <SCORE.norm>
-0.694163

>  <RMSD>
5.181

$$$$
ligand
 OpenBabel11021811483D
libRbt.so/2013.1/901 2013/11/27
 27 29  0  0  0  0  0  0  0  0999 V2000
   49.2928   56.2181   27.5121 N   0  0  0  0  0  0  0  0  0  0  0  0
   47.8519   56.1071   27.7344 C   0  0  2  0  0  0  0  0  0  0  0  0
   47.1324   56.3041   26.4314 C   0  0  0  0  0  0  0  0  0  0  0  0
   47.2002   57.3825   25.8511 O   0  0  0  0  0  0  0  0  0  0  0  0
   47.3851   57.1697   28.7285 C   0  0  0  0  0  0  0  0  0  0  0  0
   47.9449   56.8390   30.1001 C   0  0  0  0  0  0  0  0  0  0  0  0
   47.2197   57.8262   31.4477 S   0  0  2  0  0  0  0  0  0  0  0  0
   48.1773   59.3706   31.4460 C   0  0  0  0  0  0  0  0  0  0  0  0
   48.1440   57.2243   32.9863 C   0  0  0  0  0  0  0  0  0  0  0  0
   48.1500   55.6772   33.3366 C   0  0  2  0  0  0  0  0  0  0  0  0
   48.9681   54.8200   32.5729 O   0  0  0  0  0  0  0  0  0  0  0  0
   46.8899   54.9613   33.6175 C   0  0  1  0  0  0  0  0  0  0  0  0
   45.8096   55.8447   33.9212 O   0  0  0  0  0  0  0  0  0  0  0  0
   46.7857   54.2123   32.2056 C   0  0  2  0  0  0  0  0  0  0  0  0
   45.7985   53.2258   32.2398 O   0  0  0  0  0  0  0  0  0  0  0  0
   48.1925   53.6262   32.1028 C   0  0  1  0  0  0  0  0  0  0  0  0
   46.5138   55.3730   25.9319 O   0  0  0  0  0  0  0  0  0  0  0  0
   46.8783   51.8778   27.4825 N   0  0  0  0  0  0  0  0  0  0  0  0
   46.1449   52.0903   28.5785 C   0  0  0  0  0  0  0  0  0  0  0  0
   46.6895   52.5821   29.6874 N   0  0  0  0  0  0  0  0  0  0  0  0
   48.0128   52.7850   29.7875 C   0  0  0  0  0  0  0  0  0  0  0  0
   48.8424   52.5211   28.6670 C   0  0  0  0  0  0  0  0  0  0  0  0
   48.2141   52.0561   27.4785 C   0  0  0  0  0  0  0  0  0  0  0  0
   48.9490   51.7911   26.3407 N   0  0  0  0  0  0  0  0  0  0  0  0
   50.1062   52.7992   29.0322 N   0  0  0  0  0  0  0  0  0  0  0  0
   50.1195   53.2021   30.2747 C   0  0  0  0  0  0  0  0  0  0  0  0
   48.8546   53.2253   30.7920 N   0  0  0  0  0  0  0  0  0  0  0  0
  2  1  1  6  0  0  0
  2  3  1  0  0  0  0
  2  5  1  0  0  0  0
  3  4  1  0  0  0  0
  3 17  1  0  0  0  0
  5  6  1  0  0  0  0
  7  6  1  6  0  0  0
  7  8  1  0  0  0  0
  7  9  1  0  0  0  0
 10  9  1  6  0  0  0
 10 11  1  0  0  0  0
 10 12  1  0  0  0  0
 11 16  1  0  0  0  0
 12 13  1  6  0  0  0
 12 14  1  0  0  0  0
 14 15  1  1  0  0  0
 14 16  1  0  0  0  0
 16 27  1  6  0  0  0
 18 19  2  0  0  0  0
 18 23  1  0  0  0  0
 19 20  1  0  0  0  0
 20 21  2  0  0  0  0
 21 22  1  0  0  0  0
 21 27  1  0  0  0  0
 22 23  2  0  0  0  0
 22 25  1  0  0  0  0
 23 24  1  0  0  0  0
 25 26  2  0  0  0  0
 26 27  1  0  0  0  0
M  END
>  <CHROM.1>
-64.02449296,-68.72927391,-168.84548441,-83.99853040,-55.28925145,75.07383614
-142.06036381,47.73252456,54.92542488,29.96240299,0.49873950,1.47754677,-0.98118560

>  <Name>
ligand

>  <RI>
0

>  <Rbt.Current_Directory>
/home/itssahil/PROJECTS/Mol_Feturizer/New_Systems/rnas/3IQR

>  <Rbt.Executable>
rbdock ($Id: //depot/dev/client3/rdock/2013.1/src/exe/rbdock.cxx#4 $)

>  <Rbt.Library>
libRbt.so (2013.1, Build901 2013/11/27)

>  <Rbt.Parameter_File>
/export/apps/rDock/src/rDock_2013.1_src/data/scripts/dock_solv.prm

>  <Rbt.Receptor>
prm/pocket_docking_6.prm

>  <SCORE>
-19.1653

>  <SCORE.INTER>
-11.9905

>  <SCORE.INTER.CONST>
1

>  <SCORE.INTER.POLAR>
0

>  <SCORE.INTER.ROT>
7

>  <SCORE.INTER.SOLV>
11.5003

>  <SCORE.INTER.VDW>
-20.0938

>  <SCORE.INTER.norm>
-0.444094

>  <SCORE.INTRA>
-7.17472

>  <SCORE.INTRA.DIHEDRAL>
-3.12995

>  <SCORE.INTRA.DIHEDRAL.0>
9.29433

>  <SCORE.INTRA.POLAR>
0

>  <SCORE.INTRA.POLAR.0>
0

>  <SCORE.INTRA.REPUL>
0

>  <SCORE.INTRA.REPUL.0>
0

>  <SCORE.INTRA.SOLV>
-0.530689

>  <SCORE.INTRA.SOLV.lig_0>
-48.5102

>  <SCORE.INTRA.VDW>
-5.3444

>  <SCORE.INTRA.VDW.0>
0.379549

>  <SCORE.INTRA.norm>
-0.26573

>  <SCORE.RESTR>
0

>  <SCORE.RESTR.CAVITY>
0

>  <SCORE.RESTR.norm>
0

>  <SCORE.SYSTEM>
0

>  <SCORE.SYSTEM.CONST>
0

>  <SCORE.SYSTEM.DIHEDRAL>
0

>  <SCORE.SYSTEM.SOLV>
0

>  <SCORE.SYSTEM.norm>
0

>  <SCORE.heavy>
27

>  <SCORE.norm>
-0.709824

>  <RMSD>
5.185

$$$$
ligand
 OpenBabel11021811483D
libRbt.so/2013.1/901 2013/11/27
 27 29  0  0  0  0  0  0  0  0999 V2000
   48.1064   55.3884   27.6816 N   0  0  0  0  0  0  0  0  0  0  0  0
   47.2436   56.4621   28.1722 C   0  0  2  0  0  0  0  0  0  0  0  0
   46.3103   56.8883   27.0761 C   0  0  0  0  0  0  0  0  0  0  0  0
   45.0972   56.8386   27.2504 O   0  0  0  0  0  0  0  0  0  0  0  0
   48.0845   57.6617   28.6069 C   0  0  0  0  0  0  0  0  0  0  0  0
   48.7422   57.3443   29.9375 C   0  0  0  0  0  0  0  0  0  0  0  0
   47.6409   57.5589   31.3720 S   0  0  2  0  0  0  0  0  0  0  0  0
   47.8163   59.3108   31.8215 C   0  0  0  0  0  0  0  0  0  0  0  0
   48.7199   57.0470   32.8409 C   0  0  0  0  0  0  0  0  0  0  0  0
   48.9778   55.5069   33.1194 C   0  0  2  0  0  0  0  0  0  0  0  0
   49.6856   54.7605   32.1554 O   0  0  0  0  0  0  0  0  0  0  0  0
   47.9044   54.6456   33.6534 C   0  0  1  0  0  0  0  0  0  0  0  0
   46.8335   55.3932   34.2312 O   0  0  0  0  0  0  0  0  0  0  0  0
   47.5584   53.9075   32.2748 C   0  0  2  0  0  0  0  0  0  0  0  0
   46.7212   52.8124   32.4957 O   0  0  0  0  0  0  0  0  0  0  0  0
   48.9587   53.4905   31.8292 C   0  0  1  0  0  0  0  0  0  0  0  0
   46.7648   57.3234   26.0258 O   0  0  0  0  0  0  0  0  0  0  0  0
   46.7666   51.8223   27.5231 N   0  0  0  0  0  0  0  0  0  0  0  0
   46.2818   51.9417   28.7619 C   0  0  0  0  0  0  0  0  0  0  0  0
   47.0266   52.4304   29.7493 N   0  0  0  0  0  0  0  0  0  0  0  0
   48.3241   52.7237   29.5687 C   0  0  0  0  0  0  0  0  0  0  0  0
   48.9003   52.5608   28.2823 C   0  0  0  0  0  0  0  0  0  0  0  0
   48.0548   52.0957   27.2371 C   0  0  0  0  0  0  0  0  0  0  0  0
   48.5351   51.9257   25.9544 N   0  0  0  0  0  0  0  0  0  0  0  0
   50.1939   52.9151   28.3770 N   0  0  0  0  0  0  0  0  0  0  0  0
   50.4565   53.2724   29.6057 C   0  0  0  0  0  0  0  0  0  0  0  0
   49.3382   53.1861   30.3868 N   0  0  0  0  0  0  0  0  0  0  0  0
  2  1  1  6  0  0  0
  2  3  1  0  0  0  0
  2  5  1  0  0  0  0
  3  4  1  0  0  0  0
  3 17  1  0  0  0  0
  5  6  1  0  0  0  0
  7  6  1  6  0  0  0
  7  8  1  0  0  0  0
  7  9  1  0  0  0  0
 10  9  1  6  0  0  0
 10 11  1  0  0  0  0
 10 12  1  0  0  0  0
 11 16  1  0  0  0  0
 12 13  1  6  0  0  0
 12 14  1  0  0  0  0
 14 15  1  1  0  0  0
 14 16  1  0  0  0  0
 16 27  1  6  0  0  0
 18 19  2  0  0  0  0
 18 23  1  0  0  0  0
 19 20  1  0  0  0  0
 20 21  2  0  0  0  0
 21 22  1  0  0  0  0
 21 27  1  0  0  0  0
 22 23  2  0  0  0  0
 22 25  1  0  0  0  0
 23 24  1  0  0  0  0
 25 26  2  0  0  0  0
 26 27  1  0  0  0  0
M  END
>  <CHROM.1>
122.26931562,-75.13968067,-80.23108720,-87.15811004,-77.04656120,64.06513929
-139.07777452,47.92036200,54.91781298,29.96097365,1.74996045,1.32579386,-2.29552220

>  <Name>
ligand

>  <RI>
0

>  <Rbt.Current_Directory>
/home/itssahil/PROJECTS/Mol_Feturizer/New_Systems/rnas/3IQR

>  <Rbt.Executable>
rbdock ($Id: //depot/dev/client3/rdock/2013.1/src/exe/rbdock.cxx#4 $)

>  <Rbt.Library>
libRbt.so (2013.1, Build901 2013/11/27)

>  <Rbt.Parameter_File>
/export/apps/rDock/src/rDock_2013.1_src/data/scripts/dock_solv.prm

>  <Rbt.Receptor>
prm/pocket_docking_6.prm

>  <SCORE>
-18.6036

>  <SCORE.INTER>
-13.5859

>  <SCORE.INTER.CONST>
1

>  <SCORE.INTER.POLAR>
0

>  <SCORE.INTER.ROT>
7

>  <SCORE.INTER.SOLV>
8.99539

>  <SCORE.INTER.VDW>
-20.3224

>  <SCORE.INTER.norm>
-0.50318

>  <SCORE.INTRA>
-5.01778

>  <SCORE.INTRA.DIHEDRAL>
-2.153

>  <SCORE.INTRA.DIHEDRAL.0>
9.29433

>  <SCORE.INTRA.POLAR>
0

>  <SCORE.INTRA.POLAR.0>
0

>  <SCORE.INTRA.REPUL>
0

>  <SCORE.INTRA.REPUL.0>
0

>  <SCORE.INTRA.SOLV>
2.41026

>  <SCORE.INTRA.SOLV.lig_0>
-48.5102

>  <SCORE.INTRA.VDW>
-5.14641

>  <SCORE.INTRA.VDW.0>
0.379549

>  <SCORE.INTRA.norm>
-0.185844

>  <SCORE.RESTR>
0

>  <SCORE.RESTR.CAVITY>
0

>  <SCORE.RESTR.norm>
0

>  <SCORE.SYSTEM>
0

>  <SCORE.SYSTEM.CONST>
0

>  <SCORE.SYSTEM.DIHEDRAL>
0

>  <SCORE.SYSTEM.SOLV>
0

>  <SCORE.SYSTEM.norm>
0

>  <SCORE.heavy>
27

>  <SCORE.norm>
-0.689024

>  <RMSD>
5.186

$$$$
ligand
 OpenBabel11021811483D
libRbt.so/2013.1/901 2013/11/27
 27 29  0  0  0  0  0  0  0  0999 V2000
   51.3472   53.4022   23.9142 N   0  0  0  0  0  0  0  0  0  0  0  0
   51.7510   52.8980   25.2260 C   0  0  2  0  0  0  0  0  0  0  0  0
   51.7506   51.3968   25.2020 C   0  0  0  0  0  0  0  0  0  0  0  0
   52.7939   50.7807   25.3923 O   0  0  0  0  0  0  0  0  0  0  0  0
   50.7792   53.3807   26.3020 C   0  0  0  0  0  0  0  0  0  0  0  0
   51.3721   53.0853   27.6677 C   0  0  0  0  0  0  0  0  0  0  0  0
   50.1331   52.9677   28.9973 S   0  0  2  0  0  0  0  0  0  0  0  0
   48.9040   51.7854   28.3699 C   0  0  0  0  0  0  0  0  0  0  0  0
   48.9626   54.4127   28.6428 C   0  0  0  0  0  0  0  0  0  0  0  0
   49.4115   55.8884   29.0127 C   0  0  2  0  0  0  0  0  0  0  0  0
   49.8108   56.1555   30.3380 O   0  0  0  0  0  0  0  0  0  0  0  0
   48.6440   57.0544   28.5324 C   0  0  1  0  0  0  0  0  0  0  0  0
   47.7746   56.7328   27.4459 O   0  0  0  0  0  0  0  0  0  0  0  0
   47.9140   57.3781   29.9208 C   0  0  2  0  0  0  0  0  0  0  0  0
   47.2815   58.6216   29.8697 O   0  0  0  0  0  0  0  0  0  0  0  0
   49.1126   57.3720   30.8676 C   0  0  1  0  0  0  0  0  0  0  0  0
   50.6995   50.7920   25.0332 O   0  0  0  0  0  0  0  0  0  0  0  0
   48.5315   53.4943   34.1474 N   0  0  0  0  0  0  0  0  0  0  0  0
   48.5019   53.5226   32.8123 C   0  0  0  0  0  0  0  0  0  0  0  0
   48.7050   54.6531   32.1423 N   0  0  0  0  0  0  0  0  0  0  0  0
   48.8421   55.8283   32.7766 C   0  0  0  0  0  0  0  0  0  0  0  0
   48.8249   55.8578   34.1951 C   0  0  0  0  0  0  0  0  0  0  0  0
   48.6686   54.6191   34.8769 C   0  0  0  0  0  0  0  0  0  0  0  0
   48.6570   54.5611   36.2558 N   0  0  0  0  0  0  0  0  0  0  0  0
   48.9745   57.1406   34.5692 N   0  0  0  0  0  0  0  0  0  0  0  0
   49.0749   57.8931   33.5062 C   0  0  0  0  0  0  0  0  0  0  0  0
   49.0114   57.1384   32.3684 N   0  0  0  0  0  0  0  0  0  0  0  0
  2  1  1  6  0  0  0
  2  3  1  0  0  0  0
  2  5  1  0  0  0  0
  3  4  1  0  0  0  0
  3 17  1  0  0  0  0
  5  6  1  0  0  0  0
  7  6  1  6  0  0  0
  7  8  1  0  0  0  0
  7  9  1  0  0  0  0
 10  9  1  1  0  0  0
 10 11  1  0  0  0  0
 10 12  1  0  0  0  0
 11 16  1  0  0  0  0
 12 13  1  6  0  0  0
 12 14  1  0  0  0  0
 14 15  1  6  0  0  0
 14 16  1  0  0  0  0
 16 27  1  1  0  0  0
 18 19  2  0  0  0  0
 18 23  1  0  0  0  0
 19 20  1  0  0  0  0
 20 21  2  0  0  0  0
 21 22  1  0  0  0  0
 21 27  1  0  0  0  0
 22 23  2  0  0  0  0
 22 25  1  0  0  0  0
 23 24  1  0  0  0  0
 25 26  2  0  0  0  0
 26 27  1  0  0  0  0
M  END
>  <CHROM.1>
117.87814666,-168.59419553,-156.79963799,51.68295006,-76.49802308,-54.91329754
-33.68544706,49.53122279,54.65591957,29.77809038,0.69339499,1.19475217,-1.19044914

>  <Name>
ligand

>  <RI>
0

>  <Rbt.Current_Directory>
/home/itssahil/PROJECTS/Mol_Feturizer/New_Systems/rnas/3IQR

>  <Rbt.Executable>
rbdock ($Id: //depot/dev/client3/rdock/2013.1/src/exe/rbdock.cxx#4 $)

>  <Rbt.Library>
libRbt.so (2013.1, Build901 2013/11/27)

>  <Rbt.Parameter_File>
/export/apps/rDock/src/rDock_2013.1_src/data/scripts/dock_solv.prm

>  <Rbt.Receptor>
prm/pocket_docking_7.prm

>  <SCORE>
-19.2356

>  <SCORE.INTER>
-14.8563

>  <SCORE.INTER.CONST>
1

>  <SCORE.INTER.POLAR>
0

>  <SCORE.INTER.ROT>
7

>  <SCORE.INTER.SOLV>
17.0861

>  <SCORE.INTER.VDW>
-23.8662

>  <SCORE.INTER.norm>
-0.550233

>  <SCORE.INTRA>
-4.37926

>  <SCORE.INTRA.DIHEDRAL>
-2.56212

>  <SCORE.INTRA.DIHEDRAL.0>
9.29433

>  <SCORE.INTRA.POLAR>
0

>  <SCORE.INTRA.POLAR.0>
0

>  <SCORE.INTRA.REPUL>
0

>  <SCORE.INTRA.REPUL.0>
0

>  <SCORE.INTRA.SOLV>
-1.87762

>  <SCORE.INTRA.SOLV.lig_0>
-48.5102

>  <SCORE.INTRA.VDW>
-2.15939

>  <SCORE.INTRA.VDW.0>
0.379549

>  <SCORE.INTRA.norm>
-0.162195

>  <SCORE.RESTR>
0

>  <SCORE.RESTR.CAVITY>
0

>  <SCORE.RESTR.norm>
0

>  <SCORE.SYSTEM>
0

>  <SCORE.SYSTEM.CONST>
0

>  <SCORE.SYSTEM.DIHEDRAL>
0

>  <SCORE.SYSTEM.SOLV>
0

>  <SCORE.SYSTEM.norm>
0

>  <SCORE.heavy>
27

>  <SCORE.norm>
-0.712428

>  <RMSD>
5.189

$$$$
ligand
 OpenBabel11021811483D
libRbt.so/2013.1/901 2013/11/27
 27 29  0  0  0  0  0  0  0  0999 V2000
   49.6456   51.7791   26.4273 N   0  0  0  0  0  0  0  0  0  0  0  0
   48.7779   52.4343   27.4049 C   0  0  2  0  0  0  0  0  0  0  0  0
   48.9896   51.8093   28.7535 C   0  0  0  0  0  0  0  0  0  0  0  0
   48.7966   50.6081   28.9093 O   0  0  0  0  0  0  0  0  0  0  0  0
   47.3119   52.2739   27.0047 C   0  0  0  0  0  0  0  0  0  0  0  0
   46.4891   53.3309   27.7187 C   0  0  0  0  0  0  0  0  0  0  0  0
   46.1527   52.9445   29.4663 S   0  0  2  0  0  0  0  0  0  0  0  0
   44.3694   53.2346   29.6607 C   0  0  0  0  0  0  0  0  0  0  0  0
   46.5407   54.5662   30.3625 C   0  0  0  0  0  0  0  0  0  0  0  0
   48.0008   54.8124   30.9315 C   0  0  2  0  0  0  0  0  0  0  0  0
   48.3905   54.1244   32.0986 O   0  0  0  0  0  0  0  0  0  0  0  0
   48.5626   56.1755   31.0061 C   0  0  1  0  0  0  0  0  0  0  0  0
   47.8569   57.1085   30.1869 O   0  0  0  0  0  0  0  0  0  0  0  0
   48.3697   56.3673   32.5845 C   0  0  2  0  0  0  0  0  0  0  0  0
   49.0535   57.4987   33.0333 O   0  0  0  0  0  0  0  0  0  0  0  0
   48.9917   55.0691   33.0955 C   0  0  1  0  0  0  0  0  0  0  0  0
   49.3945   52.4944   29.6840 O   0  0  0  0  0  0  0  0  0  0  0  0
   44.9559   53.3890   35.7452 N   0  0  0  0  0  0  0  0  0  0  0  0
   45.0305   54.0089   34.5644 C   0  0  0  0  0  0  0  0  0  0  0  0
   46.2034   54.3430   34.0344 N   0  0  0  0  0  0  0  0  0  0  0  0
   47.3515   54.1687   34.7079 C   0  0  0  0  0  0  0  0  0  0  0  0
   47.3188   53.5642   35.9911 C   0  0  0  0  0  0  0  0  0  0  0  0
   46.0512   53.1631   36.4971 C   0  0  0  0  0  0  0  0  0  0  0  0
   45.9364   52.5543   37.7304 N   0  0  0  0  0  0  0  0  0  0  0  0
   48.5850   53.5142   36.4409 N   0  0  0  0  0  0  0  0  0  0  0  0
   49.3825   54.0392   35.5494 C   0  0  0  0  0  0  0  0  0  0  0  0
   48.6805   54.4515   34.4516 N   0  0  0  0  0  0  0  0  0  0  0  0
  2  1  1  6  0  0  0
  2  3  1  0  0  0  0
  2  5  1  0  0  0  0
  3  4  1  0  0  0  0
  3 17  1  0  0  0  0
  5  6  1  0  0  0  0
  7  6  1  6  0  0  0
  7  8  1  0  0  0  0
  7  9  1  0  0  0  0
 10  9  1  1  0  0  0
 10 11  1  0  0  0  0
 10 12  1  0  0  0  0
 11 16  1  0  0  0  0
 12 13  1  6  0  0  0
 12 14  1  0  0  0  0
 14 15  1  1  0  0  0
 14 16  1  0  0  0  0
 16 27  1  1  0  0  0
 18 19  2  0  0  0  0
 18 23  1  0  0  0  0
 19 20  1  0  0  0  0
 20 21  2  0  0  0  0
 21 22  1  0  0  0  0
 21 27  1  0  0  0  0
 22 23  2  0  0  0  0
 22 25  1  0  0  0  0
 23 24  1  0  0  0  0
 25 26  2  0  0  0  0
 26 27  1  0  0  0  0
M  END
>  <CHROM.1>
-58.63485976,-160.38915353,-77.82592765,-131.97723694,-91.75330180,-74.61997181
-54.39237936,47.54774442,53.81302904,31.78717854,-1.39583069,0.91092549,1.25055785

>  <Name>
ligand

>  <RI>
0

>  <Rbt.Current_Directory>
/home/itssahil/PROJECTS/Mol_Feturizer/New_Systems/rnas/3IQR

>  <Rbt.Executable>
rbdock ($Id: //depot/dev/client3/rdock/2013.1/src/exe/rbdock.cxx#4 $)

>  <Rbt.Library>
libRbt.so (2013.1, Build901 2013/11/27)

>  <Rbt.Parameter_File>
/export/apps/rDock/src/rDock_2013.1_src/data/scripts/dock_solv.prm

>  <Rbt.Receptor>
prm/pocket_docking_7.prm

>  <SCORE>
-13.8164

>  <SCORE.INTER>
-10.0283

>  <SCORE.INTER.CONST>
1

>  <SCORE.INTER.POLAR>
0

>  <SCORE.INTER.ROT>
7

>  <SCORE.INTER.SOLV>
11.0546

>  <SCORE.INTER.VDW>
-18.6371

>  <SCORE.INTER.norm>
-0.371418

>  <SCORE.INTRA>
-3.78808

>  <SCORE.INTRA.DIHEDRAL>
3.0454

>  <SCORE.INTRA.DIHEDRAL.0>
9.29433

>  <SCORE.INTRA.POLAR>
0

>  <SCORE.INTRA.POLAR.0>
0

>  <SCORE.INTRA.REPUL>
0

>  <SCORE.INTRA.REPUL.0>
0

>  <SCORE.INTRA.SOLV>
-1.67762

>  <SCORE.INTRA.SOLV.lig_0>
-48.5102

>  <SCORE.INTRA.VDW>
-4.47197

>  <SCORE.INTRA.VDW.0>
0.379549

>  <SCORE.INTRA.norm>
-0.140299

>  <SCORE.RESTR>
0

>  <SCORE.RESTR.CAVITY>
0

>  <SCORE.RESTR.norm>
0

>  <SCORE.SYSTEM>
0

>  <SCORE.SYSTEM.CONST>
0

>  <SCORE.SYSTEM.DIHEDRAL>
0

>  <SCORE.SYSTEM.SOLV>
0

>  <SCORE.SYSTEM.norm>
0

>  <SCORE.heavy>
27

>  <SCORE.norm>
-0.511717

>  <RMSD>
5.190

$$$$
ligand
 OpenBabel11021811483D
libRbt.so/2013.1/901 2013/11/27
 27 29  0  0  0  0  0  0  0  0999 V2000
   47.9094   51.6629   25.5332 N   0  0  0  0  0  0  0  0  0  0  0  0
   49.3686   51.7512   25.5068 C   0  0  2  0  0  0  0  0  0  0  0  0
   49.9348   50.4553   25.0028 C   0  0  0  0  0  0  0  0  0  0  0  0
   49.1985   49.4886   24.8360 O   0  0  0  0  0  0  0  0  0  0  0  0
   49.9093   52.0202   26.9106 C   0  0  0  0  0  0  0  0  0  0  0  0
   49.4177   53.3793   27.3743 C   0  0  0  0  0  0  0  0  0  0  0  0
   50.2680   54.0011   28.8600 S   0  0  2  0  0  0  0  0  0  0  0  0
   49.7106   52.9025   30.1959 C   0  0  0  0  0  0  0  0  0  0  0  0
   49.1270   55.3782   29.4812 C   0  0  0  0  0  0  0  0  0  0  0  0
   49.5656   56.2489   30.7324 C   0  0  2  0  0  0  0  0  0  0  0  0
   49.6976   55.6089   31.9815 O   0  0  0  0  0  0  0  0  0  0  0  0
   48.9739   57.5801   30.9712 C   0  0  1  0  0  0  0  0  0  0  0  0
   48.3307   58.1135   29.8131 O   0  0  0  0  0  0  0  0  0  0  0  0
   47.9922   57.1347   32.1557 C   0  0  2  0  0  0  0  0  0  0  0  0
   47.4483   58.2506   32.7944 O   0  0  0  0  0  0  0  0  0  0  0  0
   48.9690   56.3707   33.0476 C   0  0  1  0  0  0  0  0  0  0  0  0
   51.1239   50.3805   24.7205 O   0  0  0  0  0  0  0  0  0  0  0  0
   44.6984   54.1927   34.8221 N   0  0  0  0  0  0  0  0  0  0  0  0
   44.8745   55.2059   33.9697 C   0  0  0  0  0  0  0  0  0  0  0  0
   46.0926   55.6056   33.6166 N   0  0  0  0  0  0  0  0  0  0  0  0
   47.1925   55.0813   34.1799 C   0  0  0  0  0  0  0  0  0  0  0  0
   47.0551   54.0393   35.1332 C   0  0  0  0  0  0  0  0  0  0  0  0
   45.7382   53.5961   35.4377 C   0  0  0  0  0  0  0  0  0  0  0  0
   45.5207   52.5768   36.3425 N   0  0  0  0  0  0  0  0  0  0  0  0
   48.2925   53.7037   35.5384 N   0  0  0  0  0  0  0  0  0  0  0  0
   49.1681   54.4517   34.9219 C   0  0  0  0  0  0  0  0  0  0  0  0
   48.5501   55.3150   34.0610 N   0  0  0  0  0  0  0  0  0  0  0  0
  2  1  1  1  0  0  0
  2  3  1  0  0  0  0
  2  5  1  0  0  0  0
  3  4  1  0  0  0  0
  3 17  1  0  0  0  0
  5  6  1  0  0  0  0
  7  6  1  6  0  0  0
  7  8  1  0  0  0  0
  7  9  1  0  0  0  0
 10  9  1  6  0  0  0
 10 11  1  0  0  0  0
 10 12  1  0  0  0  0
 11 16  1  0  0  0  0
 12 13  1  6  0  0  0
 12 14  1  0  0  0  0
 14 15  1  1  0  0  0
 14 16  1  0  0  0  0
 16 27  1  1  0  0  0
 18 19  2  0  0  0  0
 18 23  1  0  0  0  0
 19 20  1  0  0  0  0
 20 21  2  0  0  0  0
 21 22  1  0  0  0  0
 21 27  1  0  0  0  0
 22 23  2  0  0  0  0
 22 25  1  0  0  0  0
 23 24  1  0  0  0  0
 25 26  2  0  0  0  0
 26 27  1  0  0  0  0
M  END
>  <CHROM.1>
-8.22315657,-64.13794608,-167.15735652,-68.93360460,-176.14688784,-64.51389840
-113.05439440,48.43916392,54.22254970,30.81865420,0.88578929,-1.09394241
-2.60724615

>  <Name>
ligand

>  <RI>
0

>  <Rbt.Current_Directory>
/home/itssahil/PROJECTS/Mol_Feturizer/New_Systems/rnas/3IQR

>  <Rbt.Executable>
rbdock ($Id: //depot/dev/client3/rdock/2013.1/src/exe/rbdock.cxx#4 $)

>  <Rbt.Library>
libRbt.so (2013.1, Build901 2013/11/27)

>  <Rbt.Parameter_File>
/export/apps/rDock/src/rDock_2013.1_src/data/scripts/dock_solv.prm

>  <Rbt.Receptor>
prm/pocket_docking_7.prm

>  <SCORE>
-21.0672

>  <SCORE.INTER>
-16.2543

>  <SCORE.INTER.CONST>
1

>  <SCORE.INTER.POLAR>
0

>  <SCORE.INTER.ROT>
7

>  <SCORE.INTER.SOLV>
14.2791

>  <SCORE.INTER.VDW>
-23.8625

>  <SCORE.INTER.norm>
-0.60201

>  <SCORE.INTRA>
-4.8129

>  <SCORE.INTRA.DIHEDRAL>
-4.19207

>  <SCORE.INTRA.DIHEDRAL.0>
9.29433

>  <SCORE.INTRA.POLAR>
0

>  <SCORE.INTRA.POLAR.0>
0

>  <SCORE.INTRA.REPUL>
0

>  <SCORE.INTRA.REPUL.0>
0

>  <SCORE.INTRA.SOLV>
-1.05986

>  <SCORE.INTRA.SOLV.lig_0>
-48.5102

>  <SCORE.INTRA.VDW>
-2.18694

>  <SCORE.INTRA.VDW.0>
0.379549

>  <SCORE.INTRA.norm>
-0.178256

>  <SCORE.RESTR>
0

>  <SCORE.RESTR.CAVITY>
0

>  <SCORE.RESTR.norm>
0

>  <SCORE.SYSTEM>
0

>  <SCORE.SYSTEM.CONST>
0

>  <SCORE.SYSTEM.DIHEDRAL>
0

>  <SCORE.SYSTEM.SOLV>
0

>  <SCORE.SYSTEM.norm>
0

>  <SCORE.heavy>
27

>  <SCORE.norm>
-0.780265

>  <RMSD>
5.200

$$$$
ligand
 OpenBabel11021811483D
libRbt.so/2013.1/901 2013/11/27
 27 29  0  0  0  0  0  0  0  0999 V2000
   49.1140   57.4824   31.1896 N   0  0  0  0  0  0  0  0  0  0  0  0
   48.0795   58.0350   30.3165 C   0  0  2  0  0  0  0  0  0  0  0  0
   46.8174   57.2377   30.4767 C   0  0  0  0  0  0  0  0  0  0  0  0
   45.7694   57.6445   29.9862 O   0  0  0  0  0  0  0  0  0  0  0  0
   48.5281   57.9725   28.8570 C   0  0  0  0  0  0  0  0  0  0  0  0
   48.5118   56.5252   28.3996 C   0  0  0  0  0  0  0  0  0  0  0  0
   49.8198   55.5027   29.1483 S   0  0  2  0  0  0  0  0  0  0  0  0
   51.1364   55.4609   27.8965 C   0  0  0  0  0  0  0  0  0  0  0  0
   49.3083   53.7342   28.7070 C   0  0  0  0  0  0  0  0  0  0  0  0
   47.7833   53.4152   28.4089 C   0  0  2  0  0  0  0  0  0  0  0  0
   46.8074   53.9218   29.2912 O   0  0  0  0  0  0  0  0  0  0  0  0
   47.3603   52.0604   28.0029 C   0  0  1  0  0  0  0  0  0  0  0  0
   48.4486   51.2569   27.5451 O   0  0  0  0  0  0  0  0  0  0  0  0
   46.7389   51.6312   29.4152 C   0  0  2  0  0  0  0  0  0  0  0  0
   46.0047   50.4498   29.2949 O   0  0  0  0  0  0  0  0  0  0  0  0
   45.8528   52.8416   29.7031 C   0  0  1  0  0  0  0  0  0  0  0  0
   46.8478   56.1627   31.0617 O   0  0  0  0  0  0  0  0  0  0  0  0
   47.6771   53.0762   34.4725 N   0  0  0  0  0  0  0  0  0  0  0  0
   48.2174   52.5889   33.3524 C   0  0  0  0  0  0  0  0  0  0  0  0
   47.5711   52.6511   32.1919 N   0  0  0  0  0  0  0  0  0  0  0  0
   46.3109   53.1074   32.1156 C   0  0  0  0  0  0  0  0  0  0  0  0
   45.6731   53.5852   33.2896 C   0  0  0  0  0  0  0  0  0  0  0  0
   46.4199   53.5608   34.5000 C   0  0  0  0  0  0  0  0  0  0  0  0
   45.8767   54.0221   35.6820 N   0  0  0  0  0  0  0  0  0  0  0  0
   44.4339   53.9730   32.9406 N   0  0  0  0  0  0  0  0  0  0  0  0
   44.2596   53.7682   31.6623 C   0  0  0  0  0  0  0  0  0  0  0  0
   45.3880   53.2452   31.0953 N   0  0  0  0  0  0  0  0  0  0  0  0
  2  1  1  1  0  0  0
  2  3  1  0  0  0  0
  2  5  1  0  0  0  0
  3  4  1  0  0  0  0
  3 17  1  0  0  0  0
  5  6  1  0  0  0  0
  7  6  1  6  0  0  0
  7  8  1  0  0  0  0
  7  9  1  0  0  0  0
 10  9  1  1  0  0  0
 10 11  1  0  0  0  0
 10 12  1  0  0  0  0
 11 16  1  0  0  0  0
 12 13  1  1  0  0  0
 12 14  1  0  0  0  0
 14 15  1  6  0  0  0
 14 16  1  0  0  0  0
 16 27  1  1  0  0  0
 18 19  2  0  0  0  0
 18 23  1  0  0  0  0
 19 20  1  0  0  0  0
 20 21  2  0  0  0  0
 21 22  1  0  0  0  0
 21 27  1  0  0  0  0
 22 23  2  0  0  0  0
 22 25  1  0  0  0  0
 23 24  1  0  0  0  0
 25 26  2  0  0  0  0
 26 27  1  0  0  0  0
M  END
>  <CHROM.1>
169.37966229,71.25060813,-70.45990279,-97.83744461,-24.54982563,-46.40597266
-72.27690176,47.36231134,54.32470462,30.55407362,0.05282844,1.03251801,0.49678629

>  <Name>
ligand

>  <RI>
0

>  <Rbt.Current_Directory>
/home/itssahil/PROJECTS/Mol_Feturizer/New_Systems/rnas/3IQR

>  <Rbt.Executable>
rbdock ($Id: //depot/dev/client3/rdock/2013.1/src/exe/rbdock.cxx#4 $)

>  <Rbt.Library>
libRbt.so (2013.1, Build901 2013/11/27)

>  <Rbt.Parameter_File>
/export/apps/rDock/src/rDock_2013.1_src/data/scripts/dock_solv.prm

>  <Rbt.Receptor>
prm/pocket_docking_6.prm

>  <SCORE>
17.8752

>  <SCORE.INTER>
19.7861

>  <SCORE.INTER.CONST>
1

>  <SCORE.INTER.POLAR>
0

>  <SCORE.INTER.ROT>
7

>  <SCORE.INTER.SOLV>
16.2556

>  <SCORE.INTER.VDW>
-0.494509

>  <SCORE.INTER.norm>
0.732817

>  <SCORE.INTRA>
-2.47789

>  <SCORE.INTRA.DIHEDRAL>
1.03162

>  <SCORE.INTRA.DIHEDRAL.0>
9.29433

>  <SCORE.INTRA.POLAR>
0

>  <SCORE.INTRA.POLAR.0>
0

>  <SCORE.INTRA.REPUL>
0

>  <SCORE.INTRA.REPUL.0>
0

>  <SCORE.INTRA.SOLV>
0.640508

>  <SCORE.INTRA.SOLV.lig_0>
-48.5102

>  <SCORE.INTRA.VDW>
-3.31395

>  <SCORE.INTRA.VDW.0>
0.379549

>  <SCORE.INTRA.norm>
-0.0917736

>  <SCORE.RESTR>
0.567058

>  <SCORE.RESTR.CAVITY>
0.567058

>  <SCORE.RESTR.norm>
0.0210021

>  <SCORE.SYSTEM>
0

>  <SCORE.SYSTEM.CONST>
0

>  <SCORE.SYSTEM.DIHEDRAL>
0

>  <SCORE.SYSTEM.SOLV>
0

>  <SCORE.SYSTEM.norm>
0

>  <SCORE.heavy>
27

>  <SCORE.norm>
0.662046

>  <RMSD>
5.201

$$$$
ligand
 OpenBabel11021811483D
libRbt.so/2013.1/901 2013/11/27
 27 29  0  0  0  0  0  0  0  0999 V2000
   44.8671   56.9403   29.6081 N   0  0  0  0  0  0  0  0  0  0  0  0
   44.2265   55.6590   29.9011 C   0  0  2  0  0  0  0  0  0  0  0  0
   43.3343   55.8129   31.0987 C   0  0  0  0  0  0  0  0  0  0  0  0
   42.2528   55.2354   31.1353 O   0  0  0  0  0  0  0  0  0  0  0  0
   45.2815   54.5940   30.1977 C   0  0  0  0  0  0  0  0  0  0  0  0
   46.2777   54.5571   29.0531 C   0  0  0  0  0  0  0  0  0  0  0  0
   45.7221   53.5713   27.6261 S   0  0  2  0  0  0  0  0  0  0  0  0
   46.6882   52.0357   27.7308 C   0  0  0  0  0  0  0  0  0  0  0  0
   46.8115   54.1906   26.2072 C   0  0  0  0  0  0  0  0  0  0  0  0
   48.1913   54.9006   26.5364 C   0  0  2  0  0  0  0  0  0  0  0  0
   48.8964   54.4946   27.6876 O   0  0  0  0  0  0  0  0  0  0  0  0
   48.3350   56.3649   26.4160 C   0  0  1  0  0  0  0  0  0  0  0  0
   47.2982   56.9583   25.6334 O   0  0  0  0  0  0  0  0  0  0  0  0
   48.2773   56.6845   27.9844 C   0  0  2  0  0  0  0  0  0  0  0  0
   48.6475   58.0071   28.2344 O   0  0  0  0  0  0  0  0  0  0  0  0
   49.3058   55.6826   28.5054 C   0  0  1  0  0  0  0  0  0  0  0  0
   43.7083   56.4822   32.0532 O   0  0  0  0  0  0  0  0  0  0  0  0
   49.0097   57.5055   33.2719 N   0  0  0  0  0  0  0  0  0  0  0  0
   49.0508   58.1362   32.0953 C   0  0  0  0  0  0  0  0  0  0  0  0
   49.1029   57.4591   30.9519 N   0  0  0  0  0  0  0  0  0  0  0  0
   49.2235   56.1222   30.9345 C   0  0  0  0  0  0  0  0  0  0  0  0
   49.2404   55.4105   32.1618 C   0  0  0  0  0  0  0  0  0  0  0  0
   49.1188   56.1653   33.3615 C   0  0  0  0  0  0  0  0  0  0  0  0
   49.1112   55.5464   34.5951 N   0  0  0  0  0  0  0  0  0  0  0  0
   49.3734   54.1059   31.8646 N   0  0  0  0  0  0  0  0  0  0  0  0
   49.4449   53.9620   30.5682 C   0  0  0  0  0  0  0  0  0  0  0  0
   49.3467   55.1711   29.9385 N   0  0  0  0  0  0  0  0  0  0  0  0
  2  1  1  1  0  0  0
  2  3  1  0  0  0  0
  2  5  1  0  0  0  0
  3  4  1  0  0  0  0
  3 17  1  0  0  0  0
  5  6  1  0  0  0  0
  7  6  1  1  0  0  0
  7  8  1  0  0  0  0
  7  9  1  0  0  0  0
 10  9  1  1  0  0  0
 10 11  1  0  0  0  0
 10 12  1  0  0  0  0
 11 16  1  0  0  0  0
 12 13  1  6  0  0  0
 12 14  1  0  0  0  0
 14 15  1  6  0  0  0
 14 16  1  0  0  0  0
 16 27  1  1  0  0  0
 18 19  2  0  0  0  0
 18 23  1  0  0  0  0
 19 20  1  0  0  0  0
 20 21  2  0  0  0  0
 21 22  1  0  0  0  0
 21 27  1  0  0  0  0
 22 23  2  0  0  0  0
 22 25  1  0  0  0  0
 23 24  1  0  0  0  0
 25 26  2  0  0  0  0
 26 27  1  0  0  0  0
M  END
>  <CHROM.1>
141.49704543,-53.34733586,-82.28985429,-104.71829830,21.88866303,31.64320019
-157.53030718,47.27203014,55.51923016,29.66512490,1.95823379,-0.16157409
-1.80070827

>  <Name>
ligand

>  <RI>
0

>  <Rbt.Current_Directory>
/home/itssahil/PROJECTS/Mol_Feturizer/New_Systems/rnas/3IQR

>  <Rbt.Executable>
rbdock ($Id: //depot/dev/client3/rdock/2013.1/src/exe/rbdock.cxx#4 $)

>  <Rbt.Library>
libRbt.so (2013.1, Build901 2013/11/27)

>  <Rbt.Parameter_File>
/export/apps/rDock/src/rDock_2013.1_src/data/scripts/dock_solv.prm

>  <Rbt.Receptor>
prm/pocket_docking_7.prm

>  <SCORE>
-9.16373

>  <SCORE.INTER>
-6.75802

>  <SCORE.INTER.CONST>
1

>  <SCORE.INTER.POLAR>
0

>  <SCORE.INTER.ROT>
7

>  <SCORE.INTER.SOLV>
16.108

>  <SCORE.INTER.VDW>
-18.1414

>  <SCORE.INTER.norm>
-0.250297

>  <SCORE.INTRA>
-2.40571

>  <SCORE.INTRA.DIHEDRAL>
2.62149

>  <SCORE.INTRA.DIHEDRAL.0>
9.29433

>  <SCORE.INTRA.POLAR>
0

>  <SCORE.INTRA.POLAR.0>
0

>  <SCORE.INTRA.REPUL>
0

>  <SCORE.INTRA.REPUL.0>
0

>  <SCORE.INTRA.SOLV>
0.686882

>  <SCORE.INTRA.SOLV.lig_0>
-48.5102

>  <SCORE.INTRA.VDW>
-4.0599

>  <SCORE.INTRA.VDW.0>
0.379549

>  <SCORE.INTRA.norm>
-0.0891005

>  <SCORE.RESTR>
0

>  <SCORE.RESTR.CAVITY>
0

>  <SCORE.RESTR.norm>
0

>  <SCORE.SYSTEM>
0

>  <SCORE.SYSTEM.CONST>
0

>  <SCORE.SYSTEM.DIHEDRAL>
0

>  <SCORE.SYSTEM.SOLV>
0

>  <SCORE.SYSTEM.norm>
0

>  <SCORE.heavy>
27

>  <SCORE.norm>
-0.339397

>  <RMSD>
5.203

$$$$
ligand
 OpenBabel11021811483D
libRbt.so/2013.1/901 2013/11/27
 27 29  0  0  0  0  0  0  0  0999 V2000
   47.1554   53.9360   30.1572 N   0  0  0  0  0  0  0  0  0  0  0  0
   48.5119   53.4262   30.3520 C   0  0  2  0  0  0  0  0  0  0  0  0
   48.9527   53.7143   31.7580 C   0  0  0  0  0  0  0  0  0  0  0  0
   48.9406   52.8215   32.5990 O   0  0  0  0  0  0  0  0  0  0  0  0
   49.4770   54.1005   29.3778 C   0  0  0  0  0  0  0  0  0  0  0  0
   49.2812   55.6038   29.4536 C   0  0  0  0  0  0  0  0  0  0  0  0
   47.7362   56.1839   28.6834 S   0  0  2  0  0  0  0  0  0  0  0  0
   48.0876   56.1795   26.9005 C   0  0  0  0  0  0  0  0  0  0  0  0
   47.8941   58.0696   28.7364 C   0  0  0  0  0  0  0  0  0  0  0  0
   47.4060   58.8569   30.0241 C   0  0  2  0  0  0  0  0  0  0  0  0
   48.0319   58.5802   31.2565 O   0  0  0  0  0  0  0  0  0  0  0  0
   45.9672   59.0567   30.2871 C   0  0  1  0  0  0  0  0  0  0  0  0
   45.1597   58.8409   29.1291 O   0  0  0  0  0  0  0  0  0  0  0  0
   45.8337   57.9445   31.4318 C   0  0  2  0  0  0  0  0  0  0  0  0
   44.6071   58.0549   32.0892 O   0  0  0  0  0  0  0  0  0  0  0  0
   47.0110   58.3296   32.3255 C   0  0  1  0  0  0  0  0  0  0  0  0
   49.3624   54.8305   32.0498 O   0  0  0  0  0  0  0  0  0  0  0  0
   46.3478   53.6359   34.2386 N   0  0  0  0  0  0  0  0  0  0  0  0
   45.5699   54.3738   33.4421 C   0  0  0  0  0  0  0  0  0  0  0  0
   45.9492   55.5815   33.0348 N   0  0  0  0  0  0  0  0  0  0  0  0
   47.0760   56.1522   33.4896 C   0  0  0  0  0  0  0  0  0  0  0  0
   47.9091   55.4293   34.3821 C   0  0  0  0  0  0  0  0  0  0  0  0
   47.5009   54.1157   34.7447 C   0  0  0  0  0  0  0  0  0  0  0  0
   48.2637   53.3419   35.5958 N   0  0  0  0  0  0  0  0  0  0  0  0
   48.9538   56.2208   34.6821 N   0  0  0  0  0  0  0  0  0  0  0  0
   48.8270   57.3610   34.0574 C   0  0  0  0  0  0  0  0  0  0  0  0
   47.6921   57.3747   33.2958 N   0  0  0  0  0  0  0  0  0  0  0  0
  2  1  1  1  0  0  0
  2  3  1  0  0  0  0
  2  5  1  0  0  0  0
  3  4  1  0  0  0  0
  3 17  1  0  0  0  0
  5  6  1  0  0  0  0
  7  6  1  1  0  0  0
  7  8  1  0  0  0  0
  7  9  1  0  0  0  0
 10  9  1  6  0  0  0
 10 11  1  0  0  0  0
 10 12  1  0  0  0  0
 11 16  1  0  0  0  0
 12 13  1  6  0  0  0
 12 14  1  0  0  0  0
 14 15  1  1  0  0  0
 14 16  1  0  0  0  0
 16 27  1  1  0  0  0
 18 19  2  0  0  0  0
 18 23  1  0  0  0  0
 19 20  1  0  0  0  0
 20 21  2  0  0  0  0
 21 22  1  0  0  0  0
 21 27  1  0  0  0  0
 22 23  2  0  0  0  0
 22 25  1  0  0  0  0
 23 24  1  0  0  0  0
 25 26  2  0  0  0  0
 26 27  1  0  0  0  0
M  END
>  <CHROM.1>
102.06336955,49.97517350,-72.77506583,-78.45471438,-87.32890557,61.31479415
-120.37010331,47.54433982,56.03465139,31.55114479,-1.84405562,-1.05234244
1.92928973

>  <Name>
ligand

>  <RI>
0

>  <Rbt.Current_Directory>
/home/itssahil/PROJECTS/Mol_Feturizer/New_Systems/rnas/3IQR

>  <Rbt.Executable>
rbdock ($Id: //depot/dev/client3/rdock/2013.1/src/exe/rbdock.cxx#4 $)

>  <Rbt.Library>
libRbt.so (2013.1, Build901 2013/11/27)

>  <Rbt.Parameter_File>
/export/apps/rDock/src/rDock_2013.1_src/data/scripts/dock_solv.prm

>  <Rbt.Receptor>
prm/pocket_docking_3.prm

>  <SCORE>
-16.4868

>  <SCORE.INTER>
-12.9006

>  <SCORE.INTER.CONST>
1

>  <SCORE.INTER.POLAR>
0

>  <SCORE.INTER.ROT>
7

>  <SCORE.INTER.SOLV>
12.6656

>  <SCORE.INTER.VDW>
-21.0889

>  <SCORE.INTER.norm>
-0.477801

>  <SCORE.INTRA>
-3.6039

>  <SCORE.INTRA.DIHEDRAL>
-3.07599

>  <SCORE.INTRA.DIHEDRAL.0>
9.29433

>  <SCORE.INTRA.POLAR>
0

>  <SCORE.INTRA.POLAR.0>
0

>  <SCORE.INTRA.REPUL>
0

>  <SCORE.INTRA.REPUL.0>
0

>  <SCORE.INTRA.SOLV>
2.74161

>  <SCORE.INTRA.SOLV.lig_0>
-48.5102

>  <SCORE.INTRA.VDW>
-3.43671

>  <SCORE.INTRA.VDW.0>
0.379549

>  <SCORE.INTRA.norm>
-0.133478

>  <SCORE.RESTR>
0.0177064

>  <SCORE.RESTR.CAVITY>
0.0177064

>  <SCORE.RESTR.norm>
0.000655792

>  <SCORE.SYSTEM>
0

>  <SCORE.SYSTEM.CONST>
0

>  <SCORE.SYSTEM.DIHEDRAL>
0

>  <SCORE.SYSTEM.SOLV>
0

>  <SCORE.SYSTEM.norm>
0

>  <SCORE.heavy>
27

>  <SCORE.norm>
-0.610623

>  <RMSD>
5.207

$$$$
ligand
 OpenBabel11021811483D
libRbt.so/2013.1/901 2013/11/27
 27 29  0  0  0  0  0  0  0  0999 V2000
   46.0870   58.8652   29.6723 N   0  0  0  0  0  0  0  0  0  0  0  0
   46.6990   57.5379   29.6341 C   0  0  2  0  0  0  0  0  0  0  0  0
   48.1775   57.6795   29.4143 C   0  0  0  0  0  0  0  0  0  0  0  0
   48.9642   57.2951   30.2731 O   0  0  0  0  0  0  0  0  0  0  0  0
   46.1018   56.7108   28.4964 C   0  0  0  0  0  0  0  0  0  0  0  0
   44.6135   56.5405   28.7416 C   0  0  0  0  0  0  0  0  0  0  0  0
   44.2182   55.3820   30.0901 S   0  0  2  0  0  0  0  0  0  0  0  0
   42.4223   55.5429   30.3156 C   0  0  0  0  0  0  0  0  0  0  0  0
   44.5323   56.3989   31.6557 C   0  0  0  0  0  0  0  0  0  0  0  0
   45.7812   56.0550   32.5712 C   0  0  2  0  0  0  0  0  0  0  0  0
   47.0150   55.7808   31.9468 O   0  0  0  0  0  0  0  0  0  0  0  0
   45.6462   55.1369   33.7193 C   0  0  1  0  0  0  0  0  0  0  0  0
   44.2879   54.9480   34.1177 O   0  0  0  0  0  0  0  0  0  0  0  0
   46.3384   53.8708   33.0243 C   0  0  2  0  0  0  0  0  0  0  0  0
   46.6016   52.8723   33.9637 O   0  0  0  0  0  0  0  0  0  0  0  0
   47.6140   54.5173   32.4874 C   0  0  1  0  0  0  0  0  0  0  0  0
   48.5935   58.1410   28.3593 O   0  0  0  0  0  0  0  0  0  0  0  0
   46.9477   51.6797   28.2880 N   0  0  0  0  0  0  0  0  0  0  0  0
   46.0994   52.0060   29.2668 C   0  0  0  0  0  0  0  0  0  0  0  0
   46.4764   52.7900   30.2726 N   0  0  0  0  0  0  0  0  0  0  0  0
   47.7485   53.1983   30.4035 C   0  0  0  0  0  0  0  0  0  0  0  0
   48.7006   52.8311   29.4176 C   0  0  0  0  0  0  0  0  0  0  0  0
   48.2445   52.0444   28.3237 C   0  0  0  0  0  0  0  0  0  0  0  0
   49.1047   51.6588   27.3155 N   0  0  0  0  0  0  0  0  0  0  0  0
   49.8810   53.3583   29.7871 N   0  0  0  0  0  0  0  0  0  0  0  0
   49.7330   54.0072   30.9111 C   0  0  0  0  0  0  0  0  0  0  0  0
   48.4350   53.9539   31.3360 N   0  0  0  0  0  0  0  0  0  0  0  0
  2  1  1  6  0  0  0
  2  3  1  0  0  0  0
  2  5  1  0  0  0  0
  3  4  1  0  0  0  0
  3 17  1  0  0  0  0
  5  6  1  0  0  0  0
  7  6  1  6  0  0  0
  7  8  1  0  0  0  0
  7  9  1  0  0  0  0
 10  9  1  6  0  0  0
 10 11  1  0  0  0  0
 10 12  1  0  0  0  0
 11 16  1  0  0  0  0
 12 13  1  6  0  0  0
 12 14  1  0  0  0  0
 14 15  1  1  0  0  0
 14 16  1  0  0  0  0
 16 27  1  6  0  0  0
 18 19  2  0  0  0  0
 18 23  1  0  0  0  0
 19 20  1  0  0  0  0
 20 21  2  0  0  0  0
 21 22  1  0  0  0  0
 21 27  1  0  0  0  0
 22 23  2  0  0  0  0
 22 25  1  0  0  0  0
 23 24  1  0  0  0  0
 25 26  2  0  0  0  0
 26 27  1  0  0  0  0
M  END
>  <CHROM.1>
116.88417786,-61.37011926,-73.01881135,172.46657667,-109.24625348,43.10876780
-83.75325561,46.69327428,54.92607187,30.52709954,-2.74330292,-0.78359625
2.64193834

>  <Name>
ligand

>  <RI>
0

>  <Rbt.Current_Directory>
/home/itssahil/PROJECTS/Mol_Feturizer/New_Systems/rnas/3IQR

>  <Rbt.Executable>
rbdock ($Id: //depot/dev/client3/rdock/2013.1/src/exe/rbdock.cxx#4 $)

>  <Rbt.Library>
libRbt.so (2013.1, Build901 2013/11/27)

>  <Rbt.Parameter_File>
/export/apps/rDock/src/rDock_2013.1_src/data/scripts/dock_solv.prm

>  <Rbt.Receptor>
prm/pocket_docking_4.prm

>  <SCORE>
-12.4266

>  <SCORE.INTER>
-7.18893

>  <SCORE.INTER.CONST>
1

>  <SCORE.INTER.POLAR>
0

>  <SCORE.INTER.ROT>
7

>  <SCORE.INTER.SOLV>
13.6639

>  <SCORE.INTER.VDW>
-17.6139

>  <SCORE.INTER.norm>
-0.266257

>  <SCORE.INTRA>
-5.23764

>  <SCORE.INTRA.DIHEDRAL>
-0.503545

>  <SCORE.INTRA.DIHEDRAL.0>
9.29433

>  <SCORE.INTRA.POLAR>
0

>  <SCORE.INTRA.POLAR.0>
0

>  <SCORE.INTRA.REPUL>
0

>  <SCORE.INTRA.REPUL.0>
0

>  <SCORE.INTRA.SOLV>
1.39924

>  <SCORE.INTRA.SOLV.lig_0>
-48.5102

>  <SCORE.INTRA.VDW>
-5.68548

>  <SCORE.INTRA.VDW.0>
0.379549

>  <SCORE.INTRA.norm>
-0.193987

>  <SCORE.RESTR>
0

>  <SCORE.RESTR.CAVITY>
0

>  <SCORE.RESTR.norm>
0

>  <SCORE.SYSTEM>
0

>  <SCORE.SYSTEM.CONST>
0

>  <SCORE.SYSTEM.DIHEDRAL>
0

>  <SCORE.SYSTEM.SOLV>
0

>  <SCORE.SYSTEM.norm>
0

>  <SCORE.heavy>
27

>  <SCORE.norm>
-0.460243

>  <RMSD>
5.213

$$$$
ligand
 OpenBabel11021811483D
libRbt.so/2013.1/901 2013/11/27
 27 29  0  0  0  0  0  0  0  0999 V2000
   50.7276   53.4210   27.3309 N   0  0  0  0  0  0  0  0  0  0  0  0
   49.6967   52.9672   28.2631 C   0  0  2  0  0  0  0  0  0  0  0  0
   49.3128   51.5547   27.9289 C   0  0  0  0  0  0  0  0  0  0  0  0
   48.7917   50.8433   28.7815 O   0  0  0  0  0  0  0  0  0  0  0  0
   48.4596   53.8585   28.1611 C   0  0  0  0  0  0  0  0  0  0  0  0
   48.8031   55.2383   28.6921 C   0  0  0  0  0  0  0  0  0  0  0  0
   47.4122   56.4129   28.6416 S   0  0  2  0  0  0  0  0  0  0  0  0
   47.3085   56.9198   26.8996 C   0  0  0  0  0  0  0  0  0  0  0  0
   48.2103   58.0666   29.1023 C   0  0  0  0  0  0  0  0  0  0  0  0
   47.8587   58.7408   30.4945 C   0  0  2  0  0  0  0  0  0  0  0  0
   48.3936   58.1728   31.6686 O   0  0  0  0  0  0  0  0  0  0  0  0
   46.4813   59.1782   30.7955 C   0  0  1  0  0  0  0  0  0  0  0  0
   45.6710   59.2933   29.6252 O   0  0  0  0  0  0  0  0  0  0  0  0
   46.1106   57.9609   31.7681 C   0  0  2  0  0  0  0  0  0  0  0  0
   44.9158   58.2135   32.4447 O   0  0  0  0  0  0  0  0  0  0  0  0
   47.3219   57.9758   32.6985 C   0  0  1  0  0  0  0  0  0  0  0  0
   49.4839   51.1309   26.7931 O   0  0  0  0  0  0  0  0  0  0  0  0
   45.3706   53.7443   34.8002 N   0  0  0  0  0  0  0  0  0  0  0  0
   44.7762   54.7666   34.1792 C   0  0  0  0  0  0  0  0  0  0  0  0
   45.4846   55.7730   33.6756 N   0  0  0  0  0  0  0  0  0  0  0  0
   46.8114   55.8577   33.8618 C   0  0  0  0  0  0  0  0  0  0  0  0
   47.4814   54.8228   34.5642 C   0  0  0  0  0  0  0  0  0  0  0  0
   46.6980   53.7318   35.0326 C   0  0  0  0  0  0  0  0  0  0  0  0
   47.2767   52.6783   35.7110 N   0  0  0  0  0  0  0  0  0  0  0  0
   48.7840   55.1526   34.6133 N   0  0  0  0  0  0  0  0  0  0  0  0
   48.9643   56.2969   34.0095 C   0  0  0  0  0  0  0  0  0  0  0  0
   47.7842   56.7768   33.5145 N   0  0  0  0  0  0  0  0  0  0  0  0
  2  1  1  6  0  0  0
  2  3  1  0  0  0  0
  2  5  1  0  0  0  0
  3  4  1  0  0  0  0
  3 17  1  0  0  0  0
  5  6  1  0  0  0  0
  7  6  1  6  0  0  0
  7  8  1  0  0  0  0
  7  9  1  0  0  0  0
 10  9  1  6  0  0  0
 10 11  1  0  0  0  0
 10 12  1  0  0  0  0
 11 16  1  0  0  0  0
 12 13  1  6  0  0  0
 12 14  1  0  0  0  0
 14 15  1  1  0  0  0
 14 16  1  0  0  0  0
 16 27  1  6  0  0  0
 18 19  2  0  0  0  0
 18 23  1  0  0  0  0
 19 20  1  0  0  0  0
 20 21  2  0  0  0  0
 21 22  1  0  0  0  0
 21 27  1  0  0  0  0
 22 23  2  0  0  0  0
 22 25  1  0  0  0  0
 23 24  1  0  0  0  0
 25 26  2  0  0  0  0
 26 27  1  0  0  0  0
M  END
>  <CHROM.1>
157.92212656,-68.09835844,-179.65357590,-77.23469766,-111.02455303,73.07854803
-138.58396333,47.56714320,55.59135043,31.03681425,-0.33960556,-1.18673412
2.32047041

>  <Name>
ligand

>  <RI>
0

>  <Rbt.Current_Directory>
/home/itssahil/PROJECTS/Mol_Feturizer/New_Systems/rnas/3IQR

>  <Rbt.Executable>
rbdock ($Id: //depot/dev/client3/rdock/2013.1/src/exe/rbdock.cxx#4 $)

>  <Rbt.Library>
libRbt.so (2013.1, Build901 2013/11/27)

>  <Rbt.Parameter_File>
/export/apps/rDock/src/rDock_2013.1_src/data/scripts/dock_solv.prm

>  <Rbt.Receptor>
prm/pocket_docking_5.prm

>  <SCORE>
-19.0996

>  <SCORE.INTER>
-15.0852

>  <SCORE.INTER.CONST>
1

>  <SCORE.INTER.POLAR>
0

>  <SCORE.INTER.ROT>
7

>  <SCORE.INTER.SOLV>
13.5555

>  <SCORE.INTER.VDW>
-22.8419

>  <SCORE.INTER.norm>
-0.558709

>  <SCORE.INTRA>
-4.0161

>  <SCORE.INTRA.DIHEDRAL>
-0.868915

>  <SCORE.INTRA.DIHEDRAL.0>
9.29433

>  <SCORE.INTRA.POLAR>
0

>  <SCORE.INTRA.POLAR.0>
0

>  <SCORE.INTRA.REPUL>
0

>  <SCORE.INTRA.REPUL.0>
0

>  <SCORE.INTRA.SOLV>
-0.744115

>  <SCORE.INTRA.SOLV.lig_0>
-48.5102

>  <SCORE.INTRA.VDW>
-3.20958

>  <SCORE.INTRA.VDW.0>
0.379549

>  <SCORE.INTRA.norm>
-0.148744

>  <SCORE.RESTR>
0.00162403

>  <SCORE.RESTR.CAVITY>
0.00162403

>  <SCORE.RESTR.norm>
6.01493e-05

>  <SCORE.SYSTEM>
0

>  <SCORE.SYSTEM.CONST>
0

>  <SCORE.SYSTEM.DIHEDRAL>
0

>  <SCORE.SYSTEM.SOLV>
0

>  <SCORE.SYSTEM.norm>
0

>  <SCORE.heavy>
27

>  <SCORE.norm>
-0.707393

>  <RMSD>
5.225

$$$$
ligand
 OpenBabel11021811483D
libRbt.so/2013.1/901 2013/11/27
 27 29  0  0  0  0  0  0  0  0999 V2000
   50.6598   53.8674   25.0245 N   0  0  0  0  0  0  0  0  0  0  0  0
   51.7998   53.2865   25.7323 C   0  0  2  0  0  0  0  0  0  0  0  0
   52.4035   52.1988   24.8918 C   0  0  0  0  0  0  0  0  0  0  0  0
   51.6941   51.3017   24.4486 O   0  0  0  0  0  0  0  0  0  0  0  0
   51.3497   52.6946   27.0673 C   0  0  0  0  0  0  0  0  0  0  0  0
   50.8022   53.8097   27.9395 C   0  0  0  0  0  0  0  0  0  0  0  0
   49.9491   53.2205   29.4368 S   0  0  2  0  0  0  0  0  0  0  0  0
   48.4304   52.4387   28.8167 C   0  0  0  0  0  0  0  0  0  0  0  0
   48.9665   54.7329   30.0123 C   0  0  0  0  0  0  0  0  0  0  0  0
   49.5185   55.6105   31.2128 C   0  0  2  0  0  0  0  0  0  0  0  0
   49.6102   55.0190   32.4891 O   0  0  0  0  0  0  0  0  0  0  0  0
   49.0720   57.0056   31.3965 C   0  0  1  0  0  0  0  0  0  0  0  0
   48.4630   57.5486   30.2245 O   0  0  0  0  0  0  0  0  0  0  0  0
   48.0747   56.7199   32.6168 C   0  0  2  0  0  0  0  0  0  0  0  0
   47.6621   57.9146   33.2095 O   0  0  0  0  0  0  0  0  0  0  0  0
   48.9863   55.9009   33.5286 C   0  0  1  0  0  0  0  0  0  0  0  0
   53.5962   52.2341   24.6172 O   0  0  0  0  0  0  0  0  0  0  0  0
   44.5861   53.8290   35.1024 N   0  0  0  0  0  0  0  0  0  0  0  0
   44.8334   54.7564   34.1735 C   0  0  0  0  0  0  0  0  0  0  0  0
   46.0759   55.1420   33.8983 N   0  0  0  0  0  0  0  0  0  0  0  0
   47.1219   54.6964   34.6120 C   0  0  0  0  0  0  0  0  0  0  0  0
   46.9038   53.7510   35.6473 C   0  0  0  0  0  0  0  0  0  0  0  0
   45.5679   53.3154   35.8694 C   0  0  0  0  0  0  0  0  0  0  0  0
   45.2745   52.3863   36.8470 N   0  0  0  0  0  0  0  0  0  0  0  0
   48.0999   53.4800   36.1985 N   0  0  0  0  0  0  0  0  0  0  0  0
   49.0234   54.1799   35.5955 C   0  0  0  0  0  0  0  0  0  0  0  0
   48.4824   54.9425   34.5985 N   0  0  0  0  0  0  0  0  0  0  0  0
  2  1  1  6  0  0  0
  2  3  1  0  0  0  0
  2  5  1  0  0  0  0
  3  4  1  0  0  0  0
  3 17  1  0  0  0  0
  5  6  1  0  0  0  0
  7  6  1  6  0  0  0
  7  8  1  0  0  0  0
  7  9  1  0  0  0  0
 10  9  1  6  0  0  0
 10 11  1  0  0  0  0
 10 12  1  0  0  0  0
 11 16  1  0  0  0  0
 12 13  1  6  0  0  0
 12 14  1  0  0  0  0
 14 15  1  1  0  0  0
 14 16  1  0  0  0  0
 16 27  1  1  0  0  0
 18 19  2  0  0  0  0
 18 23  1  0  0  0  0
 19 20  1  0  0  0  0
 20 21  2  0  0  0  0
 21 22  1  0  0  0  0
 21 27  1  0  0  0  0
 22 23  2  0  0  0  0
 22 25  1  0  0  0  0
 23 24  1  0  0  0  0
 25 26  2  0  0  0  0
 26 27  1  0  0  0  0
M  END
>  <CHROM.1>
-52.27634512,-62.67915064,169.39352498,-69.39379189,-101.23300498,-64.69207038
-103.23281639,48.89378923,54.25080549,31.09060558,-0.29323573,1.06236276
0.14185527

>  <Name>
ligand

>  <RI>
0

>  <Rbt.Current_Directory>
/home/itssahil/PROJECTS/Mol_Feturizer/New_Systems/rnas/3IQR

>  <Rbt.Executable>
rbdock ($Id: //depot/dev/client3/rdock/2013.1/src/exe/rbdock.cxx#4 $)

>  <Rbt.Library>
libRbt.so (2013.1, Build901 2013/11/27)

>  <Rbt.Parameter_File>
/export/apps/rDock/src/rDock_2013.1_src/data/scripts/dock_solv.prm

>  <Rbt.Receptor>
prm/pocket_docking_7.prm

>  <SCORE>
-19.8254

>  <SCORE.INTER>
-15.8612

>  <SCORE.INTER.CONST>
1

>  <SCORE.INTER.POLAR>
0

>  <SCORE.INTER.ROT>
7

>  <SCORE.INTER.SOLV>
12.851

>  <SCORE.INTER.VDW>
-23.1244

>  <SCORE.INTER.norm>
-0.587451

>  <SCORE.INTRA>
-3.96418

>  <SCORE.INTRA.DIHEDRAL>
-2.18154

>  <SCORE.INTRA.DIHEDRAL.0>
9.29433

>  <SCORE.INTRA.POLAR>
0

>  <SCORE.INTRA.POLAR.0>
0

>  <SCORE.INTRA.REPUL>
0

>  <SCORE.INTRA.REPUL.0>
0

>  <SCORE.INTRA.SOLV>
-0.993737

>  <SCORE.INTRA.SOLV.lig_0>
-48.5102

>  <SCORE.INTRA.VDW>
-2.37654

>  <SCORE.INTRA.VDW.0>
0.379549

>  <SCORE.INTRA.norm>
-0.146821

>  <SCORE.RESTR>
0

>  <SCORE.RESTR.CAVITY>
0

>  <SCORE.RESTR.norm>
0

>  <SCORE.SYSTEM>
0

>  <SCORE.SYSTEM.CONST>
0

>  <SCORE.SYSTEM.DIHEDRAL>
0

>  <SCORE.SYSTEM.SOLV>
0

>  <SCORE.SYSTEM.norm>
0

>  <SCORE.heavy>
27

>  <SCORE.norm>
-0.734272

>  <RMSD>
5.234

$$$$
ligand
 OpenBabel11021811483D
libRbt.so/2013.1/901 2013/11/27
 27 29  0  0  0  0  0  0  0  0999 V2000
   47.1629   52.7938   28.9385 N   0  0  0  0  0  0  0  0  0  0  0  0
   45.7567   53.1577   28.7716 C   0  0  2  0  0  0  0  0  0  0  0  0
   45.0520   52.0758   28.0053 C   0  0  0  0  0  0  0  0  0  0  0  0
   45.6188   51.5177   27.0716 O   0  0  0  0  0  0  0  0  0  0  0  0
   45.6367   54.4732   28.0033 C   0  0  0  0  0  0  0  0  0  0  0  0
   46.2696   55.5815   28.8250 C   0  0  0  0  0  0  0  0  0  0  0  0
   46.2989   57.1961   27.9830 S   0  0  2  0  0  0  0  0  0  0  0  0
   47.2941   56.9117   26.4893 C   0  0  0  0  0  0  0  0  0  0  0  0
   47.7446   58.0999   28.8057 C   0  0  0  0  0  0  0  0  0  0  0  0
   47.5100   58.8573   30.1796 C   0  0  2  0  0  0  0  0  0  0  0  0
   48.1703   58.3796   31.3298 O   0  0  0  0  0  0  0  0  0  0  0  0
   46.1565   59.2850   30.5849 C   0  0  1  0  0  0  0  0  0  0  0  0
   45.2349   59.3054   29.4942 O   0  0  0  0  0  0  0  0  0  0  0  0
   45.9140   58.1273   31.6648 C   0  0  2  0  0  0  0  0  0  0  0  0
   44.7832   58.3992   32.4371 O   0  0  0  0  0  0  0  0  0  0  0  0
   47.2081   58.2290   32.4697 C   0  0  1  0  0  0  0  0  0  0  0  0
   43.9281   51.7259   28.3421 O   0  0  0  0  0  0  0  0  0  0  0  0
   45.6338   53.9345   34.7522 N   0  0  0  0  0  0  0  0  0  0  0  0
   44.9492   54.8874   34.1139 C   0  0  0  0  0  0  0  0  0  0  0  0
   45.5671   55.9271   33.5613 N   0  0  0  0  0  0  0  0  0  0  0  0
   46.8873   56.1184   33.7119 C   0  0  0  0  0  0  0  0  0  0  0  0
   47.6501   55.1614   34.4300 C   0  0  0  0  0  0  0  0  0  0  0  0
   46.9631   54.0304   34.9520 C   0  0  0  0  0  0  0  0  0  0  0  0
   47.6357   53.0472   35.6489 N   0  0  0  0  0  0  0  0  0  0  0  0
   48.9243   55.5905   34.4364 N   0  0  0  0  0  0  0  0  0  0  0  0
   49.0030   56.7242   33.7924 C   0  0  0  0  0  0  0  0  0  0  0  0
   47.7789   57.0964   33.3116 N   0  0  0  0  0  0  0  0  0  0  0  0
  2  1  1  6  0  0  0
  2  3  1  0  0  0  0
  2  5  1  0  0  0  0
  3  4  1  0  0  0  0
  3 17  1  0  0  0  0
  5  6  1  0  0  0  0
  7  6  1  1  0  0  0
  7  8  1  0  0  0  0
  7  9  1  0  0  0  0
 10  9  1  6  0  0  0
 10 11  1  0  0  0  0
 10 12  1  0  0  0  0
 11 16  1  0  0  0  0
 12 13  1  6  0  0  0
 12 14  1  0  0  0  0
 14 15  1  1  0  0  0
 14 16  1  0  0  0  0
 16 27  1  6  0  0  0
 18 19  2  0  0  0  0
 18 23  1  0  0  0  0
 19 20  1  0  0  0  0
 20 21  2  0  0  0  0
 21 22  1  0  0  0  0
 21 27  1  0  0  0  0
 22 23  2  0  0  0  0
 22 25  1  0  0  0  0
 23 24  1  0  0  0  0
 25 26  2  0  0  0  0
 26 27  1  0  0  0  0
M  END
>  <CHROM.1>
-38.96383148,-63.67250729,176.17541367,-60.82517345,-83.56976803,114.42289464
-133.09423573,46.50486528,55.87816733,30.93600069,2.59945632,-1.33605339
-0.81057654

>  <Name>
ligand

>  <RI>
0

>  <Rbt.Current_Directory>
/home/itssahil/PROJECTS/Mol_Feturizer/New_Systems/rnas/3IQR

>  <Rbt.Executable>
rbdock ($Id: //depot/dev/client3/rdock/2013.1/src/exe/rbdock.cxx#4 $)

>  <Rbt.Library>
libRbt.so (2013.1, Build901 2013/11/27)

>  <Rbt.Parameter_File>
/export/apps/rDock/src/rDock_2013.1_src/data/scripts/dock_solv.prm

>  <Rbt.Receptor>
prm/pocket_docking_7.prm

>  <SCORE>
-18.4429

>  <SCORE.INTER>
-15.5312

>  <SCORE.INTER.CONST>
1

>  <SCORE.INTER.POLAR>
0

>  <SCORE.INTER.ROT>
7

>  <SCORE.INTER.SOLV>
13.4232

>  <SCORE.INTER.VDW>
-23.0952

>  <SCORE.INTER.norm>
-0.57523

>  <SCORE.INTRA>
-2.91171

>  <SCORE.INTRA.DIHEDRAL>
-0.0298888

>  <SCORE.INTRA.DIHEDRAL.0>
9.29433

>  <SCORE.INTRA.POLAR>
0

>  <SCORE.INTRA.POLAR.0>
0

>  <SCORE.INTRA.REPUL>
0

>  <SCORE.INTRA.REPUL.0>
0

>  <SCORE.INTRA.SOLV>
-0.557017

>  <SCORE.INTRA.SOLV.lig_0>
-48.5102

>  <SCORE.INTRA.VDW>
-2.61826

>  <SCORE.INTRA.VDW.0>
0.379549

>  <SCORE.INTRA.norm>
-0.107841

>  <SCORE.RESTR>
0

>  <SCORE.RESTR.CAVITY>
0

>  <SCORE.RESTR.norm>
0

>  <SCORE.SYSTEM>
0

>  <SCORE.SYSTEM.CONST>
0

>  <SCORE.SYSTEM.DIHEDRAL>
0

>  <SCORE.SYSTEM.SOLV>
0

>  <SCORE.SYSTEM.norm>
0

>  <SCORE.heavy>
27

>  <SCORE.norm>
-0.683071

>  <RMSD>
5.237

$$$$
ligand
 OpenBabel11021811483D
libRbt.so/2013.1/901 2013/11/27
 27 29  0  0  0  0  0  0  0  0999 V2000
   47.2800   56.8691   25.4896 N   0  0  0  0  0  0  0  0  0  0  0  0
   47.6622   56.7492   26.8958 C   0  0  2  0  0  0  0  0  0  0  0  0
   47.3130   55.3749   27.3892 C   0  0  0  0  0  0  0  0  0  0  0  0
   46.9989   55.2068   28.5629 O   0  0  0  0  0  0  0  0  0  0  0  0
   46.9195   57.7860   27.7376 C   0  0  0  0  0  0  0  0  0  0  0  0
   47.6581   57.9733   29.0504 C   0  0  0  0  0  0  0  0  0  0  0  0
   46.7479   58.9737   30.2700 S   0  0  2  0  0  0  0  0  0  0  0  0
   47.9917   59.4061   31.5222 C   0  0  0  0  0  0  0  0  0  0  0  0
   45.9922   57.6817   31.4291 C   0  0  0  0  0  0  0  0  0  0  0  0
   46.9474   56.7618   32.2996 C   0  0  2  0  0  0  0  0  0  0  0  0
   48.0576   56.1629   31.6704 O   0  0  0  0  0  0  0  0  0  0  0  0
   46.3898   55.7819   33.2525 C   0  0  1  0  0  0  0  0  0  0  0  0
   45.0213   56.0385   33.5701 O   0  0  0  0  0  0  0  0  0  0  0  0
   46.6521   54.4823   32.3539 C   0  0  2  0  0  0  0  0  0  0  0  0
   46.4563   53.3176   33.0981 O   0  0  0  0  0  0  0  0  0  0  0  0
   48.1181   54.6979   31.9831 C   0  0  1  0  0  0  0  0  0  0  0  0
   47.3032   54.4328   26.6074 O   0  0  0  0  0  0  0  0  0  0  0  0
   46.9754   51.5439   28.1260 N   0  0  0  0  0  0  0  0  0  0  0  0
   46.2593   51.9220   29.1882 C   0  0  0  0  0  0  0  0  0  0  0  0
   46.7448   52.7864   30.0744 N   0  0  0  0  0  0  0  0  0  0  0  0
   48.0087   53.2324   29.9979 C   0  0  0  0  0  0  0  0  0  0  0  0
   48.8279   52.8154   28.9171 C   0  0  0  0  0  0  0  0  0  0  0  0
   48.2521   51.9399   27.9550 C   0  0  0  0  0  0  0  0  0  0  0  0
   48.9779   51.5010   26.8663 N   0  0  0  0  0  0  0  0  0  0  0  0
   50.0299   53.3954   29.0808 N   0  0  0  0  0  0  0  0  0  0  0  0
   50.0162   54.1218   30.1664 C   0  0  0  0  0  0  0  0  0  0  0  0
   48.7914   54.0701   30.7707 N   0  0  0  0  0  0  0  0  0  0  0  0
  2  1  1  6  0  0  0
  2  3  1  0  0  0  0
  2  5  1  0  0  0  0
  3  4  1  0  0  0  0
  3 17  1  0  0  0  0
  5  6  1  0  0  0  0
  7  6  1  6  0  0  0
  7  8  1  0  0  0  0
  7  9  1  0  0  0  0
 10  9  1  6  0  0  0
 10 11  1  0  0  0  0
 10 12  1  0  0  0  0
 11 16  1  0  0  0  0
 12 13  1  6  0  0  0
 12 14  1  0  0  0  0
 14 15  1  1  0  0  0
 14 16  1  0  0  0  0
 16 27  1  6  0  0  0
 18 19  2  0  0  0  0
 18 23  1  0  0  0  0
 19 20  1  0  0  0  0
 20 21  2  0  0  0  0
 21 22  1  0  0  0  0
 21 27  1  0  0  0  0
 22 23  2  0  0  0  0
 22 25  1  0  0  0  0
 23 24  1  0  0  0  0
 25 26  2  0  0  0  0
 26 27  1  0  0  0  0
M  END
>  <CHROM.1>
-148.81729242,-160.51173106,-170.53367581,-165.46506887,64.28944234,-46.07685856
-113.07084800,47.42944535,55.24287041,29.84615828,-0.28661510,1.34378326
-0.64847695

>  <Name>
ligand

>  <RI>
0

>  <Rbt.Current_Directory>
/home/itssahil/PROJECTS/Mol_Feturizer/New_Systems/rnas/3IQR

>  <Rbt.Executable>
rbdock ($Id: //depot/dev/client3/rdock/2013.1/src/exe/rbdock.cxx#4 $)

>  <Rbt.Library>
libRbt.so (2013.1, Build901 2013/11/27)

>  <Rbt.Parameter_File>
/export/apps/rDock/src/rDock_2013.1_src/data/scripts/dock_solv.prm

>  <Rbt.Receptor>
prm/pocket_docking_2.prm

>  <SCORE>
-9.41991

>  <SCORE.INTER>
-7.02111

>  <SCORE.INTER.CONST>
1

>  <SCORE.INTER.POLAR>
0

>  <SCORE.INTER.ROT>
7

>  <SCORE.INTER.SOLV>
17.5001

>  <SCORE.INTER.VDW>
-18.7808

>  <SCORE.INTER.norm>
-0.260041

>  <SCORE.INTRA>
-3.96266

>  <SCORE.INTRA.DIHEDRAL>
-0.935008

>  <SCORE.INTRA.DIHEDRAL.0>
9.29433

>  <SCORE.INTRA.POLAR>
0

>  <SCORE.INTRA.POLAR.0>
0

>  <SCORE.INTRA.REPUL>
0

>  <SCORE.INTRA.REPUL.0>
0

>  <SCORE.INTRA.SOLV>
-0.962178

>  <SCORE.INTRA.SOLV.lig_0>
-48.5102

>  <SCORE.INTRA.VDW>
-3.01407

>  <SCORE.INTRA.VDW.0>
0.379549

>  <SCORE.INTRA.norm>
-0.146765

>  <SCORE.RESTR>
1.56387

>  <SCORE.RESTR.CAVITY>
1.56387

>  <SCORE.RESTR.norm>
0.057921

>  <SCORE.SYSTEM>
0

>  <SCORE.SYSTEM.CONST>
0

>  <SCORE.SYSTEM.DIHEDRAL>
0

>  <SCORE.SYSTEM.SOLV>
0

>  <SCORE.SYSTEM.norm>
0

>  <SCORE.heavy>
27

>  <SCORE.norm>
-0.348886

>  <RMSD>
5.240

$$$$
ligand
 OpenBabel11021811483D
libRbt.so/2013.1/901 2013/11/27
 27 29  0  0  0  0  0  0  0  0999 V2000
   52.4495   50.5159   24.8435 N   0  0  0  0  0  0  0  0  0  0  0  0
   51.3587   51.2814   25.4452 C   0  0  2  0  0  0  0  0  0  0  0  0
   50.1419   51.1817   24.5715 C   0  0  0  0  0  0  0  0  0  0  0  0
   50.1380   51.7086   23.4639 O   0  0  0  0  0  0  0  0  0  0  0  0
   51.7552   52.7507   25.5838 C   0  0  0  0  0  0  0  0  0  0  0  0
   50.6476   53.4920   26.3102 C   0  0  0  0  0  0  0  0  0  0  0  0
   50.4324   52.9775   28.0439 S   0  0  2  0  0  0  0  0  0  0  0  0
   49.2191   51.6268   27.9698 C   0  0  0  0  0  0  0  0  0  0  0  0
   49.1105   54.1640   28.6985 C   0  0  0  0  0  0  0  0  0  0  0  0
   49.5112   55.6563   29.0573 C   0  0  2  0  0  0  0  0  0  0  0  0
   49.8808   55.9505   30.3855 O   0  0  0  0  0  0  0  0  0  0  0  0
   48.7189   56.7940   28.5502 C   0  0  1  0  0  0  0  0  0  0  0  0
   47.8771   56.4347   27.4539 O   0  0  0  0  0  0  0  0  0  0  0  0
   47.9572   57.1133   29.9225 C   0  0  2  0  0  0  0  0  0  0  0  0
   47.2906   58.3376   29.8458 O   0  0  0  0  0  0  0  0  0  0  0  0
   49.1397   57.1527   30.8885 C   0  0  1  0  0  0  0  0  0  0  0  0
   49.1717   50.5388   24.9516 O   0  0  0  0  0  0  0  0  0  0  0  0
   48.4938   53.3111   34.1985 N   0  0  0  0  0  0  0  0  0  0  0  0
   48.4790   53.3268   32.8630 C   0  0  0  0  0  0  0  0  0  0  0  0
   48.6979   54.4493   32.1845 N   0  0  0  0  0  0  0  0  0  0  0  0
   48.8369   55.6295   32.8091 C   0  0  0  0  0  0  0  0  0  0  0  0
   48.8044   55.6727   34.2270 C   0  0  0  0  0  0  0  0  0  0  0  0
   48.6314   54.4418   34.9187 C   0  0  0  0  0  0  0  0  0  0  0  0
   48.6043   54.3971   36.2979 N   0  0  0  0  0  0  0  0  0  0  0  0
   48.9595   56.9579   34.5905 N   0  0  0  0  0  0  0  0  0  0  0  0
   49.0771   57.6994   33.5215 C   0  0  0  0  0  0  0  0  0  0  0  0
   49.0205   56.9343   32.3903 N   0  0  0  0  0  0  0  0  0  0  0  0
  2  1  1  6  0  0  0
  2  3  1  0  0  0  0
  2  5  1  0  0  0  0
  3  4  1  0  0  0  0
  3 17  1  0  0  0  0
  5  6  1  0  0  0  0
  7  6  1  6  0  0  0
  7  8  1  0  0  0  0
  7  9  1  0  0  0  0
 10  9  1  1  0  0  0
 10 11  1  0  0  0  0
 10 12  1  0  0  0  0
 11 16  1  0  0  0  0
 12 13  1  6  0  0  0
 12 14  1  0  0  0  0
 14 15  1  6  0  0  0
 14 16  1  0  0  0  0
 16 27  1  1  0  0  0
 18 19  2  0  0  0  0
 18 23  1  0  0  0  0
 19 20  1  0  0  0  0
 20 21  2  0  0  0  0
 21 22  1  0  0  0  0
 21 27  1  0  0  0  0
 22 23  2  0  0  0  0
 22 25  1  0  0  0  0
 23 24  1  0  0  0  0
 25 26  2  0  0  0  0
 26 27  1  0  0  0  0
M  END
>  <CHROM.1>
-67.76348657,-175.54506010,66.39307175,-90.23941242,-76.64114873,-92.97606164
-35.77300185,49.39711583,54.36949219,29.56651179,-0.77740378,-1.28031795
1.87563094

>  <Name>
ligand

>  <RI>
0

>  <Rbt.Current_Directory>
/home/itssahil/PROJECTS/Mol_Feturizer/New_Systems/rnas/3IQR

>  <Rbt.Executable>
rbdock ($Id: //depot/dev/client3/rdock/2013.1/src/exe/rbdock.cxx#4 $)

>  <Rbt.Library>
libRbt.so (2013.1, Build901 2013/11/27)

>  <Rbt.Parameter_File>
/export/apps/rDock/src/rDock_2013.1_src/data/scripts/dock_solv.prm

>  <Rbt.Receptor>
prm/pocket_docking_8.prm

>  <SCORE>
-17.8715

>  <SCORE.INTER>
-13.5801

>  <SCORE.INTER.CONST>
1

>  <SCORE.INTER.POLAR>
0

>  <SCORE.INTER.ROT>
7

>  <SCORE.INTER.SOLV>
19.7945

>  <SCORE.INTER.VDW>
-23.9183

>  <SCORE.INTER.norm>
-0.502967

>  <SCORE.INTRA>
-4.2914

>  <SCORE.INTRA.DIHEDRAL>
-1.8563

>  <SCORE.INTRA.DIHEDRAL.0>
9.29433

>  <SCORE.INTRA.POLAR>
0

>  <SCORE.INTRA.POLAR.0>
0

>  <SCORE.INTRA.REPUL>
0

>  <SCORE.INTRA.REPUL.0>
0

>  <SCORE.INTRA.SOLV>
-1.56483

>  <SCORE.INTRA.SOLV.lig_0>
-48.5102

>  <SCORE.INTRA.VDW>
-2.58083

>  <SCORE.INTRA.VDW.0>
0.379549

>  <SCORE.INTRA.norm>
-0.158941

>  <SCORE.RESTR>
0

>  <SCORE.RESTR.CAVITY>
0

>  <SCORE.RESTR.norm>
0

>  <SCORE.SYSTEM>
0

>  <SCORE.SYSTEM.CONST>
0

>  <SCORE.SYSTEM.DIHEDRAL>
0

>  <SCORE.SYSTEM.SOLV>
0

>  <SCORE.SYSTEM.norm>
0

>  <SCORE.heavy>
27

>  <SCORE.norm>
-0.661908

>  <RMSD>
5.251

$$$$
ligand
 OpenBabel11021811483D
libRbt.so/2013.1/901 2013/11/27
 27 29  0  0  0  0  0  0  0  0999 V2000
   47.1826   52.9153   31.8927 N   0  0  0  0  0  0  0  0  0  0  0  0
   47.8195   53.4784   30.7031 C   0  0  2  0  0  0  0  0  0  0  0  0
   49.2507   53.8075   31.0156 C   0  0  0  0  0  0  0  0  0  0  0  0
   49.5136   54.6900   31.8259 O   0  0  0  0  0  0  0  0  0  0  0  0
   47.0975   54.7528   30.2677 C   0  0  0  0  0  0  0  0  0  0  0  0
   47.5519   55.1209   28.8670 C   0  0  0  0  0  0  0  0  0  0  0  0
   46.7298   56.5990   28.1918 S   0  0  2  0  0  0  0  0  0  0  0  0
   47.3789   56.7478   26.5011 C   0  0  0  0  0  0  0  0  0  0  0  0
   47.8341   58.0242   28.7691 C   0  0  0  0  0  0  0  0  0  0  0  0
   47.4492   58.8258   30.0827 C   0  0  2  0  0  0  0  0  0  0  0  0
   48.0944   58.4856   31.2891 O   0  0  0  0  0  0  0  0  0  0  0  0
   46.0388   59.1265   30.3983 C   0  0  1  0  0  0  0  0  0  0  0  0
   45.1788   58.9879   29.2666 O   0  0  0  0  0  0  0  0  0  0  0  0
   45.8626   58.0101   31.5331 C   0  0  2  0  0  0  0  0  0  0  0  0
   44.6704   58.2002   32.2342 O   0  0  0  0  0  0  0  0  0  0  0  0
   47.0947   58.2945   32.3898 C   0  0  1  0  0  0  0  0  0  0  0  0
   50.1508   53.1647   30.4904 O   0  0  0  0  0  0  0  0  0  0  0  0
   46.1327   53.6509   34.2984 N   0  0  0  0  0  0  0  0  0  0  0  0
   45.3846   54.4574   33.5409 C   0  0  0  0  0  0  0  0  0  0  0  0
   45.8435   55.6344   33.1257 N   0  0  0  0  0  0  0  0  0  0  0  0
   47.0311   56.1073   33.5356 C   0  0  0  0  0  0  0  0  0  0  0  0
   47.8395   55.3103   34.3869 C   0  0  0  0  0  0  0  0  0  0  0  0
   47.3413   54.0306   34.7580 C   0  0  0  0  0  0  0  0  0  0  0  0
   48.0737   53.1890   35.5706 N   0  0  0  0  0  0  0  0  0  0  0  0
   48.9568   56.0116   34.6473 N   0  0  0  0  0  0  0  0  0  0  0  0
   48.8971   57.1645   34.0360 C   0  0  0  0  0  0  0  0  0  0  0  0
   47.7360   57.2778   33.3238 N   0  0  0  0  0  0  0  0  0  0  0  0
  2  1  1  1  0  0  0
  2  3  1  0  0  0  0
  2  5  1  0  0  0  0
  3  4  1  0  0  0  0
  3 17  1  0  0  0  0
  5  6  1  0  0  0  0
  7  6  1  1  0  0  0
  7  8  1  0  0  0  0
  7  9  1  0  0  0  0
 10  9  1  6  0  0  0
 10 11  1  0  0  0  0
 10 12  1  0  0  0  0
 11 16  1  0  0  0  0
 12 13  1  6  0  0  0
 12 14  1  0  0  0  0
 14 15  1  1  0  0  0
 14 16  1  0  0  0  0
 16 27  1  1  0  0  0
 18 19  2  0  0  0  0
 18 23  1  0  0  0  0
 19 20  1  0  0  0  0
 20 21  2  0  0  0  0
 21 22  1  0  0  0  0
 21 27  1  0  0  0  0
 22 23  2  0  0  0  0
 22 25  1  0  0  0  0
 23 24  1  0  0  0  0
 25 26  2  0  0  0  0
 26 27  1  0  0  0  0
M  END
>  <CHROM.1>
-66.04011276,-166.33878212,178.13768382,-176.80847220,-96.60232050,98.44423759
-121.07818515,47.31236710,56.05662975,31.49570727,-1.16991753,1.12366310
-1.34422638

>  <Name>
ligand

>  <RI>
0

>  <Rbt.Current_Directory>
/home/itssahil/PROJECTS/Mol_Feturizer/New_Systems/rnas/3IQR

>  <Rbt.Executable>
rbdock ($Id: //depot/dev/client3/rdock/2013.1/src/exe/rbdock.cxx#4 $)

>  <Rbt.Library>
libRbt.so (2013.1, Build901 2013/11/27)

>  <Rbt.Parameter_File>
/export/apps/rDock/src/rDock_2013.1_src/data/scripts/dock_solv.prm

>  <Rbt.Receptor>
prm/pocket_docking_3.prm

>  <SCORE>
-17.0114

>  <SCORE.INTER>
-12.5671

>  <SCORE.INTER.CONST>
1

>  <SCORE.INTER.POLAR>
0

>  <SCORE.INTER.ROT>
7

>  <SCORE.INTER.SOLV>
14.5568

>  <SCORE.INTER.VDW>
-21.497

>  <SCORE.INTER.norm>
-0.465448

>  <SCORE.INTRA>
-4.60285

>  <SCORE.INTRA.DIHEDRAL>
1.08196

>  <SCORE.INTRA.DIHEDRAL.0>
9.29433

>  <SCORE.INTRA.POLAR>
0

>  <SCORE.INTRA.POLAR.0>
0

>  <SCORE.INTRA.REPUL>
0

>  <SCORE.INTRA.REPUL.0>
0

>  <SCORE.INTRA.SOLV>
2.44059

>  <SCORE.INTRA.SOLV.lig_0>
-48.5102

>  <SCORE.INTRA.VDW>
-6.36412

>  <SCORE.INTRA.VDW.0>
0.379549

>  <SCORE.INTRA.norm>
-0.170476

>  <SCORE.RESTR>
0.158516

>  <SCORE.RESTR.CAVITY>
0.158516

>  <SCORE.RESTR.norm>
0.00587095

>  <SCORE.SYSTEM>
0

>  <SCORE.SYSTEM.CONST>
0

>  <SCORE.SYSTEM.DIHEDRAL>
0

>  <SCORE.SYSTEM.SOLV>
0

>  <SCORE.SYSTEM.norm>
0

>  <SCORE.heavy>
27

>  <SCORE.norm>
-0.630053

>  <RMSD>
5.252

$$$$
ligand
 OpenBabel11021811483D
libRbt.so/2013.1/901 2013/11/27
 27 29  0  0  0  0  0  0  0  0999 V2000
   45.6851   57.7148   27.8511 N   0  0  0  0  0  0  0  0  0  0  0  0
   47.0944   57.6591   28.2366 C   0  0  2  0  0  0  0  0  0  0  0  0
   47.8970   57.0920   27.1015 C   0  0  0  0  0  0  0  0  0  0  0  0
   47.4516   57.1259   25.9592 O   0  0  0  0  0  0  0  0  0  0  0  0
   47.2730   56.7712   29.4673 C   0  0  0  0  0  0  0  0  0  0  0  0
   48.5413   57.1847   30.1916 C   0  0  0  0  0  0  0  0  0  0  0  0
   48.4033   58.7765   31.0655 S   0  0  2  0  0  0  0  0  0  0  0  0
   49.5625   58.6327   32.4575 C   0  0  0  0  0  0  0  0  0  0  0  0
   46.9328   58.5182   32.2295 C   0  0  0  0  0  0  0  0  0  0  0  0
   46.7465   57.1180   32.9512 C   0  0  2  0  0  0  0  0  0  0  0  0
   47.7121   56.1153   32.7289 O   0  0  0  0  0  0  0  0  0  0  0  0
   45.4242   56.4636   33.0007 C   0  0  1  0  0  0  0  0  0  0  0  0
   44.3526   57.3631   32.7140 O   0  0  0  0  0  0  0  0  0  0  0  0
   45.7193   55.3678   31.8705 C   0  0  2  0  0  0  0  0  0  0  0  0
   44.7175   54.3958   31.8492 O   0  0  0  0  0  0  0  0  0  0  0  0
   47.0554   54.8174   32.3659 C   0  0  1  0  0  0  0  0  0  0  0  0
   49.0124   56.6345   27.3149 O   0  0  0  0  0  0  0  0  0  0  0  0
   47.1240   51.6603   28.3461 N   0  0  0  0  0  0  0  0  0  0  0  0
   46.1069   52.1214   29.0788 C   0  0  0  0  0  0  0  0  0  0  0  0
   46.3098   52.9687   30.0835 N   0  0  0  0  0  0  0  0  0  0  0  0
   47.5485   53.3123   30.4706 C   0  0  0  0  0  0  0  0  0  0  0  0
   48.6649   52.8039   29.7576 C   0  0  0  0  0  0  0  0  0  0  0  0
   48.4045   51.9506   28.6496 C   0  0  0  0  0  0  0  0  0  0  0  0
   49.4352   51.4273   27.8955 N   0  0  0  0  0  0  0  0  0  0  0  0
   49.7705   53.2923   30.3467 N   0  0  0  0  0  0  0  0  0  0  0  0
   49.4263   54.0464   31.3563 C   0  0  0  0  0  0  0  0  0  0  0  0
   48.0662   54.1068   31.4768 N   0  0  0  0  0  0  0  0  0  0  0  0
  2  1  1  6  0  0  0
  2  3  1  0  0  0  0
  2  5  1  0  0  0  0
  3  4  1  0  0  0  0
  3 17  1  0  0  0  0
  5  6  1  0  0  0  0
  7  6  1  6  0  0  0
  7  8  1  0  0  0  0
  7  9  1  0  0  0  0
 10  9  1  6  0  0  0
 10 11  1  0  0  0  0
 10 12  1  0  0  0  0
 11 16  1  0  0  0  0
 12 13  1  6  0  0  0
 12 14  1  0  0  0  0
 14 15  1  1  0  0  0
 14 16  1  0  0  0  0
 16 27  1  6  0  0  0
 18 19  2  0  0  0  0
 18 23  1  0  0  0  0
 19 20  1  0  0  0  0
 20 21  2  0  0  0  0
 21 22  1  0  0  0  0
 21 27  1  0  0  0  0
 22 23  2  0  0  0  0
 22 25  1  0  0  0  0
 23 24  1  0  0  0  0
 25 26  2  0  0  0  0
 26 27  1  0  0  0  0
M  END
>  <CHROM.1>
21.33926207,-155.65080219,72.45319973,151.16659120,38.81911441,1.76647241
-146.76044541,47.44973495,55.62116075,30.30032999,-2.05152093,-1.23780709
-3.09865312

>  <Name>
ligand

>  <RI>
0

>  <Rbt.Current_Directory>
/home/itssahil/PROJECTS/Mol_Feturizer/New_Systems/rnas/3IQR

>  <Rbt.Executable>
rbdock ($Id: //depot/dev/client3/rdock/2013.1/src/exe/rbdock.cxx#4 $)

>  <Rbt.Library>
libRbt.so (2013.1, Build901 2013/11/27)

>  <Rbt.Parameter_File>
/export/apps/rDock/src/rDock_2013.1_src/data/scripts/dock_solv.prm

>  <Rbt.Receptor>
prm/pocket_docking_3.prm

>  <SCORE>
-15.2237

>  <SCORE.INTER>
-12.4584

>  <SCORE.INTER.CONST>
1

>  <SCORE.INTER.POLAR>
0

>  <SCORE.INTER.ROT>
7

>  <SCORE.INTER.SOLV>
15.942

>  <SCORE.INTER.VDW>
-21.8862

>  <SCORE.INTER.norm>
-0.461421

>  <SCORE.INTRA>
-2.76976

>  <SCORE.INTRA.DIHEDRAL>
2.49661

>  <SCORE.INTRA.DIHEDRAL.0>
9.29433

>  <SCORE.INTRA.POLAR>
0

>  <SCORE.INTRA.POLAR.0>
0

>  <SCORE.INTRA.REPUL>
0

>  <SCORE.INTRA.REPUL.0>
0

>  <SCORE.INTRA.SOLV>
-0.829768

>  <SCORE.INTRA.SOLV.lig_0>
-48.5102

>  <SCORE.INTRA.VDW>
-3.60319

>  <SCORE.INTRA.VDW.0>
0.379549

>  <SCORE.INTRA.norm>
-0.102584

>  <SCORE.RESTR>
0.00443809

>  <SCORE.RESTR.CAVITY>
0.00443809

>  <SCORE.RESTR.norm>
0.000164374

>  <SCORE.SYSTEM>
0

>  <SCORE.SYSTEM.CONST>
0

>  <SCORE.SYSTEM.DIHEDRAL>
0

>  <SCORE.SYSTEM.SOLV>
0

>  <SCORE.SYSTEM.norm>
0

>  <SCORE.heavy>
27

>  <SCORE.norm>
-0.56384

>  <RMSD>
5.258

$$$$
ligand
 OpenBabel11021811483D
libRbt.so/2013.1/901 2013/11/27
 27 29  0  0  0  0  0  0  0  0999 V2000
   48.9556   51.8652   27.4194 N   0  0  0  0  0  0  0  0  0  0  0  0
   48.8849   53.0243   28.3079 C   0  0  2  0  0  0  0  0  0  0  0  0
   48.4591   52.5754   29.6759 C   0  0  0  0  0  0  0  0  0  0  0  0
   47.4037   51.9673   29.8202 O   0  0  0  0  0  0  0  0  0  0  0  0
   47.8724   54.0385   27.7773 C   0  0  0  0  0  0  0  0  0  0  0  0
   47.9458   55.2955   28.6250 C   0  0  0  0  0  0  0  0  0  0  0  0
   46.7240   56.5651   28.1646 S   0  0  2  0  0  0  0  0  0  0  0  0
   47.0255   56.8667   26.3982 C   0  0  0  0  0  0  0  0  0  0  0  0
   47.5820   58.1914   28.6154 C   0  0  0  0  0  0  0  0  0  0  0  0
   47.3923   58.7957   30.0697 C   0  0  2  0  0  0  0  0  0  0  0  0
   48.0450   58.1651   31.1483 O   0  0  0  0  0  0  0  0  0  0  0  0
   46.0613   59.2262   30.5412 C   0  0  1  0  0  0  0  0  0  0  0  0
   45.1297   59.4062   29.4738 O   0  0  0  0  0  0  0  0  0  0  0  0
   45.7841   57.9632   31.4863 C   0  0  2  0  0  0  0  0  0  0  0  0
   44.6733   58.1886   32.3014 O   0  0  0  0  0  0  0  0  0  0  0  0
   47.0897   57.9226   32.2780 C   0  0  1  0  0  0  0  0  0  0  0  0
   49.1880   52.7821   30.6376 O   0  0  0  0  0  0  0  0  0  0  0  0
   46.4428   52.8528   32.1843 N   0  0  0  0  0  0  0  0  0  0  0  0
   45.7960   53.8291   31.5421 C   0  0  0  0  0  0  0  0  0  0  0  0
   46.1466   55.1030   31.6923 N   0  0  0  0  0  0  0  0  0  0  0  0
   47.0910   55.4703   32.5728 C   0  0  0  0  0  0  0  0  0  0  0  0
   47.7691   54.4729   33.3202 C   0  0  0  0  0  0  0  0  0  0  0  0
   47.4097   53.1168   33.0852 C   0  0  0  0  0  0  0  0  0  0  0  0
   48.0330   52.0870   33.7604 N   0  0  0  0  0  0  0  0  0  0  0  0
   48.6481   55.1023   34.1198 N   0  0  0  0  0  0  0  0  0  0  0  0
   48.5606   56.3917   33.9297 C   0  0  0  0  0  0  0  0  0  0  0  0
   47.6236   56.6804   32.9774 N   0  0  0  0  0  0  0  0  0  0  0  0
  2  1  1  6  0  0  0
  2  3  1  0  0  0  0
  2  5  1  0  0  0  0
  3  4  1  0  0  0  0
  3 17  1  0  0  0  0
  5  6  1  0  0  0  0
  7  6  1  1  0  0  0
  7  8  1  0  0  0  0
  7  9  1  0  0  0  0
 10  9  1  6  0  0  0
 10 11  1  0  0  0  0
 10 12  1  0  0  0  0
 11 16  1  0  0  0  0
 12 13  1  6  0  0  0
 12 14  1  0  0  0  0
 14 15  1  1  0  0  0
 14 16  1  0  0  0  0
 16 27  1  6  0  0  0
 18 19  2  0  0  0  0
 18 23  1  0  0  0  0
 19 20  1  0  0  0  0
 20 21  2  0  0  0  0
 21 22  1  0  0  0  0
 21 27  1  0  0  0  0
 22 23  2  0  0  0  0
 22 25  1  0  0  0  0
 23 24  1  0  0  0  0
 25 26  2  0  0  0  0
 26 27  1  0  0  0  0
M  END
>  <CHROM.1>
-57.03723370,-173.22144626,-176.78729250,-55.76118477,-89.91757017,72.83972842
-93.52207055,47.28173888,55.56103164,30.63028552,-0.23962178,1.26722602,-1.41886815

>  <Name>
ligand

>  <RI>
0

>  <Rbt.Current_Directory>
/home/itssahil/PROJECTS/Mol_Feturizer/New_Systems/rnas/3IQR

>  <Rbt.Executable>
rbdock ($Id: //depot/dev/client3/rdock/2013.1/src/exe/rbdock.cxx#4 $)

>  <Rbt.Library>
libRbt.so (2013.1, Build901 2013/11/27)

>  <Rbt.Parameter_File>
/export/apps/rDock/src/rDock_2013.1_src/data/scripts/dock_solv.prm

>  <Rbt.Receptor>
prm/pocket_docking_2.prm

>  <SCORE>
-8.97537

>  <SCORE.INTER>
-3.9957

>  <SCORE.INTER.CONST>
1

>  <SCORE.INTER.POLAR>
0

>  <SCORE.INTER.ROT>
7

>  <SCORE.INTER.SOLV>
19.0738

>  <SCORE.INTER.VDW>
-17.2884

>  <SCORE.INTER.norm>
-0.147989

>  <SCORE.INTRA>
-6.90014

>  <SCORE.INTRA.DIHEDRAL>
-2.60093

>  <SCORE.INTRA.DIHEDRAL.0>
9.29433

>  <SCORE.INTRA.POLAR>
0

>  <SCORE.INTRA.POLAR.0>
0

>  <SCORE.INTRA.REPUL>
0

>  <SCORE.INTRA.REPUL.0>
0

>  <SCORE.INTRA.SOLV>
-0.935246

>  <SCORE.INTRA.SOLV.lig_0>
-48.5102

>  <SCORE.INTRA.VDW>
-5.13205

>  <SCORE.INTRA.VDW.0>
0.379549

>  <SCORE.INTRA.norm>
-0.255561

>  <SCORE.RESTR>
1.92046

>  <SCORE.RESTR.CAVITY>
1.92046

>  <SCORE.RESTR.norm>
0.0711283

>  <SCORE.SYSTEM>
0

>  <SCORE.SYSTEM.CONST>
0

>  <SCORE.SYSTEM.DIHEDRAL>
0

>  <SCORE.SYSTEM.SOLV>
0

>  <SCORE.SYSTEM.norm>
0

>  <SCORE.heavy>
27

>  <SCORE.norm>
-0.332421

>  <RMSD>
5.259

$$$$
ligand
 OpenBabel11021811483D
libRbt.so/2013.1/901 2013/11/27
 27 29  0  0  0  0  0  0  0  0999 V2000
   46.1587   57.2676   29.5104 N   0  0  0  0  0  0  0  0  0  0  0  0
   47.3969   57.3800   28.7409 C   0  0  2  0  0  0  0  0  0  0  0  0
   47.1741   56.8342   27.3602 C   0  0  0  0  0  0  0  0  0  0  0  0
   46.8533   55.6599   27.2100 O   0  0  0  0  0  0  0  0  0  0  0  0
   48.5153   56.5879   29.4168 C   0  0  0  0  0  0  0  0  0  0  0  0
   49.0438   57.3893   30.5925 C   0  0  0  0  0  0  0  0  0  0  0  0
   47.8999   57.4600   32.0078 S   0  0  2  0  0  0  0  0  0  0  0  0
   48.0805   59.1487   32.6543 C   0  0  0  0  0  0  0  0  0  0  0  0
   48.9259   56.7730   33.4429 C   0  0  0  0  0  0  0  0  0  0  0  0
   49.3485   55.2441   33.4372 C   0  0  2  0  0  0  0  0  0  0  0  0
   49.3944   54.5657   32.2023 O   0  0  0  0  0  0  0  0  0  0  0  0
   48.8097   54.3077   34.4432 C   0  0  1  0  0  0  0  0  0  0  0  0
   48.2446   54.9758   35.5718 O   0  0  0  0  0  0  0  0  0  0  0  0
   47.7562   53.5860   33.4764 C   0  0  2  0  0  0  0  0  0  0  0  0
   47.2372   52.4381   34.0781 O   0  0  0  0  0  0  0  0  0  0  0  0
   48.6554   53.2639   32.2844 C   0  0  1  0  0  0  0  0  0  0  0  0
   47.2733   57.5750   26.3904 O   0  0  0  0  0  0  0  0  0  0  0  0
   50.4698   52.9107   27.5185 N   0  0  0  0  0  0  0  0  0  0  0  0
   51.0762   53.2356   28.6634 C   0  0  0  0  0  0  0  0  0  0  0  0
   50.4135   53.2426   29.8163 N   0  0  0  0  0  0  0  0  0  0  0  0
   49.0892   53.0283   29.8643 C   0  0  0  0  0  0  0  0  0  0  0  0
   48.3896   52.7335   28.6655 C   0  0  0  0  0  0  0  0  0  0  0  0
   49.1446   52.6729   27.4614 C   0  0  0  0  0  0  0  0  0  0  0  0
   48.5410   52.3770   26.2560 N   0  0  0  0  0  0  0  0  0  0  0  0
   47.0949   52.5699   28.9892 N   0  0  0  0  0  0  0  0  0  0  0  0
   46.9443   52.7446   30.2750 C   0  0  0  0  0  0  0  0  0  0  0  0
   48.1426   53.0195   30.8721 N   0  0  0  0  0  0  0  0  0  0  0  0
  2  1  1  1  0  0  0
  2  3  1  0  0  0  0
  2  5  1  0  0  0  0
  3  4  1  0  0  0  0
  3 17  1  0  0  0  0
  5  6  1  0  0  0  0
  7  6  1  6  0  0  0
  7  8  1  0  0  0  0
  7  9  1  0  0  0  0
 10  9  1  6  0  0  0
 10 11  1  0  0  0  0
 10 12  1  0  0  0  0
 11 16  1  0  0  0  0
 12 13  1  1  0  0  0
 12 14  1  0  0  0  0
 14 15  1  1  0  0  0
 14 16  1  0  0  0  0
 16 27  1  6  0  0  0
 18 19  2  0  0  0  0
 18 23  1  0  0  0  0
 19 20  1  0  0  0  0
 20 21  2  0  0  0  0
 21 22  1  0  0  0  0
 21 27  1  0  0  0  0
 22 23  2  0  0  0  0
 22 25  1  0  0  0  0
 23 24  1  0  0  0  0
 25 26  2  0  0  0  0
 26 27  1  0  0  0  0
M  END
>  <CHROM.1>
-61.05753264,-77.99589445,72.04751564,-142.19183429,-67.58297121,22.93936199
55.05374346,48.32756353,54.95831809,30.53784784,1.58420849,1.33990819,-1.74759994

>  <Name>
ligand

>  <RI>
0

>  <Rbt.Current_Directory>
/home/itssahil/PROJECTS/Mol_Feturizer/New_Systems/rnas/3IQR

>  <Rbt.Executable>
rbdock ($Id: //depot/dev/client3/rdock/2013.1/src/exe/rbdock.cxx#4 $)

>  <Rbt.Library>
libRbt.so (2013.1, Build901 2013/11/27)

>  <Rbt.Parameter_File>
/export/apps/rDock/src/rDock_2013.1_src/data/scripts/dock_solv.prm

>  <Rbt.Receptor>
prm/pocket_docking_3.prm

>  <SCORE>
-19.0373

>  <SCORE.INTER>
-15.5214

>  <SCORE.INTER.CONST>
1

>  <SCORE.INTER.POLAR>
0

>  <SCORE.INTER.ROT>
7

>  <SCORE.INTER.SOLV>
8.5913

>  <SCORE.INTER.VDW>
-21.478

>  <SCORE.INTER.norm>
-0.574865

>  <SCORE.INTRA>
-3.51598

>  <SCORE.INTRA.DIHEDRAL>
2.58268

>  <SCORE.INTRA.DIHEDRAL.0>
9.29433

>  <SCORE.INTRA.POLAR>
0

>  <SCORE.INTRA.POLAR.0>
0

>  <SCORE.INTRA.REPUL>
0

>  <SCORE.INTRA.REPUL.0>
0

>  <SCORE.INTRA.SOLV>
0.747121

>  <SCORE.INTRA.SOLV.lig_0>
-48.5102

>  <SCORE.INTRA.VDW>
-5.18088

>  <SCORE.INTRA.VDW.0>
0.379549

>  <SCORE.INTRA.norm>
-0.130221

>  <SCORE.RESTR>
0

>  <SCORE.RESTR.CAVITY>
0

>  <SCORE.RESTR.norm>
0

>  <SCORE.SYSTEM>
0

>  <SCORE.SYSTEM.CONST>
0

>  <SCORE.SYSTEM.DIHEDRAL>
0

>  <SCORE.SYSTEM.SOLV>
0

>  <SCORE.SYSTEM.norm>
0

>  <SCORE.heavy>
27

>  <SCORE.norm>
-0.705087

>  <RMSD>
5.259

$$$$
ligand
 OpenBabel11021811483D
libRbt.so/2013.1/901 2013/11/27
 27 29  0  0  0  0  0  0  0  0999 V2000
   45.1404   57.9503   28.6537 N   0  0  0  0  0  0  0  0  0  0  0  0
   45.7790   57.8569   29.9657 C   0  0  2  0  0  0  0  0  0  0  0  0
   45.3386   59.0139   30.8152 C   0  0  0  0  0  0  0  0  0  0  0  0
   44.8088   58.8091   31.9023 O   0  0  0  0  0  0  0  0  0  0  0  0
   47.2997   57.8949   29.8195 C   0  0  0  0  0  0  0  0  0  0  0  0
   47.9189   57.0249   30.8982 C   0  0  0  0  0  0  0  0  0  0  0  0
   47.5603   57.5878   32.5927 S   0  0  2  0  0  0  0  0  0  0  0  0
   48.2536   59.2657   32.6705 C   0  0  0  0  0  0  0  0  0  0  0  0
   49.0128   56.9127   33.6018 C   0  0  0  0  0  0  0  0  0  0  0  0
   49.4113   55.3832   33.4673 C   0  0  2  0  0  0  0  0  0  0  0  0
   49.4438   54.8094   32.1801 O   0  0  0  0  0  0  0  0  0  0  0  0
   48.8600   54.3746   34.3937 C   0  0  1  0  0  0  0  0  0  0  0  0
   48.3079   54.9551   35.5760 O   0  0  0  0  0  0  0  0  0  0  0  0
   47.7931   53.7524   33.3739 C   0  0  2  0  0  0  0  0  0  0  0  0
   47.2574   52.5666   33.8797 O   0  0  0  0  0  0  0  0  0  0  0  0
   48.6845   53.5168   32.1561 C   0  0  1  0  0  0  0  0  0  0  0  0
   45.5478   60.1595   30.4374 O   0  0  0  0  0  0  0  0  0  0  0  0
   50.0437   54.8777   27.4199 N   0  0  0  0  0  0  0  0  0  0  0  0
   50.5954   55.1594   28.6032 C   0  0  0  0  0  0  0  0  0  0  0  0
   50.0879   54.6753   29.7329 N   0  0  0  0  0  0  0  0  0  0  0  0
   48.9434   53.9737   29.7426 C   0  0  0  0  0  0  0  0  0  0  0  0
   48.2892   53.6954   28.5146 C   0  0  0  0  0  0  0  0  0  0  0  0
   48.8970   54.1766   27.3219 C   0  0  0  0  0  0  0  0  0  0  0  0
   48.3315   53.9347   26.0863 N   0  0  0  0  0  0  0  0  0  0  0  0
   47.1798   52.9930   28.8040 N   0  0  0  0  0  0  0  0  0  0  0  0
   47.0982   52.8251   30.0969 C   0  0  0  0  0  0  0  0  0  0  0  0
   48.1649   53.3989   30.7301 N   0  0  0  0  0  0  0  0  0  0  0  0
  2  1  1  6  0  0  0
  2  3  1  0  0  0  0
  2  5  1  0  0  0  0
  3  4  1  0  0  0  0
  3 17  1  0  0  0  0
  5  6  1  0  0  0  0
  7  6  1  6  0  0  0
  7  8  1  0  0  0  0
  7  9  1  0  0  0  0
 10  9  1  6  0  0  0
 10 11  1  0  0  0  0
 10 12  1  0  0  0  0
 11 16  1  0  0  0  0
 12 13  1  1  0  0  0
 12 14  1  0  0  0  0
 14 15  1  1  0  0  0
 14 16  1  0  0  0  0
 16 27  1  6  0  0  0
 18 19  2  0  0  0  0
 18 23  1  0  0  0  0
 19 20  1  0  0  0  0
 20 21  2  0  0  0  0
 21 22  1  0  0  0  0
 21 27  1  0  0  0  0
 22 23  2  0  0  0  0
 22 25  1  0  0  0  0
 23 24  1  0  0  0  0
 25 26  2  0  0  0  0
 26 27  1  0  0  0  0
M  END
>  <CHROM.1>
123.58137610,-146.52316329,-61.87900581,-59.90785595,-50.22421511,43.29305749
30.62262558,47.87939957,55.76321188,31.03066690,2.50761228,-1.10415516,1.48454486

>  <Name>
ligand

>  <RI>
0

>  <Rbt.Current_Directory>
/home/itssahil/PROJECTS/Mol_Feturizer/New_Systems/rnas/3IQR

>  <Rbt.Executable>
rbdock ($Id: //depot/dev/client3/rdock/2013.1/src/exe/rbdock.cxx#4 $)

>  <Rbt.Library>
libRbt.so (2013.1, Build901 2013/11/27)

>  <Rbt.Parameter_File>
/export/apps/rDock/src/rDock_2013.1_src/data/scripts/dock_solv.prm

>  <Rbt.Receptor>
prm/pocket_docking_3.prm

>  <SCORE>
-18.8668

>  <SCORE.INTER>
-14.2262

>  <SCORE.INTER.CONST>
1

>  <SCORE.INTER.POLAR>
0

>  <SCORE.INTER.ROT>
7

>  <SCORE.INTER.SOLV>
11.2289

>  <SCORE.INTER.VDW>
-21.4938

>  <SCORE.INTER.norm>
-0.526896

>  <SCORE.INTRA>
-4.64066

>  <SCORE.INTRA.DIHEDRAL>
-0.0103977

>  <SCORE.INTRA.DIHEDRAL.0>
9.29433

>  <SCORE.INTRA.POLAR>
0

>  <SCORE.INTRA.POLAR.0>
0

>  <SCORE.INTRA.REPUL>
0

>  <SCORE.INTRA.REPUL.0>
0

>  <SCORE.INTRA.SOLV>
-1.36595

>  <SCORE.INTRA.SOLV.lig_0>
-48.5102

>  <SCORE.INTRA.VDW>
-3.95248

>  <SCORE.INTRA.VDW.0>
0.379549

>  <SCORE.INTRA.norm>
-0.171876

>  <SCORE.RESTR>
0

>  <SCORE.RESTR.CAVITY>
0

>  <SCORE.RESTR.norm>
0

>  <SCORE.SYSTEM>
0

>  <SCORE.SYSTEM.CONST>
0

>  <SCORE.SYSTEM.DIHEDRAL>
0

>  <SCORE.SYSTEM.SOLV>
0

>  <SCORE.SYSTEM.norm>
0

>  <SCORE.heavy>
27

>  <SCORE.norm>
-0.698772

>  <RMSD>
5.264

$$$$
ligand
 OpenBabel11021811483D
libRbt.so/2013.1/901 2013/11/27
 27 29  0  0  0  0  0  0  0  0999 V2000
   47.3466   56.2086   26.7801 N   0  0  0  0  0  0  0  0  0  0  0  0
   47.3193   56.5554   28.2002 C   0  0  2  0  0  0  0  0  0  0  0  0
   45.8933   56.6498   28.6604 C   0  0  0  0  0  0  0  0  0  0  0  0
   45.5015   55.9503   29.5887 O   0  0  0  0  0  0  0  0  0  0  0  0
   48.0089   57.8994   28.4315 C   0  0  0  0  0  0  0  0  0  0  0  0
   48.2930   58.0571   29.9141 C   0  0  0  0  0  0  0  0  0  0  0  0
   46.8299   58.5113   30.8989 S   0  0  2  0  0  0  0  0  0  0  0  0
   47.0103   60.2970   31.1838 C   0  0  0  0  0  0  0  0  0  0  0  0
   47.3620   58.1472   32.6789 C   0  0  0  0  0  0  0  0  0  0  0  0
   47.7541   56.6655   33.0876 C   0  0  2  0  0  0  0  0  0  0  0  0
   48.7157   55.9878   32.3109 O   0  0  0  0  0  0  0  0  0  0  0  0
   46.7163   55.6875   33.4694 C   0  0  1  0  0  0  0  0  0  0  0  0
   45.4721   56.3048   33.8016 O   0  0  0  0  0  0  0  0  0  0  0  0
   46.7266   54.8634   32.0960 C   0  0  2  0  0  0  0  0  0  0  0  0
   46.0064   53.6746   32.2261 O   0  0  0  0  0  0  0  0  0  0  0  0
   48.2261   54.6220   31.9336 C   0  0  1  0  0  0  0  0  0  0  0  0
   45.1368   57.4555   28.1337 O   0  0  0  0  0  0  0  0  0  0  0  0
   47.5811   51.5951   27.8651 N   0  0  0  0  0  0  0  0  0  0  0  0
   46.9185   51.6568   29.0232 C   0  0  0  0  0  0  0  0  0  0  0  0
   47.2388   52.5513   29.9536 N   0  0  0  0  0  0  0  0  0  0  0  0
   48.3043   53.3559   29.8143 C   0  0  0  0  0  0  0  0  0  0  0  0
   49.0739   53.2891   28.6241 C   0  0  0  0  0  0  0  0  0  0  0  0
   48.6618   52.3636   27.6255 C   0  0  0  0  0  0  0  0  0  0  0  0
   49.3479   52.2489   26.4334 N   0  0  0  0  0  0  0  0  0  0  0  0
   50.0708   54.1835   28.7430 N   0  0  0  0  0  0  0  0  0  0  0  0
   49.9796   54.7827   29.9002 C   0  0  0  0  0  0  0  0  0  0  0  0
   48.9014   54.3221   30.6027 N   0  0  0  0  0  0  0  0  0  0  0  0
  2  1  1  6  0  0  0
  2  3  1  0  0  0  0
  2  5  1  0  0  0  0
  3  4  1  0  0  0  0
  3 17  1  0  0  0  0
  5  6  1  0  0  0  0
  7  6  1  6  0  0  0
  7  8  1  0  0  0  0
  7  9  1  0  0  0  0
 10  9  1  6  0  0  0
 10 11  1  0  0  0  0
 10 12  1  0  0  0  0
 11 16  1  0  0  0  0
 12 13  1  6  0  0  0
 12 14  1  0  0  0  0
 14 15  1  1  0  0  0
 14 16  1  0  0  0  0
 16 27  1  6  0  0  0
 18 19  2  0  0  0  0
 18 23  1  0  0  0  0
 19 20  1  0  0  0  0
 20 21  2  0  0  0  0
 21 22  1  0  0  0  0
 21 27  1  0  0  0  0
 22 23  2  0  0  0  0
 22 25  1  0  0  0  0
 23 24  1  0  0  0  0
 25 26  2  0  0  0  0
 26 27  1  0  0  0  0
M  END
>  <CHROM.1>
122.62105409,-165.11721705,-77.18256621,-101.25466122,-61.22911825,52.38752710
-158.87680337,47.48413869,55.54977974,30.15699188,-0.00728754,1.32282601
-0.97003085

>  <Name>
ligand

>  <RI>
0

>  <Rbt.Current_Directory>
/home/itssahil/PROJECTS/Mol_Feturizer/New_Systems/rnas/3IQR

>  <Rbt.Executable>
rbdock ($Id: //depot/dev/client3/rdock/2013.1/src/exe/rbdock.cxx#4 $)

>  <Rbt.Library>
libRbt.so (2013.1, Build901 2013/11/27)

>  <Rbt.Parameter_File>
/export/apps/rDock/src/rDock_2013.1_src/data/scripts/dock_solv.prm

>  <Rbt.Receptor>
prm/pocket_docking_3.prm

>  <SCORE>
-18.6854

>  <SCORE.INTER>
-10.7711

>  <SCORE.INTER.CONST>
1

>  <SCORE.INTER.POLAR>
0

>  <SCORE.INTER.ROT>
7

>  <SCORE.INTER.SOLV>
8.29773

>  <SCORE.INTER.VDW>
-18.2133

>  <SCORE.INTER.norm>
-0.398928

>  <SCORE.INTRA>
-7.91437

>  <SCORE.INTRA.DIHEDRAL>
-1.42596

>  <SCORE.INTRA.DIHEDRAL.0>
9.29433

>  <SCORE.INTRA.POLAR>
0

>  <SCORE.INTRA.POLAR.0>
0

>  <SCORE.INTRA.REPUL>
0

>  <SCORE.INTRA.REPUL.0>
0

>  <SCORE.INTRA.SOLV>
-0.983977

>  <SCORE.INTRA.SOLV.lig_0>
-48.5102

>  <SCORE.INTRA.VDW>
-6.7094

>  <SCORE.INTRA.VDW.0>
0.379549

>  <SCORE.INTRA.norm>
-0.293125

>  <SCORE.RESTR>
0

>  <SCORE.RESTR.CAVITY>
0

>  <SCORE.RESTR.norm>
0

>  <SCORE.SYSTEM>
0

>  <SCORE.SYSTEM.CONST>
0

>  <SCORE.SYSTEM.DIHEDRAL>
0

>  <SCORE.SYSTEM.SOLV>
0

>  <SCORE.SYSTEM.norm>
0

>  <SCORE.heavy>
27

>  <SCORE.norm>
-0.692053

>  <RMSD>
5.270

$$$$
ligand
 OpenBabel11021811483D
libRbt.so/2013.1/901 2013/11/27
 27 29  0  0  0  0  0  0  0  0999 V2000
   47.4426   55.6347   28.0381 N   0  0  0  0  0  0  0  0  0  0  0  0
   47.0426   56.8901   28.6720 C   0  0  2  0  0  0  0  0  0  0  0  0
   46.2804   57.7242   27.6833 C   0  0  0  0  0  0  0  0  0  0  0  0
   45.2289   58.2607   28.0161 O   0  0  0  0  0  0  0  0  0  0  0  0
   48.2746   57.6664   29.1357 C   0  0  0  0  0  0  0  0  0  0  0  0
   48.7036   57.1415   30.4937 C   0  0  0  0  0  0  0  0  0  0  0  0
   47.5570   57.5684   31.8428 S   0  0  2  0  0  0  0  0  0  0  0  0
   48.0851   59.2214   32.3820 C   0  0  0  0  0  0  0  0  0  0  0  0
   48.3571   56.7862   33.3699 C   0  0  0  0  0  0  0  0  0  0  0  0
   48.3207   55.2104   33.5482 C   0  0  2  0  0  0  0  0  0  0  0  0
   49.1281   54.4213   32.7040 O   0  0  0  0  0  0  0  0  0  0  0  0
   47.0398   54.5006   33.7349 C   0  0  1  0  0  0  0  0  0  0  0  0
   45.9773   55.3728   34.1220 O   0  0  0  0  0  0  0  0  0  0  0  0
   46.9368   53.9136   32.2483 C   0  0  2  0  0  0  0  0  0  0  0  0
   45.9256   52.9550   32.1631 O   0  0  0  0  0  0  0  0  0  0  0  0
   48.3302   53.3064   32.0972 C   0  0  1  0  0  0  0  0  0  0  0  0
   46.7332   57.8995   26.5593 O   0  0  0  0  0  0  0  0  0  0  0  0
   47.0673   51.8181   27.3727 N   0  0  0  0  0  0  0  0  0  0  0  0
   46.3341   51.9135   28.4850 C   0  0  0  0  0  0  0  0  0  0  0  0
   46.8622   52.3549   29.6228 N   0  0  0  0  0  0  0  0  0  0  0  0
   48.1736   52.6212   29.7293 C   0  0  0  0  0  0  0  0  0  0  0  0
   49.0055   52.4816   28.5883 C   0  0  0  0  0  0  0  0  0  0  0  0
   48.3916   52.0679   27.3736 C   0  0  0  0  0  0  0  0  0  0  0  0
   49.1288   51.9233   26.2158 N   0  0  0  0  0  0  0  0  0  0  0  0
   50.2561   52.8009   28.9650 N   0  0  0  0  0  0  0  0  0  0  0  0
   50.2597   53.1159   30.2327 C   0  0  0  0  0  0  0  0  0  0  0  0
   49.0003   53.0346   30.7576 N   0  0  0  0  0  0  0  0  0  0  0  0
  2  1  1  6  0  0  0
  2  3  1  0  0  0  0
  2  5  1  0  0  0  0
  3  4  1  0  0  0  0
  3 17  1  0  0  0  0
  5  6  1  0  0  0  0
  7  6  1  6  0  0  0
  7  8  1  0  0  0  0
  7  9  1  0  0  0  0
 10  9  1  6  0  0  0
 10 11  1  0  0  0  0
 10 12  1  0  0  0  0
 11 16  1  0  0  0  0
 12 13  1  6  0  0  0
 12 14  1  0  0  0  0
 14 15  1  1  0  0  0
 14 16  1  0  0  0  0
 16 27  1  6  0  0  0
 18 19  2  0  0  0  0
 18 23  1  0  0  0  0
 19 20  1  0  0  0  0
 20 21  2  0  0  0  0
 21 22  1  0  0  0  0
 21 27  1  0  0  0  0
 22 23  2  0  0  0  0
 22 25  1  0  0  0  0
 23 24  1  0  0  0  0
 25 26  2  0  0  0  0
 26 27  1  0  0  0  0
M  END
>  <CHROM.1>
133.49393513,-83.61225752,-70.11556845,-85.60197986,-72.79199999,71.46821253
-147.22825859,47.72674105,54.97523478,30.27323201,0.94618398,1.35822495,-1.81796233

>  <Name>
ligand

>  <RI>
0

>  <Rbt.Current_Directory>
/home/itssahil/PROJECTS/Mol_Feturizer/New_Systems/rnas/3IQR

>  <Rbt.Executable>
rbdock ($Id: //depot/dev/client3/rdock/2013.1/src/exe/rbdock.cxx#4 $)

>  <Rbt.Library>
libRbt.so (2013.1, Build901 2013/11/27)

>  <Rbt.Parameter_File>
/export/apps/rDock/src/rDock_2013.1_src/data/scripts/dock_solv.prm

>  <Rbt.Receptor>
prm/pocket_docking_4.prm

>  <SCORE>
-19.5059

>  <SCORE.INTER>
-13.6109

>  <SCORE.INTER.CONST>
1

>  <SCORE.INTER.POLAR>
0

>  <SCORE.INTER.ROT>
7

>  <SCORE.INTER.SOLV>
8.0087

>  <SCORE.INTER.VDW>
-20.0101

>  <SCORE.INTER.norm>
-0.504106

>  <SCORE.INTRA>
-5.89506

>  <SCORE.INTRA.DIHEDRAL>
-2.07225

>  <SCORE.INTRA.DIHEDRAL.0>
9.29433

>  <SCORE.INTRA.POLAR>
0

>  <SCORE.INTRA.POLAR.0>
0

>  <SCORE.INTRA.REPUL>
0

>  <SCORE.INTRA.REPUL.0>
0

>  <SCORE.INTRA.SOLV>
0.357129

>  <SCORE.INTRA.SOLV.lig_0>
-48.5102

>  <SCORE.INTRA.VDW>
-5.0375

>  <SCORE.INTRA.VDW.0>
0.379549

>  <SCORE.INTRA.norm>
-0.218336

>  <SCORE.RESTR>
0

>  <SCORE.RESTR.CAVITY>
0

>  <SCORE.RESTR.norm>
0

>  <SCORE.SYSTEM>
0

>  <SCORE.SYSTEM.CONST>
0

>  <SCORE.SYSTEM.DIHEDRAL>
0

>  <SCORE.SYSTEM.SOLV>
0

>  <SCORE.SYSTEM.norm>
0

>  <SCORE.heavy>
27

>  <SCORE.norm>
-0.722441

>  <RMSD>
5.273

$$$$
ligand
 OpenBabel11021811483D
libRbt.so/2013.1/901 2013/11/27
 27 29  0  0  0  0  0  0  0  0999 V2000
   45.1527   57.7777   29.4772 N   0  0  0  0  0  0  0  0  0  0  0  0
   45.8885   56.8506   30.3356 C   0  0  2  0  0  0  0  0  0  0  0  0
   45.1564   56.6923   31.6369 C   0  0  0  0  0  0  0  0  0  0  0  0
   44.3272   57.5288   31.9790 O   0  0  0  0  0  0  0  0  0  0  0  0
   47.2924   57.3859   30.6142 C   0  0  0  0  0  0  0  0  0  0  0  0
   47.1797   58.7914   31.1764 C   0  0  0  0  0  0  0  0  0  0  0  0
   48.0659   59.0272   32.7498 S   0  0  2  0  0  0  0  0  0  0  0  0
   49.8052   58.6889   32.3469 C   0  0  0  0  0  0  0  0  0  0  0  0
   47.9095   57.3450   33.6041 C   0  0  0  0  0  0  0  0  0  0  0  0
   49.0121   56.2342   33.3460 C   0  0  2  0  0  0  0  0  0  0  0  0
   49.5043   56.0697   32.0352 O   0  0  0  0  0  0  0  0  0  0  0  0
   48.8890   54.8928   33.9499 C   0  0  1  0  0  0  0  0  0  0  0  0
   47.9602   54.8593   35.0343 O   0  0  0  0  0  0  0  0  0  0  0  0
   48.4165   54.1354   32.6201 C   0  0  2  0  0  0  0  0  0  0  0  0
   48.4535   52.7513   32.7985 O   0  0  0  0  0  0  0  0  0  0  0  0
   49.4767   54.6251   31.6355 C   0  0  1  0  0  0  0  0  0  0  0  0
   45.3604   55.7058   32.3329 O   0  0  0  0  0  0  0  0  0  0  0  0
   46.8943   52.0935   28.0226 N   0  0  0  0  0  0  0  0  0  0  0  0
   47.0118   51.8683   29.3340 C   0  0  0  0  0  0  0  0  0  0  0  0
   47.7250   52.6782   30.1110 N   0  0  0  0  0  0  0  0  0  0  0  0
   48.4411   53.6907   29.5971 C   0  0  0  0  0  0  0  0  0  0  0  0
   48.3928   53.9366   28.2005 C   0  0  0  0  0  0  0  0  0  0  0  0
   47.5687   53.0872   27.4113 C   0  0  0  0  0  0  0  0  0  0  0  0
   47.4556   53.2701   26.0480 N   0  0  0  0  0  0  0  0  0  0  0  0
   49.1928   54.9885   27.9528 N   0  0  0  0  0  0  0  0  0  0  0  0
   49.7270   55.3996   29.0718 C   0  0  0  0  0  0  0  0  0  0  0  0
   49.2920   54.6443   30.1246 N   0  0  0  0  0  0  0  0  0  0  0  0
  2  1  1  6  0  0  0
  2  3  1  0  0  0  0
  2  5  1  0  0  0  0
  3  4  1  0  0  0  0
  3 17  1  0  0  0  0
  5  6  1  0  0  0  0
  7  6  1  6  0  0  0
  7  8  1  0  0  0  0
  7  9  1  0  0  0  0
 10  9  1  6  0  0  0
 10 11  1  0  0  0  0
 10 12  1  0  0  0  0
 11 16  1  0  0  0  0
 12 13  1  1  0  0  0
 12 14  1  0  0  0  0
 14 15  1  1  0  0  0
 14 16  1  0  0  0  0
 16 27  1  6  0  0  0
 18 19  2  0  0  0  0
 18 23  1  0  0  0  0
 19 20  1  0  0  0  0
 20 21  2  0  0  0  0
 21 22  1  0  0  0  0
 21 27  1  0  0  0  0
 22 23  2  0  0  0  0
 22 25  1  0  0  0  0
 23 24  1  0  0  0  0
 25 26  2  0  0  0  0
 26 27  1  0  0  0  0
M  END
>  <CHROM.1>
-18.83784352,54.17188810,126.85646486,61.21667000,89.43438195,-40.96245420
-140.08760173,47.75834119,55.58845753,31.04506011,1.62985692,-0.99108733
0.83723819

>  <Name>
ligand

>  <RI>
0

>  <Rbt.Current_Directory>
/home/itssahil/PROJECTS/Mol_Feturizer/New_Systems/rnas/3IQR

>  <Rbt.Executable>
rbdock ($Id: //depot/dev/client3/rdock/2013.1/src/exe/rbdock.cxx#4 $)

>  <Rbt.Library>
libRbt.so (2013.1, Build901 2013/11/27)

>  <Rbt.Parameter_File>
/export/apps/rDock/src/rDock_2013.1_src/data/scripts/dock_solv.prm

>  <Rbt.Receptor>
prm/pocket_docking_2.prm

>  <SCORE>
-6.46967

>  <SCORE.INTER>
-12.1322

>  <SCORE.INTER.CONST>
1

>  <SCORE.INTER.POLAR>
0

>  <SCORE.INTER.ROT>
7

>  <SCORE.INTER.SOLV>
9.26846

>  <SCORE.INTER.VDW>
-19.4443

>  <SCORE.INTER.norm>
-0.449341

>  <SCORE.INTRA>
3.79382

>  <SCORE.INTRA.DIHEDRAL>
4.75944

>  <SCORE.INTRA.DIHEDRAL.0>
9.29433

>  <SCORE.INTRA.POLAR>
0

>  <SCORE.INTRA.POLAR.0>
0

>  <SCORE.INTRA.REPUL>
0

>  <SCORE.INTRA.REPUL.0>
0

>  <SCORE.INTRA.SOLV>
-0.437084

>  <SCORE.INTRA.SOLV.lig_0>
-48.5102

>  <SCORE.INTRA.VDW>
1.63264

>  <SCORE.INTRA.VDW.0>
0.379549

>  <SCORE.INTRA.norm>
0.140512

>  <SCORE.RESTR>
1.86872

>  <SCORE.RESTR.CAVITY>
1.86872

>  <SCORE.RESTR.norm>
0.0692119

>  <SCORE.SYSTEM>
0

>  <SCORE.SYSTEM.CONST>
0

>  <SCORE.SYSTEM.DIHEDRAL>
0

>  <SCORE.SYSTEM.SOLV>
0

>  <SCORE.SYSTEM.norm>
0

>  <SCORE.heavy>
27

>  <SCORE.norm>
-0.239617

>  <RMSD>
5.285

$$$$
ligand
 OpenBabel11021811483D
libRbt.so/2013.1/901 2013/11/27
 27 29  0  0  0  0  0  0  0  0999 V2000
   47.2173   55.9476   26.7750 N   0  0  0  0  0  0  0  0  0  0  0  0
   47.3718   56.0615   28.2245 C   0  0  2  0  0  0  0  0  0  0  0  0
   46.0308   56.3229   28.8471 C   0  0  0  0  0  0  0  0  0  0  0  0
   45.6871   55.6996   29.8460 O   0  0  0  0  0  0  0  0  0  0  0  0
   48.3154   57.2132   28.5685 C   0  0  0  0  0  0  0  0  0  0  0  0
   48.7994   57.0418   29.9969 C   0  0  0  0  0  0  0  0  0  0  0  0
   47.5987   57.5916   31.2511 S   0  0  2  0  0  0  0  0  0  0  0  0
   48.0340   59.3275   31.5668 C   0  0  0  0  0  0  0  0  0  0  0  0
   48.3939   57.0675   32.8872 C   0  0  0  0  0  0  0  0  0  0  0  0
   48.5234   55.5246   33.2320 C   0  0  2  0  0  0  0  0  0  0  0  0
   49.3203   54.7155   32.3968 O   0  0  0  0  0  0  0  0  0  0  0  0
   47.3381   54.7356   33.6218 C   0  0  1  0  0  0  0  0  0  0  0  0
   46.2382   55.5538   34.0222 O   0  0  0  0  0  0  0  0  0  0  0  0
   47.1541   53.9775   32.2230 C   0  0  2  0  0  0  0  0  0  0  0  0
   46.2346   52.9339   32.3424 O   0  0  0  0  0  0  0  0  0  0  0  0
   48.5788   53.4761   31.9946 C   0  0  1  0  0  0  0  0  0  0  0  0
   45.3016   57.1879   28.3790 O   0  0  0  0  0  0  0  0  0  0  0  0
   46.9302   51.8988   27.4202 N   0  0  0  0  0  0  0  0  0  0  0  0
   46.2758   52.0831   28.5699 C   0  0  0  0  0  0  0  0  0  0  0  0
   46.9012   52.5310   29.6546 N   0  0  0  0  0  0  0  0  0  0  0  0
   48.2308   52.7150   29.6707 C   0  0  0  0  0  0  0  0  0  0  0  0
   48.9788   52.4790   28.4883 C   0  0  0  0  0  0  0  0  0  0  0  0
   48.2650   52.0613   27.3309 C   0  0  0  0  0  0  0  0  0  0  0  0
   48.9174   51.8260   26.1376 N   0  0  0  0  0  0  0  0  0  0  0  0
   50.2683   52.7298   28.7753 N   0  0  0  0  0  0  0  0  0  0  0  0
   50.3714   53.0908   30.0265 C   0  0  0  0  0  0  0  0  0  0  0  0
   49.1449   53.1115   30.6294 N   0  0  0  0  0  0  0  0  0  0  0  0
  2  1  1  6  0  0  0
  2  3  1  0  0  0  0
  2  5  1  0  0  0  0
  3  4  1  0  0  0  0
  3 17  1  0  0  0  0
  5  6  1  0  0  0  0
  7  6  1  6  0  0  0
  7  8  1  0  0  0  0
  7  9  1  0  0  0  0
 10  9  1  6  0  0  0
 10 11  1  0  0  0  0
 10 12  1  0  0  0  0
 11 16  1  0  0  0  0
 12 13  1  6  0  0  0
 12 14  1  0  0  0  0
 14 15  1  1  0  0  0
 14 16  1  0  0  0  0
 16 27  1  6  0  0  0
 18 19  2  0  0  0  0
 18 23  1  0  0  0  0
 19 20  1  0  0  0  0
 20 21  2  0  0  0  0
 21 22  1  0  0  0  0
 21 27  1  0  0  0  0
 22 23  2  0  0  0  0
 22 25  1  0  0  0  0
 23 24  1  0  0  0  0
 25 26  2  0  0  0  0
 26 27  1  0  0  0  0
M  END
>  <CHROM.1>
134.50046248,-162.32495831,-79.67001789,-92.00848045,-68.29709663,62.86645774
-137.32520063,47.74642661,54.83551668,30.21360188,1.13353951,1.32593079,-1.95047407

>  <Name>
ligand

>  <RI>
0

>  <Rbt.Current_Directory>
/home/itssahil/PROJECTS/Mol_Feturizer/New_Systems/rnas/3IQR

>  <Rbt.Executable>
rbdock ($Id: //depot/dev/client3/rdock/2013.1/src/exe/rbdock.cxx#4 $)

>  <Rbt.Library>
libRbt.so (2013.1, Build901 2013/11/27)

>  <Rbt.Parameter_File>
/export/apps/rDock/src/rDock_2013.1_src/data/scripts/dock_solv.prm

>  <Rbt.Receptor>
prm/pocket_docking_4.prm

>  <SCORE>
-18.9141

>  <SCORE.INTER>
-10.8997

>  <SCORE.INTER.CONST>
1

>  <SCORE.INTER.POLAR>
0

>  <SCORE.INTER.ROT>
7

>  <SCORE.INTER.SOLV>
8.86146

>  <SCORE.INTER.VDW>
-18.4869

>  <SCORE.INTER.norm>
-0.403691

>  <SCORE.INTRA>
-8.01448

>  <SCORE.INTRA.DIHEDRAL>
-1.9151

>  <SCORE.INTRA.DIHEDRAL.0>
9.29433

>  <SCORE.INTRA.POLAR>
0

>  <SCORE.INTRA.POLAR.0>
0

>  <SCORE.INTRA.REPUL>
0

>  <SCORE.INTRA.REPUL.0>
0

>  <SCORE.INTRA.SOLV>
-1.21838

>  <SCORE.INTRA.SOLV.lig_0>
-48.5102

>  <SCORE.INTRA.VDW>
-6.44774

>  <SCORE.INTRA.VDW.0>
0.379549

>  <SCORE.INTRA.norm>
-0.296833

>  <SCORE.RESTR>
0

>  <SCORE.RESTR.CAVITY>
0

>  <SCORE.RESTR.norm>
0

>  <SCORE.SYSTEM>
0

>  <SCORE.SYSTEM.CONST>
0

>  <SCORE.SYSTEM.DIHEDRAL>
0

>  <SCORE.SYSTEM.SOLV>
0

>  <SCORE.SYSTEM.norm>
0

>  <SCORE.heavy>
27

>  <SCORE.norm>
-0.700524

>  <RMSD>
5.288

$$$$
ligand
 OpenBabel11021811483D
libRbt.so/2013.1/901 2013/11/27
 27 29  0  0  0  0  0  0  0  0999 V2000
   45.9637   57.1405   28.7916 N   0  0  0  0  0  0  0  0  0  0  0  0
   47.0759   57.2279   27.8465 C   0  0  2  0  0  0  0  0  0  0  0  0
   47.4786   55.8442   27.4252 C   0  0  0  0  0  0  0  0  0  0  0  0
   46.9054   54.8685   27.8985 O   0  0  0  0  0  0  0  0  0  0  0  0
   48.2726   57.9198   28.4981 C   0  0  0  0  0  0  0  0  0  0  0  0
   48.6442   57.1698   29.7643 C   0  0  0  0  0  0  0  0  0  0  0  0
   47.6570   57.6473   31.2183 S   0  0  2  0  0  0  0  0  0  0  0  0
   48.1134   59.3787   31.5288 C   0  0  0  0  0  0  0  0  0  0  0  0
   48.7164   57.0786   32.6806 C   0  0  0  0  0  0  0  0  0  0  0  0
   48.8374   55.5295   32.9996 C   0  0  2  0  0  0  0  0  0  0  0  0
   49.5885   54.7209   32.1225 O   0  0  0  0  0  0  0  0  0  0  0  0
   47.6576   54.7517   33.4266 C   0  0  1  0  0  0  0  0  0  0  0  0
   46.5865   55.5794   33.8816 O   0  0  0  0  0  0  0  0  0  0  0  0
   47.4068   54.0154   32.0265 C   0  0  2  0  0  0  0  0  0  0  0  0
   46.4778   52.9830   32.1691 O   0  0  0  0  0  0  0  0  0  0  0  0
   48.8138   53.4975   31.7343 C   0  0  1  0  0  0  0  0  0  0  0  0
   48.3507   55.6963   26.5787 O   0  0  0  0  0  0  0  0  0  0  0  0
   46.9796   51.8503   27.2562 N   0  0  0  0  0  0  0  0  0  0  0  0
   46.3802   52.0201   28.4377 C   0  0  0  0  0  0  0  0  0  0  0  0
   47.0469   52.4917   29.4872 N   0  0  0  0  0  0  0  0  0  0  0  0
   48.3694   52.7156   29.4339 C   0  0  0  0  0  0  0  0  0  0  0  0
   49.0621   52.4968   28.2150 C   0  0  0  0  0  0  0  0  0  0  0  0
   48.3024   52.0526   27.0974 C   0  0  0  0  0  0  0  0  0  0  0  0
   48.8991   51.8315   25.8727 N   0  0  0  0  0  0  0  0  0  0  0  0
   50.3565   52.7877   28.4341 N   0  0  0  0  0  0  0  0  0  0  0  0
   50.5131   53.1573   29.6772 C   0  0  0  0  0  0  0  0  0  0  0  0
   49.3193   53.1439   30.3427 N   0  0  0  0  0  0  0  0  0  0  0  0
  2  1  1  1  0  0  0
  2  3  1  0  0  0  0
  2  5  1  0  0  0  0
  3  4  1  0  0  0  0
  3 17  1  0  0  0  0
  5  6  1  0  0  0  0
  7  6  1  6  0  0  0
  7  8  1  0  0  0  0
  7  9  1  0  0  0  0
 10  9  1  6  0  0  0
 10 11  1  0  0  0  0
 10 12  1  0  0  0  0
 11 16  1  0  0  0  0
 12 13  1  6  0  0  0
 12 14  1  0  0  0  0
 14 15  1  1  0  0  0
 14 16  1  0  0  0  0
 16 27  1  6  0  0  0
 18 19  2  0  0  0  0
 18 23  1  0  0  0  0
 19 20  1  0  0  0  0
 20 21  2  0  0  0  0
 21 22  1  0  0  0  0
 21 27  1  0  0  0  0
 22 23  2  0  0  0  0
 22 25  1  0  0  0  0
 23 24  1  0  0  0  0
 25 26  2  0  0  0  0
 26 27  1  0  0  0  0
M  END
>  <CHROM.1>
-1.57184415,56.10628616,-83.63050306,-65.47287261,-72.67111124,71.43226761
-140.12638570,48.02728754,54.85088182,29.91831101,2.14018402,-1.45442952
1.37041197

>  <Name>
ligand

>  <RI>
0

>  <Rbt.Current_Directory>
/home/itssahil/PROJECTS/Mol_Feturizer/New_Systems/rnas/3IQR

>  <Rbt.Executable>
rbdock ($Id: //depot/dev/client3/rdock/2013.1/src/exe/rbdock.cxx#4 $)

>  <Rbt.Library>
libRbt.so (2013.1, Build901 2013/11/27)

>  <Rbt.Parameter_File>
/export/apps/rDock/src/rDock_2013.1_src/data/scripts/dock_solv.prm

>  <Rbt.Receptor>
prm/pocket_docking_4.prm

>  <SCORE>
-17.8884

>  <SCORE.INTER>
-12.3187

>  <SCORE.INTER.CONST>
1

>  <SCORE.INTER.POLAR>
0

>  <SCORE.INTER.ROT>
7

>  <SCORE.INTER.SOLV>
8.83788

>  <SCORE.INTER.VDW>
-19.4251

>  <SCORE.INTER.norm>
-0.456246

>  <SCORE.INTRA>
-5.56977

>  <SCORE.INTRA.DIHEDRAL>
-2.7282

>  <SCORE.INTRA.DIHEDRAL.0>
9.29433

>  <SCORE.INTRA.POLAR>
0

>  <SCORE.INTRA.POLAR.0>
0

>  <SCORE.INTRA.REPUL>
0

>  <SCORE.INTRA.REPUL.0>
0

>  <SCORE.INTRA.SOLV>
1.02027

>  <SCORE.INTRA.SOLV.lig_0>
-48.5102

>  <SCORE.INTRA.VDW>
-4.7158

>  <SCORE.INTRA.VDW.0>
0.379549

>  <SCORE.INTRA.norm>
-0.206288

>  <SCORE.RESTR>
0

>  <SCORE.RESTR.CAVITY>
0

>  <SCORE.RESTR.norm>
0

>  <SCORE.SYSTEM>
0

>  <SCORE.SYSTEM.CONST>
0

>  <SCORE.SYSTEM.DIHEDRAL>
0

>  <SCORE.SYSTEM.SOLV>
0

>  <SCORE.SYSTEM.norm>
0

>  <SCORE.heavy>
27

>  <SCORE.norm>
-0.662534

>  <RMSD>
5.295

$$$$
ligand
 OpenBabel11021811483D
libRbt.so/2013.1/901 2013/11/27
 27 29  0  0  0  0  0  0  0  0999 V2000
   45.6560   56.9174   28.7244 N   0  0  0  0  0  0  0  0  0  0  0  0
   46.6428   57.0332   27.6517 C   0  0  2  0  0  0  0  0  0  0  0  0
   47.1098   55.6620   27.2571 C   0  0  0  0  0  0  0  0  0  0  0  0
   47.8215   55.5180   26.2685 O   0  0  0  0  0  0  0  0  0  0  0  0
   47.8432   57.8538   28.1215 C   0  0  0  0  0  0  0  0  0  0  0  0
   48.4638   57.1709   29.3267 C   0  0  0  0  0  0  0  0  0  0  0  0
   47.5474   57.4401   30.8773 S   0  0  2  0  0  0  0  0  0  0  0  0
   47.6993   59.2235   31.1912 C   0  0  0  0  0  0  0  0  0  0  0  0
   48.8283   57.0680   32.2207 C   0  0  0  0  0  0  0  0  0  0  0  0
   49.2761   55.5680   32.4767 C   0  0  2  0  0  0  0  0  0  0  0  0
   49.6538   54.7825   31.3688 O   0  0  0  0  0  0  0  0  0  0  0  0
   48.5209   54.7019   33.4035 C   0  0  1  0  0  0  0  0  0  0  0  0
   47.6690   55.4416   34.2791 O   0  0  0  0  0  0  0  0  0  0  0  0
   47.7686   53.8431   32.2802 C   0  0  2  0  0  0  0  0  0  0  0  0
   47.1414   52.7308   32.8442 O   0  0  0  0  0  0  0  0  0  0  0  0
   48.9510   53.4584   31.3929 C   0  0  1  0  0  0  0  0  0  0  0  0
   46.8120   54.6963   27.9483 O   0  0  0  0  0  0  0  0  0  0  0  0
   50.9676   54.6913   26.8604 N   0  0  0  0  0  0  0  0  0  0  0  0
   51.1389   55.2314   28.0699 C   0  0  0  0  0  0  0  0  0  0  0  0
   50.5272   54.7327   29.1402 N   0  0  0  0  0  0  0  0  0  0  0  0
   49.6331   53.7369   29.0354 C   0  0  0  0  0  0  0  0  0  0  0  0
   49.3751   53.1664   27.7621 C   0  0  0  0  0  0  0  0  0  0  0  0
   50.0962   53.6850   26.6509 C   0  0  0  0  0  0  0  0  0  0  0  0
   49.9139   53.1739   25.3818 N   0  0  0  0  0  0  0  0  0  0  0  0
   48.4495   52.2067   27.9351 N   0  0  0  0  0  0  0  0  0  0  0  0
   48.1178   52.1471   29.1972 C   0  0  0  0  0  0  0  0  0  0  0  0
   48.8235   53.0605   29.9291 N   0  0  0  0  0  0  0  0  0  0  0  0
  2  1  1  1  0  0  0
  2  3  1  0  0  0  0
  2  5  1  0  0  0  0
  3  4  1  0  0  0  0
  3 17  1  0  0  0  0
  5  6  1  0  0  0  0
  7  6  1  6  0  0  0
  7  8  1  0  0  0  0
  7  9  1  0  0  0  0
 10  9  1  6  0  0  0
 10 11  1  0  0  0  0
 10 12  1  0  0  0  0
 11 16  1  0  0  0  0
 12 13  1  1  0  0  0
 12 14  1  0  0  0  0
 14 15  1  1  0  0  0
 14 16  1  0  0  0  0
 16 27  1  6  0  0  0
 18 19  2  0  0  0  0
 18 23  1  0  0  0  0
 19 20  1  0  0  0  0
 20 21  2  0  0  0  0
 21 22  1  0  0  0  0
 21 27  1  0  0  0  0
 22 23  2  0  0  0  0
 22 25  1  0  0  0  0
 23 24  1  0  0  0  0
 25 26  2  0  0  0  0
 26 27  1  0  0  0  0
M  END
>  <CHROM.1>
171.43591411,59.18134768,-77.67088182,-65.22527010,-72.13775101,49.18935769
16.57282985,48.45098723,55.14645063,29.65566785,2.14371134,-1.19679315,1.81133703

>  <Name>
ligand

>  <RI>
0

>  <Rbt.Current_Directory>
/home/itssahil/PROJECTS/Mol_Feturizer/New_Systems/rnas/3IQR

>  <Rbt.Executable>
rbdock ($Id: //depot/dev/client3/rdock/2013.1/src/exe/rbdock.cxx#4 $)

>  <Rbt.Library>
libRbt.so (2013.1, Build901 2013/11/27)

>  <Rbt.Parameter_File>
/export/apps/rDock/src/rDock_2013.1_src/data/scripts/dock_solv.prm

>  <Rbt.Receptor>
prm/pocket_docking_4.prm

>  <SCORE>
-16.6767

>  <SCORE.INTER>
-12.0118

>  <SCORE.INTER.CONST>
1

>  <SCORE.INTER.POLAR>
0

>  <SCORE.INTER.ROT>
7

>  <SCORE.INTER.SOLV>
6.8825

>  <SCORE.INTER.VDW>
-18.5687

>  <SCORE.INTER.norm>
-0.44488

>  <SCORE.INTRA>
-4.74472

>  <SCORE.INTRA.DIHEDRAL>
-3.83929

>  <SCORE.INTRA.DIHEDRAL.0>
9.29433

>  <SCORE.INTRA.POLAR>
0

>  <SCORE.INTRA.POLAR.0>
0

>  <SCORE.INTRA.REPUL>
0

>  <SCORE.INTRA.REPUL.0>
0

>  <SCORE.INTRA.SOLV>
1.68453

>  <SCORE.INTRA.SOLV.lig_0>
-48.5102

>  <SCORE.INTRA.VDW>
-3.66733

>  <SCORE.INTRA.VDW.0>
0.379549

>  <SCORE.INTRA.norm>
-0.17573

>  <SCORE.RESTR>
0.0798094

>  <SCORE.RESTR.CAVITY>
0.0798094

>  <SCORE.RESTR.norm>
0.0029559

>  <SCORE.SYSTEM>
0

>  <SCORE.SYSTEM.CONST>
0

>  <SCORE.SYSTEM.DIHEDRAL>
0

>  <SCORE.SYSTEM.SOLV>
0

>  <SCORE.SYSTEM.norm>
0

>  <SCORE.heavy>
27

>  <SCORE.norm>
-0.617654

>  <RMSD>
5.298

$$$$
ligand
 OpenBabel11021811483D
libRbt.so/2013.1/901 2013/11/27
 27 29  0  0  0  0  0  0  0  0999 V2000
   49.6140   52.9111   24.2218 N   0  0  0  0  0  0  0  0  0  0  0  0
   50.3620   52.2684   25.3013 C   0  0  2  0  0  0  0  0  0  0  0  0
   51.2294   51.1856   24.7274 C   0  0  0  0  0  0  0  0  0  0  0  0
   51.1082   50.8629   23.5503 O   0  0  0  0  0  0  0  0  0  0  0  0
   49.4021   51.6529   26.3186 C   0  0  0  0  0  0  0  0  0  0  0  0
   48.5920   52.7627   26.9636 C   0  0  0  0  0  0  0  0  0  0  0  0
   49.6085   54.0668   27.7270 S   0  0  2  0  0  0  0  0  0  0  0  0
   49.7423   53.5761   29.4715 C   0  0  0  0  0  0  0  0  0  0  0  0
   48.3488   55.4076   28.1737 C   0  0  0  0  0  0  0  0  0  0  0  0
   48.8238   56.6830   28.9884 C   0  0  2  0  0  0  0  0  0  0  0  0
   49.2937   56.5010   30.3050 O   0  0  0  0  0  0  0  0  0  0  0  0
   48.0377   57.9322   28.9619 C   0  0  1  0  0  0  0  0  0  0  0  0
   47.1107   57.9776   27.8765 O   0  0  0  0  0  0  0  0  0  0  0  0
   47.3835   57.7682   30.4146 C   0  0  2  0  0  0  0  0  0  0  0  0
   46.7553   58.9501   30.8114 O   0  0  0  0  0  0  0  0  0  0  0  0
   48.6303   57.4641   31.2430 C   0  0  1  0  0  0  0  0  0  0  0  0
   52.0838   50.6567   25.4268 O   0  0  0  0  0  0  0  0  0  0  0  0
   47.3630   52.8992   33.1629 N   0  0  0  0  0  0  0  0  0  0  0  0
   47.2221   53.4005   31.9329 C   0  0  0  0  0  0  0  0  0  0  0  0
   47.6497   54.6236   31.6340 N   0  0  0  0  0  0  0  0  0  0  0  0
   48.1423   55.4431   32.5764 C   0  0  0  0  0  0  0  0  0  0  0  0
   48.2606   54.9751   33.9106 C   0  0  0  0  0  0  0  0  0  0  0  0
   47.8512   53.6393   34.1778 C   0  0  0  0  0  0  0  0  0  0  0  0
   47.9488   53.1042   35.4463 N   0  0  0  0  0  0  0  0  0  0  0  0
   48.7698   55.9816   34.6426 N   0  0  0  0  0  0  0  0  0  0  0  0
   48.9656   57.0200   33.8746 C   0  0  0  0  0  0  0  0  0  0  0  0
   48.6073   56.7452   32.5845 N   0  0  0  0  0  0  0  0  0  0  0  0
  2  1  1  6  0  0  0
  2  3  1  0  0  0  0
  2  5  1  0  0  0  0
  3  4  1  0  0  0  0
  3 17  1  0  0  0  0
  5  6  1  0  0  0  0
  7  6  1  6  0  0  0
  7  8  1  0  0  0  0
  7  9  1  0  0  0  0
 10  9  1  1  0  0  0
 10 11  1  0  0  0  0
 10 12  1  0  0  0  0
 11 16  1  0  0  0  0
 12 13  1  6  0  0  0
 12 14  1  0  0  0  0
 14 15  1  1  0  0  0
 14 16  1  0  0  0  0
 16 27  1  1  0  0  0
 18 19  2  0  0  0  0
 18 23  1  0  0  0  0
 19 20  1  0  0  0  0
 20 21  2  0  0  0  0
 21 22  1  0  0  0  0
 21 27  1  0  0  0  0
 22 23  2  0  0  0  0
 22 25  1  0  0  0  0
 23 24  1  0  0  0  0
 25 26  2  0  0  0  0
 26 27  1  0  0  0  0
M  END
>  <CHROM.1>
-8.60985259,-63.70681302,-55.46842892,-94.54769281,174.62445788,-64.76351575
-48.57133852,48.83469419,54.65026439,29.58723366,0.54519480,1.24576279,-1.04390942

>  <Name>
ligand

>  <RI>
0

>  <Rbt.Current_Directory>
/home/itssahil/PROJECTS/Mol_Feturizer/New_Systems/rnas/3IQR

>  <Rbt.Executable>
rbdock ($Id: //depot/dev/client3/rdock/2013.1/src/exe/rbdock.cxx#4 $)

>  <Rbt.Library>
libRbt.so (2013.1, Build901 2013/11/27)

>  <Rbt.Parameter_File>
/export/apps/rDock/src/rDock_2013.1_src/data/scripts/dock_solv.prm

>  <Rbt.Receptor>
prm/pocket_docking_6.prm

>  <SCORE>
-13.9808

>  <SCORE.INTER>
-8.91919

>  <SCORE.INTER.CONST>
1

>  <SCORE.INTER.POLAR>
0

>  <SCORE.INTER.ROT>
7

>  <SCORE.INTER.SOLV>
9.59207

>  <SCORE.INTER.VDW>
-17.4102

>  <SCORE.INTER.norm>
-0.33034

>  <SCORE.INTRA>
-5.11241

>  <SCORE.INTRA.DIHEDRAL>
-3.98084

>  <SCORE.INTRA.DIHEDRAL.0>
9.29433

>  <SCORE.INTRA.POLAR>
0

>  <SCORE.INTRA.POLAR.0>
0

>  <SCORE.INTRA.REPUL>
0

>  <SCORE.INTRA.REPUL.0>
0

>  <SCORE.INTRA.SOLV>
-0.385768

>  <SCORE.INTRA.SOLV.lig_0>
-48.5102

>  <SCORE.INTRA.VDW>
-2.9291

>  <SCORE.INTRA.VDW.0>
0.379549

>  <SCORE.INTRA.norm>
-0.189348

>  <SCORE.RESTR>
0.050841

>  <SCORE.RESTR.CAVITY>
0.050841

>  <SCORE.RESTR.norm>
0.001883

>  <SCORE.SYSTEM>
0

>  <SCORE.SYSTEM.CONST>
0

>  <SCORE.SYSTEM.DIHEDRAL>
0

>  <SCORE.SYSTEM.SOLV>
0

>  <SCORE.SYSTEM.norm>
0

>  <SCORE.heavy>
27

>  <SCORE.norm>
-0.517806

>  <RMSD>
5.299

$$$$
ligand
 OpenBabel11021811483D
libRbt.so/2013.1/901 2013/11/27
 27 29  0  0  0  0  0  0  0  0999 V2000
   47.3809   55.5283   28.5943 N   0  0  0  0  0  0  0  0  0  0  0  0
   47.1734   56.9093   29.0275 C   0  0  2  0  0  0  0  0  0  0  0  0
   46.6303   57.7124   27.8811 C   0  0  0  0  0  0  0  0  0  0  0  0
   45.5424   58.2695   27.9844 O   0  0  0  0  0  0  0  0  0  0  0  0
   48.4941   57.5252   29.4874 C   0  0  0  0  0  0  0  0  0  0  0  0
   48.8765   56.9236   30.8275 C   0  0  0  0  0  0  0  0  0  0  0  0
   47.8222   57.4723   32.2075 S   0  0  2  0  0  0  0  0  0  0  0  0
   48.6467   58.9607   32.8454 C   0  0  0  0  0  0  0  0  0  0  0  0
   48.4532   56.4607   33.6780 C   0  0  0  0  0  0  0  0  0  0  0  0
   48.2805   54.8839   33.6709 C   0  0  2  0  0  0  0  0  0  0  0  0
   49.0876   54.1249   32.7993 O   0  0  0  0  0  0  0  0  0  0  0  0
   46.9377   54.2709   33.6861 C   0  0  1  0  0  0  0  0  0  0  0  0
   45.9192   55.1839   34.0967 O   0  0  0  0  0  0  0  0  0  0  0  0
   46.9059   53.8604   32.1383 C   0  0  2  0  0  0  0  0  0  0  0  0
   45.8329   53.0074   31.8739 O   0  0  0  0  0  0  0  0  0  0  0  0
   48.2554   53.1556   32.0147 C   0  0  1  0  0  0  0  0  0  0  0  0
   47.2950   57.8423   26.8612 O   0  0  0  0  0  0  0  0  0  0  0  0
   47.2997   51.8664   27.1613 N   0  0  0  0  0  0  0  0  0  0  0  0
   46.5055   51.8806   28.2352 C   0  0  0  0  0  0  0  0  0  0  0  0
   46.9562   52.2814   29.4203 N   0  0  0  0  0  0  0  0  0  0  0  0
   48.2495   52.5862   29.6113 C   0  0  0  0  0  0  0  0  0  0  0  0
   49.1452   52.5326   28.5121 C   0  0  0  0  0  0  0  0  0  0  0  0
   48.6120   52.1604   27.2469 C   0  0  0  0  0  0  0  0  0  0  0  0
   49.4143   52.0996   26.1255 N   0  0  0  0  0  0  0  0  0  0  0  0
   50.3616   52.8746   28.9718 N   0  0  0  0  0  0  0  0  0  0  0  0
   50.2866   53.1249   30.2516 C   0  0  0  0  0  0  0  0  0  0  0  0
   49.0050   52.9747   30.7022 N   0  0  0  0  0  0  0  0  0  0  0  0
  2  1  1  6  0  0  0
  2  3  1  0  0  0  0
  2  5  1  0  0  0  0
  3  4  1  0  0  0  0
  3 17  1  0  0  0  0
  5  6  1  0  0  0  0
  7  6  1  6  0  0  0
  7  8  1  0  0  0  0
  7  9  1  0  0  0  0
 10  9  1  6  0  0  0
 10 11  1  0  0  0  0
 10 12  1  0  0  0  0
 11 16  1  0  0  0  0
 12 13  1  6  0  0  0
 12 14  1  0  0  0  0
 14 15  1  1  0  0  0
 14 16  1  0  0  0  0
 16 27  1  6  0  0  0
 18 19  2  0  0  0  0
 18 23  1  0  0  0  0
 19 20  1  0  0  0  0
 20 21  2  0  0  0  0
 21 22  1  0  0  0  0
 21 27  1  0  0  0  0
 22 23  2  0  0  0  0
 22 25  1  0  0  0  0
 23 24  1  0  0  0  0
 25 26  2  0  0  0  0
 26 27  1  0  0  0  0
M  END
>  <CHROM.1>
120.48851258,-72.90096763,-71.01816148,-89.91301066,-65.19715493,72.09509088
-154.93960927,47.86579772,54.89259863,30.35595714,0.90317309,1.40964971,-1.64611064

>  <Name>
ligand

>  <RI>
0

>  <Rbt.Current_Directory>
/home/itssahil/PROJECTS/Mol_Feturizer/New_Systems/rnas/3IQR

>  <Rbt.Executable>
rbdock ($Id: //depot/dev/client3/rdock/2013.1/src/exe/rbdock.cxx#4 $)

>  <Rbt.Library>
libRbt.so (2013.1, Build901 2013/11/27)

>  <Rbt.Parameter_File>
/export/apps/rDock/src/rDock_2013.1_src/data/scripts/dock_solv.prm

>  <Rbt.Receptor>
prm/pocket_docking_3.prm

>  <SCORE>
-19.3708

>  <SCORE.INTER>
-13.4912

>  <SCORE.INTER.CONST>
1

>  <SCORE.INTER.POLAR>
0

>  <SCORE.INTER.ROT>
7

>  <SCORE.INTER.SOLV>
6.83288

>  <SCORE.INTER.VDW>
-19.5384

>  <SCORE.INTER.norm>
-0.499675

>  <SCORE.INTRA>
-5.90259

>  <SCORE.INTRA.DIHEDRAL>
-3.01293

>  <SCORE.INTRA.DIHEDRAL.0>
9.29433

>  <SCORE.INTRA.POLAR>
0

>  <SCORE.INTRA.POLAR.0>
0

>  <SCORE.INTRA.REPUL>
0

>  <SCORE.INTRA.REPUL.0>
0

>  <SCORE.INTRA.SOLV>
1.7051

>  <SCORE.INTRA.SOLV.lig_0>
-48.5102

>  <SCORE.INTRA.VDW>
-5.24867

>  <SCORE.INTRA.VDW.0>
0.379549

>  <SCORE.INTRA.norm>
-0.218614

>  <SCORE.RESTR>
0.0230356

>  <SCORE.RESTR.CAVITY>
0.0230356

>  <SCORE.RESTR.norm>
0.000853169

>  <SCORE.SYSTEM>
0

>  <SCORE.SYSTEM.CONST>
0

>  <SCORE.SYSTEM.DIHEDRAL>
0

>  <SCORE.SYSTEM.SOLV>
0

>  <SCORE.SYSTEM.norm>
0

>  <SCORE.heavy>
27

>  <SCORE.norm>
-0.717436

>  <RMSD>
5.307

$$$$
ligand
 OpenBabel11021811483D
libRbt.so/2013.1/901 2013/11/27
 27 29  0  0  0  0  0  0  0  0999 V2000
   46.9483   56.2283   27.0029 N   0  0  0  0  0  0  0  0  0  0  0  0
   47.0581   56.4420   28.4452 C   0  0  2  0  0  0  0  0  0  0  0  0
   45.7967   57.0815   28.9493 C   0  0  0  0  0  0  0  0  0  0  0  0
   45.1758   56.5666   29.8733 O   0  0  0  0  0  0  0  0  0  0  0  0
   48.2414   57.3572   28.7573 C   0  0  0  0  0  0  0  0  0  0  0  0
   48.6640   57.1397   30.1988 C   0  0  0  0  0  0  0  0  0  0  0  0
   47.4950   57.8200   31.4184 S   0  0  2  0  0  0  0  0  0  0  0  0
   48.1165   59.4932   31.7595 C   0  0  0  0  0  0  0  0  0  0  0  0
   48.1719   57.2026   33.0750 C   0  0  0  0  0  0  0  0  0  0  0  0
   48.1298   55.6516   33.4050 C   0  0  2  0  0  0  0  0  0  0  0  0
   48.9400   54.7824   32.6464 O   0  0  0  0  0  0  0  0  0  0  0  0
   46.8457   54.9663   33.6515 C   0  0  1  0  0  0  0  0  0  0  0  0
   45.7835   55.8744   33.9454 O   0  0  0  0  0  0  0  0  0  0  0  0
   46.7501   54.2382   32.2282 C   0  0  2  0  0  0  0  0  0  0  0  0
   45.7365   53.2782   32.2299 O   0  0  0  0  0  0  0  0  0  0  0  0
   48.1426   53.6159   32.1455 C   0  0  1  0  0  0  0  0  0  0  0  0
   45.4146   58.1380   28.4629 O   0  0  0  0  0  0  0  0  0  0  0  0
   46.8807   51.8870   27.5034 N   0  0  0  0  0  0  0  0  0  0  0  0
   46.1337   52.1016   28.5897 C   0  0  0  0  0  0  0  0  0  0  0  0
   46.6662   52.5872   29.7072 N   0  0  0  0  0  0  0  0  0  0  0  0
   47.9892   52.7814   29.8258 C   0  0  0  0  0  0  0  0  0  0  0  0
   48.8324   52.5149   28.7162 C   0  0  0  0  0  0  0  0  0  0  0  0
   48.2175   52.0567   27.5181 C   0  0  0  0  0  0  0  0  0  0  0  0
   48.9662   51.7899   26.3897 N   0  0  0  0  0  0  0  0  0  0  0  0
   50.0928   52.7840   29.0993 N   0  0  0  0  0  0  0  0  0  0  0  0
   50.0917   53.1839   30.3429 C   0  0  0  0  0  0  0  0  0  0  0  0
   48.8200   53.2139   30.8429 N   0  0  0  0  0  0  0  0  0  0  0  0
  2  1  1  6  0  0  0
  2  3  1  0  0  0  0
  2  5  1  0  0  0  0
  3  4  1  0  0  0  0
  3 17  1  0  0  0  0
  5  6  1  0  0  0  0
  7  6  1  6  0  0  0
  7  8  1  0  0  0  0
  7  9  1  0  0  0  0
 10  9  1  6  0  0  0
 10 11  1  0  0  0  0
 10 12  1  0  0  0  0
 11 16  1  0  0  0  0
 12 13  1  6  0  0  0
 12 14  1  0  0  0  0
 14 15  1  1  0  0  0
 14 16  1  0  0  0  0
 16 27  1  6  0  0  0
 18 19  2  0  0  0  0
 18 23  1  0  0  0  0
 19 20  1  0  0  0  0
 20 21  2  0  0  0  0
 21 22  1  0  0  0  0
 21 27  1  0  0  0  0
 22 23  2  0  0  0  0
 22 25  1  0  0  0  0
 23 24  1  0  0  0  0
 25 26  2  0  0  0  0
 26 27  1  0  0  0  0
M  END
>  <CHROM.1>
125.83556542,-158.29427597,-72.01589853,-92.62482087,-67.48508742,67.10695208
-143.41699607,47.51694564,55.06239820,30.35432703,0.89095419,1.33188463,-1.84355447

>  <Name>
ligand

>  <RI>
0

>  <Rbt.Current_Directory>
/home/itssahil/PROJECTS/Mol_Feturizer/New_Systems/rnas/3IQR

>  <Rbt.Executable>
rbdock ($Id: //depot/dev/client3/rdock/2013.1/src/exe/rbdock.cxx#4 $)

>  <Rbt.Library>
libRbt.so (2013.1, Build901 2013/11/27)

>  <Rbt.Parameter_File>
/export/apps/rDock/src/rDock_2013.1_src/data/scripts/dock_solv.prm

>  <Rbt.Receptor>
prm/pocket_docking_3.prm

>  <SCORE>
-19.2445

>  <SCORE.INTER>
-11.9746

>  <SCORE.INTER.CONST>
1

>  <SCORE.INTER.POLAR>
0

>  <SCORE.INTER.ROT>
7

>  <SCORE.INTER.SOLV>
9.25407

>  <SCORE.INTER.VDW>
-19.3344

>  <SCORE.INTER.norm>
-0.443503

>  <SCORE.INTRA>
-7.26987

>  <SCORE.INTRA.DIHEDRAL>
-1.96734

>  <SCORE.INTRA.DIHEDRAL.0>
9.29433

>  <SCORE.INTRA.POLAR>
0

>  <SCORE.INTRA.POLAR.0>
0

>  <SCORE.INTRA.REPUL>
0

>  <SCORE.INTRA.REPUL.0>
0

>  <SCORE.INTRA.SOLV>
-1.22255

>  <SCORE.INTRA.SOLV.lig_0>
-48.5102

>  <SCORE.INTRA.VDW>
-5.67493

>  <SCORE.INTRA.VDW.0>
0.379549

>  <SCORE.INTRA.norm>
-0.269254

>  <SCORE.RESTR>
0

>  <SCORE.RESTR.CAVITY>
0

>  <SCORE.RESTR.norm>
0

>  <SCORE.SYSTEM>
0

>  <SCORE.SYSTEM.CONST>
0

>  <SCORE.SYSTEM.DIHEDRAL>
0

>  <SCORE.SYSTEM.SOLV>
0

>  <SCORE.SYSTEM.norm>
0

>  <SCORE.heavy>
27

>  <SCORE.norm>
-0.712758

>  <RMSD>
5.308

$$$$
ligand
 OpenBabel11021811483D
libRbt.so/2013.1/901 2013/11/27
 27 29  0  0  0  0  0  0  0  0999 V2000
   48.6013   52.4077   26.5739 N   0  0  0  0  0  0  0  0  0  0  0  0
   47.4556   53.3129   26.4976 C   0  0  2  0  0  0  0  0  0  0  0  0
   46.6728   53.0182   25.2508 C   0  0  0  0  0  0  0  0  0  0  0  0
   45.4587   52.8551   25.3139 O   0  0  0  0  0  0  0  0  0  0  0  0
   47.9288   54.7654   26.4586 C   0  0  0  0  0  0  0  0  0  0  0  0
   46.7219   55.6787   26.5732 C   0  0  0  0  0  0  0  0  0  0  0  0
   45.7692   55.4491   28.1082 S   0  0  2  0  0  0  0  0  0  0  0  0
   44.5198   56.7681   28.0693 C   0  0  0  0  0  0  0  0  0  0  0  0
   46.7725   56.4017   29.4004 C   0  0  0  0  0  0  0  0  0  0  0  0
   48.0101   55.6982   30.1001 C   0  0  2  0  0  0  0  0  0  0  0  0
   47.7756   54.5435   30.8740 O   0  0  0  0  0  0  0  0  0  0  0  0
   49.0431   56.4970   30.7887 C   0  0  1  0  0  0  0  0  0  0  0  0
   49.0136   57.8754   30.4164 O   0  0  0  0  0  0  0  0  0  0  0  0
   48.5555   56.1802   32.2811 C   0  0  2  0  0  0  0  0  0  0  0  0
   49.5061   56.6012   33.2127 O   0  0  0  0  0  0  0  0  0  0  0  0
   48.4393   54.6587   32.2134 C   0  0  1  0  0  0  0  0  0  0  0  0
   47.2442   52.9825   24.1686 O   0  0  0  0  0  0  0  0  0  0  0  0
   47.8503   53.8270   37.2226 N   0  0  0  0  0  0  0  0  0  0  0  0
   48.7589   54.5439   36.5559 C   0  0  0  0  0  0  0  0  0  0  0  0
   48.7156   54.6507   35.2311 N   0  0  0  0  0  0  0  0  0  0  0  0
   47.8253   53.9599   34.5015 C   0  0  0  0  0  0  0  0  0  0  0  0
   46.8737   53.1400   35.1613 C   0  0  0  0  0  0  0  0  0  0  0  0
   46.9120   53.1014   36.5828 C   0  0  0  0  0  0  0  0  0  0  0  0
   46.0109   52.3404   37.2996 N   0  0  0  0  0  0  0  0  0  0  0  0
   46.1159   52.5646   34.2112 N   0  0  0  0  0  0  0  0  0  0  0  0
   46.5254   52.9563   33.0342 C   0  0  0  0  0  0  0  0  0  0  0  0
   47.5718   53.8281   33.1487 N   0  0  0  0  0  0  0  0  0  0  0  0
  2  1  1  6  0  0  0
  2  3  1  0  0  0  0
  2  5  1  0  0  0  0
  3  4  1  0  0  0  0
  3 17  1  0  0  0  0
  5  6  1  0  0  0  0
  7  6  1  6  0  0  0
  7  8  1  0  0  0  0
  7  9  1  0  0  0  0
 10  9  1  1  0  0  0
 10 11  1  0  0  0  0
 10 12  1  0  0  0  0
 11 16  1  0  0  0  0
 12 13  1  6  0  0  0
 12 14  1  0  0  0  0
 14 15  1  1  0  0  0
 14 16  1  0  0  0  0
 16 27  1  1  0  0  0
 18 19  2  0  0  0  0
 18 23  1  0  0  0  0
 19 20  1  0  0  0  0
 20 21  2  0  0  0  0
 21 22  1  0  0  0  0
 21 27  1  0  0  0  0
 22 23  2  0  0  0  0
 22 25  1  0  0  0  0
 23 24  1  0  0  0  0
 25 26  2  0  0  0  0
 26 27  1  0  0  0  0
M  END
>  <CHROM.1>
129.99807529,-172.27041984,59.90638297,173.92360571,-83.50912777,-62.02090302
-168.68645446,47.35043943,54.55237101,30.81326505,1.78202697,-1.11361768
-1.34306275

>  <Name>
ligand

>  <RI>
0

>  <Rbt.Current_Directory>
/home/itssahil/PROJECTS/Mol_Feturizer/New_Systems/rnas/3IQR

>  <Rbt.Executable>
rbdock ($Id: //depot/dev/client3/rdock/2013.1/src/exe/rbdock.cxx#4 $)

>  <Rbt.Library>
libRbt.so (2013.1, Build901 2013/11/27)

>  <Rbt.Parameter_File>
/export/apps/rDock/src/rDock_2013.1_src/data/scripts/dock_solv.prm

>  <Rbt.Receptor>
prm/pocket_docking_8.prm

>  <SCORE>
-16.2865

>  <SCORE.INTER>
-10.1389

>  <SCORE.INTER.CONST>
1

>  <SCORE.INTER.POLAR>
0

>  <SCORE.INTER.ROT>
7

>  <SCORE.INTER.SOLV>
12.1518

>  <SCORE.INTER.VDW>
-19.0766

>  <SCORE.INTER.norm>
-0.375516

>  <SCORE.INTRA>
-6.14751

>  <SCORE.INTRA.DIHEDRAL>
-4.24615

>  <SCORE.INTRA.DIHEDRAL.0>
9.29433

>  <SCORE.INTRA.POLAR>
0

>  <SCORE.INTRA.POLAR.0>
0

>  <SCORE.INTRA.REPUL>
0

>  <SCORE.INTRA.REPUL.0>
0

>  <SCORE.INTRA.SOLV>
-1.56062

>  <SCORE.INTRA.SOLV.lig_0>
-48.5102

>  <SCORE.INTRA.VDW>
-3.24413

>  <SCORE.INTRA.VDW.0>
0.379549

>  <SCORE.INTRA.norm>
-0.227686

>  <SCORE.RESTR>
0

>  <SCORE.RESTR.CAVITY>
0

>  <SCORE.RESTR.norm>
0

>  <SCORE.SYSTEM>
0

>  <SCORE.SYSTEM.CONST>
0

>  <SCORE.SYSTEM.DIHEDRAL>
0

>  <SCORE.SYSTEM.SOLV>
0

>  <SCORE.SYSTEM.norm>
0

>  <SCORE.heavy>
27

>  <SCORE.norm>
-0.603202

>  <RMSD>
5.310

$$$$
ligand
 OpenBabel11021811483D
libRbt.so/2013.1/901 2013/11/27
 27 29  0  0  0  0  0  0  0  0999 V2000
   49.5623   53.1834   26.0767 N   0  0  0  0  0  0  0  0  0  0  0  0
   50.0891   52.0042   26.7623 C   0  0  2  0  0  0  0  0  0  0  0  0
   50.4638   50.9653   25.7453 C   0  0  0  0  0  0  0  0  0  0  0  0
   51.6273   50.5878   25.6550 O   0  0  0  0  0  0  0  0  0  0  0  0
   49.0356   51.4237   27.7048 C   0  0  0  0  0  0  0  0  0  0  0  0
   48.9539   52.2936   28.9459 C   0  0  0  0  0  0  0  0  0  0  0  0
   48.4223   54.0032   28.6120 S   0  0  2  0  0  0  0  0  0  0  0  0
   49.9442   54.9869   28.7465 C   0  0  0  0  0  0  0  0  0  0  0  0
   47.8397   54.6254   30.3023 C   0  0  0  0  0  0  0  0  0  0  0  0
   48.6795   54.2627   31.5983 C   0  0  2  0  0  0  0  0  0  0  0  0
   48.1583   53.3012   32.4877 O   0  0  0  0  0  0  0  0  0  0  0  0
   49.3171   55.3212   32.4060 C   0  0  1  0  0  0  0  0  0  0  0  0
   49.4271   56.5599   31.7039 O   0  0  0  0  0  0  0  0  0  0  0  0
   48.2531   55.3047   33.6030 C   0  0  2  0  0  0  0  0  0  0  0  0
   48.7193   56.0455   34.6905 O   0  0  0  0  0  0  0  0  0  0  0  0
   48.1974   53.8071   33.8984 C   0  0  1  0  0  0  0  0  0  0  0  0
   49.5977   50.4680   25.0370 O   0  0  0  0  0  0  0  0  0  0  0  0
   43.0863   53.8554   33.8262 N   0  0  0  0  0  0  0  0  0  0  0  0
   43.9773   54.6243   33.1945 C   0  0  0  0  0  0  0  0  0  0  0  0
   45.2841   54.4231   33.3358 N   0  0  0  0  0  0  0  0  0  0  0  0
   45.7634   53.5121   34.1976 C   0  0  0  0  0  0  0  0  0  0  0  0
   44.8556   52.7078   34.9339 C   0  0  0  0  0  0  0  0  0  0  0  0
   43.4657   52.9098   34.7082 C   0  0  0  0  0  0  0  0  0  0  0  0
   42.5190   52.1573   35.3734 N   0  0  0  0  0  0  0  0  0  0  0  0
   45.5871   51.8943   35.7156 N   0  0  0  0  0  0  0  0  0  0  0  0
   46.8565   52.1361   35.5248 C   0  0  0  0  0  0  0  0  0  0  0  0
   47.0293   53.1180   34.5899 N   0  0  0  0  0  0  0  0  0  0  0  0
  2  1  1  6  0  0  0
  2  3  1  0  0  0  0
  2  5  1  0  0  0  0
  3  4  1  0  0  0  0
  3 17  1  0  0  0  0
  5  6  1  0  0  0  0
  7  6  1  1  0  0  0
  7  8  1  0  0  0  0
  7  9  1  0  0  0  0
 10  9  1  1  0  0  0
 10 11  1  0  0  0  0
 10 12  1  0  0  0  0
 11 16  1  0  0  0  0
 12 13  1  6  0  0  0
 12 14  1  0  0  0  0
 14 15  1  1  0  0  0
 14 16  1  0  0  0  0
 16 27  1  1  0  0  0
 18 19  2  0  0  0  0
 18 23  1  0  0  0  0
 19 20  1  0  0  0  0
 20 21  2  0  0  0  0
 21 22  1  0  0  0  0
 21 27  1  0  0  0  0
 22 23  2  0  0  0  0
 22 25  1  0  0  0  0
 23 24  1  0  0  0  0
 25 26  2  0  0  0  0
 26 27  1  0  0  0  0
M  END
>  <CHROM.1>
118.52000542,-76.27482899,62.54164227,-104.69632470,41.47736877,-106.62249524
-69.17627869,47.71119732,53.39325804,31.22848354,0.88750769,-0.65786418,-2.21197403

>  <Name>
ligand

>  <RI>
0

>  <Rbt.Current_Directory>
/home/itssahil/PROJECTS/Mol_Feturizer/New_Systems/rnas/3IQR

>  <Rbt.Executable>
rbdock ($Id: //depot/dev/client3/rdock/2013.1/src/exe/rbdock.cxx#4 $)

>  <Rbt.Library>
libRbt.so (2013.1, Build901 2013/11/27)

>  <Rbt.Parameter_File>
/export/apps/rDock/src/rDock_2013.1_src/data/scripts/dock_solv.prm

>  <Rbt.Receptor>
prm/pocket_docking_8.prm

>  <SCORE>
-14.3708

>  <SCORE.INTER>
-13.019

>  <SCORE.INTER.CONST>
1

>  <SCORE.INTER.POLAR>
0

>  <SCORE.INTER.ROT>
7

>  <SCORE.INTER.SOLV>
8.07887

>  <SCORE.INTER.VDW>
-19.639

>  <SCORE.INTER.norm>
-0.482185

>  <SCORE.INTRA>
-1.35179

>  <SCORE.INTRA.DIHEDRAL>
1.61066

>  <SCORE.INTRA.DIHEDRAL.0>
9.29433

>  <SCORE.INTRA.POLAR>
0

>  <SCORE.INTRA.POLAR.0>
0

>  <SCORE.INTRA.REPUL>
0

>  <SCORE.INTRA.REPUL.0>
0

>  <SCORE.INTRA.SOLV>
1.3245

>  <SCORE.INTRA.SOLV.lig_0>
-48.5102

>  <SCORE.INTRA.VDW>
-2.81937

>  <SCORE.INTRA.VDW.0>
0.379549

>  <SCORE.INTRA.norm>
-0.0500662

>  <SCORE.RESTR>
0

>  <SCORE.RESTR.CAVITY>
0

>  <SCORE.RESTR.norm>
0

>  <SCORE.SYSTEM>
0

>  <SCORE.SYSTEM.CONST>
0

>  <SCORE.SYSTEM.DIHEDRAL>
0

>  <SCORE.SYSTEM.SOLV>
0

>  <SCORE.SYSTEM.norm>
0

>  <SCORE.heavy>
27

>  <SCORE.norm>
-0.532251

>  <RMSD>
5.310

$$$$
ligand
 OpenBabel11021811483D
libRbt.so/2013.1/901 2013/11/27
 27 29  0  0  0  0  0  0  0  0999 V2000
   43.8978   54.5508   31.9722 N   0  0  0  0  0  0  0  0  0  0  0  0
   45.1225   55.1575   31.4527 C   0  0  2  0  0  0  0  0  0  0  0  0
   45.2121   56.5789   31.9280 C   0  0  0  0  0  0  0  0  0  0  0  0
   44.2132   57.2908   31.9227 O   0  0  0  0  0  0  0  0  0  0  0  0
   45.1158   55.1412   29.9247 C   0  0  0  0  0  0  0  0  0  0  0  0
   46.4929   55.5362   29.4231 C   0  0  0  0  0  0  0  0  0  0  0  0
   47.6925   54.1660   29.4122 S   0  0  2  0  0  0  0  0  0  0  0  0
   46.7318   52.7253   28.8609 C   0  0  0  0  0  0  0  0  0  0  0  0
   47.6629   53.5355   31.1970 C   0  0  0  0  0  0  0  0  0  0  0  0
   48.8268   53.9530   32.1906 C   0  0  2  0  0  0  0  0  0  0  0  0
   48.7871   53.4652   33.5126 O   0  0  0  0  0  0  0  0  0  0  0  0
   49.3134   55.3458   32.2413 C   0  0  1  0  0  0  0  0  0  0  0  0
   48.9326   56.1052   31.0933 O   0  0  0  0  0  0  0  0  0  0  0  0
   48.5754   55.7486   33.6045 C   0  0  2  0  0  0  0  0  0  0  0  0
   49.0466   56.9737   34.0797 O   0  0  0  0  0  0  0  0  0  0  0  0
   48.9899   54.5791   34.4954 C   0  0  1  0  0  0  0  0  0  0  0  0
   46.2741   57.0100   32.3584 O   0  0  0  0  0  0  0  0  0  0  0  0
   44.3366   52.9035   35.7876 N   0  0  0  0  0  0  0  0  0  0  0  0
   44.8150   53.3433   34.6207 C   0  0  0  0  0  0  0  0  0  0  0  0
   46.0854   53.7148   34.4928 N   0  0  0  0  0  0  0  0  0  0  0  0
   46.9105   53.7646   35.5505 C   0  0  0  0  0  0  0  0  0  0  0  0
   46.4325   53.3597   36.8237 C   0  0  0  0  0  0  0  0  0  0  0  0
   45.0859   52.9088   36.9076 C   0  0  0  0  0  0  0  0  0  0  0  0
   44.5502   52.4835   38.1064 N   0  0  0  0  0  0  0  0  0  0  0  0
   47.4444   53.5105   37.6961 N   0  0  0  0  0  0  0  0  0  0  0  0
   48.4915   53.9760   37.0689 C   0  0  0  0  0  0  0  0  0  0  0  0
   48.2270   54.1431   35.7384 N   0  0  0  0  0  0  0  0  0  0  0  0
  2  1  1  1  0  0  0
  2  3  1  0  0  0  0
  2  5  1  0  0  0  0
  3  4  1  0  0  0  0
  3 17  1  0  0  0  0
  5  6  1  0  0  0  0
  7  6  1  1  0  0  0
  7  8  1  0  0  0  0
  7  9  1  0  0  0  0
 10  9  1  1  0  0  0
 10 11  1  0  0  0  0
 10 12  1  0  0  0  0
 11 16  1  0  0  0  0
 12 13  1  6  0  0  0
 12 14  1  0  0  0  0
 14 15  1  1  0  0  0
 14 16  1  0  0  0  0
 16 27  1  1  0  0  0
 18 19  2  0  0  0  0
 18 23  1  0  0  0  0
 19 20  1  0  0  0  0
 20 21  2  0  0  0  0
 21 22  1  0  0  0  0
 21 27  1  0  0  0  0
 22 23  2  0  0  0  0
 22 25  1  0  0  0  0
 23 24  1  0  0  0  0
 25 26  2  0  0  0  0
 26 27  1  0  0  0  0
M  END
>  <CHROM.1>
-42.30471892,-169.66929440,82.06401074,39.17776972,-101.32039605,-179.65894843
-51.89917172,46.84808667,54.54931843,33.15002243,1.49849252,-0.10955700,-1.34119313

>  <Name>
ligand

>  <RI>
0

>  <Rbt.Current_Directory>
/home/itssahil/PROJECTS/Mol_Feturizer/New_Systems/rnas/3IQR

>  <Rbt.Executable>
rbdock ($Id: //depot/dev/client3/rdock/2013.1/src/exe/rbdock.cxx#4 $)

>  <Rbt.Library>
libRbt.so (2013.1, Build901 2013/11/27)

>  <Rbt.Parameter_File>
/export/apps/rDock/src/rDock_2013.1_src/data/scripts/dock_solv.prm

>  <Rbt.Receptor>
prm/pocket_docking_7.prm

>  <SCORE>
-14.4585

>  <SCORE.INTER>
-11.0181

>  <SCORE.INTER.CONST>
1

>  <SCORE.INTER.POLAR>
0

>  <SCORE.INTER.ROT>
7

>  <SCORE.INTER.SOLV>
9.9052

>  <SCORE.INTER.VDW>
-18.9138

>  <SCORE.INTER.norm>
-0.408078

>  <SCORE.INTRA>
-3.46107

>  <SCORE.INTRA.DIHEDRAL>
-0.349511

>  <SCORE.INTRA.DIHEDRAL.0>
9.29433

>  <SCORE.INTRA.POLAR>
0

>  <SCORE.INTRA.POLAR.0>
0

>  <SCORE.INTRA.REPUL>
0

>  <SCORE.INTRA.REPUL.0>
0

>  <SCORE.INTRA.SOLV>
0.648605

>  <SCORE.INTRA.SOLV.lig_0>
-48.5102

>  <SCORE.INTRA.VDW>
-3.61062

>  <SCORE.INTRA.VDW.0>
0.379549

>  <SCORE.INTRA.norm>
-0.128188

>  <SCORE.RESTR>
0.0207096

>  <SCORE.RESTR.CAVITY>
0.0207096

>  <SCORE.RESTR.norm>
0.000767023

>  <SCORE.SYSTEM>
0

>  <SCORE.SYSTEM.CONST>
0

>  <SCORE.SYSTEM.DIHEDRAL>
0

>  <SCORE.SYSTEM.SOLV>
0

>  <SCORE.SYSTEM.norm>
0

>  <SCORE.heavy>
27

>  <SCORE.norm>
-0.535499

>  <RMSD>
5.311

$$$$
ligand
 OpenBabel11021811483D
libRbt.so/2013.1/901 2013/11/27
 27 29  0  0  0  0  0  0  0  0999 V2000
   46.5870   57.0108   29.3596 N   0  0  0  0  0  0  0  0  0  0  0  0
   47.9208   56.7339   28.8282 C   0  0  2  0  0  0  0  0  0  0  0  0
   47.7998   55.8512   27.6197 C   0  0  0  0  0  0  0  0  0  0  0  0
   48.5546   56.0110   26.6662 O   0  0  0  0  0  0  0  0  0  0  0  0
   48.7746   56.0267   29.8799 C   0  0  0  0  0  0  0  0  0  0  0  0
   49.2425   57.0481   30.9006 C   0  0  0  0  0  0  0  0  0  0  0  0
   47.9448   57.5698   32.0670 S   0  0  2  0  0  0  0  0  0  0  0  0
   48.6120   59.0686   32.8485 C   0  0  0  0  0  0  0  0  0  0  0  0
   48.3162   56.5606   33.6251 C   0  0  0  0  0  0  0  0  0  0  0  0
   48.0643   54.9945   33.6179 C   0  0  2  0  0  0  0  0  0  0  0  0
   48.8777   54.1883   32.7959 O   0  0  0  0  0  0  0  0  0  0  0  0
   46.6932   54.4500   33.5636 C   0  0  1  0  0  0  0  0  0  0  0  0
   45.7018   55.4167   33.9129 O   0  0  0  0  0  0  0  0  0  0  0  0
   46.7243   54.0284   32.0188 C   0  0  2  0  0  0  0  0  0  0  0  0
   45.6252   53.2282   31.7015 O   0  0  0  0  0  0  0  0  0  0  0  0
   48.0409   53.2555   31.9729 C   0  0  1  0  0  0  0  0  0  0  0  0
   46.9741   54.9472   27.6076 O   0  0  0  0  0  0  0  0  0  0  0  0
   47.2868   51.9521   27.0879 N   0  0  0  0  0  0  0  0  0  0  0  0
   46.4383   52.0144   28.1176 C   0  0  0  0  0  0  0  0  0  0  0  0
   46.8431   52.4089   29.3212 N   0  0  0  0  0  0  0  0  0  0  0  0
   48.1369   52.6582   29.5782 C   0  0  0  0  0  0  0  0  0  0  0  0
   49.0863   52.5517   28.5291 C   0  0  0  0  0  0  0  0  0  0  0  0
   48.6047   52.1884   27.2408 C   0  0  0  0  0  0  0  0  0  0  0  0
   49.4618   52.0786   26.1645 N   0  0  0  0  0  0  0  0  0  0  0  0
   50.2908   52.8447   29.0499 N   0  0  0  0  0  0  0  0  0  0  0  0
   50.1593   53.1135   30.3214 C   0  0  0  0  0  0  0  0  0  0  0  0
   48.8502   53.0258   30.7042 N   0  0  0  0  0  0  0  0  0  0  0  0
  2  1  1  1  0  0  0
  2  3  1  0  0  0  0
  2  5  1  0  0  0  0
  3  4  1  0  0  0  0
  3 17  1  0  0  0  0
  5  6  1  0  0  0  0
  7  6  1  6  0  0  0
  7  8  1  0  0  0  0
  7  9  1  0  0  0  0
 10  9  1  6  0  0  0
 10 11  1  0  0  0  0
 10 12  1  0  0  0  0
 11 16  1  0  0  0  0
 12 13  1  6  0  0  0
 12 14  1  0  0  0  0
 14 15  1  1  0  0  0
 14 16  1  0  0  0  0
 16 27  1  6  0  0  0
 18 19  2  0  0  0  0
 18 23  1  0  0  0  0
 19 20  1  0  0  0  0
 20 21  2  0  0  0  0
 21 22  1  0  0  0  0
 21 27  1  0  0  0  0
 22 23  2  0  0  0  0
 22 25  1  0  0  0  0
 23 24  1  0  0  0  0
 25 26  2  0  0  0  0
 26 27  1  0  0  0  0
M  END
>  <CHROM.1>
143.13596102,-76.77739225,75.23532628,-165.18958844,-70.11866493,67.30012158
-155.33451942,47.95856084,54.69270938,30.31866295,-2.01068090,-1.35156540
-2.60715766

>  <Name>
ligand

>  <RI>
0

>  <Rbt.Current_Directory>
/home/itssahil/PROJECTS/Mol_Feturizer/New_Systems/rnas/3IQR

>  <Rbt.Executable>
rbdock ($Id: //depot/dev/client3/rdock/2013.1/src/exe/rbdock.cxx#4 $)

>  <Rbt.Library>
libRbt.so (2013.1, Build901 2013/11/27)

>  <Rbt.Parameter_File>
/export/apps/rDock/src/rDock_2013.1_src/data/scripts/dock_solv.prm

>  <Rbt.Receptor>
prm/pocket_docking_5.prm

>  <SCORE>
-19.5556

>  <SCORE.INTER>
-11.8316

>  <SCORE.INTER.CONST>
1

>  <SCORE.INTER.POLAR>
0

>  <SCORE.INTER.ROT>
7

>  <SCORE.INTER.SOLV>
5.62867

>  <SCORE.INTER.VDW>
-18.0306

>  <SCORE.INTER.norm>
-0.438206

>  <SCORE.INTRA>
-7.72403

>  <SCORE.INTRA.DIHEDRAL>
-1.61017

>  <SCORE.INTRA.DIHEDRAL.0>
9.29433

>  <SCORE.INTRA.POLAR>
0

>  <SCORE.INTRA.POLAR.0>
0

>  <SCORE.INTRA.REPUL>
0

>  <SCORE.INTRA.REPUL.0>
0

>  <SCORE.INTRA.SOLV>
1.09289

>  <SCORE.INTRA.SOLV.lig_0>
-48.5102

>  <SCORE.INTRA.VDW>
-7.46539

>  <SCORE.INTRA.VDW.0>
0.379549

>  <SCORE.INTRA.norm>
-0.286075

>  <SCORE.RESTR>
0

>  <SCORE.RESTR.CAVITY>
0

>  <SCORE.RESTR.norm>
0

>  <SCORE.SYSTEM>
0

>  <SCORE.SYSTEM.CONST>
0

>  <SCORE.SYSTEM.DIHEDRAL>
0

>  <SCORE.SYSTEM.SOLV>
0

>  <SCORE.SYSTEM.norm>
0

>  <SCORE.heavy>
27

>  <SCORE.norm>
-0.724281

>  <RMSD>
5.315

$$$$
ligand
 OpenBabel11021811483D
libRbt.so/2013.1/901 2013/11/27
 27 29  0  0  0  0  0  0  0  0999 V2000
   47.4254   56.6895   27.2409 N   0  0  0  0  0  0  0  0  0  0  0  0
   47.3390   55.7573   28.3640 C   0  0  2  0  0  0  0  0  0  0  0  0
   46.0866   56.0351   29.1440 C   0  0  0  0  0  0  0  0  0  0  0  0
   45.4580   57.0695   28.9455 O   0  0  0  0  0  0  0  0  0  0  0  0
   48.5477   55.9220   29.2843 C   0  0  0  0  0  0  0  0  0  0  0  0
   48.6119   57.3627   29.7578 C   0  0  0  0  0  0  0  0  0  0  0  0
   47.6167   57.6924   31.2469 S   0  0  2  0  0  0  0  0  0  0  0  0
   47.9186   59.4459   31.6163 C   0  0  0  0  0  0  0  0  0  0  0  0
   48.7552   57.1706   32.6666 C   0  0  0  0  0  0  0  0  0  0  0  0
   48.8925   55.6328   33.0307 C   0  0  2  0  0  0  0  0  0  0  0  0
   49.6106   54.7970   32.1514 O   0  0  0  0  0  0  0  0  0  0  0  0
   47.7322   54.8678   33.5286 C   0  0  1  0  0  0  0  0  0  0  0  0
   46.6777   55.7086   33.9982 O   0  0  0  0  0  0  0  0  0  0  0  0
   47.4286   54.0861   32.1640 C   0  0  2  0  0  0  0  0  0  0  0  0
   46.5085   53.0578   32.3763 O   0  0  0  0  0  0  0  0  0  0  0  0
   48.8243   53.5607   31.8337 C   0  0  1  0  0  0  0  0  0  0  0  0
   45.6745   55.2078   29.9469 O   0  0  0  0  0  0  0  0  0  0  0  0
   46.8113   51.8247   27.4674 N   0  0  0  0  0  0  0  0  0  0  0  0
   46.2560   52.0349   28.6639 C   0  0  0  0  0  0  0  0  0  0  0  0
   46.9657   52.5236   29.6767 N   0  0  0  0  0  0  0  0  0  0  0  0
   48.2887   52.7254   29.5719 C   0  0  0  0  0  0  0  0  0  0  0  0
   48.9352   52.4638   28.3362 C   0  0  0  0  0  0  0  0  0  0  0  0
   48.1306   52.0021   27.2578 C   0  0  0  0  0  0  0  0  0  0  0  0
   48.6810   51.7395   26.0196 N   0  0  0  0  0  0  0  0  0  0  0  0
   50.2405   52.7401   28.5027 N   0  0  0  0  0  0  0  0  0  0  0  0
   50.4458   53.1400   29.7292 C   0  0  0  0  0  0  0  0  0  0  0  0
   49.2759   53.1627   30.4356 N   0  0  0  0  0  0  0  0  0  0  0  0
  2  1  1  6  0  0  0
  2  3  1  0  0  0  0
  2  5  1  0  0  0  0
  3  4  1  0  0  0  0
  3 17  1  0  0  0  0
  5  6  1  0  0  0  0
  7  6  1  6  0  0  0
  7  8  1  0  0  0  0
  7  9  1  0  0  0  0
 10  9  1  6  0  0  0
 10 11  1  0  0  0  0
 10 12  1  0  0  0  0
 11 16  1  0  0  0  0
 12 13  1  6  0  0  0
 12 14  1  0  0  0  0
 14 15  1  1  0  0  0
 14 16  1  0  0  0  0
 16 27  1  6  0  0  0
 18 19  2  0  0  0  0
 18 23  1  0  0  0  0
 19 20  1  0  0  0  0
 20 21  2  0  0  0  0
 21 22  1  0  0  0  0
 21 27  1  0  0  0  0
 22 23  2  0  0  0  0
 22 25  1  0  0  0  0
 23 24  1  0  0  0  0
 25 26  2  0  0  0  0
 26 27  1  0  0  0  0
M  END
>  <CHROM.1>
-13.00471874,57.21657873,86.62792238,178.14734932,-79.76459272,72.39684223
-139.06681020,47.84721804,54.82326083,30.22071786,1.31792139,1.27637957,-2.18199562

>  <Name>
ligand

>  <RI>
0

>  <Rbt.Current_Directory>
/home/itssahil/PROJECTS/Mol_Feturizer/New_Systems/rnas/3IQR

>  <Rbt.Executable>
rbdock ($Id: //depot/dev/client3/rdock/2013.1/src/exe/rbdock.cxx#4 $)

>  <Rbt.Library>
libRbt.so (2013.1, Build901 2013/11/27)

>  <Rbt.Parameter_File>
/export/apps/rDock/src/rDock_2013.1_src/data/scripts/dock_solv.prm

>  <Rbt.Receptor>
prm/pocket_docking_3.prm

>  <SCORE>
-17.3807

>  <SCORE.INTER>
-9.97201

>  <SCORE.INTER.CONST>
1

>  <SCORE.INTER.POLAR>
0

>  <SCORE.INTER.ROT>
7

>  <SCORE.INTER.SOLV>
9.47881

>  <SCORE.INTER.VDW>
-18.0743

>  <SCORE.INTER.norm>
-0.369334

>  <SCORE.INTRA>
-7.40872

>  <SCORE.INTRA.DIHEDRAL>
-1.70521

>  <SCORE.INTRA.DIHEDRAL.0>
9.29433

>  <SCORE.INTRA.POLAR>
0

>  <SCORE.INTRA.POLAR.0>
0

>  <SCORE.INTRA.REPUL>
0

>  <SCORE.INTRA.REPUL.0>
0

>  <SCORE.INTRA.SOLV>
0.136052

>  <SCORE.INTRA.SOLV.lig_0>
-48.5102

>  <SCORE.INTRA.VDW>
-6.62414

>  <SCORE.INTRA.VDW.0>
0.379549

>  <SCORE.INTRA.norm>
-0.274397

>  <SCORE.RESTR>
0

>  <SCORE.RESTR.CAVITY>
0

>  <SCORE.RESTR.norm>
0

>  <SCORE.SYSTEM>
0

>  <SCORE.SYSTEM.CONST>
0

>  <SCORE.SYSTEM.DIHEDRAL>
0

>  <SCORE.SYSTEM.SOLV>
0

>  <SCORE.SYSTEM.norm>
0

>  <SCORE.heavy>
27

>  <SCORE.norm>
-0.643731

>  <RMSD>
5.318

$$$$
ligand
 OpenBabel11021811483D
libRbt.so/2013.1/901 2013/11/27
 27 29  0  0  0  0  0  0  0  0999 V2000
   46.6653   56.9418   29.2316 N   0  0  0  0  0  0  0  0  0  0  0  0
   48.0151   56.6423   28.7562 C   0  0  2  0  0  0  0  0  0  0  0  0
   47.9316   55.7165   27.5772 C   0  0  0  0  0  0  0  0  0  0  0  0
   48.7928   55.7564   26.7047 O   0  0  0  0  0  0  0  0  0  0  0  0
   48.8302   55.9717   29.8612 C   0  0  0  0  0  0  0  0  0  0  0  0
   49.2455   57.0241   30.8730 C   0  0  0  0  0  0  0  0  0  0  0  0
   47.9061   57.5318   31.9978 S   0  0  2  0  0  0  0  0  0  0  0  0
   48.5089   59.0683   32.7580 C   0  0  0  0  0  0  0  0  0  0  0  0
   48.2727   56.5709   33.5872 C   0  0  0  0  0  0  0  0  0  0  0  0
   48.0739   54.9973   33.6103 C   0  0  2  0  0  0  0  0  0  0  0  0
   48.9005   54.2050   32.7880 O   0  0  0  0  0  0  0  0  0  0  0  0
   46.7213   54.4063   33.5884 C   0  0  1  0  0  0  0  0  0  0  0  0
   45.7036   55.3450   33.9384 O   0  0  0  0  0  0  0  0  0  0  0  0
   46.7412   53.9596   32.0504 C   0  0  2  0  0  0  0  0  0  0  0  0
   45.6647   53.1177   31.7652 O   0  0  0  0  0  0  0  0  0  0  0  0
   48.0823   53.2306   31.9949 C   0  0  1  0  0  0  0  0  0  0  0  0
   47.0255   54.8957   27.5119 O   0  0  0  0  0  0  0  0  0  0  0  0
   47.2818   51.8969   27.1255 N   0  0  0  0  0  0  0  0  0  0  0  0
   46.4461   51.9521   28.1660 C   0  0  0  0  0  0  0  0  0  0  0  0
   46.8613   52.3570   29.3626 N   0  0  0  0  0  0  0  0  0  0  0  0
   48.1549   52.6247   29.6016 C   0  0  0  0  0  0  0  0  0  0  0  0
   49.0918   52.5266   28.5405 C   0  0  0  0  0  0  0  0  0  0  0  0
   48.5983   52.1515   27.2601 C   0  0  0  0  0  0  0  0  0  0  0  0
   49.4426   52.0487   26.1731 N   0  0  0  0  0  0  0  0  0  0  0  0
   50.2989   52.8379   29.0441 N   0  0  0  0  0  0  0  0  0  0  0  0
   50.1806   53.1102   30.3162 C   0  0  0  0  0  0  0  0  0  0  0  0
   48.8778   53.0065   30.7166 N   0  0  0  0  0  0  0  0  0  0  0  0
  2  1  1  1  0  0  0
  2  3  1  0  0  0  0
  2  5  1  0  0  0  0
  3  4  1  0  0  0  0
  3 17  1  0  0  0  0
  5  6  1  0  0  0  0
  7  6  1  6  0  0  0
  7  8  1  0  0  0  0
  7  9  1  0  0  0  0
 10  9  1  6  0  0  0
 10 11  1  0  0  0  0
 10 12  1  0  0  0  0
 11 16  1  0  0  0  0
 12 13  1  6  0  0  0
 12 14  1  0  0  0  0
 14 15  1  1  0  0  0
 14 16  1  0  0  0  0
 16 27  1  6  0  0  0
 18 19  2  0  0  0  0
 18 23  1  0  0  0  0
 19 20  1  0  0  0  0
 20 21  2  0  0  0  0
 21 22  1  0  0  0  0
 21 27  1  0  0  0  0
 22 23  2  0  0  0  0
 22 25  1  0  0  0  0
 23 24  1  0  0  0  0
 25 26  2  0  0  0  0
 26 27  1  0  0  0  0
M  END
>  <CHROM.1>
149.95627249,-75.73905002,76.73092213,-164.83172538,-69.91636384,64.92585478
-153.94705261,47.98216130,54.64281392,30.30788836,-2.00248875,-1.32242581
-2.59227291

>  <Name>
ligand

>  <RI>
0

>  <Rbt.Current_Directory>
/home/itssahil/PROJECTS/Mol_Feturizer/New_Systems/rnas/3IQR

>  <Rbt.Executable>
rbdock ($Id: //depot/dev/client3/rdock/2013.1/src/exe/rbdock.cxx#4 $)

>  <Rbt.Library>
libRbt.so (2013.1, Build901 2013/11/27)

>  <Rbt.Parameter_File>
/export/apps/rDock/src/rDock_2013.1_src/data/scripts/dock_solv.prm

>  <Rbt.Receptor>
prm/pocket_docking_6.prm

>  <SCORE>
-19.4928

>  <SCORE.INTER>
-11.8069

>  <SCORE.INTER.CONST>
1

>  <SCORE.INTER.POLAR>
0

>  <SCORE.INTER.ROT>
7

>  <SCORE.INTER.SOLV>
5.79261

>  <SCORE.INTER.VDW>
-18.0688

>  <SCORE.INTER.norm>
-0.437293

>  <SCORE.INTRA>
-7.68585

>  <SCORE.INTRA.DIHEDRAL>
-1.63372

>  <SCORE.INTRA.DIHEDRAL.0>
9.29433

>  <SCORE.INTRA.POLAR>
0

>  <SCORE.INTRA.POLAR.0>
0

>  <SCORE.INTRA.REPUL>
0

>  <SCORE.INTRA.REPUL.0>
0

>  <SCORE.INTRA.SOLV>
1.2239

>  <SCORE.INTRA.SOLV.lig_0>
-48.5102

>  <SCORE.INTRA.VDW>
-7.48094

>  <SCORE.INTRA.VDW.0>
0.379549

>  <SCORE.INTRA.norm>
-0.284661

>  <SCORE.RESTR>
0

>  <SCORE.RESTR.CAVITY>
0

>  <SCORE.RESTR.norm>
0

>  <SCORE.SYSTEM>
0

>  <SCORE.SYSTEM.CONST>
0

>  <SCORE.SYSTEM.DIHEDRAL>
0

>  <SCORE.SYSTEM.SOLV>
0

>  <SCORE.SYSTEM.norm>
0

>  <SCORE.heavy>
27

>  <SCORE.norm>
-0.721955

>  <RMSD>
5.319

$$$$
ligand
 OpenBabel11021811483D
libRbt.so/2013.1/901 2013/11/27
 27 29  0  0  0  0  0  0  0  0999 V2000
   45.6909   55.3692   27.5977 N   0  0  0  0  0  0  0  0  0  0  0  0
   45.9468   56.7881   27.8407 C   0  0  2  0  0  0  0  0  0  0  0  0
   47.0610   57.2513   26.9472 C   0  0  0  0  0  0  0  0  0  0  0  0
   47.8728   58.0745   27.3567 O   0  0  0  0  0  0  0  0  0  0  0  0
   46.3487   57.0128   29.2978 C   0  0  0  0  0  0  0  0  0  0  0  0
   46.2150   58.4896   29.6222 C   0  0  0  0  0  0  0  0  0  0  0  0
   46.3557   58.8680   31.3981 S   0  0  2  0  0  0  0  0  0  0  0  0
   46.0509   60.6561   31.5073 C   0  0  0  0  0  0  0  0  0  0  0  0
   48.2120   59.1427   31.6480 C   0  0  0  0  0  0  0  0  0  0  0  0
   49.1687   57.8898   31.8245 C   0  0  2  0  0  0  0  0  0  0  0  0
   49.6695   57.2602   30.6668 O   0  0  0  0  0  0  0  0  0  0  0  0
   48.8581   56.8349   32.8094 C   0  0  1  0  0  0  0  0  0  0  0  0
   47.9049   57.2557   33.7861 O   0  0  0  0  0  0  0  0  0  0  0  0
   48.3268   55.7513   31.7564 C   0  0  2  0  0  0  0  0  0  0  0  0
   48.1806   54.5021   32.3622 O   0  0  0  0  0  0  0  0  0  0  0  0
   49.4665   55.7766   30.7398 C   0  0  1  0  0  0  0  0  0  0  0  0
   47.1793   56.7739   25.8260 O   0  0  0  0  0  0  0  0  0  0  0  0
   47.4599   51.9171   28.0550 N   0  0  0  0  0  0  0  0  0  0  0  0
   47.5759   52.0982   29.3733 C   0  0  0  0  0  0  0  0  0  0  0  0
   48.1176   53.2057   29.8716 N   0  0  0  0  0  0  0  0  0  0  0  0
   48.6651   54.1373   29.0751 C   0  0  0  0  0  0  0  0  0  0  0  0
   48.6162   53.9634   27.6678 C   0  0  0  0  0  0  0  0  0  0  0  0
   47.9723   52.7961   27.1714 C   0  0  0  0  0  0  0  0  0  0  0  0
   47.8694   52.5611   25.8152 N   0  0  0  0  0  0  0  0  0  0  0  0
   49.2319   55.0223   27.1133 N   0  0  0  0  0  0  0  0  0  0  0  0
   49.6554   55.8203   28.0569 C   0  0  0  0  0  0  0  0  0  0  0  0
   49.3253   55.3329   29.2905 N   0  0  0  0  0  0  0  0  0  0  0  0
  2  1  1  1  0  0  0
  2  3  1  0  0  0  0
  2  5  1  0  0  0  0
  3  4  1  0  0  0  0
  3 17  1  0  0  0  0
  5  6  1  0  0  0  0
  7  6  1  6  0  0  0
  7  8  1  0  0  0  0
  7  9  1  0  0  0  0
 10  9  1  6  0  0  0
 10 11  1  0  0  0  0
 10 12  1  0  0  0  0
 11 16  1  0  0  0  0
 12 13  1  1  0  0  0
 12 14  1  0  0  0  0
 14 15  1  1  0  0  0
 14 16  1  0  0  0  0
 16 27  1  6  0  0  0
 18 19  2  0  0  0  0
 18 23  1  0  0  0  0
 19 20  1  0  0  0  0
 20 21  2  0  0  0  0
 21 22  1  0  0  0  0
 21 27  1  0  0  0  0
 22 23  2  0  0  0  0
 22 25  1  0  0  0  0
 23 24  1  0  0  0  0
 25 26  2  0  0  0  0
 26 27  1  0  0  0  0
M  END
>  <CHROM.1>
-143.54044977,-163.75612969,169.09298642,-176.34022591,-81.55143919,85.61221233
-157.38494978,47.80266445,56.15607853,29.55894537,1.37294963,1.16043488,-2.22774275

>  <Name>
ligand

>  <RI>
0

>  <Rbt.Current_Directory>
/home/itssahil/PROJECTS/Mol_Feturizer/New_Systems/rnas/3IQR

>  <Rbt.Executable>
rbdock ($Id: //depot/dev/client3/rdock/2013.1/src/exe/rbdock.cxx#4 $)

>  <Rbt.Library>
libRbt.so (2013.1, Build901 2013/11/27)

>  <Rbt.Parameter_File>
/export/apps/rDock/src/rDock_2013.1_src/data/scripts/dock_solv.prm

>  <Rbt.Receptor>
prm/pocket_docking_5.prm

>  <SCORE>
-19.6474

>  <SCORE.INTER>
-13.9011

>  <SCORE.INTER.CONST>
1

>  <SCORE.INTER.POLAR>
0

>  <SCORE.INTER.ROT>
7

>  <SCORE.INTER.SOLV>
10.2612

>  <SCORE.INTER.VDW>
-20.9545

>  <SCORE.INTER.norm>
-0.514856

>  <SCORE.INTRA>
-5.74628

>  <SCORE.INTRA.DIHEDRAL>
-0.876999

>  <SCORE.INTRA.DIHEDRAL.0>
9.29433

>  <SCORE.INTRA.POLAR>
0

>  <SCORE.INTRA.POLAR.0>
0

>  <SCORE.INTRA.REPUL>
0

>  <SCORE.INTRA.REPUL.0>
0

>  <SCORE.INTRA.SOLV>
0.895074

>  <SCORE.INTRA.SOLV.lig_0>
-48.5102

>  <SCORE.INTRA.VDW>
-5.75532

>  <SCORE.INTRA.VDW.0>
0.379549

>  <SCORE.INTRA.norm>
-0.212825

>  <SCORE.RESTR>
0

>  <SCORE.RESTR.CAVITY>
0

>  <SCORE.RESTR.norm>
0

>  <SCORE.SYSTEM>
0

>  <SCORE.SYSTEM.CONST>
0

>  <SCORE.SYSTEM.DIHEDRAL>
0

>  <SCORE.SYSTEM.SOLV>
0

>  <SCORE.SYSTEM.norm>
0

>  <SCORE.heavy>
27

>  <SCORE.norm>
-0.727681

>  <RMSD>
5.322

$$$$
ligand
 OpenBabel11021811483D
libRbt.so/2013.1/901 2013/11/27
 27 29  0  0  0  0  0  0  0  0999 V2000
   46.3998   55.4904   28.3642 N   0  0  0  0  0  0  0  0  0  0  0  0
   46.3058   56.9121   28.0361 C   0  0  2  0  0  0  0  0  0  0  0  0
   47.3069   57.2417   26.9669 C   0  0  0  0  0  0  0  0  0  0  0  0
   48.4666   56.8570   27.0739 O   0  0  0  0  0  0  0  0  0  0  0  0
   46.5969   57.7622   29.2722 C   0  0  0  0  0  0  0  0  0  0  0  0
   45.5632   57.4488   30.3386 C   0  0  0  0  0  0  0  0  0  0  0  0
   45.6841   58.5095   31.8141 S   0  0  2  0  0  0  0  0  0  0  0  0
   45.7718   60.1998   31.1528 C   0  0  0  0  0  0  0  0  0  0  0  0
   47.5388   58.5336   32.1930 C   0  0  0  0  0  0  0  0  0  0  0  0
   48.2620   57.1921   32.6329 C   0  0  2  0  0  0  0  0  0  0  0  0
   49.2184   56.6297   31.7632 O   0  0  0  0  0  0  0  0  0  0  0  0
   47.4957   56.0828   33.2339 C   0  0  1  0  0  0  0  0  0  0  0  0
   46.2146   56.4934   33.7130 O   0  0  0  0  0  0  0  0  0  0  0  0
   47.4731   55.1492   31.9327 C   0  0  2  0  0  0  0  0  0  0  0  0
   47.0207   53.8673   32.2505 O   0  0  0  0  0  0  0  0  0  0  0  0
   48.9535   55.1686   31.5568 C   0  0  1  0  0  0  0  0  0  0  0  0
   46.9515   57.8588   25.9709 O   0  0  0  0  0  0  0  0  0  0  0  0
   48.4075   51.6601   27.8794 N   0  0  0  0  0  0  0  0  0  0  0  0
   47.9185   51.7088   29.1214 C   0  0  0  0  0  0  0  0  0  0  0  0
   48.1666   52.7430   29.9196 N   0  0  0  0  0  0  0  0  0  0  0  0
   49.0020   53.7273   29.5516 C   0  0  0  0  0  0  0  0  0  0  0  0
   49.5909   53.6920   28.2611 C   0  0  0  0  0  0  0  0  0  0  0  0
   49.2512   52.6017   27.4129 C   0  0  0  0  0  0  0  0  0  0  0  0
   49.7696   52.5027   26.1375 N   0  0  0  0  0  0  0  0  0  0  0  0
   50.3773   54.7771   28.1518 N   0  0  0  0  0  0  0  0  0  0  0  0
   50.3238   55.4646   29.2612 C   0  0  0  0  0  0  0  0  0  0  0  0
   49.4817   54.8724   30.1602 N   0  0  0  0  0  0  0  0  0  0  0  0
  2  1  1  1  0  0  0
  2  3  1  0  0  0  0
  2  5  1  0  0  0  0
  3  4  1  0  0  0  0
  3 17  1  0  0  0  0
  5  6  1  0  0  0  0
  7  6  1  6  0  0  0
  7  8  1  0  0  0  0
  7  9  1  0  0  0  0
 10  9  1  6  0  0  0
 10 11  1  0  0  0  0
 10 12  1  0  0  0  0
 11 16  1  0  0  0  0
 12 13  1  6  0  0  0
 12 14  1  0  0  0  0
 14 15  1  1  0  0  0
 14 16  1  0  0  0  0
 16 27  1  6  0  0  0
 18 19  2  0  0  0  0
 18 23  1  0  0  0  0
 19 20  1  0  0  0  0
 20 21  2  0  0  0  0
 21 22  1  0  0  0  0
 21 27  1  0  0  0  0
 22 23  2  0  0  0  0
 22 25  1  0  0  0  0
 23 24  1  0  0  0  0
 25 26  2  0  0  0  0
 26 27  1  0  0  0  0
M  END
>  <CHROM.1>
-47.69094436,-61.23852326,-174.25519574,48.96710194,-65.36898286,113.24651768
-160.36577203,47.76293781,55.80454277,29.90954481,0.47585164,1.12114954,-1.38543123

>  <Name>
ligand

>  <RI>
0

>  <Rbt.Current_Directory>
/home/itssahil/PROJECTS/Mol_Feturizer/New_Systems/rnas/3IQR

>  <Rbt.Executable>
rbdock ($Id: //depot/dev/client3/rdock/2013.1/src/exe/rbdock.cxx#4 $)

>  <Rbt.Library>
libRbt.so (2013.1, Build901 2013/11/27)

>  <Rbt.Parameter_File>
/export/apps/rDock/src/rDock_2013.1_src/data/scripts/dock_solv.prm

>  <Rbt.Receptor>
prm/pocket_docking_4.prm

>  <SCORE>
-19.2755

>  <SCORE.INTER>
-14.9889

>  <SCORE.INTER.CONST>
1

>  <SCORE.INTER.POLAR>
0

>  <SCORE.INTER.ROT>
7

>  <SCORE.INTER.SOLV>
6.19056

>  <SCORE.INTER.VDW>
-20.3228

>  <SCORE.INTER.norm>
-0.555146

>  <SCORE.INTRA>
-4.28657

>  <SCORE.INTRA.DIHEDRAL>
-1.1421

>  <SCORE.INTRA.DIHEDRAL.0>
9.29433

>  <SCORE.INTRA.POLAR>
0

>  <SCORE.INTRA.POLAR.0>
0

>  <SCORE.INTRA.REPUL>
0

>  <SCORE.INTRA.REPUL.0>
0

>  <SCORE.INTRA.SOLV>
1.5663

>  <SCORE.INTRA.SOLV.lig_0>
-48.5102

>  <SCORE.INTRA.VDW>
-4.49866

>  <SCORE.INTRA.VDW.0>
0.379549

>  <SCORE.INTRA.norm>
-0.158762

>  <SCORE.RESTR>
0

>  <SCORE.RESTR.CAVITY>
0

>  <SCORE.RESTR.norm>
0

>  <SCORE.SYSTEM>
0

>  <SCORE.SYSTEM.CONST>
0

>  <SCORE.SYSTEM.DIHEDRAL>
0

>  <SCORE.SYSTEM.SOLV>
0

>  <SCORE.SYSTEM.norm>
0

>  <SCORE.heavy>
27

>  <SCORE.norm>
-0.713908

>  <RMSD>
5.323

$$$$
ligand
 OpenBabel11021811483D
libRbt.so/2013.1/901 2013/11/27
 27 29  0  0  0  0  0  0  0  0999 V2000
   46.5763   57.9575   26.9003 N   0  0  0  0  0  0  0  0  0  0  0  0
   47.1585   57.2282   28.0259 C   0  0  2  0  0  0  0  0  0  0  0  0
   46.3966   55.9519   28.2374 C   0  0  0  0  0  0  0  0  0  0  0  0
   46.9267   55.0111   28.8189 O   0  0  0  0  0  0  0  0  0  0  0  0
   47.0851   58.0706   29.2988 C   0  0  0  0  0  0  0  0  0  0  0  0
   45.6295   58.3753   29.6030 C   0  0  0  0  0  0  0  0  0  0  0  0
   45.3584   59.0942   31.2542 S   0  0  2  0  0  0  0  0  0  0  0  0
   46.4574   60.5405   31.3062 C   0  0  0  0  0  0  0  0  0  0  0  0
   46.5444   58.1205   32.3629 C   0  0  0  0  0  0  0  0  0  0  0  0
   46.6907   56.5539   32.1616 C   0  0  2  0  0  0  0  0  0  0  0  0
   45.5310   55.8026   31.8823 O   0  0  0  0  0  0  0  0  0  0  0  0
   47.5371   55.7517   33.0668 C   0  0  1  0  0  0  0  0  0  0  0  0
   48.4548   56.5498   33.8154 O   0  0  0  0  0  0  0  0  0  0  0  0
   46.3404   55.1076   33.9143 C   0  0  2  0  0  0  0  0  0  0  0  0
   46.8081   54.0694   34.7220 O   0  0  0  0  0  0  0  0  0  0  0  0
   45.4431   54.6078   32.7836 C   0  0  1  0  0  0  0  0  0  0  0  0
   45.2333   55.8697   27.8646 O   0  0  0  0  0  0  0  0  0  0  0  0
   41.1579   54.9549   30.0182 N   0  0  0  0  0  0  0  0  0  0  0  0
   42.4090   55.3341   29.7440 C   0  0  0  0  0  0  0  0  0  0  0  0
   43.3976   55.1246   30.6083 N   0  0  0  0  0  0  0  0  0  0  0  0
   43.1642   54.6223   31.8311 C   0  0  0  0  0  0  0  0  0  0  0  0
   41.8415   54.2553   32.1902 C   0  0  0  0  0  0  0  0  0  0  0  0
   40.8213   54.4360   31.2154 C   0  0  0  0  0  0  0  0  0  0  0  0
   39.5121   54.0893   31.4814 N   0  0  0  0  0  0  0  0  0  0  0  0
   41.8846   53.7919   33.4517 N   0  0  0  0  0  0  0  0  0  0  0  0
   43.1127   53.8500   33.8929 C   0  0  0  0  0  0  0  0  0  0  0  0
   43.9514   54.3440   32.9333 N   0  0  0  0  0  0  0  0  0  0  0  0
  2  1  1  6  0  0  0
  2  3  1  0  0  0  0
  2  5  1  0  0  0  0
  3  4  1  0  0  0  0
  3 17  1  0  0  0  0
  5  6  1  0  0  0  0
  7  6  1  6  0  0  0
  7  8  1  0  0  0  0
  7  9  1  0  0  0  0
 10  9  1  1  0  0  0
 10 11  1  0  0  0  0
 10 12  1  0  0  0  0
 11 16  1  0  0  0  0
 12 13  1  1  0  0  0
 12 14  1  0  0  0  0
 14 15  1  1  0  0  0
 14 16  1  0  0  0  0
 16 27  1  1  0  0  0
 18 19  2  0  0  0  0
 18 23  1  0  0  0  0
 19 20  1  0  0  0  0
 20 21  2  0  0  0  0
 21 22  1  0  0  0  0
 21 27  1  0  0  0  0
 22 23  2  0  0  0  0
 22 25  1  0  0  0  0
 23 24  1  0  0  0  0
 25 26  2  0  0  0  0
 26 27  1  0  0  0  0
M  END
>  <CHROM.1>
157.36185389,60.27465845,168.84541087,54.41629621,-41.51385783,-39.51040125
33.83615378,44.97489288,56.09115318,31.23407849,0.58195252,-0.48413394,-1.15048131

>  <Name>
ligand

>  <RI>
0

>  <Rbt.Current_Directory>
/home/itssahil/PROJECTS/Mol_Feturizer/New_Systems/rnas/3IQR

>  <Rbt.Executable>
rbdock ($Id: //depot/dev/client3/rdock/2013.1/src/exe/rbdock.cxx#4 $)

>  <Rbt.Library>
libRbt.so (2013.1, Build901 2013/11/27)

>  <Rbt.Parameter_File>
/export/apps/rDock/src/rDock_2013.1_src/data/scripts/dock_solv.prm

>  <Rbt.Receptor>
prm/pocket_docking_7.prm

>  <SCORE>
-13.9938

>  <SCORE.INTER>
-10.5734

>  <SCORE.INTER.CONST>
1

>  <SCORE.INTER.POLAR>
0

>  <SCORE.INTER.ROT>
7

>  <SCORE.INTER.SOLV>
13.4242

>  <SCORE.INTER.VDW>
-19.7903

>  <SCORE.INTER.norm>
-0.391607

>  <SCORE.INTRA>
-3.42044

>  <SCORE.INTRA.DIHEDRAL>
-1.99995

>  <SCORE.INTRA.DIHEDRAL.0>
9.29433

>  <SCORE.INTRA.POLAR>
0

>  <SCORE.INTRA.POLAR.0>
0

>  <SCORE.INTRA.REPUL>
0

>  <SCORE.INTRA.REPUL.0>
0

>  <SCORE.INTRA.SOLV>
-0.952318

>  <SCORE.INTRA.SOLV.lig_0>
-48.5102

>  <SCORE.INTRA.VDW>
-1.9443

>  <SCORE.INTRA.VDW.0>
0.379549

>  <SCORE.INTRA.norm>
-0.126683

>  <SCORE.RESTR>
0

>  <SCORE.RESTR.CAVITY>
0

>  <SCORE.RESTR.norm>
0

>  <SCORE.SYSTEM>
0

>  <SCORE.SYSTEM.CONST>
0

>  <SCORE.SYSTEM.DIHEDRAL>
0

>  <SCORE.SYSTEM.SOLV>
0

>  <SCORE.SYSTEM.norm>
0

>  <SCORE.heavy>
27

>  <SCORE.norm>
-0.51829

>  <RMSD>
5.325

$$$$
ligand
 OpenBabel11021811483D
libRbt.so/2013.1/901 2013/11/27
 27 29  0  0  0  0  0  0  0  0999 V2000
   47.4208   57.4388   29.0045 N   0  0  0  0  0  0  0  0  0  0  0  0
   46.1938   57.5523   29.7916 C   0  0  2  0  0  0  0  0  0  0  0  0
   45.3300   58.6339   29.2102 C   0  0  0  0  0  0  0  0  0  0  0  0
   45.2641   59.7279   29.7610 O   0  0  0  0  0  0  0  0  0  0  0  0
   46.5244   57.9024   31.2419 C   0  0  0  0  0  0  0  0  0  0  0  0
   47.3552   56.7821   31.8407 C   0  0  0  0  0  0  0  0  0  0  0  0
   47.8728   57.0885   33.5596 S   0  0  2  0  0  0  0  0  0  0  0  0
   49.2784   58.2310   33.4142 C   0  0  0  0  0  0  0  0  0  0  0  0
   49.0465   55.6508   33.9331 C   0  0  0  0  0  0  0  0  0  0  0  0
   48.6223   54.1749   33.5358 C   0  0  2  0  0  0  0  0  0  0  0  0
   49.0250   53.6764   32.2801 O   0  0  0  0  0  0  0  0  0  0  0  0
   47.2529   53.6872   33.7933 C   0  0  1  0  0  0  0  0  0  0  0  0
   46.5493   54.4931   34.7394 O   0  0  0  0  0  0  0  0  0  0  0  0
   46.7330   53.7937   32.2822 C   0  0  2  0  0  0  0  0  0  0  0  0
   45.5038   53.1486   32.1345 O   0  0  0  0  0  0  0  0  0  0  0  0
   47.8629   53.0696   31.5528 C   0  0  1  0  0  0  0  0  0  0  0  0
   44.7260   58.4330   28.1643 O   0  0  0  0  0  0  0  0  0  0  0  0
   45.7616   52.1560   26.9833 N   0  0  0  0  0  0  0  0  0  0  0  0
   45.3615   51.8207   28.2127 C   0  0  0  0  0  0  0  0  0  0  0  0
   46.0553   52.1861   29.2868 N   0  0  0  0  0  0  0  0  0  0  0  0
   47.2375   52.8126   29.1772 C   0  0  0  0  0  0  0  0  0  0  0  0
   47.7323   53.1414   27.8887 C   0  0  0  0  0  0  0  0  0  0  0  0
   46.9309   52.7900   26.7671 C   0  0  0  0  0  0  0  0  0  0  0  0
   47.3344   53.0886   25.4814 N   0  0  0  0  0  0  0  0  0  0  0  0
   48.9190   53.7498   28.0604 N   0  0  0  0  0  0  0  0  0  0  0  0
   49.1921   53.8146   29.3362 C   0  0  0  0  0  0  0  0  0  0  0  0
   48.1856   53.2620   30.0776 N   0  0  0  0  0  0  0  0  0  0  0  0
  2  1  1  6  0  0  0
  2  3  1  0  0  0  0
  2  5  1  0  0  0  0
  3  4  1  0  0  0  0
  3 17  1  0  0  0  0
  5  6  1  0  0  0  0
  7  6  1  6  0  0  0
  7  8  1  0  0  0  0
  7  9  1  0  0  0  0
 10  9  1  6  0  0  0
 10 11  1  0  0  0  0
 10 12  1  0  0  0  0
 11 16  1  0  0  0  0
 12 13  1  1  0  0  0
 12 14  1  0  0  0  0
 14 15  1  1  0  0  0
 14 16  1  0  0  0  0
 16 27  1  6  0  0  0
 18 19  2  0  0  0  0
 18 23  1  0  0  0  0
 19 20  1  0  0  0  0
 20 21  2  0  0  0  0
 21 22  1  0  0  0  0
 21 27  1  0  0  0  0
 22 23  2  0  0  0  0
 22 25  1  0  0  0  0
 23 24  1  0  0  0  0
 25 26  2  0  0  0  0
 26 27  1  0  0  0  0
M  END
>  <CHROM.1>
-103.51366784,-61.99521090,178.09587759,-78.72063638,-46.36259143,92.70471037
-178.31382455,47.17652994,55.07418384,30.64348139,1.19956780,-1.23434845
0.61269787

>  <Name>
ligand

>  <RI>
0

>  <Rbt.Current_Directory>
/home/itssahil/PROJECTS/Mol_Feturizer/New_Systems/rnas/3IQR

>  <Rbt.Executable>
rbdock ($Id: //depot/dev/client3/rdock/2013.1/src/exe/rbdock.cxx#4 $)

>  <Rbt.Library>
libRbt.so (2013.1, Build901 2013/11/27)

>  <Rbt.Parameter_File>
/export/apps/rDock/src/rDock_2013.1_src/data/scripts/dock_solv.prm

>  <Rbt.Receptor>
prm/pocket_docking_6.prm

>  <SCORE>
-13.9897

>  <SCORE.INTER>
-9.9879

>  <SCORE.INTER.CONST>
1

>  <SCORE.INTER.POLAR>
0

>  <SCORE.INTER.ROT>
7

>  <SCORE.INTER.SOLV>
8.24623

>  <SCORE.INTER.VDW>
-17.674

>  <SCORE.INTER.norm>
-0.369922

>  <SCORE.INTRA>
-4.00176

>  <SCORE.INTRA.DIHEDRAL>
-1.65906

>  <SCORE.INTRA.DIHEDRAL.0>
9.29433

>  <SCORE.INTRA.POLAR>
0

>  <SCORE.INTRA.POLAR.0>
0

>  <SCORE.INTRA.REPUL>
0

>  <SCORE.INTRA.REPUL.0>
0

>  <SCORE.INTRA.SOLV>
-0.483806

>  <SCORE.INTRA.SOLV.lig_0>
-48.5102

>  <SCORE.INTRA.VDW>
-2.93033

>  <SCORE.INTRA.VDW.0>
0.379549

>  <SCORE.INTRA.norm>
-0.148213

>  <SCORE.RESTR>
0

>  <SCORE.RESTR.CAVITY>
0

>  <SCORE.RESTR.norm>
0

>  <SCORE.SYSTEM>
0

>  <SCORE.SYSTEM.CONST>
0

>  <SCORE.SYSTEM.DIHEDRAL>
0

>  <SCORE.SYSTEM.SOLV>
0

>  <SCORE.SYSTEM.norm>
0

>  <SCORE.heavy>
27

>  <SCORE.norm>
-0.518136

>  <RMSD>
5.326

$$$$
ligand
 OpenBabel11021811483D
libRbt.so/2013.1/901 2013/11/27
 27 29  0  0  0  0  0  0  0  0999 V2000
   49.7220   54.9471   30.6519 N   0  0  0  0  0  0  0  0  0  0  0  0
   49.2648   53.5600   30.5834 C   0  0  2  0  0  0  0  0  0  0  0  0
   49.4372   53.0496   29.1820 C   0  0  0  0  0  0  0  0  0  0  0  0
   48.4521   52.7912   28.4985 O   0  0  0  0  0  0  0  0  0  0  0  0
   47.7894   53.4680   30.9705 C   0  0  0  0  0  0  0  0  0  0  0  0
   47.6792   53.4439   32.4842 C   0  0  0  0  0  0  0  0  0  0  0  0
   48.3560   54.9279   33.2944 S   0  0  2  0  0  0  0  0  0  0  0  0
   48.4546   54.4807   35.0529 C   0  0  0  0  0  0  0  0  0  0  0  0
   46.8249   55.9915   33.6239 C   0  0  0  0  0  0  0  0  0  0  0  0
   46.4931   57.2018   32.6537 C   0  0  2  0  0  0  0  0  0  0  0  0
   45.8846   56.9199   31.4137 O   0  0  0  0  0  0  0  0  0  0  0  0
   47.4710   58.2861   32.4367 C   0  0  1  0  0  0  0  0  0  0  0  0
   48.4858   58.3226   33.4409 O   0  0  0  0  0  0  0  0  0  0  0  0
   47.9580   57.8069   30.9881 C   0  0  2  0  0  0  0  0  0  0  0  0
   48.7322   58.7931   30.3744 O   0  0  0  0  0  0  0  0  0  0  0  0
   46.6097   57.6103   30.2978 C   0  0  1  0  0  0  0  0  0  0  0  0
   50.5616   52.9324   28.7119 O   0  0  0  0  0  0  0  0  0  0  0  0
   49.3745   55.1644   26.7617 N   0  0  0  0  0  0  0  0  0  0  0  0
   49.7416   56.0101   27.7282 C   0  0  0  0  0  0  0  0  0  0  0  0
   48.8497   56.5225   28.5710 N   0  0  0  0  0  0  0  0  0  0  0  0
   47.5347   56.2971   28.4215 C   0  0  0  0  0  0  0  0  0  0  0  0
   47.0902   55.4491   27.3744 C   0  0  0  0  0  0  0  0  0  0  0  0
   48.0796   54.8695   26.5326 C   0  0  0  0  0  0  0  0  0  0  0  0
   47.7300   54.0215   25.5013 N   0  0  0  0  0  0  0  0  0  0  0  0
   45.7484   55.3979   27.4451 N   0  0  0  0  0  0  0  0  0  0  0  0
   45.3380   56.1429   28.4365 C   0  0  0  0  0  0  0  0  0  0  0  0
   46.3961   56.7158   29.0848 N   0  0  0  0  0  0  0  0  0  0  0  0
  2  1  1  6  0  0  0
  2  3  1  0  0  0  0
  2  5  1  0  0  0  0
  3  4  1  0  0  0  0
  3 17  1  0  0  0  0
  5  6  1  0  0  0  0
  7  6  1  6  0  0  0
  7  8  1  0  0  0  0
  7  9  1  0  0  0  0
 10  9  1  6  0  0  0
 10 11  1  0  0  0  0
 10 12  1  0  0  0  0
 11 16  1  0  0  0  0
 12 13  1  1  0  0  0
 12 14  1  0  0  0  0
 14 15  1  6  0  0  0
 14 16  1  0  0  0  0
 16 27  1  6  0  0  0
 18 19  2  0  0  0  0
 18 23  1  0  0  0  0
 19 20  1  0  0  0  0
 20 21  2  0  0  0  0
 21 22  1  0  0  0  0
 21 27  1  0  0  0  0
 22 23  2  0  0  0  0
 22 25  1  0  0  0  0
 23 24  1  0  0  0  0
 25 26  2  0  0  0  0
 26 27  1  0  0  0  0
M  END
>  <CHROM.1>
-112.44119547,-82.13631250,60.52864481,-167.27230440,-100.66071592,78.70053473
-125.47270243,47.96829383,55.56476677,30.24239078,-1.75822872,1.10575826
-1.68806952

>  <Name>
ligand

>  <RI>
0

>  <Rbt.Current_Directory>
/home/itssahil/PROJECTS/Mol_Feturizer/New_Systems/rnas/3IQR

>  <Rbt.Executable>
rbdock ($Id: //depot/dev/client3/rdock/2013.1/src/exe/rbdock.cxx#4 $)

>  <Rbt.Library>
libRbt.so (2013.1, Build901 2013/11/27)

>  <Rbt.Parameter_File>
/export/apps/rDock/src/rDock_2013.1_src/data/scripts/dock_solv.prm

>  <Rbt.Receptor>
prm/pocket_docking_3.prm

>  <SCORE>
-12.5454

>  <SCORE.INTER>
-9.45963

>  <SCORE.INTER.CONST>
1

>  <SCORE.INTER.POLAR>
0

>  <SCORE.INTER.ROT>
7

>  <SCORE.INTER.SOLV>
9.5117

>  <SCORE.INTER.VDW>
-17.7437

>  <SCORE.INTER.norm>
-0.350357

>  <SCORE.INTRA>
-3.08579

>  <SCORE.INTRA.DIHEDRAL>
1.42769

>  <SCORE.INTRA.DIHEDRAL.0>
9.29433

>  <SCORE.INTRA.POLAR>
0

>  <SCORE.INTRA.POLAR.0>
0

>  <SCORE.INTRA.REPUL>
0

>  <SCORE.INTRA.REPUL.0>
0

>  <SCORE.INTRA.SOLV>
4.30896

>  <SCORE.INTRA.SOLV.lig_0>
-48.5102

>  <SCORE.INTRA.VDW>
-5.95412

>  <SCORE.INTRA.VDW.0>
0.379549

>  <SCORE.INTRA.norm>
-0.114289

>  <SCORE.RESTR>
0

>  <SCORE.RESTR.CAVITY>
0

>  <SCORE.RESTR.norm>
0

>  <SCORE.SYSTEM>
0

>  <SCORE.SYSTEM.CONST>
0

>  <SCORE.SYSTEM.DIHEDRAL>
0

>  <SCORE.SYSTEM.SOLV>
0

>  <SCORE.SYSTEM.norm>
0

>  <SCORE.heavy>
27

>  <SCORE.norm>
-0.464645

>  <RMSD>
5.331

$$$$
ligand
 OpenBabel11021811483D
libRbt.so/2013.1/901 2013/11/27
 27 29  0  0  0  0  0  0  0  0999 V2000
   46.6205   57.0038   29.3947 N   0  0  0  0  0  0  0  0  0  0  0  0
   47.9510   56.7258   28.8559 C   0  0  2  0  0  0  0  0  0  0  0  0
   47.8238   55.8297   27.6581 C   0  0  0  0  0  0  0  0  0  0  0  0
   48.5669   55.9853   26.6947 O   0  0  0  0  0  0  0  0  0  0  0  0
   48.8155   56.0331   29.9085 C   0  0  0  0  0  0  0  0  0  0  0  0
   49.2746   57.0642   30.9234 C   0  0  0  0  0  0  0  0  0  0  0  0
   47.9752   57.5735   32.0934 S   0  0  2  0  0  0  0  0  0  0  0  0
   48.6438   59.0604   32.8961 C   0  0  0  0  0  0  0  0  0  0  0  0
   48.3404   56.5431   33.6390 C   0  0  0  0  0  0  0  0  0  0  0  0
   48.0688   54.9804   33.6162 C   0  0  2  0  0  0  0  0  0  0  0  0
   48.8765   54.1714   32.7914 O   0  0  0  0  0  0  0  0  0  0  0  0
   46.6912   54.4540   33.5495 C   0  0  1  0  0  0  0  0  0  0  0  0
   45.7102   55.4301   33.9021 O   0  0  0  0  0  0  0  0  0  0  0  0
   46.7255   54.0459   32.0011 C   0  0  2  0  0  0  0  0  0  0  0  0
   45.6182   53.2627   31.6705 O   0  0  0  0  0  0  0  0  0  0  0  0
   48.0325   53.2567   31.9555 C   0  0  1  0  0  0  0  0  0  0  0  0
   47.0051   54.9193   27.6644 O   0  0  0  0  0  0  0  0  0  0  0  0
   47.3047   51.8705   27.0893 N   0  0  0  0  0  0  0  0  0  0  0  0
   46.4557   51.9276   28.1189 C   0  0  0  0  0  0  0  0  0  0  0  0
   46.8523   52.3474   29.3167 N   0  0  0  0  0  0  0  0  0  0  0  0
   48.1403   52.6293   29.5690 C   0  0  0  0  0  0  0  0  0  0  0  0
   49.0911   52.5300   28.5204 C   0  0  0  0  0  0  0  0  0  0  0  0
   48.6170   52.1385   27.2376 C   0  0  0  0  0  0  0  0  0  0  0  0
   49.4756   52.0335   26.1621 N   0  0  0  0  0  0  0  0  0  0  0  0
   50.2890   52.8572   29.0360 N   0  0  0  0  0  0  0  0  0  0  0  0
   50.1524   53.1402   30.3039 C   0  0  0  0  0  0  0  0  0  0  0  0
   48.8458   53.0282   30.6892 N   0  0  0  0  0  0  0  0  0  0  0  0
  2  1  1  1  0  0  0
  2  3  1  0  0  0  0
  2  5  1  0  0  0  0
  3  4  1  0  0  0  0
  3 17  1  0  0  0  0
  5  6  1  0  0  0  0
  7  6  1  6  0  0  0
  7  8  1  0  0  0  0
  7  9  1  0  0  0  0
 10  9  1  6  0  0  0
 10 11  1  0  0  0  0
 10 12  1  0  0  0  0
 11 16  1  0  0  0  0
 12 13  1  6  0  0  0
 12 14  1  0  0  0  0
 14 15  1  1  0  0  0
 14 16  1  0  0  0  0
 16 27  1  6  0  0  0
 18 19  2  0  0  0  0
 18 23  1  0  0  0  0
 19 20  1  0  0  0  0
 20 21  2  0  0  0  0
 21 22  1  0  0  0  0
 21 27  1  0  0  0  0
 22 23  2  0  0  0  0
 22 25  1  0  0  0  0
 23 24  1  0  0  0  0
 25 26  2  0  0  0  0
 26 27  1  0  0  0  0
M  END
>  <CHROM.1>
142.83327200,-76.12950527,75.37241419,-166.54651185,-70.84338684,67.87596130
-157.76312591,47.97254674,54.67989958,30.32588746,-1.95583031,-1.33172980
-2.56577034

>  <Name>
ligand

>  <RI>
0

>  <Rbt.Current_Directory>
/home/itssahil/PROJECTS/Mol_Feturizer/New_Systems/rnas/3IQR

>  <Rbt.Executable>
rbdock ($Id: //depot/dev/client3/rdock/2013.1/src/exe/rbdock.cxx#4 $)

>  <Rbt.Library>
libRbt.so (2013.1, Build901 2013/11/27)

>  <Rbt.Parameter_File>
/export/apps/rDock/src/rDock_2013.1_src/data/scripts/dock_solv.prm

>  <Rbt.Receptor>
prm/pocket_docking_4.prm

>  <SCORE>
-19.5632

>  <SCORE.INTER>
-11.7981

>  <SCORE.INTER.CONST>
1

>  <SCORE.INTER.POLAR>
0

>  <SCORE.INTER.ROT>
7

>  <SCORE.INTER.SOLV>
5.74955

>  <SCORE.INTER.VDW>
-18.0486

>  <SCORE.INTER.norm>
-0.436967

>  <SCORE.INTRA>
-7.76507

>  <SCORE.INTRA.DIHEDRAL>
-1.76659

>  <SCORE.INTRA.DIHEDRAL.0>
9.29433

>  <SCORE.INTRA.POLAR>
0

>  <SCORE.INTRA.POLAR.0>
0

>  <SCORE.INTRA.REPUL>
0

>  <SCORE.INTRA.REPUL.0>
0

>  <SCORE.INTRA.SOLV>
1.14873

>  <SCORE.INTRA.SOLV.lig_0>
-48.5102

>  <SCORE.INTRA.VDW>
-7.45614

>  <SCORE.INTRA.VDW.0>
0.379549

>  <SCORE.INTRA.norm>
-0.287595

>  <SCORE.RESTR>
0

>  <SCORE.RESTR.CAVITY>
0

>  <SCORE.RESTR.norm>
0

>  <SCORE.SYSTEM>
0

>  <SCORE.SYSTEM.CONST>
0

>  <SCORE.SYSTEM.DIHEDRAL>
0

>  <SCORE.SYSTEM.SOLV>
0

>  <SCORE.SYSTEM.norm>
0

>  <SCORE.heavy>
27

>  <SCORE.norm>
-0.724562

>  <RMSD>
5.337

$$$$
ligand
 OpenBabel11021811483D
libRbt.so/2013.1/901 2013/11/27
 27 29  0  0  0  0  0  0  0  0999 V2000
   45.1990   57.8747   29.0122 N   0  0  0  0  0  0  0  0  0  0  0  0
   46.6270   57.9236   29.3228 C   0  0  2  0  0  0  0  0  0  0  0  0
   47.4143   57.8773   28.0452 C   0  0  0  0  0  0  0  0  0  0  0  0
   48.6031   58.1794   28.0469 O   0  0  0  0  0  0  0  0  0  0  0  0
   47.0211   56.7329   30.1958 C   0  0  0  0  0  0  0  0  0  0  0  0
   46.3293   56.8596   31.5409 C   0  0  0  0  0  0  0  0  0  0  0  0
   47.2890   57.7921   32.7763 S   0  0  2  0  0  0  0  0  0  0  0  0
   47.8306   59.2873   31.8970 C   0  0  0  0  0  0  0  0  0  0  0  0
   49.0260   57.0516   32.6408 C   0  0  0  0  0  0  0  0  0  0  0  0
   49.2373   55.5040   32.9171 C   0  0  2  0  0  0  0  0  0  0  0  0
   49.8076   54.7129   31.8991 O   0  0  0  0  0  0  0  0  0  0  0  0
   48.1837   54.7024   33.5703 C   0  0  1  0  0  0  0  0  0  0  0  0
   47.2136   55.5081   34.2406 O   0  0  0  0  0  0  0  0  0  0  0  0
   47.6653   53.9664   32.2457 C   0  0  2  0  0  0  0  0  0  0  0  0
   46.8037   52.9161   32.5675 O   0  0  0  0  0  0  0  0  0  0  0  0
   48.9919   53.4763   31.6684 C   0  0  1  0  0  0  0  0  0  0  0  0
   46.8760   57.4981   27.0130 O   0  0  0  0  0  0  0  0  0  0  0  0
   46.3060   51.8326   27.6416 N   0  0  0  0  0  0  0  0  0  0  0  0
   45.9568   51.9880   28.9215 C   0  0  0  0  0  0  0  0  0  0  0  0
   46.8172   52.4617   29.8179 N   0  0  0  0  0  0  0  0  0  0  0  0
   48.0989   52.7025   29.4995 C   0  0  0  0  0  0  0  0  0  0  0  0
   48.5325   52.4995   28.1638 C   0  0  0  0  0  0  0  0  0  0  0  0
   47.5669   52.0523   27.2197 C   0  0  0  0  0  0  0  0  0  0  0  0
   47.9052   51.8459   25.8976 N   0  0  0  0  0  0  0  0  0  0  0  0
   49.8411   52.8052   28.1183 N   0  0  0  0  0  0  0  0  0  0  0  0
   50.2424   53.1695   29.3068 C   0  0  0  0  0  0  0  0  0  0  0  0
   49.2086   53.1372   30.2004 N   0  0  0  0  0  0  0  0  0  0  0  0
  2  1  1  6  0  0  0
  2  3  1  0  0  0  0
  2  5  1  0  0  0  0
  3  4  1  0  0  0  0
  3 17  1  0  0  0  0
  5  6  1  0  0  0  0
  7  6  1  6  0  0  0
  7  8  1  0  0  0  0
  7  9  1  0  0  0  0
 10  9  1  6  0  0  0
 10 11  1  0  0  0  0
 10 12  1  0  0  0  0
 11 16  1  0  0  0  0
 12 13  1  6  0  0  0
 12 14  1  0  0  0  0
 14 15  1  1  0  0  0
 14 16  1  0  0  0  0
 16 27  1  6  0  0  0
 18 19  2  0  0  0  0
 18 23  1  0  0  0  0
 19 20  1  0  0  0  0
 20 21  2  0  0  0  0
 21 22  1  0  0  0  0
 21 27  1  0  0  0  0
 22 23  2  0  0  0  0
 22 25  1  0  0  0  0
 23 24  1  0  0  0  0
 25 26  2  0  0  0  0
 26 27  1  0  0  0  0
M  END
>  <CHROM.1>
165.06094438,-65.60911414,-89.58728939,47.62937903,-59.74813535,122.23694334
-139.72041189,47.76824836,55.11355535,30.33085726,1.80625753,-1.34300400
0.89694522

>  <Name>
ligand

>  <RI>
0

>  <Rbt.Current_Directory>
/home/itssahil/PROJECTS/Mol_Feturizer/New_Systems/rnas/3IQR

>  <Rbt.Executable>
rbdock ($Id: //depot/dev/client3/rdock/2013.1/src/exe/rbdock.cxx#4 $)

>  <Rbt.Library>
libRbt.so (2013.1, Build901 2013/11/27)

>  <Rbt.Parameter_File>
/export/apps/rDock/src/rDock_2013.1_src/data/scripts/dock_solv.prm

>  <Rbt.Receptor>
prm/pocket_docking_4.prm

>  <SCORE>
-14.1586

>  <SCORE.INTER>
-13.2666

>  <SCORE.INTER.CONST>
1

>  <SCORE.INTER.POLAR>
0

>  <SCORE.INTER.ROT>
7

>  <SCORE.INTER.SOLV>
12.584

>  <SCORE.INTER.VDW>
-21.3058

>  <SCORE.INTER.norm>
-0.491356

>  <SCORE.INTRA>
-0.895047

>  <SCORE.INTRA.DIHEDRAL>
1.67398

>  <SCORE.INTRA.DIHEDRAL.0>
9.29433

>  <SCORE.INTRA.POLAR>
0

>  <SCORE.INTRA.POLAR.0>
0

>  <SCORE.INTRA.REPUL>
0

>  <SCORE.INTRA.REPUL.0>
0

>  <SCORE.INTRA.SOLV>
0.516213

>  <SCORE.INTRA.SOLV.lig_0>
-48.5102

>  <SCORE.INTRA.VDW>
-1.99015

>  <SCORE.INTRA.VDW.0>
0.379549

>  <SCORE.INTRA.norm>
-0.0331499

>  <SCORE.RESTR>
0.0030719

>  <SCORE.RESTR.CAVITY>
0.0030719

>  <SCORE.RESTR.norm>
0.000113774

>  <SCORE.SYSTEM>
0

>  <SCORE.SYSTEM.CONST>
0

>  <SCORE.SYSTEM.DIHEDRAL>
0

>  <SCORE.SYSTEM.SOLV>
0

>  <SCORE.SYSTEM.norm>
0

>  <SCORE.heavy>
27

>  <SCORE.norm>
-0.524393

>  <RMSD>
5.339

$$$$
ligand
 OpenBabel11021811483D
libRbt.so/2013.1/901 2013/11/27
 27 29  0  0  0  0  0  0  0  0999 V2000
   49.1835   52.8493   26.5947 N   0  0  0  0  0  0  0  0  0  0  0  0
   49.6736   53.4297   27.8441 C   0  0  2  0  0  0  0  0  0  0  0  0
   51.1297   53.7650   27.6976 C   0  0  0  0  0  0  0  0  0  0  0  0
   51.9326   52.8890   27.3939 O   0  0  0  0  0  0  0  0  0  0  0  0
   49.5028   52.4369   28.9932 C   0  0  0  0  0  0  0  0  0  0  0  0
   49.8352   53.1351   30.2993 C   0  0  0  0  0  0  0  0  0  0  0  0
   48.6453   54.4338   30.7623 S   0  0  2  0  0  0  0  0  0  0  0  0
   49.2336   55.9190   29.8961 C   0  0  0  0  0  0  0  0  0  0  0  0
   49.3218   55.0913   32.4037 C   0  0  0  0  0  0  0  0  0  0  0  0
   48.3889   55.9756   33.3331 C   0  0  2  0  0  0  0  0  0  0  0  0
   47.1372   55.4536   33.7178 O   0  0  0  0  0  0  0  0  0  0  0  0
   48.2119   57.4179   33.0725 C   0  0  1  0  0  0  0  0  0  0  0  0
   49.2224   57.9516   32.2160 O   0  0  0  0  0  0  0  0  0  0  0  0
   46.7515   57.3094   32.4239 C   0  0  2  0  0  0  0  0  0  0  0  0
   46.1738   58.5731   32.2900 O   0  0  0  0  0  0  0  0  0  0  0  0
   46.0479   56.4550   33.4765 C   0  0  1  0  0  0  0  0  0  0  0  0
   51.5044   54.9217   27.8415 O   0  0  0  0  0  0  0  0  0  0  0  0
   43.5961   52.4190   35.4336 N   0  0  0  0  0  0  0  0  0  0  0  0
   44.7653   52.9754   35.7613 C   0  0  0  0  0  0  0  0  0  0  0  0
   45.2156   54.0554   35.1296 N   0  0  0  0  0  0  0  0  0  0  0  0
   44.5694   54.5675   34.0701 C   0  0  0  0  0  0  0  0  0  0  0  0
   43.3501   53.9770   33.6485 C   0  0  0  0  0  0  0  0  0  0  0  0
   42.8689   52.8618   34.3891 C   0  0  0  0  0  0  0  0  0  0  0  0
   41.6831   52.2409   34.0525 N   0  0  0  0  0  0  0  0  0  0  0  0
   42.9202   54.6696   32.5793 N   0  0  0  0  0  0  0  0  0  0  0  0
   43.7712   55.6234   32.3101 C   0  0  0  0  0  0  0  0  0  0  0  0
   44.8058   55.6184   33.2033 N   0  0  0  0  0  0  0  0  0  0  0  0
  2  1  1  6  0  0  0
  2  3  1  0  0  0  0
  2  5  1  0  0  0  0
  3  4  1  0  0  0  0
  3 17  1  0  0  0  0
  5  6  1  0  0  0  0
  7  6  1  6  0  0  0
  7  8  1  0  0  0  0
  7  9  1  0  0  0  0
 10  9  1  6  0  0  0
 10 11  1  0  0  0  0
 10 12  1  0  0  0  0
 11 16  1  0  0  0  0
 12 13  1  6  0  0  0
 12 14  1  0  0  0  0
 14 15  1  1  0  0  0
 14 16  1  0  0  0  0
 16 27  1  6  0  0  0
 18 19  2  0  0  0  0
 18 23  1  0  0  0  0
 19 20  1  0  0  0  0
 20 21  2  0  0  0  0
 21 22  1  0  0  0  0
 21 27  1  0  0  0  0
 22 23  2  0  0  0  0
 22 25  1  0  0  0  0
 23 24  1  0  0  0  0
 25 26  2  0  0  0  0
 26 27  1  0  0  0  0
M  END
>  <CHROM.1>
-57.39253665,-172.08792346,67.60886112,-85.83955452,-164.41299733,54.66601770
46.37507870,47.20292853,54.73168160,31.75956546,0.35374126,-0.64182629,-2.62527867

>  <Name>
ligand

>  <RI>
0

>  <Rbt.Current_Directory>
/home/itssahil/PROJECTS/Mol_Feturizer/New_Systems/rnas/3IQR

>  <Rbt.Executable>
rbdock ($Id: //depot/dev/client3/rdock/2013.1/src/exe/rbdock.cxx#4 $)

>  <Rbt.Library>
libRbt.so (2013.1, Build901 2013/11/27)

>  <Rbt.Parameter_File>
/export/apps/rDock/src/rDock_2013.1_src/data/scripts/dock_solv.prm

>  <Rbt.Receptor>
prm/pocket_docking_7.prm

>  <SCORE>
-20.8119

>  <SCORE.INTER>
-15.7357

>  <SCORE.INTER.CONST>
1

>  <SCORE.INTER.POLAR>
0

>  <SCORE.INTER.ROT>
7

>  <SCORE.INTER.SOLV>
6.2212

>  <SCORE.INTER.VDW>
-20.8309

>  <SCORE.INTER.norm>
-0.582804

>  <SCORE.INTRA>
-5.07622

>  <SCORE.INTRA.DIHEDRAL>
-3.00252

>  <SCORE.INTRA.DIHEDRAL.0>
9.29433

>  <SCORE.INTRA.POLAR>
0

>  <SCORE.INTRA.POLAR.0>
0

>  <SCORE.INTRA.REPUL>
0

>  <SCORE.INTRA.REPUL.0>
0

>  <SCORE.INTRA.SOLV>
-1.04153

>  <SCORE.INTRA.SOLV.lig_0>
-48.5102

>  <SCORE.INTRA.VDW>
-3.05419

>  <SCORE.INTRA.VDW.0>
0.379549

>  <SCORE.INTRA.norm>
-0.188008

>  <SCORE.RESTR>
0

>  <SCORE.RESTR.CAVITY>
0

>  <SCORE.RESTR.norm>
0

>  <SCORE.SYSTEM>
0

>  <SCORE.SYSTEM.CONST>
0

>  <SCORE.SYSTEM.DIHEDRAL>
0

>  <SCORE.SYSTEM.SOLV>
0

>  <SCORE.SYSTEM.norm>
0

>  <SCORE.heavy>
27

>  <SCORE.norm>
-0.770812

>  <RMSD>
5.350

$$$$
ligand
 OpenBabel11021811483D
libRbt.so/2013.1/901 2013/11/27
 27 29  0  0  0  0  0  0  0  0999 V2000
   45.4008   53.4069   31.9001 N   0  0  0  0  0  0  0  0  0  0  0  0
   46.7896   52.9572   31.9822 C   0  0  2  0  0  0  0  0  0  0  0  0
   47.1488   52.7161   33.4200 C   0  0  0  0  0  0  0  0  0  0  0  0
   46.4374   53.1649   34.3127 O   0  0  0  0  0  0  0  0  0  0  0  0
   47.7257   54.0180   31.4046 C   0  0  0  0  0  0  0  0  0  0  0  0
   47.4868   54.1225   29.9094 C   0  0  0  0  0  0  0  0  0  0  0  0
   48.2246   52.7617   28.9499 S   0  0  2  0  0  0  0  0  0  0  0  0
   50.0166   53.0352   29.0775 C   0  0  0  0  0  0  0  0  0  0  0  0
   48.2245   53.4190   27.1745 C   0  0  0  0  0  0  0  0  0  0  0  0
   48.7348   54.8936   26.8891 C   0  0  2  0  0  0  0  0  0  0  0  0
   48.8430   55.7874   27.9739 O   0  0  0  0  0  0  0  0  0  0  0  0
   48.2324   55.6556   25.7289 C   0  0  1  0  0  0  0  0  0  0  0  0
   47.6086   54.8231   24.7505 O   0  0  0  0  0  0  0  0  0  0  0  0
   47.2406   56.6079   26.5504 C   0  0  2  0  0  0  0  0  0  0  0  0
   46.7777   57.6518   25.7474 O   0  0  0  0  0  0  0  0  0  0  0  0
   48.1790   57.0929   27.6538 C   0  0  1  0  0  0  0  0  0  0  0  0
   48.1290   52.0364   33.6958 O   0  0  0  0  0  0  0  0  0  0  0  0
   44.1409   56.7175   30.7655 N   0  0  0  0  0  0  0  0  0  0  0  0
   44.3468   56.2339   29.5376 C   0  0  0  0  0  0  0  0  0  0  0  0
   45.4995   56.4299   28.9042 N   0  0  0  0  0  0  0  0  0  0  0  0
   46.4614   57.2081   29.4249 C   0  0  0  0  0  0  0  0  0  0  0  0
   46.2668   57.7904   30.7041 C   0  0  0  0  0  0  0  0  0  0  0  0
   45.0465   57.5057   31.3775 C   0  0  0  0  0  0  0  0  0  0  0  0
   44.7874   58.0212   32.6314 N   0  0  0  0  0  0  0  0  0  0  0  0
   47.3639   58.5158   30.9833 N   0  0  0  0  0  0  0  0  0  0  0  0
   48.2043   58.4314   29.9868 C   0  0  0  0  0  0  0  0  0  0  0  0
   47.7078   57.6282   28.9986 N   0  0  0  0  0  0  0  0  0  0  0  0
  2  1  1  1  0  0  0
  2  3  1  0  0  0  0
  2  5  1  0  0  0  0
  3  4  1  0  0  0  0
  3 17  1  0  0  0  0
  5  6  1  0  0  0  0
  7  6  1  1  0  0  0
  7  8  1  0  0  0  0
  7  9  1  0  0  0  0
 10  9  1  1  0  0  0
 10 11  1  0  0  0  0
 10 12  1  0  0  0  0
 11 16  1  0  0  0  0
 12 13  1  6  0  0  0
 12 14  1  0  0  0  0
 14 15  1  6  0  0  0
 14 16  1  0  0  0  0
 16 27  1  1  0  0  0
 18 19  2  0  0  0  0
 18 23  1  0  0  0  0
 19 20  1  0  0  0  0
 20 21  2  0  0  0  0
 21 22  1  0  0  0  0
 21 27  1  0  0  0  0
 22 23  2  0  0  0  0
 22 25  1  0  0  0  0
 23 24  1  0  0  0  0
 25 26  2  0  0  0  0
 26 27  1  0  0  0  0
M  END
>  <CHROM.1>
-15.59383833,-67.57986969,-76.50208268,-69.16283731,46.31479828,-16.31620439
-87.05908267,47.16420606,55.31629109,29.59332998,-1.88833202,1.03301164,-0.92344428

>  <Name>
ligand

>  <RI>
0

>  <Rbt.Current_Directory>
/home/itssahil/PROJECTS/Mol_Feturizer/New_Systems/rnas/3IQR

>  <Rbt.Executable>
rbdock ($Id: //depot/dev/client3/rdock/2013.1/src/exe/rbdock.cxx#4 $)

>  <Rbt.Library>
libRbt.so (2013.1, Build901 2013/11/27)

>  <Rbt.Parameter_File>
/export/apps/rDock/src/rDock_2013.1_src/data/scripts/dock_solv.prm

>  <Rbt.Receptor>
prm/pocket_docking_3.prm

>  <SCORE>
-8.85045

>  <SCORE.INTER>
-4.45153

>  <SCORE.INTER.CONST>
1

>  <SCORE.INTER.POLAR>
0

>  <SCORE.INTER.ROT>
7

>  <SCORE.INTER.SOLV>
17.7256

>  <SCORE.INTER.VDW>
-17.1429

>  <SCORE.INTER.norm>
-0.164872

>  <SCORE.INTRA>
-4.58476

>  <SCORE.INTRA.DIHEDRAL>
-0.569038

>  <SCORE.INTRA.DIHEDRAL.0>
9.29433

>  <SCORE.INTRA.POLAR>
0

>  <SCORE.INTRA.POLAR.0>
0

>  <SCORE.INTRA.REPUL>
0

>  <SCORE.INTRA.REPUL.0>
0

>  <SCORE.INTRA.SOLV>
-0.250776

>  <SCORE.INTRA.SOLV.lig_0>
-48.5102

>  <SCORE.INTRA.VDW>
-4.17485

>  <SCORE.INTRA.VDW.0>
0.379549

>  <SCORE.INTRA.norm>
-0.169806

>  <SCORE.RESTR>
0.185845

>  <SCORE.RESTR.CAVITY>
0.185845

>  <SCORE.RESTR.norm>
0.00688313

>  <SCORE.SYSTEM>
0

>  <SCORE.SYSTEM.CONST>
0

>  <SCORE.SYSTEM.DIHEDRAL>
0

>  <SCORE.SYSTEM.SOLV>
0

>  <SCORE.SYSTEM.norm>
0

>  <SCORE.heavy>
27

>  <SCORE.norm>
-0.327794

>  <RMSD>
5.351

$$$$
ligand
 OpenBabel11021811483D
libRbt.so/2013.1/901 2013/11/27
 27 29  0  0  0  0  0  0  0  0999 V2000
   46.4570   51.6680   26.1890 N   0  0  0  0  0  0  0  0  0  0  0  0
   47.6231   52.2578   26.8450 C   0  0  2  0  0  0  0  0  0  0  0  0
   48.8032   51.3457   26.6726 C   0  0  0  0  0  0  0  0  0  0  0  0
   49.6918   51.3271   27.5179 O   0  0  0  0  0  0  0  0  0  0  0  0
   47.3527   52.4483   28.3369 C   0  0  0  0  0  0  0  0  0  0  0  0
   46.1752   53.3911   28.5063 C   0  0  0  0  0  0  0  0  0  0  0  0
   46.5653   55.1298   28.1304 S   0  0  2  0  0  0  0  0  0  0  0  0
   46.9193   55.1411   26.3480 C   0  0  0  0  0  0  0  0  0  0  0  0
   48.4120   55.2659   28.5244 C   0  0  0  0  0  0  0  0  0  0  0  0
   48.8798   56.1031   29.7880 C   0  0  2  0  0  0  0  0  0  0  0  0
   48.6380   55.5720   31.0712 O   0  0  0  0  0  0  0  0  0  0  0  0
   48.6514   57.5600   29.8556 C   0  0  1  0  0  0  0  0  0  0  0  0
   48.3648   58.1332   28.5794 O   0  0  0  0  0  0  0  0  0  0  0  0
   47.4167   57.5050   30.8744 C   0  0  2  0  0  0  0  0  0  0  0  0
   47.1133   58.7803   31.3544 O   0  0  0  0  0  0  0  0  0  0  0  0
   47.9963   56.5970   31.9573 C   0  0  1  0  0  0  0  0  0  0  0  0
   48.8538   50.5928   25.7084 O   0  0  0  0  0  0  0  0  0  0  0  0
   48.6314   53.4875   35.9646 N   0  0  0  0  0  0  0  0  0  0  0  0
   49.5225   54.0477   35.1423 C   0  0  0  0  0  0  0  0  0  0  0  0
   49.1397   54.8592   34.1609 N   0  0  0  0  0  0  0  0  0  0  0  0
   47.8413   55.0653   33.8888 C   0  0  0  0  0  0  0  0  0  0  0  0
   46.8552   54.4473   34.7005 C   0  0  0  0  0  0  0  0  0  0  0  0
   47.3050   53.6368   35.7796 C   0  0  0  0  0  0  0  0  0  0  0  0
   46.4090   53.0136   36.6244 N   0  0  0  0  0  0  0  0  0  0  0  0
   45.6547   54.8097   34.2151 N   0  0  0  0  0  0  0  0  0  0  0  0
   45.8230   55.5869   33.1788 C   0  0  0  0  0  0  0  0  0  0  0  0
   47.1523   55.7908   32.9346 N   0  0  0  0  0  0  0  0  0  0  0  0
  2  1  1  6  0  0  0
  2  3  1  0  0  0  0
  2  5  1  0  0  0  0
  3  4  1  0  0  0  0
  3 17  1  0  0  0  0
  5  6  1  0  0  0  0
  7  6  1  1  0  0  0
  7  8  1  0  0  0  0
  7  9  1  0  0  0  0
 10  9  1  6  0  0  0
 10 11  1  0  0  0  0
 10 12  1  0  0  0  0
 11 16  1  0  0  0  0
 12 13  1  6  0  0  0
 12 14  1  0  0  0  0
 14 15  1  1  0  0  0
 14 16  1  0  0  0  0
 16 27  1  1  0  0  0
 18 19  2  0  0  0  0
 18 23  1  0  0  0  0
 19 20  1  0  0  0  0
 20 21  2  0  0  0  0
 21 22  1  0  0  0  0
 21 27  1  0  0  0  0
 22 23  2  0  0  0  0
 22 25  1  0  0  0  0
 23 24  1  0  0  0  0
 25 26  2  0  0  0  0
 26 27  1  0  0  0  0
M  END
>  <CHROM.1>
-151.10184808,-60.97566377,-73.14148068,66.18272713,-109.83946883,71.84693209
71.32470076,47.67416957,54.61007383,30.59677594,-1.01435508,-1.49758157,1.88067106

>  <Name>
ligand

>  <RI>
0

>  <Rbt.Current_Directory>
/home/itssahil/PROJECTS/Mol_Feturizer/New_Systems/rnas/3IQR

>  <Rbt.Executable>
rbdock ($Id: //depot/dev/client3/rdock/2013.1/src/exe/rbdock.cxx#4 $)

>  <Rbt.Library>
libRbt.so (2013.1, Build901 2013/11/27)

>  <Rbt.Parameter_File>
/export/apps/rDock/src/rDock_2013.1_src/data/scripts/dock_solv.prm

>  <Rbt.Receptor>
prm/pocket_docking_5.prm

>  <SCORE>
-8.93932

>  <SCORE.INTER>
-8.31364

>  <SCORE.INTER.CONST>
1

>  <SCORE.INTER.POLAR>
0

>  <SCORE.INTER.ROT>
7

>  <SCORE.INTER.SOLV>
13.9516

>  <SCORE.INTER.VDW>
-18.4596

>  <SCORE.INTER.norm>
-0.307913

>  <SCORE.INTRA>
-0.625675

>  <SCORE.INTRA.DIHEDRAL>
0.258269

>  <SCORE.INTRA.DIHEDRAL.0>
9.29433

>  <SCORE.INTRA.POLAR>
0

>  <SCORE.INTRA.POLAR.0>
0

>  <SCORE.INTRA.REPUL>
0

>  <SCORE.INTRA.REPUL.0>
0

>  <SCORE.INTRA.SOLV>
0.639595

>  <SCORE.INTRA.SOLV.lig_0>
-48.5102

>  <SCORE.INTRA.VDW>
-1.07461

>  <SCORE.INTRA.VDW.0>
0.379549

>  <SCORE.INTRA.norm>
-0.0231731

>  <SCORE.RESTR>
0

>  <SCORE.RESTR.CAVITY>
0

>  <SCORE.RESTR.norm>
0

>  <SCORE.SYSTEM>
0

>  <SCORE.SYSTEM.CONST>
0

>  <SCORE.SYSTEM.DIHEDRAL>
0

>  <SCORE.SYSTEM.SOLV>
0

>  <SCORE.SYSTEM.norm>
0

>  <SCORE.heavy>
27

>  <SCORE.norm>
-0.331086

>  <RMSD>
5.354

$$$$
ligand
 OpenBabel11021811483D
libRbt.so/2013.1/901 2013/11/27
 27 29  0  0  0  0  0  0  0  0999 V2000
   50.1352   52.8134   28.7354 N   0  0  0  0  0  0  0  0  0  0  0  0
   49.3742   53.9444   29.2642 C   0  0  2  0  0  0  0  0  0  0  0  0
   49.9097   55.2193   28.6794 C   0  0  0  0  0  0  0  0  0  0  0  0
   51.0580   55.2618   28.2504 O   0  0  0  0  0  0  0  0  0  0  0  0
   49.4984   54.0022   30.7862 C   0  0  0  0  0  0  0  0  0  0  0  0
   48.4386   54.9428   31.3303 C   0  0  0  0  0  0  0  0  0  0  0  0
   48.8402   55.6359   32.9658 S   0  0  2  0  0  0  0  0  0  0  0  0
   48.6781   54.2310   34.1070 C   0  0  0  0  0  0  0  0  0  0  0  0
   47.1906   56.3461   33.5645 C   0  0  0  0  0  0  0  0  0  0  0  0
   46.2014   57.0095   32.5169 C   0  0  2  0  0  0  0  0  0  0  0  0
   45.6882   56.2068   31.4779 O   0  0  0  0  0  0  0  0  0  0  0  0
   46.4816   58.3454   31.9544 C   0  0  1  0  0  0  0  0  0  0  0  0
   47.4423   59.0751   32.7186 O   0  0  0  0  0  0  0  0  0  0  0  0
   46.9881   57.8387   30.5219 C   0  0  2  0  0  0  0  0  0  0  0  0
   47.1002   58.9068   29.6299 O   0  0  0  0  0  0  0  0  0  0  0  0
   45.8526   56.8865   30.1517 C   0  0  1  0  0  0  0  0  0  0  0  0
   49.1834   56.2014   28.5951 O   0  0  0  0  0  0  0  0  0  0  0  0
   47.2087   56.1752   25.2747 N   0  0  0  0  0  0  0  0  0  0  0  0
   47.0548   57.2957   25.9853 C   0  0  0  0  0  0  0  0  0  0  0  0
   46.7148   57.2556   27.2702 N   0  0  0  0  0  0  0  0  0  0  0  0
   46.4091   56.0984   27.8780 C   0  0  0  0  0  0  0  0  0  0  0  0
   46.5039   54.8848   27.1489 C   0  0  0  0  0  0  0  0  0  0  0  0
   46.9321   54.9631   25.7946 C   0  0  0  0  0  0  0  0  0  0  0  0
   47.0647   53.8269   25.0223 N   0  0  0  0  0  0  0  0  0  0  0  0
   46.1427   53.8911   27.9795 N   0  0  0  0  0  0  0  0  0  0  0  0
   45.8314   54.3922   29.1450 C   0  0  0  0  0  0  0  0  0  0  0  0
   45.9869   55.7502   29.1478 N   0  0  0  0  0  0  0  0  0  0  0  0
  2  1  1  6  0  0  0
  2  3  1  0  0  0  0
  2  5  1  0  0  0  0
  3  4  1  0  0  0  0
  3 17  1  0  0  0  0
  5  6  1  0  0  0  0
  7  6  1  6  0  0  0
  7  8  1  0  0  0  0
  7  9  1  0  0  0  0
 10  9  1  6  0  0  0
 10 11  1  0  0  0  0
 10 12  1  0  0  0  0
 11 16  1  0  0  0  0
 12 13  1  1  0  0  0
 12 14  1  0  0  0  0
 14 15  1  6  0  0  0
 14 16  1  0  0  0  0
 16 27  1  6  0  0  0
 18 19  2  0  0  0  0
 18 23  1  0  0  0  0
 19 20  1  0  0  0  0
 20 21  2  0  0  0  0
 21 22  1  0  0  0  0
 21 27  1  0  0  0  0
 22 23  2  0  0  0  0
 22 25  1  0  0  0  0
 23 24  1  0  0  0  0
 25 26  2  0  0  0  0
 26 27  1  0  0  0  0
M  END
>  <CHROM.1>
-23.12437066,-165.74284880,-156.87728055,-70.70734197,-35.78403774,61.69975629
-167.84164261,47.64962117,55.84808944,29.71304927,-1.63323660,-0.81842477
1.32542912

>  <Name>
ligand

>  <RI>
0

>  <Rbt.Current_Directory>
/home/itssahil/PROJECTS/Mol_Feturizer/New_Systems/rnas/3IQR

>  <Rbt.Executable>
rbdock ($Id: //depot/dev/client3/rdock/2013.1/src/exe/rbdock.cxx#4 $)

>  <Rbt.Library>
libRbt.so (2013.1, Build901 2013/11/27)

>  <Rbt.Parameter_File>
/export/apps/rDock/src/rDock_2013.1_src/data/scripts/dock_solv.prm

>  <Rbt.Receptor>
prm/pocket_docking_6.prm

>  <SCORE>
-16.8403

>  <SCORE.INTER>
-9.71294

>  <SCORE.INTER.CONST>
1

>  <SCORE.INTER.POLAR>
0

>  <SCORE.INTER.ROT>
7

>  <SCORE.INTER.SOLV>
11.404

>  <SCORE.INTER.VDW>
-18.5433

>  <SCORE.INTER.norm>
-0.359739

>  <SCORE.INTRA>
-7.12734

>  <SCORE.INTRA.DIHEDRAL>
-0.210076

>  <SCORE.INTRA.DIHEDRAL.0>
9.29433

>  <SCORE.INTRA.POLAR>
0

>  <SCORE.INTRA.POLAR.0>
0

>  <SCORE.INTRA.REPUL>
0

>  <SCORE.INTRA.REPUL.0>
0

>  <SCORE.INTRA.SOLV>
-1.1858

>  <SCORE.INTRA.SOLV.lig_0>
-48.5102

>  <SCORE.INTRA.VDW>
-6.42941

>  <SCORE.INTRA.VDW.0>
0.379549

>  <SCORE.INTRA.norm>
-0.263976

>  <SCORE.RESTR>
0

>  <SCORE.RESTR.CAVITY>
0

>  <SCORE.RESTR.norm>
0

>  <SCORE.SYSTEM>
0

>  <SCORE.SYSTEM.CONST>
0

>  <SCORE.SYSTEM.DIHEDRAL>
0

>  <SCORE.SYSTEM.SOLV>
0

>  <SCORE.SYSTEM.norm>
0

>  <SCORE.heavy>
27

>  <SCORE.norm>
-0.623714

>  <RMSD>
5.364

$$$$
ligand
 OpenBabel11021811483D
libRbt.so/2013.1/901 2013/11/27
 27 29  0  0  0  0  0  0  0  0999 V2000
   47.6272   56.4582   26.2351 N   0  0  0  0  0  0  0  0  0  0  0  0
   47.0679   56.4627   27.5861 C   0  0  2  0  0  0  0  0  0  0  0  0
   47.6096   57.6406   28.3432 C   0  0  0  0  0  0  0  0  0  0  0  0
   46.9401   58.1589   29.2307 O   0  0  0  0  0  0  0  0  0  0  0  0
   47.4479   55.1783   28.3218 C   0  0  0  0  0  0  0  0  0  0  0  0
   48.9609   55.0631   28.3596 C   0  0  0  0  0  0  0  0  0  0  0  0
   49.5625   53.5352   29.1474 S   0  0  2  0  0  0  0  0  0  0  0  0
   48.5998   52.2093   28.3616 C   0  0  0  0  0  0  0  0  0  0  0  0
   48.5132   53.4021   30.7175 C   0  0  0  0  0  0  0  0  0  0  0  0
   49.0754   53.9830   32.0823 C   0  0  2  0  0  0  0  0  0  0  0  0
   48.6488   53.3920   33.2889 O   0  0  0  0  0  0  0  0  0  0  0  0
   49.1641   55.4399   32.3037 C   0  0  1  0  0  0  0  0  0  0  0  0
   49.0845   56.1880   31.0899 O   0  0  0  0  0  0  0  0  0  0  0  0
   47.8887   55.5573   33.2654 C   0  0  2  0  0  0  0  0  0  0  0  0
   47.8406   56.8130   33.8734 O   0  0  0  0  0  0  0  0  0  0  0  0
   48.1928   54.4389   34.2603 C   0  0  1  0  0  0  0  0  0  0  0  0
   48.7360   58.0540   28.0995 O   0  0  0  0  0  0  0  0  0  0  0  0
   47.3692   53.2026   39.1515 N   0  0  0  0  0  0  0  0  0  0  0  0
   48.4331   53.7455   38.5538 C   0  0  0  0  0  0  0  0  0  0  0  0
   48.4301   54.0127   37.2512 N   0  0  0  0  0  0  0  0  0  0  0  0
   47.4035   53.6525   36.4647 C   0  0  0  0  0  0  0  0  0  0  0  0
   46.2724   53.0220   37.0446 C   0  0  0  0  0  0  0  0  0  0  0  0
   46.2867   52.8104   38.4513 C   0  0  0  0  0  0  0  0  0  0  0  0
   45.2186   52.2174   39.0936 N   0  0  0  0  0  0  0  0  0  0  0  0
   45.4049   52.7657   36.0499 N   0  0  0  0  0  0  0  0  0  0  0  0
   45.9096   53.1781   34.9178 C   0  0  0  0  0  0  0  0  0  0  0  0
   47.1380   53.7453   35.1109 N   0  0  0  0  0  0  0  0  0  0  0  0
  2  1  1  6  0  0  0
  2  3  1  0  0  0  0
  2  5  1  0  0  0  0
  3  4  1  0  0  0  0
  3 17  1  0  0  0  0
  5  6  1  0  0  0  0
  7  6  1  6  0  0  0
  7  8  1  0  0  0  0
  7  9  1  0  0  0  0
 10  9  1  6  0  0  0
 10 11  1  0  0  0  0
 10 12  1  0  0  0  0
 11 16  1  0  0  0  0
 12 13  1  6  0  0  0
 12 14  1  0  0  0  0
 14 15  1  1  0  0  0
 14 16  1  0  0  0  0
 16 27  1  6  0  0  0
 18 19  2  0  0  0  0
 18 23  1  0  0  0  0
 19 20  1  0  0  0  0
 20 21  2  0  0  0  0
 21 22  1  0  0  0  0
 21 27  1  0  0  0  0
 22 23  2  0  0  0  0
 22 25  1  0  0  0  0
 23 24  1  0  0  0  0
 25 26  2  0  0  0  0
 26 27  1  0  0  0  0
M  END
>  <CHROM.1>
150.77187963,57.95130374,-177.48040675,48.71913758,-94.51883613,-151.51469267
118.69393076,47.85047221,54.60890427,32.53832230,1.03318146,1.28480565,-0.77484275

>  <Name>
ligand

>  <RI>
0

>  <Rbt.Current_Directory>
/home/itssahil/PROJECTS/Mol_Feturizer/New_Systems/rnas/3IQR

>  <Rbt.Executable>
rbdock ($Id: //depot/dev/client3/rdock/2013.1/src/exe/rbdock.cxx#4 $)

>  <Rbt.Library>
libRbt.so (2013.1, Build901 2013/11/27)

>  <Rbt.Parameter_File>
/export/apps/rDock/src/rDock_2013.1_src/data/scripts/dock_solv.prm

>  <Rbt.Receptor>
prm/pocket_docking_8.prm

>  <SCORE>
-16.0294

>  <SCORE.INTER>
-13.2349

>  <SCORE.INTER.CONST>
1

>  <SCORE.INTER.POLAR>
0

>  <SCORE.INTER.ROT>
7

>  <SCORE.INTER.SOLV>
13.2633

>  <SCORE.INTER.VDW>
-21.5111

>  <SCORE.INTER.norm>
-0.490183

>  <SCORE.INTRA>
-2.79441

>  <SCORE.INTRA.DIHEDRAL>
-1.53461

>  <SCORE.INTRA.DIHEDRAL.0>
9.29433

>  <SCORE.INTRA.POLAR>
0

>  <SCORE.INTRA.POLAR.0>
0

>  <SCORE.INTRA.REPUL>
0

>  <SCORE.INTRA.REPUL.0>
0

>  <SCORE.INTRA.SOLV>
-0.540885

>  <SCORE.INTRA.SOLV.lig_0>
-48.5102

>  <SCORE.INTRA.VDW>
-1.75666

>  <SCORE.INTRA.VDW.0>
0.379549

>  <SCORE.INTRA.norm>
-0.103497

>  <SCORE.RESTR>
0

>  <SCORE.RESTR.CAVITY>
0

>  <SCORE.RESTR.norm>
0

>  <SCORE.SYSTEM>
0

>  <SCORE.SYSTEM.CONST>
0

>  <SCORE.SYSTEM.DIHEDRAL>
0

>  <SCORE.SYSTEM.SOLV>
0

>  <SCORE.SYSTEM.norm>
0

>  <SCORE.heavy>
27

>  <SCORE.norm>
-0.59368

>  <RMSD>
5.369

$$$$
ligand
 OpenBabel11021811483D
libRbt.so/2013.1/901 2013/11/27
 27 29  0  0  0  0  0  0  0  0999 V2000
   47.4243   58.0001   27.3704 N   0  0  0  0  0  0  0  0  0  0  0  0
   47.5071   57.0906   28.5122 C   0  0  2  0  0  0  0  0  0  0  0  0
   46.3428   56.1433   28.4771 C   0  0  0  0  0  0  0  0  0  0  0  0
   45.2241   56.5577   28.1921 O   0  0  0  0  0  0  0  0  0  0  0  0
   47.4712   57.8780   29.8214 C   0  0  0  0  0  0  0  0  0  0  0  0
   47.8198   56.9441   30.9661 C   0  0  0  0  0  0  0  0  0  0  0  0
   47.5133   57.6551   32.6145 S   0  0  2  0  0  0  0  0  0  0  0  0
   48.8261   58.8935   32.8266 C   0  0  0  0  0  0  0  0  0  0  0  0
   48.4093   56.4667   33.7845 C   0  0  0  0  0  0  0  0  0  0  0  0
   48.0936   54.9140   33.7104 C   0  0  2  0  0  0  0  0  0  0  0  0
   48.8720   54.1117   32.8515 O   0  0  0  0  0  0  0  0  0  0  0  0
   46.7013   54.4288   33.6372 C   0  0  1  0  0  0  0  0  0  0  0  0
   45.7507   55.4191   34.0313 O   0  0  0  0  0  0  0  0  0  0  0  0
   46.7126   54.0736   32.0755 C   0  0  2  0  0  0  0  0  0  0  0  0
   45.5812   53.3335   31.7275 O   0  0  0  0  0  0  0  0  0  0  0  0
   47.9965   53.2503   31.9918 C   0  0  1  0  0  0  0  0  0  0  0  0
   46.5222   54.9515   28.6931 O   0  0  0  0  0  0  0  0  0  0  0  0
   47.2204   51.8528   27.1364 N   0  0  0  0  0  0  0  0  0  0  0  0
   46.3877   51.8881   28.1801 C   0  0  0  0  0  0  0  0  0  0  0  0
   46.7942   52.3160   29.3718 N   0  0  0  0  0  0  0  0  0  0  0  0
   48.0791   52.6286   29.6028 C   0  0  0  0  0  0  0  0  0  0  0  0
   49.0142   52.5536   28.5383 C   0  0  0  0  0  0  0  0  0  0  0  0
   48.5282   52.1524   27.2630 C   0  0  0  0  0  0  0  0  0  0  0  0
   49.3708   52.0694   26.1730 N   0  0  0  0  0  0  0  0  0  0  0  0
   50.2124   52.9090   29.0341 N   0  0  0  0  0  0  0  0  0  0  0  0
   50.0905   53.1871   30.3046 C   0  0  0  0  0  0  0  0  0  0  0  0
   48.7936   53.0430   30.7116 N   0  0  0  0  0  0  0  0  0  0  0  0
  2  1  1  6  0  0  0
  2  3  1  0  0  0  0
  2  5  1  0  0  0  0
  3  4  1  0  0  0  0
  3 17  1  0  0  0  0
  5  6  1  0  0  0  0
  7  6  1  6  0  0  0
  7  8  1  0  0  0  0
  7  9  1  0  0  0  0
 10  9  1  6  0  0  0
 10 11  1  0  0  0  0
 10 12  1  0  0  0  0
 11 16  1  0  0  0  0
 12 13  1  6  0  0  0
 12 14  1  0  0  0  0
 14 15  1  1  0  0  0
 14 16  1  0  0  0  0
 16 27  1  6  0  0  0
 18 19  2  0  0  0  0
 18 23  1  0  0  0  0
 19 20  1  0  0  0  0
 20 21  2  0  0  0  0
 21 22  1  0  0  0  0
 21 27  1  0  0  0  0
 22 23  2  0  0  0  0
 22 25  1  0  0  0  0
 23 24  1  0  0  0  0
 25 26  2  0  0  0  0
 26 27  1  0  0  0  0
M  END
>  <CHROM.1>
-41.93131634,-169.43046649,-169.04928584,-72.50841260,-53.27730868,90.62521411
-161.33809467,47.63023915,54.82268450,30.44320798,1.08283330,1.38800837,-1.78935905

>  <Name>
ligand

>  <RI>
0

>  <Rbt.Current_Directory>
/home/itssahil/PROJECTS/Mol_Feturizer/New_Systems/rnas/3IQR

>  <Rbt.Executable>
rbdock ($Id: //depot/dev/client3/rdock/2013.1/src/exe/rbdock.cxx#4 $)

>  <Rbt.Library>
libRbt.so (2013.1, Build901 2013/11/27)

>  <Rbt.Parameter_File>
/export/apps/rDock/src/rDock_2013.1_src/data/scripts/dock_solv.prm

>  <Rbt.Receptor>
prm/pocket_docking_6.prm

>  <SCORE>
-17.5611

>  <SCORE.INTER>
-10.873

>  <SCORE.INTER.CONST>
1

>  <SCORE.INTER.POLAR>
0

>  <SCORE.INTER.ROT>
7

>  <SCORE.INTER.SOLV>
11.2314

>  <SCORE.INTER.VDW>
-19.2591

>  <SCORE.INTER.norm>
-0.402703

>  <SCORE.INTRA>
-6.68808

>  <SCORE.INTRA.DIHEDRAL>
-1.58091

>  <SCORE.INTRA.DIHEDRAL.0>
9.29433

>  <SCORE.INTRA.POLAR>
0

>  <SCORE.INTRA.POLAR.0>
0

>  <SCORE.INTRA.REPUL>
0

>  <SCORE.INTRA.REPUL.0>
0

>  <SCORE.INTRA.SOLV>
-1.16988

>  <SCORE.INTRA.SOLV.lig_0>
-48.5102

>  <SCORE.INTRA.VDW>
-5.31269

>  <SCORE.INTRA.VDW.0>
0.379549

>  <SCORE.INTRA.norm>
-0.247707

>  <SCORE.RESTR>
0

>  <SCORE.RESTR.CAVITY>
0

>  <SCORE.RESTR.norm>
0

>  <SCORE.SYSTEM>
0

>  <SCORE.SYSTEM.CONST>
0

>  <SCORE.SYSTEM.DIHEDRAL>
0

>  <SCORE.SYSTEM.SOLV>
0

>  <SCORE.SYSTEM.norm>
0

>  <SCORE.heavy>
27

>  <SCORE.norm>
-0.650409

>  <RMSD>
5.371

$$$$
ligand
 OpenBabel11021811483D
libRbt.so/2013.1/901 2013/11/27
 27 29  0  0  0  0  0  0  0  0999 V2000
   45.8851   56.2196   29.5925 N   0  0  0  0  0  0  0  0  0  0  0  0
   46.9065   56.5015   28.5850 C   0  0  2  0  0  0  0  0  0  0  0  0
   46.7305   55.5650   27.4247 C   0  0  0  0  0  0  0  0  0  0  0  0
   47.4082   55.7094   26.4126 O   0  0  0  0  0  0  0  0  0  0  0  0
   48.3024   56.3077   29.1760 C   0  0  0  0  0  0  0  0  0  0  0  0
   48.6325   57.4988   30.0572 C   0  0  0  0  0  0  0  0  0  0  0  0
   47.7666   57.4905   31.6593 S   0  0  2  0  0  0  0  0  0  0  0  0
   47.8997   59.2016   32.2567 C   0  0  0  0  0  0  0  0  0  0  0  0
   49.0998   56.9323   32.8820 C   0  0  0  0  0  0  0  0  0  0  0  0
   49.4706   55.3933   32.9819 C   0  0  2  0  0  0  0  0  0  0  0  0
   49.5128   54.6352   31.7942 O   0  0  0  0  0  0  0  0  0  0  0  0
   48.8849   54.5420   34.0363 C   0  0  1  0  0  0  0  0  0  0  0  0
   48.3252   55.2999   35.1095 O   0  0  0  0  0  0  0  0  0  0  0  0
   47.8228   53.7941   33.0993 C   0  0  2  0  0  0  0  0  0  0  0  0
   47.2561   52.7051   33.7641 O   0  0  0  0  0  0  0  0  0  0  0  0
   48.7291   53.3662   31.9466 C   0  0  1  0  0  0  0  0  0  0  0  0
   45.9393   54.6345   27.5094 O   0  0  0  0  0  0  0  0  0  0  0  0
   50.5749   52.8717   27.2053 N   0  0  0  0  0  0  0  0  0  0  0  0
   51.1659   53.2624   28.3377 C   0  0  0  0  0  0  0  0  0  0  0  0
   50.4982   53.2967   29.4872 N   0  0  0  0  0  0  0  0  0  0  0  0
   49.1808   53.0439   29.5398 C   0  0  0  0  0  0  0  0  0  0  0  0
   48.4960   52.6782   28.3521 C   0  0  0  0  0  0  0  0  0  0  0  0
   49.2579   52.5910   27.1539 C   0  0  0  0  0  0  0  0  0  0  0  0
   48.6691   52.2268   25.9599 N   0  0  0  0  0  0  0  0  0  0  0  0
   47.2054   52.4884   28.6781 N   0  0  0  0  0  0  0  0  0  0  0  0
   47.0437   52.7116   29.9550 C   0  0  0  0  0  0  0  0  0  0  0  0
   48.2304   53.0477   30.5440 N   0  0  0  0  0  0  0  0  0  0  0  0
  2  1  1  1  0  0  0
  2  3  1  0  0  0  0
  2  5  1  0  0  0  0
  3  4  1  0  0  0  0
  3 17  1  0  0  0  0
  5  6  1  0  0  0  0
  7  6  1  6  0  0  0
  7  8  1  0  0  0  0
  7  9  1  0  0  0  0
 10  9  1  6  0  0  0
 10 11  1  0  0  0  0
 10 12  1  0  0  0  0
 11 16  1  0  0  0  0
 12 13  1  1  0  0  0
 12 14  1  0  0  0  0
 14 15  1  1  0  0  0
 14 16  1  0  0  0  0
 16 27  1  6  0  0  0
 18 19  2  0  0  0  0
 18 23  1  0  0  0  0
 19 20  1  0  0  0  0
 20 21  2  0  0  0  0
 21 22  1  0  0  0  0
 21 27  1  0  0  0  0
 22 23  2  0  0  0  0
 22 25  1  0  0  0  0
 23 24  1  0  0  0  0
 25 26  2  0  0  0  0
 26 27  1  0  0  0  0
M  END
>  <CHROM.1>
173.38643982,-76.36362253,74.99070656,-162.46142564,-78.64886015,38.65584142
51.09079590,48.27582024,54.77753645,30.25209117,1.63329930,-1.21543207,1.21309700

>  <Name>
ligand

>  <RI>
0

>  <Rbt.Current_Directory>
/home/itssahil/PROJECTS/Mol_Feturizer/New_Systems/rnas/3IQR

>  <Rbt.Executable>
rbdock ($Id: //depot/dev/client3/rdock/2013.1/src/exe/rbdock.cxx#4 $)

>  <Rbt.Library>
libRbt.so (2013.1, Build901 2013/11/27)

>  <Rbt.Parameter_File>
/export/apps/rDock/src/rDock_2013.1_src/data/scripts/dock_solv.prm

>  <Rbt.Receptor>
prm/pocket_docking_7.prm

>  <SCORE>
-18.5185

>  <SCORE.INTER>
-12.3968

>  <SCORE.INTER.CONST>
1

>  <SCORE.INTER.POLAR>
0

>  <SCORE.INTER.ROT>
7

>  <SCORE.INTER.SOLV>
7.02307

>  <SCORE.INTER.VDW>
-18.8722

>  <SCORE.INTER.norm>
-0.459141

>  <SCORE.INTRA>
-6.13373

>  <SCORE.INTRA.DIHEDRAL>
-0.237604

>  <SCORE.INTRA.DIHEDRAL.0>
9.29433

>  <SCORE.INTRA.POLAR>
0

>  <SCORE.INTRA.POLAR.0>
0

>  <SCORE.INTRA.REPUL>
0

>  <SCORE.INTRA.REPUL.0>
0

>  <SCORE.INTRA.SOLV>
0.89364

>  <SCORE.INTRA.SOLV.lig_0>
-48.5102

>  <SCORE.INTRA.VDW>
-6.46174

>  <SCORE.INTRA.VDW.0>
0.379549

>  <SCORE.INTRA.norm>
-0.227175

>  <SCORE.RESTR>
0.0120296

>  <SCORE.RESTR.CAVITY>
0.0120296

>  <SCORE.RESTR.norm>
0.00044554

>  <SCORE.SYSTEM>
0

>  <SCORE.SYSTEM.CONST>
0

>  <SCORE.SYSTEM.DIHEDRAL>
0

>  <SCORE.SYSTEM.SOLV>
0

>  <SCORE.SYSTEM.norm>
0

>  <SCORE.heavy>
27

>  <SCORE.norm>
-0.68587

>  <RMSD>
5.372

$$$$
ligand
 OpenBabel11021811483D
libRbt.so/2013.1/901 2013/11/27
 27 29  0  0  0  0  0  0  0  0999 V2000
   46.9366   57.1019   26.5195 N   0  0  0  0  0  0  0  0  0  0  0  0
   46.3657   56.2241   27.5400 C   0  0  2  0  0  0  0  0  0  0  0  0
   46.1828   54.8491   26.9657 C   0  0  0  0  0  0  0  0  0  0  0  0
   46.2687   54.6745   25.7546 O   0  0  0  0  0  0  0  0  0  0  0  0
   45.0097   56.7576   28.0004 C   0  0  0  0  0  0  0  0  0  0  0  0
   45.2253   58.0460   28.7734 C   0  0  0  0  0  0  0  0  0  0  0  0
   46.0531   57.8108   30.3784 S   0  0  2  0  0  0  0  0  0  0  0  0
   46.3110   59.4958   31.0081 C   0  0  0  0  0  0  0  0  0  0  0  0
   47.8843   57.6745   29.9181 C   0  0  0  0  0  0  0  0  0  0  0  0
   48.9078   57.0630   30.9644 C   0  0  2  0  0  0  0  0  0  0  0  0
   48.6314   55.7922   31.5085 O   0  0  0  0  0  0  0  0  0  0  0  0
   49.4764   57.8975   32.0413 C   0  0  1  0  0  0  0  0  0  0  0  0
   49.3302   59.2958   31.7908 O   0  0  0  0  0  0  0  0  0  0  0  0
   48.5672   57.3150   33.2243 C   0  0  2  0  0  0  0  0  0  0  0  0
   49.0437   57.7343   34.4676 O   0  0  0  0  0  0  0  0  0  0  0  0
   48.7575   55.8158   33.0022 C   0  0  1  0  0  0  0  0  0  0  0  0
   45.9893   53.8990   27.7132 O   0  0  0  0  0  0  0  0  0  0  0  0
   47.4892   53.4345   37.3440 N   0  0  0  0  0  0  0  0  0  0  0  0
   48.4678   54.3033   37.0766 C   0  0  0  0  0  0  0  0  0  0  0  0
   48.6084   54.8312   35.8643 N   0  0  0  0  0  0  0  0  0  0  0  0
   47.8430   54.4354   34.8349 C   0  0  0  0  0  0  0  0  0  0  0  0
   46.8248   53.4725   35.0568 C   0  0  0  0  0  0  0  0  0  0  0  0
   46.6643   52.9782   36.3810 C   0  0  0  0  0  0  0  0  0  0  0  0
   45.6870   52.0514   36.6822 N   0  0  0  0  0  0  0  0  0  0  0  0
   46.2191   53.2532   33.8765 N   0  0  0  0  0  0  0  0  0  0  0  0
   46.7816   53.9913   32.9571 C   0  0  0  0  0  0  0  0  0  0  0  0
   47.7842   54.7520   33.4903 N   0  0  0  0  0  0  0  0  0  0  0  0
  2  1  1  6  0  0  0
  2  3  1  0  0  0  0
  2  5  1  0  0  0  0
  3  4  1  0  0  0  0
  3 17  1  0  0  0  0
  5  6  1  0  0  0  0
  7  6  1  6  0  0  0
  7  8  1  0  0  0  0
  7  9  1  0  0  0  0
 10  9  1  1  0  0  0
 10 11  1  0  0  0  0
 10 12  1  0  0  0  0
 11 16  1  0  0  0  0
 12 13  1  6  0  0  0
 12 14  1  0  0  0  0
 14 15  1  1  0  0  0
 14 16  1  0  0  0  0
 16 27  1  1  0  0  0
 18 19  2  0  0  0  0
 18 23  1  0  0  0  0
 19 20  1  0  0  0  0
 20 21  2  0  0  0  0
 21 22  1  0  0  0  0
 21 27  1  0  0  0  0
 22 23  2  0  0  0  0
 22 25  1  0  0  0  0
 23 24  1  0  0  0  0
 25 26  2  0  0  0  0
 26 27  1  0  0  0  0
M  END
>  <CHROM.1>
-13.19530934,-68.72665095,-68.75968153,175.20675379,-162.87824926,53.81256876
171.06276389,47.25237756,55.89762014,31.79665138,1.87261403,-1.07774532,-0.98896020

>  <Name>
ligand

>  <RI>
0

>  <Rbt.Current_Directory>
/home/itssahil/PROJECTS/Mol_Feturizer/New_Systems/rnas/3IQR

>  <Rbt.Executable>
rbdock ($Id: //depot/dev/client3/rdock/2013.1/src/exe/rbdock.cxx#4 $)

>  <Rbt.Library>
libRbt.so (2013.1, Build901 2013/11/27)

>  <Rbt.Parameter_File>
/export/apps/rDock/src/rDock_2013.1_src/data/scripts/dock_solv.prm

>  <Rbt.Receptor>
prm/pocket_docking_7.prm

>  <SCORE>
-18.2869

>  <SCORE.INTER>
-13.6791

>  <SCORE.INTER.CONST>
1

>  <SCORE.INTER.POLAR>
0

>  <SCORE.INTER.ROT>
7

>  <SCORE.INTER.SOLV>
20.1328

>  <SCORE.INTER.VDW>
-24.097

>  <SCORE.INTER.norm>
-0.506635

>  <SCORE.INTRA>
-4.74515

>  <SCORE.INTRA.DIHEDRAL>
-2.88341

>  <SCORE.INTRA.DIHEDRAL.0>
9.29433

>  <SCORE.INTRA.POLAR>
0

>  <SCORE.INTRA.POLAR.0>
0

>  <SCORE.INTRA.REPUL>
0

>  <SCORE.INTRA.REPUL.0>
0

>  <SCORE.INTRA.SOLV>
0.567696

>  <SCORE.INTRA.SOLV.lig_0>
-48.5102

>  <SCORE.INTRA.VDW>
-3.58729

>  <SCORE.INTRA.VDW.0>
0.379549

>  <SCORE.INTRA.norm>
-0.175746

>  <SCORE.RESTR>
0.137412

>  <SCORE.RESTR.CAVITY>
0.137412

>  <SCORE.RESTR.norm>
0.00508932

>  <SCORE.SYSTEM>
0

>  <SCORE.SYSTEM.CONST>
0

>  <SCORE.SYSTEM.DIHEDRAL>
0

>  <SCORE.SYSTEM.SOLV>
0

>  <SCORE.SYSTEM.norm>
0

>  <SCORE.heavy>
27

>  <SCORE.norm>
-0.677291

>  <RMSD>
5.373

$$$$
ligand
 OpenBabel11021811483D
libRbt.so/2013.1/901 2013/11/27
 27 29  0  0  0  0  0  0  0  0999 V2000
   44.7114   57.0450   30.1411 N   0  0  0  0  0  0  0  0  0  0  0  0
   45.4805   58.1370   29.5462 C   0  0  2  0  0  0  0  0  0  0  0  0
   46.6750   57.5717   28.8337 C   0  0  0  0  0  0  0  0  0  0  0  0
   47.3683   58.2977   28.1289 O   0  0  0  0  0  0  0  0  0  0  0  0
   45.9566   59.1028   30.6306 C   0  0  0  0  0  0  0  0  0  0  0  0
   46.5470   58.3021   31.7769 C   0  0  0  0  0  0  0  0  0  0  0  0
   48.3037   58.6609   32.0963 S   0  0  2  0  0  0  0  0  0  0  0  0
   49.2054   57.5523   30.9737 C   0  0  0  0  0  0  0  0  0  0  0  0
   48.7228   57.5506   33.5713 C   0  0  0  0  0  0  0  0  0  0  0  0
   48.3454   56.0107   33.5199 C   0  0  2  0  0  0  0  0  0  0  0  0
   49.0694   55.1717   32.6486 O   0  0  0  0  0  0  0  0  0  0  0  0
   46.9340   55.5795   33.4875 C   0  0  1  0  0  0  0  0  0  0  0  0
   46.0332   56.6092   33.8970 O   0  0  0  0  0  0  0  0  0  0  0  0
   46.8903   55.2112   31.9294 C   0  0  2  0  0  0  0  0  0  0  0  0
   45.7224   54.5128   31.6180 O   0  0  0  0  0  0  0  0  0  0  0  0
   48.1388   54.3380   31.8200 C   0  0  1  0  0  0  0  0  0  0  0  0
   46.9768   56.3957   28.9920 O   0  0  0  0  0  0  0  0  0  0  0  0
   47.6277   51.6445   27.5055 N   0  0  0  0  0  0  0  0  0  0  0  0
   46.8852   51.6673   28.6156 C   0  0  0  0  0  0  0  0  0  0  0  0
   47.1856   52.4739   29.6292 N   0  0  0  0  0  0  0  0  0  0  0  0
   48.3026   53.2185   29.6244 C   0  0  0  0  0  0  0  0  0  0  0  0
   49.1537   53.1864   28.4896 C   0  0  0  0  0  0  0  0  0  0  0  0
   48.7652   52.3592   27.3994 C   0  0  0  0  0  0  0  0  0  0  0  0
   49.5306   52.2846   26.2533 N   0  0  0  0  0  0  0  0  0  0  0  0
   50.1882   54.0068   28.7435 N   0  0  0  0  0  0  0  0  0  0  0  0
   50.0452   54.5294   29.9322 C   0  0  0  0  0  0  0  0  0  0  0  0
   48.8932   54.0892   30.5215 N   0  0  0  0  0  0  0  0  0  0  0  0
  2  1  1  1  0  0  0
  2  3  1  0  0  0  0
  2  5  1  0  0  0  0
  3  4  1  0  0  0  0
  3 17  1  0  0  0  0
  5  6  1  0  0  0  0
  7  6  1  6  0  0  0
  7  8  1  0  0  0  0
  7  9  1  0  0  0  0
 10  9  1  6  0  0  0
 10 11  1  0  0  0  0
 10 12  1  0  0  0  0
 11 16  1  0  0  0  0
 12 13  1  6  0  0  0
 12 14  1  0  0  0  0
 14 15  1  1  0  0  0
 14 16  1  0  0  0  0
 16 27  1  6  0  0  0
 18 19  2  0  0  0  0
 18 23  1  0  0  0  0
 19 20  1  0  0  0  0
 20 21  2  0  0  0  0
 21 22  1  0  0  0  0
 21 27  1  0  0  0  0
 22 23  2  0  0  0  0
 22 25  1  0  0  0  0
 23 24  1  0  0  0  0
 25 26  2  0  0  0  0
 26 27  1  0  0  0  0
M  END
>  <CHROM.1>
171.24481201,46.65840002,118.93213500,-86.59018201,50.21889913,70.74950219
173.55586490,47.69443003,55.61151286,30.50752953,2.15298015,-1.18562308,1.19251263

>  <Name>
ligand

>  <RI>
0

>  <Rbt.Current_Directory>
/home/itssahil/PROJECTS/Mol_Feturizer/New_Systems/rnas/3IQR

>  <Rbt.Executable>
rbdock ($Id: //depot/dev/client3/rdock/2013.1/src/exe/rbdock.cxx#4 $)

>  <Rbt.Library>
libRbt.so (2013.1, Build901 2013/11/27)

>  <Rbt.Parameter_File>
/export/apps/rDock/src/rDock_2013.1_src/data/scripts/dock_solv.prm

>  <Rbt.Receptor>
prm/pocket_docking_2.prm

>  <SCORE>
-10.0549

>  <SCORE.INTER>
-10.63

>  <SCORE.INTER.CONST>
1

>  <SCORE.INTER.POLAR>
0

>  <SCORE.INTER.ROT>
7

>  <SCORE.INTER.SOLV>
7.35089

>  <SCORE.INTER.VDW>
-17.8036

>  <SCORE.INTER.norm>
-0.393703

>  <SCORE.INTRA>
-1.44919

>  <SCORE.INTRA.DIHEDRAL>
1.651

>  <SCORE.INTRA.DIHEDRAL.0>
9.29433

>  <SCORE.INTRA.POLAR>
0

>  <SCORE.INTRA.POLAR.0>
0

>  <SCORE.INTRA.REPUL>
0

>  <SCORE.INTRA.REPUL.0>
0

>  <SCORE.INTRA.SOLV>
2.53368

>  <SCORE.INTRA.SOLV.lig_0>
-48.5102

>  <SCORE.INTRA.VDW>
-3.54154

>  <SCORE.INTRA.VDW.0>
0.379549

>  <SCORE.INTRA.norm>
-0.0536738

>  <SCORE.RESTR>
2.02427

>  <SCORE.RESTR.CAVITY>
2.02427

>  <SCORE.RESTR.norm>
0.0749731

>  <SCORE.SYSTEM>
0

>  <SCORE.SYSTEM.CONST>
0

>  <SCORE.SYSTEM.DIHEDRAL>
0

>  <SCORE.SYSTEM.SOLV>
0

>  <SCORE.SYSTEM.norm>
0

>  <SCORE.heavy>
27

>  <SCORE.norm>
-0.372404

>  <RMSD>
5.377

$$$$
ligand
 OpenBabel11021811483D
libRbt.so/2013.1/901 2013/11/27
 27 29  0  0  0  0  0  0  0  0999 V2000
   46.0486   55.5188   28.7734 N   0  0  0  0  0  0  0  0  0  0  0  0
   46.2269   56.9665   28.6730 C   0  0  2  0  0  0  0  0  0  0  0  0
   47.5092   57.2592   27.9490 C   0  0  0  0  0  0  0  0  0  0  0  0
   47.6022   58.2618   27.2485 O   0  0  0  0  0  0  0  0  0  0  0  0
   46.2858   57.5917   30.0661 C   0  0  0  0  0  0  0  0  0  0  0  0
   47.3731   56.9010   30.8690 C   0  0  0  0  0  0  0  0  0  0  0  0
   47.4755   57.4581   32.5998 S   0  0  2  0  0  0  0  0  0  0  0  0
   48.0831   59.1674   32.4919 C   0  0  0  0  0  0  0  0  0  0  0  0
   49.1821   56.8592   33.1591 C   0  0  0  0  0  0  0  0  0  0  0  0
   49.4789   55.3024   33.2249 C   0  0  2  0  0  0  0  0  0  0  0  0
   49.4786   54.5682   32.0214 O   0  0  0  0  0  0  0  0  0  0  0  0
   48.8582   54.4583   34.2649 C   0  0  1  0  0  0  0  0  0  0  0  0
   48.3410   55.2195   35.3569 O   0  0  0  0  0  0  0  0  0  0  0  0
   47.7566   53.7821   33.3190 C   0  0  2  0  0  0  0  0  0  0  0  0
   47.1415   52.7079   33.9645 O   0  0  0  0  0  0  0  0  0  0  0  0
   48.6354   53.3355   32.1522 C   0  0  1  0  0  0  0  0  0  0  0  0
   48.4720   56.5168   28.0937 O   0  0  0  0  0  0  0  0  0  0  0  0
   50.4270   52.8896   27.3854 N   0  0  0  0  0  0  0  0  0  0  0  0
   51.0404   53.2296   28.5222 C   0  0  0  0  0  0  0  0  0  0  0  0
   50.3828   53.2605   29.6775 N   0  0  0  0  0  0  0  0  0  0  0  0
   49.0572   53.0562   29.7346 C   0  0  0  0  0  0  0  0  0  0  0  0
   48.3505   52.7461   28.5440 C   0  0  0  0  0  0  0  0  0  0  0  0
   49.0999   52.6600   27.3379 C   0  0  0  0  0  0  0  0  0  0  0  0
   48.4892   52.3479   26.1402 N   0  0  0  0  0  0  0  0  0  0  0  0
   47.0561   52.5968   28.8758 N   0  0  0  0  0  0  0  0  0  0  0  0
   46.9122   52.7942   30.1590 C   0  0  0  0  0  0  0  0  0  0  0  0
   48.1150   53.0708   30.7464 N   0  0  0  0  0  0  0  0  0  0  0  0
  2  1  1  1  0  0  0
  2  3  1  0  0  0  0
  2  5  1  0  0  0  0
  3  4  1  0  0  0  0
  3 17  1  0  0  0  0
  5  6  1  0  0  0  0
  7  6  1  6  0  0  0
  7  8  1  0  0  0  0
  7  9  1  0  0  0  0
 10  9  1  6  0  0  0
 10 11  1  0  0  0  0
 10 12  1  0  0  0  0
 11 16  1  0  0  0  0
 12 13  1  1  0  0  0
 12 14  1  0  0  0  0
 14 15  1  1  0  0  0
 14 16  1  0  0  0  0
 16 27  1  6  0  0  0
 18 19  2  0  0  0  0
 18 23  1  0  0  0  0
 19 20  1  0  0  0  0
 20 21  2  0  0  0  0
 21 22  1  0  0  0  0
 21 27  1  0  0  0  0
 22 23  2  0  0  0  0
 22 25  1  0  0  0  0
 23 24  1  0  0  0  0
 25 26  2  0  0  0  0
 26 27  1  0  0  0  0
M  END
>  <CHROM.1>
147.91895490,54.76463801,-175.61670071,-68.75861374,-64.41264499,65.19685420
50.44324190,48.20529772,55.02119095,30.57858462,1.26261767,1.27012094,-1.67139781

>  <Name>
ligand

>  <RI>
0

>  <Rbt.Current_Directory>
/home/itssahil/PROJECTS/Mol_Feturizer/New_Systems/rnas/3IQR

>  <Rbt.Executable>
rbdock ($Id: //depot/dev/client3/rdock/2013.1/src/exe/rbdock.cxx#4 $)

>  <Rbt.Library>
libRbt.so (2013.1, Build901 2013/11/27)

>  <Rbt.Parameter_File>
/export/apps/rDock/src/rDock_2013.1_src/data/scripts/dock_solv.prm

>  <Rbt.Receptor>
prm/pocket_docking_4.prm

>  <SCORE>
-20.1026

>  <SCORE.INTER>
-13.8115

>  <SCORE.INTER.CONST>
1

>  <SCORE.INTER.POLAR>
0

>  <SCORE.INTER.ROT>
7

>  <SCORE.INTER.SOLV>
7.87168

>  <SCORE.INTER.VDW>
-20.0982

>  <SCORE.INTER.norm>
-0.511538

>  <SCORE.INTRA>
-6.29789

>  <SCORE.INTRA.DIHEDRAL>
-5.09912

>  <SCORE.INTRA.DIHEDRAL.0>
9.29433

>  <SCORE.INTRA.POLAR>
0

>  <SCORE.INTRA.POLAR.0>
0

>  <SCORE.INTRA.REPUL>
0

>  <SCORE.INTRA.REPUL.0>
0

>  <SCORE.INTRA.SOLV>
0.557385

>  <SCORE.INTRA.SOLV.lig_0>
-48.5102

>  <SCORE.INTRA.VDW>
-4.02703

>  <SCORE.INTRA.VDW.0>
0.379549

>  <SCORE.INTRA.norm>
-0.233255

>  <SCORE.RESTR>
0.00685183

>  <SCORE.RESTR.CAVITY>
0.00685183

>  <SCORE.RESTR.norm>
0.000253771

>  <SCORE.SYSTEM>
0

>  <SCORE.SYSTEM.CONST>
0

>  <SCORE.SYSTEM.DIHEDRAL>
0

>  <SCORE.SYSTEM.SOLV>
0

>  <SCORE.SYSTEM.norm>
0

>  <SCORE.heavy>
27

>  <SCORE.norm>
-0.744539

>  <RMSD>
5.378

$$$$
ligand
 OpenBabel11021811483D
libRbt.so/2013.1/901 2013/11/27
 27 29  0  0  0  0  0  0  0  0999 V2000
   49.3384   55.7920   28.3164 N   0  0  0  0  0  0  0  0  0  0  0  0
   48.1034   56.1925   28.9889 C   0  0  2  0  0  0  0  0  0  0  0  0
   47.3681   57.1795   28.1291 C   0  0  0  0  0  0  0  0  0  0  0  0
   47.9831   58.0785   27.5652 O   0  0  0  0  0  0  0  0  0  0  0  0
   48.4192   56.8412   30.3359 C   0  0  0  0  0  0  0  0  0  0  0  0
   47.1156   57.1811   31.0353 C   0  0  0  0  0  0  0  0  0  0  0  0
   47.3348   57.8465   32.7163 S   0  0  2  0  0  0  0  0  0  0  0  0
   48.5772   59.1591   32.5272 C   0  0  0  0  0  0  0  0  0  0  0  0
   48.6282   56.6969   33.4840 C   0  0  0  0  0  0  0  0  0  0  0  0
   48.3268   55.1430   33.5872 C   0  0  2  0  0  0  0  0  0  0  0  0
   49.0732   54.2601   32.7807 O   0  0  0  0  0  0  0  0  0  0  0  0
   46.9381   54.6441   33.6313 C   0  0  1  0  0  0  0  0  0  0  0  0
   45.9959   55.6643   33.9647 O   0  0  0  0  0  0  0  0  0  0  0  0
   46.8805   54.1276   32.1163 C   0  0  2  0  0  0  0  0  0  0  0  0
   45.7425   53.3480   31.9016 O   0  0  0  0  0  0  0  0  0  0  0  0
   48.1682   53.3080   32.0580 C   0  0  1  0  0  0  0  0  0  0  0  0
   46.1614   57.0584   27.9609 O   0  0  0  0  0  0  0  0  0  0  0  0
   47.1293   51.8288   27.2765 N   0  0  0  0  0  0  0  0  0  0  0  0
   46.3312   51.9884   28.3356 C   0  0  0  0  0  0  0  0  0  0  0  0
   46.8098   52.4131   29.5013 N   0  0  0  0  0  0  0  0  0  0  0  0
   48.1257   52.5968   29.6931 C   0  0  0  0  0  0  0  0  0  0  0  0
   49.0210   52.3863   28.6125 C   0  0  0  0  0  0  0  0  0  0  0  0
   48.4639   51.9935   27.3640 C   0  0  0  0  0  0  0  0  0  0  0  0
   49.2657   51.7838   26.2603 N   0  0  0  0  0  0  0  0  0  0  0  0
   50.2618   52.6311   29.0691 N   0  0  0  0  0  0  0  0  0  0  0  0
   50.2013   52.9653   30.3305 C   0  0  0  0  0  0  0  0  0  0  0  0
   48.9071   52.9729   30.7700 N   0  0  0  0  0  0  0  0  0  0  0  0
  2  1  1  6  0  0  0
  2  3  1  0  0  0  0
  2  5  1  0  0  0  0
  3  4  1  0  0  0  0
  3 17  1  0  0  0  0
  5  6  1  0  0  0  0
  7  6  1  6  0  0  0
  7  8  1  0  0  0  0
  7  9  1  0  0  0  0
 10  9  1  6  0  0  0
 10 11  1  0  0  0  0
 10 12  1  0  0  0  0
 11 16  1  0  0  0  0
 12 13  1  6  0  0  0
 12 14  1  0  0  0  0
 14 15  1  1  0  0  0
 14 16  1  0  0  0  0
 16 27  1  6  0  0  0
 18 19  2  0  0  0  0
 18 23  1  0  0  0  0
 19 20  1  0  0  0  0
 20 21  2  0  0  0  0
 21 22  1  0  0  0  0
 21 27  1  0  0  0  0
 22 23  2  0  0  0  0
 22 25  1  0  0  0  0
 23 24  1  0  0  0  0
 25 26  2  0  0  0  0
 26 27  1  0  0  0  0
M  END
>  <CHROM.1>
-42.86674577,-177.22525495,175.51558741,49.57678918,-59.00308657,111.14699959
-153.63065654,47.89362112,54.89994941,30.46431181,-0.15112118,1.44905587
-0.62205963

>  <Name>
ligand

>  <RI>
0

>  <Rbt.Current_Directory>
/home/itssahil/PROJECTS/Mol_Feturizer/New_Systems/rnas/3IQR

>  <Rbt.Executable>
rbdock ($Id: //depot/dev/client3/rdock/2013.1/src/exe/rbdock.cxx#4 $)

>  <Rbt.Library>
libRbt.so (2013.1, Build901 2013/11/27)

>  <Rbt.Parameter_File>
/export/apps/rDock/src/rDock_2013.1_src/data/scripts/dock_solv.prm

>  <Rbt.Receptor>
prm/pocket_docking_6.prm

>  <SCORE>
-17.2313

>  <SCORE.INTER>
-12.7775

>  <SCORE.INTER.CONST>
1

>  <SCORE.INTER.POLAR>
0

>  <SCORE.INTER.ROT>
7

>  <SCORE.INTER.SOLV>
9.1918

>  <SCORE.INTER.VDW>
-19.8489

>  <SCORE.INTER.norm>
-0.473242

>  <SCORE.INTRA>
-4.45373

>  <SCORE.INTRA.DIHEDRAL>
-1.01273

>  <SCORE.INTRA.DIHEDRAL.0>
9.29433

>  <SCORE.INTRA.POLAR>
0

>  <SCORE.INTRA.POLAR.0>
0

>  <SCORE.INTRA.REPUL>
0

>  <SCORE.INTRA.REPUL.0>
0

>  <SCORE.INTRA.SOLV>
0.403059

>  <SCORE.INTRA.SOLV.lig_0>
-48.5102

>  <SCORE.INTRA.VDW>
-4.1489

>  <SCORE.INTRA.VDW.0>
0.379549

>  <SCORE.INTRA.norm>
-0.164953

>  <SCORE.RESTR>
0

>  <SCORE.RESTR.CAVITY>
0

>  <SCORE.RESTR.norm>
0

>  <SCORE.SYSTEM>
0

>  <SCORE.SYSTEM.CONST>
0

>  <SCORE.SYSTEM.DIHEDRAL>
0

>  <SCORE.SYSTEM.SOLV>
0

>  <SCORE.SYSTEM.norm>
0

>  <SCORE.heavy>
27

>  <SCORE.norm>
-0.638195

>  <RMSD>
5.380

$$$$
ligand
 OpenBabel11021811483D
libRbt.so/2013.1/901 2013/11/27
 27 29  0  0  0  0  0  0  0  0999 V2000
   47.0085   57.7242   26.3921 N   0  0  0  0  0  0  0  0  0  0  0  0
   47.4099   57.1161   27.6598 C   0  0  2  0  0  0  0  0  0  0  0  0
   46.8040   55.7466   27.7669 C   0  0  0  0  0  0  0  0  0  0  0  0
   47.3721   54.8743   28.4154 O   0  0  0  0  0  0  0  0  0  0  0  0
   46.9282   57.9686   28.8331 C   0  0  0  0  0  0  0  0  0  0  0  0
   47.5783   57.4623   30.1078 C   0  0  0  0  0  0  0  0  0  0  0  0
   46.8352   58.1335   31.6289 S   0  0  2  0  0  0  0  0  0  0  0  0
   47.3327   59.8812   31.6450 C   0  0  0  0  0  0  0  0  0  0  0  0
   48.1151   57.7298   32.9642 C   0  0  0  0  0  0  0  0  0  0  0  0
   48.7102   56.2623   33.0552 C   0  0  2  0  0  0  0  0  0  0  0  0
   49.6336   55.8510   32.0726 O   0  0  0  0  0  0  0  0  0  0  0  0
   47.8381   55.1109   33.3604 C   0  0  1  0  0  0  0  0  0  0  0  0
   46.5869   55.5018   33.9270 O   0  0  0  0  0  0  0  0  0  0  0  0
   47.7640   54.5361   31.8673 C   0  0  2  0  0  0  0  0  0  0  0  0
   47.1960   53.2608   31.8551 O   0  0  0  0  0  0  0  0  0  0  0  0
   49.2485   54.5167   31.5079 C   0  0  1  0  0  0  0  0  0  0  0  0
   45.7229   55.5175   27.2399 O   0  0  0  0  0  0  0  0  0  0  0  0
   49.4030   51.4685   27.4072 N   0  0  0  0  0  0  0  0  0  0  0  0
   48.9618   51.2441   28.6478 C   0  0  0  0  0  0  0  0  0  0  0  0
   48.9905   52.1990   29.5728 N   0  0  0  0  0  0  0  0  0  0  0  0
   49.5590   53.3910   29.3315 C   0  0  0  0  0  0  0  0  0  0  0  0
   50.0923   53.6580   28.0440 C   0  0  0  0  0  0  0  0  0  0  0  0
   49.9859   52.6337   27.0627 C   0  0  0  0  0  0  0  0  0  0  0  0
   50.4661   52.8208   25.7823 N   0  0  0  0  0  0  0  0  0  0  0  0
   50.5990   54.9031   28.0726 N   0  0  0  0  0  0  0  0  0  0  0  0
   50.4270   55.4137   29.2626 C   0  0  0  0  0  0  0  0  0  0  0  0
   49.7799   54.5313   30.0815 N   0  0  0  0  0  0  0  0  0  0  0  0
  2  1  1  6  0  0  0
  2  3  1  0  0  0  0
  2  5  1  0  0  0  0
  3  4  1  0  0  0  0
  3 17  1  0  0  0  0
  5  6  1  0  0  0  0
  7  6  1  6  0  0  0
  7  8  1  0  0  0  0
  7  9  1  0  0  0  0
 10  9  1  6  0  0  0
 10 11  1  0  0  0  0
 10 12  1  0  0  0  0
 11 16  1  0  0  0  0
 12 13  1  6  0  0  0
 12 14  1  0  0  0  0
 14 15  1  1  0  0  0
 14 16  1  0  0  0  0
 16 27  1  6  0  0  0
 18 19  2  0  0  0  0
 18 23  1  0  0  0  0
 19 20  1  0  0  0  0
 20 21  2  0  0  0  0
 21 22  1  0  0  0  0
 21 27  1  0  0  0  0
 22 23  2  0  0  0  0
 22 25  1  0  0  0  0
 23 24  1  0  0  0  0
 25 26  2  0  0  0  0
 26 27  1  0  0  0  0
M  END
>  <CHROM.1>
151.17280334,-169.35346172,-167.41008794,-70.40669056,-48.45738744,73.28660669
179.60887472,48.25531152,55.35215026,29.89841454,0.75309209,1.13231604,-1.58133619

>  <Name>
ligand

>  <RI>
0

>  <Rbt.Current_Directory>
/home/itssahil/PROJECTS/Mol_Feturizer/New_Systems/rnas/3IQR

>  <Rbt.Executable>
rbdock ($Id: //depot/dev/client3/rdock/2013.1/src/exe/rbdock.cxx#4 $)

>  <Rbt.Library>
libRbt.so (2013.1, Build901 2013/11/27)

>  <Rbt.Parameter_File>
/export/apps/rDock/src/rDock_2013.1_src/data/scripts/dock_solv.prm

>  <Rbt.Receptor>
prm/pocket_docking_5.prm

>  <SCORE>
-19.8366

>  <SCORE.INTER>
-11.9282

>  <SCORE.INTER.CONST>
1

>  <SCORE.INTER.POLAR>
0

>  <SCORE.INTER.ROT>
7

>  <SCORE.INTER.SOLV>
12.5173

>  <SCORE.INTER.VDW>
-20.3912

>  <SCORE.INTER.norm>
-0.441785

>  <SCORE.INTRA>
-7.90843

>  <SCORE.INTRA.DIHEDRAL>
-2.84866

>  <SCORE.INTRA.DIHEDRAL.0>
9.29433

>  <SCORE.INTRA.POLAR>
0

>  <SCORE.INTRA.POLAR.0>
0

>  <SCORE.INTRA.REPUL>
0

>  <SCORE.INTRA.REPUL.0>
0

>  <SCORE.INTRA.SOLV>
-1.32865

>  <SCORE.INTRA.SOLV.lig_0>
-48.5102

>  <SCORE.INTRA.VDW>
-5.81978

>  <SCORE.INTRA.VDW.0>
0.379549

>  <SCORE.INTRA.norm>
-0.292905

>  <SCORE.RESTR>
0

>  <SCORE.RESTR.CAVITY>
0

>  <SCORE.RESTR.norm>
0

>  <SCORE.SYSTEM>
0

>  <SCORE.SYSTEM.CONST>
0

>  <SCORE.SYSTEM.DIHEDRAL>
0

>  <SCORE.SYSTEM.SOLV>
0

>  <SCORE.SYSTEM.norm>
0

>  <SCORE.heavy>
27

>  <SCORE.norm>
-0.73469

>  <RMSD>
5.381

$$$$
ligand
 OpenBabel11021811483D
libRbt.so/2013.1/901 2013/11/27
 27 29  0  0  0  0  0  0  0  0999 V2000
   44.5427   53.6904   30.8315 N   0  0  0  0  0  0  0  0  0  0  0  0
   43.5436   54.3336   31.6835 C   0  0  2  0  0  0  0  0  0  0  0  0
   42.6092   55.1410   30.8296 C   0  0  0  0  0  0  0  0  0  0  0  0
   42.9517   55.4853   29.7032 O   0  0  0  0  0  0  0  0  0  0  0  0
   44.2232   55.2584   32.6926 C   0  0  0  0  0  0  0  0  0  0  0  0
   44.9507   54.4126   33.7218 C   0  0  0  0  0  0  0  0  0  0  0  0
   46.5210   53.7126   33.1211 S   0  0  2  0  0  0  0  0  0  0  0  0
   47.1556   52.7491   34.5251 C   0  0  0  0  0  0  0  0  0  0  0  0
   47.7786   55.0860   33.4616 C   0  0  0  0  0  0  0  0  0  0  0  0
   47.4970   56.5516   32.9240 C   0  0  2  0  0  0  0  0  0  0  0  0
   47.2569   56.7257   31.5459 O   0  0  0  0  0  0  0  0  0  0  0  0
   48.3096   57.6945   33.3851 C   0  0  1  0  0  0  0  0  0  0  0  0
   49.0350   57.4084   34.5816 O   0  0  0  0  0  0  0  0  0  0  0  0
   49.2000   57.8327   32.0610 C   0  0  2  0  0  0  0  0  0  0  0  0
   49.9284   59.0236   32.0759 O   0  0  0  0  0  0  0  0  0  0  0  0
   48.1062   57.8314   30.9949 C   0  0  1  0  0  0  0  0  0  0  0  0
   41.4916   55.4178   31.2457 O   0  0  0  0  0  0  0  0  0  0  0  0
   50.0289   53.9648   28.2594 N   0  0  0  0  0  0  0  0  0  0  0  0
   49.9944   54.1707   29.5787 C   0  0  0  0  0  0  0  0  0  0  0  0
   49.4134   55.2507   30.0926 N   0  0  0  0  0  0  0  0  0  0  0  0
   48.9328   56.2280   29.3078 C   0  0  0  0  0  0  0  0  0  0  0  0
   48.9965   56.0809   27.8979 C   0  0  0  0  0  0  0  0  0  0  0  0
   49.5683   54.8828   27.3869 C   0  0  0  0  0  0  0  0  0  0  0  0
   49.6530   54.6567   26.0280 N   0  0  0  0  0  0  0  0  0  0  0  0
   48.4592   57.1882   27.3567 N   0  0  0  0  0  0  0  0  0  0  0  0
   48.0807   57.9968   28.3102 C   0  0  0  0  0  0  0  0  0  0  0  0
   48.3368   57.4541   29.5383 N   0  0  0  0  0  0  0  0  0  0  0  0
  2  1  1  6  0  0  0
  2  3  1  0  0  0  0
  2  5  1  0  0  0  0
  3  4  1  0  0  0  0
  3 17  1  0  0  0  0
  5  6  1  0  0  0  0
  7  6  1  1  0  0  0
  7  8  1  0  0  0  0
  7  9  1  0  0  0  0
 10  9  1  6  0  0  0
 10 11  1  0  0  0  0
 10 12  1  0  0  0  0
 11 16  1  0  0  0  0
 12 13  1  1  0  0  0
 12 14  1  0  0  0  0
 14 15  1  1  0  0  0
 14 16  1  0  0  0  0
 16 27  1  6  0  0  0
 18 19  2  0  0  0  0
 18 23  1  0  0  0  0
 19 20  1  0  0  0  0
 20 21  2  0  0  0  0
 21 22  1  0  0  0  0
 21 27  1  0  0  0  0
 22 23  2  0  0  0  0
 22 25  1  0  0  0  0
 23 24  1  0  0  0  0
 25 26  2  0  0  0  0
 26 27  1  0  0  0  0
M  END
>  <CHROM.1>
-20.19143268,-70.93616659,76.80100658,-179.36995280,-52.81144441,-55.57109987
-57.78204688,47.19155486,55.69605980,31.04001945,2.58172797,0.36718015,1.46804908

>  <Name>
ligand

>  <RI>
0

>  <Rbt.Current_Directory>
/home/itssahil/PROJECTS/Mol_Feturizer/New_Systems/rnas/3IQR

>  <Rbt.Executable>
rbdock ($Id: //depot/dev/client3/rdock/2013.1/src/exe/rbdock.cxx#4 $)

>  <Rbt.Library>
libRbt.so (2013.1, Build901 2013/11/27)

>  <Rbt.Parameter_File>
/export/apps/rDock/src/rDock_2013.1_src/data/scripts/dock_solv.prm

>  <Rbt.Receptor>
prm/pocket_docking_8.prm

>  <SCORE>
-17.6101

>  <SCORE.INTER>
-12.7882

>  <SCORE.INTER.CONST>
1

>  <SCORE.INTER.POLAR>
0

>  <SCORE.INTER.ROT>
7

>  <SCORE.INTER.SOLV>
11.081

>  <SCORE.INTER.VDW>
-20.4858

>  <SCORE.INTER.norm>
-0.473637

>  <SCORE.INTRA>
-4.83517

>  <SCORE.INTRA.DIHEDRAL>
-2.64244

>  <SCORE.INTRA.DIHEDRAL.0>
9.29433

>  <SCORE.INTRA.POLAR>
0

>  <SCORE.INTRA.POLAR.0>
0

>  <SCORE.INTRA.REPUL>
0

>  <SCORE.INTRA.REPUL.0>
0

>  <SCORE.INTRA.SOLV>
0.501454

>  <SCORE.INTRA.SOLV.lig_0>
-48.5102

>  <SCORE.INTRA.VDW>
-3.76467

>  <SCORE.INTRA.VDW.0>
0.379549

>  <SCORE.INTRA.norm>
-0.17908

>  <SCORE.RESTR>
0.0132627

>  <SCORE.RESTR.CAVITY>
0.0132627

>  <SCORE.RESTR.norm>
0.00049121

>  <SCORE.SYSTEM>
0

>  <SCORE.SYSTEM.CONST>
0

>  <SCORE.SYSTEM.DIHEDRAL>
0

>  <SCORE.SYSTEM.SOLV>
0

>  <SCORE.SYSTEM.norm>
0

>  <SCORE.heavy>
27

>  <SCORE.norm>
-0.652226

>  <RMSD>
5.401

$$$$
ligand
 OpenBabel11021811483D
libRbt.so/2013.1/901 2013/11/27
 27 29  0  0  0  0  0  0  0  0999 V2000
   47.2285   56.9510   25.8075 N   0  0  0  0  0  0  0  0  0  0  0  0
   47.8352   56.9523   27.1379 C   0  0  2  0  0  0  0  0  0  0  0  0
   48.2273   55.5504   27.5056 C   0  0  0  0  0  0  0  0  0  0  0  0
   49.3305   55.3311   27.9948 O   0  0  0  0  0  0  0  0  0  0  0  0
   46.8432   57.4813   28.1728 C   0  0  0  0  0  0  0  0  0  0  0  0
   47.5130   57.4919   29.5349 C   0  0  0  0  0  0  0  0  0  0  0  0
   46.4560   58.1395   30.8691 S   0  0  2  0  0  0  0  0  0  0  0  0
   46.8984   59.8981   30.9864 C   0  0  0  0  0  0  0  0  0  0  0  0
   47.4414   57.7600   32.4403 C   0  0  0  0  0  0  0  0  0  0  0  0
   47.4211   56.2905   33.0373 C   0  0  2  0  0  0  0  0  0  0  0  0
   48.3786   55.3653   32.5742 O   0  0  0  0  0  0  0  0  0  0  0  0
   46.1478   55.5655   33.2169 C   0  0  1  0  0  0  0  0  0  0  0  0
   45.0116   56.4302   33.1846 O   0  0  0  0  0  0  0  0  0  0  0  0
   46.3077   54.5974   31.9510 C   0  0  2  0  0  0  0  0  0  0  0  0
   45.3520   53.5802   31.9813 O   0  0  0  0  0  0  0  0  0  0  0  0
   47.7237   54.0743   32.1843 C   0  0  1  0  0  0  0  0  0  0  0  0
   47.4275   54.6360   27.3537 O   0  0  0  0  0  0  0  0  0  0  0  0
   47.2689   51.6646   27.6990 N   0  0  0  0  0  0  0  0  0  0  0  0
   46.3480   52.0164   28.6003 C   0  0  0  0  0  0  0  0  0  0  0  0
   46.6830   52.6704   29.7086 N   0  0  0  0  0  0  0  0  0  0  0  0
   47.9667   52.9104   30.0194 C   0  0  0  0  0  0  0  0  0  0  0  0
   48.9863   52.5060   29.1192 C   0  0  0  0  0  0  0  0  0  0  0  0
   48.5839   51.8656   27.9145 C   0  0  0  0  0  0  0  0  0  0  0  0
   49.5136   51.4560   26.9802 N   0  0  0  0  0  0  0  0  0  0  0  0
   50.1634   52.8567   29.6663 N   0  0  0  0  0  0  0  0  0  0  0  0
   49.9509   53.4318   30.8198 C   0  0  0  0  0  0  0  0  0  0  0  0
   48.6126   53.5043   31.0879 N   0  0  0  0  0  0  0  0  0  0  0  0
  2  1  1  6  0  0  0
  2  3  1  0  0  0  0
  2  5  1  0  0  0  0
  3  4  1  0  0  0  0
  3 17  1  0  0  0  0
  5  6  1  0  0  0  0
  7  6  1  6  0  0  0
  7  8  1  0  0  0  0
  7  9  1  0  0  0  0
 10  9  1  6  0  0  0
 10 11  1  0  0  0  0
 10 12  1  0  0  0  0
 11 16  1  0  0  0  0
 12 13  1  6  0  0  0
 12 14  1  0  0  0  0
 14 15  1  1  0  0  0
 14 16  1  0  0  0  0
 16 27  1  6  0  0  0
 18 19  2  0  0  0  0
 18 23  1  0  0  0  0
 19 20  1  0  0  0  0
 20 21  2  0  0  0  0
 21 22  1  0  0  0  0
 21 27  1  0  0  0  0
 22 23  2  0  0  0  0
 22 25  1  0  0  0  0
 23 24  1  0  0  0  0
 25 26  2  0  0  0  0
 26 27  1  0  0  0  0
M  END
>  <CHROM.1>
134.28591581,-179.00688163,178.63637976,-94.60597119,-78.99901277,88.40905486
-139.81617345,47.53119697,55.06953135,29.98231161,-0.18703825,1.26507817
-0.71619553

>  <Name>
ligand

>  <RI>
0

>  <Rbt.Current_Directory>
/home/itssahil/PROJECTS/Mol_Feturizer/New_Systems/rnas/3IQR

>  <Rbt.Executable>
rbdock ($Id: //depot/dev/client3/rdock/2013.1/src/exe/rbdock.cxx#4 $)

>  <Rbt.Library>
libRbt.so (2013.1, Build901 2013/11/27)

>  <Rbt.Parameter_File>
/export/apps/rDock/src/rDock_2013.1_src/data/scripts/dock_solv.prm

>  <Rbt.Receptor>
prm/pocket_docking_2.prm

>  <SCORE>
-14.1649

>  <SCORE.INTER>
-8.47018

>  <SCORE.INTER.CONST>
1

>  <SCORE.INTER.POLAR>
0

>  <SCORE.INTER.ROT>
7

>  <SCORE.INTER.SOLV>
16.3741

>  <SCORE.INTER.VDW>
-19.3715

>  <SCORE.INTER.norm>
-0.31371

>  <SCORE.INTRA>
-7.15207

>  <SCORE.INTRA.DIHEDRAL>
-1.88831

>  <SCORE.INTRA.DIHEDRAL.0>
9.29433

>  <SCORE.INTRA.POLAR>
0

>  <SCORE.INTRA.POLAR.0>
0

>  <SCORE.INTRA.REPUL>
0

>  <SCORE.INTRA.REPUL.0>
0

>  <SCORE.INTRA.SOLV>
-1.20222

>  <SCORE.INTRA.SOLV.lig_0>
-48.5102

>  <SCORE.INTRA.VDW>
-5.6068

>  <SCORE.INTRA.VDW.0>
0.379549

>  <SCORE.INTRA.norm>
-0.264891

>  <SCORE.RESTR>
1.45733

>  <SCORE.RESTR.CAVITY>
1.45733

>  <SCORE.RESTR.norm>
0.0539752

>  <SCORE.SYSTEM>
0

>  <SCORE.SYSTEM.CONST>
0

>  <SCORE.SYSTEM.DIHEDRAL>
0

>  <SCORE.SYSTEM.SOLV>
0

>  <SCORE.SYSTEM.norm>
0

>  <SCORE.heavy>
27

>  <SCORE.norm>
-0.524627

>  <RMSD>
5.403

$$$$
ligand
 OpenBabel11021811483D
libRbt.so/2013.1/901 2013/11/27
 27 29  0  0  0  0  0  0  0  0999 V2000
   45.2964   59.2307   29.4479 N   0  0  0  0  0  0  0  0  0  0  0  0
   46.4379   58.4287   29.8858 C   0  0  2  0  0  0  0  0  0  0  0  0
   47.2770   58.0681   28.6942 C   0  0  0  0  0  0  0  0  0  0  0  0
   46.7435   57.8597   27.6096 O   0  0  0  0  0  0  0  0  0  0  0  0
   45.9565   57.1467   30.5641 C   0  0  0  0  0  0  0  0  0  0  0  0
   47.1088   56.5415   31.3450 C   0  0  0  0  0  0  0  0  0  0  0  0
   47.4148   57.3490   32.9485 S   0  0  2  0  0  0  0  0  0  0  0  0
   48.0800   58.9834   32.5146 C   0  0  0  0  0  0  0  0  0  0  0  0
   49.1434   56.7438   33.4278 C   0  0  0  0  0  0  0  0  0  0  0  0
   49.4576   55.1891   33.4105 C   0  0  2  0  0  0  0  0  0  0  0  0
   49.4104   54.5092   32.1765 O   0  0  0  0  0  0  0  0  0  0  0  0
   48.8922   54.2926   34.4380 C   0  0  1  0  0  0  0  0  0  0  0  0
   48.4171   54.9986   35.5849 O   0  0  0  0  0  0  0  0  0  0  0  0
   47.7559   53.6464   33.5125 C   0  0  2  0  0  0  0  0  0  0  0  0
   47.1805   52.5376   34.1358 O   0  0  0  0  0  0  0  0  0  0  0  0
   48.5858   53.2622   32.2890 C   0  0  1  0  0  0  0  0  0  0  0  0
   48.4960   58.0239   28.8002 O   0  0  0  0  0  0  0  0  0  0  0  0
   50.1922   52.8091   27.4574 N   0  0  0  0  0  0  0  0  0  0  0  0
   50.8608   53.0923   28.5785 C   0  0  0  0  0  0  0  0  0  0  0  0
   50.2441   53.1376   29.7558 N   0  0  0  0  0  0  0  0  0  0  0  0
   48.9117   53.0065   29.8541 C   0  0  0  0  0  0  0  0  0  0  0  0
   48.1500   52.7595   28.6827 C   0  0  0  0  0  0  0  0  0  0  0  0
   48.8534   52.6550   27.4507 C   0  0  0  0  0  0  0  0  0  0  0  0
   48.1872   52.4007   26.2690 N   0  0  0  0  0  0  0  0  0  0  0  0
   46.8608   52.6764   29.0554 N   0  0  0  0  0  0  0  0  0  0  0  0
   46.7704   52.8567   30.3460 C   0  0  0  0  0  0  0  0  0  0  0  0
   48.0054   53.0542   30.8972 N   0  0  0  0  0  0  0  0  0  0  0  0
  2  1  1  6  0  0  0
  2  3  1  0  0  0  0
  2  5  1  0  0  0  0
  3  4  1  0  0  0  0
  3 17  1  0  0  0  0
  5  6  1  0  0  0  0
  7  6  1  6  0  0  0
  7  8  1  0  0  0  0
  7  9  1  0  0  0  0
 10  9  1  6  0  0  0
 10 11  1  0  0  0  0
 10 12  1  0  0  0  0
 11 16  1  0  0  0  0
 12 13  1  1  0  0  0
 12 14  1  0  0  0  0
 14 15  1  1  0  0  0
 14 16  1  0  0  0  0
 16 27  1  6  0  0  0
 18 19  2  0  0  0  0
 18 23  1  0  0  0  0
 19 20  1  0  0  0  0
 20 21  2  0  0  0  0
 21 22  1  0  0  0  0
 21 27  1  0  0  0  0
 22 23  2  0  0  0  0
 22 25  1  0  0  0  0
 23 24  1  0  0  0  0
 25 26  2  0  0  0  0
 26 27  1  0  0  0  0
M  END
>  <CHROM.1>
-34.20861464,-164.02970384,79.02734040,-69.89179457,-51.57343836,64.33716735
54.60340419,48.05353091,55.18276677,30.87054626,2.18869701,-1.23835347,1.43030426

>  <Name>
ligand

>  <RI>
0

>  <Rbt.Current_Directory>
/home/itssahil/PROJECTS/Mol_Feturizer/New_Systems/rnas/3IQR

>  <Rbt.Executable>
rbdock ($Id: //depot/dev/client3/rdock/2013.1/src/exe/rbdock.cxx#4 $)

>  <Rbt.Library>
libRbt.so (2013.1, Build901 2013/11/27)

>  <Rbt.Parameter_File>
/export/apps/rDock/src/rDock_2013.1_src/data/scripts/dock_solv.prm

>  <Rbt.Receptor>
prm/pocket_docking_3.prm

>  <SCORE>
-18.8212

>  <SCORE.INTER>
-13.1943

>  <SCORE.INTER.CONST>
1

>  <SCORE.INTER.POLAR>
0

>  <SCORE.INTER.ROT>
7

>  <SCORE.INTER.SOLV>
14.2397

>  <SCORE.INTER.VDW>
-21.8095

>  <SCORE.INTER.norm>
-0.488679

>  <SCORE.INTRA>
-5.6269

>  <SCORE.INTRA.DIHEDRAL>
-2.22621

>  <SCORE.INTRA.DIHEDRAL.0>
9.29433

>  <SCORE.INTRA.POLAR>
0

>  <SCORE.INTRA.POLAR.0>
0

>  <SCORE.INTRA.REPUL>
0

>  <SCORE.INTRA.REPUL.0>
0

>  <SCORE.INTRA.SOLV>
-0.875593

>  <SCORE.INTRA.SOLV.lig_0>
-48.5102

>  <SCORE.INTRA.VDW>
-4.076

>  <SCORE.INTRA.VDW.0>
0.379549

>  <SCORE.INTRA.norm>
-0.208404

>  <SCORE.RESTR>
0

>  <SCORE.RESTR.CAVITY>
0

>  <SCORE.RESTR.norm>
0

>  <SCORE.SYSTEM>
0

>  <SCORE.SYSTEM.CONST>
0

>  <SCORE.SYSTEM.DIHEDRAL>
0

>  <SCORE.SYSTEM.SOLV>
0

>  <SCORE.SYSTEM.norm>
0

>  <SCORE.heavy>
27

>  <SCORE.norm>
-0.697083

>  <RMSD>
5.407

$$$$
ligand
 OpenBabel11021811483D
libRbt.so/2013.1/901 2013/11/27
 27 29  0  0  0  0  0  0  0  0999 V2000
   45.2638   57.7892   29.3470 N   0  0  0  0  0  0  0  0  0  0  0  0
   46.4134   58.6279   29.6832 C   0  0  2  0  0  0  0  0  0  0  0  0
   47.6221   58.1325   28.9431 C   0  0  0  0  0  0  0  0  0  0  0  0
   48.7305   58.2024   29.4636 O   0  0  0  0  0  0  0  0  0  0  0  0
   46.6896   58.5720   31.1851 C   0  0  0  0  0  0  0  0  0  0  0  0
   46.9164   57.1267   31.5896 C   0  0  0  0  0  0  0  0  0  0  0  0
   47.3910   56.9175   33.3353 S   0  0  2  0  0  0  0  0  0  0  0  0
   49.0924   57.5500   33.4227 C   0  0  0  0  0  0  0  0  0  0  0  0
   48.0221   55.1344   33.4135 C   0  0  0  0  0  0  0  0  0  0  0  0
   47.0084   53.9376   33.1762 C   0  0  2  0  0  0  0  0  0  0  0  0
   47.2601   53.0464   32.1134 O   0  0  0  0  0  0  0  0  0  0  0  0
   45.5503   54.1589   33.2397 C   0  0  1  0  0  0  0  0  0  0  0  0
   45.2057   55.3789   33.8972 O   0  0  0  0  0  0  0  0  0  0  0  0
   45.2922   54.1362   31.6592 C   0  0  2  0  0  0  0  0  0  0  0  0
   43.9258   54.0684   31.3812 O   0  0  0  0  0  0  0  0  0  0  0  0
   46.0288   52.8528   31.2805 C   0  0  1  0  0  0  0  0  0  0  0  0
   47.4911   57.6220   27.8379 O   0  0  0  0  0  0  0  0  0  0  0  0
   46.1495   55.0105   26.6479 N   0  0  0  0  0  0  0  0  0  0  0  0
   45.5438   55.3927   27.7753 C   0  0  0  0  0  0  0  0  0  0  0  0
   45.6637   54.6864   28.8956 N   0  0  0  0  0  0  0  0  0  0  0  0
   46.3073   53.5085   28.9155 C   0  0  0  0  0  0  0  0  0  0  0  0
   46.9207   53.0323   27.7279 C   0  0  0  0  0  0  0  0  0  0  0  0
   46.8243   53.8469   26.5657 C   0  0  0  0  0  0  0  0  0  0  0  0
   47.4070   53.4619   25.3753 N   0  0  0  0  0  0  0  0  0  0  0  0
   47.4835   51.8461   28.0178 N   0  0  0  0  0  0  0  0  0  0  0  0
   47.2622   51.5564   29.2722 C   0  0  0  0  0  0  0  0  0  0  0  0
   46.5499   52.5505   29.8825 N   0  0  0  0  0  0  0  0  0  0  0  0
  2  1  1  1  0  0  0
  2  3  1  0  0  0  0
  2  5  1  0  0  0  0
  3  4  1  0  0  0  0
  3 17  1  0  0  0  0
  5  6  1  0  0  0  0
  7  6  1  6  0  0  0
  7  8  1  0  0  0  0
  7  9  1  0  0  0  0
 10  9  1  6  0  0  0
 10 11  1  0  0  0  0
 10 12  1  0  0  0  0
 11 16  1  0  0  0  0
 12 13  1  6  0  0  0
 12 14  1  0  0  0  0
 14 15  1  1  0  0  0
 14 16  1  0  0  0  0
 16 27  1  6  0  0  0
 18 19  2  0  0  0  0
 18 23  1  0  0  0  0
 19 20  1  0  0  0  0
 20 21  2  0  0  0  0
 21 22  1  0  0  0  0
 21 27  1  0  0  0  0
 22 23  2  0  0  0  0
 22 25  1  0  0  0  0
 23 24  1  0  0  0  0
 25 26  2  0  0  0  0
 26 27  1  0  0  0  0
M  END
>  <CHROM.1>
-145.73574038,57.26536758,175.34651233,-71.59495588,-66.42865545,120.61692208
-112.39618439,46.70875362,55.25193143,30.36498212,-1.26505279,-1.38076814
-1.75488510

>  <Name>
ligand

>  <RI>
0

>  <Rbt.Current_Directory>
/home/itssahil/PROJECTS/Mol_Feturizer/New_Systems/rnas/3IQR

>  <Rbt.Executable>
rbdock ($Id: //depot/dev/client3/rdock/2013.1/src/exe/rbdock.cxx#4 $)

>  <Rbt.Library>
libRbt.so (2013.1, Build901 2013/11/27)

>  <Rbt.Parameter_File>
/export/apps/rDock/src/rDock_2013.1_src/data/scripts/dock_solv.prm

>  <Rbt.Receptor>
prm/pocket_docking_5.prm

>  <SCORE>
-11.9061

>  <SCORE.INTER>
-9.92677

>  <SCORE.INTER.CONST>
1

>  <SCORE.INTER.POLAR>
0

>  <SCORE.INTER.ROT>
7

>  <SCORE.INTER.SOLV>
8.76755

>  <SCORE.INTER.VDW>
-17.807

>  <SCORE.INTER.norm>
-0.367658

>  <SCORE.INTRA>
-1.97931

>  <SCORE.INTRA.DIHEDRAL>
-1.11915

>  <SCORE.INTRA.DIHEDRAL.0>
9.29433

>  <SCORE.INTRA.POLAR>
0

>  <SCORE.INTRA.POLAR.0>
0

>  <SCORE.INTRA.REPUL>
0

>  <SCORE.INTRA.REPUL.0>
0

>  <SCORE.INTRA.SOLV>
0.875326

>  <SCORE.INTRA.SOLV.lig_0>
-48.5102

>  <SCORE.INTRA.VDW>
-1.8574

>  <SCORE.INTRA.VDW.0>
0.379549

>  <SCORE.INTRA.norm>
-0.0733078

>  <SCORE.RESTR>
0

>  <SCORE.RESTR.CAVITY>
0

>  <SCORE.RESTR.norm>
0

>  <SCORE.SYSTEM>
0

>  <SCORE.SYSTEM.CONST>
0

>  <SCORE.SYSTEM.DIHEDRAL>
0

>  <SCORE.SYSTEM.SOLV>
0

>  <SCORE.SYSTEM.norm>
0

>  <SCORE.heavy>
27

>  <SCORE.norm>
-0.440966

>  <RMSD>
5.407

$$$$
ligand
 OpenBabel11021811483D
libRbt.so/2013.1/901 2013/11/27
 27 29  0  0  0  0  0  0  0  0999 V2000
   43.9269   55.8751   30.0391 N   0  0  0  0  0  0  0  0  0  0  0  0
   45.1487   56.6756   30.1055 C   0  0  2  0  0  0  0  0  0  0  0  0
   46.0093   56.3668   28.9146 C   0  0  0  0  0  0  0  0  0  0  0  0
   46.5659   57.2763   28.3086 O   0  0  0  0  0  0  0  0  0  0  0  0
   45.9260   56.3523   31.3809 C   0  0  0  0  0  0  0  0  0  0  0  0
   47.0225   57.3859   31.5632 C   0  0  0  0  0  0  0  0  0  0  0  0
   47.8804   57.2730   33.1657 S   0  0  2  0  0  0  0  0  0  0  0  0
   49.1118   58.6085   33.1171 C   0  0  0  0  0  0  0  0  0  0  0  0
   49.2301   55.9819   32.8571 C   0  0  0  0  0  0  0  0  0  0  0  0
   48.8970   54.4436   33.0541 C   0  0  2  0  0  0  0  0  0  0  0  0
   48.1979   53.7724   32.0303 O   0  0  0  0  0  0  0  0  0  0  0  0
   48.3920   53.9395   34.3464 C   0  0  1  0  0  0  0  0  0  0  0  0
   48.6215   54.8510   35.4216 O   0  0  0  0  0  0  0  0  0  0  0  0
   46.8629   53.7817   33.8970 C   0  0  2  0  0  0  0  0  0  0  0  0
   46.1378   53.0647   34.8506 O   0  0  0  0  0  0  0  0  0  0  0  0
   47.0399   53.0048   32.5938 C   0  0  1  0  0  0  0  0  0  0  0  0
   46.1855   55.2030   28.5776 O   0  0  0  0  0  0  0  0  0  0  0  0
   46.7591   51.8073   27.6322 N   0  0  0  0  0  0  0  0  0  0  0  0
   47.8052   51.8623   28.4609 C   0  0  0  0  0  0  0  0  0  0  0  0
   47.6523   52.1776   29.7436 N   0  0  0  0  0  0  0  0  0  0  0  0
   46.4617   52.5562   30.2348 C   0  0  0  0  0  0  0  0  0  0  0  0
   45.3296   52.5675   29.3795 C   0  0  0  0  0  0  0  0  0  0  0  0
   45.5214   52.1630   28.0293 C   0  0  0  0  0  0  0  0  0  0  0  0
   44.4678   52.1317   27.1382 N   0  0  0  0  0  0  0  0  0  0  0  0
   44.2813   52.9846   30.1110 N   0  0  0  0  0  0  0  0  0  0  0  0
   44.6758   53.2333   31.3312 C   0  0  0  0  0  0  0  0  0  0  0  0
   46.0109   52.9767   31.4724 N   0  0  0  0  0  0  0  0  0  0  0  0
  2  1  1  6  0  0  0
  2  3  1  0  0  0  0
  2  5  1  0  0  0  0
  3  4  1  0  0  0  0
  3 17  1  0  0  0  0
  5  6  1  0  0  0  0
  7  6  1  6  0  0  0
  7  8  1  0  0  0  0
  7  9  1  0  0  0  0
 10  9  1  1  0  0  0
 10 11  1  0  0  0  0
 10 12  1  0  0  0  0
 11 16  1  0  0  0  0
 12 13  1  1  0  0  0
 12 14  1  0  0  0  0
 14 15  1  1  0  0  0
 14 16  1  0  0  0  0
 16 27  1  6  0  0  0
 18 19  2  0  0  0  0
 18 23  1  0  0  0  0
 19 20  1  0  0  0  0
 20 21  2  0  0  0  0
 21 22  1  0  0  0  0
 21 27  1  0  0  0  0
 22 23  2  0  0  0  0
 22 25  1  0  0  0  0
 23 24  1  0  0  0  0
 25 26  2  0  0  0  0
 26 27  1  0  0  0  0
M  END
>  <CHROM.1>
136.97374226,-168.50541612,171.62985397,-179.69481852,-86.96634370,79.15063890
50.94320769,46.75965910,54.57750836,31.18096194,2.84452114,1.14828620,2.93002153

>  <Name>
ligand

>  <RI>
0

>  <Rbt.Current_Directory>
/home/itssahil/PROJECTS/Mol_Feturizer/New_Systems/rnas/3IQR

>  <Rbt.Executable>
rbdock ($Id: //depot/dev/client3/rdock/2013.1/src/exe/rbdock.cxx#4 $)

>  <Rbt.Library>
libRbt.so (2013.1, Build901 2013/11/27)

>  <Rbt.Parameter_File>
/export/apps/rDock/src/rDock_2013.1_src/data/scripts/dock_solv.prm

>  <Rbt.Receptor>
prm/pocket_docking_6.prm

>  <SCORE>
-17.663

>  <SCORE.INTER>
-10.3427

>  <SCORE.INTER.CONST>
1

>  <SCORE.INTER.POLAR>
0

>  <SCORE.INTER.ROT>
7

>  <SCORE.INTER.SOLV>
12.524

>  <SCORE.INTER.VDW>
-19.3364

>  <SCORE.INTER.norm>
-0.383062

>  <SCORE.INTRA>
-7.32034

>  <SCORE.INTRA.DIHEDRAL>
-2.15361

>  <SCORE.INTRA.DIHEDRAL.0>
9.29433

>  <SCORE.INTRA.POLAR>
0

>  <SCORE.INTRA.POLAR.0>
0

>  <SCORE.INTRA.REPUL>
0

>  <SCORE.INTRA.REPUL.0>
0

>  <SCORE.INTRA.SOLV>
0.273493

>  <SCORE.INTRA.SOLV.lig_0>
-48.5102

>  <SCORE.INTRA.VDW>
-6.38028

>  <SCORE.INTRA.VDW.0>
0.379549

>  <SCORE.INTRA.norm>
-0.271124

>  <SCORE.RESTR>
0

>  <SCORE.RESTR.CAVITY>
0

>  <SCORE.RESTR.norm>
0

>  <SCORE.SYSTEM>
0

>  <SCORE.SYSTEM.CONST>
0

>  <SCORE.SYSTEM.DIHEDRAL>
0

>  <SCORE.SYSTEM.SOLV>
0

>  <SCORE.SYSTEM.norm>
0

>  <SCORE.heavy>
27

>  <SCORE.norm>
-0.654185

>  <RMSD>
5.422

$$$$
ligand
 OpenBabel11021811483D
libRbt.so/2013.1/901 2013/11/27
 27 29  0  0  0  0  0  0  0  0999 V2000
   46.6224   57.7872   30.9959 N   0  0  0  0  0  0  0  0  0  0  0  0
   48.0549   57.5587   30.8129 C   0  0  2  0  0  0  0  0  0  0  0  0
   48.8188   58.7213   31.3777 C   0  0  0  0  0  0  0  0  0  0  0  0
   48.3483   59.8522   31.3147 O   0  0  0  0  0  0  0  0  0  0  0  0
   48.3842   57.4190   29.3272 C   0  0  0  0  0  0  0  0  0  0  0  0
   47.6626   56.2025   28.7763 C   0  0  0  0  0  0  0  0  0  0  0  0
   47.9283   55.9343   26.9946 S   0  0  2  0  0  0  0  0  0  0  0  0
   47.0264   57.2921   26.1912 C   0  0  0  0  0  0  0  0  0  0  0  0
   46.5624   54.7121   26.5209 C   0  0  0  0  0  0  0  0  0  0  0  0
   46.4542   53.3281   27.2885 C   0  0  2  0  0  0  0  0  0  0  0  0
   46.4846   53.3388   28.6978 O   0  0  0  0  0  0  0  0  0  0  0  0
   47.2177   52.1498   26.8326 C   0  0  1  0  0  0  0  0  0  0  0  0
   47.6922   52.2847   25.4924 O   0  0  0  0  0  0  0  0  0  0  0  0
   48.3458   52.2117   27.9679 C   0  0  2  0  0  0  0  0  0  0  0  0
   49.1125   51.0450   27.9687 O   0  0  0  0  0  0  0  0  0  0  0  0
   47.4721   52.3361   29.2147 C   0  0  1  0  0  0  0  0  0  0  0  0
   49.8912   58.5299   31.9366 O   0  0  0  0  0  0  0  0  0  0  0  0
   45.6242   53.4510   33.8486 N   0  0  0  0  0  0  0  0  0  0  0  0
   45.0107   53.0230   32.7420 C   0  0  0  0  0  0  0  0  0  0  0  0
   45.6943   52.7652   31.6309 N   0  0  0  0  0  0  0  0  0  0  0  0
   47.0085   53.0240   31.5412 C   0  0  0  0  0  0  0  0  0  0  0  0
   47.6950   53.5324   32.6741 C   0  0  0  0  0  0  0  0  0  0  0  0
   46.9414   53.7354   33.8633 C   0  0  0  0  0  0  0  0  0  0  0  0
   47.5384   54.2125   35.0126 N   0  0  0  0  0  0  0  0  0  0  0  0
   48.9798   53.7054   32.3174 N   0  0  0  0  0  0  0  0  0  0  0  0
   49.1340   53.3537   31.0688 C   0  0  0  0  0  0  0  0  0  0  0  0
   47.9539   52.9133   30.5383 N   0  0  0  0  0  0  0  0  0  0  0  0
  2  1  1  6  0  0  0
  2  3  1  0  0  0  0
  2  5  1  0  0  0  0
  3  4  1  0  0  0  0
  3 17  1  0  0  0  0
  5  6  1  0  0  0  0
  7  6  1  1  0  0  0
  7  8  1  0  0  0  0
  7  9  1  0  0  0  0
 10  9  1  6  0  0  0
 10 11  1  0  0  0  0
 10 12  1  0  0  0  0
 11 16  1  0  0  0  0
 12 13  1  6  0  0  0
 12 14  1  0  0  0  0
 14 15  1  1  0  0  0
 14 16  1  0  0  0  0
 16 27  1  1  0  0  0
 18 19  2  0  0  0  0
 18 23  1  0  0  0  0
 19 20  1  0  0  0  0
 20 21  2  0  0  0  0
 21 22  1  0  0  0  0
 21 27  1  0  0  0  0
 22 23  2  0  0  0  0
 22 25  1  0  0  0  0
 23 24  1  0  0  0  0
 25 26  2  0  0  0  0
 26 27  1  0  0  0  0
M  END
>  <CHROM.1>
-33.92189696,-62.66703529,178.47073285,-69.96912010,-56.26785702,48.82265758
64.92387108,47.58259903,54.71237320,29.88517022,-1.37503980,-1.38877015,-1.84090471

>  <Name>
ligand

>  <RI>
0

>  <Rbt.Current_Directory>
/home/itssahil/PROJECTS/Mol_Feturizer/New_Systems/rnas/3IQR

>  <Rbt.Executable>
rbdock ($Id: //depot/dev/client3/rdock/2013.1/src/exe/rbdock.cxx#4 $)

>  <Rbt.Library>
libRbt.so (2013.1, Build901 2013/11/27)

>  <Rbt.Parameter_File>
/export/apps/rDock/src/rDock_2013.1_src/data/scripts/dock_solv.prm

>  <Rbt.Receptor>
prm/pocket_docking_4.prm

>  <SCORE>
-17.8073

>  <SCORE.INTER>
-11.067

>  <SCORE.INTER.CONST>
1

>  <SCORE.INTER.POLAR>
0

>  <SCORE.INTER.ROT>
7

>  <SCORE.INTER.SOLV>
10.1272

>  <SCORE.INTER.VDW>
-19.0204

>  <SCORE.INTER.norm>
-0.409891

>  <SCORE.INTRA>
-6.74023

>  <SCORE.INTRA.DIHEDRAL>
-4.52646

>  <SCORE.INTRA.DIHEDRAL.0>
9.29433

>  <SCORE.INTRA.POLAR>
0

>  <SCORE.INTRA.POLAR.0>
0

>  <SCORE.INTRA.REPUL>
0

>  <SCORE.INTRA.REPUL.0>
0

>  <SCORE.INTRA.SOLV>
-0.897451

>  <SCORE.INTRA.SOLV.lig_0>
-48.5102

>  <SCORE.INTRA.VDW>
-4.02828

>  <SCORE.INTRA.VDW.0>
0.379549

>  <SCORE.INTRA.norm>
-0.249638

>  <SCORE.RESTR>
0

>  <SCORE.RESTR.CAVITY>
0

>  <SCORE.RESTR.norm>
0

>  <SCORE.SYSTEM>
0

>  <SCORE.SYSTEM.CONST>
0

>  <SCORE.SYSTEM.DIHEDRAL>
0

>  <SCORE.SYSTEM.SOLV>
0

>  <SCORE.SYSTEM.norm>
0

>  <SCORE.heavy>
27

>  <SCORE.norm>
-0.659529

>  <RMSD>
5.423

$$$$
ligand
 OpenBabel11021811483D
libRbt.so/2013.1/901 2013/11/27
 27 29  0  0  0  0  0  0  0  0999 V2000
   48.2404   54.1801   24.9104 N   0  0  0  0  0  0  0  0  0  0  0  0
   47.3402   55.0922   25.6143 C   0  0  2  0  0  0  0  0  0  0  0  0
   48.1495   56.0394   26.4523 C   0  0  0  0  0  0  0  0  0  0  0  0
   47.7061   57.1507   26.7220 O   0  0  0  0  0  0  0  0  0  0  0  0
   46.3926   54.3078   26.5210 C   0  0  0  0  0  0  0  0  0  0  0  0
   47.2096   53.3726   27.3938 C   0  0  0  0  0  0  0  0  0  0  0  0
   46.2150   52.4293   28.5928 S   0  0  2  0  0  0  0  0  0  0  0  0
   44.6923   52.0133   27.6927 C   0  0  0  0  0  0  0  0  0  0  0  0
   45.3031   53.7720   29.5673 C   0  0  0  0  0  0  0  0  0  0  0  0
   46.1176   54.7049   30.5585 C   0  0  2  0  0  0  0  0  0  0  0  0
   46.5199   54.1739   31.8008 O   0  0  0  0  0  0  0  0  0  0  0  0
   45.7127   56.1071   30.7804 C   0  0  1  0  0  0  0  0  0  0  0  0
   44.8337   56.5945   29.7658 O   0  0  0  0  0  0  0  0  0  0  0  0
   45.0411   55.8791   32.2165 C   0  0  2  0  0  0  0  0  0  0  0  0
   44.7696   57.1003   32.8360 O   0  0  0  0  0  0  0  0  0  0  0  0
   46.1542   55.1037   32.9186 C   0  0  1  0  0  0  0  0  0  0  0  0
   49.2325   55.6828   26.8982 O   0  0  0  0  0  0  0  0  0  0  0  0
   48.4901   53.8289   37.2832 N   0  0  0  0  0  0  0  0  0  0  0  0
   48.8922   54.5987   36.2684 C   0  0  0  0  0  0  0  0  0  0  0  0
   48.1052   54.8240   35.2205 N   0  0  0  0  0  0  0  0  0  0  0  0
   46.9212   54.2054   35.0878 C   0  0  0  0  0  0  0  0  0  0  0  0
   46.4742   53.3340   36.1145 C   0  0  0  0  0  0  0  0  0  0  0  0
   47.3162   53.1679   37.2490 C   0  0  0  0  0  0  0  0  0  0  0  0
   46.9464   52.3498   38.2973 N   0  0  0  0  0  0  0  0  0  0  0  0
   45.2790   52.8495   35.7341 N   0  0  0  0  0  0  0  0  0  0  0  0
   44.9629   53.3433   34.5668 C   0  0  0  0  0  0  0  0  0  0  0  0
   45.9330   54.1966   34.1208 N   0  0  0  0  0  0  0  0  0  0  0  0
  2  1  1  1  0  0  0
  2  3  1  0  0  0  0
  2  5  1  0  0  0  0
  3  4  1  0  0  0  0
  3 17  1  0  0  0  0
  5  6  1  0  0  0  0
  7  6  1  6  0  0  0
  7  8  1  0  0  0  0
  7  9  1  0  0  0  0
 10  9  1  1  0  0  0
 10 11  1  0  0  0  0
 10 12  1  0  0  0  0
 11 16  1  0  0  0  0
 12 13  1  6  0  0  0
 12 14  1  0  0  0  0
 14 15  1  1  0  0  0
 14 16  1  0  0  0  0
 16 27  1  1  0  0  0
 18 19  2  0  0  0  0
 18 23  1  0  0  0  0
 19 20  1  0  0  0  0
 20 21  2  0  0  0  0
 21 22  1  0  0  0  0
 21 27  1  0  0  0  0
 22 23  2  0  0  0  0
 22 25  1  0  0  0  0
 23 24  1  0  0  0  0
 25 26  2  0  0  0  0
 26 27  1  0  0  0  0
M  END
>  <CHROM.1>
153.01559026,51.58702036,177.02617849,38.23128112,-70.04255451,-76.04704937
105.93818744,46.59511151,54.40078050,31.25923595,1.49906511,-1.21872978,-1.53957239

>  <Name>
ligand

>  <RI>
0

>  <Rbt.Current_Directory>
/home/itssahil/PROJECTS/Mol_Feturizer/New_Systems/rnas/3IQR

>  <Rbt.Executable>
rbdock ($Id: //depot/dev/client3/rdock/2013.1/src/exe/rbdock.cxx#4 $)

>  <Rbt.Library>
libRbt.so (2013.1, Build901 2013/11/27)

>  <Rbt.Parameter_File>
/export/apps/rDock/src/rDock_2013.1_src/data/scripts/dock_solv.prm

>  <Rbt.Receptor>
prm/pocket_docking_6.prm

>  <SCORE>
-14.4847

>  <SCORE.INTER>
-10.5178

>  <SCORE.INTER.CONST>
1

>  <SCORE.INTER.POLAR>
0

>  <SCORE.INTER.ROT>
7

>  <SCORE.INTER.SOLV>
11.7231

>  <SCORE.INTER.VDW>
-19.1862

>  <SCORE.INTER.norm>
-0.389547

>  <SCORE.INTRA>
-4.00429

>  <SCORE.INTRA.DIHEDRAL>
-4.2324

>  <SCORE.INTRA.DIHEDRAL.0>
9.29433

>  <SCORE.INTRA.POLAR>
0

>  <SCORE.INTRA.POLAR.0>
0

>  <SCORE.INTRA.REPUL>
0

>  <SCORE.INTRA.REPUL.0>
0

>  <SCORE.INTRA.SOLV>
-1.14626

>  <SCORE.INTRA.SOLV.lig_0>
-48.5102

>  <SCORE.INTRA.VDW>
-1.31496

>  <SCORE.INTRA.VDW.0>
0.379549

>  <SCORE.INTRA.norm>
-0.148307

>  <SCORE.RESTR>
0.0373004

>  <SCORE.RESTR.CAVITY>
0.0373004

>  <SCORE.RESTR.norm>
0.0013815

>  <SCORE.SYSTEM>
0

>  <SCORE.SYSTEM.CONST>
0

>  <SCORE.SYSTEM.DIHEDRAL>
0

>  <SCORE.SYSTEM.SOLV>
0

>  <SCORE.SYSTEM.norm>
0

>  <SCORE.heavy>
27

>  <SCORE.norm>
-0.536472

>  <RMSD>
5.426

$$$$
ligand
 OpenBabel11021811483D
libRbt.so/2013.1/901 2013/11/27
 27 29  0  0  0  0  0  0  0  0999 V2000
   46.7277   56.5670   27.8252 N   0  0  0  0  0  0  0  0  0  0  0  0
   46.8120   57.1599   29.1590 C   0  0  2  0  0  0  0  0  0  0  0  0
   45.8459   58.3053   29.2546 C   0  0  0  0  0  0  0  0  0  0  0  0
   45.8800   59.0563   30.2238 O   0  0  0  0  0  0  0  0  0  0  0  0
   48.2261   57.6759   29.4218 C   0  0  0  0  0  0  0  0  0  0  0  0
   48.7265   57.0930   30.7309 C   0  0  0  0  0  0  0  0  0  0  0  0
   47.7533   57.6038   32.1830 S   0  0  2  0  0  0  0  0  0  0  0  0
   48.5892   59.1001   32.7869 C   0  0  0  0  0  0  0  0  0  0  0  0
   48.4966   56.5867   33.5961 C   0  0  0  0  0  0  0  0  0  0  0  0
   48.2700   55.0171   33.6298 C   0  0  2  0  0  0  0  0  0  0  0  0
   49.0697   54.2061   32.7991 O   0  0  0  0  0  0  0  0  0  0  0  0
   46.9069   54.4504   33.6311 C   0  0  1  0  0  0  0  0  0  0  0  0
   45.9115   55.4089   33.9917 O   0  0  0  0  0  0  0  0  0  0  0  0
   46.8955   53.9962   32.0952 C   0  0  2  0  0  0  0  0  0  0  0  0
   45.7999   53.1725   31.8303 O   0  0  0  0  0  0  0  0  0  0  0  0
   48.2224   53.2430   32.0233 C   0  0  1  0  0  0  0  0  0  0  0  0
   45.0541   58.5101   28.3435 O   0  0  0  0  0  0  0  0  0  0  0  0
   47.3257   51.8927   27.1752 N   0  0  0  0  0  0  0  0  0  0  0  0
   46.5072   51.9673   28.2281 C   0  0  0  0  0  0  0  0  0  0  0  0
   46.9472   52.3729   29.4156 N   0  0  0  0  0  0  0  0  0  0  0  0
   48.2484   52.6216   29.6329 C   0  0  0  0  0  0  0  0  0  0  0  0
   49.1670   52.5023   28.5581 C   0  0  0  0  0  0  0  0  0  0  0  0
   48.6480   52.1274   27.2879 C   0  0  0  0  0  0  0  0  0  0  0  0
   49.4736   52.0047   26.1887 N   0  0  0  0  0  0  0  0  0  0  0  0
   50.3866   52.7976   29.0412 N   0  0  0  0  0  0  0  0  0  0  0  0
   50.2922   53.0794   30.3133 C   0  0  0  0  0  0  0  0  0  0  0  0
   48.9944   52.9987   30.7342 N   0  0  0  0  0  0  0  0  0  0  0  0
  2  1  1  6  0  0  0
  2  3  1  0  0  0  0
  2  5  1  0  0  0  0
  3  4  1  0  0  0  0
  3 17  1  0  0  0  0
  5  6  1  0  0  0  0
  7  6  1  6  0  0  0
  7  8  1  0  0  0  0
  7  9  1  0  0  0  0
 10  9  1  6  0  0  0
 10 11  1  0  0  0  0
 10 12  1  0  0  0  0
 11 16  1  0  0  0  0
 12 13  1  6  0  0  0
 12 14  1  0  0  0  0
 14 15  1  1  0  0  0
 14 16  1  0  0  0  0
 16 27  1  6  0  0  0
 18 19  2  0  0  0  0
 18 23  1  0  0  0  0
 19 20  1  0  0  0  0
 20 21  2  0  0  0  0
 21 22  1  0  0  0  0
 21 27  1  0  0  0  0
 22 23  2  0  0  0  0
 22 25  1  0  0  0  0
 23 24  1  0  0  0  0
 25 26  2  0  0  0  0
 26 27  1  0  0  0  0
M  END
>  <CHROM.1>
-170.19176927,-127.29509784,-62.96696806,-91.36032882,-69.27792433,79.33436862
-154.09928637,47.70682397,55.08479795,30.51530109,2.26336604,-1.24535420
1.22161104

>  <Name>
ligand

>  <RI>
0

>  <Rbt.Current_Directory>
/home/itssahil/PROJECTS/Mol_Feturizer/New_Systems/rnas/3IQR

>  <Rbt.Executable>
rbdock ($Id: //depot/dev/client3/rdock/2013.1/src/exe/rbdock.cxx#4 $)

>  <Rbt.Library>
libRbt.so (2013.1, Build901 2013/11/27)

>  <Rbt.Parameter_File>
/export/apps/rDock/src/rDock_2013.1_src/data/scripts/dock_solv.prm

>  <Rbt.Receptor>
prm/pocket_docking_3.prm

>  <SCORE>
-17.3296

>  <SCORE.INTER>
-13.3999

>  <SCORE.INTER.CONST>
1

>  <SCORE.INTER.POLAR>
0

>  <SCORE.INTER.ROT>
7

>  <SCORE.INTER.SOLV>
7.62851

>  <SCORE.INTER.VDW>
-19.7428

>  <SCORE.INTER.norm>
-0.496292

>  <SCORE.INTRA>
-3.92976

>  <SCORE.INTRA.DIHEDRAL>
2.32005

>  <SCORE.INTRA.DIHEDRAL.0>
9.29433

>  <SCORE.INTRA.POLAR>
0

>  <SCORE.INTRA.POLAR.0>
0

>  <SCORE.INTRA.REPUL>
0

>  <SCORE.INTRA.REPUL.0>
0

>  <SCORE.INTRA.SOLV>
-1.06369

>  <SCORE.INTRA.SOLV.lig_0>
-48.5102

>  <SCORE.INTRA.VDW>
-4.55793

>  <SCORE.INTRA.VDW.0>
0.379549

>  <SCORE.INTRA.norm>
-0.145547

>  <SCORE.RESTR>
0

>  <SCORE.RESTR.CAVITY>
0

>  <SCORE.RESTR.norm>
0

>  <SCORE.SYSTEM>
0

>  <SCORE.SYSTEM.CONST>
0

>  <SCORE.SYSTEM.DIHEDRAL>
0

>  <SCORE.SYSTEM.SOLV>
0

>  <SCORE.SYSTEM.norm>
0

>  <SCORE.heavy>
27

>  <SCORE.norm>
-0.641838

>  <RMSD>
5.434

$$$$
ligand
 OpenBabel11021811483D
libRbt.so/2013.1/901 2013/11/27
 27 29  0  0  0  0  0  0  0  0999 V2000
   46.9653   57.5367   26.7485 N   0  0  0  0  0  0  0  0  0  0  0  0
   48.1566   57.0452   27.4392 C   0  0  2  0  0  0  0  0  0  0  0  0
   48.5501   55.7154   26.8640 C   0  0  0  0  0  0  0  0  0  0  0  0
   47.9260   55.2486   25.9168 O   0  0  0  0  0  0  0  0  0  0  0  0
   47.8741   56.8800   28.9318 C   0  0  0  0  0  0  0  0  0  0  0  0
   47.5427   58.2384   29.5225 C   0  0  0  0  0  0  0  0  0  0  0  0
   47.1861   58.1967   31.3079 S   0  0  2  0  0  0  0  0  0  0  0  0
   47.5481   59.8820   31.8831 C   0  0  0  0  0  0  0  0  0  0  0  0
   48.7996   57.5625   32.0685 C   0  0  0  0  0  0  0  0  0  0  0  0
   48.8720   56.0751   32.6148 C   0  0  2  0  0  0  0  0  0  0  0  0
   49.6030   55.1237   31.8746 O   0  0  0  0  0  0  0  0  0  0  0  0
   47.6670   55.4039   33.1407 C   0  0  1  0  0  0  0  0  0  0  0  0
   46.6189   56.3208   33.4575 O   0  0  0  0  0  0  0  0  0  0  0  0
   47.4015   54.4755   31.8629 C   0  0  2  0  0  0  0  0  0  0  0  0
   46.4411   53.5032   32.1478 O   0  0  0  0  0  0  0  0  0  0  0  0
   48.7938   53.8793   31.6644 C   0  0  1  0  0  0  0  0  0  0  0  0
   49.5197   55.1203   27.3166 O   0  0  0  0  0  0  0  0  0  0  0  0
   46.9272   51.7084   27.4296 N   0  0  0  0  0  0  0  0  0  0  0  0
   46.3243   52.0725   28.5645 C   0  0  0  0  0  0  0  0  0  0  0  0
   47.0026   52.6542   29.5493 N   0  0  0  0  0  0  0  0  0  0  0  0
   48.3354   52.8033   29.4889 C   0  0  0  0  0  0  0  0  0  0  0  0
   49.0294   52.3809   28.3256 C   0  0  0  0  0  0  0  0  0  0  0  0
   48.2603   51.8212   27.2679 C   0  0  0  0  0  0  0  0  0  0  0  0
   48.8584   51.4004   26.0973 N   0  0  0  0  0  0  0  0  0  0  0  0
   50.3344   52.6359   28.5251 N   0  0  0  0  0  0  0  0  0  0  0  0
   50.4961   53.1693   29.7066 C   0  0  0  0  0  0  0  0  0  0  0  0
   49.2959   53.3084   30.3456 N   0  0  0  0  0  0  0  0  0  0  0  0
  2  1  1  6  0  0  0
  2  3  1  0  0  0  0
  2  5  1  0  0  0  0
  3  4  1  0  0  0  0
  3 17  1  0  0  0  0
  5  6  1  0  0  0  0
  7  6  1  6  0  0  0
  7  8  1  0  0  0  0
  7  9  1  0  0  0  0
 10  9  1  6  0  0  0
 10 11  1  0  0  0  0
 10 12  1  0  0  0  0
 11 16  1  0  0  0  0
 12 13  1  6  0  0  0
 12 14  1  0  0  0  0
 14 15  1  1  0  0  0
 14 16  1  0  0  0  0
 16 27  1  6  0  0  0
 18 19  2  0  0  0  0
 18 23  1  0  0  0  0
 19 20  1  0  0  0  0
 20 21  2  0  0  0  0
 21 22  1  0  0  0  0
 21 27  1  0  0  0  0
 22 23  2  0  0  0  0
 22 25  1  0  0  0  0
 23 24  1  0  0  0  0
 25 26  2  0  0  0  0
 26 27  1  0  0  0  0
M  END
>  <CHROM.1>
3.14757159,-62.67510991,-179.82290836,155.91610129,-106.10525409,106.94870172
-138.81290698,48.09952368,55.04589860,29.74554175,2.83179413,-1.44142952
1.98745625

>  <Name>
ligand

>  <RI>
0

>  <Rbt.Current_Directory>
/home/itssahil/PROJECTS/Mol_Feturizer/New_Systems/rnas/3IQR

>  <Rbt.Executable>
rbdock ($Id: //depot/dev/client3/rdock/2013.1/src/exe/rbdock.cxx#4 $)

>  <Rbt.Library>
libRbt.so (2013.1, Build901 2013/11/27)

>  <Rbt.Parameter_File>
/export/apps/rDock/src/rDock_2013.1_src/data/scripts/dock_solv.prm

>  <Rbt.Receptor>
prm/pocket_docking_3.prm

>  <SCORE>
-15.1312

>  <SCORE.INTER>
-10.9584

>  <SCORE.INTER.CONST>
1

>  <SCORE.INTER.POLAR>
0

>  <SCORE.INTER.ROT>
7

>  <SCORE.INTER.SOLV>
14.5805

>  <SCORE.INTER.VDW>
-20.4324

>  <SCORE.INTER.norm>
-0.405867

>  <SCORE.INTRA>
-4.17279

>  <SCORE.INTRA.DIHEDRAL>
1.89167

>  <SCORE.INTRA.DIHEDRAL.0>
9.29433

>  <SCORE.INTRA.POLAR>
0

>  <SCORE.INTRA.POLAR.0>
0

>  <SCORE.INTRA.REPUL>
0

>  <SCORE.INTRA.REPUL.0>
0

>  <SCORE.INTRA.SOLV>
-0.44988

>  <SCORE.INTRA.SOLV.lig_0>
-48.5102

>  <SCORE.INTRA.VDW>
-4.89369

>  <SCORE.INTRA.VDW.0>
0.379549

>  <SCORE.INTRA.norm>
-0.154548

>  <SCORE.RESTR>
0

>  <SCORE.RESTR.CAVITY>
0

>  <SCORE.RESTR.norm>
0

>  <SCORE.SYSTEM>
0

>  <SCORE.SYSTEM.CONST>
0

>  <SCORE.SYSTEM.DIHEDRAL>
0

>  <SCORE.SYSTEM.SOLV>
0

>  <SCORE.SYSTEM.norm>
0

>  <SCORE.heavy>
27

>  <SCORE.norm>
-0.560414

>  <RMSD>
5.434

$$$$
ligand
 OpenBabel11021811483D
libRbt.so/2013.1/901 2013/11/27
 27 29  0  0  0  0  0  0  0  0999 V2000
   47.1285   55.7959   28.4369 N   0  0  0  0  0  0  0  0  0  0  0  0
   48.2672   56.7115   28.3819 C   0  0  2  0  0  0  0  0  0  0  0  0
   49.5402   55.9172   28.3295 C   0  0  0  0  0  0  0  0  0  0  0  0
   50.1520   55.8094   27.2720 O   0  0  0  0  0  0  0  0  0  0  0  0
   48.2879   57.6074   29.6197 C   0  0  0  0  0  0  0  0  0  0  0  0
   48.1756   56.7369   30.8581 C   0  0  0  0  0  0  0  0  0  0  0  0
   47.9109   57.6764   32.3956 S   0  0  2  0  0  0  0  0  0  0  0  0
   49.4018   58.7016   32.5642 C   0  0  0  0  0  0  0  0  0  0  0  0
   48.5329   56.5038   33.7454 C   0  0  0  0  0  0  0  0  0  0  0  0
   48.0789   54.9840   33.7276 C   0  0  2  0  0  0  0  0  0  0  0  0
   48.7919   54.0807   32.9133 O   0  0  0  0  0  0  0  0  0  0  0  0
   46.6494   54.6234   33.6518 C   0  0  1  0  0  0  0  0  0  0  0  0
   45.7877   55.7104   33.9916 O   0  0  0  0  0  0  0  0  0  0  0  0
   46.6474   54.2055   32.1056 C   0  0  2  0  0  0  0  0  0  0  0  0
   45.4579   53.5566   31.7694 O   0  0  0  0  0  0  0  0  0  0  0  0
   47.8524   53.2674   32.0746 C   0  0  1  0  0  0  0  0  0  0  0  0
   49.9850   55.4139   29.3532 O   0  0  0  0  0  0  0  0  0  0  0  0
   47.0042   51.9226   27.2163 N   0  0  0  0  0  0  0  0  0  0  0  0
   46.1606   52.0838   28.2393 C   0  0  0  0  0  0  0  0  0  0  0  0
   46.5942   52.4688   29.4359 N   0  0  0  0  0  0  0  0  0  0  0  0
   47.9041   52.6083   29.6947 C   0  0  0  0  0  0  0  0  0  0  0  0
   48.8442   52.3937   28.6539 C   0  0  0  0  0  0  0  0  0  0  0  0
   48.3373   52.0446   27.3714 C   0  0  0  0  0  0  0  0  0  0  0  0
   49.1853   51.8342   26.3030 N   0  0  0  0  0  0  0  0  0  0  0  0
   50.0680   52.5908   29.1749 N   0  0  0  0  0  0  0  0  0  0  0  0
   49.9561   52.8997   30.4392 C   0  0  0  0  0  0  0  0  0  0  0  0
   48.6428   52.9374   30.8162 N   0  0  0  0  0  0  0  0  0  0  0  0
  2  1  1  1  0  0  0
  2  3  1  0  0  0  0
  2  5  1  0  0  0  0
  3  4  1  0  0  0  0
  3 17  1  0  0  0  0
  5  6  1  0  0  0  0
  7  6  1  6  0  0  0
  7  8  1  0  0  0  0
  7  9  1  0  0  0  0
 10  9  1  6  0  0  0
 10 11  1  0  0  0  0
 10 12  1  0  0  0  0
 11 16  1  0  0  0  0
 12 13  1  6  0  0  0
 12 14  1  0  0  0  0
 14 15  1  1  0  0  0
 14 16  1  0  0  0  0
 16 27  1  6  0  0  0
 18 19  2  0  0  0  0
 18 23  1  0  0  0  0
 19 20  1  0  0  0  0
 20 21  2  0  0  0  0
 21 22  1  0  0  0  0
 21 27  1  0  0  0  0
 22 23  2  0  0  0  0
 22 25  1  0  0  0  0
 23 24  1  0  0  0  0
 25 26  2  0  0  0  0
 26 27  1  0  0  0  0
M  END
>  <CHROM.1>
104.22312448,50.88694873,-170.45021770,-62.46686764,-46.99639507,83.81761360
-158.24246720,48.11282336,54.69706005,30.46307262,-1.36424821,1.05445353
0.74246924

>  <Name>
ligand

>  <RI>
0

>  <Rbt.Current_Directory>
/home/itssahil/PROJECTS/Mol_Feturizer/New_Systems/rnas/3IQR

>  <Rbt.Executable>
rbdock ($Id: //depot/dev/client3/rdock/2013.1/src/exe/rbdock.cxx#4 $)

>  <Rbt.Library>
libRbt.so (2013.1, Build901 2013/11/27)

>  <Rbt.Parameter_File>
/export/apps/rDock/src/rDock_2013.1_src/data/scripts/dock_solv.prm

>  <Rbt.Receptor>
prm/pocket_docking_4.prm

>  <SCORE>
-17.4959

>  <SCORE.INTER>
-13.2409

>  <SCORE.INTER.CONST>
1

>  <SCORE.INTER.POLAR>
0

>  <SCORE.INTER.ROT>
7

>  <SCORE.INTER.SOLV>
7.00419

>  <SCORE.INTER.VDW>
-19.4287

>  <SCORE.INTER.norm>
-0.490403

>  <SCORE.INTRA>
-4.255

>  <SCORE.INTRA.DIHEDRAL>
-1.66098

>  <SCORE.INTRA.DIHEDRAL.0>
9.29433

>  <SCORE.INTRA.POLAR>
0

>  <SCORE.INTRA.POLAR.0>
0

>  <SCORE.INTRA.REPUL>
0

>  <SCORE.INTRA.REPUL.0>
0

>  <SCORE.INTRA.SOLV>
0.831078

>  <SCORE.INTRA.SOLV.lig_0>
-48.5102

>  <SCORE.INTRA.VDW>
-3.84005

>  <SCORE.INTRA.VDW.0>
0.379549

>  <SCORE.INTRA.norm>
-0.157593

>  <SCORE.RESTR>
0

>  <SCORE.RESTR.CAVITY>
0

>  <SCORE.RESTR.norm>
0

>  <SCORE.SYSTEM>
0

>  <SCORE.SYSTEM.CONST>
0

>  <SCORE.SYSTEM.DIHEDRAL>
0

>  <SCORE.SYSTEM.SOLV>
0

>  <SCORE.SYSTEM.norm>
0

>  <SCORE.heavy>
27

>  <SCORE.norm>
-0.647996

>  <RMSD>
5.435

$$$$
ligand
 OpenBabel11021811483D
libRbt.so/2013.1/901 2013/11/27
 27 29  0  0  0  0  0  0  0  0999 V2000
   49.3116   53.3366   24.8986 N   0  0  0  0  0  0  0  0  0  0  0  0
   50.1231   52.8863   26.0284 C   0  0  2  0  0  0  0  0  0  0  0  0
   50.1033   51.3861   26.0865 C   0  0  0  0  0  0  0  0  0  0  0  0
   49.0386   50.7836   25.9991 O   0  0  0  0  0  0  0  0  0  0  0  0
   49.5661   53.4443   27.3374 C   0  0  0  0  0  0  0  0  0  0  0  0
   50.4964   53.0563   28.4723 C   0  0  0  0  0  0  0  0  0  0  0  0
   49.8640   53.4926   30.1234 S   0  0  2  0  0  0  0  0  0  0  0  0
   48.1051   53.0389   30.0708 C   0  0  0  0  0  0  0  0  0  0  0  0
   49.4227   55.3263   29.9598 C   0  0  0  0  0  0  0  0  0  0  0  0
   49.2811   56.2136   31.2670 C   0  0  2  0  0  0  0  0  0  0  0  0
   48.7667   55.6119   32.4334 O   0  0  0  0  0  0  0  0  0  0  0  0
   48.7398   57.5851   31.1941 C   0  0  1  0  0  0  0  0  0  0  0  0
   48.7542   58.1139   29.8676 O   0  0  0  0  0  0  0  0  0  0  0  0
   47.2888   57.2409   31.7784 C   0  0  2  0  0  0  0  0  0  0  0  0
   46.5870   58.4090   32.0816 O   0  0  0  0  0  0  0  0  0  0  0  0
   47.6772   56.4530   33.0279 C   0  0  1  0  0  0  0  0  0  0  0  0
   51.1558   50.7676   26.1797 O   0  0  0  0  0  0  0  0  0  0  0  0
   47.8292   53.1071   36.8897 N   0  0  0  0  0  0  0  0  0  0  0  0
   48.7925   53.8489   36.3367 C   0  0  0  0  0  0  0  0  0  0  0  0
   48.5292   54.6883   35.3395 N   0  0  0  0  0  0  0  0  0  0  0  0
   47.3115   54.7482   34.7774 C   0  0  0  0  0  0  0  0  0  0  0  0
   46.2676   53.9379   35.2941 C   0  0  0  0  0  0  0  0  0  0  0  0
   46.5729   53.0996   36.4021 C   0  0  0  0  0  0  0  0  0  0  0  0
   45.6090   52.2929   36.9722 N   0  0  0  0  0  0  0  0  0  0  0  0
   45.1700   54.1838   34.5575 N   0  0  0  0  0  0  0  0  0  0  0  0
   45.4547   55.0655   33.6366 C   0  0  0  0  0  0  0  0  0  0  0  0
   46.7600   55.4605   33.7286 N   0  0  0  0  0  0  0  0  0  0  0  0
  2  1  1  6  0  0  0
  2  3  1  0  0  0  0
  2  5  1  0  0  0  0
  3  4  1  0  0  0  0
  3 17  1  0  0  0  0
  5  6  1  0  0  0  0
  7  6  1  6  0  0  0
  7  8  1  0  0  0  0
  7  9  1  0  0  0  0
 10  9  1  6  0  0  0
 10 11  1  0  0  0  0
 10 12  1  0  0  0  0
 11 16  1  0  0  0  0
 12 13  1  6  0  0  0
 12 14  1  0  0  0  0
 14 15  1  1  0  0  0
 14 16  1  0  0  0  0
 16 27  1  6  0  0  0
 18 19  2  0  0  0  0
 18 23  1  0  0  0  0
 19 20  1  0  0  0  0
 20 21  2  0  0  0  0
 21 22  1  0  0  0  0
 21 27  1  0  0  0  0
 22 23  2  0  0  0  0
 22 25  1  0  0  0  0
 23 24  1  0  0  0  0
 25 26  2  0  0  0  0
 26 27  1  0  0  0  0
M  END
>  <CHROM.1>
-47.67139674,-175.24513479,-173.48203343,42.59942297,-160.25495460,-34.20090272
63.13751417,48.35476287,54.32002743,31.32635148,0.04965797,1.23558982,-0.28935308

>  <Name>
ligand

>  <RI>
0

>  <Rbt.Current_Directory>
/home/itssahil/PROJECTS/Mol_Feturizer/New_Systems/rnas/3IQR

>  <Rbt.Executable>
rbdock ($Id: //depot/dev/client3/rdock/2013.1/src/exe/rbdock.cxx#4 $)

>  <Rbt.Library>
libRbt.so (2013.1, Build901 2013/11/27)

>  <Rbt.Parameter_File>
/export/apps/rDock/src/rDock_2013.1_src/data/scripts/dock_solv.prm

>  <Rbt.Receptor>
prm/pocket_docking_6.prm

>  <SCORE>
-17.031

>  <SCORE.INTER>
-13.5454

>  <SCORE.INTER.CONST>
1

>  <SCORE.INTER.POLAR>
0

>  <SCORE.INTER.ROT>
7

>  <SCORE.INTER.SOLV>
11.1352

>  <SCORE.INTER.VDW>
-21.0087

>  <SCORE.INTER.norm>
-0.501683

>  <SCORE.INTRA>
-3.48559

>  <SCORE.INTRA.DIHEDRAL>
-1.41535

>  <SCORE.INTRA.DIHEDRAL.0>
9.29433

>  <SCORE.INTRA.POLAR>
0

>  <SCORE.INTRA.POLAR.0>
0

>  <SCORE.INTRA.REPUL>
0

>  <SCORE.INTRA.REPUL.0>
0

>  <SCORE.INTRA.SOLV>
-1.85237

>  <SCORE.INTRA.SOLV.lig_0>
-48.5102

>  <SCORE.INTRA.VDW>
-1.85173

>  <SCORE.INTRA.VDW.0>
0.379549

>  <SCORE.INTRA.norm>
-0.129096

>  <SCORE.RESTR>
0

>  <SCORE.RESTR.CAVITY>
0

>  <SCORE.RESTR.norm>
0

>  <SCORE.SYSTEM>
0

>  <SCORE.SYSTEM.CONST>
0

>  <SCORE.SYSTEM.DIHEDRAL>
0

>  <SCORE.SYSTEM.SOLV>
0

>  <SCORE.SYSTEM.norm>
0

>  <SCORE.heavy>
27

>  <SCORE.norm>
-0.630779

>  <RMSD>
5.453

$$$$
ligand
 OpenBabel11021811483D
libRbt.so/2013.1/901 2013/11/27
 27 29  0  0  0  0  0  0  0  0999 V2000
   50.0265   53.5450   24.7976 N   0  0  0  0  0  0  0  0  0  0  0  0
   50.4393   54.1066   26.0829 C   0  0  2  0  0  0  0  0  0  0  0  0
   51.6131   53.3320   26.6086 C   0  0  0  0  0  0  0  0  0  0  0  0
   52.2714   52.6276   25.8504 O   0  0  0  0  0  0  0  0  0  0  0  0
   49.2938   54.0229   27.0908 C   0  0  0  0  0  0  0  0  0  0  0  0
   48.1643   54.9246   26.6269 C   0  0  0  0  0  0  0  0  0  0  0  0
   46.7858   55.0449   27.8109 S   0  0  2  0  0  0  0  0  0  0  0  0
   45.8621   56.5188   27.2848 C   0  0  0  0  0  0  0  0  0  0  0  0
   47.5317   55.9997   29.2655 C   0  0  0  0  0  0  0  0  0  0  0  0
   48.4592   55.2392   30.3036 C   0  0  2  0  0  0  0  0  0  0  0  0
   47.8969   54.1947   31.0653 O   0  0  0  0  0  0  0  0  0  0  0  0
   49.3826   55.9862   31.1803 C   0  0  1  0  0  0  0  0  0  0  0  0
   49.6203   57.3182   30.7235 O   0  0  0  0  0  0  0  0  0  0  0  0
   48.5057   55.8663   32.5152 C   0  0  2  0  0  0  0  0  0  0  0  0
   49.2422   56.2712   33.6298 O   0  0  0  0  0  0  0  0  0  0  0  0
   48.2185   54.3661   32.5196 C   0  0  1  0  0  0  0  0  0  0  0  0
   51.9341   53.4389   27.7853 O   0  0  0  0  0  0  0  0  0  0  0  0
   46.7561   53.3317   37.3073 N   0  0  0  0  0  0  0  0  0  0  0  0
   47.8991   53.8321   36.8306 C   0  0  0  0  0  0  0  0  0  0  0  0
   48.0666   54.0496   35.5295 N   0  0  0  0  0  0  0  0  0  0  0  0
   47.1395   53.6786   34.6323 C   0  0  0  0  0  0  0  0  0  0  0  0
   45.9301   53.0913   35.0860 C   0  0  0  0  0  0  0  0  0  0  0  0
   45.7618   52.9331   36.4896 C   0  0  0  0  0  0  0  0  0  0  0  0
   44.6079   52.3846   37.0117 N   0  0  0  0  0  0  0  0  0  0  0  0
   45.1894   52.8133   33.9988 N   0  0  0  0  0  0  0  0  0  0  0  0
   45.8422   53.1731   32.9261 C   0  0  0  0  0  0  0  0  0  0  0  0
   47.0491   53.7247   33.2534 N   0  0  0  0  0  0  0  0  0  0  0  0
  2  1  1  6  0  0  0
  2  3  1  0  0  0  0
  2  5  1  0  0  0  0
  3  4  1  0  0  0  0
  3 17  1  0  0  0  0
  5  6  1  0  0  0  0
  7  6  1  6  0  0  0
  7  8  1  0  0  0  0
  7  9  1  0  0  0  0
 10  9  1  1  0  0  0
 10 11  1  0  0  0  0
 10 12  1  0  0  0  0
 11 16  1  0  0  0  0
 12 13  1  6  0  0  0
 12 14  1  0  0  0  0
 14 15  1  1  0  0  0
 14 16  1  0  0  0  0
 16 27  1  1  0  0  0
 18 19  2  0  0  0  0
 18 23  1  0  0  0  0
 19 20  1  0  0  0  0
 20 21  2  0  0  0  0
 21 22  1  0  0  0  0
 21 27  1  0  0  0  0
 22 23  2  0  0  0  0
 22 25  1  0  0  0  0
 23 24  1  0  0  0  0
 25 26  2  0  0  0  0
 26 27  1  0  0  0  0
M  END
>  <CHROM.1>
18.04696587,-65.85053730,-174.71812917,163.09910339,-78.82802736,-62.86333262
176.28870877,48.12628470,54.36133062,30.99176758,1.21536959,0.18732706,-1.41929574

>  <Name>
ligand

>  <RI>
0

>  <Rbt.Current_Directory>
/home/itssahil/PROJECTS/Mol_Feturizer/New_Systems/rnas/3IQR

>  <Rbt.Executable>
rbdock ($Id: //depot/dev/client3/rdock/2013.1/src/exe/rbdock.cxx#4 $)

>  <Rbt.Library>
libRbt.so (2013.1, Build901 2013/11/27)

>  <Rbt.Parameter_File>
/export/apps/rDock/src/rDock_2013.1_src/data/scripts/dock_solv.prm

>  <Rbt.Receptor>
prm/pocket_docking_6.prm

>  <SCORE>
-13.7389

>  <SCORE.INTER>
-8.29492

>  <SCORE.INTER.CONST>
1

>  <SCORE.INTER.POLAR>
0

>  <SCORE.INTER.ROT>
7

>  <SCORE.INTER.SOLV>
10.1775

>  <SCORE.INTER.VDW>
-17.1891

>  <SCORE.INTER.norm>
-0.307219

>  <SCORE.INTRA>
-5.4449

>  <SCORE.INTRA.DIHEDRAL>
-4.73757

>  <SCORE.INTRA.DIHEDRAL.0>
9.29433

>  <SCORE.INTRA.POLAR>
0

>  <SCORE.INTRA.POLAR.0>
0

>  <SCORE.INTRA.REPUL>
0

>  <SCORE.INTRA.REPUL.0>
0

>  <SCORE.INTRA.SOLV>
-1.14496

>  <SCORE.INTRA.SOLV.lig_0>
-48.5102

>  <SCORE.INTRA.VDW>
-2.50364

>  <SCORE.INTRA.VDW.0>
0.379549

>  <SCORE.INTRA.norm>
-0.201663

>  <SCORE.RESTR>
0.000951471

>  <SCORE.RESTR.CAVITY>
0.000951471

>  <SCORE.RESTR.norm>
3.52397e-05

>  <SCORE.SYSTEM>
0

>  <SCORE.SYSTEM.CONST>
0

>  <SCORE.SYSTEM.DIHEDRAL>
0

>  <SCORE.SYSTEM.SOLV>
0

>  <SCORE.SYSTEM.norm>
0

>  <SCORE.heavy>
27

>  <SCORE.norm>
-0.508847

>  <RMSD>
5.466

$$$$
ligand
 OpenBabel11021811483D
libRbt.so/2013.1/901 2013/11/27
 27 29  0  0  0  0  0  0  0  0999 V2000
   46.3270   56.8001   28.5470 N   0  0  0  0  0  0  0  0  0  0  0  0
   47.6744   57.3639   28.4806 C   0  0  2  0  0  0  0  0  0  0  0  0
   48.6619   56.2608   28.2315 C   0  0  0  0  0  0  0  0  0  0  0  0
   48.5114   55.1701   28.7722 O   0  0  0  0  0  0  0  0  0  0  0  0
   48.0237   58.0597   29.7955 C   0  0  0  0  0  0  0  0  0  0  0  0
   47.9528   57.0450   30.9222 C   0  0  0  0  0  0  0  0  0  0  0  0
   47.6551   57.7842   32.5598 S   0  0  2  0  0  0  0  0  0  0  0  0
   49.1045   58.8407   32.8518 C   0  0  0  0  0  0  0  0  0  0  0  0
   48.3268   56.4855   33.7622 C   0  0  0  0  0  0  0  0  0  0  0  0
   47.7904   54.9950   33.6792 C   0  0  2  0  0  0  0  0  0  0  0  0
   48.4921   54.0736   32.8755 O   0  0  0  0  0  0  0  0  0  0  0  0
   46.3487   54.7185   33.5235 C   0  0  1  0  0  0  0  0  0  0  0  0
   45.5328   55.8438   33.8515 O   0  0  0  0  0  0  0  0  0  0  0  0
   46.4012   54.3409   31.9679 C   0  0  2  0  0  0  0  0  0  0  0  0
   45.1959   53.7696   31.5558 O   0  0  0  0  0  0  0  0  0  0  0  0
   47.5522   53.3368   31.9692 C   0  0  1  0  0  0  0  0  0  0  0  0
   49.5921   56.4414   27.4562 O   0  0  0  0  0  0  0  0  0  0  0  0
   46.8766   51.7777   27.1480 N   0  0  0  0  0  0  0  0  0  0  0  0
   46.0030   51.9405   28.1452 C   0  0  0  0  0  0  0  0  0  0  0  0
   46.3916   52.3878   29.3356 N   0  0  0  0  0  0  0  0  0  0  0  0
   47.6879   52.5927   29.6178 C   0  0  0  0  0  0  0  0  0  0  0  0
   48.6606   52.3801   28.6070 C   0  0  0  0  0  0  0  0  0  0  0  0
   48.1993   51.9624   27.3278 C   0  0  0  0  0  0  0  0  0  0  0  0
   49.0805   51.7490   26.2872 N   0  0  0  0  0  0  0  0  0  0  0  0
   49.8624   52.6486   29.1470 N   0  0  0  0  0  0  0  0  0  0  0  0
   49.7077   52.9991   30.3959 C   0  0  0  0  0  0  0  0  0  0  0  0
   48.3854   52.9945   30.7420 N   0  0  0  0  0  0  0  0  0  0  0  0
  2  1  1  1  0  0  0
  2  3  1  0  0  0  0
  2  5  1  0  0  0  0
  3  4  1  0  0  0  0
  3 17  1  0  0  0  0
  5  6  1  0  0  0  0
  7  6  1  6  0  0  0
  7  8  1  0  0  0  0
  7  9  1  0  0  0  0
 10  9  1  6  0  0  0
 10 11  1  0  0  0  0
 10 12  1  0  0  0  0
 11 16  1  0  0  0  0
 12 13  1  6  0  0  0
 12 14  1  0  0  0  0
 14 15  1  1  0  0  0
 14 16  1  0  0  0  0
 16 27  1  6  0  0  0
 18 19  2  0  0  0  0
 18 23  1  0  0  0  0
 19 20  1  0  0  0  0
 20 21  2  0  0  0  0
 21 22  1  0  0  0  0
 21 27  1  0  0  0  0
 22 23  2  0  0  0  0
 22 25  1  0  0  0  0
 23 24  1  0  0  0  0
 25 26  2  0  0  0  0
 26 27  1  0  0  0  0
M  END
>  <CHROM.1>
-38.38168324,59.75677788,-155.94968755,-62.60644497,-54.76389686,92.17965442
-165.17200201,47.76396261,54.83466838,30.43510795,-1.79722569,-1.21264789
-2.51360246

>  <Name>
ligand

>  <RI>
0

>  <Rbt.Current_Directory>
/home/itssahil/PROJECTS/Mol_Feturizer/New_Systems/rnas/3IQR

>  <Rbt.Executable>
rbdock ($Id: //depot/dev/client3/rdock/2013.1/src/exe/rbdock.cxx#4 $)

>  <Rbt.Library>
libRbt.so (2013.1, Build901 2013/11/27)

>  <Rbt.Parameter_File>
/export/apps/rDock/src/rDock_2013.1_src/data/scripts/dock_solv.prm

>  <Rbt.Receptor>
prm/pocket_docking_5.prm

>  <SCORE>
-16.9919

>  <SCORE.INTER>
-12.6453

>  <SCORE.INTER.CONST>
1

>  <SCORE.INTER.POLAR>
0

>  <SCORE.INTER.ROT>
7

>  <SCORE.INTER.SOLV>
7.85304

>  <SCORE.INTER.VDW>
-19.3146

>  <SCORE.INTER.norm>
-0.468345

>  <SCORE.INTRA>
-4.34657

>  <SCORE.INTRA.DIHEDRAL>
-0.233352

>  <SCORE.INTRA.DIHEDRAL.0>
9.29433

>  <SCORE.INTRA.POLAR>
0

>  <SCORE.INTRA.POLAR.0>
0

>  <SCORE.INTRA.REPUL>
0

>  <SCORE.INTRA.REPUL.0>
0

>  <SCORE.INTRA.SOLV>
-0.0594997

>  <SCORE.INTRA.SOLV.lig_0>
-48.5102

>  <SCORE.INTRA.VDW>
-4.20015

>  <SCORE.INTRA.VDW.0>
0.379549

>  <SCORE.INTRA.norm>
-0.160984

>  <SCORE.RESTR>
0

>  <SCORE.RESTR.CAVITY>
0

>  <SCORE.RESTR.norm>
0

>  <SCORE.SYSTEM>
0

>  <SCORE.SYSTEM.CONST>
0

>  <SCORE.SYSTEM.DIHEDRAL>
0

>  <SCORE.SYSTEM.SOLV>
0

>  <SCORE.SYSTEM.norm>
0

>  <SCORE.heavy>
27

>  <SCORE.norm>
-0.629329

>  <RMSD>
5.467

$$$$
ligand
 OpenBabel11021811483D
libRbt.so/2013.1/901 2013/11/27
 27 29  0  0  0  0  0  0  0  0999 V2000
   46.1027   57.6351   30.0587 N   0  0  0  0  0  0  0  0  0  0  0  0
   45.4143   58.5538   30.9642 C   0  0  2  0  0  0  0  0  0  0  0  0
   46.2893   59.7467   31.2201 C   0  0  0  0  0  0  0  0  0  0  0  0
   47.4579   59.7405   30.8476 O   0  0  0  0  0  0  0  0  0  0  0  0
   45.1118   57.8619   32.2928 C   0  0  0  0  0  0  0  0  0  0  0  0
   46.2545   56.9207   32.6279 C   0  0  0  0  0  0  0  0  0  0  0  0
   47.8132   57.7712   33.0324 S   0  0  2  0  0  0  0  0  0  0  0  0
   48.9575   57.2761   31.7103 C   0  0  0  0  0  0  0  0  0  0  0  0
   48.6619   56.5906   34.2447 C   0  0  0  0  0  0  0  0  0  0  0  0
   48.5317   55.0246   34.0280 C   0  0  2  0  0  0  0  0  0  0  0  0
   47.7233   54.5588   32.9712 O   0  0  0  0  0  0  0  0  0  0  0  0
   48.3360   54.1168   35.1756 C   0  0  1  0  0  0  0  0  0  0  0  0
   48.6710   54.7253   36.4235 O   0  0  0  0  0  0  0  0  0  0  0  0
   46.7737   53.8557   34.9387 C   0  0  2  0  0  0  0  0  0  0  0  0
   46.3204   52.8044   35.7375 O   0  0  0  0  0  0  0  0  0  0  0  0
   46.7784   53.4994   33.4533 C   0  0  1  0  0  0  0  0  0  0  0  0
   45.8208   60.7386   31.7637 O   0  0  0  0  0  0  0  0  0  0  0  0
   45.2669   52.0189   28.7999 N   0  0  0  0  0  0  0  0  0  0  0  0
   46.4454   51.8971   29.4167 C   0  0  0  0  0  0  0  0  0  0  0  0
   46.6216   52.3369   30.6592 N   0  0  0  0  0  0  0  0  0  0  0  0
   45.6594   53.0142   31.3055 C   0  0  0  0  0  0  0  0  0  0  0  0
   44.4072   53.2180   30.6701 C   0  0  0  0  0  0  0  0  0  0  0  0
   44.2361   52.6774   29.3655 C   0  0  0  0  0  0  0  0  0  0  0  0
   43.0430   52.8191   28.6863 N   0  0  0  0  0  0  0  0  0  0  0  0
   43.6374   53.9186   31.5212 N   0  0  0  0  0  0  0  0  0  0  0  0
   44.3111   54.1639   32.6132 C   0  0  0  0  0  0  0  0  0  0  0  0
   45.5634   53.6207   32.5443 N   0  0  0  0  0  0  0  0  0  0  0  0
  2  1  1  6  0  0  0
  2  3  1  0  0  0  0
  2  5  1  0  0  0  0
  3  4  1  0  0  0  0
  3 17  1  0  0  0  0
  5  6  1  0  0  0  0
  7  6  1  6  0  0  0
  7  8  1  0  0  0  0
  7  9  1  0  0  0  0
 10  9  1  1  0  0  0
 10 11  1  0  0  0  0
 10 12  1  0  0  0  0
 11 16  1  0  0  0  0
 12 13  1  1  0  0  0
 12 14  1  0  0  0  0
 14 15  1  1  0  0  0
 14 16  1  0  0  0  0
 16 27  1  6  0  0  0
 18 19  2  0  0  0  0
 18 23  1  0  0  0  0
 19 20  1  0  0  0  0
 20 21  2  0  0  0  0
 21 22  1  0  0  0  0
 21 27  1  0  0  0  0
 22 23  2  0  0  0  0
 22 25  1  0  0  0  0
 23 24  1  0  0  0  0
 25 26  2  0  0  0  0
 26 27  1  0  0  0  0
M  END
>  <CHROM.1>
-10.15493596,35.79565590,68.41373422,-115.50189337,36.90963427,-3.30447644
81.02479863,46.42593394,55.41905087,32.21312699,0.92092763,-0.99397823,-0.28970739

>  <Name>
ligand

>  <RI>
0

>  <Rbt.Current_Directory>
/home/itssahil/PROJECTS/Mol_Feturizer/New_Systems/rnas/3IQR

>  <Rbt.Executable>
rbdock ($Id: //depot/dev/client3/rdock/2013.1/src/exe/rbdock.cxx#4 $)

>  <Rbt.Library>
libRbt.so (2013.1, Build901 2013/11/27)

>  <Rbt.Parameter_File>
/export/apps/rDock/src/rDock_2013.1_src/data/scripts/dock_solv.prm

>  <Rbt.Receptor>
prm/pocket_docking_8.prm

>  <SCORE>
-17.4435

>  <SCORE.INTER>
-18.1643

>  <SCORE.INTER.CONST>
1

>  <SCORE.INTER.POLAR>
0

>  <SCORE.INTER.ROT>
7

>  <SCORE.INTER.SOLV>
11.6386

>  <SCORE.INTER.VDW>
-24.2557

>  <SCORE.INTER.norm>
-0.672752

>  <SCORE.INTRA>
0.701819

>  <SCORE.INTRA.DIHEDRAL>
4.86126

>  <SCORE.INTRA.DIHEDRAL.0>
9.29433

>  <SCORE.INTRA.POLAR>
0

>  <SCORE.INTRA.POLAR.0>
0

>  <SCORE.INTRA.REPUL>
0

>  <SCORE.INTRA.REPUL.0>
0

>  <SCORE.INTRA.SOLV>
1.27988

>  <SCORE.INTRA.SOLV.lig_0>
-48.5102

>  <SCORE.INTRA.VDW>
-2.36875

>  <SCORE.INTRA.VDW.0>
0.379549

>  <SCORE.INTRA.norm>
0.0259933

>  <SCORE.RESTR>
0.0190155

>  <SCORE.RESTR.CAVITY>
0.0190155

>  <SCORE.RESTR.norm>
0.000704278

>  <SCORE.SYSTEM>
0

>  <SCORE.SYSTEM.CONST>
0

>  <SCORE.SYSTEM.DIHEDRAL>
0

>  <SCORE.SYSTEM.SOLV>
0

>  <SCORE.SYSTEM.norm>
0

>  <SCORE.heavy>
27

>  <SCORE.norm>
-0.646055

>  <RMSD>
5.468

$$$$
ligand
 OpenBabel11021811483D
libRbt.so/2013.1/901 2013/11/27
 27 29  0  0  0  0  0  0  0  0999 V2000
   45.7611   57.3245   28.7084 N   0  0  0  0  0  0  0  0  0  0  0  0
   46.9896   57.5604   27.9516 C   0  0  2  0  0  0  0  0  0  0  0  0
   46.9138   56.8294   26.6424 C   0  0  0  0  0  0  0  0  0  0  0  0
   46.7464   55.6144   26.6278 O   0  0  0  0  0  0  0  0  0  0  0  0
   48.2007   57.0565   28.7356 C   0  0  0  0  0  0  0  0  0  0  0  0
   48.5339   58.0607   29.8240 C   0  0  0  0  0  0  0  0  0  0  0  0
   47.3264   58.0956   31.1868 S   0  0  2  0  0  0  0  0  0  0  0  0
   47.3615   59.8125   31.7813 C   0  0  0  0  0  0  0  0  0  0  0  0
   48.3327   57.5283   32.6866 C   0  0  0  0  0  0  0  0  0  0  0  0
   48.8158   56.0200   32.7758 C   0  0  2  0  0  0  0  0  0  0  0  0
   49.7322   55.5513   31.8126 O   0  0  0  0  0  0  0  0  0  0  0  0
   47.8536   54.9333   33.0450 C   0  0  1  0  0  0  0  0  0  0  0  0
   46.6198   55.4099   33.5837 O   0  0  0  0  0  0  0  0  0  0  0  0
   47.7770   54.3799   31.5440 C   0  0  2  0  0  0  0  0  0  0  0  0
   47.1173   53.1503   31.5023 O   0  0  0  0  0  0  0  0  0  0  0  0
   49.2651   54.2545   31.2228 C   0  0  1  0  0  0  0  0  0  0  0  0
   46.9780   57.4555   25.5921 O   0  0  0  0  0  0  0  0  0  0  0  0
   49.4713   51.1586   27.1604 N   0  0  0  0  0  0  0  0  0  0  0  0
   48.9937   50.9559   28.3912 C   0  0  0  0  0  0  0  0  0  0  0  0
   49.0156   51.9204   29.3063 N   0  0  0  0  0  0  0  0  0  0  0  0
   49.6118   53.0992   29.0674 C   0  0  0  0  0  0  0  0  0  0  0  0
   50.1834   53.3423   27.7917 C   0  0  0  0  0  0  0  0  0  0  0  0
   50.0841   52.3092   26.8189 C   0  0  0  0  0  0  0  0  0  0  0  0
   50.6010   52.4733   25.5497 N   0  0  0  0  0  0  0  0  0  0  0  0
   50.7119   54.5783   27.8204 N   0  0  0  0  0  0  0  0  0  0  0  0
   50.5182   55.1052   28.9999 C   0  0  0  0  0  0  0  0  0  0  0  0
   49.8338   54.2437   29.8108 N   0  0  0  0  0  0  0  0  0  0  0  0
  2  1  1  1  0  0  0
  2  3  1  0  0  0  0
  2  5  1  0  0  0  0
  3  4  1  0  0  0  0
  3 17  1  0  0  0  0
  5  6  1  0  0  0  0
  7  6  1  6  0  0  0
  7  8  1  0  0  0  0
  7  9  1  0  0  0  0
 10  9  1  6  0  0  0
 10 11  1  0  0  0  0
 10 12  1  0  0  0  0
 11 16  1  0  0  0  0
 12 13  1  6  0  0  0
 12 14  1  0  0  0  0
 14 15  1  1  0  0  0
 14 16  1  0  0  0  0
 16 27  1  6  0  0  0
 18 19  2  0  0  0  0
 18 23  1  0  0  0  0
 19 20  1  0  0  0  0
 20 21  2  0  0  0  0
 21 22  1  0  0  0  0
 21 27  1  0  0  0  0
 22 23  2  0  0  0  0
 22 25  1  0  0  0  0
 23 24  1  0  0  0  0
 25 26  2  0  0  0  0
 26 27  1  0  0  0  0
M  END
>  <CHROM.1>
-57.99557172,-77.47948902,71.22873529,-149.45542988,-69.72894727,64.50064793
176.18912670,48.38764422,55.32029715,29.59691771,2.48387038,-1.16456271,1.59156212

>  <Name>
ligand

>  <RI>
0

>  <Rbt.Current_Directory>
/home/itssahil/PROJECTS/Mol_Feturizer/New_Systems/rnas/3IQR

>  <Rbt.Executable>
rbdock ($Id: //depot/dev/client3/rdock/2013.1/src/exe/rbdock.cxx#4 $)

>  <Rbt.Library>
libRbt.so (2013.1, Build901 2013/11/27)

>  <Rbt.Parameter_File>
/export/apps/rDock/src/rDock_2013.1_src/data/scripts/dock_solv.prm

>  <Rbt.Receptor>
prm/pocket_docking_6.prm

>  <SCORE>
-20.652

>  <SCORE.INTER>
-15.6867

>  <SCORE.INTER.CONST>
1

>  <SCORE.INTER.POLAR>
0

>  <SCORE.INTER.ROT>
7

>  <SCORE.INTER.SOLV>
7.94491

>  <SCORE.INTER.VDW>
-21.3728

>  <SCORE.INTER.norm>
-0.580991

>  <SCORE.INTRA>
-4.9847

>  <SCORE.INTRA.DIHEDRAL>
-0.550661

>  <SCORE.INTRA.DIHEDRAL.0>
9.29433

>  <SCORE.INTRA.POLAR>
0

>  <SCORE.INTRA.POLAR.0>
0

>  <SCORE.INTRA.REPUL>
0

>  <SCORE.INTRA.REPUL.0>
0

>  <SCORE.INTRA.SOLV>
0.757013

>  <SCORE.INTRA.SOLV.lig_0>
-48.5102

>  <SCORE.INTRA.VDW>
-5.08788

>  <SCORE.INTRA.VDW.0>
0.379549

>  <SCORE.INTRA.norm>
-0.184619

>  <SCORE.RESTR>
0.0194846

>  <SCORE.RESTR.CAVITY>
0.0194846

>  <SCORE.RESTR.norm>
0.000721652

>  <SCORE.SYSTEM>
0

>  <SCORE.SYSTEM.CONST>
0

>  <SCORE.SYSTEM.DIHEDRAL>
0

>  <SCORE.SYSTEM.SOLV>
0

>  <SCORE.SYSTEM.norm>
0

>  <SCORE.heavy>
27

>  <SCORE.norm>
-0.764888

>  <RMSD>
5.494

$$$$
ligand
 OpenBabel11021811483D
libRbt.so/2013.1/901 2013/11/27
 27 29  0  0  0  0  0  0  0  0999 V2000
   45.5026   55.5979   27.8567 N   0  0  0  0  0  0  0  0  0  0  0  0
   46.2040   56.8454   27.5571 C   0  0  2  0  0  0  0  0  0  0  0  0
   47.3207   56.5672   26.5929 C   0  0  0  0  0  0  0  0  0  0  0  0
   48.2959   55.9177   26.9557 O   0  0  0  0  0  0  0  0  0  0  0  0
   46.7860   57.4470   28.8356 C   0  0  0  0  0  0  0  0  0  0  0  0
   45.7053   58.2489   29.5375 C   0  0  0  0  0  0  0  0  0  0  0  0
   46.1147   58.6874   31.2571 S   0  0  2  0  0  0  0  0  0  0  0  0
   45.4915   60.3829   31.4545 C   0  0  0  0  0  0  0  0  0  0  0  0
   47.8929   59.3266   31.1411 C   0  0  0  0  0  0  0  0  0  0  0  0
   49.0979   58.3347   31.4244 C   0  0  2  0  0  0  0  0  0  0  0  0
   49.2650   57.2227   30.5743 O   0  0  0  0  0  0  0  0  0  0  0  0
   49.4098   57.8983   32.7997 C   0  0  1  0  0  0  0  0  0  0  0  0
   48.8132   58.7341   33.7922 O   0  0  0  0  0  0  0  0  0  0  0  0
   48.7819   56.4303   32.6733 C   0  0  2  0  0  0  0  0  0  0  0  0
   49.1462   55.6399   33.7648 O   0  0  0  0  0  0  0  0  0  0  0  0
   49.4343   55.9652   31.3728 C   0  0  1  0  0  0  0  0  0  0  0  0
   47.2346   56.9552   25.4349 O   0  0  0  0  0  0  0  0  0  0  0  0
   50.5205   53.6263   26.9592 N   0  0  0  0  0  0  0  0  0  0  0  0
   51.0932   54.6739   27.5579 C   0  0  0  0  0  0  0  0  0  0  0  0
   50.6628   55.1141   28.7366 N   0  0  0  0  0  0  0  0  0  0  0  0
   49.5724   54.5947   29.3227 C   0  0  0  0  0  0  0  0  0  0  0  0
   48.8958   53.5154   28.6976 C   0  0  0  0  0  0  0  0  0  0  0  0
   49.4240   53.0312   27.4688 C   0  0  0  0  0  0  0  0  0  0  0  0
   48.8330   51.9747   26.8061 N   0  0  0  0  0  0  0  0  0  0  0  0
   47.8505   53.1934   29.4798 N   0  0  0  0  0  0  0  0  0  0  0  0
   47.8280   53.9835   30.5198 C   0  0  0  0  0  0  0  0  0  0  0  0
   48.8732   54.8635   30.4848 N   0  0  0  0  0  0  0  0  0  0  0  0
  2  1  1  1  0  0  0
  2  3  1  0  0  0  0
  2  5  1  0  0  0  0
  3  4  1  0  0  0  0
  3 17  1  0  0  0  0
  5  6  1  0  0  0  0
  7  6  1  6  0  0  0
  7  8  1  0  0  0  0
  7  9  1  0  0  0  0
 10  9  1  1  0  0  0
 10 11  1  0  0  0  0
 10 12  1  0  0  0  0
 11 16  1  0  0  0  0
 12 13  1  1  0  0  0
 12 14  1  0  0  0  0
 14 15  1  1  0  0  0
 14 16  1  0  0  0  0
 16 27  1  6  0  0  0
 18 19  2  0  0  0  0
 18 23  1  0  0  0  0
 19 20  1  0  0  0  0
 20 21  2  0  0  0  0
 21 22  1  0  0  0  0
 21 27  1  0  0  0  0
 22 23  2  0  0  0  0
 22 25  1  0  0  0  0
 23 24  1  0  0  0  0
 25 26  2  0  0  0  0
 26 27  1  0  0  0  0
M  END
>  <CHROM.1>
-68.77211831,-83.66129534,165.93281476,140.79749492,-94.98503051,62.66049649
66.83427695,48.17015106,56.29386375,29.70755543,1.24100952,0.81995420,-2.09549779

>  <Name>
ligand

>  <RI>
0

>  <Rbt.Current_Directory>
/home/itssahil/PROJECTS/Mol_Feturizer/New_Systems/rnas/3IQR

>  <Rbt.Executable>
rbdock ($Id: //depot/dev/client3/rdock/2013.1/src/exe/rbdock.cxx#4 $)

>  <Rbt.Library>
libRbt.so (2013.1, Build901 2013/11/27)

>  <Rbt.Parameter_File>
/export/apps/rDock/src/rDock_2013.1_src/data/scripts/dock_solv.prm

>  <Rbt.Receptor>
prm/pocket_docking_3.prm

>  <SCORE>
-20.6285

>  <SCORE.INTER>
-15.0696

>  <SCORE.INTER.CONST>
1

>  <SCORE.INTER.POLAR>
0

>  <SCORE.INTER.ROT>
7

>  <SCORE.INTER.SOLV>
13.1047

>  <SCORE.INTER.VDW>
-22.6813

>  <SCORE.INTER.norm>
-0.558133

>  <SCORE.INTRA>
-5.55889

>  <SCORE.INTRA.DIHEDRAL>
0.835888

>  <SCORE.INTRA.DIHEDRAL.0>
9.29433

>  <SCORE.INTRA.POLAR>
0

>  <SCORE.INTRA.POLAR.0>
0

>  <SCORE.INTRA.REPUL>
0

>  <SCORE.INTRA.REPUL.0>
0

>  <SCORE.INTRA.SOLV>
-0.703842

>  <SCORE.INTRA.SOLV.lig_0>
-48.5102

>  <SCORE.INTRA.VDW>
-5.62491

>  <SCORE.INTRA.VDW.0>
0.379549

>  <SCORE.INTRA.norm>
-0.205885

>  <SCORE.RESTR>
0

>  <SCORE.RESTR.CAVITY>
0

>  <SCORE.RESTR.norm>
0

>  <SCORE.SYSTEM>
0

>  <SCORE.SYSTEM.CONST>
0

>  <SCORE.SYSTEM.DIHEDRAL>
0

>  <SCORE.SYSTEM.SOLV>
0

>  <SCORE.SYSTEM.norm>
0

>  <SCORE.heavy>
27

>  <SCORE.norm>
-0.764017

>  <RMSD>
5.496

$$$$
ligand
 OpenBabel11021811483D
libRbt.so/2013.1/901 2013/11/27
 27 29  0  0  0  0  0  0  0  0999 V2000
   50.8883   53.4452   26.6767 N   0  0  0  0  0  0  0  0  0  0  0  0
   50.2117   52.9192   27.8613 C   0  0  2  0  0  0  0  0  0  0  0  0
   49.7376   51.5222   27.5825 C   0  0  0  0  0  0  0  0  0  0  0  0
   49.0892   50.9150   28.4283 O   0  0  0  0  0  0  0  0  0  0  0  0
   49.0097   53.7929   28.2175 C   0  0  0  0  0  0  0  0  0  0  0  0
   49.5030   55.1793   28.5896 C   0  0  0  0  0  0  0  0  0  0  0  0
   48.2072   56.2627   29.2707 S   0  0  2  0  0  0  0  0  0  0  0  0
   48.4104   57.8317   28.3767 C   0  0  0  0  0  0  0  0  0  0  0  0
   49.0152   57.0066   30.8127 C   0  0  0  0  0  0  0  0  0  0  0  0
   48.0990   57.6005   31.9633 C   0  0  2  0  0  0  0  0  0  0  0  0
   47.0084   56.8308   32.4165 O   0  0  0  0  0  0  0  0  0  0  0  0
   47.6695   59.0126   31.9338 C   0  0  1  0  0  0  0  0  0  0  0  0
   48.4557   59.8098   31.0475 O   0  0  0  0  0  0  0  0  0  0  0  0
   46.1659   58.7371   31.4555 C   0  0  2  0  0  0  0  0  0  0  0  0
   45.3893   59.8912   31.5731 O   0  0  0  0  0  0  0  0  0  0  0  0
   45.7562   57.6545   32.4522 C   0  0  1  0  0  0  0  0  0  0  0  0
   49.9651   51.0090   26.4944 O   0  0  0  0  0  0  0  0  0  0  0  0
   43.8331   53.4123   34.5585 N   0  0  0  0  0  0  0  0  0  0  0  0
   44.9223   54.1233   34.8621 C   0  0  0  0  0  0  0  0  0  0  0  0
   45.2328   55.2287   34.1913 N   0  0  0  0  0  0  0  0  0  0  0  0
   44.5278   55.6174   33.1171 C   0  0  0  0  0  0  0  0  0  0  0  0
   43.3933   54.8630   32.7209 C   0  0  0  0  0  0  0  0  0  0  0  0
   43.0564   53.7227   33.5018 C   0  0  0  0  0  0  0  0  0  0  0  0
   41.9589   52.9455   33.1915 N   0  0  0  0  0  0  0  0  0  0  0  0
   42.8800   55.4578   31.6297 N   0  0  0  0  0  0  0  0  0  0  0  0
   43.6038   56.5014   31.3241 C   0  0  0  0  0  0  0  0  0  0  0  0
   44.6301   56.6586   32.2131 N   0  0  0  0  0  0  0  0  0  0  0  0
  2  1  1  6  0  0  0
  2  3  1  0  0  0  0
  2  5  1  0  0  0  0
  3  4  1  0  0  0  0
  3 17  1  0  0  0  0
  5  6  1  0  0  0  0
  7  6  1  6  0  0  0
  7  8  1  0  0  0  0
  7  9  1  0  0  0  0
 10  9  1  6  0  0  0
 10 11  1  0  0  0  0
 10 12  1  0  0  0  0
 11 16  1  0  0  0  0
 12 13  1  6  0  0  0
 12 14  1  0  0  0  0
 14 15  1  1  0  0  0
 14 16  1  0  0  0  0
 16 27  1  6  0  0  0
 18 19  2  0  0  0  0
 18 23  1  0  0  0  0
 19 20  1  0  0  0  0
 20 21  2  0  0  0  0
 21 22  1  0  0  0  0
 21 27  1  0  0  0  0
 22 23  2  0  0  0  0
 22 25  1  0  0  0  0
 23 24  1  0  0  0  0
 25 26  2  0  0  0  0
 26 27  1  0  0  0  0
M  END
>  <CHROM.1>
-176.76878185,-63.73473503,-171.58546345,-132.93406034,-158.86849980,47.59697008
58.72677883,46.84214084,55.53924834,30.82979129,0.49492259,-0.70109952,-2.92442728

>  <Name>
ligand

>  <RI>
0

>  <Rbt.Current_Directory>
/home/itssahil/PROJECTS/Mol_Feturizer/New_Systems/rnas/3IQR

>  <Rbt.Executable>
rbdock ($Id: //depot/dev/client3/rdock/2013.1/src/exe/rbdock.cxx#4 $)

>  <Rbt.Library>
libRbt.so (2013.1, Build901 2013/11/27)

>  <Rbt.Parameter_File>
/export/apps/rDock/src/rDock_2013.1_src/data/scripts/dock_solv.prm

>  <Rbt.Receptor>
prm/pocket_docking_7.prm

>  <SCORE>
-17.3836

>  <SCORE.INTER>
-14.6808

>  <SCORE.INTER.CONST>
1

>  <SCORE.INTER.POLAR>
0

>  <SCORE.INTER.ROT>
7

>  <SCORE.INTER.SOLV>
8.57652

>  <SCORE.INTER.VDW>
-20.9127

>  <SCORE.INTER.norm>
-0.543733

>  <SCORE.INTRA>
-2.70283

>  <SCORE.INTRA.DIHEDRAL>
1.16047

>  <SCORE.INTRA.DIHEDRAL.0>
9.29433

>  <SCORE.INTRA.POLAR>
0

>  <SCORE.INTRA.POLAR.0>
0

>  <SCORE.INTRA.REPUL>
0

>  <SCORE.INTRA.REPUL.0>
0

>  <SCORE.INTRA.SOLV>
-0.810897

>  <SCORE.INTRA.SOLV.lig_0>
-48.5102

>  <SCORE.INTRA.VDW>
-2.87762

>  <SCORE.INTRA.VDW.0>
0.379549

>  <SCORE.INTRA.norm>
-0.100105

>  <SCORE.RESTR>
0

>  <SCORE.RESTR.CAVITY>
0

>  <SCORE.RESTR.norm>
0

>  <SCORE.SYSTEM>
0

>  <SCORE.SYSTEM.CONST>
0

>  <SCORE.SYSTEM.DIHEDRAL>
0

>  <SCORE.SYSTEM.SOLV>
0

>  <SCORE.SYSTEM.norm>
0

>  <SCORE.heavy>
27

>  <SCORE.norm>
-0.643838

>  <RMSD>
5.496

$$$$
ligand
 OpenBabel11021811483D
libRbt.so/2013.1/901 2013/11/27
 27 29  0  0  0  0  0  0  0  0999 V2000
   46.0286   55.0771   27.5020 N   0  0  0  0  0  0  0  0  0  0  0  0
   46.0763   56.5194   27.7372 C   0  0  2  0  0  0  0  0  0  0  0  0
   47.1468   57.1269   26.8774 C   0  0  0  0  0  0  0  0  0  0  0  0
   48.2853   56.6712   26.9029 O   0  0  0  0  0  0  0  0  0  0  0  0
   46.3908   56.8075   29.2046 C   0  0  0  0  0  0  0  0  0  0  0  0
   45.9920   58.2375   29.5209 C   0  0  0  0  0  0  0  0  0  0  0  0
   46.3036   58.7228   31.2484 S   0  0  2  0  0  0  0  0  0  0  0  0
   45.8290   60.4754   31.3208 C   0  0  0  0  0  0  0  0  0  0  0  0
   48.1376   59.1923   31.2540 C   0  0  0  0  0  0  0  0  0  0  0  0
   49.2243   58.0863   31.5886 C   0  0  2  0  0  0  0  0  0  0  0  0
   49.4355   57.0501   30.6564 O   0  0  0  0  0  0  0  0  0  0  0  0
   49.3127   57.4984   32.9398 C   0  0  1  0  0  0  0  0  0  0  0  0
   48.6394   58.2807   33.9267 O   0  0  0  0  0  0  0  0  0  0  0  0
   48.6144   56.1029   32.5787 C   0  0  2  0  0  0  0  0  0  0  0  0
   48.7710   55.1865   33.6201 O   0  0  0  0  0  0  0  0  0  0  0  0
   49.4099   55.7132   31.3344 C   0  0  1  0  0  0  0  0  0  0  0  0
   46.8689   58.0498   26.1223 O   0  0  0  0  0  0  0  0  0  0  0  0
   50.9030   53.7981   26.8362 N   0  0  0  0  0  0  0  0  0  0  0  0
   51.4489   54.7397   27.6105 C   0  0  0  0  0  0  0  0  0  0  0  0
   50.9023   55.0764   28.7750 N   0  0  0  0  0  0  0  0  0  0  0  0
   49.7267   54.5636   29.1714 C   0  0  0  0  0  0  0  0  0  0  0  0
   49.0794   53.5997   28.3558 C   0  0  0  0  0  0  0  0  0  0  0  0
   49.7269   53.2187   27.1479 C   0  0  0  0  0  0  0  0  0  0  0  0
   49.1701   52.2762   26.3074 N   0  0  0  0  0  0  0  0  0  0  0  0
   47.9345   53.2591   28.9732 N   0  0  0  0  0  0  0  0  0  0  0  0
   47.8253   53.9335   30.0865 C   0  0  0  0  0  0  0  0  0  0  0  0
   48.9075   54.7481   30.2697 N   0  0  0  0  0  0  0  0  0  0  0  0
  2  1  1  1  0  0  0
  2  3  1  0  0  0  0
  2  5  1  0  0  0  0
  3  4  1  0  0  0  0
  3 17  1  0  0  0  0
  5  6  1  0  0  0  0
  7  6  1  6  0  0  0
  7  8  1  0  0  0  0
  7  9  1  0  0  0  0
 10  9  1  6  0  0  0
 10 11  1  0  0  0  0
 10 12  1  0  0  0  0
 11 16  1  0  0  0  0
 12 13  1  1  0  0  0
 12 14  1  0  0  0  0
 14 15  1  1  0  0  0
 14 16  1  0  0  0  0
 16 27  1  6  0  0  0
 18 19  2  0  0  0  0
 18 23  1  0  0  0  0
 19 20  1  0  0  0  0
 20 21  2  0  0  0  0
 21 22  1  0  0  0  0
 21 27  1  0  0  0  0
 22 23  2  0  0  0  0
 22 25  1  0  0  0  0
 23 24  1  0  0  0  0
 25 26  2  0  0  0  0
 26 27  1  0  0  0  0
M  END
>  <CHROM.1>
-52.49512191,-161.58383876,179.72519188,176.98118833,-91.09694520,69.13402155
65.17954085,48.24569069,56.27208764,29.67153215,1.15280689,0.84059759,-2.01723941

>  <Name>
ligand

>  <RI>
0

>  <Rbt.Current_Directory>
/home/itssahil/PROJECTS/Mol_Feturizer/New_Systems/rnas/3IQR

>  <Rbt.Executable>
rbdock ($Id: //depot/dev/client3/rdock/2013.1/src/exe/rbdock.cxx#4 $)

>  <Rbt.Library>
libRbt.so (2013.1, Build901 2013/11/27)

>  <Rbt.Parameter_File>
/export/apps/rDock/src/rDock_2013.1_src/data/scripts/dock_solv.prm

>  <Rbt.Receptor>
prm/pocket_docking_4.prm

>  <SCORE>
-23.1398

>  <SCORE.INTER>
-15.7519

>  <SCORE.INTER.CONST>
1

>  <SCORE.INTER.POLAR>
0

>  <SCORE.INTER.ROT>
7

>  <SCORE.INTER.SOLV>
10.2694

>  <SCORE.INTER.VDW>
-22.1911

>  <SCORE.INTER.norm>
-0.583404

>  <SCORE.INTRA>
-7.3879

>  <SCORE.INTRA.DIHEDRAL>
-2.02487

>  <SCORE.INTRA.DIHEDRAL.0>
9.29433

>  <SCORE.INTRA.POLAR>
0

>  <SCORE.INTRA.POLAR.0>
0

>  <SCORE.INTRA.REPUL>
0

>  <SCORE.INTRA.REPUL.0>
0

>  <SCORE.INTRA.SOLV>
-0.141637

>  <SCORE.INTRA.SOLV.lig_0>
-48.5102

>  <SCORE.INTRA.VDW>
-6.30465

>  <SCORE.INTRA.VDW.0>
0.379549

>  <SCORE.INTRA.norm>
-0.273626

>  <SCORE.RESTR>
0

>  <SCORE.RESTR.CAVITY>
0

>  <SCORE.RESTR.norm>
0

>  <SCORE.SYSTEM>
0

>  <SCORE.SYSTEM.CONST>
0

>  <SCORE.SYSTEM.DIHEDRAL>
0

>  <SCORE.SYSTEM.SOLV>
0

>  <SCORE.SYSTEM.norm>
0

>  <SCORE.heavy>
27

>  <SCORE.norm>
-0.85703

>  <RMSD>
5.509

$$$$
ligand
 OpenBabel11021811483D
libRbt.so/2013.1/901 2013/11/27
 27 29  0  0  0  0  0  0  0  0999 V2000
   47.0356   52.5906   26.0758 N   0  0  0  0  0  0  0  0  0  0  0  0
   46.7929   53.2116   27.3771 C   0  0  2  0  0  0  0  0  0  0  0  0
   45.6702   52.4930   28.0680 C   0  0  0  0  0  0  0  0  0  0  0  0
   45.7123   52.3129   29.2805 O   0  0  0  0  0  0  0  0  0  0  0  0
   46.4120   54.6810   27.2009 C   0  0  0  0  0  0  0  0  0  0  0  0
   46.4445   55.3629   28.5566 C   0  0  0  0  0  0  0  0  0  0  0  0
   46.2983   57.1762   28.4712 S   0  0  2  0  0  0  0  0  0  0  0  0
   47.8751   57.7261   27.7546 C   0  0  0  0  0  0  0  0  0  0  0  0
   46.8500   57.7477   30.1896 C   0  0  0  0  0  0  0  0  0  0  0  0
   48.0654   57.0176   30.9010 C   0  0  2  0  0  0  0  0  0  0  0  0
   47.8532   55.7321   31.4392 O   0  0  0  0  0  0  0  0  0  0  0  0
   48.9495   57.7512   31.8279 C   0  0  1  0  0  0  0  0  0  0  0  0
   48.8396   59.1683   31.6895 O   0  0  0  0  0  0  0  0  0  0  0  0
   48.3406   57.1459   33.1800 C   0  0  2  0  0  0  0  0  0  0  0  0
   49.1508   57.4604   34.2725 O   0  0  0  0  0  0  0  0  0  0  0  0
   48.3637   55.6554   32.8468 C   0  0  1  0  0  0  0  0  0  0  0  0
   44.6962   52.1254   27.4236 O   0  0  0  0  0  0  0  0  0  0  0  0
   47.7299   53.5265   37.4508 N   0  0  0  0  0  0  0  0  0  0  0  0
   48.6517   54.3829   37.0025 C   0  0  0  0  0  0  0  0  0  0  0  0
   48.6189   54.8395   35.7541 N   0  0  0  0  0  0  0  0  0  0  0  0
   47.7254   54.3804   34.8636 C   0  0  0  0  0  0  0  0  0  0  0  0
   46.7593   53.4272   35.2777 C   0  0  0  0  0  0  0  0  0  0  0  0
   46.7873   53.0106   36.6375 C   0  0  0  0  0  0  0  0  0  0  0  0
   45.8721   52.0983   37.1224 N   0  0  0  0  0  0  0  0  0  0  0  0
   46.0012   53.1362   34.2060 N   0  0  0  0  0  0  0  0  0  0  0  0
   46.4235   53.8219   33.1774 C   0  0  0  0  0  0  0  0  0  0  0  0
   47.4796   54.6174   33.5238 N   0  0  0  0  0  0  0  0  0  0  0  0
  2  1  1  6  0  0  0
  2  3  1  0  0  0  0
  2  5  1  0  0  0  0
  3  4  1  0  0  0  0
  3 17  1  0  0  0  0
  5  6  1  0  0  0  0
  7  6  1  1  0  0  0
  7  8  1  0  0  0  0
  7  9  1  0  0  0  0
 10  9  1  1  0  0  0
 10 11  1  0  0  0  0
 10 12  1  0  0  0  0
 11 16  1  0  0  0  0
 12 13  1  1  0  0  0
 12 14  1  0  0  0  0
 14 15  1  1  0  0  0
 14 16  1  0  0  0  0
 16 27  1  1  0  0  0
 18 19  2  0  0  0  0
 18 23  1  0  0  0  0
 19 20  1  0  0  0  0
 20 21  2  0  0  0  0
 21 22  1  0  0  0  0
 21 27  1  0  0  0  0
 22 23  2  0  0  0  0
 22 25  1  0  0  0  0
 23 24  1  0  0  0  0
 25 26  2  0  0  0  0
 26 27  1  0  0  0  0
M  END
>  <CHROM.1>
142.27469480,-168.58888323,169.86686952,-70.29189766,39.19449352,-74.37682906
-178.37568260,47.19173684,55.05975236,31.65104080,1.91428222,-1.14604493
-1.18325684

>  <Name>
ligand

>  <RI>
0

>  <Rbt.Current_Directory>
/home/itssahil/PROJECTS/Mol_Feturizer/New_Systems/rnas/3IQR

>  <Rbt.Executable>
rbdock ($Id: //depot/dev/client3/rdock/2013.1/src/exe/rbdock.cxx#4 $)

>  <Rbt.Library>
libRbt.so (2013.1, Build901 2013/11/27)

>  <Rbt.Parameter_File>
/export/apps/rDock/src/rDock_2013.1_src/data/scripts/dock_solv.prm

>  <Rbt.Receptor>
prm/pocket_docking_7.prm

>  <SCORE>
-17.5851

>  <SCORE.INTER>
-12.1953

>  <SCORE.INTER.CONST>
1

>  <SCORE.INTER.POLAR>
0

>  <SCORE.INTER.ROT>
7

>  <SCORE.INTER.SOLV>
14.1771

>  <SCORE.INTER.VDW>
-21.1225

>  <SCORE.INTER.norm>
-0.451676

>  <SCORE.INTRA>
-5.39002

>  <SCORE.INTRA.DIHEDRAL>
-3.49856

>  <SCORE.INTRA.DIHEDRAL.0>
9.29433

>  <SCORE.INTRA.POLAR>
0

>  <SCORE.INTRA.POLAR.0>
0

>  <SCORE.INTRA.REPUL>
0

>  <SCORE.INTRA.REPUL.0>
0

>  <SCORE.INTRA.SOLV>
-1.65865

>  <SCORE.INTRA.SOLV.lig_0>
-48.5102

>  <SCORE.INTRA.VDW>
-2.81141

>  <SCORE.INTRA.VDW.0>
0.379549

>  <SCORE.INTRA.norm>
-0.19963

>  <SCORE.RESTR>
0.000138666

>  <SCORE.RESTR.CAVITY>
0.000138666

>  <SCORE.RESTR.norm>
5.13577e-06

>  <SCORE.SYSTEM>
0

>  <SCORE.SYSTEM.CONST>
0

>  <SCORE.SYSTEM.DIHEDRAL>
0

>  <SCORE.SYSTEM.SOLV>
0

>  <SCORE.SYSTEM.norm>
0

>  <SCORE.heavy>
27

>  <SCORE.norm>
-0.651301

>  <RMSD>
5.512

$$$$
ligand
 OpenBabel11021811483D
libRbt.so/2013.1/901 2013/11/27
 27 29  0  0  0  0  0  0  0  0999 V2000
   51.5038   51.8637   25.4754 N   0  0  0  0  0  0  0  0  0  0  0  0
   50.3854   51.2985   26.2287 C   0  0  2  0  0  0  0  0  0  0  0  0
   49.2392   51.0383   25.2945 C   0  0  0  0  0  0  0  0  0  0  0  0
   48.5705   51.9746   24.8694 O   0  0  0  0  0  0  0  0  0  0  0  0
   49.9324   52.2720   27.3161 C   0  0  0  0  0  0  0  0  0  0  0  0
   48.9282   51.5727   28.2142 C   0  0  0  0  0  0  0  0  0  0  0  0
   48.2030   52.6538   29.4878 S   0  0  2  0  0  0  0  0  0  0  0  0
   47.5188   54.0567   28.5573 C   0  0  0  0  0  0  0  0  0  0  0  0
   49.6659   53.7117   30.0579 C   0  0  0  0  0  0  0  0  0  0  0  0
   49.4377   54.8266   31.1629 C   0  0  2  0  0  0  0  0  0  0  0  0
   48.7531   54.4711   32.3428 O   0  0  0  0  0  0  0  0  0  0  0  0
   49.0045   56.1865   30.7859 C   0  0  1  0  0  0  0  0  0  0  0  0
   49.2068   56.4654   29.3999 O   0  0  0  0  0  0  0  0  0  0  0  0
   47.4759   56.0234   31.2355 C   0  0  2  0  0  0  0  0  0  0  0  0
   46.8266   57.2592   31.2412 O   0  0  0  0  0  0  0  0  0  0  0  0
   47.6637   55.4569   32.6415 C   0  0  1  0  0  0  0  0  0  0  0  0
   49.0020   49.8946   24.9274 O   0  0  0  0  0  0  0  0  0  0  0  0
   46.9887   53.2257   37.1909 N   0  0  0  0  0  0  0  0  0  0  0  0
   48.0573   53.8274   36.6618 C   0  0  0  0  0  0  0  0  0  0  0  0
   48.0113   54.3733   35.4501 N   0  0  0  0  0  0  0  0  0  0  0  0
   46.9275   54.2509   34.6674 C   0  0  0  0  0  0  0  0  0  0  0  0
   45.7853   53.5714   35.1644 C   0  0  0  0  0  0  0  0  0  0  0  0
   45.8510   53.0563   36.4887 C   0  0  0  0  0  0  0  0  0  0  0  0
   44.7770   52.3963   37.0508 N   0  0  0  0  0  0  0  0  0  0  0  0
   44.8572   53.5871   34.1916 N   0  0  0  0  0  0  0  0  0  0  0  0
   45.3349   54.2094   33.1471 C   0  0  0  0  0  0  0  0  0  0  0  0
   46.6059   54.6525   33.3841 N   0  0  0  0  0  0  0  0  0  0  0  0
  2  1  1  6  0  0  0
  2  3  1  0  0  0  0
  2  5  1  0  0  0  0
  3  4  1  0  0  0  0
  3 17  1  0  0  0  0
  5  6  1  0  0  0  0
  7  6  1  6  0  0  0
  7  8  1  0  0  0  0
  7  9  1  0  0  0  0
 10  9  1  6  0  0  0
 10 11  1  0  0  0  0
 10 12  1  0  0  0  0
 11 16  1  0  0  0  0
 12 13  1  6  0  0  0
 12 14  1  0  0  0  0
 14 15  1  1  0  0  0
 14 16  1  0  0  0  0
 16 27  1  6  0  0  0
 18 19  2  0  0  0  0
 18 23  1  0  0  0  0
 19 20  1  0  0  0  0
 20 21  2  0  0  0  0
 21 22  1  0  0  0  0
 21 27  1  0  0  0  0
 22 23  2  0  0  0  0
 22 25  1  0  0  0  0
 23 24  1  0  0  0  0
 25 26  2  0  0  0  0
 26 27  1  0  0  0  0
M  END
>  <CHROM.1>
-74.27938381,-171.09011038,-175.64753942,54.80768800,178.64420134,49.45962361
70.56100897,47.99182638,53.59661092,30.99166224,0.62811132,-1.17799650,-2.70315638

>  <Name>
ligand

>  <RI>
0

>  <Rbt.Current_Directory>
/home/itssahil/PROJECTS/Mol_Feturizer/New_Systems/rnas/3IQR

>  <Rbt.Executable>
rbdock ($Id: //depot/dev/client3/rdock/2013.1/src/exe/rbdock.cxx#4 $)

>  <Rbt.Library>
libRbt.so (2013.1, Build901 2013/11/27)

>  <Rbt.Parameter_File>
/export/apps/rDock/src/rDock_2013.1_src/data/scripts/dock_solv.prm

>  <Rbt.Receptor>
prm/pocket_docking_6.prm

>  <SCORE>
-15.7559

>  <SCORE.INTER>
-10.9399

>  <SCORE.INTER.CONST>
1

>  <SCORE.INTER.POLAR>
0

>  <SCORE.INTER.ROT>
7

>  <SCORE.INTER.SOLV>
10.6133

>  <SCORE.INTER.VDW>
-19.0977

>  <SCORE.INTER.norm>
-0.405182

>  <SCORE.INTRA>
-4.82133

>  <SCORE.INTRA.DIHEDRAL>
-4.46995

>  <SCORE.INTRA.DIHEDRAL.0>
9.29433

>  <SCORE.INTRA.POLAR>
0

>  <SCORE.INTRA.POLAR.0>
0

>  <SCORE.INTRA.REPUL>
0

>  <SCORE.INTRA.REPUL.0>
0

>  <SCORE.INTRA.SOLV>
-1.37449

>  <SCORE.INTRA.SOLV.lig_0>
-48.5102

>  <SCORE.INTRA.VDW>
-1.89911

>  <SCORE.INTRA.VDW.0>
0.379549

>  <SCORE.INTRA.norm>
-0.178568

>  <SCORE.RESTR>
0.00537657

>  <SCORE.RESTR.CAVITY>
0.00537657

>  <SCORE.RESTR.norm>
0.000199132

>  <SCORE.SYSTEM>
0

>  <SCORE.SYSTEM.CONST>
0

>  <SCORE.SYSTEM.DIHEDRAL>
0

>  <SCORE.SYSTEM.SOLV>
0

>  <SCORE.SYSTEM.norm>
0

>  <SCORE.heavy>
27

>  <SCORE.norm>
-0.583551

>  <RMSD>
5.515

$$$$
ligand
 OpenBabel11021811483D
libRbt.so/2013.1/901 2013/11/27
 27 29  0  0  0  0  0  0  0  0999 V2000
   46.9956   52.8618   28.9541 N   0  0  0  0  0  0  0  0  0  0  0  0
   48.4476   52.9935   28.8442 C   0  0  2  0  0  0  0  0  0  0  0  0
   49.0248   51.7067   28.3292 C   0  0  0  0  0  0  0  0  0  0  0  0
   48.7786   50.6515   28.9039 O   0  0  0  0  0  0  0  0  0  0  0  0
   49.0572   53.3027   30.2110 C   0  0  0  0  0  0  0  0  0  0  0  0
   48.6499   54.7052   30.6247 C   0  0  0  0  0  0  0  0  0  0  0  0
   49.3955   55.2550   32.1926 S   0  0  2  0  0  0  0  0  0  0  0  0
   48.1659   54.8198   33.4579 C   0  0  0  0  0  0  0  0  0  0  0  0
   48.9021   57.0794   32.3034 C   0  0  0  0  0  0  0  0  0  0  0  0
   47.3790   57.4869   32.1299 C   0  0  2  0  0  0  0  0  0  0  0  0
   46.6231   56.8452   31.1278 O   0  0  0  0  0  0  0  0  0  0  0  0
   46.9677   58.9043   32.1627 C   0  0  1  0  0  0  0  0  0  0  0  0
   47.9610   59.7536   32.7387 O   0  0  0  0  0  0  0  0  0  0  0  0
   46.7564   59.0707   30.5838 C   0  0  2  0  0  0  0  0  0  0  0  0
   46.1045   60.2709   30.2950 O   0  0  0  0  0  0  0  0  0  0  0  0
   45.8855   57.8497   30.2946 C   0  0  1  0  0  0  0  0  0  0  0  0
   49.7062   51.7104   27.3120 O   0  0  0  0  0  0  0  0  0  0  0  0
   48.8863   55.8500   26.6715 N   0  0  0  0  0  0  0  0  0  0  0  0
   49.1900   56.4839   27.8072 C   0  0  0  0  0  0  0  0  0  0  0  0
   48.2397   56.9092   28.6344 N   0  0  0  0  0  0  0  0  0  0  0  0
   46.9393   56.8154   28.3146 C   0  0  0  0  0  0  0  0  0  0  0  0
   46.5677   56.1991   27.0917 C   0  0  0  0  0  0  0  0  0  0  0  0
   47.6108   55.7001   26.2632 C   0  0  0  0  0  0  0  0  0  0  0  0
   47.3316   55.0737   25.0654 N   0  0  0  0  0  0  0  0  0  0  0  0
   45.2259   56.2400   27.0161 N   0  0  0  0  0  0  0  0  0  0  0  0
   44.7497   56.8307   28.0794 C   0  0  0  0  0  0  0  0  0  0  0  0
   45.7591   57.1989   28.9243 N   0  0  0  0  0  0  0  0  0  0  0  0
  2  1  1  1  0  0  0
  2  3  1  0  0  0  0
  2  5  1  0  0  0  0
  3  4  1  0  0  0  0
  3 17  1  0  0  0  0
  5  6  1  0  0  0  0
  7  6  1  6  0  0  0
  7  8  1  0  0  0  0
  7  9  1  0  0  0  0
 10  9  1  6  0  0  0
 10 11  1  0  0  0  0
 10 12  1  0  0  0  0
 11 16  1  0  0  0  0
 12 13  1  6  0  0  0
 12 14  1  0  0  0  0
 14 15  1  1  0  0  0
 14 16  1  0  0  0  0
 16 27  1  6  0  0  0
 18 19  2  0  0  0  0
 18 23  1  0  0  0  0
 19 20  1  0  0  0  0
 20 21  2  0  0  0  0
 21 22  1  0  0  0  0
 21 27  1  0  0  0  0
 22 23  2  0  0  0  0
 22 25  1  0  0  0  0
 23 24  1  0  0  0  0
 25 26  2  0  0  0  0
 26 27  1  0  0  0  0
M  END
>  <CHROM.1>
-54.31408304,-69.12609801,-176.22687487,-93.17763106,51.67079208,-41.43874990
-56.82015278,47.70857464,55.83085736,29.61247504,-1.11069848,-1.06384252
0.96511082

>  <Name>
ligand

>  <RI>
0

>  <Rbt.Current_Directory>
/home/itssahil/PROJECTS/Mol_Feturizer/New_Systems/rnas/3IQR

>  <Rbt.Executable>
rbdock ($Id: //depot/dev/client3/rdock/2013.1/src/exe/rbdock.cxx#4 $)

>  <Rbt.Library>
libRbt.so (2013.1, Build901 2013/11/27)

>  <Rbt.Parameter_File>
/export/apps/rDock/src/rDock_2013.1_src/data/scripts/dock_solv.prm

>  <Rbt.Receptor>
prm/pocket_docking_3.prm

>  <SCORE>
-18.9507

>  <SCORE.INTER>
-12.4706

>  <SCORE.INTER.CONST>
1

>  <SCORE.INTER.POLAR>
0

>  <SCORE.INTER.ROT>
7

>  <SCORE.INTER.SOLV>
13.2286

>  <SCORE.INTER.VDW>
-20.99

>  <SCORE.INTER.norm>
-0.461874

>  <SCORE.INTRA>
-6.4917

>  <SCORE.INTRA.DIHEDRAL>
-2.99303

>  <SCORE.INTRA.DIHEDRAL.0>
9.29433

>  <SCORE.INTRA.POLAR>
0

>  <SCORE.INTRA.POLAR.0>
0

>  <SCORE.INTRA.REPUL>
0

>  <SCORE.INTRA.REPUL.0>
0

>  <SCORE.INTRA.SOLV>
-0.741911

>  <SCORE.INTRA.SOLV.lig_0>
-48.5102

>  <SCORE.INTRA.VDW>
-4.62423

>  <SCORE.INTRA.VDW.0>
0.379549

>  <SCORE.INTRA.norm>
-0.240433

>  <SCORE.RESTR>
0.0115997

>  <SCORE.RESTR.CAVITY>
0.0115997

>  <SCORE.RESTR.norm>
0.00042962

>  <SCORE.SYSTEM>
0

>  <SCORE.SYSTEM.CONST>
0

>  <SCORE.SYSTEM.DIHEDRAL>
0

>  <SCORE.SYSTEM.SOLV>
0

>  <SCORE.SYSTEM.norm>
0

>  <SCORE.heavy>
27

>  <SCORE.norm>
-0.701878

>  <RMSD>
5.525

$$$$
ligand
 OpenBabel11021811483D
libRbt.so/2013.1/901 2013/11/27
 27 29  0  0  0  0  0  0  0  0999 V2000
   46.8112   55.2095   28.5847 N   0  0  0  0  0  0  0  0  0  0  0  0
   47.6556   56.2681   29.1362 C   0  0  2  0  0  0  0  0  0  0  0  0
   48.3563   56.9786   28.0144 C   0  0  0  0  0  0  0  0  0  0  0  0
   49.1576   56.3725   27.3110 O   0  0  0  0  0  0  0  0  0  0  0  0
   48.6998   55.6754   30.0816 C   0  0  0  0  0  0  0  0  0  0  0  0
   49.2864   56.7910   30.9273 C   0  0  0  0  0  0  0  0  0  0  0  0
   48.1741   57.3778   32.2445 S   0  0  2  0  0  0  0  0  0  0  0  0
   49.1375   58.6441   33.1223 C   0  0  0  0  0  0  0  0  0  0  0  0
   48.4630   56.1451   33.6518 C   0  0  0  0  0  0  0  0  0  0  0  0
   48.0423   54.6280   33.4579 C   0  0  2  0  0  0  0  0  0  0  0  0
   46.7741   54.3487   32.9093 O   0  0  0  0  0  0  0  0  0  0  0  0
   48.3029   53.6307   34.5146 C   0  0  1  0  0  0  0  0  0  0  0  0
   49.2700   54.0758   35.4666 O   0  0  0  0  0  0  0  0  0  0  0  0
   46.7987   53.5410   35.0573 C   0  0  2  0  0  0  0  0  0  0  0  0
   46.6502   52.4607   35.9291 O   0  0  0  0  0  0  0  0  0  0  0  0
   46.0460   53.3381   33.7438 C   0  0  1  0  0  0  0  0  0  0  0  0
   48.0938   58.1513   27.7799 O   0  0  0  0  0  0  0  0  0  0  0  0
   41.5026   52.0055   35.6705 N   0  0  0  0  0  0  0  0  0  0  0  0
   42.7275   51.5295   35.9092 C   0  0  0  0  0  0  0  0  0  0  0  0
   43.7962   52.0445   35.3084 N   0  0  0  0  0  0  0  0  0  0  0  0
   43.6801   52.9886   34.3611 C   0  0  0  0  0  0  0  0  0  0  0  0
   42.3933   53.4878   34.0323 C   0  0  0  0  0  0  0  0  0  0  0  0
   41.2807   52.9566   34.7420 C   0  0  0  0  0  0  0  0  0  0  0  0
   39.9980   53.4004   34.4918 N   0  0  0  0  0  0  0  0  0  0  0  0
   42.5573   54.4068   33.0646 N   0  0  0  0  0  0  0  0  0  0  0  0
   43.8265   54.5063   32.7721 C   0  0  0  0  0  0  0  0  0  0  0  0
   44.5718   53.6631   33.5477 N   0  0  0  0  0  0  0  0  0  0  0  0
  2  1  1  6  0  0  0
  2  3  1  0  0  0  0
  2  5  1  0  0  0  0
  3  4  1  0  0  0  0
  3 17  1  0  0  0  0
  5  6  1  0  0  0  0
  7  6  1  6  0  0  0
  7  8  1  0  0  0  0
  7  9  1  0  0  0  0
 10  9  1  1  0  0  0
 10 11  1  0  0  0  0
 10 12  1  0  0  0  0
 11 16  1  0  0  0  0
 12 13  1  1  0  0  0
 12 14  1  0  0  0  0
 14 15  1  1  0  0  0
 14 16  1  0  0  0  0
 16 27  1  1  0  0  0
 18 19  2  0  0  0  0
 18 23  1  0  0  0  0
 19 20  1  0  0  0  0
 20 21  2  0  0  0  0
 21 22  1  0  0  0  0
 21 27  1  0  0  0  0
 22 23  2  0  0  0  0
 22 25  1  0  0  0  0
 23 24  1  0  0  0  0
 25 26  2  0  0  0  0
 26 27  1  0  0  0  0
M  END
>  <CHROM.1>
-63.73916751,-164.04108611,74.89392760,177.94418723,-65.58418211,-46.09116741
-171.30880832,46.21483424,54.79729709,32.73945018,0.81564021,-0.29450801
-1.15889879

>  <Name>
ligand

>  <RI>
0

>  <Rbt.Current_Directory>
/home/itssahil/PROJECTS/Mol_Feturizer/New_Systems/rnas/3IQR

>  <Rbt.Executable>
rbdock ($Id: //depot/dev/client3/rdock/2013.1/src/exe/rbdock.cxx#4 $)

>  <Rbt.Library>
libRbt.so (2013.1, Build901 2013/11/27)

>  <Rbt.Parameter_File>
/export/apps/rDock/src/rDock_2013.1_src/data/scripts/dock_solv.prm

>  <Rbt.Receptor>
prm/pocket_docking_8.prm

>  <SCORE>
-20.0157

>  <SCORE.INTER>
-14.4444

>  <SCORE.INTER.CONST>
1

>  <SCORE.INTER.POLAR>
0

>  <SCORE.INTER.ROT>
7

>  <SCORE.INTER.SOLV>
7.34024

>  <SCORE.INTER.VDW>
-20.343

>  <SCORE.INTER.norm>
-0.534978

>  <SCORE.INTRA>
-5.57132

>  <SCORE.INTRA.DIHEDRAL>
-2.6942

>  <SCORE.INTRA.DIHEDRAL.0>
9.29433

>  <SCORE.INTRA.POLAR>
0

>  <SCORE.INTRA.POLAR.0>
0

>  <SCORE.INTRA.REPUL>
0

>  <SCORE.INTRA.REPUL.0>
0

>  <SCORE.INTRA.SOLV>
-1.50989

>  <SCORE.INTRA.SOLV.lig_0>
-48.5102

>  <SCORE.INTRA.VDW>
-3.46927

>  <SCORE.INTRA.VDW.0>
0.379549

>  <SCORE.INTRA.norm>
-0.206345

>  <SCORE.RESTR>
0

>  <SCORE.RESTR.CAVITY>
0

>  <SCORE.RESTR.norm>
0

>  <SCORE.SYSTEM>
0

>  <SCORE.SYSTEM.CONST>
0

>  <SCORE.SYSTEM.DIHEDRAL>
0

>  <SCORE.SYSTEM.SOLV>
0

>  <SCORE.SYSTEM.norm>
0

>  <SCORE.heavy>
27

>  <SCORE.norm>
-0.741323

>  <RMSD>
5.543

$$$$
ligand
 OpenBabel11021811483D
libRbt.so/2013.1/901 2013/11/27
 27 29  0  0  0  0  0  0  0  0999 V2000
   47.8291   57.1550   31.4505 N   0  0  0  0  0  0  0  0  0  0  0  0
   48.4932   57.0689   32.7503 C   0  0  2  0  0  0  0  0  0  0  0  0
   49.4049   58.2494   32.9206 C   0  0  0  0  0  0  0  0  0  0  0  0
   50.0208   58.6921   31.9567 O   0  0  0  0  0  0  0  0  0  0  0  0
   49.3163   55.7846   32.8414 C   0  0  0  0  0  0  0  0  0  0  0  0
   48.3756   54.6117   33.0494 C   0  0  0  0  0  0  0  0  0  0  0  0
   47.4375   54.6891   34.6084 S   0  0  2  0  0  0  0  0  0  0  0  0
   48.5792   54.0297   35.8590 C   0  0  0  0  0  0  0  0  0  0  0  0
   46.4539   53.0715   34.6157 C   0  0  0  0  0  0  0  0  0  0  0  0
   45.2743   52.8718   33.5742 C   0  0  2  0  0  0  0  0  0  0  0  0
   45.6046   52.5939   32.2322 O   0  0  0  0  0  0  0  0  0  0  0  0
   44.1084   53.7773   33.5705 C   0  0  1  0  0  0  0  0  0  0  0  0
   43.9866   54.5246   34.7814 O   0  0  0  0  0  0  0  0  0  0  0  0
   44.5393   54.6260   32.2824 C   0  0  2  0  0  0  0  0  0  0  0  0
   43.4877   55.4345   31.8473 O   0  0  0  0  0  0  0  0  0  0  0  0
   44.8505   53.4964   31.3025 C   0  0  1  0  0  0  0  0  0  0  0  0
   49.4986   58.7922   34.0141 O   0  0  0  0  0  0  0  0  0  0  0  0
   45.4354   56.5870   27.2730 N   0  0  0  0  0  0  0  0  0  0  0  0
   44.4923   56.5510   28.2181 C   0  0  0  0  0  0  0  0  0  0  0  0
   44.5431   55.6658   29.2090 N   0  0  0  0  0  0  0  0  0  0  0  0
   45.4813   54.7062   29.2435 C   0  0  0  0  0  0  0  0  0  0  0  0
   46.4737   54.6686   28.2302 C   0  0  0  0  0  0  0  0  0  0  0  0
   46.4227   55.6711   27.2222 C   0  0  0  0  0  0  0  0  0  0  0  0
   47.3605   55.7128   26.2104 N   0  0  0  0  0  0  0  0  0  0  0  0
   47.2750   53.6219   28.4952 N   0  0  0  0  0  0  0  0  0  0  0  0
   46.8551   53.0171   29.5742 C   0  0  0  0  0  0  0  0  0  0  0  0
   45.7567   53.6471   30.0887 N   0  0  0  0  0  0  0  0  0  0  0  0
  2  1  1  6  0  0  0
  2  3  1  0  0  0  0
  2  5  1  0  0  0  0
  3  4  1  0  0  0  0
  3 17  1  0  0  0  0
  5  6  1  0  0  0  0
  7  6  1  6  0  0  0
  7  8  1  0  0  0  0
  7  9  1  0  0  0  0
 10  9  1  6  0  0  0
 10 11  1  0  0  0  0
 10 12  1  0  0  0  0
 11 16  1  0  0  0  0
 12 13  1  1  0  0  0
 12 14  1  0  0  0  0
 14 15  1  6  0  0  0
 14 16  1  0  0  0  0
 16 27  1  6  0  0  0
 18 19  2  0  0  0  0
 18 23  1  0  0  0  0
 19 20  1  0  0  0  0
 20 21  2  0  0  0  0
 21 22  1  0  0  0  0
 21 27  1  0  0  0  0
 22 23  2  0  0  0  0
 22 25  1  0  0  0  0
 23 24  1  0  0  0  0
 25 26  2  0  0  0  0
 26 27  1  0  0  0  0
M  END
>  <CHROM.1>
-36.54391522,-75.21153575,-63.00883457,-82.49748176,-69.27168618,75.58732874
-162.73375680,46.62875791,55.15696968,31.63685519,-1.18567793,-0.71951230
-1.32297349

>  <Name>
ligand

>  <RI>
0

>  <Rbt.Current_Directory>
/home/itssahil/PROJECTS/Mol_Feturizer/New_Systems/rnas/3IQR

>  <Rbt.Executable>
rbdock ($Id: //depot/dev/client3/rdock/2013.1/src/exe/rbdock.cxx#4 $)

>  <Rbt.Library>
libRbt.so (2013.1, Build901 2013/11/27)

>  <Rbt.Parameter_File>
/export/apps/rDock/src/rDock_2013.1_src/data/scripts/dock_solv.prm

>  <Rbt.Receptor>
prm/pocket_docking_5.prm

>  <SCORE>
-17.8974

>  <SCORE.INTER>
-11.5497

>  <SCORE.INTER.CONST>
1

>  <SCORE.INTER.POLAR>
0

>  <SCORE.INTER.ROT>
7

>  <SCORE.INTER.SOLV>
10.6448

>  <SCORE.INTER.VDW>
-19.5147

>  <SCORE.INTER.norm>
-0.427766

>  <SCORE.INTRA>
-6.34777

>  <SCORE.INTRA.DIHEDRAL>
-3.34181

>  <SCORE.INTRA.DIHEDRAL.0>
9.29433

>  <SCORE.INTRA.POLAR>
0

>  <SCORE.INTRA.POLAR.0>
0

>  <SCORE.INTRA.REPUL>
0

>  <SCORE.INTRA.REPUL.0>
0

>  <SCORE.INTRA.SOLV>
-0.0776793

>  <SCORE.INTRA.SOLV.lig_0>
-48.5102

>  <SCORE.INTRA.VDW>
-4.63802

>  <SCORE.INTRA.VDW.0>
0.379549

>  <SCORE.INTRA.norm>
-0.235102

>  <SCORE.RESTR>
0

>  <SCORE.RESTR.CAVITY>
0

>  <SCORE.RESTR.norm>
0

>  <SCORE.SYSTEM>
0

>  <SCORE.SYSTEM.CONST>
0

>  <SCORE.SYSTEM.DIHEDRAL>
0

>  <SCORE.SYSTEM.SOLV>
0

>  <SCORE.SYSTEM.norm>
0

>  <SCORE.heavy>
27

>  <SCORE.norm>
-0.662868

>  <RMSD>
5.548

$$$$
ligand
 OpenBabel11021811483D
libRbt.so/2013.1/901 2013/11/27
 27 29  0  0  0  0  0  0  0  0999 V2000
   45.2683   52.1180   27.2632 N   0  0  0  0  0  0  0  0  0  0  0  0
   46.3773   52.8787   27.8371 C   0  0  2  0  0  0  0  0  0  0  0  0
   47.0677   52.0424   28.8753 C   0  0  0  0  0  0  0  0  0  0  0  0
   48.2910   51.9535   28.8761 O   0  0  0  0  0  0  0  0  0  0  0  0
   45.8599   54.1596   28.4905 C   0  0  0  0  0  0  0  0  0  0  0  0
   47.0441   55.0276   28.8756 C   0  0  0  0  0  0  0  0  0  0  0  0
   46.5903   56.7330   29.3254 S   0  0  2  0  0  0  0  0  0  0  0  0
   46.2322   57.5417   27.7380 C   0  0  0  0  0  0  0  0  0  0  0  0
   48.2578   57.6229   29.4324 C   0  0  0  0  0  0  0  0  0  0  0  0
   49.2458   57.2861   30.6267 C   0  0  2  0  0  0  0  0  0  0  0  0
   49.2785   55.9651   31.1178 O   0  0  0  0  0  0  0  0  0  0  0  0
   49.3730   58.1968   31.7816 C   0  0  1  0  0  0  0  0  0  0  0  0
   48.8597   59.5023   31.5137 O   0  0  0  0  0  0  0  0  0  0  0  0
   48.5088   57.3179   32.8044 C   0  0  2  0  0  0  0  0  0  0  0  0
   48.6466   57.7970   34.1084 O   0  0  0  0  0  0  0  0  0  0  0  0
   49.1649   55.9519   32.6126 C   0  0  1  0  0  0  0  0  0  0  0  0
   46.4085   51.4849   29.7434 O   0  0  0  0  0  0  0  0  0  0  0  0
   47.6225   53.2997   36.7014 N   0  0  0  0  0  0  0  0  0  0  0  0
   48.3087   54.4418   36.6075 C   0  0  0  0  0  0  0  0  0  0  0  0
   48.5883   54.9826   35.4253 N   0  0  0  0  0  0  0  0  0  0  0  0
   48.2876   54.3531   34.2784 C   0  0  0  0  0  0  0  0  0  0  0  0
   47.6071   53.1089   34.3270 C   0  0  0  0  0  0  0  0  0  0  0  0
   47.2694   52.5937   35.6092 C   0  0  0  0  0  0  0  0  0  0  0  0
   46.5938   51.3974   35.7412 N   0  0  0  0  0  0  0  0  0  0  0  0
   47.4356   52.6982   33.0582 N   0  0  0  0  0  0  0  0  0  0  0  0
   47.9557   53.5776   32.2441 C   0  0  0  0  0  0  0  0  0  0  0  0
   48.4873   54.6282   32.9382 N   0  0  0  0  0  0  0  0  0  0  0  0
  2  1  1  1  0  0  0
  2  3  1  0  0  0  0
  2  5  1  0  0  0  0
  3  4  1  0  0  0  0
  3 17  1  0  0  0  0
  5  6  1  0  0  0  0
  7  6  1  6  0  0  0
  7  8  1  0  0  0  0
  7  9  1  0  0  0  0
 10  9  1  1  0  0  0
 10 11  1  0  0  0  0
 10 12  1  0  0  0  0
 11 16  1  0  0  0  0
 12 13  1  6  0  0  0
 12 14  1  0  0  0  0
 14 15  1  1  0  0  0
 14 16  1  0  0  0  0
 16 27  1  6  0  0  0
 18 19  2  0  0  0  0
 18 23  1  0  0  0  0
 19 20  1  0  0  0  0
 20 21  2  0  0  0  0
 21 22  1  0  0  0  0
 21 27  1  0  0  0  0
 22 23  2  0  0  0  0
 22 25  1  0  0  0  0
 23 24  1  0  0  0  0
 25 26  2  0  0  0  0
 26 27  1  0  0  0  0
M  END
>  <CHROM.1>
132.65010927,-171.01995854,167.22464641,-75.49715816,-70.44701012,34.13267272
178.66613936,47.67409797,54.90188983,31.58408728,2.14084321,-1.22416647,-0.92467268

>  <Name>
ligand

>  <RI>
0

>  <Rbt.Current_Directory>
/home/itssahil/PROJECTS/Mol_Feturizer/New_Systems/rnas/3IQR

>  <Rbt.Executable>
rbdock ($Id: //depot/dev/client3/rdock/2013.1/src/exe/rbdock.cxx#4 $)

>  <Rbt.Library>
libRbt.so (2013.1, Build901 2013/11/27)

>  <Rbt.Parameter_File>
/export/apps/rDock/src/rDock_2013.1_src/data/scripts/dock_solv.prm

>  <Rbt.Receptor>
prm/pocket_docking_6.prm

>  <SCORE>
-16.6685

>  <SCORE.INTER>
-10.4748

>  <SCORE.INTER.CONST>
1

>  <SCORE.INTER.POLAR>
0

>  <SCORE.INTER.ROT>
7

>  <SCORE.INTER.SOLV>
23.241

>  <SCORE.INTER.VDW>
-22.9969

>  <SCORE.INTER.norm>
-0.387957

>  <SCORE.INTRA>
-6.20198

>  <SCORE.INTRA.DIHEDRAL>
-2.93302

>  <SCORE.INTRA.DIHEDRAL.0>
9.29433

>  <SCORE.INTRA.POLAR>
0

>  <SCORE.INTRA.POLAR.0>
0

>  <SCORE.INTRA.REPUL>
0

>  <SCORE.INTRA.REPUL.0>
0

>  <SCORE.INTRA.SOLV>
-1.60062

>  <SCORE.INTRA.SOLV.lig_0>
-48.5102

>  <SCORE.INTRA.VDW>
-3.93516

>  <SCORE.INTRA.VDW.0>
0.379549

>  <SCORE.INTRA.norm>
-0.229703

>  <SCORE.RESTR>
0.00835409

>  <SCORE.RESTR.CAVITY>
0.00835409

>  <SCORE.RESTR.norm>
0.000309411

>  <SCORE.SYSTEM>
0

>  <SCORE.SYSTEM.CONST>
0

>  <SCORE.SYSTEM.DIHEDRAL>
0

>  <SCORE.SYSTEM.SOLV>
0

>  <SCORE.SYSTEM.norm>
0

>  <SCORE.heavy>
27

>  <SCORE.norm>
-0.61735

>  <RMSD>
5.569

$$$$
ligand
 OpenBabel11021811483D
libRbt.so/2013.1/901 2013/11/27
 27 29  0  0  0  0  0  0  0  0999 V2000
   46.1000   55.6559   28.2884 N   0  0  0  0  0  0  0  0  0  0  0  0
   46.2153   57.0811   27.9825 C   0  0  2  0  0  0  0  0  0  0  0  0
   47.1945   57.2699   26.8601 C   0  0  0  0  0  0  0  0  0  0  0  0
   46.8807   57.9353   25.8787 O   0  0  0  0  0  0  0  0  0  0  0  0
   46.7070   57.8488   29.2089 C   0  0  0  0  0  0  0  0  0  0  0  0
   45.6781   57.7159   30.3168 C   0  0  0  0  0  0  0  0  0  0  0  0
   46.0751   58.6820   31.8087 S   0  0  2  0  0  0  0  0  0  0  0  0
   46.3809   60.3641   31.1929 C   0  0  0  0  0  0  0  0  0  0  0  0
   47.9329   58.4004   32.0389 C   0  0  0  0  0  0  0  0  0  0  0  0
   48.4609   56.9537   32.4188 C   0  0  2  0  0  0  0  0  0  0  0  0
   49.4496   56.3653   31.6040 O   0  0  0  0  0  0  0  0  0  0  0  0
   47.5219   55.8889   32.8235 C   0  0  1  0  0  0  0  0  0  0  0  0
   46.2422   56.3970   33.2026 O   0  0  0  0  0  0  0  0  0  0  0  0
   47.5555   55.0797   31.4418 C   0  0  2  0  0  0  0  0  0  0  0  0
   46.9419   53.8336   31.5824 O   0  0  0  0  0  0  0  0  0  0  0  0
   49.0637   54.9663   31.2281 C   0  0  1  0  0  0  0  0  0  0  0  0
   48.3185   56.7925   26.9475 O   0  0  0  0  0  0  0  0  0  0  0  0
   49.3959   51.3123   27.6688 N   0  0  0  0  0  0  0  0  0  0  0  0
   48.8362   51.3037   28.8815 C   0  0  0  0  0  0  0  0  0  0  0  0
   48.8400   52.3890   29.6500 N   0  0  0  0  0  0  0  0  0  0  0  0
   49.4960   53.5024   29.2863 C   0  0  0  0  0  0  0  0  0  0  0  0
   50.1538   53.5416   28.0297 C   0  0  0  0  0  0  0  0  0  0  0  0
   50.0735   52.3825   27.2089 C   0  0  0  0  0  0  0  0  0  0  0  0
   50.6733   52.3462   25.9664 N   0  0  0  0  0  0  0  0  0  0  0  0
   50.7280   54.7522   27.9177 N   0  0  0  0  0  0  0  0  0  0  0  0
   50.4833   55.4492   28.9951 C   0  0  0  0  0  0  0  0  0  0  0  0
   49.7170   54.7347   29.8729 N   0  0  0  0  0  0  0  0  0  0  0  0
  2  1  1  1  0  0  0
  2  3  1  0  0  0  0
  2  5  1  0  0  0  0
  3  4  1  0  0  0  0
  3 17  1  0  0  0  0
  5  6  1  0  0  0  0
  7  6  1  6  0  0  0
  7  8  1  0  0  0  0
  7  9  1  0  0  0  0
 10  9  1  6  0  0  0
 10 11  1  0  0  0  0
 10 12  1  0  0  0  0
 11 16  1  0  0  0  0
 12 13  1  6  0  0  0
 12 14  1  0  0  0  0
 14 15  1  1  0  0  0
 14 16  1  0  0  0  0
 16 27  1  6  0  0  0
 18 19  2  0  0  0  0
 18 23  1  0  0  0  0
 19 20  1  0  0  0  0
 20 21  2  0  0  0  0
 21 22  1  0  0  0  0
 21 27  1  0  0  0  0
 22 23  2  0  0  0  0
 22 25  1  0  0  0  0
 23 24  1  0  0  0  0
 25 26  2  0  0  0  0
 26 27  1  0  0  0  0
M  END
>  <CHROM.1>
128.68203411,-62.92649801,-175.89304273,52.15496598,-67.03235312,125.63134603
-179.13172238,48.03989463,55.73838717,29.70311935,2.75614791,-1.07383570
1.73413948

>  <Name>
ligand

>  <RI>
0

>  <Rbt.Current_Directory>
/home/itssahil/PROJECTS/Mol_Feturizer/New_Systems/rnas/3IQR

>  <Rbt.Executable>
rbdock ($Id: //depot/dev/client3/rdock/2013.1/src/exe/rbdock.cxx#4 $)

>  <Rbt.Library>
libRbt.so (2013.1, Build901 2013/11/27)

>  <Rbt.Parameter_File>
/export/apps/rDock/src/rDock_2013.1_src/data/scripts/dock_solv.prm

>  <Rbt.Receptor>
prm/pocket_docking_4.prm

>  <SCORE>
-19.3998

>  <SCORE.INTER>
-16.1458

>  <SCORE.INTER.CONST>
1

>  <SCORE.INTER.POLAR>
0

>  <SCORE.INTER.ROT>
7

>  <SCORE.INTER.SOLV>
7.35039

>  <SCORE.INTER.VDW>
-21.4807

>  <SCORE.INTER.norm>
-0.597994

>  <SCORE.INTRA>
-3.25395

>  <SCORE.INTRA.DIHEDRAL>
-1.28175

>  <SCORE.INTRA.DIHEDRAL.0>
9.29433

>  <SCORE.INTRA.POLAR>
0

>  <SCORE.INTRA.POLAR.0>
0

>  <SCORE.INTRA.REPUL>
0

>  <SCORE.INTRA.REPUL.0>
0

>  <SCORE.INTRA.SOLV>
1.01533

>  <SCORE.INTRA.SOLV.lig_0>
-48.5102

>  <SCORE.INTRA.VDW>
-3.12074

>  <SCORE.INTRA.VDW.0>
0.379549

>  <SCORE.INTRA.norm>
-0.120517

>  <SCORE.RESTR>
0

>  <SCORE.RESTR.CAVITY>
0

>  <SCORE.RESTR.norm>
0

>  <SCORE.SYSTEM>
0

>  <SCORE.SYSTEM.CONST>
0

>  <SCORE.SYSTEM.DIHEDRAL>
0

>  <SCORE.SYSTEM.SOLV>
0

>  <SCORE.SYSTEM.norm>
0

>  <SCORE.heavy>
27

>  <SCORE.norm>
-0.718511

>  <RMSD>
5.577

$$$$
ligand
 OpenBabel11021811483D
libRbt.so/2013.1/901 2013/11/27
 27 29  0  0  0  0  0  0  0  0999 V2000
   52.0958   54.8781   27.3612 N   0  0  0  0  0  0  0  0  0  0  0  0
   51.3092   53.8495   28.0403 C   0  0  2  0  0  0  0  0  0  0  0  0
   51.1791   52.6522   27.1437 C   0  0  0  0  0  0  0  0  0  0  0  0
   50.3387   51.7926   27.3876 O   0  0  0  0  0  0  0  0  0  0  0  0
   49.9148   54.3799   28.3709 C   0  0  0  0  0  0  0  0  0  0  0  0
   50.0397   55.4703   29.4194 C   0  0  0  0  0  0  0  0  0  0  0  0
   48.4476   56.2094   29.9049 S   0  0  2  0  0  0  0  0  0  0  0  0
   48.2244   57.6015   28.7583 C   0  0  0  0  0  0  0  0  0  0  0  0
   48.9176   57.3999   31.2998 C   0  0  0  0  0  0  0  0  0  0  0  0
   47.7774   58.0255   32.2080 C   0  0  2  0  0  0  0  0  0  0  0  0
   46.7040   57.2001   32.6003 O   0  0  0  0  0  0  0  0  0  0  0  0
   47.2294   59.3649   31.9167 C   0  0  1  0  0  0  0  0  0  0  0  0
   48.0707   60.1289   31.0518 O   0  0  0  0  0  0  0  0  0  0  0  0
   45.8543   58.8632   31.2666 C   0  0  2  0  0  0  0  0  0  0  0  0
   44.9655   59.9275   31.1046 O   0  0  0  0  0  0  0  0  0  0  0  0
   45.3916   57.8745   32.3351 C   0  0  1  0  0  0  0  0  0  0  0  0
   51.8854   52.5589   26.1481 O   0  0  0  0  0  0  0  0  0  0  0  0
   44.0074   53.4184   34.4225 N   0  0  0  0  0  0  0  0  0  0  0  0
   44.9836   54.2704   34.7467 C   0  0  0  0  0  0  0  0  0  0  0  0
   45.1584   55.4055   34.0765 N   0  0  0  0  0  0  0  0  0  0  0  0
   44.4331   55.6926   32.9840 C   0  0  0  0  0  0  0  0  0  0  0  0
   43.4199   54.7912   32.5665 C   0  0  0  0  0  0  0  0  0  0  0  0
   43.2211   53.6183   33.3464 C   0  0  0  0  0  0  0  0  0  0  0  0
   42.2457   52.6995   33.0158 N   0  0  0  0  0  0  0  0  0  0  0  0
   42.8572   55.3082   31.4602 N   0  0  0  0  0  0  0  0  0  0  0  0
   43.4411   56.4388   31.1649 C   0  0  0  0  0  0  0  0  0  0  0  0
   44.4156   56.7354   32.0762 N   0  0  0  0  0  0  0  0  0  0  0  0
  2  1  1  6  0  0  0
  2  3  1  0  0  0  0
  2  5  1  0  0  0  0
  3  4  1  0  0  0  0
  3 17  1  0  0  0  0
  5  6  1  0  0  0  0
  7  6  1  6  0  0  0
  7  8  1  0  0  0  0
  7  9  1  0  0  0  0
 10  9  1  6  0  0  0
 10 11  1  0  0  0  0
 10 12  1  0  0  0  0
 11 16  1  0  0  0  0
 12 13  1  6  0  0  0
 12 14  1  0  0  0  0
 14 15  1  1  0  0  0
 14 16  1  0  0  0  0
 16 27  1  6  0  0  0
 18 19  2  0  0  0  0
 18 23  1  0  0  0  0
 19 20  1  0  0  0  0
 20 21  2  0  0  0  0
 21 22  1  0  0  0  0
 21 27  1  0  0  0  0
 22 23  2  0  0  0  0
 22 25  1  0  0  0  0
 23 24  1  0  0  0  0
 25 26  2  0  0  0  0
 26 27  1  0  0  0  0
M  END
>  <CHROM.1>
-164.74902957,-67.38258562,179.54059791,-90.21707567,-167.26085588,40.11018388
47.98848464,47.06884331,55.85016911,30.84709738,-0.30110489,0.62659919,0.14021096

>  <Name>
ligand

>  <RI>
0

>  <Rbt.Current_Directory>
/home/itssahil/PROJECTS/Mol_Feturizer/New_Systems/rnas/3IQR

>  <Rbt.Executable>
rbdock ($Id: //depot/dev/client3/rdock/2013.1/src/exe/rbdock.cxx#4 $)

>  <Rbt.Library>
libRbt.so (2013.1, Build901 2013/11/27)

>  <Rbt.Parameter_File>
/export/apps/rDock/src/rDock_2013.1_src/data/scripts/dock_solv.prm

>  <Rbt.Receptor>
prm/pocket_docking_6.prm

>  <SCORE>
-19.6738

>  <SCORE.INTER>
-15.4857

>  <SCORE.INTER.CONST>
1

>  <SCORE.INTER.POLAR>
0

>  <SCORE.INTER.ROT>
7

>  <SCORE.INTER.SOLV>
14.9649

>  <SCORE.INTER.VDW>
-23.5787

>  <SCORE.INTER.norm>
-0.573543

>  <SCORE.INTRA>
-4.1944

>  <SCORE.INTRA.DIHEDRAL>
-2.3183

>  <SCORE.INTRA.DIHEDRAL.0>
9.29433

>  <SCORE.INTRA.POLAR>
0

>  <SCORE.INTRA.POLAR.0>
0

>  <SCORE.INTRA.REPUL>
0

>  <SCORE.INTRA.REPUL.0>
0

>  <SCORE.INTRA.SOLV>
-0.828767

>  <SCORE.INTRA.SOLV.lig_0>
-48.5102

>  <SCORE.INTRA.VDW>
-2.62087

>  <SCORE.INTRA.VDW.0>
0.379549

>  <SCORE.INTRA.norm>
-0.155348

>  <SCORE.RESTR>
0.00624849

>  <SCORE.RESTR.CAVITY>
0.00624849

>  <SCORE.RESTR.norm>
0.000231426

>  <SCORE.SYSTEM>
0

>  <SCORE.SYSTEM.CONST>
0

>  <SCORE.SYSTEM.DIHEDRAL>
0

>  <SCORE.SYSTEM.SOLV>
0

>  <SCORE.SYSTEM.norm>
0

>  <SCORE.heavy>
27

>  <SCORE.norm>
-0.72866

>  <RMSD>
5.579

$$$$
ligand
 OpenBabel11021811483D
libRbt.so/2013.1/901 2013/11/27
 27 29  0  0  0  0  0  0  0  0999 V2000
   45.0691   55.2643   29.7498 N   0  0  0  0  0  0  0  0  0  0  0  0
   45.5661   56.6136   29.4850 C   0  0  2  0  0  0  0  0  0  0  0  0
   46.0087   56.7071   28.0534 C   0  0  0  0  0  0  0  0  0  0  0  0
   46.3091   55.6899   27.4373 O   0  0  0  0  0  0  0  0  0  0  0  0
   46.7512   56.9307   30.3961 C   0  0  0  0  0  0  0  0  0  0  0  0
   46.2946   56.8521   31.8415 C   0  0  0  0  0  0  0  0  0  0  0  0
   47.4372   57.6445   33.0177 S   0  0  2  0  0  0  0  0  0  0  0  0
   47.8347   59.2459   32.2564 C   0  0  0  0  0  0  0  0  0  0  0  0
   49.1308   56.9590   32.5221 C   0  0  0  0  0  0  0  0  0  0  0  0
   49.4518   55.4245   32.7638 C   0  0  2  0  0  0  0  0  0  0  0  0
   49.4957   54.5647   31.6476 O   0  0  0  0  0  0  0  0  0  0  0  0
   48.8180   54.6859   33.8738 C   0  0  1  0  0  0  0  0  0  0  0  0
   48.2594   55.5505   34.8637 O   0  0  0  0  0  0  0  0  0  0  0  0
   47.7534   53.8899   32.9803 C   0  0  2  0  0  0  0  0  0  0  0  0
   47.1395   52.8800   33.7234 O   0  0  0  0  0  0  0  0  0  0  0  0
   48.6701   53.3371   31.8907 C   0  0  1  0  0  0  0  0  0  0  0  0
   46.0287   57.7956   27.4933 O   0  0  0  0  0  0  0  0  0  0  0  0
   50.5391   52.7064   27.1748 N   0  0  0  0  0  0  0  0  0  0  0  0
   51.1049   53.1948   28.2818 C   0  0  0  0  0  0  0  0  0  0  0  0
   50.4375   53.2484   29.4307 N   0  0  0  0  0  0  0  0  0  0  0  0
   49.1392   52.9147   29.5028 C   0  0  0  0  0  0  0  0  0  0  0  0
   48.4781   52.4421   28.3396 C   0  0  0  0  0  0  0  0  0  0  0  0
   49.2428   52.3393   27.1446 C   0  0  0  0  0  0  0  0  0  0  0  0
   48.6775   51.8741   25.9746 N   0  0  0  0  0  0  0  0  0  0  0  0
   47.2028   52.1877   28.6813 N   0  0  0  0  0  0  0  0  0  0  0  0
   47.0284   52.4688   29.9450 C   0  0  0  0  0  0  0  0  0  0  0  0
   48.1916   52.9118   30.5097 N   0  0  0  0  0  0  0  0  0  0  0  0
  2  1  1  1  0  0  0
  2  3  1  0  0  0  0
  2  5  1  0  0  0  0
  3  4  1  0  0  0  0
  3 17  1  0  0  0  0
  5  6  1  0  0  0  0
  7  6  1  6  0  0  0
  7  8  1  0  0  0  0
  7  9  1  0  0  0  0
 10  9  1  6  0  0  0
 10 11  1  0  0  0  0
 10 12  1  0  0  0  0
 11 16  1  0  0  0  0
 12 13  1  1  0  0  0
 12 14  1  0  0  0  0
 14 15  1  1  0  0  0
 14 16  1  0  0  0  0
 16 27  1  6  0  0  0
 18 19  2  0  0  0  0
 18 23  1  0  0  0  0
 19 20  1  0  0  0  0
 20 21  2  0  0  0  0
 21 22  1  0  0  0  0
 21 27  1  0  0  0  0
 22 23  2  0  0  0  0
 22 25  1  0  0  0  0
 23 24  1  0  0  0  0
 25 26  2  0  0  0  0
 26 27  1  0  0  0  0
M  END
>  <CHROM.1>
-22.36723645,-60.65243049,-163.79012835,46.35199989,-68.46004968,106.86347006
45.18867559,47.94546788,54.88345243,30.51116724,1.88833897,-0.98762488,1.19292227

>  <Name>
ligand

>  <RI>
0

>  <Rbt.Current_Directory>
/home/itssahil/PROJECTS/Mol_Feturizer/New_Systems/rnas/3IQR

>  <Rbt.Executable>
rbdock ($Id: //depot/dev/client3/rdock/2013.1/src/exe/rbdock.cxx#4 $)

>  <Rbt.Library>
libRbt.so (2013.1, Build901 2013/11/27)

>  <Rbt.Parameter_File>
/export/apps/rDock/src/rDock_2013.1_src/data/scripts/dock_solv.prm

>  <Rbt.Receptor>
prm/pocket_docking_4.prm

>  <SCORE>
-16.4224

>  <SCORE.INTER>
-12.8223

>  <SCORE.INTER.CONST>
1

>  <SCORE.INTER.POLAR>
0

>  <SCORE.INTER.ROT>
7

>  <SCORE.INTER.SOLV>
8.50704

>  <SCORE.INTER.VDW>
-19.6505

>  <SCORE.INTER.norm>
-0.4749

>  <SCORE.INTRA>
-3.60501

>  <SCORE.INTRA.DIHEDRAL>
-0.720696

>  <SCORE.INTRA.DIHEDRAL.0>
9.29433

>  <SCORE.INTRA.POLAR>
0

>  <SCORE.INTRA.POLAR.0>
0

>  <SCORE.INTRA.REPUL>
0

>  <SCORE.INTRA.REPUL.0>
0

>  <SCORE.INTRA.SOLV>
-0.00408593

>  <SCORE.INTRA.SOLV.lig_0>
-48.5102

>  <SCORE.INTRA.VDW>
-3.24262

>  <SCORE.INTRA.VDW.0>
0.379549

>  <SCORE.INTRA.norm>
-0.133519

>  <SCORE.RESTR>
0.00486168

>  <SCORE.RESTR.CAVITY>
0.00486168

>  <SCORE.RESTR.norm>
0.000180062

>  <SCORE.SYSTEM>
0

>  <SCORE.SYSTEM.CONST>
0

>  <SCORE.SYSTEM.DIHEDRAL>
0

>  <SCORE.SYSTEM.SOLV>
0

>  <SCORE.SYSTEM.norm>
0

>  <SCORE.heavy>
27

>  <SCORE.norm>
-0.608239

>  <RMSD>
5.598

$$$$
ligand
 OpenBabel11021811483D
libRbt.so/2013.1/901 2013/11/27
 27 29  0  0  0  0  0  0  0  0999 V2000
   50.9304   53.5402   21.9907 N   0  0  0  0  0  0  0  0  0  0  0  0
   49.5002   53.2818   22.1512 C   0  0  2  0  0  0  0  0  0  0  0  0
   48.7249   54.4846   21.6972 C   0  0  0  0  0  0  0  0  0  0  0  0
   48.8686   55.5588   22.2715 O   0  0  0  0  0  0  0  0  0  0  0  0
   49.1732   53.0008   23.6173 C   0  0  0  0  0  0  0  0  0  0  0  0
   47.7289   52.5456   23.7200 C   0  0  0  0  0  0  0  0  0  0  0  0
   47.1655   52.2669   25.4293 S   0  0  2  0  0  0  0  0  0  0  0  0
   45.3625   52.0880   25.2901 C   0  0  0  0  0  0  0  0  0  0  0  0
   46.9645   54.0173   26.1217 C   0  0  0  0  0  0  0  0  0  0  0  0
   48.2432   54.8057   26.6311 C   0  0  2  0  0  0  0  0  0  0  0  0
   48.9017   54.3399   27.7872 O   0  0  0  0  0  0  0  0  0  0  0  0
   48.2538   56.2813   26.6732 C   0  0  1  0  0  0  0  0  0  0  0  0
   47.2223   56.8632   25.8752 O   0  0  0  0  0  0  0  0  0  0  0  0
   48.0560   56.4211   28.2564 C   0  0  2  0  0  0  0  0  0  0  0  0
   48.2791   57.7359   28.6694 O   0  0  0  0  0  0  0  0  0  0  0  0
   49.1369   55.4626   28.7525 C   0  0  1  0  0  0  0  0  0  0  0  0
   47.9819   54.3984   20.7278 O   0  0  0  0  0  0  0  0  0  0  0  0
   49.0473   56.7996   33.6856 N   0  0  0  0  0  0  0  0  0  0  0  0
   49.1528   57.5416   32.5800 C   0  0  0  0  0  0  0  0  0  0  0  0
   49.1299   56.9858   31.3722 N   0  0  0  0  0  0  0  0  0  0  0  0
   49.1072   55.6528   31.2149 C   0  0  0  0  0  0  0  0  0  0  0  0
   49.0508   54.8192   32.3618 C   0  0  0  0  0  0  0  0  0  0  0  0
   49.0131   55.4534   33.6346 C   0  0  0  0  0  0  0  0  0  0  0  0
   48.9422   54.7135   34.7975 N   0  0  0  0  0  0  0  0  0  0  0  0
   49.0434   53.5460   31.9294 N   0  0  0  0  0  0  0  0  0  0  0  0
   49.0962   53.5313   30.6243 C   0  0  0  0  0  0  0  0  0  0  0  0
   49.1262   54.8031   30.1244 N   0  0  0  0  0  0  0  0  0  0  0  0
  2  1  1  1  0  0  0
  2  3  1  0  0  0  0
  2  5  1  0  0  0  0
  3  4  1  0  0  0  0
  3 17  1  0  0  0  0
  5  6  1  0  0  0  0
  7  6  1  6  0  0  0
  7  8  1  0  0  0  0
  7  9  1  0  0  0  0
 10  9  1  1  0  0  0
 10 11  1  0  0  0  0
 10 12  1  0  0  0  0
 11 16  1  0  0  0  0
 12 13  1  6  0  0  0
 12 14  1  0  0  0  0
 14 15  1  1  0  0  0
 14 16  1  0  0  0  0
 16 27  1  1  0  0  0
 18 19  2  0  0  0  0
 18 23  1  0  0  0  0
 19 20  1  0  0  0  0
 20 21  2  0  0  0  0
 21 22  1  0  0  0  0
 21 27  1  0  0  0  0
 22 23  2  0  0  0  0
 22 25  1  0  0  0  0
 23 24  1  0  0  0  0
 25 26  2  0  0  0  0
 26 27  1  0  0  0  0
M  END
>  <CHROM.1>
-62.06891327,-172.05664790,-176.58033668,168.33579747,-80.52529609,-67.84551663
-169.87954776,48.46683844,54.72907986,27.45794309,-1.82822817,1.31657945
1.61876318

>  <Name>
ligand

>  <RI>
0

>  <Rbt.Current_Directory>
/home/itssahil/PROJECTS/Mol_Feturizer/New_Systems/rnas/3IQR

>  <Rbt.Executable>
rbdock ($Id: //depot/dev/client3/rdock/2013.1/src/exe/rbdock.cxx#4 $)

>  <Rbt.Library>
libRbt.so (2013.1, Build901 2013/11/27)

>  <Rbt.Parameter_File>
/export/apps/rDock/src/rDock_2013.1_src/data/scripts/dock_solv.prm

>  <Rbt.Receptor>
prm/pocket_docking_8.prm

>  <SCORE>
-18.3444

>  <SCORE.INTER>
-12.1362

>  <SCORE.INTER.CONST>
1

>  <SCORE.INTER.POLAR>
0

>  <SCORE.INTER.ROT>
7

>  <SCORE.INTER.SOLV>
14.4961

>  <SCORE.INTER.VDW>
-21.1895

>  <SCORE.INTER.norm>
-0.449488

>  <SCORE.INTRA>
-6.22637

>  <SCORE.INTRA.DIHEDRAL>
-4.39065

>  <SCORE.INTRA.DIHEDRAL.0>
9.29433

>  <SCORE.INTRA.POLAR>
0

>  <SCORE.INTRA.POLAR.0>
0

>  <SCORE.INTRA.REPUL>
0

>  <SCORE.INTRA.REPUL.0>
0

>  <SCORE.INTRA.SOLV>
-1.80285

>  <SCORE.INTRA.SOLV.lig_0>
-48.5102

>  <SCORE.INTRA.VDW>
-3.12962

>  <SCORE.INTRA.VDW.0>
0.379549

>  <SCORE.INTRA.norm>
-0.230606

>  <SCORE.RESTR>
0.0181922

>  <SCORE.RESTR.CAVITY>
0.0181922

>  <SCORE.RESTR.norm>
0.000673786

>  <SCORE.SYSTEM>
0

>  <SCORE.SYSTEM.CONST>
0

>  <SCORE.SYSTEM.DIHEDRAL>
0

>  <SCORE.SYSTEM.SOLV>
0

>  <SCORE.SYSTEM.norm>
0

>  <SCORE.heavy>
27

>  <SCORE.norm>
-0.679421

>  <RMSD>
5.598

$$$$
ligand
 OpenBabel11021811483D
libRbt.so/2013.1/901 2013/11/27
 27 29  0  0  0  0  0  0  0  0999 V2000
   48.0889   52.9847   25.7767 N   0  0  0  0  0  0  0  0  0  0  0  0
   49.1781   53.3738   26.6712 C   0  0  2  0  0  0  0  0  0  0  0  0
   49.8648   52.1404   27.1822 C   0  0  0  0  0  0  0  0  0  0  0  0
   49.2251   51.2926   27.7958 O   0  0  0  0  0  0  0  0  0  0  0  0
   48.6326   54.1692   27.8566 C   0  0  0  0  0  0  0  0  0  0  0  0
   47.9869   55.4417   27.3390 C   0  0  0  0  0  0  0  0  0  0  0  0
   46.9887   56.3188   28.5844 S   0  0  2  0  0  0  0  0  0  0  0  0
   46.2829   57.7328   27.6873 C   0  0  0  0  0  0  0  0  0  0  0  0
   48.2408   57.4526   29.4391 C   0  0  0  0  0  0  0  0  0  0  0  0
   47.9227   58.0128   30.8886 C   0  0  2  0  0  0  0  0  0  0  0  0
   47.7679   57.0916   31.9444 O   0  0  0  0  0  0  0  0  0  0  0  0
   46.9289   59.0872   31.0820 C   0  0  1  0  0  0  0  0  0  0  0  0
   46.6284   59.7847   29.8726 O   0  0  0  0  0  0  0  0  0  0  0  0
   45.7554   58.1528   31.6433 C   0  0  2  0  0  0  0  0  0  0  0  0
   44.7201   58.9236   32.1753 O   0  0  0  0  0  0  0  0  0  0  0  0
   46.5148   57.3757   32.7169 C   0  0  1  0  0  0  0  0  0  0  0  0
   51.0539   51.9657   26.9482 O   0  0  0  0  0  0  0  0  0  0  0  0
   48.4462   53.4762   35.3991 N   0  0  0  0  0  0  0  0  0  0  0  0
   49.0258   54.5797   34.9192 C   0  0  0  0  0  0  0  0  0  0  0  0
   48.3234   55.4952   34.2583 N   0  0  0  0  0  0  0  0  0  0  0  0
   47.0305   55.3009   33.9538 C   0  0  0  0  0  0  0  0  0  0  0  0
   46.3838   54.1172   34.3941 C   0  0  0  0  0  0  0  0  0  0  0  0
   47.1523   53.1912   35.1528 C   0  0  0  0  0  0  0  0  0  0  0  0
   46.5927   52.0236   35.6308 N   0  0  0  0  0  0  0  0  0  0  0  0
   45.1136   54.1702   33.9564 N   0  0  0  0  0  0  0  0  0  0  0  0
   44.9324   55.2760   33.2850 C   0  0  0  0  0  0  0  0  0  0  0  0
   46.0776   56.0217   33.2581 N   0  0  0  0  0  0  0  0  0  0  0  0
  2  1  1  6  0  0  0
  2  3  1  0  0  0  0
  2  5  1  0  0  0  0
  3  4  1  0  0  0  0
  3 17  1  0  0  0  0
  5  6  1  0  0  0  0
  7  6  1  6  0  0  0
  7  8  1  0  0  0  0
  7  9  1  0  0  0  0
 10  9  1  6  0  0  0
 10 11  1  0  0  0  0
 10 12  1  0  0  0  0
 11 16  1  0  0  0  0
 12 13  1  6  0  0  0
 12 14  1  0  0  0  0
 14 15  1  1  0  0  0
 14 16  1  0  0  0  0
 16 27  1  6  0  0  0
 18 19  2  0  0  0  0
 18 23  1  0  0  0  0
 19 20  1  0  0  0  0
 20 21  2  0  0  0  0
 21 22  1  0  0  0  0
 21 27  1  0  0  0  0
 22 23  2  0  0  0  0
 22 25  1  0  0  0  0
 23 24  1  0  0  0  0
 25 26  2  0  0  0  0
 26 27  1  0  0  0  0
M  END
>  <CHROM.1>
-58.15924848,-62.13247184,167.79943798,-177.38888005,-158.85169168,62.00417142
52.37190502,47.43023495,55.44584199,30.88718976,-0.75719848,-1.14137065,2.08456270

>  <Name>
ligand

>  <RI>
0

>  <Rbt.Current_Directory>
/home/itssahil/PROJECTS/Mol_Feturizer/New_Systems/rnas/3IQR

>  <Rbt.Executable>
rbdock ($Id: //depot/dev/client3/rdock/2013.1/src/exe/rbdock.cxx#4 $)

>  <Rbt.Library>
libRbt.so (2013.1, Build901 2013/11/27)

>  <Rbt.Parameter_File>
/export/apps/rDock/src/rDock_2013.1_src/data/scripts/dock_solv.prm

>  <Rbt.Receptor>
prm/pocket_docking_4.prm

>  <SCORE>
-12.9261

>  <SCORE.INTER>
-8.60684

>  <SCORE.INTER.CONST>
1

>  <SCORE.INTER.POLAR>
0

>  <SCORE.INTER.ROT>
7

>  <SCORE.INTER.SOLV>
13.781

>  <SCORE.INTER.VDW>
-18.5982

>  <SCORE.INTER.norm>
-0.318772

>  <SCORE.INTRA>
-4.35

>  <SCORE.INTRA.DIHEDRAL>
-2.13866

>  <SCORE.INTRA.DIHEDRAL.0>
9.29433

>  <SCORE.INTRA.POLAR>
0

>  <SCORE.INTRA.POLAR.0>
0

>  <SCORE.INTRA.REPUL>
0

>  <SCORE.INTRA.REPUL.0>
0

>  <SCORE.INTRA.SOLV>
-0.655202

>  <SCORE.INTRA.SOLV.lig_0>
-48.5102

>  <SCORE.INTRA.VDW>
-2.95307

>  <SCORE.INTRA.VDW.0>
0.379549

>  <SCORE.INTRA.norm>
-0.161111

>  <SCORE.RESTR>
0.0307683

>  <SCORE.RESTR.CAVITY>
0.0307683

>  <SCORE.RESTR.norm>
0.00113957

>  <SCORE.SYSTEM>
0

>  <SCORE.SYSTEM.CONST>
0

>  <SCORE.SYSTEM.DIHEDRAL>
0

>  <SCORE.SYSTEM.SOLV>
0

>  <SCORE.SYSTEM.norm>
0

>  <SCORE.heavy>
27

>  <SCORE.norm>
-0.478743

>  <RMSD>
5.614

$$$$
ligand
 OpenBabel11021811483D
libRbt.so/2013.1/901 2013/11/27
 27 29  0  0  0  0  0  0  0  0999 V2000
   51.0946   54.0193   25.3298 N   0  0  0  0  0  0  0  0  0  0  0  0
   51.1878   52.9231   26.2929 C   0  0  2  0  0  0  0  0  0  0  0  0
   51.7575   51.7121   25.6124 C   0  0  0  0  0  0  0  0  0  0  0  0
   51.9756   51.7332   24.4056 O   0  0  0  0  0  0  0  0  0  0  0  0
   49.8038   52.5818   26.8437 C   0  0  0  0  0  0  0  0  0  0  0  0
   49.2256   53.8131   27.5170 C   0  0  0  0  0  0  0  0  0  0  0  0
   50.0811   54.2801   29.0554 S   0  0  2  0  0  0  0  0  0  0  0  0
   49.3881   53.1697   30.3159 C   0  0  0  0  0  0  0  0  0  0  0  0
   49.0475   55.7208   29.7188 C   0  0  0  0  0  0  0  0  0  0  0  0
   49.3013   56.2483   31.1930 C   0  0  2  0  0  0  0  0  0  0  0  0
   48.8173   55.4814   32.2723 O   0  0  0  0  0  0  0  0  0  0  0  0
   49.1035   57.6718   31.5306 C   0  0  1  0  0  0  0  0  0  0  0  0
   49.0679   58.5124   30.3766 O   0  0  0  0  0  0  0  0  0  0  0  0
   47.7039   57.4882   32.2873 C   0  0  2  0  0  0  0  0  0  0  0  0
   47.3529   58.6544   32.9697 O   0  0  0  0  0  0  0  0  0  0  0  0
   48.0535   56.3414   33.2339 C   0  0  1  0  0  0  0  0  0  0  0  0
   52.0412   50.7210   26.2729 O   0  0  0  0  0  0  0  0  0  0  0  0
   47.7251   52.9295   37.0262 N   0  0  0  0  0  0  0  0  0  0  0  0
   48.7717   53.6076   36.5479 C   0  0  0  0  0  0  0  0  0  0  0  0
   48.6317   54.4806   35.5547 N   0  0  0  0  0  0  0  0  0  0  0  0
   47.4585   54.6392   34.9218 C   0  0  0  0  0  0  0  0  0  0  0  0
   46.3288   53.8994   35.3576 C   0  0  0  0  0  0  0  0  0  0  0  0
   46.5039   53.0225   36.4639 C   0  0  0  0  0  0  0  0  0  0  0  0
   45.4509   52.2795   36.9579 N   0  0  0  0  0  0  0  0  0  0  0  0
   45.2993   54.2376   34.5617 N   0  0  0  0  0  0  0  0  0  0  0  0
   45.7032   55.1112   33.6784 C   0  0  0  0  0  0  0  0  0  0  0  0
   47.0255   55.4076   33.8570 N   0  0  0  0  0  0  0  0  0  0  0  0
  2  1  1  6  0  0  0
  2  3  1  0  0  0  0
  2  5  1  0  0  0  0
  3  4  1  0  0  0  0
  3 17  1  0  0  0  0
  5  6  1  0  0  0  0
  7  6  1  6  0  0  0
  7  8  1  0  0  0  0
  7  9  1  0  0  0  0
 10  9  1  6  0  0  0
 10 11  1  0  0  0  0
 10 12  1  0  0  0  0
 11 16  1  0  0  0  0
 12 13  1  6  0  0  0
 12 14  1  0  0  0  0
 14 15  1  1  0  0  0
 14 16  1  0  0  0  0
 16 27  1  6  0  0  0
 18 19  2  0  0  0  0
 18 23  1  0  0  0  0
 19 20  1  0  0  0  0
 20 21  2  0  0  0  0
 21 22  1  0  0  0  0
 21 27  1  0  0  0  0
 22 23  2  0  0  0  0
 22 25  1  0  0  0  0
 23 24  1  0  0  0  0
 25 26  2  0  0  0  0
 26 27  1  0  0  0  0
M  END
>  <CHROM.1>
-4.88700461,-59.32561252,-69.08947015,-80.66213657,168.70861663,-75.48435665
83.52682097,48.78368258,54.47529288,31.25178145,0.05527426,1.15121255,-0.25753456

>  <Name>
ligand

>  <RI>
0

>  <Rbt.Current_Directory>
/home/itssahil/PROJECTS/Mol_Feturizer/New_Systems/rnas/3IQR

>  <Rbt.Executable>
rbdock ($Id: //depot/dev/client3/rdock/2013.1/src/exe/rbdock.cxx#4 $)

>  <Rbt.Library>
libRbt.so (2013.1, Build901 2013/11/27)

>  <Rbt.Parameter_File>
/export/apps/rDock/src/rDock_2013.1_src/data/scripts/dock_solv.prm

>  <Rbt.Receptor>
prm/pocket_docking_6.prm

>  <SCORE>
-17.3691

>  <SCORE.INTER>
-12.9256

>  <SCORE.INTER.CONST>
1

>  <SCORE.INTER.POLAR>
0

>  <SCORE.INTER.ROT>
7

>  <SCORE.INTER.SOLV>
13.861

>  <SCORE.INTER.VDW>
-21.5041

>  <SCORE.INTER.norm>
-0.478726

>  <SCORE.INTRA>
-4.44354

>  <SCORE.INTRA.DIHEDRAL>
-4.17791

>  <SCORE.INTRA.DIHEDRAL.0>
9.29433

>  <SCORE.INTRA.POLAR>
0

>  <SCORE.INTRA.POLAR.0>
0

>  <SCORE.INTRA.REPUL>
0

>  <SCORE.INTRA.REPUL.0>
0

>  <SCORE.INTRA.SOLV>
-0.556334

>  <SCORE.INTRA.SOLV.lig_0>
-48.5102

>  <SCORE.INTRA.VDW>
-2.07641

>  <SCORE.INTRA.VDW.0>
0.379549

>  <SCORE.INTRA.norm>
-0.164575

>  <SCORE.RESTR>
0

>  <SCORE.RESTR.CAVITY>
0

>  <SCORE.RESTR.norm>
0

>  <SCORE.SYSTEM>
0

>  <SCORE.SYSTEM.CONST>
0

>  <SCORE.SYSTEM.DIHEDRAL>
0

>  <SCORE.SYSTEM.SOLV>
0

>  <SCORE.SYSTEM.norm>
0

>  <SCORE.heavy>
27

>  <SCORE.norm>
-0.643301

>  <RMSD>
5.615

$$$$
ligand
 OpenBabel11021811483D
libRbt.so/2013.1/901 2013/11/27
 27 29  0  0  0  0  0  0  0  0999 V2000
   47.2296   56.2503   27.3837 N   0  0  0  0  0  0  0  0  0  0  0  0
   46.2996   55.9497   28.4712 C   0  0  2  0  0  0  0  0  0  0  0  0
   45.6362   54.6293   28.2057 C   0  0  0  0  0  0  0  0  0  0  0  0
   45.8514   54.0360   27.1540 O   0  0  0  0  0  0  0  0  0  0  0  0
   45.2291   57.0358   28.5693 C   0  0  0  0  0  0  0  0  0  0  0  0
   45.8742   58.3184   29.0622 C   0  0  0  0  0  0  0  0  0  0  0  0
   46.0316   58.4132   30.8741 S   0  0  2  0  0  0  0  0  0  0  0  0
   45.2266   59.9805   31.3188 C   0  0  0  0  0  0  0  0  0  0  0  0
   47.7399   59.1873   31.1317 C   0  0  0  0  0  0  0  0  0  0  0  0
   48.9896   58.2473   31.3979 C   0  0  2  0  0  0  0  0  0  0  0  0
   49.2412   57.1946   30.4947 O   0  0  0  0  0  0  0  0  0  0  0  0
   49.2870   57.7528   32.7566 C   0  0  1  0  0  0  0  0  0  0  0  0
   48.6181   58.4992   33.7739 O   0  0  0  0  0  0  0  0  0  0  0  0
   48.7449   56.2625   32.5323 C   0  0  2  0  0  0  0  0  0  0  0  0
   49.1221   55.4336   33.5904 O   0  0  0  0  0  0  0  0  0  0  0  0
   49.4577   55.9057   31.2293 C   0  0  1  0  0  0  0  0  0  0  0  0
   44.9143   54.1294   29.0589 O   0  0  0  0  0  0  0  0  0  0  0  0
   50.8789   53.7706   26.8075 N   0  0  0  0  0  0  0  0  0  0  0  0
   51.3846   54.8077   27.4805 C   0  0  0  0  0  0  0  0  0  0  0  0
   50.8701   55.1901   28.6455 N   0  0  0  0  0  0  0  0  0  0  0  0
   49.7600   54.6211   29.1415 C   0  0  0  0  0  0  0  0  0  0  0  0
   49.1531   53.5509   28.4347 C   0  0  0  0  0  0  0  0  0  0  0  0
   49.7696   53.1289   27.2241 C   0  0  0  0  0  0  0  0  0  0  0  0
   49.2498   52.0849   26.4859 N   0  0  0  0  0  0  0  0  0  0  0  0
   48.0705   53.1724   29.1366 N   0  0  0  0  0  0  0  0  0  0  0  0
   47.9619   53.9200   30.2023 C   0  0  0  0  0  0  0  0  0  0  0  0
   48.9830   54.8263   30.2666 N   0  0  0  0  0  0  0  0  0  0  0  0
  2  1  1  6  0  0  0
  2  3  1  0  0  0  0
  2  5  1  0  0  0  0
  3  4  1  0  0  0  0
  3 17  1  0  0  0  0
  5  6  1  0  0  0  0
  7  6  1  6  0  0  0
  7  8  1  0  0  0  0
  7  9  1  0  0  0  0
 10  9  1  1  0  0  0
 10 11  1  0  0  0  0
 10 12  1  0  0  0  0
 11 16  1  0  0  0  0
 12 13  1  1  0  0  0
 12 14  1  0  0  0  0
 14 15  1  1  0  0  0
 14 16  1  0  0  0  0
 16 27  1  6  0  0  0
 18 19  2  0  0  0  0
 18 23  1  0  0  0  0
 19 20  1  0  0  0  0
 20 21  2  0  0  0  0
 21 22  1  0  0  0  0
 21 27  1  0  0  0  0
 22 23  2  0  0  0  0
 22 25  1  0  0  0  0
 23 24  1  0  0  0  0
 25 26  2  0  0  0  0
 26 27  1  0  0  0  0
M  END
>  <CHROM.1>
-4.71540046,-69.21487151,-84.00857719,-125.86940876,-96.02750788,52.61029736
69.51231944,47.98215539,55.96179774,29.76703570,1.28163552,0.41216096,-2.30627704

>  <Name>
ligand

>  <RI>
0

>  <Rbt.Current_Directory>
/home/itssahil/PROJECTS/Mol_Feturizer/New_Systems/rnas/3IQR

>  <Rbt.Executable>
rbdock ($Id: //depot/dev/client3/rdock/2013.1/src/exe/rbdock.cxx#4 $)

>  <Rbt.Library>
libRbt.so (2013.1, Build901 2013/11/27)

>  <Rbt.Parameter_File>
/export/apps/rDock/src/rDock_2013.1_src/data/scripts/dock_solv.prm

>  <Rbt.Receptor>
prm/pocket_docking_4.prm

>  <SCORE>
-16.8341

>  <SCORE.INTER>
-12.6981

>  <SCORE.INTER.CONST>
1

>  <SCORE.INTER.POLAR>
0

>  <SCORE.INTER.ROT>
7

>  <SCORE.INTER.SOLV>
10.1526

>  <SCORE.INTER.VDW>
-20.1162

>  <SCORE.INTER.norm>
-0.4703

>  <SCORE.INTRA>
-4.14013

>  <SCORE.INTRA.DIHEDRAL>
2.77268

>  <SCORE.INTRA.DIHEDRAL.0>
9.29433

>  <SCORE.INTRA.POLAR>
0

>  <SCORE.INTRA.POLAR.0>
0

>  <SCORE.INTRA.REPUL>
0

>  <SCORE.INTRA.REPUL.0>
0

>  <SCORE.INTRA.SOLV>
1.02386

>  <SCORE.INTRA.SOLV.lig_0>
-48.5102

>  <SCORE.INTRA.VDW>
-6.0384

>  <SCORE.INTRA.VDW.0>
0.379549

>  <SCORE.INTRA.norm>
-0.153338

>  <SCORE.RESTR>
0.00416172

>  <SCORE.RESTR.CAVITY>
0.00416172

>  <SCORE.RESTR.norm>
0.000154138

>  <SCORE.SYSTEM>
0

>  <SCORE.SYSTEM.CONST>
0

>  <SCORE.SYSTEM.DIHEDRAL>
0

>  <SCORE.SYSTEM.SOLV>
0

>  <SCORE.SYSTEM.norm>
0

>  <SCORE.heavy>
27

>  <SCORE.norm>
-0.623484

>  <RMSD>
5.617

$$$$
ligand
 OpenBabel11021811483D
libRbt.so/2013.1/901 2013/11/27
 27 29  0  0  0  0  0  0  0  0999 V2000
   45.2411   58.4780   29.1113 N   0  0  0  0  0  0  0  0  0  0  0  0
   45.9060   57.8389   30.2459 C   0  0  2  0  0  0  0  0  0  0  0  0
   45.5122   58.5427   31.5123 C   0  0  0  0  0  0  0  0  0  0  0  0
   45.8005   59.7241   31.6717 O   0  0  0  0  0  0  0  0  0  0  0  0
   47.4235   57.9151   30.0831 C   0  0  0  0  0  0  0  0  0  0  0  0
   48.0648   56.8458   30.9486 C   0  0  0  0  0  0  0  0  0  0  0  0
   47.9064   57.1541   32.7365 S   0  0  2  0  0  0  0  0  0  0  0  0
   49.0558   58.5226   33.0653 C   0  0  0  0  0  0  0  0  0  0  0  0
   49.1151   55.9188   33.5091 C   0  0  0  0  0  0  0  0  0  0  0  0
   48.8461   54.3633   33.3531 C   0  0  2  0  0  0  0  0  0  0  0  0
   48.4218   53.8787   32.0992 O   0  0  0  0  0  0  0  0  0  0  0  0
   48.1137   53.6152   34.3939 C   0  0  1  0  0  0  0  0  0  0  0  0
   48.0539   54.3153   35.6372 O   0  0  0  0  0  0  0  0  0  0  0  0
   46.7264   53.5080   33.6009 C   0  0  2  0  0  0  0  0  0  0  0  0
   45.8639   52.6090   34.2307 O   0  0  0  0  0  0  0  0  0  0  0  0
   47.2222   52.9924   32.2513 C   0  0  1  0  0  0  0  0  0  0  0  0
   44.8677   57.9449   32.3646 O   0  0  0  0  0  0  0  0  0  0  0  0
   47.7156   51.7864   27.3083 N   0  0  0  0  0  0  0  0  0  0  0  0
   48.5627   51.6467   28.3315 C   0  0  0  0  0  0  0  0  0  0  0  0
   48.2201   52.0090   29.5642 N   0  0  0  0  0  0  0  0  0  0  0  0
   47.0543   52.6258   29.8145 C   0  0  0  0  0  0  0  0  0  0  0  0
   46.1432   52.8472   28.7495 C   0  0  0  0  0  0  0  0  0  0  0  0
   46.5190   52.3885   27.4564 C   0  0  0  0  0  0  0  0  0  0  0  0
   45.6820   52.5518   26.3712 N   0  0  0  0  0  0  0  0  0  0  0  0
   45.0731   53.4777   29.2645 N   0  0  0  0  0  0  0  0  0  0  0  0
   45.2549   53.6645   30.5445 C   0  0  0  0  0  0  0  0  0  0  0  0
   46.4559   53.1497   30.9454 N   0  0  0  0  0  0  0  0  0  0  0  0
  2  1  1  6  0  0  0
  2  3  1  0  0  0  0
  2  5  1  0  0  0  0
  3  4  1  0  0  0  0
  3 17  1  0  0  0  0
  5  6  1  0  0  0  0
  7  6  1  6  0  0  0
  7  8  1  0  0  0  0
  7  9  1  0  0  0  0
 10  9  1  6  0  0  0
 10 11  1  0  0  0  0
 10 12  1  0  0  0  0
 11 16  1  0  0  0  0
 12 13  1  1  0  0  0
 12 14  1  0  0  0  0
 14 15  1  1  0  0  0
 14 16  1  0  0  0  0
 16 27  1  6  0  0  0
 18 19  2  0  0  0  0
 18 23  1  0  0  0  0
 19 20  1  0  0  0  0
 20 21  2  0  0  0  0
 21 22  1  0  0  0  0
 21 27  1  0  0  0  0
 22 23  2  0  0  0  0
 22 25  1  0  0  0  0
 23 24  1  0  0  0  0
 25 26  2  0  0  0  0
 26 27  1  0  0  0  0
M  END
>  <CHROM.1>
-62.44185863,-159.32625678,-68.78920257,-72.85230414,-64.60322139,42.52390809
68.42471021,47.04145741,55.00792317,31.24632578,1.42258399,-1.21946539,0.51068456

>  <Name>
ligand

>  <RI>
0

>  <Rbt.Current_Directory>
/home/itssahil/PROJECTS/Mol_Feturizer/New_Systems/rnas/3IQR

>  <Rbt.Executable>
rbdock ($Id: //depot/dev/client3/rdock/2013.1/src/exe/rbdock.cxx#4 $)

>  <Rbt.Library>
libRbt.so (2013.1, Build901 2013/11/27)

>  <Rbt.Parameter_File>
/export/apps/rDock/src/rDock_2013.1_src/data/scripts/dock_solv.prm

>  <Rbt.Receptor>
prm/pocket_docking_5.prm

>  <SCORE>
-19.0557

>  <SCORE.INTER>
-12.6017

>  <SCORE.INTER.CONST>
1

>  <SCORE.INTER.POLAR>
0

>  <SCORE.INTER.ROT>
7

>  <SCORE.INTER.SOLV>
13.8502

>  <SCORE.INTER.VDW>
-21.2845

>  <SCORE.INTER.norm>
-0.466729

>  <SCORE.INTRA>
-6.45399

>  <SCORE.INTRA.DIHEDRAL>
-2.7394

>  <SCORE.INTRA.DIHEDRAL.0>
9.29433

>  <SCORE.INTRA.POLAR>
0

>  <SCORE.INTRA.POLAR.0>
0

>  <SCORE.INTRA.REPUL>
0

>  <SCORE.INTRA.REPUL.0>
0

>  <SCORE.INTRA.SOLV>
-1.48608

>  <SCORE.INTRA.SOLV.lig_0>
-48.5102

>  <SCORE.INTRA.VDW>
-4.34125

>  <SCORE.INTRA.VDW.0>
0.379549

>  <SCORE.INTRA.norm>
-0.239037

>  <SCORE.RESTR>
0

>  <SCORE.RESTR.CAVITY>
0

>  <SCORE.RESTR.norm>
0

>  <SCORE.SYSTEM>
0

>  <SCORE.SYSTEM.CONST>
0

>  <SCORE.SYSTEM.DIHEDRAL>
0

>  <SCORE.SYSTEM.SOLV>
0

>  <SCORE.SYSTEM.norm>
0

>  <SCORE.heavy>
27

>  <SCORE.norm>
-0.705766

>  <RMSD>
5.624

$$$$
ligand
 OpenBabel11021811483D
libRbt.so/2013.1/901 2013/11/27
 27 29  0  0  0  0  0  0  0  0999 V2000
   47.0251   53.5586   28.4607 N   0  0  0  0  0  0  0  0  0  0  0  0
   47.9598   53.6343   29.5826 C   0  0  2  0  0  0  0  0  0  0  0  0
   48.8653   52.4371   29.5555 C   0  0  0  0  0  0  0  0  0  0  0  0
   49.9489   52.4753   30.1289 O   0  0  0  0  0  0  0  0  0  0  0  0
   47.1981   53.6547   30.9072 C   0  0  0  0  0  0  0  0  0  0  0  0
   46.6717   55.0576   31.1497 C   0  0  0  0  0  0  0  0  0  0  0  0
   45.2998   55.1317   32.3453 S   0  0  2  0  0  0  0  0  0  0  0  0
   43.8351   55.4986   31.3342 C   0  0  0  0  0  0  0  0  0  0  0  0
   45.3496   56.9187   32.9682 C   0  0  0  0  0  0  0  0  0  0  0  0
   45.7061   58.0873   31.9565 C   0  0  2  0  0  0  0  0  0  0  0  0
   45.3315   57.9419   30.6053 O   0  0  0  0  0  0  0  0  0  0  0  0
   47.0327   58.7341   31.9867 C   0  0  1  0  0  0  0  0  0  0  0  0
   47.7387   58.4882   33.2035 O   0  0  0  0  0  0  0  0  0  0  0  0
   47.6241   58.0004   30.6916 C   0  0  2  0  0  0  0  0  0  0  0  0
   48.8199   58.5966   30.2871 O   0  0  0  0  0  0  0  0  0  0  0  0
   46.4881   58.2401   29.6991 C   0  0  1  0  0  0  0  0  0  0  0  0
   48.5001   51.4115   28.9952 O   0  0  0  0  0  0  0  0  0  0  0  0
   49.1246   55.3498   26.4089 N   0  0  0  0  0  0  0  0  0  0  0  0
   49.5357   56.1286   27.4132 C   0  0  0  0  0  0  0  0  0  0  0  0
   48.6670   56.7865   28.1752 N   0  0  0  0  0  0  0  0  0  0  0  0
   47.3523   56.7810   27.9034 C   0  0  0  0  0  0  0  0  0  0  0  0
   46.8722   56.0122   26.8118 C   0  0  0  0  0  0  0  0  0  0  0  0
   47.8256   55.2719   26.0590 C   0  0  0  0  0  0  0  0  0  0  0  0
   47.4372   54.4874   24.9919 N   0  0  0  0  0  0  0  0  0  0  0  0
   45.5397   56.1841   26.7583 N   0  0  0  0  0  0  0  0  0  0  0  0
   45.1684   56.9926   27.7148 C   0  0  0  0  0  0  0  0  0  0  0  0
   46.2423   57.3862   28.4631 N   0  0  0  0  0  0  0  0  0  0  0  0
  2  1  1  6  0  0  0
  2  3  1  0  0  0  0
  2  5  1  0  0  0  0
  3  4  1  0  0  0  0
  3 17  1  0  0  0  0
  5  6  1  0  0  0  0
  7  6  1  6  0  0  0
  7  8  1  0  0  0  0
  7  9  1  0  0  0  0
 10  9  1  6  0  0  0
 10 11  1  0  0  0  0
 10 12  1  0  0  0  0
 11 16  1  0  0  0  0
 12 13  1  1  0  0  0
 12 14  1  0  0  0  0
 14 15  1  6  0  0  0
 14 16  1  0  0  0  0
 16 27  1  6  0  0  0
 18 19  2  0  0  0  0
 18 23  1  0  0  0  0
 19 20  1  0  0  0  0
 20 21  2  0  0  0  0
 21 22  1  0  0  0  0
 21 27  1  0  0  0  0
 22 23  2  0  0  0  0
 22 25  1  0  0  0  0
 23 24  1  0  0  0  0
 25 26  2  0  0  0  0
 26 27  1  0  0  0  0
M  END
>  <CHROM.1>
158.35477753,-79.37402138,160.18147887,-108.17377381,37.31687699,31.45992136
-140.01739063,47.07143751,55.84928503,29.63900852,-0.14716499,-1.19637831
2.36121628

>  <Name>
ligand

>  <RI>
0

>  <Rbt.Current_Directory>
/home/itssahil/PROJECTS/Mol_Feturizer/New_Systems/rnas/3IQR

>  <Rbt.Executable>
rbdock ($Id: //depot/dev/client3/rdock/2013.1/src/exe/rbdock.cxx#4 $)

>  <Rbt.Library>
libRbt.so (2013.1, Build901 2013/11/27)

>  <Rbt.Parameter_File>
/export/apps/rDock/src/rDock_2013.1_src/data/scripts/dock_solv.prm

>  <Rbt.Receptor>
prm/pocket_docking_3.prm

>  <SCORE>
-11.877

>  <SCORE.INTER>
-9.02413

>  <SCORE.INTER.CONST>
1

>  <SCORE.INTER.POLAR>
0

>  <SCORE.INTER.ROT>
7

>  <SCORE.INTER.SOLV>
9.41682

>  <SCORE.INTER.VDW>
-17.4217

>  <SCORE.INTER.norm>
-0.334227

>  <SCORE.INTRA>
-2.86431

>  <SCORE.INTRA.DIHEDRAL>
2.23451

>  <SCORE.INTRA.DIHEDRAL.0>
9.29433

>  <SCORE.INTRA.POLAR>
0

>  <SCORE.INTRA.POLAR.0>
0

>  <SCORE.INTRA.REPUL>
0

>  <SCORE.INTRA.REPUL.0>
0

>  <SCORE.INTRA.SOLV>
3.21146

>  <SCORE.INTRA.SOLV.lig_0>
-48.5102

>  <SCORE.INTRA.VDW>
-5.58729

>  <SCORE.INTRA.VDW.0>
0.379549

>  <SCORE.INTRA.norm>
-0.106086

>  <SCORE.RESTR>
0.0114146

>  <SCORE.RESTR.CAVITY>
0.0114146

>  <SCORE.RESTR.norm>
0.000422764

>  <SCORE.SYSTEM>
0

>  <SCORE.SYSTEM.CONST>
0

>  <SCORE.SYSTEM.DIHEDRAL>
0

>  <SCORE.SYSTEM.SOLV>
0

>  <SCORE.SYSTEM.norm>
0

>  <SCORE.heavy>
27

>  <SCORE.norm>
-0.43989

>  <RMSD>
5.629

$$$$
ligand
 OpenBabel11021811483D
libRbt.so/2013.1/901 2013/11/27
 27 29  0  0  0  0  0  0  0  0999 V2000
   46.2871   52.7458   29.0808 N   0  0  0  0  0  0  0  0  0  0  0  0
   47.5775   53.3231   29.4541 C   0  0  2  0  0  0  0  0  0  0  0  0
   48.6694   52.3416   29.1402 C   0  0  0  0  0  0  0  0  0  0  0  0
   48.3861   51.1954   28.8082 O   0  0  0  0  0  0  0  0  0  0  0  0
   47.6046   53.6394   30.9489 C   0  0  0  0  0  0  0  0  0  0  0  0
   46.6115   54.7513   31.2339 C   0  0  0  0  0  0  0  0  0  0  0  0
   46.6662   55.3647   32.9479 S   0  0  2  0  0  0  0  0  0  0  0  0
   45.4479   54.3480   33.8335 C   0  0  0  0  0  0  0  0  0  0  0  0
   45.4698   56.8317   32.9331 C   0  0  0  0  0  0  0  0  0  0  0  0
   45.6877   58.0047   31.8877 C   0  0  2  0  0  0  0  0  0  0  0  0
   45.3751   57.7635   30.5344 O   0  0  0  0  0  0  0  0  0  0  0  0
   46.9095   58.8324   31.9247 C   0  0  1  0  0  0  0  0  0  0  0  0
   47.6086   58.7286   33.1657 O   0  0  0  0  0  0  0  0  0  0  0  0
   47.6337   58.1467   30.6714 C   0  0  2  0  0  0  0  0  0  0  0  0
   48.7452   58.8916   30.2731 O   0  0  0  0  0  0  0  0  0  0  0  0
   46.5035   58.1913   29.6448 C   0  0  1  0  0  0  0  0  0  0  0  0
   49.8391   52.7015   29.1769 O   0  0  0  0  0  0  0  0  0  0  0  0
   49.4579   54.9362   27.0360 N   0  0  0  0  0  0  0  0  0  0  0  0
   49.7441   55.7564   28.0506 C   0  0  0  0  0  0  0  0  0  0  0  0
   48.8054   56.5138   28.6103 N   0  0  0  0  0  0  0  0  0  0  0  0
   47.5592   56.5659   28.1138 C   0  0  0  0  0  0  0  0  0  0  0  0
   47.2207   55.7536   27.0008 C   0  0  0  0  0  0  0  0  0  0  0  0
   48.2354   54.9099   26.4696 C   0  0  0  0  0  0  0  0  0  0  0  0
   47.9819   54.0784   25.3975 N   0  0  0  0  0  0  0  0  0  0  0  0
   45.9320   55.9983   26.7056 N   0  0  0  0  0  0  0  0  0  0  0  0
   45.4593   56.8901   27.5349 C   0  0  0  0  0  0  0  0  0  0  0  0
   46.4142   57.2710   28.4356 N   0  0  0  0  0  0  0  0  0  0  0  0
  2  1  1  1  0  0  0
  2  3  1  0  0  0  0
  2  5  1  0  0  0  0
  3  4  1  0  0  0  0
  3 17  1  0  0  0  0
  5  6  1  0  0  0  0
  7  6  1  6  0  0  0
  7  8  1  0  0  0  0
  7  9  1  0  0  0  0
 10  9  1  1  0  0  0
 10 11  1  0  0  0  0
 10 12  1  0  0  0  0
 11 16  1  0  0  0  0
 12 13  1  1  0  0  0
 12 14  1  0  0  0  0
 14 15  1  6  0  0  0
 14 16  1  0  0  0  0
 16 27  1  6  0  0  0
 18 19  2  0  0  0  0
 18 23  1  0  0  0  0
 19 20  1  0  0  0  0
 20 21  2  0  0  0  0
 21 22  1  0  0  0  0
 21 27  1  0  0  0  0
 22 23  2  0  0  0  0
 22 25  1  0  0  0  0
 23 24  1  0  0  0  0
 25 26  2  0  0  0  0
 26 27  1  0  0  0  0
M  END
>  <CHROM.1>
-9.26033454,-66.58432873,-173.54150688,-91.25101167,-55.26824042,73.41336882
-125.47074733,47.29935865,55.69534726,29.82342850,0.07444207,-1.27325300
2.56236011

>  <Name>
ligand

>  <RI>
0

>  <Rbt.Current_Directory>
/home/itssahil/PROJECTS/Mol_Feturizer/New_Systems/rnas/3IQR

>  <Rbt.Executable>
rbdock ($Id: //depot/dev/client3/rdock/2013.1/src/exe/rbdock.cxx#4 $)

>  <Rbt.Library>
libRbt.so (2013.1, Build901 2013/11/27)

>  <Rbt.Parameter_File>
/export/apps/rDock/src/rDock_2013.1_src/data/scripts/dock_solv.prm

>  <Rbt.Receptor>
prm/pocket_docking_3.prm

>  <SCORE>
-16.9101

>  <SCORE.INTER>
-9.01467

>  <SCORE.INTER.CONST>
1

>  <SCORE.INTER.POLAR>
0

>  <SCORE.INTER.ROT>
7

>  <SCORE.INTER.SOLV>
8.37007

>  <SCORE.INTER.VDW>
-17.0665

>  <SCORE.INTER.norm>
-0.333877

>  <SCORE.INTRA>
-7.89731

>  <SCORE.INTRA.DIHEDRAL>
-3.15504

>  <SCORE.INTRA.DIHEDRAL.0>
9.29433

>  <SCORE.INTRA.POLAR>
0

>  <SCORE.INTRA.POLAR.0>
0

>  <SCORE.INTRA.REPUL>
0

>  <SCORE.INTRA.REPUL.0>
0

>  <SCORE.INTRA.SOLV>
0.302796

>  <SCORE.INTRA.SOLV.lig_0>
-48.5102

>  <SCORE.INTRA.VDW>
-6.47119

>  <SCORE.INTRA.VDW.0>
0.379549

>  <SCORE.INTRA.norm>
-0.292493

>  <SCORE.RESTR>
0.00188076

>  <SCORE.RESTR.CAVITY>
0.00188076

>  <SCORE.RESTR.norm>
6.96578e-05

>  <SCORE.SYSTEM>
0

>  <SCORE.SYSTEM.CONST>
0

>  <SCORE.SYSTEM.DIHEDRAL>
0

>  <SCORE.SYSTEM.SOLV>
0

>  <SCORE.SYSTEM.norm>
0

>  <SCORE.heavy>
27

>  <SCORE.norm>
-0.6263

>  <RMSD>
5.640

$$$$
ligand
 OpenBabel11021811483D
libRbt.so/2013.1/901 2013/11/27
 27 29  0  0  0  0  0  0  0  0999 V2000
   46.0557   54.0701   27.7744 N   0  0  0  0  0  0  0  0  0  0  0  0
   46.1541   52.9078   28.6559 C   0  0  2  0  0  0  0  0  0  0  0  0
   47.2721   52.0224   28.1864 C   0  0  0  0  0  0  0  0  0  0  0  0
   48.0491   51.5332   28.9997 O   0  0  0  0  0  0  0  0  0  0  0  0
   44.8477   52.1153   28.6369 C   0  0  0  0  0  0  0  0  0  0  0  0
   43.7666   52.9336   29.3193 C   0  0  0  0  0  0  0  0  0  0  0  0
   42.2339   52.0042   29.6413 S   0  0  2  0  0  0  0  0  0  0  0  0
   41.4084   51.9150   28.0249 C   0  0  0  0  0  0  0  0  0  0  0  0
   41.0191   53.3369   30.2174 C   0  0  0  0  0  0  0  0  0  0  0  0
   41.2152   54.0074   31.6416 C   0  0  2  0  0  0  0  0  0  0  0  0
   42.4113   54.7099   31.8930 O   0  0  0  0  0  0  0  0  0  0  0  0
   40.8548   53.2806   32.8749 C   0  0  1  0  0  0  0  0  0  0  0  0
   39.9944   52.1678   32.6278 O   0  0  0  0  0  0  0  0  0  0  0  0
   42.3498   52.9066   33.3111 C   0  0  2  0  0  0  0  0  0  0  0  0
   42.3760   52.4119   34.6162 O   0  0  0  0  0  0  0  0  0  0  0  0
   43.0193   54.2743   33.1923 C   0  0  1  0  0  0  0  0  0  0  0  0
   47.3791   51.7585   26.9957 O   0  0  0  0  0  0  0  0  0  0  0  0
   46.3231   58.0602   32.2523 N   0  0  0  0  0  0  0  0  0  0  0  0
   44.9879   58.0533   32.2887 C   0  0  0  0  0  0  0  0  0  0  0  0
   44.3122   56.9464   32.5825 N   0  0  0  0  0  0  0  0  0  0  0  0
   44.9352   55.7691   32.7498 C   0  0  0  0  0  0  0  0  0  0  0  0
   46.3506   55.7144   32.6657 C   0  0  0  0  0  0  0  0  0  0  0  0
   47.0418   56.9315   32.4123 C   0  0  0  0  0  0  0  0  0  0  0  0
   48.4192   56.9652   32.3312 N   0  0  0  0  0  0  0  0  0  0  0  0
   46.7127   54.4347   32.8636 N   0  0  0  0  0  0  0  0  0  0  0  0
   45.6450   53.7067   33.0543 C   0  0  0  0  0  0  0  0  0  0  0  0
   44.5166   54.4766   33.0067 N   0  0  0  0  0  0  0  0  0  0  0  0
  2  1  1  6  0  0  0
  2  3  1  0  0  0  0
  2  5  1  0  0  0  0
  3  4  1  0  0  0  0
  3 17  1  0  0  0  0
  5  6  1  0  0  0  0
  7  6  1  6  0  0  0
  7  8  1  0  0  0  0
  7  9  1  0  0  0  0
 10  9  1  6  0  0  0
 10 11  1  0  0  0  0
 10 12  1  0  0  0  0
 11 16  1  0  0  0  0
 12 13  1  6  0  0  0
 12 14  1  0  0  0  0
 14 15  1  1  0  0  0
 14 16  1  0  0  0  0
 16 27  1  6  0  0  0
 18 19  2  0  0  0  0
 18 23  1  0  0  0  0
 19 20  1  0  0  0  0
 20 21  2  0  0  0  0
 21 22  1  0  0  0  0
 21 27  1  0  0  0  0
 22 23  2  0  0  0  0
 22 25  1  0  0  0  0
 23 24  1  0  0  0  0
 25 26  2  0  0  0  0
 26 27  1  0  0  0  0
M  END
>  <CHROM.1>
136.63643581,-69.01107950,-169.55260137,-76.69845775,-70.95012076,60.85189414
60.76317390,44.28416529,53.87960411,31.09921637,-0.27284461,-0.38107752,-2.26560456

>  <Name>
ligand

>  <RI>
0

>  <Rbt.Current_Directory>
/home/itssahil/PROJECTS/Mol_Feturizer/New_Systems/rnas/3IQR

>  <Rbt.Executable>
rbdock ($Id: //depot/dev/client3/rdock/2013.1/src/exe/rbdock.cxx#4 $)

>  <Rbt.Library>
libRbt.so (2013.1, Build901 2013/11/27)

>  <Rbt.Parameter_File>
/export/apps/rDock/src/rDock_2013.1_src/data/scripts/dock_solv.prm

>  <Rbt.Receptor>
prm/pocket_docking_8.prm

>  <SCORE>
-15.917

>  <SCORE.INTER>
-9.21815

>  <SCORE.INTER.CONST>
1

>  <SCORE.INTER.POLAR>
0

>  <SCORE.INTER.ROT>
7

>  <SCORE.INTER.SOLV>
5.37321

>  <SCORE.INTER.VDW>
-16.2032

>  <SCORE.INTER.norm>
-0.341413

>  <SCORE.INTRA>
-6.69885

>  <SCORE.INTRA.DIHEDRAL>
-4.58952

>  <SCORE.INTRA.DIHEDRAL.0>
9.29433

>  <SCORE.INTRA.POLAR>
0

>  <SCORE.INTRA.POLAR.0>
0

>  <SCORE.INTRA.REPUL>
0

>  <SCORE.INTRA.REPUL.0>
0

>  <SCORE.INTRA.SOLV>
-0.964959

>  <SCORE.INTRA.SOLV.lig_0>
-48.5102

>  <SCORE.INTRA.VDW>
-3.92161

>  <SCORE.INTRA.VDW.0>
0.379549

>  <SCORE.INTRA.norm>
-0.248105

>  <SCORE.RESTR>
0

>  <SCORE.RESTR.CAVITY>
0

>  <SCORE.RESTR.norm>
0

>  <SCORE.SYSTEM>
0

>  <SCORE.SYSTEM.CONST>
0

>  <SCORE.SYSTEM.DIHEDRAL>
0

>  <SCORE.SYSTEM.SOLV>
0

>  <SCORE.SYSTEM.norm>
0

>  <SCORE.heavy>
27

>  <SCORE.norm>
-0.589519

>  <RMSD>
5.680

$$$$
ligand
 OpenBabel11021811483D
libRbt.so/2013.1/901 2013/11/27
 27 29  0  0  0  0  0  0  0  0999 V2000
   44.7035   57.5527   32.5562 N   0  0  0  0  0  0  0  0  0  0  0  0
   44.7906   56.8929   31.2543 C   0  0  2  0  0  0  0  0  0  0  0  0
   44.5202   55.4257   31.4226 C   0  0  0  0  0  0  0  0  0  0  0  0
   44.0875   54.7704   30.4804 O   0  0  0  0  0  0  0  0  0  0  0  0
   46.1852   57.0787   30.6577 C   0  0  0  0  0  0  0  0  0  0  0  0
   47.2006   56.4063   31.5637 C   0  0  0  0  0  0  0  0  0  0  0  0
   47.4172   57.2372   33.1697 S   0  0  2  0  0  0  0  0  0  0  0  0
   48.3319   58.7571   32.7753 C   0  0  0  0  0  0  0  0  0  0  0  0
   48.9862   56.4442   33.8721 C   0  0  0  0  0  0  0  0  0  0  0  0
   49.1442   54.8662   33.8385 C   0  0  2  0  0  0  0  0  0  0  0  0
   49.0204   54.2061   32.5991 O   0  0  0  0  0  0  0  0  0  0  0  0
   48.5001   54.0205   34.8629 C   0  0  1  0  0  0  0  0  0  0  0  0
   48.1062   54.7592   36.0199 O   0  0  0  0  0  0  0  0  0  0  0  0
   47.2983   53.4992   33.9413 C   0  0  2  0  0  0  0  0  0  0  0  0
   46.6202   52.4472   34.5597 O   0  0  0  0  0  0  0  0  0  0  0  0
   48.0768   53.0462   32.7076 C   0  0  1  0  0  0  0  0  0  0  0  0
   44.7721   54.8798   32.4892 O   0  0  0  0  0  0  0  0  0  0  0  0
   49.5814   52.8869   27.8248 N   0  0  0  0  0  0  0  0  0  0  0  0
   50.2713   53.1143   28.9457 C   0  0  0  0  0  0  0  0  0  0  0  0
   49.6802   53.0854   30.1366 N   0  0  0  0  0  0  0  0  0  0  0  0
   48.3518   52.9327   30.2557 C   0  0  0  0  0  0  0  0  0  0  0  0
   47.5673   52.7429   29.0887 C   0  0  0  0  0  0  0  0  0  0  0  0
   48.2446   52.7169   27.8380 C   0  0  0  0  0  0  0  0  0  0  0  0
   47.5553   52.5217   26.6583 N   0  0  0  0  0  0  0  0  0  0  0  0
   46.2876   52.6231   29.4835 N   0  0  0  0  0  0  0  0  0  0  0  0
   46.2236   52.7290   30.7840 C   0  0  0  0  0  0  0  0  0  0  0  0
   47.4683   52.9102   31.3189 N   0  0  0  0  0  0  0  0  0  0  0  0
  2  1  1  1  0  0  0
  2  3  1  0  0  0  0
  2  5  1  0  0  0  0
  3  4  1  0  0  0  0
  3 17  1  0  0  0  0
  5  6  1  0  0  0  0
  7  6  1  6  0  0  0
  7  8  1  0  0  0  0
  7  9  1  0  0  0  0
 10  9  1  6  0  0  0
 10 11  1  0  0  0  0
 10 12  1  0  0  0  0
 11 16  1  0  0  0  0
 12 13  1  1  0  0  0
 12 14  1  0  0  0  0
 14 15  1  1  0  0  0
 14 16  1  0  0  0  0
 16 27  1  6  0  0  0
 18 19  2  0  0  0  0
 18 23  1  0  0  0  0
 19 20  1  0  0  0  0
 20 21  2  0  0  0  0
 21 22  1  0  0  0  0
 21 27  1  0  0  0  0
 22 23  2  0  0  0  0
 22 25  1  0  0  0  0
 23 24  1  0  0  0  0
 25 26  2  0  0  0  0
 26 27  1  0  0  0  0
M  END
>  <CHROM.1>
154.66156079,62.91218423,-68.94634935,-72.64198579,-47.12765242,55.25758987
47.63003989,47.34582584,54.63474527,31.67798403,1.78467623,-0.73217551,1.11121925

>  <Name>
ligand

>  <RI>
0

>  <Rbt.Current_Directory>
/home/itssahil/PROJECTS/Mol_Feturizer/New_Systems/rnas/3IQR

>  <Rbt.Executable>
rbdock ($Id: //depot/dev/client3/rdock/2013.1/src/exe/rbdock.cxx#4 $)

>  <Rbt.Library>
libRbt.so (2013.1, Build901 2013/11/27)

>  <Rbt.Parameter_File>
/export/apps/rDock/src/rDock_2013.1_src/data/scripts/dock_solv.prm

>  <Rbt.Receptor>
prm/pocket_docking_4.prm

>  <SCORE>
-17.1691

>  <SCORE.INTER>
-11.6148

>  <SCORE.INTER.CONST>
1

>  <SCORE.INTER.POLAR>
0

>  <SCORE.INTER.ROT>
7

>  <SCORE.INTER.SOLV>
12.1964

>  <SCORE.INTER.VDW>
-20.0754

>  <SCORE.INTER.norm>
-0.43018

>  <SCORE.INTRA>
-5.5598

>  <SCORE.INTRA.DIHEDRAL>
-3.9438

>  <SCORE.INTRA.DIHEDRAL.0>
9.29433

>  <SCORE.INTRA.POLAR>
0

>  <SCORE.INTRA.POLAR.0>
0

>  <SCORE.INTRA.REPUL>
0

>  <SCORE.INTRA.REPUL.0>
0

>  <SCORE.INTRA.SOLV>
1.30788

>  <SCORE.INTRA.SOLV.lig_0>
-48.5102

>  <SCORE.INTRA.VDW>
-4.24184

>  <SCORE.INTRA.VDW.0>
0.379549

>  <SCORE.INTRA.norm>
-0.205919

>  <SCORE.RESTR>
0.0055776

>  <SCORE.RESTR.CAVITY>
0.0055776

>  <SCORE.RESTR.norm>
0.000206578

>  <SCORE.SYSTEM>
0

>  <SCORE.SYSTEM.CONST>
0

>  <SCORE.SYSTEM.DIHEDRAL>
0

>  <SCORE.SYSTEM.SOLV>
0

>  <SCORE.SYSTEM.norm>
0

>  <SCORE.heavy>
27

>  <SCORE.norm>
-0.635892

>  <RMSD>
5.698

$$$$
ligand
 OpenBabel11021811483D
libRbt.so/2013.1/901 2013/11/27
 27 29  0  0  0  0  0  0  0  0999 V2000
   47.0617   56.5496   26.8080 N   0  0  0  0  0  0  0  0  0  0  0  0
   48.3605   56.6089   27.4769 C   0  0  2  0  0  0  0  0  0  0  0  0
   49.2761   55.5830   26.8740 C   0  0  0  0  0  0  0  0  0  0  0  0
   50.4452   55.5154   27.2389 O   0  0  0  0  0  0  0  0  0  0  0  0
   48.2022   56.3215   28.9694 C   0  0  0  0  0  0  0  0  0  0  0  0
   47.5643   57.5264   29.6368 C   0  0  0  0  0  0  0  0  0  0  0  0
   47.1555   57.2641   31.3920 S   0  0  2  0  0  0  0  0  0  0  0  0
   47.0214   58.9396   32.0827 C   0  0  0  0  0  0  0  0  0  0  0  0
   48.8460   57.0331   32.2121 C   0  0  0  0  0  0  0  0  0  0  0  0
   49.4166   55.5681   32.4228 C   0  0  2  0  0  0  0  0  0  0  0  0
   49.6564   54.7718   31.2845 O   0  0  0  0  0  0  0  0  0  0  0  0
   48.8727   54.6900   33.4775 C   0  0  1  0  0  0  0  0  0  0  0  0
   48.1310   55.4077   34.4645 O   0  0  0  0  0  0  0  0  0  0  0  0
   48.0011   53.7583   32.5092 C   0  0  2  0  0  0  0  0  0  0  0  0
   47.5395   52.6306   33.1904 O   0  0  0  0  0  0  0  0  0  0  0  0
   49.0457   53.4126   31.4497 C   0  0  1  0  0  0  0  0  0  0  0  0
   48.8409   54.7898   26.0492 O   0  0  0  0  0  0  0  0  0  0  0  0
   51.3863   52.6665   26.9669 N   0  0  0  0  0  0  0  0  0  0  0  0
   51.8402   53.1710   28.1173 C   0  0  0  0  0  0  0  0  0  0  0  0
   51.0578   53.2550   29.1893 N   0  0  0  0  0  0  0  0  0  0  0  0
   49.7548   52.9370   29.1320 C   0  0  0  0  0  0  0  0  0  0  0  0
   49.2121   52.4483   27.9155 C   0  0  0  0  0  0  0  0  0  0  0  0
   50.0955   52.3131   26.8087 C   0  0  0  0  0  0  0  0  0  0  0  0
   49.6488   51.8305   25.5952 N   0  0  0  0  0  0  0  0  0  0  0  0
   47.9050   52.2148   28.1272 N   0  0  0  0  0  0  0  0  0  0  0  0
   47.6039   52.5232   29.3603 C   0  0  0  0  0  0  0  0  0  0  0  0
   48.7078   52.9648   30.0346 N   0  0  0  0  0  0  0  0  0  0  0  0
  2  1  1  6  0  0  0
  2  3  1  0  0  0  0
  2  5  1  0  0  0  0
  3  4  1  0  0  0  0
  3 17  1  0  0  0  0
  5  6  1  0  0  0  0
  7  6  1  6  0  0  0
  7  8  1  0  0  0  0
  7  9  1  0  0  0  0
 10  9  1  6  0  0  0
 10 11  1  0  0  0  0
 10 12  1  0  0  0  0
 11 16  1  0  0  0  0
 12 13  1  1  0  0  0
 12 14  1  0  0  0  0
 14 15  1  1  0  0  0
 14 16  1  0  0  0  0
 16 27  1  6  0  0  0
 18 19  2  0  0  0  0
 18 23  1  0  0  0  0
 19 20  1  0  0  0  0
 20 21  2  0  0  0  0
 21 22  1  0  0  0  0
 21 27  1  0  0  0  0
 22 23  2  0  0  0  0
 22 25  1  0  0  0  0
 23 24  1  0  0  0  0
 25 26  2  0  0  0  0
 26 27  1  0  0  0  0
M  END
>  <CHROM.1>
175.83179859,-73.47201927,174.05003195,159.36927030,-94.40092577,61.74099040
56.70943115,48.80699176,54.72304324,29.72061876,0.68638853,1.18679423,-1.20557535

>  <Name>
ligand

>  <RI>
0

>  <Rbt.Current_Directory>
/home/itssahil/PROJECTS/Mol_Feturizer/New_Systems/rnas/3IQR

>  <Rbt.Executable>
rbdock ($Id: //depot/dev/client3/rdock/2013.1/src/exe/rbdock.cxx#4 $)

>  <Rbt.Library>
libRbt.so (2013.1, Build901 2013/11/27)

>  <Rbt.Parameter_File>
/export/apps/rDock/src/rDock_2013.1_src/data/scripts/dock_solv.prm

>  <Rbt.Receptor>
prm/pocket_docking_5.prm

>  <SCORE>
-19.6055

>  <SCORE.INTER>
-11.8741

>  <SCORE.INTER.CONST>
1

>  <SCORE.INTER.POLAR>
0

>  <SCORE.INTER.ROT>
7

>  <SCORE.INTER.SOLV>
9.42985

>  <SCORE.INTER.VDW>
-19.326

>  <SCORE.INTER.norm>
-0.439783

>  <SCORE.INTRA>
-7.73141

>  <SCORE.INTRA.DIHEDRAL>
-2.49661

>  <SCORE.INTRA.DIHEDRAL.0>
9.29433

>  <SCORE.INTRA.POLAR>
0

>  <SCORE.INTRA.POLAR.0>
0

>  <SCORE.INTRA.REPUL>
0

>  <SCORE.INTRA.REPUL.0>
0

>  <SCORE.INTRA.SOLV>
-0.00938789

>  <SCORE.INTRA.SOLV.lig_0>
-48.5102

>  <SCORE.INTRA.VDW>
-6.47841

>  <SCORE.INTRA.VDW.0>
0.379549

>  <SCORE.INTRA.norm>
-0.286348

>  <SCORE.RESTR>
0

>  <SCORE.RESTR.CAVITY>
0

>  <SCORE.RESTR.norm>
0

>  <SCORE.SYSTEM>
0

>  <SCORE.SYSTEM.CONST>
0

>  <SCORE.SYSTEM.DIHEDRAL>
0

>  <SCORE.SYSTEM.SOLV>
0

>  <SCORE.SYSTEM.norm>
0

>  <SCORE.heavy>
27

>  <SCORE.norm>
-0.726131

>  <RMSD>
5.700

$$$$
ligand
 OpenBabel11021811483D
libRbt.so/2013.1/901 2013/11/27
 27 29  0  0  0  0  0  0  0  0999 V2000
   48.0011   53.6158   31.2592 N   0  0  0  0  0  0  0  0  0  0  0  0
   47.0152   53.1761   30.2730 C   0  0  2  0  0  0  0  0  0  0  0  0
   47.7243   52.7359   29.0250 C   0  0  0  0  0  0  0  0  0  0  0  0
   48.7735   53.2775   28.6930 O   0  0  0  0  0  0  0  0  0  0  0  0
   46.0623   54.3201   29.9290 C   0  0  0  0  0  0  0  0  0  0  0  0
   45.0896   54.5118   31.0783 C   0  0  0  0  0  0  0  0  0  0  0  0
   45.8477   55.2270   32.5718 S   0  0  2  0  0  0  0  0  0  0  0  0
   44.7804   54.6717   33.9337 C   0  0  0  0  0  0  0  0  0  0  0  0
   45.1012   56.9644   32.6604 C   0  0  0  0  0  0  0  0  0  0  0  0
   45.5476   58.0595   31.6032 C   0  0  2  0  0  0  0  0  0  0  0  0
   45.3001   57.8131   30.2375 O   0  0  0  0  0  0  0  0  0  0  0  0
   46.8644   58.7184   31.7083 C   0  0  1  0  0  0  0  0  0  0  0  0
   47.4551   58.5677   32.9998 O   0  0  0  0  0  0  0  0  0  0  0  0
   47.5748   57.8978   30.5305 C   0  0  2  0  0  0  0  0  0  0  0  0
   48.8017   58.4736   30.1956 O   0  0  0  0  0  0  0  0  0  0  0  0
   46.5351   58.0549   29.4225 C   0  0  1  0  0  0  0  0  0  0  0  0
   47.2735   51.8086   28.3648 O   0  0  0  0  0  0  0  0  0  0  0  0
   49.4983   55.0720   26.5151 N   0  0  0  0  0  0  0  0  0  0  0  0
   49.8101   55.9327   27.4878 C   0  0  0  0  0  0  0  0  0  0  0  0
   48.8669   56.6007   28.1454 N   0  0  0  0  0  0  0  0  0  0  0  0
   47.5747   56.5198   27.7906 C   0  0  0  0  0  0  0  0  0  0  0  0
   47.1996   55.6603   26.7258 C   0  0  0  0  0  0  0  0  0  0  0  0
   48.2297   54.9144   26.0886 C   0  0  0  0  0  0  0  0  0  0  0  0
   47.9450   54.0450   25.0551 N   0  0  0  0  0  0  0  0  0  0  0  0
   45.8680   55.7699   26.5750 N   0  0  0  0  0  0  0  0  0  0  0  0
   45.4017   56.6226   27.4479 C   0  0  0  0  0  0  0  0  0  0  0  0
   46.4067   57.1114   28.2348 N   0  0  0  0  0  0  0  0  0  0  0  0
  2  1  1  1  0  0  0
  2  3  1  0  0  0  0
  2  5  1  0  0  0  0
  3  4  1  0  0  0  0
  3 17  1  0  0  0  0
  5  6  1  0  0  0  0
  7  6  1  6  0  0  0
  7  8  1  0  0  0  0
  7  9  1  0  0  0  0
 10  9  1  1  0  0  0
 10 11  1  0  0  0  0
 10 12  1  0  0  0  0
 11 16  1  0  0  0  0
 12 13  1  1  0  0  0
 12 14  1  0  0  0  0
 14 15  1  6  0  0  0
 14 16  1  0  0  0  0
 16 27  1  6  0  0  0
 18 19  2  0  0  0  0
 18 23  1  0  0  0  0
 19 20  1  0  0  0  0
 20 21  2  0  0  0  0
 21 22  1  0  0  0  0
 21 27  1  0  0  0  0
 22 23  2  0  0  0  0
 22 25  1  0  0  0  0
 23 24  1  0  0  0  0
 25 26  2  0  0  0  0
 26 27  1  0  0  0  0
M  END
>  <CHROM.1>
-32.18289870,-75.04629531,71.06413780,-155.23459784,-71.14604749,61.09699621
-142.62041724,46.99302265,55.75369850,29.64765681,2.67327366,1.18111745,0.10926624

>  <Name>
ligand

>  <RI>
0

>  <Rbt.Current_Directory>
/home/itssahil/PROJECTS/Mol_Feturizer/New_Systems/rnas/3IQR

>  <Rbt.Executable>
rbdock ($Id: //depot/dev/client3/rdock/2013.1/src/exe/rbdock.cxx#4 $)

>  <Rbt.Library>
libRbt.so (2013.1, Build901 2013/11/27)

>  <Rbt.Parameter_File>
/export/apps/rDock/src/rDock_2013.1_src/data/scripts/dock_solv.prm

>  <Rbt.Receptor>
prm/pocket_docking_7.prm

>  <SCORE>
-15.6806

>  <SCORE.INTER>
-8.77096

>  <SCORE.INTER.CONST>
1

>  <SCORE.INTER.POLAR>
0

>  <SCORE.INTER.ROT>
7

>  <SCORE.INTER.SOLV>
8.36161

>  <SCORE.INTER.VDW>
-16.9012

>  <SCORE.INTER.norm>
-0.32485

>  <SCORE.INTRA>
-6.90961

>  <SCORE.INTRA.DIHEDRAL>
-1.21916

>  <SCORE.INTRA.DIHEDRAL.0>
9.29433

>  <SCORE.INTRA.POLAR>
0

>  <SCORE.INTRA.POLAR.0>
0

>  <SCORE.INTRA.REPUL>
0

>  <SCORE.INTRA.REPUL.0>
0

>  <SCORE.INTRA.SOLV>
1.18864

>  <SCORE.INTRA.SOLV.lig_0>
-48.5102

>  <SCORE.INTRA.VDW>
-6.89435

>  <SCORE.INTRA.VDW.0>
0.379549

>  <SCORE.INTRA.norm>
-0.255912

>  <SCORE.RESTR>
0

>  <SCORE.RESTR.CAVITY>
0

>  <SCORE.RESTR.norm>
0

>  <SCORE.SYSTEM>
0

>  <SCORE.SYSTEM.CONST>
0

>  <SCORE.SYSTEM.DIHEDRAL>
0

>  <SCORE.SYSTEM.SOLV>
0

>  <SCORE.SYSTEM.norm>
0

>  <SCORE.heavy>
27

>  <SCORE.norm>
-0.580762

>  <RMSD>
5.707

$$$$
ligand
 OpenBabel11021811483D
libRbt.so/2013.1/901 2013/11/27
 27 29  0  0  0  0  0  0  0  0999 V2000
   45.7539   57.6601   29.8098 N   0  0  0  0  0  0  0  0  0  0  0  0
   46.4976   58.5023   30.7454 C   0  0  2  0  0  0  0  0  0  0  0  0
   46.1175   59.9387   30.5297 C   0  0  0  0  0  0  0  0  0  0  0  0
   45.1091   60.2160   29.8889 O   0  0  0  0  0  0  0  0  0  0  0  0
   48.0010   58.3444   30.5216 C   0  0  0  0  0  0  0  0  0  0  0  0
   48.4338   56.9831   31.0350 C   0  0  0  0  0  0  0  0  0  0  0  0
   47.9838   56.6755   32.7727 S   0  0  2  0  0  0  0  0  0  0  0  0
   49.0857   57.7610   33.7265 C   0  0  0  0  0  0  0  0  0  0  0  0
   49.0245   55.1648   33.2403 C   0  0  0  0  0  0  0  0  0  0  0  0
   48.7040   53.7611   32.5746 C   0  0  2  0  0  0  0  0  0  0  0  0
   49.1811   53.5123   31.2716 O   0  0  0  0  0  0  0  0  0  0  0  0
   47.3578   53.1647   32.6803 C   0  0  1  0  0  0  0  0  0  0  0  0
   46.5733   53.7542   33.7179 O   0  0  0  0  0  0  0  0  0  0  0  0
   46.8877   53.5070   31.1880 C   0  0  2  0  0  0  0  0  0  0  0  0
   45.7054   52.8341   30.8743 O   0  0  0  0  0  0  0  0  0  0  0  0
   48.0846   52.9822   30.3973 C   0  0  1  0  0  0  0  0  0  0  0  0
   46.7940   60.8281   31.0300 O   0  0  0  0  0  0  0  0  0  0  0  0
   46.5316   52.3045   25.5745 N   0  0  0  0  0  0  0  0  0  0  0  0
   46.1396   51.7204   26.7099 C   0  0  0  0  0  0  0  0  0  0  0  0
   46.6655   52.0677   27.8808 N   0  0  0  0  0  0  0  0  0  0  0  0
   47.6831   52.9396   27.9606 C   0  0  0  0  0  0  0  0  0  0  0  0
   48.1724   53.5461   26.7749 C   0  0  0  0  0  0  0  0  0  0  0  0
   47.5417   53.1962   25.5487 C   0  0  0  0  0  0  0  0  0  0  0  0
   47.9487   53.7537   24.3535 N   0  0  0  0  0  0  0  0  0  0  0  0
   49.1806   54.3615   27.1306 N   0  0  0  0  0  0  0  0  0  0  0  0
   49.3515   54.3002   28.4243 C   0  0  0  0  0  0  0  0  0  0  0  0
   48.4486   53.4469   28.9942 N   0  0  0  0  0  0  0  0  0  0  0  0
  2  1  1  6  0  0  0
  2  3  1  0  0  0  0
  2  5  1  0  0  0  0
  3  4  1  0  0  0  0
  3 17  1  0  0  0  0
  5  6  1  0  0  0  0
  7  6  1  6  0  0  0
  7  8  1  0  0  0  0
  7  9  1  0  0  0  0
 10  9  1  6  0  0  0
 10 11  1  0  0  0  0
 10 12  1  0  0  0  0
 11 16  1  0  0  0  0
 12 13  1  1  0  0  0
 12 14  1  0  0  0  0
 14 15  1  6  0  0  0
 14 16  1  0  0  0  0
 16 27  1  6  0  0  0
 18 19  2  0  0  0  0
 18 23  1  0  0  0  0
 19 20  1  0  0  0  0
 20 21  2  0  0  0  0
 21 22  1  0  0  0  0
 21 27  1  0  0  0  0
 22 23  2  0  0  0  0
 22 25  1  0  0  0  0
 23 24  1  0  0  0  0
 25 26  2  0  0  0  0
 26 27  1  0  0  0  0
M  END
>  <CHROM.1>
15.66792471,-72.45599599,-55.03123746,-71.14771933,-68.06069616,79.83825795
171.82629864,47.52191196,55.22637338,30.05892723,1.70471627,-1.35013829,0.87411614

>  <Name>
ligand

>  <RI>
0

>  <Rbt.Current_Directory>
/home/itssahil/PROJECTS/Mol_Feturizer/New_Systems/rnas/3IQR

>  <Rbt.Executable>
rbdock ($Id: //depot/dev/client3/rdock/2013.1/src/exe/rbdock.cxx#4 $)

>  <Rbt.Library>
libRbt.so (2013.1, Build901 2013/11/27)

>  <Rbt.Parameter_File>
/export/apps/rDock/src/rDock_2013.1_src/data/scripts/dock_solv.prm

>  <Rbt.Receptor>
prm/pocket_docking_5.prm

>  <SCORE>
-16.2336

>  <SCORE.INTER>
-10.8064

>  <SCORE.INTER.CONST>
1

>  <SCORE.INTER.POLAR>
0

>  <SCORE.INTER.ROT>
7

>  <SCORE.INTER.SOLV>
8.00012

>  <SCORE.INTER.VDW>
-18.1376

>  <SCORE.INTER.norm>
-0.400236

>  <SCORE.INTRA>
-5.42718

>  <SCORE.INTRA.DIHEDRAL>
-3.64319

>  <SCORE.INTRA.DIHEDRAL.0>
9.29433

>  <SCORE.INTRA.POLAR>
0

>  <SCORE.INTRA.POLAR.0>
0

>  <SCORE.INTRA.REPUL>
0

>  <SCORE.INTRA.REPUL.0>
0

>  <SCORE.INTRA.SOLV>
-0.162836

>  <SCORE.INTRA.SOLV.lig_0>
-48.5102

>  <SCORE.INTRA.VDW>
-3.52417

>  <SCORE.INTRA.VDW.0>
0.379549

>  <SCORE.INTRA.norm>
-0.201007

>  <SCORE.RESTR>
0

>  <SCORE.RESTR.CAVITY>
0

>  <SCORE.RESTR.norm>
0

>  <SCORE.SYSTEM>
0

>  <SCORE.SYSTEM.CONST>
0

>  <SCORE.SYSTEM.DIHEDRAL>
0

>  <SCORE.SYSTEM.SOLV>
0

>  <SCORE.SYSTEM.norm>
0

>  <SCORE.heavy>
27

>  <SCORE.norm>
-0.601243

>  <RMSD>
5.711

$$$$
ligand
 OpenBabel11021811483D
libRbt.so/2013.1/901 2013/11/27
 27 29  0  0  0  0  0  0  0  0999 V2000
   43.5555   53.7040   29.9880 N   0  0  0  0  0  0  0  0  0  0  0  0
   42.9717   55.0444   30.0081 C   0  0  2  0  0  0  0  0  0  0  0  0
   41.5808   54.9880   29.4456 C   0  0  0  0  0  0  0  0  0  0  0  0
   40.8042   55.9178   29.6374 O   0  0  0  0  0  0  0  0  0  0  0  0
   43.8129   56.0021   29.1654 C   0  0  0  0  0  0  0  0  0  0  0  0
   45.2243   56.0369   29.7228 C   0  0  0  0  0  0  0  0  0  0  0  0
   46.3266   57.2030   28.8614 S   0  0  2  0  0  0  0  0  0  0  0  0
   46.3545   56.6161   27.1418 C   0  0  0  0  0  0  0  0  0  0  0  0
   48.0530   56.4864   29.1615 C   0  0  0  0  0  0  0  0  0  0  0  0
   48.6969   56.5840   30.6079 C   0  0  2  0  0  0  0  0  0  0  0  0
   48.3001   55.6466   31.5831 O   0  0  0  0  0  0  0  0  0  0  0  0
   48.8532   57.8897   31.2787 C   0  0  1  0  0  0  0  0  0  0  0  0
   48.7507   58.9901   30.3742 O   0  0  0  0  0  0  0  0  0  0  0  0
   47.6267   57.7219   32.2949 C   0  0  2  0  0  0  0  0  0  0  0  0
   47.6553   58.7162   33.2744 O   0  0  0  0  0  0  0  0  0  0  0  0
   47.9291   56.3361   32.8617 C   0  0  1  0  0  0  0  0  0  0  0  0
   41.2401   54.0313   28.7617 O   0  0  0  0  0  0  0  0  0  0  0  0
   47.4698   53.1910   36.8652 N   0  0  0  0  0  0  0  0  0  0  0  0
   48.5285   53.8512   36.3885 C   0  0  0  0  0  0  0  0  0  0  0  0
   48.4233   54.6507   35.3311 N   0  0  0  0  0  0  0  0  0  0  0  0
   47.2787   54.7457   34.6360 C   0  0  0  0  0  0  0  0  0  0  0  0
   46.1399   54.0196   35.0710 C   0  0  0  0  0  0  0  0  0  0  0  0
   46.2749   53.2247   36.2429 C   0  0  0  0  0  0  0  0  0  0  0  0
   45.2100   52.5007   36.7395 N   0  0  0  0  0  0  0  0  0  0  0  0
   45.1440   54.2849   34.2074 N   0  0  0  0  0  0  0  0  0  0  0  0
   45.5770   55.1014   33.2842 C   0  0  0  0  0  0  0  0  0  0  0  0
   46.8855   55.4311   33.5014 N   0  0  0  0  0  0  0  0  0  0  0  0
  2  1  1  6  0  0  0
  2  3  1  0  0  0  0
  2  5  1  0  0  0  0
  3  4  1  0  0  0  0
  3 17  1  0  0  0  0
  5  6  1  0  0  0  0
  7  6  1  1  0  0  0
  7  8  1  0  0  0  0
  7  9  1  0  0  0  0
 10  9  1  6  0  0  0
 10 11  1  0  0  0  0
 10 12  1  0  0  0  0
 11 16  1  0  0  0  0
 12 13  1  6  0  0  0
 12 14  1  0  0  0  0
 14 15  1  1  0  0  0
 14 16  1  0  0  0  0
 16 27  1  6  0  0  0
 18 19  2  0  0  0  0
 18 23  1  0  0  0  0
 19 20  1  0  0  0  0
 20 21  2  0  0  0  0
 21 22  1  0  0  0  0
 21 27  1  0  0  0  0
 22 23  2  0  0  0  0
 22 25  1  0  0  0  0
 23 24  1  0  0  0  0
 25 26  2  0  0  0  0
 26 27  1  0  0  0  0
M  END
>  <CHROM.1>
163.72000888,-58.95279172,-177.27537416,-60.09773193,-72.01145787,80.29847072
109.43538938,46.08289468,55.64709496,31.83717851,2.06862388,-0.46167327,-1.08329142

>  <Name>
ligand

>  <RI>
0

>  <Rbt.Current_Directory>
/home/itssahil/PROJECTS/Mol_Feturizer/New_Systems/rnas/3IQR

>  <Rbt.Executable>
rbdock ($Id: //depot/dev/client3/rdock/2013.1/src/exe/rbdock.cxx#4 $)

>  <Rbt.Library>
libRbt.so (2013.1, Build901 2013/11/27)

>  <Rbt.Parameter_File>
/export/apps/rDock/src/rDock_2013.1_src/data/scripts/dock_solv.prm

>  <Rbt.Receptor>
prm/pocket_docking_8.prm

>  <SCORE>
-18.0529

>  <SCORE.INTER>
-12.3107

>  <SCORE.INTER.CONST>
1

>  <SCORE.INTER.POLAR>
0

>  <SCORE.INTER.ROT>
7

>  <SCORE.INTER.SOLV>
14.0125

>  <SCORE.INTER.VDW>
-21.1446

>  <SCORE.INTER.norm>
-0.455952

>  <SCORE.INTRA>
-5.74217

>  <SCORE.INTRA.DIHEDRAL>
-3.75435

>  <SCORE.INTRA.DIHEDRAL.0>
9.29433

>  <SCORE.INTRA.POLAR>
0

>  <SCORE.INTRA.POLAR.0>
0

>  <SCORE.INTRA.REPUL>
0

>  <SCORE.INTRA.REPUL.0>
0

>  <SCORE.INTRA.SOLV>
-0.87078

>  <SCORE.INTRA.SOLV.lig_0>
-48.5102

>  <SCORE.INTRA.VDW>
-3.42961

>  <SCORE.INTRA.VDW.0>
0.379549

>  <SCORE.INTRA.norm>
-0.212673

>  <SCORE.RESTR>
0

>  <SCORE.RESTR.CAVITY>
0

>  <SCORE.RESTR.norm>
0

>  <SCORE.SYSTEM>
0

>  <SCORE.SYSTEM.CONST>
0

>  <SCORE.SYSTEM.DIHEDRAL>
0

>  <SCORE.SYSTEM.SOLV>
0

>  <SCORE.SYSTEM.norm>
0

>  <SCORE.heavy>
27

>  <SCORE.norm>
-0.668625

>  <RMSD>
5.716

$$$$
ligand
 OpenBabel11021811483D
libRbt.so/2013.1/901 2013/11/27
 27 29  0  0  0  0  0  0  0  0999 V2000
   44.8620   56.8734   32.6665 N   0  0  0  0  0  0  0  0  0  0  0  0
   44.2568   56.9081   31.3359 C   0  0  2  0  0  0  0  0  0  0  0  0
   43.3008   55.7590   31.1957 C   0  0  0  0  0  0  0  0  0  0  0  0
   43.1924   54.9383   32.1008 O   0  0  0  0  0  0  0  0  0  0  0  0
   45.3355   56.7948   30.2594 C   0  0  0  0  0  0  0  0  0  0  0  0
   46.1891   58.0496   30.2851 C   0  0  0  0  0  0  0  0  0  0  0  0
   47.5043   58.0703   29.0256 S   0  0  2  0  0  0  0  0  0  0  0  0
   46.6603   57.6224   27.4798 C   0  0  0  0  0  0  0  0  0  0  0  0
   48.2606   56.3389   29.1447 C   0  0  0  0  0  0  0  0  0  0  0  0
   48.8768   55.8505   30.5224 C   0  0  2  0  0  0  0  0  0  0  0  0
   48.3498   54.6862   31.1174 O   0  0  0  0  0  0  0  0  0  0  0  0
   49.1686   56.8131   31.6029 C   0  0  1  0  0  0  0  0  0  0  0  0
   49.2172   58.1634   31.1404 O   0  0  0  0  0  0  0  0  0  0  0  0
   47.9069   56.4482   32.5195 C   0  0  2  0  0  0  0  0  0  0  0  0
   48.0282   57.0289   33.7833 O   0  0  0  0  0  0  0  0  0  0  0  0
   48.0315   54.9264   32.5626 C   0  0  1  0  0  0  0  0  0  0  0  0
   42.6021   55.6684   30.1944 O   0  0  0  0  0  0  0  0  0  0  0  0
   45.8739   52.6220   36.5831 N   0  0  0  0  0  0  0  0  0  0  0  0
   46.9808   53.3638   36.4902 C   0  0  0  0  0  0  0  0  0  0  0  0
   47.3565   53.8989   35.3324 N   0  0  0  0  0  0  0  0  0  0  0  0
   46.7019   53.6306   34.1915 C   0  0  0  0  0  0  0  0  0  0  0  0
   45.5509   52.8017   34.2299 C   0  0  0  0  0  0  0  0  0  0  0  0
   45.1440   52.2996   35.4972 C   0  0  0  0  0  0  0  0  0  0  0  0
   44.0263   51.4993   35.6212 N   0  0  0  0  0  0  0  0  0  0  0  0
   45.0965   52.6915   32.9692 N   0  0  0  0  0  0  0  0  0  0  0  0
   45.8710   53.3734   32.1683 C   0  0  0  0  0  0  0  0  0  0  0  0
   46.8743   53.9853   32.8663 N   0  0  0  0  0  0  0  0  0  0  0  0
  2  1  1  1  0  0  0
  2  3  1  0  0  0  0
  2  5  1  0  0  0  0
  3  4  1  0  0  0  0
  3 17  1  0  0  0  0
  5  6  1  0  0  0  0
  7  6  1  1  0  0  0
  7  8  1  0  0  0  0
  7  9  1  0  0  0  0
 10  9  1  6  0  0  0
 10 11  1  0  0  0  0
 10 12  1  0  0  0  0
 11 16  1  0  0  0  0
 12 13  1  6  0  0  0
 12 14  1  0  0  0  0
 14 15  1  1  0  0  0
 14 16  1  0  0  0  0
 16 27  1  6  0  0  0
 18 19  2  0  0  0  0
 18 23  1  0  0  0  0
 19 20  1  0  0  0  0
 20 21  2  0  0  0  0
 21 22  1  0  0  0  0
 21 27  1  0  0  0  0
 22 23  2  0  0  0  0
 22 25  1  0  0  0  0
 23 24  1  0  0  0  0
 25 26  2  0  0  0  0
 26 27  1  0  0  0  0
M  END
>  <CHROM.1>
-3.86328813,-67.40170269,-178.84940939,49.06578137,-58.76670702,121.37410933
156.78628501,46.40093882,55.42609884,32.10404053,1.32787053,-0.23087259,-0.92839250

>  <Name>
ligand

>  <RI>
0

>  <Rbt.Current_Directory>
/home/itssahil/PROJECTS/Mol_Feturizer/New_Systems/rnas/3IQR

>  <Rbt.Executable>
rbdock ($Id: //depot/dev/client3/rdock/2013.1/src/exe/rbdock.cxx#4 $)

>  <Rbt.Library>
libRbt.so (2013.1, Build901 2013/11/27)

>  <Rbt.Parameter_File>
/export/apps/rDock/src/rDock_2013.1_src/data/scripts/dock_solv.prm

>  <Rbt.Receptor>
prm/pocket_docking_6.prm

>  <SCORE>
-11.8406

>  <SCORE.INTER>
-9.09753

>  <SCORE.INTER.CONST>
1

>  <SCORE.INTER.POLAR>
0

>  <SCORE.INTER.ROT>
7

>  <SCORE.INTER.SOLV>
16.2562

>  <SCORE.INTER.VDW>
-19.7504

>  <SCORE.INTER.norm>
-0.336946

>  <SCORE.INTRA>
-2.84092

>  <SCORE.INTRA.DIHEDRAL>
-0.887161

>  <SCORE.INTRA.DIHEDRAL.0>
9.29433

>  <SCORE.INTRA.POLAR>
0

>  <SCORE.INTRA.POLAR.0>
0

>  <SCORE.INTRA.REPUL>
0

>  <SCORE.INTRA.REPUL.0>
0

>  <SCORE.INTRA.SOLV>
2.53444

>  <SCORE.INTRA.SOLV.lig_0>
-48.5102

>  <SCORE.INTRA.VDW>
-3.66456

>  <SCORE.INTRA.VDW.0>
0.379549

>  <SCORE.INTRA.norm>
-0.105219

>  <SCORE.RESTR>
0.0978778

>  <SCORE.RESTR.CAVITY>
0.0978778

>  <SCORE.RESTR.norm>
0.0036251

>  <SCORE.SYSTEM>
0

>  <SCORE.SYSTEM.CONST>
0

>  <SCORE.SYSTEM.DIHEDRAL>
0

>  <SCORE.SYSTEM.SOLV>
0

>  <SCORE.SYSTEM.norm>
0

>  <SCORE.heavy>
27

>  <SCORE.norm>
-0.43854

>  <RMSD>
5.721

$$$$
ligand
 OpenBabel11021811483D
libRbt.so/2013.1/901 2013/11/27
 27 29  0  0  0  0  0  0  0  0999 V2000
   44.8561   55.9489   31.3846 N   0  0  0  0  0  0  0  0  0  0  0  0
   44.6686   56.5775   30.0778 C   0  0  2  0  0  0  0  0  0  0  0  0
   43.8584   55.6669   29.2011 C   0  0  0  0  0  0  0  0  0  0  0  0
   44.1085   54.4666   29.1674 O   0  0  0  0  0  0  0  0  0  0  0  0
   46.0207   56.8365   29.4148 C   0  0  0  0  0  0  0  0  0  0  0  0
   46.3980   58.2923   29.6206 C   0  0  0  0  0  0  0  0  0  0  0  0
   46.4783   58.7908   31.3703 S   0  0  2  0  0  0  0  0  0  0  0  0
   46.1261   60.5735   31.3516 C   0  0  0  0  0  0  0  0  0  0  0  0
   48.3193   59.1310   31.6513 C   0  0  0  0  0  0  0  0  0  0  0  0
   49.3189   57.9123   31.8292 C   0  0  2  0  0  0  0  0  0  0  0  0
   49.5083   57.0361   30.7413 O   0  0  0  0  0  0  0  0  0  0  0  0
   49.3083   57.1003   33.0620 C   0  0  1  0  0  0  0  0  0  0  0  0
   48.6399   57.7495   34.1443 O   0  0  0  0  0  0  0  0  0  0  0  0
   48.5424   55.8371   32.4431 C   0  0  2  0  0  0  0  0  0  0  0  0
   48.5938   54.7496   33.3170 O   0  0  0  0  0  0  0  0  0  0  0  0
   49.3688   55.6090   31.1789 C   0  0  1  0  0  0  0  0  0  0  0  0
   42.9232   56.1202   28.5538 O   0  0  0  0  0  0  0  0  0  0  0  0
   51.0061   54.2394   26.5341 N   0  0  0  0  0  0  0  0  0  0  0  0
   51.5805   54.9900   27.4779 C   0  0  0  0  0  0  0  0  0  0  0  0
   50.9824   55.2055   28.6458 N   0  0  0  0  0  0  0  0  0  0  0  0
   49.7357   54.7689   28.8854 C   0  0  0  0  0  0  0  0  0  0  0  0
   49.0615   54.0135   27.8913 C   0  0  0  0  0  0  0  0  0  0  0  0
   49.7589   53.7502   26.6798 C   0  0  0  0  0  0  0  0  0  0  0  0
   49.1785   53.0098   25.6699 N   0  0  0  0  0  0  0  0  0  0  0  0
   47.8453   53.7099   28.3776 N   0  0  0  0  0  0  0  0  0  0  0  0
   47.7180   54.2177   29.5744 C   0  0  0  0  0  0  0  0  0  0  0  0
   48.8572   54.8742   29.9478 N   0  0  0  0  0  0  0  0  0  0  0  0
  2  1  1  1  0  0  0
  2  3  1  0  0  0  0
  2  5  1  0  0  0  0
  3  4  1  0  0  0  0
  3 17  1  0  0  0  0
  5  6  1  0  0  0  0
  7  6  1  6  0  0  0
  7  8  1  0  0  0  0
  7  9  1  0  0  0  0
 10  9  1  6  0  0  0
 10 11  1  0  0  0  0
 10 12  1  0  0  0  0
 11 16  1  0  0  0  0
 12 13  1  1  0  0  0
 12 14  1  0  0  0  0
 14 15  1  1  0  0  0
 14 16  1  0  0  0  0
 16 27  1  6  0  0  0
 18 19  2  0  0  0  0
 18 23  1  0  0  0  0
 19 20  1  0  0  0  0
 20 21  2  0  0  0  0
 21 22  1  0  0  0  0
 21 27  1  0  0  0  0
 22 23  2  0  0  0  0
 22 25  1  0  0  0  0
 23 24  1  0  0  0  0
 25 26  2  0  0  0  0
 26 27  1  0  0  0  0
M  END
>  <CHROM.1>
-44.08492184,-99.52985481,57.72759832,-153.15021398,-77.02513556,64.54121230
68.01572898,47.75451471,56.14877311,30.06324647,2.10157015,-0.15954053,0.89576174

>  <Name>
ligand

>  <RI>
0

>  <Rbt.Current_Directory>
/home/itssahil/PROJECTS/Mol_Feturizer/New_Systems/rnas/3IQR

>  <Rbt.Executable>
rbdock ($Id: //depot/dev/client3/rdock/2013.1/src/exe/rbdock.cxx#4 $)

>  <Rbt.Library>
libRbt.so (2013.1, Build901 2013/11/27)

>  <Rbt.Parameter_File>
/export/apps/rDock/src/rDock_2013.1_src/data/scripts/dock_solv.prm

>  <Rbt.Receptor>
prm/pocket_docking_5.prm

>  <SCORE>
-17.9723

>  <SCORE.INTER>
-14.091

>  <SCORE.INTER.CONST>
1

>  <SCORE.INTER.POLAR>
0

>  <SCORE.INTER.ROT>
7

>  <SCORE.INTER.SOLV>
8.20228

>  <SCORE.INTER.VDW>
-20.3948

>  <SCORE.INTER.norm>
-0.52189

>  <SCORE.INTRA>
-3.88128

>  <SCORE.INTRA.DIHEDRAL>
2.25655

>  <SCORE.INTRA.DIHEDRAL.0>
9.29433

>  <SCORE.INTRA.POLAR>
0

>  <SCORE.INTRA.POLAR.0>
0

>  <SCORE.INTRA.REPUL>
0

>  <SCORE.INTRA.REPUL.0>
0

>  <SCORE.INTRA.SOLV>
0.6106

>  <SCORE.INTRA.SOLV.lig_0>
-48.5102

>  <SCORE.INTRA.VDW>
-5.31486

>  <SCORE.INTRA.VDW.0>
0.379549

>  <SCORE.INTRA.norm>
-0.143751

>  <SCORE.RESTR>
0

>  <SCORE.RESTR.CAVITY>
0

>  <SCORE.RESTR.norm>
0

>  <SCORE.SYSTEM>
0

>  <SCORE.SYSTEM.CONST>
0

>  <SCORE.SYSTEM.DIHEDRAL>
0

>  <SCORE.SYSTEM.SOLV>
0

>  <SCORE.SYSTEM.norm>
0

>  <SCORE.heavy>
27

>  <SCORE.norm>
-0.665642

>  <RMSD>
5.726

$$$$
ligand
 OpenBabel11021811483D
libRbt.so/2013.1/901 2013/11/27
 27 29  0  0  0  0  0  0  0  0999 V2000
   45.7450   55.2222   27.6484 N   0  0  0  0  0  0  0  0  0  0  0  0
   45.9698   56.6377   27.9374 C   0  0  2  0  0  0  0  0  0  0  0  0
   47.4073   56.9768   27.6672 C   0  0  0  0  0  0  0  0  0  0  0  0
   47.7021   58.0767   27.2114 O   0  0  0  0  0  0  0  0  0  0  0  0
   45.6527   56.9371   29.4020 C   0  0  0  0  0  0  0  0  0  0  0  0
   45.7947   58.4294   29.6403 C   0  0  0  0  0  0  0  0  0  0  0  0
   45.4883   58.9312   31.3640 S   0  0  2  0  0  0  0  0  0  0  0  0
   46.0931   60.6424   31.4535 C   0  0  0  0  0  0  0  0  0  0  0  0
   47.0221   58.3133   32.2858 C   0  0  0  0  0  0  0  0  0  0  0  0
   47.4380   56.7868   32.1715 C   0  0  2  0  0  0  0  0  0  0  0  0
   46.4393   55.8056   32.3362 O   0  0  0  0  0  0  0  0  0  0  0  0
   48.6673   56.2882   32.8193 C   0  0  1  0  0  0  0  0  0  0  0  0
   49.5697   57.3376   33.1714 O   0  0  0  0  0  0  0  0  0  0  0  0
   47.9445   55.5643   34.0517 C   0  0  2  0  0  0  0  0  0  0  0  0
   48.8438   54.7535   34.7466 O   0  0  0  0  0  0  0  0  0  0  0  0
   46.8833   54.7548   33.3089 C   0  0  1  0  0  0  0  0  0  0  0  0
   48.2845   56.1681   27.9421 O   0  0  0  0  0  0  0  0  0  0  0  0
   45.3662   52.2821   37.5179 N   0  0  0  0  0  0  0  0  0  0  0  0
   46.5897   52.5669   37.0638 C   0  0  0  0  0  0  0  0  0  0  0  0
   46.7646   53.2539   35.9388 N   0  0  0  0  0  0  0  0  0  0  0  0
   45.7271   53.5971   35.1592 C   0  0  0  0  0  0  0  0  0  0  0  0
   44.4099   53.2678   35.5715 C   0  0  0  0  0  0  0  0  0  0  0  0
   44.2598   52.5882   36.8121 C   0  0  0  0  0  0  0  0  0  0  0  0
   43.0112   52.2463   37.2908 N   0  0  0  0  0  0  0  0  0  0  0  0
   43.5709   53.7147   34.6206 N   0  0  0  0  0  0  0  0  0  0  0  0
   44.2599   54.2801   33.6656 C   0  0  0  0  0  0  0  0  0  0  0  0
   45.5971   54.2484   33.9465 N   0  0  0  0  0  0  0  0  0  0  0  0
  2  1  1  1  0  0  0
  2  3  1  0  0  0  0
  2  5  1  0  0  0  0
  3  4  1  0  0  0  0
  3 17  1  0  0  0  0
  5  6  1  0  0  0  0
  7  6  1  6  0  0  0
  7  8  1  0  0  0  0
  7  9  1  0  0  0  0
 10  9  1  1  0  0  0
 10 11  1  0  0  0  0
 10 12  1  0  0  0  0
 11 16  1  0  0  0  0
 12 13  1  1  0  0  0
 12 14  1  0  0  0  0
 14 15  1  6  0  0  0
 14 16  1  0  0  0  0
 16 27  1  1  0  0  0
 18 19  2  0  0  0  0
 18 23  1  0  0  0  0
 19 20  1  0  0  0  0
 20 21  2  0  0  0  0
 21 22  1  0  0  0  0
 21 27  1  0  0  0  0
 22 23  2  0  0  0  0
 22 25  1  0  0  0  0
 23 24  1  0  0  0  0
 25 26  2  0  0  0  0
 26 27  1  0  0  0  0
M  END
>  <CHROM.1>
144.61644886,-175.74801620,-178.44804234,167.18587509,-54.40842039,-46.87701196
-159.98896048,46.33663398,55.78159831,32.54602702,1.34857463,-0.59762830
-1.11593565

>  <Name>
ligand

>  <RI>
0

>  <Rbt.Current_Directory>
/home/itssahil/PROJECTS/Mol_Feturizer/New_Systems/rnas/3IQR

>  <Rbt.Executable>
rbdock ($Id: //depot/dev/client3/rdock/2013.1/src/exe/rbdock.cxx#4 $)

>  <Rbt.Library>
libRbt.so (2013.1, Build901 2013/11/27)

>  <Rbt.Parameter_File>
/export/apps/rDock/src/rDock_2013.1_src/data/scripts/dock_solv.prm

>  <Rbt.Receptor>
prm/pocket_docking_8.prm

>  <SCORE>
-22.6039

>  <SCORE.INTER>
-16.5773

>  <SCORE.INTER.CONST>
1

>  <SCORE.INTER.POLAR>
0

>  <SCORE.INTER.ROT>
7

>  <SCORE.INTER.SOLV>
10.969

>  <SCORE.INTER.VDW>
-22.9746

>  <SCORE.INTER.norm>
-0.613975

>  <SCORE.INTRA>
-6.02656

>  <SCORE.INTRA.DIHEDRAL>
-4.26794

>  <SCORE.INTRA.DIHEDRAL.0>
9.29433

>  <SCORE.INTRA.POLAR>
0

>  <SCORE.INTRA.POLAR.0>
0

>  <SCORE.INTRA.REPUL>
0

>  <SCORE.INTRA.REPUL.0>
0

>  <SCORE.INTRA.SOLV>
-1.62048

>  <SCORE.INTRA.SOLV.lig_0>
-48.5102

>  <SCORE.INTRA.VDW>
-3.08235

>  <SCORE.INTRA.VDW.0>
0.379549

>  <SCORE.INTRA.norm>
-0.223206

>  <SCORE.RESTR>
0

>  <SCORE.RESTR.CAVITY>
0

>  <SCORE.RESTR.norm>
0

>  <SCORE.SYSTEM>
0

>  <SCORE.SYSTEM.CONST>
0

>  <SCORE.SYSTEM.DIHEDRAL>
0

>  <SCORE.SYSTEM.SOLV>
0

>  <SCORE.SYSTEM.norm>
0

>  <SCORE.heavy>
27

>  <SCORE.norm>
-0.837181

>  <RMSD>
5.734

$$$$
ligand
 OpenBabel11021811483D
libRbt.so/2013.1/901 2013/11/27
 27 29  0  0  0  0  0  0  0  0999 V2000
   47.0678   55.0378   25.5248 N   0  0  0  0  0  0  0  0  0  0  0  0
   47.2097   53.8810   26.4077 C   0  0  2  0  0  0  0  0  0  0  0  0
   47.0283   52.6225   25.6093 C   0  0  0  0  0  0  0  0  0  0  0  0
   45.9423   52.0525   25.6024 O   0  0  0  0  0  0  0  0  0  0  0  0
   46.1574   53.9263   27.5148 C   0  0  0  0  0  0  0  0  0  0  0  0
   46.5737   54.9589   28.5465 C   0  0  0  0  0  0  0  0  0  0  0  0
   45.9676   56.6391   28.1913 S   0  0  2  0  0  0  0  0  0  0  0  0
   47.2988   57.4070   27.2216 C   0  0  0  0  0  0  0  0  0  0  0  0
   46.4772   57.6282   29.7229 C   0  0  0  0  0  0  0  0  0  0  0  0
   47.8359   57.2758   30.4619 C   0  0  2  0  0  0  0  0  0  0  0  0
   48.9439   56.8903   29.6803 O   0  0  0  0  0  0  0  0  0  0  0  0
   47.8385   56.4462   31.6830 C   0  0  1  0  0  0  0  0  0  0  0  0
   46.5511   56.3624   32.2955 O   0  0  0  0  0  0  0  0  0  0  0  0
   48.3553   55.0987   30.9883 C   0  0  2  0  0  0  0  0  0  0  0  0
   48.7147   54.1522   31.9494 O   0  0  0  0  0  0  0  0  0  0  0  0
   49.5605   55.6337   30.2174 C   0  0  1  0  0  0  0  0  0  0  0  0
   47.9547   52.1922   24.9342 O   0  0  0  0  0  0  0  0  0  0  0  0
   49.3296   51.1366   27.7980 N   0  0  0  0  0  0  0  0  0  0  0  0
   48.7803   51.5413   28.9463 C   0  0  0  0  0  0  0  0  0  0  0  0
   48.9490   52.7831   29.3909 N   0  0  0  0  0  0  0  0  0  0  0  0
   49.7615   53.6476   28.7629 C   0  0  0  0  0  0  0  0  0  0  0  0
   50.4123   53.2459   27.5677 C   0  0  0  0  0  0  0  0  0  0  0  0
   50.1568   51.9306   27.0899 C   0  0  0  0  0  0  0  0  0  0  0  0
   50.7389   51.4693   25.9266 N   0  0  0  0  0  0  0  0  0  0  0  0
   51.1596   54.2836   27.1523 N   0  0  0  0  0  0  0  0  0  0  0  0
   51.0262   55.2767   27.9904 C   0  0  0  0  0  0  0  0  0  0  0  0
   50.1661   54.9482   29.0006 N   0  0  0  0  0  0  0  0  0  0  0  0
  2  1  1  6  0  0  0
  2  3  1  0  0  0  0
  2  5  1  0  0  0  0
  3  4  1  0  0  0  0
  3 17  1  0  0  0  0
  5  6  1  0  0  0  0
  7  6  1  1  0  0  0
  7  8  1  0  0  0  0
  7  9  1  0  0  0  0
 10  9  1  6  0  0  0
 10 11  1  0  0  0  0
 10 12  1  0  0  0  0
 11 16  1  0  0  0  0
 12 13  1  6  0  0  0
 12 14  1  0  0  0  0
 14 15  1  1  0  0  0
 14 16  1  0  0  0  0
 16 27  1  6  0  0  0
 18 19  2  0  0  0  0
 18 23  1  0  0  0  0
 19 20  1  0  0  0  0
 20 21  2  0  0  0  0
 21 22  1  0  0  0  0
 21 27  1  0  0  0  0
 22 23  2  0  0  0  0
 22 25  1  0  0  0  0
 23 24  1  0  0  0  0
 25 26  2  0  0  0  0
 26 27  1  0  0  0  0
M  END
>  <CHROM.1>
-97.96551293,-76.07285363,88.97877157,-91.60013741,34.67583052,36.78195412
-124.70927633,48.20265416,54.52348314,28.38051182,1.30063350,0.61579645,-2.21832595

>  <Name>
ligand

>  <RI>
0

>  <Rbt.Current_Directory>
/home/itssahil/PROJECTS/Mol_Feturizer/New_Systems/rnas/3IQR

>  <Rbt.Executable>
rbdock ($Id: //depot/dev/client3/rdock/2013.1/src/exe/rbdock.cxx#4 $)

>  <Rbt.Library>
libRbt.so (2013.1, Build901 2013/11/27)

>  <Rbt.Parameter_File>
/export/apps/rDock/src/rDock_2013.1_src/data/scripts/dock_solv.prm

>  <Rbt.Receptor>
prm/pocket_docking_4.prm

>  <SCORE>
-10.5677

>  <SCORE.INTER>
-7.5002

>  <SCORE.INTER.CONST>
1

>  <SCORE.INTER.POLAR>
0

>  <SCORE.INTER.ROT>
7

>  <SCORE.INTER.SOLV>
9.96092

>  <SCORE.INTER.VDW>
-16.5871

>  <SCORE.INTER.norm>
-0.277785

>  <SCORE.INTRA>
-3.09955

>  <SCORE.INTRA.DIHEDRAL>
1.17878

>  <SCORE.INTRA.DIHEDRAL.0>
9.29433

>  <SCORE.INTRA.POLAR>
0

>  <SCORE.INTRA.POLAR.0>
0

>  <SCORE.INTRA.REPUL>
0

>  <SCORE.INTRA.REPUL.0>
0

>  <SCORE.INTRA.SOLV>
3.07725

>  <SCORE.INTRA.SOLV.lig_0>
-48.5102

>  <SCORE.INTRA.VDW>
-5.22756

>  <SCORE.INTRA.VDW.0>
0.379549

>  <SCORE.INTRA.norm>
-0.114798

>  <SCORE.RESTR>
0.0320563

>  <SCORE.RESTR.CAVITY>
0.0320563

>  <SCORE.RESTR.norm>
0.00118727

>  <SCORE.SYSTEM>
0

>  <SCORE.SYSTEM.CONST>
0

>  <SCORE.SYSTEM.DIHEDRAL>
0

>  <SCORE.SYSTEM.SOLV>
0

>  <SCORE.SYSTEM.norm>
0

>  <SCORE.heavy>
27

>  <SCORE.norm>
-0.391396

>  <RMSD>
5.753

$$$$
ligand
 OpenBabel11021811483D
libRbt.so/2013.1/901 2013/11/27
 27 29  0  0  0  0  0  0  0  0999 V2000
   45.3072   58.3842   28.9810 N   0  0  0  0  0  0  0  0  0  0  0  0
   45.8718   57.8644   30.2255 C   0  0  2  0  0  0  0  0  0  0  0  0
   45.3783   58.6912   31.3775 C   0  0  0  0  0  0  0  0  0  0  0  0
   44.8391   58.1472   32.3355 O   0  0  0  0  0  0  0  0  0  0  0  0
   47.3980   57.9277   30.1829 C   0  0  0  0  0  0  0  0  0  0  0  0
   47.9584   56.9875   31.2345 C   0  0  0  0  0  0  0  0  0  0  0  0
   47.7495   57.5857   32.9419 S   0  0  2  0  0  0  0  0  0  0  0  0
   49.1767   58.6759   33.2193 C   0  0  0  0  0  0  0  0  0  0  0  0
   48.5504   56.2275   33.9896 C   0  0  0  0  0  0  0  0  0  0  0  0
   48.0916   54.7213   33.7963 C   0  0  2  0  0  0  0  0  0  0  0  0
   48.8298   53.9031   32.9171 O   0  0  0  0  0  0  0  0  0  0  0  0
   46.6644   54.3814   33.6329 C   0  0  1  0  0  0  0  0  0  0  0  0
   45.7952   55.4332   34.0547 O   0  0  0  0  0  0  0  0  0  0  0  0
   46.7159   54.1280   32.0523 C   0  0  2  0  0  0  0  0  0  0  0  0
   45.5367   53.5268   31.6083 O   0  0  0  0  0  0  0  0  0  0  0  0
   47.9177   53.1893   31.9651 C   0  0  1  0  0  0  0  0  0  0  0  0
   45.5533   59.9029   31.3749 O   0  0  0  0  0  0  0  0  0  0  0  0
   47.2692   51.8975   27.0619 N   0  0  0  0  0  0  0  0  0  0  0  0
   46.4041   51.9328   28.0789 C   0  0  0  0  0  0  0  0  0  0  0  0
   46.7809   52.3298   29.2908 N   0  0  0  0  0  0  0  0  0  0  0  0
   48.0643   52.6090   29.5688 C   0  0  0  0  0  0  0  0  0  0  0  0
   49.0316   52.5322   28.5336 C   0  0  0  0  0  0  0  0  0  0  0  0
   48.5785   52.1651   27.2361 C   0  0  0  0  0  0  0  0  0  0  0  0
   49.4541   52.0828   26.1723 N   0  0  0  0  0  0  0  0  0  0  0  0
   50.2206   52.8514   29.0742 N   0  0  0  0  0  0  0  0  0  0  0  0
   50.0635   53.1092   30.3451 C   0  0  0  0  0  0  0  0  0  0  0  0
   48.7513   52.9871   30.7075 N   0  0  0  0  0  0  0  0  0  0  0  0
  2  1  1  6  0  0  0
  2  3  1  0  0  0  0
  2  5  1  0  0  0  0
  3  4  1  0  0  0  0
  3 17  1  0  0  0  0
  5  6  1  0  0  0  0
  7  6  1  6  0  0  0
  7  8  1  0  0  0  0
  7  9  1  0  0  0  0
 10  9  1  6  0  0  0
 10 11  1  0  0  0  0
 10 12  1  0  0  0  0
 11 16  1  0  0  0  0
 12 13  1  6  0  0  0
 12 14  1  0  0  0  0
 14 15  1  1  0  0  0
 14 16  1  0  0  0  0
 16 27  1  6  0  0  0
 18 19  2  0  0  0  0
 18 23  1  0  0  0  0
 19 20  1  0  0  0  0
 20 21  2  0  0  0  0
 21 22  1  0  0  0  0
 21 27  1  0  0  0  0
 22 23  2  0  0  0  0
 22 25  1  0  0  0  0
 23 24  1  0  0  0  0
 25 26  2  0  0  0  0
 26 27  1  0  0  0  0
M  END
>  <CHROM.1>
126.61582424,-161.23119900,-72.67213540,-85.01957013,-53.10531770,94.42152659
-166.49237928,47.45367896,55.17775208,30.99074046,2.14819617,-1.10043500
1.13350260

>  <Name>
ligand

>  <RI>
0

>  <Rbt.Current_Directory>
/home/itssahil/PROJECTS/Mol_Feturizer/New_Systems/rnas/3IQR

>  <Rbt.Executable>
rbdock ($Id: //depot/dev/client3/rdock/2013.1/src/exe/rbdock.cxx#4 $)

>  <Rbt.Library>
libRbt.so (2013.1, Build901 2013/11/27)

>  <Rbt.Parameter_File>
/export/apps/rDock/src/rDock_2013.1_src/data/scripts/dock_solv.prm

>  <Rbt.Receptor>
prm/pocket_docking_5.prm

>  <SCORE>
-19.3279

>  <SCORE.INTER>
-14.0687

>  <SCORE.INTER.CONST>
1

>  <SCORE.INTER.POLAR>
0

>  <SCORE.INTER.ROT>
7

>  <SCORE.INTER.SOLV>
10.4845

>  <SCORE.INTER.VDW>
-21.1406

>  <SCORE.INTER.norm>
-0.521062

>  <SCORE.INTRA>
-5.25921

>  <SCORE.INTRA.DIHEDRAL>
0.113166

>  <SCORE.INTRA.DIHEDRAL.0>
9.29433

>  <SCORE.INTRA.POLAR>
0

>  <SCORE.INTRA.POLAR.0>
0

>  <SCORE.INTRA.REPUL>
0

>  <SCORE.INTRA.REPUL.0>
0

>  <SCORE.INTRA.SOLV>
-0.986266

>  <SCORE.INTRA.SOLV.lig_0>
-48.5102

>  <SCORE.INTRA.VDW>
-4.82266

>  <SCORE.INTRA.VDW.0>
0.379549

>  <SCORE.INTRA.norm>
-0.194785

>  <SCORE.RESTR>
0

>  <SCORE.RESTR.CAVITY>
0

>  <SCORE.RESTR.norm>
0

>  <SCORE.SYSTEM>
0

>  <SCORE.SYSTEM.CONST>
0

>  <SCORE.SYSTEM.DIHEDRAL>
0

>  <SCORE.SYSTEM.SOLV>
0

>  <SCORE.SYSTEM.norm>
0

>  <SCORE.heavy>
27

>  <SCORE.norm>
-0.715847

>  <RMSD>
5.758

$$$$
ligand
 OpenBabel11021811483D
libRbt.so/2013.1/901 2013/11/27
 27 29  0  0  0  0  0  0  0  0999 V2000
   43.7944   52.9319   32.5772 N   0  0  0  0  0  0  0  0  0  0  0  0
   44.0901   52.5391   33.9542 C   0  0  2  0  0  0  0  0  0  0  0  0
   42.8131   52.1607   34.6472 C   0  0  0  0  0  0  0  0  0  0  0  0
   41.8124   52.8567   34.5106 O   0  0  0  0  0  0  0  0  0  0  0  0
   44.7431   53.6971   34.7076 C   0  0  0  0  0  0  0  0  0  0  0  0
   45.0813   53.2392   36.1147 C   0  0  0  0  0  0  0  0  0  0  0  0
   46.7026   52.4211   36.2521 S   0  0  2  0  0  0  0  0  0  0  0  0
   47.0494   52.3961   38.0357 C   0  0  0  0  0  0  0  0  0  0  0  0
   47.9363   53.8357   36.0056 C   0  0  0  0  0  0  0  0  0  0  0  0
   48.4428   54.1822   34.5429 C   0  0  2  0  0  0  0  0  0  0  0  0
   48.1588   55.4602   34.0201 O   0  0  0  0  0  0  0  0  0  0  0  0
   48.3018   53.2069   33.4437 C   0  0  1  0  0  0  0  0  0  0  0  0
   48.0610   51.8794   33.9119 O   0  0  0  0  0  0  0  0  0  0  0  0
   47.0575   53.9166   32.7272 C   0  0  2  0  0  0  0  0  0  0  0  0
   46.8272   53.3597   31.4680 O   0  0  0  0  0  0  0  0  0  0  0  0
   47.5723   55.3524   32.6445 C   0  0  1  0  0  0  0  0  0  0  0  0
   42.7641   51.1348   35.3136 O   0  0  0  0  0  0  0  0  0  0  0  0
   47.9316   60.3039   31.4265 N   0  0  0  0  0  0  0  0  0  0  0  0
   48.8751   59.3727   31.5900 C   0  0  0  0  0  0  0  0  0  0  0  0
   48.5586   58.1158   31.8871 N   0  0  0  0  0  0  0  0  0  0  0  0
   47.2908   57.7536   32.1390 C   0  0  0  0  0  0  0  0  0  0  0  0
   46.2581   58.7207   32.0323 C   0  0  0  0  0  0  0  0  0  0  0  0
   46.6293   60.0398   31.6506 C   0  0  0  0  0  0  0  0  0  0  0  0
   45.6824   61.0341   31.5098 N   0  0  0  0  0  0  0  0  0  0  0  0
   45.1021   58.1053   32.3373 N   0  0  0  0  0  0  0  0  0  0  0  0
   45.3405   56.8536   32.6252 C   0  0  0  0  0  0  0  0  0  0  0  0
   46.6733   56.5733   32.5095 N   0  0  0  0  0  0  0  0  0  0  0  0
  2  1  1  6  0  0  0
  2  3  1  0  0  0  0
  2  5  1  0  0  0  0
  3  4  1  0  0  0  0
  3 17  1  0  0  0  0
  5  6  1  0  0  0  0
  7  6  1  1  0  0  0
  7  8  1  0  0  0  0
  7  9  1  0  0  0  0
 10  9  1  1  0  0  0
 10 11  1  0  0  0  0
 10 12  1  0  0  0  0
 11 16  1  0  0  0  0
 12 13  1  1  0  0  0
 12 14  1  0  0  0  0
 14 15  1  6  0  0  0
 14 16  1  0  0  0  0
 16 27  1  1  0  0  0
 18 19  2  0  0  0  0
 18 23  1  0  0  0  0
 19 20  1  0  0  0  0
 20 21  2  0  0  0  0
 21 22  1  0  0  0  0
 21 27  1  0  0  0  0
 22 23  2  0  0  0  0
 22 25  1  0  0  0  0
 23 24  1  0  0  0  0
 25 26  2  0  0  0  0
 26 27  1  0  0  0  0
M  END
>  <CHROM.1>
-44.08448706,-177.97712245,86.45622410,164.99397045,-90.08855649,118.08309119
83.14008285,46.27401009,54.99070187,33.68412491,1.83660691,0.15274485,2.61923931

>  <Name>
ligand

>  <RI>
0

>  <Rbt.Current_Directory>
/home/itssahil/PROJECTS/Mol_Feturizer/New_Systems/rnas/3IQR

>  <Rbt.Executable>
rbdock ($Id: //depot/dev/client3/rdock/2013.1/src/exe/rbdock.cxx#4 $)

>  <Rbt.Library>
libRbt.so (2013.1, Build901 2013/11/27)

>  <Rbt.Parameter_File>
/export/apps/rDock/src/rDock_2013.1_src/data/scripts/dock_solv.prm

>  <Rbt.Receptor>
prm/pocket_docking_8.prm

>  <SCORE>
-18.8173

>  <SCORE.INTER>
-16.9685

>  <SCORE.INTER.CONST>
1

>  <SCORE.INTER.POLAR>
0

>  <SCORE.INTER.ROT>
7

>  <SCORE.INTER.SOLV>
20.1673

>  <SCORE.INTER.VDW>
-26.3015

>  <SCORE.INTER.norm>
-0.628465

>  <SCORE.INTRA>
-1.84876

>  <SCORE.INTRA.DIHEDRAL>
2.48241

>  <SCORE.INTRA.DIHEDRAL.0>
9.29433

>  <SCORE.INTRA.POLAR>
0

>  <SCORE.INTRA.POLAR.0>
0

>  <SCORE.INTRA.REPUL>
0

>  <SCORE.INTRA.REPUL.0>
0

>  <SCORE.INTRA.SOLV>
0.943093

>  <SCORE.INTRA.SOLV.lig_0>
-48.5102

>  <SCORE.INTRA.VDW>
-3.56151

>  <SCORE.INTRA.VDW.0>
0.379549

>  <SCORE.INTRA.norm>
-0.0684727

>  <SCORE.RESTR>
0

>  <SCORE.RESTR.CAVITY>
0

>  <SCORE.RESTR.norm>
0

>  <SCORE.SYSTEM>
0

>  <SCORE.SYSTEM.CONST>
0

>  <SCORE.SYSTEM.DIHEDRAL>
0

>  <SCORE.SYSTEM.SOLV>
0

>  <SCORE.SYSTEM.norm>
0

>  <SCORE.heavy>
27

>  <SCORE.norm>
-0.696937

>  <RMSD>
5.771

$$$$
ligand
 OpenBabel11021811483D
libRbt.so/2013.1/901 2013/11/27
 27 29  0  0  0  0  0  0  0  0999 V2000
   48.4565   56.6257   30.7345 N   0  0  0  0  0  0  0  0  0  0  0  0
   48.2342   57.1477   32.0821 C   0  0  2  0  0  0  0  0  0  0  0  0
   48.3251   58.6460   32.0549 C   0  0  0  0  0  0  0  0  0  0  0  0
   48.1791   59.2876   33.0900 O   0  0  0  0  0  0  0  0  0  0  0  0
   49.2886   56.6006   33.0434 C   0  0  0  0  0  0  0  0  0  0  0  0
   48.9816   55.1422   33.3312 C   0  0  0  0  0  0  0  0  0  0  0  0
   47.7191   54.8970   34.6206 S   0  0  2  0  0  0  0  0  0  0  0  0
   48.5904   54.0124   35.9474 C   0  0  0  0  0  0  0  0  0  0  0  0
   46.8488   53.3010   34.0924 C   0  0  0  0  0  0  0  0  0  0  0  0
   45.6438   53.3740   33.0633 C   0  0  2  0  0  0  0  0  0  0  0  0
   45.9304   53.2717   31.6868 O   0  0  0  0  0  0  0  0  0  0  0  0
   44.5723   54.3766   33.2247 C   0  0  1  0  0  0  0  0  0  0  0  0
   44.5377   54.9406   34.5362 O   0  0  0  0  0  0  0  0  0  0  0  0
   45.0701   55.3651   32.0670 C   0  0  2  0  0  0  0  0  0  0  0  0
   44.0980   56.3265   31.7845 O   0  0  0  0  0  0  0  0  0  0  0  0
   45.2582   54.3720   30.9218 C   0  0  1  0  0  0  0  0  0  0  0  0
   48.5861   59.2201   31.0054 O   0  0  0  0  0  0  0  0  0  0  0  0
   48.5362   51.8013   27.9593 N   0  0  0  0  0  0  0  0  0  0  0  0
   47.8839   51.4339   29.0654 C   0  0  0  0  0  0  0  0  0  0  0  0
   47.0440   52.2634   29.6777 N   0  0  0  0  0  0  0  0  0  0  0  0
   46.8968   53.5352   29.2740 C   0  0  0  0  0  0  0  0  0  0  0  0
   47.6115   53.9895   28.1355 C   0  0  0  0  0  0  0  0  0  0  0  0
   48.4518   53.0541   27.4702 C   0  0  0  0  0  0  0  0  0  0  0  0
   49.1685   53.4133   26.3467 N   0  0  0  0  0  0  0  0  0  0  0  0
   47.2917   55.2827   27.9536 N   0  0  0  0  0  0  0  0  0  0  0  0
   46.4522   55.6562   28.8821 C   0  0  0  0  0  0  0  0  0  0  0  0
   46.1613   54.6172   29.7212 N   0  0  0  0  0  0  0  0  0  0  0  0
  2  1  1  6  0  0  0
  2  3  1  0  0  0  0
  2  5  1  0  0  0  0
  3  4  1  0  0  0  0
  3 17  1  0  0  0  0
  5  6  1  0  0  0  0
  7  6  1  6  0  0  0
  7  8  1  0  0  0  0
  7  9  1  0  0  0  0
 10  9  1  1  0  0  0
 10 11  1  0  0  0  0
 10 12  1  0  0  0  0
 11 16  1  0  0  0  0
 12 13  1  1  0  0  0
 12 14  1  0  0  0  0
 14 15  1  6  0  0  0
 14 16  1  0  0  0  0
 16 27  1  6  0  0  0
 18 19  2  0  0  0  0
 18 23  1  0  0  0  0
 19 20  1  0  0  0  0
 20 21  2  0  0  0  0
 21 22  1  0  0  0  0
 21 27  1  0  0  0  0
 22 23  2  0  0  0  0
 22 25  1  0  0  0  0
 23 24  1  0  0  0  0
 25 26  2  0  0  0  0
 26 27  1  0  0  0  0
M  END
>  <CHROM.1>
-179.42329269,-73.64221374,-82.33876796,-117.44294059,-86.33003158,90.48048945
28.53129612,47.18901655,54.94418361,31.42907059,-1.38605790,1.11156067,0.96412942

>  <Name>
ligand

>  <RI>
0

>  <Rbt.Current_Directory>
/home/itssahil/PROJECTS/Mol_Feturizer/New_Systems/rnas/3IQR

>  <Rbt.Executable>
rbdock ($Id: //depot/dev/client3/rdock/2013.1/src/exe/rbdock.cxx#4 $)

>  <Rbt.Library>
libRbt.so (2013.1, Build901 2013/11/27)

>  <Rbt.Parameter_File>
/export/apps/rDock/src/rDock_2013.1_src/data/scripts/dock_solv.prm

>  <Rbt.Receptor>
prm/pocket_docking_4.prm

>  <SCORE>
-12.8363

>  <SCORE.INTER>
-11.7606

>  <SCORE.INTER.CONST>
1

>  <SCORE.INTER.POLAR>
0

>  <SCORE.INTER.ROT>
7

>  <SCORE.INTER.SOLV>
6.43068

>  <SCORE.INTER.VDW>
-18.2506

>  <SCORE.INTER.norm>
-0.435576

>  <SCORE.INTRA>
-1.07576

>  <SCORE.INTRA.DIHEDRAL>
3.35004

>  <SCORE.INTRA.DIHEDRAL.0>
9.29433

>  <SCORE.INTRA.POLAR>
0

>  <SCORE.INTRA.POLAR.0>
0

>  <SCORE.INTRA.REPUL>
0

>  <SCORE.INTRA.REPUL.0>
0

>  <SCORE.INTRA.SOLV>
2.09831

>  <SCORE.INTRA.SOLV.lig_0>
-48.5102

>  <SCORE.INTRA.VDW>
-3.79994

>  <SCORE.INTRA.VDW.0>
0.379549

>  <SCORE.INTRA.norm>
-0.0398431

>  <SCORE.RESTR>
0

>  <SCORE.RESTR.CAVITY>
0

>  <SCORE.RESTR.norm>
0

>  <SCORE.SYSTEM>
0

>  <SCORE.SYSTEM.CONST>
0

>  <SCORE.SYSTEM.DIHEDRAL>
0

>  <SCORE.SYSTEM.SOLV>
0

>  <SCORE.SYSTEM.norm>
0

>  <SCORE.heavy>
27

>  <SCORE.norm>
-0.475419

>  <RMSD>
5.774

$$$$
ligand
 OpenBabel11021811483D
libRbt.so/2013.1/901 2013/11/27
 27 29  0  0  0  0  0  0  0  0999 V2000
   50.0130   55.0611   28.2122 N   0  0  0  0  0  0  0  0  0  0  0  0
   49.9479   54.6731   29.6204 C   0  0  2  0  0  0  0  0  0  0  0  0
   49.7709   53.1853   29.7172 C   0  0  0  0  0  0  0  0  0  0  0  0
   50.0446   52.6024   30.7611 O   0  0  0  0  0  0  0  0  0  0  0  0
   48.7691   55.3621   30.3065 C   0  0  0  0  0  0  0  0  0  0  0  0
   49.1420   56.8055   30.5920 C   0  0  0  0  0  0  0  0  0  0  0  0
   47.7533   57.8186   31.1936 S   0  0  2  0  0  0  0  0  0  0  0  0
   48.5411   59.1458   32.1529 C   0  0  0  0  0  0  0  0  0  0  0  0
   47.2239   56.9451   32.7875 C   0  0  0  0  0  0  0  0  0  0  0  0
   46.0412   55.8891   32.7418 C   0  0  2  0  0  0  0  0  0  0  0  0
   46.2322   54.6996   32.0097 O   0  0  0  0  0  0  0  0  0  0  0  0
   44.6466   56.3254   32.5320 C   0  0  1  0  0  0  0  0  0  0  0  0
   44.4626   57.7205   32.7756 O   0  0  0  0  0  0  0  0  0  0  0  0
   44.5435   55.8788   30.9973 C   0  0  2  0  0  0  0  0  0  0  0  0
   43.2205   55.9289   30.5546 O   0  0  0  0  0  0  0  0  0  0  0  0
   45.0729   54.4492   31.0926 C   0  0  1  0  0  0  0  0  0  0  0  0
   49.3143   52.5644   28.7659 O   0  0  0  0  0  0  0  0  0  0  0  0
   46.2976   55.2145   26.1891 N   0  0  0  0  0  0  0  0  0  0  0  0
   45.6773   56.0047   27.0693 C   0  0  0  0  0  0  0  0  0  0  0  0
   45.4772   55.6142   28.3246 N   0  0  0  0  0  0  0  0  0  0  0  0
   45.7929   54.3744   28.7311 C   0  0  0  0  0  0  0  0  0  0  0  0
   46.4040   53.4782   27.8165 C   0  0  0  0  0  0  0  0  0  0  0  0
   46.6593   53.9542   26.5004 C   0  0  0  0  0  0  0  0  0  0  0  0
   47.2645   53.1496   25.5565 N   0  0  0  0  0  0  0  0  0  0  0  0
   46.6075   52.3200   28.4684 N   0  0  0  0  0  0  0  0  0  0  0  0
   46.1697   52.4301   29.6942 C   0  0  0  0  0  0  0  0  0  0  0  0
   45.6652   53.6802   29.9200 N   0  0  0  0  0  0  0  0  0  0  0  0
  2  1  1  6  0  0  0
  2  3  1  0  0  0  0
  2  5  1  0  0  0  0
  3  4  1  0  0  0  0
  3 17  1  0  0  0  0
  5  6  1  0  0  0  0
  7  6  1  1  0  0  0
  7  8  1  0  0  0  0
  7  9  1  0  0  0  0
 10  9  1  6  0  0  0
 10 11  1  0  0  0  0
 10 12  1  0  0  0  0
 11 16  1  0  0  0  0
 12 13  1  6  0  0  0
 12 14  1  0  0  0  0
 14 15  1  1  0  0  0
 14 16  1  0  0  0  0
 16 27  1  6  0  0  0
 18 19  2  0  0  0  0
 18 23  1  0  0  0  0
 19 20  1  0  0  0  0
 20 21  2  0  0  0  0
 21 22  1  0  0  0  0
 21 27  1  0  0  0  0
 22 23  2  0  0  0  0
 22 25  1  0  0  0  0
 23 24  1  0  0  0  0
 25 26  2  0  0  0  0
 26 27  1  0  0  0  0
M  END
>  <CHROM.1>
160.52008301,-77.33585736,171.75660613,154.46971829,-94.97499866,65.34712375
-107.28849064,46.96954576,55.17176298,29.94533856,-1.28259357,-0.08154767
0.88443341

>  <Name>
ligand

>  <RI>
0

>  <Rbt.Current_Directory>
/home/itssahil/PROJECTS/Mol_Feturizer/New_Systems/rnas/3IQR

>  <Rbt.Executable>
rbdock ($Id: //depot/dev/client3/rdock/2013.1/src/exe/rbdock.cxx#4 $)

>  <Rbt.Library>
libRbt.so (2013.1, Build901 2013/11/27)

>  <Rbt.Parameter_File>
/export/apps/rDock/src/rDock_2013.1_src/data/scripts/dock_solv.prm

>  <Rbt.Receptor>
prm/pocket_docking_5.prm

>  <SCORE>
-16.535

>  <SCORE.INTER>
-9.45511

>  <SCORE.INTER.CONST>
1

>  <SCORE.INTER.POLAR>
0

>  <SCORE.INTER.ROT>
7

>  <SCORE.INTER.SOLV>
8.95082

>  <SCORE.INTER.VDW>
-17.5537

>  <SCORE.INTER.norm>
-0.350189

>  <SCORE.INTRA>
-7.07991

>  <SCORE.INTRA.DIHEDRAL>
-1.62036

>  <SCORE.INTRA.DIHEDRAL.0>
9.29433

>  <SCORE.INTRA.POLAR>
0

>  <SCORE.INTRA.POLAR.0>
0

>  <SCORE.INTRA.REPUL>
0

>  <SCORE.INTRA.REPUL.0>
0

>  <SCORE.INTRA.SOLV>
-0.358216

>  <SCORE.INTRA.SOLV.lig_0>
-48.5102

>  <SCORE.INTRA.VDW>
-6.09062

>  <SCORE.INTRA.VDW.0>
0.379549

>  <SCORE.INTRA.norm>
-0.262219

>  <SCORE.RESTR>
0

>  <SCORE.RESTR.CAVITY>
0

>  <SCORE.RESTR.norm>
0

>  <SCORE.SYSTEM>
0

>  <SCORE.SYSTEM.CONST>
0

>  <SCORE.SYSTEM.DIHEDRAL>
0

>  <SCORE.SYSTEM.SOLV>
0

>  <SCORE.SYSTEM.norm>
0

>  <SCORE.heavy>
27

>  <SCORE.norm>
-0.612408

>  <RMSD>
5.780

$$$$
ligand
 OpenBabel11021811483D
libRbt.so/2013.1/901 2013/11/27
 27 29  0  0  0  0  0  0  0  0999 V2000
   50.0986   51.0149   27.1744 N   0  0  0  0  0  0  0  0  0  0  0  0
   50.5887   52.0271   26.2401 C   0  0  2  0  0  0  0  0  0  0  0  0
   51.3544   51.3550   25.1374 C   0  0  0  0  0  0  0  0  0  0  0  0
   52.3842   50.7397   25.3933 O   0  0  0  0  0  0  0  0  0  0  0  0
   51.5096   53.0117   26.9597 C   0  0  0  0  0  0  0  0  0  0  0  0
   50.6629   53.9619   27.7867 C   0  0  0  0  0  0  0  0  0  0  0  0
   50.1493   53.2792   29.3950 S   0  0  2  0  0  0  0  0  0  0  0  0
   48.5224   52.5358   29.0746 C   0  0  0  0  0  0  0  0  0  0  0  0
   49.3348   54.7513   30.2629 C   0  0  0  0  0  0  0  0  0  0  0  0
   49.1103   54.7042   31.8325 C   0  0  2  0  0  0  0  0  0  0  0  0
   48.1649   53.7941   32.3476 O   0  0  0  0  0  0  0  0  0  0  0  0
   49.0081   55.9495   32.6187 C   0  0  1  0  0  0  0  0  0  0  0  0
   49.5121   57.0872   31.9178 O   0  0  0  0  0  0  0  0  0  0  0  0
   47.4187   55.9139   32.8131 C   0  0  2  0  0  0  0  0  0  0  0  0
   47.0141   56.8568   33.7597 O   0  0  0  0  0  0  0  0  0  0  0  0
   47.2356   54.4791   33.3040 C   0  0  1  0  0  0  0  0  0  0  0  0
   50.9252   51.3889   23.9912 O   0  0  0  0  0  0  0  0  0  0  0  0
   43.7173   52.3970   36.3728 N   0  0  0  0  0  0  0  0  0  0  0  0
   44.8876   52.9774   36.6513 C   0  0  0  0  0  0  0  0  0  0  0  0
   45.6518   53.4845   35.6884 N   0  0  0  0  0  0  0  0  0  0  0  0
   45.3325   53.3413   34.3924 C   0  0  0  0  0  0  0  0  0  0  0  0
   44.1254   52.6824   34.0433 C   0  0  0  0  0  0  0  0  0  0  0  0
   43.3037   52.2096   35.1039 C   0  0  0  0  0  0  0  0  0  0  0  0
   42.1067   51.5720   34.8482 N   0  0  0  0  0  0  0  0  0  0  0  0
   44.0512   52.6707   32.7008 N   0  0  0  0  0  0  0  0  0  0  0  0
   45.1069   53.2574   32.2033 C   0  0  0  0  0  0  0  0  0  0  0  0
   45.9303   53.7029   33.1992 N   0  0  0  0  0  0  0  0  0  0  0  0
  2  1  1  1  0  0  0
  2  3  1  0  0  0  0
  2  5  1  0  0  0  0
  3  4  1  0  0  0  0
  3 17  1  0  0  0  0
  5  6  1  0  0  0  0
  7  6  1  6  0  0  0
  7  8  1  0  0  0  0
  7  9  1  0  0  0  0
 10  9  1  6  0  0  0
 10 11  1  0  0  0  0
 10 12  1  0  0  0  0
 11 16  1  0  0  0  0
 12 13  1  6  0  0  0
 12 14  1  0  0  0  0
 14 15  1  1  0  0  0
 14 16  1  0  0  0  0
 16 27  1  6  0  0  0
 18 19  2  0  0  0  0
 18 23  1  0  0  0  0
 19 20  1  0  0  0  0
 20 21  2  0  0  0  0
 21 22  1  0  0  0  0
 21 27  1  0  0  0  0
 22 23  2  0  0  0  0
 22 25  1  0  0  0  0
 23 24  1  0  0  0  0
 25 26  2  0  0  0  0
 26 27  1  0  0  0  0
M  END
>  <CHROM.1>
-63.54761336,-76.03812584,81.60973593,-92.99691220,-162.99353318,-68.58422689
132.55438755,47.88902326,53.39139359,31.11267354,0.68083850,-0.69108834,-2.38215109

>  <Name>
ligand

>  <RI>
0

>  <Rbt.Current_Directory>
/home/itssahil/PROJECTS/Mol_Feturizer/New_Systems/rnas/3IQR

>  <Rbt.Executable>
rbdock ($Id: //depot/dev/client3/rdock/2013.1/src/exe/rbdock.cxx#4 $)

>  <Rbt.Library>
libRbt.so (2013.1, Build901 2013/11/27)

>  <Rbt.Parameter_File>
/export/apps/rDock/src/rDock_2013.1_src/data/scripts/dock_solv.prm

>  <Rbt.Receptor>
prm/pocket_docking_8.prm

>  <SCORE>
-13.2099

>  <SCORE.INTER>
-11.0806

>  <SCORE.INTER.CONST>
1

>  <SCORE.INTER.POLAR>
0

>  <SCORE.INTER.ROT>
7

>  <SCORE.INTER.SOLV>
12.4343

>  <SCORE.INTER.VDW>
-19.7985

>  <SCORE.INTER.norm>
-0.410392

>  <SCORE.INTRA>
-2.12936

>  <SCORE.INTRA.DIHEDRAL>
-0.122916

>  <SCORE.INTRA.DIHEDRAL.0>
9.29433

>  <SCORE.INTRA.POLAR>
0

>  <SCORE.INTRA.POLAR.0>
0

>  <SCORE.INTRA.REPUL>
0

>  <SCORE.INTRA.REPUL.0>
0

>  <SCORE.INTRA.SOLV>
1.06685

>  <SCORE.INTRA.SOLV.lig_0>
-48.5102

>  <SCORE.INTRA.VDW>
-2.60133

>  <SCORE.INTRA.VDW.0>
0.379549

>  <SCORE.INTRA.norm>
-0.0788653

>  <SCORE.RESTR>
0

>  <SCORE.RESTR.CAVITY>
0

>  <SCORE.RESTR.norm>
0

>  <SCORE.SYSTEM>
0

>  <SCORE.SYSTEM.CONST>
0

>  <SCORE.SYSTEM.DIHEDRAL>
0

>  <SCORE.SYSTEM.SOLV>
0

>  <SCORE.SYSTEM.norm>
0

>  <SCORE.heavy>
27

>  <SCORE.norm>
-0.489257

>  <RMSD>
5.791

$$$$
ligand
 OpenBabel11021811483D
libRbt.so/2013.1/901 2013/11/27
 27 29  0  0  0  0  0  0  0  0999 V2000
   45.3362   57.6106   30.8430 N   0  0  0  0  0  0  0  0  0  0  0  0
   45.8337   58.6009   31.7968 C   0  0  2  0  0  0  0  0  0  0  0  0
   45.9652   59.9292   31.1095 C   0  0  0  0  0  0  0  0  0  0  0  0
   46.6446   60.8162   31.6154 O   0  0  0  0  0  0  0  0  0  0  0  0
   47.2004   58.1794   32.3349 C   0  0  0  0  0  0  0  0  0  0  0  0
   47.0362   56.9132   33.1557 C   0  0  0  0  0  0  0  0  0  0  0  0
   48.5787   56.3349   33.9321 S   0  0  2  0  0  0  0  0  0  0  0  0
   49.4072   55.3704   32.6338 C   0  0  0  0  0  0  0  0  0  0  0  0
   48.0606   54.7448   34.8191 C   0  0  0  0  0  0  0  0  0  0  0  0
   47.2766   53.6240   34.0156 C   0  0  2  0  0  0  0  0  0  0  0  0
   47.9566   52.9329   32.9924 O   0  0  0  0  0  0  0  0  0  0  0  0
   45.8913   53.8513   33.5589 C   0  0  1  0  0  0  0  0  0  0  0  0
   45.2594   54.9395   34.2343 O   0  0  0  0  0  0  0  0  0  0  0  0
   46.2465   54.1143   32.0194 C   0  0  2  0  0  0  0  0  0  0  0  0
   45.0899   54.1167   31.2376 O   0  0  0  0  0  0  0  0  0  0  0  0
   47.1400   52.9084   31.7353 C   0  0  1  0  0  0  0  0  0  0  0  0
   45.4264   60.1081   30.0247 O   0  0  0  0  0  0  0  0  0  0  0  0
   47.3115   52.0027   26.7073 N   0  0  0  0  0  0  0  0  0  0  0  0
   46.3033   51.9110   27.5787 C   0  0  0  0  0  0  0  0  0  0  0  0
   46.4700   52.2226   28.8606 N   0  0  0  0  0  0  0  0  0  0  0  0
   47.6781   52.5388   29.3532 C   0  0  0  0  0  0  0  0  0  0  0  0
   48.7923   52.5955   28.4765 C   0  0  0  0  0  0  0  0  0  0  0  0
   48.5614   52.3172   27.1007 C   0  0  0  0  0  0  0  0  0  0  0  0
   49.5896   52.3664   26.1813 N   0  0  0  0  0  0  0  0  0  0  0  0
   49.8656   52.9250   29.2163 N   0  0  0  0  0  0  0  0  0  0  0  0
   49.5049   53.0674   30.4637 C   0  0  0  0  0  0  0  0  0  0  0  0
   48.1630   52.8527   30.6094 N   0  0  0  0  0  0  0  0  0  0  0  0
  2  1  1  6  0  0  0
  2  3  1  0  0  0  0
  2  5  1  0  0  0  0
  3  4  1  0  0  0  0
  3 17  1  0  0  0  0
  5  6  1  0  0  0  0
  7  6  1  6  0  0  0
  7  8  1  0  0  0  0
  7  9  1  0  0  0  0
 10  9  1  6  0  0  0
 10 11  1  0  0  0  0
 10 12  1  0  0  0  0
 11 16  1  0  0  0  0
 12 13  1  1  0  0  0
 12 14  1  0  0  0  0
 14 15  1  6  0  0  0
 14 16  1  0  0  0  0
 16 27  1  6  0  0  0
 18 19  2  0  0  0  0
 18 23  1  0  0  0  0
 19 20  1  0  0  0  0
 20 21  2  0  0  0  0
 21 22  1  0  0  0  0
 21 27  1  0  0  0  0
 22 23  2  0  0  0  0
 22 25  1  0  0  0  0
 23 24  1  0  0  0  0
 25 26  2  0  0  0  0
 26 27  1  0  0  0  0
M  END
>  <CHROM.1>
-163.08835339,-65.96349252,-177.17069309,-83.91459056,51.62866013,67.42899459
166.79832390,47.31015927,54.96404588,31.19257551,2.44827574,-1.29182311,1.47602795

>  <Name>
ligand

>  <RI>
0

>  <Rbt.Current_Directory>
/home/itssahil/PROJECTS/Mol_Feturizer/New_Systems/rnas/3IQR

>  <Rbt.Executable>
rbdock ($Id: //depot/dev/client3/rdock/2013.1/src/exe/rbdock.cxx#4 $)

>  <Rbt.Library>
libRbt.so (2013.1, Build901 2013/11/27)

>  <Rbt.Parameter_File>
/export/apps/rDock/src/rDock_2013.1_src/data/scripts/dock_solv.prm

>  <Rbt.Receptor>
prm/pocket_docking_7.prm

>  <SCORE>
-20.9227

>  <SCORE.INTER>
-17.186

>  <SCORE.INTER.CONST>
1

>  <SCORE.INTER.POLAR>
0

>  <SCORE.INTER.ROT>
7

>  <SCORE.INTER.SOLV>
6.66175

>  <SCORE.INTER.VDW>
-21.9446

>  <SCORE.INTER.norm>
-0.636517

>  <SCORE.INTRA>
-3.73669

>  <SCORE.INTRA.DIHEDRAL>
-4.64314

>  <SCORE.INTRA.DIHEDRAL.0>
9.29433

>  <SCORE.INTRA.POLAR>
0

>  <SCORE.INTRA.POLAR.0>
0

>  <SCORE.INTRA.REPUL>
0

>  <SCORE.INTRA.REPUL.0>
0

>  <SCORE.INTRA.SOLV>
0.899797

>  <SCORE.INTRA.SOLV.lig_0>
-48.5102

>  <SCORE.INTRA.VDW>
-1.86502

>  <SCORE.INTRA.VDW.0>
0.379549

>  <SCORE.INTRA.norm>
-0.138396

>  <SCORE.RESTR>
0

>  <SCORE.RESTR.CAVITY>
0

>  <SCORE.RESTR.norm>
0

>  <SCORE.SYSTEM>
0

>  <SCORE.SYSTEM.CONST>
0

>  <SCORE.SYSTEM.DIHEDRAL>
0

>  <SCORE.SYSTEM.SOLV>
0

>  <SCORE.SYSTEM.norm>
0

>  <SCORE.heavy>
27

>  <SCORE.norm>
-0.774913

>  <RMSD>
5.813

$$$$
ligand
 OpenBabel11021811483D
libRbt.so/2013.1/901 2013/11/27
 27 29  0  0  0  0  0  0  0  0999 V2000
   44.6644   57.9347   31.5813 N   0  0  0  0  0  0  0  0  0  0  0  0
   45.8326   58.7842   31.8079 C   0  0  2  0  0  0  0  0  0  0  0  0
   45.4876   60.2042   31.4635 C   0  0  0  0  0  0  0  0  0  0  0  0
   44.3145   60.5318   31.3186 O   0  0  0  0  0  0  0  0  0  0  0  0
   46.9988   58.3270   30.9325 C   0  0  0  0  0  0  0  0  0  0  0  0
   47.4998   56.9878   31.4417 C   0  0  0  0  0  0  0  0  0  0  0  0
   47.9446   56.9922   33.2078 S   0  0  2  0  0  0  0  0  0  0  0  0
   49.2593   58.2395   33.3422 C   0  0  0  0  0  0  0  0  0  0  0  0
   49.2172   55.5978   33.3488 C   0  0  0  0  0  0  0  0  0  0  0  0
   48.7283   54.0893   33.3088 C   0  0  2  0  0  0  0  0  0  0  0  0
   48.2127   53.5834   32.0983 O   0  0  0  0  0  0  0  0  0  0  0  0
   47.9207   53.5274   34.4095 C   0  0  1  0  0  0  0  0  0  0  0  0
   47.9872   54.3141   35.5995 O   0  0  0  0  0  0  0  0  0  0  0  0
   46.5151   53.5634   33.6425 C   0  0  2  0  0  0  0  0  0  0  0  0
   45.5484   52.8423   34.3457 O   0  0  0  0  0  0  0  0  0  0  0  0
   46.9038   52.8894   32.3280 C   0  0  1  0  0  0  0  0  0  0  0  0
   46.3772   61.0400   31.3690 O   0  0  0  0  0  0  0  0  0  0  0  0
   47.4476   51.8299   27.3569 N   0  0  0  0  0  0  0  0  0  0  0  0
   48.2939   51.6842   28.3799 C   0  0  0  0  0  0  0  0  0  0  0  0
   47.9372   52.0043   29.6203 N   0  0  0  0  0  0  0  0  0  0  0  0
   46.7551   52.5845   29.8815 C   0  0  0  0  0  0  0  0  0  0  0  0
   45.8430   52.8113   28.8185 C   0  0  0  0  0  0  0  0  0  0  0  0
   46.2356   52.3972   27.5154 C   0  0  0  0  0  0  0  0  0  0  0  0
   45.3991   52.5684   26.4310 N   0  0  0  0  0  0  0  0  0  0  0  0
   44.7551   53.4004   29.3452 N   0  0  0  0  0  0  0  0  0  0  0  0
   44.9269   53.5572   30.6306 C   0  0  0  0  0  0  0  0  0  0  0  0
   46.1390   53.0624   31.0233 N   0  0  0  0  0  0  0  0  0  0  0  0
  2  1  1  6  0  0  0
  2  3  1  0  0  0  0
  2  5  1  0  0  0  0
  3  4  1  0  0  0  0
  3 17  1  0  0  0  0
  5  6  1  0  0  0  0
  7  6  1  6  0  0  0
  7  8  1  0  0  0  0
  7  9  1  0  0  0  0
 10  9  1  6  0  0  0
 10 11  1  0  0  0  0
 10 12  1  0  0  0  0
 11 16  1  0  0  0  0
 12 13  1  1  0  0  0
 12 14  1  0  0  0  0
 14 15  1  1  0  0  0
 14 16  1  0  0  0  0
 16 27  1  6  0  0  0
 18 19  2  0  0  0  0
 18 23  1  0  0  0  0
 19 20  1  0  0  0  0
 20 21  2  0  0  0  0
 21 22  1  0  0  0  0
 21 27  1  0  0  0  0
 22 23  2  0  0  0  0
 22 25  1  0  0  0  0
 23 24  1  0  0  0  0
 25 26  2  0  0  0  0
 26 27  1  0  0  0  0
M  END
>  <CHROM.1>
14.30692072,-69.60005223,-54.67108197,-59.99567493,-75.12476115,68.61926559
57.23021046,46.84711491,55.19078399,31.44996451,1.59449242,-1.14496282,0.45852462

>  <Name>
ligand

>  <RI>
0

>  <Rbt.Current_Directory>
/home/itssahil/PROJECTS/Mol_Feturizer/New_Systems/rnas/3IQR

>  <Rbt.Executable>
rbdock ($Id: //depot/dev/client3/rdock/2013.1/src/exe/rbdock.cxx#4 $)

>  <Rbt.Library>
libRbt.so (2013.1, Build901 2013/11/27)

>  <Rbt.Parameter_File>
/export/apps/rDock/src/rDock_2013.1_src/data/scripts/dock_solv.prm

>  <Rbt.Receptor>
prm/pocket_docking_4.prm

>  <SCORE>
-21.4475

>  <SCORE.INTER>
-16.3049

>  <SCORE.INTER.CONST>
1

>  <SCORE.INTER.POLAR>
0

>  <SCORE.INTER.ROT>
7

>  <SCORE.INTER.SOLV>
14.4049

>  <SCORE.INTER.VDW>
-23.9383

>  <SCORE.INTER.norm>
-0.603887

>  <SCORE.INTRA>
-5.14252

>  <SCORE.INTRA.DIHEDRAL>
-4.10366

>  <SCORE.INTRA.DIHEDRAL.0>
9.29433

>  <SCORE.INTRA.POLAR>
0

>  <SCORE.INTRA.POLAR.0>
0

>  <SCORE.INTRA.REPUL>
0

>  <SCORE.INTRA.REPUL.0>
0

>  <SCORE.INTRA.SOLV>
-0.25269

>  <SCORE.INTRA.SOLV.lig_0>
-48.5102

>  <SCORE.INTRA.VDW>
-2.96435

>  <SCORE.INTRA.VDW.0>
0.379549

>  <SCORE.INTRA.norm>
-0.190464

>  <SCORE.RESTR>
0

>  <SCORE.RESTR.CAVITY>
0

>  <SCORE.RESTR.norm>
0

>  <SCORE.SYSTEM>
0

>  <SCORE.SYSTEM.CONST>
0

>  <SCORE.SYSTEM.DIHEDRAL>
0

>  <SCORE.SYSTEM.SOLV>
0

>  <SCORE.SYSTEM.norm>
0

>  <SCORE.heavy>
27

>  <SCORE.norm>
-0.79435

>  <RMSD>
5.819

$$$$
ligand
 OpenBabel11021811483D
libRbt.so/2013.1/901 2013/11/27
 27 29  0  0  0  0  0  0  0  0999 V2000
   47.7573   58.0545   33.0635 N   0  0  0  0  0  0  0  0  0  0  0  0
   47.2514   58.0212   31.6921 C   0  0  2  0  0  0  0  0  0  0  0  0
   48.1127   58.8925   30.8244 C   0  0  0  0  0  0  0  0  0  0  0  0
   48.3760   60.0378   31.1756 O   0  0  0  0  0  0  0  0  0  0  0  0
   45.8130   58.5352   31.6447 C   0  0  0  0  0  0  0  0  0  0  0  0
   44.8996   57.4975   32.2715 C   0  0  0  0  0  0  0  0  0  0  0  0
   44.6841   55.9996   31.2584 S   0  0  2  0  0  0  0  0  0  0  0  0
   43.4745   55.0007   32.1756 C   0  0  0  0  0  0  0  0  0  0  0  0
   46.0907   54.8696   31.8316 C   0  0  0  0  0  0  0  0  0  0  0  0
   47.5402   55.0549   31.2144 C   0  0  2  0  0  0  0  0  0  0  0  0
   47.6906   54.9609   29.8159 O   0  0  0  0  0  0  0  0  0  0  0  0
   48.7139   54.4101   31.8357 C   0  0  1  0  0  0  0  0  0  0  0  0
   48.4650   53.9865   33.1766 O   0  0  0  0  0  0  0  0  0  0  0  0
   48.8654   53.2312   30.7621 C   0  0  2  0  0  0  0  0  0  0  0  0
   50.0791   52.5620   30.9291 O   0  0  0  0  0  0  0  0  0  0  0  0
   48.8166   54.0356   29.4644 C   0  0  1  0  0  0  0  0  0  0  0  0
   48.5837   58.4420   29.7879 O   0  0  0  0  0  0  0  0  0  0  0  0
   47.7012   55.6273   24.7365 N   0  0  0  0  0  0  0  0  0  0  0  0
   47.9321   56.3137   25.8588 C   0  0  0  0  0  0  0  0  0  0  0  0
   48.2345   55.6939   26.9958 N   0  0  0  0  0  0  0  0  0  0  0  0
   48.2164   54.3549   27.0899 C   0  0  0  0  0  0  0  0  0  0  0  0
   47.9218   53.5817   25.9372 C   0  0  0  0  0  0  0  0  0  0  0  0
   47.6657   54.2802   24.7247 C   0  0  0  0  0  0  0  0  0  0  0  0
   47.3866   53.6007   23.5562 N   0  0  0  0  0  0  0  0  0  0  0  0
   47.9641   52.2885   26.3028 N   0  0  0  0  0  0  0  0  0  0  0  0
   48.2518   52.2069   27.5744 C   0  0  0  0  0  0  0  0  0  0  0  0
   48.4301   53.4502   28.1134 N   0  0  0  0  0  0  0  0  0  0  0  0
  2  1  1  1  0  0  0
  2  3  1  0  0  0  0
  2  5  1  0  0  0  0
  3  4  1  0  0  0  0
  3 17  1  0  0  0  0
  5  6  1  0  0  0  0
  7  6  1  1  0  0  0
  7  8  1  0  0  0  0
  7  9  1  0  0  0  0
 10  9  1  1  0  0  0
 10 11  1  0  0  0  0
 10 12  1  0  0  0  0
 11 16  1  0  0  0  0
 12 13  1  1  0  0  0
 12 14  1  0  0  0  0
 14 15  1  1  0  0  0
 14 16  1  0  0  0  0
 16 27  1  6  0  0  0
 18 19  2  0  0  0  0
 18 23  1  0  0  0  0
 19 20  1  0  0  0  0
 20 21  2  0  0  0  0
 21 22  1  0  0  0  0
 21 27  1  0  0  0  0
 22 23  2  0  0  0  0
 22 25  1  0  0  0  0
 23 24  1  0  0  0  0
 25 26  2  0  0  0  0
 26 27  1  0  0  0  0
M  END
>  <CHROM.1>
-49.67116315,-71.88512747,-71.21798060,-176.15500768,-83.00689131,-57.19920535
57.94936402,47.44954043,55.43296512,29.58778711,2.52827783,-1.31061105,2.01685877

>  <Name>
ligand

>  <RI>
0

>  <Rbt.Current_Directory>
/home/itssahil/PROJECTS/Mol_Feturizer/New_Systems/rnas/3IQR

>  <Rbt.Executable>
rbdock ($Id: //depot/dev/client3/rdock/2013.1/src/exe/rbdock.cxx#4 $)

>  <Rbt.Library>
libRbt.so (2013.1, Build901 2013/11/27)

>  <Rbt.Parameter_File>
/export/apps/rDock/src/rDock_2013.1_src/data/scripts/dock_solv.prm

>  <Rbt.Receptor>
prm/pocket_docking_5.prm

>  <SCORE>
-12.232

>  <SCORE.INTER>
-7.51001

>  <SCORE.INTER.CONST>
1

>  <SCORE.INTER.POLAR>
0

>  <SCORE.INTER.ROT>
7

>  <SCORE.INTER.SOLV>
11.9364

>  <SCORE.INTER.VDW>
-17.2521

>  <SCORE.INTER.norm>
-0.278148

>  <SCORE.INTRA>
-4.72198

>  <SCORE.INTRA.DIHEDRAL>
-2.88925

>  <SCORE.INTRA.DIHEDRAL.0>
9.29433

>  <SCORE.INTRA.POLAR>
0

>  <SCORE.INTRA.POLAR.0>
0

>  <SCORE.INTRA.REPUL>
0

>  <SCORE.INTRA.REPUL.0>
0

>  <SCORE.INTRA.SOLV>
1.23751

>  <SCORE.INTRA.SOLV.lig_0>
-48.5102

>  <SCORE.INTRA.VDW>
-3.89611

>  <SCORE.INTRA.VDW.0>
0.379549

>  <SCORE.INTRA.norm>
-0.174888

>  <SCORE.RESTR>
0

>  <SCORE.RESTR.CAVITY>
0

>  <SCORE.RESTR.norm>
0

>  <SCORE.SYSTEM>
0

>  <SCORE.SYSTEM.CONST>
0

>  <SCORE.SYSTEM.DIHEDRAL>
0

>  <SCORE.SYSTEM.SOLV>
0

>  <SCORE.SYSTEM.norm>
0

>  <SCORE.heavy>
27

>  <SCORE.norm>
-0.453037

>  <RMSD>
5.843

$$$$
ligand
 OpenBabel11021811483D
libRbt.so/2013.1/901 2013/11/27
 27 29  0  0  0  0  0  0  0  0999 V2000
   44.3286   57.7749   31.5089 N   0  0  0  0  0  0  0  0  0  0  0  0
   45.5130   58.6322   31.5209 C   0  0  2  0  0  0  0  0  0  0  0  0
   45.1430   59.9963   31.0146 C   0  0  0  0  0  0  0  0  0  0  0  0
   45.0388   60.1948   29.8087 O   0  0  0  0  0  0  0  0  0  0  0  0
   46.6021   58.0449   30.6241 C   0  0  0  0  0  0  0  0  0  0  0  0
   47.4788   57.1248   31.4540 C   0  0  0  0  0  0  0  0  0  0  0  0
   48.0967   57.8853   32.9891 S   0  0  2  0  0  0  0  0  0  0  0  0
   49.6287   58.7282   32.4940 C   0  0  0  0  0  0  0  0  0  0  0  0
   49.0931   56.4965   33.8030 C   0  0  0  0  0  0  0  0  0  0  0  0
   48.5179   55.0182   33.7978 C   0  0  2  0  0  0  0  0  0  0  0  0
   49.1314   54.0629   32.9622 O   0  0  0  0  0  0  0  0  0  0  0  0
   47.0623   54.7741   33.7643 C   0  0  1  0  0  0  0  0  0  0  0  0
   46.3014   55.9259   34.1302 O   0  0  0  0  0  0  0  0  0  0  0  0
   46.9809   54.3622   32.2187 C   0  0  2  0  0  0  0  0  0  0  0  0
   45.7336   53.8121   31.9176 O   0  0  0  0  0  0  0  0  0  0  0  0
   48.1050   53.3303   32.1513 C   0  0  1  0  0  0  0  0  0  0  0  0
   44.9060   60.8962   31.8102 O   0  0  0  0  0  0  0  0  0  0  0  0
   47.0037   51.8026   27.3991 N   0  0  0  0  0  0  0  0  0  0  0  0
   46.2136   52.0140   28.4551 C   0  0  0  0  0  0  0  0  0  0  0  0
   46.7098   52.4415   29.6124 N   0  0  0  0  0  0  0  0  0  0  0  0
   48.0321   52.5763   29.8004 C   0  0  0  0  0  0  0  0  0  0  0  0
   48.9173   52.3098   28.7240 C   0  0  0  0  0  0  0  0  0  0  0  0
   48.3439   51.9156   27.4832 C   0  0  0  0  0  0  0  0  0  0  0  0
   49.1357   51.6532   26.3836 N   0  0  0  0  0  0  0  0  0  0  0  0
   50.1672   52.5136   29.1756 N   0  0  0  0  0  0  0  0  0  0  0  0
   50.1212   52.8739   30.4303 C   0  0  0  0  0  0  0  0  0  0  0  0
   48.8288   52.9414   30.8698 N   0  0  0  0  0  0  0  0  0  0  0  0
  2  1  1  6  0  0  0
  2  3  1  0  0  0  0
  2  5  1  0  0  0  0
  3  4  1  0  0  0  0
  3 17  1  0  0  0  0
  5  6  1  0  0  0  0
  7  6  1  6  0  0  0
  7  8  1  0  0  0  0
  7  9  1  0  0  0  0
 10  9  1  6  0  0  0
 10 11  1  0  0  0  0
 10 12  1  0  0  0  0
 11 16  1  0  0  0  0
 12 13  1  6  0  0  0
 12 14  1  0  0  0  0
 14 15  1  1  0  0  0
 14 16  1  0  0  0  0
 16 27  1  6  0  0  0
 18 19  2  0  0  0  0
 18 23  1  0  0  0  0
 19 20  1  0  0  0  0
 20 21  2  0  0  0  0
 21 22  1  0  0  0  0
 21 27  1  0  0  0  0
 22 23  2  0  0  0  0
 22 25  1  0  0  0  0
 23 24  1  0  0  0  0
 25 26  2  0  0  0  0
 26 27  1  0  0  0  0
M  END
>  <CHROM.1>
-79.64622797,-90.29470076,-51.06145966,-87.14212647,-41.88992413,108.06834186
-163.06349947,47.44591309,55.41682622,31.13000022,2.04295134,-0.92683765
0.82735905

>  <Name>
ligand

>  <RI>
0

>  <Rbt.Current_Directory>
/home/itssahil/PROJECTS/Mol_Feturizer/New_Systems/rnas/3IQR

>  <Rbt.Executable>
rbdock ($Id: //depot/dev/client3/rdock/2013.1/src/exe/rbdock.cxx#4 $)

>  <Rbt.Library>
libRbt.so (2013.1, Build901 2013/11/27)

>  <Rbt.Parameter_File>
/export/apps/rDock/src/rDock_2013.1_src/data/scripts/dock_solv.prm

>  <Rbt.Receptor>
prm/pocket_docking_2.prm

>  <SCORE>
-11.6679

>  <SCORE.INTER>
-13.5675

>  <SCORE.INTER.CONST>
1

>  <SCORE.INTER.POLAR>
0

>  <SCORE.INTER.ROT>
7

>  <SCORE.INTER.SOLV>
13.7715

>  <SCORE.INTER.VDW>
-21.9021

>  <SCORE.INTER.norm>
-0.502498

>  <SCORE.INTRA>
-0.260698

>  <SCORE.INTRA.DIHEDRAL>
3.84179

>  <SCORE.INTRA.DIHEDRAL.0>
9.29433

>  <SCORE.INTRA.POLAR>
0

>  <SCORE.INTRA.POLAR.0>
0

>  <SCORE.INTRA.REPUL>
0

>  <SCORE.INTRA.REPUL.0>
0

>  <SCORE.INTRA.SOLV>
0.721937

>  <SCORE.INTRA.SOLV.lig_0>
-48.5102

>  <SCORE.INTRA.VDW>
-2.54256

>  <SCORE.INTRA.VDW.0>
0.379549

>  <SCORE.INTRA.norm>
-0.00965548

>  <SCORE.RESTR>
2.16028

>  <SCORE.RESTR.CAVITY>
2.16028

>  <SCORE.RESTR.norm>
0.0800102

>  <SCORE.SYSTEM>
0

>  <SCORE.SYSTEM.CONST>
0

>  <SCORE.SYSTEM.DIHEDRAL>
0

>  <SCORE.SYSTEM.SOLV>
0

>  <SCORE.SYSTEM.norm>
0

>  <SCORE.heavy>
27

>  <SCORE.norm>
-0.432143

>  <RMSD>
5.850

$$$$
ligand
 OpenBabel11021811483D
libRbt.so/2013.1/901 2013/11/27
 27 29  0  0  0  0  0  0  0  0999 V2000
   43.3924   52.8820   34.5418 N   0  0  0  0  0  0  0  0  0  0  0  0
   43.9485   53.9977   33.7777 C   0  0  2  0  0  0  0  0  0  0  0  0
   43.2797   54.0615   32.4350 C   0  0  0  0  0  0  0  0  0  0  0  0
   42.9948   53.0259   31.8427 O   0  0  0  0  0  0  0  0  0  0  0  0
   45.4516   53.8073   33.5786 C   0  0  0  0  0  0  0  0  0  0  0  0
   46.1399   53.8855   34.9291 C   0  0  0  0  0  0  0  0  0  0  0  0
   47.9349   53.5861   34.8580 S   0  0  2  0  0  0  0  0  0  0  0  0
   48.4990   53.7959   36.5727 C   0  0  0  0  0  0  0  0  0  0  0  0
   48.6489   55.2755   34.3889 C   0  0  0  0  0  0  0  0  0  0  0  0
   47.8469   56.2103   33.3893 C   0  0  2  0  0  0  0  0  0  0  0  0
   47.4723   55.6861   32.1355 O   0  0  0  0  0  0  0  0  0  0  0  0
   48.2461   57.6169   33.1857 C   0  0  1  0  0  0  0  0  0  0  0  0
   49.1019   58.1027   34.2207 O   0  0  0  0  0  0  0  0  0  0  0  0
   48.9466   57.4045   31.7612 C   0  0  2  0  0  0  0  0  0  0  0  0
   49.2213   58.6323   31.1562 O   0  0  0  0  0  0  0  0  0  0  0  0
   47.8527   56.6269   31.0320 C   0  0  1  0  0  0  0  0  0  0  0  0
   42.9836   55.1480   31.9546 O   0  0  0  0  0  0  0  0  0  0  0  0
   47.5960   56.8422   25.9311 N   0  0  0  0  0  0  0  0  0  0  0  0
   47.2339   57.7276   26.8633 C   0  0  0  0  0  0  0  0  0  0  0  0
   47.4134   57.4785   28.1571 N   0  0  0  0  0  0  0  0  0  0  0  0
   47.8655   56.2892   28.5853 C   0  0  0  0  0  0  0  0  0  0  0  0
   48.2117   55.2947   27.6343 C   0  0  0  0  0  0  0  0  0  0  0  0
   48.0652   55.6218   26.2576 C   0  0  0  0  0  0  0  0  0  0  0  0
   48.3949   54.7150   25.2707 N   0  0  0  0  0  0  0  0  0  0  0  0
   48.6247   54.2141   28.3196 N   0  0  0  0  0  0  0  0  0  0  0  0
   48.5548   54.4605   29.6005 C   0  0  0  0  0  0  0  0  0  0  0  0
   48.1033   55.7305   29.8274 N   0  0  0  0  0  0  0  0  0  0  0  0
  2  1  1  1  0  0  0
  2  3  1  0  0  0  0
  2  5  1  0  0  0  0
  3  4  1  0  0  0  0
  3 17  1  0  0  0  0
  5  6  1  0  0  0  0
  7  6  1  1  0  0  0
  7  8  1  0  0  0  0
  7  9  1  0  0  0  0
 10  9  1  6  0  0  0
 10 11  1  0  0  0  0
 10 12  1  0  0  0  0
 11 16  1  0  0  0  0
 12 13  1  1  0  0  0
 12 14  1  0  0  0  0
 14 15  1  6  0  0  0
 14 16  1  0  0  0  0
 16 27  1  6  0  0  0
 18 19  2  0  0  0  0
 18 23  1  0  0  0  0
 19 20  1  0  0  0  0
 20 21  2  0  0  0  0
 21 22  1  0  0  0  0
 21 27  1  0  0  0  0
 22 23  2  0  0  0  0
 22 25  1  0  0  0  0
 23 24  1  0  0  0  0
 25 26  2  0  0  0  0
 26 27  1  0  0  0  0
M  END
>  <CHROM.1>
-37.90102696,-65.67070377,176.89987461,178.07115096,-35.89067678,-54.44496527
151.05773229,47.12834568,55.39561182,31.46677564,1.87250459,0.56421848,1.69188809

>  <Name>
ligand

>  <RI>
0

>  <Rbt.Current_Directory>
/home/itssahil/PROJECTS/Mol_Feturizer/New_Systems/rnas/3IQR

>  <Rbt.Executable>
rbdock ($Id: //depot/dev/client3/rdock/2013.1/src/exe/rbdock.cxx#4 $)

>  <Rbt.Library>
libRbt.so (2013.1, Build901 2013/11/27)

>  <Rbt.Parameter_File>
/export/apps/rDock/src/rDock_2013.1_src/data/scripts/dock_solv.prm

>  <Rbt.Receptor>
prm/pocket_docking_7.prm

>  <SCORE>
-18.7568

>  <SCORE.INTER>
-13.8444

>  <SCORE.INTER.CONST>
1

>  <SCORE.INTER.POLAR>
0

>  <SCORE.INTER.ROT>
7

>  <SCORE.INTER.SOLV>
10.8987

>  <SCORE.INTER.VDW>
-21.1292

>  <SCORE.INTER.norm>
-0.512756

>  <SCORE.INTRA>
-4.91239

>  <SCORE.INTRA.DIHEDRAL>
-2.34712

>  <SCORE.INTRA.DIHEDRAL.0>
9.29433

>  <SCORE.INTRA.POLAR>
0

>  <SCORE.INTRA.POLAR.0>
0

>  <SCORE.INTRA.REPUL>
0

>  <SCORE.INTRA.REPUL.0>
0

>  <SCORE.INTRA.SOLV>
-1.05008

>  <SCORE.INTRA.SOLV.lig_0>
-48.5102

>  <SCORE.INTRA.VDW>
-3.21379

>  <SCORE.INTRA.VDW.0>
0.379549

>  <SCORE.INTRA.norm>
-0.18194

>  <SCORE.RESTR>
0

>  <SCORE.RESTR.CAVITY>
0

>  <SCORE.RESTR.norm>
0

>  <SCORE.SYSTEM>
0

>  <SCORE.SYSTEM.CONST>
0

>  <SCORE.SYSTEM.DIHEDRAL>
0

>  <SCORE.SYSTEM.SOLV>
0

>  <SCORE.SYSTEM.norm>
0

>  <SCORE.heavy>
27

>  <SCORE.norm>
-0.694696

>  <RMSD>
5.880

$$$$
ligand
 OpenBabel11021811483D
libRbt.so/2013.1/901 2013/11/27
 27 29  0  0  0  0  0  0  0  0999 V2000
   43.9502   54.4923   32.7778 N   0  0  0  0  0  0  0  0  0  0  0  0
   44.7822   55.6606   32.4938 C   0  0  2  0  0  0  0  0  0  0  0  0
   43.9805   56.6629   31.7147 C   0  0  0  0  0  0  0  0  0  0  0  0
   44.2001   57.8619   31.8506 O   0  0  0  0  0  0  0  0  0  0  0  0
   46.0059   55.2538   31.6739 C   0  0  0  0  0  0  0  0  0  0  0  0
   46.8960   56.4686   31.4838 C   0  0  0  0  0  0  0  0  0  0  0  0
   47.3436   57.3027   33.0396 S   0  0  2  0  0  0  0  0  0  0  0  0
   47.8932   58.9571   32.5265 C   0  0  0  0  0  0  0  0  0  0  0  0
   49.1365   56.7688   33.3300 C   0  0  0  0  0  0  0  0  0  0  0  0
   49.4957   55.2239   33.3534 C   0  0  2  0  0  0  0  0  0  0  0  0
   49.4814   54.5136   32.1358 O   0  0  0  0  0  0  0  0  0  0  0  0
   48.9455   54.3361   34.3966 C   0  0  1  0  0  0  0  0  0  0  0  0
   48.4380   55.0551   35.5213 O   0  0  0  0  0  0  0  0  0  0  0  0
   47.8383   53.6351   33.4757 C   0  0  2  0  0  0  0  0  0  0  0  0
   47.2886   52.5252   34.1198 O   0  0  0  0  0  0  0  0  0  0  0  0
   48.6920   53.2462   32.2702 C   0  0  1  0  0  0  0  0  0  0  0  0
   43.1376   56.2773   30.9149 O   0  0  0  0  0  0  0  0  0  0  0  0
   50.3562   52.7820   27.4592 N   0  0  0  0  0  0  0  0  0  0  0  0
   51.0023   53.1143   28.5800 C   0  0  0  0  0  0  0  0  0  0  0  0
   50.3747   53.1522   29.7518 N   0  0  0  0  0  0  0  0  0  0  0  0
   49.0488   52.9632   29.8426 C   0  0  0  0  0  0  0  0  0  0  0  0
   48.3084   52.6618   28.6703 C   0  0  0  0  0  0  0  0  0  0  0  0
   49.0258   52.5677   27.4455 C   0  0  0  0  0  0  0  0  0  0  0  0
   48.3812   52.2633   26.2637 N   0  0  0  0  0  0  0  0  0  0  0  0
   47.0213   52.5274   29.0350 N   0  0  0  0  0  0  0  0  0  0  0  0
   46.9124   52.7258   30.3215 C   0  0  0  0  0  0  0  0  0  0  0  0
   48.1329   52.9882   30.8781 N   0  0  0  0  0  0  0  0  0  0  0  0
  2  1  1  6  0  0  0
  2  3  1  0  0  0  0
  2  5  1  0  0  0  0
  3  4  1  0  0  0  0
  3 17  1  0  0  0  0
  5  6  1  0  0  0  0
  7  6  1  6  0  0  0
  7  8  1  0  0  0  0
  7  9  1  0  0  0  0
 10  9  1  6  0  0  0
 10 11  1  0  0  0  0
 10 12  1  0  0  0  0
 11 16  1  0  0  0  0
 12 13  1  1  0  0  0
 12 14  1  0  0  0  0
 14 15  1  1  0  0  0
 14 16  1  0  0  0  0
 16 27  1  6  0  0  0
 18 19  2  0  0  0  0
 18 23  1  0  0  0  0
 19 20  1  0  0  0  0
 20 21  2  0  0  0  0
 21 22  1  0  0  0  0
 21 27  1  0  0  0  0
 22 23  2  0  0  0  0
 22 25  1  0  0  0  0
 23 24  1  0  0  0  0
 25 26  2  0  0  0  0
 26 27  1  0  0  0  0
M  END
>  <CHROM.1>
148.40546891,-175.94251521,53.56075015,-161.55352033,-54.37579326,72.23602797
53.60965992,47.57409043,54.71137945,31.46636003,2.11634579,-0.42777723,1.09384436

>  <Name>
ligand

>  <RI>
0

>  <Rbt.Current_Directory>
/home/itssahil/PROJECTS/Mol_Feturizer/New_Systems/rnas/3IQR

>  <Rbt.Executable>
rbdock ($Id: //depot/dev/client3/rdock/2013.1/src/exe/rbdock.cxx#4 $)

>  <Rbt.Library>
libRbt.so (2013.1, Build901 2013/11/27)

>  <Rbt.Parameter_File>
/export/apps/rDock/src/rDock_2013.1_src/data/scripts/dock_solv.prm

>  <Rbt.Receptor>
prm/pocket_docking_5.prm

>  <SCORE>
-20.2415

>  <SCORE.INTER>
-14.814

>  <SCORE.INTER.CONST>
1

>  <SCORE.INTER.POLAR>
0

>  <SCORE.INTER.ROT>
7

>  <SCORE.INTER.SOLV>
8.93835

>  <SCORE.INTER.VDW>
-21.1221

>  <SCORE.INTER.norm>
-0.548667

>  <SCORE.INTRA>
-5.42748

>  <SCORE.INTRA.DIHEDRAL>
-2.2619

>  <SCORE.INTRA.DIHEDRAL.0>
9.29433

>  <SCORE.INTRA.POLAR>
0

>  <SCORE.INTRA.POLAR.0>
0

>  <SCORE.INTRA.REPUL>
0

>  <SCORE.INTRA.REPUL.0>
0

>  <SCORE.INTRA.SOLV>
-0.347526

>  <SCORE.INTRA.SOLV.lig_0>
-48.5102

>  <SCORE.INTRA.VDW>
-4.12277

>  <SCORE.INTRA.VDW.0>
0.379549

>  <SCORE.INTRA.norm>
-0.201018

>  <SCORE.RESTR>
0

>  <SCORE.RESTR.CAVITY>
0

>  <SCORE.RESTR.norm>
0

>  <SCORE.SYSTEM>
0

>  <SCORE.SYSTEM.CONST>
0

>  <SCORE.SYSTEM.DIHEDRAL>
0

>  <SCORE.SYSTEM.SOLV>
0

>  <SCORE.SYSTEM.norm>
0

>  <SCORE.heavy>
27

>  <SCORE.norm>
-0.749685

>  <RMSD>
5.940

$$$$
ligand
 OpenBabel11021811483D
libRbt.so/2013.1/901 2013/11/27
 27 29  0  0  0  0  0  0  0  0999 V2000
   46.7324   58.3140   31.0895 N   0  0  0  0  0  0  0  0  0  0  0  0
   47.7442   58.5589   32.1162 C   0  0  2  0  0  0  0  0  0  0  0  0
   49.1102   58.3860   31.5175 C   0  0  0  0  0  0  0  0  0  0  0  0
   50.0944   58.8317   32.0981 O   0  0  0  0  0  0  0  0  0  0  0  0
   47.5768   57.5732   33.2718 C   0  0  0  0  0  0  0  0  0  0  0  0
   47.5158   56.1642   32.7108 C   0  0  0  0  0  0  0  0  0  0  0  0
   47.0605   54.9017   33.9419 S   0  0  2  0  0  0  0  0  0  0  0  0
   48.6164   54.5226   34.8009 C   0  0  0  0  0  0  0  0  0  0  0  0
   47.1689   53.2782   32.9742 C   0  0  0  0  0  0  0  0  0  0  0  0
   46.0456   52.9285   31.9101 C   0  0  2  0  0  0  0  0  0  0  0  0
   46.3696   53.0129   30.5408 O   0  0  0  0  0  0  0  0  0  0  0  0
   44.6663   53.4279   32.0758 C   0  0  1  0  0  0  0  0  0  0  0  0
   44.3958   53.8695   33.4068 O   0  0  0  0  0  0  0  0  0  0  0  0
   44.7575   54.5875   30.9749 C   0  0  2  0  0  0  0  0  0  0  0  0
   43.4923   55.1092   30.6989 O   0  0  0  0  0  0  0  0  0  0  0  0
   45.3338   53.8024   29.7982 C   0  0  1  0  0  0  0  0  0  0  0  0
   49.2409   57.7639   30.4712 O   0  0  0  0  0  0  0  0  0  0  0  0
   46.5299   52.7712   24.9364 N   0  0  0  0  0  0  0  0  0  0  0  0
   45.9199   52.0280   25.8636 C   0  0  0  0  0  0  0  0  0  0  0  0
   45.6802   52.5055   27.0813 N   0  0  0  0  0  0  0  0  0  0  0  0
   46.1331   53.7103   27.4629 C   0  0  0  0  0  0  0  0  0  0  0  0
   46.8358   54.5155   26.5296 C   0  0  0  0  0  0  0  0  0  0  0  0
   47.0172   53.9956   25.2179 C   0  0  0  0  0  0  0  0  0  0  0  0
   47.6764   54.7232   24.2479 N   0  0  0  0  0  0  0  0  0  0  0  0
   47.1772   55.6524   27.1611 N   0  0  0  0  0  0  0  0  0  0  0  0
   46.7507   55.6076   28.3950 C   0  0  0  0  0  0  0  0  0  0  0  0
   46.0881   54.4371   28.6382 N   0  0  0  0  0  0  0  0  0  0  0  0
  2  1  1  6  0  0  0
  2  3  1  0  0  0  0
  2  5  1  0  0  0  0
  3  4  1  0  0  0  0
  3 17  1  0  0  0  0
  5  6  1  0  0  0  0
  7  6  1  6  0  0  0
  7  8  1  0  0  0  0
  7  9  1  0  0  0  0
 10  9  1  1  0  0  0
 10 11  1  0  0  0  0
 10 12  1  0  0  0  0
 11 16  1  0  0  0  0
 12 13  1  1  0  0  0
 12 14  1  0  0  0  0
 14 15  1  6  0  0  0
 14 16  1  0  0  0  0
 16 27  1  6  0  0  0
 18 19  2  0  0  0  0
 18 23  1  0  0  0  0
 19 20  1  0  0  0  0
 20 21  2  0  0  0  0
 21 22  1  0  0  0  0
 21 27  1  0  0  0  0
 22 23  2  0  0  0  0
 22 25  1  0  0  0  0
 23 24  1  0  0  0  0
 25 26  2  0  0  0  0
 26 27  1  0  0  0  0
M  END
>  <CHROM.1>
163.38508580,51.26137324,-171.04327139,-82.44690610,-73.60810847,107.05106699
90.56244948,46.75660679,55.02512215,30.28914221,-1.31165904,-0.93841377,-1.71456387

>  <Name>
ligand

>  <RI>
0

>  <Rbt.Current_Directory>
/home/itssahil/PROJECTS/Mol_Feturizer/New_Systems/rnas/3IQR

>  <Rbt.Executable>
rbdock ($Id: //depot/dev/client3/rdock/2013.1/src/exe/rbdock.cxx#4 $)

>  <Rbt.Library>
libRbt.so (2013.1, Build901 2013/11/27)

>  <Rbt.Parameter_File>
/export/apps/rDock/src/rDock_2013.1_src/data/scripts/dock_solv.prm

>  <Rbt.Receptor>
prm/pocket_docking_4.prm

>  <SCORE>
-12.4562

>  <SCORE.INTER>
-9.11931

>  <SCORE.INTER.CONST>
1

>  <SCORE.INTER.POLAR>
0

>  <SCORE.INTER.ROT>
7

>  <SCORE.INTER.SOLV>
9.04253

>  <SCORE.INTER.VDW>
-17.3604

>  <SCORE.INTER.norm>
-0.337752

>  <SCORE.INTRA>
-3.33685

>  <SCORE.INTRA.DIHEDRAL>
-0.743279

>  <SCORE.INTRA.DIHEDRAL.0>
9.29433

>  <SCORE.INTRA.POLAR>
0

>  <SCORE.INTRA.POLAR.0>
0

>  <SCORE.INTRA.REPUL>
0

>  <SCORE.INTRA.REPUL.0>
0

>  <SCORE.INTRA.SOLV>
-0.189856

>  <SCORE.INTRA.SOLV.lig_0>
-48.5102

>  <SCORE.INTRA.VDW>
-2.87029

>  <SCORE.INTRA.VDW.0>
0.379549

>  <SCORE.INTRA.norm>
-0.123587

>  <SCORE.RESTR>
0

>  <SCORE.RESTR.CAVITY>
0

>  <SCORE.RESTR.norm>
0

>  <SCORE.SYSTEM>
0

>  <SCORE.SYSTEM.CONST>
0

>  <SCORE.SYSTEM.DIHEDRAL>
0

>  <SCORE.SYSTEM.SOLV>
0

>  <SCORE.SYSTEM.norm>
0

>  <SCORE.heavy>
27

>  <SCORE.norm>
-0.461339

>  <RMSD>
5.996

$$$$
ligand
 OpenBabel11021811483D
libRbt.so/2013.1/901 2013/11/27
 27 29  0  0  0  0  0  0  0  0999 V2000
   47.0559   51.7610   24.8830 N   0  0  0  0  0  0  0  0  0  0  0  0
   48.3670   52.0018   25.4838 C   0  0  2  0  0  0  0  0  0  0  0  0
   49.3863   51.1226   24.8189 C   0  0  0  0  0  0  0  0  0  0  0  0
   49.2138   49.9090   24.7757 O   0  0  0  0  0  0  0  0  0  0  0  0
   48.3322   51.6843   26.9782 C   0  0  0  0  0  0  0  0  0  0  0  0
   47.2461   52.5186   27.6325 C   0  0  0  0  0  0  0  0  0  0  0  0
   47.1463   52.3097   29.4390 S   0  0  2  0  0  0  0  0  0  0  0  0
   45.5073   52.9576   29.8816 C   0  0  0  0  0  0  0  0  0  0  0  0
   47.9750   53.8725   30.1133 C   0  0  0  0  0  0  0  0  0  0  0  0
   48.8716   53.7782   31.4185 C   0  0  2  0  0  0  0  0  0  0  0  0
   48.4124   52.9879   32.4917 O   0  0  0  0  0  0  0  0  0  0  0  0
   49.5051   54.9836   31.9885 C   0  0  1  0  0  0  0  0  0  0  0  0
   49.5518   56.0715   31.0645 O   0  0  0  0  0  0  0  0  0  0  0  0
   48.4858   55.1662   33.2104 C   0  0  2  0  0  0  0  0  0  0  0  0
   48.9679   56.1080   34.1212 O   0  0  0  0  0  0  0  0  0  0  0  0
   48.4867   53.7494   33.7810 C   0  0  1  0  0  0  0  0  0  0  0  0
   50.3670   51.6252   24.2853 O   0  0  0  0  0  0  0  0  0  0  0  0
   47.2534   53.2530   38.7170 N   0  0  0  0  0  0  0  0  0  0  0  0
   48.3623   53.7173   38.1349 C   0  0  0  0  0  0  0  0  0  0  0  0
   48.4694   53.7844   36.8112 N   0  0  0  0  0  0  0  0  0  0  0  0
   47.5152   53.2921   36.0054 C   0  0  0  0  0  0  0  0  0  0  0  0
   46.3413   52.7374   36.5777 C   0  0  0  0  0  0  0  0  0  0  0  0
   46.2362   52.7412   37.9963 C   0  0  0  0  0  0  0  0  0  0  0  0
   45.1196   52.2341   38.6296 N   0  0  0  0  0  0  0  0  0  0  0  0
   45.5629   52.3189   35.5643 N   0  0  0  0  0  0  0  0  0  0  0  0
   46.1607   52.5640   34.4290 C   0  0  0  0  0  0  0  0  0  0  0  0
   47.3659   53.1746   34.6359 N   0  0  0  0  0  0  0  0  0  0  0  0
  2  1  1  6  0  0  0
  2  3  1  0  0  0  0
  2  5  1  0  0  0  0
  3  4  1  0  0  0  0
  3 17  1  0  0  0  0
  5  6  1  0  0  0  0
  7  6  1  6  0  0  0
  7  8  1  0  0  0  0
  7  9  1  0  0  0  0
 10  9  1  6  0  0  0
 10 11  1  0  0  0  0
 10 12  1  0  0  0  0
 11 16  1  0  0  0  0
 12 13  1  6  0  0  0
 12 14  1  0  0  0  0
 14 15  1  1  0  0  0
 14 16  1  0  0  0  0
 16 27  1  1  0  0  0
 18 19  2  0  0  0  0
 18 23  1  0  0  0  0
 19 20  1  0  0  0  0
 20 21  2  0  0  0  0
 21 22  1  0  0  0  0
 21 27  1  0  0  0  0
 22 23  2  0  0  0  0
 22 25  1  0  0  0  0
 23 24  1  0  0  0  0
 25 26  2  0  0  0  0
 26 27  1  0  0  0  0
M  END
>  <CHROM.1>
-55.03755434,-56.76333682,-176.92801808,-162.63473560,-143.06246369,-42.15376342
155.32639586,47.82832788,53.02519216,31.73179133,1.38338875,-0.80166217,-1.85665612

>  <Name>
ligand

>  <RI>
0

>  <Rbt.Current_Directory>
/home/itssahil/PROJECTS/Mol_Feturizer/New_Systems/rnas/3IQR

>  <Rbt.Executable>
rbdock ($Id: //depot/dev/client3/rdock/2013.1/src/exe/rbdock.cxx#4 $)

>  <Rbt.Library>
libRbt.so (2013.1, Build901 2013/11/27)

>  <Rbt.Parameter_File>
/export/apps/rDock/src/rDock_2013.1_src/data/scripts/dock_solv.prm

>  <Rbt.Receptor>
prm/pocket_docking_8.prm

>  <SCORE>
-18.4324

>  <SCORE.INTER>
-15.6822

>  <SCORE.INTER.CONST>
1

>  <SCORE.INTER.POLAR>
0

>  <SCORE.INTER.ROT>
7

>  <SCORE.INTER.SOLV>
14.0556

>  <SCORE.INTER.VDW>
-23.4066

>  <SCORE.INTER.norm>
-0.580821

>  <SCORE.INTRA>
-2.75027

>  <SCORE.INTRA.DIHEDRAL>
1.22752

>  <SCORE.INTRA.DIHEDRAL.0>
9.29433

>  <SCORE.INTRA.POLAR>
0

>  <SCORE.INTRA.POLAR.0>
0

>  <SCORE.INTRA.REPUL>
0

>  <SCORE.INTRA.REPUL.0>
0

>  <SCORE.INTRA.SOLV>
-1.13719

>  <SCORE.INTRA.SOLV.lig_0>
-48.5102

>  <SCORE.INTRA.VDW>
-2.79544

>  <SCORE.INTRA.VDW.0>
0.379549

>  <SCORE.INTRA.norm>
-0.101862

>  <SCORE.RESTR>
0

>  <SCORE.RESTR.CAVITY>
0

>  <SCORE.RESTR.norm>
0

>  <SCORE.SYSTEM>
0

>  <SCORE.SYSTEM.CONST>
0

>  <SCORE.SYSTEM.DIHEDRAL>
0

>  <SCORE.SYSTEM.SOLV>
0

>  <SCORE.SYSTEM.norm>
0

>  <SCORE.heavy>
27

>  <SCORE.norm>
-0.682683

>  <RMSD>
6.003

$$$$
ligand
 OpenBabel11021811483D
libRbt.so/2013.1/901 2013/11/27
 27 29  0  0  0  0  0  0  0  0999 V2000
   47.0045   57.9096   31.1094 N   0  0  0  0  0  0  0  0  0  0  0  0
   47.7806   57.4773   32.2706 C   0  0  2  0  0  0  0  0  0  0  0  0
   48.7208   58.5756   32.6756 C   0  0  0  0  0  0  0  0  0  0  0  0
   49.2110   58.5789   33.8000 O   0  0  0  0  0  0  0  0  0  0  0  0
   48.5902   56.2263   31.9318 C   0  0  0  0  0  0  0  0  0  0  0  0
   49.1045   55.6101   33.2200 C   0  0  0  0  0  0  0  0  0  0  0  0
   47.7928   54.9309   34.2853 S   0  0  2  0  0  0  0  0  0  0  0  0
   48.6744   54.2903   35.7395 C   0  0  0  0  0  0  0  0  0  0  0  0
   47.5504   53.1731   33.6255 C   0  0  0  0  0  0  0  0  0  0  0  0
   46.4181   52.8931   32.5505 C   0  0  2  0  0  0  0  0  0  0  0  0
   46.7934   52.7733   31.1970 O   0  0  0  0  0  0  0  0  0  0  0  0
   45.1354   53.6224   32.5970 C   0  0  1  0  0  0  0  0  0  0  0  0
   44.9007   54.2454   33.8605 O   0  0  0  0  0  0  0  0  0  0  0  0
   45.4499   54.6242   31.3875 C   0  0  2  0  0  0  0  0  0  0  0  0
   44.2970   55.3085   30.9984 O   0  0  0  0  0  0  0  0  0  0  0  0
   45.9249   53.6321   30.3276 C   0  0  1  0  0  0  0  0  0  0  0  0
   49.0273   59.4422   31.8669 O   0  0  0  0  0  0  0  0  0  0  0  0
   46.6856   52.2298   25.4711 N   0  0  0  0  0  0  0  0  0  0  0  0
   45.9048   51.7071   26.4204 C   0  0  0  0  0  0  0  0  0  0  0  0
   45.8345   52.2511   27.6317 N   0  0  0  0  0  0  0  0  0  0  0  0
   46.6214   53.2800   27.9842 C   0  0  0  0  0  0  0  0  0  0  0  0
   47.5088   53.8354   27.0264 C   0  0  0  0  0  0  0  0  0  0  0  0
   47.5092   53.2663   25.7226 C   0  0  0  0  0  0  0  0  0  0  0  0
   48.3320   53.7593   24.7302 N   0  0  0  0  0  0  0  0  0  0  0  0
   48.1740   54.8351   27.6314 N   0  0  0  0  0  0  0  0  0  0  0  0
   47.7750   54.9328   28.8714 C   0  0  0  0  0  0  0  0  0  0  0  0
   46.8085   54.0061   29.1458 N   0  0  0  0  0  0  0  0  0  0  0  0
  2  1  1  6  0  0  0
  2  3  1  0  0  0  0
  2  5  1  0  0  0  0
  3  4  1  0  0  0  0
  3 17  1  0  0  0  0
  5  6  1  0  0  0  0
  7  6  1  6  0  0  0
  7  8  1  0  0  0  0
  7  9  1  0  0  0  0
 10  9  1  1  0  0  0
 10 11  1  0  0  0  0
 10 12  1  0  0  0  0
 11 16  1  0  0  0  0
 12 13  1  1  0  0  0
 12 14  1  0  0  0  0
 14 15  1  6  0  0  0
 14 16  1  0  0  0  0
 16 27  1  6  0  0  0
 18 19  2  0  0  0  0
 18 23  1  0  0  0  0
 19 20  1  0  0  0  0
 20 21  2  0  0  0  0
 21 22  1  0  0  0  0
 21 27  1  0  0  0  0
 22 23  2  0  0  0  0
 22 25  1  0  0  0  0
 23 24  1  0  0  0  0
 25 26  2  0  0  0  0
 26 27  1  0  0  0  0
M  END
>  <CHROM.1>
161.26521161,-166.18126959,67.11172662,-179.25912851,-94.62695576,100.96886930
100.07735998,47.20030608,54.77960606,30.81338178,-1.28526953,-1.04820196
-1.75060999

>  <Name>
ligand

>  <RI>
0

>  <Rbt.Current_Directory>
/home/itssahil/PROJECTS/Mol_Feturizer/New_Systems/rnas/3IQR

>  <Rbt.Executable>
rbdock ($Id: //depot/dev/client3/rdock/2013.1/src/exe/rbdock.cxx#4 $)

>  <Rbt.Library>
libRbt.so (2013.1, Build901 2013/11/27)

>  <Rbt.Parameter_File>
/export/apps/rDock/src/rDock_2013.1_src/data/scripts/dock_solv.prm

>  <Rbt.Receptor>
prm/pocket_docking_4.prm

>  <SCORE>
-15.7254

>  <SCORE.INTER>
-11.8021

>  <SCORE.INTER.CONST>
1

>  <SCORE.INTER.POLAR>
0

>  <SCORE.INTER.ROT>
7

>  <SCORE.INTER.SOLV>
5.04021

>  <SCORE.INTER.VDW>
-17.8148

>  <SCORE.INTER.norm>
-0.437113

>  <SCORE.INTRA>
-3.92996

>  <SCORE.INTRA.DIHEDRAL>
1.11

>  <SCORE.INTRA.DIHEDRAL.0>
9.29433

>  <SCORE.INTRA.POLAR>
0

>  <SCORE.INTRA.POLAR.0>
0

>  <SCORE.INTRA.REPUL>
0

>  <SCORE.INTRA.REPUL.0>
0

>  <SCORE.INTRA.SOLV>
0.219873

>  <SCORE.INTRA.SOLV.lig_0>
-48.5102

>  <SCORE.INTRA.VDW>
-4.59489

>  <SCORE.INTRA.VDW.0>
0.379549

>  <SCORE.INTRA.norm>
-0.145554

>  <SCORE.RESTR>
0.0065819

>  <SCORE.RESTR.CAVITY>
0.0065819

>  <SCORE.RESTR.norm>
0.000243774

>  <SCORE.SYSTEM>
0

>  <SCORE.SYSTEM.CONST>
0

>  <SCORE.SYSTEM.DIHEDRAL>
0

>  <SCORE.SYSTEM.SOLV>
0

>  <SCORE.SYSTEM.norm>
0

>  <SCORE.heavy>
27

>  <SCORE.norm>
-0.582424

>  <RMSD>
6.017

$$$$
ligand
 OpenBabel11021811483D
libRbt.so/2013.1/901 2013/11/27
 27 29  0  0  0  0  0  0  0  0999 V2000
   45.0139   57.2596   29.5820 N   0  0  0  0  0  0  0  0  0  0  0  0
   44.8995   56.9033   30.9954 C   0  0  2  0  0  0  0  0  0  0  0  0
   43.6469   56.1025   31.2053 C   0  0  0  0  0  0  0  0  0  0  0  0
   42.8116   56.0259   30.3104 O   0  0  0  0  0  0  0  0  0  0  0  0
   44.8367   58.1639   31.8569 C   0  0  0  0  0  0  0  0  0  0  0  0
   46.1742   58.8776   31.7815 C   0  0  0  0  0  0  0  0  0  0  0  0
   47.5926   57.8318   32.2411 S   0  0  2  0  0  0  0  0  0  0  0  0
   49.0108   58.9680   32.2504 C   0  0  0  0  0  0  0  0  0  0  0  0
   48.1575   57.0987   30.5896 C   0  0  0  0  0  0  0  0  0  0  0  0
   49.4340   56.1578   30.5504 C   0  0  2  0  0  0  0  0  0  0  0  0
   50.0505   55.9156   29.3060 O   0  0  0  0  0  0  0  0  0  0  0  0
   49.4682   54.8985   31.3201 C   0  0  1  0  0  0  0  0  0  0  0  0
   48.4704   54.8486   32.3405 O   0  0  0  0  0  0  0  0  0  0  0  0
   49.2267   53.9173   30.0775 C   0  0  2  0  0  0  0  0  0  0  0  0
   49.4598   52.5899   30.4417 O   0  0  0  0  0  0  0  0  0  0  0  0
   50.2763   54.4475   29.1026 C   0  0  1  0  0  0  0  0  0  0  0  0
   43.4831   55.4944   32.2552 O   0  0  0  0  0  0  0  0  0  0  0  0
   47.5211   56.0455   25.1044 N   0  0  0  0  0  0  0  0  0  0  0  0
   47.3660   56.2570   26.4140 C   0  0  0  0  0  0  0  0  0  0  0  0
   48.2260   55.7611   27.2988 N   0  0  0  0  0  0  0  0  0  0  0  0
   49.2217   54.9421   26.9246 C   0  0  0  0  0  0  0  0  0  0  0  0
   49.3941   54.6423   25.5485 C   0  0  0  0  0  0  0  0  0  0  0  0
   48.4923   55.2427   24.6266 C   0  0  0  0  0  0  0  0  0  0  0  0
   48.6026   55.0138   23.2700 N   0  0  0  0  0  0  0  0  0  0  0  0
   50.4442   53.8082   25.4505 N   0  0  0  0  0  0  0  0  0  0  0  0
   50.9209   53.5698   26.6431 C   0  0  0  0  0  0  0  0  0  0  0  0
   50.2144   54.2510   27.5944 N   0  0  0  0  0  0  0  0  0  0  0  0
  2  1  1  6  0  0  0
  2  3  1  0  0  0  0
  2  5  1  0  0  0  0
  3  4  1  0  0  0  0
  3 17  1  0  0  0  0
  5  6  1  0  0  0  0
  7  6  1  6  0  0  0
  7  8  1  0  0  0  0
  7  9  1  0  0  0  0
 10  9  1  6  0  0  0
 10 11  1  0  0  0  0
 10 12  1  0  0  0  0
 11 16  1  0  0  0  0
 12 13  1  1  0  0  0
 12 14  1  0  0  0  0
 14 15  1  1  0  0  0
 14 16  1  0  0  0  0
 16 27  1  6  0  0  0
 18 19  2  0  0  0  0
 18 23  1  0  0  0  0
 19 20  1  0  0  0  0
 20 21  2  0  0  0  0
 21 22  1  0  0  0  0
 21 27  1  0  0  0  0
 22 23  2  0  0  0  0
 22 25  1  0  0  0  0
 23 24  1  0  0  0  0
 25 26  2  0  0  0  0
 26 27  1  0  0  0  0
M  END
>  <CHROM.1>
-11.30808008,-67.19634782,-55.19240032,-173.69301810,177.47622873,-163.18524801
-41.85926935,47.81206450,55.85285041,29.32956193,2.15653950,-0.32706283,1.36223952

>  <Name>
ligand

>  <RI>
0

>  <Rbt.Current_Directory>
/home/itssahil/PROJECTS/Mol_Feturizer/New_Systems/rnas/3IQR

>  <Rbt.Executable>
rbdock ($Id: //depot/dev/client3/rdock/2013.1/src/exe/rbdock.cxx#4 $)

>  <Rbt.Library>
libRbt.so (2013.1, Build901 2013/11/27)

>  <Rbt.Parameter_File>
/export/apps/rDock/src/rDock_2013.1_src/data/scripts/dock_solv.prm

>  <Rbt.Receptor>
prm/pocket_docking_6.prm

>  <SCORE>
-16.3318

>  <SCORE.INTER>
-12.1693

>  <SCORE.INTER.CONST>
1

>  <SCORE.INTER.POLAR>
0

>  <SCORE.INTER.ROT>
7

>  <SCORE.INTER.SOLV>
13.1981

>  <SCORE.INTER.VDW>
-20.7789

>  <SCORE.INTER.norm>
-0.450716

>  <SCORE.INTRA>
-4.16248

>  <SCORE.INTRA.DIHEDRAL>
-3.19964

>  <SCORE.INTRA.DIHEDRAL.0>
9.29433

>  <SCORE.INTRA.POLAR>
0

>  <SCORE.INTRA.POLAR.0>
0

>  <SCORE.INTRA.REPUL>
0

>  <SCORE.INTRA.REPUL.0>
0

>  <SCORE.INTRA.SOLV>
0.773511

>  <SCORE.INTRA.SOLV.lig_0>
-48.5102

>  <SCORE.INTRA.VDW>
-2.94941

>  <SCORE.INTRA.VDW.0>
0.379549

>  <SCORE.INTRA.norm>
-0.154166

>  <SCORE.RESTR>
0

>  <SCORE.RESTR.CAVITY>
0

>  <SCORE.RESTR.norm>
0

>  <SCORE.SYSTEM>
0

>  <SCORE.SYSTEM.CONST>
0

>  <SCORE.SYSTEM.DIHEDRAL>
0

>  <SCORE.SYSTEM.SOLV>
0

>  <SCORE.SYSTEM.norm>
0

>  <SCORE.heavy>
27

>  <SCORE.norm>
-0.604881

>  <RMSD>
6.019

$$$$
ligand
 OpenBabel11021811483D
libRbt.so/2013.1/901 2013/11/27
 27 29  0  0  0  0  0  0  0  0999 V2000
   44.3853   56.4782   28.9541 N   0  0  0  0  0  0  0  0  0  0  0  0
   44.1251   56.0590   30.3305 C   0  0  2  0  0  0  0  0  0  0  0  0
   42.6672   55.7344   30.4829 C   0  0  0  0  0  0  0  0  0  0  0  0
   41.8713   56.0650   29.6102 O   0  0  0  0  0  0  0  0  0  0  0  0
   44.4921   57.1781   31.3042 C   0  0  0  0  0  0  0  0  0  0  0  0
   45.9508   57.5461   31.1026 C   0  0  0  0  0  0  0  0  0  0  0  0
   46.5003   58.9561   32.1158 S   0  0  2  0  0  0  0  0  0  0  0  0
   46.1325   60.4169   31.0993 C   0  0  0  0  0  0  0  0  0  0  0  0
   48.3431   59.1044   31.7084 C   0  0  0  0  0  0  0  0  0  0  0  0
   49.2726   57.8242   31.8243 C   0  0  2  0  0  0  0  0  0  0  0  0
   49.7765   57.2519   30.6387 O   0  0  0  0  0  0  0  0  0  0  0  0
   48.9281   56.7213   32.7432 C   0  0  1  0  0  0  0  0  0  0  0  0
   47.9703   57.1049   33.7306 O   0  0  0  0  0  0  0  0  0  0  0  0
   48.3899   55.7107   31.6232 C   0  0  2  0  0  0  0  0  0  0  0  0
   48.2111   54.4321   32.1544 O   0  0  0  0  0  0  0  0  0  0  0  0
   49.5435   55.7709   30.6238 C   0  0  1  0  0  0  0  0  0  0  0  0
   42.2839   55.1035   31.4598 O   0  0  0  0  0  0  0  0  0  0  0  0
   48.7831   51.6505   27.6956 N   0  0  0  0  0  0  0  0  0  0  0  0
   48.9706   51.7647   29.0131 C   0  0  0  0  0  0  0  0  0  0  0  0
   49.1272   52.9543   29.5863 N   0  0  0  0  0  0  0  0  0  0  0  0
   49.2098   54.0780   28.8565 C   0  0  0  0  0  0  0  0  0  0  0  0
   49.0721   54.0018   27.4463 C   0  0  0  0  0  0  0  0  0  0  0  0
   48.8427   52.7188   26.8764 C   0  0  0  0  0  0  0  0  0  0  0  0
   48.6827   52.5624   25.5144 N   0  0  0  0  0  0  0  0  0  0  0  0
   49.1986   55.2510   26.9652 N   0  0  0  0  0  0  0  0  0  0  0  0
   49.4066   56.0776   27.9550 C   0  0  0  0  0  0  0  0  0  0  0  0
   49.4130   55.4138   29.1498 N   0  0  0  0  0  0  0  0  0  0  0  0
  2  1  1  6  0  0  0
  2  3  1  0  0  0  0
  2  5  1  0  0  0  0
  3  4  1  0  0  0  0
  3 17  1  0  0  0  0
  5  6  1  0  0  0  0
  7  6  1  6  0  0  0
  7  8  1  0  0  0  0
  7  9  1  0  0  0  0
 10  9  1  6  0  0  0
 10 11  1  0  0  0  0
 10 12  1  0  0  0  0
 11 16  1  0  0  0  0
 12 13  1  1  0  0  0
 12 14  1  0  0  0  0
 14 15  1  1  0  0  0
 14 16  1  0  0  0  0
 16 27  1  6  0  0  0
 18 19  2  0  0  0  0
 18 23  1  0  0  0  0
 19 20  1  0  0  0  0
 20 21  2  0  0  0  0
 21 22  1  0  0  0  0
 21 27  1  0  0  0  0
 22 23  2  0  0  0  0
 22 25  1  0  0  0  0
 23 24  1  0  0  0  0
 25 26  2  0  0  0  0
 26 27  1  0  0  0  0
M  END
>  <CHROM.1>
-13.00918487,-57.40928027,175.77978136,-88.29722497,-51.87179931,110.10999481
179.03635072,47.28323121,55.91304622,30.18980012,2.14840825,-0.01826818,0.70712631

>  <Name>
ligand

>  <RI>
0

>  <Rbt.Current_Directory>
/home/itssahil/PROJECTS/Mol_Feturizer/New_Systems/rnas/3IQR

>  <Rbt.Executable>
rbdock ($Id: //depot/dev/client3/rdock/2013.1/src/exe/rbdock.cxx#4 $)

>  <Rbt.Library>
libRbt.so (2013.1, Build901 2013/11/27)

>  <Rbt.Parameter_File>
/export/apps/rDock/src/rDock_2013.1_src/data/scripts/dock_solv.prm

>  <Rbt.Receptor>
prm/pocket_docking_6.prm

>  <SCORE>
-17.2682

>  <SCORE.INTER>
-14.126

>  <SCORE.INTER.CONST>
1

>  <SCORE.INTER.POLAR>
0

>  <SCORE.INTER.ROT>
7

>  <SCORE.INTER.SOLV>
9.05322

>  <SCORE.INTER.VDW>
-20.7018

>  <SCORE.INTER.norm>
-0.523187

>  <SCORE.INTRA>
-3.14212

>  <SCORE.INTRA.DIHEDRAL>
-0.0867892

>  <SCORE.INTRA.DIHEDRAL.0>
9.29433

>  <SCORE.INTRA.POLAR>
0

>  <SCORE.INTRA.POLAR.0>
0

>  <SCORE.INTRA.REPUL>
0

>  <SCORE.INTRA.REPUL.0>
0

>  <SCORE.INTRA.SOLV>
-0.26958

>  <SCORE.INTRA.SOLV.lig_0>
-48.5102

>  <SCORE.INTRA.VDW>
-2.96394

>  <SCORE.INTRA.VDW.0>
0.379549

>  <SCORE.INTRA.norm>
-0.116375

>  <SCORE.RESTR>
0

>  <SCORE.RESTR.CAVITY>
0

>  <SCORE.RESTR.norm>
0

>  <SCORE.SYSTEM>
0

>  <SCORE.SYSTEM.CONST>
0

>  <SCORE.SYSTEM.DIHEDRAL>
0

>  <SCORE.SYSTEM.SOLV>
0

>  <SCORE.SYSTEM.norm>
0

>  <SCORE.heavy>
27

>  <SCORE.norm>
-0.639562

>  <RMSD>
6.024

$$$$
ligand
 OpenBabel11021811483D
libRbt.so/2013.1/901 2013/11/27
 27 29  0  0  0  0  0  0  0  0999 V2000
   41.2236   54.8517   29.3564 N   0  0  0  0  0  0  0  0  0  0  0  0
   42.2287   55.8177   29.7974 C   0  0  2  0  0  0  0  0  0  0  0  0
   43.2542   55.9955   28.7153 C   0  0  0  0  0  0  0  0  0  0  0  0
   44.1607   55.1788   28.5900 O   0  0  0  0  0  0  0  0  0  0  0  0
   42.9217   55.3206   31.0655 C   0  0  0  0  0  0  0  0  0  0  0  0
   43.9637   56.3402   31.4878 C   0  0  0  0  0  0  0  0  0  0  0  0
   45.1594   55.7078   32.7073 S   0  0  2  0  0  0  0  0  0  0  0  0
   46.4936   56.9415   32.7177 C   0  0  0  0  0  0  0  0  0  0  0  0
   46.2329   54.5170   31.7006 C   0  0  0  0  0  0  0  0  0  0  0  0
   47.2106   53.5215   32.4550 C   0  0  2  0  0  0  0  0  0  0  0  0
   46.6968   52.7571   33.5222 O   0  0  0  0  0  0  0  0  0  0  0  0
   48.5788   53.9384   32.8205 C   0  0  1  0  0  0  0  0  0  0  0  0
   49.0136   55.0937   32.1024 O   0  0  0  0  0  0  0  0  0  0  0  0
   48.2902   54.1692   34.3789 C   0  0  2  0  0  0  0  0  0  0  0  0
   49.4833   54.3363   35.0842 O   0  0  0  0  0  0  0  0  0  0  0  0
   47.5877   52.8574   34.7238 C   0  0  1  0  0  0  0  0  0  0  0  0
   43.1578   56.9340   27.9350 O   0  0  0  0  0  0  0  0  0  0  0  0
   42.5994   53.1377   35.8054 N   0  0  0  0  0  0  0  0  0  0  0  0
   43.2701   53.4314   34.6882 C   0  0  0  0  0  0  0  0  0  0  0  0
   44.5863   53.2595   34.6092 N   0  0  0  0  0  0  0  0  0  0  0  0
   45.3093   52.8863   35.6770 C   0  0  0  0  0  0  0  0  0  0  0  0
   44.6482   52.6160   36.9031 C   0  0  0  0  0  0  0  0  0  0  0  0
   43.2323   52.7503   36.9303 C   0  0  0  0  0  0  0  0  0  0  0  0
   42.5138   52.4908   38.0799 N   0  0  0  0  0  0  0  0  0  0  0  0
   45.5915   52.2725   37.7976 N   0  0  0  0  0  0  0  0  0  0  0  0
   46.7658   52.3156   37.2271 C   0  0  0  0  0  0  0  0  0  0  0  0
   46.6554   52.6777   35.9137 N   0  0  0  0  0  0  0  0  0  0  0  0
  2  1  1  6  0  0  0
  2  3  1  0  0  0  0
  2  5  1  0  0  0  0
  3  4  1  0  0  0  0
  3 17  1  0  0  0  0
  5  6  1  0  0  0  0
  7  6  1  6  0  0  0
  7  8  1  0  0  0  0
  7  9  1  0  0  0  0
 10  9  1  1  0  0  0
 10 11  1  0  0  0  0
 10 12  1  0  0  0  0
 11 16  1  0  0  0  0
 12 13  1  6  0  0  0
 12 14  1  0  0  0  0
 14 15  1  1  0  0  0
 14 16  1  0  0  0  0
 16 27  1  1  0  0  0
 18 19  2  0  0  0  0
 18 23  1  0  0  0  0
 19 20  1  0  0  0  0
 20 21  2  0  0  0  0
 21 22  1  0  0  0  0
 21 27  1  0  0  0  0
 22 23  2  0  0  0  0
 22 25  1  0  0  0  0
 23 24  1  0  0  0  0
 25 26  2  0  0  0  0
 26 27  1  0  0  0  0
M  END
>  <CHROM.1>
-81.01767262,179.55939536,-164.87285866,166.33535251,-167.25839556,49.06356383
-19.01853884,45.25420290,54.27628570,33.30892987,1.87995785,-0.03831521,-1.13772471

>  <Name>
ligand

>  <RI>
0

>  <Rbt.Current_Directory>
/home/itssahil/PROJECTS/Mol_Feturizer/New_Systems/rnas/3IQR

>  <Rbt.Executable>
rbdock ($Id: //depot/dev/client3/rdock/2013.1/src/exe/rbdock.cxx#4 $)

>  <Rbt.Library>
libRbt.so (2013.1, Build901 2013/11/27)

>  <Rbt.Parameter_File>
/export/apps/rDock/src/rDock_2013.1_src/data/scripts/dock_solv.prm

>  <Rbt.Receptor>
prm/pocket_docking_8.prm

>  <SCORE>
-18.5926

>  <SCORE.INTER>
-14.3693

>  <SCORE.INTER.CONST>
1

>  <SCORE.INTER.POLAR>
0

>  <SCORE.INTER.ROT>
7

>  <SCORE.INTER.SOLV>
12.8142

>  <SCORE.INTER.VDW>
-22.1176

>  <SCORE.INTER.norm>
-0.532197

>  <SCORE.INTRA>
-4.22324

>  <SCORE.INTRA.DIHEDRAL>
-3.13298

>  <SCORE.INTRA.DIHEDRAL.0>
9.29433

>  <SCORE.INTRA.POLAR>
0

>  <SCORE.INTRA.POLAR.0>
0

>  <SCORE.INTRA.REPUL>
0

>  <SCORE.INTRA.REPUL.0>
0

>  <SCORE.INTRA.SOLV>
-1.34982

>  <SCORE.INTRA.SOLV.lig_0>
-48.5102

>  <SCORE.INTRA.VDW>
-1.98184

>  <SCORE.INTRA.VDW.0>
0.379549

>  <SCORE.INTRA.norm>
-0.156416

>  <SCORE.RESTR>
0

>  <SCORE.RESTR.CAVITY>
0

>  <SCORE.RESTR.norm>
0

>  <SCORE.SYSTEM>
0

>  <SCORE.SYSTEM.CONST>
0

>  <SCORE.SYSTEM.DIHEDRAL>
0

>  <SCORE.SYSTEM.SOLV>
0

>  <SCORE.SYSTEM.norm>
0

>  <SCORE.heavy>
27

>  <SCORE.norm>
-0.688614

>  <RMSD>
6.041

$$$$
ligand
 OpenBabel11021811483D
libRbt.so/2013.1/901 2013/11/27
 27 29  0  0  0  0  0  0  0  0999 V2000
   47.2963   51.6855   25.0707 N   0  0  0  0  0  0  0  0  0  0  0  0
   48.5820   51.8330   25.7513 C   0  0  2  0  0  0  0  0  0  0  0  0
   49.5650   50.8577   25.1712 C   0  0  0  0  0  0  0  0  0  0  0  0
   50.7454   51.1715   25.0584 O   0  0  0  0  0  0  0  0  0  0  0  0
   48.4259   51.5558   27.2459 C   0  0  0  0  0  0  0  0  0  0  0  0
   47.2840   52.3980   27.7853 C   0  0  0  0  0  0  0  0  0  0  0  0
   47.0760   52.2848   29.5910 S   0  0  2  0  0  0  0  0  0  0  0  0
   45.9287   53.6328   30.0016 C   0  0  0  0  0  0  0  0  0  0  0  0
   48.5338   53.2839   30.2696 C   0  0  0  0  0  0  0  0  0  0  0  0
   48.7323   53.4056   31.8386 C   0  0  2  0  0  0  0  0  0  0  0  0
   47.8331   52.7234   32.6832 O   0  0  0  0  0  0  0  0  0  0  0  0
   49.0326   54.7090   32.4633 C   0  0  1  0  0  0  0  0  0  0  0  0
   49.4965   55.6778   31.5221 O   0  0  0  0  0  0  0  0  0  0  0  0
   47.5664   54.9729   33.0513 C   0  0  2  0  0  0  0  0  0  0  0  0
   47.5762   56.0468   33.9433 O   0  0  0  0  0  0  0  0  0  0  0  0
   47.3072   53.6385   33.7479 C   0  0  1  0  0  0  0  0  0  0  0  0
   49.1918   49.7365   24.8509 O   0  0  0  0  0  0  0  0  0  0  0  0
   44.5080   52.3585   37.8292 N   0  0  0  0  0  0  0  0  0  0  0  0
   45.7854   52.7355   37.7280 C   0  0  0  0  0  0  0  0  0  0  0  0
   46.3190   53.0534   36.5522 N   0  0  0  0  0  0  0  0  0  0  0  0
   45.6312   52.9078   35.4086 C   0  0  0  0  0  0  0  0  0  0  0  0
   44.2868   52.4568   35.4594 C   0  0  0  0  0  0  0  0  0  0  0  0
   43.7316   52.1874   36.7411 C   0  0  0  0  0  0  0  0  0  0  0  0
   42.4262   51.7601   36.8767 N   0  0  0  0  0  0  0  0  0  0  0  0
   43.8388   52.3949   34.1932 N   0  0  0  0  0  0  0  0  0  0  0  0
   44.7914   52.7616   33.3780 C   0  0  0  0  0  0  0  0  0  0  0  0
   45.9199   53.1012   34.0703 N   0  0  0  0  0  0  0  0  0  0  0  0
  2  1  1  6  0  0  0
  2  3  1  0  0  0  0
  2  5  1  0  0  0  0
  3  4  1  0  0  0  0
  3 17  1  0  0  0  0
  5  6  1  0  0  0  0
  7  6  1  6  0  0  0
  7  8  1  0  0  0  0
  7  9  1  0  0  0  0
 10  9  1  6  0  0  0
 10 11  1  0  0  0  0
 10 12  1  0  0  0  0
 11 16  1  0  0  0  0
 12 13  1  6  0  0  0
 12 14  1  0  0  0  0
 14 15  1  1  0  0  0
 14 16  1  0  0  0  0
 16 27  1  6  0  0  0
 18 19  2  0  0  0  0
 18 23  1  0  0  0  0
 19 20  1  0  0  0  0
 20 21  2  0  0  0  0
 21 22  1  0  0  0  0
 21 27  1  0  0  0  0
 22 23  2  0  0  0  0
 22 25  1  0  0  0  0
 23 24  1  0  0  0  0
 25 26  2  0  0  0  0
 26 27  1  0  0  0  0
M  END
>  <CHROM.1>
144.31543503,-51.49395358,-174.78327255,167.82703535,-178.72361071,2.04165626
130.45488479,47.02034560,52.77882454,31.56384603,1.09851482,-0.66620270,-2.01939274

>  <Name>
ligand

>  <RI>
0

>  <Rbt.Current_Directory>
/home/itssahil/PROJECTS/Mol_Feturizer/New_Systems/rnas/3IQR

>  <Rbt.Executable>
rbdock ($Id: //depot/dev/client3/rdock/2013.1/src/exe/rbdock.cxx#4 $)

>  <Rbt.Library>
libRbt.so (2013.1, Build901 2013/11/27)

>  <Rbt.Parameter_File>
/export/apps/rDock/src/rDock_2013.1_src/data/scripts/dock_solv.prm

>  <Rbt.Receptor>
prm/pocket_docking_8.prm

>  <SCORE>
-16.3321

>  <SCORE.INTER>
-12.4457

>  <SCORE.INTER.CONST>
1

>  <SCORE.INTER.POLAR>
0

>  <SCORE.INTER.ROT>
7

>  <SCORE.INTER.SOLV>
10.2428

>  <SCORE.INTER.VDW>
-19.978

>  <SCORE.INTER.norm>
-0.46095

>  <SCORE.INTRA>
-3.88645

>  <SCORE.INTRA.DIHEDRAL>
-0.808929

>  <SCORE.INTRA.DIHEDRAL.0>
9.29433

>  <SCORE.INTRA.POLAR>
0

>  <SCORE.INTRA.POLAR.0>
0

>  <SCORE.INTRA.REPUL>
0

>  <SCORE.INTRA.REPUL.0>
0

>  <SCORE.INTRA.SOLV>
-0.964113

>  <SCORE.INTRA.SOLV.lig_0>
-48.5102

>  <SCORE.INTRA.VDW>
-2.99993

>  <SCORE.INTRA.VDW.0>
0.379549

>  <SCORE.INTRA.norm>
-0.143943

>  <SCORE.RESTR>
0

>  <SCORE.RESTR.CAVITY>
0

>  <SCORE.RESTR.norm>
0

>  <SCORE.SYSTEM>
0

>  <SCORE.SYSTEM.CONST>
0

>  <SCORE.SYSTEM.DIHEDRAL>
0

>  <SCORE.SYSTEM.SOLV>
0

>  <SCORE.SYSTEM.norm>
0

>  <SCORE.heavy>
27

>  <SCORE.norm>
-0.604893

>  <RMSD>
6.054

$$$$
ligand
 OpenBabel11021811483D
libRbt.so/2013.1/901 2013/11/27
 27 29  0  0  0  0  0  0  0  0999 V2000
   49.6626   57.6917   31.0909 N   0  0  0  0  0  0  0  0  0  0  0  0
   48.4931   57.1191   31.7559 C   0  0  2  0  0  0  0  0  0  0  0  0
   48.2701   57.8249   33.0622 C   0  0  0  0  0  0  0  0  0  0  0  0
   48.9313   57.5138   34.0473 O   0  0  0  0  0  0  0  0  0  0  0  0
   48.7108   55.6303   32.0234 C   0  0  0  0  0  0  0  0  0  0  0  0
   47.3594   54.9482   32.1341 C   0  0  0  0  0  0  0  0  0  0  0  0
   46.4241   55.4075   33.6278 S   0  0  2  0  0  0  0  0  0  0  0  0
   46.5034   53.9319   34.6853 C   0  0  0  0  0  0  0  0  0  0  0  0
   44.6306   55.0132   33.1676 C   0  0  0  0  0  0  0  0  0  0  0  0
   43.9632   55.7494   31.9311 C   0  0  2  0  0  0  0  0  0  0  0  0
   43.9977   55.1133   30.6736 O   0  0  0  0  0  0  0  0  0  0  0  0
   44.1728   57.1937   31.7087 C   0  0  1  0  0  0  0  0  0  0  0  0
   44.6585   57.8659   32.8713 O   0  0  0  0  0  0  0  0  0  0  0  0
   45.2281   57.0440   30.5132 C   0  0  2  0  0  0  0  0  0  0  0  0
   45.4461   58.2730   29.8881 O   0  0  0  0  0  0  0  0  0  0  0  0
   44.4853   56.0566   29.6152 C   0  0  1  0  0  0  0  0  0  0  0  0
   47.4570   58.7378   33.1286 O   0  0  0  0  0  0  0  0  0  0  0  0
   47.5374   56.4914   25.5376 N   0  0  0  0  0  0  0  0  0  0  0  0
   46.9439   57.4225   26.2892 C   0  0  0  0  0  0  0  0  0  0  0  0
   46.1980   57.0888   27.3383 N   0  0  0  0  0  0  0  0  0  0  0  0
   45.9234   55.8059   27.6227 C   0  0  0  0  0  0  0  0  0  0  0  0
   46.4861   54.7807   26.8192 C   0  0  0  0  0  0  0  0  0  0  0  0
   47.3299   55.1761   25.7444 C   0  0  0  0  0  0  0  0  0  0  0  0
   47.9278   54.2392   24.9261 N   0  0  0  0  0  0  0  0  0  0  0  0
   46.0536   53.6062   27.3106 N   0  0  0  0  0  0  0  0  0  0  0  0
   45.2745   53.8259   28.3358 C   0  0  0  0  0  0  0  0  0  0  0  0
   45.1643   55.1654   28.5846 N   0  0  0  0  0  0  0  0  0  0  0  0
  2  1  1  1  0  0  0
  2  3  1  0  0  0  0
  2  5  1  0  0  0  0
  3  4  1  0  0  0  0
  3 17  1  0  0  0  0
  5  6  1  0  0  0  0
  7  6  1  6  0  0  0
  7  8  1  0  0  0  0
  7  9  1  0  0  0  0
 10  9  1  1  0  0  0
 10 11  1  0  0  0  0
 10 12  1  0  0  0  0
 11 16  1  0  0  0  0
 12 13  1  1  0  0  0
 12 14  1  0  0  0  0
 14 15  1  6  0  0  0
 14 16  1  0  0  0  0
 16 27  1  6  0  0  0
 18 19  2  0  0  0  0
 18 23  1  0  0  0  0
 19 20  1  0  0  0  0
 20 21  2  0  0  0  0
 21 22  1  0  0  0  0
 21 27  1  0  0  0  0
 22 23  2  0  0  0  0
 22 25  1  0  0  0  0
 23 24  1  0  0  0  0
 25 26  2  0  0  0  0
 26 27  1  0  0  0  0
M  END
>  <CHROM.1>
-80.74195440,-155.73973255,-69.29615999,-107.57877612,-60.14169195,94.03350856
-168.21347939,46.41426302,56.10076067,30.44171913,-1.54830091,-0.49746956
-1.70910695

>  <Name>
ligand

>  <RI>
0

>  <Rbt.Current_Directory>
/home/itssahil/PROJECTS/Mol_Feturizer/New_Systems/rnas/3IQR

>  <Rbt.Executable>
rbdock ($Id: //depot/dev/client3/rdock/2013.1/src/exe/rbdock.cxx#4 $)

>  <Rbt.Library>
libRbt.so (2013.1, Build901 2013/11/27)

>  <Rbt.Parameter_File>
/export/apps/rDock/src/rDock_2013.1_src/data/scripts/dock_solv.prm

>  <Rbt.Receptor>
prm/pocket_docking_7.prm

>  <SCORE>
-15.2365

>  <SCORE.INTER>
-10.4846

>  <SCORE.INTER.CONST>
1

>  <SCORE.INTER.POLAR>
0

>  <SCORE.INTER.ROT>
7

>  <SCORE.INTER.SOLV>
12.8441

>  <SCORE.INTER.VDW>
-19.5378

>  <SCORE.INTER.norm>
-0.388319

>  <SCORE.INTRA>
-4.75185

>  <SCORE.INTRA.DIHEDRAL>
2.0493

>  <SCORE.INTRA.DIHEDRAL.0>
9.29433

>  <SCORE.INTRA.POLAR>
0

>  <SCORE.INTRA.POLAR.0>
0

>  <SCORE.INTRA.REPUL>
0

>  <SCORE.INTRA.REPUL.0>
0

>  <SCORE.INTRA.SOLV>
-0.623829

>  <SCORE.INTRA.SOLV.lig_0>
-48.5102

>  <SCORE.INTRA.VDW>
-5.46459

>  <SCORE.INTRA.VDW.0>
0.379549

>  <SCORE.INTRA.norm>
-0.175994

>  <SCORE.RESTR>
0

>  <SCORE.RESTR.CAVITY>
0

>  <SCORE.RESTR.norm>
0

>  <SCORE.SYSTEM>
0

>  <SCORE.SYSTEM.CONST>
0

>  <SCORE.SYSTEM.DIHEDRAL>
0

>  <SCORE.SYSTEM.SOLV>
0

>  <SCORE.SYSTEM.norm>
0

>  <SCORE.heavy>
27

>  <SCORE.norm>
-0.564313

>  <RMSD>
6.086

$$$$
ligand
 OpenBabel11021811483D
libRbt.so/2013.1/901 2013/11/27
 27 29  0  0  0  0  0  0  0  0999 V2000
   48.5929   57.8170   28.1345 N   0  0  0  0  0  0  0  0  0  0  0  0
   48.4147   56.3768   27.9558 C   0  0  2  0  0  0  0  0  0  0  0  0
   47.6441   56.1254   26.6921 C   0  0  0  0  0  0  0  0  0  0  0  0
   47.6977   55.0264   26.1501 O   0  0  0  0  0  0  0  0  0  0  0  0
   47.6444   55.7870   29.1364 C   0  0  0  0  0  0  0  0  0  0  0  0
   48.5137   55.8644   30.3783 C   0  0  0  0  0  0  0  0  0  0  0  0
   47.6011   55.6014   31.9322 S   0  0  2  0  0  0  0  0  0  0  0  0
   48.8580   55.7771   33.2328 C   0  0  0  0  0  0  0  0  0  0  0  0
   47.6112   53.7198   32.1404 C   0  0  0  0  0  0  0  0  0  0  0  0
   46.5263   52.8458   31.3819 C   0  0  2  0  0  0  0  0  0  0  0  0
   46.9356   52.0907   30.2641 O   0  0  0  0  0  0  0  0  0  0  0  0
   45.1871   53.3927   31.0873 C   0  0  1  0  0  0  0  0  0  0  0  0
   44.8780   54.5463   31.8704 O   0  0  0  0  0  0  0  0  0  0  0  0
   45.4406   53.6698   29.5303 C   0  0  2  0  0  0  0  0  0  0  0  0
   44.2426   53.9690   28.8789 O   0  0  0  0  0  0  0  0  0  0  0  0
   46.0157   52.3209   29.1028 C   0  0  1  0  0  0  0  0  0  0  0  0
   46.9313   57.0069   26.2294 O   0  0  0  0  0  0  0  0  0  0  0  0
   50.9180   52.7563   27.7212 N   0  0  0  0  0  0  0  0  0  0  0  0
   50.2979   53.0800   28.8591 C   0  0  0  0  0  0  0  0  0  0  0  0
   48.9973   52.8564   29.0228 N   0  0  0  0  0  0  0  0  0  0  0  0
   48.2339   52.3965   28.0189 C   0  0  0  0  0  0  0  0  0  0  0  0
   48.8373   52.0900   26.7719 C   0  0  0  0  0  0  0  0  0  0  0  0
   50.2419   52.2831   26.6559 C   0  0  0  0  0  0  0  0  0  0  0  0
   50.9064   51.9938   25.4812 N   0  0  0  0  0  0  0  0  0  0  0  0
   47.8624   51.6594   25.9521 N   0  0  0  0  0  0  0  0  0  0  0  0
   46.7209   51.6826   26.5867 C   0  0  0  0  0  0  0  0  0  0  0  0
   46.8876   52.1182   27.8715 N   0  0  0  0  0  0  0  0  0  0  0  0
  2  1  1  1  0  0  0
  2  3  1  0  0  0  0
  2  5  1  0  0  0  0
  3  4  1  0  0  0  0
  3 17  1  0  0  0  0
  5  6  1  0  0  0  0
  7  6  1  6  0  0  0
  7  8  1  0  0  0  0
  7  9  1  0  0  0  0
 10  9  1  6  0  0  0
 10 11  1  0  0  0  0
 10 12  1  0  0  0  0
 11 16  1  0  0  0  0
 12 13  1  1  0  0  0
 12 14  1  0  0  0  0
 14 15  1  6  0  0  0
 14 16  1  0  0  0  0
 16 27  1  6  0  0  0
 18 19  2  0  0  0  0
 18 23  1  0  0  0  0
 19 20  1  0  0  0  0
 20 21  2  0  0  0  0
 21 22  1  0  0  0  0
 21 27  1  0  0  0  0
 22 23  2  0  0  0  0
 22 25  1  0  0  0  0
 23 24  1  0  0  0  0
 25 26  2  0  0  0  0
 26 27  1  0  0  0  0
M  END
>  <CHROM.1>
159.56650580,-68.00058892,165.19372004,-178.96576300,-83.15020164,106.14032477
-28.33651984,47.67308680,54.01544635,28.96787523,-2.37918124,-1.02024111
-2.66505091

>  <Name>
ligand

>  <RI>
0

>  <Rbt.Current_Directory>
/home/itssahil/PROJECTS/Mol_Feturizer/New_Systems/rnas/3IQR

>  <Rbt.Executable>
rbdock ($Id: //depot/dev/client3/rdock/2013.1/src/exe/rbdock.cxx#4 $)

>  <Rbt.Library>
libRbt.so (2013.1, Build901 2013/11/27)

>  <Rbt.Parameter_File>
/export/apps/rDock/src/rDock_2013.1_src/data/scripts/dock_solv.prm

>  <Rbt.Receptor>
prm/pocket_docking_6.prm

>  <SCORE>
-11.7326

>  <SCORE.INTER>
-6.35302

>  <SCORE.INTER.CONST>
1

>  <SCORE.INTER.POLAR>
0

>  <SCORE.INTER.ROT>
7

>  <SCORE.INTER.SOLV>
10.7833

>  <SCORE.INTER.VDW>
-16.0964

>  <SCORE.INTER.norm>
-0.235297

>  <SCORE.INTRA>
-5.3796

>  <SCORE.INTRA.DIHEDRAL>
0.463011

>  <SCORE.INTRA.DIHEDRAL.0>
9.29433

>  <SCORE.INTRA.POLAR>
0

>  <SCORE.INTRA.POLAR.0>
0

>  <SCORE.INTRA.REPUL>
0

>  <SCORE.INTRA.REPUL.0>
0

>  <SCORE.INTRA.SOLV>
-0.34526

>  <SCORE.INTRA.SOLV.lig_0>
-48.5102

>  <SCORE.INTRA.VDW>
-5.43848

>  <SCORE.INTRA.VDW.0>
0.379549

>  <SCORE.INTRA.norm>
-0.199245

>  <SCORE.RESTR>
0

>  <SCORE.RESTR.CAVITY>
0

>  <SCORE.RESTR.norm>
0

>  <SCORE.SYSTEM>
0

>  <SCORE.SYSTEM.CONST>
0

>  <SCORE.SYSTEM.DIHEDRAL>
0

>  <SCORE.SYSTEM.SOLV>
0

>  <SCORE.SYSTEM.norm>
0

>  <SCORE.heavy>
27

>  <SCORE.norm>
-0.434542

>  <RMSD>
6.117

$$$$
ligand
 OpenBabel11021811483D
libRbt.so/2013.1/901 2013/11/27
 27 29  0  0  0  0  0  0  0  0999 V2000
   48.8725   57.7358   32.3442 N   0  0  0  0  0  0  0  0  0  0  0  0
   48.6475   58.7053   31.2731 C   0  0  2  0  0  0  0  0  0  0  0  0
   47.3869   59.4709   31.5539 C   0  0  0  0  0  0  0  0  0  0  0  0
   46.4592   58.9282   32.1448 O   0  0  0  0  0  0  0  0  0  0  0  0
   48.5086   57.9895   29.9301 C   0  0  0  0  0  0  0  0  0  0  0  0
   47.4184   56.9395   30.0435 C   0  0  0  0  0  0  0  0  0  0  0  0
   46.8847   56.2577   28.4413 S   0  0  2  0  0  0  0  0  0  0  0  0
   46.1229   57.6647   27.5797 C   0  0  0  0  0  0  0  0  0  0  0  0
   45.1780   55.5288   28.8150 C   0  0  0  0  0  0  0  0  0  0  0  0
   44.3060   56.1470   29.9871 C   0  0  2  0  0  0  0  0  0  0  0  0
   44.8647   56.2040   31.2801 O   0  0  0  0  0  0  0  0  0  0  0  0
   42.8785   55.7996   30.1307 C   0  0  1  0  0  0  0  0  0  0  0  0
   42.3291   55.2236   28.9450 O   0  0  0  0  0  0  0  0  0  0  0  0
   43.0579   54.7914   31.3622 C   0  0  2  0  0  0  0  0  0  0  0  0
   41.8204   54.4660   31.9204 O   0  0  0  0  0  0  0  0  0  0  0  0
   43.9112   55.6486   32.2950 C   0  0  1  0  0  0  0  0  0  0  0  0
   47.3055   60.6483   31.2279 O   0  0  0  0  0  0  0  0  0  0  0  0
   43.5495   52.5842   36.3705 N   0  0  0  0  0  0  0  0  0  0  0  0
   42.6110   53.0595   35.5475 C   0  0  0  0  0  0  0  0  0  0  0  0
   42.9284   53.8353   34.5152 N   0  0  0  0  0  0  0  0  0  0  0  0
   44.1869   54.2593   34.3185 C   0  0  0  0  0  0  0  0  0  0  0  0
   45.2112   53.8259   35.1995 C   0  0  0  0  0  0  0  0  0  0  0  0
   44.8425   52.9458   36.2545 C   0  0  0  0  0  0  0  0  0  0  0  0
   45.7825   52.4670   37.1445 N   0  0  0  0  0  0  0  0  0  0  0  0
   46.3585   54.3928   34.7868 N   0  0  0  0  0  0  0  0  0  0  0  0
   46.1221   55.1358   33.7387 C   0  0  0  0  0  0  0  0  0  0  0  0
   44.8003   55.0849   33.3945 N   0  0  0  0  0  0  0  0  0  0  0  0
  2  1  1  1  0  0  0
  2  3  1  0  0  0  0
  2  5  1  0  0  0  0
  3  4  1  0  0  0  0
  3 17  1  0  0  0  0
  5  6  1  0  0  0  0
  7  6  1  1  0  0  0
  7  8  1  0  0  0  0
  7  9  1  0  0  0  0
 10  9  1  6  0  0  0
 10 11  1  0  0  0  0
 10 12  1  0  0  0  0
 11 16  1  0  0  0  0
 12 13  1  6  0  0  0
 12 14  1  0  0  0  0
 14 15  1  1  0  0  0
 14 16  1  0  0  0  0
 16 27  1  1  0  0  0
 18 19  2  0  0  0  0
 18 23  1  0  0  0  0
 19 20  1  0  0  0  0
 20 21  2  0  0  0  0
 21 22  1  0  0  0  0
 21 27  1  0  0  0  0
 22 23  2  0  0  0  0
 22 25  1  0  0  0  0
 23 24  1  0  0  0  0
 25 26  2  0  0  0  0
 26 27  1  0  0  0  0
M  END
>  <CHROM.1>
-31.79261326,54.49941439,167.30536792,-65.24711286,27.61357348,-56.25636595
-166.58415466,45.34634558,55.85429914,31.97316084,-1.08359791,0.60957112
1.96069113

>  <Name>
ligand

>  <RI>
0

>  <Rbt.Current_Directory>
/home/itssahil/PROJECTS/Mol_Feturizer/New_Systems/rnas/3IQR

>  <Rbt.Executable>
rbdock ($Id: //depot/dev/client3/rdock/2013.1/src/exe/rbdock.cxx#4 $)

>  <Rbt.Library>
libRbt.so (2013.1, Build901 2013/11/27)

>  <Rbt.Parameter_File>
/export/apps/rDock/src/rDock_2013.1_src/data/scripts/dock_solv.prm

>  <Rbt.Receptor>
prm/pocket_docking_7.prm

>  <SCORE>
-15.6233

>  <SCORE.INTER>
-11.2869

>  <SCORE.INTER.CONST>
1

>  <SCORE.INTER.POLAR>
0

>  <SCORE.INTER.ROT>
7

>  <SCORE.INTER.SOLV>
13.8869

>  <SCORE.INTER.VDW>
-20.4202

>  <SCORE.INTER.norm>
-0.418033

>  <SCORE.INTRA>
-4.33643

>  <SCORE.INTRA.DIHEDRAL>
-2.66467

>  <SCORE.INTRA.DIHEDRAL.0>
9.29433

>  <SCORE.INTRA.POLAR>
0

>  <SCORE.INTRA.POLAR.0>
0

>  <SCORE.INTRA.REPUL>
0

>  <SCORE.INTRA.REPUL.0>
0

>  <SCORE.INTRA.SOLV>
-0.824544

>  <SCORE.INTRA.SOLV.lig_0>
-48.5102

>  <SCORE.INTRA.VDW>
-2.59182

>  <SCORE.INTRA.VDW.0>
0.379549

>  <SCORE.INTRA.norm>
-0.160608

>  <SCORE.RESTR>
0

>  <SCORE.RESTR.CAVITY>
0

>  <SCORE.RESTR.norm>
0

>  <SCORE.SYSTEM>
0

>  <SCORE.SYSTEM.CONST>
0

>  <SCORE.SYSTEM.DIHEDRAL>
0

>  <SCORE.SYSTEM.SOLV>
0

>  <SCORE.SYSTEM.norm>
0

>  <SCORE.heavy>
27

>  <SCORE.norm>
-0.578642

>  <RMSD>
6.125

$$$$
ligand
 OpenBabel11021811483D
libRbt.so/2013.1/901 2013/11/27
 27 29  0  0  0  0  0  0  0  0999 V2000
   48.8902   59.2595   33.3035 N   0  0  0  0  0  0  0  0  0  0  0  0
   48.1088   58.2110   32.6493 C   0  0  2  0  0  0  0  0  0  0  0  0
   48.6782   56.8696   33.0107 C   0  0  0  0  0  0  0  0  0  0  0  0
   49.4430   56.3005   32.2389 O   0  0  0  0  0  0  0  0  0  0  0  0
   48.1575   58.3818   31.1315 C   0  0  0  0  0  0  0  0  0  0  0  0
   47.2095   57.3824   30.4940 C   0  0  0  0  0  0  0  0  0  0  0  0
   45.4496   57.7494   30.7849 S   0  0  2  0  0  0  0  0  0  0  0  0
   45.4189   59.5138   31.2187 C   0  0  0  0  0  0  0  0  0  0  0  0
   45.1902   57.2723   32.5985 C   0  0  0  0  0  0  0  0  0  0  0  0
   45.1982   55.7404   33.0103 C   0  0  2  0  0  0  0  0  0  0  0  0
   46.4015   55.0176   32.8809 O   0  0  0  0  0  0  0  0  0  0  0  0
   44.0931   54.8457   32.6135 C   0  0  1  0  0  0  0  0  0  0  0  0
   42.9222   55.5592   32.2140 O   0  0  0  0  0  0  0  0  0  0  0  0
   44.8763   54.0991   31.4327 C   0  0  2  0  0  0  0  0  0  0  0  0
   44.1662   52.9784   30.9984 O   0  0  0  0  0  0  0  0  0  0  0  0
   46.1692   53.7262   32.1556 C   0  0  1  0  0  0  0  0  0  0  0  0
   48.4091   56.3670   34.0942 O   0  0  0  0  0  0  0  0  0  0  0  0
   47.8396   51.9535   27.6614 N   0  0  0  0  0  0  0  0  0  0  0  0
   46.6034   52.0542   28.1570 C   0  0  0  0  0  0  0  0  0  0  0  0
   46.3837   52.5773   29.3596 N   0  0  0  0  0  0  0  0  0  0  0  0
   47.3974   52.9271   30.1672 C   0  0  0  0  0  0  0  0  0  0  0  0
   48.7322   52.7869   29.7066 C   0  0  0  0  0  0  0  0  0  0  0  0
   48.9242   52.2827   28.3904 C   0  0  0  0  0  0  0  0  0  0  0  0
   50.1906   52.1311   27.8630 N   0  0  0  0  0  0  0  0  0  0  0  0
   49.5416   53.1980   30.6985 N   0  0  0  0  0  0  0  0  0  0  0  0
   48.8192   53.5692   31.7216 C   0  0  0  0  0  0  0  0  0  0  0  0
   47.4863   53.4356   31.4499 N   0  0  0  0  0  0  0  0  0  0  0  0
  2  1  1  1  0  0  0
  2  3  1  0  0  0  0
  2  5  1  0  0  0  0
  3  4  1  0  0  0  0
  3 17  1  0  0  0  0
  5  6  1  0  0  0  0
  7  6  1  1  0  0  0
  7  8  1  0  0  0  0
  7  9  1  0  0  0  0
 10  9  1  6  0  0  0
 10 11  1  0  0  0  0
 10 12  1  0  0  0  0
 11 16  1  0  0  0  0
 12 13  1  6  0  0  0
 12 14  1  0  0  0  0
 14 15  1  1  0  0  0
 14 16  1  0  0  0  0
 16 27  1  6  0  0  0
 18 19  2  0  0  0  0
 18 23  1  0  0  0  0
 19 20  1  0  0  0  0
 20 21  2  0  0  0  0
 21 22  1  0  0  0  0
 21 27  1  0  0  0  0
 22 23  2  0  0  0  0
 22 25  1  0  0  0  0
 23 24  1  0  0  0  0
 25 26  2  0  0  0  0
 26 27  1  0  0  0  0
M  END
>  <CHROM.1>
-98.15869283,-173.41773468,69.89214396,20.44410020,-71.16775290,66.18071657
-139.87446075,46.94644020,55.23288481,31.21559387,-1.80497302,-0.13088650
-2.64185410

>  <Name>
ligand

>  <RI>
0

>  <Rbt.Current_Directory>
/home/itssahil/PROJECTS/Mol_Feturizer/New_Systems/rnas/3IQR

>  <Rbt.Executable>
rbdock ($Id: //depot/dev/client3/rdock/2013.1/src/exe/rbdock.cxx#4 $)

>  <Rbt.Library>
libRbt.so (2013.1, Build901 2013/11/27)

>  <Rbt.Parameter_File>
/export/apps/rDock/src/rDock_2013.1_src/data/scripts/dock_solv.prm

>  <Rbt.Receptor>
prm/pocket_docking_4.prm

>  <SCORE>
-14.359

>  <SCORE.INTER>
-10.4107

>  <SCORE.INTER.CONST>
1

>  <SCORE.INTER.POLAR>
0

>  <SCORE.INTER.ROT>
7

>  <SCORE.INTER.SOLV>
16.4286

>  <SCORE.INTER.VDW>
-20.6833

>  <SCORE.INTER.norm>
-0.385581

>  <SCORE.INTRA>
-3.94832

>  <SCORE.INTRA.DIHEDRAL>
-3.08029

>  <SCORE.INTRA.DIHEDRAL.0>
9.29433

>  <SCORE.INTRA.POLAR>
0

>  <SCORE.INTRA.POLAR.0>
0

>  <SCORE.INTRA.REPUL>
0

>  <SCORE.INTRA.REPUL.0>
0

>  <SCORE.INTRA.SOLV>
-0.0917567

>  <SCORE.INTRA.SOLV.lig_0>
-48.5102

>  <SCORE.INTRA.VDW>
-2.3623

>  <SCORE.INTRA.VDW.0>
0.379549

>  <SCORE.INTRA.norm>
-0.146234

>  <SCORE.RESTR>
0

>  <SCORE.RESTR.CAVITY>
0

>  <SCORE.RESTR.norm>
0

>  <SCORE.SYSTEM>
0

>  <SCORE.SYSTEM.CONST>
0

>  <SCORE.SYSTEM.DIHEDRAL>
0

>  <SCORE.SYSTEM.SOLV>
0

>  <SCORE.SYSTEM.norm>
0

>  <SCORE.heavy>
27

>  <SCORE.norm>
-0.531815

>  <RMSD>
6.131

$$$$
ligand
 OpenBabel11021811483D
libRbt.so/2013.1/901 2013/11/27
 27 29  0  0  0  0  0  0  0  0999 V2000
   46.4894   59.2633   31.6184 N   0  0  0  0  0  0  0  0  0  0  0  0
   47.2244   57.9995   31.6019 C   0  0  2  0  0  0  0  0  0  0  0  0
   48.5124   58.1846   30.8530 C   0  0  0  0  0  0  0  0  0  0  0  0
   49.5810   57.9340   31.4005 O   0  0  0  0  0  0  0  0  0  0  0  0
   46.3979   56.9140   30.9137 C   0  0  0  0  0  0  0  0  0  0  0  0
   45.2981   56.4616   31.8570 C   0  0  0  0  0  0  0  0  0  0  0  0
   45.9124   55.6503   33.3673 S   0  0  2  0  0  0  0  0  0  0  0  0
   47.1299   54.4406   32.7703 C   0  0  0  0  0  0  0  0  0  0  0  0
   44.6530   54.2704   33.6739 C   0  0  0  0  0  0  0  0  0  0  0  0
   43.9925   53.5290   32.4368 C   0  0  2  0  0  0  0  0  0  0  0  0
   44.7749   53.3237   31.2823 O   0  0  0  0  0  0  0  0  0  0  0  0
   42.6242   53.8657   31.9969 C   0  0  1  0  0  0  0  0  0  0  0  0
   41.8839   54.5745   32.9914 O   0  0  0  0  0  0  0  0  0  0  0  0
   43.0502   54.7279   30.7161 C   0  0  2  0  0  0  0  0  0  0  0  0
   41.9434   54.9950   29.9083 O   0  0  0  0  0  0  0  0  0  0  0  0
   44.0361   53.7665   30.0552 C   0  0  1  0  0  0  0  0  0  0  0  0
   48.4888   58.5460   29.6834 O   0  0  0  0  0  0  0  0  0  0  0  0
   48.3959   51.9680   28.0834 N   0  0  0  0  0  0  0  0  0  0  0  0
   47.5940   51.4725   29.0297 C   0  0  0  0  0  0  0  0  0  0  0  0
   46.4752   52.0989   29.3822 N   0  0  0  0  0  0  0  0  0  0  0  0
   46.1591   53.3034   28.8808 C   0  0  0  0  0  0  0  0  0  0  0  0
   47.0092   53.8972   27.9124 C   0  0  0  0  0  0  0  0  0  0  0  0
   48.1637   53.1674   27.5147 C   0  0  0  0  0  0  0  0  0  0  0  0
   49.0324   53.6691   26.5668 N   0  0  0  0  0  0  0  0  0  0  0  0
   46.4723   55.0858   27.5855 N   0  0  0  0  0  0  0  0  0  0  0  0
   45.3765   55.2699   28.2723 C   0  0  0  0  0  0  0  0  0  0  0  0
   45.1243   54.1980   29.0821 N   0  0  0  0  0  0  0  0  0  0  0  0
  2  1  1  6  0  0  0
  2  3  1  0  0  0  0
  2  5  1  0  0  0  0
  3  4  1  0  0  0  0
  3 17  1  0  0  0  0
  5  6  1  0  0  0  0
  7  6  1  6  0  0  0
  7  8  1  0  0  0  0
  7  9  1  0  0  0  0
 10  9  1  6  0  0  0
 10 11  1  0  0  0  0
 10 12  1  0  0  0  0
 11 16  1  0  0  0  0
 12 13  1  1  0  0  0
 12 14  1  0  0  0  0
 14 15  1  6  0  0  0
 14 16  1  0  0  0  0
 16 27  1  6  0  0  0
 18 19  2  0  0  0  0
 18 23  1  0  0  0  0
 19 20  1  0  0  0  0
 20 21  2  0  0  0  0
 21 22  1  0  0  0  0
 21 27  1  0  0  0  0
 22 23  2  0  0  0  0
 22 25  1  0  0  0  0
 23 24  1  0  0  0  0
 25 26  2  0  0  0  0
 26 27  1  0  0  0  0
M  END
>  <CHROM.1>
122.93452727,-75.23917390,-64.68269284,-48.03995878,34.91419060,34.75366017
50.23549949,45.96261947,54.99098663,30.55011362,-2.57657070,-0.57199107,-2.44868160

>  <Name>
ligand

>  <RI>
0

>  <Rbt.Current_Directory>
/home/itssahil/PROJECTS/Mol_Feturizer/New_Systems/rnas/3IQR

>  <Rbt.Executable>
rbdock ($Id: //depot/dev/client3/rdock/2013.1/src/exe/rbdock.cxx#4 $)

>  <Rbt.Library>
libRbt.so (2013.1, Build901 2013/11/27)

>  <Rbt.Parameter_File>
/export/apps/rDock/src/rDock_2013.1_src/data/scripts/dock_solv.prm

>  <Rbt.Receptor>
prm/pocket_docking_5.prm

>  <SCORE>
-10.693

>  <SCORE.INTER>
-6.41667

>  <SCORE.INTER.CONST>
1

>  <SCORE.INTER.POLAR>
0

>  <SCORE.INTER.ROT>
7

>  <SCORE.INTER.SOLV>
6.82725

>  <SCORE.INTER.VDW>
-14.8202

>  <SCORE.INTER.norm>
-0.237655

>  <SCORE.INTRA>
-4.29338

>  <SCORE.INTRA.DIHEDRAL>
-0.718336

>  <SCORE.INTRA.DIHEDRAL.0>
9.29433

>  <SCORE.INTRA.POLAR>
0

>  <SCORE.INTRA.POLAR.0>
0

>  <SCORE.INTRA.REPUL>
0

>  <SCORE.INTRA.REPUL.0>
0

>  <SCORE.INTRA.SOLV>
-0.23597

>  <SCORE.INTRA.SOLV.lig_0>
-48.5102

>  <SCORE.INTRA.VDW>
-3.81623

>  <SCORE.INTRA.VDW.0>
0.379549

>  <SCORE.INTRA.norm>
-0.159014

>  <SCORE.RESTR>
0.0170794

>  <SCORE.RESTR.CAVITY>
0.0170794

>  <SCORE.RESTR.norm>
0.000632571

>  <SCORE.SYSTEM>
0

>  <SCORE.SYSTEM.CONST>
0

>  <SCORE.SYSTEM.DIHEDRAL>
0

>  <SCORE.SYSTEM.SOLV>
0

>  <SCORE.SYSTEM.norm>
0

>  <SCORE.heavy>
27

>  <SCORE.norm>
-0.396036

>  <RMSD>
6.133

$$$$
ligand
 OpenBabel11021811483D
libRbt.so/2013.1/901 2013/11/27
 27 29  0  0  0  0  0  0  0  0999 V2000
   46.3331   57.7082   31.8630 N   0  0  0  0  0  0  0  0  0  0  0  0
   47.2268   58.6973   32.4636 C   0  0  2  0  0  0  0  0  0  0  0  0
   47.1460   59.9774   31.6831 C   0  0  0  0  0  0  0  0  0  0  0  0
   48.1152   60.3642   31.0385 O   0  0  0  0  0  0  0  0  0  0  0  0
   48.6684   58.1907   32.4444 C   0  0  0  0  0  0  0  0  0  0  0  0
   48.8680   57.2328   33.6048 C   0  0  0  0  0  0  0  0  0  0  0  0
   47.8604   55.7201   33.4912 S   0  0  2  0  0  0  0  0  0  0  0  0
   48.7391   54.5101   34.5238 C   0  0  0  0  0  0  0  0  0  0  0  0
   48.4968   54.8794   31.9189 C   0  0  0  0  0  0  0  0  0  0  0  0
   47.9461   53.4451   31.5243 C   0  0  2  0  0  0  0  0  0  0  0  0
   48.4690   52.8191   30.3745 O   0  0  0  0  0  0  0  0  0  0  0  0
   46.5006   53.1501   31.5769 C   0  0  1  0  0  0  0  0  0  0  0  0
   45.7725   54.0978   32.3587 O   0  0  0  0  0  0  0  0  0  0  0  0
   46.2412   53.2214   29.9980 C   0  0  2  0  0  0  0  0  0  0  0  0
   44.9749   52.7265   29.6812 O   0  0  0  0  0  0  0  0  0  0  0  0
   47.3638   52.3157   29.4955 C   0  0  1  0  0  0  0  0  0  0  0  0
   46.0979   60.6098   31.6598 O   0  0  0  0  0  0  0  0  0  0  0  0
   47.0502   55.2251   25.3041 N   0  0  0  0  0  0  0  0  0  0  0  0
   46.3803   55.2790   26.4584 C   0  0  0  0  0  0  0  0  0  0  0  0
   46.6391   54.4267   27.4458 N   0  0  0  0  0  0  0  0  0  0  0  0
   47.5055   53.4135   27.2875 C   0  0  0  0  0  0  0  0  0  0  0  0
   48.2017   53.2809   26.0583 C   0  0  0  0  0  0  0  0  0  0  0  0
   47.9443   54.2496   25.0488 C   0  0  0  0  0  0  0  0  0  0  0  0
   48.5922   54.1994   23.8312 N   0  0  0  0  0  0  0  0  0  0  0  0
   48.9906   52.1970   26.1617 N   0  0  0  0  0  0  0  0  0  0  0  0
   48.8317   51.6563   27.3402 C   0  0  0  0  0  0  0  0  0  0  0  0
   47.9349   52.3693   28.0855 N   0  0  0  0  0  0  0  0  0  0  0  0
  2  1  1  6  0  0  0
  2  3  1  0  0  0  0
  2  5  1  0  0  0  0
  3  4  1  0  0  0  0
  3 17  1  0  0  0  0
  5  6  1  0  0  0  0
  7  6  1  1  0  0  0
  7  8  1  0  0  0  0
  7  9  1  0  0  0  0
 10  9  1  6  0  0  0
 10 11  1  0  0  0  0
 10 12  1  0  0  0  0
 11 16  1  0  0  0  0
 12 13  1  1  0  0  0
 12 14  1  0  0  0  0
 14 15  1  1  0  0  0
 14 16  1  0  0  0  0
 16 27  1  6  0  0  0
 18 19  2  0  0  0  0
 18 23  1  0  0  0  0
 19 20  1  0  0  0  0
 20 21  2  0  0  0  0
 21 22  1  0  0  0  0
 21 27  1  0  0  0  0
 22 23  2  0  0  0  0
 22 25  1  0  0  0  0
 23 24  1  0  0  0  0
 25 26  2  0  0  0  0
 26 27  1  0  0  0  0
M  END
>  <CHROM.1>
-112.69206274,-80.60104419,64.21941839,157.30294142,174.98573022,-177.82275689
-103.38374618,47.51379593,55.11701168,30.00836592,2.19958609,-1.53091454
1.56752392

>  <Name>
ligand

>  <RI>
0

>  <Rbt.Current_Directory>
/home/itssahil/PROJECTS/Mol_Feturizer/New_Systems/rnas/3IQR

>  <Rbt.Executable>
rbdock ($Id: //depot/dev/client3/rdock/2013.1/src/exe/rbdock.cxx#4 $)

>  <Rbt.Library>
libRbt.so (2013.1, Build901 2013/11/27)

>  <Rbt.Parameter_File>
/export/apps/rDock/src/rDock_2013.1_src/data/scripts/dock_solv.prm

>  <Rbt.Receptor>
prm/pocket_docking_5.prm

>  <SCORE>
-17.3476

>  <SCORE.INTER>
-14.96

>  <SCORE.INTER.CONST>
1

>  <SCORE.INTER.POLAR>
0

>  <SCORE.INTER.ROT>
7

>  <SCORE.INTER.SOLV>
8.24335

>  <SCORE.INTER.VDW>
-20.9878

>  <SCORE.INTER.norm>
-0.554074

>  <SCORE.INTRA>
-2.38758

>  <SCORE.INTRA.DIHEDRAL>
-3.49804

>  <SCORE.INTRA.DIHEDRAL.0>
9.29433

>  <SCORE.INTRA.POLAR>
0

>  <SCORE.INTRA.POLAR.0>
0

>  <SCORE.INTRA.REPUL>
0

>  <SCORE.INTRA.REPUL.0>
0

>  <SCORE.INTRA.SOLV>
1.56304

>  <SCORE.INTRA.SOLV.lig_0>
-48.5102

>  <SCORE.INTRA.VDW>
-1.42008

>  <SCORE.INTRA.VDW.0>
0.379549

>  <SCORE.INTRA.norm>
-0.088429

>  <SCORE.RESTR>
0

>  <SCORE.RESTR.CAVITY>
0

>  <SCORE.RESTR.norm>
0

>  <SCORE.SYSTEM>
0

>  <SCORE.SYSTEM.CONST>
0

>  <SCORE.SYSTEM.DIHEDRAL>
0

>  <SCORE.SYSTEM.SOLV>
0

>  <SCORE.SYSTEM.norm>
0

>  <SCORE.heavy>
27

>  <SCORE.norm>
-0.642503

>  <RMSD>
6.151

$$$$
ligand
 OpenBabel11021811483D
libRbt.so/2013.1/901 2013/11/27
 27 29  0  0  0  0  0  0  0  0999 V2000
   46.6656   57.6871   31.7249 N   0  0  0  0  0  0  0  0  0  0  0  0
   47.3774   58.7399   32.4479 C   0  0  2  0  0  0  0  0  0  0  0  0
   47.3077   60.0165   31.6608 C   0  0  0  0  0  0  0  0  0  0  0  0
   46.3201   60.7383   31.7504 O   0  0  0  0  0  0  0  0  0  0  0  0
   48.8428   58.3523   32.6424 C   0  0  0  0  0  0  0  0  0  0  0  0
   48.9434   57.3768   33.8009 C   0  0  0  0  0  0  0  0  0  0  0  0
   48.0376   55.8199   33.5320 S   0  0  2  0  0  0  0  0  0  0  0  0
   48.8254   54.6348   34.6622 C   0  0  0  0  0  0  0  0  0  0  0  0
   48.9251   55.0394   32.0532 C   0  0  0  0  0  0  0  0  0  0  0  0
   48.5230   53.5780   31.5853 C   0  0  2  0  0  0  0  0  0  0  0  0
   49.2396   52.9937   30.5211 O   0  0  0  0  0  0  0  0  0  0  0  0
   47.1049   53.1969   31.4333 C   0  0  1  0  0  0  0  0  0  0  0  0
   46.2181   54.0930   32.1041 O   0  0  0  0  0  0  0  0  0  0  0  0
   47.0669   53.2654   29.8336 C   0  0  2  0  0  0  0  0  0  0  0  0
   45.8900   52.6984   29.3412 O   0  0  0  0  0  0  0  0  0  0  0  0
   48.3017   52.4323   29.4950 C   0  0  1  0  0  0  0  0  0  0  0  0
   48.2560   60.3530   30.9633 O   0  0  0  0  0  0  0  0  0  0  0  0
   48.4069   55.3511   25.2997 N   0  0  0  0  0  0  0  0  0  0  0  0
   47.5789   55.3555   26.3477 C   0  0  0  0  0  0  0  0  0  0  0  0
   47.7469   54.5124   27.3623 N   0  0  0  0  0  0  0  0  0  0  0  0
   48.6866   53.5543   27.3286 C   0  0  0  0  0  0  0  0  0  0  0  0
   49.5561   53.4736   26.2101 C   0  0  0  0  0  0  0  0  0  0  0  0
   49.3854   54.4330   25.1739 C   0  0  0  0  0  0  0  0  0  0  0  0
   50.2005   54.4316   24.0600 N   0  0  0  0  0  0  0  0  0  0  0  0
   50.3866   52.4382   26.4246 N   0  0  0  0  0  0  0  0  0  0  0  0
   50.0961   51.8794   27.5690 C   0  0  0  0  0  0  0  0  0  0  0  0
   49.0616   52.5314   28.1798 N   0  0  0  0  0  0  0  0  0  0  0  0
  2  1  1  6  0  0  0
  2  3  1  0  0  0  0
  2  5  1  0  0  0  0
  3  4  1  0  0  0  0
  3 17  1  0  0  0  0
  5  6  1  0  0  0  0
  7  6  1  1  0  0  0
  7  8  1  0  0  0  0
  7  9  1  0  0  0  0
 10  9  1  6  0  0  0
 10 11  1  0  0  0  0
 10 12  1  0  0  0  0
 11 16  1  0  0  0  0
 12 13  1  1  0  0  0
 12 14  1  0  0  0  0
 14 15  1  6  0  0  0
 14 16  1  0  0  0  0
 16 27  1  6  0  0  0
 18 19  2  0  0  0  0
 18 23  1  0  0  0  0
 19 20  1  0  0  0  0
 20 21  2  0  0  0  0
 21 22  1  0  0  0  0
 21 27  1  0  0  0  0
 22 23  2  0  0  0  0
 22 25  1  0  0  0  0
 23 24  1  0  0  0  0
 25 26  2  0  0  0  0
 26 27  1  0  0  0  0
M  END
>  <CHROM.1>
83.17505477,-79.25631911,61.75863099,158.04970457,173.95701673,-177.12160423
-103.40336431,48.21318490,55.22608526,30.03516364,-3.12811424,-1.39797892
2.52913542

>  <Name>
ligand

>  <RI>
0

>  <Rbt.Current_Directory>
/home/itssahil/PROJECTS/Mol_Feturizer/New_Systems/rnas/3IQR

>  <Rbt.Executable>
rbdock ($Id: //depot/dev/client3/rdock/2013.1/src/exe/rbdock.cxx#4 $)

>  <Rbt.Library>
libRbt.so (2013.1, Build901 2013/11/27)

>  <Rbt.Parameter_File>
/export/apps/rDock/src/rDock_2013.1_src/data/scripts/dock_solv.prm

>  <Rbt.Receptor>
prm/pocket_docking_6.prm

>  <SCORE>
-17.5644

>  <SCORE.INTER>
-15.028

>  <SCORE.INTER.CONST>
1

>  <SCORE.INTER.POLAR>
0

>  <SCORE.INTER.ROT>
7

>  <SCORE.INTER.SOLV>
9.98602

>  <SCORE.INTER.VDW>
-21.614

>  <SCORE.INTER.norm>
-0.556594

>  <SCORE.INTRA>
-2.53641

>  <SCORE.INTRA.DIHEDRAL>
-3.66244

>  <SCORE.INTRA.DIHEDRAL.0>
9.29433

>  <SCORE.INTRA.POLAR>
0

>  <SCORE.INTRA.POLAR.0>
0

>  <SCORE.INTRA.REPUL>
0

>  <SCORE.INTRA.REPUL.0>
0

>  <SCORE.INTRA.SOLV>
1.754

>  <SCORE.INTRA.SOLV.lig_0>
-48.5102

>  <SCORE.INTRA.VDW>
-1.58219

>  <SCORE.INTRA.VDW.0>
0.379549

>  <SCORE.INTRA.norm>
-0.093941

>  <SCORE.RESTR>
0

>  <SCORE.RESTR.CAVITY>
0

>  <SCORE.RESTR.norm>
0

>  <SCORE.SYSTEM>
0

>  <SCORE.SYSTEM.CONST>
0

>  <SCORE.SYSTEM.DIHEDRAL>
0

>  <SCORE.SYSTEM.SOLV>
0

>  <SCORE.SYSTEM.norm>
0

>  <SCORE.heavy>
27

>  <SCORE.norm>
-0.650535

>  <RMSD>
6.160

$$$$
ligand
 OpenBabel11021811483D
libRbt.so/2013.1/901 2013/11/27
 27 29  0  0  0  0  0  0  0  0999 V2000
   48.1139   53.3694   34.4931 N   0  0  0  0  0  0  0  0  0  0  0  0
   47.7164   54.0616   33.2681 C   0  0  2  0  0  0  0  0  0  0  0  0
   48.9359   54.3412   32.4383 C   0  0  0  0  0  0  0  0  0  0  0  0
   49.1544   53.6805   31.4282 O   0  0  0  0  0  0  0  0  0  0  0  0
   47.0278   55.3835   33.6054 C   0  0  0  0  0  0  0  0  0  0  0  0
   46.6192   56.0682   32.3138 C   0  0  0  0  0  0  0  0  0  0  0  0
   45.1482   57.1294   32.4776 S   0  0  2  0  0  0  0  0  0  0  0  0
   43.7520   56.0342   32.0860 C   0  0  0  0  0  0  0  0  0  0  0  0
   45.0075   57.9583   30.7814 C   0  0  0  0  0  0  0  0  0  0  0  0
   46.2932   58.6177   30.1269 C   0  0  2  0  0  0  0  0  0  0  0  0
   47.0990   57.8242   29.2854 O   0  0  0  0  0  0  0  0  0  0  0  0
   47.1892   59.4788   30.9238 C   0  0  1  0  0  0  0  0  0  0  0  0
   46.5805   59.9417   32.1298 O   0  0  0  0  0  0  0  0  0  0  0  0
   48.3570   58.3997   31.1166 C   0  0  2  0  0  0  0  0  0  0  0  0
   49.5054   58.9999   31.6361 O   0  0  0  0  0  0  0  0  0  0  0  0
   48.5429   57.9374   29.6726 C   0  0  1  0  0  0  0  0  0  0  0  0
   49.6869   55.2563   32.7507 O   0  0  0  0  0  0  0  0  0  0  0  0
   48.5083   54.6786   25.7344 N   0  0  0  0  0  0  0  0  0  0  0  0
   47.8098   55.7963   25.9510 C   0  0  0  0  0  0  0  0  0  0  0  0
   47.9934   56.5215   27.0504 N   0  0  0  0  0  0  0  0  0  0  0  0
   48.8072   56.1077   28.0346 C   0  0  0  0  0  0  0  0  0  0  0  0
   49.5298   54.8971   27.8753 C   0  0  0  0  0  0  0  0  0  0  0  0
   49.3546   54.1819   26.6581 C   0  0  0  0  0  0  0  0  0  0  0  0
   50.0332   53.0040   26.4197 N   0  0  0  0  0  0  0  0  0  0  0  0
   50.2550   54.7154   28.9929 N   0  0  0  0  0  0  0  0  0  0  0  0
   50.0333   55.7030   29.8186 C   0  0  0  0  0  0  0  0  0  0  0  0
   49.1560   56.6010   29.2783 N   0  0  0  0  0  0  0  0  0  0  0  0
  2  1  1  1  0  0  0
  2  3  1  0  0  0  0
  2  5  1  0  0  0  0
  3  4  1  0  0  0  0
  3 17  1  0  0  0  0
  5  6  1  0  0  0  0
  7  6  1  6  0  0  0
  7  8  1  0  0  0  0
  7  9  1  0  0  0  0
 10  9  1  1  0  0  0
 10 11  1  0  0  0  0
 10 12  1  0  0  0  0
 11 16  1  0  0  0  0
 12 13  1  1  0  0  0
 12 14  1  0  0  0  0
 14 15  1  6  0  0  0
 14 16  1  0  0  0  0
 16 27  1  1  0  0  0
 18 19  2  0  0  0  0
 18 23  1  0  0  0  0
 19 20  1  0  0  0  0
 20 21  2  0  0  0  0
 21 22  1  0  0  0  0
 21 27  1  0  0  0  0
 22 23  2  0  0  0  0
 22 25  1  0  0  0  0
 23 24  1  0  0  0  0
 25 26  2  0  0  0  0
 26 27  1  0  0  0  0
M  END
>  <CHROM.1>
105.71232754,-179.53344300,151.00396414,-91.12135785,-48.14895367,90.90864325
44.71613919,47.84627193,56.25364922,30.41928948,-2.50323409,0.97405157,-1.12589979

>  <Name>
ligand

>  <RI>
0

>  <Rbt.Current_Directory>
/home/itssahil/PROJECTS/Mol_Feturizer/New_Systems/rnas/3IQR

>  <Rbt.Executable>
rbdock ($Id: //depot/dev/client3/rdock/2013.1/src/exe/rbdock.cxx#4 $)

>  <Rbt.Library>
libRbt.so (2013.1, Build901 2013/11/27)

>  <Rbt.Parameter_File>
/export/apps/rDock/src/rDock_2013.1_src/data/scripts/dock_solv.prm

>  <Rbt.Receptor>
prm/pocket_docking_3.prm

>  <SCORE>
-14.8079

>  <SCORE.INTER>
-11.1842

>  <SCORE.INTER.CONST>
1

>  <SCORE.INTER.POLAR>
0

>  <SCORE.INTER.ROT>
7

>  <SCORE.INTER.SOLV>
10.2146

>  <SCORE.INTER.VDW>
-19.1277

>  <SCORE.INTER.norm>
-0.414231

>  <SCORE.INTRA>
-3.67468

>  <SCORE.INTRA.DIHEDRAL>
1.3442

>  <SCORE.INTRA.DIHEDRAL.0>
9.29433

>  <SCORE.INTRA.POLAR>
0

>  <SCORE.INTRA.POLAR.0>
0

>  <SCORE.INTRA.REPUL>
0

>  <SCORE.INTRA.REPUL.0>
0

>  <SCORE.INTRA.SOLV>
-1.30213

>  <SCORE.INTRA.SOLV.lig_0>
-48.5102

>  <SCORE.INTRA.VDW>
-3.69572

>  <SCORE.INTRA.VDW.0>
0.379549

>  <SCORE.INTRA.norm>
-0.136099

>  <SCORE.RESTR>
0.0510219

>  <SCORE.RESTR.CAVITY>
0.0510219

>  <SCORE.RESTR.norm>
0.0018897

>  <SCORE.SYSTEM>
0

>  <SCORE.SYSTEM.CONST>
0

>  <SCORE.SYSTEM.DIHEDRAL>
0

>  <SCORE.SYSTEM.SOLV>
0

>  <SCORE.SYSTEM.norm>
0

>  <SCORE.heavy>
27

>  <SCORE.norm>
-0.54844

>  <RMSD>
6.168

$$$$
ligand
 OpenBabel11021811483D
libRbt.so/2013.1/901 2013/11/27
 27 29  0  0  0  0  0  0  0  0999 V2000
   44.1526   54.3344   34.1455 N   0  0  0  0  0  0  0  0  0  0  0  0
   44.9792   54.8202   33.0417 C   0  0  2  0  0  0  0  0  0  0  0  0
   46.2489   54.0210   32.9838 C   0  0  0  0  0  0  0  0  0  0  0  0
   46.6361   53.5627   31.9140 O   0  0  0  0  0  0  0  0  0  0  0  0
   45.3258   56.2943   33.2473 C   0  0  0  0  0  0  0  0  0  0  0  0
   45.9829   56.8250   31.9861 C   0  0  0  0  0  0  0  0  0  0  0  0
   45.9812   58.6422   31.8651 S   0  0  2  0  0  0  0  0  0  0  0  0
   46.5257   58.9849   30.1656 C   0  0  0  0  0  0  0  0  0  0  0  0
   47.6816   59.1337   32.5366 C   0  0  0  0  0  0  0  0  0  0  0  0
   48.9561   58.2804   32.1316 C   0  0  2  0  0  0  0  0  0  0  0  0
   49.1265   57.9317   30.7764 O   0  0  0  0  0  0  0  0  0  0  0  0
   49.3840   57.1275   32.9482 C   0  0  1  0  0  0  0  0  0  0  0  0
   48.8107   57.1349   34.2562 O   0  0  0  0  0  0  0  0  0  0  0  0
   48.8311   55.9907   31.9647 C   0  0  2  0  0  0  0  0  0  0  0  0
   49.3116   54.7347   32.3395 O   0  0  0  0  0  0  0  0  0  0  0  0
   49.4188   56.4678   30.6379 C   0  0  1  0  0  0  0  0  0  0  0  0
   46.9154   53.8645   33.9988 O   0  0  0  0  0  0  0  0  0  0  0  0
   51.0091   54.3688   26.2566 N   0  0  0  0  0  0  0  0  0  0  0  0
   51.6852   54.7242   27.3523 C   0  0  0  0  0  0  0  0  0  0  0  0
   51.0636   55.2395   28.4089 N   0  0  0  0  0  0  0  0  0  0  0  0
   49.7516   55.5223   28.3805 C   0  0  0  0  0  0  0  0  0  0  0  0
   48.9998   55.2141   27.2173 C   0  0  0  0  0  0  0  0  0  0  0  0
   49.6883   54.6055   26.1314 C   0  0  0  0  0  0  0  0  0  0  0  0
   49.0256   54.2609   24.9708 N   0  0  0  0  0  0  0  0  0  0  0  0
   47.7322   55.5985   27.4482 N   0  0  0  0  0  0  0  0  0  0  0  0
   47.6478   56.1176   28.6439 C   0  0  0  0  0  0  0  0  0  0  0  0
   48.8606   56.0884   29.2735 N   0  0  0  0  0  0  0  0  0  0  0  0
  2  1  1  1  0  0  0
  2  3  1  0  0  0  0
  2  5  1  0  0  0  0
  3  4  1  0  0  0  0
  3 17  1  0  0  0  0
  5  6  1  0  0  0  0
  7  6  1  6  0  0  0
  7  8  1  0  0  0  0
  7  9  1  0  0  0  0
 10  9  1  6  0  0  0
 10 11  1  0  0  0  0
 10 12  1  0  0  0  0
 11 16  1  0  0  0  0
 12 13  1  1  0  0  0
 12 14  1  0  0  0  0
 14 15  1  1  0  0  0
 14 16  1  0  0  0  0
 16 27  1  6  0  0  0
 18 19  2  0  0  0  0
 18 23  1  0  0  0  0
 19 20  1  0  0  0  0
 20 21  2  0  0  0  0
 21 22  1  0  0  0  0
 21 27  1  0  0  0  0
 22 23  2  0  0  0  0
 22 25  1  0  0  0  0
 23 24  1  0  0  0  0
 25 26  2  0  0  0  0
 26 27  1  0  0  0  0
M  END
>  <CHROM.1>
132.06216553,-170.76730259,161.86949686,-169.77239604,41.32954849,46.18469120
123.00141144,48.00573754,56.06326445,30.71427460,2.65915015,0.98173787,0.34880740

>  <Name>
ligand

>  <RI>
0

>  <Rbt.Current_Directory>
/home/itssahil/PROJECTS/Mol_Feturizer/New_Systems/rnas/3IQR

>  <Rbt.Executable>
rbdock ($Id: //depot/dev/client3/rdock/2013.1/src/exe/rbdock.cxx#4 $)

>  <Rbt.Library>
libRbt.so (2013.1, Build901 2013/11/27)

>  <Rbt.Parameter_File>
/export/apps/rDock/src/rDock_2013.1_src/data/scripts/dock_solv.prm

>  <Rbt.Receptor>
prm/pocket_docking_5.prm

>  <SCORE>
-19.9905

>  <SCORE.INTER>
-14.443

>  <SCORE.INTER.CONST>
1

>  <SCORE.INTER.POLAR>
0

>  <SCORE.INTER.ROT>
7

>  <SCORE.INTER.SOLV>
11.6857

>  <SCORE.INTER.VDW>
-21.7905

>  <SCORE.INTER.norm>
-0.534925

>  <SCORE.INTRA>
-5.54755

>  <SCORE.INTRA.DIHEDRAL>
-1.86918

>  <SCORE.INTRA.DIHEDRAL.0>
9.29433

>  <SCORE.INTRA.POLAR>
0

>  <SCORE.INTRA.POLAR.0>
0

>  <SCORE.INTRA.REPUL>
0

>  <SCORE.INTRA.REPUL.0>
0

>  <SCORE.INTRA.SOLV>
-0.765004

>  <SCORE.INTRA.SOLV.lig_0>
-48.5102

>  <SCORE.INTRA.VDW>
-4.23046

>  <SCORE.INTRA.VDW.0>
0.379549

>  <SCORE.INTRA.norm>
-0.205465

>  <SCORE.RESTR>
0

>  <SCORE.RESTR.CAVITY>
0

>  <SCORE.RESTR.norm>
0

>  <SCORE.SYSTEM>
0

>  <SCORE.SYSTEM.CONST>
0

>  <SCORE.SYSTEM.DIHEDRAL>
0

>  <SCORE.SYSTEM.SOLV>
0

>  <SCORE.SYSTEM.norm>
0

>  <SCORE.heavy>
27

>  <SCORE.norm>
-0.74039

>  <RMSD>
6.170

$$$$
ligand
 OpenBabel11021811483D
libRbt.so/2013.1/901 2013/11/27
 27 29  0  0  0  0  0  0  0  0999 V2000
   48.8414   56.1029   33.4692 N   0  0  0  0  0  0  0  0  0  0  0  0
   47.6270   55.3206   33.6954 C   0  0  2  0  0  0  0  0  0  0  0  0
   47.9474   53.8593   33.5677 C   0  0  0  0  0  0  0  0  0  0  0  0
   49.0097   53.4249   34.0004 O   0  0  0  0  0  0  0  0  0  0  0  0
   46.5590   55.6896   32.6667 C   0  0  0  0  0  0  0  0  0  0  0  0
   46.2861   57.1801   32.7547 C   0  0  0  0  0  0  0  0  0  0  0  0
   44.7983   57.7101   31.8479 S   0  0  2  0  0  0  0  0  0  0  0  0
   45.0139   57.0227   30.1796 C   0  0  0  0  0  0  0  0  0  0  0  0
   45.2515   59.4386   31.2226 C   0  0  0  0  0  0  0  0  0  0  0  0
   46.6645   59.6755   30.5417 C   0  0  2  0  0  0  0  0  0  0  0  0
   47.0802   58.7840   29.5319 O   0  0  0  0  0  0  0  0  0  0  0  0
   47.8484   60.0136   31.3562 C   0  0  1  0  0  0  0  0  0  0  0  0
   47.5050   60.4729   32.6641 O   0  0  0  0  0  0  0  0  0  0  0  0
   48.5318   58.5664   31.2961 C   0  0  2  0  0  0  0  0  0  0  0  0
   49.8407   58.6162   31.7792 O   0  0  0  0  0  0  0  0  0  0  0  0
   48.4747   58.2994   29.7933 C   0  0  1  0  0  0  0  0  0  0  0  0
   47.1279   53.0988   33.0685 O   0  0  0  0  0  0  0  0  0  0  0  0
   47.0194   55.9244   25.5070 N   0  0  0  0  0  0  0  0  0  0  0  0
   46.7988   57.1704   25.9346 C   0  0  0  0  0  0  0  0  0  0  0  0
   47.2978   57.6011   27.0895 N   0  0  0  0  0  0  0  0  0  0  0  0
   47.9515   56.7750   27.9216 C   0  0  0  0  0  0  0  0  0  0  0  0
   48.1630   55.4259   27.5363 C   0  0  0  0  0  0  0  0  0  0  0  0
   47.6692   55.0198   26.2656 C   0  0  0  0  0  0  0  0  0  0  0  0
   47.8477   53.7289   25.8110 N   0  0  0  0  0  0  0  0  0  0  0  0
   48.8280   54.8245   28.5383 N   0  0  0  0  0  0  0  0  0  0  0  0
   49.0340   55.6848   29.4994 C   0  0  0  0  0  0  0  0  0  0  0  0
   48.5252   56.9105   29.1723 N   0  0  0  0  0  0  0  0  0  0  0  0
  2  1  1  6  0  0  0
  2  3  1  0  0  0  0
  2  5  1  0  0  0  0
  3  4  1  0  0  0  0
  3 17  1  0  0  0  0
  5  6  1  0  0  0  0
  7  6  1  1  0  0  0
  7  8  1  0  0  0  0
  7  9  1  0  0  0  0
 10  9  1  1  0  0  0
 10 11  1  0  0  0  0
 10 12  1  0  0  0  0
 11 16  1  0  0  0  0
 12 13  1  1  0  0  0
 12 14  1  0  0  0  0
 14 15  1  6  0  0  0
 14 16  1  0  0  0  0
 16 27  1  1  0  0  0
 18 19  2  0  0  0  0
 18 23  1  0  0  0  0
 19 20  1  0  0  0  0
 20 21  2  0  0  0  0
 21 22  1  0  0  0  0
 21 27  1  0  0  0  0
 22 23  2  0  0  0  0
 22 25  1  0  0  0  0
 23 24  1  0  0  0  0
 25 26  2  0  0  0  0
 26 27  1  0  0  0  0
M  END
>  <CHROM.1>
38.45953896,-57.28950644,-167.70430575,-51.86083545,46.21726144,48.86726188
43.79814959,47.40404338,56.81480293,30.41394805,-1.73592524,1.31389340,-1.51359797

>  <Name>
ligand

>  <RI>
0

>  <Rbt.Current_Directory>
/home/itssahil/PROJECTS/Mol_Feturizer/New_Systems/rnas/3IQR

>  <Rbt.Executable>
rbdock ($Id: //depot/dev/client3/rdock/2013.1/src/exe/rbdock.cxx#4 $)

>  <Rbt.Library>
libRbt.so (2013.1, Build901 2013/11/27)

>  <Rbt.Parameter_File>
/export/apps/rDock/src/rDock_2013.1_src/data/scripts/dock_solv.prm

>  <Rbt.Receptor>
prm/pocket_docking_2.prm

>  <SCORE>
-14.3305

>  <SCORE.INTER>
-13.7787

>  <SCORE.INTER.CONST>
1

>  <SCORE.INTER.POLAR>
0

>  <SCORE.INTER.ROT>
7

>  <SCORE.INTER.SOLV>
12.6846

>  <SCORE.INTER.VDW>
-21.6807

>  <SCORE.INTER.norm>
-0.510322

>  <SCORE.INTRA>
-2.58161

>  <SCORE.INTRA.DIHEDRAL>
-3.4531

>  <SCORE.INTRA.DIHEDRAL.0>
9.29433

>  <SCORE.INTRA.POLAR>
0

>  <SCORE.INTRA.POLAR.0>
0

>  <SCORE.INTRA.REPUL>
0

>  <SCORE.INTRA.REPUL.0>
0

>  <SCORE.INTRA.SOLV>
1.60294

>  <SCORE.INTRA.SOLV.lig_0>
-48.5102

>  <SCORE.INTRA.VDW>
-1.65653

>  <SCORE.INTRA.VDW.0>
0.379549

>  <SCORE.INTRA.norm>
-0.0956152

>  <SCORE.RESTR>
2.02975

>  <SCORE.RESTR.CAVITY>
2.02975

>  <SCORE.RESTR.norm>
0.0751761

>  <SCORE.SYSTEM>
0

>  <SCORE.SYSTEM.CONST>
0

>  <SCORE.SYSTEM.DIHEDRAL>
0

>  <SCORE.SYSTEM.SOLV>
0

>  <SCORE.SYSTEM.norm>
0

>  <SCORE.heavy>
27

>  <SCORE.norm>
-0.530761

>  <RMSD>
6.172

$$$$
ligand
 OpenBabel11021811483D
libRbt.so/2013.1/901 2013/11/27
 27 29  0  0  0  0  0  0  0  0999 V2000
   41.7271   54.7180   31.4775 N   0  0  0  0  0  0  0  0  0  0  0  0
   43.0017   55.3186   31.0868 C   0  0  2  0  0  0  0  0  0  0  0  0
   42.9382   55.7209   29.6417 C   0  0  0  0  0  0  0  0  0  0  0  0
   43.8712   56.3350   29.1351 O   0  0  0  0  0  0  0  0  0  0  0  0
   44.1404   54.3174   31.2771 C   0  0  0  0  0  0  0  0  0  0  0  0
   45.4572   55.0715   31.3102 C   0  0  0  0  0  0  0  0  0  0  0  0
   45.6245   56.1970   32.7322 S   0  0  2  0  0  0  0  0  0  0  0  0
   45.0370   57.8014   32.1134 C   0  0  0  0  0  0  0  0  0  0  0  0
   47.4211   56.7841   32.6251 C   0  0  0  0  0  0  0  0  0  0  0  0
   48.5929   55.7151   32.6432 C   0  0  2  0  0  0  0  0  0  0  0  0
   48.9166   55.0544   31.4407 O   0  0  0  0  0  0  0  0  0  0  0  0
   48.7007   54.7309   33.7383 C   0  0  1  0  0  0  0  0  0  0  0  0
   47.9380   55.0994   34.8880 O   0  0  0  0  0  0  0  0  0  0  0  0
   48.1369   53.4780   32.9151 C   0  0  2  0  0  0  0  0  0  0  0  0
   48.3491   52.2891   33.6155 O   0  0  0  0  0  0  0  0  0  0  0  0
   48.9929   53.5724   31.6536 C   0  0  1  0  0  0  0  0  0  0  0  0
   41.9718   55.3978   28.9628 O   0  0  0  0  0  0  0  0  0  0  0  0
   51.0999   52.5640   27.1067 N   0  0  0  0  0  0  0  0  0  0  0  0
   51.5846   53.2078   28.1718 C   0  0  0  0  0  0  0  0  0  0  0  0
   50.8664   53.3395   29.2832 N   0  0  0  0  0  0  0  0  0  0  0  0
   49.5906   52.9266   29.3457 C   0  0  0  0  0  0  0  0  0  0  0  0
   49.0122   52.2858   28.2195 C   0  0  0  0  0  0  0  0  0  0  0  0
   49.8326   52.1070   27.0713 C   0  0  0  0  0  0  0  0  0  0  0  0
   49.3495   51.4793   25.9410 N   0  0  0  0  0  0  0  0  0  0  0  0
   47.7426   51.9823   28.5418 N   0  0  0  0  0  0  0  0  0  0  0  0
   47.4961   52.3863   29.7593 C   0  0  0  0  0  0  0  0  0  0  0  0
   48.6028   52.9675   30.3122 N   0  0  0  0  0  0  0  0  0  0  0  0
  2  1  1  6  0  0  0
  2  3  1  0  0  0  0
  2  5  1  0  0  0  0
  3  4  1  0  0  0  0
  3 17  1  0  0  0  0
  5  6  1  0  0  0  0
  7  6  1  6  0  0  0
  7  8  1  0  0  0  0
  7  9  1  0  0  0  0
 10  9  1  6  0  0  0
 10 11  1  0  0  0  0
 10 12  1  0  0  0  0
 11 16  1  0  0  0  0
 12 13  1  1  0  0  0
 12 14  1  0  0  0  0
 14 15  1  1  0  0  0
 14 16  1  0  0  0  0
 16 27  1  6  0  0  0
 18 19  2  0  0  0  0
 18 23  1  0  0  0  0
 19 20  1  0  0  0  0
 20 21  2  0  0  0  0
 21 22  1  0  0  0  0
 21 27  1  0  0  0  0
 22 23  2  0  0  0  0
 22 25  1  0  0  0  0
 23 24  1  0  0  0  0
 25 26  2  0  0  0  0
 26 27  1  0  0  0  0
M  END
>  <CHROM.1>
174.67953737,-161.63930844,64.69750855,-93.22019313,-57.49160536,81.52427859
80.23728755,47.11244065,54.32736380,30.72113007,2.57025725,-0.31620929,1.19427626

>  <Name>
ligand

>  <RI>
0

>  <Rbt.Current_Directory>
/home/itssahil/PROJECTS/Mol_Feturizer/New_Systems/rnas/3IQR

>  <Rbt.Executable>
rbdock ($Id: //depot/dev/client3/rdock/2013.1/src/exe/rbdock.cxx#4 $)

>  <Rbt.Library>
libRbt.so (2013.1, Build901 2013/11/27)

>  <Rbt.Parameter_File>
/export/apps/rDock/src/rDock_2013.1_src/data/scripts/dock_solv.prm

>  <Rbt.Receptor>
prm/pocket_docking_6.prm

>  <SCORE>
-18.132

>  <SCORE.INTER>
-12.7932

>  <SCORE.INTER.CONST>
1

>  <SCORE.INTER.POLAR>
0

>  <SCORE.INTER.ROT>
7

>  <SCORE.INTER.SOLV>
10.3979

>  <SCORE.INTER.VDW>
-20.2615

>  <SCORE.INTER.norm>
-0.473824

>  <SCORE.INTRA>
-5.33871

>  <SCORE.INTRA.DIHEDRAL>
-1.46541

>  <SCORE.INTRA.DIHEDRAL.0>
9.29433

>  <SCORE.INTRA.POLAR>
0

>  <SCORE.INTRA.POLAR.0>
0

>  <SCORE.INTRA.REPUL>
0

>  <SCORE.INTRA.REPUL.0>
0

>  <SCORE.INTRA.SOLV>
-1.03019

>  <SCORE.INTRA.SOLV.lig_0>
-48.5102

>  <SCORE.INTRA.VDW>
-4.0909

>  <SCORE.INTRA.VDW.0>
0.379549

>  <SCORE.INTRA.norm>
-0.19773

>  <SCORE.RESTR>
0

>  <SCORE.RESTR.CAVITY>
0

>  <SCORE.RESTR.norm>
0

>  <SCORE.SYSTEM>
0

>  <SCORE.SYSTEM.CONST>
0

>  <SCORE.SYSTEM.DIHEDRAL>
0

>  <SCORE.SYSTEM.SOLV>
0

>  <SCORE.SYSTEM.norm>
0

>  <SCORE.heavy>
27

>  <SCORE.norm>
-0.671554

>  <RMSD>
6.182

$$$$
ligand
 OpenBabel11021811483D
libRbt.so/2013.1/901 2013/11/27
 27 29  0  0  0  0  0  0  0  0999 V2000
   47.7796   53.7966   33.4431 N   0  0  0  0  0  0  0  0  0  0  0  0
   47.7610   55.1847   32.9841 C   0  0  2  0  0  0  0  0  0  0  0  0
   48.9387   55.9143   33.5628 C   0  0  0  0  0  0  0  0  0  0  0  0
   50.0651   55.4407   33.4569 O   0  0  0  0  0  0  0  0  0  0  0  0
   46.4746   55.8753   33.4352 C   0  0  0  0  0  0  0  0  0  0  0  0
   46.3700   57.2211   32.7410 C   0  0  0  0  0  0  0  0  0  0  0  0
   44.7128   57.5785   32.0758 S   0  0  2  0  0  0  0  0  0  0  0  0
   44.6866   56.7568   30.4552 C   0  0  0  0  0  0  0  0  0  0  0  0
   44.9221   59.2669   31.2454 C   0  0  0  0  0  0  0  0  0  0  0  0
   46.2607   59.5872   30.4569 C   0  0  2  0  0  0  0  0  0  0  0  0
   46.7006   58.6691   29.4818 O   0  0  0  0  0  0  0  0  0  0  0  0
   47.4526   60.0931   31.1661 C   0  0  1  0  0  0  0  0  0  0  0  0
   47.1454   60.6101   32.4614 O   0  0  0  0  0  0  0  0  0  0  0  0
   48.2710   58.7164   31.1547 C   0  0  2  0  0  0  0  0  0  0  0  0
   49.5954   58.9242   31.5443 O   0  0  0  0  0  0  0  0  0  0  0  0
   48.1495   58.3385   29.6797 C   0  0  1  0  0  0  0  0  0  0  0  0
   48.7750   57.0009   34.1028 O   0  0  0  0  0  0  0  0  0  0  0  0
   47.2661   55.7012   25.3908 N   0  0  0  0  0  0  0  0  0  0  0  0
   46.9733   56.9626   25.7179 C   0  0  0  0  0  0  0  0  0  0  0  0
   47.3210   57.4670   26.8981 N   0  0  0  0  0  0  0  0  0  0  0  0
   47.8838   56.7032   27.8478 C   0  0  0  0  0  0  0  0  0  0  0  0
   48.1644   55.3408   27.5674 C   0  0  0  0  0  0  0  0  0  0  0  0
   47.8353   54.8548   26.2716 C   0  0  0  0  0  0  0  0  0  0  0  0
   48.0904   53.5461   25.9153 N   0  0  0  0  0  0  0  0  0  0  0  0
   48.7138   54.8107   28.6742 N   0  0  0  0  0  0  0  0  0  0  0  0
   48.7866   55.7264   29.6030 C   0  0  0  0  0  0  0  0  0  0  0  0
   48.2995   56.9198   29.1486 N   0  0  0  0  0  0  0  0  0  0  0  0
  2  1  1  1  0  0  0
  2  3  1  0  0  0  0
  2  5  1  0  0  0  0
  3  4  1  0  0  0  0
  3 17  1  0  0  0  0
  5  6  1  0  0  0  0
  7  6  1  1  0  0  0
  7  8  1  0  0  0  0
  7  9  1  0  0  0  0
 10  9  1  1  0  0  0
 10 11  1  0  0  0  0
 10 12  1  0  0  0  0
 11 16  1  0  0  0  0
 12 13  1  1  0  0  0
 12 14  1  0  0  0  0
 14 15  1  6  0  0  0
 14 16  1  0  0  0  0
 16 27  1  1  0  0  0
 18 19  2  0  0  0  0
 18 23  1  0  0  0  0
 19 20  1  0  0  0  0
 20 21  2  0  0  0  0
 21 22  1  0  0  0  0
 21 27  1  0  0  0  0
 22 23  2  0  0  0  0
 22 25  1  0  0  0  0
 23 24  1  0  0  0  0
 25 26  2  0  0  0  0
 26 27  1  0  0  0  0
M  END
>  <CHROM.1>
50.85463728,-169.98253563,135.38742035,-83.97125302,38.55439418,51.52723245
55.27623798,47.40066328,56.99919848,30.42097950,-1.69823826,1.06437133,-1.73393695

>  <Name>
ligand

>  <RI>
0

>  <Rbt.Current_Directory>
/home/itssahil/PROJECTS/Mol_Feturizer/New_Systems/rnas/3IQR

>  <Rbt.Executable>
rbdock ($Id: //depot/dev/client3/rdock/2013.1/src/exe/rbdock.cxx#4 $)

>  <Rbt.Library>
libRbt.so (2013.1, Build901 2013/11/27)

>  <Rbt.Parameter_File>
/export/apps/rDock/src/rDock_2013.1_src/data/scripts/dock_solv.prm

>  <Rbt.Receptor>
prm/pocket_docking_2.prm

>  <SCORE>
-15.271

>  <SCORE.INTER>
-15.1016

>  <SCORE.INTER.CONST>
1

>  <SCORE.INTER.POLAR>
0

>  <SCORE.INTER.ROT>
7

>  <SCORE.INTER.SOLV>
10.8018

>  <SCORE.INTER.VDW>
-21.935

>  <SCORE.INTER.norm>
-0.559317

>  <SCORE.INTRA>
-2.00867

>  <SCORE.INTRA.DIHEDRAL>
0.710097

>  <SCORE.INTRA.DIHEDRAL.0>
9.29433

>  <SCORE.INTRA.POLAR>
0

>  <SCORE.INTRA.POLAR.0>
0

>  <SCORE.INTRA.REPUL>
0

>  <SCORE.INTRA.REPUL.0>
0

>  <SCORE.INTRA.SOLV>
-0.962399

>  <SCORE.INTRA.SOLV.lig_0>
-48.5102

>  <SCORE.INTRA.VDW>
-1.88252

>  <SCORE.INTRA.VDW.0>
0.379549

>  <SCORE.INTRA.norm>
-0.0743952

>  <SCORE.RESTR>
1.8392

>  <SCORE.RESTR.CAVITY>
1.8392

>  <SCORE.RESTR.norm>
0.0681187

>  <SCORE.SYSTEM>
0

>  <SCORE.SYSTEM.CONST>
0

>  <SCORE.SYSTEM.DIHEDRAL>
0

>  <SCORE.SYSTEM.SOLV>
0

>  <SCORE.SYSTEM.norm>
0

>  <SCORE.heavy>
27

>  <SCORE.norm>
-0.565594

>  <RMSD>
6.237

$$$$
ligand
 OpenBabel11021811483D
libRbt.so/2013.1/901 2013/11/27
 27 29  0  0  0  0  0  0  0  0999 V2000
   42.6930   53.5496   31.7424 N   0  0  0  0  0  0  0  0  0  0  0  0
   42.6947   54.9950   31.5213 C   0  0  2  0  0  0  0  0  0  0  0  0
   42.4306   55.2750   30.0701 C   0  0  0  0  0  0  0  0  0  0  0  0
   43.0194   54.6345   29.2055 O   0  0  0  0  0  0  0  0  0  0  0  0
   44.0490   55.5889   31.9063 C   0  0  0  0  0  0  0  0  0  0  0  0
   44.0108   57.0889   31.6766 C   0  0  0  0  0  0  0  0  0  0  0  0
   45.5376   57.9480   32.1743 S   0  0  2  0  0  0  0  0  0  0  0  0
   45.4920   59.5199   31.2636 C   0  0  0  0  0  0  0  0  0  0  0  0
   46.8402   57.2652   30.9823 C   0  0  0  0  0  0  0  0  0  0  0  0
   47.7074   56.0084   31.4120 C   0  0  2  0  0  0  0  0  0  0  0  0
   47.0361   54.8485   31.8494 O   0  0  0  0  0  0  0  0  0  0  0  0
   48.9115   56.1722   32.2501 C   0  0  1  0  0  0  0  0  0  0  0  0
   49.3904   57.5175   32.2705 O   0  0  0  0  0  0  0  0  0  0  0  0
   48.2546   55.6584   33.6175 C   0  0  2  0  0  0  0  0  0  0  0  0
   49.2345   55.4475   34.5893 O   0  0  0  0  0  0  0  0  0  0  0  0
   47.6159   54.3552   33.1410 C   0  0  1  0  0  0  0  0  0  0  0  0
   41.5969   56.1144   29.7550 O   0  0  0  0  0  0  0  0  0  0  0  0
   46.1923   53.0664   37.8784 N   0  0  0  0  0  0  0  0  0  0  0  0
   47.3276   53.6015   37.4213 C   0  0  0  0  0  0  0  0  0  0  0  0
   47.4852   53.8859   36.1319 N   0  0  0  0  0  0  0  0  0  0  0  0
   46.5563   53.5514   35.2223 C   0  0  0  0  0  0  0  0  0  0  0  0
   45.3554   52.9300   35.6523 C   0  0  0  0  0  0  0  0  0  0  0  0
   45.1971   52.6996   37.0471 C   0  0  0  0  0  0  0  0  0  0  0  0
   44.0517   52.1140   37.5472 N   0  0  0  0  0  0  0  0  0  0  0  0
   44.6109   52.6998   34.5566 N   0  0  0  0  0  0  0  0  0  0  0  0
   45.2537   53.1197   33.4998 C   0  0  0  0  0  0  0  0  0  0  0  0
   46.4572   53.6661   33.8480 N   0  0  0  0  0  0  0  0  0  0  0  0
  2  1  1  6  0  0  0
  2  3  1  0  0  0  0
  2  5  1  0  0  0  0
  3  4  1  0  0  0  0
  3 17  1  0  0  0  0
  5  6  1  0  0  0  0
  7  6  1  6  0  0  0
  7  8  1  0  0  0  0
  7  9  1  0  0  0  0
 10  9  1  1  0  0  0
 10 11  1  0  0  0  0
 10 12  1  0  0  0  0
 11 16  1  0  0  0  0
 12 13  1  1  0  0  0
 12 14  1  0  0  0  0
 14 15  1  1  0  0  0
 14 16  1  0  0  0  0
 16 27  1  1  0  0  0
 18 19  2  0  0  0  0
 18 23  1  0  0  0  0
 19 20  1  0  0  0  0
 20 21  2  0  0  0  0
 21 22  1  0  0  0  0
 21 27  1  0  0  0  0
 22 23  2  0  0  0  0
 22 25  1  0  0  0  0
 23 24  1  0  0  0  0
 25 26  2  0  0  0  0
 26 27  1  0  0  0  0
M  END
>  <CHROM.1>
-45.40963872,-179.48469810,177.06942858,159.60157032,-92.92434276,53.09702539
-157.12973676,45.73415439,55.14602453,33.13101758,1.93034021,-0.40360368
-0.88975005

>  <Name>
ligand

>  <RI>
0

>  <Rbt.Current_Directory>
/home/itssahil/PROJECTS/Mol_Feturizer/New_Systems/rnas/3IQR

>  <Rbt.Executable>
rbdock ($Id: //depot/dev/client3/rdock/2013.1/src/exe/rbdock.cxx#4 $)

>  <Rbt.Library>
libRbt.so (2013.1, Build901 2013/11/27)

>  <Rbt.Parameter_File>
/export/apps/rDock/src/rDock_2013.1_src/data/scripts/dock_solv.prm

>  <Rbt.Receptor>
prm/pocket_docking_8.prm

>  <SCORE>
-19.4596

>  <SCORE.INTER>
-13.4881

>  <SCORE.INTER.CONST>
1

>  <SCORE.INTER.POLAR>
0

>  <SCORE.INTER.ROT>
7

>  <SCORE.INTER.SOLV>
10.136

>  <SCORE.INTER.VDW>
-20.6374

>  <SCORE.INTER.norm>
-0.499558

>  <SCORE.INTRA>
-5.98107

>  <SCORE.INTRA.DIHEDRAL>
-3.24571

>  <SCORE.INTRA.DIHEDRAL.0>
9.29433

>  <SCORE.INTRA.POLAR>
0

>  <SCORE.INTRA.POLAR.0>
0

>  <SCORE.INTRA.REPUL>
0

>  <SCORE.INTRA.REPUL.0>
0

>  <SCORE.INTRA.SOLV>
-0.529923

>  <SCORE.INTRA.SOLV.lig_0>
-48.5102

>  <SCORE.INTRA.VDW>
-4.09325

>  <SCORE.INTRA.VDW.0>
0.379549

>  <SCORE.INTRA.norm>
-0.221521

>  <SCORE.RESTR>
0.00948965

>  <SCORE.RESTR.CAVITY>
0.00948965

>  <SCORE.RESTR.norm>
0.000351469

>  <SCORE.SYSTEM>
0

>  <SCORE.SYSTEM.CONST>
0

>  <SCORE.SYSTEM.DIHEDRAL>
0

>  <SCORE.SYSTEM.SOLV>
0

>  <SCORE.SYSTEM.norm>
0

>  <SCORE.heavy>
27

>  <SCORE.norm>
-0.720727

>  <RMSD>
6.250

$$$$
ligand
 OpenBabel11021811483D
libRbt.so/2013.1/901 2013/11/27
 27 29  0  0  0  0  0  0  0  0999 V2000
   48.0505   53.7533   32.0784 N   0  0  0  0  0  0  0  0  0  0  0  0
   48.0569   54.5038   33.3333 C   0  0  2  0  0  0  0  0  0  0  0  0
   48.2400   53.5517   34.4797 C   0  0  0  0  0  0  0  0  0  0  0  0
   47.6820   52.4596   34.4642 O   0  0  0  0  0  0  0  0  0  0  0  0
   46.7361   55.2515   33.5110 C   0  0  0  0  0  0  0  0  0  0  0  0
   46.5923   56.2675   32.3925 C   0  0  0  0  0  0  0  0  0  0  0  0
   45.1037   57.3075   32.5307 S   0  0  2  0  0  0  0  0  0  0  0  0
   43.7665   56.2793   31.8546 C   0  0  0  0  0  0  0  0  0  0  0  0
   45.1395   58.3469   30.9488 C   0  0  0  0  0  0  0  0  0  0  0  0
   46.5280   58.8811   30.3984 C   0  0  2  0  0  0  0  0  0  0  0  0
   47.0490   58.3058   29.2216 O   0  0  0  0  0  0  0  0  0  0  0  0
   47.6588   59.1291   31.3145 C   0  0  1  0  0  0  0  0  0  0  0  0
   47.2519   59.2225   32.6802 O   0  0  0  0  0  0  0  0  0  0  0  0
   48.4927   57.8149   30.9367 C   0  0  2  0  0  0  0  0  0  0  0  0
   49.7825   57.8771   31.4672 O   0  0  0  0  0  0  0  0  0  0  0  0
   48.4835   57.9143   29.4125 C   0  0  1  0  0  0  0  0  0  0  0  0
   48.9797   53.8530   35.4076 O   0  0  0  0  0  0  0  0  0  0  0  0
   46.2177   53.4877   28.2283 N   0  0  0  0  0  0  0  0  0  0  0  0
   45.9362   54.3892   29.1728 C   0  0  0  0  0  0  0  0  0  0  0  0
   46.6498   55.5045   29.2954 N   0  0  0  0  0  0  0  0  0  0  0  0
   47.7438   55.7218   28.5484 C   0  0  0  0  0  0  0  0  0  0  0  0
   48.1162   54.7660   27.5681 C   0  0  0  0  0  0  0  0  0  0  0  0
   47.2914   53.6160   27.4241 C   0  0  0  0  0  0  0  0  0  0  0  0
   47.5769   52.6477   26.4830 N   0  0  0  0  0  0  0  0  0  0  0  0
   49.2344   55.2188   26.9742 N   0  0  0  0  0  0  0  0  0  0  0  0
   49.5777   56.3598   27.5095 C   0  0  0  0  0  0  0  0  0  0  0  0
   48.6891   56.7285   28.4803 N   0  0  0  0  0  0  0  0  0  0  0  0
  2  1  1  6  0  0  0
  2  3  1  0  0  0  0
  2  5  1  0  0  0  0
  3  4  1  0  0  0  0
  3 17  1  0  0  0  0
  5  6  1  0  0  0  0
  7  6  1  6  0  0  0
  7  8  1  0  0  0  0
  7  9  1  0  0  0  0
 10  9  1  1  0  0  0
 10 11  1  0  0  0  0
 10 12  1  0  0  0  0
 11 16  1  0  0  0  0
 12 13  1  1  0  0  0
 12 14  1  0  0  0  0
 14 15  1  1  0  0  0
 14 16  1  0  0  0  0
 16 27  1  6  0  0  0
 18 19  2  0  0  0  0
 18 23  1  0  0  0  0
 19 20  1  0  0  0  0
 20 21  2  0  0  0  0
 21 22  1  0  0  0  0
 21 27  1  0  0  0  0
 22 23  2  0  0  0  0
 22 25  1  0  0  0  0
 23 24  1  0  0  0  0
 25 26  2  0  0  0  0
 26 27  1  0  0  0  0
M  END
>  <CHROM.1>
-39.06220767,-63.08574990,-176.55281835,-81.17928827,-38.25791543,108.78841937
-48.75724240,47.31440025,55.98609910,30.78154142,-2.17817969,1.34115612,-1.02994929

>  <Name>
ligand

>  <RI>
0

>  <Rbt.Current_Directory>
/home/itssahil/PROJECTS/Mol_Feturizer/New_Systems/rnas/3IQR

>  <Rbt.Executable>
rbdock ($Id: //depot/dev/client3/rdock/2013.1/src/exe/rbdock.cxx#4 $)

>  <Rbt.Library>
libRbt.so (2013.1, Build901 2013/11/27)

>  <Rbt.Parameter_File>
/export/apps/rDock/src/rDock_2013.1_src/data/scripts/dock_solv.prm

>  <Rbt.Receptor>
prm/pocket_docking_3.prm

>  <SCORE>
-11.6863

>  <SCORE.INTER>
-9.13045

>  <SCORE.INTER.CONST>
1

>  <SCORE.INTER.POLAR>
0

>  <SCORE.INTER.ROT>
7

>  <SCORE.INTER.SOLV>
9.30591

>  <SCORE.INTER.VDW>
-17.4556

>  <SCORE.INTER.norm>
-0.338165

>  <SCORE.INTRA>
-2.67974

>  <SCORE.INTRA.DIHEDRAL>
0.906562

>  <SCORE.INTRA.DIHEDRAL.0>
9.29433

>  <SCORE.INTRA.POLAR>
0

>  <SCORE.INTRA.POLAR.0>
0

>  <SCORE.INTRA.REPUL>
0

>  <SCORE.INTRA.REPUL.0>
0

>  <SCORE.INTRA.SOLV>
0.457183

>  <SCORE.INTRA.SOLV.lig_0>
-48.5102

>  <SCORE.INTRA.VDW>
-3.36161

>  <SCORE.INTRA.VDW.0>
0.379549

>  <SCORE.INTRA.norm>
-0.0992496

>  <SCORE.RESTR>
0.123859

>  <SCORE.RESTR.CAVITY>
0.123859

>  <SCORE.RESTR.norm>
0.00458737

>  <SCORE.SYSTEM>
0

>  <SCORE.SYSTEM.CONST>
0

>  <SCORE.SYSTEM.DIHEDRAL>
0

>  <SCORE.SYSTEM.SOLV>
0

>  <SCORE.SYSTEM.norm>
0

>  <SCORE.heavy>
27

>  <SCORE.norm>
-0.432827

>  <RMSD>
6.254

$$$$
ligand
 OpenBabel11021811483D
libRbt.so/2013.1/901 2013/11/27
 27 29  0  0  0  0  0  0  0  0999 V2000
   47.5564   54.7178   34.8266 N   0  0  0  0  0  0  0  0  0  0  0  0
   46.4635   54.4830   33.8840 C   0  0  2  0  0  0  0  0  0  0  0  0
   46.1506   53.0152   33.8430 C   0  0  0  0  0  0  0  0  0  0  0  0
   46.9381   52.2072   34.3240 O   0  0  0  0  0  0  0  0  0  0  0  0
   46.8615   54.9483   32.4839 C   0  0  0  0  0  0  0  0  0  0  0  0
   46.7542   56.4611   32.4199 C   0  0  0  0  0  0  0  0  0  0  0  0
   45.0817   57.0635   32.0244 S   0  0  2  0  0  0  0  0  0  0  0  0
   44.8345   56.6080   30.2827 C   0  0  0  0  0  0  0  0  0  0  0  0
   45.3641   58.8713   31.5386 C   0  0  0  0  0  0  0  0  0  0  0  0
   46.6648   59.2645   30.7202 C   0  0  2  0  0  0  0  0  0  0  0  0
   47.0198   58.4768   29.6063 O   0  0  0  0  0  0  0  0  0  0  0  0
   47.9101   59.6425   31.4169 C   0  0  1  0  0  0  0  0  0  0  0  0
   47.6935   59.9867   32.7859 O   0  0  0  0  0  0  0  0  0  0  0  0
   48.6838   58.2617   31.1721 C   0  0  2  0  0  0  0  0  0  0  0  0
   50.0340   58.3845   31.5049 O   0  0  0  0  0  0  0  0  0  0  0  0
   48.4667   58.0894   29.6700 C   0  0  1  0  0  0  0  0  0  0  0  0
   45.0899   52.6330   33.3657 O   0  0  0  0  0  0  0  0  0  0  0  0
   47.2013   56.0610   25.1517 N   0  0  0  0  0  0  0  0  0  0  0  0
   46.9642   57.2714   25.6643 C   0  0  0  0  0  0  0  0  0  0  0  0
   47.4114   57.6087   26.8703 N   0  0  0  0  0  0  0  0  0  0  0  0
   48.0253   56.7172   27.6643 C   0  0  0  0  0  0  0  0  0  0  0  0
   48.2512   55.4008   27.1855 C   0  0  0  0  0  0  0  0  0  0  0  0
   47.8143   55.0968   25.8663 C   0  0  0  0  0  0  0  0  0  0  0  0
   48.0105   53.8439   25.3215 N   0  0  0  0  0  0  0  0  0  0  0  0
   48.8691   54.7200   28.1666 N   0  0  0  0  0  0  0  0  0  0  0  0
   49.0333   55.5023   29.1998 C   0  0  0  0  0  0  0  0  0  0  0  0
   48.5423   56.7524   28.9461 N   0  0  0  0  0  0  0  0  0  0  0  0
  2  1  1  1  0  0  0
  2  3  1  0  0  0  0
  2  5  1  0  0  0  0
  3  4  1  0  0  0  0
  3 17  1  0  0  0  0
  5  6  1  0  0  0  0
  7  6  1  6  0  0  0
  7  8  1  0  0  0  0
  7  9  1  0  0  0  0
 10  9  1  1  0  0  0
 10 11  1  0  0  0  0
 10 12  1  0  0  0  0
 11 16  1  0  0  0  0
 12 13  1  1  0  0  0
 12 14  1  0  0  0  0
 14 15  1  6  0  0  0
 14 16  1  0  0  0  0
 16 27  1  1  0  0  0
 18 19  2  0  0  0  0
 18 23  1  0  0  0  0
 19 20  1  0  0  0  0
 20 21  2  0  0  0  0
 21 22  1  0  0  0  0
 21 27  1  0  0  0  0
 22 23  2  0  0  0  0
 22 25  1  0  0  0  0
 23 24  1  0  0  0  0
 25 26  2  0  0  0  0
 26 27  1  0  0  0  0
M  END
>  <CHROM.1>
-14.40426193,-77.48049533,-85.35043362,-70.14952125,37.20138229,46.53592092
54.17860548,47.19659574,56.41219347,30.40245091,2.84918030,1.35570558,0.50412743

>  <Name>
ligand

>  <RI>
0

>  <Rbt.Current_Directory>
/home/itssahil/PROJECTS/Mol_Feturizer/New_Systems/rnas/3IQR

>  <Rbt.Executable>
rbdock ($Id: //depot/dev/client3/rdock/2013.1/src/exe/rbdock.cxx#4 $)

>  <Rbt.Library>
libRbt.so (2013.1, Build901 2013/11/27)

>  <Rbt.Parameter_File>
/export/apps/rDock/src/rDock_2013.1_src/data/scripts/dock_solv.prm

>  <Rbt.Receptor>
prm/pocket_docking_4.prm

>  <SCORE>
-18.4602

>  <SCORE.INTER>
-14.5721

>  <SCORE.INTER.CONST>
1

>  <SCORE.INTER.POLAR>
0

>  <SCORE.INTER.ROT>
7

>  <SCORE.INTER.SOLV>
12.1105

>  <SCORE.INTER.VDW>
-22.0183

>  <SCORE.INTER.norm>
-0.539709

>  <SCORE.INTRA>
-3.88804

>  <SCORE.INTRA.DIHEDRAL>
-0.930844

>  <SCORE.INTRA.DIHEDRAL.0>
9.29433

>  <SCORE.INTRA.POLAR>
0

>  <SCORE.INTRA.POLAR.0>
0

>  <SCORE.INTRA.REPUL>
0

>  <SCORE.INTRA.REPUL.0>
0

>  <SCORE.INTRA.SOLV>
-0.436718

>  <SCORE.INTRA.SOLV.lig_0>
-48.5102

>  <SCORE.INTRA.VDW>
-3.20426

>  <SCORE.INTRA.VDW.0>
0.379549

>  <SCORE.INTRA.norm>
-0.144001

>  <SCORE.RESTR>
0

>  <SCORE.RESTR.CAVITY>
0

>  <SCORE.RESTR.norm>
0

>  <SCORE.SYSTEM>
0

>  <SCORE.SYSTEM.CONST>
0

>  <SCORE.SYSTEM.DIHEDRAL>
0

>  <SCORE.SYSTEM.SOLV>
0

>  <SCORE.SYSTEM.norm>
0

>  <SCORE.heavy>
27

>  <SCORE.norm>
-0.68371

>  <RMSD>
6.292

$$$$
ligand
 OpenBabel11021811483D
libRbt.so/2013.1/901 2013/11/27
 27 29  0  0  0  0  0  0  0  0999 V2000
   44.4999   54.5484   34.5055 N   0  0  0  0  0  0  0  0  0  0  0  0
   44.6901   54.5317   33.0558 C   0  0  2  0  0  0  0  0  0  0  0  0
   44.6370   53.1139   32.5649 C   0  0  0  0  0  0  0  0  0  0  0  0
   44.0985   52.2489   33.2477 O   0  0  0  0  0  0  0  0  0  0  0  0
   46.0456   55.1361   32.6916 C   0  0  0  0  0  0  0  0  0  0  0  0
   45.9805   56.6403   32.8840 C   0  0  0  0  0  0  0  0  0  0  0  0
   44.7138   57.4581   31.8627 S   0  0  2  0  0  0  0  0  0  0  0  0
   45.1917   57.0742   30.1520 C   0  0  0  0  0  0  0  0  0  0  0  0
   45.3666   59.2253   31.6760 C   0  0  0  0  0  0  0  0  0  0  0  0
   46.8309   59.4599   31.1130 C   0  0  2  0  0  0  0  0  0  0  0  0
   47.0768   59.1911   29.7512 O   0  0  0  0  0  0  0  0  0  0  0  0
   48.0140   59.0185   31.8777 C   0  0  1  0  0  0  0  0  0  0  0  0
   47.7183   58.7598   33.2507 O   0  0  0  0  0  0  0  0  0  0  0  0
   48.3335   57.7240   30.9903 C   0  0  2  0  0  0  0  0  0  0  0  0
   49.5872   57.2004   31.3113 O   0  0  0  0  0  0  0  0  0  0  0  0
   48.2980   58.3362   29.5913 C   0  0  1  0  0  0  0  0  0  0  0  0
   45.0956   52.8341   31.4647 O   0  0  0  0  0  0  0  0  0  0  0  0
   50.0582   54.1502   27.2439 N   0  0  0  0  0  0  0  0  0  0  0  0
   50.4759   54.7747   28.3482 C   0  0  0  0  0  0  0  0  0  0  0  0
   49.8494   55.8535   28.8086 N   0  0  0  0  0  0  0  0  0  0  0  0
   48.8407   56.4212   28.1287 C   0  0  0  0  0  0  0  0  0  0  0  0
   48.3964   55.8259   26.9198 C   0  0  0  0  0  0  0  0  0  0  0  0
   49.0505   54.6369   26.4931 C   0  0  0  0  0  0  0  0  0  0  0  0
   48.6674   53.9887   25.3364 N   0  0  0  0  0  0  0  0  0  0  0  0
   47.3938   56.5861   26.4458 N   0  0  0  0  0  0  0  0  0  0  0  0
   47.1933   57.5923   27.2543 C   0  0  0  0  0  0  0  0  0  0  0  0
   48.0492   57.5389   28.3187 N   0  0  0  0  0  0  0  0  0  0  0  0
  2  1  1  1  0  0  0
  2  3  1  0  0  0  0
  2  5  1  0  0  0  0
  3  4  1  0  0  0  0
  3 17  1  0  0  0  0
  5  6  1  0  0  0  0
  7  6  1  1  0  0  0
  7  8  1  0  0  0  0
  7  9  1  0  0  0  0
 10  9  1  1  0  0  0
 10 11  1  0  0  0  0
 10 12  1  0  0  0  0
 11 16  1  0  0  0  0
 12 13  1  1  0  0  0
 12 14  1  0  0  0  0
 14 15  1  1  0  0  0
 14 16  1  0  0  0  0
 16 27  1  6  0  0  0
 18 19  2  0  0  0  0
 18 23  1  0  0  0  0
 19 20  1  0  0  0  0
 20 21  2  0  0  0  0
 21 22  1  0  0  0  0
 21 27  1  0  0  0  0
 22 23  2  0  0  0  0
 22 25  1  0  0  0  0
 23 24  1  0  0  0  0
 25 26  2  0  0  0  0
 26 27  1  0  0  0  0
M  END
>  <CHROM.1>
20.48031277,-73.30367468,-59.72443032,-60.14347988,54.47509464,70.44814616
-163.07017093,47.03027718,56.34959060,30.35857173,2.91151360,0.94202878,0.35356056

>  <Name>
ligand

>  <RI>
0

>  <Rbt.Current_Directory>
/home/itssahil/PROJECTS/Mol_Feturizer/New_Systems/rnas/3IQR

>  <Rbt.Executable>
rbdock ($Id: //depot/dev/client3/rdock/2013.1/src/exe/rbdock.cxx#4 $)

>  <Rbt.Library>
libRbt.so (2013.1, Build901 2013/11/27)

>  <Rbt.Parameter_File>
/export/apps/rDock/src/rDock_2013.1_src/data/scripts/dock_solv.prm

>  <Rbt.Receptor>
prm/pocket_docking_8.prm

>  <SCORE>
-17.34

>  <SCORE.INTER>
-14.1062

>  <SCORE.INTER.CONST>
1

>  <SCORE.INTER.POLAR>
0

>  <SCORE.INTER.ROT>
7

>  <SCORE.INTER.SOLV>
12.4049

>  <SCORE.INTER.VDW>
-21.8057

>  <SCORE.INTER.norm>
-0.52245

>  <SCORE.INTRA>
-3.23381

>  <SCORE.INTRA.DIHEDRAL>
-3.92421

>  <SCORE.INTRA.DIHEDRAL.0>
9.29433

>  <SCORE.INTRA.POLAR>
0

>  <SCORE.INTRA.POLAR.0>
0

>  <SCORE.INTRA.REPUL>
0

>  <SCORE.INTRA.REPUL.0>
0

>  <SCORE.INTRA.SOLV>
0.405284

>  <SCORE.INTRA.SOLV.lig_0>
-48.5102

>  <SCORE.INTRA.VDW>
-1.47435

>  <SCORE.INTRA.VDW.0>
0.379549

>  <SCORE.INTRA.norm>
-0.119771

>  <SCORE.RESTR>
0

>  <SCORE.RESTR.CAVITY>
0

>  <SCORE.RESTR.norm>
0

>  <SCORE.SYSTEM>
0

>  <SCORE.SYSTEM.CONST>
0

>  <SCORE.SYSTEM.DIHEDRAL>
0

>  <SCORE.SYSTEM.SOLV>
0

>  <SCORE.SYSTEM.norm>
0

>  <SCORE.heavy>
27

>  <SCORE.norm>
-0.642221

>  <RMSD>
6.323

$$$$
ligand
 OpenBabel11021811483D
libRbt.so/2013.1/901 2013/11/27
 27 29  0  0  0  0  0  0  0  0999 V2000
   46.1595   54.5470   32.6544 N   0  0  0  0  0  0  0  0  0  0  0  0
   45.0187   55.2307   33.2617 C   0  0  2  0  0  0  0  0  0  0  0  0
   43.8562   54.2836   33.3384 C   0  0  0  0  0  0  0  0  0  0  0  0
   43.4408   53.7398   32.3206 O   0  0  0  0  0  0  0  0  0  0  0  0
   44.6197   56.4443   32.4231 C   0  0  0  0  0  0  0  0  0  0  0  0
   45.7222   57.4841   32.5081 C   0  0  0  0  0  0  0  0  0  0  0  0
   45.3532   59.0225   31.6058 S   0  0  2  0  0  0  0  0  0  0  0  0
   45.7060   58.6257   29.8679 C   0  0  0  0  0  0  0  0  0  0  0  0
   46.9633   60.0099   31.7343 C   0  0  0  0  0  0  0  0  0  0  0  0
   48.3462   59.2865   31.4503 C   0  0  2  0  0  0  0  0  0  0  0  0
   48.6144   58.8436   30.1391 O   0  0  0  0  0  0  0  0  0  0  0  0
   48.8728   58.2706   32.3829 C   0  0  1  0  0  0  0  0  0  0  0  0
   48.2475   58.3227   33.6658 O   0  0  0  0  0  0  0  0  0  0  0  0
   48.5013   56.9929   31.4914 C   0  0  2  0  0  0  0  0  0  0  0  0
   49.1112   55.8428   31.9956 O   0  0  0  0  0  0  0  0  0  0  0  0
   49.0841   57.4199   30.1457 C   0  0  1  0  0  0  0  0  0  0  0  0
   43.3532   54.0256   34.4245 O   0  0  0  0  0  0  0  0  0  0  0  0
   50.6246   53.9990   26.6736 N   0  0  0  0  0  0  0  0  0  0  0  0
   51.2174   54.4460   27.7840 C   0  0  0  0  0  0  0  0  0  0  0  0
   50.6213   55.3348   28.5734 N   0  0  0  0  0  0  0  0  0  0  0  0
   49.4507   55.8981   28.2351 C   0  0  0  0  0  0  0  0  0  0  0  0
   48.8077   55.4965   27.0357 C   0  0  0  0  0  0  0  0  0  0  0  0
   49.4463   54.4972   26.2500 C   0  0  0  0  0  0  0  0  0  0  0  0
   48.8780   54.0413   25.0778 N   0  0  0  0  0  0  0  0  0  0  0  0
   47.6719   56.2088   26.9342 N   0  0  0  0  0  0  0  0  0  0  0  0
   47.5702   57.0108   27.9603 C   0  0  0  0  0  0  0  0  0  0  0  0
   48.6336   56.8569   28.8050 N   0  0  0  0  0  0  0  0  0  0  0  0
  2  1  1  6  0  0  0
  2  3  1  0  0  0  0
  2  5  1  0  0  0  0
  3  4  1  0  0  0  0
  3 17  1  0  0  0  0
  5  6  1  0  0  0  0
  7  6  1  1  0  0  0
  7  8  1  0  0  0  0
  7  9  1  0  0  0  0
 10  9  1  6  0  0  0
 10 11  1  0  0  0  0
 10 12  1  0  0  0  0
 11 16  1  0  0  0  0
 12 13  1  1  0  0  0
 12 14  1  0  0  0  0
 14 15  1  1  0  0  0
 14 16  1  0  0  0  0
 16 27  1  6  0  0  0
 18 19  2  0  0  0  0
 18 23  1  0  0  0  0
 19 20  1  0  0  0  0
 20 21  2  0  0  0  0
 21 22  1  0  0  0  0
 21 27  1  0  0  0  0
 22 23  2  0  0  0  0
 22 25  1  0  0  0  0
 23 24  1  0  0  0  0
 25 26  2  0  0  0  0
 26 27  1  0  0  0  0
M  END
>  <CHROM.1>
-56.38190315,-67.78717884,-177.67608164,-79.38559107,45.97053947,67.03628379
147.26329594,47.38829227,56.52037546,30.47778589,2.60027308,0.77140335,0.51625721

>  <Name>
ligand

>  <RI>
0

>  <Rbt.Current_Directory>
/home/itssahil/PROJECTS/Mol_Feturizer/New_Systems/rnas/3IQR

>  <Rbt.Executable>
rbdock ($Id: //depot/dev/client3/rdock/2013.1/src/exe/rbdock.cxx#4 $)

>  <Rbt.Library>
libRbt.so (2013.1, Build901 2013/11/27)

>  <Rbt.Parameter_File>
/export/apps/rDock/src/rDock_2013.1_src/data/scripts/dock_solv.prm

>  <Rbt.Receptor>
prm/pocket_docking_6.prm

>  <SCORE>
-22.7356

>  <SCORE.INTER>
-18.2833

>  <SCORE.INTER.CONST>
1

>  <SCORE.INTER.POLAR>
0

>  <SCORE.INTER.ROT>
7

>  <SCORE.INTER.SOLV>
8.83763

>  <SCORE.INTER.VDW>
-23.4014

>  <SCORE.INTER.norm>
-0.677158

>  <SCORE.INTRA>
-4.45234

>  <SCORE.INTRA.DIHEDRAL>
-4.71225

>  <SCORE.INTRA.DIHEDRAL.0>
9.29433

>  <SCORE.INTRA.POLAR>
0

>  <SCORE.INTRA.POLAR.0>
0

>  <SCORE.INTRA.REPUL>
0

>  <SCORE.INTRA.REPUL.0>
0

>  <SCORE.INTRA.SOLV>
1.15742

>  <SCORE.INTRA.SOLV.lig_0>
-48.5102

>  <SCORE.INTRA.VDW>
-2.67492

>  <SCORE.INTRA.VDW.0>
0.379549

>  <SCORE.INTRA.norm>
-0.164901

>  <SCORE.RESTR>
0

>  <SCORE.RESTR.CAVITY>
0

>  <SCORE.RESTR.norm>
0

>  <SCORE.SYSTEM>
0

>  <SCORE.SYSTEM.CONST>
0

>  <SCORE.SYSTEM.DIHEDRAL>
0

>  <SCORE.SYSTEM.SOLV>
0

>  <SCORE.SYSTEM.norm>
0

>  <SCORE.heavy>
27

>  <SCORE.norm>
-0.84206

>  <RMSD>
6.393

$$$$
ligand
 OpenBabel11021811483D
libRbt.so/2013.1/901 2013/11/27
 27 29  0  0  0  0  0  0  0  0999 V2000
   48.8623   55.2527   33.0749 N   0  0  0  0  0  0  0  0  0  0  0  0
   47.8500   55.4109   34.1180 C   0  0  2  0  0  0  0  0  0  0  0  0
   47.7762   54.1519   34.9327 C   0  0  0  0  0  0  0  0  0  0  0  0
   47.8477   53.0594   34.3798 O   0  0  0  0  0  0  0  0  0  0  0  0
   46.4822   55.6824   33.4931 C   0  0  0  0  0  0  0  0  0  0  0  0
   46.4917   57.0676   32.8725 C   0  0  0  0  0  0  0  0  0  0  0  0
   44.9469   57.4972   32.0091 S   0  0  2  0  0  0  0  0  0  0  0  0
   45.1228   56.7479   30.3629 C   0  0  0  0  0  0  0  0  0  0  0  0
   45.3003   59.2141   31.2940 C   0  0  0  0  0  0  0  0  0  0  0  0
   46.6863   59.4878   30.5727 C   0  0  2  0  0  0  0  0  0  0  0  0
   47.0597   58.6541   29.4990 O   0  0  0  0  0  0  0  0  0  0  0  0
   47.9021   59.7788   31.3580 C   0  0  1  0  0  0  0  0  0  0  0  0
   47.6114   60.1641   32.7020 O   0  0  0  0  0  0  0  0  0  0  0  0
   48.5784   58.3367   31.1901 C   0  0  2  0  0  0  0  0  0  0  0  0
   49.9052   58.3583   31.6237 O   0  0  0  0  0  0  0  0  0  0  0  0
   48.4619   58.1546   29.6780 C   0  0  1  0  0  0  0  0  0  0  0  0
   47.6863   54.2212   36.1517 O   0  0  0  0  0  0  0  0  0  0  0  0
   47.1564   56.1055   25.1805 N   0  0  0  0  0  0  0  0  0  0  0  0
   46.9696   57.3346   25.6689 C   0  0  0  0  0  0  0  0  0  0  0  0
   47.4180   57.6726   26.8743 N   0  0  0  0  0  0  0  0  0  0  0  0
   47.9808   56.7683   27.6912 C   0  0  0  0  0  0  0  0  0  0  0  0
   48.1512   55.4344   27.2383 C   0  0  0  0  0  0  0  0  0  0  0  0
   47.7160   55.1272   25.9193 C   0  0  0  0  0  0  0  0  0  0  0  0
   47.8604   53.8570   25.3989 N   0  0  0  0  0  0  0  0  0  0  0  0
   48.7256   54.7438   28.2387 N   0  0  0  0  0  0  0  0  0  0  0  0
   48.9138   55.5361   29.2600 C   0  0  0  0  0  0  0  0  0  0  0  0
   48.4841   56.8027   28.9786 N   0  0  0  0  0  0  0  0  0  0  0  0
  2  1  1  6  0  0  0
  2  3  1  0  0  0  0
  2  5  1  0  0  0  0
  3  4  1  0  0  0  0
  3 17  1  0  0  0  0
  5  6  1  0  0  0  0
  7  6  1  1  0  0  0
  7  8  1  0  0  0  0
  7  9  1  0  0  0  0
 10  9  1  1  0  0  0
 10 11  1  0  0  0  0
 10 12  1  0  0  0  0
 11 16  1  0  0  0  0
 12 13  1  1  0  0  0
 12 14  1  0  0  0  0
 14 15  1  6  0  0  0
 14 16  1  0  0  0  0
 16 27  1  1  0  0  0
 18 19  2  0  0  0  0
 18 23  1  0  0  0  0
 19 20  1  0  0  0  0
 20 21  2  0  0  0  0
 21 22  1  0  0  0  0
 21 27  1  0  0  0  0
 22 23  2  0  0  0  0
 22 25  1  0  0  0  0
 23 24  1  0  0  0  0
 25 26  2  0  0  0  0
 26 27  1  0  0  0  0
M  END
>  <CHROM.1>
-40.32831393,-69.57845271,176.95923724,-83.10396898,44.85025986,55.58908902
50.02184720,47.42288375,56.74248425,30.54776259,-1.75094642,1.31824622,-1.33674219

>  <Name>
ligand

>  <RI>
0

>  <Rbt.Current_Directory>
/home/itssahil/PROJECTS/Mol_Feturizer/New_Systems/rnas/3IQR

>  <Rbt.Executable>
rbdock ($Id: //depot/dev/client3/rdock/2013.1/src/exe/rbdock.cxx#4 $)

>  <Rbt.Library>
libRbt.so (2013.1, Build901 2013/11/27)

>  <Rbt.Parameter_File>
/export/apps/rDock/src/rDock_2013.1_src/data/scripts/dock_solv.prm

>  <Rbt.Receptor>
prm/pocket_docking_4.prm

>  <SCORE>
-23.2593

>  <SCORE.INTER>
-18.3049

>  <SCORE.INTER.CONST>
1

>  <SCORE.INTER.POLAR>
0

>  <SCORE.INTER.ROT>
7

>  <SCORE.INTER.SOLV>
12.281

>  <SCORE.INTER.VDW>
-24.5636

>  <SCORE.INTER.norm>
-0.677958

>  <SCORE.INTRA>
-4.9544

>  <SCORE.INTRA.DIHEDRAL>
-4.42198

>  <SCORE.INTRA.DIHEDRAL.0>
9.29433

>  <SCORE.INTRA.POLAR>
0

>  <SCORE.INTRA.POLAR.0>
0

>  <SCORE.INTRA.REPUL>
0

>  <SCORE.INTRA.REPUL.0>
0

>  <SCORE.INTRA.SOLV>
0.962987

>  <SCORE.INTRA.SOLV.lig_0>
-48.5102

>  <SCORE.INTRA.VDW>
-3.2249

>  <SCORE.INTRA.VDW.0>
0.379549

>  <SCORE.INTRA.norm>
-0.183496

>  <SCORE.RESTR>
0

>  <SCORE.RESTR.CAVITY>
0

>  <SCORE.RESTR.norm>
0

>  <SCORE.SYSTEM>
0

>  <SCORE.SYSTEM.CONST>
0

>  <SCORE.SYSTEM.DIHEDRAL>
0

>  <SCORE.SYSTEM.SOLV>
0

>  <SCORE.SYSTEM.norm>
0

>  <SCORE.heavy>
27

>  <SCORE.norm>
-0.861454

>  <RMSD>
6.410

$$$$
ligand
 OpenBabel11021811483D
libRbt.so/2013.1/901 2013/11/27
 27 29  0  0  0  0  0  0  0  0999 V2000
   49.1056   56.4334   33.8909 N   0  0  0  0  0  0  0  0  0  0  0  0
   48.0280   55.4959   34.2032 C   0  0  2  0  0  0  0  0  0  0  0  0
   48.5234   54.4832   35.1947 C   0  0  0  0  0  0  0  0  0  0  0  0
   49.5770   53.8896   34.9897 O   0  0  0  0  0  0  0  0  0  0  0  0
   47.5702   54.7729   32.9371 C   0  0  0  0  0  0  0  0  0  0  0  0
   46.8130   55.7522   32.0587 C   0  0  0  0  0  0  0  0  0  0  0  0
   45.3482   56.4787   32.8608 S   0  0  2  0  0  0  0  0  0  0  0  0
   44.0981   55.1611   32.8033 C   0  0  0  0  0  0  0  0  0  0  0  0
   44.4809   57.3989   31.4519 C   0  0  0  0  0  0  0  0  0  0  0  0
   45.3460   58.2342   30.4175 C   0  0  2  0  0  0  0  0  0  0  0  0
   46.2403   57.5405   29.5770 O   0  0  0  0  0  0  0  0  0  0  0  0
   45.9984   59.4950   30.8227 C   0  0  1  0  0  0  0  0  0  0  0  0
   45.4556   60.0340   32.0286 O   0  0  0  0  0  0  0  0  0  0  0  0
   47.4818   58.9033   30.9439 C   0  0  2  0  0  0  0  0  0  0  0  0
   48.4163   59.9321   31.0750 O   0  0  0  0  0  0  0  0  0  0  0  0
   47.5970   58.1780   29.6046 C   0  0  1  0  0  0  0  0  0  0  0  0
   47.8939   54.2835   36.2257 O   0  0  0  0  0  0  0  0  0  0  0  0
   49.0765   55.1956   25.7255 N   0  0  0  0  0  0  0  0  0  0  0  0
   48.1097   56.1139   25.8034 C   0  0  0  0  0  0  0  0  0  0  0  0
   47.9053   56.8063   26.9201 N   0  0  0  0  0  0  0  0  0  0  0  0
   48.5880   56.5393   28.0447 C   0  0  0  0  0  0  0  0  0  0  0  0
   49.5884   55.5333   28.0273 C   0  0  0  0  0  0  0  0  0  0  0  0
   49.8210   54.8583   26.7969 C   0  0  0  0  0  0  0  0  0  0  0  0
   50.7871   53.8780   26.6935 N   0  0  0  0  0  0  0  0  0  0  0  0
   50.1072   55.4653   29.2659 N   0  0  0  0  0  0  0  0  0  0  0  0
   49.5081   56.3347   30.0350 C   0  0  0  0  0  0  0  0  0  0  0  0
   48.5672   57.0365   29.3347 N   0  0  0  0  0  0  0  0  0  0  0  0
  2  1  1  6  0  0  0
  2  3  1  0  0  0  0
  2  5  1  0  0  0  0
  3  4  1  0  0  0  0
  3 17  1  0  0  0  0
  5  6  1  0  0  0  0
  7  6  1  6  0  0  0
  7  8  1  0  0  0  0
  7  9  1  0  0  0  0
 10  9  1  1  0  0  0
 10 11  1  0  0  0  0
 10 12  1  0  0  0  0
 11 16  1  0  0  0  0
 12 13  1  1  0  0  0
 12 14  1  0  0  0  0
 14 15  1  6  0  0  0
 14 16  1  0  0  0  0
 16 27  1  1  0  0  0
 18 19  2  0  0  0  0
 18 23  1  0  0  0  0
 19 20  1  0  0  0  0
 20 21  2  0  0  0  0
 21 22  1  0  0  0  0
 21 27  1  0  0  0  0
 22 23  2  0  0  0  0
 22 25  1  0  0  0  0
 23 24  1  0  0  0  0
 25 26  2  0  0  0  0
 26 27  1  0  0  0  0
M  END
>  <CHROM.1>
-50.19187815,-71.47000719,-59.18737617,-76.47074592,-41.80504577,65.32308978
71.86032748,47.62301781,56.47249642,30.86322027,-1.98725696,0.79231439,-1.24216011

>  <Name>
ligand

>  <RI>
0

>  <Rbt.Current_Directory>
/home/itssahil/PROJECTS/Mol_Feturizer/New_Systems/rnas/3IQR

>  <Rbt.Executable>
rbdock ($Id: //depot/dev/client3/rdock/2013.1/src/exe/rbdock.cxx#4 $)

>  <Rbt.Library>
libRbt.so (2013.1, Build901 2013/11/27)

>  <Rbt.Parameter_File>
/export/apps/rDock/src/rDock_2013.1_src/data/scripts/dock_solv.prm

>  <Rbt.Receptor>
prm/pocket_docking_6.prm

>  <SCORE>
-20.683

>  <SCORE.INTER>
-14.7257

>  <SCORE.INTER.CONST>
1

>  <SCORE.INTER.POLAR>
0

>  <SCORE.INTER.ROT>
7

>  <SCORE.INTER.SOLV>
14.7755

>  <SCORE.INTER.VDW>
-23.0089

>  <SCORE.INTER.norm>
-0.545396

>  <SCORE.INTRA>
-5.96109

>  <SCORE.INTRA.DIHEDRAL>
-2.8919

>  <SCORE.INTRA.DIHEDRAL.0>
9.29433

>  <SCORE.INTRA.POLAR>
0

>  <SCORE.INTRA.POLAR.0>
0

>  <SCORE.INTRA.REPUL>
0

>  <SCORE.INTRA.REPUL.0>
0

>  <SCORE.INTRA.SOLV>
0.0676172

>  <SCORE.INTRA.SOLV.lig_0>
-48.5102

>  <SCORE.INTRA.VDW>
-4.54895

>  <SCORE.INTRA.VDW.0>
0.379549

>  <SCORE.INTRA.norm>
-0.220781

>  <SCORE.RESTR>
0.00374086

>  <SCORE.RESTR.CAVITY>
0.00374086

>  <SCORE.RESTR.norm>
0.000138551

>  <SCORE.SYSTEM>
0

>  <SCORE.SYSTEM.CONST>
0

>  <SCORE.SYSTEM.DIHEDRAL>
0

>  <SCORE.SYSTEM.SOLV>
0

>  <SCORE.SYSTEM.norm>
0

>  <SCORE.heavy>
27

>  <SCORE.norm>
-0.766038

>  <RMSD>
6.492

$$$$
ligand
 OpenBabel11021811483D
libRbt.so/2013.1/901 2013/11/27
 27 29  0  0  0  0  0  0  0  0999 V2000
   47.6456   54.2952   33.6256 N   0  0  0  0  0  0  0  0  0  0  0  0
   46.3176   54.5270   34.1916 C   0  0  2  0  0  0  0  0  0  0  0  0
   45.7582   53.2270   34.6927 C   0  0  0  0  0  0  0  0  0  0  0  0
   44.5855   53.1601   35.0460 O   0  0  0  0  0  0  0  0  0  0  0  0
   45.3799   55.0975   33.1283 C   0  0  0  0  0  0  0  0  0  0  0  0
   45.8028   56.5207   32.8128 C   0  0  0  0  0  0  0  0  0  0  0  0
   44.6324   57.4154   31.7421 S   0  0  2  0  0  0  0  0  0  0  0  0
   45.2020   57.0637   30.0527 C   0  0  0  0  0  0  0  0  0  0  0  0
   45.3587   59.1613   31.6515 C   0  0  0  0  0  0  0  0  0  0  0  0
   46.8542   59.3589   31.1606 C   0  0  2  0  0  0  0  0  0  0  0  0
   47.1475   59.1402   29.7993 O   0  0  0  0  0  0  0  0  0  0  0  0
   47.9846   58.8351   31.9524 C   0  0  1  0  0  0  0  0  0  0  0  0
   47.6199   58.5288   33.2988 O   0  0  0  0  0  0  0  0  0  0  0  0
   48.2900   57.5686   31.0207 C   0  0  2  0  0  0  0  0  0  0  0  0
   49.5068   56.9794   31.3689 O   0  0  0  0  0  0  0  0  0  0  0  0
   48.3393   58.2427   29.6509 C   0  0  1  0  0  0  0  0  0  0  0  0
   46.4646   52.2271   34.7080 O   0  0  0  0  0  0  0  0  0  0  0  0
   50.1116   54.1583   27.1396 N   0  0  0  0  0  0  0  0  0  0  0  0
   50.5083   54.7215   28.2840 C   0  0  0  0  0  0  0  0  0  0  0  0
   49.8824   55.7835   28.7826 N   0  0  0  0  0  0  0  0  0  0  0  0
   48.8974   56.3970   28.1075 C   0  0  0  0  0  0  0  0  0  0  0  0
   48.4772   55.8685   26.8596 C   0  0  0  0  0  0  0  0  0  0  0  0
   49.1286   54.6944   26.3897 C   0  0  0  0  0  0  0  0  0  0  0  0
   48.7677   54.1097   25.1927 N   0  0  0  0  0  0  0  0  0  0  0  0
   47.4954   56.6638   26.3999 N   0  0  0  0  0  0  0  0  0  0  0  0
   47.2857   57.6306   27.2529 C   0  0  0  0  0  0  0  0  0  0  0  0
   48.1138   57.5134   28.3340 N   0  0  0  0  0  0  0  0  0  0  0  0
  2  1  1  6  0  0  0
  2  3  1  0  0  0  0
  2  5  1  0  0  0  0
  3  4  1  0  0  0  0
  3 17  1  0  0  0  0
  5  6  1  0  0  0  0
  7  6  1  1  0  0  0
  7  8  1  0  0  0  0
  7  9  1  0  0  0  0
 10  9  1  1  0  0  0
 10 11  1  0  0  0  0
 10 12  1  0  0  0  0
 11 16  1  0  0  0  0
 12 13  1  1  0  0  0
 12 14  1  0  0  0  0
 14 15  1  1  0  0  0
 14 16  1  0  0  0  0
 16 27  1  6  0  0  0
 18 19  2  0  0  0  0
 18 23  1  0  0  0  0
 19 20  1  0  0  0  0
 20 21  2  0  0  0  0
 21 22  1  0  0  0  0
 21 27  1  0  0  0  0
 22 23  2  0  0  0  0
 22 25  1  0  0  0  0
 23 24  1  0  0  0  0
 25 26  2  0  0  0  0
 26 27  1  0  0  0  0
M  END
>  <CHROM.1>
-170.40829246,-70.42484803,-171.50462536,-89.87978883,55.62291406,70.89272284
-165.04000460,47.28954561,56.31187014,30.63024978,-2.60569389,1.06465298
-0.45153212

>  <Name>
ligand

>  <RI>
0

>  <Rbt.Current_Directory>
/home/itssahil/PROJECTS/Mol_Feturizer/New_Systems/rnas/3IQR

>  <Rbt.Executable>
rbdock ($Id: //depot/dev/client3/rdock/2013.1/src/exe/rbdock.cxx#4 $)

>  <Rbt.Library>
libRbt.so (2013.1, Build901 2013/11/27)

>  <Rbt.Parameter_File>
/export/apps/rDock/src/rDock_2013.1_src/data/scripts/dock_solv.prm

>  <Rbt.Receptor>
prm/pocket_docking_5.prm

>  <SCORE>
-20.1889

>  <SCORE.INTER>
-16.9938

>  <SCORE.INTER.CONST>
1

>  <SCORE.INTER.POLAR>
0

>  <SCORE.INTER.ROT>
7

>  <SCORE.INTER.SOLV>
8.44406

>  <SCORE.INTER.VDW>
-22.4106

>  <SCORE.INTER.norm>
-0.629401

>  <SCORE.INTRA>
-3.19506

>  <SCORE.INTRA.DIHEDRAL>
-3.46034

>  <SCORE.INTRA.DIHEDRAL.0>
9.29433

>  <SCORE.INTRA.POLAR>
0

>  <SCORE.INTRA.POLAR.0>
0

>  <SCORE.INTRA.REPUL>
0

>  <SCORE.INTRA.REPUL.0>
0

>  <SCORE.INTRA.SOLV>
0.424684

>  <SCORE.INTRA.SOLV.lig_0>
-48.5102

>  <SCORE.INTRA.VDW>
-1.67723

>  <SCORE.INTRA.VDW.0>
0.379549

>  <SCORE.INTRA.norm>
-0.118335

>  <SCORE.RESTR>
0

>  <SCORE.RESTR.CAVITY>
0

>  <SCORE.RESTR.norm>
0

>  <SCORE.SYSTEM>
0

>  <SCORE.SYSTEM.CONST>
0

>  <SCORE.SYSTEM.DIHEDRAL>
0

>  <SCORE.SYSTEM.SOLV>
0

>  <SCORE.SYSTEM.norm>
0

>  <SCORE.heavy>
27

>  <SCORE.norm>
-0.747737

>  <RMSD>
6.534

$$$$
ligand
 OpenBabel11021811483D
libRbt.so/2013.1/901 2013/11/27
 27 29  0  0  0  0  0  0  0  0999 V2000
   49.2425   52.6326   22.2137 N   0  0  0  0  0  0  0  0  0  0  0  0
   48.7496   53.9139   21.7105 C   0  0  2  0  0  0  0  0  0  0  0  0
   49.5550   54.3180   20.5096 C   0  0  0  0  0  0  0  0  0  0  0  0
   50.7274   53.9709   20.4130 O   0  0  0  0  0  0  0  0  0  0  0  0
   48.8806   54.9919   22.7856 C   0  0  0  0  0  0  0  0  0  0  0  0
   47.8374   54.7436   23.8600 C   0  0  0  0  0  0  0  0  0  0  0  0
   47.9953   55.8400   25.3055 S   0  0  2  0  0  0  0  0  0  0  0  0
   49.1945   55.0015   26.3831 C   0  0  0  0  0  0  0  0  0  0  0  0
   46.5699   55.3017   26.4291 C   0  0  0  0  0  0  0  0  0  0  0  0
   46.5150   55.8275   27.9247 C   0  0  2  0  0  0  0  0  0  0  0  0
   45.4809   55.3614   28.7618 O   0  0  0  0  0  0  0  0  0  0  0  0
   46.7312   57.2551   28.2320 C   0  0  1  0  0  0  0  0  0  0  0  0
   47.3558   57.9617   27.1596 O   0  0  0  0  0  0  0  0  0  0  0  0
   45.1937   57.6221   28.4903 C   0  0  2  0  0  0  0  0  0  0  0  0
   45.0766   58.8889   29.0652 O   0  0  0  0  0  0  0  0  0  0  0  0
   44.8048   56.5049   29.4566 C   0  0  1  0  0  0  0  0  0  0  0  0
   49.0257   54.9586   19.6104 O   0  0  0  0  0  0  0  0  0  0  0  0
   42.0364   54.1198   33.0313 N   0  0  0  0  0  0  0  0  0  0  0  0
   43.3458   54.3751   32.9649 C   0  0  0  0  0  0  0  0  0  0  0  0
   43.8665   55.0431   31.9397 N   0  0  0  0  0  0  0  0  0  0  0  0
   43.1197   55.3949   30.8811 C   0  0  0  0  0  0  0  0  0  0  0  0
   41.7326   55.0963   30.8799 C   0  0  0  0  0  0  0  0  0  0  0  0
   41.2008   54.4368   32.0226 C   0  0  0  0  0  0  0  0  0  0  0  0
   39.8588   54.1252   32.1054 N   0  0  0  0  0  0  0  0  0  0  0  0
   41.2289   55.5457   29.7170 N   0  0  0  0  0  0  0  0  0  0  0  0
   42.1858   56.0848   29.0098 C   0  0  0  0  0  0  0  0  0  0  0  0
   43.3754   56.0318   29.6808 N   0  0  0  0  0  0  0  0  0  0  0  0
  2  1  1  1  0  0  0
  2  3  1  0  0  0  0
  2  5  1  0  0  0  0
  3  4  1  0  0  0  0
  3 17  1  0  0  0  0
  5  6  1  0  0  0  0
  7  6  1  6  0  0  0
  7  8  1  0  0  0  0
  7  9  1  0  0  0  0
 10  9  1  6  0  0  0
 10 11  1  0  0  0  0
 10 12  1  0  0  0  0
 11 16  1  0  0  0  0
 12 13  1  6  0  0  0
 12 14  1  0  0  0  0
 14 15  1  1  0  0  0
 14 16  1  0  0  0  0
 16 27  1  6  0  0  0
 18 19  2  0  0  0  0
 18 23  1  0  0  0  0
 19 20  1  0  0  0  0
 20 21  2  0  0  0  0
 21 22  1  0  0  0  0
 21 27  1  0  0  0  0
 22 23  2  0  0  0  0
 22 25  1  0  0  0  0
 23 24  1  0  0  0  0
 25 26  2  0  0  0  0
 26 27  1  0  0  0  0
M  END
>  <CHROM.1>
-29.99358484,-72.44404829,173.40950755,-86.16327648,168.49863713,-176.93325304
91.40065010,45.81227650,55.42748507,27.20777226,0.63437735,-0.74686555,-2.39191534

>  <Name>
ligand

>  <RI>
0

>  <Rbt.Current_Directory>
/home/itssahil/PROJECTS/Mol_Feturizer/New_Systems/rnas/3IQR

>  <Rbt.Executable>
rbdock ($Id: //depot/dev/client3/rdock/2013.1/src/exe/rbdock.cxx#4 $)

>  <Rbt.Library>
libRbt.so (2013.1, Build901 2013/11/27)

>  <Rbt.Parameter_File>
/export/apps/rDock/src/rDock_2013.1_src/data/scripts/dock_solv.prm

>  <Rbt.Receptor>
prm/pocket_docking_8.prm

>  <SCORE>
-15.99

>  <SCORE.INTER>
-11.1415

>  <SCORE.INTER.CONST>
1

>  <SCORE.INTER.POLAR>
0

>  <SCORE.INTER.ROT>
7

>  <SCORE.INTER.SOLV>
13.0934

>  <SCORE.INTER.VDW>
-20.0588

>  <SCORE.INTER.norm>
-0.412647

>  <SCORE.INTRA>
-4.84858

>  <SCORE.INTRA.DIHEDRAL>
-3.89021

>  <SCORE.INTRA.DIHEDRAL.0>
9.29433

>  <SCORE.INTRA.POLAR>
0

>  <SCORE.INTRA.POLAR.0>
0

>  <SCORE.INTRA.REPUL>
0

>  <SCORE.INTRA.REPUL.0>
0

>  <SCORE.INTRA.SOLV>
-0.950052

>  <SCORE.INTRA.SOLV.lig_0>
-48.5102

>  <SCORE.INTRA.VDW>
-2.42846

>  <SCORE.INTRA.VDW.0>
0.379549

>  <SCORE.INTRA.norm>
-0.179577

>  <SCORE.RESTR>
0

>  <SCORE.RESTR.CAVITY>
0

>  <SCORE.RESTR.norm>
0

>  <SCORE.SYSTEM>
0

>  <SCORE.SYSTEM.CONST>
0

>  <SCORE.SYSTEM.DIHEDRAL>
0

>  <SCORE.SYSTEM.SOLV>
0

>  <SCORE.SYSTEM.norm>
0

>  <SCORE.heavy>
27

>  <SCORE.norm>
-0.592224

>  <RMSD>
6.536

$$$$
ligand
 OpenBabel11021811483D
libRbt.so/2013.1/901 2013/11/27
 27 29  0  0  0  0  0  0  0  0999 V2000
   42.4018   52.6400   31.3248 N   0  0  0  0  0  0  0  0  0  0  0  0
   43.5419   53.2806   31.9788 C   0  0  2  0  0  0  0  0  0  0  0  0
   43.1224   53.7782   33.3317 C   0  0  0  0  0  0  0  0  0  0  0  0
   43.8826   53.6680   34.2879 O   0  0  0  0  0  0  0  0  0  0  0  0
   44.0379   54.4607   31.1442 C   0  0  0  0  0  0  0  0  0  0  0  0
   45.3985   54.8909   31.6614 C   0  0  0  0  0  0  0  0  0  0  0  0
   45.3196   56.0132   33.0935 S   0  0  2  0  0  0  0  0  0  0  0  0
   44.9243   57.6361   32.3779 C   0  0  0  0  0  0  0  0  0  0  0  0
   47.1214   56.5354   33.3484 C   0  0  0  0  0  0  0  0  0  0  0  0
   48.2726   55.4516   33.2210 C   0  0  2  0  0  0  0  0  0  0  0  0
   48.5398   54.9035   31.9500 O   0  0  0  0  0  0  0  0  0  0  0  0
   48.4014   54.3661   34.2132 C   0  0  1  0  0  0  0  0  0  0  0  0
   47.6880   54.6352   35.4207 O   0  0  0  0  0  0  0  0  0  0  0  0
   47.7844   53.2061   33.2973 C   0  0  2  0  0  0  0  0  0  0  0  0
   47.9993   51.9528   33.8735 O   0  0  0  0  0  0  0  0  0  0  0  0
   48.5957   53.4069   32.0187 C   0  0  1  0  0  0  0  0  0  0  0  0
   42.0380   54.3303   33.4668 O   0  0  0  0  0  0  0  0  0  0  0  0
   50.5467   52.6926   27.3481 N   0  0  0  0  0  0  0  0  0  0  0  0
   51.0868   53.2189   28.4505 C   0  0  0  0  0  0  0  0  0  0  0  0
   50.4013   53.2890   29.5878 N   0  0  0  0  0  0  0  0  0  0  0  0
   49.1082   52.9335   29.6493 C   0  0  0  0  0  0  0  0  0  0  0  0
   48.4734   52.4200   28.4889 C   0  0  0  0  0  0  0  0  0  0  0  0
   49.2577   52.3013   27.3082 C   0  0  0  0  0  0  0  0  0  0  0  0
   48.7186   51.7966   26.1422 N   0  0  0  0  0  0  0  0  0  0  0  0
   47.1978   52.1509   28.8182 N   0  0  0  0  0  0  0  0  0  0  0  0
   46.9993   52.4603   30.0717 C   0  0  0  0  0  0  0  0  0  0  0  0
   48.1457   52.9385   30.6420 N   0  0  0  0  0  0  0  0  0  0  0  0
  2  1  1  6  0  0  0
  2  3  1  0  0  0  0
  2  5  1  0  0  0  0
  3  4  1  0  0  0  0
  3 17  1  0  0  0  0
  5  6  1  0  0  0  0
  7  6  1  6  0  0  0
  7  8  1  0  0  0  0
  7  9  1  0  0  0  0
 10  9  1  6  0  0  0
 10 11  1  0  0  0  0
 10 12  1  0  0  0  0
 11 16  1  0  0  0  0
 12 13  1  1  0  0  0
 12 14  1  0  0  0  0
 14 15  1  1  0  0  0
 14 16  1  0  0  0  0
 16 27  1  6  0  0  0
 18 19  2  0  0  0  0
 18 23  1  0  0  0  0
 19 20  1  0  0  0  0
 20 21  2  0  0  0  0
 21 22  1  0  0  0  0
 21 27  1  0  0  0  0
 22 23  2  0  0  0  0
 22 25  1  0  0  0  0
 23 24  1  0  0  0  0
 25 26  2  0  0  0  0
 26 27  1  0  0  0  0
M  END
>  <CHROM.1>
140.12919893,-166.60456059,-83.47634036,-78.46901702,-41.81715482,68.40338225
82.26278355,46.85705515,53.89787174,31.53339151,2.32233040,0.04170334,1.11830958

>  <Name>
ligand

>  <RI>
0

>  <Rbt.Current_Directory>
/home/itssahil/PROJECTS/Mol_Feturizer/New_Systems/rnas/3IQR

>  <Rbt.Executable>
rbdock ($Id: //depot/dev/client3/rdock/2013.1/src/exe/rbdock.cxx#4 $)

>  <Rbt.Library>
libRbt.so (2013.1, Build901 2013/11/27)

>  <Rbt.Parameter_File>
/export/apps/rDock/src/rDock_2013.1_src/data/scripts/dock_solv.prm

>  <Rbt.Receptor>
prm/pocket_docking_7.prm

>  <SCORE>
-17.5165

>  <SCORE.INTER>
-11.4616

>  <SCORE.INTER.CONST>
1

>  <SCORE.INTER.POLAR>
0

>  <SCORE.INTER.ROT>
7

>  <SCORE.INTER.SOLV>
9.82435

>  <SCORE.INTER.VDW>
-19.1825

>  <SCORE.INTER.norm>
-0.424502

>  <SCORE.INTRA>
-6.05491

>  <SCORE.INTRA.DIHEDRAL>
-0.791348

>  <SCORE.INTRA.DIHEDRAL.0>
9.29433

>  <SCORE.INTRA.POLAR>
0

>  <SCORE.INTRA.POLAR.0>
0

>  <SCORE.INTRA.REPUL>
0

>  <SCORE.INTRA.REPUL.0>
0

>  <SCORE.INTRA.SOLV>
-1.33636

>  <SCORE.INTRA.SOLV.lig_0>
-48.5102

>  <SCORE.INTRA.VDW>
-4.99106

>  <SCORE.INTRA.VDW.0>
0.379549

>  <SCORE.INTRA.norm>
-0.224256

>  <SCORE.RESTR>
0

>  <SCORE.RESTR.CAVITY>
0

>  <SCORE.RESTR.norm>
0

>  <SCORE.SYSTEM>
0

>  <SCORE.SYSTEM.CONST>
0

>  <SCORE.SYSTEM.DIHEDRAL>
0

>  <SCORE.SYSTEM.SOLV>
0

>  <SCORE.SYSTEM.norm>
0

>  <SCORE.heavy>
27

>  <SCORE.norm>
-0.648758

>  <RMSD>
6.560

$$$$
ligand
 OpenBabel11021811483D
libRbt.so/2013.1/901 2013/11/27
 27 29  0  0  0  0  0  0  0  0999 V2000
   48.4174   55.1381   34.1845 N   0  0  0  0  0  0  0  0  0  0  0  0
   47.2310   54.3827   33.7848 C   0  0  2  0  0  0  0  0  0  0  0  0
   47.5542   52.9165   33.7821 C   0  0  0  0  0  0  0  0  0  0  0  0
   48.5591   52.5117   33.2070 O   0  0  0  0  0  0  0  0  0  0  0  0
   46.7845   54.7984   32.3838 C   0  0  0  0  0  0  0  0  0  0  0  0
   46.5624   56.2998   32.3642 C   0  0  0  0  0  0  0  0  0  0  0  0
   44.8431   56.7933   32.7066 S   0  0  2  0  0  0  0  0  0  0  0  0
   43.9014   56.1806   31.2784 C   0  0  0  0  0  0  0  0  0  0  0  0
   44.7485   58.5636   32.0426 C   0  0  0  0  0  0  0  0  0  0  0  0
   45.4718   58.9239   30.6776 C   0  0  2  0  0  0  0  0  0  0  0  0
   45.4451   57.9763   29.6342 O   0  0  0  0  0  0  0  0  0  0  0  0
   46.8051   59.5576   30.6734 C   0  0  1  0  0  0  0  0  0  0  0  0
   47.1446   60.1364   31.9341 O   0  0  0  0  0  0  0  0  0  0  0  0
   47.6315   58.2437   30.2784 C   0  0  2  0  0  0  0  0  0  0  0  0
   48.9458   58.5688   29.9381 O   0  0  0  0  0  0  0  0  0  0  0  0
   46.8203   57.7616   29.0772 C   0  0  1  0  0  0  0  0  0  0  0  0
   46.8346   52.1343   34.3898 O   0  0  0  0  0  0  0  0  0  0  0  0
   50.1495   54.0930   27.8166 N   0  0  0  0  0  0  0  0  0  0  0  0
   50.3428   55.3695   28.1591 C   0  0  0  0  0  0  0  0  0  0  0  0
   49.3219   56.1593   28.4791 N   0  0  0  0  0  0  0  0  0  0  0  0
   48.0512   55.7405   28.3695 C   0  0  0  0  0  0  0  0  0  0  0  0
   47.7924   54.4082   27.9556 C   0  0  0  0  0  0  0  0  0  0  0  0
   48.9126   53.5749   27.6831 C   0  0  0  0  0  0  0  0  0  0  0  0
   48.7456   52.2623   27.2905 N   0  0  0  0  0  0  0  0  0  0  0  0
   46.4572   54.2524   27.9247 N   0  0  0  0  0  0  0  0  0  0  0  0
   45.8821   55.3713   28.2764 C   0  0  0  0  0  0  0  0  0  0  0  0
   46.8149   56.3249   28.5742 N   0  0  0  0  0  0  0  0  0  0  0  0
  2  1  1  6  0  0  0
  2  3  1  0  0  0  0
  2  5  1  0  0  0  0
  3  4  1  0  0  0  0
  3 17  1  0  0  0  0
  5  6  1  0  0  0  0
  7  6  1  6  0  0  0
  7  8  1  0  0  0  0
  7  9  1  0  0  0  0
 10  9  1  1  0  0  0
 10 11  1  0  0  0  0
 10 12  1  0  0  0  0
 11 16  1  0  0  0  0
 12 13  1  1  0  0  0
 12 14  1  0  0  0  0
 14 15  1  6  0  0  0
 14 16  1  0  0  0  0
 16 27  1  1  0  0  0
 18 19  2  0  0  0  0
 18 23  1  0  0  0  0
 19 20  1  0  0  0  0
 20 21  2  0  0  0  0
 21 22  1  0  0  0  0
 21 27  1  0  0  0  0
 22 23  2  0  0  0  0
 22 25  1  0  0  0  0
 23 24  1  0  0  0  0
 25 26  2  0  0  0  0
 26 27  1  0  0  0  0
M  END
>  <CHROM.1>
-49.49240754,-55.61193458,-93.07822982,-66.83196187,40.26397708,38.23823044
-161.73079035,47.12829942,55.93803824,30.65513846,-3.08749883,1.05403781
-0.80318140

>  <Name>
ligand

>  <RI>
0

>  <Rbt.Current_Directory>
/home/itssahil/PROJECTS/Mol_Feturizer/New_Systems/rnas/3IQR

>  <Rbt.Executable>
rbdock ($Id: //depot/dev/client3/rdock/2013.1/src/exe/rbdock.cxx#4 $)

>  <Rbt.Library>
libRbt.so (2013.1, Build901 2013/11/27)

>  <Rbt.Parameter_File>
/export/apps/rDock/src/rDock_2013.1_src/data/scripts/dock_solv.prm

>  <Rbt.Receptor>
prm/pocket_docking_3.prm

>  <SCORE>
-12.7591

>  <SCORE.INTER>
-9.17012

>  <SCORE.INTER.CONST>
1

>  <SCORE.INTER.POLAR>
0

>  <SCORE.INTER.ROT>
7

>  <SCORE.INTER.SOLV>
11.1401

>  <SCORE.INTER.VDW>
-18.0934

>  <SCORE.INTER.norm>
-0.339634

>  <SCORE.INTRA>
-3.58894

>  <SCORE.INTRA.DIHEDRAL>
-0.339342

>  <SCORE.INTRA.DIHEDRAL.0>
9.29433

>  <SCORE.INTRA.POLAR>
0

>  <SCORE.INTRA.POLAR.0>
0

>  <SCORE.INTRA.REPUL>
0

>  <SCORE.INTRA.REPUL.0>
0

>  <SCORE.INTRA.SOLV>
-0.061098

>  <SCORE.INTRA.SOLV.lig_0>
-48.5102

>  <SCORE.INTRA.VDW>
-3.38872

>  <SCORE.INTRA.VDW.0>
0.379549

>  <SCORE.INTRA.norm>
-0.132924

>  <SCORE.RESTR>
0

>  <SCORE.RESTR.CAVITY>
0

>  <SCORE.RESTR.norm>
0

>  <SCORE.SYSTEM>
0

>  <SCORE.SYSTEM.CONST>
0

>  <SCORE.SYSTEM.DIHEDRAL>
0

>  <SCORE.SYSTEM.SOLV>
0

>  <SCORE.SYSTEM.norm>
0

>  <SCORE.heavy>
27

>  <SCORE.norm>
-0.472558

>  <RMSD>
6.581

$$$$
ligand
 OpenBabel11021811483D
libRbt.so/2013.1/901 2013/11/27
 27 29  0  0  0  0  0  0  0  0999 V2000
   48.3534   58.3014   30.6261 N   0  0  0  0  0  0  0  0  0  0  0  0
   47.4426   58.5665   31.7387 C   0  0  2  0  0  0  0  0  0  0  0  0
   46.5941   59.7611   31.4113 C   0  0  0  0  0  0  0  0  0  0  0  0
   47.1093   60.7654   30.9311 O   0  0  0  0  0  0  0  0  0  0  0  0
   48.2330   58.8500   33.0155 C   0  0  0  0  0  0  0  0  0  0  0  0
   48.9183   57.5717   33.4630 C   0  0  0  0  0  0  0  0  0  0  0  0
   47.7922   56.1488   33.6173 S   0  0  2  0  0  0  0  0  0  0  0  0
   48.7340   54.9257   34.5762 C   0  0  0  0  0  0  0  0  0  0  0  0
   48.0925   55.1700   32.0248 C   0  0  0  0  0  0  0  0  0  0  0  0
   47.4240   53.7422   31.8497 C   0  0  2  0  0  0  0  0  0  0  0  0
   47.9773   52.8541   30.9050 O   0  0  0  0  0  0  0  0  0  0  0  0
   45.9560   53.5969   31.7951 C   0  0  1  0  0  0  0  0  0  0  0  0
   45.2692   54.7440   32.2970 O   0  0  0  0  0  0  0  0  0  0  0  0
   45.8522   53.3748   30.2123 C   0  0  2  0  0  0  0  0  0  0  0  0
   44.5731   52.9443   29.8553 O   0  0  0  0  0  0  0  0  0  0  0  0
   46.9083   52.2883   30.0191 C   0  0  1  0  0  0  0  0  0  0  0  0
   45.3834   59.7131   31.5867 O   0  0  0  0  0  0  0  0  0  0  0  0
   45.8002   52.0143   25.0363 N   0  0  0  0  0  0  0  0  0  0  0  0
   45.0105   52.1858   26.0999 C   0  0  0  0  0  0  0  0  0  0  0  0
   45.5145   52.2541   27.3285 N   0  0  0  0  0  0  0  0  0  0  0  0
   46.8203   52.0483   27.5624 C   0  0  0  0  0  0  0  0  0  0  0  0
   47.6919   51.8069   26.4691 C   0  0  0  0  0  0  0  0  0  0  0  0
   47.1251   51.8041   25.1644 C   0  0  0  0  0  0  0  0  0  0  0  0
   47.9081   51.5922   24.0477 N   0  0  0  0  0  0  0  0  0  0  0  0
   48.9257   51.6313   26.9739 N   0  0  0  0  0  0  0  0  0  0  0  0
   48.8809   51.7383   28.2750 C   0  0  0  0  0  0  0  0  0  0  0  0
   47.6090   52.0069   28.6973 N   0  0  0  0  0  0  0  0  0  0  0  0
  2  1  1  6  0  0  0
  2  3  1  0  0  0  0
  2  5  1  0  0  0  0
  3  4  1  0  0  0  0
  3 17  1  0  0  0  0
  5  6  1  0  0  0  0
  7  6  1  6  0  0  0
  7  8  1  0  0  0  0
  7  9  1  0  0  0  0
 10  9  1  6  0  0  0
 10 11  1  0  0  0  0
 10 12  1  0  0  0  0
 11 16  1  0  0  0  0
 12 13  1  6  0  0  0
 12 14  1  0  0  0  0
 14 15  1  1  0  0  0
 14 16  1  0  0  0  0
 16 27  1  6  0  0  0
 18 19  2  0  0  0  0
 18 23  1  0  0  0  0
 19 20  1  0  0  0  0
 20 21  2  0  0  0  0
 21 22  1  0  0  0  0
 21 27  1  0  0  0  0
 22 23  2  0  0  0  0
 22 25  1  0  0  0  0
 23 24  1  0  0  0  0
 25 26  2  0  0  0  0
 26 27  1  0  0  0  0
M  END
>  <CHROM.1>
-45.20583462,-68.72399243,-52.68703482,-164.94732316,172.41816919,-159.56848813
-152.34085915,47.12446745,54.69510487,30.11215822,1.26010858,-1.36469781
0.46495010

>  <Name>
ligand

>  <RI>
0

>  <Rbt.Current_Directory>
/home/itssahil/PROJECTS/Mol_Feturizer/New_Systems/rnas/3IQR

>  <Rbt.Executable>
rbdock ($Id: //depot/dev/client3/rdock/2013.1/src/exe/rbdock.cxx#4 $)

>  <Rbt.Library>
libRbt.so (2013.1, Build901 2013/11/27)

>  <Rbt.Parameter_File>
/export/apps/rDock/src/rDock_2013.1_src/data/scripts/dock_solv.prm

>  <Rbt.Receptor>
prm/pocket_docking_7.prm

>  <SCORE>
-20.4429

>  <SCORE.INTER>
-16.8516

>  <SCORE.INTER.CONST>
1

>  <SCORE.INTER.POLAR>
0

>  <SCORE.INTER.ROT>
7

>  <SCORE.INTER.SOLV>
14.5063

>  <SCORE.INTER.VDW>
-24.3365

>  <SCORE.INTER.norm>
-0.624132

>  <SCORE.INTRA>
-3.5914

>  <SCORE.INTRA.DIHEDRAL>
-1.91871

>  <SCORE.INTRA.DIHEDRAL.0>
9.29433

>  <SCORE.INTRA.POLAR>
0

>  <SCORE.INTRA.POLAR.0>
0

>  <SCORE.INTRA.REPUL>
0

>  <SCORE.INTRA.REPUL.0>
0

>  <SCORE.INTRA.SOLV>
0.754716

>  <SCORE.INTRA.SOLV.lig_0>
-48.5102

>  <SCORE.INTRA.VDW>
-3.0094

>  <SCORE.INTRA.VDW.0>
0.379549

>  <SCORE.INTRA.norm>
-0.133015

>  <SCORE.RESTR>
0

>  <SCORE.RESTR.CAVITY>
0

>  <SCORE.RESTR.norm>
0

>  <SCORE.SYSTEM>
0

>  <SCORE.SYSTEM.CONST>
0

>  <SCORE.SYSTEM.DIHEDRAL>
0

>  <SCORE.SYSTEM.SOLV>
0

>  <SCORE.SYSTEM.norm>
0

>  <SCORE.heavy>
27

>  <SCORE.norm>
-0.757146

>  <RMSD>
6.599

$$$$
ligand
 OpenBabel11021811483D
libRbt.so/2013.1/901 2013/11/27
 27 29  0  0  0  0  0  0  0  0999 V2000
   48.4204   58.3544   30.6320 N   0  0  0  0  0  0  0  0  0  0  0  0
   47.4766   58.5973   31.7220 C   0  0  2  0  0  0  0  0  0  0  0  0
   46.6333   59.7944   31.3903 C   0  0  0  0  0  0  0  0  0  0  0  0
   47.1518   60.7926   30.9012 O   0  0  0  0  0  0  0  0  0  0  0  0
   48.2285   58.8617   33.0258 C   0  0  0  0  0  0  0  0  0  0  0  0
   48.9106   57.5800   33.4683 C   0  0  0  0  0  0  0  0  0  0  0  0
   47.7857   56.1529   33.5907 S   0  0  2  0  0  0  0  0  0  0  0  0
   48.7163   54.9218   34.5502 C   0  0  0  0  0  0  0  0  0  0  0  0
   48.1115   55.1920   31.9925 C   0  0  0  0  0  0  0  0  0  0  0  0
   47.4672   53.7551   31.8017 C   0  0  2  0  0  0  0  0  0  0  0  0
   48.0355   52.8868   30.8476 O   0  0  0  0  0  0  0  0  0  0  0  0
   46.0019   53.5857   31.7452 C   0  0  1  0  0  0  0  0  0  0  0  0
   45.2958   54.7157   32.2593 O   0  0  0  0  0  0  0  0  0  0  0  0
   45.9020   53.3791   30.1601 C   0  0  2  0  0  0  0  0  0  0  0  0
   44.6304   52.9310   29.7980 O   0  0  0  0  0  0  0  0  0  0  0  0
   46.9763   52.3127   29.9554 C   0  0  1  0  0  0  0  0  0  0  0  0
   45.4231   59.7542   31.5713 O   0  0  0  0  0  0  0  0  0  0  0  0
   45.8612   52.0075   24.9760 N   0  0  0  0  0  0  0  0  0  0  0  0
   45.0698   52.1502   26.0424 C   0  0  0  0  0  0  0  0  0  0  0  0
   45.5753   52.2342   27.2695 N   0  0  0  0  0  0  0  0  0  0  0  0
   46.8882   52.0732   27.4986 C   0  0  0  0  0  0  0  0  0  0  0  0
   47.7638   51.8634   26.4021 C   0  0  0  0  0  0  0  0  0  0  0  0
   47.1931   51.8430   25.0992 C   0  0  0  0  0  0  0  0  0  0  0  0
   47.9791   51.6597   23.9796 N   0  0  0  0  0  0  0  0  0  0  0  0
   49.0047   51.7298   26.9024 N   0  0  0  0  0  0  0  0  0  0  0  0
   48.9606   51.8334   28.2038 C   0  0  0  0  0  0  0  0  0  0  0  0
   47.6817   52.0574   28.6308 N   0  0  0  0  0  0  0  0  0  0  0  0
  2  1  1  6  0  0  0
  2  3  1  0  0  0  0
  2  5  1  0  0  0  0
  3  4  1  0  0  0  0
  3 17  1  0  0  0  0
  5  6  1  0  0  0  0
  7  6  1  6  0  0  0
  7  8  1  0  0  0  0
  7  9  1  0  0  0  0
 10  9  1  6  0  0  0
 10 11  1  0  0  0  0
 10 12  1  0  0  0  0
 11 16  1  0  0  0  0
 12 13  1  6  0  0  0
 12 14  1  0  0  0  0
 14 15  1  1  0  0  0
 14 16  1  0  0  0  0
 16 27  1  6  0  0  0
 18 19  2  0  0  0  0
 18 23  1  0  0  0  0
 19 20  1  0  0  0  0
 20 21  2  0  0  0  0
 21 22  1  0  0  0  0
 21 27  1  0  0  0  0
 22 23  2  0  0  0  0
 22 25  1  0  0  0  0
 23 24  1  0  0  0  0
 25 26  2  0  0  0  0
 26 27  1  0  0  0  0
M  END
>  <CHROM.1>
-42.80138633,-68.48622326,-53.67018592,-164.88931899,171.48333319,-159.95320764
-153.50253372,47.16736102,54.71653398,30.07048666,1.24940976,-1.38792250
0.45801385

>  <Name>
ligand

>  <RI>
0

>  <Rbt.Current_Directory>
/home/itssahil/PROJECTS/Mol_Feturizer/New_Systems/rnas/3IQR

>  <Rbt.Executable>
rbdock ($Id: //depot/dev/client3/rdock/2013.1/src/exe/rbdock.cxx#4 $)

>  <Rbt.Library>
libRbt.so (2013.1, Build901 2013/11/27)

>  <Rbt.Parameter_File>
/export/apps/rDock/src/rDock_2013.1_src/data/scripts/dock_solv.prm

>  <Rbt.Receptor>
prm/pocket_docking_6.prm

>  <SCORE>
-20.3991

>  <SCORE.INTER>
-16.7579

>  <SCORE.INTER.CONST>
1

>  <SCORE.INTER.POLAR>
0

>  <SCORE.INTER.ROT>
7

>  <SCORE.INTER.SOLV>
14.4397

>  <SCORE.INTER.VDW>
-24.2518

>  <SCORE.INTER.norm>
-0.620663

>  <SCORE.INTRA>
-3.64122

>  <SCORE.INTRA.DIHEDRAL>
-2.0047

>  <SCORE.INTRA.DIHEDRAL.0>
9.29433

>  <SCORE.INTRA.POLAR>
0

>  <SCORE.INTRA.POLAR.0>
0

>  <SCORE.INTRA.REPUL>
0

>  <SCORE.INTRA.REPUL.0>
0

>  <SCORE.INTRA.SOLV>
0.731325

>  <SCORE.INTRA.SOLV.lig_0>
-48.5102

>  <SCORE.INTRA.VDW>
-3.00454

>  <SCORE.INTRA.VDW.0>
0.379549

>  <SCORE.INTRA.norm>
-0.13486

>  <SCORE.RESTR>
0

>  <SCORE.RESTR.CAVITY>
0

>  <SCORE.RESTR.norm>
0

>  <SCORE.SYSTEM>
0

>  <SCORE.SYSTEM.CONST>
0

>  <SCORE.SYSTEM.DIHEDRAL>
0

>  <SCORE.SYSTEM.SOLV>
0

>  <SCORE.SYSTEM.norm>
0

>  <SCORE.heavy>
27

>  <SCORE.norm>
-0.755523

>  <RMSD>
6.600

$$$$
ligand
 OpenBabel11021811483D
libRbt.so/2013.1/901 2013/11/27
 27 29  0  0  0  0  0  0  0  0999 V2000
   47.8751   54.4071   35.4860 N   0  0  0  0  0  0  0  0  0  0  0  0
   47.4358   54.2745   34.0978 C   0  0  2  0  0  0  0  0  0  0  0  0
   46.6764   52.9891   33.9385 C   0  0  0  0  0  0  0  0  0  0  0  0
   45.7493   52.9204   33.1384 O   0  0  0  0  0  0  0  0  0  0  0  0
   48.6413   54.2621   33.1587 C   0  0  0  0  0  0  0  0  0  0  0  0
   49.3026   55.6280   33.1901 C   0  0  0  0  0  0  0  0  0  0  0  0
   48.5123   56.8529   32.0984 S   0  0  2  0  0  0  0  0  0  0  0  0
   49.1617   58.4527   32.6651 C   0  0  0  0  0  0  0  0  0  0  0  0
   46.8539   57.1970   32.9441 C   0  0  0  0  0  0  0  0  0  0  0  0
   45.5360   57.2910   32.0663 C   0  0  2  0  0  0  0  0  0  0  0  0
   45.2333   56.2251   31.1948 O   0  0  0  0  0  0  0  0  0  0  0  0
   45.1726   58.5471   31.3811 C   0  0  1  0  0  0  0  0  0  0  0  0
   45.8674   59.6806   31.9025 O   0  0  0  0  0  0  0  0  0  0  0  0
   45.6152   58.0891   29.9115 C   0  0  2  0  0  0  0  0  0  0  0  0
   45.1563   58.9930   28.9517 O   0  0  0  0  0  0  0  0  0  0  0  0
   44.9105   56.7367   29.8231 C   0  0  1  0  0  0  0  0  0  0  0  0
   47.0126   52.0013   34.5789 O   0  0  0  0  0  0  0  0  0  0  0  0
   47.3288   56.1397   25.3592 N   0  0  0  0  0  0  0  0  0  0  0  0
   46.9525   57.2442   26.0092 C   0  0  0  0  0  0  0  0  0  0  0  0
   46.3471   57.1756   27.1912 N   0  0  0  0  0  0  0  0  0  0  0  0
   45.9940   55.9978   27.7300 C   0  0  0  0  0  0  0  0  0  0  0  0
   46.3227   54.7967   27.0499 C   0  0  0  0  0  0  0  0  0  0  0  0
   47.0264   54.9095   25.8188 C   0  0  0  0  0  0  0  0  0  0  0  0
   47.3962   53.7882   25.1041 N   0  0  0  0  0  0  0  0  0  0  0  0
   45.8568   53.7774   27.7928 N   0  0  0  0  0  0  0  0  0  0  0  0
   45.2697   54.2513   28.8592 C   0  0  0  0  0  0  0  0  0  0  0  0
   45.3319   55.6165   28.8824 N   0  0  0  0  0  0  0  0  0  0  0  0
  2  1  1  1  0  0  0
  2  3  1  0  0  0  0
  2  5  1  0  0  0  0
  3  4  1  0  0  0  0
  3 17  1  0  0  0  0
  5  6  1  0  0  0  0
  7  6  1  1  0  0  0
  7  8  1  0  0  0  0
  7  9  1  0  0  0  0
 10  9  1  6  0  0  0
 10 11  1  0  0  0  0
 10 12  1  0  0  0  0
 11 16  1  0  0  0  0
 12 13  1  1  0  0  0
 12 14  1  0  0  0  0
 14 15  1  6  0  0  0
 14 16  1  0  0  0  0
 16 27  1  6  0  0  0
 18 19  2  0  0  0  0
 18 23  1  0  0  0  0
 19 20  1  0  0  0  0
 20 21  2  0  0  0  0
 21 22  1  0  0  0  0
 21 27  1  0  0  0  0
 22 23  2  0  0  0  0
 22 25  1  0  0  0  0
 23 24  1  0  0  0  0
 25 26  2  0  0  0  0
 26 27  1  0  0  0  0
M  END
>  <CHROM.1>
147.10034563,-67.15059978,-82.69231970,164.45357882,-136.76400769,53.16098038
-137.67128604,46.70514759,55.92740765,30.56056538,-0.41186131,1.39813434
-2.56547594

>  <Name>
ligand

>  <RI>
0

>  <Rbt.Current_Directory>
/home/itssahil/PROJECTS/Mol_Feturizer/New_Systems/rnas/3IQR

>  <Rbt.Executable>
rbdock ($Id: //depot/dev/client3/rdock/2013.1/src/exe/rbdock.cxx#4 $)

>  <Rbt.Library>
libRbt.so (2013.1, Build901 2013/11/27)

>  <Rbt.Parameter_File>
/export/apps/rDock/src/rDock_2013.1_src/data/scripts/dock_solv.prm

>  <Rbt.Receptor>
prm/pocket_docking_4.prm

>  <SCORE>
-17.2043

>  <SCORE.INTER>
-13.8868

>  <SCORE.INTER.CONST>
1

>  <SCORE.INTER.POLAR>
0

>  <SCORE.INTER.ROT>
7

>  <SCORE.INTER.SOLV>
12.5451

>  <SCORE.INTER.VDW>
-21.7063

>  <SCORE.INTER.norm>
-0.514327

>  <SCORE.INTRA>
-3.31745

>  <SCORE.INTRA.DIHEDRAL>
0.863752

>  <SCORE.INTRA.DIHEDRAL.0>
9.29433

>  <SCORE.INTRA.POLAR>
0

>  <SCORE.INTRA.POLAR.0>
0

>  <SCORE.INTRA.REPUL>
0

>  <SCORE.INTRA.REPUL.0>
0

>  <SCORE.INTRA.SOLV>
0.231645

>  <SCORE.INTRA.SOLV.lig_0>
-48.5102

>  <SCORE.INTRA.VDW>
-3.86515

>  <SCORE.INTRA.VDW.0>
0.379549

>  <SCORE.INTRA.norm>
-0.122869

>  <SCORE.RESTR>
0

>  <SCORE.RESTR.CAVITY>
0

>  <SCORE.RESTR.norm>
0

>  <SCORE.SYSTEM>
0

>  <SCORE.SYSTEM.CONST>
0

>  <SCORE.SYSTEM.DIHEDRAL>
0

>  <SCORE.SYSTEM.SOLV>
0

>  <SCORE.SYSTEM.norm>
0

>  <SCORE.heavy>
27

>  <SCORE.norm>
-0.637196

>  <RMSD>
6.630

$$$$
ligand
 OpenBabel11021811483D
libRbt.so/2013.1/901 2013/11/27
 27 29  0  0  0  0  0  0  0  0999 V2000
   47.4709   53.0845   36.0525 N   0  0  0  0  0  0  0  0  0  0  0  0
   47.4240   54.0476   34.9533 C   0  0  2  0  0  0  0  0  0  0  0  0
   46.7814   53.4052   33.7581 C   0  0  0  0  0  0  0  0  0  0  0  0
   45.6526   53.7408   33.4151 O   0  0  0  0  0  0  0  0  0  0  0  0
   48.8365   54.4960   34.5804 C   0  0  0  0  0  0  0  0  0  0  0  0
   48.7839   55.9338   34.0967 C   0  0  0  0  0  0  0  0  0  0  0  0
   47.8739   56.1512   32.5343 S   0  0  2  0  0  0  0  0  0  0  0  0
   48.2211   57.8653   32.0408 C   0  0  0  0  0  0  0  0  0  0  0  0
   46.1336   56.6385   33.0979 C   0  0  0  0  0  0  0  0  0  0  0  0
   45.0031   56.8849   32.0127 C   0  0  2  0  0  0  0  0  0  0  0  0
   44.8074   55.9087   31.0148 O   0  0  0  0  0  0  0  0  0  0  0  0
   44.8367   58.2095   31.3826 C   0  0  1  0  0  0  0  0  0  0  0  0
   45.4844   59.2525   32.1120 O   0  0  0  0  0  0  0  0  0  0  0  0
   45.5131   57.8322   29.9807 C   0  0  2  0  0  0  0  0  0  0  0  0
   45.2839   58.8329   29.0348 O   0  0  0  0  0  0  0  0  0  0  0  0
   44.7657   56.5403   29.6557 C   0  0  1  0  0  0  0  0  0  0  0  0
   47.4036   52.5774   33.1050 O   0  0  0  0  0  0  0  0  0  0  0  0
   47.4772   56.1746   25.3377 N   0  0  0  0  0  0  0  0  0  0  0  0
   47.0158   57.2432   25.9930 C   0  0  0  0  0  0  0  0  0  0  0  0
   46.3421   57.1150   27.1323 N   0  0  0  0  0  0  0  0  0  0  0  0
   46.0060   55.9084   27.6153 C   0  0  0  0  0  0  0  0  0  0  0  0
   46.4259   54.7424   26.9245 C   0  0  0  0  0  0  0  0  0  0  0  0
   47.1988   54.9201   25.7436 C   0  0  0  0  0  0  0  0  0  0  0  0
   47.6585   53.8364   25.0229 N   0  0  0  0  0  0  0  0  0  0  0  0
   45.9581   53.6834   27.6084 N   0  0  0  0  0  0  0  0  0  0  0  0
   45.2872   54.1013   28.6484 C   0  0  0  0  0  0  0  0  0  0  0  0
   45.2907   55.4666   28.7130 N   0  0  0  0  0  0  0  0  0  0  0  0
  2  1  1  1  0  0  0
  2  3  1  0  0  0  0
  2  5  1  0  0  0  0
  3  4  1  0  0  0  0
  3 17  1  0  0  0  0
  5  6  1  0  0  0  0
  7  6  1  1  0  0  0
  7  8  1  0  0  0  0
  7  9  1  0  0  0  0
 10  9  1  6  0  0  0
 10 11  1  0  0  0  0
 10 12  1  0  0  0  0
 11 16  1  0  0  0  0
 12 13  1  1  0  0  0
 12 14  1  0  0  0  0
 14 15  1  6  0  0  0
 14 16  1  0  0  0  0
 16 27  1  6  0  0  0
 18 19  2  0  0  0  0
 18 23  1  0  0  0  0
 19 20  1  0  0  0  0
 20 21  2  0  0  0  0
 21 22  1  0  0  0  0
 21 27  1  0  0  0  0
 22 23  2  0  0  0  0
 22 25  1  0  0  0  0
 23 24  1  0  0  0  0
 25 26  2  0  0  0  0
 26 27  1  0  0  0  0
M  END
>  <CHROM.1>
108.15973016,-147.96274267,-66.28556688,-170.03456785,-178.36410057,49.73287915
-147.02615592,46.54231456,55.76782066,30.62016465,-1.18958153,1.25523233
-1.79040617

>  <Name>
ligand

>  <RI>
0

>  <Rbt.Current_Directory>
/home/itssahil/PROJECTS/Mol_Feturizer/New_Systems/rnas/3IQR

>  <Rbt.Executable>
rbdock ($Id: //depot/dev/client3/rdock/2013.1/src/exe/rbdock.cxx#4 $)

>  <Rbt.Library>
libRbt.so (2013.1, Build901 2013/11/27)

>  <Rbt.Parameter_File>
/export/apps/rDock/src/rDock_2013.1_src/data/scripts/dock_solv.prm

>  <Rbt.Receptor>
prm/pocket_docking_6.prm

>  <SCORE>
-17.7531

>  <SCORE.INTER>
-13.2308

>  <SCORE.INTER.CONST>
1

>  <SCORE.INTER.POLAR>
0

>  <SCORE.INTER.ROT>
7

>  <SCORE.INTER.SOLV>
11.2658

>  <SCORE.INTER.VDW>
-20.8425

>  <SCORE.INTER.norm>
-0.490029

>  <SCORE.INTRA>
-4.52232

>  <SCORE.INTRA.DIHEDRAL>
-0.149167

>  <SCORE.INTRA.DIHEDRAL.0>
9.29433

>  <SCORE.INTRA.POLAR>
0

>  <SCORE.INTRA.POLAR.0>
0

>  <SCORE.INTRA.REPUL>
0

>  <SCORE.INTRA.REPUL.0>
0

>  <SCORE.INTRA.SOLV>
-0.983252

>  <SCORE.INTRA.SOLV.lig_0>
-48.5102

>  <SCORE.INTRA.VDW>
-3.95611

>  <SCORE.INTRA.VDW.0>
0.379549

>  <SCORE.INTRA.norm>
-0.167493

>  <SCORE.RESTR>
0

>  <SCORE.RESTR.CAVITY>
0

>  <SCORE.RESTR.norm>
0

>  <SCORE.SYSTEM>
0

>  <SCORE.SYSTEM.CONST>
0

>  <SCORE.SYSTEM.DIHEDRAL>
0

>  <SCORE.SYSTEM.SOLV>
0

>  <SCORE.SYSTEM.norm>
0

>  <SCORE.heavy>
27

>  <SCORE.norm>
-0.657523

>  <RMSD>
6.665

$$$$
ligand
 OpenBabel11021811483D
libRbt.so/2013.1/901 2013/11/27
 27 29  0  0  0  0  0  0  0  0999 V2000
   40.6043   51.4232   28.7752 N   0  0  0  0  0  0  0  0  0  0  0  0
   41.3777   52.2941   29.6590 C   0  0  2  0  0  0  0  0  0  0  0  0
   42.7020   52.5987   29.0206 C   0  0  0  0  0  0  0  0  0  0  0  0
   43.1325   53.7472   29.0207 O   0  0  0  0  0  0  0  0  0  0  0  0
   41.6173   51.6078   31.0032 C   0  0  0  0  0  0  0  0  0  0  0  0
   42.2416   52.6066   31.9605 C   0  0  0  0  0  0  0  0  0  0  0  0
   42.5019   51.9519   33.6398 S   0  0  2  0  0  0  0  0  0  0  0  0
   40.8532   51.9902   34.4032 C   0  0  0  0  0  0  0  0  0  0  0  0
   43.0263   53.4751   34.6342 C   0  0  0  0  0  0  0  0  0  0  0  0
   44.4840   54.0695   34.4392 C   0  0  2  0  0  0  0  0  0  0  0  0
   44.9507   54.2836   33.1263 O   0  0  0  0  0  0  0  0  0  0  0  0
   45.6175   53.5690   35.2416 C   0  0  1  0  0  0  0  0  0  0  0  0
   45.1970   52.8495   36.4014 O   0  0  0  0  0  0  0  0  0  0  0  0
   46.2810   52.6792   34.0870 C   0  0  2  0  0  0  0  0  0  0  0  0
   47.5563   52.2523   34.4616 O   0  0  0  0  0  0  0  0  0  0  0  0
   46.3176   53.6946   32.9465 C   0  0  1  0  0  0  0  0  0  0  0  0
   43.3671   51.6911   28.5379 O   0  0  0  0  0  0  0  0  0  0  0  0
   49.8258   52.5593   29.4061 N   0  0  0  0  0  0  0  0  0  0  0  0
   49.9597   52.9714   30.6696 C   0  0  0  0  0  0  0  0  0  0  0  0
   48.8977   53.1895   31.4395 N   0  0  0  0  0  0  0  0  0  0  0  0
   47.6499   53.1083   30.9511 C   0  0  0  0  0  0  0  0  0  0  0  0
   47.4574   52.7277   29.5978 C   0  0  0  0  0  0  0  0  0  0  0  0
   48.6162   52.4414   28.8239 C   0  0  0  0  0  0  0  0  0  0  0  0
   48.5131   52.0498   27.5045 N   0  0  0  0  0  0  0  0  0  0  0  0
   46.1327   52.7294   29.3675 N   0  0  0  0  0  0  0  0  0  0  0  0
   45.5040   53.0824   30.4568 C   0  0  0  0  0  0  0  0  0  0  0  0
   46.3870   53.3187   31.4730 N   0  0  0  0  0  0  0  0  0  0  0  0
  2  1  1  6  0  0  0
  2  3  1  0  0  0  0
  2  5  1  0  0  0  0
  3  4  1  0  0  0  0
  3 17  1  0  0  0  0
  5  6  1  0  0  0  0
  7  6  1  6  0  0  0
  7  8  1  0  0  0  0
  7  9  1  0  0  0  0
 10  9  1  6  0  0  0
 10 11  1  0  0  0  0
 10 12  1  0  0  0  0
 11 16  1  0  0  0  0
 12 13  1  1  0  0  0
 12 14  1  0  0  0  0
 14 15  1  1  0  0  0
 14 16  1  0  0  0  0
 16 27  1  6  0  0  0
 18 19  2  0  0  0  0
 18 23  1  0  0  0  0
 19 20  1  0  0  0  0
 20 21  2  0  0  0  0
 21 22  1  0  0  0  0
 21 27  1  0  0  0  0
 22 23  2  0  0  0  0
 22 25  1  0  0  0  0
 23 24  1  0  0  0  0
 25 26  2  0  0  0  0
 26 27  1  0  0  0  0
M  END
>  <CHROM.1>
135.02771134,-171.87706598,176.83791517,-77.25725342,-74.09150407,48.36430412
162.17996734,45.01770157,52.73340245,31.67309439,2.70746647,0.10446650,1.45904515

>  <Name>
ligand

>  <RI>
0

>  <Rbt.Current_Directory>
/home/itssahil/PROJECTS/Mol_Feturizer/New_Systems/rnas/3IQR

>  <Rbt.Executable>
rbdock ($Id: //depot/dev/client3/rdock/2013.1/src/exe/rbdock.cxx#4 $)

>  <Rbt.Library>
libRbt.so (2013.1, Build901 2013/11/27)

>  <Rbt.Parameter_File>
/export/apps/rDock/src/rDock_2013.1_src/data/scripts/dock_solv.prm

>  <Rbt.Receptor>
prm/pocket_docking_8.prm

>  <SCORE>
-17.0299

>  <SCORE.INTER>
-9.55675

>  <SCORE.INTER.CONST>
1

>  <SCORE.INTER.POLAR>
0

>  <SCORE.INTER.ROT>
7

>  <SCORE.INTER.SOLV>
8.11206

>  <SCORE.INTER.VDW>
-17.3419

>  <SCORE.INTER.norm>
-0.353954

>  <SCORE.INTRA>
-7.47312

>  <SCORE.INTRA.DIHEDRAL>
-4.64629

>  <SCORE.INTRA.DIHEDRAL.0>
9.29433

>  <SCORE.INTRA.POLAR>
0

>  <SCORE.INTRA.POLAR.0>
0

>  <SCORE.INTRA.REPUL>
0

>  <SCORE.INTRA.REPUL.0>
0

>  <SCORE.INTRA.SOLV>
-1.61777

>  <SCORE.INTRA.SOLV.lig_0>
-48.5102

>  <SCORE.INTRA.VDW>
-4.34109

>  <SCORE.INTRA.VDW.0>
0.379549

>  <SCORE.INTRA.norm>
-0.276782

>  <SCORE.RESTR>
0

>  <SCORE.RESTR.CAVITY>
0

>  <SCORE.RESTR.norm>
0

>  <SCORE.SYSTEM>
0

>  <SCORE.SYSTEM.CONST>
0

>  <SCORE.SYSTEM.DIHEDRAL>
0

>  <SCORE.SYSTEM.SOLV>
0

>  <SCORE.SYSTEM.norm>
0

>  <SCORE.heavy>
27

>  <SCORE.norm>
-0.630736

>  <RMSD>
6.679

$$$$
ligand
 OpenBabel11021811483D
libRbt.so/2013.1/901 2013/11/27
 27 29  0  0  0  0  0  0  0  0999 V2000
   44.7005   60.7539   32.0406 N   0  0  0  0  0  0  0  0  0  0  0  0
   45.1701   59.9176   30.9370 C   0  0  2  0  0  0  0  0  0  0  0  0
   45.0089   58.4715   31.3072 C   0  0  0  0  0  0  0  0  0  0  0  0
   45.2432   57.5974   30.4793 O   0  0  0  0  0  0  0  0  0  0  0  0
   46.6444   60.1981   30.6489 C   0  0  0  0  0  0  0  0  0  0  0  0
   47.4373   60.0251   31.9316 C   0  0  0  0  0  0  0  0  0  0  0  0
   47.7638   58.2867   32.3654 S   0  0  2  0  0  0  0  0  0  0  0  0
   49.2789   58.3452   33.3670 C   0  0  0  0  0  0  0  0  0  0  0  0
   48.7398   57.6342   30.8802 C   0  0  0  0  0  0  0  0  0  0  0  0
   49.4472   56.2175   30.9740 C   0  0  2  0  0  0  0  0  0  0  0  0
   50.2298   55.7854   29.8840 O   0  0  0  0  0  0  0  0  0  0  0  0
   48.7211   55.0437   31.4976 C   0  0  1  0  0  0  0  0  0  0  0  0
   47.5510   55.4022   32.2336 O   0  0  0  0  0  0  0  0  0  0  0  0
   48.4522   54.3472   30.0806 C   0  0  2  0  0  0  0  0  0  0  0  0
   47.9840   53.0430   30.2505 O   0  0  0  0  0  0  0  0  0  0  0  0
   49.8579   54.3890   29.4844 C   0  0  1  0  0  0  0  0  0  0  0  0
   44.6835   58.1688   32.4481 O   0  0  0  0  0  0  0  0  0  0  0  0
   49.4070   51.0978   25.5992 N   0  0  0  0  0  0  0  0  0  0  0  0
   49.1751   50.9457   26.9057 C   0  0  0  0  0  0  0  0  0  0  0  0
   49.3346   51.9555   27.7561 N   0  0  0  0  0  0  0  0  0  0  0  0
   49.8351   53.1353   27.3564 C   0  0  0  0  0  0  0  0  0  0  0  0
   50.1496   53.3278   25.9863 C   0  0  0  0  0  0  0  0  0  0  0  0
   49.9056   52.2447   25.0970 C   0  0  0  0  0  0  0  0  0  0  0  0
   50.1704   52.3574   23.7472 N   0  0  0  0  0  0  0  0  0  0  0  0
   50.6316   54.5766   25.8594 N   0  0  0  0  0  0  0  0  0  0  0  0
   50.6438   55.1574   27.0294 C   0  0  0  0  0  0  0  0  0  0  0  0
   50.1529   54.3211   27.9926 N   0  0  0  0  0  0  0  0  0  0  0  0
  2  1  1  1  0  0  0
  2  3  1  0  0  0  0
  2  5  1  0  0  0  0
  3  4  1  0  0  0  0
  3 17  1  0  0  0  0
  5  6  1  0  0  0  0
  7  6  1  6  0  0  0
  7  8  1  0  0  0  0
  7  9  1  0  0  0  0
 10  9  1  6  0  0  0
 10 11  1  0  0  0  0
 10 12  1  0  0  0  0
 11 16  1  0  0  0  0
 12 13  1  6  0  0  0
 12 14  1  0  0  0  0
 14 15  1  1  0  0  0
 14 16  1  0  0  0  0
 16 27  1  6  0  0  0
 18 19  2  0  0  0  0
 18 23  1  0  0  0  0
 19 20  1  0  0  0  0
 20 21  2  0  0  0  0
 21 22  1  0  0  0  0
 21 27  1  0  0  0  0
 22 23  2  0  0  0  0
 22 25  1  0  0  0  0
 23 24  1  0  0  0  0
 25 26  2  0  0  0  0
 26 27  1  0  0  0  0
M  END
>  <CHROM.1>
174.16558052,54.34545842,78.14350163,154.08198906,169.05746546,-176.51736616
-177.19421437,48.30213825,55.84560840,29.65228158,2.18695259,-0.85485435
1.21418224

>  <Name>
ligand

>  <RI>
0

>  <Rbt.Current_Directory>
/home/itssahil/PROJECTS/Mol_Feturizer/New_Systems/rnas/3IQR

>  <Rbt.Executable>
rbdock ($Id: //depot/dev/client3/rdock/2013.1/src/exe/rbdock.cxx#4 $)

>  <Rbt.Library>
libRbt.so (2013.1, Build901 2013/11/27)

>  <Rbt.Parameter_File>
/export/apps/rDock/src/rDock_2013.1_src/data/scripts/dock_solv.prm

>  <Rbt.Receptor>
prm/pocket_docking_6.prm

>  <SCORE>
-16.9282

>  <SCORE.INTER>
-12.9998

>  <SCORE.INTER.CONST>
1

>  <SCORE.INTER.POLAR>
0

>  <SCORE.INTER.ROT>
7

>  <SCORE.INTER.SOLV>
17.3846

>  <SCORE.INTER.VDW>
-22.728

>  <SCORE.INTER.norm>
-0.481473

>  <SCORE.INTRA>
-3.95019

>  <SCORE.INTRA.DIHEDRAL>
-3.56258

>  <SCORE.INTRA.DIHEDRAL.0>
9.29433

>  <SCORE.INTRA.POLAR>
0

>  <SCORE.INTRA.POLAR.0>
0

>  <SCORE.INTRA.REPUL>
0

>  <SCORE.INTRA.REPUL.0>
0

>  <SCORE.INTRA.SOLV>
-0.0139763

>  <SCORE.INTRA.SOLV.lig_0>
-48.5102

>  <SCORE.INTRA.VDW>
-2.16191

>  <SCORE.INTRA.VDW.0>
0.379549

>  <SCORE.INTRA.norm>
-0.146303

>  <SCORE.RESTR>
0.0217658

>  <SCORE.RESTR.CAVITY>
0.0217658

>  <SCORE.RESTR.norm>
0.000806142

>  <SCORE.SYSTEM>
0

>  <SCORE.SYSTEM.CONST>
0

>  <SCORE.SYSTEM.DIHEDRAL>
0

>  <SCORE.SYSTEM.SOLV>
0

>  <SCORE.SYSTEM.norm>
0

>  <SCORE.heavy>
27

>  <SCORE.norm>
-0.62697

>  <RMSD>
6.687

$$$$
ligand
 OpenBabel11021811483D
libRbt.so/2013.1/901 2013/11/27
 27 29  0  0  0  0  0  0  0  0999 V2000
   43.1663   52.9567   32.6546 N   0  0  0  0  0  0  0  0  0  0  0  0
   44.4291   53.6886   32.5675 C   0  0  2  0  0  0  0  0  0  0  0  0
   44.8353   54.1419   33.9400 C   0  0  0  0  0  0  0  0  0  0  0  0
   43.9871   54.5495   34.7266 O   0  0  0  0  0  0  0  0  0  0  0  0
   44.2726   54.9108   31.6637 C   0  0  0  0  0  0  0  0  0  0  0  0
   45.6422   55.5151   31.4130 C   0  0  0  0  0  0  0  0  0  0  0  0
   46.1014   56.8151   32.6029 S   0  0  2  0  0  0  0  0  0  0  0  0
   45.5348   58.3592   31.8301 C   0  0  0  0  0  0  0  0  0  0  0  0
   47.8955   57.2170   32.1514 C   0  0  0  0  0  0  0  0  0  0  0  0
   48.9982   56.0813   32.2538 C   0  0  2  0  0  0  0  0  0  0  0  0
   49.2515   55.2881   31.1163 O   0  0  0  0  0  0  0  0  0  0  0  0
   49.0699   55.2026   33.4379 C   0  0  1  0  0  0  0  0  0  0  0  0
   48.3589   55.7288   34.5591 O   0  0  0  0  0  0  0  0  0  0  0  0
   48.4096   53.9151   32.7512 C   0  0  2  0  0  0  0  0  0  0  0  0
   48.5633   52.7881   33.5607 O   0  0  0  0  0  0  0  0  0  0  0  0
   49.2399   53.8317   31.4718 C   0  0  1  0  0  0  0  0  0  0  0  0
   46.0079   54.0640   34.2835 O   0  0  0  0  0  0  0  0  0  0  0  0
   51.1426   52.3631   26.9603 N   0  0  0  0  0  0  0  0  0  0  0  0
   51.6865   53.0799   27.9474 C   0  0  0  0  0  0  0  0  0  0  0  0
   51.0150   53.3315   29.0672 N   0  0  0  0  0  0  0  0  0  0  0  0
   49.7303   52.9689   29.2100 C   0  0  0  0  0  0  0  0  0  0  0  0
   49.0907   52.2530   28.1652 C   0  0  0  0  0  0  0  0  0  0  0  0
   49.8615   51.9479   27.0092 C   0  0  0  0  0  0  0  0  0  0  0  0
   49.3172   51.2415   25.9558 N   0  0  0  0  0  0  0  0  0  0  0  0
   47.8253   52.0216   28.5567 N   0  0  0  0  0  0  0  0  0  0  0  0
   47.6373   52.5375   29.7420 C   0  0  0  0  0  0  0  0  0  0  0  0
   48.7813   53.1266   30.2030 N   0  0  0  0  0  0  0  0  0  0  0  0
  2  1  1  1  0  0  0
  2  3  1  0  0  0  0
  2  5  1  0  0  0  0
  3  4  1  0  0  0  0
  3 17  1  0  0  0  0
  5  6  1  0  0  0  0
  7  6  1  6  0  0  0
  7  8  1  0  0  0  0
  7  9  1  0  0  0  0
 10  9  1  6  0  0  0
 10 11  1  0  0  0  0
 10 12  1  0  0  0  0
 11 16  1  0  0  0  0
 12 13  1  1  0  0  0
 12 14  1  0  0  0  0
 14 15  1  1  0  0  0
 14 16  1  0  0  0  0
 16 27  1  6  0  0  0
 18 19  2  0  0  0  0
 18 23  1  0  0  0  0
 19 20  1  0  0  0  0
 20 21  2  0  0  0  0
 21 22  1  0  0  0  0
 21 27  1  0  0  0  0
 22 23  2  0  0  0  0
 22 25  1  0  0  0  0
 23 24  1  0  0  0  0
 25 26  2  0  0  0  0
 26 27  1  0  0  0  0
M  END
>  <CHROM.1>
-39.15001675,-170.85979770,-91.85341453,-91.69329186,-61.11865990,90.71632613
78.13835055,47.64007838,54.25264016,31.27666544,2.24883562,0.33114116,0.81414325

>  <Name>
ligand

>  <RI>
0

>  <Rbt.Current_Directory>
/home/itssahil/PROJECTS/Mol_Feturizer/New_Systems/rnas/3IQR

>  <Rbt.Executable>
rbdock ($Id: //depot/dev/client3/rdock/2013.1/src/exe/rbdock.cxx#4 $)

>  <Rbt.Library>
libRbt.so (2013.1, Build901 2013/11/27)

>  <Rbt.Parameter_File>
/export/apps/rDock/src/rDock_2013.1_src/data/scripts/dock_solv.prm

>  <Rbt.Receptor>
prm/pocket_docking_5.prm

>  <SCORE>
-17.1481

>  <SCORE.INTER>
-11.857

>  <SCORE.INTER.CONST>
1

>  <SCORE.INTER.POLAR>
0

>  <SCORE.INTER.ROT>
7

>  <SCORE.INTER.SOLV>
11.3776

>  <SCORE.INTER.VDW>
-19.9639

>  <SCORE.INTER.norm>
-0.43915

>  <SCORE.INTRA>
-5.29104

>  <SCORE.INTRA.DIHEDRAL>
1.29776

>  <SCORE.INTRA.DIHEDRAL.0>
9.29433

>  <SCORE.INTRA.POLAR>
0

>  <SCORE.INTRA.POLAR.0>
0

>  <SCORE.INTRA.REPUL>
0

>  <SCORE.INTRA.REPUL.0>
0

>  <SCORE.INTRA.SOLV>
-1.02747

>  <SCORE.INTRA.SOLV.lig_0>
-48.5102

>  <SCORE.INTRA.VDW>
-5.42618

>  <SCORE.INTRA.VDW.0>
0.379549

>  <SCORE.INTRA.norm>
-0.195964

>  <SCORE.RESTR>
0

>  <SCORE.RESTR.CAVITY>
0

>  <SCORE.RESTR.norm>
0

>  <SCORE.SYSTEM>
0

>  <SCORE.SYSTEM.CONST>
0

>  <SCORE.SYSTEM.DIHEDRAL>
0

>  <SCORE.SYSTEM.SOLV>
0

>  <SCORE.SYSTEM.norm>
0

>  <SCORE.heavy>
27

>  <SCORE.norm>
-0.635114

>  <RMSD>
6.693

$$$$
ligand
 OpenBabel11021811483D
libRbt.so/2013.1/901 2013/11/27
 27 29  0  0  0  0  0  0  0  0999 V2000
   49.5763   52.0078   28.4996 N   0  0  0  0  0  0  0  0  0  0  0  0
   50.1436   52.4581   27.2295 C   0  0  2  0  0  0  0  0  0  0  0  0
   50.4322   51.2653   26.3645 C   0  0  0  0  0  0  0  0  0  0  0  0
   49.5774   50.8494   25.5893 O   0  0  0  0  0  0  0  0  0  0  0  0
   51.4425   53.2259   27.4711 C   0  0  0  0  0  0  0  0  0  0  0  0
   51.6747   54.1763   26.3106 C   0  0  0  0  0  0  0  0  0  0  0  0
   52.2288   53.3515   24.7843 S   0  0  2  0  0  0  0  0  0  0  0  0
   52.6288   54.7144   23.6508 C   0  0  0  0  0  0  0  0  0  0  0  0
   50.6165   53.0141   23.8513 C   0  0  0  0  0  0  0  0  0  0  0  0
   49.4533   54.0920   23.8899 C   0  0  2  0  0  0  0  0  0  0  0  0
   49.4256   55.0107   24.9588 O   0  0  0  0  0  0  0  0  0  0  0  0
   48.0590   53.7098   23.5914 C   0  0  1  0  0  0  0  0  0  0  0  0
   47.9637   52.4560   22.9144 O   0  0  0  0  0  0  0  0  0  0  0  0
   47.5399   53.7110   25.1066 C   0  0  2  0  0  0  0  0  0  0  0  0
   46.1471   53.6279   25.1532 O   0  0  0  0  0  0  0  0  0  0  0  0
   48.0589   55.0701   25.5720 C   0  0  1  0  0  0  0  0  0  0  0  0
   51.5358   50.7369   26.4065 O   0  0  0  0  0  0  0  0  0  0  0  0
   46.9713   53.2904   30.2390 N   0  0  0  0  0  0  0  0  0  0  0  0
   46.5792   52.8757   29.0314 C   0  0  0  0  0  0  0  0  0  0  0  0
   47.0067   53.4755   27.9243 N   0  0  0  0  0  0  0  0  0  0  0  0
   47.7620   54.5842   27.9754 C   0  0  0  0  0  0  0  0  0  0  0  0
   48.1590   55.0963   29.2377 C   0  0  0  0  0  0  0  0  0  0  0  0
   47.7339   54.3902   30.3971 C   0  0  0  0  0  0  0  0  0  0  0  0
   48.0908   54.8148   31.6610 N   0  0  0  0  0  0  0  0  0  0  0  0
   48.8935   56.1988   29.0078 N   0  0  0  0  0  0  0  0  0  0  0  0
   48.9732   56.4057   27.7204 C   0  0  0  0  0  0  0  0  0  0  0  0
   48.3034   55.4350   27.0295 N   0  0  0  0  0  0  0  0  0  0  0  0
  2  1  1  1  0  0  0
  2  3  1  0  0  0  0
  2  5  1  0  0  0  0
  3  4  1  0  0  0  0
  3 17  1  0  0  0  0
  5  6  1  0  0  0  0
  7  6  1  1  0  0  0
  7  8  1  0  0  0  0
  7  9  1  0  0  0  0
 10  9  1  1  0  0  0
 10 11  1  0  0  0  0
 10 12  1  0  0  0  0
 11 16  1  0  0  0  0
 12 13  1  1  0  0  0
 12 14  1  0  0  0  0
 14 15  1  6  0  0  0
 14 16  1  0  0  0  0
 16 27  1  1  0  0  0
 18 19  2  0  0  0  0
 18 23  1  0  0  0  0
 19 20  1  0  0  0  0
 20 21  2  0  0  0  0
 21 22  1  0  0  0  0
 21 27  1  0  0  0  0
 22 23  2  0  0  0  0
 22 25  1  0  0  0  0
 23 24  1  0  0  0  0
 25 26  2  0  0  0  0
 26 27  1  0  0  0  0
M  END
>  <CHROM.1>
90.64387923,-154.97065613,-74.44213685,-172.99468014,38.06603620,-22.67209781
-125.19109222,49.25507730,53.64824446,26.55062952,-2.12463730,0.29052744
-1.63397562

>  <Name>
ligand

>  <RI>
0

>  <Rbt.Current_Directory>
/home/itssahil/PROJECTS/Mol_Feturizer/New_Systems/rnas/3IQR

>  <Rbt.Executable>
rbdock ($Id: //depot/dev/client3/rdock/2013.1/src/exe/rbdock.cxx#4 $)

>  <Rbt.Library>
libRbt.so (2013.1, Build901 2013/11/27)

>  <Rbt.Parameter_File>
/export/apps/rDock/src/rDock_2013.1_src/data/scripts/dock_solv.prm

>  <Rbt.Receptor>
prm/pocket_docking_8.prm

>  <SCORE>
-9.65491

>  <SCORE.INTER>
-5.9633

>  <SCORE.INTER.CONST>
1

>  <SCORE.INTER.POLAR>
0

>  <SCORE.INTER.ROT>
7

>  <SCORE.INTER.SOLV>
8.29126

>  <SCORE.INTER.VDW>
-15.006

>  <SCORE.INTER.norm>
-0.220863

>  <SCORE.INTRA>
-3.69161

>  <SCORE.INTRA.DIHEDRAL>
2.09609

>  <SCORE.INTRA.DIHEDRAL.0>
9.29433

>  <SCORE.INTRA.POLAR>
0

>  <SCORE.INTRA.POLAR.0>
0

>  <SCORE.INTRA.REPUL>
0

>  <SCORE.INTRA.REPUL.0>
0

>  <SCORE.INTRA.SOLV>
1.70826

>  <SCORE.INTRA.SOLV.lig_0>
-48.5102

>  <SCORE.INTRA.VDW>
-5.59379

>  <SCORE.INTRA.VDW.0>
0.379549

>  <SCORE.INTRA.norm>
-0.136726

>  <SCORE.RESTR>
0

>  <SCORE.RESTR.CAVITY>
0

>  <SCORE.RESTR.norm>
0

>  <SCORE.SYSTEM>
0

>  <SCORE.SYSTEM.CONST>
0

>  <SCORE.SYSTEM.DIHEDRAL>
0

>  <SCORE.SYSTEM.SOLV>
0

>  <SCORE.SYSTEM.norm>
0

>  <SCORE.heavy>
27

>  <SCORE.norm>
-0.357589

>  <RMSD>
6.716

$$$$
ligand
 OpenBabel11021811483D
libRbt.so/2013.1/901 2013/11/27
 27 29  0  0  0  0  0  0  0  0999 V2000
   49.5771   53.8998   35.1051 N   0  0  0  0  0  0  0  0  0  0  0  0
   48.1733   54.2220   34.8534 C   0  0  2  0  0  0  0  0  0  0  0  0
   47.5936   53.2091   33.9089 C   0  0  0  0  0  0  0  0  0  0  0  0
   48.3365   52.4690   33.2727 O   0  0  0  0  0  0  0  0  0  0  0  0
   48.0514   55.6124   34.2312 C   0  0  0  0  0  0  0  0  0  0  0  0
   48.7682   55.6165   32.8933 C   0  0  0  0  0  0  0  0  0  0  0  0
   48.7490   57.2326   32.0538 S   0  0  2  0  0  0  0  0  0  0  0  0
   49.6133   58.3492   33.1975 C   0  0  0  0  0  0  0  0  0  0  0  0
   47.0792   57.9722   32.5523 C   0  0  0  0  0  0  0  0  0  0  0  0
   45.7766   57.5752   31.7387 C   0  0  2  0  0  0  0  0  0  0  0  0
   45.7601   56.3392   31.0610 O   0  0  0  0  0  0  0  0  0  0  0  0
   45.0887   58.5636   30.8848 C   0  0  1  0  0  0  0  0  0  0  0  0
   45.4629   59.9084   31.1866 O   0  0  0  0  0  0  0  0  0  0  0  0
   45.6254   58.0014   29.4844 C   0  0  2  0  0  0  0  0  0  0  0  0
   44.9364   58.5848   28.4195 O   0  0  0  0  0  0  0  0  0  0  0  0
   45.3029   56.5169   29.6443 C   0  0  1  0  0  0  0  0  0  0  0  0
   46.3785   53.0976   33.8081 O   0  0  0  0  0  0  0  0  0  0  0  0
   47.8293   55.8622   25.2489 N   0  0  0  0  0  0  0  0  0  0  0  0
   47.1838   56.9249   25.7368 C   0  0  0  0  0  0  0  0  0  0  0  0
   46.6052   56.8901   26.9336 N   0  0  0  0  0  0  0  0  0  0  0  0
   46.5533   55.7585   27.6539 C   0  0  0  0  0  0  0  0  0  0  0  0
   47.1772   54.5869   27.1523 C   0  0  0  0  0  0  0  0  0  0  0  0
   47.8403   54.6809   25.8973 C   0  0  0  0  0  0  0  0  0  0  0  0
   48.4843   53.5906   25.3482 N   0  0  0  0  0  0  0  0  0  0  0  0
   46.9749   53.6101   28.0538 N   0  0  0  0  0  0  0  0  0  0  0  0
   46.2795   54.0811   29.0544 C   0  0  0  0  0  0  0  0  0  0  0  0
   45.9983   55.4059   28.8702 N   0  0  0  0  0  0  0  0  0  0  0  0
  2  1  1  6  0  0  0
  2  3  1  0  0  0  0
  2  5  1  0  0  0  0
  3  4  1  0  0  0  0
  3 17  1  0  0  0  0
  5  6  1  0  0  0  0
  7  6  1  1  0  0  0
  7  8  1  0  0  0  0
  7  9  1  0  0  0  0
 10  9  1  6  0  0  0
 10 11  1  0  0  0  0
 10 12  1  0  0  0  0
 11 16  1  0  0  0  0
 12 13  1  1  0  0  0
 12 14  1  0  0  0  0
 14 15  1  6  0  0  0
 14 16  1  0  0  0  0
 16 27  1  6  0  0  0
 18 19  2  0  0  0  0
 18 23  1  0  0  0  0
 19 20  1  0  0  0  0
 20 21  2  0  0  0  0
 21 22  1  0  0  0  0
 21 27  1  0  0  0  0
 22 23  2  0  0  0  0
 22 25  1  0  0  0  0
 23 24  1  0  0  0  0
 25 26  2  0  0  0  0
 26 27  1  0  0  0  0
M  END
>  <CHROM.1>
-14.88623649,62.22689916,-178.25614042,60.99860640,-83.74449345,25.31099128
-136.26794719,47.15527534,55.96410233,30.47674381,-1.05143572,1.19790268
-1.94699866

>  <Name>
ligand

>  <RI>
0

>  <Rbt.Current_Directory>
/home/itssahil/PROJECTS/Mol_Feturizer/New_Systems/rnas/3IQR

>  <Rbt.Executable>
rbdock ($Id: //depot/dev/client3/rdock/2013.1/src/exe/rbdock.cxx#4 $)

>  <Rbt.Library>
libRbt.so (2013.1, Build901 2013/11/27)

>  <Rbt.Parameter_File>
/export/apps/rDock/src/rDock_2013.1_src/data/scripts/dock_solv.prm

>  <Rbt.Receptor>
prm/pocket_docking_6.prm

>  <SCORE>
-13.2805

>  <SCORE.INTER>
-10.4068

>  <SCORE.INTER.CONST>
1

>  <SCORE.INTER.POLAR>
0

>  <SCORE.INTER.ROT>
7

>  <SCORE.INTER.SOLV>
14.0766

>  <SCORE.INTER.VDW>
-19.8967

>  <SCORE.INTER.norm>
-0.385435

>  <SCORE.INTRA>
-2.87376

>  <SCORE.INTRA.DIHEDRAL>
-1.5398

>  <SCORE.INTRA.DIHEDRAL.0>
9.29433

>  <SCORE.INTRA.POLAR>
0

>  <SCORE.INTRA.POLAR.0>
0

>  <SCORE.INTRA.REPUL>
0

>  <SCORE.INTRA.REPUL.0>
0

>  <SCORE.INTRA.SOLV>
-0.833453

>  <SCORE.INTRA.SOLV.lig_0>
-48.5102

>  <SCORE.INTRA.VDW>
-1.68713

>  <SCORE.INTRA.VDW.0>
0.379549

>  <SCORE.INTRA.norm>
-0.106436

>  <SCORE.RESTR>
0

>  <SCORE.RESTR.CAVITY>
0

>  <SCORE.RESTR.norm>
0

>  <SCORE.SYSTEM>
0

>  <SCORE.SYSTEM.CONST>
0

>  <SCORE.SYSTEM.DIHEDRAL>
0

>  <SCORE.SYSTEM.SOLV>
0

>  <SCORE.SYSTEM.norm>
0

>  <SCORE.heavy>
27

>  <SCORE.norm>
-0.491871

>  <RMSD>
6.719

$$$$
ligand
 OpenBabel11021811483D
libRbt.so/2013.1/901 2013/11/27
 27 29  0  0  0  0  0  0  0  0999 V2000
   49.5522   54.9058   27.7528 N   0  0  0  0  0  0  0  0  0  0  0  0
   49.8397   54.7125   29.1733 C   0  0  2  0  0  0  0  0  0  0  0  0
   49.8393   53.2436   29.4840 C   0  0  0  0  0  0  0  0  0  0  0  0
   50.4037   52.8303   30.4915 O   0  0  0  0  0  0  0  0  0  0  0  0
   48.7786   55.4041   30.0283 C   0  0  0  0  0  0  0  0  0  0  0  0
   49.2290   55.3888   31.4777 C   0  0  0  0  0  0  0  0  0  0  0  0
   47.9221   55.8514   32.6587 S   0  0  2  0  0  0  0  0  0  0  0  0
   48.6136   55.4367   34.2872 C   0  0  0  0  0  0  0  0  0  0  0  0
   46.8097   54.3205   32.7123 C   0  0  0  0  0  0  0  0  0  0  0  0
   45.3378   54.4462   33.2902 C   0  0  2  0  0  0  0  0  0  0  0  0
   45.1628   54.4286   34.6889 O   0  0  0  0  0  0  0  0  0  0  0  0
   44.2230   53.6875   32.6895 C   0  0  1  0  0  0  0  0  0  0  0  0
   44.5288   53.1997   31.3826 O   0  0  0  0  0  0  0  0  0  0  0  0
   44.1252   52.5695   33.8322 C   0  0  2  0  0  0  0  0  0  0  0  0
   42.9619   51.8118   33.6856 O   0  0  0  0  0  0  0  0  0  0  0  0
   44.0923   53.4536   35.0773 C   0  0  1  0  0  0  0  0  0  0  0  0
   49.2396   52.4675   28.7511 O   0  0  0  0  0  0  0  0  0  0  0  0
   48.2833   53.0131   37.9707 N   0  0  0  0  0  0  0  0  0  0  0  0
   48.1364   53.3746   36.6933 C   0  0  0  0  0  0  0  0  0  0  0  0
   46.9331   53.4489   36.1322 N   0  0  0  0  0  0  0  0  0  0  0  0
   45.8284   53.0633   36.7903 C   0  0  0  0  0  0  0  0  0  0  0  0
   45.9398   52.6183   38.1330 C   0  0  0  0  0  0  0  0  0  0  0  0
   47.2361   52.6131   38.7187 C   0  0  0  0  0  0  0  0  0  0  0  0
   47.4265   52.2091   40.0246 N   0  0  0  0  0  0  0  0  0  0  0  0
   44.7035   52.2918   38.5489 N   0  0  0  0  0  0  0  0  0  0  0  0
   43.8527   52.4926   37.5782 C   0  0  0  0  0  0  0  0  0  0  0  0
   44.4861   52.9797   36.4693 N   0  0  0  0  0  0  0  0  0  0  0  0
  2  1  1  6  0  0  0
  2  3  1  0  0  0  0
  2  5  1  0  0  0  0
  3  4  1  0  0  0  0
  3 17  1  0  0  0  0
  5  6  1  0  0  0  0
  7  6  1  6  0  0  0
  7  8  1  0  0  0  0
  7  9  1  0  0  0  0
 10  9  1  1  0  0  0
 10 11  1  0  0  0  0
 10 12  1  0  0  0  0
 11 16  1  0  0  0  0
 12 13  1  6  0  0  0
 12 14  1  0  0  0  0
 14 15  1  6  0  0  0
 14 16  1  0  0  0  0
 16 27  1  1  0  0  0
 18 19  2  0  0  0  0
 18 23  1  0  0  0  0
 19 20  1  0  0  0  0
 20 21  2  0  0  0  0
 21 22  1  0  0  0  0
 21 27  1  0  0  0  0
 22 23  2  0  0  0  0
 22 25  1  0  0  0  0
 23 24  1  0  0  0  0
 25 26  2  0  0  0  0
 26 27  1  0  0  0  0
M  END
>  <CHROM.1>
159.93866241,-170.45066441,-167.57777010,169.16159662,-162.39513762,-80.78849967
-24.90381774,46.86005269,53.67813364,33.84744576,1.14690917,-0.19615421,-1.45851949

>  <Name>
ligand

>  <RI>
0

>  <Rbt.Current_Directory>
/home/itssahil/PROJECTS/Mol_Feturizer/New_Systems/rnas/3IQR

>  <Rbt.Executable>
rbdock ($Id: //depot/dev/client3/rdock/2013.1/src/exe/rbdock.cxx#4 $)

>  <Rbt.Library>
libRbt.so (2013.1, Build901 2013/11/27)

>  <Rbt.Parameter_File>
/export/apps/rDock/src/rDock_2013.1_src/data/scripts/dock_solv.prm

>  <Rbt.Receptor>
prm/pocket_docking_8.prm

>  <SCORE>
-18.729

>  <SCORE.INTER>
-15.0524

>  <SCORE.INTER.CONST>
1

>  <SCORE.INTER.POLAR>
0

>  <SCORE.INTER.ROT>
7

>  <SCORE.INTER.SOLV>
9.86403

>  <SCORE.INTER.VDW>
-21.5896

>  <SCORE.INTER.norm>
-0.557494

>  <SCORE.INTRA>
-3.71134

>  <SCORE.INTRA.DIHEDRAL>
-1.76434

>  <SCORE.INTRA.DIHEDRAL.0>
9.29433

>  <SCORE.INTRA.POLAR>
0

>  <SCORE.INTRA.POLAR.0>
0

>  <SCORE.INTRA.REPUL>
0

>  <SCORE.INTRA.REPUL.0>
0

>  <SCORE.INTRA.SOLV>
-1.84998

>  <SCORE.INTRA.SOLV.lig_0>
-48.5102

>  <SCORE.INTRA.VDW>
-1.90418

>  <SCORE.INTRA.VDW.0>
0.379549

>  <SCORE.INTRA.norm>
-0.137457

>  <SCORE.RESTR>
0.0347049

>  <SCORE.RESTR.CAVITY>
0.0347049

>  <SCORE.RESTR.norm>
0.00128537

>  <SCORE.SYSTEM>
0

>  <SCORE.SYSTEM.CONST>
0

>  <SCORE.SYSTEM.DIHEDRAL>
0

>  <SCORE.SYSTEM.SOLV>
0

>  <SCORE.SYSTEM.norm>
0

>  <SCORE.heavy>
27

>  <SCORE.norm>
-0.693666

>  <RMSD>
6.722

$$$$
ligand
 OpenBabel11021811483D
libRbt.so/2013.1/901 2013/11/27
 27 29  0  0  0  0  0  0  0  0999 V2000
   41.2748   54.0395   30.2086 N   0  0  0  0  0  0  0  0  0  0  0  0
   42.6565   53.8245   29.7813 C   0  0  2  0  0  0  0  0  0  0  0  0
   42.8478   52.3771   29.4312 C   0  0  0  0  0  0  0  0  0  0  0  0
   43.7529   52.0445   28.6732 O   0  0  0  0  0  0  0  0  0  0  0  0
   43.6233   54.1989   30.9039 C   0  0  0  0  0  0  0  0  0  0  0  0
   43.5940   55.7043   31.0959 C   0  0  0  0  0  0  0  0  0  0  0  0
   44.7184   56.3015   32.3981 S   0  0  2  0  0  0  0  0  0  0  0  0
   44.9032   58.0774   32.0596 C   0  0  0  0  0  0  0  0  0  0  0  0
   46.4403   55.9607   31.6888 C   0  0  0  0  0  0  0  0  0  0  0  0
   47.1845   54.6110   32.0637 C   0  0  2  0  0  0  0  0  0  0  0  0
   46.4945   53.6581   32.8403 O   0  0  0  0  0  0  0  0  0  0  0  0
   48.5902   54.6235   32.5146 C   0  0  1  0  0  0  0  0  0  0  0  0
   49.2609   55.8433   32.1956 O   0  0  0  0  0  0  0  0  0  0  0  0
   48.2858   54.3961   34.0706 C   0  0  2  0  0  0  0  0  0  0  0  0
   49.4593   54.1014   34.7670 O   0  0  0  0  0  0  0  0  0  0  0  0
   47.3385   53.2004   33.9918 C   0  0  1  0  0  0  0  0  0  0  0  0
   42.1243   51.5287   29.9370 O   0  0  0  0  0  0  0  0  0  0  0  0
   47.0646   53.0435   39.0938 N   0  0  0  0  0  0  0  0  0  0  0  0
   48.0893   53.3140   38.2808 C   0  0  0  0  0  0  0  0  0  0  0  0
   47.9365   53.3254   36.9599 N   0  0  0  0  0  0  0  0  0  0  0  0
   46.7784   52.9632   36.3856 C   0  0  0  0  0  0  0  0  0  0  0  0
   45.6757   52.6131   37.2070 C   0  0  0  0  0  0  0  0  0  0  0  0
   45.8598   52.6742   38.6163 C   0  0  0  0  0  0  0  0  0  0  0  0
   44.8318   52.3641   39.4834 N   0  0  0  0  0  0  0  0  0  0  0  0
   44.6569   52.2907   36.3909 N   0  0  0  0  0  0  0  0  0  0  0  0
   45.0432   52.4076   35.1485 C   0  0  0  0  0  0  0  0  0  0  0  0
   46.3412   52.8306   35.0806 N   0  0  0  0  0  0  0  0  0  0  0  0
  2  1  1  1  0  0  0
  2  3  1  0  0  0  0
  2  5  1  0  0  0  0
  3  4  1  0  0  0  0
  3 17  1  0  0  0  0
  5  6  1  0  0  0  0
  7  6  1  6  0  0  0
  7  8  1  0  0  0  0
  7  9  1  0  0  0  0
 10  9  1  1  0  0  0
 10 11  1  0  0  0  0
 10 12  1  0  0  0  0
 11 16  1  0  0  0  0
 12 13  1  1  0  0  0
 12 14  1  0  0  0  0
 14 15  1  1  0  0  0
 14 16  1  0  0  0  0
 16 27  1  1  0  0  0
 18 19  2  0  0  0  0
 18 23  1  0  0  0  0
 19 20  1  0  0  0  0
 20 21  2  0  0  0  0
 21 22  1  0  0  0  0
 21 27  1  0  0  0  0
 22 23  2  0  0  0  0
 22 25  1  0  0  0  0
 23 24  1  0  0  0  0
 25 26  2  0  0  0  0
 26 27  1  0  0  0  0
M  END
>  <CHROM.1>
157.02172810,-69.31018535,-179.36841918,162.05323804,-94.35825726,4.58162817
-151.38769232,45.68426250,53.93650715,33.58226994,2.10463115,-0.52423989
-1.15227362

>  <Name>
ligand

>  <RI>
0

>  <Rbt.Current_Directory>
/home/itssahil/PROJECTS/Mol_Feturizer/New_Systems/rnas/3IQR

>  <Rbt.Executable>
rbdock ($Id: //depot/dev/client3/rdock/2013.1/src/exe/rbdock.cxx#4 $)

>  <Rbt.Library>
libRbt.so (2013.1, Build901 2013/11/27)

>  <Rbt.Parameter_File>
/export/apps/rDock/src/rDock_2013.1_src/data/scripts/dock_solv.prm

>  <Rbt.Receptor>
prm/pocket_docking_8.prm

>  <SCORE>
-17.811

>  <SCORE.INTER>
-14.463

>  <SCORE.INTER.CONST>
1

>  <SCORE.INTER.POLAR>
0

>  <SCORE.INTER.ROT>
7

>  <SCORE.INTER.SOLV>
8.25854

>  <SCORE.INTER.VDW>
-20.6615

>  <SCORE.INTER.norm>
-0.535667

>  <SCORE.INTRA>
-3.34796

>  <SCORE.INTRA.DIHEDRAL>
0.878057

>  <SCORE.INTRA.DIHEDRAL.0>
9.29433

>  <SCORE.INTRA.POLAR>
0

>  <SCORE.INTRA.POLAR.0>
0

>  <SCORE.INTRA.REPUL>
0

>  <SCORE.INTRA.REPUL.0>
0

>  <SCORE.INTRA.SOLV>
-0.94471

>  <SCORE.INTRA.SOLV.lig_0>
-48.5102

>  <SCORE.INTRA.VDW>
-3.31464

>  <SCORE.INTRA.VDW.0>
0.379549

>  <SCORE.INTRA.norm>
-0.123999

>  <SCORE.RESTR>
0

>  <SCORE.RESTR.CAVITY>
0

>  <SCORE.RESTR.norm>
0

>  <SCORE.SYSTEM>
0

>  <SCORE.SYSTEM.CONST>
0

>  <SCORE.SYSTEM.DIHEDRAL>
0

>  <SCORE.SYSTEM.SOLV>
0

>  <SCORE.SYSTEM.norm>
0

>  <SCORE.heavy>
27

>  <SCORE.norm>
-0.659665

>  <RMSD>
6.739

$$$$
ligand
 OpenBabel11021811483D
libRbt.so/2013.1/901 2013/11/27
 27 29  0  0  0  0  0  0  0  0999 V2000
   49.2614   54.3836   34.4139 N   0  0  0  0  0  0  0  0  0  0  0  0
   47.8644   54.4817   34.8342 C   0  0  2  0  0  0  0  0  0  0  0  0
   47.3468   53.1104   35.1595 C   0  0  0  0  0  0  0  0  0  0  0  0
   47.5077   52.1903   34.3645 O   0  0  0  0  0  0  0  0  0  0  0  0
   47.0150   55.0840   33.7157 C   0  0  0  0  0  0  0  0  0  0  0  0
   47.3323   56.5638   33.6002 C   0  0  0  0  0  0  0  0  0  0  0  0
   48.9132   56.9139   32.7666 S   0  0  2  0  0  0  0  0  0  0  0  0
   49.0048   58.7279   32.7092 C   0  0  0  0  0  0  0  0  0  0  0  0
   48.4689   56.8521   30.9274 C   0  0  0  0  0  0  0  0  0  0  0  0
   47.1467   57.5670   30.4205 C   0  0  2  0  0  0  0  0  0  0  0  0
   45.9534   57.3594   31.1418 O   0  0  0  0  0  0  0  0  0  0  0  0
   46.8040   57.5913   28.9848 C   0  0  1  0  0  0  0  0  0  0  0  0
   47.9195   57.2878   28.1463 O   0  0  0  0  0  0  0  0  0  0  0  0
   45.6682   56.4638   29.0481 C   0  0  2  0  0  0  0  0  0  0  0  0
   44.9443   56.4223   27.8552 O   0  0  0  0  0  0  0  0  0  0  0  0
   44.8343   56.9815   30.2186 C   0  0  1  0  0  0  0  0  0  0  0  0
   46.8018   52.9063   36.2366 O   0  0  0  0  0  0  0  0  0  0  0  0
   40.1837   54.8769   29.9490 N   0  0  0  0  0  0  0  0  0  0  0  0
   40.8109   55.7208   29.1254 C   0  0  0  0  0  0  0  0  0  0  0  0
   42.0504   56.1330   29.3742 N   0  0  0  0  0  0  0  0  0  0  0  0
   42.6825   55.8049   30.5121 C   0  0  0  0  0  0  0  0  0  0  0  0
   42.0354   54.9546   31.4456 C   0  0  0  0  0  0  0  0  0  0  0  0
   40.7347   54.4834   31.1142 C   0  0  0  0  0  0  0  0  0  0  0  0
   40.0447   53.6405   31.9618 N   0  0  0  0  0  0  0  0  0  0  0  0
   42.8735   54.7913   32.4842 N   0  0  0  0  0  0  0  0  0  0  0  0
   43.9684   55.4703   32.2684 C   0  0  0  0  0  0  0  0  0  0  0  0
   43.9146   56.1088   31.0610 N   0  0  0  0  0  0  0  0  0  0  0  0
  2  1  1  6  0  0  0
  2  3  1  0  0  0  0
  2  5  1  0  0  0  0
  3  4  1  0  0  0  0
  3 17  1  0  0  0  0
  5  6  1  0  0  0  0
  7  6  1  1  0  0  0
  7  8  1  0  0  0  0
  7  9  1  0  0  0  0
 10  9  1  6  0  0  0
 10 11  1  0  0  0  0
 10 12  1  0  0  0  0
 11 16  1  0  0  0  0
 12 13  1  6  0  0  0
 12 14  1  0  0  0  0
 14 15  1  6  0  0  0
 14 16  1  0  0  0  0
 16 27  1  1  0  0  0
 18 19  2  0  0  0  0
 18 23  1  0  0  0  0
 19 20  1  0  0  0  0
 20 21  2  0  0  0  0
 21 22  1  0  0  0  0
 21 27  1  0  0  0  0
 22 23  2  0  0  0  0
 22 25  1  0  0  0  0
 23 24  1  0  0  0  0
 25 26  2  0  0  0  0
 26 27  1  0  0  0  0
M  END
>  <CHROM.1>
-49.87244422,-72.38163479,76.47500000,177.84438428,44.29594494,-46.49642938
169.56233563,45.53261920,55.72756923,31.68990562,0.37368860,0.30608622,2.18510754

>  <Name>
ligand

>  <RI>
0

>  <Rbt.Current_Directory>
/home/itssahil/PROJECTS/Mol_Feturizer/New_Systems/rnas/3IQR

>  <Rbt.Executable>
rbdock ($Id: //depot/dev/client3/rdock/2013.1/src/exe/rbdock.cxx#4 $)

>  <Rbt.Library>
libRbt.so (2013.1, Build901 2013/11/27)

>  <Rbt.Parameter_File>
/export/apps/rDock/src/rDock_2013.1_src/data/scripts/dock_solv.prm

>  <Rbt.Receptor>
prm/pocket_docking_7.prm

>  <SCORE>
-18.7782

>  <SCORE.INTER>
-14.195

>  <SCORE.INTER.CONST>
1

>  <SCORE.INTER.POLAR>
0

>  <SCORE.INTER.ROT>
7

>  <SCORE.INTER.SOLV>
11.5358

>  <SCORE.INTER.VDW>
-21.5753

>  <SCORE.INTER.norm>
-0.525741

>  <SCORE.INTRA>
-4.58323

>  <SCORE.INTRA.DIHEDRAL>
-2.7375

>  <SCORE.INTRA.DIHEDRAL.0>
9.29433

>  <SCORE.INTRA.POLAR>
0

>  <SCORE.INTRA.POLAR.0>
0

>  <SCORE.INTRA.REPUL>
0

>  <SCORE.INTRA.REPUL.0>
0

>  <SCORE.INTRA.SOLV>
0.527777

>  <SCORE.INTRA.SOLV.lig_0>
-48.5102

>  <SCORE.INTRA.VDW>
-3.47837

>  <SCORE.INTRA.VDW.0>
0.379549

>  <SCORE.INTRA.norm>
-0.169749

>  <SCORE.RESTR>
0

>  <SCORE.RESTR.CAVITY>
0

>  <SCORE.RESTR.norm>
0

>  <SCORE.SYSTEM>
0

>  <SCORE.SYSTEM.CONST>
0

>  <SCORE.SYSTEM.DIHEDRAL>
0

>  <SCORE.SYSTEM.SOLV>
0

>  <SCORE.SYSTEM.norm>
0

>  <SCORE.heavy>
27

>  <SCORE.norm>
-0.695491

>  <RMSD>
6.750

$$$$
ligand
 OpenBabel11021811483D
libRbt.so/2013.1/901 2013/11/27
 27 29  0  0  0  0  0  0  0  0999 V2000
   44.2227   57.3638   31.2737 N   0  0  0  0  0  0  0  0  0  0  0  0
   45.1671   58.2654   31.9318 C   0  0  2  0  0  0  0  0  0  0  0  0
   45.4772   59.4137   31.0156 C   0  0  0  0  0  0  0  0  0  0  0  0
   45.6520   60.5363   31.4777 O   0  0  0  0  0  0  0  0  0  0  0  0
   46.4631   57.5265   32.2629 C   0  0  0  0  0  0  0  0  0  0  0  0
   46.1797   56.4967   33.3414 C   0  0  0  0  0  0  0  0  0  0  0  0
   47.5853   55.3928   33.6915 S   0  0  2  0  0  0  0  0  0  0  0  0
   49.0502   56.4547   33.5227 C   0  0  0  0  0  0  0  0  0  0  0  0
   47.9447   54.5864   32.0168 C   0  0  0  0  0  0  0  0  0  0  0  0
   47.2195   53.2286   31.6338 C   0  0  2  0  0  0  0  0  0  0  0  0
   47.4237   52.7003   30.3429 O   0  0  0  0  0  0  0  0  0  0  0  0
   45.8062   52.9994   31.9934 C   0  0  1  0  0  0  0  0  0  0  0  0
   45.3421   53.8951   33.0042 O   0  0  0  0  0  0  0  0  0  0  0  0
   45.2024   53.2457   30.5305 C   0  0  2  0  0  0  0  0  0  0  0  0
   43.8656   52.8475   30.4727 O   0  0  0  0  0  0  0  0  0  0  0  0
   46.1159   52.3439   29.7025 C   0  0  1  0  0  0  0  0  0  0  0  0
   45.5953   59.2169   29.8129 O   0  0  0  0  0  0  0  0  0  0  0  0
   49.6316   51.1505   26.1889 N   0  0  0  0  0  0  0  0  0  0  0  0
   49.6337   50.9968   27.5157 C   0  0  0  0  0  0  0  0  0  0  0  0
   48.5879   51.3586   28.2530 N   0  0  0  0  0  0  0  0  0  0  0  0
   47.5334   51.9885   27.7113 C   0  0  0  0  0  0  0  0  0  0  0  0
   47.5091   52.2247   26.3124 C   0  0  0  0  0  0  0  0  0  0  0  0
   48.6182   51.7663   25.5487 C   0  0  0  0  0  0  0  0  0  0  0  0
   48.6635   51.9437   24.1807 N   0  0  0  0  0  0  0  0  0  0  0  0
   46.3601   52.8661   26.0361 N   0  0  0  0  0  0  0  0  0  0  0  0
   45.6876   53.0460   27.1415 C   0  0  0  0  0  0  0  0  0  0  0  0
   46.3560   52.5153   28.2091 N   0  0  0  0  0  0  0  0  0  0  0  0
  2  1  1  6  0  0  0
  2  3  1  0  0  0  0
  2  5  1  0  0  0  0
  3  4  1  0  0  0  0
  3 17  1  0  0  0  0
  5  6  1  0  0  0  0
  7  6  1  6  0  0  0
  7  8  1  0  0  0  0
  7  9  1  0  0  0  0
 10  9  1  6  0  0  0
 10 11  1  0  0  0  0
 10 12  1  0  0  0  0
 11 16  1  0  0  0  0
 12 13  1  1  0  0  0
 12 14  1  0  0  0  0
 14 15  1  1  0  0  0
 14 16  1  0  0  0  0
 16 27  1  6  0  0  0
 18 19  2  0  0  0  0
 18 23  1  0  0  0  0
 19 20  1  0  0  0  0
 20 21  2  0  0  0  0
 21 22  1  0  0  0  0
 21 27  1  0  0  0  0
 22 23  2  0  0  0  0
 22 25  1  0  0  0  0
 23 24  1  0  0  0  0
 25 26  2  0  0  0  0
 26 27  1  0  0  0  0
M  END
>  <CHROM.1>
143.93901622,-68.06025372,172.69314926,36.29242512,-90.29150451,175.23845811
45.06883750,46.77831860,54.44162024,30.09231265,2.34777578,-1.24224276,1.52361097

>  <Name>
ligand

>  <RI>
0

>  <Rbt.Current_Directory>
/home/itssahil/PROJECTS/Mol_Feturizer/New_Systems/rnas/3IQR

>  <Rbt.Executable>
rbdock ($Id: //depot/dev/client3/rdock/2013.1/src/exe/rbdock.cxx#4 $)

>  <Rbt.Library>
libRbt.so (2013.1, Build901 2013/11/27)

>  <Rbt.Parameter_File>
/export/apps/rDock/src/rDock_2013.1_src/data/scripts/dock_solv.prm

>  <Rbt.Receptor>
prm/pocket_docking_5.prm

>  <SCORE>
-14.3069

>  <SCORE.INTER>
-11.9068

>  <SCORE.INTER.CONST>
1

>  <SCORE.INTER.POLAR>
0

>  <SCORE.INTER.ROT>
7

>  <SCORE.INTER.SOLV>
12.5101

>  <SCORE.INTER.VDW>
-20.3746

>  <SCORE.INTER.norm>
-0.440993

>  <SCORE.INTRA>
-2.40009

>  <SCORE.INTRA.DIHEDRAL>
-3.25407

>  <SCORE.INTRA.DIHEDRAL.0>
9.29433

>  <SCORE.INTRA.POLAR>
0

>  <SCORE.INTRA.POLAR.0>
0

>  <SCORE.INTRA.REPUL>
0

>  <SCORE.INTRA.REPUL.0>
0

>  <SCORE.INTRA.SOLV>
-0.198727

>  <SCORE.INTRA.SOLV.lig_0>
-48.5102

>  <SCORE.INTRA.VDW>
-0.673692

>  <SCORE.INTRA.VDW.0>
0.379549

>  <SCORE.INTRA.norm>
-0.0888922

>  <SCORE.RESTR>
0

>  <SCORE.RESTR.CAVITY>
0

>  <SCORE.RESTR.norm>
0

>  <SCORE.SYSTEM>
0

>  <SCORE.SYSTEM.CONST>
0

>  <SCORE.SYSTEM.DIHEDRAL>
0

>  <SCORE.SYSTEM.SOLV>
0

>  <SCORE.SYSTEM.norm>
0

>  <SCORE.heavy>
27

>  <SCORE.norm>
-0.529885

>  <RMSD>
6.754

$$$$
ligand
 OpenBabel11021811483D
libRbt.so/2013.1/901 2013/11/27
 27 29  0  0  0  0  0  0  0  0999 V2000
   41.9537   52.6192   33.1929 N   0  0  0  0  0  0  0  0  0  0  0  0
   43.2294   52.3976   33.8722 C   0  0  2  0  0  0  0  0  0  0  0  0
   43.1923   53.0520   35.2229 C   0  0  0  0  0  0  0  0  0  0  0  0
   44.1421   52.9298   35.9892 O   0  0  0  0  0  0  0  0  0  0  0  0
   44.3752   52.9970   33.0580 C   0  0  0  0  0  0  0  0  0  0  0  0
   44.1553   54.4933   32.9281 C   0  0  0  0  0  0  0  0  0  0  0  0
   45.4469   55.3456   31.9679 S   0  0  2  0  0  0  0  0  0  0  0  0
   46.9196   55.2823   33.0307 C   0  0  0  0  0  0  0  0  0  0  0  0
   45.1855   57.1714   32.3945 C   0  0  0  0  0  0  0  0  0  0  0  0
   46.0948   58.2716   31.7023 C   0  0  2  0  0  0  0  0  0  0  0  0
   46.1280   58.3249   30.2940 O   0  0  0  0  0  0  0  0  0  0  0  0
   47.4607   58.5409   32.1933 C   0  0  1  0  0  0  0  0  0  0  0  0
   47.6838   58.0330   33.5093 O   0  0  0  0  0  0  0  0  0  0  0  0
   48.2325   57.7689   31.0213 C   0  0  2  0  0  0  0  0  0  0  0  0
   49.5986   58.0543   31.0559 O   0  0  0  0  0  0  0  0  0  0  0  0
   47.5421   58.3690   29.7980 C   0  0  1  0  0  0  0  0  0  0  0  0
   42.2302   53.7403   35.5385 O   0  0  0  0  0  0  0  0  0  0  0  0
   49.8906   54.6095   27.2521 N   0  0  0  0  0  0  0  0  0  0  0  0
   50.1374   55.1398   28.4529 C   0  0  0  0  0  0  0  0  0  0  0  0
   49.3757   56.1113   28.9469 N   0  0  0  0  0  0  0  0  0  0  0  0
   48.3960   56.6716   28.2199 C   0  0  0  0  0  0  0  0  0  0  0  0
   48.1311   56.1796   26.9157 C   0  0  0  0  0  0  0  0  0  0  0  0
   48.9264   55.0973   26.4469 C   0  0  0  0  0  0  0  0  0  0  0  0
   48.7213   54.5518   25.1958 N   0  0  0  0  0  0  0  0  0  0  0  0
   47.1198   56.9087   26.4121 N   0  0  0  0  0  0  0  0  0  0  0  0
   46.7509   57.8026   27.2903 C   0  0  0  0  0  0  0  0  0  0  0  0
   47.4950   57.6986   28.4321 N   0  0  0  0  0  0  0  0  0  0  0  0
  2  1  1  6  0  0  0
  2  3  1  0  0  0  0
  2  5  1  0  0  0  0
  3  4  1  0  0  0  0
  3 17  1  0  0  0  0
  5  6  1  0  0  0  0
  7  6  1  1  0  0  0
  7  8  1  0  0  0  0
  7  9  1  0  0  0  0
 10  9  1  6  0  0  0
 10 11  1  0  0  0  0
 10 12  1  0  0  0  0
 11 16  1  0  0  0  0
 12 13  1  1  0  0  0
 12 14  1  0  0  0  0
 14 15  1  6  0  0  0
 14 16  1  0  0  0  0
 16 27  1  6  0  0  0
 18 19  2  0  0  0  0
 18 23  1  0  0  0  0
 19 20  1  0  0  0  0
 20 21  2  0  0  0  0
 21 22  1  0  0  0  0
 21 27  1  0  0  0  0
 22 23  2  0  0  0  0
 22 25  1  0  0  0  0
 23 24  1  0  0  0  0
 25 26  2  0  0  0  0
 26 27  1  0  0  0  0
M  END
>  <CHROM.1>
176.34149152,61.16915663,-179.68201877,-70.01752774,-177.62383380,56.24448285
-127.75893278,46.51285618,55.83246984,30.92902569,2.80135572,0.92240943,0.82063956

>  <Name>
ligand

>  <RI>
0

>  <Rbt.Current_Directory>
/home/itssahil/PROJECTS/Mol_Feturizer/New_Systems/rnas/3IQR

>  <Rbt.Executable>
rbdock ($Id: //depot/dev/client3/rdock/2013.1/src/exe/rbdock.cxx#4 $)

>  <Rbt.Library>
libRbt.so (2013.1, Build901 2013/11/27)

>  <Rbt.Parameter_File>
/export/apps/rDock/src/rDock_2013.1_src/data/scripts/dock_solv.prm

>  <Rbt.Receptor>
prm/pocket_docking_8.prm

>  <SCORE>
-17.3483

>  <SCORE.INTER>
-13.029

>  <SCORE.INTER.CONST>
1

>  <SCORE.INTER.POLAR>
0

>  <SCORE.INTER.ROT>
7

>  <SCORE.INTER.SOLV>
8.8152

>  <SCORE.INTER.VDW>
-19.8911

>  <SCORE.INTER.norm>
-0.482557

>  <SCORE.INTRA>
-4.35543

>  <SCORE.INTRA.DIHEDRAL>
-4.99427

>  <SCORE.INTRA.DIHEDRAL.0>
9.29433

>  <SCORE.INTRA.POLAR>
0

>  <SCORE.INTRA.POLAR.0>
0

>  <SCORE.INTRA.REPUL>
0

>  <SCORE.INTRA.REPUL.0>
0

>  <SCORE.INTRA.SOLV>
-0.500736

>  <SCORE.INTRA.SOLV.lig_0>
-48.5102

>  <SCORE.INTRA.VDW>
-1.60793

>  <SCORE.INTRA.VDW.0>
0.379549

>  <SCORE.INTRA.norm>
-0.161312

>  <SCORE.RESTR>
0.0361303

>  <SCORE.RESTR.CAVITY>
0.0361303

>  <SCORE.RESTR.norm>
0.00133816

>  <SCORE.SYSTEM>
0

>  <SCORE.SYSTEM.CONST>
0

>  <SCORE.SYSTEM.DIHEDRAL>
0

>  <SCORE.SYSTEM.SOLV>
0

>  <SCORE.SYSTEM.norm>
0

>  <SCORE.heavy>
27

>  <SCORE.norm>
-0.642531

>  <RMSD>
6.757

$$$$
ligand
 OpenBabel11021811483D
libRbt.so/2013.1/901 2013/11/27
 27 29  0  0  0  0  0  0  0  0999 V2000
   47.8261   54.2155   35.9019 N   0  0  0  0  0  0  0  0  0  0  0  0
   47.4240   54.1627   34.4971 C   0  0  2  0  0  0  0  0  0  0  0  0
   46.7425   52.8529   34.2251 C   0  0  0  0  0  0  0  0  0  0  0  0
   47.1088   51.8387   34.8097 O   0  0  0  0  0  0  0  0  0  0  0  0
   48.6475   54.2871   33.5901 C   0  0  0  0  0  0  0  0  0  0  0  0
   49.0838   55.7404   33.5502 C   0  0  0  0  0  0  0  0  0  0  0  0
   48.1959   56.7409   32.3143 S   0  0  2  0  0  0  0  0  0  0  0  0
   48.5098   58.4605   32.8112 C   0  0  0  0  0  0  0  0  0  0  0  0
   46.4348   56.8362   33.0022 C   0  0  0  0  0  0  0  0  0  0  0  0
   45.2185   57.0418   32.0049 C   0  0  2  0  0  0  0  0  0  0  0  0
   44.9620   56.0418   31.0450 O   0  0  0  0  0  0  0  0  0  0  0  0
   44.9799   58.3501   31.3639 C   0  0  1  0  0  0  0  0  0  0  0  0
   45.6647   59.4183   32.0192 O   0  0  0  0  0  0  0  0  0  0  0  0
   45.5506   57.9541   29.9208 C   0  0  2  0  0  0  0  0  0  0  0  0
   45.2304   58.9310   28.9763 O   0  0  0  0  0  0  0  0  0  0  0  0
   44.8027   56.6440   29.6813 C   0  0  1  0  0  0  0  0  0  0  0  0
   45.7954   52.8099   33.4505 O   0  0  0  0  0  0  0  0  0  0  0  0
   47.3828   56.2167   25.2891 N   0  0  0  0  0  0  0  0  0  0  0  0
   46.9703   57.2956   25.9598 C   0  0  0  0  0  0  0  0  0  0  0  0
   46.3248   57.1826   27.1169 N   0  0  0  0  0  0  0  0  0  0  0  0
   45.9678   55.9844   27.6057 C   0  0  0  0  0  0  0  0  0  0  0  0
   46.3350   54.8093   26.9002 C   0  0  0  0  0  0  0  0  0  0  0  0
   47.0799   54.9691   25.6989 C   0  0  0  0  0  0  0  0  0  0  0  0
   47.4885   53.8754   24.9629 N   0  0  0  0  0  0  0  0  0  0  0  0
   45.8561   53.7617   27.5938 N   0  0  0  0  0  0  0  0  0  0  0  0
   45.2263   54.1947   28.6531 C   0  0  0  0  0  0  0  0  0  0  0  0
   45.2706   55.5591   28.7214 N   0  0  0  0  0  0  0  0  0  0  0  0
  2  1  1  1  0  0  0
  2  3  1  0  0  0  0
  2  5  1  0  0  0  0
  3  4  1  0  0  0  0
  3 17  1  0  0  0  0
  5  6  1  0  0  0  0
  7  6  1  1  0  0  0
  7  8  1  0  0  0  0
  7  9  1  0  0  0  0
 10  9  1  6  0  0  0
 10 11  1  0  0  0  0
 10 12  1  0  0  0  0
 11 16  1  0  0  0  0
 12 13  1  1  0  0  0
 12 14  1  0  0  0  0
 14 15  1  6  0  0  0
 14 16  1  0  0  0  0
 16 27  1  6  0  0  0
 18 19  2  0  0  0  0
 18 23  1  0  0  0  0
 19 20  1  0  0  0  0
 20 21  2  0  0  0  0
 21 22  1  0  0  0  0
 21 27  1  0  0  0  0
 22 23  2  0  0  0  0
 22 25  1  0  0  0  0
 23 24  1  0  0  0  0
 25 26  2  0  0  0  0
 26 27  1  0  0  0  0
M  END
>  <CHROM.1>
-34.33432181,-76.93144105,-85.12516479,163.08082128,-153.30204794,63.01008733
-142.88369895,46.60058836,55.84638800,30.62322759,-0.73461627,1.38725188
-2.22082584

>  <Name>
ligand

>  <RI>
0

>  <Rbt.Current_Directory>
/home/itssahil/PROJECTS/Mol_Feturizer/New_Systems/rnas/3IQR

>  <Rbt.Executable>
rbdock ($Id: //depot/dev/client3/rdock/2013.1/src/exe/rbdock.cxx#4 $)

>  <Rbt.Library>
libRbt.so (2013.1, Build901 2013/11/27)

>  <Rbt.Parameter_File>
/export/apps/rDock/src/rDock_2013.1_src/data/scripts/dock_solv.prm

>  <Rbt.Receptor>
prm/pocket_docking_7.prm

>  <SCORE>
-17.8535

>  <SCORE.INTER>
-14.3008

>  <SCORE.INTER.CONST>
1

>  <SCORE.INTER.POLAR>
0

>  <SCORE.INTER.ROT>
7

>  <SCORE.INTER.SOLV>
13.4415

>  <SCORE.INTER.VDW>
-22.281

>  <SCORE.INTER.norm>
-0.52966

>  <SCORE.INTRA>
-3.55268

>  <SCORE.INTRA.DIHEDRAL>
0.731262

>  <SCORE.INTRA.DIHEDRAL.0>
9.29433

>  <SCORE.INTRA.POLAR>
0

>  <SCORE.INTRA.POLAR.0>
0

>  <SCORE.INTRA.REPUL>
0

>  <SCORE.INTRA.REPUL.0>
0

>  <SCORE.INTRA.SOLV>
-0.0949845

>  <SCORE.INTRA.SOLV.lig_0>
-48.5102

>  <SCORE.INTRA.VDW>
-3.87082

>  <SCORE.INTRA.VDW.0>
0.379549

>  <SCORE.INTRA.norm>
-0.131581

>  <SCORE.RESTR>
0

>  <SCORE.RESTR.CAVITY>
0

>  <SCORE.RESTR.norm>
0

>  <SCORE.SYSTEM>
0

>  <SCORE.SYSTEM.CONST>
0

>  <SCORE.SYSTEM.DIHEDRAL>
0

>  <SCORE.SYSTEM.SOLV>
0

>  <SCORE.SYSTEM.norm>
0

>  <SCORE.heavy>
27

>  <SCORE.norm>
-0.661241

>  <RMSD>
6.760

$$$$
ligand
 OpenBabel11021811483D
libRbt.so/2013.1/901 2013/11/27
 27 29  0  0  0  0  0  0  0  0999 V2000
   44.2174   52.1384   37.5863 N   0  0  0  0  0  0  0  0  0  0  0  0
   45.0613   52.9752   36.7345 C   0  0  2  0  0  0  0  0  0  0  0  0
   44.4377   53.0848   35.3731 C   0  0  0  0  0  0  0  0  0  0  0  0
   44.1700   52.0700   34.7384 O   0  0  0  0  0  0  0  0  0  0  0  0
   46.4533   52.3597   36.5983 C   0  0  0  0  0  0  0  0  0  0  0  0
   47.4014   53.4070   36.0431 C   0  0  0  0  0  0  0  0  0  0  0  0
   47.1063   53.8116   34.2921 S   0  0  2  0  0  0  0  0  0  0  0  0
   48.4093   52.9190   33.3935 C   0  0  0  0  0  0  0  0  0  0  0  0
   48.0267   55.4486   34.0533 C   0  0  0  0  0  0  0  0  0  0  0  0
   47.2482   56.7033   33.4738 C   0  0  2  0  0  0  0  0  0  0  0  0
   45.9060   56.5350   33.0770 O   0  0  0  0  0  0  0  0  0  0  0  0
   47.8923   57.6096   32.5027 C   0  0  1  0  0  0  0  0  0  0  0  0
   49.3132   57.4692   32.4758 O   0  0  0  0  0  0  0  0  0  0  0  0
   47.1257   57.0642   31.2064 C   0  0  2  0  0  0  0  0  0  0  0  0
   47.3332   57.9104   30.1156 O   0  0  0  0  0  0  0  0  0  0  0  0
   45.6829   57.1008   31.7067 C   0  0  1  0  0  0  0  0  0  0  0  0
   44.1606   54.1873   34.9186 O   0  0  0  0  0  0  0  0  0  0  0  0
   45.0158   52.5774   29.4209 N   0  0  0  0  0  0  0  0  0  0  0  0
   46.1296   53.2121   29.7958 C   0  0  0  0  0  0  0  0  0  0  0  0
   46.0779   54.3911   30.4086 N   0  0  0  0  0  0  0  0  0  0  0  0
   44.9157   55.0406   30.5807 C   0  0  0  0  0  0  0  0  0  0  0  0
   43.7092   54.4315   30.1486 C   0  0  0  0  0  0  0  0  0  0  0  0
   43.7995   53.1421   29.5547 C   0  0  0  0  0  0  0  0  0  0  0  0
   42.6707   52.4759   29.1223 N   0  0  0  0  0  0  0  0  0  0  0  0
   42.7085   55.2840   30.4311 N   0  0  0  0  0  0  0  0  0  0  0  0
   43.1990   56.3580   30.9900 C   0  0  0  0  0  0  0  0  0  0  0  0
   44.5563   56.2621   31.1197 N   0  0  0  0  0  0  0  0  0  0  0  0
  2  1  1  1  0  0  0
  2  3  1  0  0  0  0
  2  5  1  0  0  0  0
  3  4  1  0  0  0  0
  3 17  1  0  0  0  0
  5  6  1  0  0  0  0
  7  6  1  1  0  0  0
  7  8  1  0  0  0  0
  7  9  1  0  0  0  0
 10  9  1  6  0  0  0
 10 11  1  0  0  0  0
 10 12  1  0  0  0  0
 11 16  1  0  0  0  0
 12 13  1  6  0  0  0
 12 14  1  0  0  0  0
 14 15  1  6  0  0  0
 14 16  1  0  0  0  0
 16 27  1  6  0  0  0
 18 19  2  0  0  0  0
 18 23  1  0  0  0  0
 19 20  1  0  0  0  0
 20 21  2  0  0  0  0
 21 22  1  0  0  0  0
 21 27  1  0  0  0  0
 22 23  2  0  0  0  0
 22 25  1  0  0  0  0
 23 24  1  0  0  0  0
 25 26  2  0  0  0  0
 26 27  1  0  0  0  0
M  END
>  <CHROM.1>
-55.51250076,-164.74978588,-70.97926495,-102.31133813,-125.46474481,-3.78655543
-81.43342638,45.77205302,54.63937417,32.72071221,1.43849776,0.71099642,2.07540428

>  <Name>
ligand

>  <RI>
0

>  <Rbt.Current_Directory>
/home/itssahil/PROJECTS/Mol_Feturizer/New_Systems/rnas/3IQR

>  <Rbt.Executable>
rbdock ($Id: //depot/dev/client3/rdock/2013.1/src/exe/rbdock.cxx#4 $)

>  <Rbt.Library>
libRbt.so (2013.1, Build901 2013/11/27)

>  <Rbt.Parameter_File>
/export/apps/rDock/src/rDock_2013.1_src/data/scripts/dock_solv.prm

>  <Rbt.Receptor>
prm/pocket_docking_7.prm

>  <SCORE>
-10.9064

>  <SCORE.INTER>
-9.1686

>  <SCORE.INTER.CONST>
1

>  <SCORE.INTER.POLAR>
0

>  <SCORE.INTER.ROT>
7

>  <SCORE.INTER.SOLV>
10.6061

>  <SCORE.INTER.VDW>
-17.9144

>  <SCORE.INTER.norm>
-0.339578

>  <SCORE.INTRA>
-1.73778

>  <SCORE.INTRA.DIHEDRAL>
6.23258

>  <SCORE.INTRA.DIHEDRAL.0>
9.29433

>  <SCORE.INTRA.POLAR>
0

>  <SCORE.INTRA.POLAR.0>
0

>  <SCORE.INTRA.REPUL>
0

>  <SCORE.INTRA.REPUL.0>
0

>  <SCORE.INTRA.SOLV>
-1.62598

>  <SCORE.INTRA.SOLV.lig_0>
-48.5102

>  <SCORE.INTRA.VDW>
-4.04108

>  <SCORE.INTRA.VDW.0>
0.379549

>  <SCORE.INTRA.norm>
-0.0643622

>  <SCORE.RESTR>
0

>  <SCORE.RESTR.CAVITY>
0

>  <SCORE.RESTR.norm>
0

>  <SCORE.SYSTEM>
0

>  <SCORE.SYSTEM.CONST>
0

>  <SCORE.SYSTEM.DIHEDRAL>
0

>  <SCORE.SYSTEM.SOLV>
0

>  <SCORE.SYSTEM.norm>
0

>  <SCORE.heavy>
27

>  <SCORE.norm>
-0.40394

>  <RMSD>
6.763

$$$$
ligand
 OpenBabel11021811483D
libRbt.so/2013.1/901 2013/11/27
 27 29  0  0  0  0  0  0  0  0999 V2000
   41.9712   52.1207   33.2474 N   0  0  0  0  0  0  0  0  0  0  0  0
   43.2650   52.4436   33.8472 C   0  0  2  0  0  0  0  0  0  0  0  0
   43.0476   53.0089   35.2210 C   0  0  0  0  0  0  0  0  0  0  0  0
   42.0493   53.6819   35.4557 O   0  0  0  0  0  0  0  0  0  0  0  0
   44.0029   53.4744   32.9938 C   0  0  0  0  0  0  0  0  0  0  0  0
   45.3990   53.6694   33.5567 C   0  0  0  0  0  0  0  0  0  0  0  0
   46.3822   54.9185   32.6680 S   0  0  2  0  0  0  0  0  0  0  0  0
   47.7666   55.2868   33.7861 C   0  0  0  0  0  0  0  0  0  0  0  0
   45.5433   56.5525   33.1262 C   0  0  0  0  0  0  0  0  0  0  0  0
   45.7191   57.8118   32.1778 C   0  0  2  0  0  0  0  0  0  0  0  0
   45.2905   57.7078   30.8388 O   0  0  0  0  0  0  0  0  0  0  0  0
   46.9691   58.5970   32.1884 C   0  0  1  0  0  0  0  0  0  0  0  0
   47.7612   58.3571   33.3524 O   0  0  0  0  0  0  0  0  0  0  0  0
   47.5652   58.0116   30.8220 C   0  0  2  0  0  0  0  0  0  0  0  0
   48.6675   58.7584   30.4022 O   0  0  0  0  0  0  0  0  0  0  0  0
   46.3588   58.1848   29.9013 C   0  0  1  0  0  0  0  0  0  0  0  0
   43.8479   52.7612   36.1138 O   0  0  0  0  0  0  0  0  0  0  0  0
   49.0799   55.5174   26.4938 N   0  0  0  0  0  0  0  0  0  0  0  0
   49.4673   56.2572   27.5362 C   0  0  0  0  0  0  0  0  0  0  0  0
   48.5793   56.8573   28.3233 N   0  0  0  0  0  0  0  0  0  0  0  0
   47.2666   56.8336   28.0437 C   0  0  0  0  0  0  0  0  0  0  0  0
   46.8103   56.1062   26.9140 C   0  0  0  0  0  0  0  0  0  0  0  0
   47.7848   55.4253   26.1328 C   0  0  0  0  0  0  0  0  0  0  0  0
   47.4206   54.6835   25.0274 N   0  0  0  0  0  0  0  0  0  0  0  0
   45.4744   56.2489   26.8607 N   0  0  0  0  0  0  0  0  0  0  0  0
   45.0791   57.0019   27.8523 C   0  0  0  0  0  0  0  0  0  0  0  0
   46.1396   57.3850   28.6248 N   0  0  0  0  0  0  0  0  0  0  0  0
  2  1  1  6  0  0  0
  2  3  1  0  0  0  0
  2  5  1  0  0  0  0
  3  4  1  0  0  0  0
  3 17  1  0  0  0  0
  5  6  1  0  0  0  0
  7  6  1  1  0  0  0
  7  8  1  0  0  0  0
  7  9  1  0  0  0  0
 10  9  1  6  0  0  0
 10 11  1  0  0  0  0
 10 12  1  0  0  0  0
 11 16  1  0  0  0  0
 12 13  1  1  0  0  0
 12 14  1  0  0  0  0
 14 15  1  6  0  0  0
 14 16  1  0  0  0  0
 16 27  1  6  0  0  0
 18 19  2  0  0  0  0
 18 23  1  0  0  0  0
 19 20  1  0  0  0  0
 20 21  2  0  0  0  0
 21 22  1  0  0  0  0
 21 27  1  0  0  0  0
 22 23  2  0  0  0  0
 22 25  1  0  0  0  0
 23 24  1  0  0  0  0
 25 26  2  0  0  0  0
 26 27  1  0  0  0  0
M  END
>  <CHROM.1>
-33.02723428,-173.71344631,-178.09289447,164.58375617,-157.25021598,59.17299189
-134.16353011,46.08982870,55.79293382,31.00789572,2.40351660,0.91006836,1.27138822

>  <Name>
ligand

>  <RI>
0

>  <Rbt.Current_Directory>
/home/itssahil/PROJECTS/Mol_Feturizer/New_Systems/rnas/3IQR

>  <Rbt.Executable>
rbdock ($Id: //depot/dev/client3/rdock/2013.1/src/exe/rbdock.cxx#4 $)

>  <Rbt.Library>
libRbt.so (2013.1, Build901 2013/11/27)

>  <Rbt.Parameter_File>
/export/apps/rDock/src/rDock_2013.1_src/data/scripts/dock_solv.prm

>  <Rbt.Receptor>
prm/pocket_docking_8.prm

>  <SCORE>
-16.9635

>  <SCORE.INTER>
-11.7993

>  <SCORE.INTER.CONST>
1

>  <SCORE.INTER.POLAR>
0

>  <SCORE.INTER.ROT>
7

>  <SCORE.INTER.SOLV>
11.5061

>  <SCORE.INTER.VDW>
-19.9683

>  <SCORE.INTER.norm>
-0.437012

>  <SCORE.INTRA>
-5.16418

>  <SCORE.INTRA.DIHEDRAL>
-2.77776

>  <SCORE.INTRA.DIHEDRAL.0>
9.29433

>  <SCORE.INTRA.POLAR>
0

>  <SCORE.INTRA.POLAR.0>
0

>  <SCORE.INTRA.REPUL>
0

>  <SCORE.INTRA.REPUL.0>
0

>  <SCORE.INTRA.SOLV>
-1.30376

>  <SCORE.INTRA.SOLV.lig_0>
-48.5102

>  <SCORE.INTRA.VDW>
-3.12341

>  <SCORE.INTRA.VDW.0>
0.379549

>  <SCORE.INTRA.norm>
-0.191266

>  <SCORE.RESTR>
0

>  <SCORE.RESTR.CAVITY>
0

>  <SCORE.RESTR.norm>
0

>  <SCORE.SYSTEM>
0

>  <SCORE.SYSTEM.CONST>
0

>  <SCORE.SYSTEM.DIHEDRAL>
0

>  <SCORE.SYSTEM.SOLV>
0

>  <SCORE.SYSTEM.norm>
0

>  <SCORE.heavy>
27

>  <SCORE.norm>
-0.628278

>  <RMSD>
6.802

$$$$
ligand
 OpenBabel11021811483D
libRbt.so/2013.1/901 2013/11/27
 27 29  0  0  0  0  0  0  0  0999 V2000
   43.4977   55.1327   32.0560 N   0  0  0  0  0  0  0  0  0  0  0  0
   44.5894   54.5911   32.8639 C   0  0  2  0  0  0  0  0  0  0  0  0
   44.0200   53.7288   33.9530 C   0  0  0  0  0  0  0  0  0  0  0  0
   42.8831   53.9336   34.3654 O   0  0  0  0  0  0  0  0  0  0  0  0
   45.3957   55.7255   33.4950 C   0  0  0  0  0  0  0  0  0  0  0  0
   46.0043   56.5696   32.3899 C   0  0  0  0  0  0  0  0  0  0  0  0
   47.3416   57.6687   32.9559 S   0  0  2  0  0  0  0  0  0  0  0  0
   47.2057   59.1352   31.8915 C   0  0  0  0  0  0  0  0  0  0  0  0
   48.8507   57.0698   31.9825 C   0  0  0  0  0  0  0  0  0  0  0  0
   49.4610   55.6389   32.2928 C   0  0  2  0  0  0  0  0  0  0  0  0
   49.6952   54.7616   31.2145 O   0  0  0  0  0  0  0  0  0  0  0  0
   48.9614   54.8340   33.4250 C   0  0  1  0  0  0  0  0  0  0  0  0
   48.2241   55.6099   34.3704 O   0  0  0  0  0  0  0  0  0  0  0  0
   48.0918   53.8101   32.5528 C   0  0  2  0  0  0  0  0  0  0  0  0
   47.6724   52.7291   33.3301 O   0  0  0  0  0  0  0  0  0  0  0  0
   49.1213   53.4061   31.4991 C   0  0  1  0  0  0  0  0  0  0  0  0
   44.6784   52.7970   34.3973 O   0  0  0  0  0  0  0  0  0  0  0  0
   51.3307   52.5551   26.9687 N   0  0  0  0  0  0  0  0  0  0  0  0
   51.7884   53.1678   28.0637 C   0  0  0  0  0  0  0  0  0  0  0  0
   51.0460   53.2599   29.1631 N   0  0  0  0  0  0  0  0  0  0  0  0
   49.7720   52.8374   29.1853 C   0  0  0  0  0  0  0  0  0  0  0  0
   49.2219   52.2290   28.0274 C   0  0  0  0  0  0  0  0  0  0  0  0
   50.0677   52.0917   26.8919 C   0  0  0  0  0  0  0  0  0  0  0  0
   49.6128   51.4971   25.7323 N   0  0  0  0  0  0  0  0  0  0  0  0
   47.9479   51.9077   28.3127 N   0  0  0  0  0  0  0  0  0  0  0  0
   47.6730   52.2714   29.5369 C   0  0  0  0  0  0  0  0  0  0  0  0
   48.7637   52.8416   30.1313 N   0  0  0  0  0  0  0  0  0  0  0  0
  2  1  1  1  0  0  0
  2  3  1  0  0  0  0
  2  5  1  0  0  0  0
  3  4  1  0  0  0  0
  3 17  1  0  0  0  0
  5  6  1  0  0  0  0
  7  6  1  6  0  0  0
  7  8  1  0  0  0  0
  7  9  1  0  0  0  0
 10  9  1  6  0  0  0
 10 11  1  0  0  0  0
 10 12  1  0  0  0  0
 11 16  1  0  0  0  0
 12 13  1  1  0  0  0
 12 14  1  0  0  0  0
 14 15  1  1  0  0  0
 14 16  1  0  0  0  0
 16 27  1  6  0  0  0
 18 19  2  0  0  0  0
 18 23  1  0  0  0  0
 19 20  1  0  0  0  0
 20 21  2  0  0  0  0
 21 22  1  0  0  0  0
 21 27  1  0  0  0  0
 22 23  2  0  0  0  0
 22 25  1  0  0  0  0
 23 24  1  0  0  0  0
 25 26  2  0  0  0  0
 26 27  1  0  0  0  0
M  END
>  <CHROM.1>
-26.27388313,-61.66134529,-164.24268309,-147.16169293,-68.05245685,129.65981720
53.14531579,47.79792825,54.35251603,31.33659698,2.34060247,0.56166743,0.60000669

>  <Name>
ligand

>  <RI>
0

>  <Rbt.Current_Directory>
/home/itssahil/PROJECTS/Mol_Feturizer/New_Systems/rnas/3IQR

>  <Rbt.Executable>
rbdock ($Id: //depot/dev/client3/rdock/2013.1/src/exe/rbdock.cxx#4 $)

>  <Rbt.Library>
libRbt.so (2013.1, Build901 2013/11/27)

>  <Rbt.Parameter_File>
/export/apps/rDock/src/rDock_2013.1_src/data/scripts/dock_solv.prm

>  <Rbt.Receptor>
prm/pocket_docking_6.prm

>  <SCORE>
-17.2934

>  <SCORE.INTER>
-16.0907

>  <SCORE.INTER.CONST>
1

>  <SCORE.INTER.POLAR>
0

>  <SCORE.INTER.ROT>
7

>  <SCORE.INTER.SOLV>
10.1518

>  <SCORE.INTER.VDW>
-22.3778

>  <SCORE.INTER.norm>
-0.595953

>  <SCORE.INTRA>
-1.20266

>  <SCORE.INTRA.DIHEDRAL>
2.62044

>  <SCORE.INTRA.DIHEDRAL.0>
9.29433

>  <SCORE.INTRA.POLAR>
0

>  <SCORE.INTRA.POLAR.0>
0

>  <SCORE.INTRA.REPUL>
0

>  <SCORE.INTRA.REPUL.0>
0

>  <SCORE.INTRA.SOLV>
0.178691

>  <SCORE.INTRA.SOLV.lig_0>
-48.5102

>  <SCORE.INTRA.VDW>
-2.60223

>  <SCORE.INTRA.VDW.0>
0.379549

>  <SCORE.INTRA.norm>
-0.044543

>  <SCORE.RESTR>
0

>  <SCORE.RESTR.CAVITY>
0

>  <SCORE.RESTR.norm>
0

>  <SCORE.SYSTEM>
0

>  <SCORE.SYSTEM.CONST>
0

>  <SCORE.SYSTEM.DIHEDRAL>
0

>  <SCORE.SYSTEM.SOLV>
0

>  <SCORE.SYSTEM.norm>
0

>  <SCORE.heavy>
27

>  <SCORE.norm>
-0.640496

>  <RMSD>
6.808

$$$$
ligand
 OpenBabel11021811483D
libRbt.so/2013.1/901 2013/11/27
 27 29  0  0  0  0  0  0  0  0999 V2000
   47.2506   53.4679   32.9825 N   0  0  0  0  0  0  0  0  0  0  0  0
   48.3342   54.0455   33.7763 C   0  0  2  0  0  0  0  0  0  0  0  0
   48.0829   53.7730   35.2312 C   0  0  0  0  0  0  0  0  0  0  0  0
   49.0268   53.5796   35.9902 O   0  0  0  0  0  0  0  0  0  0  0  0
   48.4061   55.5560   33.5561 C   0  0  0  0  0  0  0  0  0  0  0  0
   48.7479   55.8248   32.1018 C   0  0  0  0  0  0  0  0  0  0  0  0
   48.7001   57.5881   31.6491 S   0  0  2  0  0  0  0  0  0  0  0  0
   49.6860   58.4139   32.9329 C   0  0  0  0  0  0  0  0  0  0  0  0
   47.0977   58.2077   32.4443 C   0  0  0  0  0  0  0  0  0  0  0  0
   45.7163   57.9701   31.7017 C   0  0  2  0  0  0  0  0  0  0  0  0
   45.4832   56.7144   31.1049 O   0  0  0  0  0  0  0  0  0  0  0  0
   45.1505   59.0018   30.8103 C   0  0  1  0  0  0  0  0  0  0  0  0
   45.7372   60.2880   31.0133 O   0  0  0  0  0  0  0  0  0  0  0  0
   45.5350   58.2838   29.4312 C   0  0  2  0  0  0  0  0  0  0  0  0
   44.8976   58.9040   28.3552 O   0  0  0  0  0  0  0  0  0  0  0  0
   44.9980   56.8785   29.6959 C   0  0  1  0  0  0  0  0  0  0  0  0
   46.9373   53.7859   35.6629 O   0  0  0  0  0  0  0  0  0  0  0  0
   47.4567   55.6133   25.3965 N   0  0  0  0  0  0  0  0  0  0  0  0
   47.0185   56.7953   25.8381 C   0  0  0  0  0  0  0  0  0  0  0  0
   46.4148   56.9097   27.0173 N   0  0  0  0  0  0  0  0  0  0  0  0
   46.1257   55.8319   27.7637 C   0  0  0  0  0  0  0  0  0  0  0  0
   46.5218   54.5470   27.3105 C   0  0  0  0  0  0  0  0  0  0  0  0
   47.2214   54.4725   26.0741 C   0  0  0  0  0  0  0  0  0  0  0  0
   47.6542   53.2619   25.5721 N   0  0  0  0  0  0  0  0  0  0  0  0
   46.1109   53.6558   28.2296 N   0  0  0  0  0  0  0  0  0  0  0  0
   45.4959   54.2828   29.1966 C   0  0  0  0  0  0  0  0  0  0  0  0
   45.4828   55.6308   28.9711 N   0  0  0  0  0  0  0  0  0  0  0  0
  2  1  1  6  0  0  0
  2  3  1  0  0  0  0
  2  5  1  0  0  0  0
  3  4  1  0  0  0  0
  3 17  1  0  0  0  0
  5  6  1  0  0  0  0
  7  6  1  1  0  0  0
  7  8  1  0  0  0  0
  7  9  1  0  0  0  0
 10  9  1  6  0  0  0
 10 11  1  0  0  0  0
 10 12  1  0  0  0  0
 11 16  1  0  0  0  0
 12 13  1  6  0  0  0
 12 14  1  0  0  0  0
 14 15  1  6  0  0  0
 14 16  1  0  0  0  0
 16 27  1  6  0  0  0
 18 19  2  0  0  0  0
 18 23  1  0  0  0  0
 19 20  1  0  0  0  0
 20 21  2  0  0  0  0
 21 22  1  0  0  0  0
 21 27  1  0  0  0  0
 22 23  2  0  0  0  0
 22 25  1  0  0  0  0
 23 24  1  0  0  0  0
 25 26  2  0  0  0  0
 26 27  1  0  0  0  0
M  END
>  <CHROM.1>
146.13068941,-63.51788608,174.05250978,49.50039872,-81.77473192,42.68937727
-131.40874869,46.95901292,56.15921227,30.52846645,-0.73194701,1.25254291
-2.26596124

>  <Name>
ligand

>  <RI>
0

>  <Rbt.Current_Directory>
/home/itssahil/PROJECTS/Mol_Feturizer/New_Systems/rnas/3IQR

>  <Rbt.Executable>
rbdock ($Id: //depot/dev/client3/rdock/2013.1/src/exe/rbdock.cxx#4 $)

>  <Rbt.Library>
libRbt.so (2013.1, Build901 2013/11/27)

>  <Rbt.Parameter_File>
/export/apps/rDock/src/rDock_2013.1_src/data/scripts/dock_solv.prm

>  <Rbt.Receptor>
prm/pocket_docking_4.prm

>  <SCORE>
-17.9047

>  <SCORE.INTER>
-12.8558

>  <SCORE.INTER.CONST>
1

>  <SCORE.INTER.POLAR>
0

>  <SCORE.INTER.ROT>
7

>  <SCORE.INTER.SOLV>
9.84062

>  <SCORE.INTER.VDW>
-20.1174

>  <SCORE.INTER.norm>
-0.476143

>  <SCORE.INTRA>
-5.04897

>  <SCORE.INTRA.DIHEDRAL>
-3.8842

>  <SCORE.INTRA.DIHEDRAL.0>
9.29433

>  <SCORE.INTRA.POLAR>
0

>  <SCORE.INTRA.POLAR.0>
0

>  <SCORE.INTRA.REPUL>
0

>  <SCORE.INTRA.REPUL.0>
0

>  <SCORE.INTRA.SOLV>
-0.656748

>  <SCORE.INTRA.SOLV.lig_0>
-48.5102

>  <SCORE.INTRA.VDW>
-2.7785

>  <SCORE.INTRA.VDW.0>
0.379549

>  <SCORE.INTRA.norm>
-0.186999

>  <SCORE.RESTR>
0.000113725

>  <SCORE.RESTR.CAVITY>
0.000113725

>  <SCORE.RESTR.norm>
4.21205e-06

>  <SCORE.SYSTEM>
0

>  <SCORE.SYSTEM.CONST>
0

>  <SCORE.SYSTEM.DIHEDRAL>
0

>  <SCORE.SYSTEM.SOLV>
0

>  <SCORE.SYSTEM.norm>
0

>  <SCORE.heavy>
27

>  <SCORE.norm>
-0.663137

>  <RMSD>
6.886

$$$$
ligand
 OpenBabel11021811483D
libRbt.so/2013.1/901 2013/11/27
 27 29  0  0  0  0  0  0  0  0999 V2000
   44.3095   54.4103   33.6698 N   0  0  0  0  0  0  0  0  0  0  0  0
   45.0081   55.6934   33.6115 C   0  0  2  0  0  0  0  0  0  0  0  0
   44.3724   56.5570   32.5607 C   0  0  0  0  0  0  0  0  0  0  0  0
   44.5056   57.7754   32.6061 O   0  0  0  0  0  0  0  0  0  0  0  0
   46.4800   55.4806   33.2599 C   0  0  0  0  0  0  0  0  0  0  0  0
   47.2068   56.8091   33.3630 C   0  0  0  0  0  0  0  0  0  0  0  0
   48.9644   56.7240   32.8937 S   0  0  2  0  0  0  0  0  0  0  0  0
   49.4706   58.4598   32.7111 C   0  0  0  0  0  0  0  0  0  0  0  0
   48.9123   56.5142   31.0130 C   0  0  0  0  0  0  0  0  0  0  0  0
   49.7197   55.3270   30.3384 C   0  0  2  0  0  0  0  0  0  0  0  0
   49.9196   55.3596   28.9434 O   0  0  0  0  0  0  0  0  0  0  0  0
   49.4620   53.9248   30.7215 C   0  0  1  0  0  0  0  0  0  0  0  0
   48.7618   53.8114   31.9610 O   0  0  0  0  0  0  0  0  0  0  0  0
   48.6170   53.5311   29.4191 C   0  0  2  0  0  0  0  0  0  0  0  0
   48.4266   52.1497   29.3510 O   0  0  0  0  0  0  0  0  0  0  0  0
   49.5480   54.0462   28.3233 C   0  0  1  0  0  0  0  0  0  0  0  0
   43.7573   56.0380   31.6380 O   0  0  0  0  0  0  0  0  0  0  0  0
   48.2444   51.6886   23.9790 N   0  0  0  0  0  0  0  0  0  0  0  0
   48.7261   51.2040   25.1267 C   0  0  0  0  0  0  0  0  0  0  0  0
   48.9788   52.0022   26.1597 N   0  0  0  0  0  0  0  0  0  0  0  0
   48.8623   53.3358   26.0593 C   0  0  0  0  0  0  0  0  0  0  0  0
   48.4068   53.9033   24.8411 C   0  0  0  0  0  0  0  0  0  0  0  0
   48.0864   53.0120   23.7797 C   0  0  0  0  0  0  0  0  0  0  0  0
   47.6224   53.4838   22.5685 N   0  0  0  0  0  0  0  0  0  0  0  0
   48.3867   55.2376   25.0056 N   0  0  0  0  0  0  0  0  0  0  0  0
   48.7946   55.5318   26.2112 C   0  0  0  0  0  0  0  0  0  0  0  0
   49.0923   54.3979   26.9141 N   0  0  0  0  0  0  0  0  0  0  0  0
  2  1  1  6  0  0  0
  2  3  1  0  0  0  0
  2  5  1  0  0  0  0
  3  4  1  0  0  0  0
  3 17  1  0  0  0  0
  5  6  1  0  0  0  0
  7  6  1  6  0  0  0
  7  8  1  0  0  0  0
  7  9  1  0  0  0  0
 10  9  1  6  0  0  0
 10 11  1  0  0  0  0
 10 12  1  0  0  0  0
 11 16  1  0  0  0  0
 12 13  1  1  0  0  0
 12 14  1  0  0  0  0
 14 15  1  6  0  0  0
 14 16  1  0  0  0  0
 16 27  1  6  0  0  0
 18 19  2  0  0  0  0
 18 23  1  0  0  0  0
 19 20  1  0  0  0  0
 20 21  2  0  0  0  0
 21 22  1  0  0  0  0
 21 27  1  0  0  0  0
 22 23  2  0  0  0  0
 22 25  1  0  0  0  0
 23 24  1  0  0  0  0
 25 26  2  0  0  0  0
 26 27  1  0  0  0  0
M  END
>  <CHROM.1>
157.81646448,-173.61394944,-177.28362777,166.57171735,-127.93148861,-165.87252979
171.50969504,47.90218778,54.82074167,29.44354216,1.80112188,0.09174381,1.15783068

>  <Name>
ligand

>  <RI>
0

>  <Rbt.Current_Directory>
/home/itssahil/PROJECTS/Mol_Feturizer/New_Systems/rnas/3IQR

>  <Rbt.Executable>
rbdock ($Id: //depot/dev/client3/rdock/2013.1/src/exe/rbdock.cxx#4 $)

>  <Rbt.Library>
libRbt.so (2013.1, Build901 2013/11/27)

>  <Rbt.Parameter_File>
/export/apps/rDock/src/rDock_2013.1_src/data/scripts/dock_solv.prm

>  <Rbt.Receptor>
prm/pocket_docking_7.prm

>  <SCORE>
-16.212

>  <SCORE.INTER>
-12.5395

>  <SCORE.INTER.CONST>
1

>  <SCORE.INTER.POLAR>
0

>  <SCORE.INTER.ROT>
7

>  <SCORE.INTER.SOLV>
11.0302

>  <SCORE.INTER.VDW>
-20.3031

>  <SCORE.INTER.norm>
-0.464426

>  <SCORE.INTRA>
-3.67246

>  <SCORE.INTRA.DIHEDRAL>
-0.223952

>  <SCORE.INTRA.DIHEDRAL.0>
9.29433

>  <SCORE.INTRA.POLAR>
0

>  <SCORE.INTRA.POLAR.0>
0

>  <SCORE.INTRA.REPUL>
0

>  <SCORE.INTRA.REPUL.0>
0

>  <SCORE.INTRA.SOLV>
-1.35092

>  <SCORE.INTRA.SOLV.lig_0>
-48.5102

>  <SCORE.INTRA.VDW>
-2.88502

>  <SCORE.INTRA.VDW.0>
0.379549

>  <SCORE.INTRA.norm>
-0.136017

>  <SCORE.RESTR>
0

>  <SCORE.RESTR.CAVITY>
0

>  <SCORE.RESTR.norm>
0

>  <SCORE.SYSTEM>
0

>  <SCORE.SYSTEM.CONST>
0

>  <SCORE.SYSTEM.DIHEDRAL>
0

>  <SCORE.SYSTEM.SOLV>
0

>  <SCORE.SYSTEM.norm>
0

>  <SCORE.heavy>
27

>  <SCORE.norm>
-0.600443

>  <RMSD>
6.908

$$$$
ligand
 OpenBabel11021811483D
libRbt.so/2013.1/901 2013/11/27
 27 29  0  0  0  0  0  0  0  0999 V2000
   48.4696   56.3543   33.2218 N   0  0  0  0  0  0  0  0  0  0  0  0
   47.8282   57.3069   32.3167 C   0  0  2  0  0  0  0  0  0  0  0  0
   48.3253   58.6908   32.6197 C   0  0  0  0  0  0  0  0  0  0  0  0
   49.0555   58.8815   33.5866 O   0  0  0  0  0  0  0  0  0  0  0  0
   46.3111   57.2705   32.4965 C   0  0  0  0  0  0  0  0  0  0  0  0
   45.8150   55.8666   32.2018 C   0  0  0  0  0  0  0  0  0  0  0  0
   44.0019   55.7354   32.0919 S   0  0  2  0  0  0  0  0  0  0  0  0
   43.5979   54.2284   33.0235 C   0  0  0  0  0  0  0  0  0  0  0  0
   43.7205   54.8294   30.4536 C   0  0  0  0  0  0  0  0  0  0  0  0
   44.2410   53.3402   30.2871 C   0  0  2  0  0  0  0  0  0  0  0  0
   45.6201   53.0910   30.4388 O   0  0  0  0  0  0  0  0  0  0  0  0
   43.7497   52.4868   29.1873 C   0  0  1  0  0  0  0  0  0  0  0  0
   42.5458   52.9824   28.6003 O   0  0  0  0  0  0  0  0  0  0  0  0
   45.0567   52.6007   28.2687 C   0  0  2  0  0  0  0  0  0  0  0  0
   45.0123   51.6727   27.2267 O   0  0  0  0  0  0  0  0  0  0  0  0
   46.1407   52.2743   29.2943 C   0  0  1  0  0  0  0  0  0  0  0  0
   48.0330   59.6181   31.8756 O   0  0  0  0  0  0  0  0  0  0  0  0
   50.0444   51.6475   26.0542 N   0  0  0  0  0  0  0  0  0  0  0  0
   48.8207   51.1122   26.0633 C   0  0  0  0  0  0  0  0  0  0  0  0
   47.9343   51.4351   27.0005 N   0  0  0  0  0  0  0  0  0  0  0  0
   48.2639   52.2269   28.0332 C   0  0  0  0  0  0  0  0  0  0  0  0
   49.5706   52.7761   28.0977 C   0  0  0  0  0  0  0  0  0  0  0  0
   50.4705   52.4580   27.0429 C   0  0  0  0  0  0  0  0  0  0  0  0
   51.7542   52.9646   27.0242 N   0  0  0  0  0  0  0  0  0  0  0  0
   49.6373   53.5163   29.2182 N   0  0  0  0  0  0  0  0  0  0  0  0
   48.4914   53.4612   29.8428 C   0  0  0  0  0  0  0  0  0  0  0  0
   47.5987   52.6887   29.1539 N   0  0  0  0  0  0  0  0  0  0  0  0
  2  1  1  1  0  0  0
  2  3  1  0  0  0  0
  2  5  1  0  0  0  0
  3  4  1  0  0  0  0
  3 17  1  0  0  0  0
  5  6  1  0  0  0  0
  7  6  1  6  0  0  0
  7  8  1  0  0  0  0
  7  9  1  0  0  0  0
 10  9  1  6  0  0  0
 10 11  1  0  0  0  0
 10 12  1  0  0  0  0
 11 16  1  0  0  0  0
 12 13  1  6  0  0  0
 12 14  1  0  0  0  0
 14 15  1  6  0  0  0
 14 16  1  0  0  0  0
 16 27  1  6  0  0  0
 18 19  2  0  0  0  0
 18 23  1  0  0  0  0
 19 20  1  0  0  0  0
 20 21  2  0  0  0  0
 21 22  1  0  0  0  0
 21 27  1  0  0  0  0
 22 23  2  0  0  0  0
 22 25  1  0  0  0  0
 23 24  1  0  0  0  0
 25 26  2  0  0  0  0
 26 27  1  0  0  0  0
M  END
>  <CHROM.1>
-6.24417236,-59.42407500,-169.93890308,-136.18406547,64.23537108,-59.60419623
-170.57775551,46.82695040,54.26100830,29.96847209,-1.81979551,-0.22736581
-2.40751990

>  <Name>
ligand

>  <RI>
0

>  <Rbt.Current_Directory>
/home/itssahil/PROJECTS/Mol_Feturizer/New_Systems/rnas/3IQR

>  <Rbt.Executable>
rbdock ($Id: //depot/dev/client3/rdock/2013.1/src/exe/rbdock.cxx#4 $)

>  <Rbt.Library>
libRbt.so (2013.1, Build901 2013/11/27)

>  <Rbt.Parameter_File>
/export/apps/rDock/src/rDock_2013.1_src/data/scripts/dock_solv.prm

>  <Rbt.Receptor>
prm/pocket_docking_8.prm

>  <SCORE>
-11.9184

>  <SCORE.INTER>
-9.37122

>  <SCORE.INTER.CONST>
1

>  <SCORE.INTER.POLAR>
0

>  <SCORE.INTER.ROT>
7

>  <SCORE.INTER.SOLV>
14.6719

>  <SCORE.INTER.VDW>
-19.4048

>  <SCORE.INTER.norm>
-0.347082

>  <SCORE.INTRA>
-2.54715

>  <SCORE.INTRA.DIHEDRAL>
-0.76228

>  <SCORE.INTRA.DIHEDRAL.0>
9.29433

>  <SCORE.INTRA.POLAR>
0

>  <SCORE.INTRA.POLAR.0>
0

>  <SCORE.INTRA.REPUL>
0

>  <SCORE.INTRA.REPUL.0>
0

>  <SCORE.INTRA.SOLV>
-0.911153

>  <SCORE.INTRA.SOLV.lig_0>
-48.5102

>  <SCORE.INTRA.VDW>
-1.71043

>  <SCORE.INTRA.VDW.0>
0.379549

>  <SCORE.INTRA.norm>
-0.0943388

>  <SCORE.RESTR>
0

>  <SCORE.RESTR.CAVITY>
0

>  <SCORE.RESTR.norm>
0

>  <SCORE.SYSTEM>
0

>  <SCORE.SYSTEM.CONST>
0

>  <SCORE.SYSTEM.DIHEDRAL>
0

>  <SCORE.SYSTEM.SOLV>
0

>  <SCORE.SYSTEM.norm>
0

>  <SCORE.heavy>
27

>  <SCORE.norm>
-0.441421

>  <RMSD>
6.961

$$$$
ligand
 OpenBabel11021811483D
libRbt.so/2013.1/901 2013/11/27
 27 29  0  0  0  0  0  0  0  0999 V2000
   46.7985   57.6541   31.2717 N   0  0  0  0  0  0  0  0  0  0  0  0
   47.1691   58.6757   32.2498 C   0  0  2  0  0  0  0  0  0  0  0  0
   46.9504   60.0361   31.6534 C   0  0  0  0  0  0  0  0  0  0  0  0
   47.8562   60.5879   31.0374 O   0  0  0  0  0  0  0  0  0  0  0  0
   48.6403   58.5307   32.6369 C   0  0  0  0  0  0  0  0  0  0  0  0
   48.7526   57.5341   33.7763 C   0  0  0  0  0  0  0  0  0  0  0  0
   48.0433   55.9003   33.3967 S   0  0  2  0  0  0  0  0  0  0  0  0
   48.7463   54.7957   34.6569 C   0  0  0  0  0  0  0  0  0  0  0  0
   49.2186   55.1988   32.0888 C   0  0  0  0  0  0  0  0  0  0  0  0
   49.0290   53.7044   31.5917 C   0  0  2  0  0  0  0  0  0  0  0  0
   49.9925   53.1611   30.7177 O   0  0  0  0  0  0  0  0  0  0  0  0
   47.7052   53.2141   31.1599 C   0  0  1  0  0  0  0  0  0  0  0  0
   46.6357   54.0496   31.6044 O   0  0  0  0  0  0  0  0  0  0  0  0
   47.9984   53.2564   29.5858 C   0  0  2  0  0  0  0  0  0  0  0  0
   46.9944   52.5943   28.8770 O   0  0  0  0  0  0  0  0  0  0  0  0
   49.3330   52.5152   29.5365 C   0  0  1  0  0  0  0  0  0  0  0  0
   45.8539   60.5724   31.7489 O   0  0  0  0  0  0  0  0  0  0  0  0
   50.0109   50.8878   24.7382 N   0  0  0  0  0  0  0  0  0  0  0  0
   49.0793   50.5775   25.6437 C   0  0  0  0  0  0  0  0  0  0  0  0
   49.0714   51.1446   26.8465 N   0  0  0  0  0  0  0  0  0  0  0  0
   50.0555   51.9692   27.2385 C   0  0  0  0  0  0  0  0  0  0  0  0
   51.0986   52.2864   26.3305 C   0  0  0  0  0  0  0  0  0  0  0  0
   51.0379   51.7095   25.0316 C   0  0  0  0  0  0  0  0  0  0  0  0
   52.0057   51.9804   24.0856 N   0  0  0  0  0  0  0  0  0  0  0  0
   51.9439   53.1153   26.9678 N   0  0  0  0  0  0  0  0  0  0  0  0
   51.5115   53.3252   28.1825 C   0  0  0  0  0  0  0  0  0  0  0  0
   50.3426   52.6529   28.4055 N   0  0  0  0  0  0  0  0  0  0  0  0
  2  1  1  6  0  0  0
  2  3  1  0  0  0  0
  2  5  1  0  0  0  0
  3  4  1  0  0  0  0
  3 17  1  0  0  0  0
  5  6  1  0  0  0  0
  7  6  1  1  0  0  0
  7  8  1  0  0  0  0
  7  9  1  0  0  0  0
 10  9  1  6  0  0  0
 10 11  1  0  0  0  0
 10 12  1  0  0  0  0
 11 16  1  0  0  0  0
 12 13  1  6  0  0  0
 12 14  1  0  0  0  0
 14 15  1  6  0  0  0
 14 16  1  0  0  0  0
 16 27  1  6  0  0  0
 18 19  2  0  0  0  0
 18 23  1  0  0  0  0
 19 20  1  0  0  0  0
 20 21  2  0  0  0  0
 21 22  1  0  0  0  0
 21 27  1  0  0  0  0
 22 23  2  0  0  0  0
 22 25  1  0  0  0  0
 23 24  1  0  0  0  0
 25 26  2  0  0  0  0
 26 27  1  0  0  0  0
M  END
>  <CHROM.1>
-90.03524607,-86.75976505,56.85483151,163.03847919,173.84686713,-173.83745022
171.29489293,48.85576815,54.65295244,29.94032241,-2.94220629,-1.25457782
2.55763968

>  <Name>
ligand

>  <RI>
0

>  <Rbt.Current_Directory>
/home/itssahil/PROJECTS/Mol_Feturizer/New_Systems/rnas/3IQR

>  <Rbt.Executable>
rbdock ($Id: //depot/dev/client3/rdock/2013.1/src/exe/rbdock.cxx#4 $)

>  <Rbt.Library>
libRbt.so (2013.1, Build901 2013/11/27)

>  <Rbt.Parameter_File>
/export/apps/rDock/src/rDock_2013.1_src/data/scripts/dock_solv.prm

>  <Rbt.Receptor>
prm/pocket_docking_8.prm

>  <SCORE>
-25.506

>  <SCORE.INTER>
-22.6201

>  <SCORE.INTER.CONST>
1

>  <SCORE.INTER.POLAR>
0

>  <SCORE.INTER.ROT>
7

>  <SCORE.INTER.SOLV>
7.42861

>  <SCORE.INTER.VDW>
-25.8229

>  <SCORE.INTER.norm>
-0.837781

>  <SCORE.INTRA>
-2.88596

>  <SCORE.INTRA.DIHEDRAL>
-2.78454

>  <SCORE.INTRA.DIHEDRAL.0>
9.29433

>  <SCORE.INTRA.POLAR>
0

>  <SCORE.INTRA.POLAR.0>
0

>  <SCORE.INTRA.REPUL>
0.0144248

>  <SCORE.INTRA.REPUL.0>
0

>  <SCORE.INTRA.SOLV>
1.54135

>  <SCORE.INTRA.SOLV.lig_0>
-48.5102

>  <SCORE.INTRA.VDW>
-2.33648

>  <SCORE.INTRA.VDW.0>
0.379549

>  <SCORE.INTRA.norm>
-0.106887

>  <SCORE.RESTR>
0

>  <SCORE.RESTR.CAVITY>
0

>  <SCORE.RESTR.norm>
0

>  <SCORE.SYSTEM>
0

>  <SCORE.SYSTEM.CONST>
0

>  <SCORE.SYSTEM.DIHEDRAL>
0

>  <SCORE.SYSTEM.SOLV>
0

>  <SCORE.SYSTEM.norm>
0

>  <SCORE.heavy>
27

>  <SCORE.norm>
-0.944668

>  <RMSD>
6.971

$$$$
ligand
 OpenBabel11021811483D
libRbt.so/2013.1/901 2013/11/27
 27 29  0  0  0  0  0  0  0  0999 V2000
   49.2440   54.0091   35.4050 N   0  0  0  0  0  0  0  0  0  0  0  0
   47.9339   54.2226   34.7919 C   0  0  2  0  0  0  0  0  0  0  0  0
   47.6736   53.1378   33.7872 C   0  0  0  0  0  0  0  0  0  0  0  0
   46.5220   52.8622   33.4675 O   0  0  0  0  0  0  0  0  0  0  0  0
   47.8929   55.5774   34.0862 C   0  0  0  0  0  0  0  0  0  0  0  0
   49.0198   55.6368   33.0710 C   0  0  0  0  0  0  0  0  0  0  0  0
   48.9657   57.1069   31.9975 S   0  0  2  0  0  0  0  0  0  0  0  0
   49.0066   58.5122   33.1488 C   0  0  0  0  0  0  0  0  0  0  0  0
   47.1150   57.3714   31.6995 C   0  0  0  0  0  0  0  0  0  0  0  0
   46.2547   56.2050   31.0548 C   0  0  2  0  0  0  0  0  0  0  0  0
   46.7757   55.5290   29.9329 O   0  0  0  0  0  0  0  0  0  0  0  0
   44.8017   56.3638   30.8475 C   0  0  1  0  0  0  0  0  0  0  0  0
   44.2487   57.4332   31.6156 O   0  0  0  0  0  0  0  0  0  0  0  0
   44.8686   56.6187   29.2677 C   0  0  2  0  0  0  0  0  0  0  0  0
   43.5939   56.5580   28.7017 O   0  0  0  0  0  0  0  0  0  0  0  0
   45.7530   55.4492   28.8395 C   0  0  1  0  0  0  0  0  0  0  0  0
   48.6151   52.5596   33.2595 O   0  0  0  0  0  0  0  0  0  0  0  0
   49.0185   52.3714   26.3911 N   0  0  0  0  0  0  0  0  0  0  0  0
   48.4602   52.2699   27.6003 C   0  0  0  0  0  0  0  0  0  0  0  0
   47.6029   53.1852   28.0425 N   0  0  0  0  0  0  0  0  0  0  0  0
   47.3444   54.2999   27.3405 C   0  0  0  0  0  0  0  0  0  0  0  0
   47.9570   54.4801   26.0734 C   0  0  0  0  0  0  0  0  0  0  0  0
   48.8187   53.4489   25.6068 C   0  0  0  0  0  0  0  0  0  0  0  0
   49.4406   53.5414   24.3782 N   0  0  0  0  0  0  0  0  0  0  0  0
   47.5382   55.6640   25.5927 N   0  0  0  0  0  0  0  0  0  0  0  0
   46.7318   56.2214   26.4560 C   0  0  0  0  0  0  0  0  0  0  0  0
   46.5639   55.4215   27.5515 N   0  0  0  0  0  0  0  0  0  0  0  0
  2  1  1  6  0  0  0
  2  3  1  0  0  0  0
  2  5  1  0  0  0  0
  3  4  1  0  0  0  0
  3 17  1  0  0  0  0
  5  6  1  0  0  0  0
  7  6  1  1  0  0  0
  7  8  1  0  0  0  0
  7  9  1  0  0  0  0
 10  9  1  6  0  0  0
 10 11  1  0  0  0  0
 10 12  1  0  0  0  0
 11 16  1  0  0  0  0
 12 13  1  1  0  0  0
 12 14  1  0  0  0  0
 14 15  1  6  0  0  0
 14 16  1  0  0  0  0
 16 27  1  6  0  0  0
 18 19  2  0  0  0  0
 18 23  1  0  0  0  0
 19 20  1  0  0  0  0
 20 21  2  0  0  0  0
 21 22  1  0  0  0  0
 21 27  1  0  0  0  0
 22 23  2  0  0  0  0
 22 25  1  0  0  0  0
 23 24  1  0  0  0  0
 25 26  2  0  0  0  0
 26 27  1  0  0  0  0
M  END
>  <CHROM.1>
157.01895279,56.36853380,172.40237677,57.36134813,-57.63462310,-45.52095285
66.60827619,47.37206356,55.16613046,30.19199519,-1.52373834,0.85196198,-1.74663174

>  <Name>
ligand

>  <RI>
0

>  <Rbt.Current_Directory>
/home/itssahil/PROJECTS/Mol_Feturizer/New_Systems/rnas/3IQR

>  <Rbt.Executable>
rbdock ($Id: //depot/dev/client3/rdock/2013.1/src/exe/rbdock.cxx#4 $)

>  <Rbt.Library>
libRbt.so (2013.1, Build901 2013/11/27)

>  <Rbt.Parameter_File>
/export/apps/rDock/src/rDock_2013.1_src/data/scripts/dock_solv.prm

>  <Rbt.Receptor>
prm/pocket_docking_4.prm

>  <SCORE>
-12.8277

>  <SCORE.INTER>
-8.69312

>  <SCORE.INTER.CONST>
1

>  <SCORE.INTER.POLAR>
0

>  <SCORE.INTER.ROT>
7

>  <SCORE.INTER.SOLV>
11.8918

>  <SCORE.INTER.VDW>
-18.026

>  <SCORE.INTER.norm>
-0.321967

>  <SCORE.INTRA>
-4.15642

>  <SCORE.INTRA.DIHEDRAL>
-3.96732

>  <SCORE.INTRA.DIHEDRAL.0>
9.29433

>  <SCORE.INTRA.POLAR>
0

>  <SCORE.INTRA.POLAR.0>
0

>  <SCORE.INTRA.REPUL>
0

>  <SCORE.INTRA.REPUL.0>
0

>  <SCORE.INTRA.SOLV>
-1.10649

>  <SCORE.INTRA.SOLV.lig_0>
-48.5102

>  <SCORE.INTRA.VDW>
-1.61952

>  <SCORE.INTRA.VDW.0>
0.379549

>  <SCORE.INTRA.norm>
-0.153942

>  <SCORE.RESTR>
0.0218286

>  <SCORE.RESTR.CAVITY>
0.0218286

>  <SCORE.RESTR.norm>
0.000808467

>  <SCORE.SYSTEM>
0

>  <SCORE.SYSTEM.CONST>
0

>  <SCORE.SYSTEM.DIHEDRAL>
0

>  <SCORE.SYSTEM.SOLV>
0

>  <SCORE.SYSTEM.norm>
0

>  <SCORE.heavy>
27

>  <SCORE.norm>
-0.475101

>  <RMSD>
6.972

$$$$
ligand
 OpenBabel11021811483D
libRbt.so/2013.1/901 2013/11/27
 27 29  0  0  0  0  0  0  0  0999 V2000
   48.9398   54.0391   35.1851 N   0  0  0  0  0  0  0  0  0  0  0  0
   48.2386   55.2024   34.6439 C   0  0  2  0  0  0  0  0  0  0  0  0
   47.0185   54.7436   33.8988 C   0  0  0  0  0  0  0  0  0  0  0  0
   47.0074   53.6412   33.3612 O   0  0  0  0  0  0  0  0  0  0  0  0
   49.1480   55.9723   33.6872 C   0  0  0  0  0  0  0  0  0  0  0  0
   48.5261   57.3272   33.4016 C   0  0  0  0  0  0  0  0  0  0  0  0
   49.2805   58.2002   31.9926 S   0  0  2  0  0  0  0  0  0  0  0  0
   48.1101   59.5355   31.6059 C   0  0  0  0  0  0  0  0  0  0  0  0
   48.6898   57.2119   30.4898 C   0  0  0  0  0  0  0  0  0  0  0  0
   48.7375   55.6269   30.5315 C   0  0  2  0  0  0  0  0  0  0  0  0
   49.7916   54.9700   29.8647 O   0  0  0  0  0  0  0  0  0  0  0  0
   47.5124   54.8287   30.3285 C   0  0  1  0  0  0  0  0  0  0  0  0
   46.3199   55.5964   30.4958 O   0  0  0  0  0  0  0  0  0  0  0  0
   47.8327   54.3801   28.8247 C   0  0  2  0  0  0  0  0  0  0  0  0
   46.9559   53.3761   28.4098 O   0  0  0  0  0  0  0  0  0  0  0  0
   49.2640   53.8728   28.9899 C   0  0  1  0  0  0  0  0  0  0  0  0
   46.0231   55.4557   33.8658 O   0  0  0  0  0  0  0  0  0  0  0  0
   49.5766   54.9461   24.0018 N   0  0  0  0  0  0  0  0  0  0  0  0
   48.5471   55.0201   24.8496 C   0  0  0  0  0  0  0  0  0  0  0  0
   48.6897   54.7123   26.1354 N   0  0  0  0  0  0  0  0  0  0  0  0
   49.8414   54.2146   26.6129 C   0  0  0  0  0  0  0  0  0  0  0  0
   50.9486   54.0648   25.7383 C   0  0  0  0  0  0  0  0  0  0  0  0
   50.7757   54.4644   24.3840 C   0  0  0  0  0  0  0  0  0  0  0  0
   51.8088   54.3649   23.4742 N   0  0  0  0  0  0  0  0  0  0  0  0
   51.9594   53.5485   26.4592 N   0  0  0  0  0  0  0  0  0  0  0  0
   51.5640   53.3656   27.6907 C   0  0  0  0  0  0  0  0  0  0  0  0
   50.2678   53.7689   27.8503 N   0  0  0  0  0  0  0  0  0  0  0  0
  2  1  1  6  0  0  0
  2  3  1  0  0  0  0
  2  5  1  0  0  0  0
  3  4  1  0  0  0  0
  3 17  1  0  0  0  0
  5  6  1  0  0  0  0
  7  6  1  1  0  0  0
  7  8  1  0  0  0  0
  7  9  1  0  0  0  0
 10  9  1  6  0  0  0
 10 11  1  0  0  0  0
 10 12  1  0  0  0  0
 11 16  1  0  0  0  0
 12 13  1  6  0  0  0
 12 14  1  0  0  0  0
 14 15  1  1  0  0  0
 14 16  1  0  0  0  0
 16 27  1  6  0  0  0
 18 19  2  0  0  0  0
 18 23  1  0  0  0  0
 19 20  1  0  0  0  0
 20 21  2  0  0  0  0
 21 22  1  0  0  0  0
 21 27  1  0  0  0  0
 22 23  2  0  0  0  0
 22 25  1  0  0  0  0
 23 24  1  0  0  0  0
 25 26  2  0  0  0  0
 26 27  1  0  0  0  0
M  END
>  <CHROM.1>
-29.24353640,-166.81416148,-166.51319329,165.82238834,-44.66171853,-101.41880762
-108.97056486,48.89149019,55.22609658,29.73043523,2.36091304,1.15952261,0.61032869

>  <Name>
ligand

>  <RI>
0

>  <Rbt.Current_Directory>
/home/itssahil/PROJECTS/Mol_Feturizer/New_Systems/rnas/3IQR

>  <Rbt.Executable>
rbdock ($Id: //depot/dev/client3/rdock/2013.1/src/exe/rbdock.cxx#4 $)

>  <Rbt.Library>
libRbt.so (2013.1, Build901 2013/11/27)

>  <Rbt.Parameter_File>
/export/apps/rDock/src/rDock_2013.1_src/data/scripts/dock_solv.prm

>  <Rbt.Receptor>
prm/pocket_docking_8.prm

>  <SCORE>
-17.5448

>  <SCORE.INTER>
-13.2906

>  <SCORE.INTER.CONST>
1

>  <SCORE.INTER.POLAR>
0

>  <SCORE.INTER.ROT>
7

>  <SCORE.INTER.SOLV>
13.9809

>  <SCORE.INTER.VDW>
-21.7873

>  <SCORE.INTER.norm>
-0.492243

>  <SCORE.INTRA>
-4.25428

>  <SCORE.INTRA.DIHEDRAL>
0.539128

>  <SCORE.INTRA.DIHEDRAL.0>
9.29433

>  <SCORE.INTRA.POLAR>
0

>  <SCORE.INTRA.POLAR.0>
0

>  <SCORE.INTRA.REPUL>
0

>  <SCORE.INTRA.REPUL.0>
0

>  <SCORE.INTRA.SOLV>
-1.34403

>  <SCORE.INTRA.SOLV.lig_0>
-48.5102

>  <SCORE.INTRA.VDW>
-3.85182

>  <SCORE.INTRA.VDW.0>
0.379549

>  <SCORE.INTRA.norm>
-0.157566

>  <SCORE.RESTR>
0

>  <SCORE.RESTR.CAVITY>
0

>  <SCORE.RESTR.norm>
0

>  <SCORE.SYSTEM>
0

>  <SCORE.SYSTEM.CONST>
0

>  <SCORE.SYSTEM.DIHEDRAL>
0

>  <SCORE.SYSTEM.SOLV>
0

>  <SCORE.SYSTEM.norm>
0

>  <SCORE.heavy>
27

>  <SCORE.norm>
-0.649809

>  <RMSD>
6.972

$$$$
ligand
 OpenBabel11021811483D
libRbt.so/2013.1/901 2013/11/27
 27 29  0  0  0  0  0  0  0  0999 V2000
   39.9786   53.5533   30.4500 N   0  0  0  0  0  0  0  0  0  0  0  0
   41.1822   54.2254   30.9373 C   0  0  2  0  0  0  0  0  0  0  0  0
   41.4465   55.4408   30.0963 C   0  0  0  0  0  0  0  0  0  0  0  0
   40.6783   55.7352   29.1866 O   0  0  0  0  0  0  0  0  0  0  0  0
   42.3854   53.2873   30.8515 C   0  0  0  0  0  0  0  0  0  0  0  0
   42.2100   52.1696   31.8634 C   0  0  0  0  0  0  0  0  0  0  0  0
   42.5049   52.6838   33.5854 S   0  0  2  0  0  0  0  0  0  0  0  0
   41.0439   53.6727   34.0209 C   0  0  0  0  0  0  0  0  0  0  0  0
   43.5472   54.2541   33.4078 C   0  0  0  0  0  0  0  0  0  0  0  0
   45.0806   54.1323   33.0205 C   0  0  2  0  0  0  0  0  0  0  0  0
   45.9593   53.5289   33.9430 O   0  0  0  0  0  0  0  0  0  0  0  0
   45.7942   55.2637   32.3960 C   0  0  1  0  0  0  0  0  0  0  0  0
   44.9077   56.2408   31.8494 O   0  0  0  0  0  0  0  0  0  0  0  0
   46.5942   55.7215   33.7058 C   0  0  2  0  0  0  0  0  0  0  0  0
   47.5854   56.6497   33.3818 O   0  0  0  0  0  0  0  0  0  0  0  0
   47.1743   54.3814   34.1540 C   0  0  1  0  0  0  0  0  0  0  0  0
   42.4067   56.1573   30.3486 O   0  0  0  0  0  0  0  0  0  0  0  0
   45.2608   52.4048   38.4624 N   0  0  0  0  0  0  0  0  0  0  0  0
   44.6762   52.6900   37.2958 C   0  0  0  0  0  0  0  0  0  0  0  0
   45.3743   53.1846   36.2778 N   0  0  0  0  0  0  0  0  0  0  0  0
   46.6681   53.5168   36.4116 C   0  0  0  0  0  0  0  0  0  0  0  0
   47.3203   53.2843   37.6501 C   0  0  0  0  0  0  0  0  0  0  0  0
   46.5560   52.6953   38.6954 C   0  0  0  0  0  0  0  0  0  0  0  0
   47.1209   52.4229   39.9248 N   0  0  0  0  0  0  0  0  0  0  0  0
   48.5902   53.7057   37.5175 N   0  0  0  0  0  0  0  0  0  0  0  0
   48.7663   54.1785   36.3126 C   0  0  0  0  0  0  0  0  0  0  0  0
   47.6177   54.0787   35.5784 N   0  0  0  0  0  0  0  0  0  0  0  0
  2  1  1  6  0  0  0
  2  3  1  0  0  0  0
  2  5  1  0  0  0  0
  3  4  1  0  0  0  0
  3 17  1  0  0  0  0
  5  6  1  0  0  0  0
  7  6  1  6  0  0  0
  7  8  1  0  0  0  0
  7  9  1  0  0  0  0
 10  9  1  1  0  0  0
 10 11  1  0  0  0  0
 10 12  1  0  0  0  0
 11 16  1  0  0  0  0
 12 13  1  1  0  0  0
 12 14  1  0  0  0  0
 14 15  1  6  0  0  0
 14 16  1  0  0  0  0
 16 27  1  1  0  0  0
 18 19  2  0  0  0  0
 18 23  1  0  0  0  0
 19 20  1  0  0  0  0
 20 21  2  0  0  0  0
 21 22  1  0  0  0  0
 21 27  1  0  0  0  0
 22 23  2  0  0  0  0
 22 25  1  0  0  0  0
 23 24  1  0  0  0  0
 25 26  2  0  0  0  0
 26 27  1  0  0  0  0
M  END
>  <CHROM.1>
1.46248103,-68.59865114,-74.61437048,73.66914575,-75.54194492,-66.37395859
-19.56488254,44.59056894,54.02756461,33.99315221,2.34184534,-0.42017229,-1.01788233

>  <Name>
ligand

>  <RI>
0

>  <Rbt.Current_Directory>
/home/itssahil/PROJECTS/Mol_Feturizer/New_Systems/rnas/3IQR

>  <Rbt.Executable>
rbdock ($Id: //depot/dev/client3/rdock/2013.1/src/exe/rbdock.cxx#4 $)

>  <Rbt.Library>
libRbt.so (2013.1, Build901 2013/11/27)

>  <Rbt.Parameter_File>
/export/apps/rDock/src/rDock_2013.1_src/data/scripts/dock_solv.prm

>  <Rbt.Receptor>
prm/pocket_docking_8.prm

>  <SCORE>
-17.0353

>  <SCORE.INTER>
-15.0425

>  <SCORE.INTER.CONST>
1

>  <SCORE.INTER.POLAR>
0

>  <SCORE.INTER.ROT>
7

>  <SCORE.INTER.SOLV>
7.81302

>  <SCORE.INTER.VDW>
-20.8994

>  <SCORE.INTER.norm>
-0.55713

>  <SCORE.INTRA>
-1.99278

>  <SCORE.INTRA.DIHEDRAL>
-2.40551

>  <SCORE.INTRA.DIHEDRAL.0>
9.29433

>  <SCORE.INTRA.POLAR>
0

>  <SCORE.INTRA.POLAR.0>
0

>  <SCORE.INTRA.REPUL>
0

>  <SCORE.INTRA.REPUL.0>
0

>  <SCORE.INTRA.SOLV>
0.248687

>  <SCORE.INTRA.SOLV.lig_0>
-48.5102

>  <SCORE.INTRA.VDW>
-0.91437

>  <SCORE.INTRA.VDW.0>
0.379549

>  <SCORE.INTRA.norm>
-0.0738068

>  <SCORE.RESTR>
0

>  <SCORE.RESTR.CAVITY>
0

>  <SCORE.RESTR.norm>
0

>  <SCORE.SYSTEM>
0

>  <SCORE.SYSTEM.CONST>
0

>  <SCORE.SYSTEM.DIHEDRAL>
0

>  <SCORE.SYSTEM.SOLV>
0

>  <SCORE.SYSTEM.norm>
0

>  <SCORE.heavy>
27

>  <SCORE.norm>
-0.630937

>  <RMSD>
7.017

$$$$
ligand
 OpenBabel11021811483D
libRbt.so/2013.1/901 2013/11/27
 27 29  0  0  0  0  0  0  0  0999 V2000
   47.6510   53.1596   37.1250 N   0  0  0  0  0  0  0  0  0  0  0  0
   47.5468   53.6243   35.7427 C   0  0  2  0  0  0  0  0  0  0  0  0
   47.0861   52.4913   34.8719 C   0  0  0  0  0  0  0  0  0  0  0  0
   47.0687   52.6236   33.6526 O   0  0  0  0  0  0  0  0  0  0  0  0
   48.9050   54.1167   35.2446 C   0  0  0  0  0  0  0  0  0  0  0  0
   48.7460   55.5217   34.6926 C   0  0  0  0  0  0  0  0  0  0  0  0
   47.7100   55.6113   33.1974 S   0  0  2  0  0  0  0  0  0  0  0  0
   48.8966   55.6022   31.8211 C   0  0  0  0  0  0  0  0  0  0  0  0
   47.4196   57.4680   32.9689 C   0  0  0  0  0  0  0  0  0  0  0  0
   46.1779   57.9635   32.1152 C   0  0  2  0  0  0  0  0  0  0  0  0
   44.9077   57.4246   32.4040 O   0  0  0  0  0  0  0  0  0  0  0  0
   46.2793   58.1115   30.6499 C   0  0  1  0  0  0  0  0  0  0  0  0
   47.6314   58.1547   30.1922 O   0  0  0  0  0  0  0  0  0  0  0  0
   45.4716   56.7803   30.2747 C   0  0  2  0  0  0  0  0  0  0  0  0
   45.1635   56.7549   28.9133 O   0  0  0  0  0  0  0  0  0  0  0  0
   44.2322   56.9569   31.1499 C   0  0  1  0  0  0  0  0  0  0  0  0
   46.7682   51.4241   35.3808 O   0  0  0  0  0  0  0  0  0  0  0  0
   39.9611   54.5799   29.6539 N   0  0  0  0  0  0  0  0  0  0  0  0
   40.5721   55.6658   29.1728 C   0  0  0  0  0  0  0  0  0  0  0  0
   41.7076   56.1098   29.7037 N   0  0  0  0  0  0  0  0  0  0  0  0
   42.2301   55.5517   30.8072 C   0  0  0  0  0  0  0  0  0  0  0  0
   41.5866   54.4288   31.3887 C   0  0  0  0  0  0  0  0  0  0  0  0
   40.4088   53.9445   30.7548 C   0  0  0  0  0  0  0  0  0  0  0  0
   39.7330   52.8474   31.2494 N   0  0  0  0  0  0  0  0  0  0  0  0
   42.3029   54.0742   32.4699 N   0  0  0  0  0  0  0  0  0  0  0  0
   43.3196   54.8839   32.6007 C   0  0  0  0  0  0  0  0  0  0  0  0
   43.3348   55.8115   31.5970 N   0  0  0  0  0  0  0  0  0  0  0  0
  2  1  1  1  0  0  0
  2  3  1  0  0  0  0
  2  5  1  0  0  0  0
  3  4  1  0  0  0  0
  3 17  1  0  0  0  0
  5  6  1  0  0  0  0
  7  6  1  1  0  0  0
  7  8  1  0  0  0  0
  7  9  1  0  0  0  0
 10  9  1  6  0  0  0
 10 11  1  0  0  0  0
 10 12  1  0  0  0  0
 11 16  1  0  0  0  0
 12 13  1  1  0  0  0
 12 14  1  0  0  0  0
 14 15  1  6  0  0  0
 14 16  1  0  0  0  0
 16 27  1  1  0  0  0
 18 19  2  0  0  0  0
 18 23  1  0  0  0  0
 19 20  1  0  0  0  0
 20 21  2  0  0  0  0
 21 22  1  0  0  0  0
 21 27  1  0  0  0  0
 22 23  2  0  0  0  0
 22 25  1  0  0  0  0
 23 24  1  0  0  0  0
 25 26  2  0  0  0  0
 26 27  1  0  0  0  0
M  END
>  <CHROM.1>
-172.20517481,-126.93375073,-65.94346546,-96.57520387,-158.40779426,49.73159584
154.71148775,45.15495141,55.27109570,32.27841323,0.44494478,0.38152771,2.42181740

>  <Name>
ligand

>  <RI>
0

>  <Rbt.Current_Directory>
/home/itssahil/PROJECTS/Mol_Feturizer/New_Systems/rnas/3IQR

>  <Rbt.Executable>
rbdock ($Id: //depot/dev/client3/rdock/2013.1/src/exe/rbdock.cxx#4 $)

>  <Rbt.Library>
libRbt.so (2013.1, Build901 2013/11/27)

>  <Rbt.Parameter_File>
/export/apps/rDock/src/rDock_2013.1_src/data/scripts/dock_solv.prm

>  <Rbt.Receptor>
prm/pocket_docking_8.prm

>  <SCORE>
-18.2321

>  <SCORE.INTER>
-15.9154

>  <SCORE.INTER.CONST>
1

>  <SCORE.INTER.POLAR>
0

>  <SCORE.INTER.ROT>
7

>  <SCORE.INTER.SOLV>
10.6699

>  <SCORE.INTER.VDW>
-22.4335

>  <SCORE.INTER.norm>
-0.589458

>  <SCORE.INTRA>
-2.31671

>  <SCORE.INTRA.DIHEDRAL>
4.08123

>  <SCORE.INTRA.DIHEDRAL.0>
9.29433

>  <SCORE.INTRA.POLAR>
0

>  <SCORE.INTRA.POLAR.0>
0

>  <SCORE.INTRA.REPUL>
0

>  <SCORE.INTRA.REPUL.0>
0

>  <SCORE.INTRA.SOLV>
-1.20165

>  <SCORE.INTRA.SOLV.lig_0>
-48.5102

>  <SCORE.INTRA.VDW>
-3.7565

>  <SCORE.INTRA.VDW.0>
0.379549

>  <SCORE.INTRA.norm>
-0.0858042

>  <SCORE.RESTR>
0

>  <SCORE.RESTR.CAVITY>
0

>  <SCORE.RESTR.norm>
0

>  <SCORE.SYSTEM>
0

>  <SCORE.SYSTEM.CONST>
0

>  <SCORE.SYSTEM.DIHEDRAL>
0

>  <SCORE.SYSTEM.SOLV>
0

>  <SCORE.SYSTEM.norm>
0

>  <SCORE.heavy>
27

>  <SCORE.norm>
-0.675262

>  <RMSD>
7.022

$$$$
ligand
 OpenBabel11021811483D
libRbt.so/2013.1/901 2013/11/27
 27 29  0  0  0  0  0  0  0  0999 V2000
   47.8789   55.3825   33.4911 N   0  0  0  0  0  0  0  0  0  0  0  0
   46.6525   54.8105   34.0446 C   0  0  2  0  0  0  0  0  0  0  0  0
   46.5358   53.3767   33.6147 C   0  0  0  0  0  0  0  0  0  0  0  0
   45.8255   52.6030   34.2481 O   0  0  0  0  0  0  0  0  0  0  0  0
   45.4332   55.5832   33.5429 C   0  0  0  0  0  0  0  0  0  0  0  0
   45.5053   55.6864   32.0303 C   0  0  0  0  0  0  0  0  0  0  0  0
   44.0647   56.5101   31.2801 S   0  0  2  0  0  0  0  0  0  0  0  0
   42.7628   55.2423   31.2847 C   0  0  0  0  0  0  0  0  0  0  0  0
   44.3316   56.2664   29.4218 C   0  0  0  0  0  0  0  0  0  0  0  0
   45.1867   57.3285   28.6112 C   0  0  2  0  0  0  0  0  0  0  0  0
   45.7691   56.9297   27.3909 O   0  0  0  0  0  0  0  0  0  0  0  0
   46.1508   58.2076   29.3018 C   0  0  1  0  0  0  0  0  0  0  0  0
   45.9302   58.2684   30.7114 O   0  0  0  0  0  0  0  0  0  0  0  0
   47.4716   57.4231   28.8486 C   0  0  2  0  0  0  0  0  0  0  0  0
   48.6153   58.1683   29.1412 O   0  0  0  0  0  0  0  0  0  0  0  0
   47.2192   57.3079   27.3466 C   0  0  1  0  0  0  0  0  0  0  0  0
   47.1186   52.9948   32.6080 O   0  0  0  0  0  0  0  0  0  0  0  0
   50.8821   53.7501   27.5829 N   0  0  0  0  0  0  0  0  0  0  0  0
   50.5026   54.6750   28.4687 C   0  0  0  0  0  0  0  0  0  0  0  0
   49.4918   55.5003   28.2131 N   0  0  0  0  0  0  0  0  0  0  0  0
   48.8811   55.5106   27.0176 C   0  0  0  0  0  0  0  0  0  0  0  0
   49.2862   54.5833   26.0229 C   0  0  0  0  0  0  0  0  0  0  0  0
   50.3285   53.6746   26.3565 C   0  0  0  0  0  0  0  0  0  0  0  0
   50.7693   52.7318   25.4499 N   0  0  0  0  0  0  0  0  0  0  0  0
   48.5278   54.8080   24.9356 N   0  0  0  0  0  0  0  0  0  0  0  0
   47.7033   55.7917   25.1782 C   0  0  0  0  0  0  0  0  0  0  0  0
   47.8660   56.2598   26.4520 N   0  0  0  0  0  0  0  0  0  0  0  0
  2  1  1  6  0  0  0
  2  3  1  0  0  0  0
  2  5  1  0  0  0  0
  3  4  1  0  0  0  0
  3 17  1  0  0  0  0
  5  6  1  0  0  0  0
  7  6  1  1  0  0  0
  7  8  1  0  0  0  0
  7  9  1  0  0  0  0
 10  9  1  1  0  0  0
 10 11  1  0  0  0  0
 10 12  1  0  0  0  0
 11 16  1  0  0  0  0
 12 13  1  1  0  0  0
 12 14  1  0  0  0  0
 14 15  1  6  0  0  0
 14 16  1  0  0  0  0
 16 27  1  1  0  0  0
 18 19  2  0  0  0  0
 18 23  1  0  0  0  0
 19 20  1  0  0  0  0
 20 21  2  0  0  0  0
 21 22  1  0  0  0  0
 21 27  1  0  0  0  0
 22 23  2  0  0  0  0
 22 25  1  0  0  0  0
 23 24  1  0  0  0  0
 25 26  2  0  0  0  0
 26 27  1  0  0  0  0
M  END
>  <CHROM.1>
158.94292072,51.19278025,176.91914623,-77.94468283,-88.07612783,158.05992823
-121.15444885,47.06827030,55.59331241,29.53216924,-2.31411097,0.67448502
-1.07791152

>  <Name>
ligand

>  <RI>
0

>  <Rbt.Current_Directory>
/home/itssahil/PROJECTS/Mol_Feturizer/New_Systems/rnas/3IQR

>  <Rbt.Executable>
rbdock ($Id: //depot/dev/client3/rdock/2013.1/src/exe/rbdock.cxx#4 $)

>  <Rbt.Library>
libRbt.so (2013.1, Build901 2013/11/27)

>  <Rbt.Parameter_File>
/export/apps/rDock/src/rDock_2013.1_src/data/scripts/dock_solv.prm

>  <Rbt.Receptor>
prm/pocket_docking_4.prm

>  <SCORE>
-14.1938

>  <SCORE.INTER>
-12.3029

>  <SCORE.INTER.CONST>
1

>  <SCORE.INTER.POLAR>
0

>  <SCORE.INTER.ROT>
7

>  <SCORE.INTER.SOLV>
8.37268

>  <SCORE.INTER.VDW>
-19.2595

>  <SCORE.INTER.norm>
-0.455665

>  <SCORE.INTRA>
-1.90551

>  <SCORE.INTRA.DIHEDRAL>
-2.71105

>  <SCORE.INTRA.DIHEDRAL.0>
9.29433

>  <SCORE.INTRA.POLAR>
0

>  <SCORE.INTRA.POLAR.0>
0

>  <SCORE.INTRA.REPUL>
0

>  <SCORE.INTRA.REPUL.0>
0

>  <SCORE.INTRA.SOLV>
-0.332206

>  <SCORE.INTRA.SOLV.lig_0>
-48.5102

>  <SCORE.INTRA.VDW>
-0.383882

>  <SCORE.INTRA.VDW.0>
0.379549

>  <SCORE.INTRA.norm>
-0.0705745

>  <SCORE.RESTR>
0.0147009

>  <SCORE.RESTR.CAVITY>
0.0147009

>  <SCORE.RESTR.norm>
0.000544479

>  <SCORE.SYSTEM>
0

>  <SCORE.SYSTEM.CONST>
0

>  <SCORE.SYSTEM.DIHEDRAL>
0

>  <SCORE.SYSTEM.SOLV>
0

>  <SCORE.SYSTEM.norm>
0

>  <SCORE.heavy>
27

>  <SCORE.norm>
-0.525695

>  <RMSD>
7.030

$$$$
ligand
 OpenBabel11021811483D
libRbt.so/2013.1/901 2013/11/27
 27 29  0  0  0  0  0  0  0  0999 V2000
   47.9692   59.4010   31.1704 N   0  0  0  0  0  0  0  0  0  0  0  0
   47.7891   58.4838   32.2946 C   0  0  2  0  0  0  0  0  0  0  0  0
   49.0831   58.3599   33.0459 C   0  0  0  0  0  0  0  0  0  0  0  0
   50.1302   58.7345   32.5286 O   0  0  0  0  0  0  0  0  0  0  0  0
   47.3697   57.1033   31.7910 C   0  0  0  0  0  0  0  0  0  0  0  0
   46.1406   57.2530   30.9132 C   0  0  0  0  0  0  0  0  0  0  0  0
   46.5151   57.7540   29.2028 S   0  0  2  0  0  0  0  0  0  0  0  0
   45.0067   57.3545   28.2715 C   0  0  0  0  0  0  0  0  0  0  0  0
   47.3937   56.2412   28.4792 C   0  0  0  0  0  0  0  0  0  0  0  0
   48.9630   56.0923   28.6565 C   0  0  2  0  0  0  0  0  0  0  0  0
   49.7728   56.1096   27.5028 O   0  0  0  0  0  0  0  0  0  0  0  0
   49.5268   55.0925   29.5848 C   0  0  1  0  0  0  0  0  0  0  0  0
   48.5675   54.6125   30.5276 O   0  0  0  0  0  0  0  0  0  0  0  0
   49.9759   54.0369   28.4670 C   0  0  2  0  0  0  0  0  0  0  0  0
   50.7964   53.0510   29.0179 O   0  0  0  0  0  0  0  0  0  0  0  0
   50.7316   54.9571   27.5103 C   0  0  1  0  0  0  0  0  0  0  0  0
   49.0824   57.9230   34.1897 O   0  0  0  0  0  0  0  0  0  0  0  0
   48.1820   54.9891   23.0798 N   0  0  0  0  0  0  0  0  0  0  0  0
   47.7668   55.2122   24.3295 C   0  0  0  0  0  0  0  0  0  0  0  0
   48.6143   55.1786   25.3536 N   0  0  0  0  0  0  0  0  0  0  0  0
   49.8965   54.8162   25.1900 C   0  0  0  0  0  0  0  0  0  0  0  0
   50.3723   54.5153   23.8876 C   0  0  0  0  0  0  0  0  0  0  0  0
   49.4507   54.6239   22.8094 C   0  0  0  0  0  0  0  0  0  0  0  0
   49.8391   54.3633   21.5109 N   0  0  0  0  0  0  0  0  0  0  0  0
   51.6696   54.1815   24.0041 N   0  0  0  0  0  0  0  0  0  0  0  0
   52.0227   54.2466   25.2600 C   0  0  0  0  0  0  0  0  0  0  0  0
   50.9732   54.6442   26.0402 N   0  0  0  0  0  0  0  0  0  0  0  0
  2  1  1  6  0  0  0
  2  3  1  0  0  0  0
  2  5  1  0  0  0  0
  3  4  1  0  0  0  0
  3 17  1  0  0  0  0
  5  6  1  0  0  0  0
  7  6  1  1  0  0  0
  7  8  1  0  0  0  0
  7  9  1  0  0  0  0
 10  9  1  6  0  0  0
 10 11  1  0  0  0  0
 10 12  1  0  0  0  0
 11 16  1  0  0  0  0
 12 13  1  1  0  0  0
 12 14  1  0  0  0  0
 14 15  1  1  0  0  0
 14 16  1  0  0  0  0
 16 27  1  6  0  0  0
 18 19  2  0  0  0  0
 18 23  1  0  0  0  0
 19 20  1  0  0  0  0
 20 21  2  0  0  0  0
 21 22  1  0  0  0  0
 21 27  1  0  0  0  0
 22 23  2  0  0  0  0
 22 25  1  0  0  0  0
 23 24  1  0  0  0  0
 25 26  2  0  0  0  0
 26 27  1  0  0  0  0
M  END
>  <CHROM.1>
-15.97131296,-54.18649227,81.62278162,162.74440993,-87.11156822,-116.00363004
-34.95174524,48.88441407,56.01623039,28.12985797,1.82501238,-0.50143329,1.29171018

>  <Name>
ligand

>  <RI>
0

>  <Rbt.Current_Directory>
/home/itssahil/PROJECTS/Mol_Feturizer/New_Systems/rnas/3IQR

>  <Rbt.Executable>
rbdock ($Id: //depot/dev/client3/rdock/2013.1/src/exe/rbdock.cxx#4 $)

>  <Rbt.Library>
libRbt.so (2013.1, Build901 2013/11/27)

>  <Rbt.Parameter_File>
/export/apps/rDock/src/rDock_2013.1_src/data/scripts/dock_solv.prm

>  <Rbt.Receptor>
prm/pocket_docking_8.prm

>  <SCORE>
-15.4195

>  <SCORE.INTER>
-14.0034

>  <SCORE.INTER.CONST>
1

>  <SCORE.INTER.POLAR>
0

>  <SCORE.INTER.ROT>
7

>  <SCORE.INTER.SOLV>
14.0755

>  <SCORE.INTER.VDW>
-22.2941

>  <SCORE.INTER.norm>
-0.518643

>  <SCORE.INTRA>
-1.41608

>  <SCORE.INTRA.DIHEDRAL>
1.6152

>  <SCORE.INTRA.DIHEDRAL.0>
9.29433

>  <SCORE.INTRA.POLAR>
0

>  <SCORE.INTRA.POLAR.0>
0

>  <SCORE.INTRA.REPUL>
0

>  <SCORE.INTRA.REPUL.0>
0

>  <SCORE.INTRA.SOLV>
1.24951

>  <SCORE.INTRA.SOLV.lig_0>
-48.5102

>  <SCORE.INTRA.VDW>
-2.84843

>  <SCORE.INTRA.VDW.0>
0.379549

>  <SCORE.INTRA.norm>
-0.0524473

>  <SCORE.RESTR>
0

>  <SCORE.RESTR.CAVITY>
0

>  <SCORE.RESTR.norm>
0

>  <SCORE.SYSTEM>
0

>  <SCORE.SYSTEM.CONST>
0

>  <SCORE.SYSTEM.DIHEDRAL>
0

>  <SCORE.SYSTEM.SOLV>
0

>  <SCORE.SYSTEM.norm>
0

>  <SCORE.heavy>
27

>  <SCORE.norm>
-0.571091

>  <RMSD>
7.057

$$$$
ligand
 OpenBabel11021811483D
libRbt.so/2013.1/901 2013/11/27
 27 29  0  0  0  0  0  0  0  0999 V2000
   46.1612   52.1495   35.7955 N   0  0  0  0  0  0  0  0  0  0  0  0
   45.3445   53.3094   35.4412 C   0  0  2  0  0  0  0  0  0  0  0  0
   43.9151   52.8792   35.2809 C   0  0  0  0  0  0  0  0  0  0  0  0
   43.6486   51.6969   35.0917 O   0  0  0  0  0  0  0  0  0  0  0  0
   45.8325   53.9205   34.1283 C   0  0  0  0  0  0  0  0  0  0  0  0
   47.1832   54.5724   34.3619 C   0  0  0  0  0  0  0  0  0  0  0  0
   47.9061   55.3222   32.8679 S   0  0  2  0  0  0  0  0  0  0  0  0
   49.6639   55.5403   33.2739 C   0  0  0  0  0  0  0  0  0  0  0  0
   47.5946   57.1744   33.1053 C   0  0  0  0  0  0  0  0  0  0  0  0
   46.3120   57.8393   32.4503 C   0  0  2  0  0  0  0  0  0  0  0  0
   45.0476   57.2894   32.7440 O   0  0  0  0  0  0  0  0  0  0  0  0
   46.3091   58.2352   31.0282 C   0  0  1  0  0  0  0  0  0  0  0  0
   47.6239   58.3242   30.4778 O   0  0  0  0  0  0  0  0  0  0  0  0
   45.4264   57.0084   30.4980 C   0  0  2  0  0  0  0  0  0  0  0  0
   45.0167   57.2255   29.1812 O   0  0  0  0  0  0  0  0  0  0  0  0
   44.2634   57.0612   31.4868 C   0  0  1  0  0  0  0  0  0  0  0  0
   43.0169   53.7052   35.3809 O   0  0  0  0  0  0  0  0  0  0  0  0
   40.1862   54.6777   29.5306 N   0  0  0  0  0  0  0  0  0  0  0  0
   40.8088   55.7978   29.1540 C   0  0  0  0  0  0  0  0  0  0  0  0
   41.8862   56.2372   29.7976 N   0  0  0  0  0  0  0  0  0  0  0  0
   42.3297   55.6357   30.9128 C   0  0  0  0  0  0  0  0  0  0  0  0
   41.6674   54.4730   31.3849 C   0  0  0  0  0  0  0  0  0  0  0  0
   40.5572   53.9976   30.6333 C   0  0  0  0  0  0  0  0  0  0  0  0
   39.8693   52.8644   31.0174 N   0  0  0  0  0  0  0  0  0  0  0  0
   42.3011   54.0796   32.5037 N   0  0  0  0  0  0  0  0  0  0  0  0
   43.2843   54.9017   32.7567 C   0  0  0  0  0  0  0  0  0  0  0  0
   43.3597   55.8778   31.8029 N   0  0  0  0  0  0  0  0  0  0  0  0
  2  1  1  6  0  0  0
  2  3  1  0  0  0  0
  2  5  1  0  0  0  0
  3  4  1  0  0  0  0
  3 17  1  0  0  0  0
  5  6  1  0  0  0  0
  7  6  1  1  0  0  0
  7  8  1  0  0  0  0
  7  9  1  0  0  0  0
 10  9  1  6  0  0  0
 10 11  1  0  0  0  0
 10 12  1  0  0  0  0
 11 16  1  0  0  0  0
 12 13  1  6  0  0  0
 12 14  1  0  0  0  0
 14 15  1  6  0  0  0
 14 16  1  0  0  0  0
 16 27  1  1  0  0  0
 18 19  2  0  0  0  0
 18 23  1  0  0  0  0
 19 20  1  0  0  0  0
 20 21  2  0  0  0  0
 21 22  1  0  0  0  0
 21 27  1  0  0  0  0
 22 23  2  0  0  0  0
 22 25  1  0  0  0  0
 23 24  1  0  0  0  0
 25 26  2  0  0  0  0
 26 27  1  0  0  0  0
M  END
>  <CHROM.1>
-19.47408352,-69.82708604,178.98123722,-162.70275002,-95.08477287,54.78515750
166.69275236,44.56287089,55.26718994,32.35596251,0.13583614,0.37408753,2.31492248

>  <Name>
ligand

>  <RI>
0

>  <Rbt.Current_Directory>
/home/itssahil/PROJECTS/Mol_Feturizer/New_Systems/rnas/3IQR

>  <Rbt.Executable>
rbdock ($Id: //depot/dev/client3/rdock/2013.1/src/exe/rbdock.cxx#4 $)

>  <Rbt.Library>
libRbt.so (2013.1, Build901 2013/11/27)

>  <Rbt.Parameter_File>
/export/apps/rDock/src/rDock_2013.1_src/data/scripts/dock_solv.prm

>  <Rbt.Receptor>
prm/pocket_docking_7.prm

>  <SCORE>
-16.7163

>  <SCORE.INTER>
-11.4222

>  <SCORE.INTER.CONST>
1

>  <SCORE.INTER.POLAR>
0

>  <SCORE.INTER.ROT>
7

>  <SCORE.INTER.SOLV>
9.73657

>  <SCORE.INTER.VDW>
-19.127

>  <SCORE.INTER.norm>
-0.423045

>  <SCORE.INTRA>
-5.43958

>  <SCORE.INTRA.DIHEDRAL>
-1.02925

>  <SCORE.INTRA.DIHEDRAL.0>
9.29433

>  <SCORE.INTRA.POLAR>
0

>  <SCORE.INTRA.POLAR.0>
0

>  <SCORE.INTRA.REPUL>
0

>  <SCORE.INTRA.REPUL.0>
0

>  <SCORE.INTRA.SOLV>
-0.856336

>  <SCORE.INTRA.SOLV.lig_0>
-48.5102

>  <SCORE.INTRA.VDW>
-4.49678

>  <SCORE.INTRA.VDW.0>
0.379549

>  <SCORE.INTRA.norm>
-0.201466

>  <SCORE.RESTR>
0.145505

>  <SCORE.RESTR.CAVITY>
0.145505

>  <SCORE.RESTR.norm>
0.00538908

>  <SCORE.SYSTEM>
0

>  <SCORE.SYSTEM.CONST>
0

>  <SCORE.SYSTEM.DIHEDRAL>
0

>  <SCORE.SYSTEM.SOLV>
0

>  <SCORE.SYSTEM.norm>
0

>  <SCORE.heavy>
27

>  <SCORE.norm>
-0.619121

>  <RMSD>
7.083

$$$$
ligand
 OpenBabel11021811483D
libRbt.so/2013.1/901 2013/11/27
 27 29  0  0  0  0  0  0  0  0999 V2000
   47.9297   53.2927   32.3184 N   0  0  0  0  0  0  0  0  0  0  0  0
   47.0224   54.2546   32.9424 C   0  0  2  0  0  0  0  0  0  0  0  0
   46.3458   53.6085   34.1167 C   0  0  0  0  0  0  0  0  0  0  0  0
   46.4804   54.0842   35.2392 O   0  0  0  0  0  0  0  0  0  0  0  0
   45.9605   54.7087   31.9417 C   0  0  0  0  0  0  0  0  0  0  0  0
   45.2581   55.9359   32.4935 C   0  0  0  0  0  0  0  0  0  0  0  0
   43.8782   56.5208   31.4590 S   0  0  2  0  0  0  0  0  0  0  0  0
   42.7377   55.1082   31.3815 C   0  0  0  0  0  0  0  0  0  0  0  0
   44.4684   56.1743   29.6939 C   0  0  0  0  0  0  0  0  0  0  0  0
   45.2149   57.3155   28.8835 C   0  0  2  0  0  0  0  0  0  0  0  0
   45.6634   57.0274   27.5784 O   0  0  0  0  0  0  0  0  0  0  0  0
   46.2384   58.1577   29.5334 C   0  0  1  0  0  0  0  0  0  0  0  0
   46.1746   58.1017   30.9590 O   0  0  0  0  0  0  0  0  0  0  0  0
   47.5107   57.4403   28.8762 C   0  0  2  0  0  0  0  0  0  0  0  0
   48.6702   58.1844   29.1013 O   0  0  0  0  0  0  0  0  0  0  0  0
   47.0947   57.4391   27.4064 C   0  0  1  0  0  0  0  0  0  0  0  0
   45.6279   52.6321   33.9429 O   0  0  0  0  0  0  0  0  0  0  0  0
   51.1597   54.4186   26.7114 N   0  0  0  0  0  0  0  0  0  0  0  0
   50.8749   55.2927   27.6804 C   0  0  0  0  0  0  0  0  0  0  0  0
   49.7301   55.9691   27.6837 N   0  0  0  0  0  0  0  0  0  0  0  0
   48.8624   55.8825   26.6630 C   0  0  0  0  0  0  0  0  0  0  0  0
   49.1469   55.0083   25.5822 C   0  0  0  0  0  0  0  0  0  0  0  0
   50.3515   54.2544   25.6456 C   0  0  0  0  0  0  0  0  0  0  0  0
   50.6929   53.3708   24.6418 N   0  0  0  0  0  0  0  0  0  0  0  0
   48.1330   55.1150   24.7055 N   0  0  0  0  0  0  0  0  0  0  0  0
   47.2620   55.9792   25.1534 C   0  0  0  0  0  0  0  0  0  0  0  0
   47.6516   56.4794   26.3643 N   0  0  0  0  0  0  0  0  0  0  0  0
  2  1  1  6  0  0  0
  2  3  1  0  0  0  0
  2  5  1  0  0  0  0
  3  4  1  0  0  0  0
  3 17  1  0  0  0  0
  5  6  1  0  0  0  0
  7  6  1  1  0  0  0
  7  8  1  0  0  0  0
  7  9  1  0  0  0  0
 10  9  1  1  0  0  0
 10 11  1  0  0  0  0
 10 12  1  0  0  0  0
 11 16  1  0  0  0  0
 12 13  1  1  0  0  0
 12 14  1  0  0  0  0
 14 15  1  6  0  0  0
 14 16  1  0  0  0  0
 16 27  1  6  0  0  0
 18 19  2  0  0  0  0
 18 23  1  0  0  0  0
 19 20  1  0  0  0  0
 20 21  2  0  0  0  0
 21 22  1  0  0  0  0
 21 27  1  0  0  0  0
 22 23  2  0  0  0  0
 22 25  1  0  0  0  0
 23 24  1  0  0  0  0
 25 26  2  0  0  0  0
 26 27  1  0  0  0  0
M  END
>  <CHROM.1>
120.30811827,-166.23591676,-175.79353423,59.12647652,-93.34767464,179.03477676
-131.99005459,47.03760424,55.67315544,29.42530831,-2.24212756,0.62300242
-1.07200619

>  <Name>
ligand

>  <RI>
0

>  <Rbt.Current_Directory>
/home/itssahil/PROJECTS/Mol_Feturizer/New_Systems/rnas/3IQR

>  <Rbt.Executable>
rbdock ($Id: //depot/dev/client3/rdock/2013.1/src/exe/rbdock.cxx#4 $)

>  <Rbt.Library>
libRbt.so (2013.1, Build901 2013/11/27)

>  <Rbt.Parameter_File>
/export/apps/rDock/src/rDock_2013.1_src/data/scripts/dock_solv.prm

>  <Rbt.Receptor>
prm/pocket_docking_6.prm

>  <SCORE>
-14.6718

>  <SCORE.INTER>
-11.4314

>  <SCORE.INTER.CONST>
1

>  <SCORE.INTER.POLAR>
0

>  <SCORE.INTER.ROT>
7

>  <SCORE.INTER.SOLV>
9.36557

>  <SCORE.INTER.VDW>
-19.0094

>  <SCORE.INTER.norm>
-0.423384

>  <SCORE.INTRA>
-3.24044

>  <SCORE.INTRA.DIHEDRAL>
-2.39417

>  <SCORE.INTRA.DIHEDRAL.0>
9.29433

>  <SCORE.INTRA.POLAR>
0

>  <SCORE.INTRA.POLAR.0>
0

>  <SCORE.INTRA.REPUL>
0

>  <SCORE.INTRA.REPUL.0>
0

>  <SCORE.INTRA.SOLV>
-1.12748

>  <SCORE.INTRA.SOLV.lig_0>
-48.5102

>  <SCORE.INTRA.VDW>
-1.47962

>  <SCORE.INTRA.VDW.0>
0.379549

>  <SCORE.INTRA.norm>
-0.120016

>  <SCORE.RESTR>
0

>  <SCORE.RESTR.CAVITY>
0

>  <SCORE.RESTR.norm>
0

>  <SCORE.SYSTEM>
0

>  <SCORE.SYSTEM.CONST>
0

>  <SCORE.SYSTEM.DIHEDRAL>
0

>  <SCORE.SYSTEM.SOLV>
0

>  <SCORE.SYSTEM.norm>
0

>  <SCORE.heavy>
27

>  <SCORE.norm>
-0.5434

>  <RMSD>
7.085

$$$$
ligand
 OpenBabel11021811483D
libRbt.so/2013.1/901 2013/11/27
 27 29  0  0  0  0  0  0  0  0999 V2000
   47.9493   52.3102   33.7159 N   0  0  0  0  0  0  0  0  0  0  0  0
   48.5019   53.5942   34.1445 C   0  0  2  0  0  0  0  0  0  0  0  0
   47.8242   54.0274   35.4123 C   0  0  0  0  0  0  0  0  0  0  0  0
   48.4824   54.5257   36.3194 O   0  0  0  0  0  0  0  0  0  0  0  0
   48.2743   54.6553   33.0687 C   0  0  0  0  0  0  0  0  0  0  0  0
   48.9388   55.9482   33.5055 C   0  0  0  0  0  0  0  0  0  0  0  0
   48.8383   57.2811   32.2685 S   0  0  2  0  0  0  0  0  0  0  0  0
   49.0782   58.8076   33.2247 C   0  0  0  0  0  0  0  0  0  0  0  0
   46.9814   57.6250   32.1360 C   0  0  0  0  0  0  0  0  0  0  0  0
   46.1527   56.9830   30.9455 C   0  0  2  0  0  0  0  0  0  0  0  0
   46.7044   55.8798   30.2630 O   0  0  0  0  0  0  0  0  0  0  0  0
   45.4797   57.8369   29.9469 C   0  0  1  0  0  0  0  0  0  0  0  0
   45.3297   59.1871   30.3872 O   0  0  0  0  0  0  0  0  0  0  0  0
   46.5425   57.6147   28.7694 C   0  0  2  0  0  0  0  0  0  0  0  0
   46.0511   58.1069   27.5590 O   0  0  0  0  0  0  0  0  0  0  0  0
   46.6472   56.0908   28.7799 C   0  0  1  0  0  0  0  0  0  0  0  0
   46.6093   53.9194   35.5196 O   0  0  0  0  0  0  0  0  0  0  0  0
   48.7800   54.9558   24.2750 N   0  0  0  0  0  0  0  0  0  0  0  0
   47.6434   55.5928   24.5689 C   0  0  0  0  0  0  0  0  0  0  0  0
   47.2804   55.8083   25.8299 N   0  0  0  0  0  0  0  0  0  0  0  0
   47.9829   55.3043   26.8569 C   0  0  0  0  0  0  0  0  0  0  0  0
   49.1693   54.5720   26.5936 C   0  0  0  0  0  0  0  0  0  0  0  0
   49.5585   54.4170   25.2341 C   0  0  0  0  0  0  0  0  0  0  0  0
   50.7075   53.7315   24.8955 N   0  0  0  0  0  0  0  0  0  0  0  0
   49.6684   54.1813   27.7794 N   0  0  0  0  0  0  0  0  0  0  0  0
   48.8890   54.6050   28.7383 C   0  0  0  0  0  0  0  0  0  0  0  0
   47.8366   55.3149   28.2317 N   0  0  0  0  0  0  0  0  0  0  0  0
  2  1  1  6  0  0  0
  2  3  1  0  0  0  0
  2  5  1  0  0  0  0
  3  4  1  0  0  0  0
  3 17  1  0  0  0  0
  5  6  1  0  0  0  0
  7  6  1  1  0  0  0
  7  8  1  0  0  0  0
  7  9  1  0  0  0  0
 10  9  1  6  0  0  0
 10 11  1  0  0  0  0
 10 12  1  0  0  0  0
 11 16  1  0  0  0  0
 12 13  1  1  0  0  0
 12 14  1  0  0  0  0
 14 15  1  6  0  0  0
 14 16  1  0  0  0  0
 16 27  1  6  0  0  0
 18 19  2  0  0  0  0
 18 23  1  0  0  0  0
 19 20  1  0  0  0  0
 20 21  2  0  0  0  0
 21 22  1  0  0  0  0
 21 27  1  0  0  0  0
 22 23  2  0  0  0  0
 22 25  1  0  0  0  0
 23 24  1  0  0  0  0
 25 26  2  0  0  0  0
 26 27  1  0  0  0  0
M  END
>  <CHROM.1>
138.39353967,-176.30699961,176.40273774,158.43697151,-98.63229426,18.64147077
177.52902721,47.86093712,55.78043056,30.18602706,-1.67256043,1.03449475,-1.46897860

>  <Name>
ligand

>  <RI>
0

>  <Rbt.Current_Directory>
/home/itssahil/PROJECTS/Mol_Feturizer/New_Systems/rnas/3IQR

>  <Rbt.Executable>
rbdock ($Id: //depot/dev/client3/rdock/2013.1/src/exe/rbdock.cxx#4 $)

>  <Rbt.Library>
libRbt.so (2013.1, Build901 2013/11/27)

>  <Rbt.Parameter_File>
/export/apps/rDock/src/rDock_2013.1_src/data/scripts/dock_solv.prm

>  <Rbt.Receptor>
prm/pocket_docking_5.prm

>  <SCORE>
-14.4723

>  <SCORE.INTER>
-10.3991

>  <SCORE.INTER.CONST>
1

>  <SCORE.INTER.POLAR>
0

>  <SCORE.INTER.ROT>
7

>  <SCORE.INTER.SOLV>
13.2197

>  <SCORE.INTER.VDW>
-19.606

>  <SCORE.INTER.norm>
-0.385153

>  <SCORE.INTRA>
-4.07321

>  <SCORE.INTRA.DIHEDRAL>
0.318688

>  <SCORE.INTRA.DIHEDRAL.0>
9.29433

>  <SCORE.INTRA.POLAR>
0

>  <SCORE.INTRA.POLAR.0>
0

>  <SCORE.INTRA.REPUL>
0

>  <SCORE.INTRA.REPUL.0>
0

>  <SCORE.INTRA.SOLV>
-1.62067

>  <SCORE.INTRA.SOLV.lig_0>
-48.5102

>  <SCORE.INTRA.VDW>
-3.42222

>  <SCORE.INTRA.VDW.0>
0.379549

>  <SCORE.INTRA.norm>
-0.15086

>  <SCORE.RESTR>
0

>  <SCORE.RESTR.CAVITY>
0

>  <SCORE.RESTR.norm>
0

>  <SCORE.SYSTEM>
0

>  <SCORE.SYSTEM.CONST>
0

>  <SCORE.SYSTEM.DIHEDRAL>
0

>  <SCORE.SYSTEM.SOLV>
0

>  <SCORE.SYSTEM.norm>
0

>  <SCORE.heavy>
27

>  <SCORE.norm>
-0.536012

>  <RMSD>
7.094

$$$$
ligand
 OpenBabel11021811483D
libRbt.so/2013.1/901 2013/11/27
 27 29  0  0  0  0  0  0  0  0999 V2000
   49.2157   58.9814   32.1945 N   0  0  0  0  0  0  0  0  0  0  0  0
   47.9257   58.3602   32.4909 C   0  0  2  0  0  0  0  0  0  0  0  0
   48.0954   57.3748   33.6109 C   0  0  0  0  0  0  0  0  0  0  0  0
   47.2666   56.4857   33.7755 O   0  0  0  0  0  0  0  0  0  0  0  0
   47.3932   57.6295   31.2590 C   0  0  0  0  0  0  0  0  0  0  0  0
   47.2782   58.6179   30.1129 C   0  0  0  0  0  0  0  0  0  0  0  0
   46.8297   57.8514   28.5229 S   0  0  2  0  0  0  0  0  0  0  0  0
   45.1873   57.1299   28.8135 C   0  0  0  0  0  0  0  0  0  0  0  0
   47.6278   56.1372   28.6154 C   0  0  0  0  0  0  0  0  0  0  0  0
   49.2085   56.0150   28.6661 C   0  0  2  0  0  0  0  0  0  0  0  0
   49.9245   56.0688   27.4530 O   0  0  0  0  0  0  0  0  0  0  0  0
   49.8612   55.0093   29.5274 C   0  0  1  0  0  0  0  0  0  0  0  0
   48.9877   54.4940   30.5329 O   0  0  0  0  0  0  0  0  0  0  0  0
   50.2393   53.9832   28.3573 C   0  0  2  0  0  0  0  0  0  0  0  0
   51.1179   53.0031   28.8225 O   0  0  0  0  0  0  0  0  0  0  0  0
   50.9010   54.9349   27.3625 C   0  0  1  0  0  0  0  0  0  0  0  0
   49.0834   57.4376   34.3312 O   0  0  0  0  0  0  0  0  0  0  0  0
   48.0026   54.9707   23.1519 N   0  0  0  0  0  0  0  0  0  0  0  0
   47.6838   55.1611   24.4349 C   0  0  0  0  0  0  0  0  0  0  0  0
   48.6117   55.1338   25.3870 N   0  0  0  0  0  0  0  0  0  0  0  0
   49.8856   54.8099   25.1144 C   0  0  0  0  0  0  0  0  0  0  0  0
   50.2626   54.5442   23.7725 C   0  0  0  0  0  0  0  0  0  0  0  0
   49.2546   54.6454   22.7739 C   0  0  0  0  0  0  0  0  0  0  0  0
   49.5438   54.4175   21.4437 N   0  0  0  0  0  0  0  0  0  0  0  0
   51.5734   54.2446   23.7783 N   0  0  0  0  0  0  0  0  0  0  0  0
   52.0247   54.2984   25.0030 C   0  0  0  0  0  0  0  0  0  0  0  0
   51.0315   54.6536   25.8722 N   0  0  0  0  0  0  0  0  0  0  0  0
  2  1  1  6  0  0  0
  2  3  1  0  0  0  0
  2  5  1  0  0  0  0
  3  4  1  0  0  0  0
  3 17  1  0  0  0  0
  5  6  1  0  0  0  0
  7  6  1  1  0  0  0
  7  8  1  0  0  0  0
  7  9  1  0  0  0  0
 10  9  1  6  0  0  0
 10 11  1  0  0  0  0
 10 12  1  0  0  0  0
 11 16  1  0  0  0  0
 12 13  1  1  0  0  0
 12 14  1  0  0  0  0
 14 15  1  1  0  0  0
 14 16  1  0  0  0  0
 16 27  1  6  0  0  0
 18 19  2  0  0  0  0
 18 23  1  0  0  0  0
 19 20  1  0  0  0  0
 20 21  2  0  0  0  0
 21 22  1  0  0  0  0
 21 27  1  0  0  0  0
 22 23  2  0  0  0  0
 22 25  1  0  0  0  0
 23 24  1  0  0  0  0
 25 26  2  0  0  0  0
 26 27  1  0  0  0  0
M  END
>  <CHROM.1>
-159.57716524,-57.60889787,173.59635096,62.29246507,-65.11582990,-82.78205366
-35.46449020,48.90856564,55.90552979,28.12511803,-1.84549647,0.61792589,-1.74777384

>  <Name>
ligand

>  <RI>
0

>  <Rbt.Current_Directory>
/home/itssahil/PROJECTS/Mol_Feturizer/New_Systems/rnas/3IQR

>  <Rbt.Executable>
rbdock ($Id: //depot/dev/client3/rdock/2013.1/src/exe/rbdock.cxx#4 $)

>  <Rbt.Library>
libRbt.so (2013.1, Build901 2013/11/27)

>  <Rbt.Parameter_File>
/export/apps/rDock/src/rDock_2013.1_src/data/scripts/dock_solv.prm

>  <Rbt.Receptor>
prm/pocket_docking_8.prm

>  <SCORE>
-17.9643

>  <SCORE.INTER>
-14.5387

>  <SCORE.INTER.CONST>
1

>  <SCORE.INTER.POLAR>
0

>  <SCORE.INTER.ROT>
7

>  <SCORE.INTER.SOLV>
16.0284

>  <SCORE.INTER.VDW>
-23.3019

>  <SCORE.INTER.norm>
-0.538471

>  <SCORE.INTRA>
-3.42557

>  <SCORE.INTRA.DIHEDRAL>
-3.26512

>  <SCORE.INTRA.DIHEDRAL.0>
9.29433

>  <SCORE.INTRA.POLAR>
0

>  <SCORE.INTRA.POLAR.0>
0

>  <SCORE.INTRA.REPUL>
0

>  <SCORE.INTRA.REPUL.0>
0

>  <SCORE.INTRA.SOLV>
-0.902147

>  <SCORE.INTRA.SOLV.lig_0>
-48.5102

>  <SCORE.INTRA.VDW>
-1.34194

>  <SCORE.INTRA.VDW.0>
0.379549

>  <SCORE.INTRA.norm>
-0.126873

>  <SCORE.RESTR>
0

>  <SCORE.RESTR.CAVITY>
0

>  <SCORE.RESTR.norm>
0

>  <SCORE.SYSTEM>
0

>  <SCORE.SYSTEM.CONST>
0

>  <SCORE.SYSTEM.DIHEDRAL>
0

>  <SCORE.SYSTEM.SOLV>
0

>  <SCORE.SYSTEM.norm>
0

>  <SCORE.heavy>
27

>  <SCORE.norm>
-0.665345

>  <RMSD>
7.110

$$$$
ligand
 OpenBabel11021811483D
libRbt.so/2013.1/901 2013/11/27
 27 29  0  0  0  0  0  0  0  0999 V2000
   44.8468   54.6769   33.0644 N   0  0  0  0  0  0  0  0  0  0  0  0
   45.1057   56.0725   33.4152 C   0  0  2  0  0  0  0  0  0  0  0  0
   44.4714   56.9675   32.3901 C   0  0  0  0  0  0  0  0  0  0  0  0
   43.6712   56.5048   31.5839 O   0  0  0  0  0  0  0  0  0  0  0  0
   46.6097   56.3406   33.4503 C   0  0  0  0  0  0  0  0  0  0  0  0
   47.2110   55.9424   32.1147 C   0  0  0  0  0  0  0  0  0  0  0  0
   48.9963   56.2771   31.9830 S   0  0  2  0  0  0  0  0  0  0  0  0
   49.1041   58.0723   31.7223 C   0  0  0  0  0  0  0  0  0  0  0  0
   49.3735   55.9627   30.1547 C   0  0  0  0  0  0  0  0  0  0  0  0
   49.9771   54.5639   29.7127 C   0  0  2  0  0  0  0  0  0  0  0  0
   50.5691   54.4619   28.4373 O   0  0  0  0  0  0  0  0  0  0  0  0
   49.2417   53.3095   29.9670 C   0  0  1  0  0  0  0  0  0  0  0  0
   48.2131   53.4619   30.9460 O   0  0  0  0  0  0  0  0  0  0  0  0
   48.7303   53.0889   28.4652 C   0  0  2  0  0  0  0  0  0  0  0  0
   48.1916   51.8106   28.3080 O   0  0  0  0  0  0  0  0  0  0  0  0
   50.0410   53.2673   27.7014 C   0  0  1  0  0  0  0  0  0  0  0  0
   44.7244   58.1655   32.3894 O   0  0  0  0  0  0  0  0  0  0  0  0
   47.3773   52.6366   23.3842 N   0  0  0  0  0  0  0  0  0  0  0  0
   47.1940   52.1310   24.6069 C   0  0  0  0  0  0  0  0  0  0  0  0
   48.0037   52.4491   25.6126 N   0  0  0  0  0  0  0  0  0  0  0  0
   49.0971   53.2037   25.4198 C   0  0  0  0  0  0  0  0  0  0  0  0
   49.3656   53.7192   24.1254 C   0  0  0  0  0  0  0  0  0  0  0  0
   48.4416   53.4088   23.0893 C   0  0  0  0  0  0  0  0  0  0  0  0
   48.6232   53.8847   21.8065 N   0  0  0  0  0  0  0  0  0  0  0  0
   50.5065   54.4261   24.2063 N   0  0  0  0  0  0  0  0  0  0  0  0
   50.9580   54.3814   25.4313 C   0  0  0  0  0  0  0  0  0  0  0  0
   50.1244   53.6501   26.2304 N   0  0  0  0  0  0  0  0  0  0  0  0
  2  1  1  6  0  0  0
  2  3  1  0  0  0  0
  2  5  1  0  0  0  0
  3  4  1  0  0  0  0
  3 17  1  0  0  0  0
  5  6  1  0  0  0  0
  7  6  1  6  0  0  0
  7  8  1  0  0  0  0
  7  9  1  0  0  0  0
 10  9  1  6  0  0  0
 10 11  1  0  0  0  0
 10 12  1  0  0  0  0
 11 16  1  0  0  0  0
 12 13  1  1  0  0  0
 12 14  1  0  0  0  0
 14 15  1  1  0  0  0
 14 16  1  0  0  0  0
 16 27  1  6  0  0  0
 18 19  2  0  0  0  0
 18 23  1  0  0  0  0
 19 20  1  0  0  0  0
 20 21  2  0  0  0  0
 21 22  1  0  0  0  0
 21 27  1  0  0  0  0
 22 23  2  0  0  0  0
 22 25  1  0  0  0  0
 23 24  1  0  0  0  0
 25 26  2  0  0  0  0
 26 27  1  0  0  0  0
M  END
>  <CHROM.1>
12.48170757,55.40517371,177.40904909,-76.26258400,-97.86210811,-163.79459190
-143.19661856,48.10902563,54.67139410,28.78907521,1.88270695,-0.01541134
1.20238321

>  <Name>
ligand

>  <RI>
0

>  <Rbt.Current_Directory>
/home/itssahil/PROJECTS/Mol_Feturizer/New_Systems/rnas/3IQR

>  <Rbt.Executable>
rbdock ($Id: //depot/dev/client3/rdock/2013.1/src/exe/rbdock.cxx#4 $)

>  <Rbt.Library>
libRbt.so (2013.1, Build901 2013/11/27)

>  <Rbt.Parameter_File>
/export/apps/rDock/src/rDock_2013.1_src/data/scripts/dock_solv.prm

>  <Rbt.Receptor>
prm/pocket_docking_6.prm

>  <SCORE>
-14.201

>  <SCORE.INTER>
-11.2291

>  <SCORE.INTER.CONST>
1

>  <SCORE.INTER.POLAR>
0

>  <SCORE.INTER.ROT>
7

>  <SCORE.INTER.SOLV>
6.94523

>  <SCORE.INTER.VDW>
-18.0678

>  <SCORE.INTER.norm>
-0.415892

>  <SCORE.INTRA>
-2.97195

>  <SCORE.INTRA.DIHEDRAL>
-2.16141

>  <SCORE.INTRA.DIHEDRAL.0>
9.29433

>  <SCORE.INTRA.POLAR>
0

>  <SCORE.INTRA.POLAR.0>
0

>  <SCORE.INTRA.REPUL>
0

>  <SCORE.INTRA.REPUL.0>
0

>  <SCORE.INTRA.SOLV>
-0.420641

>  <SCORE.INTRA.SOLV.lig_0>
-48.5102

>  <SCORE.INTRA.VDW>
-1.68092

>  <SCORE.INTRA.VDW.0>
0.379549

>  <SCORE.INTRA.norm>
-0.110072

>  <SCORE.RESTR>
0

>  <SCORE.RESTR.CAVITY>
0

>  <SCORE.RESTR.norm>
0

>  <SCORE.SYSTEM>
0

>  <SCORE.SYSTEM.CONST>
0

>  <SCORE.SYSTEM.DIHEDRAL>
0

>  <SCORE.SYSTEM.SOLV>
0

>  <SCORE.SYSTEM.norm>
0

>  <SCORE.heavy>
27

>  <SCORE.norm>
-0.525964

>  <RMSD>
7.114

$$$$
ligand
 OpenBabel11021811483D
libRbt.so/2013.1/901 2013/11/27
 27 29  0  0  0  0  0  0  0  0999 V2000
   45.8322   54.6451   34.2671 N   0  0  0  0  0  0  0  0  0  0  0  0
   47.1017   54.0224   33.8953 C   0  0  2  0  0  0  0  0  0  0  0  0
   47.1427   52.6209   34.4322 C   0  0  0  0  0  0  0  0  0  0  0  0
   47.9056   51.7975   33.9378 O   0  0  0  0  0  0  0  0  0  0  0  0
   48.2717   54.8147   34.4772 C   0  0  0  0  0  0  0  0  0  0  0  0
   48.4274   56.1065   33.6956 C   0  0  0  0  0  0  0  0  0  0  0  0
   49.1849   55.8861   32.0542 S   0  0  2  0  0  0  0  0  0  0  0  0
   48.9669   57.4927   31.2335 C   0  0  0  0  0  0  0  0  0  0  0  0
   47.7887   55.1377   31.0175 C   0  0  0  0  0  0  0  0  0  0  0  0
   47.6788   53.5613   30.8800 C   0  0  2  0  0  0  0  0  0  0  0  0
   48.5863   52.8975   30.0297 O   0  0  0  0  0  0  0  0  0  0  0  0
   46.3644   52.9057   30.7319 C   0  0  1  0  0  0  0  0  0  0  0  0
   45.2799   53.7513   31.1168 O   0  0  0  0  0  0  0  0  0  0  0  0
   46.4810   52.6136   29.1614 C   0  0  2  0  0  0  0  0  0  0  0  0
   45.4685   51.7488   28.7419 O   0  0  0  0  0  0  0  0  0  0  0  0
   47.8625   51.9644   29.1061 C   0  0  1  0  0  0  0  0  0  0  0  0
   46.4433   52.3162   35.3898 O   0  0  0  0  0  0  0  0  0  0  0  0
   48.9469   54.8412   25.0221 N   0  0  0  0  0  0  0  0  0  0  0  0
   48.0596   55.0167   26.0049 C   0  0  0  0  0  0  0  0  0  0  0  0
   47.9549   54.1440   27.0028 N   0  0  0  0  0  0  0  0  0  0  0  0
   48.6583   53.0006   27.0100 C   0  0  0  0  0  0  0  0  0  0  0  0
   49.5745   52.7424   25.9578 C   0  0  0  0  0  0  0  0  0  0  0  0
   49.7042   53.7294   24.9416 C   0  0  0  0  0  0  0  0  0  0  0  0
   50.5848   53.5606   23.8924 N   0  0  0  0  0  0  0  0  0  0  0  0
   50.1349   51.5448   26.2018 N   0  0  0  0  0  0  0  0  0  0  0  0
   49.6374   51.0499   27.3036 C   0  0  0  0  0  0  0  0  0  0  0  0
   48.7280   51.9085   27.8550 N   0  0  0  0  0  0  0  0  0  0  0  0
  2  1  1  1  0  0  0
  2  3  1  0  0  0  0
  2  5  1  0  0  0  0
  3  4  1  0  0  0  0
  3 17  1  0  0  0  0
  5  6  1  0  0  0  0
  7  6  1  1  0  0  0
  7  8  1  0  0  0  0
  7  9  1  0  0  0  0
 10  9  1  6  0  0  0
 10 11  1  0  0  0  0
 10 12  1  0  0  0  0
 11 16  1  0  0  0  0
 12 13  1  6  0  0  0
 12 14  1  0  0  0  0
 14 15  1  1  0  0  0
 14 16  1  0  0  0  0
 16 27  1  6  0  0  0
 18 19  2  0  0  0  0
 18 23  1  0  0  0  0
 19 20  1  0  0  0  0
 20 21  2  0  0  0  0
 21 22  1  0  0  0  0
 21 27  1  0  0  0  0
 22 23  2  0  0  0  0
 22 25  1  0  0  0  0
 23 24  1  0  0  0  0
 25 26  2  0  0  0  0
 26 27  1  0  0  0  0
M  END
>  <CHROM.1>
159.01599877,-73.30894504,-75.39922191,169.76801600,-93.67925883,-75.47698578
-76.37483221,48.03974225,53.66373107,30.04310730,2.06687625,1.07128851,1.01147533

>  <Name>
ligand

>  <RI>
0

>  <Rbt.Current_Directory>
/home/itssahil/PROJECTS/Mol_Feturizer/New_Systems/rnas/3IQR

>  <Rbt.Executable>
rbdock ($Id: //depot/dev/client3/rdock/2013.1/src/exe/rbdock.cxx#4 $)

>  <Rbt.Library>
libRbt.so (2013.1, Build901 2013/11/27)

>  <Rbt.Parameter_File>
/export/apps/rDock/src/rDock_2013.1_src/data/scripts/dock_solv.prm

>  <Rbt.Receptor>
prm/pocket_docking_8.prm

>  <SCORE>
-14.9471

>  <SCORE.INTER>
-10.6579

>  <SCORE.INTER.CONST>
1

>  <SCORE.INTER.POLAR>
0

>  <SCORE.INTER.ROT>
7

>  <SCORE.INTER.SOLV>
8.12569

>  <SCORE.INTER.VDW>
-18.0805

>  <SCORE.INTER.norm>
-0.394739

>  <SCORE.INTRA>
-4.28918

>  <SCORE.INTRA.DIHEDRAL>
-1.5617

>  <SCORE.INTRA.DIHEDRAL.0>
9.29433

>  <SCORE.INTRA.POLAR>
0

>  <SCORE.INTRA.POLAR.0>
0

>  <SCORE.INTRA.REPUL>
0

>  <SCORE.INTRA.REPUL.0>
0

>  <SCORE.INTRA.SOLV>
1.51167

>  <SCORE.INTRA.SOLV.lig_0>
-48.5102

>  <SCORE.INTRA.VDW>
-4.26417

>  <SCORE.INTRA.VDW.0>
0.379549

>  <SCORE.INTRA.norm>
-0.158859

>  <SCORE.RESTR>
0

>  <SCORE.RESTR.CAVITY>
0

>  <SCORE.RESTR.norm>
0

>  <SCORE.SYSTEM>
0

>  <SCORE.SYSTEM.CONST>
0

>  <SCORE.SYSTEM.DIHEDRAL>
0

>  <SCORE.SYSTEM.SOLV>
0

>  <SCORE.SYSTEM.norm>
0

>  <SCORE.heavy>
27

>  <SCORE.norm>
-0.553597

>  <RMSD>
7.136

$$$$
ligand
 OpenBabel11021811483D
libRbt.so/2013.1/901 2013/11/27
 27 29  0  0  0  0  0  0  0  0999 V2000
   48.9724   53.9713   35.5682 N   0  0  0  0  0  0  0  0  0  0  0  0
   47.7390   54.0787   34.7902 C   0  0  2  0  0  0  0  0  0  0  0  0
   47.2138   52.7022   34.5009 C   0  0  0  0  0  0  0  0  0  0  0  0
   47.8971   51.9069   33.8647 O   0  0  0  0  0  0  0  0  0  0  0  0
   48.0060   54.7993   33.4694 C   0  0  0  0  0  0  0  0  0  0  0  0
   48.4320   56.2258   33.7653 C   0  0  0  0  0  0  0  0  0  0  0  0
   48.7534   57.2215   32.2747 S   0  0  2  0  0  0  0  0  0  0  0  0
   48.7852   58.9373   32.8724 C   0  0  0  0  0  0  0  0  0  0  0  0
   47.0303   57.4835   31.5355 C   0  0  0  0  0  0  0  0  0  0  0  0
   46.2735   56.2589   30.8693 C   0  0  2  0  0  0  0  0  0  0  0  0
   46.8041   55.7061   29.6861 O   0  0  0  0  0  0  0  0  0  0  0  0
   44.8025   56.2575   30.7442 C   0  0  1  0  0  0  0  0  0  0  0  0
   44.1755   57.2147   31.5987 O   0  0  0  0  0  0  0  0  0  0  0  0
   44.7510   56.5983   29.1801 C   0  0  2  0  0  0  0  0  0  0  0  0
   43.4617   56.4182   28.6760 O   0  0  0  0  0  0  0  0  0  0  0  0
   45.7373   55.5633   28.6424 C   0  0  1  0  0  0  0  0  0  0  0  0
   46.1208   52.3647   34.9373 O   0  0  0  0  0  0  0  0  0  0  0  0
   47.0347   52.6683   24.6340 N   0  0  0  0  0  0  0  0  0  0  0  0
   46.4515   52.3479   25.7922 C   0  0  0  0  0  0  0  0  0  0  0  0
   46.1757   53.2751   26.7046 N   0  0  0  0  0  0  0  0  0  0  0  0
   46.5654   54.5501   26.5475 C   0  0  0  0  0  0  0  0  0  0  0  0
   47.2383   54.9289   25.3572 C   0  0  0  0  0  0  0  0  0  0  0  0
   47.4589   53.9214   24.3774 C   0  0  0  0  0  0  0  0  0  0  0  0
   48.0926   54.2123   23.1863 N   0  0  0  0  0  0  0  0  0  0  0  0
   47.5173   56.2404   25.4568 N   0  0  0  0  0  0  0  0  0  0  0  0
   47.0801   56.6906   26.6025 C   0  0  0  0  0  0  0  0  0  0  0  0
   46.4724   55.6957   27.3160 N   0  0  0  0  0  0  0  0  0  0  0  0
  2  1  1  6  0  0  0
  2  3  1  0  0  0  0
  2  5  1  0  0  0  0
  3  4  1  0  0  0  0
  3 17  1  0  0  0  0
  5  6  1  0  0  0  0
  7  6  1  1  0  0  0
  7  8  1  0  0  0  0
  7  9  1  0  0  0  0
 10  9  1  6  0  0  0
 10 11  1  0  0  0  0
 10 12  1  0  0  0  0
 11 16  1  0  0  0  0
 12 13  1  1  0  0  0
 12 14  1  0  0  0  0
 14 15  1  6  0  0  0
 14 16  1  0  0  0  0
 16 27  1  6  0  0  0
 18 19  2  0  0  0  0
 18 23  1  0  0  0  0
 19 20  1  0  0  0  0
 20 21  2  0  0  0  0
 21 22  1  0  0  0  0
 21 27  1  0  0  0  0
 22 23  2  0  0  0  0
 22 25  1  0  0  0  0
 23 24  1  0  0  0  0
 25 26  2  0  0  0  0
 26 27  1  0  0  0  0
M  END
>  <CHROM.1>
-60.18290366,-64.36308429,-178.82624515,164.94986204,-70.84465470,-66.71086609
110.60152074,46.92490160,55.23772553,29.98028759,-0.88643923,1.40521752,-2.29564928

>  <Name>
ligand

>  <RI>
0

>  <Rbt.Current_Directory>
/home/itssahil/PROJECTS/Mol_Feturizer/New_Systems/rnas/3IQR

>  <Rbt.Executable>
rbdock ($Id: //depot/dev/client3/rdock/2013.1/src/exe/rbdock.cxx#4 $)

>  <Rbt.Library>
libRbt.so (2013.1, Build901 2013/11/27)

>  <Rbt.Parameter_File>
/export/apps/rDock/src/rDock_2013.1_src/data/scripts/dock_solv.prm

>  <Rbt.Receptor>
prm/pocket_docking_5.prm

>  <SCORE>
-18.5616

>  <SCORE.INTER>
-12.5432

>  <SCORE.INTER.CONST>
1

>  <SCORE.INTER.POLAR>
0

>  <SCORE.INTER.ROT>
7

>  <SCORE.INTER.SOLV>
14.3413

>  <SCORE.INTER.VDW>
-21.4093

>  <SCORE.INTER.norm>
-0.464564

>  <SCORE.INTRA>
-6.01832

>  <SCORE.INTRA.DIHEDRAL>
-5.08659

>  <SCORE.INTRA.DIHEDRAL.0>
9.29433

>  <SCORE.INTRA.POLAR>
0

>  <SCORE.INTRA.POLAR.0>
0

>  <SCORE.INTRA.REPUL>
0

>  <SCORE.INTRA.REPUL.0>
0

>  <SCORE.INTRA.SOLV>
-1.26518

>  <SCORE.INTRA.SOLV.lig_0>
-48.5102

>  <SCORE.INTRA.VDW>
-2.84244

>  <SCORE.INTRA.VDW.0>
0.379549

>  <SCORE.INTRA.norm>
-0.222901

>  <SCORE.RESTR>
0

>  <SCORE.RESTR.CAVITY>
0

>  <SCORE.RESTR.norm>
0

>  <SCORE.SYSTEM>
0

>  <SCORE.SYSTEM.CONST>
0

>  <SCORE.SYSTEM.DIHEDRAL>
0

>  <SCORE.SYSTEM.SOLV>
0

>  <SCORE.SYSTEM.norm>
0

>  <SCORE.heavy>
27

>  <SCORE.norm>
-0.687465

>  <RMSD>
7.233

$$$$
ligand
 OpenBabel11021811483D
libRbt.so/2013.1/901 2013/11/27
 27 29  0  0  0  0  0  0  0  0999 V2000
   47.6812   54.1365   36.3390 N   0  0  0  0  0  0  0  0  0  0  0  0
   47.7058   54.1022   34.8775 C   0  0  2  0  0  0  0  0  0  0  0  0
   47.6014   52.6783   34.4129 C   0  0  0  0  0  0  0  0  0  0  0  0
   48.1747   52.3247   33.3879 O   0  0  0  0  0  0  0  0  0  0  0  0
   49.0095   54.7040   34.3546 C   0  0  0  0  0  0  0  0  0  0  0  0
   48.8184   56.1973   34.1608 C   0  0  0  0  0  0  0  0  0  0  0  0
   48.2414   56.6547   32.4951 S   0  0  2  0  0  0  0  0  0  0  0  0
   47.6674   58.3702   32.6681 C   0  0  0  0  0  0  0  0  0  0  0  0
   46.4537   56.0329   32.4579 C   0  0  0  0  0  0  0  0  0  0  0  0
   46.1704   54.4867   32.2449 C   0  0  2  0  0  0  0  0  0  0  0  0
   46.6671   53.8684   31.0795 O   0  0  0  0  0  0  0  0  0  0  0  0
   44.8361   53.9182   32.5198 C   0  0  1  0  0  0  0  0  0  0  0  0
   44.0278   54.7742   33.3282 O   0  0  0  0  0  0  0  0  0  0  0  0
   44.3754   53.7840   30.9917 C   0  0  2  0  0  0  0  0  0  0  0  0
   43.2112   53.0202   30.8906 O   0  0  0  0  0  0  0  0  0  0  0  0
   45.5919   53.0738   30.4010 C   0  0  1  0  0  0  0  0  0  0  0  0
   46.9775   51.8649   35.0823 O   0  0  0  0  0  0  0  0  0  0  0  0
   49.0858   51.0765   27.2492 N   0  0  0  0  0  0  0  0  0  0  0  0
   48.9689   51.0132   28.5782 C   0  0  0  0  0  0  0  0  0  0  0  0
   47.9522   51.5936   29.2090 N   0  0  0  0  0  0  0  0  0  0  0  0
   47.0623   52.3540   28.5516 C   0  0  0  0  0  0  0  0  0  0  0  0
   47.1767   52.4973   27.1446 C   0  0  0  0  0  0  0  0  0  0  0  0
   48.2408   51.8096   26.4978 C   0  0  0  0  0  0  0  0  0  0  0  0
   48.4113   51.8854   25.1303 N   0  0  0  0  0  0  0  0  0  0  0  0
   46.1775   53.3026   26.7432 N   0  0  0  0  0  0  0  0  0  0  0  0
   45.4707   53.6658   27.7800 C   0  0  0  0  0  0  0  0  0  0  0  0
   45.9615   53.1028   28.9246 N   0  0  0  0  0  0  0  0  0  0  0  0
  2  1  1  1  0  0  0
  2  3  1  0  0  0  0
  2  5  1  0  0  0  0
  3  4  1  0  0  0  0
  3 17  1  0  0  0  0
  5  6  1  0  0  0  0
  7  6  1  1  0  0  0
  7  8  1  0  0  0  0
  7  9  1  0  0  0  0
 10  9  1  6  0  0  0
 10 11  1  0  0  0  0
 10 12  1  0  0  0  0
 11 16  1  0  0  0  0
 12 13  1  1  0  0  0
 12 14  1  0  0  0  0
 14 15  1  1  0  0  0
 14 16  1  0  0  0  0
 16 27  1  6  0  0  0
 18 19  2  0  0  0  0
 18 23  1  0  0  0  0
 19 20  1  0  0  0  0
 20 21  2  0  0  0  0
 21 22  1  0  0  0  0
 21 27  1  0  0  0  0
 22 23  2  0  0  0  0
 22 25  1  0  0  0  0
 23 24  1  0  0  0  0
 25 26  2  0  0  0  0
 26 27  1  0  0  0  0
M  END
>  <CHROM.1>
-146.89971774,-89.35732857,-90.72073677,164.93666480,-77.67591511,-57.98070991
71.48023241,46.98611629,53.74591085,31.18803853,-1.57389769,0.23722840,-1.95785670

>  <Name>
ligand

>  <RI>
0

>  <Rbt.Current_Directory>
/home/itssahil/PROJECTS/Mol_Feturizer/New_Systems/rnas/3IQR

>  <Rbt.Executable>
rbdock ($Id: //depot/dev/client3/rdock/2013.1/src/exe/rbdock.cxx#4 $)

>  <Rbt.Library>
libRbt.so (2013.1, Build901 2013/11/27)

>  <Rbt.Parameter_File>
/export/apps/rDock/src/rDock_2013.1_src/data/scripts/dock_solv.prm

>  <Rbt.Receptor>
prm/pocket_docking_8.prm

>  <SCORE>
-14.7141

>  <SCORE.INTER>
-11.1977

>  <SCORE.INTER.CONST>
1

>  <SCORE.INTER.POLAR>
0

>  <SCORE.INTER.ROT>
7

>  <SCORE.INTER.SOLV>
12.2321

>  <SCORE.INTER.VDW>
-19.8091

>  <SCORE.INTER.norm>
-0.414729

>  <SCORE.INTRA>
-3.51643

>  <SCORE.INTRA.DIHEDRAL>
0.832865

>  <SCORE.INTRA.DIHEDRAL.0>
9.29433

>  <SCORE.INTRA.POLAR>
0

>  <SCORE.INTRA.POLAR.0>
0

>  <SCORE.INTRA.REPUL>
0

>  <SCORE.INTRA.REPUL.0>
0

>  <SCORE.INTRA.SOLV>
-0.711185

>  <SCORE.INTRA.SOLV.lig_0>
-48.5102

>  <SCORE.INTRA.VDW>
-3.57727

>  <SCORE.INTRA.VDW.0>
0.379549

>  <SCORE.INTRA.norm>
-0.130238

>  <SCORE.RESTR>
0

>  <SCORE.RESTR.CAVITY>
0

>  <SCORE.RESTR.norm>
0

>  <SCORE.SYSTEM>
0

>  <SCORE.SYSTEM.CONST>
0

>  <SCORE.SYSTEM.DIHEDRAL>
0

>  <SCORE.SYSTEM.SOLV>
0

>  <SCORE.SYSTEM.norm>
0

>  <SCORE.heavy>
27

>  <SCORE.norm>
-0.544967

>  <RMSD>
7.241

$$$$
ligand
 OpenBabel11021811483D
libRbt.so/2013.1/901 2013/11/27
 27 29  0  0  0  0  0  0  0  0999 V2000
   49.4368   55.0890   32.2541 N   0  0  0  0  0  0  0  0  0  0  0  0
   49.3206   55.3560   33.6870 C   0  0  2  0  0  0  0  0  0  0  0  0
   48.9911   54.0789   34.4044 C   0  0  0  0  0  0  0  0  0  0  0  0
   48.5088   53.1358   33.7861 O   0  0  0  0  0  0  0  0  0  0  0  0
   48.2131   56.3759   33.9485 C   0  0  0  0  0  0  0  0  0  0  0  0
   48.6039   57.6989   33.3153 C   0  0  0  0  0  0  0  0  0  0  0  0
   48.2923   57.7765   31.5226 S   0  0  2  0  0  0  0  0  0  0  0  0
   47.9159   59.5252   31.2020 C   0  0  0  0  0  0  0  0  0  0  0  0
   46.4596   57.3272   31.3704 C   0  0  0  0  0  0  0  0  0  0  0  0
   45.8953   56.8157   29.9789 C   0  0  2  0  0  0  0  0  0  0  0  0
   46.5023   55.6924   29.3813 O   0  0  0  0  0  0  0  0  0  0  0  0
   45.5602   57.7694   28.9031 C   0  0  1  0  0  0  0  0  0  0  0  0
   45.4211   59.1092   29.3774 O   0  0  0  0  0  0  0  0  0  0  0  0
   46.8555   57.4928   28.0026 C   0  0  2  0  0  0  0  0  0  0  0  0
   46.7170   58.0777   26.7426 O   0  0  0  0  0  0  0  0  0  0  0  0
   46.8263   55.9667   27.9435 C   0  0  1  0  0  0  0  0  0  0  0  0
   49.2439   53.9694   35.5974 O   0  0  0  0  0  0  0  0  0  0  0  0
   47.9528   51.4983   25.7311 N   0  0  0  0  0  0  0  0  0  0  0  0
   46.7757   52.0731   25.9916 C   0  0  0  0  0  0  0  0  0  0  0  0
   46.7056   53.2724   26.5618 N   0  0  0  0  0  0  0  0  0  0  0  0
   47.8062   53.9074   26.9949 C   0  0  0  0  0  0  0  0  0  0  0  0
   49.0774   53.3112   26.7908 C   0  0  0  0  0  0  0  0  0  0  0  0
   49.1156   52.0570   26.1206 C   0  0  0  0  0  0  0  0  0  0  0  0
   50.3137   51.4191   25.8700 N   0  0  0  0  0  0  0  0  0  0  0  0
   49.9960   54.1406   27.3163 N   0  0  0  0  0  0  0  0  0  0  0  0
   49.3969   55.1834   27.8263 C   0  0  0  0  0  0  0  0  0  0  0  0
   48.0441   55.1022   27.6488 N   0  0  0  0  0  0  0  0  0  0  0  0
  2  1  1  6  0  0  0
  2  3  1  0  0  0  0
  2  5  1  0  0  0  0
  3  4  1  0  0  0  0
  3 17  1  0  0  0  0
  5  6  1  0  0  0  0
  7  6  1  1  0  0  0
  7  8  1  0  0  0  0
  7  9  1  0  0  0  0
 10  9  1  1  0  0  0
 10 11  1  0  0  0  0
 10 12  1  0  0  0  0
 11 16  1  0  0  0  0
 12 13  1  1  0  0  0
 12 14  1  0  0  0  0
 14 15  1  6  0  0  0
 14 16  1  0  0  0  0
 16 27  1  1  0  0  0
 18 19  2  0  0  0  0
 18 23  1  0  0  0  0
 19 20  1  0  0  0  0
 20 21  2  0  0  0  0
 21 22  1  0  0  0  0
 21 27  1  0  0  0  0
 22 23  2  0  0  0  0
 22 25  1  0  0  0  0
 23 24  1  0  0  0  0
 25 26  2  0  0  0  0
 26 27  1  0  0  0  0
M  END
>  <CHROM.1>
-20.04149772,-64.46463691,80.24393780,148.83857846,-159.94519020,56.09530139
99.63509516,47.91904926,55.48781868,29.74251779,-1.54420346,1.10506525,-2.02898880

>  <Name>
ligand

>  <RI>
0

>  <Rbt.Current_Directory>
/home/itssahil/PROJECTS/Mol_Feturizer/New_Systems/rnas/3IQR

>  <Rbt.Executable>
rbdock ($Id: //depot/dev/client3/rdock/2013.1/src/exe/rbdock.cxx#4 $)

>  <Rbt.Library>
libRbt.so (2013.1, Build901 2013/11/27)

>  <Rbt.Parameter_File>
/export/apps/rDock/src/rDock_2013.1_src/data/scripts/dock_solv.prm

>  <Rbt.Receptor>
prm/pocket_docking_4.prm

>  <SCORE>
-14.7305

>  <SCORE.INTER>
-11.5289

>  <SCORE.INTER.CONST>
1

>  <SCORE.INTER.POLAR>
0

>  <SCORE.INTER.ROT>
7

>  <SCORE.INTER.SOLV>
13.2514

>  <SCORE.INTER.VDW>
-20.3697

>  <SCORE.INTER.norm>
-0.426995

>  <SCORE.INTRA>
-3.21082

>  <SCORE.INTRA.DIHEDRAL>
-0.953201

>  <SCORE.INTRA.DIHEDRAL.0>
9.29433

>  <SCORE.INTRA.POLAR>
0

>  <SCORE.INTRA.POLAR.0>
0

>  <SCORE.INTRA.REPUL>
0.0166849

>  <SCORE.INTRA.REPUL.0>
0

>  <SCORE.INTRA.SOLV>
1.10288

>  <SCORE.INTRA.SOLV.lig_0>
-48.5102

>  <SCORE.INTRA.VDW>
-3.36908

>  <SCORE.INTRA.VDW.0>
0.379549

>  <SCORE.INTRA.norm>
-0.118919

>  <SCORE.RESTR>
0.00921975

>  <SCORE.RESTR.CAVITY>
0.00921975

>  <SCORE.RESTR.norm>
0.000341472

>  <SCORE.SYSTEM>
0

>  <SCORE.SYSTEM.CONST>
0

>  <SCORE.SYSTEM.DIHEDRAL>
0

>  <SCORE.SYSTEM.SOLV>
0

>  <SCORE.SYSTEM.norm>
0

>  <SCORE.heavy>
27

>  <SCORE.norm>
-0.545572

>  <RMSD>
7.245

$$$$
ligand
 OpenBabel11021811483D
libRbt.so/2013.1/901 2013/11/27
 27 29  0  0  0  0  0  0  0  0999 V2000
   46.6656   53.5016   34.1692 N   0  0  0  0  0  0  0  0  0  0  0  0
   46.1608   54.1984   32.9870 C   0  0  2  0  0  0  0  0  0  0  0  0
   45.5654   53.1985   32.0384 C   0  0  0  0  0  0  0  0  0  0  0  0
   44.3493   53.1455   31.8878 O   0  0  0  0  0  0  0  0  0  0  0  0
   47.2965   54.9401   32.2832 C   0  0  0  0  0  0  0  0  0  0  0  0
   47.6847   56.1482   33.1159 C   0  0  0  0  0  0  0  0  0  0  0  0
   49.0806   57.0960   32.4304 S   0  0  2  0  0  0  0  0  0  0  0  0
   48.9346   58.7378   33.1955 C   0  0  0  0  0  0  0  0  0  0  0  0
   48.4011   57.7683   30.7963 C   0  0  0  0  0  0  0  0  0  0  0  0
   47.6762   56.7809   29.7884 C   0  0  2  0  0  0  0  0  0  0  0  0
   48.4299   55.7377   29.2131 O   0  0  0  0  0  0  0  0  0  0  0  0
   46.7614   57.2975   28.7514 C   0  0  1  0  0  0  0  0  0  0  0  0
   46.3243   58.6311   29.0162 O   0  0  0  0  0  0  0  0  0  0  0  0
   47.7728   57.1403   27.5195 C   0  0  2  0  0  0  0  0  0  0  0  0
   47.1063   57.3169   26.3057 O   0  0  0  0  0  0  0  0  0  0  0  0
   48.2342   55.6991   27.7272 C   0  0  1  0  0  0  0  0  0  0  0  0
   46.2997   52.4668   31.3869 O   0  0  0  0  0  0  0  0  0  0  0  0
   50.3646   54.5628   23.2215 N   0  0  0  0  0  0  0  0  0  0  0  0
   49.1318   54.9764   23.5266 C   0  0  0  0  0  0  0  0  0  0  0  0
   48.7857   55.2438   24.7824 N   0  0  0  0  0  0  0  0  0  0  0  0
   49.6233   55.0091   25.8049 C   0  0  0  0  0  0  0  0  0  0  0  0
   50.9265   54.5165   25.5359 C   0  0  0  0  0  0  0  0  0  0  0  0
   51.2808   54.3028   24.1749 C   0  0  0  0  0  0  0  0  0  0  0  0
   52.5343   53.8400   23.8291 N   0  0  0  0  0  0  0  0  0  0  0  0
   51.5481   54.3663   26.7187 N   0  0  0  0  0  0  0  0  0  0  0  0
   50.7381   54.7174   27.6815 C   0  0  0  0  0  0  0  0  0  0  0  0
   49.5374   55.1345   27.1791 N   0  0  0  0  0  0  0  0  0  0  0  0
  2  1  1  1  0  0  0
  2  3  1  0  0  0  0
  2  5  1  0  0  0  0
  3  4  1  0  0  0  0
  3 17  1  0  0  0  0
  5  6  1  0  0  0  0
  7  6  1  1  0  0  0
  7  8  1  0  0  0  0
  7  9  1  0  0  0  0
 10  9  1  6  0  0  0
 10 11  1  0  0  0  0
 10 12  1  0  0  0  0
 11 16  1  0  0  0  0
 12 13  1  1  0  0  0
 12 14  1  0  0  0  0
 14 15  1  6  0  0  0
 14 16  1  0  0  0  0
 16 27  1  6  0  0  0
 18 19  2  0  0  0  0
 18 23  1  0  0  0  0
 19 20  1  0  0  0  0
 20 21  2  0  0  0  0
 21 22  1  0  0  0  0
 21 27  1  0  0  0  0
 22 23  2  0  0  0  0
 22 25  1  0  0  0  0
 23 24  1  0  0  0  0
 25 26  2  0  0  0  0
 26 27  1  0  0  0  0
M  END
>  <CHROM.1>
108.23912995,-72.62702532,177.63883066,159.29592376,-49.45569848,-63.97617322
-179.27033391,48.37773812,55.53169468,28.97327312,2.56825193,1.07738283,0.56566507

>  <Name>
ligand

>  <RI>
0

>  <Rbt.Current_Directory>
/home/itssahil/PROJECTS/Mol_Feturizer/New_Systems/rnas/3IQR

>  <Rbt.Executable>
rbdock ($Id: //depot/dev/client3/rdock/2013.1/src/exe/rbdock.cxx#4 $)

>  <Rbt.Library>
libRbt.so (2013.1, Build901 2013/11/27)

>  <Rbt.Parameter_File>
/export/apps/rDock/src/rDock_2013.1_src/data/scripts/dock_solv.prm

>  <Rbt.Receptor>
prm/pocket_docking_7.prm

>  <SCORE>
-17.026

>  <SCORE.INTER>
-11.8929

>  <SCORE.INTER.CONST>
1

>  <SCORE.INTER.POLAR>
0

>  <SCORE.INTER.ROT>
7

>  <SCORE.INTER.SOLV>
8.85094

>  <SCORE.INTER.VDW>
-19.1456

>  <SCORE.INTER.norm>
-0.440477

>  <SCORE.INTRA>
-5.13313

>  <SCORE.INTRA.DIHEDRAL>
-3.54265

>  <SCORE.INTRA.DIHEDRAL.0>
9.29433

>  <SCORE.INTRA.POLAR>
0

>  <SCORE.INTRA.POLAR.0>
0

>  <SCORE.INTRA.REPUL>
0

>  <SCORE.INTRA.REPUL.0>
0

>  <SCORE.INTRA.SOLV>
-1.0965

>  <SCORE.INTRA.SOLV.lig_0>
-48.5102

>  <SCORE.INTRA.VDW>
-2.81355

>  <SCORE.INTRA.VDW.0>
0.379549

>  <SCORE.INTRA.norm>
-0.190116

>  <SCORE.RESTR>
0

>  <SCORE.RESTR.CAVITY>
0

>  <SCORE.RESTR.norm>
0

>  <SCORE.SYSTEM>
0

>  <SCORE.SYSTEM.CONST>
0

>  <SCORE.SYSTEM.DIHEDRAL>
0

>  <SCORE.SYSTEM.SOLV>
0

>  <SCORE.SYSTEM.norm>
0

>  <SCORE.heavy>
27

>  <SCORE.norm>
-0.630592

>  <RMSD>
7.247

$$$$
ligand
 OpenBabel11021811483D
libRbt.so/2013.1/901 2013/11/27
 27 29  0  0  0  0  0  0  0  0999 V2000
   49.9604   58.6526   32.9466 N   0  0  0  0  0  0  0  0  0  0  0  0
   48.9007   57.9815   32.1953 C   0  0  2  0  0  0  0  0  0  0  0  0
   48.3584   58.9201   31.1565 C   0  0  0  0  0  0  0  0  0  0  0  0
   48.0493   60.0656   31.4674 O   0  0  0  0  0  0  0  0  0  0  0  0
   47.7678   57.5652   33.1325 C   0  0  0  0  0  0  0  0  0  0  0  0
   46.8321   56.6308   32.3875 C   0  0  0  0  0  0  0  0  0  0  0  0
   47.5086   54.9586   32.1371 S   0  0  2  0  0  0  0  0  0  0  0  0
   48.8518   55.1871   30.9347 C   0  0  0  0  0  0  0  0  0  0  0  0
   46.3950   54.2256   30.7929 C   0  0  0  0  0  0  0  0  0  0  0  0
   46.6718   52.7546   30.2679 C   0  0  2  0  0  0  0  0  0  0  0  0
   47.9915   52.4054   29.9160 O   0  0  0  0  0  0  0  0  0  0  0  0
   45.7646   52.1171   29.2933 C   0  0  1  0  0  0  0  0  0  0  0  0
   44.4962   52.7684   29.2127 O   0  0  0  0  0  0  0  0  0  0  0  0
   46.7110   52.3005   28.0143 C   0  0  2  0  0  0  0  0  0  0  0  0
   46.2348   51.5547   26.9345 O   0  0  0  0  0  0  0  0  0  0  0  0
   48.0257   51.7531   28.5665 C   0  0  1  0  0  0  0  0  0  0  0  0
   48.2655   58.5508   29.9929 O   0  0  0  0  0  0  0  0  0  0  0  0
   50.8994   50.7106   24.4694 N   0  0  0  0  0  0  0  0  0  0  0  0
   49.7170   50.2237   24.8554 C   0  0  0  0  0  0  0  0  0  0  0  0
   49.1213   50.6572   25.9624 N   0  0  0  0  0  0  0  0  0  0  0  0
   49.7280   51.5208   26.7920 C   0  0  0  0  0  0  0  0  0  0  0  0
   51.0103   52.0248   26.4531 C   0  0  0  0  0  0  0  0  0  0  0  0
   51.5873   51.5855   25.2293 C   0  0  0  0  0  0  0  0  0  0  0  0
   52.8244   52.0410   24.8207 N   0  0  0  0  0  0  0  0  0  0  0  0
   51.3870   52.8541   27.4422 N   0  0  0  0  0  0  0  0  0  0  0  0
   50.4521   52.8944   28.3536 C   0  0  0  0  0  0  0  0  0  0  0  0
   49.3966   52.1000   28.0029 N   0  0  0  0  0  0  0  0  0  0  0  0
  2  1  1  1  0  0  0
  2  3  1  0  0  0  0
  2  5  1  0  0  0  0
  3  4  1  0  0  0  0
  3 17  1  0  0  0  0
  5  6  1  0  0  0  0
  7  6  1  6  0  0  0
  7  8  1  0  0  0  0
  7  9  1  0  0  0  0
 10  9  1  6  0  0  0
 10 11  1  0  0  0  0
 10 12  1  0  0  0  0
 11 16  1  0  0  0  0
 12 13  1  6  0  0  0
 12 14  1  0  0  0  0
 14 15  1  6  0  0  0
 14 16  1  0  0  0  0
 16 27  1  6  0  0  0
 18 19  2  0  0  0  0
 18 23  1  0  0  0  0
 19 20  1  0  0  0  0
 20 21  2  0  0  0  0
 21 22  1  0  0  0  0
 21 27  1  0  0  0  0
 22 23  2  0  0  0  0
 22 25  1  0  0  0  0
 23 24  1  0  0  0  0
 25 26  2  0  0  0  0
 26 27  1  0  0  0  0
M  END
>  <CHROM.1>
-48.54790235,-168.41386940,73.88215890,-69.55801111,179.24035333,-48.13850893
174.96384950,48.50493924,54.01032706,29.16655180,-1.82552227,-0.47632526
-2.50591731

>  <Name>
ligand

>  <RI>
0

>  <Rbt.Current_Directory>
/home/itssahil/PROJECTS/Mol_Feturizer/New_Systems/rnas/3IQR

>  <Rbt.Executable>
rbdock ($Id: //depot/dev/client3/rdock/2013.1/src/exe/rbdock.cxx#4 $)

>  <Rbt.Library>
libRbt.so (2013.1, Build901 2013/11/27)

>  <Rbt.Parameter_File>
/export/apps/rDock/src/rDock_2013.1_src/data/scripts/dock_solv.prm

>  <Rbt.Receptor>
prm/pocket_docking_8.prm

>  <SCORE>
-17.0219

>  <SCORE.INTER>
-12.0775

>  <SCORE.INTER.CONST>
1

>  <SCORE.INTER.POLAR>
0

>  <SCORE.INTER.ROT>
7

>  <SCORE.INTER.SOLV>
16.976

>  <SCORE.INTER.VDW>
-21.977

>  <SCORE.INTER.norm>
-0.447315

>  <SCORE.INTRA>
-4.94439

>  <SCORE.INTRA.DIHEDRAL>
-3.49667

>  <SCORE.INTRA.DIHEDRAL.0>
9.29433

>  <SCORE.INTRA.POLAR>
0

>  <SCORE.INTRA.POLAR.0>
0

>  <SCORE.INTRA.REPUL>
0

>  <SCORE.INTRA.REPUL.0>
0

>  <SCORE.INTRA.SOLV>
-1.10894

>  <SCORE.INTRA.SOLV.lig_0>
-48.5102

>  <SCORE.INTRA.VDW>
-2.64159

>  <SCORE.INTRA.VDW.0>
0.379549

>  <SCORE.INTRA.norm>
-0.183126

>  <SCORE.RESTR>
0

>  <SCORE.RESTR.CAVITY>
0

>  <SCORE.RESTR.norm>
0

>  <SCORE.SYSTEM>
0

>  <SCORE.SYSTEM.CONST>
0

>  <SCORE.SYSTEM.DIHEDRAL>
0

>  <SCORE.SYSTEM.SOLV>
0

>  <SCORE.SYSTEM.norm>
0

>  <SCORE.heavy>
27

>  <SCORE.norm>
-0.630441

>  <RMSD>
7.249

$$$$
ligand
 OpenBabel11021811483D
libRbt.so/2013.1/901 2013/11/27
 27 29  0  0  0  0  0  0  0  0999 V2000
   49.0272   54.2496   34.8764 N   0  0  0  0  0  0  0  0  0  0  0  0
   48.0652   55.1672   34.2680 C   0  0  2  0  0  0  0  0  0  0  0  0
   47.3364   54.4601   33.1620 C   0  0  0  0  0  0  0  0  0  0  0  0
   46.1267   54.6133   33.0295 O   0  0  0  0  0  0  0  0  0  0  0  0
   48.7853   56.3859   33.6924 C   0  0  0  0  0  0  0  0  0  0  0  0
   47.7503   57.3975   33.2348 C   0  0  0  0  0  0  0  0  0  0  0  0
   48.4656   58.8814   32.4582 S   0  0  2  0  0  0  0  0  0  0  0  0
   47.0357   59.7714   31.7760 C   0  0  0  0  0  0  0  0  0  0  0  0
   48.9533   58.2862   30.7285 C   0  0  0  0  0  0  0  0  0  0  0  0
   48.1574   57.0858   30.0640 C   0  0  2  0  0  0  0  0  0  0  0  0
   48.8905   55.9905   29.5638 O   0  0  0  0  0  0  0  0  0  0  0  0
   47.0432   57.3431   29.1304 C   0  0  1  0  0  0  0  0  0  0  0  0
   46.5452   58.6786   29.2207 O   0  0  0  0  0  0  0  0  0  0  0  0
   47.8464   57.0011   27.7875 C   0  0  2  0  0  0  0  0  0  0  0  0
   46.9756   56.9037   26.7007 O   0  0  0  0  0  0  0  0  0  0  0  0
   48.4556   55.6534   28.1692 C   0  0  1  0  0  0  0  0  0  0  0  0
   47.9602   53.7649   32.3705 O   0  0  0  0  0  0  0  0  0  0  0  0
   50.1925   54.5540   23.4889 N   0  0  0  0  0  0  0  0  0  0  0  0
   49.0014   54.9994   23.8976 C   0  0  0  0  0  0  0  0  0  0  0  0
   48.7625   55.2487   25.1818 N   0  0  0  0  0  0  0  0  0  0  0  0
   49.6682   54.9640   26.1309 C   0  0  0  0  0  0  0  0  0  0  0  0
   50.9295   54.4366   25.7511 C   0  0  0  0  0  0  0  0  0  0  0  0
   51.1704   54.2432   24.3625 C   0  0  0  0  0  0  0  0  0  0  0  0
   52.3772   53.7488   23.9107 N   0  0  0  0  0  0  0  0  0  0  0  0
   51.6352   54.2396   26.8785 N   0  0  0  0  0  0  0  0  0  0  0  0
   50.9142   54.5940   27.9086 C   0  0  0  0  0  0  0  0  0  0  0  0
   49.6929   55.0605   27.5099 N   0  0  0  0  0  0  0  0  0  0  0  0
  2  1  1  6  0  0  0
  2  3  1  0  0  0  0
  2  5  1  0  0  0  0
  3  4  1  0  0  0  0
  3 17  1  0  0  0  0
  5  6  1  0  0  0  0
  7  6  1  1  0  0  0
  7  8  1  0  0  0  0
  7  9  1  0  0  0  0
 10  9  1  6  0  0  0
 10 11  1  0  0  0  0
 10 12  1  0  0  0  0
 11 16  1  0  0  0  0
 12 13  1  6  0  0  0
 12 14  1  0  0  0  0
 14 15  1  6  0  0  0
 14 16  1  0  0  0  0
 16 27  1  6  0  0  0
 18 19  2  0  0  0  0
 18 23  1  0  0  0  0
 19 20  1  0  0  0  0
 20 21  2  0  0  0  0
 21 22  1  0  0  0  0
 21 27  1  0  0  0  0
 22 23  2  0  0  0  0
 22 25  1  0  0  0  0
 23 24  1  0  0  0  0
 25 26  2  0  0  0  0
 26 27  1  0  0  0  0
M  END
>  <CHROM.1>
137.96402048,-172.64224220,-177.57407117,171.11728001,27.58697346,-127.71781078
-164.68968312,48.72683097,56.02642788,29.33286991,-2.21084244,1.06749391
-1.23462053

>  <Name>
ligand

>  <RI>
0

>  <Rbt.Current_Directory>
/home/itssahil/PROJECTS/Mol_Feturizer/New_Systems/rnas/3IQR

>  <Rbt.Executable>
rbdock ($Id: //depot/dev/client3/rdock/2013.1/src/exe/rbdock.cxx#4 $)

>  <Rbt.Library>
libRbt.so (2013.1, Build901 2013/11/27)

>  <Rbt.Parameter_File>
/export/apps/rDock/src/rDock_2013.1_src/data/scripts/dock_solv.prm

>  <Rbt.Receptor>
prm/pocket_docking_8.prm

>  <SCORE>
-19.5145

>  <SCORE.INTER>
-16.4269

>  <SCORE.INTER.CONST>
1

>  <SCORE.INTER.POLAR>
0

>  <SCORE.INTER.ROT>
7

>  <SCORE.INTER.SOLV>
13.0431

>  <SCORE.INTER.VDW>
-23.5656

>  <SCORE.INTER.norm>
-0.608403

>  <SCORE.INTRA>
-3.08764

>  <SCORE.INTRA.DIHEDRAL>
0.470928

>  <SCORE.INTRA.DIHEDRAL.0>
9.29433

>  <SCORE.INTRA.POLAR>
0

>  <SCORE.INTRA.POLAR.0>
0

>  <SCORE.INTRA.REPUL>
0

>  <SCORE.INTRA.REPUL.0>
0

>  <SCORE.INTRA.SOLV>
-1.32532

>  <SCORE.INTRA.SOLV.lig_0>
-48.5102

>  <SCORE.INTRA.VDW>
-2.66044

>  <SCORE.INTRA.VDW.0>
0.379549

>  <SCORE.INTRA.norm>
-0.114357

>  <SCORE.RESTR>
0

>  <SCORE.RESTR.CAVITY>
0

>  <SCORE.RESTR.norm>
0

>  <SCORE.SYSTEM>
0

>  <SCORE.SYSTEM.CONST>
0

>  <SCORE.SYSTEM.DIHEDRAL>
0

>  <SCORE.SYSTEM.SOLV>
0

>  <SCORE.SYSTEM.norm>
0

>  <SCORE.heavy>
27

>  <SCORE.norm>
-0.72276

>  <RMSD>
7.272

$$$$
ligand
 OpenBabel11021811483D
libRbt.so/2013.1/901 2013/11/27
 27 29  0  0  0  0  0  0  0  0999 V2000
   47.8579   58.7928   31.0698 N   0  0  0  0  0  0  0  0  0  0  0  0
   46.3998   58.6897   31.1007 C   0  0  2  0  0  0  0  0  0  0  0  0
   45.8131   60.0405   31.3925 C   0  0  0  0  0  0  0  0  0  0  0  0
   46.5518   60.9954   31.6094 O   0  0  0  0  0  0  0  0  0  0  0  0
   45.9602   57.7089   32.1869 C   0  0  0  0  0  0  0  0  0  0  0  0
   44.4727   57.4457   32.0386 C   0  0  0  0  0  0  0  0  0  0  0  0
   44.0255   55.6825   32.1270 S   0  0  2  0  0  0  0  0  0  0  0  0
   44.9551   55.0489   33.5541 C   0  0  0  0  0  0  0  0  0  0  0  0
   45.2414   54.8556   30.9347 C   0  0  0  0  0  0  0  0  0  0  0  0
   45.0544   53.3234   30.5690 C   0  0  2  0  0  0  0  0  0  0  0  0
   46.1983   52.5682   30.2396 O   0  0  0  0  0  0  0  0  0  0  0  0
   43.9584   52.8868   29.6817 C   0  0  1  0  0  0  0  0  0  0  0  0
   42.9321   53.8708   29.5478 O   0  0  0  0  0  0  0  0  0  0  0  0
   44.8591   52.6549   28.3778 C   0  0  2  0  0  0  0  0  0  0  0  0
   44.1388   51.9780   27.3920 O   0  0  0  0  0  0  0  0  0  0  0  0
   45.9810   51.8031   28.9687 C   0  0  1  0  0  0  0  0  0  0  0  0
   44.5985   60.1929   31.3721 O   0  0  0  0  0  0  0  0  0  0  0  0
   48.1815   51.8487   24.3550 N   0  0  0  0  0  0  0  0  0  0  0  0
   46.8945   51.8835   24.7106 C   0  0  0  0  0  0  0  0  0  0  0  0
   46.5330   51.8883   25.9903 N   0  0  0  0  0  0  0  0  0  0  0  0
   47.4364   51.7516   26.9738 C   0  0  0  0  0  0  0  0  0  0  0  0
   48.8130   51.6549   26.6437 C   0  0  0  0  0  0  0  0  0  0  0  0
   49.1651   51.7172   25.2668 C   0  0  0  0  0  0  0  0  0  0  0  0
   50.4834   51.6459   24.8644 N   0  0  0  0  0  0  0  0  0  0  0  0
   49.4914   51.5222   27.7970 N   0  0  0  0  0  0  0  0  0  0  0  0
   48.6507   51.5234   28.7968 C   0  0  0  0  0  0  0  0  0  0  0  0
   47.3669   51.6733   28.3525 N   0  0  0  0  0  0  0  0  0  0  0  0
  2  1  1  1  0  0  0
  2  3  1  0  0  0  0
  2  5  1  0  0  0  0
  3  4  1  0  0  0  0
  3 17  1  0  0  0  0
  5  6  1  0  0  0  0
  7  6  1  1  0  0  0
  7  8  1  0  0  0  0
  7  9  1  0  0  0  0
 10  9  1  6  0  0  0
 10 11  1  0  0  0  0
 10 12  1  0  0  0  0
 11 16  1  0  0  0  0
 12 13  1  6  0  0  0
 12 14  1  0  0  0  0
 14 15  1  6  0  0  0
 14 16  1  0  0  0  0
 16 27  1  6  0  0  0
 18 19  2  0  0  0  0
 18 23  1  0  0  0  0
 19 20  1  0  0  0  0
 20 21  2  0  0  0  0
 21 22  1  0  0  0  0
 21 27  1  0  0  0  0
 22 23  2  0  0  0  0
 22 25  1  0  0  0  0
 23 24  1  0  0  0  0
 25 26  2  0  0  0  0
 26 27  1  0  0  0  0
M  END
>  <CHROM.1>
-2.71650905,-170.49010371,133.49896477,45.70425834,-171.63480716,-150.78187900
-143.44949549,46.19102864,54.43379155,29.33076694,-1.93368748,-0.64096933
-2.67571732

>  <Name>
ligand

>  <RI>
0

>  <Rbt.Current_Directory>
/home/itssahil/PROJECTS/Mol_Feturizer/New_Systems/rnas/3IQR

>  <Rbt.Executable>
rbdock ($Id: //depot/dev/client3/rdock/2013.1/src/exe/rbdock.cxx#4 $)

>  <Rbt.Library>
libRbt.so (2013.1, Build901 2013/11/27)

>  <Rbt.Parameter_File>
/export/apps/rDock/src/rDock_2013.1_src/data/scripts/dock_solv.prm

>  <Rbt.Receptor>
prm/pocket_docking_6.prm

>  <SCORE>
-16.7338

>  <SCORE.INTER>
-16.2178

>  <SCORE.INTER.CONST>
1

>  <SCORE.INTER.POLAR>
0

>  <SCORE.INTER.ROT>
7

>  <SCORE.INTER.SOLV>
10.5176

>  <SCORE.INTER.VDW>
-22.5844

>  <SCORE.INTER.norm>
-0.60066

>  <SCORE.INTRA>
-0.524352

>  <SCORE.INTRA.DIHEDRAL>
2.70834

>  <SCORE.INTRA.DIHEDRAL.0>
9.29433

>  <SCORE.INTRA.POLAR>
0

>  <SCORE.INTRA.POLAR.0>
0

>  <SCORE.INTRA.REPUL>
0

>  <SCORE.INTRA.REPUL.0>
0

>  <SCORE.INTRA.SOLV>
-1.55954

>  <SCORE.INTRA.SOLV.lig_0>
-48.5102

>  <SCORE.INTRA.VDW>
-1.09875

>  <SCORE.INTRA.VDW.0>
0.379549

>  <SCORE.INTRA.norm>
-0.0194204

>  <SCORE.RESTR>
0.0083493

>  <SCORE.RESTR.CAVITY>
0.0083493

>  <SCORE.RESTR.norm>
0.000309233

>  <SCORE.SYSTEM>
0

>  <SCORE.SYSTEM.CONST>
0

>  <SCORE.SYSTEM.DIHEDRAL>
0

>  <SCORE.SYSTEM.SOLV>
0

>  <SCORE.SYSTEM.norm>
0

>  <SCORE.heavy>
27

>  <SCORE.norm>
-0.619772

>  <RMSD>
7.308

$$$$
ligand
 OpenBabel11021811483D
libRbt.so/2013.1/901 2013/11/27
 27 29  0  0  0  0  0  0  0  0999 V2000
   48.8196   53.9614   35.3863 N   0  0  0  0  0  0  0  0  0  0  0  0
   47.9464   54.8162   34.5834 C   0  0  2  0  0  0  0  0  0  0  0  0
   47.4307   54.0352   33.4095 C   0  0  0  0  0  0  0  0  0  0  0  0
   46.3614   54.3409   32.8923 O   0  0  0  0  0  0  0  0  0  0  0  0
   48.7178   56.0330   34.0739 C   0  0  0  0  0  0  0  0  0  0  0  0
   47.7315   57.0380   33.5072 C   0  0  0  0  0  0  0  0  0  0  0  0
   48.5155   58.5350   32.8282 S   0  0  2  0  0  0  0  0  0  0  0  0
   47.1482   59.4584   32.0665 C   0  0  0  0  0  0  0  0  0  0  0  0
   49.1263   57.9823   31.1236 C   0  0  0  0  0  0  0  0  0  0  0  0
   48.2883   56.9136   30.3041 C   0  0  2  0  0  0  0  0  0  0  0  0
   48.9269   55.7206   29.9089 O   0  0  0  0  0  0  0  0  0  0  0  0
   47.4013   57.3336   29.2013 C   0  0  1  0  0  0  0  0  0  0  0  0
   47.0975   58.7285   29.2386 O   0  0  0  0  0  0  0  0  0  0  0  0
   48.3638   56.8741   28.0065 C   0  0  2  0  0  0  0  0  0  0  0  0
   47.6880   56.9067   26.7854 O   0  0  0  0  0  0  0  0  0  0  0  0
   48.6931   55.4508   28.4528 C   0  0  1  0  0  0  0  0  0  0  0  0
   48.1003   53.1207   32.9465 O   0  0  0  0  0  0  0  0  0  0  0  0
   51.0542   54.1423   24.1119 N   0  0  0  0  0  0  0  0  0  0  0  0
   49.8907   54.7637   24.3217 C   0  0  0  0  0  0  0  0  0  0  0  0
   49.4659   55.0340   25.5525 N   0  0  0  0  0  0  0  0  0  0  0  0
   50.1328   54.6018   26.6344 C   0  0  0  0  0  0  0  0  0  0  0  0
   51.3470   53.8881   26.4623 C   0  0  0  0  0  0  0  0  0  0  0  0
   51.8009   53.6738   25.1312 C   0  0  0  0  0  0  0  0  0  0  0  0
   52.9801   53.0020   24.8799 N   0  0  0  0  0  0  0  0  0  0  0  0
   51.8009   53.5718   27.6878 N   0  0  0  0  0  0  0  0  0  0  0  0
   50.9691   54.0237   28.5879 C   0  0  0  0  0  0  0  0  0  0  0  0
   49.9242   54.6791   27.9990 N   0  0  0  0  0  0  0  0  0  0  0  0
  2  1  1  6  0  0  0
  2  3  1  0  0  0  0
  2  5  1  0  0  0  0
  3  4  1  0  0  0  0
  3 17  1  0  0  0  0
  5  6  1  0  0  0  0
  7  6  1  1  0  0  0
  7  8  1  0  0  0  0
  7  9  1  0  0  0  0
 10  9  1  6  0  0  0
 10 11  1  0  0  0  0
 10 12  1  0  0  0  0
 11 16  1  0  0  0  0
 12 13  1  6  0  0  0
 12 14  1  0  0  0  0
 14 15  1  6  0  0  0
 14 16  1  0  0  0  0
 16 27  1  6  0  0  0
 18 19  2  0  0  0  0
 18 23  1  0  0  0  0
 19 20  1  0  0  0  0
 20 21  2  0  0  0  0
 21 22  1  0  0  0  0
 21 27  1  0  0  0  0
 22 23  2  0  0  0  0
 22 25  1  0  0  0  0
 23 24  1  0  0  0  0
 25 26  2  0  0  0  0
 26 27  1  0  0  0  0
M  END
>  <CHROM.1>
153.68254059,-167.95856221,-178.84494627,173.94526509,33.75439994,-122.52140164
-163.81778767,49.00766427,55.69350643,29.72400714,-2.39773639,1.07805768
-1.06959597

>  <Name>
ligand

>  <RI>
0

>  <Rbt.Current_Directory>
/home/itssahil/PROJECTS/Mol_Feturizer/New_Systems/rnas/3IQR

>  <Rbt.Executable>
rbdock ($Id: //depot/dev/client3/rdock/2013.1/src/exe/rbdock.cxx#4 $)

>  <Rbt.Library>
libRbt.so (2013.1, Build901 2013/11/27)

>  <Rbt.Parameter_File>
/export/apps/rDock/src/rDock_2013.1_src/data/scripts/dock_solv.prm

>  <Rbt.Receptor>
prm/pocket_docking_6.prm

>  <SCORE>
-17.491

>  <SCORE.INTER>
-14.1263

>  <SCORE.INTER.CONST>
1

>  <SCORE.INTER.POLAR>
0

>  <SCORE.INTER.ROT>
7

>  <SCORE.INTER.SOLV>
15.9545

>  <SCORE.INTER.VDW>
-23.0024

>  <SCORE.INTER.norm>
-0.523197

>  <SCORE.INTRA>
-3.38484

>  <SCORE.INTRA.DIHEDRAL>
0.334064

>  <SCORE.INTRA.DIHEDRAL.0>
9.29433

>  <SCORE.INTRA.POLAR>
0

>  <SCORE.INTRA.POLAR.0>
0

>  <SCORE.INTRA.REPUL>
0

>  <SCORE.INTRA.REPUL.0>
0

>  <SCORE.INTRA.SOLV>
-1.38224

>  <SCORE.INTRA.SOLV.lig_0>
-48.5102

>  <SCORE.INTRA.VDW>
-2.86075

>  <SCORE.INTRA.VDW.0>
0.379549

>  <SCORE.INTRA.norm>
-0.125365

>  <SCORE.RESTR>
0.0201298

>  <SCORE.RESTR.CAVITY>
0.0201298

>  <SCORE.RESTR.norm>
0.00074555

>  <SCORE.SYSTEM>
0

>  <SCORE.SYSTEM.CONST>
0

>  <SCORE.SYSTEM.DIHEDRAL>
0

>  <SCORE.SYSTEM.SOLV>
0

>  <SCORE.SYSTEM.norm>
0

>  <SCORE.heavy>
27

>  <SCORE.norm>
-0.647816

>  <RMSD>
7.319

$$$$
ligand
 OpenBabel11021811483D
libRbt.so/2013.1/901 2013/11/27
 27 29  0  0  0  0  0  0  0  0999 V2000
   49.1034   55.2176   31.9841 N   0  0  0  0  0  0  0  0  0  0  0  0
   49.2775   55.6252   33.3774 C   0  0  2  0  0  0  0  0  0  0  0  0
   48.7895   54.5288   34.2796 C   0  0  0  0  0  0  0  0  0  0  0  0
   49.0094   54.5838   35.4850 O   0  0  0  0  0  0  0  0  0  0  0  0
   48.4807   56.8978   33.6615 C   0  0  0  0  0  0  0  0  0  0  0  0
   47.0019   56.5989   33.4947 C   0  0  0  0  0  0  0  0  0  0  0  0
   46.2417   57.4256   32.0610 S   0  0  2  0  0  0  0  0  0  0  0  0
   44.4954   56.9267   32.1219 C   0  0  0  0  0  0  0  0  0  0  0  0
   46.5624   56.2238   30.6339 C   0  0  0  0  0  0  0  0  0  0  0  0
   45.8374   56.4553   29.2420 C   0  0  2  0  0  0  0  0  0  0  0  0
   45.9914   55.4804   28.2355 O   0  0  0  0  0  0  0  0  0  0  0  0
   45.8588   57.7796   28.5902 C   0  0  1  0  0  0  0  0  0  0  0  0
   46.2181   58.8305   29.4880 O   0  0  0  0  0  0  0  0  0  0  0  0
   46.9575   57.4207   27.4814 C   0  0  2  0  0  0  0  0  0  0  0  0
   47.0270   58.4217   26.5107 O   0  0  0  0  0  0  0  0  0  0  0  0
   46.3782   56.1174   26.9347 C   0  0  1  0  0  0  0  0  0  0  0  0
   48.1372   53.6034   33.8135 O   0  0  0  0  0  0  0  0  0  0  0  0
   51.1054   54.1734   27.0042 N   0  0  0  0  0  0  0  0  0  0  0  0
   50.5726   55.2016   27.6697 C   0  0  0  0  0  0  0  0  0  0  0  0
   49.2926   55.5299   27.5210 N   0  0  0  0  0  0  0  0  0  0  0  0
   48.5113   54.9125   26.6206 C   0  0  0  0  0  0  0  0  0  0  0  0
   49.0475   53.8494   25.8490 C   0  0  0  0  0  0  0  0  0  0  0  0
   50.4030   53.4862   26.0820 C   0  0  0  0  0  0  0  0  0  0  0  0
   50.9941   52.4528   25.3836 N   0  0  0  0  0  0  0  0  0  0  0  0
   48.0704   53.4164   25.0331 N   0  0  0  0  0  0  0  0  0  0  0  0
   46.9915   54.1245   25.2354 C   0  0  0  0  0  0  0  0  0  0  0  0
   47.1982   55.0575   26.2126 N   0  0  0  0  0  0  0  0  0  0  0  0
  2  1  1  6  0  0  0
  2  3  1  0  0  0  0
  2  5  1  0  0  0  0
  3  4  1  0  0  0  0
  3 17  1  0  0  0  0
  5  6  1  0  0  0  0
  7  6  1  1  0  0  0
  7  8  1  0  0  0  0
  7  9  1  0  0  0  0
 10  9  1  1  0  0  0
 10 11  1  0  0  0  0
 10 12  1  0  0  0  0
 11 16  1  0  0  0  0
 12 13  1  1  0  0  0
 12 14  1  0  0  0  0
 14 15  1  6  0  0  0
 14 16  1  0  0  0  0
 16 27  1  1  0  0  0
 18 19  2  0  0  0  0
 18 23  1  0  0  0  0
 19 20  1  0  0  0  0
 20 21  2  0  0  0  0
 21 22  1  0  0  0  0
 21 27  1  0  0  0  0
 22 23  2  0  0  0  0
 22 25  1  0  0  0  0
 23 24  1  0  0  0  0
 25 26  2  0  0  0  0
 26 27  1  0  0  0  0
M  END
>  <CHROM.1>
170.05397307,64.07032394,-111.59696875,-178.93791953,169.49328812,-174.10413337
-78.76321664,47.78524691,55.69683101,29.48595622,-1.77783667,0.73785449,-1.61840852

>  <Name>
ligand

>  <RI>
0

>  <Rbt.Current_Directory>
/home/itssahil/PROJECTS/Mol_Feturizer/New_Systems/rnas/3IQR

>  <Rbt.Executable>
rbdock ($Id: //depot/dev/client3/rdock/2013.1/src/exe/rbdock.cxx#4 $)

>  <Rbt.Library>
libRbt.so (2013.1, Build901 2013/11/27)

>  <Rbt.Parameter_File>
/export/apps/rDock/src/rDock_2013.1_src/data/scripts/dock_solv.prm

>  <Rbt.Receptor>
prm/pocket_docking_4.prm

>  <SCORE>
-11.7456

>  <SCORE.INTER>
-10.4974

>  <SCORE.INTER.CONST>
1

>  <SCORE.INTER.POLAR>
0

>  <SCORE.INTER.ROT>
7

>  <SCORE.INTER.SOLV>
10.3724

>  <SCORE.INTER.VDW>
-18.7224

>  <SCORE.INTER.norm>
-0.388792

>  <SCORE.INTRA>
-1.26966

>  <SCORE.INTRA.DIHEDRAL>
0.515171

>  <SCORE.INTRA.DIHEDRAL.0>
9.29433

>  <SCORE.INTRA.POLAR>
0

>  <SCORE.INTRA.POLAR.0>
0

>  <SCORE.INTRA.REPUL>
0

>  <SCORE.INTRA.REPUL.0>
0

>  <SCORE.INTRA.SOLV>
1.14547

>  <SCORE.INTRA.SOLV.lig_0>
-48.5102

>  <SCORE.INTRA.VDW>
-2.09998

>  <SCORE.INTRA.VDW.0>
0.379549

>  <SCORE.INTRA.norm>
-0.0470243

>  <SCORE.RESTR>
0.021464

>  <SCORE.RESTR.CAVITY>
0.021464

>  <SCORE.RESTR.norm>
0.000794963

>  <SCORE.SYSTEM>
0

>  <SCORE.SYSTEM.CONST>
0

>  <SCORE.SYSTEM.DIHEDRAL>
0

>  <SCORE.SYSTEM.SOLV>
0

>  <SCORE.SYSTEM.norm>
0

>  <SCORE.heavy>
27

>  <SCORE.norm>
-0.435022

>  <RMSD>
7.327

$$$$
ligand
 OpenBabel11021811483D
libRbt.so/2013.1/901 2013/11/27
 27 29  0  0  0  0  0  0  0  0999 V2000
   49.6963   58.2279   32.1132 N   0  0  0  0  0  0  0  0  0  0  0  0
   48.3708   57.6109   32.1049 C   0  0  2  0  0  0  0  0  0  0  0  0
   48.0550   57.0953   33.4791 C   0  0  0  0  0  0  0  0  0  0  0  0
   48.8925   57.1769   34.3715 O   0  0  0  0  0  0  0  0  0  0  0  0
   48.3332   56.4480   31.1142 C   0  0  0  0  0  0  0  0  0  0  0  0
   49.2872   55.3671   31.5890 C   0  0  0  0  0  0  0  0  0  0  0  0
   49.3023   53.8837   30.5325 S   0  0  2  0  0  0  0  0  0  0  0  0
   49.8790   54.4825   28.9166 C   0  0  0  0  0  0  0  0  0  0  0  0
   47.5251   53.7789   29.8886 C   0  0  0  0  0  0  0  0  0  0  0  0
   47.0190   52.4363   29.2122 C   0  0  2  0  0  0  0  0  0  0  0  0
   47.7602   51.9066   28.1365 O   0  0  0  0  0  0  0  0  0  0  0  0
   45.5876   52.2342   28.9127 C   0  0  1  0  0  0  0  0  0  0  0  0
   44.7420   53.1369   29.6266 O   0  0  0  0  0  0  0  0  0  0  0  0
   45.6915   52.4951   27.3359 C   0  0  2  0  0  0  0  0  0  0  0  0
   44.5092   52.1233   26.6933 O   0  0  0  0  0  0  0  0  0  0  0  0
   46.8603   51.5771   26.9835 C   0  0  1  0  0  0  0  0  0  0  0  0
   46.9463   56.6322   33.7146 O   0  0  0  0  0  0  0  0  0  0  0  0
   48.4273   55.2863   23.8342 N   0  0  0  0  0  0  0  0  0  0  0  0
   47.5541   55.3077   24.8448 C   0  0  0  0  0  0  0  0  0  0  0  0
   47.3057   54.2172   25.5641 N   0  0  0  0  0  0  0  0  0  0  0  0
   47.8385   53.0283   25.2405 C   0  0  0  0  0  0  0  0  0  0  0  0
   48.7299   52.9433   24.1399 C   0  0  0  0  0  0  0  0  0  0  0  0
   49.0198   54.1440   23.4341 C   0  0  0  0  0  0  0  0  0  0  0  0
   49.8887   54.1482   22.3617 N   0  0  0  0  0  0  0  0  0  0  0  0
   49.1087   51.6577   24.0317 N   0  0  0  0  0  0  0  0  0  0  0  0
   48.5232   50.9536   24.9633 C   0  0  0  0  0  0  0  0  0  0  0  0
   47.7344   51.7467   25.7488 N   0  0  0  0  0  0  0  0  0  0  0  0
  2  1  1  1  0  0  0
  2  3  1  0  0  0  0
  2  5  1  0  0  0  0
  3  4  1  0  0  0  0
  3 17  1  0  0  0  0
  5  6  1  0  0  0  0
  7  6  1  1  0  0  0
  7  8  1  0  0  0  0
  7  9  1  0  0  0  0
 10  9  1  6  0  0  0
 10 11  1  0  0  0  0
 10 12  1  0  0  0  0
 11 16  1  0  0  0  0
 12 13  1  1  0  0  0
 12 14  1  0  0  0  0
 14 15  1  6  0  0  0
 14 16  1  0  0  0  0
 16 27  1  6  0  0  0
 18 19  2  0  0  0  0
 18 23  1  0  0  0  0
 19 20  1  0  0  0  0
 20 21  2  0  0  0  0
 21 22  1  0  0  0  0
 21 27  1  0  0  0  0
 22 23  2  0  0  0  0
 22 25  1  0  0  0  0
 23 24  1  0  0  0  0
 25 26  2  0  0  0  0
 26 27  1  0  0  0  0
M  END
>  <CHROM.1>
-3.35562067,64.39802565,177.86752996,62.11269593,-165.27139081,-54.30508818
-84.73836357,47.91387845,54.08640382,28.33694297,-1.50839767,-0.78818246
-1.95013853

>  <Name>
ligand

>  <RI>
0

>  <Rbt.Current_Directory>
/home/itssahil/PROJECTS/Mol_Feturizer/New_Systems/rnas/3IQR

>  <Rbt.Executable>
rbdock ($Id: //depot/dev/client3/rdock/2013.1/src/exe/rbdock.cxx#4 $)

>  <Rbt.Library>
libRbt.so (2013.1, Build901 2013/11/27)

>  <Rbt.Parameter_File>
/export/apps/rDock/src/rDock_2013.1_src/data/scripts/dock_solv.prm

>  <Rbt.Receptor>
prm/pocket_docking_7.prm

>  <SCORE>
-14.2774

>  <SCORE.INTER>
-10.8955

>  <SCORE.INTER.CONST>
1

>  <SCORE.INTER.POLAR>
0

>  <SCORE.INTER.ROT>
7

>  <SCORE.INTER.SOLV>
13.8671

>  <SCORE.INTER.VDW>
-20.1527

>  <SCORE.INTER.norm>
-0.403538

>  <SCORE.INTRA>
-3.3819

>  <SCORE.INTRA.DIHEDRAL>
-3.28287

>  <SCORE.INTRA.DIHEDRAL.0>
9.29433

>  <SCORE.INTRA.POLAR>
0

>  <SCORE.INTRA.POLAR.0>
0

>  <SCORE.INTRA.REPUL>
0

>  <SCORE.INTRA.REPUL.0>
0

>  <SCORE.INTRA.SOLV>
-1.14492

>  <SCORE.INTRA.SOLV.lig_0>
-48.5102

>  <SCORE.INTRA.VDW>
-1.16801

>  <SCORE.INTRA.VDW.0>
0.379549

>  <SCORE.INTRA.norm>
-0.125256

>  <SCORE.RESTR>
0

>  <SCORE.RESTR.CAVITY>
0

>  <SCORE.RESTR.norm>
0

>  <SCORE.SYSTEM>
0

>  <SCORE.SYSTEM.CONST>
0

>  <SCORE.SYSTEM.DIHEDRAL>
0

>  <SCORE.SYSTEM.SOLV>
0

>  <SCORE.SYSTEM.norm>
0

>  <SCORE.heavy>
27

>  <SCORE.norm>
-0.528793

>  <RMSD>
7.331

$$$$
ligand
 OpenBabel11021811483D
libRbt.so/2013.1/901 2013/11/27
 27 29  0  0  0  0  0  0  0  0999 V2000
   48.0560   53.5224   33.3360 N   0  0  0  0  0  0  0  0  0  0  0  0
   48.7099   54.4562   34.2517 C   0  0  2  0  0  0  0  0  0  0  0  0
   48.1332   54.2875   35.6276 C   0  0  0  0  0  0  0  0  0  0  0  0
   48.8438   54.4501   36.6140 O   0  0  0  0  0  0  0  0  0  0  0  0
   48.4874   55.8957   33.7898 C   0  0  0  0  0  0  0  0  0  0  0  0
   49.1660   56.0910   32.4462 C   0  0  0  0  0  0  0  0  0  0  0  0
   48.8191   57.7039   31.6748 S   0  0  2  0  0  0  0  0  0  0  0  0
   48.8377   58.8825   33.0578 C   0  0  0  0  0  0  0  0  0  0  0  0
   46.9282   57.7684   31.6111 C   0  0  0  0  0  0  0  0  0  0  0  0
   46.1675   57.1273   30.3756 C   0  0  2  0  0  0  0  0  0  0  0  0
   46.6850   55.9443   29.8099 O   0  0  0  0  0  0  0  0  0  0  0  0
   45.6731   57.9730   29.2712 C   0  0  1  0  0  0  0  0  0  0  0  0
   45.5992   59.3546   29.6252 O   0  0  0  0  0  0  0  0  0  0  0  0
   46.8230   57.5955   28.2221 C   0  0  2  0  0  0  0  0  0  0  0  0
   46.4977   58.0541   26.9443 O   0  0  0  0  0  0  0  0  0  0  0  0
   46.7925   56.0715   28.3200 C   0  0  1  0  0  0  0  0  0  0  0  0
   46.9439   54.0284   35.7605 O   0  0  0  0  0  0  0  0  0  0  0  0
   47.7063   51.9453   25.4442 N   0  0  0  0  0  0  0  0  0  0  0  0
   46.5622   52.5644   25.7471 C   0  0  0  0  0  0  0  0  0  0  0  0
   46.5495   53.6567   26.5054 N   0  0  0  0  0  0  0  0  0  0  0  0
   47.6685   54.1207   27.0840 C   0  0  0  0  0  0  0  0  0  0  0  0
   48.9016   53.4637   26.8371 C   0  0  0  0  0  0  0  0  0  0  0  0
   48.8840   52.3363   25.9698 C   0  0  0  0  0  0  0  0  0  0  0  0
   50.0437   51.6519   25.6670 N   0  0  0  0  0  0  0  0  0  0  0  0
   49.8486   54.1188   27.5314 N   0  0  0  0  0  0  0  0  0  0  0  0
   49.3009   55.1102   28.1821 C   0  0  0  0  0  0  0  0  0  0  0  0
   47.9576   55.1698   27.9369 N   0  0  0  0  0  0  0  0  0  0  0  0
  2  1  1  6  0  0  0
  2  3  1  0  0  0  0
  2  5  1  0  0  0  0
  3  4  1  0  0  0  0
  3 17  1  0  0  0  0
  5  6  1  0  0  0  0
  7  6  1  1  0  0  0
  7  8  1  0  0  0  0
  7  9  1  0  0  0  0
 10  9  1  6  0  0  0
 10 11  1  0  0  0  0
 10 12  1  0  0  0  0
 11 16  1  0  0  0  0
 12 13  1  1  0  0  0
 12 14  1  0  0  0  0
 14 15  1  6  0  0  0
 14 16  1  0  0  0  0
 16 27  1  1  0  0  0
 18 19  2  0  0  0  0
 18 23  1  0  0  0  0
 19 20  1  0  0  0  0
 20 21  2  0  0  0  0
 21 22  1  0  0  0  0
 21 27  1  0  0  0  0
 22 23  2  0  0  0  0
 22 25  1  0  0  0  0
 23 24  1  0  0  0  0
 25 26  2  0  0  0  0
 26 27  1  0  0  0  0
M  END
>  <CHROM.1>
146.56868933,-64.31424284,173.10550908,39.18041487,-86.48165082,36.54225313
119.03834285,47.82548740,55.49047803,30.09884346,-1.49001023,1.21896612,-1.89911414

>  <Name>
ligand

>  <RI>
0

>  <Rbt.Current_Directory>
/home/itssahil/PROJECTS/Mol_Feturizer/New_Systems/rnas/3IQR

>  <Rbt.Executable>
rbdock ($Id: //depot/dev/client3/rdock/2013.1/src/exe/rbdock.cxx#4 $)

>  <Rbt.Library>
libRbt.so (2013.1, Build901 2013/11/27)

>  <Rbt.Parameter_File>
/export/apps/rDock/src/rDock_2013.1_src/data/scripts/dock_solv.prm

>  <Rbt.Receptor>
prm/pocket_docking_6.prm

>  <SCORE>
-15.5877

>  <SCORE.INTER>
-11.3256

>  <SCORE.INTER.CONST>
1

>  <SCORE.INTER.POLAR>
0

>  <SCORE.INTER.ROT>
7

>  <SCORE.INTER.SOLV>
9.94587

>  <SCORE.INTER.VDW>
-19.1323

>  <SCORE.INTER.norm>
-0.419465

>  <SCORE.INTRA>
-4.26476

>  <SCORE.INTRA.DIHEDRAL>
-2.72427

>  <SCORE.INTRA.DIHEDRAL.0>
9.29433

>  <SCORE.INTRA.POLAR>
0

>  <SCORE.INTRA.POLAR.0>
0

>  <SCORE.INTRA.REPUL>
0

>  <SCORE.INTRA.REPUL.0>
0

>  <SCORE.INTRA.SOLV>
-1.0487

>  <SCORE.INTRA.SOLV.lig_0>
-48.5102

>  <SCORE.INTRA.VDW>
-2.37827

>  <SCORE.INTRA.VDW.0>
0.379549

>  <SCORE.INTRA.norm>
-0.157954

>  <SCORE.RESTR>
0.00257566

>  <SCORE.RESTR.CAVITY>
0.00257566

>  <SCORE.RESTR.norm>
9.53947e-05

>  <SCORE.SYSTEM>
0

>  <SCORE.SYSTEM.CONST>
0

>  <SCORE.SYSTEM.DIHEDRAL>
0

>  <SCORE.SYSTEM.SOLV>
0

>  <SCORE.SYSTEM.norm>
0

>  <SCORE.heavy>
27

>  <SCORE.norm>
-0.577324

>  <RMSD>
7.332

$$$$
ligand
 OpenBabel11021811483D
libRbt.so/2013.1/901 2013/11/27
 27 29  0  0  0  0  0  0  0  0999 V2000
   44.7716   55.0623   31.1899 N   0  0  0  0  0  0  0  0  0  0  0  0
   45.7860   54.7671   32.2007 C   0  0  2  0  0  0  0  0  0  0  0  0
   45.5026   53.4247   32.8106 C   0  0  0  0  0  0  0  0  0  0  0  0
   46.3992   52.8063   33.3744 O   0  0  0  0  0  0  0  0  0  0  0  0
   45.7653   55.8292   33.2991 C   0  0  0  0  0  0  0  0  0  0  0  0
   46.2220   57.1523   32.7118 C   0  0  0  0  0  0  0  0  0  0  0  0
   47.9458   57.1402   32.1244 S   0  0  2  0  0  0  0  0  0  0  0  0
   48.3468   58.8922   31.8561 C   0  0  0  0  0  0  0  0  0  0  0  0
   47.7774   56.8660   30.2588 C   0  0  0  0  0  0  0  0  0  0  0  0
   49.0700   56.5399   29.3991 C   0  0  2  0  0  0  0  0  0  0  0  0
   49.0076   56.7152   28.0017 O   0  0  0  0  0  0  0  0  0  0  0  0
   49.8664   55.3254   29.6633 C   0  0  1  0  0  0  0  0  0  0  0  0
   49.5946   54.7555   30.9442 O   0  0  0  0  0  0  0  0  0  0  0  0
   49.3338   54.4807   28.4110 C   0  0  2  0  0  0  0  0  0  0  0  0
   50.1051   53.3322   28.2240 O   0  0  0  0  0  0  0  0  0  0  0  0
   49.5266   55.5014   27.2911 C   0  0  1  0  0  0  0  0  0  0  0  0
   44.3660   52.9705   32.7787 O   0  0  0  0  0  0  0  0  0  0  0  0
   50.3407   54.2940   22.3911 N   0  0  0  0  0  0  0  0  0  0  0  0
   51.1795   54.3504   23.4291 C   0  0  0  0  0  0  0  0  0  0  0  0
   50.7491   54.6683   24.6464 N   0  0  0  0  0  0  0  0  0  0  0  0
   49.4799   55.0481   24.8636 C   0  0  0  0  0  0  0  0  0  0  0  0
   48.5631   55.0580   23.7807 C   0  0  0  0  0  0  0  0  0  0  0  0
   49.0463   54.6506   22.5062 C   0  0  0  0  0  0  0  0  0  0  0  0
   48.2139   54.6178   21.4058 N   0  0  0  0  0  0  0  0  0  0  0  0
   47.3801   55.4768   24.2634 N   0  0  0  0  0  0  0  0  0  0  0  0
   47.4974   55.7278   25.5400 C   0  0  0  0  0  0  0  0  0  0  0  0
   48.7688   55.4712   25.9713 N   0  0  0  0  0  0  0  0  0  0  0  0
  2  1  1  6  0  0  0
  2  3  1  0  0  0  0
  2  5  1  0  0  0  0
  3  4  1  0  0  0  0
  3 17  1  0  0  0  0
  5  6  1  0  0  0  0
  7  6  1  1  0  0  0
  7  8  1  0  0  0  0
  7  9  1  0  0  0  0
 10  9  1  6  0  0  0
 10 11  1  0  0  0  0
 10 12  1  0  0  0  0
 11 16  1  0  0  0  0
 12 13  1  1  0  0  0
 12 14  1  0  0  0  0
 14 15  1  6  0  0  0
 14 16  1  0  0  0  0
 16 27  1  6  0  0  0
 18 19  2  0  0  0  0
 18 23  1  0  0  0  0
 19 20  1  0  0  0  0
 20 21  2  0  0  0  0
 21 22  1  0  0  0  0
 21 27  1  0  0  0  0
 22 23  2  0  0  0  0
 22 25  1  0  0  0  0
 23 24  1  0  0  0  0
 25 26  2  0  0  0  0
 26 27  1  0  0  0  0
M  END
>  <CHROM.1>
158.69507545,-66.97266245,-63.96100855,-166.95159597,-169.39884483,-162.10265735
143.05940075,48.13496261,55.30427275,28.59220505,2.04359905,0.80532750,1.15305489

>  <Name>
ligand

>  <RI>
0

>  <Rbt.Current_Directory>
/home/itssahil/PROJECTS/Mol_Feturizer/New_Systems/rnas/3IQR

>  <Rbt.Executable>
rbdock ($Id: //depot/dev/client3/rdock/2013.1/src/exe/rbdock.cxx#4 $)

>  <Rbt.Library>
libRbt.so (2013.1, Build901 2013/11/27)

>  <Rbt.Parameter_File>
/export/apps/rDock/src/rDock_2013.1_src/data/scripts/dock_solv.prm

>  <Rbt.Receptor>
prm/pocket_docking_7.prm

>  <SCORE>
-16.2273

>  <SCORE.INTER>
-12.1276

>  <SCORE.INTER.CONST>
1

>  <SCORE.INTER.POLAR>
0

>  <SCORE.INTER.ROT>
7

>  <SCORE.INTER.SOLV>
9.17835

>  <SCORE.INTER.VDW>
-19.4112

>  <SCORE.INTER.norm>
-0.449171

>  <SCORE.INTRA>
-4.09964

>  <SCORE.INTRA.DIHEDRAL>
-1.9243

>  <SCORE.INTRA.DIHEDRAL.0>
9.29433

>  <SCORE.INTRA.POLAR>
0

>  <SCORE.INTRA.POLAR.0>
0

>  <SCORE.INTRA.REPUL>
0

>  <SCORE.INTRA.REPUL.0>
0

>  <SCORE.INTRA.SOLV>
0.342177

>  <SCORE.INTRA.SOLV.lig_0>
-48.5102

>  <SCORE.INTRA.VDW>
-3.30858

>  <SCORE.INTRA.VDW.0>
0.379549

>  <SCORE.INTRA.norm>
-0.151839

>  <SCORE.RESTR>
0

>  <SCORE.RESTR.CAVITY>
0

>  <SCORE.RESTR.norm>
0

>  <SCORE.SYSTEM>
0

>  <SCORE.SYSTEM.CONST>
0

>  <SCORE.SYSTEM.DIHEDRAL>
0

>  <SCORE.SYSTEM.SOLV>
0

>  <SCORE.SYSTEM.norm>
0

>  <SCORE.heavy>
27

>  <SCORE.norm>
-0.601009

>  <RMSD>
7.334

$$$$
ligand
 OpenBabel11021811483D
libRbt.so/2013.1/901 2013/11/27
 27 29  0  0  0  0  0  0  0  0999 V2000
   43.9468   52.6875   36.2954 N   0  0  0  0  0  0  0  0  0  0  0  0
   44.8495   52.7663   35.1479 C   0  0  2  0  0  0  0  0  0  0  0  0
   46.2421   52.4176   35.5875 C   0  0  0  0  0  0  0  0  0  0  0  0
   46.6035   52.6670   36.7327 O   0  0  0  0  0  0  0  0  0  0  0  0
   44.8480   54.1801   34.5679 C   0  0  0  0  0  0  0  0  0  0  0  0
   45.5601   54.1621   33.2275 C   0  0  0  0  0  0  0  0  0  0  0  0
   46.3145   55.7564   32.7741 S   0  0  2  0  0  0  0  0  0  0  0  0
   44.9048   56.8855   32.5733 C   0  0  0  0  0  0  0  0  0  0  0  0
   46.5173   55.6337   30.8959 C   0  0  0  0  0  0  0  0  0  0  0  0
   47.5979   56.5384   30.1678 C   0  0  2  0  0  0  0  0  0  0  0  0
   47.4047   56.8492   28.8064 O   0  0  0  0  0  0  0  0  0  0  0  0
   49.0409   56.3052   30.3738 C   0  0  1  0  0  0  0  0  0  0  0  0
   49.3119   55.5118   31.5299 O   0  0  0  0  0  0  0  0  0  0  0  0
   49.3126   55.5842   28.9696 C   0  0  2  0  0  0  0  0  0  0  0  0
   50.6828   55.4537   28.7366 O   0  0  0  0  0  0  0  0  0  0  0  0
   48.6516   56.5802   28.0187 C   0  0  1  0  0  0  0  0  0  0  0  0
   46.9992   51.8473   34.8125 O   0  0  0  0  0  0  0  0  0  0  0  0
   50.2382   54.0113   23.8939 N   0  0  0  0  0  0  0  0  0  0  0  0
   50.8659   54.3067   25.0353 C   0  0  0  0  0  0  0  0  0  0  0  0
   50.2512   54.9752   26.0067 N   0  0  0  0  0  0  0  0  0  0  0  0
   49.0151   55.4721   25.8414 C   0  0  0  0  0  0  0  0  0  0  0  0
   48.3273   55.2321   24.6238 C   0  0  0  0  0  0  0  0  0  0  0  0
   48.9942   54.4590   23.6332 C   0  0  0  0  0  0  0  0  0  0  0  0
   48.3873   54.1684   22.4281 N   0  0  0  0  0  0  0  0  0  0  0  0
   47.1293   55.8355   24.7168 N   0  0  0  0  0  0  0  0  0  0  0  0
   47.0301   56.4250   25.8782 C   0  0  0  0  0  0  0  0  0  0  0  0
   48.1593   56.2268   26.6223 N   0  0  0  0  0  0  0  0  0  0  0  0
  2  1  1  1  0  0  0
  2  3  1  0  0  0  0
  2  5  1  0  0  0  0
  3  4  1  0  0  0  0
  3 17  1  0  0  0  0
  5  6  1  0  0  0  0
  7  6  1  6  0  0  0
  7  8  1  0  0  0  0
  7  9  1  0  0  0  0
 10  9  1  6  0  0  0
 10 11  1  0  0  0  0
 10 12  1  0  0  0  0
 11 16  1  0  0  0  0
 12 13  1  1  0  0  0
 12 14  1  0  0  0  0
 14 15  1  6  0  0  0
 14 16  1  0  0  0  0
 16 27  1  6  0  0  0
 18 19  2  0  0  0  0
 18 23  1  0  0  0  0
 19 20  1  0  0  0  0
 20 21  2  0  0  0  0
 21 22  1  0  0  0  0
 21 27  1  0  0  0  0
 22 23  2  0  0  0  0
 22 25  1  0  0  0  0
 23 24  1  0  0  0  0
 25 26  2  0  0  0  0
 26 27  1  0  0  0  0
M  END
>  <CHROM.1>
-30.45246319,-168.54275008,-153.30533317,-64.97814992,-157.19850621,-155.19206994
-156.81344082,47.59113442,54.95389235,29.84789072,-2.03476062,0.78448737
-1.07637923

>  <Name>
ligand

>  <RI>
0

>  <Rbt.Current_Directory>
/home/itssahil/PROJECTS/Mol_Feturizer/New_Systems/rnas/3IQR

>  <Rbt.Executable>
rbdock ($Id: //depot/dev/client3/rdock/2013.1/src/exe/rbdock.cxx#4 $)

>  <Rbt.Library>
libRbt.so (2013.1, Build901 2013/11/27)

>  <Rbt.Parameter_File>
/export/apps/rDock/src/rDock_2013.1_src/data/scripts/dock_solv.prm

>  <Rbt.Receptor>
prm/pocket_docking_8.prm

>  <SCORE>
-14.6035

>  <SCORE.INTER>
-11.9091

>  <SCORE.INTER.CONST>
1

>  <SCORE.INTER.POLAR>
0

>  <SCORE.INTER.ROT>
7

>  <SCORE.INTER.SOLV>
10.2344

>  <SCORE.INTER.VDW>
-19.6175

>  <SCORE.INTER.norm>
-0.441077

>  <SCORE.INTRA>
-2.69482

>  <SCORE.INTRA.DIHEDRAL>
1.57233

>  <SCORE.INTRA.DIHEDRAL.0>
9.29433

>  <SCORE.INTRA.POLAR>
0

>  <SCORE.INTRA.POLAR.0>
0

>  <SCORE.INTRA.REPUL>
0

>  <SCORE.INTRA.REPUL.0>
0

>  <SCORE.INTRA.SOLV>
-1.57271

>  <SCORE.INTRA.SOLV.lig_0>
-48.5102

>  <SCORE.INTRA.VDW>
-2.69463

>  <SCORE.INTRA.VDW.0>
0.379549

>  <SCORE.INTRA.norm>
-0.0998082

>  <SCORE.RESTR>
0.000393553

>  <SCORE.RESTR.CAVITY>
0.000393553

>  <SCORE.RESTR.norm>
1.4576e-05

>  <SCORE.SYSTEM>
0

>  <SCORE.SYSTEM.CONST>
0

>  <SCORE.SYSTEM.DIHEDRAL>
0

>  <SCORE.SYSTEM.SOLV>
0

>  <SCORE.SYSTEM.norm>
0

>  <SCORE.heavy>
27

>  <SCORE.norm>
-0.54087

>  <RMSD>
7.569

$$$$
ligand
 OpenBabel11021811483D
libRbt.so/2013.1/901 2013/11/27
 27 29  0  0  0  0  0  0  0  0999 V2000
   48.4718   54.1234   33.6780 N   0  0  0  0  0  0  0  0  0  0  0  0
   47.6909   55.2800   34.1144 C   0  0  2  0  0  0  0  0  0  0  0  0
   46.3237   55.2167   33.4974 C   0  0  0  0  0  0  0  0  0  0  0  0
   45.4347   55.9595   33.9003 O   0  0  0  0  0  0  0  0  0  0  0  0
   48.3750   56.5759   33.6812 C   0  0  0  0  0  0  0  0  0  0  0  0
   48.4972   56.5851   32.1683 C   0  0  0  0  0  0  0  0  0  0  0  0
   49.0705   58.1736   31.4865 S   0  0  2  0  0  0  0  0  0  0  0  0
   47.8002   59.3704   31.9925 C   0  0  0  0  0  0  0  0  0  0  0  0
   48.3965   58.1668   29.7174 C   0  0  0  0  0  0  0  0  0  0  0  0
   47.8073   56.8238   29.1129 C   0  0  2  0  0  0  0  0  0  0  0  0
   48.7055   55.7952   28.7631 O   0  0  0  0  0  0  0  0  0  0  0  0
   46.7451   56.8588   28.0883 C   0  0  1  0  0  0  0  0  0  0  0  0
   46.0816   58.1218   28.0247 O   0  0  0  0  0  0  0  0  0  0  0  0
   47.6849   56.5152   26.8378 C   0  0  2  0  0  0  0  0  0  0  0  0
   46.9188   56.2184   25.7091 O   0  0  0  0  0  0  0  0  0  0  0  0
   48.4237   55.2927   27.3790 C   0  0  1  0  0  0  0  0  0  0  0  0
   46.1124   54.4517   32.5651 O   0  0  0  0  0  0  0  0  0  0  0  0
   50.7883   54.5022   22.9164 N   0  0  0  0  0  0  0  0  0  0  0  0
   49.5273   54.8485   23.1888 C   0  0  0  0  0  0  0  0  0  0  0  0
   49.1176   55.0294   24.4409 N   0  0  0  0  0  0  0  0  0  0  0  0
   49.9204   54.7697   25.4850 C   0  0  0  0  0  0  0  0  0  0  0  0
   51.2533   54.3454   25.2474 C   0  0  0  0  0  0  0  0  0  0  0  0
   51.6735   54.2244   23.8937 C   0  0  0  0  0  0  0  0  0  0  0  0
   52.9588   53.8322   23.5788 N   0  0  0  0  0  0  0  0  0  0  0  0
   51.8303   54.1522   26.4464 N   0  0  0  0  0  0  0  0  0  0  0  0
   50.9664   54.4151   27.3903 C   0  0  0  0  0  0  0  0  0  0  0  0
   49.7714   54.8126   26.8590 N   0  0  0  0  0  0  0  0  0  0  0  0
  2  1  1  6  0  0  0
  2  3  1  0  0  0  0
  2  5  1  0  0  0  0
  3  4  1  0  0  0  0
  3 17  1  0  0  0  0
  5  6  1  0  0  0  0
  7  6  1  1  0  0  0
  7  8  1  0  0  0  0
  7  9  1  0  0  0  0
 10  9  1  6  0  0  0
 10 11  1  0  0  0  0
 10 12  1  0  0  0  0
 11 16  1  0  0  0  0
 12 13  1  6  0  0  0
 12 14  1  0  0  0  0
 14 15  1  6  0  0  0
 14 16  1  0  0  0  0
 16 27  1  6  0  0  0
 18 19  2  0  0  0  0
 18 23  1  0  0  0  0
 19 20  1  0  0  0  0
 20 21  2  0  0  0  0
 21 22  1  0  0  0  0
 21 27  1  0  0  0  0
 22 23  2  0  0  0  0
 22 25  1  0  0  0  0
 23 24  1  0  0  0  0
 25 26  2  0  0  0  0
 26 27  1  0  0  0  0
M  END
>  <CHROM.1>
167.78325188,59.66927863,171.48037713,-60.89669553,-12.03864517,-72.83284588
-156.49288906,48.68919912,55.88171270,28.75978708,-2.06713229,0.73684008
-1.43361171

>  <Name>
ligand

>  <RI>
0

>  <Rbt.Current_Directory>
/home/itssahil/PROJECTS/Mol_Feturizer/New_Systems/rnas/3IQR

>  <Rbt.Executable>
rbdock ($Id: //depot/dev/client3/rdock/2013.1/src/exe/rbdock.cxx#4 $)

>  <Rbt.Library>
libRbt.so (2013.1, Build901 2013/11/27)

>  <Rbt.Parameter_File>
/export/apps/rDock/src/rDock_2013.1_src/data/scripts/dock_solv.prm

>  <Rbt.Receptor>
prm/pocket_docking_7.prm

>  <SCORE>
-17.7767

>  <SCORE.INTER>
-15.4626

>  <SCORE.INTER.CONST>
1

>  <SCORE.INTER.POLAR>
0

>  <SCORE.INTER.ROT>
7

>  <SCORE.INTER.SOLV>
9.57521

>  <SCORE.INTER.VDW>
-21.7668

>  <SCORE.INTER.norm>
-0.57269

>  <SCORE.INTRA>
-2.31461

>  <SCORE.INTRA.DIHEDRAL>
0.0495804

>  <SCORE.INTRA.DIHEDRAL.0>
9.29433

>  <SCORE.INTRA.POLAR>
0

>  <SCORE.INTRA.POLAR.0>
0

>  <SCORE.INTRA.REPUL>
0

>  <SCORE.INTRA.REPUL.0>
0

>  <SCORE.INTRA.SOLV>
-0.974091

>  <SCORE.INTRA.SOLV.lig_0>
-48.5102

>  <SCORE.INTRA.VDW>
-1.85235

>  <SCORE.INTRA.VDW.0>
0.379549

>  <SCORE.INTRA.norm>
-0.0857262

>  <SCORE.RESTR>
0.00055384

>  <SCORE.RESTR.CAVITY>
0.00055384

>  <SCORE.RESTR.norm>
2.05126e-05

>  <SCORE.SYSTEM>
0

>  <SCORE.SYSTEM.CONST>
0

>  <SCORE.SYSTEM.DIHEDRAL>
0

>  <SCORE.SYSTEM.SOLV>
0

>  <SCORE.SYSTEM.norm>
0

>  <SCORE.heavy>
27

>  <SCORE.norm>
-0.658396

>  <RMSD>
7.577

$$$$
ligand
 OpenBabel11021811483D
libRbt.so/2013.1/901 2013/11/27
 27 29  0  0  0  0  0  0  0  0999 V2000
   48.2995   56.2187   33.1291 N   0  0  0  0  0  0  0  0  0  0  0  0
   48.5986   57.3066   32.1991 C   0  0  2  0  0  0  0  0  0  0  0  0
   47.9091   58.5577   32.6611 C   0  0  0  0  0  0  0  0  0  0  0  0
   48.5699   59.5025   33.0798 O   0  0  0  0  0  0  0  0  0  0  0  0
   48.1074   56.9548   30.7955 C   0  0  0  0  0  0  0  0  0  0  0  0
   48.5273   58.0550   29.8378 C   0  0  0  0  0  0  0  0  0  0  0  0
   48.1568   57.6914   28.0922 S   0  0  2  0  0  0  0  0  0  0  0  0
   46.3524   57.4818   28.0446 C   0  0  0  0  0  0  0  0  0  0  0  0
   48.4039   55.8187   27.9664 C   0  0  0  0  0  0  0  0  0  0  0  0
   49.8738   55.2315   27.8638 C   0  0  2  0  0  0  0  0  0  0  0  0
   50.5577   55.3465   26.6365 O   0  0  0  0  0  0  0  0  0  0  0  0
   50.2017   53.9114   28.4375 C   0  0  1  0  0  0  0  0  0  0  0  0
   49.2255   53.4605   29.3773 O   0  0  0  0  0  0  0  0  0  0  0  0
   50.2370   53.1120   27.0501 C   0  0  2  0  0  0  0  0  0  0  0  0
   50.7832   51.8392   27.2254 O   0  0  0  0  0  0  0  0  0  0  0  0
   51.1438   54.0278   26.2301 C   0  0  1  0  0  0  0  0  0  0  0  0
   46.6907   58.6457   32.5795 O   0  0  0  0  0  0  0  0  0  0  0  0
   48.0352   55.2075   22.3474 N   0  0  0  0  0  0  0  0  0  0  0  0
   47.8068   55.1416   23.6617 C   0  0  0  0  0  0  0  0  0  0  0  0
   48.7788   54.8340   24.5155 N   0  0  0  0  0  0  0  0  0  0  0  0
   49.9992   54.4742   24.0874 C   0  0  0  0  0  0  0  0  0  0  0  0
   50.2749   54.4748   22.6955 C   0  0  0  0  0  0  0  0  0  0  0  0
   49.2278   54.8708   21.8178 C   0  0  0  0  0  0  0  0  0  0  0  0
   49.4206   54.9129   20.4518 N   0  0  0  0  0  0  0  0  0  0  0  0
   51.5496   54.0755   22.5412 N   0  0  0  0  0  0  0  0  0  0  0  0
   52.0706   53.8267   23.7130 C   0  0  0  0  0  0  0  0  0  0  0  0
   51.1649   54.0653   24.7085 N   0  0  0  0  0  0  0  0  0  0  0  0
  2  1  1  1  0  0  0
  2  3  1  0  0  0  0
  2  5  1  0  0  0  0
  3  4  1  0  0  0  0
  3 17  1  0  0  0  0
  5  6  1  0  0  0  0
  7  6  1  1  0  0  0
  7  8  1  0  0  0  0
  7  9  1  0  0  0  0
 10  9  1  6  0  0  0
 10 11  1  0  0  0  0
 10 12  1  0  0  0  0
 11 16  1  0  0  0  0
 12 13  1  1  0  0  0
 12 14  1  0  0  0  0
 14 15  1  1  0  0  0
 14 16  1  0  0  0  0
 16 27  1  6  0  0  0
 18 19  2  0  0  0  0
 18 23  1  0  0  0  0
 19 20  1  0  0  0  0
 20 21  2  0  0  0  0
 21 22  1  0  0  0  0
 21 27  1  0  0  0  0
 22 23  2  0  0  0  0
 22 25  1  0  0  0  0
 23 24  1  0  0  0  0
 25 26  2  0  0  0  0
 26 27  1  0  0  0  0
M  END
>  <CHROM.1>
111.61635124,-175.71033365,174.12810878,60.00815172,-78.56168106,-75.38253178
-47.86105395,49.17852013,55.65130225,27.27427808,-1.94611671,0.93223076,-1.65210706

>  <Name>
ligand

>  <RI>
0

>  <Rbt.Current_Directory>
/home/itssahil/PROJECTS/Mol_Feturizer/New_Systems/rnas/3IQR

>  <Rbt.Executable>
rbdock ($Id: //depot/dev/client3/rdock/2013.1/src/exe/rbdock.cxx#4 $)

>  <Rbt.Library>
libRbt.so (2013.1, Build901 2013/11/27)

>  <Rbt.Parameter_File>
/export/apps/rDock/src/rDock_2013.1_src/data/scripts/dock_solv.prm

>  <Rbt.Receptor>
prm/pocket_docking_7.prm

>  <SCORE>
-18.4953

>  <SCORE.INTER>
-13.6819

>  <SCORE.INTER.CONST>
1

>  <SCORE.INTER.POLAR>
0

>  <SCORE.INTER.ROT>
7

>  <SCORE.INTER.SOLV>
14.5984

>  <SCORE.INTER.VDW>
-22.2541

>  <SCORE.INTER.norm>
-0.506737

>  <SCORE.INTRA>
-4.81346

>  <SCORE.INTRA.DIHEDRAL>
-3.72912

>  <SCORE.INTRA.DIHEDRAL.0>
9.29433

>  <SCORE.INTRA.POLAR>
0

>  <SCORE.INTRA.POLAR.0>
0

>  <SCORE.INTRA.REPUL>
0

>  <SCORE.INTRA.REPUL.0>
0

>  <SCORE.INTRA.SOLV>
-1.84712

>  <SCORE.INTRA.SOLV.lig_0>
-48.5102

>  <SCORE.INTRA.VDW>
-2.02534

>  <SCORE.INTRA.VDW.0>
0.379549

>  <SCORE.INTRA.norm>
-0.178276

>  <SCORE.RESTR>
0

>  <SCORE.RESTR.CAVITY>
0

>  <SCORE.RESTR.norm>
0

>  <SCORE.SYSTEM>
0

>  <SCORE.SYSTEM.CONST>
0

>  <SCORE.SYSTEM.DIHEDRAL>
0

>  <SCORE.SYSTEM.SOLV>
0

>  <SCORE.SYSTEM.norm>
0

>  <SCORE.heavy>
27

>  <SCORE.norm>
-0.685013

>  <RMSD>
7.615

$$$$
ligand
 OpenBabel11021811483D
libRbt.so/2013.1/901 2013/11/27
 27 29  0  0  0  0  0  0  0  0999 V2000
   47.4253   54.2370   33.6265 N   0  0  0  0  0  0  0  0  0  0  0  0
   46.1724   54.9706   33.7994 C   0  0  2  0  0  0  0  0  0  0  0  0
   45.0276   53.9995   33.8188 C   0  0  0  0  0  0  0  0  0  0  0  0
   45.1271   52.9233   33.2388 O   0  0  0  0  0  0  0  0  0  0  0  0
   45.9718   55.9564   32.6491 C   0  0  0  0  0  0  0  0  0  0  0  0
   46.8521   57.1705   32.8834 C   0  0  0  0  0  0  0  0  0  0  0  0
   48.6265   56.8536   32.6230 S   0  0  2  0  0  0  0  0  0  0  0  0
   49.4286   58.4466   32.9710 C   0  0  0  0  0  0  0  0  0  0  0  0
   48.8560   57.1148   30.7621 C   0  0  0  0  0  0  0  0  0  0  0  0
   48.0799   56.1802   29.7422 C   0  0  2  0  0  0  0  0  0  0  0  0
   48.7127   55.0015   29.2979 O   0  0  0  0  0  0  0  0  0  0  0  0
   47.3491   56.7559   28.5959 C   0  0  1  0  0  0  0  0  0  0  0  0
   47.0995   58.1539   28.7468 O   0  0  0  0  0  0  0  0  0  0  0  0
   48.4286   56.3698   27.4775 C   0  0  2  0  0  0  0  0  0  0  0  0
   47.9059   56.5616   26.1973 O   0  0  0  0  0  0  0  0  0  0  0  0
   48.6444   54.8934   27.8042 C   0  0  1  0  0  0  0  0  0  0  0  0
   44.0130   54.2685   34.4491 O   0  0  0  0  0  0  0  0  0  0  0  0
   49.9049   50.7124   25.1469 N   0  0  0  0  0  0  0  0  0  0  0  0
   48.7109   51.2147   25.4727 C   0  0  0  0  0  0  0  0  0  0  0  0
   48.6044   52.3477   26.1606 N   0  0  0  0  0  0  0  0  0  0  0  0
   49.6865   52.9763   26.6467 C   0  0  0  0  0  0  0  0  0  0  0  0
   50.9758   52.4505   26.3742 C   0  0  0  0  0  0  0  0  0  0  0  0
   51.0513   51.2717   25.5815 C   0  0  0  0  0  0  0  0  0  0  0  0
   52.2684   50.7064   25.2591 N   0  0  0  0  0  0  0  0  0  0  0  0
   51.8700   53.2565   26.9730 N   0  0  0  0  0  0  0  0  0  0  0  0
   51.2399   54.2205   27.5894 C   0  0  0  0  0  0  0  0  0  0  0  0
   49.8889   54.1079   27.4150 N   0  0  0  0  0  0  0  0  0  0  0  0
  2  1  1  6  0  0  0
  2  3  1  0  0  0  0
  2  5  1  0  0  0  0
  3  4  1  0  0  0  0
  3 17  1  0  0  0  0
  5  6  1  0  0  0  0
  7  6  1  6  0  0  0
  7  8  1  0  0  0  0
  7  9  1  0  0  0  0
 10  9  1  6  0  0  0
 10 11  1  0  0  0  0
 10 12  1  0  0  0  0
 11 16  1  0  0  0  0
 12 13  1  1  0  0  0
 12 14  1  0  0  0  0
 14 15  1  6  0  0  0
 14 16  1  0  0  0  0
 16 27  1  6  0  0  0
 18 19  2  0  0  0  0
 18 23  1  0  0  0  0
 19 20  1  0  0  0  0
 20 21  2  0  0  0  0
 21 22  1  0  0  0  0
 21 27  1  0  0  0  0
 22 23  2  0  0  0  0
 22 25  1  0  0  0  0
 23 24  1  0  0  0  0
 25 26  2  0  0  0  0
 26 27  1  0  0  0  0
M  END
>  <CHROM.1>
-26.66145473,-77.65450798,72.29495750,-179.82901286,-61.99237451,-91.12673070
125.75405637,48.38281227,54.73895857,29.54916216,2.48292603,0.98884108,0.30420890

>  <Name>
ligand

>  <RI>
0

>  <Rbt.Current_Directory>
/home/itssahil/PROJECTS/Mol_Feturizer/New_Systems/rnas/3IQR

>  <Rbt.Executable>
rbdock ($Id: //depot/dev/client3/rdock/2013.1/src/exe/rbdock.cxx#4 $)

>  <Rbt.Library>
libRbt.so (2013.1, Build901 2013/11/27)

>  <Rbt.Parameter_File>
/export/apps/rDock/src/rDock_2013.1_src/data/scripts/dock_solv.prm

>  <Rbt.Receptor>
prm/pocket_docking_7.prm

>  <SCORE>
-14.6061

>  <SCORE.INTER>
-10.9247

>  <SCORE.INTER.CONST>
1

>  <SCORE.INTER.POLAR>
0

>  <SCORE.INTER.ROT>
7

>  <SCORE.INTER.SOLV>
12.447

>  <SCORE.INTER.VDW>
-19.6988

>  <SCORE.INTER.norm>
-0.404619

>  <SCORE.INTRA>
-3.68138

>  <SCORE.INTRA.DIHEDRAL>
-0.988557

>  <SCORE.INTRA.DIHEDRAL.0>
9.29433

>  <SCORE.INTRA.POLAR>
0

>  <SCORE.INTRA.POLAR.0>
0

>  <SCORE.INTRA.REPUL>
0

>  <SCORE.INTRA.REPUL.0>
0

>  <SCORE.INTRA.SOLV>
0.321745

>  <SCORE.INTRA.SOLV.lig_0>
-48.5102

>  <SCORE.INTRA.VDW>
-3.34797

>  <SCORE.INTRA.VDW.0>
0.379549

>  <SCORE.INTRA.norm>
-0.136347

>  <SCORE.RESTR>
0

>  <SCORE.RESTR.CAVITY>
0

>  <SCORE.RESTR.norm>
0

>  <SCORE.SYSTEM>
0

>  <SCORE.SYSTEM.CONST>
0

>  <SCORE.SYSTEM.DIHEDRAL>
0

>  <SCORE.SYSTEM.SOLV>
0

>  <SCORE.SYSTEM.norm>
0

>  <SCORE.heavy>
27

>  <SCORE.norm>
-0.540966

>  <RMSD>
7.630

$$$$
ligand
 OpenBabel11021811483D
libRbt.so/2013.1/901 2013/11/27
 27 29  0  0  0  0  0  0  0  0999 V2000
   47.3078   53.7413   33.9157 N   0  0  0  0  0  0  0  0  0  0  0  0
   48.4381   54.2274   34.7057 C   0  0  2  0  0  0  0  0  0  0  0  0
   48.1646   53.9877   36.1624 C   0  0  0  0  0  0  0  0  0  0  0  0
   48.9043   54.4721   37.0124 O   0  0  0  0  0  0  0  0  0  0  0  0
   48.6415   55.7243   34.4753 C   0  0  0  0  0  0  0  0  0  0  0  0
   48.9849   55.9545   33.0149 C   0  0  0  0  0  0  0  0  0  0  0  0
   49.3207   57.6967   32.6042 S   0  0  2  0  0  0  0  0  0  0  0  0
   47.7228   58.5325   32.8279 C   0  0  0  0  0  0  0  0  0  0  0  0
   49.1182   57.7566   30.7229 C   0  0  0  0  0  0  0  0  0  0  0  0
   47.9345   56.9508   30.0402 C   0  0  2  0  0  0  0  0  0  0  0  0
   48.2467   55.7737   29.3302 O   0  0  0  0  0  0  0  0  0  0  0  0
   46.8723   57.6551   29.2953 C   0  0  1  0  0  0  0  0  0  0  0  0
   46.8189   59.0499   29.5973 O   0  0  0  0  0  0  0  0  0  0  0  0
   47.4046   57.2918   27.8291 C   0  0  2  0  0  0  0  0  0  0  0  0
   46.4499   57.6118   26.8621 O   0  0  0  0  0  0  0  0  0  0  0  0
   47.6030   55.7844   27.9762 C   0  0  1  0  0  0  0  0  0  0  0  0
   47.1792   53.3429   36.4977 O   0  0  0  0  0  0  0  0  0  0  0  0
   49.2955   50.9764   27.5889 N   0  0  0  0  0  0  0  0  0  0  0  0
   48.5293   51.5622   28.5130 C   0  0  0  0  0  0  0  0  0  0  0  0
   48.1798   52.8410   28.4086 N   0  0  0  0  0  0  0  0  0  0  0  0
   48.6665   53.6227   27.4317 C   0  0  0  0  0  0  0  0  0  0  0  0
   49.5297   53.0592   26.4567 C   0  0  0  0  0  0  0  0  0  0  0  0
   49.8296   51.6729   26.5664 C   0  0  0  0  0  0  0  0  0  0  0  0
   50.6487   51.0463   25.6491 N   0  0  0  0  0  0  0  0  0  0  0  0
   49.8716   54.0453   25.6090 N   0  0  0  0  0  0  0  0  0  0  0  0
   49.2990   55.1576   25.9847 C   0  0  0  0  0  0  0  0  0  0  0  0
   48.5324   54.9578   27.0986 N   0  0  0  0  0  0  0  0  0  0  0  0
  2  1  1  6  0  0  0
  2  3  1  0  0  0  0
  2  5  1  0  0  0  0
  3  4  1  0  0  0  0
  3 17  1  0  0  0  0
  5  6  1  0  0  0  0
  7  6  1  1  0  0  0
  7  8  1  0  0  0  0
  7  9  1  0  0  0  0
 10  9  1  6  0  0  0
 10 11  1  0  0  0  0
 10 12  1  0  0  0  0
 11 16  1  0  0  0  0
 12 13  1  6  0  0  0
 12 14  1  0  0  0  0
 14 15  1  6  0  0  0
 14 16  1  0  0  0  0
 16 27  1  6  0  0  0
 18 19  2  0  0  0  0
 18 23  1  0  0  0  0
 19 20  1  0  0  0  0
 20 21  2  0  0  0  0
 21 22  1  0  0  0  0
 21 27  1  0  0  0  0
 22 23  2  0  0  0  0
 22 25  1  0  0  0  0
 23 24  1  0  0  0  0
 25 26  2  0  0  0  0
 26 27  1  0  0  0  0
M  END
>  <CHROM.1>
-170.70283704,-62.69892207,-177.73266083,-66.82277101,40.70516765,-106.43026189
64.02276838,48.43428665,55.18135335,30.29967278,-1.94990435,1.33924960,-1.41209140

>  <Name>
ligand

>  <RI>
0

>  <Rbt.Current_Directory>
/home/itssahil/PROJECTS/Mol_Feturizer/New_Systems/rnas/3IQR

>  <Rbt.Executable>
rbdock ($Id: //depot/dev/client3/rdock/2013.1/src/exe/rbdock.cxx#4 $)

>  <Rbt.Library>
libRbt.so (2013.1, Build901 2013/11/27)

>  <Rbt.Parameter_File>
/export/apps/rDock/src/rDock_2013.1_src/data/scripts/dock_solv.prm

>  <Rbt.Receptor>
prm/pocket_docking_7.prm

>  <SCORE>
-17.0318

>  <SCORE.INTER>
-14.0485

>  <SCORE.INTER.CONST>
1

>  <SCORE.INTER.POLAR>
0

>  <SCORE.INTER.ROT>
7

>  <SCORE.INTER.SOLV>
11.6463

>  <SCORE.INTER.VDW>
-21.5144

>  <SCORE.INTER.norm>
-0.520313

>  <SCORE.INTRA>
-2.98334

>  <SCORE.INTRA.DIHEDRAL>
-1.24661

>  <SCORE.INTRA.DIHEDRAL.0>
9.29433

>  <SCORE.INTRA.POLAR>
0

>  <SCORE.INTRA.POLAR.0>
0

>  <SCORE.INTRA.REPUL>
0

>  <SCORE.INTRA.REPUL.0>
0

>  <SCORE.INTRA.SOLV>
-0.945712

>  <SCORE.INTRA.SOLV.lig_0>
-48.5102

>  <SCORE.INTRA.VDW>
-1.88718

>  <SCORE.INTRA.VDW.0>
0.379549

>  <SCORE.INTRA.norm>
-0.110494

>  <SCORE.RESTR>
0

>  <SCORE.RESTR.CAVITY>
0

>  <SCORE.RESTR.norm>
0

>  <SCORE.SYSTEM>
0

>  <SCORE.SYSTEM.CONST>
0

>  <SCORE.SYSTEM.DIHEDRAL>
0

>  <SCORE.SYSTEM.SOLV>
0

>  <SCORE.SYSTEM.norm>
0

>  <SCORE.heavy>
27

>  <SCORE.norm>
-0.630807

>  <RMSD>
7.667

$$$$
ligand
 OpenBabel11021811483D
libRbt.so/2013.1/901 2013/11/27
 27 29  0  0  0  0  0  0  0  0999 V2000
   45.3421   54.2248   34.5210 N   0  0  0  0  0  0  0  0  0  0  0  0
   46.6160   53.5071   34.5185 C   0  0  2  0  0  0  0  0  0  0  0  0
   46.7055   52.6512   35.7488 C   0  0  0  0  0  0  0  0  0  0  0  0
   46.7467   53.1743   36.8574 O   0  0  0  0  0  0  0  0  0  0  0  0
   47.7815   54.4953   34.5116 C   0  0  0  0  0  0  0  0  0  0  0  0
   47.7490   55.2844   33.2154 C   0  0  0  0  0  0  0  0  0  0  0  0
   49.2699   56.2331   32.8937 S   0  0  2  0  0  0  0  0  0  0  0  0
   49.0489   57.7765   33.8272 C   0  0  0  0  0  0  0  0  0  0  0  0
   48.8978   57.1317   31.2695 C   0  0  0  0  0  0  0  0  0  0  0  0
   47.9677   56.4360   30.1891 C   0  0  2  0  0  0  0  0  0  0  0  0
   48.3882   55.2118   29.6309 O   0  0  0  0  0  0  0  0  0  0  0  0
   47.3381   57.2264   29.1130 C   0  0  1  0  0  0  0  0  0  0  0  0
   47.3305   58.6274   29.3899 O   0  0  0  0  0  0  0  0  0  0  0  0
   48.3292   56.7651   27.9425 C   0  0  2  0  0  0  0  0  0  0  0  0
   47.8385   57.1555   26.6952 O   0  0  0  0  0  0  0  0  0  0  0  0
   48.2931   55.2502   28.1352 C   0  0  1  0  0  0  0  0  0  0  0  0
   46.6953   51.4315   35.6426 O   0  0  0  0  0  0  0  0  0  0  0  0
   48.7490   50.9168   25.4623 N   0  0  0  0  0  0  0  0  0  0  0  0
   47.6656   51.5752   25.8829 C   0  0  0  0  0  0  0  0  0  0  0  0
   47.7713   52.7182   26.5542 N   0  0  0  0  0  0  0  0  0  0  0  0
   48.9659   53.2025   26.9290 C   0  0  0  0  0  0  0  0  0  0  0  0
   50.1452   52.5087   26.5535 C   0  0  0  0  0  0  0  0  0  0  0  0
   49.9935   51.3235   25.7816 C   0  0  0  0  0  0  0  0  0  0  0  0
   51.0918   50.5997   25.3637 N   0  0  0  0  0  0  0  0  0  0  0  0
   51.1879   53.1947   27.0537 N   0  0  0  0  0  0  0  0  0  0  0  0
   50.7479   54.2387   27.7040 C   0  0  0  0  0  0  0  0  0  0  0  0
   49.3836   54.3039   27.6529 N   0  0  0  0  0  0  0  0  0  0  0  0
  2  1  1  1  0  0  0
  2  3  1  0  0  0  0
  2  5  1  0  0  0  0
  3  4  1  0  0  0  0
  3 17  1  0  0  0  0
  5  6  1  0  0  0  0
  7  6  1  1  0  0  0
  7  8  1  0  0  0  0
  7  9  1  0  0  0  0
 10  9  1  6  0  0  0
 10 11  1  0  0  0  0
 10 12  1  0  0  0  0
 11 16  1  0  0  0  0
 12 13  1  1  0  0  0
 12 14  1  0  0  0  0
 14 15  1  6  0  0  0
 14 16  1  0  0  0  0
 16 27  1  6  0  0  0
 18 19  2  0  0  0  0
 18 23  1  0  0  0  0
 19 20  1  0  0  0  0
 20 21  2  0  0  0  0
 21 22  1  0  0  0  0
 21 27  1  0  0  0  0
 22 23  2  0  0  0  0
 22 25  1  0  0  0  0
 23 24  1  0  0  0  0
 25 26  2  0  0  0  0
 26 27  1  0  0  0  0
M  END
>  <CHROM.1>
-64.91750548,-64.30314253,-167.15999120,-83.80796361,-32.61324192,-61.55779208
118.08973184,48.37827930,54.49108970,30.21038123,3.01082676,1.32900226,-0.03999326

>  <Name>
ligand

>  <RI>
0

>  <Rbt.Current_Directory>
/home/itssahil/PROJECTS/Mol_Feturizer/New_Systems/rnas/3IQR

>  <Rbt.Executable>
rbdock ($Id: //depot/dev/client3/rdock/2013.1/src/exe/rbdock.cxx#4 $)

>  <Rbt.Library>
libRbt.so (2013.1, Build901 2013/11/27)

>  <Rbt.Parameter_File>
/export/apps/rDock/src/rDock_2013.1_src/data/scripts/dock_solv.prm

>  <Rbt.Receptor>
prm/pocket_docking_5.prm

>  <SCORE>
-14.5303

>  <SCORE.INTER>
-10.5003

>  <SCORE.INTER.CONST>
1

>  <SCORE.INTER.POLAR>
0

>  <SCORE.INTER.ROT>
7

>  <SCORE.INTER.SOLV>
14.3097

>  <SCORE.INTER.VDW>
-20.0367

>  <SCORE.INTER.norm>
-0.388899

>  <SCORE.INTRA>
-4.03008

>  <SCORE.INTRA.DIHEDRAL>
-1.59723

>  <SCORE.INTRA.DIHEDRAL.0>
9.29433

>  <SCORE.INTRA.POLAR>
0

>  <SCORE.INTRA.POLAR.0>
0

>  <SCORE.INTRA.REPUL>
0

>  <SCORE.INTRA.REPUL.0>
0

>  <SCORE.INTRA.SOLV>
-1.27067

>  <SCORE.INTRA.SOLV.lig_0>
-48.5102

>  <SCORE.INTRA.VDW>
-2.59613

>  <SCORE.INTRA.VDW.0>
0.379549

>  <SCORE.INTRA.norm>
-0.149262

>  <SCORE.RESTR>
0

>  <SCORE.RESTR.CAVITY>
0

>  <SCORE.RESTR.norm>
0

>  <SCORE.SYSTEM>
0

>  <SCORE.SYSTEM.CONST>
0

>  <SCORE.SYSTEM.DIHEDRAL>
0

>  <SCORE.SYSTEM.SOLV>
0

>  <SCORE.SYSTEM.norm>
0

>  <SCORE.heavy>
27

>  <SCORE.norm>
-0.538161

>  <RMSD>
7.780

$$$$
ligand
 OpenBabel11021811483D
libRbt.so/2013.1/901 2013/11/27
 27 29  0  0  0  0  0  0  0  0999 V2000
   48.2931   53.1578   37.0186 N   0  0  0  0  0  0  0  0  0  0  0  0
   47.6958   53.6453   35.7762 C   0  0  2  0  0  0  0  0  0  0  0  0
   47.0060   52.5090   35.0782 C   0  0  0  0  0  0  0  0  0  0  0  0
   46.8051   52.5640   33.8695 O   0  0  0  0  0  0  0  0  0  0  0  0
   48.7751   54.2151   34.8566 C   0  0  0  0  0  0  0  0  0  0  0  0
   48.3834   55.6252   34.4540 C   0  0  0  0  0  0  0  0  0  0  0  0
   49.3665   56.2963   33.0757 S   0  0  2  0  0  0  0  0  0  0  0  0
   48.6009   57.9037   32.7119 C   0  0  0  0  0  0  0  0  0  0  0  0
   48.5589   55.5351   31.5420 C   0  0  0  0  0  0  0  0  0  0  0  0
   48.6366   53.9668   31.3173 C   0  0  2  0  0  0  0  0  0  0  0  0
   49.7321   53.4458   30.5991 O   0  0  0  0  0  0  0  0  0  0  0  0
   47.4380   53.1995   30.9252 C   0  0  1  0  0  0  0  0  0  0  0  0
   46.2240   53.9128   31.1639 O   0  0  0  0  0  0  0  0  0  0  0  0
   47.8332   53.0168   29.3839 C   0  0  2  0  0  0  0  0  0  0  0  0
   46.9959   52.0871   28.7646 O   0  0  0  0  0  0  0  0  0  0  0  0
   49.2657   52.5066   29.5277 C   0  0  1  0  0  0  0  0  0  0  0  0
   46.6833   51.5125   35.7121 O   0  0  0  0  0  0  0  0  0  0  0  0
   50.0667   50.8561   24.7564 N   0  0  0  0  0  0  0  0  0  0  0  0
   49.0923   50.5773   25.6264 C   0  0  0  0  0  0  0  0  0  0  0  0
   49.0586   51.1447   26.8285 N   0  0  0  0  0  0  0  0  0  0  0  0
   50.0544   51.9362   27.2576 C   0  0  0  0  0  0  0  0  0  0  0  0
   51.1406   52.2181   26.3893 C   0  0  0  0  0  0  0  0  0  0  0  0
   51.1090   51.6431   25.0885 C   0  0  0  0  0  0  0  0  0  0  0  0
   52.1198   51.8814   24.1794 N   0  0  0  0  0  0  0  0  0  0  0  0
   51.9888   53.0186   27.0584 N   0  0  0  0  0  0  0  0  0  0  0  0
   51.5188   53.2430   28.2564 C   0  0  0  0  0  0  0  0  0  0  0  0
   50.3206   52.6102   28.4352 N   0  0  0  0  0  0  0  0  0  0  0  0
  2  1  1  1  0  0  0
  2  3  1  0  0  0  0
  2  5  1  0  0  0  0
  3  4  1  0  0  0  0
  3 17  1  0  0  0  0
  5  6  1  0  0  0  0
  7  6  1  1  0  0  0
  7  8  1  0  0  0  0
  7  9  1  0  0  0  0
 10  9  1  6  0  0  0
 10 11  1  0  0  0  0
 10 12  1  0  0  0  0
 11 16  1  0  0  0  0
 12 13  1  6  0  0  0
 12 14  1  0  0  0  0
 14 15  1  1  0  0  0
 14 16  1  0  0  0  0
 16 27  1  6  0  0  0
 18 19  2  0  0  0  0
 18 23  1  0  0  0  0
 19 20  1  0  0  0  0
 20 21  2  0  0  0  0
 21 22  1  0  0  0  0
 21 27  1  0  0  0  0
 22 23  2  0  0  0  0
 22 25  1  0  0  0  0
 23 24  1  0  0  0  0
 25 26  2  0  0  0  0
 26 27  1  0  0  0  0
M  END
>  <CHROM.1>
-157.27557257,-126.52834511,-167.00132319,175.13779023,-65.87861547,-89.70633792
-173.54450096,48.94382505,53.30061695,30.59325417,2.06626235,0.93565608,0.88673830

>  <Name>
ligand

>  <RI>
0

>  <Rbt.Current_Directory>
/home/itssahil/PROJECTS/Mol_Feturizer/New_Systems/rnas/3IQR

>  <Rbt.Executable>
rbdock ($Id: //depot/dev/client3/rdock/2013.1/src/exe/rbdock.cxx#4 $)

>  <Rbt.Library>
libRbt.so (2013.1, Build901 2013/11/27)

>  <Rbt.Parameter_File>
/export/apps/rDock/src/rDock_2013.1_src/data/scripts/dock_solv.prm

>  <Rbt.Receptor>
prm/pocket_docking_8.prm

>  <SCORE>
-21.3386

>  <SCORE.INTER>
-18.8326

>  <SCORE.INTER.CONST>
1

>  <SCORE.INTER.POLAR>
0

>  <SCORE.INTER.ROT>
7

>  <SCORE.INTER.SOLV>
12.9543

>  <SCORE.INTER.VDW>
-25.1399

>  <SCORE.INTER.norm>
-0.697504

>  <SCORE.INTRA>
-2.50596

>  <SCORE.INTRA.DIHEDRAL>
3.14857

>  <SCORE.INTRA.DIHEDRAL.0>
9.29433

>  <SCORE.INTRA.POLAR>
0

>  <SCORE.INTRA.POLAR.0>
0

>  <SCORE.INTRA.REPUL>
0

>  <SCORE.INTRA.REPUL.0>
0

>  <SCORE.INTRA.SOLV>
-1.42139

>  <SCORE.INTRA.SOLV.lig_0>
-48.5102

>  <SCORE.INTRA.VDW>
-3.36955

>  <SCORE.INTRA.VDW.0>
0.379549

>  <SCORE.INTRA.norm>
-0.0928133

>  <SCORE.RESTR>
0

>  <SCORE.RESTR.CAVITY>
0

>  <SCORE.RESTR.norm>
0

>  <SCORE.SYSTEM>
0

>  <SCORE.SYSTEM.CONST>
0

>  <SCORE.SYSTEM.DIHEDRAL>
0

>  <SCORE.SYSTEM.SOLV>
0

>  <SCORE.SYSTEM.norm>
0

>  <SCORE.heavy>
27

>  <SCORE.norm>
-0.790318

>  <RMSD>
7.809

$$$$
ligand
 OpenBabel11021811483D
libRbt.so/2013.1/901 2013/11/27
 27 29  0  0  0  0  0  0  0  0999 V2000
   48.3260   53.6307   36.6152 N   0  0  0  0  0  0  0  0  0  0  0  0
   47.3840   53.6606   35.4973 C   0  0  2  0  0  0  0  0  0  0  0  0
   46.8248   52.2839   35.2831 C   0  0  0  0  0  0  0  0  0  0  0  0
   47.4048   51.4951   34.5442 O   0  0  0  0  0  0  0  0  0  0  0  0
   48.0896   54.1174   34.2211 C   0  0  0  0  0  0  0  0  0  0  0  0
   48.3191   55.6160   34.2961 C   0  0  0  0  0  0  0  0  0  0  0  0
   49.3091   56.2780   32.9183 S   0  0  2  0  0  0  0  0  0  0  0  0
   48.9380   58.0569   32.9057 C   0  0  0  0  0  0  0  0  0  0  0  0
   48.2018   56.0097   31.4065 C   0  0  0  0  0  0  0  0  0  0  0  0
   47.8410   54.5319   30.9569 C   0  0  2  0  0  0  0  0  0  0  0  0
   48.8737   53.7114   30.4592 O   0  0  0  0  0  0  0  0  0  0  0  0
   46.6287   54.2594   30.1599 C   0  0  1  0  0  0  0  0  0  0  0  0
   45.6884   55.3336   30.2014 O   0  0  0  0  0  0  0  0  0  0  0  0
   47.3735   54.0553   28.7568 C   0  0  2  0  0  0  0  0  0  0  0  0
   46.5020   53.5203   27.8064 O   0  0  0  0  0  0  0  0  0  0  0  0
   48.4649   53.0688   29.1678 C   0  0  1  0  0  0  0  0  0  0  0  0
   45.8127   51.9393   35.8798 O   0  0  0  0  0  0  0  0  0  0  0  0
   50.1901   50.5951   25.0404 N   0  0  0  0  0  0  0  0  0  0  0  0
   48.9946   50.5755   25.6358 C   0  0  0  0  0  0  0  0  0  0  0  0
   48.7440   51.3275   26.7035 N   0  0  0  0  0  0  0  0  0  0  0  0
   49.7082   52.0545   27.2901 C   0  0  0  0  0  0  0  0  0  0  0  0
   51.0104   52.0642   26.7267 C   0  0  0  0  0  0  0  0  0  0  0  0
   51.2227   51.2967   25.5479 C   0  0  0  0  0  0  0  0  0  0  0  0
   52.4566   51.2660   24.9301 N   0  0  0  0  0  0  0  0  0  0  0  0
   51.7739   52.8556   27.5004 N   0  0  0  0  0  0  0  0  0  0  0  0
   51.0545   53.3222   28.4859 C   0  0  0  0  0  0  0  0  0  0  0  0
   49.7667   52.8717   28.4038 N   0  0  0  0  0  0  0  0  0  0  0  0
  2  1  1  1  0  0  0
  2  3  1  0  0  0  0
  2  5  1  0  0  0  0
  3  4  1  0  0  0  0
  3 17  1  0  0  0  0
  5  6  1  0  0  0  0
  7  6  1  1  0  0  0
  7  8  1  0  0  0  0
  7  9  1  0  0  0  0
 10  9  1  6  0  0  0
 10 11  1  0  0  0  0
 10 12  1  0  0  0  0
 11 16  1  0  0  0  0
 12 13  1  6  0  0  0
 12 14  1  0  0  0  0
 14 15  1  6  0  0  0
 14 16  1  0  0  0  0
 16 27  1  6  0  0  0
 18 19  2  0  0  0  0
 18 23  1  0  0  0  0
 19 20  1  0  0  0  0
 20 21  2  0  0  0  0
 21 22  1  0  0  0  0
 21 27  1  0  0  0  0
 22 23  2  0  0  0  0
 22 25  1  0  0  0  0
 23 24  1  0  0  0  0
 25 26  2  0  0  0  0
 26 27  1  0  0  0  0
M  END
>  <CHROM.1>
-88.43695584,-75.15839125,173.93749425,160.35572744,-64.59013363,-67.12831703
167.45143356,48.66267353,53.50716953,30.49680801,2.33865675,1.13662115,0.55353814

>  <Name>
ligand

>  <RI>
0

>  <Rbt.Current_Directory>
/home/itssahil/PROJECTS/Mol_Feturizer/New_Systems/rnas/3IQR

>  <Rbt.Executable>
rbdock ($Id: //depot/dev/client3/rdock/2013.1/src/exe/rbdock.cxx#4 $)

>  <Rbt.Library>
libRbt.so (2013.1, Build901 2013/11/27)

>  <Rbt.Parameter_File>
/export/apps/rDock/src/rDock_2013.1_src/data/scripts/dock_solv.prm

>  <Rbt.Receptor>
prm/pocket_docking_8.prm

>  <SCORE>
-19.479

>  <SCORE.INTER>
-14.2707

>  <SCORE.INTER.CONST>
1

>  <SCORE.INTER.POLAR>
0

>  <SCORE.INTER.ROT>
7

>  <SCORE.INTER.SOLV>
14.2844

>  <SCORE.INTER.VDW>
-22.5419

>  <SCORE.INTER.norm>
-0.528544

>  <SCORE.INTRA>
-5.20829

>  <SCORE.INTRA.DIHEDRAL>
-4.19177

>  <SCORE.INTRA.DIHEDRAL.0>
9.29433

>  <SCORE.INTRA.POLAR>
0

>  <SCORE.INTRA.POLAR.0>
0

>  <SCORE.INTRA.REPUL>
0

>  <SCORE.INTRA.REPUL.0>
0

>  <SCORE.INTRA.SOLV>
-1.22288

>  <SCORE.INTRA.SOLV.lig_0>
-48.5102

>  <SCORE.INTRA.VDW>
-2.50096

>  <SCORE.INTRA.VDW.0>
0.379549

>  <SCORE.INTRA.norm>
-0.1929

>  <SCORE.RESTR>
0

>  <SCORE.RESTR.CAVITY>
0

>  <SCORE.RESTR.norm>
0

>  <SCORE.SYSTEM>
0

>  <SCORE.SYSTEM.CONST>
0

>  <SCORE.SYSTEM.DIHEDRAL>
0

>  <SCORE.SYSTEM.SOLV>
0

>  <SCORE.SYSTEM.norm>
0

>  <SCORE.heavy>
27

>  <SCORE.norm>
-0.721444

>  <RMSD>
7.863

$$$$
ligand
 OpenBabel11021811483D
libRbt.so/2013.1/901 2013/11/27
 27 29  0  0  0  0  0  0  0  0999 V2000
   46.5334   59.2699   31.5595 N   0  0  0  0  0  0  0  0  0  0  0  0
   47.4002   58.1143   31.7858 C   0  0  2  0  0  0  0  0  0  0  0  0
   48.1696   58.3134   33.0596 C   0  0  0  0  0  0  0  0  0  0  0  0
   48.2960   57.3845   33.8505 O   0  0  0  0  0  0  0  0  0  0  0  0
   48.3842   57.9543   30.6276 C   0  0  0  0  0  0  0  0  0  0  0  0
   47.6133   57.5717   29.3773 C   0  0  0  0  0  0  0  0  0  0  0  0
   48.6736   57.0649   27.9860 S   0  0  2  0  0  0  0  0  0  0  0  0
   47.5124   56.4547   26.7285 C   0  0  0  0  0  0  0  0  0  0  0  0
   49.1680   55.2915   28.4274 C   0  0  0  0  0  0  0  0  0  0  0  0
   50.5687   54.7286   27.9402 C   0  0  2  0  0  0  0  0  0  0  0  0
   50.9836   55.0116   26.6230 O   0  0  0  0  0  0  0  0  0  0  0  0
   50.9756   53.3439   28.2504 C   0  0  1  0  0  0  0  0  0  0  0  0
   50.2062   52.7662   29.3058 O   0  0  0  0  0  0  0  0  0  0  0  0
   50.6998   52.7406   26.7925 C   0  0  2  0  0  0  0  0  0  0  0  0
   51.2380   51.4576   26.6773 O   0  0  0  0  0  0  0  0  0  0  0  0
   51.4381   53.7623   25.9299 C   0  0  1  0  0  0  0  0  0  0  0  0
   48.7037   59.3919   33.2848 O   0  0  0  0  0  0  0  0  0  0  0  0
   47.7666   52.7840   22.5103 N   0  0  0  0  0  0  0  0  0  0  0  0
   47.9040   52.3966   23.7812 C   0  0  0  0  0  0  0  0  0  0  0  0
   48.9411   52.7915   24.5137 N   0  0  0  0  0  0  0  0  0  0  0  0
   49.9446   53.5055   23.9795 C   0  0  0  0  0  0  0  0  0  0  0  0
   49.8712   53.8947   22.6170 C   0  0  0  0  0  0  0  0  0  0  0  0
   48.7158   53.5067   21.8835 C   0  0  0  0  0  0  0  0  0  0  0  0
   48.5616   53.8590   20.5580 N   0  0  0  0  0  0  0  0  0  0  0  0
   50.9906   54.5857   22.3387 N   0  0  0  0  0  0  0  0  0  0  0  0
   51.7395   54.6460   23.4073 C   0  0  0  0  0  0  0  0  0  0  0  0
   51.1416   54.0064   24.4569 N   0  0  0  0  0  0  0  0  0  0  0  0
  2  1  1  6  0  0  0
  2  3  1  0  0  0  0
  2  5  1  0  0  0  0
  3  4  1  0  0  0  0
  3 17  1  0  0  0  0
  5  6  1  0  0  0  0
  7  6  1  1  0  0  0
  7  8  1  0  0  0  0
  7  9  1  0  0  0  0
 10  9  1  6  0  0  0
 10 11  1  0  0  0  0
 10 12  1  0  0  0  0
 11 16  1  0  0  0  0
 12 13  1  1  0  0  0
 12 14  1  0  0  0  0
 14 15  1  1  0  0  0
 14 16  1  0  0  0  0
 16 27  1  6  0  0  0
 18 19  2  0  0  0  0
 18 23  1  0  0  0  0
 19 20  1  0  0  0  0
 20 21  2  0  0  0  0
 21 22  1  0  0  0  0
 21 27  1  0  0  0  0
 22 23  2  0  0  0  0
 22 25  1  0  0  0  0
 23 24  1  0  0  0  0
 25 26  2  0  0  0  0
 26 27  1  0  0  0  0
M  END
>  <CHROM.1>
136.63189155,-67.34870833,-169.94415995,172.51669252,-149.86904633,-42.72174586
-95.68404848,49.30410897,55.18708195,27.14712832,1.83545001,-0.87139583,1.27618298

>  <Name>
ligand

>  <RI>
0

>  <Rbt.Current_Directory>
/home/itssahil/PROJECTS/Mol_Feturizer/New_Systems/rnas/3IQR

>  <Rbt.Executable>
rbdock ($Id: //depot/dev/client3/rdock/2013.1/src/exe/rbdock.cxx#4 $)

>  <Rbt.Library>
libRbt.so (2013.1, Build901 2013/11/27)

>  <Rbt.Parameter_File>
/export/apps/rDock/src/rDock_2013.1_src/data/scripts/dock_solv.prm

>  <Rbt.Receptor>
prm/pocket_docking_7.prm

>  <SCORE>
-19.6188

>  <SCORE.INTER>
-15.5906

>  <SCORE.INTER.CONST>
1

>  <SCORE.INTER.POLAR>
0

>  <SCORE.INTER.ROT>
7

>  <SCORE.INTER.SOLV>
11.5411

>  <SCORE.INTER.VDW>
-22.5074

>  <SCORE.INTER.norm>
-0.577429

>  <SCORE.INTRA>
-4.02826

>  <SCORE.INTRA.DIHEDRAL>
-0.871165

>  <SCORE.INTRA.DIHEDRAL.0>
9.29433

>  <SCORE.INTRA.POLAR>
0

>  <SCORE.INTRA.POLAR.0>
0

>  <SCORE.INTRA.REPUL>
0

>  <SCORE.INTRA.REPUL.0>
0

>  <SCORE.INTRA.SOLV>
-1.166

>  <SCORE.INTRA.SOLV.lig_0>
-48.5102

>  <SCORE.INTRA.VDW>
-3.00968

>  <SCORE.INTRA.VDW.0>
0.379549

>  <SCORE.INTRA.norm>
-0.149195

>  <SCORE.RESTR>
0

>  <SCORE.RESTR.CAVITY>
0

>  <SCORE.RESTR.norm>
0

>  <SCORE.SYSTEM>
0

>  <SCORE.SYSTEM.CONST>
0

>  <SCORE.SYSTEM.DIHEDRAL>
0

>  <SCORE.SYSTEM.SOLV>
0

>  <SCORE.SYSTEM.norm>
0

>  <SCORE.heavy>
27

>  <SCORE.norm>
-0.726624

>  <RMSD>
7.882

$$$$
ligand
 OpenBabel11021811483D
libRbt.so/2013.1/901 2013/11/27
 27 29  0  0  0  0  0  0  0  0999 V2000
   48.7623   56.6334   34.1452 N   0  0  0  0  0  0  0  0  0  0  0  0
   49.1533   57.0353   32.7949 C   0  0  2  0  0  0  0  0  0  0  0  0
   48.4873   58.3366   32.4523 C   0  0  0  0  0  0  0  0  0  0  0  0
   47.3398   58.5548   32.8268 O   0  0  0  0  0  0  0  0  0  0  0  0
   48.7273   55.9741   31.7812 C   0  0  0  0  0  0  0  0  0  0  0  0
   49.3727   56.2856   30.4432 C   0  0  0  0  0  0  0  0  0  0  0  0
   48.8865   55.1452   29.1091 S   0  0  2  0  0  0  0  0  0  0  0  0
   47.0696   55.1737   29.1263 C   0  0  0  0  0  0  0  0  0  0  0  0
   48.8939   53.4491   29.9500 C   0  0  0  0  0  0  0  0  0  0  0  0
   48.4098   52.1747   29.1388 C   0  0  2  0  0  0  0  0  0  0  0  0
   48.8865   51.9957   27.8243 O   0  0  0  0  0  0  0  0  0  0  0  0
   46.9941   51.7568   29.1628 C   0  0  1  0  0  0  0  0  0  0  0  0
   46.2654   52.3396   30.2439 O   0  0  0  0  0  0  0  0  0  0  0  0
   46.6158   52.3066   27.7069 C   0  0  2  0  0  0  0  0  0  0  0  0
   45.3643   51.8332   27.3084 O   0  0  0  0  0  0  0  0  0  0  0  0
   47.7548   51.7076   26.8841 C   0  0  1  0  0  0  0  0  0  0  0  0
   49.1076   59.1928   31.8350 O   0  0  0  0  0  0  0  0  0  0  0  0
   51.6047   51.1041   23.5757 N   0  0  0  0  0  0  0  0  0  0  0  0
   51.4067   50.5869   24.7912 C   0  0  0  0  0  0  0  0  0  0  0  0
   50.3053   50.8589   25.4849 N   0  0  0  0  0  0  0  0  0  0  0  0
   49.3991   51.7444   25.0413 C   0  0  0  0  0  0  0  0  0  0  0  0
   49.5927   52.3631   23.7792 C   0  0  0  0  0  0  0  0  0  0  0  0
   50.7515   51.9985   23.0389 C   0  0  0  0  0  0  0  0  0  0  0  0
   51.0041   52.5436   21.7964 N   0  0  0  0  0  0  0  0  0  0  0  0
   48.5572   53.1975   23.5809 N   0  0  0  0  0  0  0  0  0  0  0  0
   47.7557   53.1459   24.6111 C   0  0  0  0  0  0  0  0  0  0  0  0
   48.2166   52.2572   25.5417 N   0  0  0  0  0  0  0  0  0  0  0  0
  2  1  1  1  0  0  0
  2  3  1  0  0  0  0
  2  5  1  0  0  0  0
  3  4  1  0  0  0  0
  3 17  1  0  0  0  0
  5  6  1  0  0  0  0
  7  6  1  1  0  0  0
  7  8  1  0  0  0  0
  7  9  1  0  0  0  0
 10  9  1  6  0  0  0
 10 11  1  0  0  0  0
 10 12  1  0  0  0  0
 11 16  1  0  0  0  0
 12 13  1  1  0  0  0
 12 14  1  0  0  0  0
 14 15  1  6  0  0  0
 14 16  1  0  0  0  0
 16 27  1  6  0  0  0
 18 19  2  0  0  0  0
 18 23  1  0  0  0  0
 19 20  1  0  0  0  0
 20 21  2  0  0  0  0
 21 22  1  0  0  0  0
 21 27  1  0  0  0  0
 22 23  2  0  0  0  0
 22 25  1  0  0  0  0
 23 24  1  0  0  0  0
 25 26  2  0  0  0  0
 26 27  1  0  0  0  0
M  END
>  <CHROM.1>
-37.55663601,-169.29469820,-177.10861349,53.15168749,175.34855716,45.93009198
57.87452345,48.64830683,53.82072635,28.09189813,-1.75987355,-0.74586737,-2.29181371

>  <Name>
ligand

>  <RI>
0

>  <Rbt.Current_Directory>
/home/itssahil/PROJECTS/Mol_Feturizer/New_Systems/rnas/3IQR

>  <Rbt.Executable>
rbdock ($Id: //depot/dev/client3/rdock/2013.1/src/exe/rbdock.cxx#4 $)

>  <Rbt.Library>
libRbt.so (2013.1, Build901 2013/11/27)

>  <Rbt.Parameter_File>
/export/apps/rDock/src/rDock_2013.1_src/data/scripts/dock_solv.prm

>  <Rbt.Receptor>
prm/pocket_docking_7.prm

>  <SCORE>
-14.5111

>  <SCORE.INTER>
-9.64663

>  <SCORE.INTER.CONST>
1

>  <SCORE.INTER.POLAR>
0

>  <SCORE.INTER.ROT>
7

>  <SCORE.INTER.SOLV>
13.7118

>  <SCORE.INTER.VDW>
-19.2684

>  <SCORE.INTER.norm>
-0.357283

>  <SCORE.INTRA>
-4.86442

>  <SCORE.INTRA.DIHEDRAL>
-4.21023

>  <SCORE.INTRA.DIHEDRAL.0>
9.29433

>  <SCORE.INTRA.POLAR>
0

>  <SCORE.INTRA.POLAR.0>
0

>  <SCORE.INTRA.REPUL>
0

>  <SCORE.INTRA.REPUL.0>
0

>  <SCORE.INTRA.SOLV>
-1.34112

>  <SCORE.INTRA.SOLV.lig_0>
-48.5102

>  <SCORE.INTRA.VDW>
-2.08874

>  <SCORE.INTRA.VDW.0>
0.379549

>  <SCORE.INTRA.norm>
-0.180164

>  <SCORE.RESTR>
0

>  <SCORE.RESTR.CAVITY>
0

>  <SCORE.RESTR.norm>
0

>  <SCORE.SYSTEM>
0

>  <SCORE.SYSTEM.CONST>
0

>  <SCORE.SYSTEM.DIHEDRAL>
0

>  <SCORE.SYSTEM.SOLV>
0

>  <SCORE.SYSTEM.norm>
0

>  <SCORE.heavy>
27

>  <SCORE.norm>
-0.537446

>  <RMSD>
7.894

$$$$
ligand
 OpenBabel11021811483D
libRbt.so/2013.1/901 2013/11/27
 27 29  0  0  0  0  0  0  0  0999 V2000
   46.3082   59.5771   31.7341 N   0  0  0  0  0  0  0  0  0  0  0  0
   47.1826   58.4356   31.4689 C   0  0  2  0  0  0  0  0  0  0  0  0
   48.4047   58.5352   32.3354 C   0  0  0  0  0  0  0  0  0  0  0  0
   49.2073   59.4460   32.1605 O   0  0  0  0  0  0  0  0  0  0  0  0
   47.6101   58.4244   30.0018 C   0  0  0  0  0  0  0  0  0  0  0  0
   48.3158   57.1136   29.7058 C   0  0  0  0  0  0  0  0  0  0  0  0
   48.7678   56.9010   27.9544 S   0  0  2  0  0  0  0  0  0  0  0  0
   47.1912   56.5650   27.1157 C   0  0  0  0  0  0  0  0  0  0  0  0
   49.2489   55.0737   27.8384 C   0  0  0  0  0  0  0  0  0  0  0  0
   50.7135   54.6813   27.3721 C   0  0  2  0  0  0  0  0  0  0  0  0
   51.0687   54.8971   26.0251 O   0  0  0  0  0  0  0  0  0  0  0  0
   51.3263   53.4079   27.7987 C   0  0  1  0  0  0  0  0  0  0  0  0
   50.6623   52.8248   28.9206 O   0  0  0  0  0  0  0  0  0  0  0  0
   51.1302   52.6354   26.4095 C   0  0  2  0  0  0  0  0  0  0  0  0
   51.8535   51.4414   26.4002 O   0  0  0  0  0  0  0  0  0  0  0  0
   51.6987   53.6692   25.4394 C   0  0  1  0  0  0  0  0  0  0  0  0
   48.5745   57.7295   33.2416 O   0  0  0  0  0  0  0  0  0  0  0  0
   47.8846   55.2231   22.4114 N   0  0  0  0  0  0  0  0  0  0  0  0
   47.9753   55.1625   23.7426 C   0  0  0  0  0  0  0  0  0  0  0  0
   49.0872   54.7428   24.3391 N   0  0  0  0  0  0  0  0  0  0  0  0
   50.1232   54.2636   23.6325 C   0  0  0  0  0  0  0  0  0  0  0  0
   50.0526   54.2556   22.2153 C   0  0  0  0  0  0  0  0  0  0  0  0
   48.8717   54.7715   21.6128 C   0  0  0  0  0  0  0  0  0  0  0  0
   48.7317   54.8129   20.2403 N   0  0  0  0  0  0  0  0  0  0  0  0
   51.2029   53.7276   21.7617 N   0  0  0  0  0  0  0  0  0  0  0  0
   51.9628   53.4089   22.7752 C   0  0  0  0  0  0  0  0  0  0  0  0
   51.3550   53.7264   23.9576 N   0  0  0  0  0  0  0  0  0  0  0  0
  2  1  1  6  0  0  0
  2  3  1  0  0  0  0
  2  5  1  0  0  0  0
  3  4  1  0  0  0  0
  3 17  1  0  0  0  0
  5  6  1  0  0  0  0
  7  6  1  1  0  0  0
  7  8  1  0  0  0  0
  7  9  1  0  0  0  0
 10  9  1  6  0  0  0
 10 11  1  0  0  0  0
 10 12  1  0  0  0  0
 11 16  1  0  0  0  0
 12 13  1  1  0  0  0
 12 14  1  0  0  0  0
 14 15  1  1  0  0  0
 14 16  1  0  0  0  0
 16 27  1  6  0  0  0
 18 19  2  0  0  0  0
 18 23  1  0  0  0  0
 19 20  1  0  0  0  0
 20 21  2  0  0  0  0
 21 22  1  0  0  0  0
 21 27  1  0  0  0  0
 22 23  2  0  0  0  0
 22 25  1  0  0  0  0
 23 24  1  0  0  0  0
 25 26  2  0  0  0  0
 26 27  1  0  0  0  0
M  END
>  <CHROM.1>
-66.38612520,-170.53485024,175.40808624,-73.29338462,-120.16248781,-70.24908720
-34.47749663,49.46652358,55.47768113,26.80335413,1.91106278,-0.82724944,1.34839631

>  <Name>
ligand

>  <RI>
0

>  <Rbt.Current_Directory>
/home/itssahil/PROJECTS/Mol_Feturizer/New_Systems/rnas/3IQR

>  <Rbt.Executable>
rbdock ($Id: //depot/dev/client3/rdock/2013.1/src/exe/rbdock.cxx#4 $)

>  <Rbt.Library>
libRbt.so (2013.1, Build901 2013/11/27)

>  <Rbt.Parameter_File>
/export/apps/rDock/src/rDock_2013.1_src/data/scripts/dock_solv.prm

>  <Rbt.Receptor>
prm/pocket_docking_8.prm

>  <SCORE>
-18.2157

>  <SCORE.INTER>
-14.5251

>  <SCORE.INTER.CONST>
1

>  <SCORE.INTER.POLAR>
0

>  <SCORE.INTER.ROT>
7

>  <SCORE.INTER.SOLV>
16.3392

>  <SCORE.INTER.VDW>
-23.3964

>  <SCORE.INTER.norm>
-0.537966

>  <SCORE.INTRA>
-3.6906

>  <SCORE.INTRA.DIHEDRAL>
-0.357313

>  <SCORE.INTRA.DIHEDRAL.0>
9.29433

>  <SCORE.INTRA.POLAR>
0

>  <SCORE.INTRA.POLAR.0>
0

>  <SCORE.INTRA.REPUL>
0

>  <SCORE.INTRA.REPUL.0>
0

>  <SCORE.INTRA.SOLV>
-1.90995

>  <SCORE.INTRA.SOLV.lig_0>
-48.5102

>  <SCORE.INTRA.VDW>
-2.55697

>  <SCORE.INTRA.VDW.0>
0.379549

>  <SCORE.INTRA.norm>
-0.136689

>  <SCORE.RESTR>
0

>  <SCORE.RESTR.CAVITY>
0

>  <SCORE.RESTR.norm>
0

>  <SCORE.SYSTEM>
0

>  <SCORE.SYSTEM.CONST>
0

>  <SCORE.SYSTEM.DIHEDRAL>
0

>  <SCORE.SYSTEM.SOLV>
0

>  <SCORE.SYSTEM.norm>
0

>  <SCORE.heavy>
27

>  <SCORE.norm>
-0.674655

>  <RMSD>
7.927

$$$$
ligand
 OpenBabel11021811483D
libRbt.so/2013.1/901 2013/11/27
 27 29  0  0  0  0  0  0  0  0999 V2000
   46.3109   52.5255   35.2380 N   0  0  0  0  0  0  0  0  0  0  0  0
   47.5751   53.2458   35.3825 C   0  0  2  0  0  0  0  0  0  0  0  0
   47.7337   53.6880   36.8085 C   0  0  0  0  0  0  0  0  0  0  0  0
   48.7656   54.2467   37.1655 O   0  0  0  0  0  0  0  0  0  0  0  0
   47.5927   54.4741   34.4736 C   0  0  0  0  0  0  0  0  0  0  0  0
   49.0140   54.9996   34.3853 C   0  0  0  0  0  0  0  0  0  0  0  0
   49.2860   56.1557   33.0046 S   0  0  2  0  0  0  0  0  0  0  0  0
   47.9820   57.4068   33.1958 C   0  0  0  0  0  0  0  0  0  0  0  0
   48.3470   55.3591   31.5667 C   0  0  0  0  0  0  0  0  0  0  0  0
   48.7368   53.8950   31.0970 C   0  0  2  0  0  0  0  0  0  0  0  0
   49.8488   53.7379   30.2449 O   0  0  0  0  0  0  0  0  0  0  0  0
   47.6990   52.9404   30.6599 C   0  0  1  0  0  0  0  0  0  0  0  0
   46.3875   53.3230   31.0758 O   0  0  0  0  0  0  0  0  0  0  0  0
   47.9833   53.0669   29.0888 C   0  0  2  0  0  0  0  0  0  0  0  0
   47.3112   52.0682   28.3818 O   0  0  0  0  0  0  0  0  0  0  0  0
   49.4987   52.8761   29.0692 C   0  0  1  0  0  0  0  0  0  0  0  0
   46.8146   53.5261   37.6009 O   0  0  0  0  0  0  0  0  0  0  0  0
   51.8131   51.0472   24.8943 N   0  0  0  0  0  0  0  0  0  0  0  0
   51.1096   50.4285   25.8463 C   0  0  0  0  0  0  0  0  0  0  0  0
   50.5627   51.1075   26.8503 N   0  0  0  0  0  0  0  0  0  0  0  0
   50.7819   52.4225   27.0080 C   0  0  0  0  0  0  0  0  0  0  0  0
   51.5696   53.1147   26.0521 C   0  0  0  0  0  0  0  0  0  0  0  0
   52.0848   52.3656   24.9581 C   0  0  0  0  0  0  0  0  0  0  0  0
   52.8470   52.9681   23.9778 N   0  0  0  0  0  0  0  0  0  0  0  0
   51.6354   54.3991   26.4443 N   0  0  0  0  0  0  0  0  0  0  0  0
   50.9640   54.5480   27.5550 C   0  0  0  0  0  0  0  0  0  0  0  0
   50.4043   53.3643   27.9472 N   0  0  0  0  0  0  0  0  0  0  0  0
  2  1  1  1  0  0  0
  2  3  1  0  0  0  0
  2  5  1  0  0  0  0
  3  4  1  0  0  0  0
  3 17  1  0  0  0  0
  5  6  1  0  0  0  0
  7  6  1  1  0  0  0
  7  8  1  0  0  0  0
  7  9  1  0  0  0  0
 10  9  1  6  0  0  0
 10 11  1  0  0  0  0
 10 12  1  0  0  0  0
 11 16  1  0  0  0  0
 12 13  1  6  0  0  0
 12 14  1  0  0  0  0
 14 15  1  6  0  0  0
 14 16  1  0  0  0  0
 16 27  1  6  0  0  0
 18 19  2  0  0  0  0
 18 23  1  0  0  0  0
 19 20  1  0  0  0  0
 20 21  2  0  0  0  0
 21 22  1  0  0  0  0
 21 27  1  0  0  0  0
 22 23  2  0  0  0  0
 22 25  1  0  0  0  0
 23 24  1  0  0  0  0
 25 26  2  0  0  0  0
 26 27  1  0  0  0  0
M  END
>  <CHROM.1>
175.87549567,-166.28082310,164.02506685,52.38322157,-58.68292635,-81.06565237
149.61886100,49.21178215,53.61362381,30.62635310,2.19464356,0.94092798,0.83918536

>  <Name>
ligand

>  <RI>
0

>  <Rbt.Current_Directory>
/home/itssahil/PROJECTS/Mol_Feturizer/New_Systems/rnas/3IQR

>  <Rbt.Executable>
rbdock ($Id: //depot/dev/client3/rdock/2013.1/src/exe/rbdock.cxx#4 $)

>  <Rbt.Library>
libRbt.so (2013.1, Build901 2013/11/27)

>  <Rbt.Parameter_File>
/export/apps/rDock/src/rDock_2013.1_src/data/scripts/dock_solv.prm

>  <Rbt.Receptor>
prm/pocket_docking_7.prm

>  <SCORE>
-20.391

>  <SCORE.INTER>
-16.5462

>  <SCORE.INTER.CONST>
1

>  <SCORE.INTER.POLAR>
0

>  <SCORE.INTER.ROT>
7

>  <SCORE.INTER.SOLV>
10.2552

>  <SCORE.INTER.VDW>
-22.7158

>  <SCORE.INTER.norm>
-0.612821

>  <SCORE.INTRA>
-3.85298

>  <SCORE.INTRA.DIHEDRAL>
-2.45615

>  <SCORE.INTRA.DIHEDRAL.0>
9.29433

>  <SCORE.INTRA.POLAR>
0

>  <SCORE.INTRA.POLAR.0>
0

>  <SCORE.INTRA.REPUL>
0

>  <SCORE.INTRA.REPUL.0>
0

>  <SCORE.INTRA.SOLV>
-1.70445

>  <SCORE.INTRA.SOLV.lig_0>
-48.5102

>  <SCORE.INTRA.VDW>
-1.77268

>  <SCORE.INTRA.VDW.0>
0.379549

>  <SCORE.INTRA.norm>
-0.142703

>  <SCORE.RESTR>
0.00808641

>  <SCORE.RESTR.CAVITY>
0.00808641

>  <SCORE.RESTR.norm>
0.000299497

>  <SCORE.SYSTEM>
0

>  <SCORE.SYSTEM.CONST>
0

>  <SCORE.SYSTEM.DIHEDRAL>
0

>  <SCORE.SYSTEM.SOLV>
0

>  <SCORE.SYSTEM.norm>
0

>  <SCORE.heavy>
27

>  <SCORE.norm>
-0.755224

>  <RMSD>
8.023

$$$$
ligand
 OpenBabel11021811483D
libRbt.so/2013.1/901 2013/11/27
 27 29  0  0  0  0  0  0  0  0999 V2000
   49.1160   55.5160   34.0995 N   0  0  0  0  0  0  0  0  0  0  0  0
   47.9649   54.7391   33.6418 C   0  0  2  0  0  0  0  0  0  0  0  0
   47.2796   54.1228   34.8270 C   0  0  0  0  0  0  0  0  0  0  0  0
   47.9370   53.7744   35.8021 O   0  0  0  0  0  0  0  0  0  0  0  0
   48.4171   53.6295   32.6934 C   0  0  0  0  0  0  0  0  0  0  0  0
   49.1012   54.2577   31.4929 C   0  0  0  0  0  0  0  0  0  0  0  0
   49.5408   53.0644   30.1892 S   0  0  2  0  0  0  0  0  0  0  0  0
   50.3143   54.0738   28.8911 C   0  0  0  0  0  0  0  0  0  0  0  0
   47.9541   52.9189   29.1669 C   0  0  0  0  0  0  0  0  0  0  0  0
   47.8181   51.7526   28.1004 C   0  0  2  0  0  0  0  0  0  0  0  0
   48.9918   51.2514   27.5016 O   0  0  0  0  0  0  0  0  0  0  0  0
   46.7691   51.7963   27.0627 C   0  0  1  0  0  0  0  0  0  0  0  0
   45.7260   52.7216   27.3716 O   0  0  0  0  0  0  0  0  0  0  0  0
   47.7266   52.2230   25.8517 C   0  0  2  0  0  0  0  0  0  0  0  0
   47.0624   52.1043   24.6295 O   0  0  0  0  0  0  0  0  0  0  0  0
   48.8436   51.1935   26.0108 C   0  0  1  0  0  0  0  0  0  0  0  0
   46.0606   54.0081   34.8323 O   0  0  0  0  0  0  0  0  0  0  0  0
   51.6128   54.7136   23.5468 N   0  0  0  0  0  0  0  0  0  0  0  0
   50.3155   54.6855   23.8632 C   0  0  0  0  0  0  0  0  0  0  0  0
   49.7933   53.6674   24.5408 N   0  0  0  0  0  0  0  0  0  0  0  0
   50.5206   52.5799   24.8419 C   0  0  0  0  0  0  0  0  0  0  0  0
   51.8913   52.5386   24.4776 C   0  0  0  0  0  0  0  0  0  0  0  0
   52.4287   53.6737   23.8097 C   0  0  0  0  0  0  0  0  0  0  0  0
   53.7566   53.7180   23.4357 N   0  0  0  0  0  0  0  0  0  0  0  0
   52.3770   51.3533   24.8863 N   0  0  0  0  0  0  0  0  0  0  0  0
   51.4238   50.6690   25.4603 C   0  0  0  0  0  0  0  0  0  0  0  0
   50.2558   51.3788   25.4734 N   0  0  0  0  0  0  0  0  0  0  0  0
  2  1  1  1  0  0  0
  2  3  1  0  0  0  0
  2  5  1  0  0  0  0
  3  4  1  0  0  0  0
  3 17  1  0  0  0  0
  5  6  1  0  0  0  0
  7  6  1  1  0  0  0
  7  8  1  0  0  0  0
  7  9  1  0  0  0  0
 10  9  1  6  0  0  0
 10 11  1  0  0  0  0
 10 12  1  0  0  0  0
 11 16  1  0  0  0  0
 12 13  1  1  0  0  0
 12 14  1  0  0  0  0
 14 15  1  6  0  0  0
 14 16  1  0  0  0  0
 16 27  1  6  0  0  0
 18 19  2  0  0  0  0
 18 23  1  0  0  0  0
 19 20  1  0  0  0  0
 20 21  2  0  0  0  0
 21 22  1  0  0  0  0
 21 27  1  0  0  0  0
 22 23  2  0  0  0  0
 22 25  1  0  0  0  0
 23 24  1  0  0  0  0
 25 26  2  0  0  0  0
 26 27  1  0  0  0  0
M  END
>  <CHROM.1>
-33.10993859,-60.30825853,-173.94079510,179.42884126,-167.66516295,-28.25147312
-109.45047848,49.23276351,53.04740800,28.22689508,-1.90915707,-0.35503990
-1.83204069

>  <Name>
ligand

>  <RI>
0

>  <Rbt.Current_Directory>
/home/itssahil/PROJECTS/Mol_Feturizer/New_Systems/rnas/3IQR

>  <Rbt.Executable>
rbdock ($Id: //depot/dev/client3/rdock/2013.1/src/exe/rbdock.cxx#4 $)

>  <Rbt.Library>
libRbt.so (2013.1, Build901 2013/11/27)

>  <Rbt.Parameter_File>
/export/apps/rDock/src/rDock_2013.1_src/data/scripts/dock_solv.prm

>  <Rbt.Receptor>
prm/pocket_docking_8.prm

>  <SCORE>
-17.12

>  <SCORE.INTER>
-13.0068

>  <SCORE.INTER.CONST>
1

>  <SCORE.INTER.POLAR>
0

>  <SCORE.INTER.ROT>
7

>  <SCORE.INTER.SOLV>
10.3313

>  <SCORE.INTER.VDW>
-20.3816

>  <SCORE.INTER.norm>
-0.481734

>  <SCORE.INTRA>
-4.11317

>  <SCORE.INTRA.DIHEDRAL>
-1.38864

>  <SCORE.INTRA.DIHEDRAL.0>
9.29433

>  <SCORE.INTRA.POLAR>
0

>  <SCORE.INTRA.POLAR.0>
0

>  <SCORE.INTRA.REPUL>
0

>  <SCORE.INTRA.REPUL.0>
0

>  <SCORE.INTRA.SOLV>
-0.997734

>  <SCORE.INTRA.SOLV.lig_0>
-48.5102

>  <SCORE.INTRA.VDW>
-2.91999

>  <SCORE.INTRA.VDW.0>
0.379549

>  <SCORE.INTRA.norm>
-0.15234

>  <SCORE.RESTR>
0

>  <SCORE.RESTR.CAVITY>
0

>  <SCORE.RESTR.norm>
0

>  <SCORE.SYSTEM>
0

>  <SCORE.SYSTEM.CONST>
0

>  <SCORE.SYSTEM.DIHEDRAL>
0

>  <SCORE.SYSTEM.SOLV>
0

>  <SCORE.SYSTEM.norm>
0

>  <SCORE.heavy>
27

>  <SCORE.norm>
-0.634074

>  <RMSD>
8.365

$$$$
ligand
 OpenBabel11021811483D
libRbt.so/2013.1/901 2013/11/27
 27 29  0  0  0  0  0  0  0  0999 V2000
   46.2895   54.7417   32.7050 N   0  0  0  0  0  0  0  0  0  0  0  0
   47.2754   53.7047   33.0060 C   0  0  2  0  0  0  0  0  0  0  0  0
   46.9404   53.0696   34.3245 C   0  0  0  0  0  0  0  0  0  0  0  0
   47.2728   51.9104   34.5483 O   0  0  0  0  0  0  0  0  0  0  0  0
   48.6758   54.3111   33.0851 C   0  0  0  0  0  0  0  0  0  0  0  0
   49.1320   54.6783   31.6847 C   0  0  0  0  0  0  0  0  0  0  0  0
   49.1945   53.2653   30.5375 S   0  0  2  0  0  0  0  0  0  0  0  0
   50.0030   53.9237   29.0491 C   0  0  0  0  0  0  0  0  0  0  0  0
   47.5092   53.3172   29.6767 C   0  0  0  0  0  0  0  0  0  0  0  0
   47.0438   52.0805   28.7991 C   0  0  2  0  0  0  0  0  0  0  0  0
   47.8232   51.7205   27.6809 O   0  0  0  0  0  0  0  0  0  0  0  0
   45.6248   51.9069   28.4308 C   0  0  1  0  0  0  0  0  0  0  0  0
   44.7452   52.6870   29.2415 O   0  0  0  0  0  0  0  0  0  0  0  0
   45.7685   52.3941   26.9118 C   0  0  2  0  0  0  0  0  0  0  0  0
   44.6108   52.1050   26.1872 O   0  0  0  0  0  0  0  0  0  0  0  0
   46.9614   51.5505   26.4660 C   0  0  1  0  0  0  0  0  0  0  0  0
   46.3721   53.7256   35.1881 O   0  0  0  0  0  0  0  0  0  0  0  0
   51.8306   50.9641   25.0249 N   0  0  0  0  0  0  0  0  0  0  0  0
   51.2143   50.6576   26.1695 C   0  0  0  0  0  0  0  0  0  0  0  0
   49.9122   50.8745   26.3306 N   0  0  0  0  0  0  0  0  0  0  0  0
   49.1862   51.5055   25.3943 C   0  0  0  0  0  0  0  0  0  0  0  0
   49.8091   51.9011   24.1823 C   0  0  0  0  0  0  0  0  0  0  0  0
   51.1890   51.5948   24.0217 C   0  0  0  0  0  0  0  0  0  0  0  0
   51.8640   51.9321   22.8660 N   0  0  0  0  0  0  0  0  0  0  0  0
   48.8727   52.5076   23.4320 N   0  0  0  0  0  0  0  0  0  0  0  0
   47.7392   52.5214   24.0812 C   0  0  0  0  0  0  0  0  0  0  0  0
   47.8668   51.9070   25.2954 N   0  0  0  0  0  0  0  0  0  0  0  0
  2  1  1  1  0  0  0
  2  3  1  0  0  0  0
  2  5  1  0  0  0  0
  3  4  1  0  0  0  0
  3 17  1  0  0  0  0
  5  6  1  0  0  0  0
  7  6  1  1  0  0  0
  7  8  1  0  0  0  0
  7  9  1  0  0  0  0
 10  9  1  6  0  0  0
 10 11  1  0  0  0  0
 10 12  1  0  0  0  0
 11 16  1  0  0  0  0
 12 13  1  1  0  0  0
 12 14  1  0  0  0  0
 14 15  1  6  0  0  0
 14 16  1  0  0  0  0
 16 27  1  6  0  0  0
 18 19  2  0  0  0  0
 18 23  1  0  0  0  0
 19 20  1  0  0  0  0
 20 21  2  0  0  0  0
 21 22  1  0  0  0  0
 21 27  1  0  0  0  0
 22 23  2  0  0  0  0
 22 25  1  0  0  0  0
 23 24  1  0  0  0  0
 25 26  2  0  0  0  0
 26 27  1  0  0  0  0
M  END
>  <CHROM.1>
152.54721830,-72.19780266,-59.47097961,-171.47213350,-167.97731511,-60.92443823
37.54137646,48.16056479,52.55744293,28.52585321,1.84262118,0.01720508,1.35810952

>  <Name>
ligand

>  <RI>
0

>  <Rbt.Current_Directory>
/home/itssahil/PROJECTS/Mol_Feturizer/New_Systems/rnas/3IQR

>  <Rbt.Executable>
rbdock ($Id: //depot/dev/client3/rdock/2013.1/src/exe/rbdock.cxx#4 $)

>  <Rbt.Library>
libRbt.so (2013.1, Build901 2013/11/27)

>  <Rbt.Parameter_File>
/export/apps/rDock/src/rDock_2013.1_src/data/scripts/dock_solv.prm

>  <Rbt.Receptor>
prm/pocket_docking_8.prm

>  <SCORE>
-16.8455

>  <SCORE.INTER>
-12.6269

>  <SCORE.INTER.CONST>
1

>  <SCORE.INTER.POLAR>
0

>  <SCORE.INTER.ROT>
7

>  <SCORE.INTER.SOLV>
8.55047

>  <SCORE.INTER.VDW>
-19.5348

>  <SCORE.INTER.norm>
-0.467664

>  <SCORE.INTRA>
-4.21856

>  <SCORE.INTRA.DIHEDRAL>
-2.78492

>  <SCORE.INTRA.DIHEDRAL.0>
9.29433

>  <SCORE.INTRA.POLAR>
0

>  <SCORE.INTRA.POLAR.0>
0

>  <SCORE.INTRA.REPUL>
0

>  <SCORE.INTRA.REPUL.0>
0

>  <SCORE.INTRA.SOLV>
0.182843

>  <SCORE.INTRA.SOLV.lig_0>
-48.5102

>  <SCORE.INTRA.VDW>
-2.91752

>  <SCORE.INTRA.VDW.0>
0.379549

>  <SCORE.INTRA.norm>
-0.156243

>  <SCORE.RESTR>
0

>  <SCORE.RESTR.CAVITY>
0

>  <SCORE.RESTR.norm>
0

>  <SCORE.SYSTEM>
0

>  <SCORE.SYSTEM.CONST>
0

>  <SCORE.SYSTEM.DIHEDRAL>
0

>  <SCORE.SYSTEM.SOLV>
0

>  <SCORE.SYSTEM.norm>
0

>  <SCORE.heavy>
27

>  <SCORE.norm>
-0.623907

>  <RMSD>
8.367

$$$$
ligand
 OpenBabel11021811483D
libRbt.so/2013.1/901 2013/11/27
 27 29  0  0  0  0  0  0  0  0999 V2000
   46.1869   53.3759   36.1957 N   0  0  0  0  0  0  0  0  0  0  0  0
   47.5618   53.2767   36.6834 C   0  0  2  0  0  0  0  0  0  0  0  0
   47.5788   53.5009   38.1679 C   0  0  0  0  0  0  0  0  0  0  0  0
   48.6426   53.6989   38.7454 O   0  0  0  0  0  0  0  0  0  0  0  0
   48.4411   54.3290   36.0091 C   0  0  0  0  0  0  0  0  0  0  0  0
   48.3248   54.1749   34.5036 C   0  0  0  0  0  0  0  0  0  0  0  0
   49.4219   55.2841   33.5640 S   0  0  2  0  0  0  0  0  0  0  0  0
   48.5709   56.8896   33.5848 C   0  0  0  0  0  0  0  0  0  0  0  0
   48.9030   55.0029   31.7652 C   0  0  0  0  0  0  0  0  0  0  0  0
   48.7245   53.5211   31.2279 C   0  0  2  0  0  0  0  0  0  0  0  0
   49.7495   52.9678   30.4339 O   0  0  0  0  0  0  0  0  0  0  0  0
   47.4337   53.0694   30.6721 C   0  0  1  0  0  0  0  0  0  0  0  0
   46.3481   53.9238   31.0341 O   0  0  0  0  0  0  0  0  0  0  0  0
   47.8668   53.1281   29.1312 C   0  0  2  0  0  0  0  0  0  0  0  0
   46.9152   52.5010   28.3249 O   0  0  0  0  0  0  0  0  0  0  0  0
   49.1833   52.3556   29.1879 C   0  0  1  0  0  0  0  0  0  0  0  0
   46.5251   53.5264   38.7908 O   0  0  0  0  0  0  0  0  0  0  0  0
   50.3170   50.6628   24.4996 N   0  0  0  0  0  0  0  0  0  0  0  0
   49.3078   50.3574   25.3195 C   0  0  0  0  0  0  0  0  0  0  0  0
   49.1837   50.9424   26.5072 N   0  0  0  0  0  0  0  0  0  0  0  0
   50.1205   51.7820   26.9758 C   0  0  0  0  0  0  0  0  0  0  0  0
   51.2410   52.0952   26.1636 C   0  0  0  0  0  0  0  0  0  0  0  0
   51.3059   51.4983   24.8740 C   0  0  0  0  0  0  0  0  0  0  0  0
   52.3553   51.7639   24.0178 N   0  0  0  0  0  0  0  0  0  0  0  0
   52.0169   52.9414   26.8635 N   0  0  0  0  0  0  0  0  0  0  0  0
   51.4719   53.1654   28.0294 C   0  0  0  0  0  0  0  0  0  0  0  0
   50.2925   52.4857   28.1535 N   0  0  0  0  0  0  0  0  0  0  0  0
  2  1  1  6  0  0  0
  2  3  1  0  0  0  0
  2  5  1  0  0  0  0
  3  4  1  0  0  0  0
  3 17  1  0  0  0  0
  5  6  1  0  0  0  0
  7  6  1  1  0  0  0
  7  8  1  0  0  0  0
  7  9  1  0  0  0  0
 10  9  1  6  0  0  0
 10 11  1  0  0  0  0
 10 12  1  0  0  0  0
 11 16  1  0  0  0  0
 12 13  1  6  0  0  0
 12 14  1  0  0  0  0
 14 15  1  6  0  0  0
 14 16  1  0  0  0  0
 16 27  1  6  0  0  0
 18 19  2  0  0  0  0
 18 23  1  0  0  0  0
 19 20  1  0  0  0  0
 20 21  2  0  0  0  0
 21 22  1  0  0  0  0
 21 27  1  0  0  0  0
 22 23  2  0  0  0  0
 22 25  1  0  0  0  0
 23 24  1  0  0  0  0
 25 26  2  0  0  0  0
 26 27  1  0  0  0  0
M  END
>  <CHROM.1>
-166.96968834,-55.04449480,-175.54019879,-79.19142499,-47.01172814,-102.09314957
168.71430067,48.99382019,53.19589511,30.99644479,1.85215816,0.48959804,1.21378455

>  <Name>
ligand

>  <RI>
0

>  <Rbt.Current_Directory>
/home/itssahil/PROJECTS/Mol_Feturizer/New_Systems/rnas/3IQR

>  <Rbt.Executable>
rbdock ($Id: //depot/dev/client3/rdock/2013.1/src/exe/rbdock.cxx#4 $)

>  <Rbt.Library>
libRbt.so (2013.1, Build901 2013/11/27)

>  <Rbt.Parameter_File>
/export/apps/rDock/src/rDock_2013.1_src/data/scripts/dock_solv.prm

>  <Rbt.Receptor>
prm/pocket_docking_7.prm

>  <SCORE>
-23.5945

>  <SCORE.INTER>
-20.7028

>  <SCORE.INTER.CONST>
1

>  <SCORE.INTER.POLAR>
0

>  <SCORE.INTER.ROT>
7

>  <SCORE.INTER.SOLV>
10.8862

>  <SCORE.INTER.VDW>
-25.6973

>  <SCORE.INTER.norm>
-0.766771

>  <SCORE.INTRA>
-2.8917

>  <SCORE.INTRA.DIHEDRAL>
-0.750076

>  <SCORE.INTRA.DIHEDRAL.0>
9.29433

>  <SCORE.INTRA.POLAR>
0

>  <SCORE.INTRA.POLAR.0>
0

>  <SCORE.INTRA.REPUL>
0

>  <SCORE.INTRA.REPUL.0>
0

>  <SCORE.INTRA.SOLV>
-0.963459

>  <SCORE.INTRA.SOLV.lig_0>
-48.5102

>  <SCORE.INTRA.VDW>
-2.03493

>  <SCORE.INTRA.VDW.0>
0.379549

>  <SCORE.INTRA.norm>
-0.1071

>  <SCORE.RESTR>
0

>  <SCORE.RESTR.CAVITY>
0

>  <SCORE.RESTR.norm>
0

>  <SCORE.SYSTEM>
0

>  <SCORE.SYSTEM.CONST>
0

>  <SCORE.SYSTEM.DIHEDRAL>
0

>  <SCORE.SYSTEM.SOLV>
0

>  <SCORE.SYSTEM.norm>
0

>  <SCORE.heavy>
27

>  <SCORE.norm>
-0.873871

>  <RMSD>
8.460

$$$$
ligand
 OpenBabel11021811483D
libRbt.so/2013.1/901 2013/11/27
 27 29  0  0  0  0  0  0  0  0999 V2000
   48.0623   54.7127   32.4857 N   0  0  0  0  0  0  0  0  0  0  0  0
   46.8398   53.9766   32.8046 C   0  0  2  0  0  0  0  0  0  0  0  0
   47.0908   53.0873   33.9879 C   0  0  0  0  0  0  0  0  0  0  0  0
   48.2024   53.0550   34.5052 O   0  0  0  0  0  0  0  0  0  0  0  0
   46.4127   53.1171   31.6155 C   0  0  0  0  0  0  0  0  0  0  0  0
   46.0605   54.0271   30.4528 C   0  0  0  0  0  0  0  0  0  0  0  0
   47.5068   54.6166   29.5161 S   0  0  2  0  0  0  0  0  0  0  0  0
   46.7985   55.5007   28.0952 C   0  0  0  0  0  0  0  0  0  0  0  0
   47.9509   53.1445   28.4118 C   0  0  0  0  0  0  0  0  0  0  0  0
   49.2541   53.2117   27.5100 C   0  0  2  0  0  0  0  0  0  0  0  0
   49.2749   54.1151   26.4280 O   0  0  0  0  0  0  0  0  0  0  0  0
   49.9371   51.9770   27.0760 C   0  0  1  0  0  0  0  0  0  0  0  0
   49.5578   50.8367   27.8476 O   0  0  0  0  0  0  0  0  0  0  0  0
   49.4011   51.9916   25.5668 C   0  0  2  0  0  0  0  0  0  0  0  0
   50.0866   51.0570   24.7886 O   0  0  0  0  0  0  0  0  0  0  0  0
   49.7298   53.4306   25.1741 C   0  0  1  0  0  0  0  0  0  0  0  0
   46.1725   52.4280   34.4583 O   0  0  0  0  0  0  0  0  0  0  0  0
   49.5252   53.4196   20.0663 N   0  0  0  0  0  0  0  0  0  0  0  0
   50.2876   52.7221   20.9127 C   0  0  0  0  0  0  0  0  0  0  0  0
   50.1609   52.8612   22.2291 N   0  0  0  0  0  0  0  0  0  0  0  0
   49.3403   53.7813   22.7603 C   0  0  0  0  0  0  0  0  0  0  0  0
   48.5495   54.5860   21.8999 C   0  0  0  0  0  0  0  0  0  0  0  0
   48.6668   54.3636   20.4997 C   0  0  0  0  0  0  0  0  0  0  0  0
   47.9206   55.0941   19.5972 N   0  0  0  0  0  0  0  0  0  0  0  0
   47.8322   55.4159   22.6775 N   0  0  0  0  0  0  0  0  0  0  0  0
   48.1205   55.1919   23.9317 C   0  0  0  0  0  0  0  0  0  0  0  0
   49.0380   54.1854   24.0476 N   0  0  0  0  0  0  0  0  0  0  0  0
  2  1  1  6  0  0  0
  2  3  1  0  0  0  0
  2  5  1  0  0  0  0
  3  4  1  0  0  0  0
  3 17  1  0  0  0  0
  5  6  1  0  0  0  0
  7  6  1  1  0  0  0
  7  8  1  0  0  0  0
  7  9  1  0  0  0  0
 10  9  1  6  0  0  0
 10 11  1  0  0  0  0
 10 12  1  0  0  0  0
 11 16  1  0  0  0  0
 12 13  1  1  0  0  0
 12 14  1  0  0  0  0
 14 15  1  6  0  0  0
 14 16  1  0  0  0  0
 16 27  1  6  0  0  0
 18 19  2  0  0  0  0
 18 23  1  0  0  0  0
 19 20  1  0  0  0  0
 20 21  2  0  0  0  0
 21 22  1  0  0  0  0
 21 27  1  0  0  0  0
 22 23  2  0  0  0  0
 22 25  1  0  0  0  0
 23 24  1  0  0  0  0
 25 26  2  0  0  0  0
 26 27  1  0  0  0  0
M  END
>  <CHROM.1>
-1.16181957,-64.12318850,81.06060706,173.48341117,-174.92398277,-68.48927920
177.28926296,48.37954286,53.57007933,26.92399485,1.86873029,-0.92083892,1.84533937

>  <Name>
ligand

>  <RI>
0

>  <Rbt.Current_Directory>
/home/itssahil/PROJECTS/Mol_Feturizer/New_Systems/rnas/3IQR

>  <Rbt.Executable>
rbdock ($Id: //depot/dev/client3/rdock/2013.1/src/exe/rbdock.cxx#4 $)

>  <Rbt.Library>
libRbt.so (2013.1, Build901 2013/11/27)

>  <Rbt.Parameter_File>
/export/apps/rDock/src/rDock_2013.1_src/data/scripts/dock_solv.prm

>  <Rbt.Receptor>
prm/pocket_docking_7.prm

>  <SCORE>
-9.3028

>  <SCORE.INTER>
-5.25101

>  <SCORE.INTER.CONST>
1

>  <SCORE.INTER.POLAR>
0

>  <SCORE.INTER.ROT>
7

>  <SCORE.INTER.SOLV>
9.98639

>  <SCORE.INTER.VDW>
-15.0961

>  <SCORE.INTER.norm>
-0.194482

>  <SCORE.INTRA>
-4.05179

>  <SCORE.INTRA.DIHEDRAL>
-3.03396

>  <SCORE.INTRA.DIHEDRAL.0>
9.29433

>  <SCORE.INTRA.POLAR>
0

>  <SCORE.INTRA.POLAR.0>
0

>  <SCORE.INTRA.REPUL>
0

>  <SCORE.INTRA.REPUL.0>
0

>  <SCORE.INTRA.SOLV>
0.445665

>  <SCORE.INTRA.SOLV.lig_0>
-48.5102

>  <SCORE.INTRA.VDW>
-2.75764

>  <SCORE.INTRA.VDW.0>
0.379549

>  <SCORE.INTRA.norm>
-0.150066

>  <SCORE.RESTR>
0

>  <SCORE.RESTR.CAVITY>
0

>  <SCORE.RESTR.norm>
0

>  <SCORE.SYSTEM>
0

>  <SCORE.SYSTEM.CONST>
0

>  <SCORE.SYSTEM.DIHEDRAL>
0

>  <SCORE.SYSTEM.SOLV>
0

>  <SCORE.SYSTEM.norm>
0

>  <SCORE.heavy>
27

>  <SCORE.norm>
-0.344548

>  <RMSD>
8.607

$$$$
ligand
 OpenBabel11021811483D
libRbt.so/2013.1/901 2013/11/27
 27 29  0  0  0  0  0  0  0  0999 V2000
   52.8357   51.8969   22.7666 N   0  0  0  0  0  0  0  0  0  0  0  0
   53.4382   51.6038   24.0662 C   0  0  2  0  0  0  0  0  0  0  0  0
   53.9618   50.1967   24.0642 C   0  0  0  0  0  0  0  0  0  0  0  0
   55.1635   49.9899   24.1970 O   0  0  0  0  0  0  0  0  0  0  0  0
   52.3992   51.7487   25.1774 C   0  0  0  0  0  0  0  0  0  0  0  0
   51.8704   53.1714   25.1731 C   0  0  0  0  0  0  0  0  0  0  0  0
   50.6797   53.5173   26.5071 S   0  0  2  0  0  0  0  0  0  0  0  0
   51.6296   53.2773   28.0376 C   0  0  0  0  0  0  0  0  0  0  0  0
   49.8026   51.8589   26.7606 C   0  0  0  0  0  0  0  0  0  0  0  0
   48.6716   51.4116   25.7423 C   0  0  2  0  0  0  0  0  0  0  0  0
   48.8567   51.6856   24.3719 O   0  0  0  0  0  0  0  0  0  0  0  0
   47.2452   51.6292   26.0541 C   0  0  1  0  0  0  0  0  0  0  0  0
   47.0163   51.8832   27.4407 O   0  0  0  0  0  0  0  0  0  0  0  0
   47.0349   52.8861   25.0839 C   0  0  2  0  0  0  0  0  0  0  0  0
   45.6785   53.1891   24.9526 O   0  0  0  0  0  0  0  0  0  0  0  0
   47.6377   52.3377   23.7919 C   0  0  1  0  0  0  0  0  0  0  0  0
   53.1813   49.2579   23.9714 O   0  0  0  0  0  0  0  0  0  0  0  0
   46.0287   54.3182   19.3625 N   0  0  0  0  0  0  0  0  0  0  0  0
   45.4376   53.4685   20.2067 C   0  0  0  0  0  0  0  0  0  0  0  0
   46.0316   53.0940   21.3359 N   0  0  0  0  0  0  0  0  0  0  0  0
   47.2885   53.4678   21.6236 C   0  0  0  0  0  0  0  0  0  0  0  0
   47.9793   54.3263   20.7298 C   0  0  0  0  0  0  0  0  0  0  0  0
   47.2872   54.7561   19.5636 C   0  0  0  0  0  0  0  0  0  0  0  0
   47.8840   55.6039   18.6526 N   0  0  0  0  0  0  0  0  0  0  0  0
   49.2028   54.5381   21.2456 N   0  0  0  0  0  0  0  0  0  0  0  0
   49.3193   53.8809   22.3686 C   0  0  0  0  0  0  0  0  0  0  0  0
   48.1653   53.2094   22.6610 N   0  0  0  0  0  0  0  0  0  0  0  0
  2  1  1  6  0  0  0
  2  3  1  0  0  0  0
  2  5  1  0  0  0  0
  3  4  1  0  0  0  0
  3 17  1  0  0  0  0
  5  6  1  0  0  0  0
  7  6  1  6  0  0  0
  7  8  1  0  0  0  0
  7  9  1  0  0  0  0
 10  9  1  1  0  0  0
 10 11  1  0  0  0  0
 10 12  1  0  0  0  0
 11 16  1  0  0  0  0
 12 13  1  1  0  0  0
 12 14  1  0  0  0  0
 14 15  1  6  0  0  0
 14 16  1  0  0  0  0
 16 27  1  6  0  0  0
 18 19  2  0  0  0  0
 18 23  1  0  0  0  0
 19 20  1  0  0  0  0
 20 21  2  0  0  0  0
 21 22  1  0  0  0  0
 21 27  1  0  0  0  0
 22 23  2  0  0  0  0
 22 25  1  0  0  0  0
 23 24  1  0  0  0  0
 25 26  2  0  0  0  0
 26 27  1  0  0  0  0
M  END
>  <CHROM.1>
116.80037555,-59.80520511,-176.99625613,62.48300703,-78.20917328,39.04081302
153.31986807,49.43948520,52.66530450,23.78514458,-0.69447478,0.27612423,-1.35866168

>  <Name>
ligand

>  <RI>
0

>  <Rbt.Current_Directory>
/home/itssahil/PROJECTS/Mol_Feturizer/New_Systems/rnas/3IQR

>  <Rbt.Executable>
rbdock ($Id: //depot/dev/client3/rdock/2013.1/src/exe/rbdock.cxx#4 $)

>  <Rbt.Library>
libRbt.so (2013.1, Build901 2013/11/27)

>  <Rbt.Parameter_File>
/export/apps/rDock/src/rDock_2013.1_src/data/scripts/dock_solv.prm

>  <Rbt.Receptor>
prm/blind_docking_80.prm

>  <SCORE>
-16.075

>  <SCORE.INTER>
-11.1543

>  <SCORE.INTER.CONST>
1

>  <SCORE.INTER.POLAR>
0

>  <SCORE.INTER.ROT>
7

>  <SCORE.INTER.SOLV>
16.277

>  <SCORE.INTER.VDW>
-21.1285

>  <SCORE.INTER.norm>
-0.41312

>  <SCORE.INTRA>
-4.9271

>  <SCORE.INTRA.DIHEDRAL>
-3.40969

>  <SCORE.INTRA.DIHEDRAL.0>
9.29433

>  <SCORE.INTRA.POLAR>
0

>  <SCORE.INTRA.POLAR.0>
0

>  <SCORE.INTRA.REPUL>
0

>  <SCORE.INTRA.REPUL.0>
0

>  <SCORE.INTRA.SOLV>
-0.897093

>  <SCORE.INTRA.SOLV.lig_0>
-48.5102

>  <SCORE.INTRA.VDW>
-2.7737

>  <SCORE.INTRA.VDW.0>
0.379549

>  <SCORE.INTRA.norm>
-0.182485

>  <SCORE.RESTR>
0.00631551

>  <SCORE.RESTR.CAVITY>
0.00631551

>  <SCORE.RESTR.norm>
0.000233908

>  <SCORE.SYSTEM>
0

>  <SCORE.SYSTEM.CONST>
0

>  <SCORE.SYSTEM.DIHEDRAL>
0

>  <SCORE.SYSTEM.SOLV>
0

>  <SCORE.SYSTEM.norm>
0

>  <SCORE.heavy>
27

>  <SCORE.norm>
-0.595372

>  <RMSD>
9.654

$$$$
ligand
 OpenBabel11021811483D
libRbt.so/2013.1/901 2013/11/27
 27 29  0  0  0  0  0  0  0  0999 V2000
   56.0621   51.3723   22.2265 N   0  0  0  0  0  0  0  0  0  0  0  0
   54.8866   50.7685   22.8523 C   0  0  2  0  0  0  0  0  0  0  0  0
   53.8892   50.4078   21.7896 C   0  0  0  0  0  0  0  0  0  0  0  0
   53.5989   51.2226   20.9200 O   0  0  0  0  0  0  0  0  0  0  0  0
   54.2423   51.7509   23.8294 C   0  0  0  0  0  0  0  0  0  0  0  0
   53.1361   51.0376   24.5855 C   0  0  0  0  0  0  0  0  0  0  0  0
   51.8533   52.1537   25.2377 S   0  0  2  0  0  0  0  0  0  0  0  0
   50.4568   51.0597   25.6318 C   0  0  0  0  0  0  0  0  0  0  0  0
   50.9666   52.7683   23.6822 C   0  0  0  0  0  0  0  0  0  0  0  0
   49.7743   53.8052   23.8228 C   0  0  2  0  0  0  0  0  0  0  0  0
   48.7480   53.5255   24.7479 O   0  0  0  0  0  0  0  0  0  0  0  0
   49.1490   54.4041   22.6272 C   0  0  1  0  0  0  0  0  0  0  0  0
   49.9556   54.2686   21.4565 O   0  0  0  0  0  0  0  0  0  0  0  0
   47.8190   53.5119   22.6494 C   0  0  2  0  0  0  0  0  0  0  0  0
   46.8685   54.0173   21.7605 O   0  0  0  0  0  0  0  0  0  0  0  0
   47.4008   53.6811   24.1087 C   0  0  1  0  0  0  0  0  0  0  0  0
   53.3998   49.2857   21.7712 O   0  0  0  0  0  0  0  0  0  0  0  0
   43.1211   50.9951   23.3340 N   0  0  0  0  0  0  0  0  0  0  0  0
   43.7331   51.9046   22.5710 C   0  0  0  0  0  0  0  0  0  0  0  0
   44.8708   52.4747   22.9568 N   0  0  0  0  0  0  0  0  0  0  0  0
   45.3950   52.2412   24.1704 C   0  0  0  0  0  0  0  0  0  0  0  0
   44.7507   51.3238   25.0402 C   0  0  0  0  0  0  0  0  0  0  0  0
   43.5703   50.6866   24.5665 C   0  0  0  0  0  0  0  0  0  0  0  0
   42.8935   49.7702   25.3457 N   0  0  0  0  0  0  0  0  0  0  0  0
   45.4690   51.2791   26.1759 N   0  0  0  0  0  0  0  0  0  0  0  0
   46.4876   52.0908   26.0765 C   0  0  0  0  0  0  0  0  0  0  0  0
   46.5022   52.7057   24.8559 N   0  0  0  0  0  0  0  0  0  0  0  0
  2  1  1  6  0  0  0
  2  3  1  0  0  0  0
  2  5  1  0  0  0  0
  3  4  1  0  0  0  0
  3 17  1  0  0  0  0
  5  6  1  0  0  0  0
  7  6  1  6  0  0  0
  7  8  1  0  0  0  0
  7  9  1  0  0  0  0
 10  9  1  6  0  0  0
 10 11  1  0  0  0  0
 10 12  1  0  0  0  0
 11 16  1  0  0  0  0
 12 13  1  6  0  0  0
 12 14  1  0  0  0  0
 14 15  1  6  0  0  0
 14 16  1  0  0  0  0
 16 27  1  1  0  0  0
 18 19  2  0  0  0  0
 18 23  1  0  0  0  0
 19 20  1  0  0  0  0
 20 21  2  0  0  0  0
 21 22  1  0  0  0  0
 21 27  1  0  0  0  0
 22 23  2  0  0  0  0
 22 25  1  0  0  0  0
 23 24  1  0  0  0  0
 25 26  2  0  0  0  0
 26 27  1  0  0  0  0
M  END
>  <CHROM.1>
-47.49293605,-173.00969410,-155.76294832,163.64722873,-178.85177444,-49.61513446
-154.66633367,49.10400585,52.03633002,23.69231862,0.08392470,0.12994529,-0.88700179

>  <Name>
ligand

>  <RI>
0

>  <Rbt.Current_Directory>
/home/itssahil/PROJECTS/Mol_Feturizer/New_Systems/rnas/3IQR

>  <Rbt.Executable>
rbdock ($Id: //depot/dev/client3/rdock/2013.1/src/exe/rbdock.cxx#4 $)

>  <Rbt.Library>
libRbt.so (2013.1, Build901 2013/11/27)

>  <Rbt.Parameter_File>
/export/apps/rDock/src/rDock_2013.1_src/data/scripts/dock_solv.prm

>  <Rbt.Receptor>
prm/blind_docking_80.prm

>  <SCORE>
-10.5555

>  <SCORE.INTER>
-5.45209

>  <SCORE.INTER.CONST>
1

>  <SCORE.INTER.POLAR>
0

>  <SCORE.INTER.ROT>
7

>  <SCORE.INTER.SOLV>
17.8484

>  <SCORE.INTER.VDW>
-17.8509

>  <SCORE.INTER.norm>
-0.201929

>  <SCORE.INTRA>
-5.10337

>  <SCORE.INTRA.DIHEDRAL>
-2.50242

>  <SCORE.INTRA.DIHEDRAL.0>
9.29433

>  <SCORE.INTRA.POLAR>
0

>  <SCORE.INTRA.POLAR.0>
0

>  <SCORE.INTRA.REPUL>
0

>  <SCORE.INTRA.REPUL.0>
0

>  <SCORE.INTRA.SOLV>
-1.66843

>  <SCORE.INTRA.SOLV.lig_0>
-48.5102

>  <SCORE.INTRA.VDW>
-3.01794

>  <SCORE.INTRA.VDW.0>
0.379549

>  <SCORE.INTRA.norm>
-0.189014

>  <SCORE.RESTR>
0

>  <SCORE.RESTR.CAVITY>
0

>  <SCORE.RESTR.norm>
0

>  <SCORE.SYSTEM>
0

>  <SCORE.SYSTEM.CONST>
0

>  <SCORE.SYSTEM.DIHEDRAL>
0

>  <SCORE.SYSTEM.SOLV>
0

>  <SCORE.SYSTEM.norm>
0

>  <SCORE.heavy>
27

>  <SCORE.norm>
-0.390943

>  <RMSD>
9.950

$$$$
ligand
 OpenBabel11021811483D
libRbt.so/2013.1/901 2013/11/27
 27 29  0  0  0  0  0  0  0  0999 V2000
   49.1070   52.7252   19.9838 N   0  0  0  0  0  0  0  0  0  0  0  0
   48.1937   52.9688   21.0993 C   0  0  2  0  0  0  0  0  0  0  0  0
   46.8934   53.4997   20.5688 C   0  0  0  0  0  0  0  0  0  0  0  0
   46.8929   54.4118   19.7488 O   0  0  0  0  0  0  0  0  0  0  0  0
   48.7945   53.9909   22.0633 C   0  0  0  0  0  0  0  0  0  0  0  0
   47.9081   54.0880   23.2916 C   0  0  0  0  0  0  0  0  0  0  0  0
   47.7544   52.5246   24.2129 S   0  0  2  0  0  0  0  0  0  0  0  0
   46.0392   52.5177   24.8133 C   0  0  0  0  0  0  0  0  0  0  0  0
   48.3856   52.9644   25.9427 C   0  0  0  0  0  0  0  0  0  0  0  0
   49.9478   53.0547   26.2028 C   0  0  2  0  0  0  0  0  0  0  0  0
   50.7445   53.7459   25.2674 O   0  0  0  0  0  0  0  0  0  0  0  0
   50.7084   51.8720   26.6520 C   0  0  1  0  0  0  0  0  0  0  0  0
   49.8690   50.8443   27.1800 O   0  0  0  0  0  0  0  0  0  0  0  0
   51.3875   51.5430   25.2392 C   0  0  2  0  0  0  0  0  0  0  0  0
   52.3990   50.5919   25.3852 O   0  0  0  0  0  0  0  0  0  0  0  0
   51.9321   52.9216   24.8703 C   0  0  1  0  0  0  0  0  0  0  0  0
   45.8384   52.9915   20.9262 O   0  0  0  0  0  0  0  0  0  0  0  0
   53.4729   50.8738   20.4472 N   0  0  0  0  0  0  0  0  0  0  0  0
   53.3344   50.3326   21.6604 C   0  0  0  0  0  0  0  0  0  0  0  0
   52.8871   51.0489   22.6876 N   0  0  0  0  0  0  0  0  0  0  0  0
   52.6578   52.3668   22.5755 C   0  0  0  0  0  0  0  0  0  0  0  0
   52.8440   52.9996   21.3192 C   0  0  0  0  0  0  0  0  0  0  0  0
   53.2627   52.1870   20.2292 C   0  0  0  0  0  0  0  0  0  0  0  0
   53.4513   52.7235   18.9716 N   0  0  0  0  0  0  0  0  0  0  0  0
   52.5548   54.3025   21.4821 N   0  0  0  0  0  0  0  0  0  0  0  0
   52.2157   54.5190   22.7249 C   0  0  0  0  0  0  0  0  0  0  0  0
   52.2494   53.3592   23.4473 N   0  0  0  0  0  0  0  0  0  0  0  0
  2  1  1  6  0  0  0
  2  3  1  0  0  0  0
  2  5  1  0  0  0  0
  3  4  1  0  0  0  0
  3 17  1  0  0  0  0
  5  6  1  0  0  0  0
  7  6  1  6  0  0  0
  7  8  1  0  0  0  0
  7  9  1  0  0  0  0
 10  9  1  6  0  0  0
 10 11  1  0  0  0  0
 10 12  1  0  0  0  0
 11 16  1  0  0  0  0
 12 13  1  6  0  0  0
 12 14  1  0  0  0  0
 14 15  1  1  0  0  0
 14 16  1  0  0  0  0
 16 27  1  6  0  0  0
 18 19  2  0  0  0  0
 18 23  1  0  0  0  0
 19 20  1  0  0  0  0
 20 21  2  0  0  0  0
 21 22  1  0  0  0  0
 21 27  1  0  0  0  0
 22 23  2  0  0  0  0
 22 25  1  0  0  0  0
 23 24  1  0  0  0  0
 25 26  2  0  0  0  0
 26 27  1  0  0  0  0
M  END
>  <CHROM.1>
-47.64279435,-172.87380233,61.05156461,-144.07914012,-78.80664816,45.42762567
-141.98450656,50.22165538,52.65787595,23.02955585,2.89901408,-0.21332128
1.75106245

>  <Name>
ligand

>  <RI>
0

>  <Rbt.Current_Directory>
/home/itssahil/PROJECTS/Mol_Feturizer/New_Systems/rnas/3IQR

>  <Rbt.Executable>
rbdock ($Id: //depot/dev/client3/rdock/2013.1/src/exe/rbdock.cxx#4 $)

>  <Rbt.Library>
libRbt.so (2013.1, Build901 2013/11/27)

>  <Rbt.Parameter_File>
/export/apps/rDock/src/rDock_2013.1_src/data/scripts/dock_solv.prm

>  <Rbt.Receptor>
prm/blind_docking_80.prm

>  <SCORE>
-15.0188

>  <SCORE.INTER>
-9.25543

>  <SCORE.INTER.CONST>
1

>  <SCORE.INTER.POLAR>
0

>  <SCORE.INTER.ROT>
7

>  <SCORE.INTER.SOLV>
10.9407

>  <SCORE.INTER.VDW>
-18.0838

>  <SCORE.INTER.norm>
-0.342794

>  <SCORE.INTRA>
-5.7634

>  <SCORE.INTRA.DIHEDRAL>
-0.702147

>  <SCORE.INTRA.DIHEDRAL.0>
9.29433

>  <SCORE.INTRA.POLAR>
0

>  <SCORE.INTRA.POLAR.0>
0

>  <SCORE.INTRA.REPUL>
0

>  <SCORE.INTRA.REPUL.0>
0

>  <SCORE.INTRA.SOLV>
-1.20541

>  <SCORE.INTRA.SOLV.lig_0>
-48.5102

>  <SCORE.INTRA.VDW>
-4.80962

>  <SCORE.INTRA.VDW.0>
0.379549

>  <SCORE.INTRA.norm>
-0.213459

>  <SCORE.RESTR>
0

>  <SCORE.RESTR.CAVITY>
0

>  <SCORE.RESTR.norm>
0

>  <SCORE.SYSTEM>
0

>  <SCORE.SYSTEM.CONST>
0

>  <SCORE.SYSTEM.DIHEDRAL>
0

>  <SCORE.SYSTEM.SOLV>
0

>  <SCORE.SYSTEM.norm>
0

>  <SCORE.heavy>
27

>  <SCORE.norm>
-0.556253

>  <RMSD>
10.032

$$$$
ligand
 OpenBabel11021811483D
libRbt.so/2013.1/901 2013/11/27
 27 29  0  0  0  0  0  0  0  0999 V2000
   54.2437   52.1002   23.0996 N   0  0  0  0  0  0  0  0  0  0  0  0
   52.9562   51.4454   22.8728 C   0  0  2  0  0  0  0  0  0  0  0  0
   52.7462   50.3887   23.9185 C   0  0  0  0  0  0  0  0  0  0  0  0
   53.6486   49.6016   24.1840 O   0  0  0  0  0  0  0  0  0  0  0  0
   52.9289   50.7932   21.4910 C   0  0  0  0  0  0  0  0  0  0  0  0
   52.8251   51.8802   20.4367 C   0  0  0  0  0  0  0  0  0  0  0  0
   51.1166   52.4052   20.0875 S   0  0  2  0  0  0  0  0  0  0  0  0
   51.2954   53.7906   18.9251 C   0  0  0  0  0  0  0  0  0  0  0  0
   50.7236   53.6053   21.4979 C   0  0  0  0  0  0  0  0  0  0  0  0
   50.1494   53.0408   22.8646 C   0  0  2  0  0  0  0  0  0  0  0  0
   48.8914   52.4048   22.8516 O   0  0  0  0  0  0  0  0  0  0  0  0
   50.2375   53.8344   24.1062 C   0  0  1  0  0  0  0  0  0  0  0  0
   51.1921   54.8929   24.0176 O   0  0  0  0  0  0  0  0  0  0  0  0
   48.7042   54.2959   24.1382 C   0  0  2  0  0  0  0  0  0  0  0  0
   48.3876   54.8782   25.3669 O   0  0  0  0  0  0  0  0  0  0  0  0
   48.0097   52.9509   23.9342 C   0  0  1  0  0  0  0  0  0  0  0  0
   51.6878   50.3430   24.5322 O   0  0  0  0  0  0  0  0  0  0  0  0
   45.4940   53.3336   19.5007 N   0  0  0  0  0  0  0  0  0  0  0  0
   46.7635   53.6079   19.8126 C   0  0  0  0  0  0  0  0  0  0  0  0
   47.2292   53.4101   21.0423 N   0  0  0  0  0  0  0  0  0  0  0  0
   46.4212   53.0292   22.0444 C   0  0  0  0  0  0  0  0  0  0  0  0
   45.0509   52.7788   21.7746 C   0  0  0  0  0  0  0  0  0  0  0  0
   44.6044   52.9406   20.4336 C   0  0  0  0  0  0  0  0  0  0  0  0
   43.2902   52.7016   20.0864 N   0  0  0  0  0  0  0  0  0  0  0  0
   44.4743   52.4223   22.9358 N   0  0  0  0  0  0  0  0  0  0  0  0
   45.3693   52.4395   23.8871 C   0  0  0  0  0  0  0  0  0  0  0  0
   46.5941   52.7960   23.3962 N   0  0  0  0  0  0  0  0  0  0  0  0
  2  1  1  1  0  0  0
  2  3  1  0  0  0  0
  2  5  1  0  0  0  0
  3  4  1  0  0  0  0
  3 17  1  0  0  0  0
  5  6  1  0  0  0  0
  7  6  1  1  0  0  0
  7  8  1  0  0  0  0
  7  9  1  0  0  0  0
 10  9  1  6  0  0  0
 10 11  1  0  0  0  0
 10 12  1  0  0  0  0
 11 16  1  0  0  0  0
 12 13  1  6  0  0  0
 12 14  1  0  0  0  0
 14 15  1  1  0  0  0
 14 16  1  0  0  0  0
 16 27  1  6  0  0  0
 18 19  2  0  0  0  0
 18 23  1  0  0  0  0
 19 20  1  0  0  0  0
 20 21  2  0  0  0  0
 21 22  1  0  0  0  0
 21 27  1  0  0  0  0
 22 23  2  0  0  0  0
 22 25  1  0  0  0  0
 23 24  1  0  0  0  0
 25 26  2  0  0  0  0
 26 27  1  0  0  0  0
M  END
>  <CHROM.1>
-46.87147101,-72.61316159,-85.78848554,175.08551484,-87.05502218,-63.53695821
-37.81429915,49.27629428,52.65374869,22.27133764,0.15258764,-0.19894082,1.56943161

>  <Name>
ligand

>  <RI>
0

>  <Rbt.Current_Directory>
/home/itssahil/PROJECTS/Mol_Feturizer/New_Systems/rnas/3IQR

>  <Rbt.Executable>
rbdock ($Id: //depot/dev/client3/rdock/2013.1/src/exe/rbdock.cxx#4 $)

>  <Rbt.Library>
libRbt.so (2013.1, Build901 2013/11/27)

>  <Rbt.Parameter_File>
/export/apps/rDock/src/rDock_2013.1_src/data/scripts/dock_solv.prm

>  <Rbt.Receptor>
prm/blind_docking_80.prm

>  <SCORE>
-6.90867

>  <SCORE.INTER>
-1.95457

>  <SCORE.INTER.CONST>
1

>  <SCORE.INTER.POLAR>
0

>  <SCORE.INTER.ROT>
7

>  <SCORE.INTER.SOLV>
12.6767

>  <SCORE.INTER.VDW>
-13.7953

>  <SCORE.INTER.norm>
-0.0723914

>  <SCORE.INTRA>
-4.95434

>  <SCORE.INTRA.DIHEDRAL>
-1.20866

>  <SCORE.INTRA.DIHEDRAL.0>
9.29433

>  <SCORE.INTRA.POLAR>
0

>  <SCORE.INTRA.POLAR.0>
0

>  <SCORE.INTRA.REPUL>
0

>  <SCORE.INTRA.REPUL.0>
0

>  <SCORE.INTRA.SOLV>
-0.000453316

>  <SCORE.INTRA.SOLV.lig_0>
-48.5102

>  <SCORE.INTRA.VDW>
-4.34978

>  <SCORE.INTRA.VDW.0>
0.379549

>  <SCORE.INTRA.norm>
-0.183494

>  <SCORE.RESTR>
0.000240332

>  <SCORE.RESTR.CAVITY>
0.000240332

>  <SCORE.RESTR.norm>
8.90118e-06

>  <SCORE.SYSTEM>
0

>  <SCORE.SYSTEM.CONST>
0

>  <SCORE.SYSTEM.DIHEDRAL>
0

>  <SCORE.SYSTEM.SOLV>
0

>  <SCORE.SYSTEM.norm>
0

>  <SCORE.heavy>
27

>  <SCORE.norm>
-0.255877

>  <RMSD>
10.486

$$$$
ligand
 OpenBabel11021811483D
libRbt.so/2013.1/901 2013/11/27
 27 29  0  0  0  0  0  0  0  0999 V2000
   53.1758   55.0167   18.2219 N   0  0  0  0  0  0  0  0  0  0  0  0
   52.4414   54.4326   17.1006 C   0  0  2  0  0  0  0  0  0  0  0  0
   51.4464   55.4317   16.5851 C   0  0  0  0  0  0  0  0  0  0  0  0
   50.6579   55.9659   17.3580 O   0  0  0  0  0  0  0  0  0  0  0  0
   51.6992   53.1747   17.5502 C   0  0  0  0  0  0  0  0  0  0  0  0
   52.6933   52.2168   18.1812 C   0  0  0  0  0  0  0  0  0  0  0  0
   53.0851   52.6021   19.9175 S   0  0  2  0  0  0  0  0  0  0  0  0
   53.6783   51.0299   20.6092 C   0  0  0  0  0  0  0  0  0  0  0  0
   51.4251   52.3958   20.8038 C   0  0  0  0  0  0  0  0  0  0  0  0
   50.4564   53.6439   20.9451 C   0  0  2  0  0  0  0  0  0  0  0  0
   50.2195   54.1665   22.2328 O   0  0  0  0  0  0  0  0  0  0  0  0
   49.1851   53.7021   20.1971 C   0  0  1  0  0  0  0  0  0  0  0  0
   49.1419   52.7767   19.1102 O   0  0  0  0  0  0  0  0  0  0  0  0
   48.2287   53.3516   21.4331 C   0  0  2  0  0  0  0  0  0  0  0  0
   46.8910   53.5783   21.1043 O   0  0  0  0  0  0  0  0  0  0  0  0
   48.7500   54.3431   22.4716 C   0  0  1  0  0  0  0  0  0  0  0  0
   51.4533   55.7407   15.4004 O   0  0  0  0  0  0  0  0  0  0  0  0
   45.6051   52.0196   25.7643 N   0  0  0  0  0  0  0  0  0  0  0  0
   45.5444   52.1434   24.4358 C   0  0  0  0  0  0  0  0  0  0  0  0
   46.4969   52.7777   23.7585 N   0  0  0  0  0  0  0  0  0  0  0  0
   47.5005   53.4100   24.3870 C   0  0  0  0  0  0  0  0  0  0  0  0
   47.5778   53.3543   25.8027 C   0  0  0  0  0  0  0  0  0  0  0  0
   46.5753   52.6128   26.4874 C   0  0  0  0  0  0  0  0  0  0  0  0
   46.5886   52.4976   27.8627 N   0  0  0  0  0  0  0  0  0  0  0  0
   48.6585   54.0643   26.1714 N   0  0  0  0  0  0  0  0  0  0  0  0
   49.2407   54.5510   25.1081 C   0  0  0  0  0  0  0  0  0  0  0  0
   48.5781   54.1718   23.9744 N   0  0  0  0  0  0  0  0  0  0  0  0
  2  1  1  1  0  0  0
  2  3  1  0  0  0  0
  2  5  1  0  0  0  0
  3  4  1  0  0  0  0
  3 17  1  0  0  0  0
  5  6  1  0  0  0  0
  7  6  1  6  0  0  0
  7  8  1  0  0  0  0
  7  9  1  0  0  0  0
 10  9  1  1  0  0  0
 10 11  1  0  0  0  0
 10 12  1  0  0  0  0
 11 16  1  0  0  0  0
 12 13  1  6  0  0  0
 12 14  1  0  0  0  0
 14 15  1  6  0  0  0
 14 16  1  0  0  0  0
 16 27  1  1  0  0  0
 18 19  2  0  0  0  0
 18 23  1  0  0  0  0
 19 20  1  0  0  0  0
 20 21  2  0  0  0  0
 21 22  1  0  0  0  0
 21 27  1  0  0  0  0
 22 23  2  0  0  0  0
 22 25  1  0  0  0  0
 23 24  1  0  0  0  0
 25 26  2  0  0  0  0
 26 27  1  0  0  0  0
M  END
>  <CHROM.1>
-52.36260731,-55.07058196,81.43871765,157.27978099,-90.31828683,-113.12456084
-136.98334295,49.74196080,53.49250298,21.39303552,-0.94943231,-0.34171349
1.93840441

>  <Name>
ligand

>  <RI>
0

>  <Rbt.Current_Directory>
/home/itssahil/PROJECTS/Mol_Feturizer/New_Systems/rnas/3IQR

>  <Rbt.Executable>
rbdock ($Id: //depot/dev/client3/rdock/2013.1/src/exe/rbdock.cxx#4 $)

>  <Rbt.Library>
libRbt.so (2013.1, Build901 2013/11/27)

>  <Rbt.Parameter_File>
/export/apps/rDock/src/rDock_2013.1_src/data/scripts/dock_solv.prm

>  <Rbt.Receptor>
prm/blind_docking_80.prm

>  <SCORE>
-11.0741

>  <SCORE.INTER>
-9.77818

>  <SCORE.INTER.CONST>
1

>  <SCORE.INTER.POLAR>
0

>  <SCORE.INTER.ROT>
7

>  <SCORE.INTER.SOLV>
9.51264

>  <SCORE.INTER.VDW>
-17.9563

>  <SCORE.INTER.norm>
-0.362155

>  <SCORE.INTRA>
-1.55864

>  <SCORE.INTRA.DIHEDRAL>
1.93902

>  <SCORE.INTRA.DIHEDRAL.0>
9.29433

>  <SCORE.INTRA.POLAR>
0

>  <SCORE.INTRA.POLAR.0>
0

>  <SCORE.INTRA.REPUL>
0

>  <SCORE.INTRA.REPUL.0>
0

>  <SCORE.INTRA.SOLV>
1.50808

>  <SCORE.INTRA.SOLV.lig_0>
-48.5102

>  <SCORE.INTRA.VDW>
-3.28219

>  <SCORE.INTRA.VDW.0>
0.379549

>  <SCORE.INTRA.norm>
-0.0577274

>  <SCORE.RESTR>
0.262721

>  <SCORE.RESTR.CAVITY>
0.262721

>  <SCORE.RESTR.norm>
0.00973042

>  <SCORE.SYSTEM>
0

>  <SCORE.SYSTEM.CONST>
0

>  <SCORE.SYSTEM.DIHEDRAL>
0

>  <SCORE.SYSTEM.SOLV>
0

>  <SCORE.SYSTEM.norm>
0

>  <SCORE.heavy>
27

>  <SCORE.norm>
-0.410152

>  <RMSD>
10.530

$$$$
ligand
 OpenBabel11021811483D
libRbt.so/2013.1/901 2013/11/27
 27 29  0  0  0  0  0  0  0  0999 V2000
   52.5125   54.1019   18.6177 N   0  0  0  0  0  0  0  0  0  0  0  0
   51.3726   53.6246   17.8362 C   0  0  2  0  0  0  0  0  0  0  0  0
   50.7665   54.7768   17.0884 C   0  0  0  0  0  0  0  0  0  0  0  0
   50.6823   55.8776   17.6228 O   0  0  0  0  0  0  0  0  0  0  0  0
   50.3160   53.0154   18.7568 C   0  0  0  0  0  0  0  0  0  0  0  0
   50.0152   53.9958   19.8759 C   0  0  0  0  0  0  0  0  0  0  0  0
   48.6750   53.4570   20.9851 S   0  0  2  0  0  0  0  0  0  0  0  0
   47.1496   53.8507   20.0793 C   0  0  0  0  0  0  0  0  0  0  0  0
   48.4145   54.9470   22.1234 C   0  0  0  0  0  0  0  0  0  0  0  0
   49.2607   55.0643   23.4600 C   0  0  2  0  0  0  0  0  0  0  0  0
   50.3689   54.2095   23.6292 O   0  0  0  0  0  0  0  0  0  0  0  0
   48.5910   55.1942   24.7691 C   0  0  1  0  0  0  0  0  0  0  0  0
   47.2237   55.5895   24.6524 O   0  0  0  0  0  0  0  0  0  0  0  0
   48.8288   53.6842   25.2475 C   0  0  2  0  0  0  0  0  0  0  0  0
   48.5210   53.5393   26.6015 O   0  0  0  0  0  0  0  0  0  0  0  0
   50.3243   53.5424   24.9710 C   0  0  1  0  0  0  0  0  0  0  0  0
   50.3959   54.6231   15.9317 O   0  0  0  0  0  0  0  0  0  0  0  0
   54.9986   51.7634   23.9141 N   0  0  0  0  0  0  0  0  0  0  0  0
   54.5291   53.0128   23.9653 C   0  0  0  0  0  0  0  0  0  0  0  0
   53.2637   53.2607   24.2901 N   0  0  0  0  0  0  0  0  0  0  0  0
   52.3806   52.2668   24.4758 C   0  0  0  0  0  0  0  0  0  0  0  0
   52.8191   50.9210   24.3773 C   0  0  0  0  0  0  0  0  0  0  0  0
   54.1942   50.6966   24.0904 C   0  0  0  0  0  0  0  0  0  0  0  0
   54.7025   49.4171   23.9935 N   0  0  0  0  0  0  0  0  0  0  0  0
   51.7501   50.1360   24.5987 N   0  0  0  0  0  0  0  0  0  0  0  0
   50.7013   50.8835   24.8166 C   0  0  0  0  0  0  0  0  0  0  0  0
   51.0297   52.2093   24.7648 N   0  0  0  0  0  0  0  0  0  0  0  0
  2  1  1  1  0  0  0
  2  3  1  0  0  0  0
  2  5  1  0  0  0  0
  3  4  1  0  0  0  0
  3 17  1  0  0  0  0
  5  6  1  0  0  0  0
  7  6  1  6  0  0  0
  7  8  1  0  0  0  0
  7  9  1  0  0  0  0
 10  9  1  6  0  0  0
 10 11  1  0  0  0  0
 10 12  1  0  0  0  0
 11 16  1  0  0  0  0
 12 13  1  6  0  0  0
 12 14  1  0  0  0  0
 14 15  1  1  0  0  0
 14 16  1  0  0  0  0
 16 27  1  6  0  0  0
 18 19  2  0  0  0  0
 18 23  1  0  0  0  0
 19 20  1  0  0  0  0
 20 21  2  0  0  0  0
 21 22  1  0  0  0  0
 21 27  1  0  0  0  0
 22 23  2  0  0  0  0
 22 25  1  0  0  0  0
 23 24  1  0  0  0  0
 25 26  2  0  0  0  0
 26 27  1  0  0  0  0
M  END
>  <CHROM.1>
-38.79173389,50.63129866,175.55579375,-79.44775409,-88.87881914,12.82252429
66.31848045,50.69573575,53.31999109,22.30288760,-1.88329875,-0.50378865,1.77759573

>  <Name>
ligand

>  <RI>
0

>  <Rbt.Current_Directory>
/home/itssahil/PROJECTS/Mol_Feturizer/New_Systems/rnas/3IQR

>  <Rbt.Executable>
rbdock ($Id: //depot/dev/client3/rdock/2013.1/src/exe/rbdock.cxx#4 $)

>  <Rbt.Library>
libRbt.so (2013.1, Build901 2013/11/27)

>  <Rbt.Parameter_File>
/export/apps/rDock/src/rDock_2013.1_src/data/scripts/dock_solv.prm

>  <Rbt.Receptor>
prm/blind_docking_100.prm

>  <SCORE>
-16.6588

>  <SCORE.INTER>
-13.7863

>  <SCORE.INTER.CONST>
1

>  <SCORE.INTER.POLAR>
0

>  <SCORE.INTER.ROT>
7

>  <SCORE.INTER.SOLV>
13.3377

>  <SCORE.INTER.VDW>
-21.9034

>  <SCORE.INTER.norm>
-0.510604

>  <SCORE.INTRA>
-2.87395

>  <SCORE.INTRA.DIHEDRAL>
0.0900234

>  <SCORE.INTRA.DIHEDRAL.0>
9.29433

>  <SCORE.INTRA.POLAR>
0

>  <SCORE.INTRA.POLAR.0>
0

>  <SCORE.INTRA.REPUL>
0

>  <SCORE.INTRA.REPUL.0>
0

>  <SCORE.INTRA.SOLV>
-0.979138

>  <SCORE.INTRA.SOLV.lig_0>
-48.5102

>  <SCORE.INTRA.VDW>
-2.4294

>  <SCORE.INTRA.VDW.0>
0.379549

>  <SCORE.INTRA.norm>
-0.106443

>  <SCORE.RESTR>
0.00149109

>  <SCORE.RESTR.CAVITY>
0.00149109

>  <SCORE.RESTR.norm>
5.52254e-05

>  <SCORE.SYSTEM>
0

>  <SCORE.SYSTEM.CONST>
0

>  <SCORE.SYSTEM.DIHEDRAL>
0

>  <SCORE.SYSTEM.SOLV>
0

>  <SCORE.SYSTEM.norm>
0

>  <SCORE.heavy>
27

>  <SCORE.norm>
-0.616991

>  <RMSD>
10.633

$$$$
ligand
 OpenBabel11021811483D
libRbt.so/2013.1/901 2013/11/27
 27 29  0  0  0  0  0  0  0  0999 V2000
   54.7273   49.6478   21.4415 N   0  0  0  0  0  0  0  0  0  0  0  0
   54.4959   49.8470   22.8714 C   0  0  2  0  0  0  0  0  0  0  0  0
   54.7180   48.5504   23.5951 C   0  0  0  0  0  0  0  0  0  0  0  0
   53.7679   47.9571   24.0948 O   0  0  0  0  0  0  0  0  0  0  0  0
   53.0625   50.3166   23.1164 C   0  0  0  0  0  0  0  0  0  0  0  0
   52.9607   50.8688   24.5267 C   0  0  0  0  0  0  0  0  0  0  0  0
   51.5806   52.0334   24.7625 S   0  0  2  0  0  0  0  0  0  0  0  0
   51.6558   52.4766   26.5233 C   0  0  0  0  0  0  0  0  0  0  0  0
   50.0959   50.9035   25.0836 C   0  0  0  0  0  0  0  0  0  0  0  0
   48.6311   51.4409   24.7976 C   0  0  2  0  0  0  0  0  0  0  0  0
   48.2689   51.7237   23.4649 O   0  0  0  0  0  0  0  0  0  0  0  0
   48.0259   52.4781   25.6562 C   0  0  1  0  0  0  0  0  0  0  0  0
   48.6976   52.6181   26.9088 O   0  0  0  0  0  0  0  0  0  0  0  0
   48.2194   53.6971   24.6355 C   0  0  2  0  0  0  0  0  0  0  0  0
   47.5014   54.8169   25.0593 O   0  0  0  0  0  0  0  0  0  0  0  0
   47.6419   53.0817   23.3624 C   0  0  1  0  0  0  0  0  0  0  0  0
   55.8424   48.0689   23.6480 O   0  0  0  0  0  0  0  0  0  0  0  0
   51.3734   52.5936   19.9029 N   0  0  0  0  0  0  0  0  0  0  0  0
   51.2891   52.1643   21.1649 C   0  0  0  0  0  0  0  0  0  0  0  0
   50.1990   52.3809   21.8951 N   0  0  0  0  0  0  0  0  0  0  0  0
   49.1840   53.1286   21.4336 C   0  0  0  0  0  0  0  0  0  0  0  0
   49.2512   53.6540   20.1173 C   0  0  0  0  0  0  0  0  0  0  0  0
   50.4058   53.3475   19.3449 C   0  0  0  0  0  0  0  0  0  0  0  0
   50.5402   53.8077   18.0507 N   0  0  0  0  0  0  0  0  0  0  0  0
   48.1248   54.3588   19.9112 N   0  0  0  0  0  0  0  0  0  0  0  0
   47.3828   54.3137   20.9854 C   0  0  0  0  0  0  0  0  0  0  0  0
   47.9788   53.5591   21.9568 N   0  0  0  0  0  0  0  0  0  0  0  0
  2  1  1  6  0  0  0
  2  3  1  0  0  0  0
  2  5  1  0  0  0  0
  3  4  1  0  0  0  0
  3 17  1  0  0  0  0
  5  6  1  0  0  0  0
  7  6  1  1  0  0  0
  7  8  1  0  0  0  0
  7  9  1  0  0  0  0
 10  9  1  6  0  0  0
 10 11  1  0  0  0  0
 10 12  1  0  0  0  0
 11 16  1  0  0  0  0
 12 13  1  1  0  0  0
 12 14  1  0  0  0  0
 14 15  1  1  0  0  0
 14 16  1  0  0  0  0
 16 27  1  6  0  0  0
 18 19  2  0  0  0  0
 18 23  1  0  0  0  0
 19 20  1  0  0  0  0
 20 21  2  0  0  0  0
 21 22  1  0  0  0  0
 21 27  1  0  0  0  0
 22 23  2  0  0  0  0
 22 25  1  0  0  0  0
 23 24  1  0  0  0  0
 25 26  2  0  0  0  0
 26 27  1  0  0  0  0
M  END
>  <CHROM.1>
-110.78090942,-164.82702594,157.11070830,177.84666025,-156.73854076,65.93895110
-32.07072497,50.65526887,51.95455503,23.07830333,-0.29002669,0.59000343,-1.34456733

>  <Name>
ligand

>  <RI>
0

>  <Rbt.Current_Directory>
/home/itssahil/PROJECTS/Mol_Feturizer/New_Systems/rnas/3IQR

>  <Rbt.Executable>
rbdock ($Id: //depot/dev/client3/rdock/2013.1/src/exe/rbdock.cxx#4 $)

>  <Rbt.Library>
libRbt.so (2013.1, Build901 2013/11/27)

>  <Rbt.Parameter_File>
/export/apps/rDock/src/rDock_2013.1_src/data/scripts/dock_solv.prm

>  <Rbt.Receptor>
prm/blind_docking_80.prm

>  <SCORE>
-16.8467

>  <SCORE.INTER>
-13.7952

>  <SCORE.INTER.CONST>
1

>  <SCORE.INTER.POLAR>
0

>  <SCORE.INTER.ROT>
7

>  <SCORE.INTER.SOLV>
9.91454

>  <SCORE.INTER.VDW>
-20.7683

>  <SCORE.INTER.norm>
-0.510934

>  <SCORE.INTRA>
-3.08607

>  <SCORE.INTRA.DIHEDRAL>
0.0388014

>  <SCORE.INTRA.DIHEDRAL.0>
9.29433

>  <SCORE.INTRA.POLAR>
0

>  <SCORE.INTRA.POLAR.0>
0

>  <SCORE.INTRA.REPUL>
0

>  <SCORE.INTRA.REPUL.0>
0

>  <SCORE.INTRA.SOLV>
-1.33184

>  <SCORE.INTRA.SOLV.lig_0>
-48.5102

>  <SCORE.INTRA.VDW>
-2.43955

>  <SCORE.INTRA.VDW.0>
0.379549

>  <SCORE.INTRA.norm>
-0.114299

>  <SCORE.RESTR>
0.0345871

>  <SCORE.RESTR.CAVITY>
0.0345871

>  <SCORE.RESTR.norm>
0.00128101

>  <SCORE.SYSTEM>
0

>  <SCORE.SYSTEM.CONST>
0

>  <SCORE.SYSTEM.DIHEDRAL>
0

>  <SCORE.SYSTEM.SOLV>
0

>  <SCORE.SYSTEM.norm>
0

>  <SCORE.heavy>
27

>  <SCORE.norm>
-0.623952

>  <RMSD>
10.776

$$$$
ligand
 OpenBabel11021811483D
libRbt.so/2013.1/901 2013/11/27
 27 29  0  0  0  0  0  0  0  0999 V2000
   49.1258   52.1839   26.5390 N   0  0  0  0  0  0  0  0  0  0  0  0
   50.5431   52.3512   26.2209 C   0  0  2  0  0  0  0  0  0  0  0  0
   50.7494   53.6845   25.5622 C   0  0  0  0  0  0  0  0  0  0  0  0
   51.7495   54.3466   25.8191 O   0  0  0  0  0  0  0  0  0  0  0  0
   51.0075   51.2477   25.2713 C   0  0  0  0  0  0  0  0  0  0  0  0
   52.4797   51.4518   24.9634 C   0  0  0  0  0  0  0  0  0  0  0  0
   53.1732   50.2072   23.8290 S   0  0  2  0  0  0  0  0  0  0  0  0
   54.8330   50.8304   23.4304 C   0  0  0  0  0  0  0  0  0  0  0  0
   52.5338   50.7484   22.1313 C   0  0  0  0  0  0  0  0  0  0  0  0
   52.5304   52.2893   21.7546 C   0  0  2  0  0  0  0  0  0  0  0  0
   51.4564   53.0862   22.2002 O   0  0  0  0  0  0  0  0  0  0  0  0
   52.8838   52.7347   20.3922 C   0  0  1  0  0  0  0  0  0  0  0  0
   53.5734   51.7315   19.6455 O   0  0  0  0  0  0  0  0  0  0  0  0
   51.3890   53.0434   19.9066 C   0  0  2  0  0  0  0  0  0  0  0  0
   51.3951   53.7423   18.6982 O   0  0  0  0  0  0  0  0  0  0  0  0
   50.8942   53.8979   21.0720 C   0  0  1  0  0  0  0  0  0  0  0  0
   49.9380   54.0876   24.7387 O   0  0  0  0  0  0  0  0  0  0  0  0
   46.3269   52.0055   19.7721 N   0  0  0  0  0  0  0  0  0  0  0  0
   47.5435   51.7762   19.2709 C   0  0  0  0  0  0  0  0  0  0  0  0
   48.6213   52.3644   19.7814 N   0  0  0  0  0  0  0  0  0  0  0  0
   48.5220   53.2908   20.7480 C   0  0  0  0  0  0  0  0  0  0  0  0
   47.2440   53.6099   21.2753 C   0  0  0  0  0  0  0  0  0  0  0  0
   46.1219   52.9132   20.7470 C   0  0  0  0  0  0  0  0  0  0  0  0
   44.8470   53.1548   21.2172 N   0  0  0  0  0  0  0  0  0  0  0  0
   47.4244   54.5569   22.2126 N   0  0  0  0  0  0  0  0  0  0  0  0
   48.6955   54.8458   22.2977 C   0  0  0  0  0  0  0  0  0  0  0  0
   49.4258   54.0882   21.4255 N   0  0  0  0  0  0  0  0  0  0  0  0
  2  1  1  6  0  0  0
  2  3  1  0  0  0  0
  2  5  1  0  0  0  0
  3  4  1  0  0  0  0
  3 17  1  0  0  0  0
  5  6  1  0  0  0  0
  7  6  1  1  0  0  0
  7  8  1  0  0  0  0
  7  9  1  0  0  0  0
 10  9  1  6  0  0  0
 10 11  1  0  0  0  0
 10 12  1  0  0  0  0
 11 16  1  0  0  0  0
 12 13  1  6  0  0  0
 12 14  1  0  0  0  0
 14 15  1  6  0  0  0
 14 16  1  0  0  0  0
 16 27  1  1  0  0  0
 18 19  2  0  0  0  0
 18 23  1  0  0  0  0
 19 20  1  0  0  0  0
 20 21  2  0  0  0  0
 21 22  1  0  0  0  0
 21 27  1  0  0  0  0
 22 23  2  0  0  0  0
 22 25  1  0  0  0  0
 23 24  1  0  0  0  0
 25 26  2  0  0  0  0
 26 27  1  0  0  0  0
M  END
>  <CHROM.1>
141.67402300,-179.98381813,-179.70869536,171.28602119,41.71025151,-82.62561388
-102.56223602,50.41760537,52.62445488,22.35505837,0.55092913,-0.30019424
1.55280075

>  <Name>
ligand

>  <RI>
0

>  <Rbt.Current_Directory>
/home/itssahil/PROJECTS/Mol_Feturizer/New_Systems/rnas/3IQR

>  <Rbt.Executable>
rbdock ($Id: //depot/dev/client3/rdock/2013.1/src/exe/rbdock.cxx#4 $)

>  <Rbt.Library>
libRbt.so (2013.1, Build901 2013/11/27)

>  <Rbt.Parameter_File>
/export/apps/rDock/src/rDock_2013.1_src/data/scripts/dock_solv.prm

>  <Rbt.Receptor>
prm/blind_docking_80.prm

>  <SCORE>
-17.7654

>  <SCORE.INTER>
-11.7673

>  <SCORE.INTER.CONST>
1

>  <SCORE.INTER.POLAR>
0

>  <SCORE.INTER.ROT>
7

>  <SCORE.INTER.SOLV>
13.0019

>  <SCORE.INTER.VDW>
-20.4455

>  <SCORE.INTER.norm>
-0.435826

>  <SCORE.INTRA>
-6.00848

>  <SCORE.INTRA.DIHEDRAL>
-3.88906

>  <SCORE.INTRA.DIHEDRAL.0>
9.29433

>  <SCORE.INTRA.POLAR>
0

>  <SCORE.INTRA.POLAR.0>
0

>  <SCORE.INTRA.REPUL>
0

>  <SCORE.INTRA.REPUL.0>
0

>  <SCORE.INTRA.SOLV>
-1.49976

>  <SCORE.INTRA.SOLV.lig_0>
-48.5102

>  <SCORE.INTRA.VDW>
-3.31407

>  <SCORE.INTRA.VDW.0>
0.379549

>  <SCORE.INTRA.norm>
-0.222536

>  <SCORE.RESTR>
0.0103717

>  <SCORE.RESTR.CAVITY>
0.0103717

>  <SCORE.RESTR.norm>
0.000384136

>  <SCORE.SYSTEM>
0

>  <SCORE.SYSTEM.CONST>
0

>  <SCORE.SYSTEM.DIHEDRAL>
0

>  <SCORE.SYSTEM.SOLV>
0

>  <SCORE.SYSTEM.norm>
0

>  <SCORE.heavy>
27

>  <SCORE.norm>
-0.657979

>  <RMSD>
10.795

$$$$
ligand
 OpenBabel11021811483D
libRbt.so/2013.1/901 2013/11/27
 27 29  0  0  0  0  0  0  0  0999 V2000
   47.2948   53.0114   22.2390 N   0  0  0  0  0  0  0  0  0  0  0  0
   47.1577   53.7110   20.9624 C   0  0  2  0  0  0  0  0  0  0  0  0
   45.7303   53.6314   20.5039 C   0  0  0  0  0  0  0  0  0  0  0  0
   44.9798   52.7866   20.9810 O   0  0  0  0  0  0  0  0  0  0  0  0
   48.0580   53.0702   19.9069 C   0  0  0  0  0  0  0  0  0  0  0  0
   49.5072   53.2615   20.3156 C   0  0  0  0  0  0  0  0  0  0  0  0
   50.5555   53.9616   19.0012 S   0  0  2  0  0  0  0  0  0  0  0  0
   50.5500   52.6988   17.6944 C   0  0  0  0  0  0  0  0  0  0  0  0
   52.3070   53.4594   19.5151 C   0  0  0  0  0  0  0  0  0  0  0  0
   52.5831   51.9720   19.9920 C   0  0  2  0  0  0  0  0  0  0  0  0
   51.9139   51.5006   21.1396 O   0  0  0  0  0  0  0  0  0  0  0  0
   53.9560   51.4301   20.0196 C   0  0  1  0  0  0  0  0  0  0  0  0
   54.8687   52.2000   19.2362 O   0  0  0  0  0  0  0  0  0  0  0  0
   54.1610   51.5303   21.6050 C   0  0  2  0  0  0  0  0  0  0  0  0
   55.3081   50.8400   22.0008 O   0  0  0  0  0  0  0  0  0  0  0  0
   52.8786   50.8564   22.0893 C   0  0  1  0  0  0  0  0  0  0  0  0
   45.3092   54.4378   19.6846 O   0  0  0  0  0  0  0  0  0  0  0  0
   50.6269   54.5750   24.7785 N   0  0  0  0  0  0  0  0  0  0  0  0
   51.2034   54.5930   23.5738 C   0  0  0  0  0  0  0  0  0  0  0  0
   51.7155   53.4888   23.0384 N   0  0  0  0  0  0  0  0  0  0  0  0
   51.7704   52.3372   23.7262 C   0  0  0  0  0  0  0  0  0  0  0  0
   51.2203   52.2821   25.0330 C   0  0  0  0  0  0  0  0  0  0  0  0
   50.6248   53.4676   25.5464 C   0  0  0  0  0  0  0  0  0  0  0  0
   50.0542   53.4919   26.8029 N   0  0  0  0  0  0  0  0  0  0  0  0
   51.4093   51.0328   25.4929 N   0  0  0  0  0  0  0  0  0  0  0  0
   52.0296   50.3264   24.5860 C   0  0  0  0  0  0  0  0  0  0  0  0
   52.2700   51.0742   23.4675 N   0  0  0  0  0  0  0  0  0  0  0  0
  2  1  1  1  0  0  0
  2  3  1  0  0  0  0
  2  5  1  0  0  0  0
  3  4  1  0  0  0  0
  3 17  1  0  0  0  0
  5  6  1  0  0  0  0
  7  6  1  1  0  0  0
  7  8  1  0  0  0  0
  7  9  1  0  0  0  0
 10  9  1  1  0  0  0
 10 11  1  0  0  0  0
 10 12  1  0  0  0  0
 11 16  1  0  0  0  0
 12 13  1  6  0  0  0
 12 14  1  0  0  0  0
 14 15  1  6  0  0  0
 14 16  1  0  0  0  0
 16 27  1  1  0  0  0
 18 19  2  0  0  0  0
 18 23  1  0  0  0  0
 19 20  1  0  0  0  0
 20 21  2  0  0  0  0
 21 22  1  0  0  0  0
 21 27  1  0  0  0  0
 22 23  2  0  0  0  0
 22 25  1  0  0  0  0
 23 24  1  0  0  0  0
 25 26  2  0  0  0  0
 26 27  1  0  0  0  0
M  END
>  <CHROM.1>
-18.19718280,-64.88563633,-129.08035023,-64.23552063,45.57986707,-61.69250613
-44.31558198,50.71808649,52.69029536,21.73323834,2.84021490,0.27631070,-1.51417206

>  <Name>
ligand

>  <RI>
0

>  <Rbt.Current_Directory>
/home/itssahil/PROJECTS/Mol_Feturizer/New_Systems/rnas/3IQR

>  <Rbt.Executable>
rbdock ($Id: //depot/dev/client3/rdock/2013.1/src/exe/rbdock.cxx#4 $)

>  <Rbt.Library>
libRbt.so (2013.1, Build901 2013/11/27)

>  <Rbt.Parameter_File>
/export/apps/rDock/src/rDock_2013.1_src/data/scripts/dock_solv.prm

>  <Rbt.Receptor>
prm/blind_docking_80.prm

>  <SCORE>
-17.3308

>  <SCORE.INTER>
-13.8825

>  <SCORE.INTER.CONST>
1

>  <SCORE.INTER.POLAR>
0

>  <SCORE.INTER.ROT>
7

>  <SCORE.INTER.SOLV>
9.84036

>  <SCORE.INTER.VDW>
-20.8018

>  <SCORE.INTER.norm>
-0.514166

>  <SCORE.INTRA>
-3.44835

>  <SCORE.INTRA.DIHEDRAL>
0.422281

>  <SCORE.INTRA.DIHEDRAL.0>
9.29433

>  <SCORE.INTRA.POLAR>
0

>  <SCORE.INTRA.POLAR.0>
0

>  <SCORE.INTRA.REPUL>
0

>  <SCORE.INTRA.REPUL.0>
0

>  <SCORE.INTRA.SOLV>
-1.02316

>  <SCORE.INTRA.SOLV.lig_0>
-48.5102

>  <SCORE.INTRA.VDW>
-3.14791

>  <SCORE.INTRA.VDW.0>
0.379549

>  <SCORE.INTRA.norm>
-0.127717

>  <SCORE.RESTR>
0

>  <SCORE.RESTR.CAVITY>
0

>  <SCORE.RESTR.norm>
0

>  <SCORE.SYSTEM>
0

>  <SCORE.SYSTEM.CONST>
0

>  <SCORE.SYSTEM.DIHEDRAL>
0

>  <SCORE.SYSTEM.SOLV>
0

>  <SCORE.SYSTEM.norm>
0

>  <SCORE.heavy>
27

>  <SCORE.norm>
-0.641883

>  <RMSD>
10.825

$$$$
ligand
 OpenBabel11021811483D
libRbt.so/2013.1/901 2013/11/27
 27 29  0  0  0  0  0  0  0  0999 V2000
   53.1028   52.1267   23.0859 N   0  0  0  0  0  0  0  0  0  0  0  0
   53.2751   50.8073   23.6921 C   0  0  2  0  0  0  0  0  0  0  0  0
   53.4797   49.7871   22.6097 C   0  0  0  0  0  0  0  0  0  0  0  0
   54.1033   48.7581   22.8477 O   0  0  0  0  0  0  0  0  0  0  0  0
   52.0372   50.4315   24.5054 C   0  0  0  0  0  0  0  0  0  0  0  0
   51.9840   51.3000   25.7490 C   0  0  0  0  0  0  0  0  0  0  0  0
   51.1752   52.9106   25.4871 S   0  0  2  0  0  0  0  0  0  0  0  0
   51.1562   53.6825   27.1321 C   0  0  0  0  0  0  0  0  0  0  0  0
   49.3304   52.5089   25.6257 C   0  0  0  0  0  0  0  0  0  0  0  0
   48.3868   52.7359   24.3709 C   0  0  2  0  0  0  0  0  0  0  0  0
   48.8095   52.2490   23.1173 O   0  0  0  0  0  0  0  0  0  0  0  0
   47.7276   54.0377   24.1471 C   0  0  1  0  0  0  0  0  0  0  0  0
   47.7104   54.8557   25.3176 O   0  0  0  0  0  0  0  0  0  0  0  0
   48.7005   54.5371   22.9769 C   0  0  2  0  0  0  0  0  0  0  0  0
   48.1813   55.6721   22.3515 O   0  0  0  0  0  0  0  0  0  0  0  0
   48.6846   53.3108   22.0663 C   0  0  1  0  0  0  0  0  0  0  0  0
   52.9871   49.9675   21.5035 O   0  0  0  0  0  0  0  0  0  0  0  0
   50.3858   54.9768   17.5429 N   0  0  0  0  0  0  0  0  0  0  0  0
   49.3188   55.3351   18.2620 C   0  0  0  0  0  0  0  0  0  0  0  0
   49.0688   54.7835   19.4459 N   0  0  0  0  0  0  0  0  0  0  0  0
   49.8144   53.7723   19.9189 C   0  0  0  0  0  0  0  0  0  0  0  0
   50.9272   53.3182   19.1648 C   0  0  0  0  0  0  0  0  0  0  0  0
   51.1994   53.9759   17.9332 C   0  0  0  0  0  0  0  0  0  0  0  0
   52.2723   53.6039   17.1486 N   0  0  0  0  0  0  0  0  0  0  0  0
   51.4899   52.3091   19.8524 N   0  0  0  0  0  0  0  0  0  0  0  0
   50.8159   52.1055   20.9527 C   0  0  0  0  0  0  0  0  0  0  0  0
   49.7755   52.9861   21.0556 N   0  0  0  0  0  0  0  0  0  0  0  0
  2  1  1  6  0  0  0
  2  3  1  0  0  0  0
  2  5  1  0  0  0  0
  3  4  1  0  0  0  0
  3 17  1  0  0  0  0
  5  6  1  0  0  0  0
  7  6  1  1  0  0  0
  7  8  1  0  0  0  0
  7  9  1  0  0  0  0
 10  9  1  1  0  0  0
 10 11  1  0  0  0  0
 10 12  1  0  0  0  0
 11 16  1  0  0  0  0
 12 13  1  1  0  0  0
 12 14  1  0  0  0  0
 14 15  1  6  0  0  0
 14 16  1  0  0  0  0
 16 27  1  6  0  0  0
 18 19  2  0  0  0  0
 18 23  1  0  0  0  0
 19 20  1  0  0  0  0
 20 21  2  0  0  0  0
 21 22  1  0  0  0  0
 21 27  1  0  0  0  0
 22 23  2  0  0  0  0
 22 25  1  0  0  0  0
 23 24  1  0  0  0  0
 25 26  2  0  0  0  0
 26 27  1  0  0  0  0
M  END
>  <CHROM.1>
153.59289880,-70.70974399,85.69547021,176.52234359,-117.36680679,47.48230924
175.49135561,50.61694702,52.82788087,22.38902570,-1.40650978,0.71743603,-1.36059111

>  <Name>
ligand

>  <RI>
0

>  <Rbt.Current_Directory>
/home/itssahil/PROJECTS/Mol_Feturizer/New_Systems/rnas/3IQR

>  <Rbt.Executable>
rbdock ($Id: //depot/dev/client3/rdock/2013.1/src/exe/rbdock.cxx#4 $)

>  <Rbt.Library>
libRbt.so (2013.1, Build901 2013/11/27)

>  <Rbt.Parameter_File>
/export/apps/rDock/src/rDock_2013.1_src/data/scripts/dock_solv.prm

>  <Rbt.Receptor>
prm/blind_docking_80.prm

>  <SCORE>
-19.0556

>  <SCORE.INTER>
-15.5657

>  <SCORE.INTER.CONST>
1

>  <SCORE.INTER.POLAR>
0

>  <SCORE.INTER.ROT>
7

>  <SCORE.INTER.SOLV>
6.45983

>  <SCORE.INTER.VDW>
-20.7971

>  <SCORE.INTER.norm>
-0.576508

>  <SCORE.INTRA>
-3.48991

>  <SCORE.INTRA.DIHEDRAL>
1.878

>  <SCORE.INTRA.DIHEDRAL.0>
9.29433

>  <SCORE.INTRA.POLAR>
0

>  <SCORE.INTRA.POLAR.0>
0

>  <SCORE.INTRA.REPUL>
0

>  <SCORE.INTRA.REPUL.0>
0

>  <SCORE.INTRA.SOLV>
1.02262

>  <SCORE.INTRA.SOLV.lig_0>
-48.5102

>  <SCORE.INTRA.VDW>
-4.94022

>  <SCORE.INTRA.VDW.0>
0.379549

>  <SCORE.INTRA.norm>
-0.129256

>  <SCORE.RESTR>
0

>  <SCORE.RESTR.CAVITY>
0

>  <SCORE.RESTR.norm>
0

>  <SCORE.SYSTEM>
0

>  <SCORE.SYSTEM.CONST>
0

>  <SCORE.SYSTEM.DIHEDRAL>
0

>  <SCORE.SYSTEM.SOLV>
0

>  <SCORE.SYSTEM.norm>
0

>  <SCORE.heavy>
27

>  <SCORE.norm>
-0.705764

>  <RMSD>
11.137

$$$$
ligand
 OpenBabel11021811483D
libRbt.so/2013.1/901 2013/11/27
 27 29  0  0  0  0  0  0  0  0999 V2000
   51.8903   54.4457   18.1659 N   0  0  0  0  0  0  0  0  0  0  0  0
   51.3268   53.0980   18.2299 C   0  0  2  0  0  0  0  0  0  0  0  0
   51.3538   52.4836   16.8603 C   0  0  0  0  0  0  0  0  0  0  0  0
   50.9669   53.1289   15.8915 O   0  0  0  0  0  0  0  0  0  0  0  0
   49.8822   53.1500   18.7257 C   0  0  0  0  0  0  0  0  0  0  0  0
   49.8523   53.8324   20.0812 C   0  0  0  0  0  0  0  0  0  0  0  0
   48.1733   54.0879   20.7388 S   0  0  2  0  0  0  0  0  0  0  0  0
   48.3727   55.3749   22.0063 C   0  0  0  0  0  0  0  0  0  0  0  0
   48.0132   52.7583   22.0769 C   0  0  0  0  0  0  0  0  0  0  0  0
   48.6297   53.0211   23.5146 C   0  0  2  0  0  0  0  0  0  0  0  0
   50.0194   52.8602   23.6879 O   0  0  0  0  0  0  0  0  0  0  0  0
   47.9643   52.5060   24.7276 C   0  0  1  0  0  0  0  0  0  0  0  0
   46.6031   52.1406   24.4969 O   0  0  0  0  0  0  0  0  0  0  0  0
   48.9676   51.2838   24.9823 C   0  0  2  0  0  0  0  0  0  0  0  0
   48.7540   50.7219   26.2423 O   0  0  0  0  0  0  0  0  0  0  0  0
   50.3094   52.0073   24.8863 C   0  0  1  0  0  0  0  0  0  0  0  0
   51.8011   51.3539   16.7097 O   0  0  0  0  0  0  0  0  0  0  0  0
   53.1633   50.8427   20.8083 N   0  0  0  0  0  0  0  0  0  0  0  0
   51.9461   51.3853   20.8979 C   0  0  0  0  0  0  0  0  0  0  0  0
   51.3866   51.6314   22.0789 N   0  0  0  0  0  0  0  0  0  0  0  0
   51.9725   51.2496   23.2247 C   0  0  0  0  0  0  0  0  0  0  0  0
   53.2424   50.6184   23.1785 C   0  0  0  0  0  0  0  0  0  0  0  0
   53.8369   50.4297   21.9000 C   0  0  0  0  0  0  0  0  0  0  0  0
   55.0770   49.8377   21.7710 N   0  0  0  0  0  0  0  0  0  0  0  0
   53.5951   50.3385   24.4455 N   0  0  0  0  0  0  0  0  0  0  0  0
   52.6514   50.7371   25.2560 C   0  0  0  0  0  0  0  0  0  0  0  0
   51.6274   51.3182   24.5619 N   0  0  0  0  0  0  0  0  0  0  0  0
  2  1  1  6  0  0  0
  2  3  1  0  0  0  0
  2  5  1  0  0  0  0
  3  4  1  0  0  0  0
  3 17  1  0  0  0  0
  5  6  1  0  0  0  0
  7  6  1  6  0  0  0
  7  8  1  0  0  0  0
  7  9  1  0  0  0  0
 10  9  1  6  0  0  0
 10 11  1  0  0  0  0
 10 12  1  0  0  0  0
 11 16  1  0  0  0  0
 12 13  1  6  0  0  0
 12 14  1  0  0  0  0
 14 15  1  1  0  0  0
 14 16  1  0  0  0  0
 16 27  1  6  0  0  0
 18 19  2  0  0  0  0
 18 23  1  0  0  0  0
 19 20  1  0  0  0  0
 20 21  2  0  0  0  0
 21 22  1  0  0  0  0
 21 27  1  0  0  0  0
 22 23  2  0  0  0  0
 22 25  1  0  0  0  0
 23 24  1  0  0  0  0
 25 26  2  0  0  0  0
 26 27  1  0  0  0  0
M  END
>  <CHROM.1>
-46.49147342,-57.24839605,175.30763492,-161.10746816,81.64252326,-78.69933389
-20.79875247,50.59910722,52.22272432,21.77544442,1.34968392,0.48043074,-1.28781990

>  <Name>
ligand

>  <RI>
0

>  <Rbt.Current_Directory>
/home/itssahil/PROJECTS/Mol_Feturizer/New_Systems/rnas/3IQR

>  <Rbt.Executable>
rbdock ($Id: //depot/dev/client3/rdock/2013.1/src/exe/rbdock.cxx#4 $)

>  <Rbt.Library>
libRbt.so (2013.1, Build901 2013/11/27)

>  <Rbt.Parameter_File>
/export/apps/rDock/src/rDock_2013.1_src/data/scripts/dock_solv.prm

>  <Rbt.Receptor>
prm/blind_docking_80.prm

>  <SCORE>
-14.8143

>  <SCORE.INTER>
-14.3838

>  <SCORE.INTER.CONST>
1

>  <SCORE.INTER.POLAR>
0

>  <SCORE.INTER.ROT>
7

>  <SCORE.INTER.SOLV>
10.5309

>  <SCORE.INTER.VDW>
-21.3661

>  <SCORE.INTER.norm>
-0.532732

>  <SCORE.INTRA>
-0.430561

>  <SCORE.INTRA.DIHEDRAL>
-0.135566

>  <SCORE.INTRA.DIHEDRAL.0>
9.29433

>  <SCORE.INTRA.POLAR>
0

>  <SCORE.INTRA.POLAR.0>
0

>  <SCORE.INTRA.REPUL>
0

>  <SCORE.INTRA.REPUL.0>
0

>  <SCORE.INTRA.SOLV>
-0.905466

>  <SCORE.INTRA.SOLV.lig_0>
-48.5102

>  <SCORE.INTRA.VDW>
0.0899548

>  <SCORE.INTRA.VDW.0>
0.379549

>  <SCORE.INTRA.norm>
-0.0159467

>  <SCORE.RESTR>
0

>  <SCORE.RESTR.CAVITY>
0

>  <SCORE.RESTR.norm>
0

>  <SCORE.SYSTEM>
0

>  <SCORE.SYSTEM.CONST>
0

>  <SCORE.SYSTEM.DIHEDRAL>
0

>  <SCORE.SYSTEM.SOLV>
0

>  <SCORE.SYSTEM.norm>
0

>  <SCORE.heavy>
27

>  <SCORE.norm>
-0.548679

>  <RMSD>
11.246

$$$$
ligand
 OpenBabel11021811483D
libRbt.so/2013.1/901 2013/11/27
 27 29  0  0  0  0  0  0  0  0999 V2000
   50.6201   54.2588   16.3667 N   0  0  0  0  0  0  0  0  0  0  0  0
   51.9244   53.8103   16.8518 C   0  0  2  0  0  0  0  0  0  0  0  0
   52.9909   54.2610   15.8960 C   0  0  0  0  0  0  0  0  0  0  0  0
   54.1149   53.7740   15.9582 O   0  0  0  0  0  0  0  0  0  0  0  0
   51.9569   52.2859   16.9540 C   0  0  0  0  0  0  0  0  0  0  0  0
   52.9771   51.8855   18.0041 C   0  0  0  0  0  0  0  0  0  0  0  0
   52.4335   52.1973   19.7141 S   0  0  2  0  0  0  0  0  0  0  0  0
   53.1084   53.8365   20.1137 C   0  0  0  0  0  0  0  0  0  0  0  0
   53.7694   51.3626   20.7641 C   0  0  0  0  0  0  0  0  0  0  0  0
   53.3679   50.1756   21.7367 C   0  0  2  0  0  0  0  0  0  0  0  0
   52.3373   50.3955   22.6732 O   0  0  0  0  0  0  0  0  0  0  0  0
   54.4036   49.3548   22.3946 C   0  0  1  0  0  0  0  0  0  0  0  0
   55.6835   49.4802   21.7737 O   0  0  0  0  0  0  0  0  0  0  0  0
   54.2766   50.0258   23.8434 C   0  0  2  0  0  0  0  0  0  0  0  0
   54.9727   49.2809   24.7971 O   0  0  0  0  0  0  0  0  0  0  0  0
   52.7637   49.9605   24.0431 C   0  0  1  0  0  0  0  0  0  0  0  0
   52.7227   55.0841   15.0302 O   0  0  0  0  0  0  0  0  0  0  0  0
   50.9288   54.7285   24.2178 N   0  0  0  0  0  0  0  0  0  0  0  0
   51.6919   54.1177   23.3074 C   0  0  0  0  0  0  0  0  0  0  0  0
   52.0415   52.8422   23.4451 N   0  0  0  0  0  0  0  0  0  0  0  0
   51.7334   52.1470   24.5515 C   0  0  0  0  0  0  0  0  0  0  0  0
   50.9706   52.7699   25.5730 C   0  0  0  0  0  0  0  0  0  0  0  0
   50.5618   54.1157   25.3606 C   0  0  0  0  0  0  0  0  0  0  0  0
   49.8047   54.7871   26.2991 N   0  0  0  0  0  0  0  0  0  0  0  0
   50.8096   51.8677   26.5569 N   0  0  0  0  0  0  0  0  0  0  0  0
   51.4107   50.7556   26.2277 C   0  0  0  0  0  0  0  0  0  0  0  0
   51.9903   50.8627   24.9945 N   0  0  0  0  0  0  0  0  0  0  0  0
  2  1  1  6  0  0  0
  2  3  1  0  0  0  0
  2  5  1  0  0  0  0
  3  4  1  0  0  0  0
  3 17  1  0  0  0  0
  5  6  1  0  0  0  0
  7  6  1  6  0  0  0
  7  8  1  0  0  0  0
  7  9  1  0  0  0  0
 10  9  1  1  0  0  0
 10 11  1  0  0  0  0
 10 12  1  0  0  0  0
 11 16  1  0  0  0  0
 12 13  1  6  0  0  0
 12 14  1  0  0  0  0
 14 15  1  1  0  0  0
 14 16  1  0  0  0  0
 16 27  1  1  0  0  0
 18 19  2  0  0  0  0
 18 23  1  0  0  0  0
 19 20  1  0  0  0  0
 20 21  2  0  0  0  0
 21 22  1  0  0  0  0
 21 27  1  0  0  0  0
 22 23  2  0  0  0  0
 22 25  1  0  0  0  0
 23 24  1  0  0  0  0
 25 26  2  0  0  0  0
 26 27  1  0  0  0  0
M  END
>  <CHROM.1>
-165.35481487,-154.03001125,73.55437235,-94.06680526,-118.80134505,-54.03365630
-32.76261219,52.51347271,52.21963582,21.56112136,1.45043919,0.89180154,-1.25160519

>  <Name>
ligand

>  <RI>
0

>  <Rbt.Current_Directory>
/home/itssahil/PROJECTS/Mol_Feturizer/New_Systems/rnas/3IQR

>  <Rbt.Executable>
rbdock ($Id: //depot/dev/client3/rdock/2013.1/src/exe/rbdock.cxx#4 $)

>  <Rbt.Library>
libRbt.so (2013.1, Build901 2013/11/27)

>  <Rbt.Parameter_File>
/export/apps/rDock/src/rDock_2013.1_src/data/scripts/dock_solv.prm

>  <Rbt.Receptor>
prm/blind_docking_80.prm

>  <SCORE>
-12.7391

>  <SCORE.INTER>
-11.0219

>  <SCORE.INTER.CONST>
1

>  <SCORE.INTER.POLAR>
0

>  <SCORE.INTER.ROT>
7

>  <SCORE.INTER.SOLV>
15.4664

>  <SCORE.INTER.VDW>
-20.77

>  <SCORE.INTER.norm>
-0.408218

>  <SCORE.INTRA>
-1.73084

>  <SCORE.INTRA.DIHEDRAL>
3.16373

>  <SCORE.INTRA.DIHEDRAL.0>
9.29433

>  <SCORE.INTRA.POLAR>
0

>  <SCORE.INTRA.POLAR.0>
0

>  <SCORE.INTRA.REPUL>
0

>  <SCORE.INTRA.REPUL.0>
0

>  <SCORE.INTRA.SOLV>
-1.3358

>  <SCORE.INTRA.SOLV.lig_0>
-48.5102

>  <SCORE.INTRA.VDW>
-2.6448

>  <SCORE.INTRA.VDW.0>
0.379549

>  <SCORE.INTRA.norm>
-0.0641052

>  <SCORE.RESTR>
0.0136569

>  <SCORE.RESTR.CAVITY>
0.0136569

>  <SCORE.RESTR.norm>
0.000505812

>  <SCORE.SYSTEM>
0

>  <SCORE.SYSTEM.CONST>
0

>  <SCORE.SYSTEM.DIHEDRAL>
0

>  <SCORE.SYSTEM.SOLV>
0

>  <SCORE.SYSTEM.norm>
0

>  <SCORE.heavy>
27

>  <SCORE.norm>
-0.471817

>  <RMSD>
11.292

$$$$
ligand
 OpenBabel11021811483D
libRbt.so/2013.1/901 2013/11/27
 27 29  0  0  0  0  0  0  0  0999 V2000
   51.0412   55.3290   17.4300 N   0  0  0  0  0  0  0  0  0  0  0  0
   51.2621   53.8888   17.5523 C   0  0  2  0  0  0  0  0  0  0  0  0
   51.1845   53.2578   16.1922 C   0  0  0  0  0  0  0  0  0  0  0  0
   50.2763   53.5627   15.4263 O   0  0  0  0  0  0  0  0  0  0  0  0
   50.1987   53.2637   18.4544 C   0  0  0  0  0  0  0  0  0  0  0  0
   50.2999   53.8841   19.8359 C   0  0  0  0  0  0  0  0  0  0  0  0
   49.0737   53.2444   21.0208 S   0  0  2  0  0  0  0  0  0  0  0  0
   47.4890   53.9229   20.4458 C   0  0  0  0  0  0  0  0  0  0  0  0
   49.1272   54.4999   22.4368 C   0  0  0  0  0  0  0  0  0  0  0  0
   49.3588   53.9912   23.9213 C   0  0  2  0  0  0  0  0  0  0  0  0
   50.6140   53.4425   24.2540 O   0  0  0  0  0  0  0  0  0  0  0  0
   48.3253   53.2011   24.6190 C   0  0  1  0  0  0  0  0  0  0  0  0
   47.0418   53.3039   24.0011 O   0  0  0  0  0  0  0  0  0  0  0  0
   49.0469   51.7794   24.4663 C   0  0  2  0  0  0  0  0  0  0  0  0
   48.4247   50.8195   25.2666 O   0  0  0  0  0  0  0  0  0  0  0  0
   50.4491   52.1303   24.9601 C   0  0  1  0  0  0  0  0  0  0  0  0
   52.0528   52.4712   15.8367 O   0  0  0  0  0  0  0  0  0  0  0  0
   53.1157   50.7654   20.8180 N   0  0  0  0  0  0  0  0  0  0  0  0
   51.9486   51.4041   20.9356 C   0  0  0  0  0  0  0  0  0  0  0  0
   51.4350   51.6870   22.1291 N   0  0  0  0  0  0  0  0  0  0  0  0
   52.0112   51.2514   23.2607 C   0  0  0  0  0  0  0  0  0  0  0  0
   53.2246   50.5200   23.1849 C   0  0  0  0  0  0  0  0  0  0  0  0
   53.7757   50.2921   21.8934 C   0  0  0  0  0  0  0  0  0  0  0  0
   54.9609   49.6026   21.7358 N   0  0  0  0  0  0  0  0  0  0  0  0
   53.5791   50.2041   24.4429 N   0  0  0  0  0  0  0  0  0  0  0  0
   52.6875   50.6724   25.2749 C   0  0  0  0  0  0  0  0  0  0  0  0
   51.7001   51.3390   24.6050 N   0  0  0  0  0  0  0  0  0  0  0  0
  2  1  1  6  0  0  0
  2  3  1  0  0  0  0
  2  5  1  0  0  0  0
  3  4  1  0  0  0  0
  3 17  1  0  0  0  0
  5  6  1  0  0  0  0
  7  6  1  6  0  0  0
  7  8  1  0  0  0  0
  7  9  1  0  0  0  0
 10  9  1  6  0  0  0
 10 11  1  0  0  0  0
 10 12  1  0  0  0  0
 11 16  1  0  0  0  0
 12 13  1  6  0  0  0
 12 14  1  0  0  0  0
 14 15  1  1  0  0  0
 14 16  1  0  0  0  0
 16 27  1  6  0  0  0
 18 19  2  0  0  0  0
 18 23  1  0  0  0  0
 19 20  1  0  0  0  0
 20 21  2  0  0  0  0
 21 22  1  0  0  0  0
 21 27  1  0  0  0  0
 22 23  2  0  0  0  0
 22 25  1  0  0  0  0
 23 24  1  0  0  0  0
 25 26  2  0  0  0  0
 26 27  1  0  0  0  0
M  END
>  <CHROM.1>
-45.42192930,-61.10226258,179.37147318,-70.58325607,-126.86887648,67.74074569
-51.38780164,50.72104578,52.44130625,21.57173925,1.54267367,0.53517177,-1.30709737

>  <Name>
ligand

>  <RI>
0

>  <Rbt.Current_Directory>
/home/itssahil/PROJECTS/Mol_Feturizer/New_Systems/rnas/3IQR

>  <Rbt.Executable>
rbdock ($Id: //depot/dev/client3/rdock/2013.1/src/exe/rbdock.cxx#4 $)

>  <Rbt.Library>
libRbt.so (2013.1, Build901 2013/11/27)

>  <Rbt.Parameter_File>
/export/apps/rDock/src/rDock_2013.1_src/data/scripts/dock_solv.prm

>  <Rbt.Receptor>
prm/blind_docking_80.prm

>  <SCORE>
-20.1608

>  <SCORE.INTER>
-15.162

>  <SCORE.INTER.CONST>
1

>  <SCORE.INTER.POLAR>
0

>  <SCORE.INTER.ROT>
7

>  <SCORE.INTER.SOLV>
11.2701

>  <SCORE.INTER.VDW>
-22.1314

>  <SCORE.INTER.norm>
-0.561556

>  <SCORE.INTRA>
-4.99881

>  <SCORE.INTRA.DIHEDRAL>
-0.598849

>  <SCORE.INTRA.DIHEDRAL.0>
9.29433

>  <SCORE.INTRA.POLAR>
0

>  <SCORE.INTRA.POLAR.0>
0

>  <SCORE.INTRA.REPUL>
0

>  <SCORE.INTRA.REPUL.0>
0

>  <SCORE.INTRA.SOLV>
-0.737011

>  <SCORE.INTRA.SOLV.lig_0>
-48.5102

>  <SCORE.INTRA.VDW>
-4.33088

>  <SCORE.INTRA.VDW.0>
0.379549

>  <SCORE.INTRA.norm>
-0.185141

>  <SCORE.RESTR>
0

>  <SCORE.RESTR.CAVITY>
0

>  <SCORE.RESTR.norm>
0

>  <SCORE.SYSTEM>
0

>  <SCORE.SYSTEM.CONST>
0

>  <SCORE.SYSTEM.DIHEDRAL>
0

>  <SCORE.SYSTEM.SOLV>
0

>  <SCORE.SYSTEM.norm>
0

>  <SCORE.heavy>
27

>  <SCORE.norm>
-0.746698

>  <RMSD>
11.359

$$$$
ligand
 OpenBabel11021811483D
libRbt.so/2013.1/901 2013/11/27
 27 29  0  0  0  0  0  0  0  0999 V2000
   44.3226   51.5231   18.9946 N   0  0  0  0  0  0  0  0  0  0  0  0
   43.8031   52.0340   20.2623 C   0  0  2  0  0  0  0  0  0  0  0  0
   42.6348   52.9373   19.9917 C   0  0  0  0  0  0  0  0  0  0  0  0
   42.6496   53.6830   19.0180 O   0  0  0  0  0  0  0  0  0  0  0  0
   44.8845   52.8231   20.9993 C   0  0  0  0  0  0  0  0  0  0  0  0
   45.4197   53.9029   20.0765 C   0  0  0  0  0  0  0  0  0  0  0  0
   47.2211   54.1434   20.1933 S   0  0  2  0  0  0  0  0  0  0  0  0
   47.9191   52.4871   19.9258 C   0  0  0  0  0  0  0  0  0  0  0  0
   47.5666   54.0174   22.0504 C   0  0  0  0  0  0  0  0  0  0  0  0
   48.9906   54.4379   22.6087 C   0  0  2  0  0  0  0  0  0  0  0  0
   50.1389   53.9443   21.9567 O   0  0  0  0  0  0  0  0  0  0  0  0
   49.2637   54.4366   24.0594 C   0  0  1  0  0  0  0  0  0  0  0  0
   48.0713   54.4191   24.8451 O   0  0  0  0  0  0  0  0  0  0  0  0
   50.1198   53.0832   24.0839 C   0  0  2  0  0  0  0  0  0  0  0  0
   50.7604   52.9243   25.3140 O   0  0  0  0  0  0  0  0  0  0  0  0
   51.1013   53.3602   22.9467 C   0  0  1  0  0  0  0  0  0  0  0  0
   41.6528   52.8961   20.7218 O   0  0  0  0  0  0  0  0  0  0  0  0
   54.1150   49.3343   23.8636 N   0  0  0  0  0  0  0  0  0  0  0  0
   53.6195   50.2616   24.6874 C   0  0  0  0  0  0  0  0  0  0  0  0
   52.8215   51.2262   24.2390 N   0  0  0  0  0  0  0  0  0  0  0  0
   52.5663   51.3717   22.9291 C   0  0  0  0  0  0  0  0  0  0  0  0
   53.1157   50.4433   22.0073 C   0  0  0  0  0  0  0  0  0  0  0  0
   53.9127   49.3885   22.5324 C   0  0  0  0  0  0  0  0  0  0  0  0
   54.4702   48.4361   21.7035 N   0  0  0  0  0  0  0  0  0  0  0  0
   52.7151   50.8162   20.7791 N   0  0  0  0  0  0  0  0  0  0  0  0
   51.9774   51.8902   20.8714 C   0  0  0  0  0  0  0  0  0  0  0  0
   51.8399   52.2752   22.1756 N   0  0  0  0  0  0  0  0  0  0  0  0
  2  1  1  6  0  0  0
  2  3  1  0  0  0  0
  2  5  1  0  0  0  0
  3  4  1  0  0  0  0
  3 17  1  0  0  0  0
  5  6  1  0  0  0  0
  7  6  1  1  0  0  0
  7  8  1  0  0  0  0
  7  9  1  0  0  0  0
 10  9  1  1  0  0  0
 10 11  1  0  0  0  0
 10 12  1  0  0  0  0
 11 16  1  0  0  0  0
 12 13  1  1  0  0  0
 12 14  1  0  0  0  0
 14 15  1  1  0  0  0
 14 16  1  0  0  0  0
 16 27  1  6  0  0  0
 18 19  2  0  0  0  0
 18 23  1  0  0  0  0
 19 20  1  0  0  0  0
 20 21  2  0  0  0  0
 21 22  1  0  0  0  0
 21 27  1  0  0  0  0
 22 23  2  0  0  0  0
 22 25  1  0  0  0  0
 23 24  1  0  0  0  0
 25 26  2  0  0  0  0
 26 27  1  0  0  0  0
M  END
>  <CHROM.1>
-37.90421977,54.42547958,-140.54976544,53.69780490,-168.72022671,-47.70544884
-165.48162058,48.95588877,52.45624170,21.89921736,-3.08048607,-0.39383136
0.85523263

>  <Name>
ligand

>  <RI>
0

>  <Rbt.Current_Directory>
/home/itssahil/PROJECTS/Mol_Feturizer/New_Systems/rnas/3IQR

>  <Rbt.Executable>
rbdock ($Id: //depot/dev/client3/rdock/2013.1/src/exe/rbdock.cxx#4 $)

>  <Rbt.Library>
libRbt.so (2013.1, Build901 2013/11/27)

>  <Rbt.Parameter_File>
/export/apps/rDock/src/rDock_2013.1_src/data/scripts/dock_solv.prm

>  <Rbt.Receptor>
prm/blind_docking_80.prm

>  <SCORE>
-18.2346

>  <SCORE.INTER>
-16.9812

>  <SCORE.INTER.CONST>
1

>  <SCORE.INTER.POLAR>
0

>  <SCORE.INTER.ROT>
7

>  <SCORE.INTER.SOLV>
19.277

>  <SCORE.INTER.VDW>
-26.0131

>  <SCORE.INTER.norm>
-0.628932

>  <SCORE.INTRA>
-1.25339

>  <SCORE.INTRA.DIHEDRAL>
0.526477

>  <SCORE.INTRA.DIHEDRAL.0>
9.29433

>  <SCORE.INTRA.POLAR>
0

>  <SCORE.INTRA.POLAR.0>
0

>  <SCORE.INTRA.REPUL>
0

>  <SCORE.INTRA.REPUL.0>
0

>  <SCORE.INTRA.SOLV>
0.0959684

>  <SCORE.INTRA.SOLV.lig_0>
-48.5102

>  <SCORE.INTRA.VDW>
-1.56461

>  <SCORE.INTRA.VDW.0>
0.379549

>  <SCORE.INTRA.norm>
-0.0464217

>  <SCORE.RESTR>
0

>  <SCORE.RESTR.CAVITY>
0

>  <SCORE.RESTR.norm>
0

>  <SCORE.SYSTEM>
0

>  <SCORE.SYSTEM.CONST>
0

>  <SCORE.SYSTEM.DIHEDRAL>
0

>  <SCORE.SYSTEM.SOLV>
0

>  <SCORE.SYSTEM.norm>
0

>  <SCORE.heavy>
27

>  <SCORE.norm>
-0.675354

>  <RMSD>
11.401

$$$$
ligand
 OpenBabel11021811483D
libRbt.so/2013.1/901 2013/11/27
 27 29  0  0  0  0  0  0  0  0999 V2000
   52.7320   54.6174   17.8256 N   0  0  0  0  0  0  0  0  0  0  0  0
   51.4523   54.0155   17.4545 C   0  0  2  0  0  0  0  0  0  0  0  0
   50.9772   54.6167   16.1634 C   0  0  0  0  0  0  0  0  0  0  0  0
   51.4090   55.7054   15.7990 O   0  0  0  0  0  0  0  0  0  0  0  0
   50.4090   54.2755   18.5404 C   0  0  0  0  0  0  0  0  0  0  0  0
   50.2822   53.0358   19.4069 C   0  0  0  0  0  0  0  0  0  0  0  0
   49.0740   53.2043   20.7592 S   0  0  2  0  0  0  0  0  0  0  0  0
   47.7313   54.2007   20.0475 C   0  0  0  0  0  0  0  0  0  0  0  0
   49.7034   54.7007   21.7332 C   0  0  0  0  0  0  0  0  0  0  0  0
   50.0041   54.5513   23.2835 C   0  0  2  0  0  0  0  0  0  0  0  0
   51.1495   53.8303   23.6780 O   0  0  0  0  0  0  0  0  0  0  0  0
   48.9224   54.2298   24.2353 C   0  0  1  0  0  0  0  0  0  0  0  0
   47.6225   54.4657   23.6931 O   0  0  0  0  0  0  0  0  0  0  0  0
   49.3098   52.6892   24.4398 C   0  0  2  0  0  0  0  0  0  0  0  0
   48.6048   52.1392   25.5119 O   0  0  0  0  0  0  0  0  0  0  0  0
   50.8039   52.8193   24.7297 C   0  0  1  0  0  0  0  0  0  0  0  0
   50.1907   53.9981   15.4579 O   0  0  0  0  0  0  0  0  0  0  0  0
   53.2795   50.4682   20.9252 N   0  0  0  0  0  0  0  0  0  0  0  0
   52.3277   51.4050   20.9021 C   0  0  0  0  0  0  0  0  0  0  0  0
   51.8283   51.9078   22.0273 N   0  0  0  0  0  0  0  0  0  0  0  0
   52.1806   51.4225   23.2284 C   0  0  0  0  0  0  0  0  0  0  0  0
   53.1484   50.3874   23.3023 C   0  0  0  0  0  0  0  0  0  0  0  0
   53.7058   49.9197   22.0800 C   0  0  0  0  0  0  0  0  0  0  0  0
   54.6637   48.9262   22.0676 N   0  0  0  0  0  0  0  0  0  0  0  0
   53.3121   50.0866   24.6025 N   0  0  0  0  0  0  0  0  0  0  0  0
   52.5269   50.8412   25.3241 C   0  0  0  0  0  0  0  0  0  0  0  0
   51.8110   51.6950   24.5325 N   0  0  0  0  0  0  0  0  0  0  0  0
  2  1  1  1  0  0  0
  2  3  1  0  0  0  0
  2  5  1  0  0  0  0
  3  4  1  0  0  0  0
  3 17  1  0  0  0  0
  5  6  1  0  0  0  0
  7  6  1  6  0  0  0
  7  8  1  0  0  0  0
  7  9  1  0  0  0  0
 10  9  1  6  0  0  0
 10 11  1  0  0  0  0
 10 12  1  0  0  0  0
 11 16  1  0  0  0  0
 12 13  1  6  0  0  0
 12 14  1  0  0  0  0
 14 15  1  1  0  0  0
 14 16  1  0  0  0  0
 16 27  1  6  0  0  0
 18 19  2  0  0  0  0
 18 23  1  0  0  0  0
 19 20  1  0  0  0  0
 20 21  2  0  0  0  0
 21 22  1  0  0  0  0
 21 27  1  0  0  0  0
 22 23  2  0  0  0  0
 22 25  1  0  0  0  0
 23 24  1  0  0  0  0
 25 26  2  0  0  0  0
 26 27  1  0  0  0  0
M  END
>  <CHROM.1>
-21.04197868,-99.86980513,179.62045063,36.64858592,-124.20713159,73.00590947
-35.67236602,50.91509460,52.83311143,21.46235778,-1.70499613,-0.63865730
1.88072861

>  <Name>
ligand

>  <RI>
0

>  <Rbt.Current_Directory>
/home/itssahil/PROJECTS/Mol_Feturizer/New_Systems/rnas/3IQR

>  <Rbt.Executable>
rbdock ($Id: //depot/dev/client3/rdock/2013.1/src/exe/rbdock.cxx#4 $)

>  <Rbt.Library>
libRbt.so (2013.1, Build901 2013/11/27)

>  <Rbt.Parameter_File>
/export/apps/rDock/src/rDock_2013.1_src/data/scripts/dock_solv.prm

>  <Rbt.Receptor>
prm/blind_docking_80.prm

>  <SCORE>
-16.7014

>  <SCORE.INTER>
-15.5353

>  <SCORE.INTER.CONST>
1

>  <SCORE.INTER.POLAR>
0

>  <SCORE.INTER.ROT>
7

>  <SCORE.INTER.SOLV>
10.1033

>  <SCORE.INTER.VDW>
-21.9913

>  <SCORE.INTER.norm>
-0.575382

>  <SCORE.INTRA>
-1.16605

>  <SCORE.INTRA.DIHEDRAL>
4.39033

>  <SCORE.INTRA.DIHEDRAL.0>
9.29433

>  <SCORE.INTRA.POLAR>
0

>  <SCORE.INTRA.POLAR.0>
0

>  <SCORE.INTRA.REPUL>
0

>  <SCORE.INTRA.REPUL.0>
0

>  <SCORE.INTRA.SOLV>
-1.06099

>  <SCORE.INTRA.SOLV.lig_0>
-48.5102

>  <SCORE.INTRA.VDW>
-2.83072

>  <SCORE.INTRA.VDW.0>
0.379549

>  <SCORE.INTRA.norm>
-0.0431872

>  <SCORE.RESTR>
0

>  <SCORE.RESTR.CAVITY>
0

>  <SCORE.RESTR.norm>
0

>  <SCORE.SYSTEM>
0

>  <SCORE.SYSTEM.CONST>
0

>  <SCORE.SYSTEM.DIHEDRAL>
0

>  <SCORE.SYSTEM.SOLV>
0

>  <SCORE.SYSTEM.norm>
0

>  <SCORE.heavy>
27

>  <SCORE.norm>
-0.61857

>  <RMSD>
11.424

$$$$
ligand
 OpenBabel11021811483D
libRbt.so/2013.1/901 2013/11/27
 27 29  0  0  0  0  0  0  0  0999 V2000
   52.7226   53.2620   16.5760 N   0  0  0  0  0  0  0  0  0  0  0  0
   51.3818   53.6356   17.0239 C   0  0  2  0  0  0  0  0  0  0  0  0
   51.1560   55.0944   16.7502 C   0  0  0  0  0  0  0  0  0  0  0  0
   51.5253   55.5827   15.6874 O   0  0  0  0  0  0  0  0  0  0  0  0
   51.2328   53.3796   18.5230 C   0  0  0  0  0  0  0  0  0  0  0  0
   49.7563   53.3671   18.8749 C   0  0  0  0  0  0  0  0  0  0  0  0
   49.4170   52.9183   20.6070 S   0  0  2  0  0  0  0  0  0  0  0  0
   47.6135   53.0690   20.7706 C   0  0  0  0  0  0  0  0  0  0  0  0
   49.6640   54.5448   21.5438 C   0  0  0  0  0  0  0  0  0  0  0  0
   49.9734   54.5093   23.0992 C   0  0  2  0  0  0  0  0  0  0  0  0
   51.1174   53.8131   23.5395 O   0  0  0  0  0  0  0  0  0  0  0  0
   48.8960   54.2657   24.0784 C   0  0  1  0  0  0  0  0  0  0  0  0
   47.5940   54.4682   23.5277 O   0  0  0  0  0  0  0  0  0  0  0  0
   49.2764   52.7424   24.3947 C   0  0  2  0  0  0  0  0  0  0  0  0
   48.5751   52.2777   25.5088 O   0  0  0  0  0  0  0  0  0  0  0  0
   50.7729   52.8851   24.6655 C   0  0  1  0  0  0  0  0  0  0  0  0
   50.5662   55.7829   17.5730 O   0  0  0  0  0  0  0  0  0  0  0  0
   53.2280   50.2570   21.0328 N   0  0  0  0  0  0  0  0  0  0  0  0
   52.2819   51.1958   20.9450 C   0  0  0  0  0  0  0  0  0  0  0  0
   51.7874   51.7795   22.0327 N   0  0  0  0  0  0  0  0  0  0  0  0
   52.1386   51.3776   23.2644 C   0  0  0  0  0  0  0  0  0  0  0  0
   53.1000   50.3443   23.4098 C   0  0  0  0  0  0  0  0  0  0  0  0
   53.6526   49.7884   22.2227 C   0  0  0  0  0  0  0  0  0  0  0  0
   54.6044   48.7904   22.2792 N   0  0  0  0  0  0  0  0  0  0  0  0
   53.2639   50.1345   24.7278 N   0  0  0  0  0  0  0  0  0  0  0  0
   52.4845   50.9428   25.3954 C   0  0  0  0  0  0  0  0  0  0  0  0
   51.7727   51.7434   24.5466 N   0  0  0  0  0  0  0  0  0  0  0  0
  2  1  1  1  0  0  0
  2  3  1  0  0  0  0
  2  5  1  0  0  0  0
  3  4  1  0  0  0  0
  3 17  1  0  0  0  0
  5  6  1  0  0  0  0
  7  6  1  6  0  0  0
  7  8  1  0  0  0  0
  7  9  1  0  0  0  0
 10  9  1  6  0  0  0
 10 11  1  0  0  0  0
 10 12  1  0  0  0  0
 11 16  1  0  0  0  0
 12 13  1  6  0  0  0
 12 14  1  0  0  0  0
 14 15  1  1  0  0  0
 14 16  1  0  0  0  0
 16 27  1  6  0  0  0
 18 19  2  0  0  0  0
 18 23  1  0  0  0  0
 19 20  1  0  0  0  0
 20 21  2  0  0  0  0
 21 22  1  0  0  0  0
 21 27  1  0  0  0  0
 22 23  2  0  0  0  0
 22 25  1  0  0  0  0
 23 24  1  0  0  0  0
 25 26  2  0  0  0  0
 26 27  1  0  0  0  0
M  END
>  <CHROM.1>
42.29202383,-162.99388474,174.62468772,177.04575330,-158.26684589,58.72856021
-35.31509961,50.94755247,52.74685348,21.49349738,-1.65992374,-0.65834495
1.92110457

>  <Name>
ligand

>  <RI>
0

>  <Rbt.Current_Directory>
/home/itssahil/PROJECTS/Mol_Feturizer/New_Systems/rnas/3IQR

>  <Rbt.Executable>
rbdock ($Id: //depot/dev/client3/rdock/2013.1/src/exe/rbdock.cxx#4 $)

>  <Rbt.Library>
libRbt.so (2013.1, Build901 2013/11/27)

>  <Rbt.Parameter_File>
/export/apps/rDock/src/rDock_2013.1_src/data/scripts/dock_solv.prm

>  <Rbt.Receptor>
prm/blind_docking_80.prm

>  <SCORE>
-19.284

>  <SCORE.INTER>
-15.1652

>  <SCORE.INTER.CONST>
1

>  <SCORE.INTER.POLAR>
0

>  <SCORE.INTER.ROT>
7

>  <SCORE.INTER.SOLV>
11.032

>  <SCORE.INTER.VDW>
-22.0541

>  <SCORE.INTER.norm>
-0.561674

>  <SCORE.INTRA>
-4.11877

>  <SCORE.INTRA.DIHEDRAL>
-1.78129

>  <SCORE.INTRA.DIHEDRAL.0>
9.29433

>  <SCORE.INTRA.POLAR>
0

>  <SCORE.INTRA.POLAR.0>
0

>  <SCORE.INTRA.REPUL>
0

>  <SCORE.INTRA.REPUL.0>
0

>  <SCORE.INTRA.SOLV>
-1.35087

>  <SCORE.INTRA.SOLV.lig_0>
-48.5102

>  <SCORE.INTRA.VDW>
-2.55269

>  <SCORE.INTRA.VDW.0>
0.379549

>  <SCORE.INTRA.norm>
-0.152547

>  <SCORE.RESTR>
0

>  <SCORE.RESTR.CAVITY>
0

>  <SCORE.RESTR.norm>
0

>  <SCORE.SYSTEM>
0

>  <SCORE.SYSTEM.CONST>
0

>  <SCORE.SYSTEM.DIHEDRAL>
0

>  <SCORE.SYSTEM.SOLV>
0

>  <SCORE.SYSTEM.norm>
0

>  <SCORE.heavy>
27

>  <SCORE.norm>
-0.714221

>  <RMSD>
11.427

$$$$
ligand
 OpenBabel11021811483D
libRbt.so/2013.1/901 2013/11/27
 27 29  0  0  0  0  0  0  0  0999 V2000
   50.9629   53.7844   15.6502 N   0  0  0  0  0  0  0  0  0  0  0  0
   50.8820   54.4323   16.9585 C   0  0  2  0  0  0  0  0  0  0  0  0
   52.2335   54.9704   17.3298 C   0  0  0  0  0  0  0  0  0  0  0  0
   52.3479   56.1317   17.7077 O   0  0  0  0  0  0  0  0  0  0  0  0
   50.4347   53.4288   18.0206 C   0  0  0  0  0  0  0  0  0  0  0  0
   49.9275   54.1892   19.2324 C   0  0  0  0  0  0  0  0  0  0  0  0
   49.4623   53.1189   20.6304 S   0  0  2  0  0  0  0  0  0  0  0  0
   47.6977   52.7720   20.3698 C   0  0  0  0  0  0  0  0  0  0  0  0
   49.0441   54.3463   22.0097 C   0  0  0  0  0  0  0  0  0  0  0  0
   49.1687   53.8899   23.5237 C   0  0  2  0  0  0  0  0  0  0  0  0
   50.4182   53.4268   23.9837 O   0  0  0  0  0  0  0  0  0  0  0  0
   48.1236   53.0562   24.1499 C   0  0  1  0  0  0  0  0  0  0  0  0
   46.8980   53.0655   23.4169 O   0  0  0  0  0  0  0  0  0  0  0  0
   48.9376   51.6775   24.1055 C   0  0  2  0  0  0  0  0  0  0  0  0
   48.3020   50.7020   24.8758 O   0  0  0  0  0  0  0  0  0  0  0  0
   50.2662   52.1251   24.7118 C   0  0  1  0  0  0  0  0  0  0  0  0
   53.2116   54.2348   17.2934 O   0  0  0  0  0  0  0  0  0  0  0  0
   53.3425   50.7660   20.8620 N   0  0  0  0  0  0  0  0  0  0  0  0
   52.1327   51.3321   20.8569 C   0  0  0  0  0  0  0  0  0  0  0  0
   51.5065   51.6301   21.9915 N   0  0  0  0  0  0  0  0  0  0  0  0
   52.0134   51.2799   23.1842 C   0  0  0  0  0  0  0  0  0  0  0  0
   53.2715   50.6260   23.2389 C   0  0  0  0  0  0  0  0  0  0  0  0
   53.9397   50.3813   22.0072 C   0  0  0  0  0  0  0  0  0  0  0  0
   55.1738   49.7640   21.9762 N   0  0  0  0  0  0  0  0  0  0  0  0
   53.5402   50.3859   24.5344 N   0  0  0  0  0  0  0  0  0  0  0  0
   52.5563   50.8294   25.2704 C   0  0  0  0  0  0  0  0  0  0  0  0
   51.5883   51.4025   24.4941 N   0  0  0  0  0  0  0  0  0  0  0  0
  2  1  1  6  0  0  0
  2  3  1  0  0  0  0
  2  5  1  0  0  0  0
  3  4  1  0  0  0  0
  3 17  1  0  0  0  0
  5  6  1  0  0  0  0
  7  6  1  6  0  0  0
  7  8  1  0  0  0  0
  7  9  1  0  0  0  0
 10  9  1  6  0  0  0
 10 11  1  0  0  0  0
 10 12  1  0  0  0  0
 11 16  1  0  0  0  0
 12 13  1  6  0  0  0
 12 14  1  0  0  0  0
 14 15  1  1  0  0  0
 14 16  1  0  0  0  0
 16 27  1  6  0  0  0
 18 19  2  0  0  0  0
 18 23  1  0  0  0  0
 19 20  1  0  0  0  0
 20 21  2  0  0  0  0
 21 22  1  0  0  0  0
 21 27  1  0  0  0  0
 22 23  2  0  0  0  0
 22 25  1  0  0  0  0
 23 24  1  0  0  0  0
 25 26  2  0  0  0  0
 26 27  1  0  0  0  0
M  END
>  <CHROM.1>
129.94671617,-161.69400545,-176.09294997,-90.86744995,-154.87013359,58.10071469
-52.48217240,50.88165456,52.58608758,21.49323952,1.46242254,0.38834969,-1.12521927

>  <Name>
ligand

>  <RI>
0

>  <Rbt.Current_Directory>
/home/itssahil/PROJECTS/Mol_Feturizer/New_Systems/rnas/3IQR

>  <Rbt.Executable>
rbdock ($Id: //depot/dev/client3/rdock/2013.1/src/exe/rbdock.cxx#4 $)

>  <Rbt.Library>
libRbt.so (2013.1, Build901 2013/11/27)

>  <Rbt.Parameter_File>
/export/apps/rDock/src/rDock_2013.1_src/data/scripts/dock_solv.prm

>  <Rbt.Receptor>
prm/blind_docking_100.prm

>  <SCORE>
-18.2155

>  <SCORE.INTER>
-12.9187

>  <SCORE.INTER.CONST>
1

>  <SCORE.INTER.POLAR>
0

>  <SCORE.INTER.ROT>
7

>  <SCORE.INTER.SOLV>
12.9409

>  <SCORE.INTER.VDW>
-21.1928

>  <SCORE.INTER.norm>
-0.47847

>  <SCORE.INTRA>
-5.29678

>  <SCORE.INTRA.DIHEDRAL>
-0.742933

>  <SCORE.INTRA.DIHEDRAL.0>
9.29433

>  <SCORE.INTRA.POLAR>
0

>  <SCORE.INTRA.POLAR.0>
0

>  <SCORE.INTRA.REPUL>
0

>  <SCORE.INTRA.REPUL.0>
0

>  <SCORE.INTRA.SOLV>
-1.37873

>  <SCORE.INTRA.SOLV.lig_0>
-48.5102

>  <SCORE.INTRA.VDW>
-4.23594

>  <SCORE.INTRA.VDW.0>
0.379549

>  <SCORE.INTRA.norm>
-0.196177

>  <SCORE.RESTR>
0

>  <SCORE.RESTR.CAVITY>
0

>  <SCORE.RESTR.norm>
0

>  <SCORE.SYSTEM>
0

>  <SCORE.SYSTEM.CONST>
0

>  <SCORE.SYSTEM.DIHEDRAL>
0

>  <SCORE.SYSTEM.SOLV>
0

>  <SCORE.SYSTEM.norm>
0

>  <SCORE.heavy>
27

>  <SCORE.norm>
-0.674647

>  <RMSD>
11.436

$$$$
ligand
 OpenBabel11021811483D
libRbt.so/2013.1/901 2013/11/27
 27 29  0  0  0  0  0  0  0  0999 V2000
   47.7058   54.0807   22.3191 N   0  0  0  0  0  0  0  0  0  0  0  0
   48.7775   54.2927   21.3473 C   0  0  2  0  0  0  0  0  0  0  0  0
   48.1855   54.4015   19.9719 C   0  0  0  0  0  0  0  0  0  0  0  0
   48.7950   54.9940   19.0876 O   0  0  0  0  0  0  0  0  0  0  0  0
   49.7598   53.1224   21.3771 C   0  0  0  0  0  0  0  0  0  0  0  0
   50.3659   53.0250   22.7653 C   0  0  0  0  0  0  0  0  0  0  0  0
   51.3550   54.4787   23.2395 S   0  0  2  0  0  0  0  0  0  0  0  0
   53.0581   54.0378   22.7843 C   0  0  0  0  0  0  0  0  0  0  0  0
   51.7383   54.1777   25.0688 C   0  0  0  0  0  0  0  0  0  0  0  0
   52.1011   52.7132   25.5585 C   0  0  2  0  0  0  0  0  0  0  0  0
   52.9759   51.9396   24.7689 O   0  0  0  0  0  0  0  0  0  0  0  0
   51.0567   51.8120   26.0843 C   0  0  1  0  0  0  0  0  0  0  0  0
   49.8654   52.5063   26.4562 O   0  0  0  0  0  0  0  0  0  0  0  0
   50.9339   50.8920   24.7790 C   0  0  2  0  0  0  0  0  0  0  0  0
   50.1793   49.7488   25.0479 O   0  0  0  0  0  0  0  0  0  0  0  0
   52.4069   50.5732   24.5299 C   0  0  1  0  0  0  0  0  0  0  0  0
   47.1139   53.8622   19.7270 O   0  0  0  0  0  0  0  0  0  0  0  0
   55.6158   47.0930   22.6008 N   0  0  0  0  0  0  0  0  0  0  0  0
   55.3035   47.3889   23.8653 C   0  0  0  0  0  0  0  0  0  0  0  0
   54.4091   48.3302   24.1521 N   0  0  0  0  0  0  0  0  0  0  0  0
   53.8628   49.0931   23.1921 C   0  0  0  0  0  0  0  0  0  0  0  0
   54.2055   48.8538   21.8361 C   0  0  0  0  0  0  0  0  0  0  0  0
   55.1176   47.7965   21.5649 C   0  0  0  0  0  0  0  0  0  0  0  0
   55.4896   47.4903   20.2716 N   0  0  0  0  0  0  0  0  0  0  0  0
   53.5322   49.7479   21.0909 N   0  0  0  0  0  0  0  0  0  0  0  0
   52.8166   50.5120   21.8722 C   0  0  0  0  0  0  0  0  0  0  0  0
   52.9704   50.1491   23.1810 N   0  0  0  0  0  0  0  0  0  0  0  0
  2  1  1  1  0  0  0
  2  3  1  0  0  0  0
  2  5  1  0  0  0  0
  3  4  1  0  0  0  0
  3 17  1  0  0  0  0
  5  6  1  0  0  0  0
  7  6  1  6  0  0  0
  7  8  1  0  0  0  0
  7  9  1  0  0  0  0
 10  9  1  6  0  0  0
 10 11  1  0  0  0  0
 10 12  1  0  0  0  0
 11 16  1  0  0  0  0
 12 13  1  6  0  0  0
 12 14  1  0  0  0  0
 14 15  1  1  0  0  0
 14 16  1  0  0  0  0
 16 27  1  6  0  0  0
 18 19  2  0  0  0  0
 18 23  1  0  0  0  0
 19 20  1  0  0  0  0
 20 21  2  0  0  0  0
 21 22  1  0  0  0  0
 21 27  1  0  0  0  0
 22 23  2  0  0  0  0
 22 25  1  0  0  0  0
 23 24  1  0  0  0  0
 25 26  2  0  0  0  0
 26 27  1  0  0  0  0
M  END
>  <CHROM.1>
156.24751597,-60.50485231,-63.38394663,-93.86767592,40.08732950,42.80109502
112.86325086,51.73548963,51.60048399,22.93333643,-3.10737212,-0.82212301
1.43182786

>  <Name>
ligand

>  <RI>
0

>  <Rbt.Current_Directory>
/home/itssahil/PROJECTS/Mol_Feturizer/New_Systems/rnas/3IQR

>  <Rbt.Executable>
rbdock ($Id: //depot/dev/client3/rdock/2013.1/src/exe/rbdock.cxx#4 $)

>  <Rbt.Library>
libRbt.so (2013.1, Build901 2013/11/27)

>  <Rbt.Parameter_File>
/export/apps/rDock/src/rDock_2013.1_src/data/scripts/dock_solv.prm

>  <Rbt.Receptor>
prm/blind_docking_80.prm

>  <SCORE>
-22.0413

>  <SCORE.INTER>
-17.4611

>  <SCORE.INTER.CONST>
1

>  <SCORE.INTER.POLAR>
0

>  <SCORE.INTER.ROT>
7

>  <SCORE.INTER.SOLV>
15.5088

>  <SCORE.INTER.VDW>
-25.077

>  <SCORE.INTER.norm>
-0.646709

>  <SCORE.INTRA>
-4.58125

>  <SCORE.INTRA.DIHEDRAL>
-3.16284

>  <SCORE.INTRA.DIHEDRAL.0>
9.29433

>  <SCORE.INTRA.POLAR>
0

>  <SCORE.INTRA.POLAR.0>
0

>  <SCORE.INTRA.REPUL>
0

>  <SCORE.INTRA.REPUL.0>
0

>  <SCORE.INTRA.SOLV>
0.0622792

>  <SCORE.INTRA.SOLV.lig_0>
-48.5102

>  <SCORE.INTRA.VDW>
-3.03097

>  <SCORE.INTRA.VDW.0>
0.379549

>  <SCORE.INTRA.norm>
-0.169676

>  <SCORE.RESTR>
0.001075

>  <SCORE.RESTR.CAVITY>
0.001075

>  <SCORE.RESTR.norm>
3.98146e-05

>  <SCORE.SYSTEM>
0

>  <SCORE.SYSTEM.CONST>
0

>  <SCORE.SYSTEM.DIHEDRAL>
0

>  <SCORE.SYSTEM.SOLV>
0

>  <SCORE.SYSTEM.norm>
0

>  <SCORE.heavy>
27

>  <SCORE.norm>
-0.816345

>  <RMSD>
11.531

$$$$
ligand
 OpenBabel11021811483D
libRbt.so/2013.1/901 2013/11/27
 27 29  0  0  0  0  0  0  0  0999 V2000
   54.1906   51.6146   22.5058 N   0  0  0  0  0  0  0  0  0  0  0  0
   54.3495   50.9443   23.7955 C   0  0  2  0  0  0  0  0  0  0  0  0
   55.5524   50.0474   23.7434 C   0  0  0  0  0  0  0  0  0  0  0  0
   55.4093   48.8293   23.7511 O   0  0  0  0  0  0  0  0  0  0  0  0
   53.1132   50.1039   24.1125 C   0  0  0  0  0  0  0  0  0  0  0  0
   51.9046   51.0187   24.1930 C   0  0  0  0  0  0  0  0  0  0  0  0
   51.7876   51.9464   25.7559 S   0  0  2  0  0  0  0  0  0  0  0  0
   50.3957   51.1790   26.6368 C   0  0  0  0  0  0  0  0  0  0  0  0
   50.7139   53.4395   25.3067 C   0  0  0  0  0  0  0  0  0  0  0  0
   49.5093   53.2561   24.2910 C   0  0  2  0  0  0  0  0  0  0  0  0
   49.7614   52.6161   23.0605 O   0  0  0  0  0  0  0  0  0  0  0  0
   48.5610   54.3586   24.0367 C   0  0  1  0  0  0  0  0  0  0  0  0
   48.6108   55.3717   25.0420 O   0  0  0  0  0  0  0  0  0  0  0  0
   49.1500   54.7815   22.6086 C   0  0  2  0  0  0  0  0  0  0  0  0
   48.2890   55.6692   21.9608 O   0  0  0  0  0  0  0  0  0  0  0  0
   49.2066   53.4183   21.9218 C   0  0  1  0  0  0  0  0  0  0  0  0
   56.6713   50.5361   23.6517 O   0  0  0  0  0  0  0  0  0  0  0  0
   50.2071   55.1633   17.2224 N   0  0  0  0  0  0  0  0  0  0  0  0
   49.2784   55.5266   18.1110 C   0  0  0  0  0  0  0  0  0  0  0  0
   49.2062   54.9500   19.3071 N   0  0  0  0  0  0  0  0  0  0  0  0
   49.9909   53.9103   19.6320 C   0  0  0  0  0  0  0  0  0  0  0  0
   50.9566   53.4512   18.6993 C   0  0  0  0  0  0  0  0  0  0  0  0
   51.0460   54.1346   17.4549 C   0  0  0  0  0  0  0  0  0  0  0  0
   51.9696   53.7592   16.5005 N   0  0  0  0  0  0  0  0  0  0  0  0
   51.5951   52.4120   19.2653 N   0  0  0  0  0  0  0  0  0  0  0  0
   51.1003   52.1950   20.4546 C   0  0  0  0  0  0  0  0  0  0  0  0
   50.1133   53.0957   20.7424 N   0  0  0  0  0  0  0  0  0  0  0  0
  2  1  1  6  0  0  0
  2  3  1  0  0  0  0
  2  5  1  0  0  0  0
  3  4  1  0  0  0  0
  3 17  1  0  0  0  0
  5  6  1  0  0  0  0
  7  6  1  6  0  0  0
  7  8  1  0  0  0  0
  7  9  1  0  0  0  0
 10  9  1  6  0  0  0
 10 11  1  0  0  0  0
 10 12  1  0  0  0  0
 11 16  1  0  0  0  0
 12 13  1  1  0  0  0
 12 14  1  0  0  0  0
 14 15  1  6  0  0  0
 14 16  1  0  0  0  0
 16 27  1  6  0  0  0
 18 19  2  0  0  0  0
 18 23  1  0  0  0  0
 19 20  1  0  0  0  0
 20 21  2  0  0  0  0
 21 22  1  0  0  0  0
 21 27  1  0  0  0  0
 22 23  2  0  0  0  0
 22 25  1  0  0  0  0
 23 24  1  0  0  0  0
 25 26  2  0  0  0  0
 26 27  1  0  0  0  0
M  END
>  <CHROM.1>
-110.25959432,-61.13116146,-77.94177416,-108.42972358,37.14357291,-50.61325938
-167.22684318,51.25726943,52.80785565,22.27017062,-0.94987578,0.59591630
-1.35685302

>  <Name>
ligand

>  <RI>
0

>  <Rbt.Current_Directory>
/home/itssahil/PROJECTS/Mol_Feturizer/New_Systems/rnas/3IQR

>  <Rbt.Executable>
rbdock ($Id: //depot/dev/client3/rdock/2013.1/src/exe/rbdock.cxx#4 $)

>  <Rbt.Library>
libRbt.so (2013.1, Build901 2013/11/27)

>  <Rbt.Parameter_File>
/export/apps/rDock/src/rDock_2013.1_src/data/scripts/dock_solv.prm

>  <Rbt.Receptor>
prm/blind_docking_100.prm

>  <SCORE>
-19.5015

>  <SCORE.INTER>
-17.1201

>  <SCORE.INTER.CONST>
1

>  <SCORE.INTER.POLAR>
0

>  <SCORE.INTER.ROT>
7

>  <SCORE.INTER.SOLV>
8.34886

>  <SCORE.INTER.VDW>
-22.463

>  <SCORE.INTER.norm>
-0.634079

>  <SCORE.INTRA>
-2.38134

>  <SCORE.INTRA.DIHEDRAL>
-0.804919

>  <SCORE.INTRA.DIHEDRAL.0>
9.29433

>  <SCORE.INTRA.POLAR>
0

>  <SCORE.INTRA.POLAR.0>
0

>  <SCORE.INTRA.REPUL>
0

>  <SCORE.INTRA.REPUL.0>
0

>  <SCORE.INTRA.SOLV>
-0.311815

>  <SCORE.INTRA.SOLV.lig_0>
-48.5102

>  <SCORE.INTRA.VDW>
-1.82298

>  <SCORE.INTRA.VDW.0>
0.379549

>  <SCORE.INTRA.norm>
-0.0881979

>  <SCORE.RESTR>
0

>  <SCORE.RESTR.CAVITY>
0

>  <SCORE.RESTR.norm>
0

>  <SCORE.SYSTEM>
0

>  <SCORE.SYSTEM.CONST>
0

>  <SCORE.SYSTEM.DIHEDRAL>
0

>  <SCORE.SYSTEM.SOLV>
0

>  <SCORE.SYSTEM.norm>
0

>  <SCORE.heavy>
27

>  <SCORE.norm>
-0.722277

>  <RMSD>
11.556

$$$$
ligand
 OpenBabel11021811483D
libRbt.so/2013.1/901 2013/11/27
 27 29  0  0  0  0  0  0  0  0999 V2000
   49.3048   52.7111   23.9276 N   0  0  0  0  0  0  0  0  0  0  0  0
   50.1054   51.5148   24.1841 C   0  0  2  0  0  0  0  0  0  0  0  0
   49.3454   50.5956   25.0961 C   0  0  0  0  0  0  0  0  0  0  0  0
   49.1865   49.4194   24.7867 O   0  0  0  0  0  0  0  0  0  0  0  0
   51.4288   51.8943   24.8472 C   0  0  0  0  0  0  0  0  0  0  0  0
   52.3442   52.5061   23.8023 C   0  0  0  0  0  0  0  0  0  0  0  0
   52.8813   51.3324   22.5175 S   0  0  2  0  0  0  0  0  0  0  0  0
   54.1949   52.2107   21.6201 C   0  0  0  0  0  0  0  0  0  0  0  0
   51.6682   51.6424   21.0975 C   0  0  0  0  0  0  0  0  0  0  0  0
   51.3267   53.1329   20.6754 C   0  0  2  0  0  0  0  0  0  0  0  0
   50.0336   53.6262   20.9435 O   0  0  0  0  0  0  0  0  0  0  0  0
   51.7440   53.6603   19.3613 C   0  0  1  0  0  0  0  0  0  0  0  0
   52.7642   52.8706   18.7487 O   0  0  0  0  0  0  0  0  0  0  0  0
   50.3040   53.5784   18.6650 C   0  0  2  0  0  0  0  0  0  0  0  0
   50.3029   54.2614   17.4474 O   0  0  0  0  0  0  0  0  0  0  0  0
   49.4488   54.2722   19.7235 C   0  0  1  0  0  0  0  0  0  0  0  0
   48.9222   51.0142   26.1659 O   0  0  0  0  0  0  0  0  0  0  0  0
   45.1036   56.3656   18.0302 N   0  0  0  0  0  0  0  0  0  0  0  0
   46.3756   56.7406   17.8702 C   0  0  0  0  0  0  0  0  0  0  0  0
   47.3739   56.0271   18.3824 N   0  0  0  0  0  0  0  0  0  0  0  0
   47.1435   54.9635   19.1684 C   0  0  0  0  0  0  0  0  0  0  0  0
   45.8060   54.5582   19.4138 C   0  0  0  0  0  0  0  0  0  0  0  0
   44.7675   55.3094   18.7966 C   0  0  0  0  0  0  0  0  0  0  0  0
   43.4413   54.9704   18.9730 N   0  0  0  0  0  0  0  0  0  0  0  0
   45.8562   53.4864   20.2240 N   0  0  0  0  0  0  0  0  0  0  0  0
   47.1029   53.2080   20.4975 C   0  0  0  0  0  0  0  0  0  0  0  0
   47.9456   54.0787   19.8652 N   0  0  0  0  0  0  0  0  0  0  0  0
  2  1  1  1  0  0  0
  2  3  1  0  0  0  0
  2  5  1  0  0  0  0
  3  4  1  0  0  0  0
  3 17  1  0  0  0  0
  5  6  1  0  0  0  0
  7  6  1  1  0  0  0
  7  8  1  0  0  0  0
  7  9  1  0  0  0  0
 10  9  1  6  0  0  0
 10 11  1  0  0  0  0
 10 12  1  0  0  0  0
 11 16  1  0  0  0  0
 12 13  1  6  0  0  0
 12 14  1  0  0  0  0
 14 15  1  6  0  0  0
 14 16  1  0  0  0  0
 16 27  1  6  0  0  0
 18 19  2  0  0  0  0
 18 23  1  0  0  0  0
 19 20  1  0  0  0  0
 20 21  2  0  0  0  0
 21 22  1  0  0  0  0
 21 27  1  0  0  0  0
 22 23  2  0  0  0  0
 22 25  1  0  0  0  0
 23 24  1  0  0  0  0
 25 26  2  0  0  0  0
 26 27  1  0  0  0  0
M  END
>  <CHROM.1>
128.08767933,-74.79442702,-66.76988610,-169.05712281,45.19892266,-110.53336475
157.26634998,49.38965277,53.18172919,21.04253489,0.84101240,-0.18898390,2.07024648

>  <Name>
ligand

>  <RI>
0

>  <Rbt.Current_Directory>
/home/itssahil/PROJECTS/Mol_Feturizer/New_Systems/rnas/3IQR

>  <Rbt.Executable>
rbdock ($Id: //depot/dev/client3/rdock/2013.1/src/exe/rbdock.cxx#4 $)

>  <Rbt.Library>
libRbt.so (2013.1, Build901 2013/11/27)

>  <Rbt.Parameter_File>
/export/apps/rDock/src/rDock_2013.1_src/data/scripts/dock_solv.prm

>  <Rbt.Receptor>
prm/blind_docking_80.prm

>  <SCORE>
-19.634

>  <SCORE.INTER>
-17.2287

>  <SCORE.INTER.CONST>
1

>  <SCORE.INTER.POLAR>
0

>  <SCORE.INTER.ROT>
7

>  <SCORE.INTER.SOLV>
13.5037

>  <SCORE.INTER.VDW>
-24.2537

>  <SCORE.INTER.norm>
-0.638101

>  <SCORE.INTRA>
-2.40522

>  <SCORE.INTRA.DIHEDRAL>
0.77802

>  <SCORE.INTRA.DIHEDRAL.0>
9.29433

>  <SCORE.INTRA.POLAR>
0

>  <SCORE.INTRA.POLAR.0>
0

>  <SCORE.INTRA.REPUL>
0

>  <SCORE.INTRA.REPUL.0>
0

>  <SCORE.INTRA.SOLV>
1.41469

>  <SCORE.INTRA.SOLV.lig_0>
-48.5102

>  <SCORE.INTRA.VDW>
-3.50157

>  <SCORE.INTRA.VDW.0>
0.379549

>  <SCORE.INTRA.norm>
-0.0890821

>  <SCORE.RESTR>
0

>  <SCORE.RESTR.CAVITY>
0

>  <SCORE.RESTR.norm>
0

>  <SCORE.SYSTEM>
0

>  <SCORE.SYSTEM.CONST>
0

>  <SCORE.SYSTEM.DIHEDRAL>
0

>  <SCORE.SYSTEM.SOLV>
0

>  <SCORE.SYSTEM.norm>
0

>  <SCORE.heavy>
27

>  <SCORE.norm>
-0.727183

>  <RMSD>
11.739

$$$$
ligand
 OpenBabel11021811483D
libRbt.so/2013.1/901 2013/11/27
 27 29  0  0  0  0  0  0  0  0999 V2000
   50.3268   53.6310   15.9270 N   0  0  0  0  0  0  0  0  0  0  0  0
   51.5104   53.3819   16.7485 C   0  0  2  0  0  0  0  0  0  0  0  0
   52.4609   52.4980   15.9939 C   0  0  0  0  0  0  0  0  0  0  0  0
   52.2813   51.2849   15.9698 O   0  0  0  0  0  0  0  0  0  0  0  0
   51.1149   52.6914   18.0531 C   0  0  0  0  0  0  0  0  0  0  0  0
   50.2466   53.6353   18.8650 C   0  0  0  0  0  0  0  0  0  0  0  0
   49.6188   52.9091   20.4126 S   0  0  2  0  0  0  0  0  0  0  0  0
   47.8113   52.9377   20.2276 C   0  0  0  0  0  0  0  0  0  0  0  0
   49.5468   54.3835   21.5980 C   0  0  0  0  0  0  0  0  0  0  0  0
   49.6373   54.1318   23.1615 C   0  0  2  0  0  0  0  0  0  0  0  0
   50.8158   53.5589   23.6813 O   0  0  0  0  0  0  0  0  0  0  0  0
   48.4960   53.5583   23.9017 C   0  0  1  0  0  0  0  0  0  0  0  0
   47.2688   53.6449   23.1765 O   0  0  0  0  0  0  0  0  0  0  0  0
   49.0989   52.0822   24.0536 C   0  0  2  0  0  0  0  0  0  0  0  0
   48.3451   51.3297   24.9561 O   0  0  0  0  0  0  0  0  0  0  0  0
   50.4918   52.4097   24.5880 C   0  0  1  0  0  0  0  0  0  0  0  0
   53.3893   52.9963   15.3705 O   0  0  0  0  0  0  0  0  0  0  0  0
   53.4835   50.3810   20.9735 N   0  0  0  0  0  0  0  0  0  0  0  0
   52.3820   51.1305   20.8782 C   0  0  0  0  0  0  0  0  0  0  0  0
   51.7603   51.5829   21.9631 N   0  0  0  0  0  0  0  0  0  0  0  0
   52.1489   51.2197   23.1957 C   0  0  0  0  0  0  0  0  0  0  0  0
   53.2816   50.3786   23.3470 C   0  0  0  0  0  0  0  0  0  0  0  0
   53.9577   49.9670   22.1651 C   0  0  0  0  0  0  0  0  0  0  0  0
   55.0766   49.1614   22.2280 N   0  0  0  0  0  0  0  0  0  0  0  0
   53.4482   50.1672   24.6644 N   0  0  0  0  0  0  0  0  0  0  0  0
   52.5156   50.7988   25.3260 C   0  0  0  0  0  0  0  0  0  0  0  0
   51.6891   51.4765   24.4741 N   0  0  0  0  0  0  0  0  0  0  0  0
  2  1  1  6  0  0  0
  2  3  1  0  0  0  0
  2  5  1  0  0  0  0
  3  4  1  0  0  0  0
  3 17  1  0  0  0  0
  5  6  1  0  0  0  0
  7  6  1  6  0  0  0
  7  8  1  0  0  0  0
  7  9  1  0  0  0  0
 10  9  1  6  0  0  0
 10 11  1  0  0  0  0
 10 12  1  0  0  0  0
 11 16  1  0  0  0  0
 12 13  1  6  0  0  0
 12 14  1  0  0  0  0
 14 15  1  1  0  0  0
 14 16  1  0  0  0  0
 16 27  1  6  0  0  0
 18 19  2  0  0  0  0
 18 23  1  0  0  0  0
 19 20  1  0  0  0  0
 20 21  2  0  0  0  0
 21 22  1  0  0  0  0
 21 27  1  0  0  0  0
 22 23  2  0  0  0  0
 22 25  1  0  0  0  0
 23 24  1  0  0  0  0
 25 26  2  0  0  0  0
 26 27  1  0  0  0  0
M  END
>  <CHROM.1>
-81.12629570,-64.58429237,176.72413518,-118.54691013,-154.78147556,62.71933683
-45.97838403,51.05919341,52.19517421,21.23653317,1.40382768,0.54003282,-1.36757852

>  <Name>
ligand

>  <RI>
0

>  <Rbt.Current_Directory>
/home/itssahil/PROJECTS/Mol_Feturizer/New_Systems/rnas/3IQR

>  <Rbt.Executable>
rbdock ($Id: //depot/dev/client3/rdock/2013.1/src/exe/rbdock.cxx#4 $)

>  <Rbt.Library>
libRbt.so (2013.1, Build901 2013/11/27)

>  <Rbt.Parameter_File>
/export/apps/rDock/src/rDock_2013.1_src/data/scripts/dock_solv.prm

>  <Rbt.Receptor>
prm/blind_docking_80.prm

>  <SCORE>
-19.9717

>  <SCORE.INTER>
-16.1321

>  <SCORE.INTER.CONST>
1

>  <SCORE.INTER.POLAR>
0

>  <SCORE.INTER.ROT>
7

>  <SCORE.INTER.SOLV>
14.4843

>  <SCORE.INTER.VDW>
-23.8495

>  <SCORE.INTER.norm>
-0.597485

>  <SCORE.INTRA>
-3.83963

>  <SCORE.INTRA.DIHEDRAL>
0.576017

>  <SCORE.INTRA.DIHEDRAL.0>
9.29433

>  <SCORE.INTRA.POLAR>
0

>  <SCORE.INTRA.POLAR.0>
0

>  <SCORE.INTRA.REPUL>
0

>  <SCORE.INTRA.REPUL.0>
0

>  <SCORE.INTRA.SOLV>
-0.691231

>  <SCORE.INTRA.SOLV.lig_0>
-48.5102

>  <SCORE.INTRA.VDW>
-3.78203

>  <SCORE.INTRA.VDW.0>
0.379549

>  <SCORE.INTRA.norm>
-0.142209

>  <SCORE.RESTR>
0

>  <SCORE.RESTR.CAVITY>
0

>  <SCORE.RESTR.norm>
0

>  <SCORE.SYSTEM>
0

>  <SCORE.SYSTEM.CONST>
0

>  <SCORE.SYSTEM.DIHEDRAL>
0

>  <SCORE.SYSTEM.SOLV>
0

>  <SCORE.SYSTEM.norm>
0

>  <SCORE.heavy>
27

>  <SCORE.norm>
-0.739694

>  <RMSD>
11.826

$$$$
ligand
 OpenBabel11021811483D
libRbt.so/2013.1/901 2013/11/27
 27 29  0  0  0  0  0  0  0  0999 V2000
   48.3984   50.9443   24.9244 N   0  0  0  0  0  0  0  0  0  0  0  0
   48.3016   52.4021   24.8661 C   0  0  2  0  0  0  0  0  0  0  0  0
   46.8588   52.8073   24.9561 C   0  0  0  0  0  0  0  0  0  0  0  0
   46.5620   53.9374   25.3293 O   0  0  0  0  0  0  0  0  0  0  0  0
   48.8850   52.9203   23.5522 C   0  0  0  0  0  0  0  0  0  0  0  0
   50.3572   52.5559   23.4907 C   0  0  0  0  0  0  0  0  0  0  0  0
   51.3374   53.2194   24.8749 S   0  0  2  0  0  0  0  0  0  0  0  0
   52.3928   54.4896   24.1167 C   0  0  0  0  0  0  0  0  0  0  0  0
   52.8060   52.0303   24.9893 C   0  0  0  0  0  0  0  0  0  0  0  0
   53.7521   51.8367   23.7309 C   0  0  2  0  0  0  0  0  0  0  0  0
   53.4079   52.4847   22.5272 O   0  0  0  0  0  0  0  0  0  0  0  0
   54.2871   50.5048   23.3858 C   0  0  1  0  0  0  0  0  0  0  0  0
   54.1977   49.5772   24.4679 O   0  0  0  0  0  0  0  0  0  0  0  0
   53.2979   50.2223   22.1582 C   0  0  2  0  0  0  0  0  0  0  0  0
   53.7192   49.1091   21.4286 O   0  0  0  0  0  0  0  0  0  0  0  0
   53.4538   51.5251   21.3762 C   0  0  1  0  0  0  0  0  0  0  0  0
   45.9842   52.0206   24.6167 O   0  0  0  0  0  0  0  0  0  0  0  0
   53.2622   53.4363   16.6390 N   0  0  0  0  0  0  0  0  0  0  0  0
   54.3034   53.1015   17.4056 C   0  0  0  0  0  0  0  0  0  0  0  0
   54.1284   52.5892   18.6202 N   0  0  0  0  0  0  0  0  0  0  0  0
   52.9070   52.4859   19.1675 C   0  0  0  0  0  0  0  0  0  0  0  0
   51.7723   52.8809   18.4127 C   0  0  0  0  0  0  0  0  0  0  0  0
   51.9956   53.3648   17.0938 C   0  0  0  0  0  0  0  0  0  0  0  0
   50.9435   53.7543   16.2899 N   0  0  0  0  0  0  0  0  0  0  0  0
   50.6902   52.6824   19.1858 N   0  0  0  0  0  0  0  0  0  0  0  0
   51.0659   52.2084   20.3436 C   0  0  0  0  0  0  0  0  0  0  0  0
   52.4233   52.0545   20.3888 N   0  0  0  0  0  0  0  0  0  0  0  0
  2  1  1  6  0  0  0
  2  3  1  0  0  0  0
  2  5  1  0  0  0  0
  3  4  1  0  0  0  0
  3 17  1  0  0  0  0
  5  6  1  0  0  0  0
  7  6  1  6  0  0  0
  7  8  1  0  0  0  0
  7  9  1  0  0  0  0
 10  9  1  1  0  0  0
 10 11  1  0  0  0  0
 10 12  1  0  0  0  0
 11 16  1  0  0  0  0
 12 13  1  1  0  0  0
 12 14  1  0  0  0  0
 14 15  1  6  0  0  0
 14 16  1  0  0  0  0
 16 27  1  6  0  0  0
 18 19  2  0  0  0  0
 18 23  1  0  0  0  0
 19 20  1  0  0  0  0
 20 21  2  0  0  0  0
 21 22  1  0  0  0  0
 21 27  1  0  0  0  0
 22 23  2  0  0  0  0
 22 25  1  0  0  0  0
 23 24  1  0  0  0  0
 25 26  2  0  0  0  0
 26 27  1  0  0  0  0
M  END
>  <CHROM.1>
157.87075818,-62.16572419,-58.27695296,-110.58444325,58.54985198,-4.71971711
115.72077574,51.49807315,52.28882878,22.03919414,2.20032735,-0.33109064,1.80547400

>  <Name>
ligand

>  <RI>
0

>  <Rbt.Current_Directory>
/home/itssahil/PROJECTS/Mol_Feturizer/New_Systems/rnas/3IQR

>  <Rbt.Executable>
rbdock ($Id: //depot/dev/client3/rdock/2013.1/src/exe/rbdock.cxx#4 $)

>  <Rbt.Library>
libRbt.so (2013.1, Build901 2013/11/27)

>  <Rbt.Parameter_File>
/export/apps/rDock/src/rDock_2013.1_src/data/scripts/dock_solv.prm

>  <Rbt.Receptor>
prm/blind_docking_80.prm

>  <SCORE>
-8.47144

>  <SCORE.INTER>
-7.50145

>  <SCORE.INTER.CONST>
1

>  <SCORE.INTER.POLAR>
0

>  <SCORE.INTER.ROT>
7

>  <SCORE.INTER.SOLV>
15.1771

>  <SCORE.INTER.VDW>
-18.3267

>  <SCORE.INTER.norm>
-0.277831

>  <SCORE.INTRA>
-0.96999

>  <SCORE.INTRA.DIHEDRAL>
1.3672

>  <SCORE.INTRA.DIHEDRAL.0>
9.29433

>  <SCORE.INTRA.POLAR>
0

>  <SCORE.INTRA.POLAR.0>
0

>  <SCORE.INTRA.REPUL>
0

>  <SCORE.INTRA.REPUL.0>
0

>  <SCORE.INTRA.SOLV>
-0.127608

>  <SCORE.INTRA.SOLV.lig_0>
-48.5102

>  <SCORE.INTRA.VDW>
-1.58979

>  <SCORE.INTRA.VDW.0>
0.379549

>  <SCORE.INTRA.norm>
-0.0359256

>  <SCORE.RESTR>
0

>  <SCORE.RESTR.CAVITY>
0

>  <SCORE.RESTR.norm>
0

>  <SCORE.SYSTEM>
0

>  <SCORE.SYSTEM.CONST>
0

>  <SCORE.SYSTEM.DIHEDRAL>
0

>  <SCORE.SYSTEM.SOLV>
0

>  <SCORE.SYSTEM.norm>
0

>  <SCORE.heavy>
27

>  <SCORE.norm>
-0.313757

>  <RMSD>
11.905

$$$$
ligand
 OpenBabel11021811483D
libRbt.so/2013.1/901 2013/11/27
 27 29  0  0  0  0  0  0  0  0999 V2000
   50.4904   52.0792   26.7697 N   0  0  0  0  0  0  0  0  0  0  0  0
   49.9104   51.8966   25.4400 C   0  0  2  0  0  0  0  0  0  0  0  0
   49.9532   50.4407   25.0759 C   0  0  0  0  0  0  0  0  0  0  0  0
   51.0049   49.8165   25.1691 O   0  0  0  0  0  0  0  0  0  0  0  0
   50.6997   52.6944   24.4028 C   0  0  0  0  0  0  0  0  0  0  0  0
   50.5792   54.1729   24.7244 C   0  0  0  0  0  0  0  0  0  0  0  0
   49.1025   54.9631   24.0090 S   0  0  2  0  0  0  0  0  0  0  0  0
   47.8750   53.6268   23.9099 C   0  0  0  0  0  0  0  0  0  0  0  0
   49.4037   54.8601   22.1429 C   0  0  0  0  0  0  0  0  0  0  0  0
   49.4746   53.4389   21.4419 C   0  0  2  0  0  0  0  0  0  0  0  0
   50.6390   52.6634   21.6146 O   0  0  0  0  0  0  0  0  0  0  0  0
   49.0195   53.2600   20.0490 C   0  0  1  0  0  0  0  0  0  0  0  0
   48.1930   54.3333   19.5967 O   0  0  0  0  0  0  0  0  0  0  0  0
   50.4765   53.1921   19.3873 C   0  0  2  0  0  0  0  0  0  0  0  0
   50.3987   52.7644   18.0607 O   0  0  0  0  0  0  0  0  0  0  0  0
   51.1409   52.1588   20.2951 C   0  0  1  0  0  0  0  0  0  0  0  0
   48.9272   49.8713   24.7262 O   0  0  0  0  0  0  0  0  0  0  0  0
   54.4730   49.8306   23.3947 N   0  0  0  0  0  0  0  0  0  0  0  0
   53.1408   49.9115   23.4451 C   0  0  0  0  0  0  0  0  0  0  0  0
   52.4536   50.5571   22.5075 N   0  0  0  0  0  0  0  0  0  0  0  0
   53.0720   51.2425   21.5328 C   0  0  0  0  0  0  0  0  0  0  0  0
   54.4894   51.2328   21.4691 C   0  0  0  0  0  0  0  0  0  0  0  0
   55.1869   50.4787   22.4531 C   0  0  0  0  0  0  0  0  0  0  0  0
   56.5652   50.4061   22.4508 N   0  0  0  0  0  0  0  0  0  0  0  0
   54.8465   51.9905   20.4172 N   0  0  0  0  0  0  0  0  0  0  0  0
   53.7744   52.4641   19.8404 C   0  0  0  0  0  0  0  0  0  0  0  0
   52.6465   52.0278   20.4774 N   0  0  0  0  0  0  0  0  0  0  0  0
  2  1  1  1  0  0  0
  2  3  1  0  0  0  0
  2  5  1  0  0  0  0
  3  4  1  0  0  0  0
  3 17  1  0  0  0  0
  5  6  1  0  0  0  0
  7  6  1  1  0  0  0
  7  8  1  0  0  0  0
  7  9  1  0  0  0  0
 10  9  1  6  0  0  0
 10 11  1  0  0  0  0
 10 12  1  0  0  0  0
 11 16  1  0  0  0  0
 12 13  1  6  0  0  0
 12 14  1  0  0  0  0
 14 15  1  6  0  0  0
 14 16  1  0  0  0  0
 16 27  1  1  0  0  0
 18 19  2  0  0  0  0
 18 23  1  0  0  0  0
 19 20  1  0  0  0  0
 20 21  2  0  0  0  0
 21 22  1  0  0  0  0
 21 27  1  0  0  0  0
 22 23  2  0  0  0  0
 22 25  1  0  0  0  0
 23 24  1  0  0  0  0
 25 26  2  0  0  0  0
 26 27  1  0  0  0  0
M  END
>  <CHROM.1>
-51.34407237,-63.55168596,-86.26632612,28.93922787,64.33429704,-75.39331532
55.47626966,51.20949135,52.24584463,22.48087261,-3.10471789,0.52392090,-1.24035055

>  <Name>
ligand

>  <RI>
0

>  <Rbt.Current_Directory>
/home/itssahil/PROJECTS/Mol_Feturizer/New_Systems/rnas/3IQR

>  <Rbt.Executable>
rbdock ($Id: //depot/dev/client3/rdock/2013.1/src/exe/rbdock.cxx#4 $)

>  <Rbt.Library>
libRbt.so (2013.1, Build901 2013/11/27)

>  <Rbt.Parameter_File>
/export/apps/rDock/src/rDock_2013.1_src/data/scripts/dock_solv.prm

>  <Rbt.Receptor>
prm/blind_docking_80.prm

>  <SCORE>
-14.2082

>  <SCORE.INTER>
-12.8828

>  <SCORE.INTER.CONST>
1

>  <SCORE.INTER.POLAR>
0

>  <SCORE.INTER.ROT>
7

>  <SCORE.INTER.SOLV>
12.5401

>  <SCORE.INTER.VDW>
-21.0352

>  <SCORE.INTER.norm>
-0.477139

>  <SCORE.INTRA>
-1.32542

>  <SCORE.INTRA.DIHEDRAL>
-1.28341

>  <SCORE.INTRA.DIHEDRAL.0>
9.29433

>  <SCORE.INTRA.POLAR>
0

>  <SCORE.INTRA.POLAR.0>
0

>  <SCORE.INTRA.REPUL>
0

>  <SCORE.INTRA.REPUL.0>
0

>  <SCORE.INTRA.SOLV>
-0.0869435

>  <SCORE.INTRA.SOLV.lig_0>
-48.5102

>  <SCORE.INTRA.VDW>
-0.640238

>  <SCORE.INTRA.VDW.0>
0.379549

>  <SCORE.INTRA.norm>
-0.0490894

>  <SCORE.RESTR>
0

>  <SCORE.RESTR.CAVITY>
0

>  <SCORE.RESTR.norm>
0

>  <SCORE.SYSTEM>
0

>  <SCORE.SYSTEM.CONST>
0

>  <SCORE.SYSTEM.DIHEDRAL>
0

>  <SCORE.SYSTEM.SOLV>
0

>  <SCORE.SYSTEM.norm>
0

>  <SCORE.heavy>
27

>  <SCORE.norm>
-0.526228

>  <RMSD>
11.911

$$$$
ligand
 OpenBabel11021811483D
libRbt.so/2013.1/901 2013/11/27
 27 29  0  0  0  0  0  0  0  0999 V2000
   47.8834   54.3116   26.0907 N   0  0  0  0  0  0  0  0  0  0  0  0
   47.3372   53.7525   24.8550 C   0  0  2  0  0  0  0  0  0  0  0  0
   46.3935   52.6343   25.1912 C   0  0  0  0  0  0  0  0  0  0  0  0
   46.6589   51.8632   26.1073 O   0  0  0  0  0  0  0  0  0  0  0  0
   48.4627   53.2090   23.9757 C   0  0  0  0  0  0  0  0  0  0  0  0
   47.8952   52.8581   22.6123 C   0  0  0  0  0  0  0  0  0  0  0  0
   47.5352   54.3078   21.5704 S   0  0  2  0  0  0  0  0  0  0  0  0
   46.6420   53.6294   20.1407 C   0  0  0  0  0  0  0  0  0  0  0  0
   49.1036   54.5068   20.5290 C   0  0  0  0  0  0  0  0  0  0  0  0
   49.8094   53.2193   19.9289 C   0  0  2  0  0  0  0  0  0  0  0  0
   50.2860   52.2382   20.8220 O   0  0  0  0  0  0  0  0  0  0  0  0
   50.7873   53.3371   18.8292 C   0  0  1  0  0  0  0  0  0  0  0  0
   50.7086   54.5928   18.1535 O   0  0  0  0  0  0  0  0  0  0  0  0
   52.0975   53.1225   19.7250 C   0  0  2  0  0  0  0  0  0  0  0  0
   53.2207   52.9233   18.9201 O   0  0  0  0  0  0  0  0  0  0  0  0
   51.7000   51.8636   20.4933 C   0  0  1  0  0  0  0  0  0  0  0  0
   45.3412   52.5213   24.5755 O   0  0  0  0  0  0  0  0  0  0  0  0
   55.0358   48.4494   22.3228 N   0  0  0  0  0  0  0  0  0  0  0  0
   54.5326   48.6100   21.0960 C   0  0  0  0  0  0  0  0  0  0  0  0
   53.6820   49.5952   20.8235 N   0  0  0  0  0  0  0  0  0  0  0  0
   53.2121   50.4017   21.7883 C   0  0  0  0  0  0  0  0  0  0  0  0
   53.6749   50.2350   23.1192 C   0  0  0  0  0  0  0  0  0  0  0  0
   54.6325   49.2107   23.3591 C   0  0  0  0  0  0  0  0  0  0  0  0
   55.1435   48.9947   24.6229 N   0  0  0  0  0  0  0  0  0  0  0  0
   53.0511   51.1544   23.8765 N   0  0  0  0  0  0  0  0  0  0  0  0
   52.2471   51.8601   23.1269 C   0  0  0  0  0  0  0  0  0  0  0  0
   52.3109   51.4496   21.8247 N   0  0  0  0  0  0  0  0  0  0  0  0
  2  1  1  1  0  0  0
  2  3  1  0  0  0  0
  2  5  1  0  0  0  0
  3  4  1  0  0  0  0
  3 17  1  0  0  0  0
  5  6  1  0  0  0  0
  7  6  1  1  0  0  0
  7  8  1  0  0  0  0
  7  9  1  0  0  0  0
 10  9  1  1  0  0  0
 10 11  1  0  0  0  0
 10 12  1  0  0  0  0
 11 16  1  0  0  0  0
 12 13  1  1  0  0  0
 12 14  1  0  0  0  0
 14 15  1  6  0  0  0
 14 16  1  0  0  0  0
 16 27  1  1  0  0  0
 18 19  2  0  0  0  0
 18 23  1  0  0  0  0
 19 20  1  0  0  0  0
 20 21  2  0  0  0  0
 21 22  1  0  0  0  0
 21 27  1  0  0  0  0
 22 23  2  0  0  0  0
 22 25  1  0  0  0  0
 23 24  1  0  0  0  0
 25 26  2  0  0  0  0
 26 27  1  0  0  0  0
M  END
>  <CHROM.1>
-38.85932758,-170.36185862,74.57994837,-171.38033053,41.61837144,-60.66686444
143.54300834,50.47364963,52.19579208,22.11533861,-3.14076459,0.49295369,-1.14895556

>  <Name>
ligand

>  <RI>
0

>  <Rbt.Current_Directory>
/home/itssahil/PROJECTS/Mol_Feturizer/New_Systems/rnas/3IQR

>  <Rbt.Executable>
rbdock ($Id: //depot/dev/client3/rdock/2013.1/src/exe/rbdock.cxx#4 $)

>  <Rbt.Library>
libRbt.so (2013.1, Build901 2013/11/27)

>  <Rbt.Parameter_File>
/export/apps/rDock/src/rDock_2013.1_src/data/scripts/dock_solv.prm

>  <Rbt.Receptor>
prm/blind_docking_80.prm

>  <SCORE>
-16.5554

>  <SCORE.INTER>
-11.2582

>  <SCORE.INTER.CONST>
1

>  <SCORE.INTER.POLAR>
0

>  <SCORE.INTER.ROT>
7

>  <SCORE.INTER.SOLV>
17.1605

>  <SCORE.INTER.VDW>
-21.4923

>  <SCORE.INTER.norm>
-0.416971

>  <SCORE.INTRA>
-5.29717

>  <SCORE.INTRA.DIHEDRAL>
-2.76924

>  <SCORE.INTRA.DIHEDRAL.0>
9.29433

>  <SCORE.INTRA.POLAR>
0

>  <SCORE.INTRA.POLAR.0>
0

>  <SCORE.INTRA.REPUL>
0

>  <SCORE.INTRA.REPUL.0>
0

>  <SCORE.INTRA.SOLV>
-1.62306

>  <SCORE.INTRA.SOLV.lig_0>
-48.5102

>  <SCORE.INTRA.VDW>
-3.10102

>  <SCORE.INTRA.VDW.0>
0.379549

>  <SCORE.INTRA.norm>
-0.196191

>  <SCORE.RESTR>
0

>  <SCORE.RESTR.CAVITY>
0

>  <SCORE.RESTR.norm>
0

>  <SCORE.SYSTEM>
0

>  <SCORE.SYSTEM.CONST>
0

>  <SCORE.SYSTEM.DIHEDRAL>
0

>  <SCORE.SYSTEM.SOLV>
0

>  <SCORE.SYSTEM.norm>
0

>  <SCORE.heavy>
27

>  <SCORE.norm>
-0.613162

>  <RMSD>
12.029

$$$$
ligand
 OpenBabel11021811483D
libRbt.so/2013.1/901 2013/11/27
 27 29  0  0  0  0  0  0  0  0999 V2000
   42.5595   53.2630   18.8408 N   0  0  0  0  0  0  0  0  0  0  0  0
   43.6340   52.6711   19.6365 C   0  0  2  0  0  0  0  0  0  0  0  0
   43.0630   52.1257   20.9134 C   0  0  0  0  0  0  0  0  0  0  0  0
   42.1090   52.6836   21.4454 O   0  0  0  0  0  0  0  0  0  0  0  0
   44.6888   53.7251   19.9709 C   0  0  0  0  0  0  0  0  0  0  0  0
   45.9699   53.0241   20.3847 C   0  0  0  0  0  0  0  0  0  0  0  0
   47.2952   54.1602   20.9038 S   0  0  2  0  0  0  0  0  0  0  0  0
   47.7575   55.0436   19.3846 C   0  0  0  0  0  0  0  0  0  0  0  0
   48.8588   53.0988   20.7935 C   0  0  0  0  0  0  0  0  0  0  0  0
   50.1500   53.5257   21.6101 C   0  0  2  0  0  0  0  0  0  0  0  0
   51.4011   53.0249   21.1963 O   0  0  0  0  0  0  0  0  0  0  0  0
   50.1394   53.5411   23.0862 C   0  0  1  0  0  0  0  0  0  0  0  0
   48.8183   53.5324   23.6284 O   0  0  0  0  0  0  0  0  0  0  0  0
   50.9721   52.1881   23.2898 C   0  0  2  0  0  0  0  0  0  0  0  0
   51.3642   52.0433   24.6218 O   0  0  0  0  0  0  0  0  0  0  0  0
   52.1542   52.4522   22.3592 C   0  0  1  0  0  0  0  0  0  0  0  0
   43.5262   51.1010   21.3975 O   0  0  0  0  0  0  0  0  0  0  0  0
   54.9147   48.4280   23.8815 N   0  0  0  0  0  0  0  0  0  0  0  0
   54.2715   49.3639   24.5847 C   0  0  0  0  0  0  0  0  0  0  0  0
   53.5803   50.3261   23.9808 N   0  0  0  0  0  0  0  0  0  0  0  0
   53.5865   50.4603   22.6451 C   0  0  0  0  0  0  0  0  0  0  0  0
   54.3016   49.5223   21.8564 C   0  0  0  0  0  0  0  0  0  0  0  0
   54.9765   48.4705   22.5360 C   0  0  0  0  0  0  0  0  0  0  0  0
   55.6814   47.5094   21.8401 N   0  0  0  0  0  0  0  0  0  0  0  0
   54.1502   49.8848   20.5705 N   0  0  0  0  0  0  0  0  0  0  0  0
   53.4130   50.9614   20.5077 C   0  0  0  0  0  0  0  0  0  0  0  0
   53.0248   51.3585   21.7566 N   0  0  0  0  0  0  0  0  0  0  0  0
  2  1  1  6  0  0  0
  2  3  1  0  0  0  0
  2  5  1  0  0  0  0
  3  4  1  0  0  0  0
  3 17  1  0  0  0  0
  5  6  1  0  0  0  0
  7  6  1  6  0  0  0
  7  8  1  0  0  0  0
  7  9  1  0  0  0  0
 10  9  1  1  0  0  0
 10 11  1  0  0  0  0
 10 12  1  0  0  0  0
 11 16  1  0  0  0  0
 12 13  1  6  0  0  0
 12 14  1  0  0  0  0
 14 15  1  1  0  0  0
 14 16  1  0  0  0  0
 16 27  1  6  0  0  0
 18 19  2  0  0  0  0
 18 23  1  0  0  0  0
 19 20  1  0  0  0  0
 20 21  2  0  0  0  0
 21 22  1  0  0  0  0
 21 27  1  0  0  0  0
 22 23  2  0  0  0  0
 22 25  1  0  0  0  0
 23 24  1  0  0  0  0
 25 26  2  0  0  0  0
 26 27  1  0  0  0  0
M  END
>  <CHROM.1>
-33.13414497,-161.85099114,-176.78355555,-67.52088762,-159.24258595,-159.08019556
-165.21149895,49.61054587,51.93232996,21.71973117,2.78963870,-0.16158212
-0.17737520

>  <Name>
ligand

>  <RI>
0

>  <Rbt.Current_Directory>
/home/itssahil/PROJECTS/Mol_Feturizer/New_Systems/rnas/3IQR

>  <Rbt.Executable>
rbdock ($Id: //depot/dev/client3/rdock/2013.1/src/exe/rbdock.cxx#4 $)

>  <Rbt.Library>
libRbt.so (2013.1, Build901 2013/11/27)

>  <Rbt.Parameter_File>
/export/apps/rDock/src/rDock_2013.1_src/data/scripts/dock_solv.prm

>  <Rbt.Receptor>
prm/blind_docking_80.prm

>  <SCORE>
-21.7526

>  <SCORE.INTER>
-17.7184

>  <SCORE.INTER.CONST>
1

>  <SCORE.INTER.POLAR>
0

>  <SCORE.INTER.ROT>
7

>  <SCORE.INTER.SOLV>
15.8081

>  <SCORE.INTER.VDW>
-25.3483

>  <SCORE.INTER.norm>
-0.656239

>  <SCORE.INTRA>
-4.03416

>  <SCORE.INTRA.DIHEDRAL>
-0.683946

>  <SCORE.INTRA.DIHEDRAL.0>
9.29433

>  <SCORE.INTRA.POLAR>
0

>  <SCORE.INTRA.POLAR.0>
0

>  <SCORE.INTRA.REPUL>
0

>  <SCORE.INTRA.REPUL.0>
0

>  <SCORE.INTRA.SOLV>
-1.55783

>  <SCORE.INTRA.SOLV.lig_0>
-48.5102

>  <SCORE.INTRA.VDW>
-2.91328

>  <SCORE.INTRA.VDW.0>
0.379549

>  <SCORE.INTRA.norm>
-0.149413

>  <SCORE.RESTR>
0

>  <SCORE.RESTR.CAVITY>
0

>  <SCORE.RESTR.norm>
0

>  <SCORE.SYSTEM>
0

>  <SCORE.SYSTEM.CONST>
0

>  <SCORE.SYSTEM.DIHEDRAL>
0

>  <SCORE.SYSTEM.SOLV>
0

>  <SCORE.SYSTEM.norm>
0

>  <SCORE.heavy>
27

>  <SCORE.norm>
-0.805652

>  <RMSD>
12.163

$$$$
ligand
 OpenBabel11021811483D
libRbt.so/2013.1/901 2013/11/27
 27 29  0  0  0  0  0  0  0  0999 V2000
   50.3622   54.4257   17.1944 N   0  0  0  0  0  0  0  0  0  0  0  0
   50.9324   53.8641   18.4181 C   0  0  2  0  0  0  0  0  0  0  0  0
   51.5343   52.5226   18.1146 C   0  0  0  0  0  0  0  0  0  0  0  0
   52.3950   52.0559   18.8534 O   0  0  0  0  0  0  0  0  0  0  0  0
   49.8470   53.6958   19.4805 C   0  0  0  0  0  0  0  0  0  0  0  0
   50.5084   53.5282   20.8364 C   0  0  0  0  0  0  0  0  0  0  0  0
   49.3323   53.4664   22.2256 S   0  0  2  0  0  0  0  0  0  0  0  0
   48.4018   55.0225   22.1029 C   0  0  0  0  0  0  0  0  0  0  0  0
   50.3302   54.1477   23.6830 C   0  0  0  0  0  0  0  0  0  0  0  0
   51.2962   53.1797   24.4867 C   0  0  2  0  0  0  0  0  0  0  0  0
   52.3579   52.5643   23.7929 O   0  0  0  0  0  0  0  0  0  0  0  0
   50.7537   52.1934   25.4418 C   0  0  1  0  0  0  0  0  0  0  0  0
   49.4095   52.4818   25.8285 O   0  0  0  0  0  0  0  0  0  0  0  0
   50.9354   50.9090   24.5022 C   0  0  2  0  0  0  0  0  0  0  0  0
   50.7390   49.7327   25.2278 O   0  0  0  0  0  0  0  0  0  0  0  0
   52.3887   51.0910   24.0687 C   0  0  1  0  0  0  0  0  0  0  0  0
   51.1336   51.8803   17.1524 O   0  0  0  0  0  0  0  0  0  0  0  0
   55.5839   47.3235   22.7545 N   0  0  0  0  0  0  0  0  0  0  0  0
   55.2372   47.7978   23.9540 C   0  0  0  0  0  0  0  0  0  0  0  0
   54.3541   48.7845   24.0760 N   0  0  0  0  0  0  0  0  0  0  0  0
   53.8555   49.4151   23.0009 C   0  0  0  0  0  0  0  0  0  0  0  0
   54.2367   48.9836   21.7040 C   0  0  0  0  0  0  0  0  0  0  0  0
   55.1345   47.8839   21.6143 C   0  0  0  0  0  0  0  0  0  0  0  0
   55.5416   47.3943   20.3897 N   0  0  0  0  0  0  0  0  0  0  0  0
   53.6070   49.7760   20.8189 N   0  0  0  0  0  0  0  0  0  0  0  0
   52.8829   50.6533   21.4611 C   0  0  0  0  0  0  0  0  0  0  0  0
   52.9864   50.4738   22.8121 N   0  0  0  0  0  0  0  0  0  0  0  0
  2  1  1  6  0  0  0
  2  3  1  0  0  0  0
  2  5  1  0  0  0  0
  3  4  1  0  0  0  0
  3 17  1  0  0  0  0
  5  6  1  0  0  0  0
  7  6  1  6  0  0  0
  7  8  1  0  0  0  0
  7  9  1  0  0  0  0
 10  9  1  6  0  0  0
 10 11  1  0  0  0  0
 10 12  1  0  0  0  0
 11 16  1  0  0  0  0
 12 13  1  6  0  0  0
 12 14  1  0  0  0  0
 14 15  1  1  0  0  0
 14 16  1  0  0  0  0
 16 27  1  6  0  0  0
 18 19  2  0  0  0  0
 18 23  1  0  0  0  0
 19 20  1  0  0  0  0
 20 21  2  0  0  0  0
 21 22  1  0  0  0  0
 21 27  1  0  0  0  0
 22 23  2  0  0  0  0
 22 25  1  0  0  0  0
 23 24  1  0  0  0  0
 25 26  2  0  0  0  0
 26 27  1  0  0  0  0
M  END
>  <CHROM.1>
158.14220197,-162.78088131,174.79259550,-57.26828458,-83.12523524,60.88476739
141.43176683,51.87489129,51.46887158,22.00828719,-2.67781770,-0.81243870
1.76842444

>  <Name>
ligand

>  <RI>
0

>  <Rbt.Current_Directory>
/home/itssahil/PROJECTS/Mol_Feturizer/New_Systems/rnas/3IQR

>  <Rbt.Executable>
rbdock ($Id: //depot/dev/client3/rdock/2013.1/src/exe/rbdock.cxx#4 $)

>  <Rbt.Library>
libRbt.so (2013.1, Build901 2013/11/27)

>  <Rbt.Parameter_File>
/export/apps/rDock/src/rDock_2013.1_src/data/scripts/dock_solv.prm

>  <Rbt.Receptor>
prm/blind_docking_80.prm

>  <SCORE>
-22.7734

>  <SCORE.INTER>
-16.8549

>  <SCORE.INTER.CONST>
1

>  <SCORE.INTER.POLAR>
0

>  <SCORE.INTER.ROT>
7

>  <SCORE.INTER.SOLV>
14.9307

>  <SCORE.INTER.VDW>
-24.4802

>  <SCORE.INTER.norm>
-0.624256

>  <SCORE.INTRA>
-5.9185

>  <SCORE.INTRA.DIHEDRAL>
-2.94783

>  <SCORE.INTRA.DIHEDRAL.0>
9.29433

>  <SCORE.INTRA.POLAR>
0

>  <SCORE.INTRA.POLAR.0>
0

>  <SCORE.INTRA.REPUL>
0

>  <SCORE.INTRA.REPUL.0>
0

>  <SCORE.INTRA.SOLV>
-1.64137

>  <SCORE.INTRA.SOLV.lig_0>
-48.5102

>  <SCORE.INTRA.VDW>
-3.6239

>  <SCORE.INTRA.VDW.0>
0.379549

>  <SCORE.INTRA.norm>
-0.219204

>  <SCORE.RESTR>
0

>  <SCORE.RESTR.CAVITY>
0

>  <SCORE.RESTR.norm>
0

>  <SCORE.SYSTEM>
0

>  <SCORE.SYSTEM.CONST>
0

>  <SCORE.SYSTEM.DIHEDRAL>
0

>  <SCORE.SYSTEM.SOLV>
0

>  <SCORE.SYSTEM.norm>
0

>  <SCORE.heavy>
27

>  <SCORE.norm>
-0.84346

>  <RMSD>
12.180

$$$$
ligand
 OpenBabel11021811483D
libRbt.so/2013.1/901 2013/11/27
 27 29  0  0  0  0  0  0  0  0999 V2000
   53.5061   53.5457   21.4357 N   0  0  0  0  0  0  0  0  0  0  0  0
   52.7944   52.6966   20.4815 C   0  0  2  0  0  0  0  0  0  0  0  0
   53.1201   51.2575   20.7592 C   0  0  0  0  0  0  0  0  0  0  0  0
   54.2131   50.8035   20.4371 O   0  0  0  0  0  0  0  0  0  0  0  0
   53.2144   53.0370   19.0523 C   0  0  0  0  0  0  0  0  0  0  0  0
   52.3913   52.2040   18.0866 C   0  0  0  0  0  0  0  0  0  0  0  0
   50.8396   53.0021   17.5650 S   0  0  2  0  0  0  0  0  0  0  0  0
   51.3439   54.6576   17.0107 C   0  0  0  0  0  0  0  0  0  0  0  0
   50.1482   53.7227   19.1734 C   0  0  0  0  0  0  0  0  0  0  0  0
   49.1864   52.8390   20.0734 C   0  0  2  0  0  0  0  0  0  0  0  0
   47.8280   52.7429   19.7091 O   0  0  0  0  0  0  0  0  0  0  0  0
   49.2512   52.9127   21.5464 C   0  0  1  0  0  0  0  0  0  0  0  0
   50.4619   53.5069   22.0161 O   0  0  0  0  0  0  0  0  0  0  0  0
   47.9318   53.7990   21.7440 C   0  0  2  0  0  0  0  0  0  0  0  0
   47.5595   53.8402   23.0888 O   0  0  0  0  0  0  0  0  0  0  0  0
   46.9422   53.0101   20.8888 C   0  0  1  0  0  0  0  0  0  0  0  0
   52.3078   50.5524   21.3441 O   0  0  0  0  0  0  0  0  0  0  0  0
   45.5505   56.6244   17.5524 N   0  0  0  0  0  0  0  0  0  0  0  0
   46.7510   56.2990   18.0393 C   0  0  0  0  0  0  0  0  0  0  0  0
   46.8979   55.2907   18.8938 N   0  0  0  0  0  0  0  0  0  0  0  0
   45.8383   54.6278   19.3836 C   0  0  0  0  0  0  0  0  0  0  0  0
   44.5362   54.9738   18.9385 C   0  0  0  0  0  0  0  0  0  0  0  0
   44.4254   56.0157   17.9763 C   0  0  0  0  0  0  0  0  0  0  0  0
   43.1959   56.4011   17.4816 N   0  0  0  0  0  0  0  0  0  0  0  0
   43.6689   54.1713   19.5801 N   0  0  0  0  0  0  0  0  0  0  0  0
   44.3262   53.3737   20.3790 C   0  0  0  0  0  0  0  0  0  0  0  0
   45.6714   53.6002   20.2935 N   0  0  0  0  0  0  0  0  0  0  0  0
  2  1  1  1  0  0  0
  2  3  1  0  0  0  0
  2  5  1  0  0  0  0
  3  4  1  0  0  0  0
  3 17  1  0  0  0  0
  5  6  1  0  0  0  0
  7  6  1  1  0  0  0
  7  8  1  0  0  0  0
  7  9  1  0  0  0  0
 10  9  1  6  0  0  0
 10 11  1  0  0  0  0
 10 12  1  0  0  0  0
 11 16  1  0  0  0  0
 12 13  1  6  0  0  0
 12 14  1  0  0  0  0
 14 15  1  1  0  0  0
 14 16  1  0  0  0  0
 16 27  1  6  0  0  0
 18 19  2  0  0  0  0
 18 23  1  0  0  0  0
 19 20  1  0  0  0  0
 20 21  2  0  0  0  0
 21 22  1  0  0  0  0
 21 27  1  0  0  0  0
 22 23  2  0  0  0  0
 22 25  1  0  0  0  0
 23 24  1  0  0  0  0
 25 26  2  0  0  0  0
 26 27  1  0  0  0  0
M  END
>  <CHROM.1>
-74.94041108,-176.27401217,90.04180475,51.00333178,-89.64041646,-80.42909024
-48.85854065,48.87676918,53.60602422,19.67049660,0.26589153,-0.27860079,1.98976408

>  <Name>
ligand

>  <RI>
0

>  <Rbt.Current_Directory>
/home/itssahil/PROJECTS/Mol_Feturizer/New_Systems/rnas/3IQR

>  <Rbt.Executable>
rbdock ($Id: //depot/dev/client3/rdock/2013.1/src/exe/rbdock.cxx#4 $)

>  <Rbt.Library>
libRbt.so (2013.1, Build901 2013/11/27)

>  <Rbt.Parameter_File>
/export/apps/rDock/src/rDock_2013.1_src/data/scripts/dock_solv.prm

>  <Rbt.Receptor>
prm/blind_docking_80.prm

>  <SCORE>
-22.4167

>  <SCORE.INTER>
-19.8438

>  <SCORE.INTER.CONST>
1

>  <SCORE.INTER.POLAR>
0

>  <SCORE.INTER.ROT>
7

>  <SCORE.INTER.SOLV>
12.174

>  <SCORE.INTER.VDW>
-25.5539

>  <SCORE.INTER.norm>
-0.734955

>  <SCORE.INTRA>
-2.58456

>  <SCORE.INTRA.DIHEDRAL>
-0.201175

>  <SCORE.INTRA.DIHEDRAL.0>
9.29433

>  <SCORE.INTRA.POLAR>
0

>  <SCORE.INTRA.POLAR.0>
0

>  <SCORE.INTRA.REPUL>
0

>  <SCORE.INTRA.REPUL.0>
0

>  <SCORE.INTRA.SOLV>
0.24429

>  <SCORE.INTRA.SOLV.lig_0>
-48.5102

>  <SCORE.INTRA.VDW>
-2.60612

>  <SCORE.INTRA.VDW.0>
0.379549

>  <SCORE.INTRA.norm>
-0.0957244

>  <SCORE.RESTR>
0.0116243

>  <SCORE.RESTR.CAVITY>
0.0116243

>  <SCORE.RESTR.norm>
0.000430531

>  <SCORE.SYSTEM>
0

>  <SCORE.SYSTEM.CONST>
0

>  <SCORE.SYSTEM.DIHEDRAL>
0

>  <SCORE.SYSTEM.SOLV>
0

>  <SCORE.SYSTEM.norm>
0

>  <SCORE.heavy>
27

>  <SCORE.norm>
-0.830249

>  <RMSD>
12.277

$$$$
ligand
 OpenBabel11021811483D
libRbt.so/2013.1/901 2013/11/27
 27 29  0  0  0  0  0  0  0  0999 V2000
   52.7953   56.7701   13.9086 N   0  0  0  0  0  0  0  0  0  0  0  0
   53.0724   56.0485   15.1497 C   0  0  2  0  0  0  0  0  0  0  0  0
   54.1600   55.0425   14.9063 C   0  0  0  0  0  0  0  0  0  0  0  0
   55.2232   55.1312   15.5113 O   0  0  0  0  0  0  0  0  0  0  0  0
   51.8179   55.3212   15.6319 C   0  0  0  0  0  0  0  0  0  0  0  0
   52.1086   54.6785   16.9759 C   0  0  0  0  0  0  0  0  0  0  0  0
   50.6775   53.8205   17.7056 S   0  0  2  0  0  0  0  0  0  0  0  0
   49.5857   55.1583   18.2717 C   0  0  0  0  0  0  0  0  0  0  0  0
   51.2247   53.4785   19.4854 C   0  0  0  0  0  0  0  0  0  0  0  0
   52.0176   52.1447   19.8145 C   0  0  2  0  0  0  0  0  0  0  0  0
   51.7338   51.4768   21.0230 O   0  0  0  0  0  0  0  0  0  0  0  0
   53.4729   52.0545   19.5837 C   0  0  1  0  0  0  0  0  0  0  0  0
   53.9577   53.0777   18.7133 O   0  0  0  0  0  0  0  0  0  0  0  0
   53.9111   52.1960   21.1177 C   0  0  2  0  0  0  0  0  0  0  0  0
   55.2641   51.8908   21.2766 O   0  0  0  0  0  0  0  0  0  0  0  0
   52.9986   51.1528   21.7598 C   0  0  1  0  0  0  0  0  0  0  0  0
   53.9657   54.1122   14.1343 O   0  0  0  0  0  0  0  0  0  0  0  0
   50.8466   54.2863   25.1776 N   0  0  0  0  0  0  0  0  0  0  0  0
   51.2150   54.4942   23.9106 C   0  0  0  0  0  0  0  0  0  0  0  0
   51.7432   53.5186   23.1776 N   0  0  0  0  0  0  0  0  0  0  0  0
   52.0259   52.3183   23.7082 C   0  0  0  0  0  0  0  0  0  0  0  0
   51.7038   52.0665   25.0669 C   0  0  0  0  0  0  0  0  0  0  0  0
   51.0820   53.1147   25.8005 C   0  0  0  0  0  0  0  0  0  0  0  0
   50.7235   52.9440   27.1224 N   0  0  0  0  0  0  0  0  0  0  0  0
   52.0912   50.8087   25.3421 N   0  0  0  0  0  0  0  0  0  0  0  0
   52.6247   50.2763   24.2752 C   0  0  0  0  0  0  0  0  0  0  0  0
   52.6028   51.1564   23.2297 N   0  0  0  0  0  0  0  0  0  0  0  0
  2  1  1  6  0  0  0
  2  3  1  0  0  0  0
  2  5  1  0  0  0  0
  3  4  1  0  0  0  0
  3 17  1  0  0  0  0
  5  6  1  0  0  0  0
  7  6  1  6  0  0  0
  7  8  1  0  0  0  0
  7  9  1  0  0  0  0
 10  9  1  1  0  0  0
 10 11  1  0  0  0  0
 10 12  1  0  0  0  0
 11 16  1  0  0  0  0
 12 13  1  6  0  0  0
 12 14  1  0  0  0  0
 14 15  1  6  0  0  0
 14 16  1  0  0  0  0
 16 27  1  1  0  0  0
 18 19  2  0  0  0  0
 18 23  1  0  0  0  0
 19 20  1  0  0  0  0
 20 21  2  0  0  0  0
 21 22  1  0  0  0  0
 21 27  1  0  0  0  0
 22 23  2  0  0  0  0
 22 25  1  0  0  0  0
 23 24  1  0  0  0  0
 25 26  2  0  0  0  0
 26 27  1  0  0  0  0
M  END
>  <CHROM.1>
117.86993858,-175.42970198,177.94559441,-73.47927274,-88.04855830,-141.50679427
-56.60085055,52.34820212,53.32492025,20.18010953,1.41894953,0.61774755,-1.18748326

>  <Name>
ligand

>  <RI>
0

>  <Rbt.Current_Directory>
/home/itssahil/PROJECTS/Mol_Feturizer/New_Systems/rnas/3IQR

>  <Rbt.Executable>
rbdock ($Id: //depot/dev/client3/rdock/2013.1/src/exe/rbdock.cxx#4 $)

>  <Rbt.Library>
libRbt.so (2013.1, Build901 2013/11/27)

>  <Rbt.Parameter_File>
/export/apps/rDock/src/rDock_2013.1_src/data/scripts/dock_solv.prm

>  <Rbt.Receptor>
prm/blind_docking_80.prm

>  <SCORE>
-15.5591

>  <SCORE.INTER>
-11.3748

>  <SCORE.INTER.CONST>
1

>  <SCORE.INTER.POLAR>
0

>  <SCORE.INTER.ROT>
7

>  <SCORE.INTER.SOLV>
11.3172

>  <SCORE.INTER.VDW>
-19.6222

>  <SCORE.INTER.norm>
-0.421288

>  <SCORE.INTRA>
-4.18436

>  <SCORE.INTRA.DIHEDRAL>
-1.07095

>  <SCORE.INTRA.DIHEDRAL.0>
9.29433

>  <SCORE.INTRA.POLAR>
0

>  <SCORE.INTRA.POLAR.0>
0

>  <SCORE.INTRA.REPUL>
0

>  <SCORE.INTRA.REPUL.0>
0

>  <SCORE.INTRA.SOLV>
-1.57298

>  <SCORE.INTRA.SOLV.lig_0>
-48.5102

>  <SCORE.INTRA.VDW>
-2.8624

>  <SCORE.INTRA.VDW.0>
0.379549

>  <SCORE.INTRA.norm>
-0.154976

>  <SCORE.RESTR>
0

>  <SCORE.RESTR.CAVITY>
0

>  <SCORE.RESTR.norm>
0

>  <SCORE.SYSTEM>
0

>  <SCORE.SYSTEM.CONST>
0

>  <SCORE.SYSTEM.DIHEDRAL>
0

>  <SCORE.SYSTEM.SOLV>
0

>  <SCORE.SYSTEM.norm>
0

>  <SCORE.heavy>
27

>  <SCORE.norm>
-0.576264

>  <RMSD>
12.421

$$$$
ligand
 OpenBabel11021811483D
libRbt.so/2013.1/901 2013/11/27
 27 29  0  0  0  0  0  0  0  0999 V2000
   54.7887   48.1768   21.2723 N   0  0  0  0  0  0  0  0  0  0  0  0
   55.7064   47.6415   22.2768 C   0  0  2  0  0  0  0  0  0  0  0  0
   55.9672   46.1914   21.9879 C   0  0  0  0  0  0  0  0  0  0  0  0
   56.0779   45.3928   22.9121 O   0  0  0  0  0  0  0  0  0  0  0  0
   55.0990   47.7712   23.6730 C   0  0  0  0  0  0  0  0  0  0  0  0
   55.1461   49.2282   24.0959 C   0  0  0  0  0  0  0  0  0  0  0  0
   53.9820   50.2952   23.1887 S   0  0  2  0  0  0  0  0  0  0  0  0
   54.4863   51.9872   23.6192 C   0  0  0  0  0  0  0  0  0  0  0  0
   52.4922   50.4158   24.3505 C   0  0  0  0  0  0  0  0  0  0  0  0
   51.2551   51.3200   23.9404 C   0  0  2  0  0  0  0  0  0  0  0  0
   50.9125   51.4089   22.5758 O   0  0  0  0  0  0  0  0  0  0  0  0
   51.0652   52.6565   24.5380 C   0  0  1  0  0  0  0  0  0  0  0  0
   51.8284   52.8407   25.7309 O   0  0  0  0  0  0  0  0  0  0  0  0
   51.5638   53.4973   23.2693 C   0  0  2  0  0  0  0  0  0  0  0  0
   51.2642   54.8520   23.4240 O   0  0  0  0  0  0  0  0  0  0  0  0
   50.7389   52.8401   22.1645 C   0  0  1  0  0  0  0  0  0  0  0  0
   56.0273   45.8042   20.8279 O   0  0  0  0  0  0  0  0  0  0  0  0
   49.2817   55.1537   17.8455 N   0  0  0  0  0  0  0  0  0  0  0  0
   48.7561   55.1818   19.0731 C   0  0  0  0  0  0  0  0  0  0  0  0
   49.3163   54.5151   20.0780 N   0  0  0  0  0  0  0  0  0  0  0  0
   50.3675   53.7037   19.8805 C   0  0  0  0  0  0  0  0  0  0  0  0
   50.9279   53.5972   18.5813 C   0  0  0  0  0  0  0  0  0  0  0  0
   50.3397   54.3748   17.5455 C   0  0  0  0  0  0  0  0  0  0  0  0
   50.8359   54.3389   16.2581 N   0  0  0  0  0  0  0  0  0  0  0  0
   51.9508   52.7279   18.6583 N   0  0  0  0  0  0  0  0  0  0  0  0
   52.0582   52.2927   19.8853 C   0  0  0  0  0  0  0  0  0  0  0  0
   51.1147   52.8679   20.6896 N   0  0  0  0  0  0  0  0  0  0  0  0
  2  1  1  6  0  0  0
  2  3  1  0  0  0  0
  2  5  1  0  0  0  0
  3  4  1  0  0  0  0
  3 17  1  0  0  0  0
  5  6  1  0  0  0  0
  7  6  1  1  0  0  0
  7  8  1  0  0  0  0
  7  9  1  0  0  0  0
 10  9  1  6  0  0  0
 10 11  1  0  0  0  0
 10 12  1  0  0  0  0
 11 16  1  0  0  0  0
 12 13  1  1  0  0  0
 12 14  1  0  0  0  0
 14 15  1  1  0  0  0
 14 16  1  0  0  0  0
 16 27  1  6  0  0  0
 18 19  2  0  0  0  0
 18 23  1  0  0  0  0
 19 20  1  0  0  0  0
 20 21  2  0  0  0  0
 21 22  1  0  0  0  0
 21 27  1  0  0  0  0
 22 23  2  0  0  0  0
 22 25  1  0  0  0  0
 23 24  1  0  0  0  0
 25 26  2  0  0  0  0
 26 27  1  0  0  0  0
M  END
>  <CHROM.1>
-142.39289739,-73.44222601,70.98640325,-168.29426298,177.74785128,34.34560510
142.48272375,52.48271350,51.39543966,21.73046881,-0.31153320,0.94178595,-1.65793216

>  <Name>
ligand

>  <RI>
0

>  <Rbt.Current_Directory>
/home/itssahil/PROJECTS/Mol_Feturizer/New_Systems/rnas/3IQR

>  <Rbt.Executable>
rbdock ($Id: //depot/dev/client3/rdock/2013.1/src/exe/rbdock.cxx#4 $)

>  <Rbt.Library>
libRbt.so (2013.1, Build901 2013/11/27)

>  <Rbt.Parameter_File>
/export/apps/rDock/src/rDock_2013.1_src/data/scripts/dock_solv.prm

>  <Rbt.Receptor>
prm/blind_docking_80.prm

>  <SCORE>
-18.6942

>  <SCORE.INTER>
-16.107

>  <SCORE.INTER.CONST>
1

>  <SCORE.INTER.POLAR>
0

>  <SCORE.INTER.ROT>
7

>  <SCORE.INTER.SOLV>
15.5409

>  <SCORE.INTER.VDW>
-24.185

>  <SCORE.INTER.norm>
-0.596556

>  <SCORE.INTRA>
-2.60011

>  <SCORE.INTRA.DIHEDRAL>
-1.26234

>  <SCORE.INTRA.DIHEDRAL.0>
9.29433

>  <SCORE.INTRA.POLAR>
0

>  <SCORE.INTRA.POLAR.0>
0

>  <SCORE.INTRA.REPUL>
0

>  <SCORE.INTRA.REPUL.0>
0

>  <SCORE.INTRA.SOLV>
0.735707

>  <SCORE.INTRA.SOLV.lig_0>
-48.5102

>  <SCORE.INTRA.VDW>
-2.33679

>  <SCORE.INTRA.VDW.0>
0.379549

>  <SCORE.INTRA.norm>
-0.0963002

>  <SCORE.RESTR>
0.0129709

>  <SCORE.RESTR.CAVITY>
0.0129709

>  <SCORE.RESTR.norm>
0.000480402

>  <SCORE.SYSTEM>
0

>  <SCORE.SYSTEM.CONST>
0

>  <SCORE.SYSTEM.DIHEDRAL>
0

>  <SCORE.SYSTEM.SOLV>
0

>  <SCORE.SYSTEM.norm>
0

>  <SCORE.heavy>
27

>  <SCORE.norm>
-0.692376

>  <RMSD>
12.453

$$$$
ligand
 OpenBabel11021811483D
libRbt.so/2013.1/901 2013/11/27
 27 29  0  0  0  0  0  0  0  0999 V2000
   50.8613   52.1063   21.3911 N   0  0  0  0  0  0  0  0  0  0  0  0
   50.8205   52.3736   22.8280 C   0  0  2  0  0  0  0  0  0  0  0  0
   51.5332   51.2720   23.5578 C   0  0  0  0  0  0  0  0  0  0  0  0
   52.3659   50.5878   22.9723 O   0  0  0  0  0  0  0  0  0  0  0  0
   49.3734   52.4405   23.3144 C   0  0  0  0  0  0  0  0  0  0  0  0
   48.6368   53.5039   22.5202 C   0  0  0  0  0  0  0  0  0  0  0  0
   47.8242   52.8694   21.0190 S   0  0  2  0  0  0  0  0  0  0  0  0
   47.8248   54.2787   19.8717 C   0  0  0  0  0  0  0  0  0  0  0  0
   45.9814   53.1230   21.3705 C   0  0  0  0  0  0  0  0  0  0  0  0
   44.9063   52.4476   20.4196 C   0  0  2  0  0  0  0  0  0  0  0  0
   44.5739   53.0988   19.2143 O   0  0  0  0  0  0  0  0  0  0  0  0
   43.6661   51.8685   20.9728 C   0  0  1  0  0  0  0  0  0  0  0  0
   43.7453   51.6370   22.3798 O   0  0  0  0  0  0  0  0  0  0  0  0
   42.6929   53.0605   20.5286 C   0  0  2  0  0  0  0  0  0  0  0  0
   41.3555   52.6941   20.6896 O   0  0  0  0  0  0  0  0  0  0  0  0
   43.0862   53.2012   19.0593 C   0  0  1  0  0  0  0  0  0  0  0  0
   51.3100   51.0874   24.7474 O   0  0  0  0  0  0  0  0  0  0  0  0
   45.7391   57.2444   17.4024 N   0  0  0  0  0  0  0  0  0  0  0  0
   46.0841   56.2483   18.2227 C   0  0  0  0  0  0  0  0  0  0  0  0
   45.2353   55.2654   18.5083 N   0  0  0  0  0  0  0  0  0  0  0  0
   43.9660   55.2871   18.0717 C   0  0  0  0  0  0  0  0  0  0  0  0
   43.5354   56.3544   17.2417 C   0  0  0  0  0  0  0  0  0  0  0  0
   44.4907   57.3538   16.9069 C   0  0  0  0  0  0  0  0  0  0  0  0
   44.1550   58.4161   16.0922 N   0  0  0  0  0  0  0  0  0  0  0  0
   42.2396   56.1387   16.9548 N   0  0  0  0  0  0  0  0  0  0  0  0
   41.8431   55.0404   17.5404 C   0  0  0  0  0  0  0  0  0  0  0  0
   42.8681   54.4629   18.2362 N   0  0  0  0  0  0  0  0  0  0  0  0
  2  1  1  6  0  0  0
  2  3  1  0  0  0  0
  2  5  1  0  0  0  0
  3  4  1  0  0  0  0
  3 17  1  0  0  0  0
  5  6  1  0  0  0  0
  7  6  1  1  0  0  0
  7  8  1  0  0  0  0
  7  9  1  0  0  0  0
 10  9  1  1  0  0  0
 10 11  1  0  0  0  0
 10 12  1  0  0  0  0
 11 16  1  0  0  0  0
 12 13  1  1  0  0  0
 12 14  1  0  0  0  0
 14 15  1  6  0  0  0
 14 16  1  0  0  0  0
 16 27  1  1  0  0  0
 18 19  2  0  0  0  0
 18 23  1  0  0  0  0
 19 20  1  0  0  0  0
 20 21  2  0  0  0  0
 21 22  1  0  0  0  0
 21 27  1  0  0  0  0
 22 23  2  0  0  0  0
 22 25  1  0  0  0  0
 23 24  1  0  0  0  0
 25 26  2  0  0  0  0
 26 27  1  0  0  0  0
M  END
>  <CHROM.1>
22.57049619,-56.87191361,90.94352659,-150.69747491,-168.49972051,-82.41346643
-11.69658374,46.09590907,53.70904574,20.20480427,-0.71094876,-0.16121377
-0.74430093

>  <Name>
ligand

>  <RI>
0

>  <Rbt.Current_Directory>
/home/itssahil/PROJECTS/Mol_Feturizer/New_Systems/rnas/3IQR

>  <Rbt.Executable>
rbdock ($Id: //depot/dev/client3/rdock/2013.1/src/exe/rbdock.cxx#4 $)

>  <Rbt.Library>
libRbt.so (2013.1, Build901 2013/11/27)

>  <Rbt.Parameter_File>
/export/apps/rDock/src/rDock_2013.1_src/data/scripts/dock_solv.prm

>  <Rbt.Receptor>
prm/blind_docking_80.prm

>  <SCORE>
-8.04255

>  <SCORE.INTER>
-9.59503

>  <SCORE.INTER.CONST>
1

>  <SCORE.INTER.POLAR>
0

>  <SCORE.INTER.ROT>
7

>  <SCORE.INTER.SOLV>
18.6708

>  <SCORE.INTER.VDW>
-20.887

>  <SCORE.INTER.norm>
-0.355372

>  <SCORE.INTRA>
1.55249

>  <SCORE.INTRA.DIHEDRAL>
2.7176

>  <SCORE.INTRA.DIHEDRAL.0>
9.29433

>  <SCORE.INTRA.POLAR>
0

>  <SCORE.INTRA.POLAR.0>
0

>  <SCORE.INTRA.REPUL>
0

>  <SCORE.INTRA.REPUL.0>
0

>  <SCORE.INTRA.SOLV>
0.516821

>  <SCORE.INTRA.SOLV.lig_0>
-48.5102

>  <SCORE.INTRA.VDW>
-0.0647242

>  <SCORE.INTRA.VDW.0>
0.379549

>  <SCORE.INTRA.norm>
0.0574996

>  <SCORE.RESTR>
0

>  <SCORE.RESTR.CAVITY>
0

>  <SCORE.RESTR.norm>
0

>  <SCORE.SYSTEM>
0

>  <SCORE.SYSTEM.CONST>
0

>  <SCORE.SYSTEM.DIHEDRAL>
0

>  <SCORE.SYSTEM.SOLV>
0

>  <SCORE.SYSTEM.norm>
0

>  <SCORE.heavy>
27

>  <SCORE.norm>
-0.297872

>  <RMSD>
12.607

$$$$
ligand
 OpenBabel11021811483D
libRbt.so/2013.1/901 2013/11/27
 27 29  0  0  0  0  0  0  0  0999 V2000
   49.3596   52.4594   24.5052 N   0  0  0  0  0  0  0  0  0  0  0  0
   50.3168   53.5387   24.2673 C   0  0  2  0  0  0  0  0  0  0  0  0
   50.4185   54.3919   25.4985 C   0  0  0  0  0  0  0  0  0  0  0  0
   49.4120   54.9122   25.9682 O   0  0  0  0  0  0  0  0  0  0  0  0
   49.8584   54.4055   23.0952 C   0  0  0  0  0  0  0  0  0  0  0  0
   50.1241   53.6605   21.7997 C   0  0  0  0  0  0  0  0  0  0  0  0
   49.4509   54.4886   20.3240 S   0  0  2  0  0  0  0  0  0  0  0  0
   47.6498   54.3066   20.4826 C   0  0  0  0  0  0  0  0  0  0  0  0
   49.4967   53.1387   18.9975 C   0  0  0  0  0  0  0  0  0  0  0  0
   50.7471   53.0424   18.0262 C   0  0  2  0  0  0  0  0  0  0  0  0
   51.8688   52.3005   18.4488 O   0  0  0  0  0  0  0  0  0  0  0  0
   51.2422   54.2354   17.3114 C   0  0  1  0  0  0  0  0  0  0  0  0
   50.2857   55.2954   17.2792 O   0  0  0  0  0  0  0  0  0  0  0  0
   52.5179   54.4923   18.2450 C   0  0  2  0  0  0  0  0  0  0  0  0
   53.3699   55.4373   17.6706 O   0  0  0  0  0  0  0  0  0  0  0  0
   53.1285   53.0924   18.2647 C   0  0  1  0  0  0  0  0  0  0  0  0
   51.5009   54.5316   26.0534 O   0  0  0  0  0  0  0  0  0  0  0  0
   52.8908   50.6451   22.7464 N   0  0  0  0  0  0  0  0  0  0  0  0
   51.9233   51.1046   21.9483 C   0  0  0  0  0  0  0  0  0  0  0  0
   52.2072   51.7002   20.7938 N   0  0  0  0  0  0  0  0  0  0  0  0
   53.4738   51.9594   20.4322 C   0  0  0  0  0  0  0  0  0  0  0  0
   54.5360   51.5398   21.2742 C   0  0  0  0  0  0  0  0  0  0  0  0
   54.1938   50.8498   22.4702 C   0  0  0  0  0  0  0  0  0  0  0  0
   55.1691   50.3955   23.3347 N   0  0  0  0  0  0  0  0  0  0  0  0
   55.6841   51.9234   20.6890 N   0  0  0  0  0  0  0  0  0  0  0  0
   55.4148   52.5431   19.5711 C   0  0  0  0  0  0  0  0  0  0  0  0
   54.0663   52.5872   19.3522 N   0  0  0  0  0  0  0  0  0  0  0  0
  2  1  1  1  0  0  0
  2  3  1  0  0  0  0
  2  5  1  0  0  0  0
  3  4  1  0  0  0  0
  3 17  1  0  0  0  0
  5  6  1  0  0  0  0
  7  6  1  1  0  0  0
  7  8  1  0  0  0  0
  7  9  1  0  0  0  0
 10  9  1  1  0  0  0
 10 11  1  0  0  0  0
 10 12  1  0  0  0  0
 11 16  1  0  0  0  0
 12 13  1  1  0  0  0
 12 14  1  0  0  0  0
 14 15  1  6  0  0  0
 14 16  1  0  0  0  0
 16 27  1  1  0  0  0
 18 19  2  0  0  0  0
 18 23  1  0  0  0  0
 19 20  1  0  0  0  0
 20 21  2  0  0  0  0
 21 22  1  0  0  0  0
 21 27  1  0  0  0  0
 22 23  2  0  0  0  0
 22 25  1  0  0  0  0
 23 24  1  0  0  0  0
 25 26  2  0  0  0  0
 26 27  1  0  0  0  0
M  END
>  <CHROM.1>
-56.48232498,-75.56451526,173.24710342,-70.21963016,-94.19194869,86.30656967
-20.92107969,51.68411410,53.20160655,21.03184914,1.96136012,-0.51151010,1.73452809

>  <Name>
ligand

>  <RI>
0

>  <Rbt.Current_Directory>
/home/itssahil/PROJECTS/Mol_Feturizer/New_Systems/rnas/3IQR

>  <Rbt.Executable>
rbdock ($Id: //depot/dev/client3/rdock/2013.1/src/exe/rbdock.cxx#4 $)

>  <Rbt.Library>
libRbt.so (2013.1, Build901 2013/11/27)

>  <Rbt.Parameter_File>
/export/apps/rDock/src/rDock_2013.1_src/data/scripts/dock_solv.prm

>  <Rbt.Receptor>
prm/blind_docking_80.prm

>  <SCORE>
-12.7104

>  <SCORE.INTER>
-9.03096

>  <SCORE.INTER.CONST>
1

>  <SCORE.INTER.POLAR>
0

>  <SCORE.INTER.ROT>
7

>  <SCORE.INTER.SOLV>
9.89461

>  <SCORE.INTER.VDW>
-17.5855

>  <SCORE.INTER.norm>
-0.33448

>  <SCORE.INTRA>
-3.68328

>  <SCORE.INTRA.DIHEDRAL>
-0.593505

>  <SCORE.INTRA.DIHEDRAL.0>
9.29433

>  <SCORE.INTRA.POLAR>
0

>  <SCORE.INTRA.POLAR.0>
0

>  <SCORE.INTRA.REPUL>
0

>  <SCORE.INTRA.REPUL.0>
0

>  <SCORE.INTRA.SOLV>
-0.754659

>  <SCORE.INTRA.SOLV.lig_0>
-48.5102

>  <SCORE.INTRA.VDW>
-3.0092

>  <SCORE.INTRA.VDW.0>
0.379549

>  <SCORE.INTRA.norm>
-0.136418

>  <SCORE.RESTR>
0.00382936

>  <SCORE.RESTR.CAVITY>
0.00382936

>  <SCORE.RESTR.norm>
0.000141828

>  <SCORE.SYSTEM>
0

>  <SCORE.SYSTEM.CONST>
0

>  <SCORE.SYSTEM.DIHEDRAL>
0

>  <SCORE.SYSTEM.SOLV>
0

>  <SCORE.SYSTEM.norm>
0

>  <SCORE.heavy>
27

>  <SCORE.norm>
-0.470756

>  <RMSD>
12.709

$$$$
ligand
 OpenBabel11021811483D
libRbt.so/2013.1/901 2013/11/27
 27 29  0  0  0  0  0  0  0  0999 V2000
   42.3885   53.5409   18.0235 N   0  0  0  0  0  0  0  0  0  0  0  0
   43.0909   53.8349   19.2717 C   0  0  2  0  0  0  0  0  0  0  0  0
   43.8594   55.1156   19.1185 C   0  0  0  0  0  0  0  0  0  0  0  0
   44.9909   55.0983   18.6452 O   0  0  0  0  0  0  0  0  0  0  0  0
   44.0635   52.7063   19.6116 C   0  0  0  0  0  0  0  0  0  0  0  0
   44.8445   53.0888   20.8557 C   0  0  0  0  0  0  0  0  0  0  0  0
   46.5214   53.7092   20.5095 S   0  0  2  0  0  0  0  0  0  0  0  0
   47.4238   52.2585   19.8903 C   0  0  0  0  0  0  0  0  0  0  0  0
   47.3990   53.5740   22.1814 C   0  0  0  0  0  0  0  0  0  0  0  0
   48.9441   53.9188   22.2809 C   0  0  2  0  0  0  0  0  0  0  0  0
   49.5406   54.6357   21.2237 O   0  0  0  0  0  0  0  0  0  0  0  0
   49.9159   52.9070   22.7405 C   0  0  1  0  0  0  0  0  0  0  0  0
   49.2955   51.8164   23.4225 O   0  0  0  0  0  0  0  0  0  0  0  0
   50.5158   52.5596   21.2967 C   0  0  2  0  0  0  0  0  0  0  0  0
   51.6725   51.7866   21.4138 O   0  0  0  0  0  0  0  0  0  0  0  0
   50.8046   53.9659   20.7752 C   0  0  1  0  0  0  0  0  0  0  0  0
   43.3372   56.1786   19.4288 O   0  0  0  0  0  0  0  0  0  0  0  0
   54.1426   53.4424   16.9393 N   0  0  0  0  0  0  0  0  0  0  0  0
   54.2477   53.1443   18.2370 C   0  0  0  0  0  0  0  0  0  0  0  0
   53.2329   53.3407   19.0736 N   0  0  0  0  0  0  0  0  0  0  0  0
   52.1017   53.9426   18.6734 C   0  0  0  0  0  0  0  0  0  0  0  0
   51.9637   54.3287   17.3150 C   0  0  0  0  0  0  0  0  0  0  0  0
   53.0465   54.0445   16.4373 C   0  0  0  0  0  0  0  0  0  0  0  0
   52.9840   54.3742   15.0985 N   0  0  0  0  0  0  0  0  0  0  0  0
   50.7561   54.9056   17.1850 N   0  0  0  0  0  0  0  0  0  0  0  0
   50.1512   54.9101   18.3428 C   0  0  0  0  0  0  0  0  0  0  0  0
   50.9277   54.3187   19.2995 N   0  0  0  0  0  0  0  0  0  0  0  0
  2  1  1  6  0  0  0
  2  3  1  0  0  0  0
  2  5  1  0  0  0  0
  3  4  1  0  0  0  0
  3 17  1  0  0  0  0
  5  6  1  0  0  0  0
  7  6  1  1  0  0  0
  7  8  1  0  0  0  0
  7  9  1  0  0  0  0
 10  9  1  6  0  0  0
 10 11  1  0  0  0  0
 10 12  1  0  0  0  0
 11 16  1  0  0  0  0
 12 13  1  6  0  0  0
 12 14  1  0  0  0  0
 14 15  1  1  0  0  0
 14 16  1  0  0  0  0
 16 27  1  6  0  0  0
 18 19  2  0  0  0  0
 18 23  1  0  0  0  0
 19 20  1  0  0  0  0
 20 21  2  0  0  0  0
 21 22  1  0  0  0  0
 21 27  1  0  0  0  0
 22 23  2  0  0  0  0
 22 25  1  0  0  0  0
 23 24  1  0  0  0  0
 25 26  2  0  0  0  0
 26 27  1  0  0  0  0
M  END
>  <CHROM.1>
-86.20568236,176.01398576,-100.74849846,-68.41194969,175.26491132,16.05642586
172.96650995,48.76539162,53.74374639,19.63311782,2.99265898,-0.10364260,1.90675608

>  <Name>
ligand

>  <RI>
0

>  <Rbt.Current_Directory>
/home/itssahil/PROJECTS/Mol_Feturizer/New_Systems/rnas/3IQR

>  <Rbt.Executable>
rbdock ($Id: //depot/dev/client3/rdock/2013.1/src/exe/rbdock.cxx#4 $)

>  <Rbt.Library>
libRbt.so (2013.1, Build901 2013/11/27)

>  <Rbt.Parameter_File>
/export/apps/rDock/src/rDock_2013.1_src/data/scripts/dock_solv.prm

>  <Rbt.Receptor>
prm/blind_docking_80.prm

>  <SCORE>
-13.3562

>  <SCORE.INTER>
-11.9287

>  <SCORE.INTER.CONST>
1

>  <SCORE.INTER.POLAR>
0

>  <SCORE.INTER.ROT>
7

>  <SCORE.INTER.SOLV>
15.8401

>  <SCORE.INTER.VDW>
-21.4992

>  <SCORE.INTER.norm>
-0.441805

>  <SCORE.INTRA>
-1.4307

>  <SCORE.INTRA.DIHEDRAL>
2.22213

>  <SCORE.INTRA.DIHEDRAL.0>
9.29433

>  <SCORE.INTRA.POLAR>
0

>  <SCORE.INTRA.POLAR.0>
0

>  <SCORE.INTRA.REPUL>
0

>  <SCORE.INTRA.REPUL.0>
0

>  <SCORE.INTRA.SOLV>
-1.4354

>  <SCORE.INTRA.SOLV.lig_0>
-48.5102

>  <SCORE.INTRA.VDW>
-1.82407

>  <SCORE.INTRA.VDW.0>
0.379549

>  <SCORE.INTRA.norm>
-0.052989

>  <SCORE.RESTR>
0.00327656

>  <SCORE.RESTR.CAVITY>
0.00327656

>  <SCORE.RESTR.norm>
0.000121354

>  <SCORE.SYSTEM>
0

>  <SCORE.SYSTEM.CONST>
0

>  <SCORE.SYSTEM.DIHEDRAL>
0

>  <SCORE.SYSTEM.SOLV>
0

>  <SCORE.SYSTEM.norm>
0

>  <SCORE.heavy>
27

>  <SCORE.norm>
-0.494673

>  <RMSD>
12.710

$$$$
ligand
 OpenBabel11021811483D
libRbt.so/2013.1/901 2013/11/27
 27 29  0  0  0  0  0  0  0  0999 V2000
   47.4879   53.1022   19.7832 N   0  0  0  0  0  0  0  0  0  0  0  0
   48.5507   52.9868   20.7806 C   0  0  2  0  0  0  0  0  0  0  0  0
   47.9759   53.2221   22.1475 C   0  0  0  0  0  0  0  0  0  0  0  0
   47.4910   54.3131   22.4287 O   0  0  0  0  0  0  0  0  0  0  0  0
   49.6436   54.0209   20.5135 C   0  0  0  0  0  0  0  0  0  0  0  0
   50.9739   53.4630   20.9857 C   0  0  0  0  0  0  0  0  0  0  0  0
   50.9910   52.9923   22.7449 S   0  0  2  0  0  0  0  0  0  0  0  0
   50.4714   54.4961   23.6229 C   0  0  0  0  0  0  0  0  0  0  0  0
   52.7888   53.2791   23.2641 C   0  0  0  0  0  0  0  0  0  0  0  0
   53.9551   52.5587   22.4659 C   0  0  2  0  0  0  0  0  0  0  0  0
   54.1251   52.8693   21.1014 O   0  0  0  0  0  0  0  0  0  0  0  0
   54.2019   51.1126   22.6304 C   0  0  1  0  0  0  0  0  0  0  0  0
   53.5900   50.5788   23.8052 O   0  0  0  0  0  0  0  0  0  0  0  0
   53.5403   50.6548   21.2454 C   0  0  2  0  0  0  0  0  0  0  0  0
   53.8410   49.3196   20.9702 O   0  0  0  0  0  0  0  0  0  0  0  0
   54.2298   51.6185   20.2816 C   0  0  1  0  0  0  0  0  0  0  0  0
   47.9561   52.3098   22.9638 O   0  0  0  0  0  0  0  0  0  0  0  0
   53.5387   55.7991   17.4223 N   0  0  0  0  0  0  0  0  0  0  0  0
   53.9702   55.6602   18.6787 C   0  0  0  0  0  0  0  0  0  0  0  0
   54.1024   54.4588   19.2331 N   0  0  0  0  0  0  0  0  0  0  0  0
   53.7090   53.3455   18.5944 C   0  0  0  0  0  0  0  0  0  0  0  0
   53.1915   53.4469   17.2771 C   0  0  0  0  0  0  0  0  0  0  0  0
   53.1248   54.7430   16.6947 C   0  0  0  0  0  0  0  0  0  0  0  0
   52.6483   54.9243   15.4121 N   0  0  0  0  0  0  0  0  0  0  0  0
   52.8730   52.2034   16.8769 N   0  0  0  0  0  0  0  0  0  0  0  0
   53.1446   51.3572   17.8343 C   0  0  0  0  0  0  0  0  0  0  0  0
   53.6741   52.0016   18.9171 N   0  0  0  0  0  0  0  0  0  0  0  0
  2  1  1  6  0  0  0
  2  3  1  0  0  0  0
  2  5  1  0  0  0  0
  3  4  1  0  0  0  0
  3 17  1  0  0  0  0
  5  6  1  0  0  0  0
  7  6  1  6  0  0  0
  7  8  1  0  0  0  0
  7  9  1  0  0  0  0
 10  9  1  6  0  0  0
 10 11  1  0  0  0  0
 10 12  1  0  0  0  0
 11 16  1  0  0  0  0
 12 13  1  1  0  0  0
 12 14  1  0  0  0  0
 14 15  1  6  0  0  0
 14 16  1  0  0  0  0
 16 27  1  6  0  0  0
 18 19  2  0  0  0  0
 18 23  1  0  0  0  0
 19 20  1  0  0  0  0
 20 21  2  0  0  0  0
 21 22  1  0  0  0  0
 21 27  1  0  0  0  0
 22 23  2  0  0  0  0
 22 25  1  0  0  0  0
 23 24  1  0  0  0  0
 25 26  2  0  0  0  0
 26 27  1  0  0  0  0
M  END
>  <CHROM.1>
-63.38860358,-149.68479975,-57.28882453,-55.20922631,-55.69949503,62.71007903
23.41341473,51.97084263,52.96527871,20.53165880,2.35630379,-0.36358733,2.02198979

>  <Name>
ligand

>  <RI>
0

>  <Rbt.Current_Directory>
/home/itssahil/PROJECTS/Mol_Feturizer/New_Systems/rnas/3IQR

>  <Rbt.Executable>
rbdock ($Id: //depot/dev/client3/rdock/2013.1/src/exe/rbdock.cxx#4 $)

>  <Rbt.Library>
libRbt.so (2013.1, Build901 2013/11/27)

>  <Rbt.Parameter_File>
/export/apps/rDock/src/rDock_2013.1_src/data/scripts/dock_solv.prm

>  <Rbt.Receptor>
prm/blind_docking_80.prm

>  <SCORE>
-9.45438

>  <SCORE.INTER>
-5.37322

>  <SCORE.INTER.CONST>
1

>  <SCORE.INTER.POLAR>
0

>  <SCORE.INTER.ROT>
7

>  <SCORE.INTER.SOLV>
11.525

>  <SCORE.INTER.VDW>
-15.6905

>  <SCORE.INTER.norm>
-0.199008

>  <SCORE.INTRA>
-4.14379

>  <SCORE.INTRA.DIHEDRAL>
-1.21228

>  <SCORE.INTRA.DIHEDRAL.0>
9.29433

>  <SCORE.INTRA.POLAR>
0

>  <SCORE.INTRA.POLAR.0>
0

>  <SCORE.INTRA.REPUL>
0

>  <SCORE.INTRA.REPUL.0>
0

>  <SCORE.INTRA.SOLV>
-1.30003

>  <SCORE.INTRA.SOLV.lig_0>
-48.5102

>  <SCORE.INTRA.VDW>
-2.88764

>  <SCORE.INTRA.VDW.0>
0.379549

>  <SCORE.INTRA.norm>
-0.153474

>  <SCORE.RESTR>
0.0626359

>  <SCORE.RESTR.CAVITY>
0.0626359

>  <SCORE.RESTR.norm>
0.00231985

>  <SCORE.SYSTEM>
0

>  <SCORE.SYSTEM.CONST>
0

>  <SCORE.SYSTEM.DIHEDRAL>
0

>  <SCORE.SYSTEM.SOLV>
0

>  <SCORE.SYSTEM.norm>
0

>  <SCORE.heavy>
27

>  <SCORE.norm>
-0.350162

>  <RMSD>
12.742

$$$$
ligand
 OpenBabel11021811483D
libRbt.so/2013.1/901 2013/11/27
 27 29  0  0  0  0  0  0  0  0999 V2000
   45.0949   54.5631   19.5104 N   0  0  0  0  0  0  0  0  0  0  0  0
   45.4124   53.1681   19.8121 C   0  0  2  0  0  0  0  0  0  0  0  0
   44.1381   52.3815   19.9198 C   0  0  0  0  0  0  0  0  0  0  0  0
   44.1587   51.1616   19.7942 O   0  0  0  0  0  0  0  0  0  0  0  0
   46.1726   53.0711   21.1342 C   0  0  0  0  0  0  0  0  0  0  0  0
   47.5498   53.6838   20.9552 C   0  0  0  0  0  0  0  0  0  0  0  0
   48.6769   53.3804   22.3531 S   0  0  2  0  0  0  0  0  0  0  0  0
   48.1762   54.5916   23.6119 C   0  0  0  0  0  0  0  0  0  0  0  0
   50.2030   54.4161   21.9261 C   0  0  0  0  0  0  0  0  0  0  0  0
   51.6445   53.7638   22.0395 C   0  0  2  0  0  0  0  0  0  0  0  0
   52.5921   54.0531   21.0368 O   0  0  0  0  0  0  0  0  0  0  0  0
   51.8040   52.3439   22.4106 C   0  0  1  0  0  0  0  0  0  0  0  0
   50.6298   51.7953   23.0104 O   0  0  0  0  0  0  0  0  0  0  0  0
   52.1367   51.8059   20.9392 C   0  0  2  0  0  0  0  0  0  0  0  0
   52.6004   50.4900   20.9859 O   0  0  0  0  0  0  0  0  0  0  0  0
   53.2262   52.7939   20.5269 C   0  0  1  0  0  0  0  0  0  0  0  0
   43.0880   52.9574   20.1740 O   0  0  0  0  0  0  0  0  0  0  0  0
   51.0467   54.6565   16.2947 N   0  0  0  0  0  0  0  0  0  0  0  0
   50.5259   54.3576   17.4878 C   0  0  0  0  0  0  0  0  0  0  0  0
   51.2876   53.8999   18.4770 N   0  0  0  0  0  0  0  0  0  0  0  0
   52.5867   53.6188   18.2883 C   0  0  0  0  0  0  0  0  0  0  0  0
   53.1738   53.8672   17.0207 C   0  0  0  0  0  0  0  0  0  0  0  0
   52.3411   54.4165   16.0065 C   0  0  0  0  0  0  0  0  0  0  0  0
   52.8400   54.7012   14.7516 N   0  0  0  0  0  0  0  0  0  0  0  0
   54.4644   53.4984   17.0997 N   0  0  0  0  0  0  0  0  0  0  0  0
   54.7122   53.0429   18.2987 C   0  0  0  0  0  0  0  0  0  0  0  0
   53.5939   53.1024   19.0823 N   0  0  0  0  0  0  0  0  0  0  0  0
  2  1  1  1  0  0  0
  2  3  1  0  0  0  0
  2  5  1  0  0  0  0
  3  4  1  0  0  0  0
  3 17  1  0  0  0  0
  5  6  1  0  0  0  0
  7  6  1  6  0  0  0
  7  8  1  0  0  0  0
  7  9  1  0  0  0  0
 10  9  1  6  0  0  0
 10 11  1  0  0  0  0
 10 12  1  0  0  0  0
 11 16  1  0  0  0  0
 12 13  1  6  0  0  0
 12 14  1  0  0  0  0
 14 15  1  1  0  0  0
 14 16  1  0  0  0  0
 16 27  1  6  0  0  0
 18 19  2  0  0  0  0
 18 23  1  0  0  0  0
 19 20  1  0  0  0  0
 20 21  2  0  0  0  0
 21 22  1  0  0  0  0
 21 27  1  0  0  0  0
 22 23  2  0  0  0  0
 22 25  1  0  0  0  0
 23 24  1  0  0  0  0
 25 26  2  0  0  0  0
 26 27  1  0  0  0  0
M  END
>  <CHROM.1>
159.60542044,-68.52730993,-169.77445339,-79.35535820,-132.36365268,139.30890819
-51.45548491,49.98848906,53.29062721,19.94289040,2.81432813,-0.00955118,1.78655721

>  <Name>
ligand

>  <RI>
0

>  <Rbt.Current_Directory>
/home/itssahil/PROJECTS/Mol_Feturizer/New_Systems/rnas/3IQR

>  <Rbt.Executable>
rbdock ($Id: //depot/dev/client3/rdock/2013.1/src/exe/rbdock.cxx#4 $)

>  <Rbt.Library>
libRbt.so (2013.1, Build901 2013/11/27)

>  <Rbt.Parameter_File>
/export/apps/rDock/src/rDock_2013.1_src/data/scripts/dock_solv.prm

>  <Rbt.Receptor>
prm/blind_docking_80.prm

>  <SCORE>
-11.4395

>  <SCORE.INTER>
-11.1993

>  <SCORE.INTER.CONST>
1

>  <SCORE.INTER.POLAR>
0

>  <SCORE.INTER.ROT>
7

>  <SCORE.INTER.SOLV>
16.9671

>  <SCORE.INTER.VDW>
-21.3886

>  <SCORE.INTER.norm>
-0.414789

>  <SCORE.INTRA>
-0.240241

>  <SCORE.INTRA.DIHEDRAL>
2.77722

>  <SCORE.INTRA.DIHEDRAL.0>
9.29433

>  <SCORE.INTRA.POLAR>
0

>  <SCORE.INTRA.POLAR.0>
0

>  <SCORE.INTRA.REPUL>
0

>  <SCORE.INTRA.REPUL.0>
0

>  <SCORE.INTRA.SOLV>
-0.74766

>  <SCORE.INTRA.SOLV.lig_0>
-48.5102

>  <SCORE.INTRA.VDW>
-1.25502

>  <SCORE.INTRA.VDW.0>
0.379549

>  <SCORE.INTRA.norm>
-0.0088978

>  <SCORE.RESTR>
0

>  <SCORE.RESTR.CAVITY>
0

>  <SCORE.RESTR.norm>
0

>  <SCORE.SYSTEM>
0

>  <SCORE.SYSTEM.CONST>
0

>  <SCORE.SYSTEM.DIHEDRAL>
0

>  <SCORE.SYSTEM.SOLV>
0

>  <SCORE.SYSTEM.norm>
0

>  <SCORE.heavy>
27

>  <SCORE.norm>
-0.423687

>  <RMSD>
12.767

$$$$
ligand
 OpenBabel11021811483D
libRbt.so/2013.1/901 2013/11/27
 27 29  0  0  0  0  0  0  0  0999 V2000
   44.7176   51.1690   18.5627 N   0  0  0  0  0  0  0  0  0  0  0  0
   44.9170   51.8991   19.8138 C   0  0  2  0  0  0  0  0  0  0  0  0
   43.9380   53.0351   19.8865 C   0  0  0  0  0  0  0  0  0  0  0  0
   42.8631   52.8819   20.4571 O   0  0  0  0  0  0  0  0  0  0  0  0
   46.3374   52.4587   19.8808 C   0  0  0  0  0  0  0  0  0  0  0  0
   46.4991   53.2349   21.1752 C   0  0  0  0  0  0  0  0  0  0  0  0
   48.2340   53.5325   21.6423 S   0  0  2  0  0  0  0  0  0  0  0  0
   48.1694   54.9903   22.7254 C   0  0  0  0  0  0  0  0  0  0  0  0
   48.9025   54.5871   20.2193 C   0  0  0  0  0  0  0  0  0  0  0  0
   49.5913   53.8768   18.9794 C   0  0  2  0  0  0  0  0  0  0  0  0
   50.3689   52.7245   19.2136 O   0  0  0  0  0  0  0  0  0  0  0  0
   50.2689   54.6700   17.9349 C   0  0  1  0  0  0  0  0  0  0  0  0
   49.8950   56.0481   17.9595 O   0  0  0  0  0  0  0  0  0  0  0  0
   51.7662   54.3581   18.4101 C   0  0  2  0  0  0  0  0  0  0  0  0
   52.6882   54.7744   17.4480 O   0  0  0  0  0  0  0  0  0  0  0  0
   51.7016   52.8372   18.5364 C   0  0  1  0  0  0  0  0  0  0  0  0
   44.2340   54.1239   19.4114 O   0  0  0  0  0  0  0  0  0  0  0  0
   51.9728   50.9926   23.2961 N   0  0  0  0  0  0  0  0  0  0  0  0
   51.0805   51.8039   22.7219 C   0  0  0  0  0  0  0  0  0  0  0  0
   51.1843   52.1464   21.4412 N   0  0  0  0  0  0  0  0  0  0  0  0
   52.2431   51.7797   20.7018 C   0  0  0  0  0  0  0  0  0  0  0  0
   53.2468   50.9627   21.2835 C   0  0  0  0  0  0  0  0  0  0  0  0
   53.0681   50.5650   22.6376 C   0  0  0  0  0  0  0  0  0  0  0  0
   53.9913   49.7581   23.2711 N   0  0  0  0  0  0  0  0  0  0  0  0
   54.1828   50.7496   20.3420 N   0  0  0  0  0  0  0  0  0  0  0  0
   53.8411   51.3682   19.2434 C   0  0  0  0  0  0  0  0  0  0  0  0
   52.6463   52.0133   19.4000 N   0  0  0  0  0  0  0  0  0  0  0  0
  2  1  1  6  0  0  0
  2  3  1  0  0  0  0
  2  5  1  0  0  0  0
  3  4  1  0  0  0  0
  3 17  1  0  0  0  0
  5  6  1  0  0  0  0
  7  6  1  6  0  0  0
  7  8  1  0  0  0  0
  7  9  1  0  0  0  0
 10  9  1  1  0  0  0
 10 11  1  0  0  0  0
 10 12  1  0  0  0  0
 11 16  1  0  0  0  0
 12 13  1  1  0  0  0
 12 14  1  0  0  0  0
 14 15  1  6  0  0  0
 14 16  1  0  0  0  0
 16 27  1  1  0  0  0
 18 19  2  0  0  0  0
 18 23  1  0  0  0  0
 19 20  1  0  0  0  0
 20 21  2  0  0  0  0
 21 22  1  0  0  0  0
 21 27  1  0  0  0  0
 22 23  2  0  0  0  0
 22 25  1  0  0  0  0
 23 24  1  0  0  0  0
 25 26  2  0  0  0  0
 26 27  1  0  0  0  0
M  END
>  <CHROM.1>
93.58196855,178.74702917,162.57293159,156.72333827,-91.67016348,-36.07672155
-20.65716347,49.56145794,52.82018609,20.27458803,2.95080797,0.09117032,-0.91129220

>  <Name>
ligand

>  <RI>
0

>  <Rbt.Current_Directory>
/home/itssahil/PROJECTS/Mol_Feturizer/New_Systems/rnas/3IQR

>  <Rbt.Executable>
rbdock ($Id: //depot/dev/client3/rdock/2013.1/src/exe/rbdock.cxx#4 $)

>  <Rbt.Library>
libRbt.so (2013.1, Build901 2013/11/27)

>  <Rbt.Parameter_File>
/export/apps/rDock/src/rDock_2013.1_src/data/scripts/dock_solv.prm

>  <Rbt.Receptor>
prm/blind_docking_80.prm

>  <SCORE>
-18.172

>  <SCORE.INTER>
-15.841

>  <SCORE.INTER.CONST>
1

>  <SCORE.INTER.POLAR>
0

>  <SCORE.INTER.ROT>
7

>  <SCORE.INTER.SOLV>
20.4678

>  <SCORE.INTER.VDW>
-25.6499

>  <SCORE.INTER.norm>
-0.586703

>  <SCORE.INTRA>
-2.33896

>  <SCORE.INTRA.DIHEDRAL>
-0.808356

>  <SCORE.INTRA.DIHEDRAL.0>
9.29433

>  <SCORE.INTRA.POLAR>
0

>  <SCORE.INTRA.POLAR.0>
0

>  <SCORE.INTRA.REPUL>
0

>  <SCORE.INTRA.REPUL.0>
0

>  <SCORE.INTRA.SOLV>
-1.79003

>  <SCORE.INTRA.SOLV.lig_0>
-48.5102

>  <SCORE.INTRA.VDW>
-1.03977

>  <SCORE.INTRA.VDW.0>
0.379549

>  <SCORE.INTRA.norm>
-0.0866283

>  <SCORE.RESTR>
0.00795519

>  <SCORE.RESTR.CAVITY>
0.00795519

>  <SCORE.RESTR.norm>
0.000294636

>  <SCORE.SYSTEM>
0

>  <SCORE.SYSTEM.CONST>
0

>  <SCORE.SYSTEM.DIHEDRAL>
0

>  <SCORE.SYSTEM.SOLV>
0

>  <SCORE.SYSTEM.norm>
0

>  <SCORE.heavy>
27

>  <SCORE.norm>
-0.673037

>  <RMSD>
12.783

$$$$
ligand
 OpenBabel11021811483D
libRbt.so/2013.1/901 2013/11/27
 27 29  0  0  0  0  0  0  0  0999 V2000
   52.4113   51.3318   24.0580 N   0  0  0  0  0  0  0  0  0  0  0  0
   52.0486   52.0549   22.8400 C   0  0  2  0  0  0  0  0  0  0  0  0
   52.7686   51.4486   21.6704 C   0  0  0  0  0  0  0  0  0  0  0  0
   53.9528   51.1448   21.7703 O   0  0  0  0  0  0  0  0  0  0  0  0
   52.4414   53.5268   22.9600 C   0  0  0  0  0  0  0  0  0  0  0  0
   51.6417   54.1585   24.0849 C   0  0  0  0  0  0  0  0  0  0  0  0
   49.9682   54.6823   23.5931 S   0  0  2  0  0  0  0  0  0  0  0  0
   49.0474   54.7882   25.1562 C   0  0  0  0  0  0  0  0  0  0  0  0
   49.1019   53.0549   23.1629 C   0  0  0  0  0  0  0  0  0  0  0  0
   48.8040   52.7083   21.6439 C   0  0  2  0  0  0  0  0  0  0  0  0
   49.8960   52.5229   20.7719 O   0  0  0  0  0  0  0  0  0  0  0  0
   47.7514   53.4255   20.8977 C   0  0  1  0  0  0  0  0  0  0  0  0
   46.8369   54.1102   21.7547 O   0  0  0  0  0  0  0  0  0  0  0  0
   48.7342   54.3670   20.0532 C   0  0  2  0  0  0  0  0  0  0  0  0
   48.0402   55.0183   19.0320 O   0  0  0  0  0  0  0  0  0  0  0  0
   49.7170   53.3267   19.5191 C   0  0  1  0  0  0  0  0  0  0  0  0
   52.1593   51.2212   20.6330 O   0  0  0  0  0  0  0  0  0  0  0  0
   52.3130   53.9859   15.1652 N   0  0  0  0  0  0  0  0  0  0  0  0
   51.0526   53.6007   15.3823 C   0  0  0  0  0  0  0  0  0  0  0  0
   50.5603   53.5168   16.6147 N   0  0  0  0  0  0  0  0  0  0  0  0
   51.3353   53.7116   17.6933 C   0  0  0  0  0  0  0  0  0  0  0  0
   52.6968   54.0688   17.5147 C   0  0  0  0  0  0  0  0  0  0  0  0
   53.1700   54.2104   16.1807 C   0  0  0  0  0  0  0  0  0  0  0  0
   54.4772   54.5704   15.9226 N   0  0  0  0  0  0  0  0  0  0  0  0
   53.2394   54.1969   18.7383 N   0  0  0  0  0  0  0  0  0  0  0  0
   52.3321   53.9440   19.6433 C   0  0  0  0  0  0  0  0  0  0  0  0
   51.1320   53.6487   19.0595 N   0  0  0  0  0  0  0  0  0  0  0  0
  2  1  1  1  0  0  0
  2  3  1  0  0  0  0
  2  5  1  0  0  0  0
  3  4  1  0  0  0  0
  3 17  1  0  0  0  0
  5  6  1  0  0  0  0
  7  6  1  1  0  0  0
  7  8  1  0  0  0  0
  7  9  1  0  0  0  0
 10  9  1  1  0  0  0
 10 11  1  0  0  0  0
 10 12  1  0  0  0  0
 11 16  1  0  0  0  0
 12 13  1  1  0  0  0
 12 14  1  0  0  0  0
 14 15  1  6  0  0  0
 14 16  1  0  0  0  0
 16 27  1  1  0  0  0
 18 19  2  0  0  0  0
 18 23  1  0  0  0  0
 19 20  1  0  0  0  0
 20 21  2  0  0  0  0
 21 22  1  0  0  0  0
 21 27  1  0  0  0  0
 22 23  2  0  0  0  0
 22 25  1  0  0  0  0
 23 24  1  0  0  0  0
 25 26  2  0  0  0  0
 26 27  1  0  0  0  0
M  END
>  <CHROM.1>
-43.33173616,-63.69602462,-82.62899192,159.12613506,-107.38322628,64.10527858
146.13801320,50.93123032,53.46715691,20.44679486,-1.91827901,0.32834988,-1.39999638

>  <Name>
ligand

>  <RI>
0

>  <Rbt.Current_Directory>
/home/itssahil/PROJECTS/Mol_Feturizer/New_Systems/rnas/3IQR

>  <Rbt.Executable>
rbdock ($Id: //depot/dev/client3/rdock/2013.1/src/exe/rbdock.cxx#4 $)

>  <Rbt.Library>
libRbt.so (2013.1, Build901 2013/11/27)

>  <Rbt.Parameter_File>
/export/apps/rDock/src/rDock_2013.1_src/data/scripts/dock_solv.prm

>  <Rbt.Receptor>
prm/blind_docking_80.prm

>  <SCORE>
-12.5791

>  <SCORE.INTER>
-7.38066

>  <SCORE.INTER.CONST>
1

>  <SCORE.INTER.POLAR>
0

>  <SCORE.INTER.ROT>
7

>  <SCORE.INTER.SOLV>
12.2689

>  <SCORE.INTER.VDW>
-17.2767

>  <SCORE.INTER.norm>
-0.273358

>  <SCORE.INTRA>
-5.19848

>  <SCORE.INTRA.DIHEDRAL>
-0.000814831

>  <SCORE.INTRA.DIHEDRAL.0>
9.29433

>  <SCORE.INTRA.POLAR>
0

>  <SCORE.INTRA.POLAR.0>
0

>  <SCORE.INTRA.REPUL>
0

>  <SCORE.INTRA.REPUL.0>
0

>  <SCORE.INTRA.SOLV>
0.532137

>  <SCORE.INTRA.SOLV.lig_0>
-48.5102

>  <SCORE.INTRA.VDW>
-5.46415

>  <SCORE.INTRA.VDW.0>
0.379549

>  <SCORE.INTRA.norm>
-0.192536

>  <SCORE.RESTR>
0

>  <SCORE.RESTR.CAVITY>
0

>  <SCORE.RESTR.norm>
0

>  <SCORE.SYSTEM>
0

>  <SCORE.SYSTEM.CONST>
0

>  <SCORE.SYSTEM.DIHEDRAL>
0

>  <SCORE.SYSTEM.SOLV>
0

>  <SCORE.SYSTEM.norm>
0

>  <SCORE.heavy>
27

>  <SCORE.norm>
-0.465894

>  <RMSD>
12.789

$$$$
ligand
 OpenBabel11021811483D
libRbt.so/2013.1/901 2013/11/27
 27 29  0  0  0  0  0  0  0  0999 V2000
   45.9965   52.1646   24.6859 N   0  0  0  0  0  0  0  0  0  0  0  0
   47.3262   52.7443   24.5024 C   0  0  2  0  0  0  0  0  0  0  0  0
   47.6432   52.8040   23.0361 C   0  0  0  0  0  0  0  0  0  0  0  0
   48.7708   52.5265   22.6412 O   0  0  0  0  0  0  0  0  0  0  0  0
   48.3793   51.8899   25.2068 C   0  0  0  0  0  0  0  0  0  0  0  0
   49.6769   52.6737   25.2834 C   0  0  0  0  0  0  0  0  0  0  0  0
   51.0157   51.7963   26.1520 S   0  0  2  0  0  0  0  0  0  0  0  0
   51.5913   52.9756   27.4091 C   0  0  0  0  0  0  0  0  0  0  0  0
   52.5410   52.1472   25.0870 C   0  0  0  0  0  0  0  0  0  0  0  0
   52.5550   51.6854   23.5694 C   0  0  2  0  0  0  0  0  0  0  0  0
   52.7663   50.3208   23.2857 O   0  0  0  0  0  0  0  0  0  0  0  0
   53.2728   52.4721   22.5471 C   0  0  1  0  0  0  0  0  0  0  0  0
   53.5688   53.8003   22.9805 O   0  0  0  0  0  0  0  0  0  0  0  0
   54.5363   51.4962   22.4184 C   0  0  2  0  0  0  0  0  0  0  0  0
   55.3158   51.8383   21.3118 O   0  0  0  0  0  0  0  0  0  0  0  0
   53.8283   50.1545   22.2406 C   0  0  1  0  0  0  0  0  0  0  0  0
   46.7625   53.0899   22.2350 O   0  0  0  0  0  0  0  0  0  0  0  0
   55.6313   46.0717   19.7486 N   0  0  0  0  0  0  0  0  0  0  0  0
   54.9981   47.1597   19.3021 C   0  0  0  0  0  0  0  0  0  0  0  0
   54.6306   48.1321   20.1313 N   0  0  0  0  0  0  0  0  0  0  0  0
   54.7840   48.0150   21.4599 C   0  0  0  0  0  0  0  0  0  0  0  0
   55.4018   46.8518   21.9876 C   0  0  0  0  0  0  0  0  0  0  0  0
   55.8383   45.8622   21.0636 C   0  0  0  0  0  0  0  0  0  0  0  0
   56.4619   44.7093   21.4959 N   0  0  0  0  0  0  0  0  0  0  0  0
   55.4258   46.9849   23.3254 N   0  0  0  0  0  0  0  0  0  0  0  0
   54.8730   48.1209   23.6577 C   0  0  0  0  0  0  0  0  0  0  0  0
   54.4667   48.8072   22.5477 N   0  0  0  0  0  0  0  0  0  0  0  0
  2  1  1  6  0  0  0
  2  3  1  0  0  0  0
  2  5  1  0  0  0  0
  3  4  1  0  0  0  0
  3 17  1  0  0  0  0
  5  6  1  0  0  0  0
  7  6  1  6  0  0  0
  7  8  1  0  0  0  0
  7  9  1  0  0  0  0
 10  9  1  1  0  0  0
 10 11  1  0  0  0  0
 10 12  1  0  0  0  0
 11 16  1  0  0  0  0
 12 13  1  1  0  0  0
 12 14  1  0  0  0  0
 14 15  1  6  0  0  0
 14 16  1  0  0  0  0
 16 27  1  1  0  0  0
 18 19  2  0  0  0  0
 18 23  1  0  0  0  0
 19 20  1  0  0  0  0
 20 21  2  0  0  0  0
 21 22  1  0  0  0  0
 21 27  1  0  0  0  0
 22 23  2  0  0  0  0
 22 25  1  0  0  0  0
 23 24  1  0  0  0  0
 25 26  2  0  0  0  0
 26 27  1  0  0  0  0
M  END
>  <CHROM.1>
-139.49636814,-166.68823691,178.08605412,-127.54708554,-59.87982554,-76.47309412
139.77322896,52.38033935,50.44761288,23.12177384,2.41719726,-0.24852012,0.80954685

>  <Name>
ligand

>  <RI>
0

>  <Rbt.Current_Directory>
/home/itssahil/PROJECTS/Mol_Feturizer/New_Systems/rnas/3IQR

>  <Rbt.Executable>
rbdock ($Id: //depot/dev/client3/rdock/2013.1/src/exe/rbdock.cxx#4 $)

>  <Rbt.Library>
libRbt.so (2013.1, Build901 2013/11/27)

>  <Rbt.Parameter_File>
/export/apps/rDock/src/rDock_2013.1_src/data/scripts/dock_solv.prm

>  <Rbt.Receptor>
prm/blind_docking_80.prm

>  <SCORE>
-12.5105

>  <SCORE.INTER>
-10.245

>  <SCORE.INTER.CONST>
1

>  <SCORE.INTER.POLAR>
0

>  <SCORE.INTER.ROT>
7

>  <SCORE.INTER.SOLV>
17.1397

>  <SCORE.INTER.VDW>
-20.8099

>  <SCORE.INTER.norm>
-0.379445

>  <SCORE.INTRA>
-2.26545

>  <SCORE.INTRA.DIHEDRAL>
-0.109985

>  <SCORE.INTRA.DIHEDRAL.0>
9.29433

>  <SCORE.INTRA.POLAR>
0

>  <SCORE.INTRA.POLAR.0>
0

>  <SCORE.INTRA.REPUL>
0

>  <SCORE.INTRA.REPUL.0>
0

>  <SCORE.INTRA.SOLV>
-1.97678

>  <SCORE.INTRA.SOLV.lig_0>
-48.5102

>  <SCORE.INTRA.VDW>
-1.22206

>  <SCORE.INTRA.VDW.0>
0.379549

>  <SCORE.INTRA.norm>
-0.0839054

>  <SCORE.RESTR>
0

>  <SCORE.RESTR.CAVITY>
0

>  <SCORE.RESTR.norm>
0

>  <SCORE.SYSTEM>
0

>  <SCORE.SYSTEM.CONST>
0

>  <SCORE.SYSTEM.DIHEDRAL>
0

>  <SCORE.SYSTEM.SOLV>
0

>  <SCORE.SYSTEM.norm>
0

>  <SCORE.heavy>
27

>  <SCORE.norm>
-0.46335

>  <RMSD>
12.834

$$$$
ligand
 OpenBabel11021811483D
libRbt.so/2013.1/901 2013/11/27
 27 29  0  0  0  0  0  0  0  0999 V2000
   54.1974   49.3925   21.4049 N   0  0  0  0  0  0  0  0  0  0  0  0
   54.8824   49.2578   22.6896 C   0  0  2  0  0  0  0  0  0  0  0  0
   55.3571   47.8428   22.8526 C   0  0  0  0  0  0  0  0  0  0  0  0
   55.5224   47.1344   21.8650 O   0  0  0  0  0  0  0  0  0  0  0  0
   53.9321   49.6010   23.8360 C   0  0  0  0  0  0  0  0  0  0  0  0
   53.3349   50.9737   23.5849 C   0  0  0  0  0  0  0  0  0  0  0  0
   52.3672   51.6219   24.9850 S   0  0  2  0  0  0  0  0  0  0  0  0
   50.9801   50.4604   25.1552 C   0  0  0  0  0  0  0  0  0  0  0  0
   51.2290   52.9042   24.1824 C   0  0  0  0  0  0  0  0  0  0  0  0
   50.4607   52.5357   22.8445 C   0  0  2  0  0  0  0  0  0  0  0  0
   51.2069   52.4131   21.6548 O   0  0  0  0  0  0  0  0  0  0  0  0
   49.1799   53.1866   22.5051 C   0  0  1  0  0  0  0  0  0  0  0  0
   48.5671   53.8181   23.6298 O   0  0  0  0  0  0  0  0  0  0  0  0
   49.7681   54.1824   21.3970 C   0  0  2  0  0  0  0  0  0  0  0  0
   48.7364   54.7879   20.6775 O   0  0  0  0  0  0  0  0  0  0  0  0
   50.5735   53.2010   20.5477 C   0  0  1  0  0  0  0  0  0  0  0  0
   55.6174   47.4139   23.9694 O   0  0  0  0  0  0  0  0  0  0  0  0
   51.4086   54.5405   15.6857 N   0  0  0  0  0  0  0  0  0  0  0  0
   50.3011   54.1121   16.2970 C   0  0  0  0  0  0  0  0  0  0  0  0
   50.2944   53.8373   17.5980 N   0  0  0  0  0  0  0  0  0  0  0  0
   51.4204   53.8762   18.3279 C   0  0  0  0  0  0  0  0  0  0  0  0
   52.6349   54.2724   17.7103 C   0  0  0  0  0  0  0  0  0  0  0  0
   52.5888   54.6194   16.3315 C   0  0  0  0  0  0  0  0  0  0  0  0
   53.7237   55.0296   15.6616 N   0  0  0  0  0  0  0  0  0  0  0  0
   53.5955   54.2208   18.6497 N   0  0  0  0  0  0  0  0  0  0  0  0
   53.0752   53.8234   19.7801 C   0  0  0  0  0  0  0  0  0  0  0  0
   51.7324   53.6054   19.6474 N   0  0  0  0  0  0  0  0  0  0  0  0
  2  1  1  6  0  0  0
  2  3  1  0  0  0  0
  2  5  1  0  0  0  0
  3  4  1  0  0  0  0
  3 17  1  0  0  0  0
  5  6  1  0  0  0  0
  7  6  1  6  0  0  0
  7  8  1  0  0  0  0
  7  9  1  0  0  0  0
 10  9  1  1  0  0  0
 10 11  1  0  0  0  0
 10 12  1  0  0  0  0
 11 16  1  0  0  0  0
 12 13  1  1  0  0  0
 12 14  1  0  0  0  0
 14 15  1  6  0  0  0
 14 16  1  0  0  0  0
 16 27  1  1  0  0  0
 18 19  2  0  0  0  0
 18 23  1  0  0  0  0
 19 20  1  0  0  0  0
 20 21  2  0  0  0  0
 21 22  1  0  0  0  0
 21 27  1  0  0  0  0
 22 23  2  0  0  0  0
 22 25  1  0  0  0  0
 23 24  1  0  0  0  0
 25 26  2  0  0  0  0
 26 27  1  0  0  0  0
M  END
>  <CHROM.1>
22.37003954,-53.69564299,-171.63913370,-63.57728705,45.90964979,-70.70599227
155.75213849,52.10479719,52.22713021,21.16627071,-1.18258184,0.67841488,-1.13057350

>  <Name>
ligand

>  <RI>
0

>  <Rbt.Current_Directory>
/home/itssahil/PROJECTS/Mol_Feturizer/New_Systems/rnas/3IQR

>  <Rbt.Executable>
rbdock ($Id: //depot/dev/client3/rdock/2013.1/src/exe/rbdock.cxx#4 $)

>  <Rbt.Library>
libRbt.so (2013.1, Build901 2013/11/27)

>  <Rbt.Parameter_File>
/export/apps/rDock/src/rDock_2013.1_src/data/scripts/dock_solv.prm

>  <Rbt.Receptor>
prm/blind_docking_80.prm

>  <SCORE>
-18.8588

>  <SCORE.INTER>
-14.679

>  <SCORE.INTER.CONST>
1

>  <SCORE.INTER.POLAR>
0

>  <SCORE.INTER.ROT>
7

>  <SCORE.INTER.SOLV>
10.3646

>  <SCORE.INTER.VDW>
-21.5076

>  <SCORE.INTER.norm>
-0.543669

>  <SCORE.INTRA>
-4.17972

>  <SCORE.INTRA.DIHEDRAL>
-4.44184

>  <SCORE.INTRA.DIHEDRAL.0>
9.29433

>  <SCORE.INTRA.POLAR>
0

>  <SCORE.INTRA.POLAR.0>
0

>  <SCORE.INTRA.REPUL>
0

>  <SCORE.INTRA.REPUL.0>
0

>  <SCORE.INTRA.SOLV>
-0.928361

>  <SCORE.INTRA.SOLV.lig_0>
-48.5102

>  <SCORE.INTRA.VDW>
-1.49462

>  <SCORE.INTRA.VDW.0>
0.379549

>  <SCORE.INTRA.norm>
-0.154804

>  <SCORE.RESTR>
0

>  <SCORE.RESTR.CAVITY>
0

>  <SCORE.RESTR.norm>
0

>  <SCORE.SYSTEM>
0

>  <SCORE.SYSTEM.CONST>
0

>  <SCORE.SYSTEM.DIHEDRAL>
0

>  <SCORE.SYSTEM.SOLV>
0

>  <SCORE.SYSTEM.norm>
0

>  <SCORE.heavy>
27

>  <SCORE.norm>
-0.698473

>  <RMSD>
12.877

$$$$
ligand
 OpenBabel11021811483D
libRbt.so/2013.1/901 2013/11/27
 27 29  0  0  0  0  0  0  0  0999 V2000
   42.6298   53.1418   18.2573 N   0  0  0  0  0  0  0  0  0  0  0  0
   42.4850   54.5949   18.3306 C   0  0  2  0  0  0  0  0  0  0  0  0
   41.8374   55.0929   17.0710 C   0  0  0  0  0  0  0  0  0  0  0  0
   41.5255   54.3009   16.1879 O   0  0  0  0  0  0  0  0  0  0  0  0
   43.8535   55.2573   18.4844 C   0  0  0  0  0  0  0  0  0  0  0  0
   44.4538   54.8417   19.8151 C   0  0  0  0  0  0  0  0  0  0  0  0
   45.2073   53.1838   19.7961 S   0  0  2  0  0  0  0  0  0  0  0  0
   44.0715   52.1571   20.7749 C   0  0  0  0  0  0  0  0  0  0  0  0
   46.4380   53.2387   21.2336 C   0  0  0  0  0  0  0  0  0  0  0  0
   47.6315   54.2830   21.1986 C   0  0  2  0  0  0  0  0  0  0  0  0
   48.6164   54.1424   20.1998 O   0  0  0  0  0  0  0  0  0  0  0  0
   48.3105   54.6962   22.4425 C   0  0  1  0  0  0  0  0  0  0  0  0
   47.5520   54.3893   23.6130 O   0  0  0  0  0  0  0  0  0  0  0  0
   49.6313   53.8151   22.2320 C   0  0  2  0  0  0  0  0  0  0  0  0
   50.6218   54.1810   23.1452 O   0  0  0  0  0  0  0  0  0  0  0  0
   49.9900   54.1989   20.7977 C   0  0  1  0  0  0  0  0  0  0  0  0
   41.5852   56.2847   16.9475 O   0  0  0  0  0  0  0  0  0  0  0  0
   51.0586   53.7510   15.8189 N   0  0  0  0  0  0  0  0  0  0  0  0
   50.1763   54.5237   16.4581 C   0  0  0  0  0  0  0  0  0  0  0  0
   50.0753   54.5030   17.7838 N   0  0  0  0  0  0  0  0  0  0  0  0
   50.7771   53.6319   18.5262 C   0  0  0  0  0  0  0  0  0  0  0  0
   51.6877   52.7510   17.8874 C   0  0  0  0  0  0  0  0  0  0  0  0
   51.8138   52.8472   16.4737 C   0  0  0  0  0  0  0  0  0  0  0  0
   52.6890   52.0365   15.7796 N   0  0  0  0  0  0  0  0  0  0  0  0
   52.2475   51.9923   18.8459 N   0  0  0  0  0  0  0  0  0  0  0  0
   51.7546   52.3287   20.0079 C   0  0  0  0  0  0  0  0  0  0  0  0
   50.8492   53.3442   19.8766 N   0  0  0  0  0  0  0  0  0  0  0  0
  2  1  1  6  0  0  0
  2  3  1  0  0  0  0
  2  5  1  0  0  0  0
  3  4  1  0  0  0  0
  3 17  1  0  0  0  0
  5  6  1  0  0  0  0
  7  6  1  1  0  0  0
  7  8  1  0  0  0  0
  7  9  1  0  0  0  0
 10  9  1  1  0  0  0
 10 11  1  0  0  0  0
 10 12  1  0  0  0  0
 11 16  1  0  0  0  0
 12 13  1  1  0  0  0
 12 14  1  0  0  0  0
 14 15  1  1  0  0  0
 14 16  1  0  0  0  0
 16 27  1  6  0  0  0
 18 19  2  0  0  0  0
 18 23  1  0  0  0  0
 19 20  1  0  0  0  0
 20 21  2  0  0  0  0
 21 22  1  0  0  0  0
 21 27  1  0  0  0  0
 22 23  2  0  0  0  0
 22 25  1  0  0  0  0
 23 24  1  0  0  0  0
 25 26  2  0  0  0  0
 26 27  1  0  0  0  0
M  END
>  <CHROM.1>
-0.07626046,-64.66296471,79.62900435,-108.34069429,-61.56836201,-65.27336235
51.20303885,47.53132105,53.82358412,19.25991216,-3.06549772,-0.14810100,1.54599450

>  <Name>
ligand

>  <RI>
0

>  <Rbt.Current_Directory>
/home/itssahil/PROJECTS/Mol_Feturizer/New_Systems/rnas/3IQR

>  <Rbt.Executable>
rbdock ($Id: //depot/dev/client3/rdock/2013.1/src/exe/rbdock.cxx#4 $)

>  <Rbt.Library>
libRbt.so (2013.1, Build901 2013/11/27)

>  <Rbt.Parameter_File>
/export/apps/rDock/src/rDock_2013.1_src/data/scripts/dock_solv.prm

>  <Rbt.Receptor>
prm/blind_docking_80.prm

>  <SCORE>
-15.114

>  <SCORE.INTER>
-12.6723

>  <SCORE.INTER.CONST>
1

>  <SCORE.INTER.POLAR>
0

>  <SCORE.INTER.ROT>
7

>  <SCORE.INTER.SOLV>
20.4681

>  <SCORE.INTER.VDW>
-23.5375

>  <SCORE.INTER.norm>
-0.469343

>  <SCORE.INTRA>
-2.44173

>  <SCORE.INTRA.DIHEDRAL>
-1.36115

>  <SCORE.INTRA.DIHEDRAL.0>
9.29433

>  <SCORE.INTRA.POLAR>
0

>  <SCORE.INTRA.POLAR.0>
0

>  <SCORE.INTRA.REPUL>
0

>  <SCORE.INTRA.REPUL.0>
0

>  <SCORE.INTRA.SOLV>
1.19861

>  <SCORE.INTRA.SOLV.lig_0>
-48.5102

>  <SCORE.INTRA.VDW>
-2.36046

>  <SCORE.INTRA.VDW.0>
0.379549

>  <SCORE.INTRA.norm>
-0.0904344

>  <SCORE.RESTR>
0

>  <SCORE.RESTR.CAVITY>
0

>  <SCORE.RESTR.norm>
0

>  <SCORE.SYSTEM>
0

>  <SCORE.SYSTEM.CONST>
0

>  <SCORE.SYSTEM.DIHEDRAL>
0

>  <SCORE.SYSTEM.SOLV>
0

>  <SCORE.SYSTEM.norm>
0

>  <SCORE.heavy>
27

>  <SCORE.norm>
-0.559777

>  <RMSD>
12.967

$$$$
ligand
 OpenBabel11021811483D
libRbt.so/2013.1/901 2013/11/27
 27 29  0  0  0  0  0  0  0  0999 V2000
   42.4191   52.5471   21.0549 N   0  0  0  0  0  0  0  0  0  0  0  0
   43.5203   52.9508   20.1818 C   0  0  2  0  0  0  0  0  0  0  0  0
   43.4534   52.1658   18.9037 C   0  0  0  0  0  0  0  0  0  0  0  0
   44.1581   51.1727   18.7571 O   0  0  0  0  0  0  0  0  0  0  0  0
   44.8622   52.6838   20.8624 C   0  0  0  0  0  0  0  0  0  0  0  0
   45.9632   53.3467   20.0548 C   0  0  0  0  0  0  0  0  0  0  0  0
   47.6426   52.9523   20.6386 S   0  0  2  0  0  0  0  0  0  0  0  0
   47.8042   53.8599   22.2046 C   0  0  0  0  0  0  0  0  0  0  0  0
   48.7300   54.2271   19.7575 C   0  0  0  0  0  0  0  0  0  0  0  0
   49.6679   53.7612   18.5660 C   0  0  2  0  0  0  0  0  0  0  0  0
   50.4974   52.6388   18.7651 O   0  0  0  0  0  0  0  0  0  0  0  0
   50.4303   54.7471   17.7748 C   0  0  1  0  0  0  0  0  0  0  0  0
   49.9365   56.0783   17.9288 O   0  0  0  0  0  0  0  0  0  0  0  0
   51.8544   54.4626   18.4502 C   0  0  2  0  0  0  0  0  0  0  0  0
   52.8774   55.0798   17.7280 O   0  0  0  0  0  0  0  0  0  0  0  0
   51.9057   52.9394   18.3482 C   0  0  1  0  0  0  0  0  0  0  0  0
   42.6644   52.4966   18.0279 O   0  0  0  0  0  0  0  0  0  0  0  0
   51.9168   51.0690   23.1056 N   0  0  0  0  0  0  0  0  0  0  0  0
   51.0953   51.9368   22.5088 C   0  0  0  0  0  0  0  0  0  0  0  0
   51.2589   52.2753   21.2333 N   0  0  0  0  0  0  0  0  0  0  0  0
   52.3140   51.8440   20.5240 C   0  0  0  0  0  0  0  0  0  0  0  0
   53.2460   50.9635   21.1316 C   0  0  0  0  0  0  0  0  0  0  0  0
   53.0019   50.5744   22.4780 C   0  0  0  0  0  0  0  0  0  0  0  0
   53.8528   49.7089   23.1351 N   0  0  0  0  0  0  0  0  0  0  0  0
   54.1944   50.6937   20.2174 N   0  0  0  0  0  0  0  0  0  0  0  0
   53.9256   51.3356   19.1119 C   0  0  0  0  0  0  0  0  0  0  0  0
   52.7699   52.0549   19.2359 N   0  0  0  0  0  0  0  0  0  0  0  0
  2  1  1  1  0  0  0
  2  3  1  0  0  0  0
  2  5  1  0  0  0  0
  3  4  1  0  0  0  0
  3 17  1  0  0  0  0
  5  6  1  0  0  0  0
  7  6  1  6  0  0  0
  7  8  1  0  0  0  0
  7  9  1  0  0  0  0
 10  9  1  1  0  0  0
 10 11  1  0  0  0  0
 10 12  1  0  0  0  0
 11 16  1  0  0  0  0
 12 13  1  1  0  0  0
 12 14  1  0  0  0  0
 14 15  1  6  0  0  0
 14 16  1  0  0  0  0
 16 27  1  1  0  0  0
 18 19  2  0  0  0  0
 18 23  1  0  0  0  0
 19 20  1  0  0  0  0
 20 21  2  0  0  0  0
 21 22  1  0  0  0  0
 21 27  1  0  0  0  0
 22 23  2  0  0  0  0
 22 25  1  0  0  0  0
 23 24  1  0  0  0  0
 25 26  2  0  0  0  0
 26 27  1  0  0  0  0
M  END
>  <CHROM.1>
-98.12295157,-169.41694775,-173.28528138,-71.78792351,-107.37085411,-49.49112815
-34.63255794,49.30128949,52.67550886,20.00818535,3.01857133,0.01367155,-0.87577167

>  <Name>
ligand

>  <RI>
0

>  <Rbt.Current_Directory>
/home/itssahil/PROJECTS/Mol_Feturizer/New_Systems/rnas/3IQR

>  <Rbt.Executable>
rbdock ($Id: //depot/dev/client3/rdock/2013.1/src/exe/rbdock.cxx#4 $)

>  <Rbt.Library>
libRbt.so (2013.1, Build901 2013/11/27)

>  <Rbt.Parameter_File>
/export/apps/rDock/src/rDock_2013.1_src/data/scripts/dock_solv.prm

>  <Rbt.Receptor>
prm/blind_docking_100.prm

>  <SCORE>
-18.9626

>  <SCORE.INTER>
-15.6296

>  <SCORE.INTER.CONST>
1

>  <SCORE.INTER.POLAR>
0

>  <SCORE.INTER.ROT>
7

>  <SCORE.INTER.SOLV>
19.4444

>  <SCORE.INTER.VDW>
-25.1678

>  <SCORE.INTER.norm>
-0.578873

>  <SCORE.INTRA>
-3.33304

>  <SCORE.INTRA.DIHEDRAL>
-1.0718

>  <SCORE.INTRA.DIHEDRAL.0>
9.29433

>  <SCORE.INTRA.POLAR>
0

>  <SCORE.INTRA.POLAR.0>
0

>  <SCORE.INTRA.REPUL>
0

>  <SCORE.INTRA.REPUL.0>
0

>  <SCORE.INTRA.SOLV>
-1.88471

>  <SCORE.INTRA.SOLV.lig_0>
-48.5102

>  <SCORE.INTRA.VDW>
-1.85479

>  <SCORE.INTRA.VDW.0>
0.379549

>  <SCORE.INTRA.norm>
-0.123446

>  <SCORE.RESTR>
0

>  <SCORE.RESTR.CAVITY>
0

>  <SCORE.RESTR.norm>
0

>  <SCORE.SYSTEM>
0

>  <SCORE.SYSTEM.CONST>
0

>  <SCORE.SYSTEM.DIHEDRAL>
0

>  <SCORE.SYSTEM.SOLV>
0

>  <SCORE.SYSTEM.norm>
0

>  <SCORE.heavy>
27

>  <SCORE.norm>
-0.70232

>  <RMSD>
13.013

$$$$
ligand
 OpenBabel11021811483D
libRbt.so/2013.1/901 2013/11/27
 27 29  0  0  0  0  0  0  0  0999 V2000
   50.8542   53.2600   26.3316 N   0  0  0  0  0  0  0  0  0  0  0  0
   50.6876   52.4267   25.1417 C   0  0  2  0  0  0  0  0  0  0  0  0
   50.4184   51.0106   25.5617 C   0  0  0  0  0  0  0  0  0  0  0  0
   49.5602   50.3526   24.9829 O   0  0  0  0  0  0  0  0  0  0  0  0
   51.9543   52.4622   24.2876 C   0  0  0  0  0  0  0  0  0  0  0  0
   52.1797   53.8825   23.8018 C   0  0  0  0  0  0  0  0  0  0  0  0
   51.0008   54.4173   22.5209 S   0  0  2  0  0  0  0  0  0  0  0  0
   49.4294   54.6281   23.4089 C   0  0  0  0  0  0  0  0  0  0  0  0
   50.3894   52.7894   21.7724 C   0  0  0  0  0  0  0  0  0  0  0  0
   49.7075   52.7975   20.3402 C   0  0  2  0  0  0  0  0  0  0  0  0
   50.5020   53.1190   19.2210 O   0  0  0  0  0  0  0  0  0  0  0  0
   48.3803   53.4118   20.1389 C   0  0  1  0  0  0  0  0  0  0  0  0
   47.6697   53.6031   21.3628 O   0  0  0  0  0  0  0  0  0  0  0  0
   48.9032   54.7516   19.4341 C   0  0  2  0  0  0  0  0  0  0  0  0
   47.8411   55.4637   18.8739 O   0  0  0  0  0  0  0  0  0  0  0  0
   49.8309   54.1590   18.3751 C   0  0  1  0  0  0  0  0  0  0  0  0
   51.0860   50.5040   26.4542 O   0  0  0  0  0  0  0  0  0  0  0  0
   53.4170   53.4392   14.8040 N   0  0  0  0  0  0  0  0  0  0  0  0
   52.5284   52.5945   15.3340 C   0  0  0  0  0  0  0  0  0  0  0  0
   51.6529   52.9999   16.2490 N   0  0  0  0  0  0  0  0  0  0  0  0
   51.6934   54.2427   16.7550 C   0  0  0  0  0  0  0  0  0  0  0  0
   52.6565   55.1614   16.2635 C   0  0  0  0  0  0  0  0  0  0  0  0
   53.5345   54.7090   15.2397 C   0  0  0  0  0  0  0  0  0  0  0  0
   54.4887   55.5461   14.6979 N   0  0  0  0  0  0  0  0  0  0  0  0
   52.4857   56.3148   16.9331 N   0  0  0  0  0  0  0  0  0  0  0  0
   51.5101   56.1774   17.7909 C   0  0  0  0  0  0  0  0  0  0  0  0
   50.9735   54.9224   17.7201 N   0  0  0  0  0  0  0  0  0  0  0  0
  2  1  1  1  0  0  0
  2  3  1  0  0  0  0
  2  5  1  0  0  0  0
  3  4  1  0  0  0  0
  3 17  1  0  0  0  0
  5  6  1  0  0  0  0
  7  6  1  1  0  0  0
  7  8  1  0  0  0  0
  7  9  1  0  0  0  0
 10  9  1  1  0  0  0
 10 11  1  0  0  0  0
 10 12  1  0  0  0  0
 11 16  1  0  0  0  0
 12 13  1  1  0  0  0
 12 14  1  0  0  0  0
 14 15  1  6  0  0  0
 14 16  1  0  0  0  0
 16 27  1  1  0  0  0
 18 19  2  0  0  0  0
 18 23  1  0  0  0  0
 19 20  1  0  0  0  0
 20 21  2  0  0  0  0
 21 22  1  0  0  0  0
 21 27  1  0  0  0  0
 22 23  2  0  0  0  0
 22 25  1  0  0  0  0
 23 24  1  0  0  0  0
 25 26  2  0  0  0  0
 26 27  1  0  0  0  0
M  END
>  <CHROM.1>
137.66546272,-63.05171570,-72.01302102,71.76196418,-160.80240251,67.11166700
70.19211385,50.88020466,53.67435304,20.37598050,-1.78382597,0.27315685,-1.24948995

>  <Name>
ligand

>  <RI>
0

>  <Rbt.Current_Directory>
/home/itssahil/PROJECTS/Mol_Feturizer/New_Systems/rnas/3IQR

>  <Rbt.Executable>
rbdock ($Id: //depot/dev/client3/rdock/2013.1/src/exe/rbdock.cxx#4 $)

>  <Rbt.Library>
libRbt.so (2013.1, Build901 2013/11/27)

>  <Rbt.Parameter_File>
/export/apps/rDock/src/rDock_2013.1_src/data/scripts/dock_solv.prm

>  <Rbt.Receptor>
prm/blind_docking_80.prm

>  <SCORE>
-16.3787

>  <SCORE.INTER>
-14.4701

>  <SCORE.INTER.CONST>
1

>  <SCORE.INTER.POLAR>
0

>  <SCORE.INTER.ROT>
7

>  <SCORE.INTER.SOLV>
10.6251

>  <SCORE.INTER.VDW>
-21.4551

>  <SCORE.INTER.norm>
-0.535929

>  <SCORE.INTRA>
-1.90861

>  <SCORE.INTRA.DIHEDRAL>
-1.44892

>  <SCORE.INTRA.DIHEDRAL.0>
9.29433

>  <SCORE.INTRA.POLAR>
0

>  <SCORE.INTRA.POLAR.0>
0

>  <SCORE.INTRA.REPUL>
0

>  <SCORE.INTRA.REPUL.0>
0

>  <SCORE.INTRA.SOLV>
0.766515

>  <SCORE.INTRA.SOLV.lig_0>
-48.5102

>  <SCORE.INTRA.VDW>
-1.5674

>  <SCORE.INTRA.VDW.0>
0.379549

>  <SCORE.INTRA.norm>
-0.0706891

>  <SCORE.RESTR>
0

>  <SCORE.RESTR.CAVITY>
0

>  <SCORE.RESTR.norm>
0

>  <SCORE.SYSTEM>
0

>  <SCORE.SYSTEM.CONST>
0

>  <SCORE.SYSTEM.DIHEDRAL>
0

>  <SCORE.SYSTEM.SOLV>
0

>  <SCORE.SYSTEM.norm>
0

>  <SCORE.heavy>
27

>  <SCORE.norm>
-0.606618

>  <RMSD>
13.203

$$$$
ligand
 OpenBabel11021811483D
libRbt.so/2013.1/901 2013/11/27
 27 29  0  0  0  0  0  0  0  0999 V2000
   49.0650   54.2999   26.0279 N   0  0  0  0  0  0  0  0  0  0  0  0
   49.2746   54.7261   24.6451 C   0  0  2  0  0  0  0  0  0  0  0  0
   47.9917   55.2812   24.0973 C   0  0  0  0  0  0  0  0  0  0  0  0
   47.1429   55.7299   24.8606 O   0  0  0  0  0  0  0  0  0  0  0  0
   49.7135   53.5413   23.7856 C   0  0  0  0  0  0  0  0  0  0  0  0
   51.1732   53.2399   24.0729 C   0  0  0  0  0  0  0  0  0  0  0  0
   51.8823   51.9493   23.0013 S   0  0  2  0  0  0  0  0  0  0  0  0
   53.6746   52.0625   23.2786 C   0  0  0  0  0  0  0  0  0  0  0  0
   52.0608   52.8120   21.3256 C   0  0  0  0  0  0  0  0  0  0  0  0
   50.9084   52.6634   20.2457 C   0  0  2  0  0  0  0  0  0  0  0  0
   51.2495   52.1925   18.9615 O   0  0  0  0  0  0  0  0  0  0  0  0
   49.8879   53.7171   20.0801 C   0  0  1  0  0  0  0  0  0  0  0  0
   49.8265   54.6058   21.1964 O   0  0  0  0  0  0  0  0  0  0  0  0
   50.4903   54.3465   18.7362 C   0  0  2  0  0  0  0  0  0  0  0  0
   49.5863   55.2401   18.1590 O   0  0  0  0  0  0  0  0  0  0  0  0
   50.6737   53.0813   17.9003 C   0  0  1  0  0  0  0  0  0  0  0  0
   47.8151   55.3218   22.8864 O   0  0  0  0  0  0  0  0  0  0  0  0
   53.4644   56.1137   14.8759 N   0  0  0  0  0  0  0  0  0  0  0  0
   52.5686   56.4074   15.8221 C   0  0  0  0  0  0  0  0  0  0  0  0
   51.9647   55.4502   16.5203 N   0  0  0  0  0  0  0  0  0  0  0  0
   52.1488   54.1517   16.2333 C   0  0  0  0  0  0  0  0  0  0  0  0
   53.0496   53.7903   15.1983 C   0  0  0  0  0  0  0  0  0  0  0  0
   53.7242   54.8410   14.5169 C   0  0  0  0  0  0  0  0  0  0  0  0
   54.6275   54.5720   13.5087 N   0  0  0  0  0  0  0  0  0  0  0  0
   53.0437   52.4483   15.1151 N   0  0  0  0  0  0  0  0  0  0  0  0
   52.2164   51.9628   16.0018 C   0  0  0  0  0  0  0  0  0  0  0  0
   51.6413   52.9657   16.7308 N   0  0  0  0  0  0  0  0  0  0  0  0
  2  1  1  1  0  0  0
  2  3  1  0  0  0  0
  2  5  1  0  0  0  0
  3  4  1  0  0  0  0
  3 17  1  0  0  0  0
  5  6  1  0  0  0  0
  7  6  1  1  0  0  0
  7  8  1  0  0  0  0
  7  9  1  0  0  0  0
 10  9  1  6  0  0  0
 10 11  1  0  0  0  0
 10 12  1  0  0  0  0
 11 16  1  0  0  0  0
 12 13  1  1  0  0  0
 12 14  1  0  0  0  0
 14 15  1  6  0  0  0
 14 16  1  0  0  0  0
 16 27  1  6  0  0  0
 18 19  2  0  0  0  0
 18 23  1  0  0  0  0
 19 20  1  0  0  0  0
 20 21  2  0  0  0  0
 21 22  1  0  0  0  0
 21 27  1  0  0  0  0
 22 23  2  0  0  0  0
 22 25  1  0  0  0  0
 23 24  1  0  0  0  0
 25 26  2  0  0  0  0
 26 27  1  0  0  0  0
M  END
>  <CHROM.1>
24.13481061,-76.21637297,-174.43362883,167.27043831,-94.66014469,-125.34510597
-125.98760982,51.11903609,53.88952171,19.82916367,2.08596971,-0.74005237
1.95618405

>  <Name>
ligand

>  <RI>
0

>  <Rbt.Current_Directory>
/home/itssahil/PROJECTS/Mol_Feturizer/New_Systems/rnas/3IQR

>  <Rbt.Executable>
rbdock ($Id: //depot/dev/client3/rdock/2013.1/src/exe/rbdock.cxx#4 $)

>  <Rbt.Library>
libRbt.so (2013.1, Build901 2013/11/27)

>  <Rbt.Parameter_File>
/export/apps/rDock/src/rDock_2013.1_src/data/scripts/dock_solv.prm

>  <Rbt.Receptor>
prm/blind_docking_80.prm

>  <SCORE>
-13.2866

>  <SCORE.INTER>
-11.6641

>  <SCORE.INTER.CONST>
1

>  <SCORE.INTER.POLAR>
0

>  <SCORE.INTER.ROT>
7

>  <SCORE.INTER.SOLV>
12.8613

>  <SCORE.INTER.VDW>
-20.3299

>  <SCORE.INTER.norm>
-0.432005

>  <SCORE.INTRA>
-1.67302

>  <SCORE.INTRA.DIHEDRAL>
1.60406

>  <SCORE.INTRA.DIHEDRAL.0>
9.29433

>  <SCORE.INTRA.POLAR>
0

>  <SCORE.INTRA.POLAR.0>
0

>  <SCORE.INTRA.REPUL>
0

>  <SCORE.INTRA.REPUL.0>
0

>  <SCORE.INTRA.SOLV>
-0.457015

>  <SCORE.INTRA.SOLV.lig_0>
-48.5102

>  <SCORE.INTRA.VDW>
-2.24654

>  <SCORE.INTRA.VDW.0>
0.379549

>  <SCORE.INTRA.norm>
-0.0619636

>  <SCORE.RESTR>
0.0505182

>  <SCORE.RESTR.CAVITY>
0.0505182

>  <SCORE.RESTR.norm>
0.00187104

>  <SCORE.SYSTEM>
0

>  <SCORE.SYSTEM.CONST>
0

>  <SCORE.SYSTEM.DIHEDRAL>
0

>  <SCORE.SYSTEM.SOLV>
0

>  <SCORE.SYSTEM.norm>
0

>  <SCORE.heavy>
27

>  <SCORE.norm>
-0.492098

>  <RMSD>
13.567

$$$$
ligand
 OpenBabel11021811483D
libRbt.so/2013.1/901 2013/11/27
 27 29  0  0  0  0  0  0  0  0999 V2000
   56.2736   48.3450   22.6123 N   0  0  0  0  0  0  0  0  0  0  0  0
   55.6554   49.6624   22.4702 C   0  0  2  0  0  0  0  0  0  0  0  0
   56.7283   50.7117   22.4267 C   0  0  0  0  0  0  0  0  0  0  0  0
   56.5037   51.7962   21.8995 O   0  0  0  0  0  0  0  0  0  0  0  0
   54.7288   49.9440   23.6523 C   0  0  0  0  0  0  0  0  0  0  0  0
   53.8539   51.1382   23.3172 C   0  0  0  0  0  0  0  0  0  0  0  0
   52.7070   50.8443   21.9335 S   0  0  2  0  0  0  0  0  0  0  0  0
   53.4928   51.6578   20.5112 C   0  0  0  0  0  0  0  0  0  0  0  0
   51.4570   52.2580   22.0846 C   0  0  0  0  0  0  0  0  0  0  0  0
   50.2498   52.3441   21.0591 C   0  0  2  0  0  0  0  0  0  0  0  0
   50.5334   52.6586   19.7145 O   0  0  0  0  0  0  0  0  0  0  0  0
   48.9953   53.0309   21.4250 C   0  0  1  0  0  0  0  0  0  0  0  0
   48.8613   53.2209   22.8341 O   0  0  0  0  0  0  0  0  0  0  0  0
   49.2613   54.3631   20.5767 C   0  0  2  0  0  0  0  0  0  0  0  0
   48.1068   55.1450   20.5072 O   0  0  0  0  0  0  0  0  0  0  0  0
   49.6370   53.7566   19.2261 C   0  0  1  0  0  0  0  0  0  0  0  0
   57.8115   50.4956   22.9549 O   0  0  0  0  0  0  0  0  0  0  0  0
   52.7716   52.6564   15.3409 N   0  0  0  0  0  0  0  0  0  0  0  0
   52.2019   51.8672   16.2556 C   0  0  0  0  0  0  0  0  0  0  0  0
   51.3852   52.3626   17.1807 N   0  0  0  0  0  0  0  0  0  0  0  0
   51.1827   53.6842   17.3010 C   0  0  0  0  0  0  0  0  0  0  0  0
   51.8106   54.5689   16.3864 C   0  0  0  0  0  0  0  0  0  0  0  0
   52.6266   53.9958   15.3719 C   0  0  0  0  0  0  0  0  0  0  0  0
   53.2595   54.7871   14.4348 N   0  0  0  0  0  0  0  0  0  0  0  0
   51.4499   55.8182   16.7285 N   0  0  0  0  0  0  0  0  0  0  0  0
   50.6648   55.7723   17.7716 C   0  0  0  0  0  0  0  0  0  0  0  0
   50.4535   54.4804   18.1647 N   0  0  0  0  0  0  0  0  0  0  0  0
  2  1  1  1  0  0  0
  2  3  1  0  0  0  0
  2  5  1  0  0  0  0
  3  4  1  0  0  0  0
  3 17  1  0  0  0  0
  5  6  1  0  0  0  0
  7  6  1  1  0  0  0
  7  8  1  0  0  0  0
  7  9  1  0  0  0  0
 10  9  1  1  0  0  0
 10 11  1  0  0  0  0
 10 12  1  0  0  0  0
 11 16  1  0  0  0  0
 12 13  1  1  0  0  0
 12 14  1  0  0  0  0
 14 15  1  6  0  0  0
 14 16  1  0  0  0  0
 16 27  1  6  0  0  0
 18 19  2  0  0  0  0
 18 23  1  0  0  0  0
 19 20  1  0  0  0  0
 20 21  2  0  0  0  0
 21 22  1  0  0  0  0
 21 27  1  0  0  0  0
 22 23  2  0  0  0  0
 22 25  1  0  0  0  0
 23 24  1  0  0  0  0
 25 26  2  0  0  0  0
 26 27  1  0  0  0  0
M  END
>  <CHROM.1>
156.66955282,-166.19484888,64.96095364,-101.37923702,-178.70926274,-68.87258600
41.69575921,52.35620399,52.53356626,19.98342222,-0.89521220,0.40141301,-1.22465945

>  <Name>
ligand

>  <RI>
0

>  <Rbt.Current_Directory>
/home/itssahil/PROJECTS/Mol_Feturizer/New_Systems/rnas/3IQR

>  <Rbt.Executable>
rbdock ($Id: //depot/dev/client3/rdock/2013.1/src/exe/rbdock.cxx#4 $)

>  <Rbt.Library>
libRbt.so (2013.1, Build901 2013/11/27)

>  <Rbt.Parameter_File>
/export/apps/rDock/src/rDock_2013.1_src/data/scripts/dock_solv.prm

>  <Rbt.Receptor>
prm/blind_docking_100.prm

>  <SCORE>
-21.5884

>  <SCORE.INTER>
-16.7394

>  <SCORE.INTER.CONST>
1

>  <SCORE.INTER.POLAR>
0

>  <SCORE.INTER.ROT>
7

>  <SCORE.INTER.SOLV>
14.8068

>  <SCORE.INTER.VDW>
-24.3619

>  <SCORE.INTER.norm>
-0.619978

>  <SCORE.INTRA>
-4.85089

>  <SCORE.INTRA.DIHEDRAL>
-2.49631

>  <SCORE.INTRA.DIHEDRAL.0>
9.29433

>  <SCORE.INTRA.POLAR>
0

>  <SCORE.INTRA.POLAR.0>
0

>  <SCORE.INTRA.REPUL>
0

>  <SCORE.INTRA.REPUL.0>
0

>  <SCORE.INTRA.SOLV>
-1.58295

>  <SCORE.INTRA.SOLV.lig_0>
-48.5102

>  <SCORE.INTRA.VDW>
-2.81126

>  <SCORE.INTRA.VDW.0>
0.379549

>  <SCORE.INTRA.norm>
-0.179663

>  <SCORE.RESTR>
0.00194384

>  <SCORE.RESTR.CAVITY>
0.00194384

>  <SCORE.RESTR.norm>
7.19942e-05

>  <SCORE.SYSTEM>
0

>  <SCORE.SYSTEM.CONST>
0

>  <SCORE.SYSTEM.DIHEDRAL>
0

>  <SCORE.SYSTEM.SOLV>
0

>  <SCORE.SYSTEM.norm>
0

>  <SCORE.heavy>
27

>  <SCORE.norm>
-0.799569

>  <RMSD>
13.771

$$$$
ligand
 OpenBabel11021811483D
libRbt.so/2013.1/901 2013/11/27
 27 29  0  0  0  0  0  0  0  0999 V2000
   46.9137   52.9919   24.1654 N   0  0  0  0  0  0  0  0  0  0  0  0
   47.9936   53.3475   25.0847 C   0  0  2  0  0  0  0  0  0  0  0  0
   48.2472   54.8251   25.0040 C   0  0  0  0  0  0  0  0  0  0  0  0
   47.7951   55.4740   24.0664 O   0  0  0  0  0  0  0  0  0  0  0  0
   49.2738   52.6000   24.7138 C   0  0  0  0  0  0  0  0  0  0  0  0
   49.6495   52.9480   23.2849 C   0  0  0  0  0  0  0  0  0  0  0  0
   51.1667   52.1260   22.7026 S   0  0  2  0  0  0  0  0  0  0  0  0
   52.5129   53.0003   23.5543 C   0  0  0  0  0  0  0  0  0  0  0  0
   51.5683   53.0275   21.0871 C   0  0  0  0  0  0  0  0  0  0  0  0
   50.5588   52.9286   19.8674 C   0  0  2  0  0  0  0  0  0  0  0  0
   51.0463   52.4622   18.6297 O   0  0  0  0  0  0  0  0  0  0  0  0
   49.5999   54.0163   19.5903 C   0  0  1  0  0  0  0  0  0  0  0  0
   49.4238   54.8932   20.7037 O   0  0  0  0  0  0  0  0  0  0  0  0
   50.3873   54.6419   18.3437 C   0  0  2  0  0  0  0  0  0  0  0  0
   49.5915   55.5707   17.6707 O   0  0  0  0  0  0  0  0  0  0  0  0
   50.6373   53.3813   17.5181 C   0  0  1  0  0  0  0  0  0  0  0  0
   48.8701   55.3845   25.8973 O   0  0  0  0  0  0  0  0  0  0  0  0
   53.1201   56.2844   14.1211 N   0  0  0  0  0  0  0  0  0  0  0  0
   52.0770   56.5584   14.9092 C   0  0  0  0  0  0  0  0  0  0  0  0
   51.5937   55.6512   15.7529 N   0  0  0  0  0  0  0  0  0  0  0  0
   52.0625   54.3935   15.7730 C   0  0  0  0  0  0  0  0  0  0  0  0
   53.1344   54.0381   14.9139 C   0  0  0  0  0  0  0  0  0  0  0  0
   53.6661   55.0533   14.0712 C   0  0  0  0  0  0  0  0  0  0  0  0
   54.7191   54.7922   13.2180 N   0  0  0  0  0  0  0  0  0  0  0  0
   53.4024   52.7379   15.1275 N   0  0  0  0  0  0  0  0  0  0  0  0
   52.5863   52.2704   16.0340 C   0  0  0  0  0  0  0  0  0  0  0  0
   51.7420   53.2487   16.4792 N   0  0  0  0  0  0  0  0  0  0  0  0
  2  1  1  6  0  0  0
  2  3  1  0  0  0  0
  2  5  1  0  0  0  0
  3  4  1  0  0  0  0
  3 17  1  0  0  0  0
  5  6  1  0  0  0  0
  7  6  1  1  0  0  0
  7  8  1  0  0  0  0
  7  9  1  0  0  0  0
 10  9  1  1  0  0  0
 10 11  1  0  0  0  0
 10 12  1  0  0  0  0
 11 16  1  0  0  0  0
 12 13  1  1  0  0  0
 12 14  1  0  0  0  0
 14 15  1  6  0  0  0
 14 16  1  0  0  0  0
 16 27  1  6  0  0  0
 18 19  2  0  0  0  0
 18 23  1  0  0  0  0
 19 20  1  0  0  0  0
 20 21  2  0  0  0  0
 21 22  1  0  0  0  0
 21 27  1  0  0  0  0
 22 23  2  0  0  0  0
 22 25  1  0  0  0  0
 23 24  1  0  0  0  0
 25 26  2  0  0  0  0
 26 27  1  0  0  0  0
M  END
>  <CHROM.1>
-15.18442562,58.34670821,179.93270957,-73.70500329,-63.97606854,-124.26502176
-145.02796309,50.82320182,53.94127911,19.63234729,2.14738383,-0.81106793
2.10735530

>  <Name>
ligand

>  <RI>
0

>  <Rbt.Current_Directory>
/home/itssahil/PROJECTS/Mol_Feturizer/New_Systems/rnas/3IQR

>  <Rbt.Executable>
rbdock ($Id: //depot/dev/client3/rdock/2013.1/src/exe/rbdock.cxx#4 $)

>  <Rbt.Library>
libRbt.so (2013.1, Build901 2013/11/27)

>  <Rbt.Parameter_File>
/export/apps/rDock/src/rDock_2013.1_src/data/scripts/dock_solv.prm

>  <Rbt.Receptor>
prm/blind_docking_80.prm

>  <SCORE>
-14.9163

>  <SCORE.INTER>
-11.7414

>  <SCORE.INTER.CONST>
1

>  <SCORE.INTER.POLAR>
0

>  <SCORE.INTER.ROT>
7

>  <SCORE.INTER.SOLV>
13.9849

>  <SCORE.INTER.VDW>
-20.7559

>  <SCORE.INTER.norm>
-0.434865

>  <SCORE.INTRA>
-3.1749

>  <SCORE.INTRA.DIHEDRAL>
-1.15301

>  <SCORE.INTRA.DIHEDRAL.0>
9.29433

>  <SCORE.INTRA.POLAR>
0

>  <SCORE.INTRA.POLAR.0>
0

>  <SCORE.INTRA.REPUL>
0

>  <SCORE.INTRA.REPUL.0>
0

>  <SCORE.INTRA.SOLV>
-0.749756

>  <SCORE.INTRA.SOLV.lig_0>
-48.5102

>  <SCORE.INTRA.VDW>
-2.22352

>  <SCORE.INTRA.VDW.0>
0.379549

>  <SCORE.INTRA.norm>
-0.117589

>  <SCORE.RESTR>
0

>  <SCORE.RESTR.CAVITY>
0

>  <SCORE.RESTR.norm>
0

>  <SCORE.SYSTEM>
0

>  <SCORE.SYSTEM.CONST>
0

>  <SCORE.SYSTEM.DIHEDRAL>
0

>  <SCORE.SYSTEM.SOLV>
0

>  <SCORE.SYSTEM.norm>
0

>  <SCORE.heavy>
27

>  <SCORE.norm>
-0.552454

>  <RMSD>
13.831

$$$$
ligand
 OpenBabel11021811483D
libRbt.so/2013.1/901 2013/11/27
 27 29  0  0  0  0  0  0  0  0999 V2000
   53.9093   48.7977   24.0558 N   0  0  0  0  0  0  0  0  0  0  0  0
   54.1915   48.7321   22.6226 C   0  0  2  0  0  0  0  0  0  0  0  0
   55.3840   47.8497   22.3917 C   0  0  0  0  0  0  0  0  0  0  0  0
   56.0990   47.5269   23.3346 O   0  0  0  0  0  0  0  0  0  0  0  0
   54.4895   50.1278   22.0762 C   0  0  0  0  0  0  0  0  0  0  0  0
   53.2068   50.9394   22.0753 C   0  0  0  0  0  0  0  0  0  0  0  0
   53.4662   52.7242   21.8229 S   0  0  2  0  0  0  0  0  0  0  0  0
   53.7822   53.3776   23.4889 C   0  0  0  0  0  0  0  0  0  0  0  0
   51.7121   53.4359   21.8482 C   0  0  0  0  0  0  0  0  0  0  0  0
   50.5864   52.7667   20.9531 C   0  0  2  0  0  0  0  0  0  0  0  0
   50.8667   52.5251   19.5928 O   0  0  0  0  0  0  0  0  0  0  0  0
   49.1817   53.2104   21.0492 C   0  0  1  0  0  0  0  0  0  0  0  0
   48.9184   53.9539   22.2397 O   0  0  0  0  0  0  0  0  0  0  0  0
   49.1649   54.0616   19.6925 C   0  0  2  0  0  0  0  0  0  0  0  0
   47.8606   54.4232   19.3507 O   0  0  0  0  0  0  0  0  0  0  0  0
   49.7605   53.0423   18.7232 C   0  0  1  0  0  0  0  0  0  0  0  0
   55.6147   47.4214   21.2682 O   0  0  0  0  0  0  0  0  0  0  0  0
   53.9402   55.4850   17.0818 N   0  0  0  0  0  0  0  0  0  0  0  0
   53.4399   55.3369   18.3113 C   0  0  0  0  0  0  0  0  0  0  0  0
   52.3346   54.6292   18.5249 N   0  0  0  0  0  0  0  0  0  0  0  0
   51.6184   54.1247   17.5077 C   0  0  0  0  0  0  0  0  0  0  0  0
   52.0799   54.3032   16.1778 C   0  0  0  0  0  0  0  0  0  0  0  0
   53.2997   55.0118   15.9946 C   0  0  0  0  0  0  0  0  0  0  0  0
   53.8237   55.2144   14.7339 N   0  0  0  0  0  0  0  0  0  0  0  0
   51.1874   53.7134   15.3633 N   0  0  0  0  0  0  0  0  0  0  0  0
   50.2228   53.1983   16.0780 C   0  0  0  0  0  0  0  0  0  0  0  0
   50.4387   53.4100   17.4109 N   0  0  0  0  0  0  0  0  0  0  0  0
  2  1  1  1  0  0  0
  2  3  1  0  0  0  0
  2  5  1  0  0  0  0
  3  4  1  0  0  0  0
  3 17  1  0  0  0  0
  5  6  1  0  0  0  0
  7  6  1  1  0  0  0
  7  8  1  0  0  0  0
  7  9  1  0  0  0  0
 10  9  1  6  0  0  0
 10 11  1  0  0  0  0
 10 12  1  0  0  0  0
 11 16  1  0  0  0  0
 12 13  1  1  0  0  0
 12 14  1  0  0  0  0
 14 15  1  6  0  0  0
 14 16  1  0  0  0  0
 16 27  1  6  0  0  0
 18 19  2  0  0  0  0
 18 23  1  0  0  0  0
 19 20  1  0  0  0  0
 20 21  2  0  0  0  0
 21 22  1  0  0  0  0
 21 27  1  0  0  0  0
 22 23  2  0  0  0  0
 22 25  1  0  0  0  0
 23 24  1  0  0  0  0
 25 26  2  0  0  0  0
 26 27  1  0  0  0  0
M  END
>  <CHROM.1>
-13.76495181,-70.31788782,166.50826802,-86.36277393,-49.34198324,-49.71665979
-45.68776890,52.30281166,52.52177285,19.96131595,1.07876043,-0.50472183,2.08337926

>  <Name>
ligand

>  <RI>
0

>  <Rbt.Current_Directory>
/home/itssahil/PROJECTS/Mol_Feturizer/New_Systems/rnas/3IQR

>  <Rbt.Executable>
rbdock ($Id: //depot/dev/client3/rdock/2013.1/src/exe/rbdock.cxx#4 $)

>  <Rbt.Library>
libRbt.so (2013.1, Build901 2013/11/27)

>  <Rbt.Parameter_File>
/export/apps/rDock/src/rDock_2013.1_src/data/scripts/dock_solv.prm

>  <Rbt.Receptor>
prm/blind_docking_80.prm

>  <SCORE>
-15.121

>  <SCORE.INTER>
-10.3959

>  <SCORE.INTER.CONST>
1

>  <SCORE.INTER.POLAR>
0

>  <SCORE.INTER.ROT>
7

>  <SCORE.INTER.SOLV>
13.6331

>  <SCORE.INTER.VDW>
-19.7416

>  <SCORE.INTER.norm>
-0.385032

>  <SCORE.INTRA>
-4.90735

>  <SCORE.INTRA.DIHEDRAL>
-2.44322

>  <SCORE.INTRA.DIHEDRAL.0>
9.29433

>  <SCORE.INTRA.POLAR>
0

>  <SCORE.INTRA.POLAR.0>
0

>  <SCORE.INTRA.REPUL>
0

>  <SCORE.INTRA.REPUL.0>
0

>  <SCORE.INTRA.SOLV>
-1.02981

>  <SCORE.INTRA.SOLV.lig_0>
-48.5102

>  <SCORE.INTRA.VDW>
-3.17083

>  <SCORE.INTRA.VDW.0>
0.379549

>  <SCORE.INTRA.norm>
-0.181754

>  <SCORE.RESTR>
0.182174

>  <SCORE.RESTR.CAVITY>
0.182174

>  <SCORE.RESTR.norm>
0.0067472

>  <SCORE.SYSTEM>
0

>  <SCORE.SYSTEM.CONST>
0

>  <SCORE.SYSTEM.DIHEDRAL>
0

>  <SCORE.SYSTEM.SOLV>
0

>  <SCORE.SYSTEM.norm>
0

>  <SCORE.heavy>
27

>  <SCORE.norm>
-0.560039

>  <RMSD>
13.903

$$$$
ligand
 OpenBabel11021811483D
libRbt.so/2013.1/901 2013/11/27
 27 29  0  0  0  0  0  0  0  0999 V2000
   54.2586   62.9557   15.9833 N   0  0  0  0  0  0  0  0  0  0  0  0
   53.8919   61.5658   15.7158 C   0  0  2  0  0  0  0  0  0  0  0  0
   52.5067   61.5206   15.1384 C   0  0  0  0  0  0  0  0  0  0  0  0
   52.2256   60.6854   14.2853 O   0  0  0  0  0  0  0  0  0  0  0  0
   53.9211   60.7513   17.0085 C   0  0  0  0  0  0  0  0  0  0  0  0
   53.6585   59.2936   16.6767 C   0  0  0  0  0  0  0  0  0  0  0  0
   53.6212   58.2028   18.1346 S   0  0  2  0  0  0  0  0  0  0  0  0
   55.3704   57.9454   18.5545 C   0  0  0  0  0  0  0  0  0  0  0  0
   53.5180   56.4663   17.3877 C   0  0  0  0  0  0  0  0  0  0  0  0
   52.1579   55.9791   16.7328 C   0  0  2  0  0  0  0  0  0  0  0  0
   50.9914   55.9884   17.5243 O   0  0  0  0  0  0  0  0  0  0  0  0
   52.1169   54.7687   15.8886 C   0  0  1  0  0  0  0  0  0  0  0  0
   53.4104   54.3698   15.4334 O   0  0  0  0  0  0  0  0  0  0  0  0
   51.4482   53.8062   16.9802 C   0  0  2  0  0  0  0  0  0  0  0  0
   51.0320   52.6085   16.3961 O   0  0  0  0  0  0  0  0  0  0  0  0
   50.2746   54.6751   17.4284 C   0  0  1  0  0  0  0  0  0  0  0  0
   51.6505   62.2919   15.5519 O   0  0  0  0  0  0  0  0  0  0  0  0
   50.8389   52.1613   21.8435 N   0  0  0  0  0  0  0  0  0  0  0  0
   51.5351   52.0974   20.7054 C   0  0  0  0  0  0  0  0  0  0  0  0
   51.2306   52.8701   19.6669 N   0  0  0  0  0  0  0  0  0  0  0  0
   50.1503   53.6669   19.6797 C   0  0  0  0  0  0  0  0  0  0  0  0
   49.3462   53.7278   20.8472 C   0  0  0  0  0  0  0  0  0  0  0  0
   49.7408   52.9339   21.9597 C   0  0  0  0  0  0  0  0  0  0  0  0
   49.0208   52.9489   23.1371 N   0  0  0  0  0  0  0  0  0  0  0  0
   48.3410   54.5844   20.5950 N   0  0  0  0  0  0  0  0  0  0  0  0
   48.4587   55.0444   19.3780 C   0  0  0  0  0  0  0  0  0  0  0  0
   49.5638   54.5228   18.7658 N   0  0  0  0  0  0  0  0  0  0  0  0
  2  1  1  1  0  0  0
  2  3  1  0  0  0  0
  2  5  1  0  0  0  0
  3  4  1  0  0  0  0
  3 17  1  0  0  0  0
  5  6  1  0  0  0  0
  7  6  1  6  0  0  0
  7  8  1  0  0  0  0
  7  9  1  0  0  0  0
 10  9  1  1  0  0  0
 10 11  1  0  0  0  0
 10 12  1  0  0  0  0
 11 16  1  0  0  0  0
 12 13  1  1  0  0  0
 12 14  1  0  0  0  0
 14 15  1  6  0  0  0
 14 16  1  0  0  0  0
 16 27  1  1  0  0  0
 18 19  2  0  0  0  0
 18 23  1  0  0  0  0
 19 20  1  0  0  0  0
 20 21  2  0  0  0  0
 21 22  1  0  0  0  0
 21 27  1  0  0  0  0
 22 23  2  0  0  0  0
 22 25  1  0  0  0  0
 23 24  1  0  0  0  0
 25 26  2  0  0  0  0
 26 27  1  0  0  0  0
M  END
>  <CHROM.1>
144.65937661,-174.98616220,-178.51574969,-78.14430365,-73.23137948,-57.08902153
-102.26250486,51.78457629,56.40239729,17.97127124,0.70952984,1.08932542,0.28434876

>  <Name>
ligand

>  <RI>
0

>  <Rbt.Current_Directory>
/home/itssahil/PROJECTS/Mol_Feturizer/New_Systems/rnas/3IQR

>  <Rbt.Executable>
rbdock ($Id: //depot/dev/client3/rdock/2013.1/src/exe/rbdock.cxx#4 $)

>  <Rbt.Library>
libRbt.so (2013.1, Build901 2013/11/27)

>  <Rbt.Parameter_File>
/export/apps/rDock/src/rDock_2013.1_src/data/scripts/dock_solv.prm

>  <Rbt.Receptor>
prm/blind_docking_100.prm

>  <SCORE>
-18.0678

>  <SCORE.INTER>
-12.2801

>  <SCORE.INTER.CONST>
1

>  <SCORE.INTER.POLAR>
0

>  <SCORE.INTER.ROT>
7

>  <SCORE.INTER.SOLV>
9.11869

>  <SCORE.INTER.VDW>
-19.493

>  <SCORE.INTER.norm>
-0.454819

>  <SCORE.INTRA>
-5.7877

>  <SCORE.INTRA.DIHEDRAL>
-5.14034

>  <SCORE.INTRA.DIHEDRAL.0>
9.29433

>  <SCORE.INTRA.POLAR>
0

>  <SCORE.INTRA.POLAR.0>
0

>  <SCORE.INTRA.REPUL>
0

>  <SCORE.INTRA.REPUL.0>
0

>  <SCORE.INTRA.SOLV>
-1.85877

>  <SCORE.INTRA.SOLV.lig_0>
-48.5102

>  <SCORE.INTRA.VDW>
-2.28814

>  <SCORE.INTRA.VDW.0>
0.379549

>  <SCORE.INTRA.norm>
-0.214359

>  <SCORE.RESTR>
0

>  <SCORE.RESTR.CAVITY>
0

>  <SCORE.RESTR.norm>
0

>  <SCORE.SYSTEM>
0

>  <SCORE.SYSTEM.CONST>
0

>  <SCORE.SYSTEM.DIHEDRAL>
0

>  <SCORE.SYSTEM.SOLV>
0

>  <SCORE.SYSTEM.norm>
0

>  <SCORE.heavy>
27

>  <SCORE.norm>
-0.669178

>  <RMSD>
14.352

$$$$
ligand
 OpenBabel11021811483D
libRbt.so/2013.1/901 2013/11/27
 27 29  0  0  0  0  0  0  0  0999 V2000
   54.3096   47.2508   18.8022 N   0  0  0  0  0  0  0  0  0  0  0  0
   55.5474   47.1715   19.5764 C   0  0  2  0  0  0  0  0  0  0  0  0
   56.1786   45.8256   19.3662 C   0  0  0  0  0  0  0  0  0  0  0  0
   56.6865   45.5493   18.2844 O   0  0  0  0  0  0  0  0  0  0  0  0
   55.2554   47.3594   21.0645 C   0  0  0  0  0  0  0  0  0  0  0  0
   54.5675   48.6975   21.2651 C   0  0  0  0  0  0  0  0  0  0  0  0
   55.3223   49.7247   22.5659 S   0  0  2  0  0  0  0  0  0  0  0  0
   55.0724   48.7766   24.0959 C   0  0  0  0  0  0  0  0  0  0  0  0
   53.9356   50.9195   23.0490 C   0  0  0  0  0  0  0  0  0  0  0  0
   52.6308   51.0034   22.1507 C   0  0  2  0  0  0  0  0  0  0  0  0
   52.7834   51.0660   20.7507 O   0  0  0  0  0  0  0  0  0  0  0  0
   51.5155   51.8971   22.5203 C   0  0  1  0  0  0  0  0  0  0  0  0
   51.5751   52.3189   23.8834 O   0  0  0  0  0  0  0  0  0  0  0  0
   51.8257   53.0354   21.4371 C   0  0  2  0  0  0  0  0  0  0  0  0
   50.7671   53.9417   21.3537 O   0  0  0  0  0  0  0  0  0  0  0  0
   51.9644   52.1831   20.1772 C   0  0  1  0  0  0  0  0  0  0  0  0
   56.2206   45.0231   20.2899 O   0  0  0  0  0  0  0  0  0  0  0  0
   51.0504   54.4552   15.6902 N   0  0  0  0  0  0  0  0  0  0  0  0
   50.2164   54.0526   16.6527 C   0  0  0  0  0  0  0  0  0  0  0  0
   50.6721   53.4964   17.7713 N   0  0  0  0  0  0  0  0  0  0  0  0
   51.9755   53.2196   17.9353 C   0  0  0  0  0  0  0  0  0  0  0  0
   52.8951   53.5782   16.9160 C   0  0  0  0  0  0  0  0  0  0  0  0
   52.3769   54.2286   15.7618 C   0  0  0  0  0  0  0  0  0  0  0  0
   53.2077   54.6231   14.7328 N   0  0  0  0  0  0  0  0  0  0  0  0
   54.1155   53.1892   17.3249 N   0  0  0  0  0  0  0  0  0  0  0  0
   54.0190   52.6215   18.4974 C   0  0  0  0  0  0  0  0  0  0  0  0
   52.7232   52.6204   18.9321 N   0  0  0  0  0  0  0  0  0  0  0  0
  2  1  1  6  0  0  0
  2  3  1  0  0  0  0
  2  5  1  0  0  0  0
  3  4  1  0  0  0  0
  3 17  1  0  0  0  0
  5  6  1  0  0  0  0
  7  6  1  6  0  0  0
  7  8  1  0  0  0  0
  7  9  1  0  0  0  0
 10  9  1  1  0  0  0
 10 11  1  0  0  0  0
 10 12  1  0  0  0  0
 11 16  1  0  0  0  0
 12 13  1  1  0  0  0
 12 14  1  0  0  0  0
 14 15  1  6  0  0  0
 14 16  1  0  0  0  0
 16 27  1  6  0  0  0
 18 19  2  0  0  0  0
 18 23  1  0  0  0  0
 19 20  1  0  0  0  0
 20 21  2  0  0  0  0
 21 22  1  0  0  0  0
 21 27  1  0  0  0  0
 22 23  2  0  0  0  0
 22 25  1  0  0  0  0
 23 24  1  0  0  0  0
 25 26  2  0  0  0  0
 26 27  1  0  0  0  0
M  END
>  <CHROM.1>
70.77833745,-57.72167538,-129.87961574,-64.07028504,-11.09641966,-45.34193953
154.36165683,53.43588536,50.88910076,19.88579729,-0.58366818,1.00402622,-1.38365108

>  <Name>
ligand

>  <RI>
0

>  <Rbt.Current_Directory>
/home/itssahil/PROJECTS/Mol_Feturizer/New_Systems/rnas/3IQR

>  <Rbt.Executable>
rbdock ($Id: //depot/dev/client3/rdock/2013.1/src/exe/rbdock.cxx#4 $)

>  <Rbt.Library>
libRbt.so (2013.1, Build901 2013/11/27)

>  <Rbt.Parameter_File>
/export/apps/rDock/src/rDock_2013.1_src/data/scripts/dock_solv.prm

>  <Rbt.Receptor>
prm/blind_docking_80.prm

>  <SCORE>
-11.7544

>  <SCORE.INTER>
-12.6236

>  <SCORE.INTER.CONST>
1

>  <SCORE.INTER.POLAR>
0

>  <SCORE.INTER.ROT>
7

>  <SCORE.INTER.SOLV>
14.8527

>  <SCORE.INTER.VDW>
-21.6333

>  <SCORE.INTER.norm>
-0.467543

>  <SCORE.INTRA>
0.869242

>  <SCORE.INTRA.DIHEDRAL>
5.04716

>  <SCORE.INTRA.DIHEDRAL.0>
9.29433

>  <SCORE.INTRA.POLAR>
0

>  <SCORE.INTRA.POLAR.0>
0

>  <SCORE.INTRA.REPUL>
0

>  <SCORE.INTRA.REPUL.0>
0

>  <SCORE.INTRA.SOLV>
-1.0741

>  <SCORE.INTRA.SOLV.lig_0>
-48.5102

>  <SCORE.INTRA.VDW>
-1.11729

>  <SCORE.INTRA.VDW.0>
0.379549

>  <SCORE.INTRA.norm>
0.0321942

>  <SCORE.RESTR>
0

>  <SCORE.RESTR.CAVITY>
0

>  <SCORE.RESTR.norm>
0

>  <SCORE.SYSTEM>
0

>  <SCORE.SYSTEM.CONST>
0

>  <SCORE.SYSTEM.DIHEDRAL>
0

>  <SCORE.SYSTEM.SOLV>
0

>  <SCORE.SYSTEM.norm>
0

>  <SCORE.heavy>
27

>  <SCORE.norm>
-0.435348

>  <RMSD>
14.358

$$$$
ligand
 OpenBabel11021811483D
libRbt.so/2013.1/901 2013/11/27
 27 29  0  0  0  0  0  0  0  0999 V2000
   49.8090   54.4454   21.2891 N   0  0  0  0  0  0  0  0  0  0  0  0
   48.8206   53.9070   20.3558 C   0  0  2  0  0  0  0  0  0  0  0  0
   47.9285   52.9412   21.0807 C   0  0  0  0  0  0  0  0  0  0  0  0
   47.0087   52.3909   20.4844 O   0  0  0  0  0  0  0  0  0  0  0  0
   49.5172   53.1783   19.2073 C   0  0  0  0  0  0  0  0  0  0  0  0
   50.2098   54.2007   18.3248 C   0  0  0  0  0  0  0  0  0  0  0  0
   50.6347   53.5747   16.6683 S   0  0  2  0  0  0  0  0  0  0  0  0
   51.9921   52.4021   16.9599 C   0  0  0  0  0  0  0  0  0  0  0  0
   51.8545   54.8622   16.0062 C   0  0  0  0  0  0  0  0  0  0  0  0
   52.8400   55.5921   17.0124 C   0  0  2  0  0  0  0  0  0  0  0  0
   52.6829   56.9778   17.2182 O   0  0  0  0  0  0  0  0  0  0  0  0
   54.2875   55.3028   16.9954 C   0  0  1  0  0  0  0  0  0  0  0  0
   54.5992   54.0881   16.3122 O   0  0  0  0  0  0  0  0  0  0  0  0
   54.7341   56.6450   16.2440 C   0  0  2  0  0  0  0  0  0  0  0  0
   56.1202   56.8032   16.2944 O   0  0  0  0  0  0  0  0  0  0  0  0
   53.9973   57.6864   17.0841 C   0  0  1  0  0  0  0  0  0  0  0  0
   48.1485   52.6749   22.2553 O   0  0  0  0  0  0  0  0  0  0  0  0
   51.6719   61.9112   18.7796 N   0  0  0  0  0  0  0  0  0  0  0  0
   51.8169   60.7076   19.3404 C   0  0  0  0  0  0  0  0  0  0  0  0
   52.4913   59.7388   18.7281 N   0  0  0  0  0  0  0  0  0  0  0  0
   52.9620   59.8936   17.4804 C   0  0  0  0  0  0  0  0  0  0  0  0
   52.7841   61.1370   16.8205 C   0  0  0  0  0  0  0  0  0  0  0  0
   52.1129   62.1694   17.5327 C   0  0  0  0  0  0  0  0  0  0  0  0
   51.9138   63.4124   16.9666 N   0  0  0  0  0  0  0  0  0  0  0  0
   53.3365   61.0234   15.5999 N   0  0  0  0  0  0  0  0  0  0  0  0
   53.8282   59.8216   15.4570 C   0  0  0  0  0  0  0  0  0  0  0  0
   53.6375   59.0803   16.5894 N   0  0  0  0  0  0  0  0  0  0  0  0
  2  1  1  1  0  0  0
  2  3  1  0  0  0  0
  2  5  1  0  0  0  0
  3  4  1  0  0  0  0
  3 17  1  0  0  0  0
  5  6  1  0  0  0  0
  7  6  1  1  0  0  0
  7  8  1  0  0  0  0
  7  9  1  0  0  0  0
 10  9  1  6  0  0  0
 10 11  1  0  0  0  0
 10 12  1  0  0  0  0
 11 16  1  0  0  0  0
 12 13  1  6  0  0  0
 12 14  1  0  0  0  0
 14 15  1  1  0  0  0
 14 16  1  0  0  0  0
 16 27  1  6  0  0  0
 18 19  2  0  0  0  0
 18 23  1  0  0  0  0
 19 20  1  0  0  0  0
 20 21  2  0  0  0  0
 21 22  1  0  0  0  0
 21 27  1  0  0  0  0
 22 23  2  0  0  0  0
 22 25  1  0  0  0  0
 23 24  1  0  0  0  0
 25 26  2  0  0  0  0
 26 27  1  0  0  0  0
M  END
>  <CHROM.1>
178.62723619,-70.39252385,-161.98807509,-71.01981842,33.56258645,-114.02796805
68.23091587,51.83924571,56.62002622,17.85155077,2.18974660,-0.69880489,-3.05948030

>  <Name>
ligand

>  <RI>
0

>  <Rbt.Current_Directory>
/home/itssahil/PROJECTS/Mol_Feturizer/New_Systems/rnas/3IQR

>  <Rbt.Executable>
rbdock ($Id: //depot/dev/client3/rdock/2013.1/src/exe/rbdock.cxx#4 $)

>  <Rbt.Library>
libRbt.so (2013.1, Build901 2013/11/27)

>  <Rbt.Parameter_File>
/export/apps/rDock/src/rDock_2013.1_src/data/scripts/dock_solv.prm

>  <Rbt.Receptor>
prm/blind_docking_100.prm

>  <SCORE>
-17.7895

>  <SCORE.INTER>
-15.5431

>  <SCORE.INTER.CONST>
1

>  <SCORE.INTER.POLAR>
0

>  <SCORE.INTER.ROT>
7

>  <SCORE.INTER.SOLV>
12.2094

>  <SCORE.INTER.VDW>
-22.6985

>  <SCORE.INTER.norm>
-0.575669

>  <SCORE.INTRA>
-2.24639

>  <SCORE.INTRA.DIHEDRAL>
1.17022

>  <SCORE.INTRA.DIHEDRAL.0>
9.29433

>  <SCORE.INTRA.POLAR>
0

>  <SCORE.INTRA.POLAR.0>
0

>  <SCORE.INTRA.REPUL>
0

>  <SCORE.INTRA.REPUL.0>
0

>  <SCORE.INTRA.SOLV>
-0.987446

>  <SCORE.INTRA.SOLV.lig_0>
-48.5102

>  <SCORE.INTRA.VDW>
-2.33778

>  <SCORE.INTRA.VDW.0>
0.379549

>  <SCORE.INTRA.norm>
-0.0831996

>  <SCORE.RESTR>
0

>  <SCORE.RESTR.CAVITY>
0

>  <SCORE.RESTR.norm>
0

>  <SCORE.SYSTEM>
0

>  <SCORE.SYSTEM.CONST>
0

>  <SCORE.SYSTEM.DIHEDRAL>
0

>  <SCORE.SYSTEM.SOLV>
0

>  <SCORE.SYSTEM.norm>
0

>  <SCORE.heavy>
27

>  <SCORE.norm>
-0.658869

>  <RMSD>
14.385

$$$$
ligand
 OpenBabel11021811483D
libRbt.so/2013.1/901 2013/11/27
 27 29  0  0  0  0  0  0  0  0999 V2000
   54.4317   46.7735   19.2395 N   0  0  0  0  0  0  0  0  0  0  0  0
   55.4299   47.2691   20.1860 C   0  0  2  0  0  0  0  0  0  0  0  0
   56.6605   46.4132   20.1026 C   0  0  0  0  0  0  0  0  0  0  0  0
   57.5736   46.7251   19.3452 O   0  0  0  0  0  0  0  0  0  0  0  0
   54.8811   47.2174   21.6113 C   0  0  0  0  0  0  0  0  0  0  0  0
   55.7773   48.0464   22.5132 C   0  0  0  0  0  0  0  0  0  0  0  0
   55.8476   49.8091   22.0605 S   0  0  2  0  0  0  0  0  0  0  0  0
   56.8603   50.5725   23.3620 C   0  0  0  0  0  0  0  0  0  0  0  0
   54.2732   50.5278   22.8278 C   0  0  0  0  0  0  0  0  0  0  0  0
   52.9500   50.6121   21.9571 C   0  0  2  0  0  0  0  0  0  0  0  0
   53.0720   50.8503   20.5731 O   0  0  0  0  0  0  0  0  0  0  0  0
   51.7749   51.3643   22.4394 C   0  0  1  0  0  0  0  0  0  0  0  0
   51.8258   51.6268   23.8423 O   0  0  0  0  0  0  0  0  0  0  0  0
   51.9756   52.6429   21.4959 C   0  0  2  0  0  0  0  0  0  0  0  0
   50.8480   53.4652   21.5294 O   0  0  0  0  0  0  0  0  0  0  0  0
   52.1579   51.9580   20.1428 C   0  0  1  0  0  0  0  0  0  0  0  0
   56.7658   45.4282   20.8222 O   0  0  0  0  0  0  0  0  0  0  0  0
   51.0129   53.7795   15.5058 N   0  0  0  0  0  0  0  0  0  0  0  0
   50.2581   53.1463   16.4076 C   0  0  0  0  0  0  0  0  0  0  0  0
   50.7559   52.7733   17.5830 N   0  0  0  0  0  0  0  0  0  0  0  0
   52.0588   52.9210   17.8705 C   0  0  0  0  0  0  0  0  0  0  0  0
   52.9137   53.5386   16.9212 C   0  0  0  0  0  0  0  0  0  0  0  0
   52.3310   53.9810   15.7013 C   0  0  0  0  0  0  0  0  0  0  0  0
   53.0917   54.6048   14.7332 N   0  0  0  0  0  0  0  0  0  0  0  0
   54.1499   53.5564   17.4499 N   0  0  0  0  0  0  0  0  0  0  0  0
   54.1239   53.0000   18.6315 C   0  0  0  0  0  0  0  0  0  0  0  0
   52.8576   52.5975   18.9517 N   0  0  0  0  0  0  0  0  0  0  0  0
  2  1  1  6  0  0  0
  2  3  1  0  0  0  0
  2  5  1  0  0  0  0
  3  4  1  0  0  0  0
  3 17  1  0  0  0  0
  5  6  1  0  0  0  0
  7  6  1  1  0  0  0
  7  8  1  0  0  0  0
  7  9  1  0  0  0  0
 10  9  1  1  0  0  0
 10 11  1  0  0  0  0
 10 12  1  0  0  0  0
 11 16  1  0  0  0  0
 12 13  1  1  0  0  0
 12 14  1  0  0  0  0
 14 15  1  6  0  0  0
 14 16  1  0  0  0  0
 16 27  1  6  0  0  0
 18 19  2  0  0  0  0
 18 23  1  0  0  0  0
 19 20  1  0  0  0  0
 20 21  2  0  0  0  0
 21 22  1  0  0  0  0
 21 27  1  0  0  0  0
 22 23  2  0  0  0  0
 22 25  1  0  0  0  0
 23 24  1  0  0  0  0
 25 26  2  0  0  0  0
 26 27  1  0  0  0  0
M  END
>  <CHROM.1>
92.07739432,-165.87306266,61.79420432,175.51599640,-92.73003796,-33.40780673
137.27611612,53.72998491,50.81073027,19.97115487,-0.65688502,0.89849653,-1.41432401

>  <Name>
ligand

>  <RI>
0

>  <Rbt.Current_Directory>
/home/itssahil/PROJECTS/Mol_Feturizer/New_Systems/rnas/3IQR

>  <Rbt.Executable>
rbdock ($Id: //depot/dev/client3/rdock/2013.1/src/exe/rbdock.cxx#4 $)

>  <Rbt.Library>
libRbt.so (2013.1, Build901 2013/11/27)

>  <Rbt.Parameter_File>
/export/apps/rDock/src/rDock_2013.1_src/data/scripts/dock_solv.prm

>  <Rbt.Receptor>
prm/blind_docking_100.prm

>  <SCORE>
-13.6196

>  <SCORE.INTER>
-9.8353

>  <SCORE.INTER.CONST>
1

>  <SCORE.INTER.POLAR>
0

>  <SCORE.INTER.ROT>
7

>  <SCORE.INTER.SOLV>
14.2495

>  <SCORE.INTER.VDW>
-19.5734

>  <SCORE.INTER.norm>
-0.364271

>  <SCORE.INTRA>
-3.78429

>  <SCORE.INTRA.DIHEDRAL>
-0.913044

>  <SCORE.INTRA.DIHEDRAL.0>
9.29433

>  <SCORE.INTRA.POLAR>
0

>  <SCORE.INTRA.POLAR.0>
0

>  <SCORE.INTRA.REPUL>
0

>  <SCORE.INTRA.REPUL.0>
0

>  <SCORE.INTRA.SOLV>
-1.66571

>  <SCORE.INTRA.SOLV.lig_0>
-48.5102

>  <SCORE.INTRA.VDW>
-2.49491

>  <SCORE.INTRA.VDW.0>
0.379549

>  <SCORE.INTRA.norm>
-0.140159

>  <SCORE.RESTR>
0

>  <SCORE.RESTR.CAVITY>
0

>  <SCORE.RESTR.norm>
0

>  <SCORE.SYSTEM>
0

>  <SCORE.SYSTEM.CONST>
0

>  <SCORE.SYSTEM.DIHEDRAL>
0

>  <SCORE.SYSTEM.SOLV>
0

>  <SCORE.SYSTEM.norm>
0

>  <SCORE.heavy>
27

>  <SCORE.norm>
-0.504429

>  <RMSD>
14.426

$$$$
ligand
 OpenBabel11021811483D
libRbt.so/2013.1/901 2013/11/27
 27 29  0  0  0  0  0  0  0  0999 V2000
   54.0960   45.6093   18.7744 N   0  0  0  0  0  0  0  0  0  0  0  0
   55.0439   46.7118   18.6201 C   0  0  2  0  0  0  0  0  0  0  0  0
   56.0073   46.3867   17.5155 C   0  0  0  0  0  0  0  0  0  0  0  0
   56.6460   45.3401   17.5478 O   0  0  0  0  0  0  0  0  0  0  0  0
   55.8241   46.9259   19.9165 C   0  0  0  0  0  0  0  0  0  0  0  0
   55.0170   47.8277   20.8326 C   0  0  0  0  0  0  0  0  0  0  0  0
   55.9441   48.4214   22.2833 S   0  0  2  0  0  0  0  0  0  0  0  0
   55.6535   47.1580   23.5567 C   0  0  0  0  0  0  0  0  0  0  0  0
   54.7297   49.5972   23.1358 C   0  0  0  0  0  0  0  0  0  0  0  0
   53.3494   49.9370   22.4318 C   0  0  2  0  0  0  0  0  0  0  0  0
   53.3515   50.2112   21.0491 O   0  0  0  0  0  0  0  0  0  0  0  0
   52.3817   50.8520   23.0687 C   0  0  1  0  0  0  0  0  0  0  0  0
   52.6360   51.0416   24.4611 O   0  0  0  0  0  0  0  0  0  0  0  0
   52.6874   52.1192   22.1380 C   0  0  2  0  0  0  0  0  0  0  0  0
   51.7269   53.1147   22.3254 O   0  0  0  0  0  0  0  0  0  0  0  0
   52.5954   51.4725   20.7572 C   0  0  1  0  0  0  0  0  0  0  0  0
   56.1213   47.1493   16.5644 O   0  0  0  0  0  0  0  0  0  0  0  0
   51.2630   53.2303   16.1457 N   0  0  0  0  0  0  0  0  0  0  0  0
   50.5326   52.6664   17.1114 C   0  0  0  0  0  0  0  0  0  0  0  0
   51.0821   52.2974   18.2648 N   0  0  0  0  0  0  0  0  0  0  0  0
   52.4068   52.3776   18.4668 C   0  0  0  0  0  0  0  0  0  0  0  0
   53.2331   52.9189   17.4482 C   0  0  0  0  0  0  0  0  0  0  0  0
   52.6000   53.3608   16.2534 C   0  0  0  0  0  0  0  0  0  0  0  0
   53.3316   53.9132   15.2216 N   0  0  0  0  0  0  0  0  0  0  0  0
   54.4993   52.8797   17.8989 N   0  0  0  0  0  0  0  0  0  0  0  0
   54.5170   52.3581   19.0964 C   0  0  0  0  0  0  0  0  0  0  0  0
   53.2530   52.0380   19.5062 N   0  0  0  0  0  0  0  0  0  0  0  0
  2  1  1  1  0  0  0
  2  3  1  0  0  0  0
  2  5  1  0  0  0  0
  3  4  1  0  0  0  0
  3 17  1  0  0  0  0
  5  6  1  0  0  0  0
  7  6  1  6  0  0  0
  7  8  1  0  0  0  0
  7  9  1  0  0  0  0
 10  9  1  1  0  0  0
 10 11  1  0  0  0  0
 10 12  1  0  0  0  0
 11 16  1  0  0  0  0
 12 13  1  1  0  0  0
 12 14  1  0  0  0  0
 14 15  1  6  0  0  0
 14 16  1  0  0  0  0
 16 27  1  6  0  0  0
 18 19  2  0  0  0  0
 18 23  1  0  0  0  0
 19 20  1  0  0  0  0
 20 21  2  0  0  0  0
 21 22  1  0  0  0  0
 21 27  1  0  0  0  0
 22 23  2  0  0  0  0
 22 25  1  0  0  0  0
 23 24  1  0  0  0  0
 25 26  2  0  0  0  0
 26 27  1  0  0  0  0
M  END
>  <CHROM.1>
-54.60635590,-85.29383936,-169.34056364,-89.60285090,-6.02853407,-43.51430229
129.27474535,53.86287595,50.13296654,19.83473478,-0.43177753,1.04297098,-1.48116849

>  <Name>
ligand

>  <RI>
0

>  <Rbt.Current_Directory>
/home/itssahil/PROJECTS/Mol_Feturizer/New_Systems/rnas/3IQR

>  <Rbt.Executable>
rbdock ($Id: //depot/dev/client3/rdock/2013.1/src/exe/rbdock.cxx#4 $)

>  <Rbt.Library>
libRbt.so (2013.1, Build901 2013/11/27)

>  <Rbt.Parameter_File>
/export/apps/rDock/src/rDock_2013.1_src/data/scripts/dock_solv.prm

>  <Rbt.Receptor>
prm/blind_docking_80.prm

>  <SCORE>
-19.7702

>  <SCORE.INTER>
-17.9738

>  <SCORE.INTER.CONST>
1

>  <SCORE.INTER.POLAR>
0

>  <SCORE.INTER.ROT>
7

>  <SCORE.INTER.SOLV>
17.485

>  <SCORE.INTER.VDW>
-26.0776

>  <SCORE.INTER.norm>
-0.665697

>  <SCORE.INTRA>
-1.79639

>  <SCORE.INTRA.DIHEDRAL>
3.19261

>  <SCORE.INTRA.DIHEDRAL.0>
9.29433

>  <SCORE.INTRA.POLAR>
0

>  <SCORE.INTRA.POLAR.0>
0

>  <SCORE.INTRA.REPUL>
0

>  <SCORE.INTRA.REPUL.0>
0

>  <SCORE.INTRA.SOLV>
-1.34458

>  <SCORE.INTRA.SOLV.lig_0>
-48.5102

>  <SCORE.INTRA.VDW>
-2.72041

>  <SCORE.INTRA.VDW.0>
0.379549

>  <SCORE.INTRA.norm>
-0.0665331

>  <SCORE.RESTR>
0

>  <SCORE.RESTR.CAVITY>
0

>  <SCORE.RESTR.norm>
0

>  <SCORE.SYSTEM>
0

>  <SCORE.SYSTEM.CONST>
0

>  <SCORE.SYSTEM.DIHEDRAL>
0

>  <SCORE.SYSTEM.SOLV>
0

>  <SCORE.SYSTEM.norm>
0

>  <SCORE.heavy>
27

>  <SCORE.norm>
-0.73223

>  <RMSD>
14.566

$$$$
ligand
 OpenBabel11021811483D
libRbt.so/2013.1/901 2013/11/27
 27 29  0  0  0  0  0  0  0  0999 V2000
   57.4569   58.0682   17.5700 N   0  0  0  0  0  0  0  0  0  0  0  0
   56.7218   58.7927   16.5344 C   0  0  2  0  0  0  0  0  0  0  0  0
   56.1628   60.0587   17.1166 C   0  0  0  0  0  0  0  0  0  0  0  0
   55.9649   61.0301   16.3944 O   0  0  0  0  0  0  0  0  0  0  0  0
   55.5726   57.9374   16.0027 C   0  0  0  0  0  0  0  0  0  0  0  0
   56.1447   56.6731   15.3877 C   0  0  0  0  0  0  0  0  0  0  0  0
   54.8826   55.5494   14.7087 S   0  0  2  0  0  0  0  0  0  0  0  0
   53.9112   56.5876   13.5770 C   0  0  0  0  0  0  0  0  0  0  0  0
   53.4958   55.6094   15.9959 C   0  0  0  0  0  0  0  0  0  0  0  0
   52.1363   54.8423   15.7135 C   0  0  2  0  0  0  0  0  0  0  0  0
   51.0488   55.0629   16.5829 O   0  0  0  0  0  0  0  0  0  0  0  0
   52.1376   53.4111   15.3516 C   0  0  1  0  0  0  0  0  0  0  0  0
   53.4183   52.9537   14.9153 O   0  0  0  0  0  0  0  0  0  0  0  0
   51.6636   52.8605   16.7790 C   0  0  2  0  0  0  0  0  0  0  0  0
   51.3146   51.5112   16.6984 O   0  0  0  0  0  0  0  0  0  0  0  0
   50.4561   53.7611   17.0319 C   0  0  1  0  0  0  0  0  0  0  0  0
   55.8676   60.1030   18.3040 O   0  0  0  0  0  0  0  0  0  0  0  0
   51.0355   52.1986   21.8645 N   0  0  0  0  0  0  0  0  0  0  0  0
   51.5755   51.7482   20.7289 C   0  0  0  0  0  0  0  0  0  0  0  0
   51.3052   52.3243   19.5613 N   0  0  0  0  0  0  0  0  0  0  0  0
   50.4001   53.3106   19.4598 C   0  0  0  0  0  0  0  0  0  0  0  0
   49.7576   53.7867   20.6319 C   0  0  0  0  0  0  0  0  0  0  0  0
   50.1203   53.1878   21.8701 C   0  0  0  0  0  0  0  0  0  0  0  0
   49.5524   53.6049   23.0569 N   0  0  0  0  0  0  0  0  0  0  0  0
   48.9073   54.7574   20.2542 N   0  0  0  0  0  0  0  0  0  0  0  0
   48.9710   54.9093   18.9584 C   0  0  0  0  0  0  0  0  0  0  0  0
   49.8841   54.0512   18.4125 N   0  0  0  0  0  0  0  0  0  0  0  0
  2  1  1  1  0  0  0
  2  3  1  0  0  0  0
  2  5  1  0  0  0  0
  3  4  1  0  0  0  0
  3 17  1  0  0  0  0
  5  6  1  0  0  0  0
  7  6  1  1  0  0  0
  7  8  1  0  0  0  0
  7  9  1  0  0  0  0
 10  9  1  1  0  0  0
 10 11  1  0  0  0  0
 10 12  1  0  0  0  0
 11 16  1  0  0  0  0
 12 13  1  1  0  0  0
 12 14  1  0  0  0  0
 14 15  1  6  0  0  0
 14 16  1  0  0  0  0
 16 27  1  1  0  0  0
 18 19  2  0  0  0  0
 18 23  1  0  0  0  0
 19 20  1  0  0  0  0
 20 21  2  0  0  0  0
 21 22  1  0  0  0  0
 21 27  1  0  0  0  0
 22 23  2  0  0  0  0
 22 25  1  0  0  0  0
 23 24  1  0  0  0  0
 25 26  2  0  0  0  0
 26 27  1  0  0  0  0
M  END
>  <CHROM.1>
152.55567507,-61.18409655,179.97134839,53.56953097,174.99482766,-170.56115145
-119.85492354,52.76468864,55.20989860,17.53166333,-0.09411291,0.86005029
1.04426094

>  <Name>
ligand

>  <RI>
0

>  <Rbt.Current_Directory>
/home/itssahil/PROJECTS/Mol_Feturizer/New_Systems/rnas/3IQR

>  <Rbt.Executable>
rbdock ($Id: //depot/dev/client3/rdock/2013.1/src/exe/rbdock.cxx#4 $)

>  <Rbt.Library>
libRbt.so (2013.1, Build901 2013/11/27)

>  <Rbt.Parameter_File>
/export/apps/rDock/src/rDock_2013.1_src/data/scripts/dock_solv.prm

>  <Rbt.Receptor>
prm/blind_docking_100.prm

>  <SCORE>
-19.6208

>  <SCORE.INTER>
-15.2377

>  <SCORE.INTER.CONST>
1

>  <SCORE.INTER.POLAR>
0

>  <SCORE.INTER.ROT>
7

>  <SCORE.INTER.SOLV>
10.2798

>  <SCORE.INTER.VDW>
-21.8517

>  <SCORE.INTER.norm>
-0.56436

>  <SCORE.INTRA>
-4.38309

>  <SCORE.INTRA.DIHEDRAL>
-5.00397

>  <SCORE.INTRA.DIHEDRAL.0>
9.29433

>  <SCORE.INTRA.POLAR>
0

>  <SCORE.INTRA.POLAR.0>
0

>  <SCORE.INTRA.REPUL>
0

>  <SCORE.INTRA.REPUL.0>
0

>  <SCORE.INTRA.SOLV>
-0.763354

>  <SCORE.INTRA.SOLV.lig_0>
-48.5102

>  <SCORE.INTRA.VDW>
-1.49943

>  <SCORE.INTRA.VDW.0>
0.379549

>  <SCORE.INTRA.norm>
-0.162337

>  <SCORE.RESTR>
0

>  <SCORE.RESTR.CAVITY>
0

>  <SCORE.RESTR.norm>
0

>  <SCORE.SYSTEM>
0

>  <SCORE.SYSTEM.CONST>
0

>  <SCORE.SYSTEM.DIHEDRAL>
0

>  <SCORE.SYSTEM.SOLV>
0

>  <SCORE.SYSTEM.norm>
0

>  <SCORE.heavy>
27

>  <SCORE.norm>
-0.726696

>  <RMSD>
14.894

$$$$
ligand
 OpenBabel11021811483D
libRbt.so/2013.1/901 2013/11/27
 27 29  0  0  0  0  0  0  0  0999 V2000
   53.4726   40.7730   33.9549 N   0  0  0  0  0  0  0  0  0  0  0  0
   54.5726   41.7318   33.8627 C   0  0  2  0  0  0  0  0  0  0  0  0
   54.5691   42.3612   32.4997 C   0  0  0  0  0  0  0  0  0  0  0  0
   54.5288   41.6541   31.4983 O   0  0  0  0  0  0  0  0  0  0  0  0
   55.9104   41.0272   34.0841 C   0  0  0  0  0  0  0  0  0  0  0  0
   55.9402   40.4603   35.4918 C   0  0  0  0  0  0  0  0  0  0  0  0
   55.9160   41.7306   36.7966 S   0  0  2  0  0  0  0  0  0  0  0  0
   55.8903   40.7867   38.3493 C   0  0  0  0  0  0  0  0  0  0  0  0
   54.0771   42.1395   36.9844 C   0  0  0  0  0  0  0  0  0  0  0  0
   53.6156   43.6567   37.0197 C   0  0  2  0  0  0  0  0  0  0  0  0
   52.2406   43.9363   37.1552 O   0  0  0  0  0  0  0  0  0  0  0  0
   54.1822   44.6408   36.0763 C   0  0  1  0  0  0  0  0  0  0  0  0
   55.3922   44.1880   35.4677 O   0  0  0  0  0  0  0  0  0  0  0  0
   52.9121   44.7144   35.1032 C   0  0  2  0  0  0  0  0  0  0  0  0
   53.0326   45.7817   34.2114 O   0  0  0  0  0  0  0  0  0  0  0  0
   51.7974   44.9312   36.1249 C   0  0  1  0  0  0  0  0  0  0  0  0
   54.5646   43.5810   32.3936 O   0  0  0  0  0  0  0  0  0  0  0  0
   48.8513   43.0236   32.4083 N   0  0  0  0  0  0  0  0  0  0  0  0
   50.1485   43.3420   32.4197 C   0  0  0  0  0  0  0  0  0  0  0  0
   50.7339   43.8088   33.5187 N   0  0  0  0  0  0  0  0  0  0  0  0
   50.0273   44.0793   34.6276 C   0  0  0  0  0  0  0  0  0  0  0  0
   48.6344   43.8099   34.6464 C   0  0  0  0  0  0  0  0  0  0  0  0
   48.0566   43.2518   33.4724 C   0  0  0  0  0  0  0  0  0  0  0  0
   46.7117   42.9467   33.4158 N   0  0  0  0  0  0  0  0  0  0  0  0
   48.1744   44.1720   35.8569 N   0  0  0  0  0  0  0  0  0  0  0  0
   49.1608   44.6424   36.5724 C   0  0  0  0  0  0  0  0  0  0  0  0
   50.3334   44.6005   35.8712 N   0  0  0  0  0  0  0  0  0  0  0  0
  2  1  1  6  0  0  0
  2  3  1  0  0  0  0
  2  5  1  0  0  0  0
  3  4  1  0  0  0  0
  3 17  1  0  0  0  0
  5  6  1  0  0  0  0
  7  6  1  6  0  0  0
  7  8  1  0  0  0  0
  7  9  1  0  0  0  0
 10  9  1  6  0  0  0
 10 11  1  0  0  0  0
 10 12  1  0  0  0  0
 11 16  1  0  0  0  0
 12 13  1  6  0  0  0
 12 14  1  0  0  0  0
 14 15  1  6  0  0  0
 14 16  1  0  0  0  0
 16 27  1  6  0  0  0
 18 19  2  0  0  0  0
 18 23  1  0  0  0  0
 19 20  1  0  0  0  0
 20 21  2  0  0  0  0
 21 22  1  0  0  0  0
 21 27  1  0  0  0  0
 22 23  2  0  0  0  0
 22 25  1  0  0  0  0
 23 24  1  0  0  0  0
 25 26  2  0  0  0  0
 26 27  1  0  0  0  0
M  END
>  <CHROM.1>
-50.84279882,-63.13642978,-65.41328049,177.79603420,-132.46690773,179.76578138
-111.69354342,52.62100756,43.09787530,34.90796853,-0.12175391,0.33189882
-1.83816429

>  <Name>
ligand

>  <RI>
0

>  <Rbt.Current_Directory>
/home/itssahil/PROJECTS/Mol_Feturizer/New_Systems/rnas/3IQR

>  <Rbt.Executable>
rbdock ($Id: //depot/dev/client3/rdock/2013.1/src/exe/rbdock.cxx#4 $)

>  <Rbt.Library>
libRbt.so (2013.1, Build901 2013/11/27)

>  <Rbt.Parameter_File>
/export/apps/rDock/src/rDock_2013.1_src/data/scripts/dock_solv.prm

>  <Rbt.Receptor>
prm/blind_docking_80.prm

>  <SCORE>
-10.4444

>  <SCORE.INTER>
-6.8821

>  <SCORE.INTER.CONST>
1

>  <SCORE.INTER.POLAR>
0

>  <SCORE.INTER.ROT>
7

>  <SCORE.INTER.SOLV>
7.66304

>  <SCORE.INTER.VDW>
-15.4091

>  <SCORE.INTER.norm>
-0.254892

>  <SCORE.INTRA>
-3.56229

>  <SCORE.INTRA.DIHEDRAL>
-0.528378

>  <SCORE.INTRA.DIHEDRAL.0>
9.29433

>  <SCORE.INTRA.POLAR>
0

>  <SCORE.INTRA.POLAR.0>
0

>  <SCORE.INTRA.REPUL>
0

>  <SCORE.INTRA.REPUL.0>
0

>  <SCORE.INTRA.SOLV>
2.15717

>  <SCORE.INTRA.SOLV.lig_0>
-48.5102

>  <SCORE.INTRA.VDW>
-4.37669

>  <SCORE.INTRA.VDW.0>
0.379549

>  <SCORE.INTRA.norm>
-0.131937

>  <SCORE.RESTR>
0

>  <SCORE.RESTR.CAVITY>
0

>  <SCORE.RESTR.norm>
0

>  <SCORE.SYSTEM>
0

>  <SCORE.SYSTEM.CONST>
0

>  <SCORE.SYSTEM.DIHEDRAL>
0

>  <SCORE.SYSTEM.SOLV>
0

>  <SCORE.SYSTEM.norm>
0

>  <SCORE.heavy>
27

>  <SCORE.norm>
-0.386829

>  <RMSD>
14.994

$$$$
ligand
 OpenBabel11021811483D
libRbt.so/2013.1/901 2013/11/27
 27 29  0  0  0  0  0  0  0  0999 V2000
   55.0188   43.2498   33.3303 N   0  0  0  0  0  0  0  0  0  0  0  0
   54.9945   41.8044   33.1109 C   0  0  2  0  0  0  0  0  0  0  0  0
   55.5408   41.5007   31.7458 C   0  0  0  0  0  0  0  0  0  0  0  0
   55.3637   42.2916   30.8252 O   0  0  0  0  0  0  0  0  0  0  0  0
   53.5631   41.2776   33.2048 C   0  0  0  0  0  0  0  0  0  0  0  0
   53.0387   41.5271   34.6071 C   0  0  0  0  0  0  0  0  0  0  0  0
   53.9943   40.6867   35.9099 S   0  0  2  0  0  0  0  0  0  0  0  0
   53.4748   38.9485   35.8049 C   0  0  0  0  0  0  0  0  0  0  0  0
   52.9412   40.9348   37.4634 C   0  0  0  0  0  0  0  0  0  0  0  0
   52.5451   42.4044   37.9101 C   0  0  2  0  0  0  0  0  0  0  0  0
   51.2263   42.8439   37.6757 O   0  0  0  0  0  0  0  0  0  0  0  0
   53.4493   43.5422   37.6513 C   0  0  1  0  0  0  0  0  0  0  0  0
   54.7844   43.1296   37.3566 O   0  0  0  0  0  0  0  0  0  0  0  0
   52.6315   44.1491   36.4152 C   0  0  2  0  0  0  0  0  0  0  0  0
   53.1049   45.4200   36.0840 O   0  0  0  0  0  0  0  0  0  0  0  0
   51.2253   44.1874   37.0104 C   0  0  1  0  0  0  0  0  0  0  0  0
   56.1973   40.4829   31.5666 O   0  0  0  0  0  0  0  0  0  0  0  0
   49.7251   43.3182   32.2016 N   0  0  0  0  0  0  0  0  0  0  0  0
   50.9444   43.3443   32.7463 C   0  0  0  0  0  0  0  0  0  0  0  0
   51.1139   43.5690   34.0459 N   0  0  0  0  0  0  0  0  0  0  0  0
   50.0804   43.8831   34.8430 C   0  0  0  0  0  0  0  0  0  0  0  0
   48.7707   43.9227   34.2987 C   0  0  0  0  0  0  0  0  0  0  0  0
   48.6228   43.6145   32.9179 C   0  0  0  0  0  0  0  0  0  0  0  0
   47.3805   43.6160   32.3165 N   0  0  0  0  0  0  0  0  0  0  0  0
   47.9347   44.2628   35.2954 N   0  0  0  0  0  0  0  0  0  0  0  0
   48.6192   44.4392   36.3939 C   0  0  0  0  0  0  0  0  0  0  0  0
   49.9493   44.2081   36.1805 N   0  0  0  0  0  0  0  0  0  0  0  0
  2  1  1  6  0  0  0
  2  3  1  0  0  0  0
  2  5  1  0  0  0  0
  3  4  1  0  0  0  0
  3 17  1  0  0  0  0
  5  6  1  0  0  0  0
  7  6  1  6  0  0  0
  7  8  1  0  0  0  0
  7  9  1  0  0  0  0
 10  9  1  6  0  0  0
 10 11  1  0  0  0  0
 10 12  1  0  0  0  0
 11 16  1  0  0  0  0
 12 13  1  6  0  0  0
 12 14  1  0  0  0  0
 14 15  1  1  0  0  0
 14 16  1  0  0  0  0
 16 27  1  6  0  0  0
 18 19  2  0  0  0  0
 18 23  1  0  0  0  0
 19 20  1  0  0  0  0
 20 21  2  0  0  0  0
 21 22  1  0  0  0  0
 21 27  1  0  0  0  0
 22 23  2  0  0  0  0
 22 25  1  0  0  0  0
 23 24  1  0  0  0  0
 25 26  2  0  0  0  0
 26 27  1  0  0  0  0
M  END
>  <CHROM.1>
-32.78955336,-62.64214302,-61.03789997,-76.09936049,-56.08150654,104.44336005
-96.98716386,52.26689896,42.70189188,34.83625309,0.25148378,0.42277629,-1.64146614

>  <Name>
ligand

>  <RI>
0

>  <Rbt.Current_Directory>
/home/itssahil/PROJECTS/Mol_Feturizer/New_Systems/rnas/3IQR

>  <Rbt.Executable>
rbdock ($Id: //depot/dev/client3/rdock/2013.1/src/exe/rbdock.cxx#4 $)

>  <Rbt.Library>
libRbt.so (2013.1, Build901 2013/11/27)

>  <Rbt.Parameter_File>
/export/apps/rDock/src/rDock_2013.1_src/data/scripts/dock_solv.prm

>  <Rbt.Receptor>
prm/blind_docking_80.prm

>  <SCORE>
-13.7661

>  <SCORE.INTER>
-9.5292

>  <SCORE.INTER.CONST>
1

>  <SCORE.INTER.POLAR>
0

>  <SCORE.INTER.ROT>
7

>  <SCORE.INTER.SOLV>
7.65572

>  <SCORE.INTER.VDW>
-17.1714

>  <SCORE.INTER.norm>
-0.352933

>  <SCORE.INTRA>
-4.23692

>  <SCORE.INTRA.DIHEDRAL>
-1.39528

>  <SCORE.INTRA.DIHEDRAL.0>
9.29433

>  <SCORE.INTRA.POLAR>
0

>  <SCORE.INTRA.POLAR.0>
0

>  <SCORE.INTRA.REPUL>
0

>  <SCORE.INTRA.REPUL.0>
0

>  <SCORE.INTRA.SOLV>
1.00092

>  <SCORE.INTRA.SOLV.lig_0>
-48.5102

>  <SCORE.INTRA.VDW>
-4.03973

>  <SCORE.INTRA.VDW.0>
0.379549

>  <SCORE.INTRA.norm>
-0.156923

>  <SCORE.RESTR>
0

>  <SCORE.RESTR.CAVITY>
0

>  <SCORE.RESTR.norm>
0

>  <SCORE.SYSTEM>
0

>  <SCORE.SYSTEM.CONST>
0

>  <SCORE.SYSTEM.DIHEDRAL>
0

>  <SCORE.SYSTEM.SOLV>
0

>  <SCORE.SYSTEM.norm>
0

>  <SCORE.heavy>
27

>  <SCORE.norm>
-0.509856

>  <RMSD>
15.076

$$$$
ligand
 OpenBabel11021811483D
libRbt.so/2013.1/901 2013/11/27
 27 29  0  0  0  0  0  0  0  0999 V2000
   53.6165   65.3939   13.9380 N   0  0  0  0  0  0  0  0  0  0  0  0
   52.2997   64.8336   14.2376 C   0  0  2  0  0  0  0  0  0  0  0  0
   51.3079   65.9507   14.3883 C   0  0  0  0  0  0  0  0  0  0  0  0
   51.6398   66.9942   14.9409 O   0  0  0  0  0  0  0  0  0  0  0  0
   52.3481   64.0300   15.5365 C   0  0  0  0  0  0  0  0  0  0  0  0
   51.0721   63.2171   15.6592 C   0  0  0  0  0  0  0  0  0  0  0  0
   50.8643   62.4152   17.2811 S   0  0  2  0  0  0  0  0  0  0  0  0
   51.2396   63.7228   18.4860 C   0  0  0  0  0  0  0  0  0  0  0  0
   52.5468   61.6064   17.5956 C   0  0  0  0  0  0  0  0  0  0  0  0
   52.7795   60.7861   18.9332 C   0  0  2  0  0  0  0  0  0  0  0  0
   52.5353   61.4278   20.1644 O   0  0  0  0  0  0  0  0  0  0  0  0
   53.9752   59.9365   19.1001 C   0  0  1  0  0  0  0  0  0  0  0  0
   54.6198   59.6420   17.8602 O   0  0  0  0  0  0  0  0  0  0  0  0
   54.7740   60.9319   20.0677 C   0  0  2  0  0  0  0  0  0  0  0  0
   55.8816   60.2941   20.6294 O   0  0  0  0  0  0  0  0  0  0  0  0
   53.6908   61.2368   21.1005 C   0  0  1  0  0  0  0  0  0  0  0  0
   50.1823   65.8311   13.9217 O   0  0  0  0  0  0  0  0  0  0  0  0
   53.8917   66.3234   20.6344 N   0  0  0  0  0  0  0  0  0  0  0  0
   54.0115   65.3560   19.7213 C   0  0  0  0  0  0  0  0  0  0  0  0
   53.9002   64.0741   20.0568 N   0  0  0  0  0  0  0  0  0  0  0  0
   53.7695   63.6941   21.3377 C   0  0  0  0  0  0  0  0  0  0  0  0
   53.6932   64.6841   22.3513 C   0  0  0  0  0  0  0  0  0  0  0  0
   53.7526   66.0463   21.9459 C   0  0  0  0  0  0  0  0  0  0  0  0
   53.6696   67.0689   22.8692 N   0  0  0  0  0  0  0  0  0  0  0  0
   53.5718   64.0428   23.5269 N   0  0  0  0  0  0  0  0  0  0  0  0
   53.5736   62.7531   23.3191 C   0  0  0  0  0  0  0  0  0  0  0  0
   53.6818   62.4756   21.9852 N   0  0  0  0  0  0  0  0  0  0  0  0
  2  1  1  1  0  0  0
  2  3  1  0  0  0  0
  2  5  1  0  0  0  0
  3  4  1  0  0  0  0
  3 17  1  0  0  0  0
  5  6  1  0  0  0  0
  7  6  1  6  0  0  0
  7  8  1  0  0  0  0
  7  9  1  0  0  0  0
 10  9  1  6  0  0  0
 10 11  1  0  0  0  0
 10 12  1  0  0  0  0
 11 16  1  0  0  0  0
 12 13  1  6  0  0  0
 12 14  1  0  0  0  0
 14 15  1  1  0  0  0
 14 16  1  0  0  0  0
 16 27  1  6  0  0  0
 18 19  2  0  0  0  0
 18 23  1  0  0  0  0
 19 20  1  0  0  0  0
 20 21  2  0  0  0  0
 21 22  1  0  0  0  0
 21 27  1  0  0  0  0
 22 23  2  0  0  0  0
 22 25  1  0  0  0  0
 23 24  1  0  0  0  0
 25 26  2  0  0  0  0
 26 27  1  0  0  0  0
M  END
>  <CHROM.1>
-38.21599142,-167.57531018,-170.68115232,46.80731495,-179.80158925,-55.21608308
-57.21678481,52.94633612,63.42955118,18.78749056,2.97432114,1.23634162,-2.67693242

>  <Name>
ligand

>  <RI>
0

>  <Rbt.Current_Directory>
/home/itssahil/PROJECTS/Mol_Feturizer/New_Systems/rnas/3IQR

>  <Rbt.Executable>
rbdock ($Id: //depot/dev/client3/rdock/2013.1/src/exe/rbdock.cxx#4 $)

>  <Rbt.Library>
libRbt.so (2013.1, Build901 2013/11/27)

>  <Rbt.Parameter_File>
/export/apps/rDock/src/rDock_2013.1_src/data/scripts/dock_solv.prm

>  <Rbt.Receptor>
prm/blind_docking_100.prm

>  <SCORE>
-19.035

>  <SCORE.INTER>
-13.445

>  <SCORE.INTER.CONST>
1

>  <SCORE.INTER.POLAR>
0

>  <SCORE.INTER.ROT>
7

>  <SCORE.INTER.SOLV>
8.41737

>  <SCORE.INTER.VDW>
-20.0358

>  <SCORE.INTER.norm>
-0.497961

>  <SCORE.INTRA>
-5.59005

>  <SCORE.INTRA.DIHEDRAL>
-4.07013

>  <SCORE.INTRA.DIHEDRAL.0>
9.29433

>  <SCORE.INTRA.POLAR>
0

>  <SCORE.INTRA.POLAR.0>
0

>  <SCORE.INTRA.REPUL>
0

>  <SCORE.INTRA.REPUL.0>
0

>  <SCORE.INTRA.SOLV>
-1.82032

>  <SCORE.INTRA.SOLV.lig_0>
-48.5102

>  <SCORE.INTRA.VDW>
-2.64483

>  <SCORE.INTRA.VDW.0>
0.379549

>  <SCORE.INTRA.norm>
-0.207039

>  <SCORE.RESTR>
0

>  <SCORE.RESTR.CAVITY>
0

>  <SCORE.RESTR.norm>
0

>  <SCORE.SYSTEM>
0

>  <SCORE.SYSTEM.CONST>
0

>  <SCORE.SYSTEM.DIHEDRAL>
0

>  <SCORE.SYSTEM.SOLV>
0

>  <SCORE.SYSTEM.norm>
0

>  <SCORE.heavy>
27

>  <SCORE.norm>
-0.705

>  <RMSD>
15.089

$$$$
ligand
 OpenBabel11021811483D
libRbt.so/2013.1/901 2013/11/27
 27 29  0  0  0  0  0  0  0  0999 V2000
   53.9605   51.6773   20.3434 N   0  0  0  0  0  0  0  0  0  0  0  0
   52.7638   52.1968   21.0035 C   0  0  2  0  0  0  0  0  0  0  0  0
   52.2817   51.1971   22.0147 C   0  0  0  0  0  0  0  0  0  0  0  0
   52.8605   50.1228   22.1383 O   0  0  0  0  0  0  0  0  0  0  0  0
   51.6575   52.4439   19.9787 C   0  0  0  0  0  0  0  0  0  0  0  0
   52.1836   53.3768   18.9031 C   0  0  0  0  0  0  0  0  0  0  0  0
   50.9243   53.8837   17.6891 S   0  0  2  0  0  0  0  0  0  0  0  0
   50.4638   52.3434   16.8419 C   0  0  0  0  0  0  0  0  0  0  0  0
   51.9456   54.4321   16.1924 C   0  0  0  0  0  0  0  0  0  0  0  0
   53.3375   55.1574   16.4219 C   0  0  2  0  0  0  0  0  0  0  0  0
   53.3820   56.2613   17.2975 O   0  0  0  0  0  0  0  0  0  0  0  0
   54.2332   55.4504   15.2856 C   0  0  1  0  0  0  0  0  0  0  0  0
   53.9107   54.6918   14.1194 O   0  0  0  0  0  0  0  0  0  0  0  0
   53.9089   57.0163   15.1953 C   0  0  2  0  0  0  0  0  0  0  0  0
   54.8130   57.6615   14.3496 O   0  0  0  0  0  0  0  0  0  0  0  0
   54.0902   57.4176   16.6579 C   0  0  1  0  0  0  0  0  0  0  0  0
   51.3366   51.4753   22.7416 O   0  0  0  0  0  0  0  0  0  0  0  0
   53.0054   62.2580   15.4233 N   0  0  0  0  0  0  0  0  0  0  0  0
   53.6686   61.3120   14.7530 C   0  0  0  0  0  0  0  0  0  0  0  0
   53.8187   60.0894   15.2539 N   0  0  0  0  0  0  0  0  0  0  0  0
   53.4049   59.7849   16.4942 C   0  0  0  0  0  0  0  0  0  0  0  0
   52.7435   60.7736   17.2678 C   0  0  0  0  0  0  0  0  0  0  0  0
   52.5459   62.0506   16.6730 C   0  0  0  0  0  0  0  0  0  0  0  0
   51.8977   63.0612   17.3538 N   0  0  0  0  0  0  0  0  0  0  0  0
   52.4438   60.2170   18.4545 N   0  0  0  0  0  0  0  0  0  0  0  0
   52.8687   58.9819   18.4735 C   0  0  0  0  0  0  0  0  0  0  0  0
   53.4612   58.6532   17.2865 N   0  0  0  0  0  0  0  0  0  0  0  0
  2  1  1  6  0  0  0
  2  3  1  0  0  0  0
  2  5  1  0  0  0  0
  3  4  1  0  0  0  0
  3 17  1  0  0  0  0
  5  6  1  0  0  0  0
  7  6  1  1  0  0  0
  7  8  1  0  0  0  0
  7  9  1  0  0  0  0
 10  9  1  6  0  0  0
 10 11  1  0  0  0  0
 10 12  1  0  0  0  0
 11 16  1  0  0  0  0
 12 13  1  6  0  0  0
 12 14  1  0  0  0  0
 14 15  1  6  0  0  0
 14 16  1  0  0  0  0
 16 27  1  6  0  0  0
 18 19  2  0  0  0  0
 18 23  1  0  0  0  0
 19 20  1  0  0  0  0
 20 21  2  0  0  0  0
 21 22  1  0  0  0  0
 21 27  1  0  0  0  0
 22 23  2  0  0  0  0
 22 25  1  0  0  0  0
 23 24  1  0  0  0  0
 25 26  2  0  0  0  0
 26 27  1  0  0  0  0
M  END
>  <CHROM.1>
-2.42394904,-55.88332985,-174.74448385,-64.63713355,-35.26342901,-51.11314724
-149.10649515,52.78706138,56.18668531,17.60279438,2.03030351,-1.32196938
3.13187552

>  <Name>
ligand

>  <RI>
0

>  <Rbt.Current_Directory>
/home/itssahil/PROJECTS/Mol_Feturizer/New_Systems/rnas/3IQR

>  <Rbt.Executable>
rbdock ($Id: //depot/dev/client3/rdock/2013.1/src/exe/rbdock.cxx#4 $)

>  <Rbt.Library>
libRbt.so (2013.1, Build901 2013/11/27)

>  <Rbt.Parameter_File>
/export/apps/rDock/src/rDock_2013.1_src/data/scripts/dock_solv.prm

>  <Rbt.Receptor>
prm/blind_docking_100.prm

>  <SCORE>
-15.0032

>  <SCORE.INTER>
-11.3527

>  <SCORE.INTER.CONST>
1

>  <SCORE.INTER.POLAR>
0

>  <SCORE.INTER.ROT>
7

>  <SCORE.INTER.SOLV>
9.37843

>  <SCORE.INTER.VDW>
-18.9613

>  <SCORE.INTER.norm>
-0.420472

>  <SCORE.INTRA>
-3.65046

>  <SCORE.INTRA.DIHEDRAL>
-2.18752

>  <SCORE.INTRA.DIHEDRAL.0>
9.29433

>  <SCORE.INTRA.POLAR>
0

>  <SCORE.INTRA.POLAR.0>
0

>  <SCORE.INTRA.REPUL>
0

>  <SCORE.INTRA.REPUL.0>
0

>  <SCORE.INTRA.SOLV>
-0.945499

>  <SCORE.INTRA.SOLV.lig_0>
-48.5102

>  <SCORE.INTRA.VDW>
-2.08395

>  <SCORE.INTRA.VDW.0>
0.379549

>  <SCORE.INTRA.norm>
-0.135202

>  <SCORE.RESTR>
0

>  <SCORE.RESTR.CAVITY>
0

>  <SCORE.RESTR.norm>
0

>  <SCORE.SYSTEM>
0

>  <SCORE.SYSTEM.CONST>
0

>  <SCORE.SYSTEM.DIHEDRAL>
0

>  <SCORE.SYSTEM.SOLV>
0

>  <SCORE.SYSTEM.norm>
0

>  <SCORE.heavy>
27

>  <SCORE.norm>
-0.555674

>  <RMSD>
15.174

$$$$
ligand
 OpenBabel11021811483D
libRbt.so/2013.1/901 2013/11/27
 27 29  0  0  0  0  0  0  0  0999 V2000
   49.9817   52.7445   22.5642 N   0  0  0  0  0  0  0  0  0  0  0  0
   51.0010   53.1889   23.5137 C   0  0  2  0  0  0  0  0  0  0  0  0
   50.8507   54.6642   23.7483 C   0  0  0  0  0  0  0  0  0  0  0  0
   51.8430   55.3846   23.7747 O   0  0  0  0  0  0  0  0  0  0  0  0
   52.3982   52.9107   22.9609 C   0  0  0  0  0  0  0  0  0  0  0  0
   52.6363   51.4116   22.9588 C   0  0  0  0  0  0  0  0  0  0  0  0
   54.2300   50.9213   22.2264 S   0  0  2  0  0  0  0  0  0  0  0  0
   54.2514   51.7318   20.6001 C   0  0  0  0  0  0  0  0  0  0  0  0
   53.8524   49.2515   21.4182 C   0  0  0  0  0  0  0  0  0  0  0  0
   55.0435   48.2556   21.0933 C   0  0  2  0  0  0  0  0  0  0  0  0
   54.7540   47.0733   20.3823 O   0  0  0  0  0  0  0  0  0  0  0  0
   56.0537   47.9262   22.1181 C   0  0  1  0  0  0  0  0  0  0  0  0
   56.0634   48.8562   23.2019 O   0  0  0  0  0  0  0  0  0  0  0  0
   55.4891   46.4695   22.4708 C   0  0  2  0  0  0  0  0  0  0  0  0
   56.3994   45.7627   23.2587 O   0  0  0  0  0  0  0  0  0  0  0  0
   55.3533   45.8820   21.0674 C   0  0  1  0  0  0  0  0  0  0  0  0
   49.7333   55.1493   23.8713 O   0  0  0  0  0  0  0  0  0  0  0  0
   54.6500   40.9736   22.3100 N   0  0  0  0  0  0  0  0  0  0  0  0
   55.6057   41.8371   22.6636 C   0  0  0  0  0  0  0  0  0  0  0  0
   55.5867   43.0975   22.2401 N   0  0  0  0  0  0  0  0  0  0  0  0
   54.6701   43.5262   21.3579 C   0  0  0  0  0  0  0  0  0  0  0  0
   53.6659   42.6299   20.9091 C   0  0  0  0  0  0  0  0  0  0  0  0
   53.6823   41.3078   21.4337 C   0  0  0  0  0  0  0  0  0  0  0  0
   52.7310   40.3806   21.0591 N   0  0  0  0  0  0  0  0  0  0  0  0
   52.8910   43.3020   20.0398 N   0  0  0  0  0  0  0  0  0  0  0  0
   53.3376   44.5233   19.9157 C   0  0  0  0  0  0  0  0  0  0  0  0
   54.4286   44.7256   20.7138 N   0  0  0  0  0  0  0  0  0  0  0  0
  2  1  1  6  0  0  0
  2  3  1  0  0  0  0
  2  5  1  0  0  0  0
  3  4  1  0  0  0  0
  3 17  1  0  0  0  0
  5  6  1  0  0  0  0
  7  6  1  1  0  0  0
  7  8  1  0  0  0  0
  7  9  1  0  0  0  0
 10  9  1  1  0  0  0
 10 11  1  0  0  0  0
 10 12  1  0  0  0  0
 11 16  1  0  0  0  0
 12 13  1  1  0  0  0
 12 14  1  0  0  0  0
 14 15  1  1  0  0  0
 14 16  1  0  0  0  0
 16 27  1  1  0  0  0
 18 19  2  0  0  0  0
 18 23  1  0  0  0  0
 19 20  1  0  0  0  0
 20 21  2  0  0  0  0
 21 22  1  0  0  0  0
 21 27  1  0  0  0  0
 22 23  2  0  0  0  0
 22 25  1  0  0  0  0
 23 24  1  0  0  0  0
 25 26  2  0  0  0  0
 26 27  1  0  0  0  0
M  END
>  <CHROM.1>
-136.33296734,-69.95472708,176.40967904,-52.56768017,-159.54503007,-174.29720330
-172.49604408,53.76414076,47.86863112,22.03458493,1.81244914,-0.04399639
0.16194881

>  <Name>
ligand

>  <RI>
0

>  <Rbt.Current_Directory>
/home/itssahil/PROJECTS/Mol_Feturizer/New_Systems/rnas/3IQR

>  <Rbt.Executable>
rbdock ($Id: //depot/dev/client3/rdock/2013.1/src/exe/rbdock.cxx#4 $)

>  <Rbt.Library>
libRbt.so (2013.1, Build901 2013/11/27)

>  <Rbt.Parameter_File>
/export/apps/rDock/src/rDock_2013.1_src/data/scripts/dock_solv.prm

>  <Rbt.Receptor>
prm/blind_docking_80.prm

>  <SCORE>
-11.8761

>  <SCORE.INTER>
-9.41122

>  <SCORE.INTER.CONST>
1

>  <SCORE.INTER.POLAR>
0

>  <SCORE.INTER.ROT>
7

>  <SCORE.INTER.SOLV>
14.5465

>  <SCORE.INTER.VDW>
-19.3896

>  <SCORE.INTER.norm>
-0.348564

>  <SCORE.INTRA>
-2.5173

>  <SCORE.INTRA.DIHEDRAL>
-1.7544

>  <SCORE.INTRA.DIHEDRAL.0>
9.29433

>  <SCORE.INTRA.POLAR>
0

>  <SCORE.INTRA.POLAR.0>
0

>  <SCORE.INTRA.REPUL>
0

>  <SCORE.INTRA.REPUL.0>
0

>  <SCORE.INTRA.SOLV>
-0.866354

>  <SCORE.INTRA.SOLV.lig_0>
-48.5102

>  <SCORE.INTRA.VDW>
-1.20693

>  <SCORE.INTRA.VDW.0>
0.379549

>  <SCORE.INTRA.norm>
-0.0932335

>  <SCORE.RESTR>
0.0524037

>  <SCORE.RESTR.CAVITY>
0.0524037

>  <SCORE.RESTR.norm>
0.00194088

>  <SCORE.SYSTEM>
0

>  <SCORE.SYSTEM.CONST>
0

>  <SCORE.SYSTEM.DIHEDRAL>
0

>  <SCORE.SYSTEM.SOLV>
0

>  <SCORE.SYSTEM.norm>
0

>  <SCORE.heavy>
27

>  <SCORE.norm>
-0.439856

>  <RMSD>
15.428

$$$$
ligand
 OpenBabel11021811483D
libRbt.so/2013.1/901 2013/11/27
 27 29  0  0  0  0  0  0  0  0999 V2000
   46.6723   43.3720   33.8774 N   0  0  0  0  0  0  0  0  0  0  0  0
   48.0185   43.8841   34.1291 C   0  0  2  0  0  0  0  0  0  0  0  0
   49.0171   43.0345   33.3977 C   0  0  0  0  0  0  0  0  0  0  0  0
   49.0629   41.8266   33.6057 O   0  0  0  0  0  0  0  0  0  0  0  0
   48.3297   43.8454   35.6247 C   0  0  0  0  0  0  0  0  0  0  0  0
   49.6347   44.5795   35.8741 C   0  0  0  0  0  0  0  0  0  0  0  0
   51.1095   43.6670   35.3183 S   0  0  2  0  0  0  0  0  0  0  0  0
   51.5308   42.5881   36.7186 C   0  0  0  0  0  0  0  0  0  0  0  0
   52.5399   44.8296   35.7501 C   0  0  0  0  0  0  0  0  0  0  0  0
   54.0058   44.4789   35.2557 C   0  0  2  0  0  0  0  0  0  0  0  0
   54.1849   44.0863   33.9137 O   0  0  0  0  0  0  0  0  0  0  0  0
   54.9071   43.6569   36.0871 C   0  0  1  0  0  0  0  0  0  0  0  0
   54.4837   43.5796   37.4489 O   0  0  0  0  0  0  0  0  0  0  0  0
   54.7518   42.3041   35.2439 C   0  0  2  0  0  0  0  0  0  0  0  0
   55.7047   41.3628   35.6375 O   0  0  0  0  0  0  0  0  0  0  0  0
   55.0018   42.8318   33.8324 C   0  0  1  0  0  0  0  0  0  0  0  0
   49.7553   43.5450   32.5649 O   0  0  0  0  0  0  0  0  0  0  0  0
   51.2501   39.7056   32.3219 N   0  0  0  0  0  0  0  0  0  0  0  0
   51.5812   40.1515   33.5367 C   0  0  0  0  0  0  0  0  0  0  0  0
   52.5962   40.9931   33.7088 N   0  0  0  0  0  0  0  0  0  0  0  0
   53.3944   41.3457   32.6886 C   0  0  0  0  0  0  0  0  0  0  0  0
   53.1165   40.8533   31.3872 C   0  0  0  0  0  0  0  0  0  0  0  0
   51.9844   40.0059   31.2326 C   0  0  0  0  0  0  0  0  0  0  0  0
   51.6378   39.4981   29.9969 N   0  0  0  0  0  0  0  0  0  0  0  0
   54.0576   41.3479   30.5642 N   0  0  0  0  0  0  0  0  0  0  0  0
   54.8852   42.0911   31.2492 C   0  0  0  0  0  0  0  0  0  0  0  0
   54.5212   42.1376   32.5658 N   0  0  0  0  0  0  0  0  0  0  0  0
  2  1  1  1  0  0  0
  2  3  1  0  0  0  0
  2  5  1  0  0  0  0
  3  4  1  0  0  0  0
  3 17  1  0  0  0  0
  5  6  1  0  0  0  0
  7  6  1  1  0  0  0
  7  8  1  0  0  0  0
  7  9  1  0  0  0  0
 10  9  1  1  0  0  0
 10 11  1  0  0  0  0
 10 12  1  0  0  0  0
 11 16  1  0  0  0  0
 12 13  1  1  0  0  0
 12 14  1  0  0  0  0
 14 15  1  1  0  0  0
 14 16  1  0  0  0  0
 16 27  1  6  0  0  0
 18 19  2  0  0  0  0
 18 23  1  0  0  0  0
 19 20  1  0  0  0  0
 20 21  2  0  0  0  0
 21 22  1  0  0  0  0
 21 27  1  0  0  0  0
 22 23  2  0  0  0  0
 22 25  1  0  0  0  0
 23 24  1  0  0  0  0
 25 26  2  0  0  0  0
 26 27  1  0  0  0  0
M  END
>  <CHROM.1>
-56.90688674,-171.18738070,-73.09676638,-85.97095938,-172.28646512,46.64522649
-84.50638600,52.08057404,42.52275418,33.96647196,2.86131206,-0.10776045,0.96066905

>  <Name>
ligand

>  <RI>
0

>  <Rbt.Current_Directory>
/home/itssahil/PROJECTS/Mol_Feturizer/New_Systems/rnas/3IQR

>  <Rbt.Executable>
rbdock ($Id: //depot/dev/client3/rdock/2013.1/src/exe/rbdock.cxx#4 $)

>  <Rbt.Library>
libRbt.so (2013.1, Build901 2013/11/27)

>  <Rbt.Parameter_File>
/export/apps/rDock/src/rDock_2013.1_src/data/scripts/dock_solv.prm

>  <Rbt.Receptor>
prm/blind_docking_80.prm

>  <SCORE>
-13.5776

>  <SCORE.INTER>
-6.64131

>  <SCORE.INTER.CONST>
1

>  <SCORE.INTER.POLAR>
0

>  <SCORE.INTER.ROT>
7

>  <SCORE.INTER.SOLV>
6.99446

>  <SCORE.INTER.VDW>
-15.0257

>  <SCORE.INTER.norm>
-0.245975

>  <SCORE.INTRA>
-6.93625

>  <SCORE.INTRA.DIHEDRAL>
-2.94515

>  <SCORE.INTRA.DIHEDRAL.0>
9.29433

>  <SCORE.INTRA.POLAR>
0

>  <SCORE.INTRA.POLAR.0>
0

>  <SCORE.INTRA.REPUL>
0

>  <SCORE.INTRA.REPUL.0>
0

>  <SCORE.INTRA.SOLV>
-1.2278

>  <SCORE.INTRA.SOLV.lig_0>
-48.5102

>  <SCORE.INTRA.VDW>
-4.84977

>  <SCORE.INTRA.VDW.0>
0.379549

>  <SCORE.INTRA.norm>
-0.256898

>  <SCORE.RESTR>
0

>  <SCORE.RESTR.CAVITY>
0

>  <SCORE.RESTR.norm>
0

>  <SCORE.SYSTEM>
0

>  <SCORE.SYSTEM.CONST>
0

>  <SCORE.SYSTEM.DIHEDRAL>
0

>  <SCORE.SYSTEM.SOLV>
0

>  <SCORE.SYSTEM.norm>
0

>  <SCORE.heavy>
27

>  <SCORE.norm>
-0.502873

>  <RMSD>
15.711

$$$$
ligand
 OpenBabel11021811483D
libRbt.so/2013.1/901 2013/11/27
 27 29  0  0  0  0  0  0  0  0999 V2000
   56.6970   64.0511   16.5585 N   0  0  0  0  0  0  0  0  0  0  0  0
   56.0160   63.8601   15.2788 C   0  0  2  0  0  0  0  0  0  0  0  0
   55.9636   65.1687   14.5447 C   0  0  0  0  0  0  0  0  0  0  0  0
   55.6540   66.1943   15.1419 O   0  0  0  0  0  0  0  0  0  0  0  0
   54.5909   63.3575   15.5061 C   0  0  0  0  0  0  0  0  0  0  0  0
   53.9438   63.0895   14.1595 C   0  0  0  0  0  0  0  0  0  0  0  0
   52.1991   62.5792   14.2706 S   0  0  2  0  0  0  0  0  0  0  0  0
   51.2881   63.8795   13.3866 C   0  0  0  0  0  0  0  0  0  0  0  0
   51.6363   63.2810   15.9363 C   0  0  0  0  0  0  0  0  0  0  0  0
   51.4655   62.3055   17.1755 C   0  0  2  0  0  0  0  0  0  0  0  0
   51.4878   62.8584   18.4721 O   0  0  0  0  0  0  0  0  0  0  0  0
   52.1818   61.0157   17.2259 C   0  0  1  0  0  0  0  0  0  0  0  0
   52.6697   60.6055   15.9479 O   0  0  0  0  0  0  0  0  0  0  0  0
   53.3046   61.4701   18.2739 C   0  0  2  0  0  0  0  0  0  0  0  0
   54.0217   60.3672   18.7410 O   0  0  0  0  0  0  0  0  0  0  0  0
   52.4293   62.0979   19.3569 C   0  0  1  0  0  0  0  0  0  0  0  0
   56.2708   65.2139   13.3603 O   0  0  0  0  0  0  0  0  0  0  0  0
   54.2769   62.2551   24.1206 N   0  0  0  0  0  0  0  0  0  0  0  0
   53.7861   61.2390   23.4059 C   0  0  0  0  0  0  0  0  0  0  0  0
   53.3749   61.4128   22.1533 N   0  0  0  0  0  0  0  0  0  0  0  0
   53.3360   62.6315   21.5916 C   0  0  0  0  0  0  0  0  0  0  0  0
   53.7953   63.7519   22.3312 C   0  0  0  0  0  0  0  0  0  0  0  0
   54.2865   63.5160   23.6452 C   0  0  0  0  0  0  0  0  0  0  0  0
   54.7653   64.5505   24.4234 N   0  0  0  0  0  0  0  0  0  0  0  0
   53.6442   64.8352   21.5492 N   0  0  0  0  0  0  0  0  0  0  0  0
   53.1292   64.4746   20.4041 C   0  0  0  0  0  0  0  0  0  0  0  0
   52.9267   63.1234   20.3660 N   0  0  0  0  0  0  0  0  0  0  0  0
  2  1  1  1  0  0  0
  2  3  1  0  0  0  0
  2  5  1  0  0  0  0
  3  4  1  0  0  0  0
  3 17  1  0  0  0  0
  5  6  1  0  0  0  0
  7  6  1  1  0  0  0
  7  8  1  0  0  0  0
  7  9  1  0  0  0  0
 10  9  1  6  0  0  0
 10 11  1  0  0  0  0
 10 12  1  0  0  0  0
 11 16  1  0  0  0  0
 12 13  1  6  0  0  0
 12 14  1  0  0  0  0
 14 15  1  1  0  0  0
 14 16  1  0  0  0  0
 16 27  1  1  0  0  0
 18 19  2  0  0  0  0
 18 23  1  0  0  0  0
 19 20  1  0  0  0  0
 20 21  2  0  0  0  0
 21 22  1  0  0  0  0
 21 27  1  0  0  0  0
 22 23  2  0  0  0  0
 22 25  1  0  0  0  0
 23 24  1  0  0  0  0
 25 26  2  0  0  0  0
 26 27  1  0  0  0  0
M  END
>  <CHROM.1>
-44.54050898,-176.56687368,-176.44795896,118.15817946,-104.20761458,159.20883165
153.67140627,53.60228597,63.05905359,18.09397357,-1.55706881,0.72870636,1.65676110

>  <Name>
ligand

>  <RI>
0

>  <Rbt.Current_Directory>
/home/itssahil/PROJECTS/Mol_Feturizer/New_Systems/rnas/3IQR

>  <Rbt.Executable>
rbdock ($Id: //depot/dev/client3/rdock/2013.1/src/exe/rbdock.cxx#4 $)

>  <Rbt.Library>
libRbt.so (2013.1, Build901 2013/11/27)

>  <Rbt.Parameter_File>
/export/apps/rDock/src/rDock_2013.1_src/data/scripts/dock_solv.prm

>  <Rbt.Receptor>
prm/blind_docking_100.prm

>  <SCORE>
-13.934

>  <SCORE.INTER>
-13.5011

>  <SCORE.INTER.CONST>
1

>  <SCORE.INTER.POLAR>
0

>  <SCORE.INTER.ROT>
7

>  <SCORE.INTER.SOLV>
9.36671

>  <SCORE.INTER.VDW>
-20.3896

>  <SCORE.INTER.norm>
-0.500041

>  <SCORE.INTRA>
-0.432876

>  <SCORE.INTRA.DIHEDRAL>
2.21093

>  <SCORE.INTRA.DIHEDRAL.0>
9.29433

>  <SCORE.INTRA.POLAR>
0

>  <SCORE.INTRA.POLAR.0>
0

>  <SCORE.INTRA.REPUL>
0

>  <SCORE.INTRA.REPUL.0>
0

>  <SCORE.INTRA.SOLV>
-1.16005

>  <SCORE.INTRA.SOLV.lig_0>
-48.5102

>  <SCORE.INTRA.VDW>
-0.958315

>  <SCORE.INTRA.VDW.0>
0.379549

>  <SCORE.INTRA.norm>
-0.0160324

>  <SCORE.RESTR>
0

>  <SCORE.RESTR.CAVITY>
0

>  <SCORE.RESTR.norm>
0

>  <SCORE.SYSTEM>
0

>  <SCORE.SYSTEM.CONST>
0

>  <SCORE.SYSTEM.DIHEDRAL>
0

>  <SCORE.SYSTEM.SOLV>
0

>  <SCORE.SYSTEM.norm>
0

>  <SCORE.heavy>
27

>  <SCORE.norm>
-0.516074

>  <RMSD>
15.803

$$$$
ligand
 OpenBabel11021811483D
libRbt.so/2013.1/901 2013/11/27
 27 29  0  0  0  0  0  0  0  0999 V2000
   59.1124   47.0927   13.4377 N   0  0  0  0  0  0  0  0  0  0  0  0
   59.3561   46.8376   14.8566 C   0  0  2  0  0  0  0  0  0  0  0  0
   60.6319   46.0608   15.0090 C   0  0  0  0  0  0  0  0  0  0  0  0
   61.1099   45.8804   16.1240 O   0  0  0  0  0  0  0  0  0  0  0  0
   58.2052   46.0304   15.4558 C   0  0  0  0  0  0  0  0  0  0  0  0
   58.1459   46.2936   16.9495 C   0  0  0  0  0  0  0  0  0  0  0  0
   56.5055   45.9988   17.6836 S   0  0  2  0  0  0  0  0  0  0  0  0
   55.5344   47.4664   17.2304 C   0  0  0  0  0  0  0  0  0  0  0  0
   56.6909   46.6367   19.4563 C   0  0  0  0  0  0  0  0  0  0  0  0
   55.4258   46.6591   20.4130 C   0  0  2  0  0  0  0  0  0  0  0  0
   54.6814   47.8521   20.5125 O   0  0  0  0  0  0  0  0  0  0  0  0
   55.4854   46.0546   21.7585 C   0  0  1  0  0  0  0  0  0  0  0  0
   56.5875   45.1595   21.9127 O   0  0  0  0  0  0  0  0  0  0  0  0
   55.6006   47.4292   22.5723 C   0  0  2  0  0  0  0  0  0  0  0  0
   55.4195   47.2122   23.9395 O   0  0  0  0  0  0  0  0  0  0  0  0
   54.4478   48.2135   21.9486 C   0  0  1  0  0  0  0  0  0  0  0  0
   61.1689   45.5746   14.0219 O   0  0  0  0  0  0  0  0  0  0  0  0
   52.1875   51.9307   24.6327 N   0  0  0  0  0  0  0  0  0  0  0  0
   52.0806   50.6019   24.7171 C   0  0  0  0  0  0  0  0  0  0  0  0
   52.7890   49.8020   23.9255 N   0  0  0  0  0  0  0  0  0  0  0  0
   53.5580   50.2930   22.9408 C   0  0  0  0  0  0  0  0  0  0  0  0
   53.6607   51.6985   22.7752 C   0  0  0  0  0  0  0  0  0  0  0  0
   52.9373   52.5221   23.6818 C   0  0  0  0  0  0  0  0  0  0  0  0
   52.9968   53.8984   23.5972 N   0  0  0  0  0  0  0  0  0  0  0  0
   54.4771   51.9183   21.7297 N   0  0  0  0  0  0  0  0  0  0  0  0
   54.8745   50.7735   21.2420 C   0  0  0  0  0  0  0  0  0  0  0  0
   54.3490   49.7325   21.9550 N   0  0  0  0  0  0  0  0  0  0  0  0
  2  1  1  6  0  0  0
  2  3  1  0  0  0  0
  2  5  1  0  0  0  0
  3  4  1  0  0  0  0
  3 17  1  0  0  0  0
  5  6  1  0  0  0  0
  7  6  1  6  0  0  0
  7  8  1  0  0  0  0
  7  9  1  0  0  0  0
 10  9  1  1  0  0  0
 10 11  1  0  0  0  0
 10 12  1  0  0  0  0
 11 16  1  0  0  0  0
 12 13  1  6  0  0  0
 12 14  1  0  0  0  0
 14 15  1  1  0  0  0
 14 16  1  0  0  0  0
 16 27  1  6  0  0  0
 18 19  2  0  0  0  0
 18 23  1  0  0  0  0
 19 20  1  0  0  0  0
 20 21  2  0  0  0  0
 21 22  1  0  0  0  0
 21 27  1  0  0  0  0
 22 23  2  0  0  0  0
 22 25  1  0  0  0  0
 23 24  1  0  0  0  0
 25 26  2  0  0  0  0
 26 27  1  0  0  0  0
M  END
>  <CHROM.1>
171.11341067,-155.25824641,156.07907388,-77.91472283,175.37994203,-94.92257728
150.86913372,55.96678099,48.14942981,19.97113952,-0.02057871,1.00307537,-0.51591240

>  <Name>
ligand

>  <RI>
0

>  <Rbt.Current_Directory>
/home/itssahil/PROJECTS/Mol_Feturizer/New_Systems/rnas/3IQR

>  <Rbt.Executable>
rbdock ($Id: //depot/dev/client3/rdock/2013.1/src/exe/rbdock.cxx#4 $)

>  <Rbt.Library>
libRbt.so (2013.1, Build901 2013/11/27)

>  <Rbt.Parameter_File>
/export/apps/rDock/src/rDock_2013.1_src/data/scripts/dock_solv.prm

>  <Rbt.Receptor>
prm/blind_docking_80.prm

>  <SCORE>
-16.6605

>  <SCORE.INTER>
-13.8656

>  <SCORE.INTER.CONST>
1

>  <SCORE.INTER.POLAR>
0

>  <SCORE.INTER.ROT>
7

>  <SCORE.INTER.SOLV>
18.9041

>  <SCORE.INTER.VDW>
-23.8118

>  <SCORE.INTER.norm>
-0.513541

>  <SCORE.INTRA>
-2.79577

>  <SCORE.INTRA.DIHEDRAL>
1.13528

>  <SCORE.INTRA.DIHEDRAL.0>
9.29433

>  <SCORE.INTRA.POLAR>
0

>  <SCORE.INTRA.POLAR.0>
0

>  <SCORE.INTRA.REPUL>
0

>  <SCORE.INTRA.REPUL.0>
0

>  <SCORE.INTRA.SOLV>
-1.81967

>  <SCORE.INTRA.SOLV.lig_0>
-48.5102

>  <SCORE.INTRA.VDW>
-2.45358

>  <SCORE.INTRA.VDW.0>
0.379549

>  <SCORE.INTRA.norm>
-0.103547

>  <SCORE.RESTR>
0.000873724

>  <SCORE.RESTR.CAVITY>
0.000873724

>  <SCORE.RESTR.norm>
3.23602e-05

>  <SCORE.SYSTEM>
0

>  <SCORE.SYSTEM.CONST>
0

>  <SCORE.SYSTEM.DIHEDRAL>
0

>  <SCORE.SYSTEM.SOLV>
0

>  <SCORE.SYSTEM.norm>
0

>  <SCORE.heavy>
27

>  <SCORE.norm>
-0.617055

>  <RMSD>
15.841

$$$$
ligand
 OpenBabel11021811483D
libRbt.so/2013.1/901 2013/11/27
 27 29  0  0  0  0  0  0  0  0999 V2000
   51.8056   69.5085   23.8236 N   0  0  0  0  0  0  0  0  0  0  0  0
   53.0072   68.7035   24.0383 C   0  0  2  0  0  0  0  0  0  0  0  0
   54.1349   69.2689   23.2243 C   0  0  0  0  0  0  0  0  0  0  0  0
   54.2959   68.9047   22.0642 O   0  0  0  0  0  0  0  0  0  0  0  0
   52.7598   67.2570   23.6122 C   0  0  0  0  0  0  0  0  0  0  0  0
   53.8305   66.3739   24.2265 C   0  0  0  0  0  0  0  0  0  0  0  0
   53.6988   64.6205   23.7522 S   0  0  2  0  0  0  0  0  0  0  0  0
   55.2048   63.8544   24.4211 C   0  0  0  0  0  0  0  0  0  0  0  0
   54.4226   64.5778   22.0034 C   0  0  0  0  0  0  0  0  0  0  0  0
   53.4618   64.7769   20.7571 C   0  0  2  0  0  0  0  0  0  0  0  0
   52.6802   63.6836   20.3315 O   0  0  0  0  0  0  0  0  0  0  0  0
   53.9261   65.4919   19.5519 C   0  0  1  0  0  0  0  0  0  0  0  0
   55.0957   66.2755   19.7918 O   0  0  0  0  0  0  0  0  0  0  0  0
   54.1471   64.1928   18.6415 C   0  0  2  0  0  0  0  0  0  0  0  0
   54.3558   64.5515   17.3086 O   0  0  0  0  0  0  0  0  0  0  0  0
   52.8118   63.4815   18.8518 C   0  0  1  0  0  0  0  0  0  0  0  0
   54.8656   70.1234   23.7092 O   0  0  0  0  0  0  0  0  0  0  0  0
   55.2010   59.4961   16.7213 N   0  0  0  0  0  0  0  0  0  0  0  0
   55.5029   60.7972   16.7247 C   0  0  0  0  0  0  0  0  0  0  0  0
   54.7468   61.6784   17.3726 N   0  0  0  0  0  0  0  0  0  0  0  0
   53.5950   61.3158   17.9591 C   0  0  0  0  0  0  0  0  0  0  0  0
   53.2026   59.9524   17.9348 C   0  0  0  0  0  0  0  0  0  0  0  0
   54.0698   59.0299   17.2863 C   0  0  0  0  0  0  0  0  0  0  0  0
   53.7674   57.6843   17.2327 N   0  0  0  0  0  0  0  0  0  0  0  0
   52.0260   59.8644   18.5796 N   0  0  0  0  0  0  0  0  0  0  0  0
   51.6657   61.0518   18.9878 C   0  0  0  0  0  0  0  0  0  0  0  0
   52.6000   61.9884   18.6441 N   0  0  0  0  0  0  0  0  0  0  0  0
  2  1  1  6  0  0  0
  2  3  1  0  0  0  0
  2  5  1  0  0  0  0
  3  4  1  0  0  0  0
  3 17  1  0  0  0  0
  5  6  1  0  0  0  0
  7  6  1  1  0  0  0
  7  8  1  0  0  0  0
  7  9  1  0  0  0  0
 10  9  1  6  0  0  0
 10 11  1  0  0  0  0
 10 12  1  0  0  0  0
 11 16  1  0  0  0  0
 12 13  1  1  0  0  0
 12 14  1  0  0  0  0
 14 15  1  6  0  0  0
 14 16  1  0  0  0  0
 16 27  1  1  0  0  0
 18 19  2  0  0  0  0
 18 23  1  0  0  0  0
 19 20  1  0  0  0  0
 20 21  2  0  0  0  0
 21 22  1  0  0  0  0
 21 27  1  0  0  0  0
 22 23  2  0  0  0  0
 22 25  1  0  0  0  0
 23 24  1  0  0  0  0
 25 26  2  0  0  0  0
 26 27  1  0  0  0  0
M  END
>  <CHROM.1>
-87.71863050,-162.68568266,-177.83329303,172.35084276,-90.83263433,-78.75520410
-125.62167092,53.75643000,64.16338591,20.50865553,-1.59476790,-1.33726287
-2.51662053

>  <Name>
ligand

>  <RI>
0

>  <Rbt.Current_Directory>
/home/itssahil/PROJECTS/Mol_Feturizer/New_Systems/rnas/3IQR

>  <Rbt.Executable>
rbdock ($Id: //depot/dev/client3/rdock/2013.1/src/exe/rbdock.cxx#4 $)

>  <Rbt.Library>
libRbt.so (2013.1, Build901 2013/11/27)

>  <Rbt.Parameter_File>
/export/apps/rDock/src/rDock_2013.1_src/data/scripts/dock_solv.prm

>  <Rbt.Receptor>
prm/blind_docking_100.prm

>  <SCORE>
-12.783

>  <SCORE.INTER>
-8.40483

>  <SCORE.INTER.CONST>
1

>  <SCORE.INTER.POLAR>
0

>  <SCORE.INTER.ROT>
7

>  <SCORE.INTER.SOLV>
10.7192

>  <SCORE.INTER.VDW>
-17.443

>  <SCORE.INTER.norm>
-0.31129

>  <SCORE.INTRA>
-4.37815

>  <SCORE.INTRA.DIHEDRAL>
-1.89651

>  <SCORE.INTRA.DIHEDRAL.0>
9.29433

>  <SCORE.INTRA.POLAR>
0

>  <SCORE.INTRA.POLAR.0>
0

>  <SCORE.INTRA.REPUL>
0

>  <SCORE.INTRA.REPUL.0>
0

>  <SCORE.INTRA.SOLV>
-1.76053

>  <SCORE.INTRA.SOLV.lig_0>
-48.5102

>  <SCORE.INTRA.VDW>
-2.54964

>  <SCORE.INTRA.VDW.0>
0.379549

>  <SCORE.INTRA.norm>
-0.162154

>  <SCORE.RESTR>
0

>  <SCORE.RESTR.CAVITY>
0

>  <SCORE.RESTR.norm>
0

>  <SCORE.SYSTEM>
0

>  <SCORE.SYSTEM.CONST>
0

>  <SCORE.SYSTEM.DIHEDRAL>
0

>  <SCORE.SYSTEM.SOLV>
0

>  <SCORE.SYSTEM.norm>
0

>  <SCORE.heavy>
27

>  <SCORE.norm>
-0.473444

>  <RMSD>
15.960

$$$$
ligand
 OpenBabel11021811483D
libRbt.so/2013.1/901 2013/11/27
 27 29  0  0  0  0  0  0  0  0999 V2000
   54.9710   65.3111   24.4164 N   0  0  0  0  0  0  0  0  0  0  0  0
   54.0746   64.3020   24.9786 C   0  0  2  0  0  0  0  0  0  0  0  0
   54.3561   64.1506   26.4455 C   0  0  0  0  0  0  0  0  0  0  0  0
   55.4914   63.8869   26.8275 O   0  0  0  0  0  0  0  0  0  0  0  0
   54.2903   62.9565   24.2870 C   0  0  0  0  0  0  0  0  0  0  0  0
   53.7739   63.0478   22.8626 C   0  0  0  0  0  0  0  0  0  0  0  0
   53.5396   61.4297   22.0603 S   0  0  2  0  0  0  0  0  0  0  0  0
   55.2231   60.7780   21.8514 C   0  0  0  0  0  0  0  0  0  0  0  0
   53.4483   61.8565   20.2181 C   0  0  0  0  0  0  0  0  0  0  0  0
   53.8344   63.3177   19.7364 C   0  0  2  0  0  0  0  0  0  0  0  0
   53.0014   63.9552   18.7946 O   0  0  0  0  0  0  0  0  0  0  0  0
   55.2313   63.6586   19.4023 C   0  0  1  0  0  0  0  0  0  0  0  0
   56.1689   62.7158   19.9235 O   0  0  0  0  0  0  0  0  0  0  0  0
   55.0502   63.6360   17.8111 C   0  0  2  0  0  0  0  0  0  0  0  0
   56.1688   64.1802   17.1774 O   0  0  0  0  0  0  0  0  0  0  0  0
   53.8110   64.5169   17.6647 C   0  0  1  0  0  0  0  0  0  0  0  0
   53.4587   64.3319   27.2584 O   0  0  0  0  0  0  0  0  0  0  0  0
   52.1298   61.1832   14.1731 N   0  0  0  0  0  0  0  0  0  0  0  0
   53.0536   61.0569   15.1294 C   0  0  0  0  0  0  0  0  0  0  0  0
   53.3254   62.0578   15.9616 N   0  0  0  0  0  0  0  0  0  0  0  0
   52.7625   63.2671   15.8101 C   0  0  0  0  0  0  0  0  0  0  0  0
   51.8151   63.4670   14.7729 C   0  0  0  0  0  0  0  0  0  0  0  0
   51.5040   62.3543   13.9430 C   0  0  0  0  0  0  0  0  0  0  0  0
   50.5816   62.4627   12.9220 N   0  0  0  0  0  0  0  0  0  0  0  0
   51.4159   64.7493   14.8389 N   0  0  0  0  0  0  0  0  0  0  0  0
   52.0398   65.3474   15.8185 C   0  0  0  0  0  0  0  0  0  0  0  0
   52.8771   64.4804   16.4631 N   0  0  0  0  0  0  0  0  0  0  0  0
  2  1  1  6  0  0  0
  2  3  1  0  0  0  0
  2  5  1  0  0  0  0
  3  4  1  0  0  0  0
  3 17  1  0  0  0  0
  5  6  1  0  0  0  0
  7  6  1  1  0  0  0
  7  8  1  0  0  0  0
  7  9  1  0  0  0  0
 10  9  1  6  0  0  0
 10 11  1  0  0  0  0
 10 12  1  0  0  0  0
 11 16  1  0  0  0  0
 12 13  1  6  0  0  0
 12 14  1  0  0  0  0
 14 15  1  6  0  0  0
 14 16  1  0  0  0  0
 16 27  1  6  0  0  0
 18 19  2  0  0  0  0
 18 23  1  0  0  0  0
 19 20  1  0  0  0  0
 20 21  2  0  0  0  0
 21 22  1  0  0  0  0
 21 27  1  0  0  0  0
 22 23  2  0  0  0  0
 22 25  1  0  0  0  0
 23 24  1  0  0  0  0
 25 26  2  0  0  0  0
 26 27  1  0  0  0  0
M  END
>  <CHROM.1>
-55.39550970,-69.81857028,-164.17565197,-68.13542083,10.93895419,-135.53716027
-81.31394353,53.66162949,63.19020540,19.58290956,0.46835042,-1.33916100,0.42519234

>  <Name>
ligand

>  <RI>
0

>  <Rbt.Current_Directory>
/home/itssahil/PROJECTS/Mol_Feturizer/New_Systems/rnas/3IQR

>  <Rbt.Executable>
rbdock ($Id: //depot/dev/client3/rdock/2013.1/src/exe/rbdock.cxx#4 $)

>  <Rbt.Library>
libRbt.so (2013.1, Build901 2013/11/27)

>  <Rbt.Parameter_File>
/export/apps/rDock/src/rDock_2013.1_src/data/scripts/dock_solv.prm

>  <Rbt.Receptor>
prm/blind_docking_100.prm

>  <SCORE>
-10.2469

>  <SCORE.INTER>
-8.80179

>  <SCORE.INTER.CONST>
1

>  <SCORE.INTER.POLAR>
0

>  <SCORE.INTER.ROT>
7

>  <SCORE.INTER.SOLV>
3.65698

>  <SCORE.INTER.VDW>
-15.3535

>  <SCORE.INTER.norm>
-0.325992

>  <SCORE.INTRA>
-1.44511

>  <SCORE.INTRA.DIHEDRAL>
2.91412

>  <SCORE.INTRA.DIHEDRAL.0>
9.29433

>  <SCORE.INTRA.POLAR>
0

>  <SCORE.INTRA.POLAR.0>
0

>  <SCORE.INTRA.REPUL>
0

>  <SCORE.INTRA.REPUL.0>
0

>  <SCORE.INTRA.SOLV>
-0.780576

>  <SCORE.INTRA.SOLV.lig_0>
-48.5102

>  <SCORE.INTRA.VDW>
-2.51189

>  <SCORE.INTRA.VDW.0>
0.379549

>  <SCORE.INTRA.norm>
-0.0535227

>  <SCORE.RESTR>
0

>  <SCORE.RESTR.CAVITY>
0

>  <SCORE.RESTR.norm>
0

>  <SCORE.SYSTEM>
0

>  <SCORE.SYSTEM.CONST>
0

>  <SCORE.SYSTEM.DIHEDRAL>
0

>  <SCORE.SYSTEM.SOLV>
0

>  <SCORE.SYSTEM.norm>
0

>  <SCORE.heavy>
27

>  <SCORE.norm>
-0.379515

>  <RMSD>
16.098

$$$$
ligand
 OpenBabel11021811483D
libRbt.so/2013.1/901 2013/11/27
 27 29  0  0  0  0  0  0  0  0999 V2000
   56.6051   43.4092   34.9724 N   0  0  0  0  0  0  0  0  0  0  0  0
   56.0375   42.3874   34.0940 C   0  0  2  0  0  0  0  0  0  0  0  0
   55.9735   41.0804   34.8302 C   0  0  0  0  0  0  0  0  0  0  0  0
   56.9225   40.7170   35.5171 O   0  0  0  0  0  0  0  0  0  0  0  0
   56.9059   42.2169   32.8482 C   0  0  0  0  0  0  0  0  0  0  0  0
   56.1916   41.2985   31.8734 C   0  0  0  0  0  0  0  0  0  0  0  0
   54.9006   42.1282   30.8927 S   0  0  2  0  0  0  0  0  0  0  0  0
   53.7648   42.8213   32.1304 C   0  0  0  0  0  0  0  0  0  0  0  0
   53.6739   40.7387   30.5072 C   0  0  0  0  0  0  0  0  0  0  0  0
   52.2749   41.0942   29.8494 C   0  0  2  0  0  0  0  0  0  0  0  0
   51.5262   42.1551   30.3983 O   0  0  0  0  0  0  0  0  0  0  0  0
   51.3278   40.0287   29.4661 C   0  0  1  0  0  0  0  0  0  0  0  0
   51.9473   38.7448   29.3804 O   0  0  0  0  0  0  0  0  0  0  0  0
   50.3236   40.2237   30.6985 C   0  0  2  0  0  0  0  0  0  0  0  0
   49.1428   39.5077   30.4934 O   0  0  0  0  0  0  0  0  0  0  0  0
   50.1073   41.7346   30.6383 C   0  0  1  0  0  0  0  0  0  0  0  0
   54.9564   40.4010   34.7751 O   0  0  0  0  0  0  0  0  0  0  0  0
   51.2416   42.4148   35.5761 N   0  0  0  0  0  0  0  0  0  0  0  0
   51.7032   41.5322   34.6861 C   0  0  0  0  0  0  0  0  0  0  0  0
   51.2859   41.5442   33.4236 N   0  0  0  0  0  0  0  0  0  0  0  0
   50.3093   42.3704   33.0165 C   0  0  0  0  0  0  0  0  0  0  0  0
   49.7476   43.2896   33.9399 C   0  0  0  0  0  0  0  0  0  0  0  0
   50.2647   43.2894   35.2651 C   0  0  0  0  0  0  0  0  0  0  0  0
   49.7824   44.1633   36.2184 N   0  0  0  0  0  0  0  0  0  0  0  0
   48.8006   43.9842   33.2853 N   0  0  0  0  0  0  0  0  0  0  0  0
   48.7325   43.5657   32.0497 C   0  0  0  0  0  0  0  0  0  0  0  0
   49.6479   42.5770   31.8200 N   0  0  0  0  0  0  0  0  0  0  0  0
  2  1  1  1  0  0  0
  2  3  1  0  0  0  0
  2  5  1  0  0  0  0
  3  4  1  0  0  0  0
  3 17  1  0  0  0  0
  5  6  1  0  0  0  0
  7  6  1  1  0  0  0
  7  8  1  0  0  0  0
  7  9  1  0  0  0  0
 10  9  1  1  0  0  0
 10 11  1  0  0  0  0
 10 12  1  0  0  0  0
 11 16  1  0  0  0  0
 12 13  1  1  0  0  0
 12 14  1  0  0  0  0
 14 15  1  6  0  0  0
 14 16  1  0  0  0  0
 16 27  1  1  0  0  0
 18 19  2  0  0  0  0
 18 23  1  0  0  0  0
 19 20  1  0  0  0  0
 20 21  2  0  0  0  0
 21 22  1  0  0  0  0
 21 27  1  0  0  0  0
 22 23  2  0  0  0  0
 22 25  1  0  0  0  0
 23 24  1  0  0  0  0
 25 26  2  0  0  0  0
 26 27  1  0  0  0  0
M  END
>  <CHROM.1>
-43.34058014,-172.13563826,80.33482720,-57.56653789,170.61153525,-47.12407421
-63.57271619,52.55134816,41.79582196,32.57402798,0.25933835,-0.15257854,1.12672447

>  <Name>
ligand

>  <RI>
0

>  <Rbt.Current_Directory>
/home/itssahil/PROJECTS/Mol_Feturizer/New_Systems/rnas/3IQR

>  <Rbt.Executable>
rbdock ($Id: //depot/dev/client3/rdock/2013.1/src/exe/rbdock.cxx#4 $)

>  <Rbt.Library>
libRbt.so (2013.1, Build901 2013/11/27)

>  <Rbt.Parameter_File>
/export/apps/rDock/src/rDock_2013.1_src/data/scripts/dock_solv.prm

>  <Rbt.Receptor>
prm/blind_docking_80.prm

>  <SCORE>
-8.53619

>  <SCORE.INTER>
-4.37457

>  <SCORE.INTER.CONST>
1

>  <SCORE.INTER.POLAR>
0

>  <SCORE.INTER.ROT>
7

>  <SCORE.INTER.SOLV>
10.8159

>  <SCORE.INTER.VDW>
-14.7884

>  <SCORE.INTER.norm>
-0.162021

>  <SCORE.INTRA>
-4.42667

>  <SCORE.INTRA.DIHEDRAL>
-2.54299

>  <SCORE.INTRA.DIHEDRAL.0>
9.29433

>  <SCORE.INTRA.POLAR>
0

>  <SCORE.INTRA.POLAR.0>
0

>  <SCORE.INTRA.REPUL>
0

>  <SCORE.INTRA.REPUL.0>
0

>  <SCORE.INTRA.SOLV>
-1.1691

>  <SCORE.INTRA.SOLV.lig_0>
-48.5102

>  <SCORE.INTRA.VDW>
-2.57062

>  <SCORE.INTRA.VDW.0>
0.379549

>  <SCORE.INTRA.norm>
-0.163951

>  <SCORE.RESTR>
0.265055

>  <SCORE.RESTR.CAVITY>
0.265055

>  <SCORE.RESTR.norm>
0.00981687

>  <SCORE.SYSTEM>
0

>  <SCORE.SYSTEM.CONST>
0

>  <SCORE.SYSTEM.DIHEDRAL>
0

>  <SCORE.SYSTEM.SOLV>
0

>  <SCORE.SYSTEM.norm>
0

>  <SCORE.heavy>
27

>  <SCORE.norm>
-0.316155

>  <RMSD>
16.101

$$$$
ligand
 OpenBabel11021811483D
libRbt.so/2013.1/901 2013/11/27
 27 29  0  0  0  0  0  0  0  0999 V2000
   50.4767   43.3937   34.9569 N   0  0  0  0  0  0  0  0  0  0  0  0
   51.7101   43.4912   35.7359 C   0  0  2  0  0  0  0  0  0  0  0  0
   52.5070   44.6702   35.2574 C   0  0  0  0  0  0  0  0  0  0  0  0
   52.6026   44.8983   34.0561 O   0  0  0  0  0  0  0  0  0  0  0  0
   52.5453   42.2225   35.5681 C   0  0  0  0  0  0  0  0  0  0  0  0
   53.6560   42.2251   36.6027 C   0  0  0  0  0  0  0  0  0  0  0  0
   54.8047   40.8199   36.4517 S   0  0  2  0  0  0  0  0  0  0  0  0
   55.9453   41.0127   37.8532 C   0  0  0  0  0  0  0  0  0  0  0  0
   56.1271   41.4538   35.2545 C   0  0  0  0  0  0  0  0  0  0  0  0
   55.7208   42.4835   34.1184 C   0  0  2  0  0  0  0  0  0  0  0  0
   54.6210   42.1722   33.2933 O   0  0  0  0  0  0  0  0  0  0  0  0
   56.7498   43.1197   33.2723 C   0  0  1  0  0  0  0  0  0  0  0  0
   58.0603   43.0237   33.8317 O   0  0  0  0  0  0  0  0  0  0  0  0
   56.4944   42.2250   31.9687 C   0  0  2  0  0  0  0  0  0  0  0  0
   57.1616   42.7574   30.8640 O   0  0  0  0  0  0  0  0  0  0  0  0
   54.9766   42.3461   31.8473 C   0  0  1  0  0  0  0  0  0  0  0  0
   53.0249   45.4244   36.0712 O   0  0  0  0  0  0  0  0  0  0  0  0
   50.0236   41.5067   30.9018 N   0  0  0  0  0  0  0  0  0  0  0  0
   50.6247   42.4138   31.6763 C   0  0  0  0  0  0  0  0  0  0  0  0
   51.9502   42.4762   31.7628 N   0  0  0  0  0  0  0  0  0  0  0  0
   52.7349   41.5674   31.1625 C   0  0  0  0  0  0  0  0  0  0  0  0
   52.1399   40.5496   30.3729 C   0  0  0  0  0  0  0  0  0  0  0  0
   50.7224   40.5542   30.2534 C   0  0  0  0  0  0  0  0  0  0  0  0
   50.0684   39.6074   29.4912 N   0  0  0  0  0  0  0  0  0  0  0  0
   53.1351   39.7808   29.8972 N   0  0  0  0  0  0  0  0  0  0  0  0
   54.2798   40.2361   30.3315 C   0  0  0  0  0  0  0  0  0  0  0  0
   54.0985   41.3454   31.1091 N   0  0  0  0  0  0  0  0  0  0  0  0
  2  1  1  6  0  0  0
  2  3  1  0  0  0  0
  2  5  1  0  0  0  0
  3  4  1  0  0  0  0
  3 17  1  0  0  0  0
  5  6  1  0  0  0  0
  7  6  1  1  0  0  0
  7  8  1  0  0  0  0
  7  9  1  0  0  0  0
 10  9  1  6  0  0  0
 10 11  1  0  0  0  0
 10 12  1  0  0  0  0
 11 16  1  0  0  0  0
 12 13  1  1  0  0  0
 12 14  1  0  0  0  0
 14 15  1  6  0  0  0
 14 16  1  0  0  0  0
 16 27  1  6  0  0  0
 18 19  2  0  0  0  0
 18 23  1  0  0  0  0
 19 20  1  0  0  0  0
 20 21  2  0  0  0  0
 21 22  1  0  0  0  0
 21 27  1  0  0  0  0
 22 23  2  0  0  0  0
 22 25  1  0  0  0  0
 23 24  1  0  0  0  0
 25 26  2  0  0  0  0
 26 27  1  0  0  0  0
M  END
>  <CHROM.1>
-41.88582115,-168.08371697,-176.17030871,-176.49211626,-31.95411240,-50.95705945
65.02104123,53.71610369,42.12157915,33.33583635,2.12237780,0.08711734,-1.91206932

>  <Name>
ligand

>  <RI>
0

>  <Rbt.Current_Directory>
/home/itssahil/PROJECTS/Mol_Feturizer/New_Systems/rnas/3IQR

>  <Rbt.Executable>
rbdock ($Id: //depot/dev/client3/rdock/2013.1/src/exe/rbdock.cxx#4 $)

>  <Rbt.Library>
libRbt.so (2013.1, Build901 2013/11/27)

>  <Rbt.Parameter_File>
/export/apps/rDock/src/rDock_2013.1_src/data/scripts/dock_solv.prm

>  <Rbt.Receptor>
prm/blind_docking_80.prm

>  <SCORE>
-10.0916

>  <SCORE.INTER>
-4.67715

>  <SCORE.INTER.CONST>
1

>  <SCORE.INTER.POLAR>
0

>  <SCORE.INTER.ROT>
7

>  <SCORE.INTER.SOLV>
4.75641

>  <SCORE.INTER.VDW>
-12.9702

>  <SCORE.INTER.norm>
-0.173228

>  <SCORE.INTRA>
-5.41448

>  <SCORE.INTRA.DIHEDRAL>
-0.889126

>  <SCORE.INTRA.DIHEDRAL.0>
9.29433

>  <SCORE.INTRA.POLAR>
0

>  <SCORE.INTRA.POLAR.0>
0

>  <SCORE.INTRA.REPUL>
0

>  <SCORE.INTRA.REPUL.0>
0

>  <SCORE.INTRA.SOLV>
-1.0844

>  <SCORE.INTRA.SOLV.lig_0>
-48.5102

>  <SCORE.INTRA.VDW>
-4.42772

>  <SCORE.INTRA.VDW.0>
0.379549

>  <SCORE.INTRA.norm>
-0.200536

>  <SCORE.RESTR>
0

>  <SCORE.RESTR.CAVITY>
0

>  <SCORE.RESTR.norm>
0

>  <SCORE.SYSTEM>
0

>  <SCORE.SYSTEM.CONST>
0

>  <SCORE.SYSTEM.DIHEDRAL>
0

>  <SCORE.SYSTEM.SOLV>
0

>  <SCORE.SYSTEM.norm>
0

>  <SCORE.heavy>
27

>  <SCORE.norm>
-0.373764

>  <RMSD>
16.349

$$$$
ligand
 OpenBabel11021811483D
libRbt.so/2013.1/901 2013/11/27
 27 29  0  0  0  0  0  0  0  0999 V2000
   54.7741   55.7860   17.4820 N   0  0  0  0  0  0  0  0  0  0  0  0
   53.4917   56.1416   18.0877 C   0  0  2  0  0  0  0  0  0  0  0  0
   52.4128   55.2703   17.5123 C   0  0  0  0  0  0  0  0  0  0  0  0
   51.5496   54.7993   18.2454 O   0  0  0  0  0  0  0  0  0  0  0  0
   53.1575   57.6050   17.8017 C   0  0  0  0  0  0  0  0  0  0  0  0
   54.0810   58.4889   18.6201 C   0  0  0  0  0  0  0  0  0  0  0  0
   53.8655   60.2695   18.3040 S   0  0  2  0  0  0  0  0  0  0  0  0
   54.7279   61.0832   19.6812 C   0  0  0  0  0  0  0  0  0  0  0  0
   52.1879   60.6601   19.0896 C   0  0  0  0  0  0  0  0  0  0  0  0
   51.3604   61.9131   18.5780 C   0  0  2  0  0  0  0  0  0  0  0  0
   50.8596   61.8933   17.2604 O   0  0  0  0  0  0  0  0  0  0  0  0
   51.8172   63.2876   18.8631 C   0  0  1  0  0  0  0  0  0  0  0  0
   52.7776   63.3418   19.9187 O   0  0  0  0  0  0  0  0  0  0  0  0
   52.3898   63.5979   17.3999 C   0  0  2  0  0  0  0  0  0  0  0  0
   52.6811   64.9560   17.2597 O   0  0  0  0  0  0  0  0  0  0  0  0
   51.2010   63.1651   16.5439 C   0  0  1  0  0  0  0  0  0  0  0  0
   52.3751   55.0667   16.3056 O   0  0  0  0  0  0  0  0  0  0  0  0
   53.5571   59.6784   13.6417 N   0  0  0  0  0  0  0  0  0  0  0  0
   53.6607   59.9447   14.9465 C   0  0  0  0  0  0  0  0  0  0  0  0
   52.9253   60.8949   15.5163 N   0  0  0  0  0  0  0  0  0  0  0  0
   52.1292   61.6950   14.7895 C   0  0  0  0  0  0  0  0  0  0  0  0
   52.0277   61.4872   13.3896 C   0  0  0  0  0  0  0  0  0  0  0  0
   52.7815   60.4203   12.8267 C   0  0  0  0  0  0  0  0  0  0  0  0
   52.7254   60.1433   11.4757 N   0  0  0  0  0  0  0  0  0  0  0  0
   51.1811   62.4148   12.9091 N   0  0  0  0  0  0  0  0  0  0  0  0
   50.7643   63.1705   13.8897 C   0  0  0  0  0  0  0  0  0  0  0  0
   51.3065   62.7681   15.0781 N   0  0  0  0  0  0  0  0  0  0  0  0
  2  1  1  6  0  0  0
  2  3  1  0  0  0  0
  2  5  1  0  0  0  0
  3  4  1  0  0  0  0
  3 17  1  0  0  0  0
  5  6  1  0  0  0  0
  7  6  1  1  0  0  0
  7  8  1  0  0  0  0
  7  9  1  0  0  0  0
 10  9  1  6  0  0  0
 10 11  1  0  0  0  0
 10 12  1  0  0  0  0
 11 16  1  0  0  0  0
 12 13  1  1  0  0  0
 12 14  1  0  0  0  0
 14 15  1  1  0  0  0
 14 16  1  0  0  0  0
 16 27  1  6  0  0  0
 18 19  2  0  0  0  0
 18 23  1  0  0  0  0
 19 20  1  0  0  0  0
 20 21  2  0  0  0  0
 21 22  1  0  0  0  0
 21 27  1  0  0  0  0
 22 23  2  0  0  0  0
 22 25  1  0  0  0  0
 23 24  1  0  0  0  0
 25 26  2  0  0  0  0
 26 27  1  0  0  0  0
M  END
>  <CHROM.1>
137.87780028,-71.53315137,176.48081118,165.37814609,-156.20470287,66.16068256
-51.73713525,52.61503887,60.34150759,16.66413670,0.53281906,1.37429450,-2.35864279

>  <Name>
ligand

>  <RI>
0

>  <Rbt.Current_Directory>
/home/itssahil/PROJECTS/Mol_Feturizer/New_Systems/rnas/3IQR

>  <Rbt.Executable>
rbdock ($Id: //depot/dev/client3/rdock/2013.1/src/exe/rbdock.cxx#4 $)

>  <Rbt.Library>
libRbt.so (2013.1, Build901 2013/11/27)

>  <Rbt.Parameter_File>
/export/apps/rDock/src/rDock_2013.1_src/data/scripts/dock_solv.prm

>  <Rbt.Receptor>
prm/blind_docking_100.prm

>  <SCORE>
-17.2977

>  <SCORE.INTER>
-11.4012

>  <SCORE.INTER.CONST>
1

>  <SCORE.INTER.POLAR>
0

>  <SCORE.INTER.ROT>
7

>  <SCORE.INTER.SOLV>
9.20456

>  <SCORE.INTER.VDW>
-18.9357

>  <SCORE.INTER.norm>
-0.422267

>  <SCORE.INTRA>
-5.89648

>  <SCORE.INTRA.DIHEDRAL>
-2.30382

>  <SCORE.INTRA.DIHEDRAL.0>
9.29433

>  <SCORE.INTRA.POLAR>
0

>  <SCORE.INTRA.POLAR.0>
0

>  <SCORE.INTRA.REPUL>
0

>  <SCORE.INTRA.REPUL.0>
0

>  <SCORE.INTRA.SOLV>
-0.742339

>  <SCORE.INTRA.SOLV.lig_0>
-48.5102

>  <SCORE.INTRA.VDW>
-4.3734

>  <SCORE.INTRA.VDW.0>
0.379549

>  <SCORE.INTRA.norm>
-0.218388

>  <SCORE.RESTR>
0

>  <SCORE.RESTR.CAVITY>
0

>  <SCORE.RESTR.norm>
0

>  <SCORE.SYSTEM>
0

>  <SCORE.SYSTEM.CONST>
0

>  <SCORE.SYSTEM.DIHEDRAL>
0

>  <SCORE.SYSTEM.SOLV>
0

>  <SCORE.SYSTEM.norm>
0

>  <SCORE.heavy>
27

>  <SCORE.norm>
-0.640656

>  <RMSD>
16.565

$$$$
ligand
 OpenBabel11021811483D
libRbt.so/2013.1/901 2013/11/27
 27 29  0  0  0  0  0  0  0  0999 V2000
   55.5078   66.0759   19.2943 N   0  0  0  0  0  0  0  0  0  0  0  0
   54.2107   65.4322   19.4969 C   0  0  2  0  0  0  0  0  0  0  0  0
   53.4264   66.2068   20.5162 C   0  0  0  0  0  0  0  0  0  0  0  0
   52.2031   66.2539   20.4416 O   0  0  0  0  0  0  0  0  0  0  0  0
   54.4011   64.0004   19.9957 C   0  0  0  0  0  0  0  0  0  0  0  0
   53.0789   63.2628   19.8884 C   0  0  0  0  0  0  0  0  0  0  0  0
   53.1262   61.5680   20.5534 S   0  0  2  0  0  0  0  0  0  0  0  0
   53.6451   61.7727   22.2829 C   0  0  0  0  0  0  0  0  0  0  0  0
   54.8533   60.9535   20.0807 C   0  0  0  0  0  0  0  0  0  0  0  0
   55.2001   60.7015   18.5534 C   0  0  2  0  0  0  0  0  0  0  0  0
   54.6513   61.5709   17.5889 O   0  0  0  0  0  0  0  0  0  0  0  0
   55.1810   59.3373   17.9896 C   0  0  1  0  0  0  0  0  0  0  0  0
   55.2212   58.3242   18.9953 O   0  0  0  0  0  0  0  0  0  0  0  0
   53.7862   59.4784   17.2151 C   0  0  2  0  0  0  0  0  0  0  0  0
   53.5918   58.4041   16.3449 O   0  0  0  0  0  0  0  0  0  0  0  0
   54.0167   60.7943   16.4746 C   0  0  1  0  0  0  0  0  0  0  0  0
   54.0091   66.7551   21.4430 O   0  0  0  0  0  0  0  0  0  0  0  0
   52.5296   63.0258   12.1226 N   0  0  0  0  0  0  0  0  0  0  0  0
   53.6289   62.3260   12.4155 C   0  0  0  0  0  0  0  0  0  0  0  0
   53.8109   61.8025   13.6243 N   0  0  0  0  0  0  0  0  0  0  0  0
   52.9528   62.0432   14.6282 C   0  0  0  0  0  0  0  0  0  0  0  0
   51.7971   62.8282   14.3807 C   0  0  0  0  0  0  0  0  0  0  0  0
   51.6053   63.3177   13.0589 C   0  0  0  0  0  0  0  0  0  0  0  0
   50.4988   64.0757   12.7331 N   0  0  0  0  0  0  0  0  0  0  0  0
   51.1203   62.9181   15.5390 N   0  0  0  0  0  0  0  0  0  0  0  0
   51.7638   62.2638   16.4687 C   0  0  0  0  0  0  0  0  0  0  0  0
   52.8982   61.6920   15.9644 N   0  0  0  0  0  0  0  0  0  0  0  0
  2  1  1  1  0  0  0
  2  3  1  0  0  0  0
  2  5  1  0  0  0  0
  3  4  1  0  0  0  0
  3 17  1  0  0  0  0
  5  6  1  0  0  0  0
  7  6  1  6  0  0  0
  7  8  1  0  0  0  0
  7  9  1  0  0  0  0
 10  9  1  1  0  0  0
 10 11  1  0  0  0  0
 10 12  1  0  0  0  0
 11 16  1  0  0  0  0
 12 13  1  1  0  0  0
 12 14  1  0  0  0  0
 14 15  1  6  0  0  0
 14 16  1  0  0  0  0
 16 27  1  1  0  0  0
 18 19  2  0  0  0  0
 18 23  1  0  0  0  0
 19 20  1  0  0  0  0
 20 21  2  0  0  0  0
 21 22  1  0  0  0  0
 21 27  1  0  0  0  0
 22 23  2  0  0  0  0
 22 25  1  0  0  0  0
 23 24  1  0  0  0  0
 25 26  2  0  0  0  0
 26 27  1  0  0  0  0
M  END
>  <CHROM.1>
148.14310625,-166.99943909,-176.16654500,57.82269927,-68.27868361,36.19778599
121.82477721,53.44768770,62.43436190,17.59684335,0.97912469,-1.22066998,0.76020978

>  <Name>
ligand

>  <RI>
0

>  <Rbt.Current_Directory>
/home/itssahil/PROJECTS/Mol_Feturizer/New_Systems/rnas/3IQR

>  <Rbt.Executable>
rbdock ($Id: //depot/dev/client3/rdock/2013.1/src/exe/rbdock.cxx#4 $)

>  <Rbt.Library>
libRbt.so (2013.1, Build901 2013/11/27)

>  <Rbt.Parameter_File>
/export/apps/rDock/src/rDock_2013.1_src/data/scripts/dock_solv.prm

>  <Rbt.Receptor>
prm/blind_docking_100.prm

>  <SCORE>
-11.4851

>  <SCORE.INTER>
-6.07324

>  <SCORE.INTER.CONST>
1

>  <SCORE.INTER.POLAR>
0

>  <SCORE.INTER.ROT>
7

>  <SCORE.INTER.SOLV>
5.05417

>  <SCORE.INTER.VDW>
-14.0002

>  <SCORE.INTER.norm>
-0.224935

>  <SCORE.INTRA>
-5.41184

>  <SCORE.INTRA.DIHEDRAL>
-3.13557

>  <SCORE.INTRA.DIHEDRAL.0>
9.29433

>  <SCORE.INTRA.POLAR>
0

>  <SCORE.INTRA.POLAR.0>
0

>  <SCORE.INTRA.REPUL>
0

>  <SCORE.INTRA.REPUL.0>
0

>  <SCORE.INTRA.SOLV>
-1.62265

>  <SCORE.INTRA.SOLV.lig_0>
-48.5102

>  <SCORE.INTRA.VDW>
-3.03274

>  <SCORE.INTRA.VDW.0>
0.379549

>  <SCORE.INTRA.norm>
-0.200439

>  <SCORE.RESTR>
0

>  <SCORE.RESTR.CAVITY>
0

>  <SCORE.RESTR.norm>
0

>  <SCORE.SYSTEM>
0

>  <SCORE.SYSTEM.CONST>
0

>  <SCORE.SYSTEM.DIHEDRAL>
0

>  <SCORE.SYSTEM.SOLV>
0

>  <SCORE.SYSTEM.norm>
0

>  <SCORE.heavy>
27

>  <SCORE.norm>
-0.425373

>  <RMSD>
16.698

$$$$
ligand
 OpenBabel11021811483D
libRbt.so/2013.1/901 2013/11/27
 27 29  0  0  0  0  0  0  0  0999 V2000
   51.9906   59.3110   12.0919 N   0  0  0  0  0  0  0  0  0  0  0  0
   53.4454   59.1860   12.1677 C   0  0  2  0  0  0  0  0  0  0  0  0
   54.0704   59.9866   11.0619 C   0  0  0  0  0  0  0  0  0  0  0  0
   54.0726   59.5505    9.9155 O   0  0  0  0  0  0  0  0  0  0  0  0
   53.8605   57.7227   12.0211 C   0  0  0  0  0  0  0  0  0  0  0  0
   55.3654   57.6195   12.1903 C   0  0  0  0  0  0  0  0  0  0  0  0
   55.9718   55.9097   12.3500 S   0  0  2  0  0  0  0  0  0  0  0  0
   54.7542   54.9092   11.4451 C   0  0  0  0  0  0  0  0  0  0  0  0
   55.2525   55.3359   14.0044 C   0  0  0  0  0  0  0  0  0  0  0  0
   53.9759   56.0688   14.5955 C   0  0  2  0  0  0  0  0  0  0  0  0
   54.1360   57.3584   15.1419 O   0  0  0  0  0  0  0  0  0  0  0  0
   53.0109   55.3400   15.4422 C   0  0  1  0  0  0  0  0  0  0  0  0
   53.1347   53.9221   15.3246 O   0  0  0  0  0  0  0  0  0  0  0  0
   53.4918   55.9558   16.8403 C   0  0  2  0  0  0  0  0  0  0  0  0
   52.5847   55.6475   17.8557 O   0  0  0  0  0  0  0  0  0  0  0  0
   53.4979   57.4439   16.4958 C   0  0  1  0  0  0  0  0  0  0  0  0
   54.5393   61.0918   11.3019 O   0  0  0  0  0  0  0  0  0  0  0  0
   52.7725   61.3054   19.7658 N   0  0  0  0  0  0  0  0  0  0  0  0
   51.8974   60.5318   19.1180 C   0  0  0  0  0  0  0  0  0  0  0  0
   52.3050   59.5500   18.3190 N   0  0  0  0  0  0  0  0  0  0  0  0
   53.6062   59.3630   18.0469 C   0  0  0  0  0  0  0  0  0  0  0  0
   54.5722   60.1961   18.6682 C   0  0  0  0  0  0  0  0  0  0  0  0
   54.1004   61.1941   19.5654 C   0  0  0  0  0  0  0  0  0  0  0  0
   54.9770   62.0344   20.2215 N   0  0  0  0  0  0  0  0  0  0  0  0
   55.7800   59.8051   18.2254 N   0  0  0  0  0  0  0  0  0  0  0  0
   55.6342   58.8141   17.3868 C   0  0  0  0  0  0  0  0  0  0  0  0
   54.3145   58.4882   17.2440 N   0  0  0  0  0  0  0  0  0  0  0  0
  2  1  1  6  0  0  0
  2  3  1  0  0  0  0
  2  5  1  0  0  0  0
  3  4  1  0  0  0  0
  3 17  1  0  0  0  0
  5  6  1  0  0  0  0
  7  6  1  6  0  0  0
  7  8  1  0  0  0  0
  7  9  1  0  0  0  0
 10  9  1  1  0  0  0
 10 11  1  0  0  0  0
 10 12  1  0  0  0  0
 11 16  1  0  0  0  0
 12 13  1  1  0  0  0
 12 14  1  0  0  0  0
 14 15  1  1  0  0  0
 14 16  1  0  0  0  0
 16 27  1  1  0  0  0
 18 19  2  0  0  0  0
 18 23  1  0  0  0  0
 19 20  1  0  0  0  0
 20 21  2  0  0  0  0
 21 22  1  0  0  0  0
 21 27  1  0  0  0  0
 22 23  2  0  0  0  0
 22 25  1  0  0  0  0
 23 24  1  0  0  0  0
 25 26  2  0  0  0  0
 26 27  1  0  0  0  0
M  END
>  <CHROM.1>
-77.18967112,-176.52908494,169.23888988,27.82615771,22.10232298,-73.66588479
140.18528312,54.06082581,58.11019739,15.19134314,-0.28227332,1.46592513,-0.09656690

>  <Name>
ligand

>  <RI>
0

>  <Rbt.Current_Directory>
/home/itssahil/PROJECTS/Mol_Feturizer/New_Systems/rnas/3IQR

>  <Rbt.Executable>
rbdock ($Id: //depot/dev/client3/rdock/2013.1/src/exe/rbdock.cxx#4 $)

>  <Rbt.Library>
libRbt.so (2013.1, Build901 2013/11/27)

>  <Rbt.Parameter_File>
/export/apps/rDock/src/rDock_2013.1_src/data/scripts/dock_solv.prm

>  <Rbt.Receptor>
prm/blind_docking_100.prm

>  <SCORE>
-16.1951

>  <SCORE.INTER>
-14.007

>  <SCORE.INTER.CONST>
1

>  <SCORE.INTER.POLAR>
0

>  <SCORE.INTER.ROT>
7

>  <SCORE.INTER.SOLV>
7.57202

>  <SCORE.INTER.VDW>
-20.1287

>  <SCORE.INTER.norm>
-0.51878

>  <SCORE.INTRA>
-2.18803

>  <SCORE.INTRA.DIHEDRAL>
-1.38432

>  <SCORE.INTRA.DIHEDRAL.0>
9.29433

>  <SCORE.INTRA.POLAR>
0

>  <SCORE.INTRA.POLAR.0>
0

>  <SCORE.INTRA.REPUL>
0

>  <SCORE.INTRA.REPUL.0>
0

>  <SCORE.INTRA.SOLV>
-1.47724

>  <SCORE.INTRA.SOLV.lig_0>
-48.5102

>  <SCORE.INTRA.VDW>
-0.75725

>  <SCORE.INTRA.VDW.0>
0.379549

>  <SCORE.INTRA.norm>
-0.081038

>  <SCORE.RESTR>
0

>  <SCORE.RESTR.CAVITY>
0

>  <SCORE.RESTR.norm>
0

>  <SCORE.SYSTEM>
0

>  <SCORE.SYSTEM.CONST>
0

>  <SCORE.SYSTEM.DIHEDRAL>
0

>  <SCORE.SYSTEM.SOLV>
0

>  <SCORE.SYSTEM.norm>
0

>  <SCORE.heavy>
27

>  <SCORE.norm>
-0.599818

>  <RMSD>
16.806

$$$$
ligand
 OpenBabel11021811483D
libRbt.so/2013.1/901 2013/11/27
 27 29  0  0  0  0  0  0  0  0999 V2000
   53.3335   55.1927   18.1894 N   0  0  0  0  0  0  0  0  0  0  0  0
   53.1552   55.3835   16.7508 C   0  0  2  0  0  0  0  0  0  0  0  0
   53.5033   54.1106   16.0347 C   0  0  0  0  0  0  0  0  0  0  0  0
   54.3311   53.3438   16.5156 O   0  0  0  0  0  0  0  0  0  0  0  0
   54.0639   56.5043   16.2476 C   0  0  0  0  0  0  0  0  0  0  0  0
   53.6960   57.7926   16.9610 C   0  0  0  0  0  0  0  0  0  0  0  0
   54.5674   59.2599   16.3250 S   0  0  2  0  0  0  0  0  0  0  0  0
   56.2175   59.1718   17.0812 C   0  0  0  0  0  0  0  0  0  0  0  0
   54.0615   60.6325   17.5266 C   0  0  0  0  0  0  0  0  0  0  0  0
   52.5244   60.9760   17.7152 C   0  0  2  0  0  0  0  0  0  0  0  0
   51.7950   61.4236   16.5949 O   0  0  0  0  0  0  0  0  0  0  0  0
   52.0600   61.7432   18.8878 C   0  0  1  0  0  0  0  0  0  0  0  0
   53.0196   61.7690   19.9452 O   0  0  0  0  0  0  0  0  0  0  0  0
   51.8455   63.1344   18.1238 C   0  0  2  0  0  0  0  0  0  0  0  0
   51.1494   64.0389   18.9277 O   0  0  0  0  0  0  0  0  0  0  0  0
   51.0216   62.6643   16.9266 C   0  0  1  0  0  0  0  0  0  0  0  0
   52.9285   53.8227   14.9927 O   0  0  0  0  0  0  0  0  0  0  0  0
   52.7917   66.9603   14.7954 N   0  0  0  0  0  0  0  0  0  0  0  0
   52.9123   66.4864   16.0383 C   0  0  0  0  0  0  0  0  0  0  0  0
   52.3864   65.3148   16.3832 N   0  0  0  0  0  0  0  0  0  0  0  0
   51.6246   64.6109   15.5310 C   0  0  0  0  0  0  0  0  0  0  0  0
   51.4208   65.1006   14.2149 C   0  0  0  0  0  0  0  0  0  0  0  0
   52.0520   66.3263   13.8642 C   0  0  0  0  0  0  0  0  0  0  0  0
   51.9158   66.8617   12.5994 N   0  0  0  0  0  0  0  0  0  0  0  0
   50.6277   64.2199   13.5800 N   0  0  0  0  0  0  0  0  0  0  0  0
   50.3266   63.2431   14.3933 C   0  0  0  0  0  0  0  0  0  0  0  0
   50.9222   63.4226   15.6104 N   0  0  0  0  0  0  0  0  0  0  0  0
  2  1  1  1  0  0  0
  2  3  1  0  0  0  0
  2  5  1  0  0  0  0
  3  4  1  0  0  0  0
  3 17  1  0  0  0  0
  5  6  1  0  0  0  0
  7  6  1  1  0  0  0
  7  8  1  0  0  0  0
  7  9  1  0  0  0  0
 10  9  1  6  0  0  0
 10 11  1  0  0  0  0
 10 12  1  0  0  0  0
 11 16  1  0  0  0  0
 12 13  1  1  0  0  0
 12 14  1  0  0  0  0
 14 15  1  1  0  0  0
 14 16  1  0  0  0  0
 16 27  1  6  0  0  0
 18 19  2  0  0  0  0
 18 23  1  0  0  0  0
 19 20  1  0  0  0  0
 20 21  2  0  0  0  0
 21 22  1  0  0  0  0
 21 27  1  0  0  0  0
 22 23  2  0  0  0  0
 22 25  1  0  0  0  0
 23 24  1  0  0  0  0
 25 26  2  0  0  0  0
 26 27  1  0  0  0  0
M  END
>  <CHROM.1>
-29.06846802,-60.68280739,-173.32959622,-79.15829997,-58.21204641,-61.14552002
-111.91100388,52.72905219,61.02560004,16.37682163,-0.44512647,-1.34223685
0.97853640

>  <Name>
ligand

>  <RI>
0

>  <Rbt.Current_Directory>
/home/itssahil/PROJECTS/Mol_Feturizer/New_Systems/rnas/3IQR

>  <Rbt.Executable>
rbdock ($Id: //depot/dev/client3/rdock/2013.1/src/exe/rbdock.cxx#4 $)

>  <Rbt.Library>
libRbt.so (2013.1, Build901 2013/11/27)

>  <Rbt.Parameter_File>
/export/apps/rDock/src/rDock_2013.1_src/data/scripts/dock_solv.prm

>  <Rbt.Receptor>
prm/blind_docking_100.prm

>  <SCORE>
-17.8996

>  <SCORE.INTER>
-12.5798

>  <SCORE.INTER.CONST>
1

>  <SCORE.INTER.POLAR>
0

>  <SCORE.INTER.ROT>
7

>  <SCORE.INTER.SOLV>
9.10458

>  <SCORE.INTER.VDW>
-19.6881

>  <SCORE.INTER.norm>
-0.46592

>  <SCORE.INTRA>
-5.31977

>  <SCORE.INTRA.DIHEDRAL>
-4.74655

>  <SCORE.INTRA.DIHEDRAL.0>
9.29433

>  <SCORE.INTRA.POLAR>
0

>  <SCORE.INTRA.POLAR.0>
0

>  <SCORE.INTRA.REPUL>
0

>  <SCORE.INTRA.REPUL.0>
0

>  <SCORE.INTRA.SOLV>
-1.09549

>  <SCORE.INTRA.SOLV.lig_0>
-48.5102

>  <SCORE.INTRA.VDW>
-2.39875

>  <SCORE.INTRA.VDW.0>
0.379549

>  <SCORE.INTRA.norm>
-0.197028

>  <SCORE.RESTR>
0

>  <SCORE.RESTR.CAVITY>
0

>  <SCORE.RESTR.norm>
0

>  <SCORE.SYSTEM>
0

>  <SCORE.SYSTEM.CONST>
0

>  <SCORE.SYSTEM.DIHEDRAL>
0

>  <SCORE.SYSTEM.SOLV>
0

>  <SCORE.SYSTEM.norm>
0

>  <SCORE.heavy>
27

>  <SCORE.norm>
-0.662948

>  <RMSD>
16.809

$$$$
ligand
 OpenBabel11021811483D
libRbt.so/2013.1/901 2013/11/27
 27 29  0  0  0  0  0  0  0  0999 V2000
   53.9642   55.0979   18.1546 N   0  0  0  0  0  0  0  0  0  0  0  0
   53.2672   55.9147   17.1622 C   0  0  2  0  0  0  0  0  0  0  0  0
   53.3941   55.2703   15.8121 C   0  0  0  0  0  0  0  0  0  0  0  0
   52.6401   55.5998   14.9026 O   0  0  0  0  0  0  0  0  0  0  0  0
   53.8753   57.3155   17.1063 C   0  0  0  0  0  0  0  0  0  0  0  0
   53.1406   58.2096   18.0885 C   0  0  0  0  0  0  0  0  0  0  0  0
   53.1865   59.9767   17.6505 S   0  0  2  0  0  0  0  0  0  0  0  0
   54.8221   60.5404   18.2066 C   0  0  0  0  0  0  0  0  0  0  0  0
   52.3630   60.8227   19.1304 C   0  0  0  0  0  0  0  0  0  0  0  0
   51.9983   62.3640   19.0435 C   0  0  2  0  0  0  0  0  0  0  0  0
   51.2162   62.8078   17.9579 O   0  0  0  0  0  0  0  0  0  0  0  0
   53.0167   63.3978   19.3143 C   0  0  1  0  0  0  0  0  0  0  0  0
   54.1523   62.8839   20.0113 O   0  0  0  0  0  0  0  0  0  0  0  0
   53.2767   63.8038   17.7870 C   0  0  2  0  0  0  0  0  0  0  0  0
   54.0354   64.9730   17.7074 O   0  0  0  0  0  0  0  0  0  0  0  0
   51.8399   64.0073   17.3100 C   0  0  1  0  0  0  0  0  0  0  0  0
   54.2780   54.4469   15.6123 O   0  0  0  0  0  0  0  0  0  0  0  0
   51.4420   67.0568   13.2268 N   0  0  0  0  0  0  0  0  0  0  0  0
   51.7630   67.3297   14.4942 C   0  0  0  0  0  0  0  0  0  0  0  0
   51.8340   66.3677   15.4095 N   0  0  0  0  0  0  0  0  0  0  0  0
   51.4843   65.1032   15.1252 C   0  0  0  0  0  0  0  0  0  0  0  0
   51.0824   64.7740   13.8049 C   0  0  0  0  0  0  0  0  0  0  0  0
   51.0800   65.8181   12.8386 C   0  0  0  0  0  0  0  0  0  0  0  0
   50.7169   65.5764   11.5292 N   0  0  0  0  0  0  0  0  0  0  0  0
   50.7855   63.4627   13.7935 N   0  0  0  0  0  0  0  0  0  0  0  0
   50.9650   62.9674   14.9888 C   0  0  0  0  0  0  0  0  0  0  0  0
   51.4071   63.9299   15.8527 N   0  0  0  0  0  0  0  0  0  0  0  0
  2  1  1  1  0  0  0
  2  3  1  0  0  0  0
  2  5  1  0  0  0  0
  3  4  1  0  0  0  0
  3 17  1  0  0  0  0
  5  6  1  0  0  0  0
  7  6  1  1  0  0  0
  7  8  1  0  0  0  0
  7  9  1  0  0  0  0
 10  9  1  6  0  0  0
 10 11  1  0  0  0  0
 10 12  1  0  0  0  0
 11 16  1  0  0  0  0
 12 13  1  6  0  0  0
 12 14  1  0  0  0  0
 14 15  1  1  0  0  0
 14 16  1  0  0  0  0
 16 27  1  6  0  0  0
 18 19  2  0  0  0  0
 18 23  1  0  0  0  0
 19 20  1  0  0  0  0
 20 21  2  0  0  0  0
 21 22  1  0  0  0  0
 21 27  1  0  0  0  0
 22 23  2  0  0  0  0
 22 25  1  0  0  0  0
 23 24  1  0  0  0  0
 25 26  2  0  0  0  0
 26 27  1  0  0  0  0
M  END
>  <CHROM.1>
162.88411423,-90.52746342,-153.93895569,-79.86308191,-170.45702279,53.67961889
160.45750190,52.56496491,61.65855774,16.49244767,0.88284633,1.23390910,-2.72815499

>  <Name>
ligand

>  <RI>
0

>  <Rbt.Current_Directory>
/home/itssahil/PROJECTS/Mol_Feturizer/New_Systems/rnas/3IQR

>  <Rbt.Executable>
rbdock ($Id: //depot/dev/client3/rdock/2013.1/src/exe/rbdock.cxx#4 $)

>  <Rbt.Library>
libRbt.so (2013.1, Build901 2013/11/27)

>  <Rbt.Parameter_File>
/export/apps/rDock/src/rDock_2013.1_src/data/scripts/dock_solv.prm

>  <Rbt.Receptor>
prm/blind_docking_100.prm

>  <SCORE>
-15.4807

>  <SCORE.INTER>
-12.145

>  <SCORE.INTER.CONST>
1

>  <SCORE.INTER.POLAR>
0

>  <SCORE.INTER.ROT>
7

>  <SCORE.INTER.SOLV>
6.58096

>  <SCORE.INTER.VDW>
-18.557

>  <SCORE.INTER.norm>
-0.449816

>  <SCORE.INTRA>
-3.35111

>  <SCORE.INTRA.DIHEDRAL>
0.788366

>  <SCORE.INTRA.DIHEDRAL.0>
9.29433

>  <SCORE.INTRA.POLAR>
0

>  <SCORE.INTRA.POLAR.0>
0

>  <SCORE.INTRA.REPUL>
0

>  <SCORE.INTRA.REPUL.0>
0

>  <SCORE.INTRA.SOLV>
-0.93379

>  <SCORE.INTRA.SOLV.lig_0>
-48.5102

>  <SCORE.INTRA.VDW>
-3.2784

>  <SCORE.INTRA.VDW.0>
0.379549

>  <SCORE.INTRA.norm>
-0.124115

>  <SCORE.RESTR>
0.0154454

>  <SCORE.RESTR.CAVITY>
0.0154454

>  <SCORE.RESTR.norm>
0.000572053

>  <SCORE.SYSTEM>
0

>  <SCORE.SYSTEM.CONST>
0

>  <SCORE.SYSTEM.DIHEDRAL>
0

>  <SCORE.SYSTEM.SOLV>
0

>  <SCORE.SYSTEM.norm>
0

>  <SCORE.heavy>
27

>  <SCORE.norm>
-0.573359

>  <RMSD>
16.929

$$$$
ligand
 OpenBabel11021811483D
libRbt.so/2013.1/901 2013/11/27
 27 29  0  0  0  0  0  0  0  0999 V2000
   54.1965   55.0474   16.6830 N   0  0  0  0  0  0  0  0  0  0  0  0
   53.3429   55.9809   17.4163 C   0  0  2  0  0  0  0  0  0  0  0  0
   51.9327   55.8621   16.9149 C   0  0  0  0  0  0  0  0  0  0  0  0
   50.9939   55.9529   17.6991 O   0  0  0  0  0  0  0  0  0  0  0  0
   53.8269   57.4157   17.2108 C   0  0  0  0  0  0  0  0  0  0  0  0
   53.0804   58.3278   18.1673 C   0  0  0  0  0  0  0  0  0  0  0  0
   53.1517   60.0892   17.7102 S   0  0  2  0  0  0  0  0  0  0  0  0
   54.6605   60.7065   18.5133 C   0  0  0  0  0  0  0  0  0  0  0  0
   52.0776   60.9323   19.0215 C   0  0  0  0  0  0  0  0  0  0  0  0
   51.6092   62.4314   18.7995 C   0  0  2  0  0  0  0  0  0  0  0  0
   50.9241   62.7506   17.6095 O   0  0  0  0  0  0  0  0  0  0  0  0
   52.5089   63.5586   19.1147 C   0  0  1  0  0  0  0  0  0  0  0  0
   53.5937   63.1780   19.9620 O   0  0  0  0  0  0  0  0  0  0  0  0
   52.9092   63.9023   17.6024 C   0  0  2  0  0  0  0  0  0  0  0  0
   53.5811   65.1241   17.5333 O   0  0  0  0  0  0  0  0  0  0  0  0
   51.5246   63.9610   16.9600 C   0  0  1  0  0  0  0  0  0  0  0  0
   51.7236   55.7160   15.7174 O   0  0  0  0  0  0  0  0  0  0  0  0
   51.0187   66.7858   12.7297 N   0  0  0  0  0  0  0  0  0  0  0  0
   51.1517   67.1436   14.0096 C   0  0  0  0  0  0  0  0  0  0  0  0
   51.2969   66.2334   14.9681 N   0  0  0  0  0  0  0  0  0  0  0  0
   51.2098   64.9198   14.7056 C   0  0  0  0  0  0  0  0  0  0  0  0
   51.0132   64.4906   13.3675 C   0  0  0  0  0  0  0  0  0  0  0  0
   50.9259   65.4927   12.3616 C   0  0  0  0  0  0  0  0  0  0  0  0
   50.7505   65.1569   11.0344 N   0  0  0  0  0  0  0  0  0  0  0  0
   50.9576   63.1473   13.3835 N   0  0  0  0  0  0  0  0  0  0  0  0
   51.0965   62.7225   14.6109 C   0  0  0  0  0  0  0  0  0  0  0  0
   51.2673   63.7703   15.4718 N   0  0  0  0  0  0  0  0  0  0  0  0
  2  1  1  6  0  0  0
  2  3  1  0  0  0  0
  2  5  1  0  0  0  0
  3  4  1  0  0  0  0
  3 17  1  0  0  0  0
  5  6  1  0  0  0  0
  7  6  1  1  0  0  0
  7  8  1  0  0  0  0
  7  9  1  0  0  0  0
 10  9  1  6  0  0  0
 10 11  1  0  0  0  0
 10 12  1  0  0  0  0
 11 16  1  0  0  0  0
 12 13  1  1  0  0  0
 12 14  1  0  0  0  0
 14 15  1  1  0  0  0
 14 16  1  0  0  0  0
 16 27  1  6  0  0  0
 18 19  2  0  0  0  0
 18 23  1  0  0  0  0
 19 20  1  0  0  0  0
 20 21  2  0  0  0  0
 21 22  1  0  0  0  0
 21 27  1  0  0  0  0
 22 23  2  0  0  0  0
 22 25  1  0  0  0  0
 23 24  1  0  0  0  0
 25 26  2  0  0  0  0
 26 27  1  0  0  0  0
M  END
>  <CHROM.1>
142.61607072,-170.21355910,-162.07415577,-88.27352281,-166.25595828,54.77025058
154.43990371,52.16711918,61.71205232,16.41691263,1.04673322,1.22698020,-3.01341956

>  <Name>
ligand

>  <RI>
0

>  <Rbt.Current_Directory>
/home/itssahil/PROJECTS/Mol_Feturizer/New_Systems/rnas/3IQR

>  <Rbt.Executable>
rbdock ($Id: //depot/dev/client3/rdock/2013.1/src/exe/rbdock.cxx#4 $)

>  <Rbt.Library>
libRbt.so (2013.1, Build901 2013/11/27)

>  <Rbt.Parameter_File>
/export/apps/rDock/src/rDock_2013.1_src/data/scripts/dock_solv.prm

>  <Rbt.Receptor>
prm/blind_docking_100.prm

>  <SCORE>
-19.0642

>  <SCORE.INTER>
-14.0829

>  <SCORE.INTER.CONST>
1

>  <SCORE.INTER.POLAR>
0

>  <SCORE.INTER.ROT>
7

>  <SCORE.INTER.SOLV>
8.20456

>  <SCORE.INTER.VDW>
-20.3901

>  <SCORE.INTER.norm>
-0.521589

>  <SCORE.INTRA>
-4.98126

>  <SCORE.INTRA.DIHEDRAL>
-2.0968

>  <SCORE.INTRA.DIHEDRAL.0>
9.29433

>  <SCORE.INTRA.POLAR>
0

>  <SCORE.INTRA.POLAR.0>
0

>  <SCORE.INTRA.REPUL>
0

>  <SCORE.INTRA.REPUL.0>
0

>  <SCORE.INTRA.SOLV>
-1.44097

>  <SCORE.INTRA.SOLV.lig_0>
-48.5102

>  <SCORE.INTRA.VDW>
-3.21238

>  <SCORE.INTRA.VDW.0>
0.379549

>  <SCORE.INTRA.norm>
-0.184491

>  <SCORE.RESTR>
0

>  <SCORE.RESTR.CAVITY>
0

>  <SCORE.RESTR.norm>
0

>  <SCORE.SYSTEM>
0

>  <SCORE.SYSTEM.CONST>
0

>  <SCORE.SYSTEM.DIHEDRAL>
0

>  <SCORE.SYSTEM.SOLV>
0

>  <SCORE.SYSTEM.norm>
0

>  <SCORE.heavy>
27

>  <SCORE.norm>
-0.70608

>  <RMSD>
16.944

$$$$
ligand
 OpenBabel11021811483D
libRbt.so/2013.1/901 2013/11/27
 27 29  0  0  0  0  0  0  0  0999 V2000
   54.3822   60.3262   17.4894 N   0  0  0  0  0  0  0  0  0  0  0  0
   53.2965   61.2725   17.7421 C   0  0  2  0  0  0  0  0  0  0  0  0
   52.1932   60.5749   18.4838 C   0  0  0  0  0  0  0  0  0  0  0  0
   52.1679   59.3497   18.5341 O   0  0  0  0  0  0  0  0  0  0  0  0
   52.7471   61.8140   16.4230 C   0  0  0  0  0  0  0  0  0  0  0  0
   53.8140   62.6654   15.7589 C   0  0  0  0  0  0  0  0  0  0  0  0
   53.2426   63.5196   14.2554 S   0  0  2  0  0  0  0  0  0  0  0  0
   53.4959   62.3112   12.9221 C   0  0  0  0  0  0  0  0  0  0  0  0
   54.7640   64.4966   13.6943 C   0  0  0  0  0  0  0  0  0  0  0  0
   55.3285   65.6575   14.6162 C   0  0  2  0  0  0  0  0  0  0  0  0
   56.1651   65.3094   15.6961 O   0  0  0  0  0  0  0  0  0  0  0  0
   54.4540   66.7594   15.0638 C   0  0  1  0  0  0  0  0  0  0  0  0
   53.2588   66.8644   14.2893 O   0  0  0  0  0  0  0  0  0  0  0  0
   54.2538   66.2368   16.5645 C   0  0  2  0  0  0  0  0  0  0  0  0
   53.6557   67.2193   17.3556 O   0  0  0  0  0  0  0  0  0  0  0  0
   55.7062   65.9750   16.9586 C   0  0  1  0  0  0  0  0  0  0  0  0
   51.3447   61.2336   19.0713 O   0  0  0  0  0  0  0  0  0  0  0  0
   53.5691   62.9752   20.5033 N   0  0  0  0  0  0  0  0  0  0  0  0
   53.0226   63.8389   19.6434 C   0  0  0  0  0  0  0  0  0  0  0  0
   53.7703   64.5113   18.7732 N   0  0  0  0  0  0  0  0  0  0  0  0
   55.1102   64.4317   18.7926 C   0  0  0  0  0  0  0  0  0  0  0  0
   55.7411   63.5689   19.7258 C   0  0  0  0  0  0  0  0  0  0  0  0
   54.9042   62.8185   20.5977 C   0  0  0  0  0  0  0  0  0  0  0  0
   55.4397   61.9458   21.5232 N   0  0  0  0  0  0  0  0  0  0  0  0
   57.0679   63.6806   19.5386 N   0  0  0  0  0  0  0  0  0  0  0  0
   57.2996   64.5376   18.5803 C   0  0  0  0  0  0  0  0  0  0  0  0
   56.1291   65.0273   18.0723 N   0  0  0  0  0  0  0  0  0  0  0  0
  2  1  1  6  0  0  0
  2  3  1  0  0  0  0
  2  5  1  0  0  0  0
  3  4  1  0  0  0  0
  3 17  1  0  0  0  0
  5  6  1  0  0  0  0
  7  6  1  1  0  0  0
  7  8  1  0  0  0  0
  7  9  1  0  0  0  0
 10  9  1  1  0  0  0
 10 11  1  0  0  0  0
 10 12  1  0  0  0  0
 11 16  1  0  0  0  0
 12 13  1  6  0  0  0
 12 14  1  0  0  0  0
 14 15  1  1  0  0  0
 14 16  1  0  0  0  0
 16 27  1  1  0  0  0
 18 19  2  0  0  0  0
 18 23  1  0  0  0  0
 19 20  1  0  0  0  0
 20 21  2  0  0  0  0
 21 22  1  0  0  0  0
 21 27  1  0  0  0  0
 22 23  2  0  0  0  0
 22 25  1  0  0  0  0
 23 24  1  0  0  0  0
 25 26  2  0  0  0  0
 26 27  1  0  0  0  0
M  END
>  <CHROM.1>
-15.18674055,-66.98858453,-174.06671407,-86.43921576,-64.57904372,81.64739621
-114.54072937,54.21535221,63.65400724,17.22007918,1.76300005,0.97820637,2.08543442

>  <Name>
ligand

>  <RI>
0

>  <Rbt.Current_Directory>
/home/itssahil/PROJECTS/Mol_Feturizer/New_Systems/rnas/3IQR

>  <Rbt.Executable>
rbdock ($Id: //depot/dev/client3/rdock/2013.1/src/exe/rbdock.cxx#4 $)

>  <Rbt.Library>
libRbt.so (2013.1, Build901 2013/11/27)

>  <Rbt.Parameter_File>
/export/apps/rDock/src/rDock_2013.1_src/data/scripts/dock_solv.prm

>  <Rbt.Receptor>
prm/blind_docking_100.prm

>  <SCORE>
-15.6419

>  <SCORE.INTER>
-7.89634

>  <SCORE.INTER.CONST>
1

>  <SCORE.INTER.POLAR>
0

>  <SCORE.INTER.ROT>
7

>  <SCORE.INTER.SOLV>
6.5626

>  <SCORE.INTER.VDW>
-15.7184

>  <SCORE.INTER.norm>
-0.292457

>  <SCORE.INTRA>
-7.74553

>  <SCORE.INTRA.DIHEDRAL>
-3.22597

>  <SCORE.INTRA.DIHEDRAL.0>
9.29433

>  <SCORE.INTRA.POLAR>
0

>  <SCORE.INTRA.POLAR.0>
0

>  <SCORE.INTRA.REPUL>
0

>  <SCORE.INTRA.REPUL.0>
0

>  <SCORE.INTRA.SOLV>
-0.420838

>  <SCORE.INTRA.SOLV.lig_0>
-48.5102

>  <SCORE.INTRA.VDW>
-5.92213

>  <SCORE.INTRA.VDW.0>
0.379549

>  <SCORE.INTRA.norm>
-0.286872

>  <SCORE.RESTR>
0

>  <SCORE.RESTR.CAVITY>
0

>  <SCORE.RESTR.norm>
0

>  <SCORE.SYSTEM>
0

>  <SCORE.SYSTEM.CONST>
0

>  <SCORE.SYSTEM.DIHEDRAL>
0

>  <SCORE.SYSTEM.SOLV>
0

>  <SCORE.SYSTEM.norm>
0

>  <SCORE.heavy>
27

>  <SCORE.norm>
-0.579329

>  <RMSD>
17.340

$$$$
ligand
 OpenBabel11021811483D
libRbt.so/2013.1/901 2013/11/27
 27 29  0  0  0  0  0  0  0  0999 V2000
   53.2339   56.5324   13.6491 N   0  0  0  0  0  0  0  0  0  0  0  0
   54.6937   56.4705   13.7024 C   0  0  2  0  0  0  0  0  0  0  0  0
   55.1447   55.0839   13.3444 C   0  0  0  0  0  0  0  0  0  0  0  0
   54.4685   54.1153   13.6746 O   0  0  0  0  0  0  0  0  0  0  0  0
   55.1881   56.8093   15.1081 C   0  0  0  0  0  0  0  0  0  0  0  0
   54.8025   58.2410   15.4328 C   0  0  0  0  0  0  0  0  0  0  0  0
   55.4585   58.8364   17.0239 S   0  0  2  0  0  0  0  0  0  0  0  0
   54.3656   58.0950   18.2722 C   0  0  0  0  0  0  0  0  0  0  0  0
   54.6185   60.5179   17.2494 C   0  0  0  0  0  0  0  0  0  0  0  0
   53.0730   60.6670   16.9247 C   0  0  2  0  0  0  0  0  0  0  0  0
   52.6820   61.5905   15.9340 O   0  0  0  0  0  0  0  0  0  0  0  0
   52.0751   60.7258   18.0110 C   0  0  1  0  0  0  0  0  0  0  0  0
   52.5873   60.2510   19.2567 O   0  0  0  0  0  0  0  0  0  0  0  0
   51.8139   62.3042   17.9350 C   0  0  2  0  0  0  0  0  0  0  0  0
   50.6973   62.6587   18.6941 O   0  0  0  0  0  0  0  0  0  0  0  0
   51.5761   62.4699   16.4353 C   0  0  1  0  0  0  0  0  0  0  0  0
   56.1660   54.9276   12.6875 O   0  0  0  0  0  0  0  0  0  0  0  0
   49.4188   65.0420   12.5803 N   0  0  0  0  0  0  0  0  0  0  0  0
   49.1797   63.8174   13.0568 C   0  0  0  0  0  0  0  0  0  0  0  0
   49.8500   63.3416   14.1021 N   0  0  0  0  0  0  0  0  0  0  0  0
   50.8643   64.0261   14.6543 C   0  0  0  0  0  0  0  0  0  0  0  0
   51.1932   65.3098   14.1470 C   0  0  0  0  0  0  0  0  0  0  0  0
   50.4119   65.8109   13.0690 C   0  0  0  0  0  0  0  0  0  0  0  0
   50.6583   67.0571   12.5293 N   0  0  0  0  0  0  0  0  0  0  0  0
   52.2340   65.7676   14.8646 N   0  0  0  0  0  0  0  0  0  0  0  0
   52.5705   64.8755   15.7576 C   0  0  0  0  0  0  0  0  0  0  0  0
   51.7536   63.7821   15.6845 N   0  0  0  0  0  0  0  0  0  0  0  0
  2  1  1  1  0  0  0
  2  3  1  0  0  0  0
  2  5  1  0  0  0  0
  3  4  1  0  0  0  0
  3 17  1  0  0  0  0
  5  6  1  0  0  0  0
  7  6  1  6  0  0  0
  7  8  1  0  0  0  0
  7  9  1  0  0  0  0
 10  9  1  1  0  0  0
 10 11  1  0  0  0  0
 10 12  1  0  0  0  0
 11 16  1  0  0  0  0
 12 13  1  1  0  0  0
 12 14  1  0  0  0  0
 14 15  1  1  0  0  0
 14 16  1  0  0  0  0
 16 27  1  6  0  0  0
 18 19  2  0  0  0  0
 18 23  1  0  0  0  0
 19 20  1  0  0  0  0
 20 21  2  0  0  0  0
 21 22  1  0  0  0  0
 21 27  1  0  0  0  0
 22 23  2  0  0  0  0
 22 25  1  0  0  0  0
 23 24  1  0  0  0  0
 25 26  2  0  0  0  0
 26 27  1  0  0  0  0
M  END
>  <CHROM.1>
-34.70469272,-63.33435539,-174.78434942,-77.87440896,43.47369615,-120.38389339
104.41424471,52.80765041,60.84962611,15.45446536,0.23350143,1.09721929,-1.87461322

>  <Name>
ligand

>  <RI>
0

>  <Rbt.Current_Directory>
/home/itssahil/PROJECTS/Mol_Feturizer/New_Systems/rnas/3IQR

>  <Rbt.Executable>
rbdock ($Id: //depot/dev/client3/rdock/2013.1/src/exe/rbdock.cxx#4 $)

>  <Rbt.Library>
libRbt.so (2013.1, Build901 2013/11/27)

>  <Rbt.Parameter_File>
/export/apps/rDock/src/rDock_2013.1_src/data/scripts/dock_solv.prm

>  <Rbt.Receptor>
prm/blind_docking_100.prm

>  <SCORE>
-16.1401

>  <SCORE.INTER>
-13.234

>  <SCORE.INTER.CONST>
1

>  <SCORE.INTER.POLAR>
0

>  <SCORE.INTER.ROT>
7

>  <SCORE.INTER.SOLV>
11.3845

>  <SCORE.INTER.VDW>
-20.8841

>  <SCORE.INTER.norm>
-0.490148

>  <SCORE.INTRA>
-2.90984

>  <SCORE.INTRA.DIHEDRAL>
-0.708572

>  <SCORE.INTRA.DIHEDRAL.0>
9.29433

>  <SCORE.INTRA.POLAR>
0

>  <SCORE.INTRA.POLAR.0>
0

>  <SCORE.INTRA.REPUL>
0

>  <SCORE.INTRA.REPUL.0>
0

>  <SCORE.INTRA.SOLV>
-0.929348

>  <SCORE.INTRA.SOLV.lig_0>
-48.5102

>  <SCORE.INTRA.VDW>
-2.09088

>  <SCORE.INTRA.VDW.0>
0.379549

>  <SCORE.INTRA.norm>
-0.107772

>  <SCORE.RESTR>
0.00369733

>  <SCORE.RESTR.CAVITY>
0.00369733

>  <SCORE.RESTR.norm>
0.000136938

>  <SCORE.SYSTEM>
0

>  <SCORE.SYSTEM.CONST>
0

>  <SCORE.SYSTEM.DIHEDRAL>
0

>  <SCORE.SYSTEM.SOLV>
0

>  <SCORE.SYSTEM.norm>
0

>  <SCORE.heavy>
27

>  <SCORE.norm>
-0.597783

>  <RMSD>
17.411

$$$$
ligand
 OpenBabel11021811483D
libRbt.so/2013.1/901 2013/11/27
 27 29  0  0  0  0  0  0  0  0999 V2000
   54.9175   64.1227   17.9517 N   0  0  0  0  0  0  0  0  0  0  0  0
   55.7628   65.1291   17.3111 C   0  0  2  0  0  0  0  0  0  0  0  0
   56.9600   65.3953   18.1770 C   0  0  0  0  0  0  0  0  0  0  0  0
   56.8081   65.7972   19.3258 O   0  0  0  0  0  0  0  0  0  0  0  0
   54.9855   66.4307   17.1195 C   0  0  0  0  0  0  0  0  0  0  0  0
   53.8222   66.1744   16.1788 C   0  0  0  0  0  0  0  0  0  0  0  0
   54.3280   65.6512   14.5093 S   0  0  2  0  0  0  0  0  0  0  0  0
   54.8845   67.1814   13.7026 C   0  0  0  0  0  0  0  0  0  0  0  0
   52.7122   65.6883   13.5235 C   0  0  0  0  0  0  0  0  0  0  0  0
   51.5978   64.5969   13.8121 C   0  0  2  0  0  0  0  0  0  0  0  0
   51.1338   64.4458   15.1346 O   0  0  0  0  0  0  0  0  0  0  0  0
   51.6847   63.2513   13.2111 C   0  0  1  0  0  0  0  0  0  0  0  0
   52.5871   63.1982   12.1056 O   0  0  0  0  0  0  0  0  0  0  0  0
   52.1756   62.4914   14.5328 C   0  0  2  0  0  0  0  0  0  0  0  0
   52.1115   61.1074   14.3612 O   0  0  0  0  0  0  0  0  0  0  0  0
   51.1469   63.0024   15.5397 C   0  0  1  0  0  0  0  0  0  0  0  0
   58.0838   65.1704   17.7461 O   0  0  0  0  0  0  0  0  0  0  0  0
   53.1621   60.0538   19.1969 N   0  0  0  0  0  0  0  0  0  0  0  0
   52.9645   59.8220   17.8964 C   0  0  0  0  0  0  0  0  0  0  0  0
   52.4388   60.7507   17.1031 N   0  0  0  0  0  0  0  0  0  0  0  0
   51.9878   61.9165   17.5926 C   0  0  0  0  0  0  0  0  0  0  0  0
   52.1248   62.1870   18.9788 C   0  0  0  0  0  0  0  0  0  0  0  0
   52.7497   61.1946   19.7838 C   0  0  0  0  0  0  0  0  0  0  0  0
   52.9345   61.3879   21.1379 N   0  0  0  0  0  0  0  0  0  0  0  0
   51.5949   63.4024   19.2023 N   0  0  0  0  0  0  0  0  0  0  0  0
   51.1432   63.8916   18.0784 C   0  0  0  0  0  0  0  0  0  0  0  0
   51.3671   63.0244   17.0458 N   0  0  0  0  0  0  0  0  0  0  0  0
  2  1  1  1  0  0  0
  2  3  1  0  0  0  0
  2  5  1  0  0  0  0
  3  4  1  0  0  0  0
  3 17  1  0  0  0  0
  5  6  1  0  0  0  0
  7  6  1  1  0  0  0
  7  8  1  0  0  0  0
  7  9  1  0  0  0  0
 10  9  1  1  0  0  0
 10 11  1  0  0  0  0
 10 12  1  0  0  0  0
 11 16  1  0  0  0  0
 12 13  1  6  0  0  0
 12 14  1  0  0  0  0
 14 15  1  6  0  0  0
 14 16  1  0  0  0  0
 16 27  1  1  0  0  0
 18 19  2  0  0  0  0
 18 23  1  0  0  0  0
 19 20  1  0  0  0  0
 20 21  2  0  0  0  0
 21 22  1  0  0  0  0
 21 27  1  0  0  0  0
 22 23  2  0  0  0  0
 22 25  1  0  0  0  0
 23 24  1  0  0  0  0
 25 26  2  0  0  0  0
 26 27  1  0  0  0  0
M  END
>  <CHROM.1>
-58.96995742,-63.19600484,-62.34484952,-76.76810458,-70.72060138,54.63226892
-152.59831680,53.35998931,63.72266859,16.51328743,-1.86715174,-0.72665587
-1.04039204

>  <Name>
ligand

>  <RI>
0

>  <Rbt.Current_Directory>
/home/itssahil/PROJECTS/Mol_Feturizer/New_Systems/rnas/3IQR

>  <Rbt.Executable>
rbdock ($Id: //depot/dev/client3/rdock/2013.1/src/exe/rbdock.cxx#4 $)

>  <Rbt.Library>
libRbt.so (2013.1, Build901 2013/11/27)

>  <Rbt.Parameter_File>
/export/apps/rDock/src/rDock_2013.1_src/data/scripts/dock_solv.prm

>  <Rbt.Receptor>
prm/blind_docking_100.prm

>  <SCORE>
-18.137

>  <SCORE.INTER>
-11.5724

>  <SCORE.INTER.CONST>
1

>  <SCORE.INTER.POLAR>
0

>  <SCORE.INTER.ROT>
7

>  <SCORE.INTER.SOLV>
11.6281

>  <SCORE.INTER.VDW>
-19.8576

>  <SCORE.INTER.norm>
-0.428606

>  <SCORE.INTRA>
-6.56463

>  <SCORE.INTRA.DIHEDRAL>
-5.08585

>  <SCORE.INTRA.DIHEDRAL.0>
9.29433

>  <SCORE.INTRA.POLAR>
0

>  <SCORE.INTRA.POLAR.0>
0

>  <SCORE.INTRA.REPUL>
0

>  <SCORE.INTRA.REPUL.0>
0

>  <SCORE.INTRA.SOLV>
0.714988

>  <SCORE.INTRA.SOLV.lig_0>
-48.5102

>  <SCORE.INTRA.VDW>
-4.3792

>  <SCORE.INTRA.VDW.0>
0.379549

>  <SCORE.INTRA.norm>
-0.243134

>  <SCORE.RESTR>
0

>  <SCORE.RESTR.CAVITY>
0

>  <SCORE.RESTR.norm>
0

>  <SCORE.SYSTEM>
0

>  <SCORE.SYSTEM.CONST>
0

>  <SCORE.SYSTEM.DIHEDRAL>
0

>  <SCORE.SYSTEM.SOLV>
0

>  <SCORE.SYSTEM.norm>
0

>  <SCORE.heavy>
27

>  <SCORE.norm>
-0.67174

>  <RMSD>
17.747

$$$$
ligand
 OpenBabel11021811483D
libRbt.so/2013.1/901 2013/11/27
 27 29  0  0  0  0  0  0  0  0999 V2000
   54.9928   61.5722   20.6646 N   0  0  0  0  0  0  0  0  0  0  0  0
   53.6568   62.0312   21.0417 C   0  0  2  0  0  0  0  0  0  0  0  0
   53.4594   61.8255   22.5158 C   0  0  0  0  0  0  0  0  0  0  0  0
   53.4963   60.6936   22.9868 O   0  0  0  0  0  0  0  0  0  0  0  0
   52.5909   61.2442   20.2804 C   0  0  0  0  0  0  0  0  0  0  0  0
   52.6081   61.6749   18.8250 C   0  0  0  0  0  0  0  0  0  0  0  0
   53.9385   60.9072   17.8466 S   0  0  2  0  0  0  0  0  0  0  0  0
   53.4066   61.1069   16.1205 C   0  0  0  0  0  0  0  0  0  0  0  0
   53.4618   59.0754   17.8088 C   0  0  0  0  0  0  0  0  0  0  0  0
   54.3646   58.0515   17.0008 C   0  0  2  0  0  0  0  0  0  0  0  0
   54.6679   58.3421   15.6551 O   0  0  0  0  0  0  0  0  0  0  0  0
   54.1350   56.5970   17.1045 C   0  0  1  0  0  0  0  0  0  0  0  0
   53.3483   56.2425   18.2424 O   0  0  0  0  0  0  0  0  0  0  0  0
   53.4072   56.4247   15.6882 C   0  0  2  0  0  0  0  0  0  0  0  0
   53.2779   55.0743   15.3587 O   0  0  0  0  0  0  0  0  0  0  0  0
   54.3971   57.1539   14.7818 C   0  0  1  0  0  0  0  0  0  0  0  0
   53.3033   62.7936   23.2490 O   0  0  0  0  0  0  0  0  0  0  0  0
   56.5428   57.9376   10.2088 N   0  0  0  0  0  0  0  0  0  0  0  0
   57.0604   57.4758   11.3503 C   0  0  0  0  0  0  0  0  0  0  0  0
   56.3080   57.3233   12.4361 N   0  0  0  0  0  0  0  0  0  0  0  0
   55.0273   57.7248   12.4629 C   0  0  0  0  0  0  0  0  0  0  0  0
   54.4470   58.2737   11.2902 C   0  0  0  0  0  0  0  0  0  0  0  0
   55.2661   58.3620   10.1305 C   0  0  0  0  0  0  0  0  0  0  0  0
   54.7720   58.8696    8.9460 N   0  0  0  0  0  0  0  0  0  0  0  0
   53.1753   58.5939   11.5868 N   0  0  0  0  0  0  0  0  0  0  0  0
   52.9329   58.2947   12.8350 C   0  0  0  0  0  0  0  0  0  0  0  0
   54.0354   57.7438   13.4259 N   0  0  0  0  0  0  0  0  0  0  0  0
  2  1  1  6  0  0  0
  2  3  1  0  0  0  0
  2  5  1  0  0  0  0
  3  4  1  0  0  0  0
  3 17  1  0  0  0  0
  5  6  1  0  0  0  0
  7  6  1  1  0  0  0
  7  8  1  0  0  0  0
  7  9  1  0  0  0  0
 10  9  1  6  0  0  0
 10 11  1  0  0  0  0
 10 12  1  0  0  0  0
 11 16  1  0  0  0  0
 12 13  1  1  0  0  0
 12 14  1  0  0  0  0
 14 15  1  6  0  0  0
 14 16  1  0  0  0  0
 16 27  1  6  0  0  0
 18 19  2  0  0  0  0
 18 23  1  0  0  0  0
 19 20  1  0  0  0  0
 20 21  2  0  0  0  0
 21 22  1  0  0  0  0
 21 27  1  0  0  0  0
 22 23  2  0  0  0  0
 22 25  1  0  0  0  0
 23 24  1  0  0  0  0
 25 26  2  0  0  0  0
 26 27  1  0  0  0  0
M  END
>  <CHROM.1>
-62.05796896,-71.54388271,79.65178682,161.02539089,178.21715522,-52.31947062
101.57369656,54.11073847,59.04993393,16.15247980,-2.42775462,-1.37827223
-2.77306993

>  <Name>
ligand

>  <RI>
0

>  <Rbt.Current_Directory>
/home/itssahil/PROJECTS/Mol_Feturizer/New_Systems/rnas/3IQR

>  <Rbt.Executable>
rbdock ($Id: //depot/dev/client3/rdock/2013.1/src/exe/rbdock.cxx#4 $)

>  <Rbt.Library>
libRbt.so (2013.1, Build901 2013/11/27)

>  <Rbt.Parameter_File>
/export/apps/rDock/src/rDock_2013.1_src/data/scripts/dock_solv.prm

>  <Rbt.Receptor>
prm/blind_docking_100.prm

>  <SCORE>
-14.4567

>  <SCORE.INTER>
-10.2541

>  <SCORE.INTER.CONST>
1

>  <SCORE.INTER.POLAR>
0

>  <SCORE.INTER.ROT>
7

>  <SCORE.INTER.SOLV>
14.9015

>  <SCORE.INTER.VDW>
-20.0699

>  <SCORE.INTER.norm>
-0.37978

>  <SCORE.INTRA>
-4.20262

>  <SCORE.INTRA.DIHEDRAL>
-3.04761

>  <SCORE.INTRA.DIHEDRAL.0>
9.29433

>  <SCORE.INTRA.POLAR>
0

>  <SCORE.INTRA.POLAR.0>
0

>  <SCORE.INTRA.REPUL>
0

>  <SCORE.INTRA.REPUL.0>
0

>  <SCORE.INTRA.SOLV>
0.307767

>  <SCORE.INTRA.SOLV.lig_0>
-48.5102

>  <SCORE.INTRA.VDW>
-2.8327

>  <SCORE.INTRA.VDW.0>
0.379549

>  <SCORE.INTRA.norm>
-0.155652

>  <SCORE.RESTR>
0

>  <SCORE.RESTR.CAVITY>
0

>  <SCORE.RESTR.norm>
0

>  <SCORE.SYSTEM>
0

>  <SCORE.SYSTEM.CONST>
0

>  <SCORE.SYSTEM.DIHEDRAL>
0

>  <SCORE.SYSTEM.SOLV>
0

>  <SCORE.SYSTEM.norm>
0

>  <SCORE.heavy>
27

>  <SCORE.norm>
-0.535433

>  <RMSD>
17.768

$$$$
ligand
 OpenBabel11021811483D
libRbt.so/2013.1/901 2013/11/27
 27 29  0  0  0  0  0  0  0  0999 V2000
   52.9580   61.1402   16.6747 N   0  0  0  0  0  0  0  0  0  0  0  0
   52.8567   61.8799   17.9318 C   0  0  2  0  0  0  0  0  0  0  0  0
   52.2719   60.9865   18.9873 C   0  0  0  0  0  0  0  0  0  0  0  0
   51.6792   59.9626   18.6637 O   0  0  0  0  0  0  0  0  0  0  0  0
   51.9563   63.1022   17.7570 C   0  0  0  0  0  0  0  0  0  0  0  0
   52.0819   63.9847   18.9855 C   0  0  0  0  0  0  0  0  0  0  0  0
   53.7988   64.2336   19.5397 S   0  0  2  0  0  0  0  0  0  0  0  0
   53.7273   64.0335   21.3445 C   0  0  0  0  0  0  0  0  0  0  0  0
   53.9369   66.1124   19.7274 C   0  0  0  0  0  0  0  0  0  0  0  0
   54.3806   66.9896   18.4825 C   0  0  2  0  0  0  0  0  0  0  0  0
   53.4119   67.3131   17.5108 O   0  0  0  0  0  0  0  0  0  0  0  0
   55.6480   66.7140   17.7774 C   0  0  1  0  0  0  0  0  0  0  0  0
   56.5420   65.9071   18.5450 O   0  0  0  0  0  0  0  0  0  0  0  0
   54.9966   65.9931   16.5042 C   0  0  2  0  0  0  0  0  0  0  0  0
   55.9433   65.8246   15.4921 O   0  0  0  0  0  0  0  0  0  0  0  0
   53.9215   67.0127   16.1332 C   0  0  1  0  0  0  0  0  0  0  0  0
   52.4250   61.2625   20.1702 O   0  0  0  0  0  0  0  0  0  0  0  0
   51.6904   62.9619   13.9551 N   0  0  0  0  0  0  0  0  0  0  0  0
   52.8717   63.0866   14.5658 C   0  0  0  0  0  0  0  0  0  0  0  0
   53.2554   64.2451   15.0942 N   0  0  0  0  0  0  0  0  0  0  0  0
   52.5230   65.3601   14.9442 C   0  0  0  0  0  0  0  0  0  0  0  0
   51.2852   65.2901   14.2541 C   0  0  0  0  0  0  0  0  0  0  0  0
   50.8794   64.0200   13.7585 C   0  0  0  0  0  0  0  0  0  0  0  0
   49.6819   63.8654   13.0898 N   0  0  0  0  0  0  0  0  0  0  0  0
   50.7647   66.5298   14.2421 N   0  0  0  0  0  0  0  0  0  0  0  0
   51.5773   67.3470   14.8571 C   0  0  0  0  0  0  0  0  0  0  0  0
   52.6762   66.6809   15.3230 N   0  0  0  0  0  0  0  0  0  0  0  0
  2  1  1  6  0  0  0
  2  3  1  0  0  0  0
  2  5  1  0  0  0  0
  3  4  1  0  0  0  0
  3 17  1  0  0  0  0
  5  6  1  0  0  0  0
  7  6  1  6  0  0  0
  7  8  1  0  0  0  0
  7  9  1  0  0  0  0
 10  9  1  6  0  0  0
 10 11  1  0  0  0  0
 10 12  1  0  0  0  0
 11 16  1  0  0  0  0
 12 13  1  1  0  0  0
 12 14  1  0  0  0  0
 14 15  1  6  0  0  0
 14 16  1  0  0  0  0
 16 27  1  6  0  0  0
 18 19  2  0  0  0  0
 18 23  1  0  0  0  0
 19 20  1  0  0  0  0
 20 21  2  0  0  0  0
 21 22  1  0  0  0  0
 21 27  1  0  0  0  0
 22 23  2  0  0  0  0
 22 25  1  0  0  0  0
 23 24  1  0  0  0  0
 25 26  2  0  0  0  0
 26 27  1  0  0  0  0
M  END
>  <CHROM.1>
-17.29911979,-169.32297439,45.04416067,-135.85128617,-88.99628341,80.64438224
-109.71652874,53.03565878,64.47646830,17.03813727,1.16323771,0.92074281,2.34041219

>  <Name>
ligand

>  <RI>
0

>  <Rbt.Current_Directory>
/home/itssahil/PROJECTS/Mol_Feturizer/New_Systems/rnas/3IQR

>  <Rbt.Executable>
rbdock ($Id: //depot/dev/client3/rdock/2013.1/src/exe/rbdock.cxx#4 $)

>  <Rbt.Library>
libRbt.so (2013.1, Build901 2013/11/27)

>  <Rbt.Parameter_File>
/export/apps/rDock/src/rDock_2013.1_src/data/scripts/dock_solv.prm

>  <Rbt.Receptor>
prm/blind_docking_100.prm

>  <SCORE>
-14.6155

>  <SCORE.INTER>
-11.1951

>  <SCORE.INTER.CONST>
1

>  <SCORE.INTER.POLAR>
0

>  <SCORE.INTER.ROT>
7

>  <SCORE.INTER.SOLV>
12.7917

>  <SCORE.INTER.VDW>
-19.9939

>  <SCORE.INTER.norm>
-0.414632

>  <SCORE.INTRA>
-3.42041

>  <SCORE.INTRA.DIHEDRAL>
2.11553

>  <SCORE.INTRA.DIHEDRAL.0>
9.29433

>  <SCORE.INTRA.POLAR>
0

>  <SCORE.INTRA.POLAR.0>
0

>  <SCORE.INTRA.REPUL>
0

>  <SCORE.INTRA.REPUL.0>
0

>  <SCORE.INTRA.SOLV>
0.183809

>  <SCORE.INTRA.SOLV.lig_0>
-48.5102

>  <SCORE.INTRA.VDW>
-4.57008

>  <SCORE.INTRA.VDW.0>
0.379549

>  <SCORE.INTRA.norm>
-0.126682

>  <SCORE.RESTR>
0

>  <SCORE.RESTR.CAVITY>
0

>  <SCORE.RESTR.norm>
0

>  <SCORE.SYSTEM>
0

>  <SCORE.SYSTEM.CONST>
0

>  <SCORE.SYSTEM.DIHEDRAL>
0

>  <SCORE.SYSTEM.SOLV>
0

>  <SCORE.SYSTEM.norm>
0

>  <SCORE.heavy>
27

>  <SCORE.norm>
-0.541313

>  <RMSD>
17.822

$$$$
ligand
 OpenBabel11021811483D
libRbt.so/2013.1/901 2013/11/27
 27 29  0  0  0  0  0  0  0  0999 V2000
   56.1088   65.5890   20.0387 N   0  0  0  0  0  0  0  0  0  0  0  0
   56.4681   64.4239   19.2317 C   0  0  2  0  0  0  0  0  0  0  0  0
   56.8763   63.2992   20.1387 C   0  0  0  0  0  0  0  0  0  0  0  0
   56.5366   62.1494   19.8799 O   0  0  0  0  0  0  0  0  0  0  0  0
   57.6316   64.7620   18.3004 C   0  0  0  0  0  0  0  0  0  0  0  0
   57.1107   65.6017   17.1483 C   0  0  0  0  0  0  0  0  0  0  0  0
   55.8380   64.7679   16.1472 S   0  0  2  0  0  0  0  0  0  0  0  0
   55.6972   65.7880   14.6499 C   0  0  0  0  0  0  0  0  0  0  0  0
   54.2139   65.4762   16.8140 C   0  0  0  0  0  0  0  0  0  0  0  0
   52.8470   64.7482   16.4709 C   0  0  2  0  0  0  0  0  0  0  0  0
   52.7818   63.3464   16.6049 O   0  0  0  0  0  0  0  0  0  0  0  0
   52.0739   65.1199   15.2695 C   0  0  1  0  0  0  0  0  0  0  0  0
   52.4598   66.3870   14.7356 O   0  0  0  0  0  0  0  0  0  0  0  0
   52.4867   63.8499   14.3854 C   0  0  2  0  0  0  0  0  0  0  0  0
   51.6975   63.7683   13.2367 O   0  0  0  0  0  0  0  0  0  0  0  0
   52.1958   62.7225   15.3740 C   0  0  1  0  0  0  0  0  0  0  0  0
   57.5825   63.5291   21.1120 O   0  0  0  0  0  0  0  0  0  0  0  0
   53.0907   58.7120   18.4147 N   0  0  0  0  0  0  0  0  0  0  0  0
   52.5896   59.9202   18.6853 C   0  0  0  0  0  0  0  0  0  0  0  0
   52.4134   60.8238   17.7258 N   0  0  0  0  0  0  0  0  0  0  0  0
   52.8280   60.6005   16.4687 C   0  0  0  0  0  0  0  0  0  0  0  0
   53.4178   59.3516   16.1435 C   0  0  0  0  0  0  0  0  0  0  0  0
   53.5313   58.3874   17.1832 C   0  0  0  0  0  0  0  0  0  0  0  0
   54.0792   57.1433   16.9446 N   0  0  0  0  0  0  0  0  0  0  0  0
   53.7431   59.3916   14.8395 N   0  0  0  0  0  0  0  0  0  0  0  0
   53.4097   60.5539   14.3452 C   0  0  0  0  0  0  0  0  0  0  0  0
   52.8295   61.3404   15.3006 N   0  0  0  0  0  0  0  0  0  0  0  0
  2  1  1  1  0  0  0
  2  3  1  0  0  0  0
  2  5  1  0  0  0  0
  3  4  1  0  0  0  0
  3 17  1  0  0  0  0
  5  6  1  0  0  0  0
  7  6  1  1  0  0  0
  7  8  1  0  0  0  0
  7  9  1  0  0  0  0
 10  9  1  6  0  0  0
 10 11  1  0  0  0  0
 10 12  1  0  0  0  0
 11 16  1  0  0  0  0
 12 13  1  6  0  0  0
 12 14  1  0  0  0  0
 14 15  1  6  0  0  0
 14 16  1  0  0  0  0
 16 27  1  6  0  0  0
 18 19  2  0  0  0  0
 18 23  1  0  0  0  0
 19 20  1  0  0  0  0
 20 21  2  0  0  0  0
 21 22  1  0  0  0  0
 21 27  1  0  0  0  0
 22 23  2  0  0  0  0
 22 25  1  0  0  0  0
 23 24  1  0  0  0  0
 25 26  2  0  0  0  0
 26 27  1  0  0  0  0
M  END
>  <CHROM.1>
140.43623401,-75.73520833,-60.28844190,-166.57630505,-164.50838533,45.95283671
47.63133409,54.27490213,62.83821379,16.84082398,-0.69932241,0.84013046,2.76571976

>  <Name>
ligand

>  <RI>
0

>  <Rbt.Current_Directory>
/home/itssahil/PROJECTS/Mol_Feturizer/New_Systems/rnas/3IQR

>  <Rbt.Executable>
rbdock ($Id: //depot/dev/client3/rdock/2013.1/src/exe/rbdock.cxx#4 $)

>  <Rbt.Library>
libRbt.so (2013.1, Build901 2013/11/27)

>  <Rbt.Parameter_File>
/export/apps/rDock/src/rDock_2013.1_src/data/scripts/dock_solv.prm

>  <Rbt.Receptor>
prm/blind_docking_100.prm

>  <SCORE>
-15.4492

>  <SCORE.INTER>
-11.3596

>  <SCORE.INTER.CONST>
1

>  <SCORE.INTER.POLAR>
0

>  <SCORE.INTER.ROT>
7

>  <SCORE.INTER.SOLV>
7.02726

>  <SCORE.INTER.VDW>
-18.1821

>  <SCORE.INTER.norm>
-0.420724

>  <SCORE.INTRA>
-4.08961

>  <SCORE.INTRA.DIHEDRAL>
-1.11203

>  <SCORE.INTRA.DIHEDRAL.0>
9.29433

>  <SCORE.INTRA.POLAR>
0

>  <SCORE.INTRA.POLAR.0>
0

>  <SCORE.INTRA.REPUL>
0

>  <SCORE.INTRA.REPUL.0>
0

>  <SCORE.INTRA.SOLV>
0.313912

>  <SCORE.INTRA.SOLV.lig_0>
-48.5102

>  <SCORE.INTRA.VDW>
-3.69055

>  <SCORE.INTRA.VDW.0>
0.379549

>  <SCORE.INTRA.norm>
-0.151467

>  <SCORE.RESTR>
0

>  <SCORE.RESTR.CAVITY>
0

>  <SCORE.RESTR.norm>
0

>  <SCORE.SYSTEM>
0

>  <SCORE.SYSTEM.CONST>
0

>  <SCORE.SYSTEM.DIHEDRAL>
0

>  <SCORE.SYSTEM.SOLV>
0

>  <SCORE.SYSTEM.norm>
0

>  <SCORE.heavy>
27

>  <SCORE.norm>
-0.572191

>  <RMSD>
17.830

$$$$
ligand
 OpenBabel11021811483D
libRbt.so/2013.1/901 2013/11/27
 27 29  0  0  0  0  0  0  0  0999 V2000
   54.7541   61.2315   23.2495 N   0  0  0  0  0  0  0  0  0  0  0  0
   54.5049   62.1553   22.1439 C   0  0  2  0  0  0  0  0  0  0  0  0
   54.1264   63.4992   22.6962 C   0  0  0  0  0  0  0  0  0  0  0  0
   54.6734   64.5119   22.2723 O   0  0  0  0  0  0  0  0  0  0  0  0
   53.3663   61.6373   21.2662 C   0  0  0  0  0  0  0  0  0  0  0  0
   53.3026   62.4727   20.0005 C   0  0  0  0  0  0  0  0  0  0  0  0
   51.9457   62.0060   18.8790 S   0  0  2  0  0  0  0  0  0  0  0  0
   52.4214   60.3704   18.2459 C   0  0  0  0  0  0  0  0  0  0  0  0
   52.4304   62.8118   17.2359 C   0  0  0  0  0  0  0  0  0  0  0  0
   52.6923   64.3753   17.1818 C   0  0  2  0  0  0  0  0  0  0  0  0
   51.7523   65.1901   16.5185 O   0  0  0  0  0  0  0  0  0  0  0  0
   54.0366   64.9062   16.8813 C   0  0  1  0  0  0  0  0  0  0  0  0
   55.0651   63.9295   17.0477 O   0  0  0  0  0  0  0  0  0  0  0  0
   53.7325   65.3292   15.3667 C   0  0  2  0  0  0  0  0  0  0  0  0
   54.7644   66.1186   14.8561 O   0  0  0  0  0  0  0  0  0  0  0  0
   52.4367   66.1152   15.5575 C   0  0  1  0  0  0  0  0  0  0  0  0
   53.2426   63.5828   23.5393 O   0  0  0  0  0  0  0  0  0  0  0  0
   49.9423   63.4760   11.9598 N   0  0  0  0  0  0  0  0  0  0  0  0
   50.9070   63.1051   12.8058 C   0  0  0  0  0  0  0  0  0  0  0  0
   51.4093   63.9571   13.6945 N   0  0  0  0  0  0  0  0  0  0  0  0
   51.0461   65.2494   13.7089 C   0  0  0  0  0  0  0  0  0  0  0  0
   50.0639   65.7048   12.7917 C   0  0  0  0  0  0  0  0  0  0  0  0
   49.5044   64.7491   11.8989 C   0  0  0  0  0  0  0  0  0  0  0  0
   48.5329   65.1090   10.9870 N   0  0  0  0  0  0  0  0  0  0  0  0
   49.8915   67.0199   13.0122 N   0  0  0  0  0  0  0  0  0  0  0  0
   50.6845   67.4053   13.9762 C   0  0  0  0  0  0  0  0  0  0  0  0
   51.4149   66.3537   14.4547 N   0  0  0  0  0  0  0  0  0  0  0  0
  2  1  1  1  0  0  0
  2  3  1  0  0  0  0
  2  5  1  0  0  0  0
  3  4  1  0  0  0  0
  3 17  1  0  0  0  0
  5  6  1  0  0  0  0
  7  6  1  1  0  0  0
  7  8  1  0  0  0  0
  7  9  1  0  0  0  0
 10  9  1  6  0  0  0
 10 11  1  0  0  0  0
 10 12  1  0  0  0  0
 11 16  1  0  0  0  0
 12 13  1  6  0  0  0
 12 14  1  0  0  0  0
 14 15  1  1  0  0  0
 14 16  1  0  0  0  0
 16 27  1  6  0  0  0
 18 19  2  0  0  0  0
 18 23  1  0  0  0  0
 19 20  1  0  0  0  0
 20 21  2  0  0  0  0
 21 22  1  0  0  0  0
 21 27  1  0  0  0  0
 22 23  2  0  0  0  0
 22 25  1  0  0  0  0
 23 24  1  0  0  0  0
 25 26  2  0  0  0  0
 26 27  1  0  0  0  0
M  END
>  <CHROM.1>
131.51293328,-169.70846760,-177.88996796,-69.04184963,-56.28834576,-109.03916005
-63.82614084,52.36764925,64.03535915,16.96152724,0.96030629,0.93308533,2.38478041

>  <Name>
ligand

>  <RI>
0

>  <Rbt.Current_Directory>
/home/itssahil/PROJECTS/Mol_Feturizer/New_Systems/rnas/3IQR

>  <Rbt.Executable>
rbdock ($Id: //depot/dev/client3/rdock/2013.1/src/exe/rbdock.cxx#4 $)

>  <Rbt.Library>
libRbt.so (2013.1, Build901 2013/11/27)

>  <Rbt.Parameter_File>
/export/apps/rDock/src/rDock_2013.1_src/data/scripts/dock_solv.prm

>  <Rbt.Receptor>
prm/blind_docking_100.prm

>  <SCORE>
-14.8042

>  <SCORE.INTER>
-10.4679

>  <SCORE.INTER.CONST>
1

>  <SCORE.INTER.POLAR>
0

>  <SCORE.INTER.ROT>
7

>  <SCORE.INTER.SOLV>
12.1166

>  <SCORE.INTER.VDW>
-19.2841

>  <SCORE.INTER.norm>
-0.387699

>  <SCORE.INTRA>
-4.35109

>  <SCORE.INTRA.DIHEDRAL>
-0.890838

>  <SCORE.INTRA.DIHEDRAL.0>
9.29433

>  <SCORE.INTRA.POLAR>
0

>  <SCORE.INTRA.POLAR.0>
0

>  <SCORE.INTRA.REPUL>
0

>  <SCORE.INTRA.REPUL.0>
0

>  <SCORE.INTRA.SOLV>
-1.76433

>  <SCORE.INTRA.SOLV.lig_0>
-48.5102

>  <SCORE.INTRA.VDW>
-3.02351

>  <SCORE.INTRA.VDW.0>
0.379549

>  <SCORE.INTRA.norm>
-0.161152

>  <SCORE.RESTR>
0.0147276

>  <SCORE.RESTR.CAVITY>
0.0147276

>  <SCORE.RESTR.norm>
0.000545468

>  <SCORE.SYSTEM>
0

>  <SCORE.SYSTEM.CONST>
0

>  <SCORE.SYSTEM.DIHEDRAL>
0

>  <SCORE.SYSTEM.SOLV>
0

>  <SCORE.SYSTEM.norm>
0

>  <SCORE.heavy>
27

>  <SCORE.norm>
-0.548305

>  <RMSD>
17.853

$$$$
ligand
 OpenBabel11021811483D
libRbt.so/2013.1/901 2013/11/27
 27 29  0  0  0  0  0  0  0  0999 V2000
   54.8802   67.3627   22.2273 N   0  0  0  0  0  0  0  0  0  0  0  0
   56.0142   66.7388   21.5471 C   0  0  2  0  0  0  0  0  0  0  0  0
   57.0843   66.4252   22.5525 C   0  0  0  0  0  0  0  0  0  0  0  0
   57.6973   67.3362   23.0991 O   0  0  0  0  0  0  0  0  0  0  0  0
   56.5837   67.6835   20.4896 C   0  0  0  0  0  0  0  0  0  0  0  0
   55.7860   67.5246   19.2081 C   0  0  0  0  0  0  0  0  0  0  0  0
   56.2507   66.0607   18.2294 S   0  0  2  0  0  0  0  0  0  0  0  0
   55.0631   66.0377   16.8542 C   0  0  0  0  0  0  0  0  0  0  0  0
   55.3291   64.6446   19.0834 C   0  0  0  0  0  0  0  0  0  0  0  0
   55.5618   63.1545   18.5917 C   0  0  2  0  0  0  0  0  0  0  0  0
   55.6370   62.9099   17.2055 O   0  0  0  0  0  0  0  0  0  0  0  0
   54.8243   62.0327   19.2054 C   0  0  1  0  0  0  0  0  0  0  0  0
   54.2443   62.3769   20.4643 O   0  0  0  0  0  0  0  0  0  0  0  0
   53.7832   61.8201   18.0070 C   0  0  2  0  0  0  0  0  0  0  0  0
   53.0763   60.6274   18.1706 O   0  0  0  0  0  0  0  0  0  0  0  0
   54.7411   61.7718   16.8183 C   0  0  1  0  0  0  0  0  0  0  0  0
   57.3127   65.2607   22.8538 O   0  0  0  0  0  0  0  0  0  0  0  0
   52.5037   59.4267   12.8654 N   0  0  0  0  0  0  0  0  0  0  0  0
   52.8791   58.9617   14.0599 C   0  0  0  0  0  0  0  0  0  0  0  0
   53.4310   59.7609   14.9682 N   0  0  0  0  0  0  0  0  0  0  0  0
   53.7309   61.0388   14.6869 C   0  0  0  0  0  0  0  0  0  0  0  0
   53.4019   61.5645   13.4107 C   0  0  0  0  0  0  0  0  0  0  0  0
   52.7550   60.6959   12.4884 C   0  0  0  0  0  0  0  0  0  0  0  0
   52.3885   61.1353   11.2324 N   0  0  0  0  0  0  0  0  0  0  0  0
   53.8097   62.8456   13.3898 N   0  0  0  0  0  0  0  0  0  0  0  0
   54.3618   63.1433   14.5356 C   0  0  0  0  0  0  0  0  0  0  0  0
   54.3328   62.0710   15.3826 N   0  0  0  0  0  0  0  0  0  0  0  0
  2  1  1  1  0  0  0
  2  3  1  0  0  0  0
  2  5  1  0  0  0  0
  3  4  1  0  0  0  0
  3 17  1  0  0  0  0
  5  6  1  0  0  0  0
  7  6  1  1  0  0  0
  7  8  1  0  0  0  0
  7  9  1  0  0  0  0
 10  9  1  6  0  0  0
 10 11  1  0  0  0  0
 10 12  1  0  0  0  0
 11 16  1  0  0  0  0
 12 13  1  1  0  0  0
 12 14  1  0  0  0  0
 14 15  1  1  0  0  0
 14 16  1  0  0  0  0
 16 27  1  6  0  0  0
 18 19  2  0  0  0  0
 18 23  1  0  0  0  0
 19 20  1  0  0  0  0
 20 21  2  0  0  0  0
 21 22  1  0  0  0  0
 21 27  1  0  0  0  0
 22 23  2  0  0  0  0
 22 25  1  0  0  0  0
 23 24  1  0  0  0  0
 25 26  2  0  0  0  0
 26 27  1  0  0  0  0
M  END
>  <CHROM.1>
-68.35059934,-84.66538349,-79.30342553,175.26100382,-175.30060205,-41.53499824
166.86847802,54.83265997,63.53594969,17.62495342,-0.39342835,-1.21407631
-1.06448895

>  <Name>
ligand

>  <RI>
0

>  <Rbt.Current_Directory>
/home/itssahil/PROJECTS/Mol_Feturizer/New_Systems/rnas/3IQR

>  <Rbt.Executable>
rbdock ($Id: //depot/dev/client3/rdock/2013.1/src/exe/rbdock.cxx#4 $)

>  <Rbt.Library>
libRbt.so (2013.1, Build901 2013/11/27)

>  <Rbt.Parameter_File>
/export/apps/rDock/src/rDock_2013.1_src/data/scripts/dock_solv.prm

>  <Rbt.Receptor>
prm/blind_docking_100.prm

>  <SCORE>
-13.0204

>  <SCORE.INTER>
-8.97641

>  <SCORE.INTER.CONST>
1

>  <SCORE.INTER.POLAR>
0

>  <SCORE.INTER.ROT>
7

>  <SCORE.INTER.SOLV>
4.91679

>  <SCORE.INTER.VDW>
-15.8899

>  <SCORE.INTER.norm>
-0.33246

>  <SCORE.INTRA>
-4.04395

>  <SCORE.INTRA.DIHEDRAL>
-0.446834

>  <SCORE.INTRA.DIHEDRAL.0>
9.29433

>  <SCORE.INTRA.POLAR>
0

>  <SCORE.INTRA.POLAR.0>
0

>  <SCORE.INTRA.REPUL>
0

>  <SCORE.INTRA.REPUL.0>
0

>  <SCORE.INTRA.SOLV>
-0.691403

>  <SCORE.INTRA.SOLV.lig_0>
-48.5102

>  <SCORE.INTRA.VDW>
-3.47484

>  <SCORE.INTRA.VDW.0>
0.379549

>  <SCORE.INTRA.norm>
-0.149776

>  <SCORE.RESTR>
0

>  <SCORE.RESTR.CAVITY>
0

>  <SCORE.RESTR.norm>
0

>  <SCORE.SYSTEM>
0

>  <SCORE.SYSTEM.CONST>
0

>  <SCORE.SYSTEM.DIHEDRAL>
0

>  <SCORE.SYSTEM.SOLV>
0

>  <SCORE.SYSTEM.norm>
0

>  <SCORE.heavy>
27

>  <SCORE.norm>
-0.482236

>  <RMSD>
17.873

$$$$
ligand
 OpenBabel11021811483D
libRbt.so/2013.1/901 2013/11/27
 27 29  0  0  0  0  0  0  0  0999 V2000
   55.2596   62.6354   21.3016 N   0  0  0  0  0  0  0  0  0  0  0  0
   53.8456   62.4342   21.6145 C   0  0  2  0  0  0  0  0  0  0  0  0
   53.6934   61.1938   22.4466 C   0  0  0  0  0  0  0  0  0  0  0  0
   52.6190   60.9439   22.9831 O   0  0  0  0  0  0  0  0  0  0  0  0
   53.0351   62.2757   20.3288 C   0  0  0  0  0  0  0  0  0  0  0  0
   53.5836   61.0978   19.5442 C   0  0  0  0  0  0  0  0  0  0  0  0
   52.7591   60.8335   17.9420 S   0  0  2  0  0  0  0  0  0  0  0  0
   53.7677   59.5680   17.1152 C   0  0  0  0  0  0  0  0  0  0  0  0
   53.4962   62.1811   16.8355 C   0  0  0  0  0  0  0  0  0  0  0  0
   53.0519   63.6897   17.0432 C   0  0  2  0  0  0  0  0  0  0  0  0
   51.8772   64.1366   16.4048 O   0  0  0  0  0  0  0  0  0  0  0  0
   54.0406   64.7840   16.9795 C   0  0  1  0  0  0  0  0  0  0  0  0
   55.3848   64.3214   17.1159 O   0  0  0  0  0  0  0  0  0  0  0  0
   53.6414   65.3074   15.5194 C   0  0  2  0  0  0  0  0  0  0  0  0
   54.2446   66.5376   15.2519 O   0  0  0  0  0  0  0  0  0  0  0  0
   52.1262   65.4225   15.6753 C   0  0  1  0  0  0  0  0  0  0  0  0
   54.6315   60.4143   22.5528 O   0  0  0  0  0  0  0  0  0  0  0  0
   50.3488   68.5750   12.0651 N   0  0  0  0  0  0  0  0  0  0  0  0
   51.1645   68.8001   13.0986 C   0  0  0  0  0  0  0  0  0  0  0  0
   51.5273   67.8169   13.9171 N   0  0  0  0  0  0  0  0  0  0  0  0
   51.0080   66.5841   13.8042 C   0  0  0  0  0  0  0  0  0  0  0  0
   50.0935   66.3093   12.7547 C   0  0  0  0  0  0  0  0  0  0  0  0
   49.7789   67.3709   11.8617 C   0  0  0  0  0  0  0  0  0  0  0  0
   48.9102   67.1806   10.8062 N   0  0  0  0  0  0  0  0  0  0  0  0
   49.7277   65.0207   12.8716 N   0  0  0  0  0  0  0  0  0  0  0  0
   50.3328   64.4901   13.9006 C   0  0  0  0  0  0  0  0  0  0  0  0
   51.1462   65.4036   14.5106 N   0  0  0  0  0  0  0  0  0  0  0  0
  2  1  1  6  0  0  0
  2  3  1  0  0  0  0
  2  5  1  0  0  0  0
  3  4  1  0  0  0  0
  3 17  1  0  0  0  0
  5  6  1  0  0  0  0
  7  6  1  1  0  0  0
  7  8  1  0  0  0  0
  7  9  1  0  0  0  0
 10  9  1  6  0  0  0
 10 11  1  0  0  0  0
 10 12  1  0  0  0  0
 11 16  1  0  0  0  0
 12 13  1  6  0  0  0
 12 14  1  0  0  0  0
 14 15  1  1  0  0  0
 14 16  1  0  0  0  0
 16 27  1  6  0  0  0
 18 19  2  0  0  0  0
 18 23  1  0  0  0  0
 19 20  1  0  0  0  0
 20 21  2  0  0  0  0
 21 22  1  0  0  0  0
 21 27  1  0  0  0  0
 22 23  2  0  0  0  0
 22 25  1  0  0  0  0
 23 24  1  0  0  0  0
 25 26  2  0  0  0  0
 26 27  1  0  0  0  0
M  END
>  <CHROM.1>
169.39327911,58.34671338,-177.36120808,171.12441127,-73.41280986,-84.92151961
169.28411393,52.49612580,64.02678538,16.70164128,-1.06266469,-0.87565300
-0.54461227

>  <Name>
ligand

>  <RI>
0

>  <Rbt.Current_Directory>
/home/itssahil/PROJECTS/Mol_Feturizer/New_Systems/rnas/3IQR

>  <Rbt.Executable>
rbdock ($Id: //depot/dev/client3/rdock/2013.1/src/exe/rbdock.cxx#4 $)

>  <Rbt.Library>
libRbt.so (2013.1, Build901 2013/11/27)

>  <Rbt.Parameter_File>
/export/apps/rDock/src/rDock_2013.1_src/data/scripts/dock_solv.prm

>  <Rbt.Receptor>
prm/blind_docking_100.prm

>  <SCORE>
-16.6696

>  <SCORE.INTER>
-11.9258

>  <SCORE.INTER.CONST>
1

>  <SCORE.INTER.POLAR>
0

>  <SCORE.INTER.ROT>
7

>  <SCORE.INTER.SOLV>
8.28699

>  <SCORE.INTER.VDW>
-18.9796

>  <SCORE.INTER.norm>
-0.441698

>  <SCORE.INTRA>
-4.7438

>  <SCORE.INTRA.DIHEDRAL>
-3.83384

>  <SCORE.INTRA.DIHEDRAL.0>
9.29433

>  <SCORE.INTRA.POLAR>
0

>  <SCORE.INTRA.POLAR.0>
0

>  <SCORE.INTRA.REPUL>
0

>  <SCORE.INTRA.REPUL.0>
0

>  <SCORE.INTRA.SOLV>
-1.05652

>  <SCORE.INTRA.SOLV.lig_0>
-48.5102

>  <SCORE.INTRA.VDW>
-2.29862

>  <SCORE.INTRA.VDW.0>
0.379549

>  <SCORE.INTRA.norm>
-0.175696

>  <SCORE.RESTR>
0

>  <SCORE.RESTR.CAVITY>
0

>  <SCORE.RESTR.norm>
0

>  <SCORE.SYSTEM>
0

>  <SCORE.SYSTEM.CONST>
0

>  <SCORE.SYSTEM.DIHEDRAL>
0

>  <SCORE.SYSTEM.SOLV>
0

>  <SCORE.SYSTEM.norm>
0

>  <SCORE.heavy>
27

>  <SCORE.norm>
-0.617394

>  <RMSD>
18.026

$$$$
ligand
 OpenBabel11021811483D
libRbt.so/2013.1/901 2013/11/27
 27 29  0  0  0  0  0  0  0  0999 V2000
   52.6639   64.7057   19.0067 N   0  0  0  0  0  0  0  0  0  0  0  0
   52.5315   63.8047   17.8628 C   0  0  2  0  0  0  0  0  0  0  0  0
   51.8400   62.5459   18.3003 C   0  0  0  0  0  0  0  0  0  0  0  0
   52.2099   61.9647   19.3152 O   0  0  0  0  0  0  0  0  0  0  0  0
   53.9091   63.4498   17.3048 C   0  0  0  0  0  0  0  0  0  0  0  0
   53.7348   62.5059   16.1289 C   0  0  0  0  0  0  0  0  0  0  0  0
   52.7293   63.1950   14.7758 S   0  0  2  0  0  0  0  0  0  0  0  0
   52.0345   61.7391   13.9391 C   0  0  0  0  0  0  0  0  0  0  0  0
   53.9779   63.4374   13.3736 C   0  0  0  0  0  0  0  0  0  0  0  0
   55.0198   64.6307   13.4553 C   0  0  2  0  0  0  0  0  0  0  0  0
   56.0093   64.5894   14.4585 O   0  0  0  0  0  0  0  0  0  0  0  0
   54.5754   66.0321   13.3217 C   0  0  1  0  0  0  0  0  0  0  0  0
   53.2752   66.1455   12.7419 O   0  0  0  0  0  0  0  0  0  0  0  0
   54.6662   66.4025   14.8773 C   0  0  2  0  0  0  0  0  0  0  0  0
   54.5440   67.7803   15.0664 O   0  0  0  0  0  0  0  0  0  0  0  0
   56.0696   65.8920   15.1983 C   0  0  1  0  0  0  0  0  0  0  0  0
   50.8816   62.1264   17.6644 O   0  0  0  0  0  0  0  0  0  0  0  0
   55.1904   67.2217   20.0552 N   0  0  0  0  0  0  0  0  0  0  0  0
   54.7358   67.7390   18.9107 C   0  0  0  0  0  0  0  0  0  0  0  0
   55.0750   67.2168   17.7357 N   0  0  0  0  0  0  0  0  0  0  0  0
   55.9686   66.2192   17.6444 C   0  0  0  0  0  0  0  0  0  0  0  0
   56.5226   65.6724   18.8307 C   0  0  0  0  0  0  0  0  0  0  0  0
   56.0869   66.2157   20.0711 C   0  0  0  0  0  0  0  0  0  0  0  0
   56.5664   65.7286   21.2701 N   0  0  0  0  0  0  0  0  0  0  0  0
   57.3806   64.7053   18.4614 N   0  0  0  0  0  0  0  0  0  0  0  0
   57.4021   64.6197   17.1580 C   0  0  0  0  0  0  0  0  0  0  0  0
   56.5421   65.5219   16.5972 N   0  0  0  0  0  0  0  0  0  0  0  0
  2  1  1  1  0  0  0
  2  3  1  0  0  0  0
  2  5  1  0  0  0  0
  3  4  1  0  0  0  0
  3 17  1  0  0  0  0
  5  6  1  0  0  0  0
  7  6  1  1  0  0  0
  7  8  1  0  0  0  0
  7  9  1  0  0  0  0
 10  9  1  1  0  0  0
 10 11  1  0  0  0  0
 10 12  1  0  0  0  0
 11 16  1  0  0  0  0
 12 13  1  1  0  0  0
 12 14  1  0  0  0  0
 14 15  1  6  0  0  0
 14 16  1  0  0  0  0
 16 27  1  1  0  0  0
 18 19  2  0  0  0  0
 18 23  1  0  0  0  0
 19 20  1  0  0  0  0
 20 21  2  0  0  0  0
 21 22  1  0  0  0  0
 21 27  1  0  0  0  0
 22 23  2  0  0  0  0
 22 25  1  0  0  0  0
 23 24  1  0  0  0  0
 25 26  2  0  0  0  0
 26 27  1  0  0  0  0
M  END
>  <CHROM.1>
-47.95498083,179.51632659,59.06288661,-154.24832973,-74.12336290,66.81226937
-141.93867254,54.37676482,64.76102289,16.64350829,0.83771612,0.80296328,1.64359070

>  <Name>
ligand

>  <RI>
0

>  <Rbt.Current_Directory>
/home/itssahil/PROJECTS/Mol_Feturizer/New_Systems/rnas/3IQR

>  <Rbt.Executable>
rbdock ($Id: //depot/dev/client3/rdock/2013.1/src/exe/rbdock.cxx#4 $)

>  <Rbt.Library>
libRbt.so (2013.1, Build901 2013/11/27)

>  <Rbt.Parameter_File>
/export/apps/rDock/src/rDock_2013.1_src/data/scripts/dock_solv.prm

>  <Rbt.Receptor>
prm/blind_docking_100.prm

>  <SCORE>
-16.2042

>  <SCORE.INTER>
-9.38419

>  <SCORE.INTER.CONST>
1

>  <SCORE.INTER.POLAR>
0

>  <SCORE.INTER.ROT>
7

>  <SCORE.INTER.SOLV>
10.6946

>  <SCORE.INTER.VDW>
-18.0877

>  <SCORE.INTER.norm>
-0.347563

>  <SCORE.INTRA>
-6.82004

>  <SCORE.INTRA.DIHEDRAL>
-2.23889

>  <SCORE.INTRA.DIHEDRAL.0>
9.29433

>  <SCORE.INTRA.POLAR>
0

>  <SCORE.INTRA.POLAR.0>
0

>  <SCORE.INTRA.REPUL>
0

>  <SCORE.INTRA.REPUL.0>
0

>  <SCORE.INTRA.SOLV>
-0.443611

>  <SCORE.INTRA.SOLV.lig_0>
-48.5102

>  <SCORE.INTRA.VDW>
-5.47879

>  <SCORE.INTRA.VDW.0>
0.379549

>  <SCORE.INTRA.norm>
-0.252594

>  <SCORE.RESTR>
0

>  <SCORE.RESTR.CAVITY>
0

>  <SCORE.RESTR.norm>
0

>  <SCORE.SYSTEM>
0

>  <SCORE.SYSTEM.CONST>
0

>  <SCORE.SYSTEM.DIHEDRAL>
0

>  <SCORE.SYSTEM.SOLV>
0

>  <SCORE.SYSTEM.norm>
0

>  <SCORE.heavy>
27

>  <SCORE.norm>
-0.600157

>  <RMSD>
18.409

$$$$
ligand
 OpenBabel11021811483D
libRbt.so/2013.1/901 2013/11/27
 27 29  0  0  0  0  0  0  0  0999 V2000
   56.9903   63.7969   21.0456 N   0  0  0  0  0  0  0  0  0  0  0  0
   56.4094   63.6115   19.7167 C   0  0  2  0  0  0  0  0  0  0  0  0
   56.7867   64.7734   18.8439 C   0  0  0  0  0  0  0  0  0  0  0  0
   56.3789   65.8987   19.1118 O   0  0  0  0  0  0  0  0  0  0  0  0
   54.8862   63.5308   19.8101 C   0  0  0  0  0  0  0  0  0  0  0  0
   54.3419   62.9875   18.5015 C   0  0  0  0  0  0  0  0  0  0  0  0
   52.5441   62.6966   18.5172 S   0  0  2  0  0  0  0  0  0  0  0  0
   52.3348   61.1992   19.5253 C   0  0  0  0  0  0  0  0  0  0  0  0
   52.2408   61.7044   16.9337 C   0  0  0  0  0  0  0  0  0  0  0  0
   52.8997   62.1864   15.5736 C   0  0  2  0  0  0  0  0  0  0  0  0
   52.4158   63.3678   14.9758 O   0  0  0  0  0  0  0  0  0  0  0  0
   53.1910   61.2241   14.4927 C   0  0  1  0  0  0  0  0  0  0  0  0
   53.1950   59.8699   14.9461 O   0  0  0  0  0  0  0  0  0  0  0  0
   51.9597   61.6273   13.5512 C   0  0  2  0  0  0  0  0  0  0  0  0
   52.0944   61.0525   12.2861 O   0  0  0  0  0  0  0  0  0  0  0  0
   52.1238   63.1457   13.5222 C   0  0  1  0  0  0  0  0  0  0  0  0
   57.5349   64.5996   17.8905 O   0  0  0  0  0  0  0  0  0  0  0  0
   50.9922   68.0927   14.1365 N   0  0  0  0  0  0  0  0  0  0  0  0
   52.0218   67.3689   14.5838 C   0  0  0  0  0  0  0  0  0  0  0  0
   52.1400   66.0791   14.2824 N   0  0  0  0  0  0  0  0  0  0  0  0
   51.1799   65.4266   13.6081 C   0  0  0  0  0  0  0  0  0  0  0  0
   50.0390   66.1407   13.1591 C   0  0  0  0  0  0  0  0  0  0  0  0
   49.9792   67.5326   13.4466 C   0  0  0  0  0  0  0  0  0  0  0  0
   48.9105   68.3008   13.0311 N   0  0  0  0  0  0  0  0  0  0  0  0
   49.2424   65.2621   12.5255 N   0  0  0  0  0  0  0  0  0  0  0  0
   49.7937   64.0782   12.5544 C   0  0  0  0  0  0  0  0  0  0  0  0
   50.9978   64.1182   13.2000 N   0  0  0  0  0  0  0  0  0  0  0  0
  2  1  1  1  0  0  0
  2  3  1  0  0  0  0
  2  5  1  0  0  0  0
  3  4  1  0  0  0  0
  3 17  1  0  0  0  0
  5  6  1  0  0  0  0
  7  6  1  6  0  0  0
  7  8  1  0  0  0  0
  7  9  1  0  0  0  0
 10  9  1  1  0  0  0
 10 11  1  0  0  0  0
 10 12  1  0  0  0  0
 11 16  1  0  0  0  0
 12 13  1  1  0  0  0
 12 14  1  0  0  0  0
 14 15  1  6  0  0  0
 14 16  1  0  0  0  0
 16 27  1  1  0  0  0
 18 19  2  0  0  0  0
 18 23  1  0  0  0  0
 19 20  1  0  0  0  0
 20 21  2  0  0  0  0
 21 22  1  0  0  0  0
 21 27  1  0  0  0  0
 22 23  2  0  0  0  0
 22 25  1  0  0  0  0
 23 24  1  0  0  0  0
 25 26  2  0  0  0  0
 26 27  1  0  0  0  0
M  END
>  <CHROM.1>
-64.83243639,-165.50325301,174.88618562,-74.08028614,-46.64267964,-69.89820239
49.25880431,52.78434693,63.92843004,15.88487358,-0.20298102,-0.88632260,0.05588586

>  <Name>
ligand

>  <RI>
0

>  <Rbt.Current_Directory>
/home/itssahil/PROJECTS/Mol_Feturizer/New_Systems/rnas/3IQR

>  <Rbt.Executable>
rbdock ($Id: //depot/dev/client3/rdock/2013.1/src/exe/rbdock.cxx#4 $)

>  <Rbt.Library>
libRbt.so (2013.1, Build901 2013/11/27)

>  <Rbt.Parameter_File>
/export/apps/rDock/src/rDock_2013.1_src/data/scripts/dock_solv.prm

>  <Rbt.Receptor>
prm/blind_docking_100.prm

>  <SCORE>
-14.7679

>  <SCORE.INTER>
-9.88652

>  <SCORE.INTER.CONST>
1

>  <SCORE.INTER.POLAR>
0

>  <SCORE.INTER.ROT>
7

>  <SCORE.INTER.SOLV>
16.5218

>  <SCORE.INTER.VDW>
-20.3649

>  <SCORE.INTER.norm>
-0.366167

>  <SCORE.INTRA>
-4.8814

>  <SCORE.INTRA.DIHEDRAL>
-3.07463

>  <SCORE.INTRA.DIHEDRAL.0>
9.29433

>  <SCORE.INTRA.POLAR>
0

>  <SCORE.INTRA.POLAR.0>
0

>  <SCORE.INTRA.REPUL>
0

>  <SCORE.INTRA.REPUL.0>
0

>  <SCORE.INTRA.SOLV>
-1.88969

>  <SCORE.INTRA.SOLV.lig_0>
-48.5102

>  <SCORE.INTRA.VDW>
-2.39924

>  <SCORE.INTRA.VDW.0>
0.379549

>  <SCORE.INTRA.norm>
-0.180793

>  <SCORE.RESTR>
0

>  <SCORE.RESTR.CAVITY>
0

>  <SCORE.RESTR.norm>
0

>  <SCORE.SYSTEM>
0

>  <SCORE.SYSTEM.CONST>
0

>  <SCORE.SYSTEM.DIHEDRAL>
0

>  <SCORE.SYSTEM.SOLV>
0

>  <SCORE.SYSTEM.norm>
0

>  <SCORE.heavy>
27

>  <SCORE.norm>
-0.54696

>  <RMSD>
18.506

$$$$
ligand
 OpenBabel11021811483D
libRbt.so/2013.1/901 2013/11/27
 27 29  0  0  0  0  0  0  0  0999 V2000
   51.0868   68.7473   10.0243 N   0  0  0  0  0  0  0  0  0  0  0  0
   51.0921   69.7803   11.0591 C   0  0  2  0  0  0  0  0  0  0  0  0
   51.2967   71.1228   10.4187 C   0  0  0  0  0  0  0  0  0  0  0  0
   50.6414   72.0882   10.7968 O   0  0  0  0  0  0  0  0  0  0  0  0
   52.2209   69.5256   12.0571 C   0  0  0  0  0  0  0  0  0  0  0  0
   51.9796   68.1929   12.7423 C   0  0  0  0  0  0  0  0  0  0  0  0
   53.2987   67.7131   13.9027 S   0  0  2  0  0  0  0  0  0  0  0  0
   54.7732   67.5175   12.8588 C   0  0  0  0  0  0  0  0  0  0  0  0
   53.1115   65.8340   14.0356 C   0  0  0  0  0  0  0  0  0  0  0  0
   51.9304   65.2277   14.9037 C   0  0  2  0  0  0  0  0  0  0  0  0
   51.9604   65.4150   16.3006 O   0  0  0  0  0  0  0  0  0  0  0  0
   51.4252   63.8649   14.6450 C   0  0  1  0  0  0  0  0  0  0  0  0
   51.8101   63.3683   13.3626 O   0  0  0  0  0  0  0  0  0  0  0  0
   52.1414   63.1635   15.8942 C   0  0  2  0  0  0  0  0  0  0  0  0
   51.6486   61.8716   16.0865 O   0  0  0  0  0  0  0  0  0  0  0  0
   51.7313   64.1169   17.0149 C   0  0  1  0  0  0  0  0  0  0  0  0
   52.1475   71.2578    9.5487 O   0  0  0  0  0  0  0  0  0  0  0  0
   53.0797   61.2551   21.0302 N   0  0  0  0  0  0  0  0  0  0  0  0
   52.3103   60.9745   19.9751 C   0  0  0  0  0  0  0  0  0  0  0  0
   52.1049   61.8706   19.0143 N   0  0  0  0  0  0  0  0  0  0  0  0
   52.5722   63.1250   19.1148 C   0  0  0  0  0  0  0  0  0  0  0  0
   53.3492   63.4880   20.2452 C   0  0  0  0  0  0  0  0  0  0  0  0
   53.6001   62.4835   21.2208 C   0  0  0  0  0  0  0  0  0  0  0  0
   54.3597   62.7523   22.3413 N   0  0  0  0  0  0  0  0  0  0  0  0
   53.6817   64.7828   20.1016 N   0  0  0  0  0  0  0  0  0  0  0  0
   53.1718   65.2403   18.9893 C   0  0  0  0  0  0  0  0  0  0  0  0
   52.4847   64.2599   18.3299 N   0  0  0  0  0  0  0  0  0  0  0  0
  2  1  1  6  0  0  0
  2  3  1  0  0  0  0
  2  5  1  0  0  0  0
  3  4  1  0  0  0  0
  3 17  1  0  0  0  0
  5  6  1  0  0  0  0
  7  6  1  6  0  0  0
  7  8  1  0  0  0  0
  7  9  1  0  0  0  0
 10  9  1  1  0  0  0
 10 11  1  0  0  0  0
 10 12  1  0  0  0  0
 11 16  1  0  0  0  0
 12 13  1  6  0  0  0
 12 14  1  0  0  0  0
 14 15  1  1  0  0  0
 14 16  1  0  0  0  0
 16 27  1  1  0  0  0
 18 19  2  0  0  0  0
 18 23  1  0  0  0  0
 19 20  1  0  0  0  0
 20 21  2  0  0  0  0
 21 22  1  0  0  0  0
 21 27  1  0  0  0  0
 22 23  2  0  0  0  0
 22 25  1  0  0  0  0
 23 24  1  0  0  0  0
 25 26  2  0  0  0  0
 26 27  1  0  0  0  0
M  END
>  <CHROM.1>
137.95869758,-62.20283012,176.95964435,-63.53256573,-75.96868667,-67.09801673
-172.23865545,52.43559309,65.69754736,15.55351812,1.83307216,-1.18023790
-0.63422368

>  <Name>
ligand

>  <RI>
0

>  <Rbt.Current_Directory>
/home/itssahil/PROJECTS/Mol_Feturizer/New_Systems/rnas/3IQR

>  <Rbt.Executable>
rbdock ($Id: //depot/dev/client3/rdock/2013.1/src/exe/rbdock.cxx#4 $)

>  <Rbt.Library>
libRbt.so (2013.1, Build901 2013/11/27)

>  <Rbt.Parameter_File>
/export/apps/rDock/src/rDock_2013.1_src/data/scripts/dock_solv.prm

>  <Rbt.Receptor>
prm/blind_docking_100.prm

>  <SCORE>
-19.6688

>  <SCORE.INTER>
-14.068

>  <SCORE.INTER.CONST>
1

>  <SCORE.INTER.POLAR>
0

>  <SCORE.INTER.ROT>
7

>  <SCORE.INTER.SOLV>
7.30927

>  <SCORE.INTER.VDW>
-20.0818

>  <SCORE.INTER.norm>
-0.521037

>  <SCORE.INTRA>
-5.60082

>  <SCORE.INTRA.DIHEDRAL>
-4.7845

>  <SCORE.INTRA.DIHEDRAL.0>
9.29433

>  <SCORE.INTRA.POLAR>
0

>  <SCORE.INTRA.POLAR.0>
0

>  <SCORE.INTRA.REPUL>
0

>  <SCORE.INTRA.REPUL.0>
0

>  <SCORE.INTRA.SOLV>
-1.13956

>  <SCORE.INTRA.SOLV.lig_0>
-48.5102

>  <SCORE.INTRA.VDW>
-2.63879

>  <SCORE.INTRA.VDW.0>
0.379549

>  <SCORE.INTRA.norm>
-0.207438

>  <SCORE.RESTR>
0

>  <SCORE.RESTR.CAVITY>
0

>  <SCORE.RESTR.norm>
0

>  <SCORE.SYSTEM>
0

>  <SCORE.SYSTEM.CONST>
0

>  <SCORE.SYSTEM.DIHEDRAL>
0

>  <SCORE.SYSTEM.SOLV>
0

>  <SCORE.SYSTEM.norm>
0

>  <SCORE.heavy>
27

>  <SCORE.norm>
-0.728475

>  <RMSD>
18.971

$$$$
ligand
 OpenBabel11021811483D
libRbt.so/2013.1/901 2013/11/27
 27 29  0  0  0  0  0  0  0  0999 V2000
   52.4499   61.0490   11.5494 N   0  0  0  0  0  0  0  0  0  0  0  0
   53.1157   61.0237   12.8509 C   0  0  2  0  0  0  0  0  0  0  0  0
   52.9122   59.6785   13.4860 C   0  0  0  0  0  0  0  0  0  0  0  0
   53.8743   59.0548   13.9217 O   0  0  0  0  0  0  0  0  0  0  0  0
   52.5341   62.1010   13.7654 C   0  0  0  0  0  0  0  0  0  0  0  0
   53.6205   62.5830   14.7095 C   0  0  0  0  0  0  0  0  0  0  0  0
   54.2384   61.2944   15.8386 S   0  0  2  0  0  0  0  0  0  0  0  0
   52.9351   61.1270   17.0938 C   0  0  0  0  0  0  0  0  0  0  0  0
   55.3243   62.2545   17.0564 C   0  0  0  0  0  0  0  0  0  0  0  0
   54.7277   63.5216   17.8012 C   0  0  2  0  0  0  0  0  0  0  0  0
   54.0105   64.4691   17.0429 O   0  0  0  0  0  0  0  0  0  0  0  0
   55.5293   64.2591   18.7976 C   0  0  1  0  0  0  0  0  0  0  0  0
   56.6479   63.5079   19.2708 O   0  0  0  0  0  0  0  0  0  0  0  0
   55.8894   65.5049   17.8576 C   0  0  2  0  0  0  0  0  0  0  0  0
   56.4536   66.5414   18.6033 O   0  0  0  0  0  0  0  0  0  0  0  0
   54.5010   65.8570   17.3269 C   0  0  1  0  0  0  0  0  0  0  0  0
   51.7803   59.2270   13.6038 O   0  0  0  0  0  0  0  0  0  0  0  0
   56.1370   65.9256   12.4844 N   0  0  0  0  0  0  0  0  0  0  0  0
   56.5517   65.2168   13.5379 C   0  0  0  0  0  0  0  0  0  0  0  0
   55.9614   65.3349   14.7235 N   0  0  0  0  0  0  0  0  0  0  0  0
   54.9978   66.2445   14.9387 C   0  0  0  0  0  0  0  0  0  0  0  0
   54.5607   67.0606   13.8634 C   0  0  0  0  0  0  0  0  0  0  0  0
   55.1728   66.8605   12.5950 C   0  0  0  0  0  0  0  0  0  0  0  0
   54.7930   67.6032   11.4954 N   0  0  0  0  0  0  0  0  0  0  0  0
   53.6062   67.8764   14.3443 N   0  0  0  0  0  0  0  0  0  0  0  0
   53.4286   67.6335   15.6155 C   0  0  0  0  0  0  0  0  0  0  0  0
   54.2519   66.6276   16.0380 N   0  0  0  0  0  0  0  0  0  0  0  0
  2  1  1  6  0  0  0
  2  3  1  0  0  0  0
  2  5  1  0  0  0  0
  3  4  1  0  0  0  0
  3 17  1  0  0  0  0
  5  6  1  0  0  0  0
  7  6  1  6  0  0  0
  7  8  1  0  0  0  0
  7  9  1  0  0  0  0
 10  9  1  6  0  0  0
 10 11  1  0  0  0  0
 10 12  1  0  0  0  0
 11 16  1  0  0  0  0
 12 13  1  6  0  0  0
 12 14  1  0  0  0  0
 14 15  1  1  0  0  0
 14 16  1  0  0  0  0
 16 27  1  6  0  0  0
 18 19  2  0  0  0  0
 18 23  1  0  0  0  0
 19 20  1  0  0  0  0
 20 21  2  0  0  0  0
 21 22  1  0  0  0  0
 21 27  1  0  0  0  0
 22 23  2  0  0  0  0
 22 25  1  0  0  0  0
 23 24  1  0  0  0  0
 25 26  2  0  0  0  0
 26 27  1  0  0  0  0
M  END
>  <CHROM.1>
129.23828121,-149.14052783,-63.40019300,-76.02461740,52.36388712,-46.14306557
-66.60901923,54.42501776,63.83700745,15.27543001,2.66421424,1.20386634,2.34771519

>  <Name>
ligand

>  <RI>
0

>  <Rbt.Current_Directory>
/home/itssahil/PROJECTS/Mol_Feturizer/New_Systems/rnas/3IQR

>  <Rbt.Executable>
rbdock ($Id: //depot/dev/client3/rdock/2013.1/src/exe/rbdock.cxx#4 $)

>  <Rbt.Library>
libRbt.so (2013.1, Build901 2013/11/27)

>  <Rbt.Parameter_File>
/export/apps/rDock/src/rDock_2013.1_src/data/scripts/dock_solv.prm

>  <Rbt.Receptor>
prm/blind_docking_100.prm

>  <SCORE>
-12.0322

>  <SCORE.INTER>
-6.59024

>  <SCORE.INTER.CONST>
1

>  <SCORE.INTER.POLAR>
0

>  <SCORE.INTER.ROT>
7

>  <SCORE.INTER.SOLV>
8.92107

>  <SCORE.INTER.VDW>
-15.6338

>  <SCORE.INTER.norm>
-0.244083

>  <SCORE.INTRA>
-5.44196

>  <SCORE.INTRA.DIHEDRAL>
-1.68147

>  <SCORE.INTRA.DIHEDRAL.0>
9.29433

>  <SCORE.INTRA.POLAR>
0

>  <SCORE.INTRA.POLAR.0>
0

>  <SCORE.INTRA.REPUL>
0

>  <SCORE.INTRA.REPUL.0>
0

>  <SCORE.INTRA.SOLV>
-1.52258

>  <SCORE.INTRA.SOLV.lig_0>
-48.5102

>  <SCORE.INTRA.VDW>
-3.83994

>  <SCORE.INTRA.VDW.0>
0.379549

>  <SCORE.INTRA.norm>
-0.201554

>  <SCORE.RESTR>
0

>  <SCORE.RESTR.CAVITY>
0

>  <SCORE.RESTR.norm>
0

>  <SCORE.SYSTEM>
0

>  <SCORE.SYSTEM.CONST>
0

>  <SCORE.SYSTEM.DIHEDRAL>
0

>  <SCORE.SYSTEM.SOLV>
0

>  <SCORE.SYSTEM.norm>
0

>  <SCORE.heavy>
27

>  <SCORE.norm>
-0.445637

>  <RMSD>
19.000

$$$$
ligand
 OpenBabel11021811483D
libRbt.so/2013.1/901 2013/11/27
 27 29  0  0  0  0  0  0  0  0999 V2000
   54.4645   67.0605   22.4195 N   0  0  0  0  0  0  0  0  0  0  0  0
   55.5733   66.7626   21.5141 C   0  0  2  0  0  0  0  0  0  0  0  0
   56.2671   68.0411   21.1422 C   0  0  0  0  0  0  0  0  0  0  0  0
   57.4817   68.0520   20.9720 O   0  0  0  0  0  0  0  0  0  0  0  0
   55.0551   66.0879   20.2447 C   0  0  0  0  0  0  0  0  0  0  0  0
   56.2357   65.7392   19.3566 C   0  0  0  0  0  0  0  0  0  0  0  0
   55.8418   64.5339   18.0495 S   0  0  2  0  0  0  0  0  0  0  0  0
   57.2377   64.6469   16.8915 C   0  0  0  0  0  0  0  0  0  0  0  0
   54.7417   65.5126   16.8596 C   0  0  0  0  0  0  0  0  0  0  0  0
   53.2352   65.0651   16.6441 C   0  0  2  0  0  0  0  0  0  0  0  0
   52.9618   63.6934   16.4678 O   0  0  0  0  0  0  0  0  0  0  0  0
   52.3451   65.8193   15.7395 C   0  0  1  0  0  0  0  0  0  0  0  0
   52.8412   67.1244   15.4394 O   0  0  0  0  0  0  0  0  0  0  0  0
   52.3885   64.7745   14.5263 C   0  0  2  0  0  0  0  0  0  0  0  0
   51.4165   65.0821   13.5726 O   0  0  0  0  0  0  0  0  0  0  0  0
   52.0836   63.4769   15.2722 C   0  0  1  0  0  0  0  0  0  0  0  0
   55.6112   69.0605   20.9696 O   0  0  0  0  0  0  0  0  0  0  0  0
   53.9771   61.2916   11.0567 N   0  0  0  0  0  0  0  0  0  0  0  0
   53.6130   62.5536   11.2996 C   0  0  0  0  0  0  0  0  0  0  0  0
   53.1605   62.9224   12.4944 N   0  0  0  0  0  0  0  0  0  0  0  0
   52.9506   62.0258   13.4712 C   0  0  0  0  0  0  0  0  0  0  0  0
   53.2702   60.6624   13.2427 C   0  0  0  0  0  0  0  0  0  0  0  0
   53.8113   60.3176   11.9731 C   0  0  0  0  0  0  0  0  0  0  0  0
   54.1623   59.0159   11.6777 N   0  0  0  0  0  0  0  0  0  0  0  0
   52.9631   59.9873   14.3643 N   0  0  0  0  0  0  0  0  0  0  0  0
   52.4805   60.8166   15.2507 C   0  0  0  0  0  0  0  0  0  0  0  0
   52.4583   62.0927   14.7615 N   0  0  0  0  0  0  0  0  0  0  0  0
  2  1  1  1  0  0  0
  2  3  1  0  0  0  0
  2  5  1  0  0  0  0
  3  4  1  0  0  0  0
  3 17  1  0  0  0  0
  5  6  1  0  0  0  0
  7  6  1  1  0  0  0
  7  8  1  0  0  0  0
  7  9  1  0  0  0  0
 10  9  1  6  0  0  0
 10 11  1  0  0  0  0
 10 12  1  0  0  0  0
 11 16  1  0  0  0  0
 12 13  1  6  0  0  0
 12 14  1  0  0  0  0
 14 15  1  6  0  0  0
 14 16  1  0  0  0  0
 16 27  1  6  0  0  0
 18 19  2  0  0  0  0
 18 23  1  0  0  0  0
 19 20  1  0  0  0  0
 20 21  2  0  0  0  0
 21 22  1  0  0  0  0
 21 27  1  0  0  0  0
 22 23  2  0  0  0  0
 22 25  1  0  0  0  0
 23 24  1  0  0  0  0
 25 26  2  0  0  0  0
 26 27  1  0  0  0  0
M  END
>  <CHROM.1>
145.03377058,-177.56872204,163.77079052,164.85305153,-116.24209303,-44.59601308
-119.72023289,54.13734967,64.27854049,16.30707520,1.20459175,-0.74017172
0.67808019

>  <Name>
ligand

>  <RI>
0

>  <Rbt.Current_Directory>
/home/itssahil/PROJECTS/Mol_Feturizer/New_Systems/rnas/3IQR

>  <Rbt.Executable>
rbdock ($Id: //depot/dev/client3/rdock/2013.1/src/exe/rbdock.cxx#4 $)

>  <Rbt.Library>
libRbt.so (2013.1, Build901 2013/11/27)

>  <Rbt.Parameter_File>
/export/apps/rDock/src/rDock_2013.1_src/data/scripts/dock_solv.prm

>  <Rbt.Receptor>
prm/blind_docking_100.prm

>  <SCORE>
-11.3903

>  <SCORE.INTER>
-8.3328

>  <SCORE.INTER.CONST>
1

>  <SCORE.INTER.POLAR>
0

>  <SCORE.INTER.ROT>
7

>  <SCORE.INTER.SOLV>
8.39268

>  <SCORE.INTER.VDW>
-16.6194

>  <SCORE.INTER.norm>
-0.308622

>  <SCORE.INTRA>
-3.05751

>  <SCORE.INTRA.DIHEDRAL>
0.319645

>  <SCORE.INTRA.DIHEDRAL.0>
9.29433

>  <SCORE.INTRA.POLAR>
0

>  <SCORE.INTRA.POLAR.0>
0

>  <SCORE.INTRA.REPUL>
0

>  <SCORE.INTRA.REPUL.0>
0

>  <SCORE.INTRA.SOLV>
-1.8035

>  <SCORE.INTRA.SOLV.lig_0>
-48.5102

>  <SCORE.INTRA.VDW>
-2.31559

>  <SCORE.INTRA.VDW.0>
0.379549

>  <SCORE.INTRA.norm>
-0.113241

>  <SCORE.RESTR>
0

>  <SCORE.RESTR.CAVITY>
0

>  <SCORE.RESTR.norm>
0

>  <SCORE.SYSTEM>
0

>  <SCORE.SYSTEM.CONST>
0

>  <SCORE.SYSTEM.DIHEDRAL>
0

>  <SCORE.SYSTEM.SOLV>
0

>  <SCORE.SYSTEM.norm>
0

>  <SCORE.heavy>
27

>  <SCORE.norm>
-0.421863

>  <RMSD>
19.154

$$$$
ligand
 OpenBabel11021811483D
libRbt.so/2013.1/901 2013/11/27
 27 29  0  0  0  0  0  0  0  0999 V2000
   48.2389   65.8422   10.3910 N   0  0  0  0  0  0  0  0  0  0  0  0
   48.8558   67.1454   10.1479 C   0  0  2  0  0  0  0  0  0  0  0  0
   49.2875   67.2297    8.7124 C   0  0  0  0  0  0  0  0  0  0  0  0
   49.0346   66.3099    7.9415 O   0  0  0  0  0  0  0  0  0  0  0  0
   50.0764   67.3308   11.0484 C   0  0  0  0  0  0  0  0  0  0  0  0
   49.6059   67.5498   12.4748 C   0  0  0  0  0  0  0  0  0  0  0  0
   50.9569   67.6019   13.6949 S   0  0  2  0  0  0  0  0  0  0  0  0
   52.2686   68.5598   12.8798 C   0  0  0  0  0  0  0  0  0  0  0  0
   51.9016   65.9917   13.3807 C   0  0  0  0  0  0  0  0  0  0  0  0
   51.1812   64.6022   13.6388 C   0  0  2  0  0  0  0  0  0  0  0  0
   50.7876   64.2853   14.9548 O   0  0  0  0  0  0  0  0  0  0  0  0
   51.6812   63.3637   13.0101 C   0  0  1  0  0  0  0  0  0  0  0  0
   52.5550   63.6179   11.9095 O   0  0  0  0  0  0  0  0  0  0  0  0
   52.3843   62.7646   14.3185 C   0  0  2  0  0  0  0  0  0  0  0  0
   52.7531   61.4333   14.1172 O   0  0  0  0  0  0  0  0  0  0  0  0
   51.2483   62.9086   15.3293 C   0  0  1  0  0  0  0  0  0  0  0  0
   49.8549   68.2359    8.3065 O   0  0  0  0  0  0  0  0  0  0  0  0
   53.1870   60.0266   19.0798 N   0  0  0  0  0  0  0  0  0  0  0  0
   53.0017   59.7658   17.7830 C   0  0  0  0  0  0  0  0  0  0  0  0
   52.4959   60.6809   16.9614 N   0  0  0  0  0  0  0  0  0  0  0  0
   52.0530   61.8633   17.4175 C   0  0  0  0  0  0  0  0  0  0  0  0
   52.1772   62.1656   18.7982 C   0  0  0  0  0  0  0  0  0  0  0  0
   52.7813   61.1859   19.6342 C   0  0  0  0  0  0  0  0  0  0  0  0
   52.9527   61.4098   20.9853 N   0  0  0  0  0  0  0  0  0  0  0  0
   51.6590   63.3920   18.9862 N   0  0  0  0  0  0  0  0  0  0  0  0
   51.2259   63.8589   17.8457 C   0  0  0  0  0  0  0  0  0  0  0  0
   51.4515   62.9646   16.8369 N   0  0  0  0  0  0  0  0  0  0  0  0
  2  1  1  6  0  0  0
  2  3  1  0  0  0  0
  2  5  1  0  0  0  0
  3  4  1  0  0  0  0
  3 17  1  0  0  0  0
  5  6  1  0  0  0  0
  7  6  1  6  0  0  0
  7  8  1  0  0  0  0
  7  9  1  0  0  0  0
 10  9  1  1  0  0  0
 10 11  1  0  0  0  0
 10 12  1  0  0  0  0
 11 16  1  0  0  0  0
 12 13  1  6  0  0  0
 12 14  1  0  0  0  0
 14 15  1  6  0  0  0
 14 16  1  0  0  0  0
 16 27  1  1  0  0  0
 18 19  2  0  0  0  0
 18 23  1  0  0  0  0
 19 20  1  0  0  0  0
 20 21  2  0  0  0  0
 21 22  1  0  0  0  0
 21 27  1  0  0  0  0
 22 23  2  0  0  0  0
 22 25  1  0  0  0  0
 23 24  1  0  0  0  0
 25 26  2  0  0  0  0
 26 27  1  0  0  0  0
M  END
>  <CHROM.1>
3.74209803,-72.22859119,173.55199164,40.83519914,-64.21421152,-63.92259662
-171.53328393,51.28778631,64.38402340,14.29521925,-2.91223255,-1.30335580
0.84644838

>  <Name>
ligand

>  <RI>
0

>  <Rbt.Current_Directory>
/home/itssahil/PROJECTS/Mol_Feturizer/New_Systems/rnas/3IQR

>  <Rbt.Executable>
rbdock ($Id: //depot/dev/client3/rdock/2013.1/src/exe/rbdock.cxx#4 $)

>  <Rbt.Library>
libRbt.so (2013.1, Build901 2013/11/27)

>  <Rbt.Parameter_File>
/export/apps/rDock/src/rDock_2013.1_src/data/scripts/dock_solv.prm

>  <Rbt.Receptor>
prm/blind_docking_100.prm

>  <SCORE>
-16.8561

>  <SCORE.INTER>
-12.221

>  <SCORE.INTER.CONST>
1

>  <SCORE.INTER.POLAR>
0

>  <SCORE.INTER.ROT>
7

>  <SCORE.INTER.SOLV>
13.9833

>  <SCORE.INTER.VDW>
-21.0751

>  <SCORE.INTER.norm>
-0.452628

>  <SCORE.INTRA>
-4.63512

>  <SCORE.INTRA.DIHEDRAL>
-4.42416

>  <SCORE.INTRA.DIHEDRAL.0>
9.29433

>  <SCORE.INTRA.POLAR>
0

>  <SCORE.INTRA.POLAR.0>
0

>  <SCORE.INTRA.REPUL>
0

>  <SCORE.INTRA.REPUL.0>
0

>  <SCORE.INTRA.SOLV>
-1.1415

>  <SCORE.INTRA.SOLV.lig_0>
-48.5102

>  <SCORE.INTRA.VDW>
-1.85229

>  <SCORE.INTRA.VDW.0>
0.379549

>  <SCORE.INTRA.norm>
-0.171671

>  <SCORE.RESTR>
0

>  <SCORE.RESTR.CAVITY>
0

>  <SCORE.RESTR.norm>
0

>  <SCORE.SYSTEM>
0

>  <SCORE.SYSTEM.CONST>
0

>  <SCORE.SYSTEM.DIHEDRAL>
0

>  <SCORE.SYSTEM.SOLV>
0

>  <SCORE.SYSTEM.norm>
0

>  <SCORE.heavy>
27

>  <SCORE.norm>
-0.624299

>  <RMSD>
19.202

$$$$
ligand
 OpenBabel11021811483D
libRbt.so/2013.1/901 2013/11/27
 27 29  0  0  0  0  0  0  0  0999 V2000
   55.6892   63.8908   16.6148 N   0  0  0  0  0  0  0  0  0  0  0  0
   55.5739   65.2427   16.0698 C   0  0  2  0  0  0  0  0  0  0  0  0
   54.7419   66.0816   16.9962 C   0  0  0  0  0  0  0  0  0  0  0  0
   55.1827   67.1436   17.4233 O   0  0  0  0  0  0  0  0  0  0  0  0
   54.9072   65.2055   14.6953 C   0  0  0  0  0  0  0  0  0  0  0  0
   55.1186   66.5434   14.0103 C   0  0  0  0  0  0  0  0  0  0  0  0
   53.9630   66.8578   12.6383 S   0  0  2  0  0  0  0  0  0  0  0  0
   54.5512   68.4081   11.8948 C   0  0  0  0  0  0  0  0  0  0  0  0
   52.5264   67.7701   13.4676 C   0  0  0  0  0  0  0  0  0  0  0  0
   51.3591   66.9352   14.1433 C   0  0  2  0  0  0  0  0  0  0  0  0
   51.7046   65.8418   14.9633 O   0  0  0  0  0  0  0  0  0  0  0  0
   50.1580   66.5561   13.3734 C   0  0  1  0  0  0  0  0  0  0  0  0
   50.0025   67.3250   12.1800 O   0  0  0  0  0  0  0  0  0  0  0  0
   50.5589   65.0214   13.1519 C   0  0  2  0  0  0  0  0  0  0  0  0
   49.4772   64.2940   12.6521 O   0  0  0  0  0  0  0  0  0  0  0  0
   50.9181   64.6236   14.5822 C   0  0  1  0  0  0  0  0  0  0  0  0
   53.6090   65.7219   17.2895 O   0  0  0  0  0  0  0  0  0  0  0  0
   51.7519   61.4329   18.4880 N   0  0  0  0  0  0  0  0  0  0  0  0
   50.9546   62.4995   18.3848 C   0  0  0  0  0  0  0  0  0  0  0  0
   50.8666   63.1869   17.2499 N   0  0  0  0  0  0  0  0  0  0  0  0
   51.6508   62.9047   16.1975 C   0  0  0  0  0  0  0  0  0  0  0  0
   52.5549   61.8141   16.2779 C   0  0  0  0  0  0  0  0  0  0  0  0
   52.5745   61.0639   17.4864 C   0  0  0  0  0  0  0  0  0  0  0  0
   53.4143   59.9792   17.6383 N   0  0  0  0  0  0  0  0  0  0  0  0
   53.2133   61.7546   15.1071 N   0  0  0  0  0  0  0  0  0  0  0  0
   52.7950   62.7140   14.3255 C   0  0  0  0  0  0  0  0  0  0  0  0
   51.8215   63.4516   14.9391 N   0  0  0  0  0  0  0  0  0  0  0  0
  2  1  1  1  0  0  0
  2  3  1  0  0  0  0
  2  5  1  0  0  0  0
  3  4  1  0  0  0  0
  3 17  1  0  0  0  0
  5  6  1  0  0  0  0
  7  6  1  1  0  0  0
  7  8  1  0  0  0  0
  7  9  1  0  0  0  0
 10  9  1  6  0  0  0
 10 11  1  0  0  0  0
 10 12  1  0  0  0  0
 11 16  1  0  0  0  0
 12 13  1  6  0  0  0
 12 14  1  0  0  0  0
 14 15  1  1  0  0  0
 14 16  1  0  0  0  0
 16 27  1  6  0  0  0
 18 19  2  0  0  0  0
 18 23  1  0  0  0  0
 19 20  1  0  0  0  0
 20 21  2  0  0  0  0
 21 22  1  0  0  0  0
 21 27  1  0  0  0  0
 22 23  2  0  0  0  0
 22 25  1  0  0  0  0
 23 24  1  0  0  0  0
 25 26  2  0  0  0  0
 26 27  1  0  0  0  0
M  END
>  <CHROM.1>
125.72335652,-165.70063853,-161.23190494,-173.86766513,-85.92561883,45.31581077
92.75714010,52.71749506,64.79461972,15.09961467,-1.60427441,-0.43868983,-0.69827012

>  <Name>
ligand

>  <RI>
0

>  <Rbt.Current_Directory>
/home/itssahil/PROJECTS/Mol_Feturizer/New_Systems/rnas/3IQR

>  <Rbt.Executable>
rbdock ($Id: //depot/dev/client3/rdock/2013.1/src/exe/rbdock.cxx#4 $)

>  <Rbt.Library>
libRbt.so (2013.1, Build901 2013/11/27)

>  <Rbt.Parameter_File>
/export/apps/rDock/src/rDock_2013.1_src/data/scripts/dock_solv.prm

>  <Rbt.Receptor>
prm/blind_docking_100.prm

>  <SCORE>
-20.531

>  <SCORE.INTER>
-13.7117

>  <SCORE.INTER.CONST>
1

>  <SCORE.INTER.POLAR>
0

>  <SCORE.INTER.ROT>
7

>  <SCORE.INTER.SOLV>
8.16308

>  <SCORE.INTER.VDW>
-20.1288

>  <SCORE.INTER.norm>
-0.507841

>  <SCORE.INTRA>
-6.8193

>  <SCORE.INTRA.DIHEDRAL>
-0.962276

>  <SCORE.INTRA.DIHEDRAL.0>
9.29433

>  <SCORE.INTRA.POLAR>
0

>  <SCORE.INTRA.POLAR.0>
0

>  <SCORE.INTRA.REPUL>
0

>  <SCORE.INTRA.REPUL.0>
0

>  <SCORE.INTRA.SOLV>
-1.05136

>  <SCORE.INTRA.SOLV.lig_0>
-48.5102

>  <SCORE.INTRA.VDW>
-5.81248

>  <SCORE.INTRA.VDW.0>
0.379549

>  <SCORE.INTRA.norm>
-0.252567

>  <SCORE.RESTR>
0

>  <SCORE.RESTR.CAVITY>
0

>  <SCORE.RESTR.norm>
0

>  <SCORE.SYSTEM>
0

>  <SCORE.SYSTEM.CONST>
0

>  <SCORE.SYSTEM.DIHEDRAL>
0

>  <SCORE.SYSTEM.SOLV>
0

>  <SCORE.SYSTEM.norm>
0

>  <SCORE.heavy>
27

>  <SCORE.norm>
-0.760408

>  <RMSD>
19.216

$$$$
ligand
 OpenBabel11021811483D
libRbt.so/2013.1/901 2013/11/27
 27 29  0  0  0  0  0  0  0  0999 V2000
   53.7305   70.2928    9.4639 N   0  0  0  0  0  0  0  0  0  0  0  0
   54.0193   69.3960   10.5821 C   0  0  2  0  0  0  0  0  0  0  0  0
   55.0344   68.3771   10.1512 C   0  0  0  0  0  0  0  0  0  0  0  0
   55.9110   68.0182   10.9304 O   0  0  0  0  0  0  0  0  0  0  0  0
   52.7470   68.6763   11.0272 C   0  0  0  0  0  0  0  0  0  0  0  0
   53.0386   67.9061   12.3022 C   0  0  0  0  0  0  0  0  0  0  0  0
   51.7081   66.7628   12.7913 S   0  0  2  0  0  0  0  0  0  0  0  0
   50.3976   67.8416   13.4402 C   0  0  0  0  0  0  0  0  0  0  0  0
   52.1892   66.2469   14.5481 C   0  0  0  0  0  0  0  0  0  0  0  0
   51.6067   64.9008   15.1523 C   0  0  2  0  0  0  0  0  0  0  0  0
   51.5630   64.7588   16.5542 O   0  0  0  0  0  0  0  0  0  0  0  0
   51.9807   63.5921   14.5808 C   0  0  1  0  0  0  0  0  0  0  0  0
   52.5450   63.7022   13.2735 O   0  0  0  0  0  0  0  0  0  0  0  0
   53.0074   63.1737   15.7367 C   0  0  2  0  0  0  0  0  0  0  0  0
   53.3635   61.8289   15.6200 O   0  0  0  0  0  0  0  0  0  0  0  0
   52.1524   63.4454   16.9730 C   0  0  1  0  0  0  0  0  0  0  0  0
   54.9583   67.8773    9.0362 O   0  0  0  0  0  0  0  0  0  0  0  0
   54.8510   67.0088   19.4530 N   0  0  0  0  0  0  0  0  0  0  0  0
   54.5144   66.9057   18.1646 C   0  0  0  0  0  0  0  0  0  0  0  0
   53.7730   65.8931   17.7249 N   0  0  0  0  0  0  0  0  0  0  0  0
   53.4220   64.8797   18.5323 C   0  0  0  0  0  0  0  0  0  0  0  0
   53.8037   64.9161   19.8984 C   0  0  0  0  0  0  0  0  0  0  0  0
   54.5423   66.0469   20.3449 C   0  0  0  0  0  0  0  0  0  0  0  0
   54.9378   66.1650   21.6620 N   0  0  0  0  0  0  0  0  0  0  0  0
   53.3363   63.7940   20.4732 N   0  0  0  0  0  0  0  0  0  0  0  0
   52.7107   63.0770   19.5783 C   0  0  0  0  0  0  0  0  0  0  0  0
   52.7202   63.7006   18.3621 N   0  0  0  0  0  0  0  0  0  0  0  0
  2  1  1  6  0  0  0
  2  3  1  0  0  0  0
  2  5  1  0  0  0  0
  3  4  1  0  0  0  0
  3 17  1  0  0  0  0
  5  6  1  0  0  0  0
  7  6  1  1  0  0  0
  7  8  1  0  0  0  0
  7  9  1  0  0  0  0
 10  9  1  1  0  0  0
 10 11  1  0  0  0  0
 10 12  1  0  0  0  0
 11 16  1  0  0  0  0
 12 13  1  6  0  0  0
 12 14  1  0  0  0  0
 14 15  1  6  0  0  0
 14 16  1  0  0  0  0
 16 27  1  1  0  0  0
 18 19  2  0  0  0  0
 18 23  1  0  0  0  0
 19 20  1  0  0  0  0
 20 21  2  0  0  0  0
 21 22  1  0  0  0  0
 21 27  1  0  0  0  0
 22 23  2  0  0  0  0
 22 25  1  0  0  0  0
 23 24  1  0  0  0  0
 25 26  2  0  0  0  0
 26 27  1  0  0  0  0
M  END
>  <CHROM.1>
141.67568894,-172.23178827,-169.65944627,-74.22062441,-158.55140777,-157.67115869
-43.68772854,53.19663817,65.94294097,15.17170181,-1.54131047,1.01035936,1.95605078

>  <Name>
ligand

>  <RI>
0

>  <Rbt.Current_Directory>
/home/itssahil/PROJECTS/Mol_Feturizer/New_Systems/rnas/3IQR

>  <Rbt.Executable>
rbdock ($Id: //depot/dev/client3/rdock/2013.1/src/exe/rbdock.cxx#4 $)

>  <Rbt.Library>
libRbt.so (2013.1, Build901 2013/11/27)

>  <Rbt.Parameter_File>
/export/apps/rDock/src/rDock_2013.1_src/data/scripts/dock_solv.prm

>  <Rbt.Receptor>
prm/blind_docking_100.prm

>  <SCORE>
-13.2008

>  <SCORE.INTER>
-8.95686

>  <SCORE.INTER.CONST>
1

>  <SCORE.INTER.POLAR>
0

>  <SCORE.INTER.ROT>
7

>  <SCORE.INTER.SOLV>
6.19145

>  <SCORE.INTER.VDW>
-16.3017

>  <SCORE.INTER.norm>
-0.331736

>  <SCORE.INTRA>
-4.24394

>  <SCORE.INTRA.DIHEDRAL>
-1.32052

>  <SCORE.INTRA.DIHEDRAL.0>
9.29433

>  <SCORE.INTRA.POLAR>
0

>  <SCORE.INTRA.POLAR.0>
0

>  <SCORE.INTRA.REPUL>
0

>  <SCORE.INTRA.REPUL.0>
0

>  <SCORE.INTRA.SOLV>
-1.68877

>  <SCORE.INTRA.SOLV.lig_0>
-48.5102

>  <SCORE.INTRA.VDW>
-2.7393

>  <SCORE.INTRA.VDW.0>
0.379549

>  <SCORE.INTRA.norm>
-0.157183

>  <SCORE.RESTR>
0

>  <SCORE.RESTR.CAVITY>
0

>  <SCORE.RESTR.norm>
0

>  <SCORE.SYSTEM>
0

>  <SCORE.SYSTEM.CONST>
0

>  <SCORE.SYSTEM.DIHEDRAL>
0

>  <SCORE.SYSTEM.SOLV>
0

>  <SCORE.SYSTEM.norm>
0

>  <SCORE.heavy>
27

>  <SCORE.norm>
-0.488919

>  <RMSD>
19.453

$$$$
ligand
 OpenBabel11021811483D
libRbt.so/2013.1/901 2013/11/27
 27 29  0  0  0  0  0  0  0  0999 V2000
   53.5681   69.8055    9.6800 N   0  0  0  0  0  0  0  0  0  0  0  0
   52.1795   69.4974   10.0189 C   0  0  2  0  0  0  0  0  0  0  0  0
   51.2654   70.2355    9.0842 C   0  0  0  0  0  0  0  0  0  0  0  0
   51.5292   71.3859    8.7505 O   0  0  0  0  0  0  0  0  0  0  0  0
   51.8766   69.9241   11.4546 C   0  0  0  0  0  0  0  0  0  0  0  0
   52.2965   68.8109   12.3970 C   0  0  0  0  0  0  0  0  0  0  0  0
   51.4096   67.2436   12.1252 S   0  0  2  0  0  0  0  0  0  0  0  0
   49.7494   67.5375   12.8030 C   0  0  0  0  0  0  0  0  0  0  0  0
   51.8717   66.2036   13.6380 C   0  0  0  0  0  0  0  0  0  0  0  0
   51.2235   64.7678   13.8244 C   0  0  2  0  0  0  0  0  0  0  0  0
   50.8170   64.3783   15.1168 O   0  0  0  0  0  0  0  0  0  0  0  0
   51.8062   63.5842   13.1621 C   0  0  1  0  0  0  0  0  0  0  0  0
   52.6904   63.9288   12.0949 O   0  0  0  0  0  0  0  0  0  0  0  0
   52.5102   62.9731   14.4645 C   0  0  2  0  0  0  0  0  0  0  0  0
   52.9569   61.6729   14.2222 O   0  0  0  0  0  0  0  0  0  0  0  0
   51.3443   63.0151   15.4504 C   0  0  1  0  0  0  0  0  0  0  0  0
   50.2805   69.6710    8.6254 O   0  0  0  0  0  0  0  0  0  0  0  0
   53.2285   60.0338   19.1507 N   0  0  0  0  0  0  0  0  0  0  0  0
   53.0800   59.8147   17.8415 C   0  0  0  0  0  0  0  0  0  0  0  0
   52.5821   60.7503   17.0384 N   0  0  0  0  0  0  0  0  0  0  0  0
   52.1106   61.9103   17.5223 C   0  0  0  0  0  0  0  0  0  0  0  0
   52.1954   62.1672   18.9152 C   0  0  0  0  0  0  0  0  0  0  0  0
   52.7921   61.1680   19.7331 C   0  0  0  0  0  0  0  0  0  0  0  0
   52.9259   61.3481   21.0950 N   0  0  0  0  0  0  0  0  0  0  0  0
   51.6549   63.3794   19.1308 N   0  0  0  0  0  0  0  0  0  0  0  0
   51.2442   63.8788   17.9958 C   0  0  0  0  0  0  0  0  0  0  0  0
   51.5083   63.0225   16.9638 N   0  0  0  0  0  0  0  0  0  0  0  0
  2  1  1  6  0  0  0
  2  3  1  0  0  0  0
  2  5  1  0  0  0  0
  3  4  1  0  0  0  0
  3 17  1  0  0  0  0
  5  6  1  0  0  0  0
  7  6  1  1  0  0  0
  7  8  1  0  0  0  0
  7  9  1  0  0  0  0
 10  9  1  1  0  0  0
 10 11  1  0  0  0  0
 10 12  1  0  0  0  0
 11 16  1  0  0  0  0
 12 13  1  6  0  0  0
 12 14  1  0  0  0  0
 14 15  1  6  0  0  0
 14 16  1  0  0  0  0
 16 27  1  1  0  0  0
 18 19  2  0  0  0  0
 18 23  1  0  0  0  0
 19 20  1  0  0  0  0
 20 21  2  0  0  0  0
 21 22  1  0  0  0  0
 21 27  1  0  0  0  0
 22 23  2  0  0  0  0
 22 25  1  0  0  0  0
 23 24  1  0  0  0  0
 25 26  2  0  0  0  0
 26 27  1  0  0  0  0
M  END
>  <CHROM.1>
-39.60858263,-85.04552571,-61.37040159,-74.23230305,176.52274808,-139.24670258
-173.90029617,51.91006930,65.09629838,14.28623332,-1.87079882,-1.31458684
2.05195757

>  <Name>
ligand

>  <RI>
0

>  <Rbt.Current_Directory>
/home/itssahil/PROJECTS/Mol_Feturizer/New_Systems/rnas/3IQR

>  <Rbt.Executable>
rbdock ($Id: //depot/dev/client3/rdock/2013.1/src/exe/rbdock.cxx#4 $)

>  <Rbt.Library>
libRbt.so (2013.1, Build901 2013/11/27)

>  <Rbt.Parameter_File>
/export/apps/rDock/src/rDock_2013.1_src/data/scripts/dock_solv.prm

>  <Rbt.Receptor>
prm/blind_docking_100.prm

>  <SCORE>
-13.9528

>  <SCORE.INTER>
-10.5487

>  <SCORE.INTER.CONST>
1

>  <SCORE.INTER.POLAR>
0

>  <SCORE.INTER.ROT>
7

>  <SCORE.INTER.SOLV>
11.5129

>  <SCORE.INTER.VDW>
-19.1367

>  <SCORE.INTER.norm>
-0.390692

>  <SCORE.INTRA>
-3.40412

>  <SCORE.INTRA.DIHEDRAL>
0.172711

>  <SCORE.INTRA.DIHEDRAL.0>
9.29433

>  <SCORE.INTRA.POLAR>
0

>  <SCORE.INTRA.POLAR.0>
0

>  <SCORE.INTRA.REPUL>
0

>  <SCORE.INTRA.REPUL.0>
0

>  <SCORE.INTRA.SOLV>
-0.764219

>  <SCORE.INTRA.SOLV.lig_0>
-48.5102

>  <SCORE.INTRA.VDW>
-3.10836

>  <SCORE.INTRA.VDW.0>
0.379549

>  <SCORE.INTRA.norm>
-0.126078

>  <SCORE.RESTR>
0

>  <SCORE.RESTR.CAVITY>
0

>  <SCORE.RESTR.norm>
0

>  <SCORE.SYSTEM>
0

>  <SCORE.SYSTEM.CONST>
0

>  <SCORE.SYSTEM.DIHEDRAL>
0

>  <SCORE.SYSTEM.SOLV>
0

>  <SCORE.SYSTEM.norm>
0

>  <SCORE.heavy>
27

>  <SCORE.norm>
-0.516771

>  <RMSD>
19.671

$$$$
ligand
 OpenBabel11021811483D
libRbt.so/2013.1/901 2013/11/27
 27 29  0  0  0  0  0  0  0  0999 V2000
   54.1559   65.9093   22.4634 N   0  0  0  0  0  0  0  0  0  0  0  0
   54.5724   66.2405   21.1016 C   0  0  2  0  0  0  0  0  0  0  0  0
   55.0179   67.6735   21.0538 C   0  0  0  0  0  0  0  0  0  0  0  0
   55.8282   68.0352   20.2071 O   0  0  0  0  0  0  0  0  0  0  0  0
   53.4097   66.0462   20.1291 C   0  0  0  0  0  0  0  0  0  0  0  0
   53.0921   64.5650   20.0327 C   0  0  0  0  0  0  0  0  0  0  0  0
   51.8630   64.1584   18.7519 S   0  0  2  0  0  0  0  0  0  0  0  0
   51.8614   62.3425   18.6837 C   0  0  0  0  0  0  0  0  0  0  0  0
   52.8547   64.2439   17.1415 C   0  0  0  0  0  0  0  0  0  0  0  0
   53.6289   65.5784   16.7728 C   0  0  2  0  0  0  0  0  0  0  0  0
   52.8863   66.6691   16.2764 O   0  0  0  0  0  0  0  0  0  0  0  0
   54.9053   65.5313   16.0326 C   0  0  1  0  0  0  0  0  0  0  0  0
   55.5106   64.2381   16.0587 O   0  0  0  0  0  0  0  0  0  0  0  0
   54.3118   65.9811   14.6146 C   0  0  2  0  0  0  0  0  0  0  0  0
   55.3404   66.2857   13.7212 O   0  0  0  0  0  0  0  0  0  0  0  0
   53.5161   67.2166   15.0309 C   0  0  1  0  0  0  0  0  0  0  0  0
   54.5387   68.4852   21.8351 O   0  0  0  0  0  0  0  0  0  0  0  0
   52.7302   70.0142   10.8253 N   0  0  0  0  0  0  0  0  0  0  0  0
   53.8602   69.6739   11.4510 C   0  0  0  0  0  0  0  0  0  0  0  0
   53.8426   68.9046   12.5355 N   0  0  0  0  0  0  0  0  0  0  0  0
   52.6884   68.5264   13.1074 C   0  0  0  0  0  0  0  0  0  0  0  0
   51.4595   68.9099   12.5107 C   0  0  0  0  0  0  0  0  0  0  0  0
   51.5205   69.6797   11.3160 C   0  0  0  0  0  0  0  0  0  0  0  0
   50.3702   70.0792   10.6661 N   0  0  0  0  0  0  0  0  0  0  0  0
   50.4722   68.4121   13.2757 N   0  0  0  0  0  0  0  0  0  0  0  0
   50.9906   67.7664   14.2860 C   0  0  0  0  0  0  0  0  0  0  0  0
   52.3560   67.7922   14.2308 N   0  0  0  0  0  0  0  0  0  0  0  0
  2  1  1  1  0  0  0
  2  3  1  0  0  0  0
  2  5  1  0  0  0  0
  3  4  1  0  0  0  0
  3 17  1  0  0  0  0
  5  6  1  0  0  0  0
  7  6  1  1  0  0  0
  7  8  1  0  0  0  0
  7  9  1  0  0  0  0
 10  9  1  6  0  0  0
 10 11  1  0  0  0  0
 10 12  1  0  0  0  0
 11 16  1  0  0  0  0
 12 13  1  6  0  0  0
 12 14  1  0  0  0  0
 14 15  1  6  0  0  0
 14 16  1  0  0  0  0
 16 27  1  6  0  0  0
 18 19  2  0  0  0  0
 18 23  1  0  0  0  0
 19 20  1  0  0  0  0
 20 21  2  0  0  0  0
 21 22  1  0  0  0  0
 21 27  1  0  0  0  0
 22 23  2  0  0  0  0
 22 25  1  0  0  0  0
 23 24  1  0  0  0  0
 25 26  2  0  0  0  0
 26 27  1  0  0  0  0
M  END
>  <CHROM.1>
153.69147337,-67.89694946,-172.78235783,171.78474106,-56.35716957,-76.77964668
171.53127045,53.22472780,66.80691736,16.30569649,-1.17285454,-1.09842975
-0.82900664

>  <Name>
ligand

>  <RI>
0

>  <Rbt.Current_Directory>
/home/itssahil/PROJECTS/Mol_Feturizer/New_Systems/rnas/3IQR

>  <Rbt.Executable>
rbdock ($Id: //depot/dev/client3/rdock/2013.1/src/exe/rbdock.cxx#4 $)

>  <Rbt.Library>
libRbt.so (2013.1, Build901 2013/11/27)

>  <Rbt.Parameter_File>
/export/apps/rDock/src/rDock_2013.1_src/data/scripts/dock_solv.prm

>  <Rbt.Receptor>
prm/blind_docking_100.prm

>  <SCORE>
-19.5596

>  <SCORE.INTER>
-13.8377

>  <SCORE.INTER.CONST>
1

>  <SCORE.INTER.POLAR>
0

>  <SCORE.INTER.ROT>
7

>  <SCORE.INTER.SOLV>
12.9623

>  <SCORE.INTER.VDW>
-21.8126

>  <SCORE.INTER.norm>
-0.512507

>  <SCORE.INTRA>
-5.72194

>  <SCORE.INTRA.DIHEDRAL>
-3.92665

>  <SCORE.INTRA.DIHEDRAL.0>
9.29433

>  <SCORE.INTRA.POLAR>
0

>  <SCORE.INTRA.POLAR.0>
0

>  <SCORE.INTRA.REPUL>
0

>  <SCORE.INTRA.REPUL.0>
0

>  <SCORE.INTRA.SOLV>
-1.13609

>  <SCORE.INTRA.SOLV.lig_0>
-48.5102

>  <SCORE.INTRA.VDW>
-3.19057

>  <SCORE.INTRA.VDW.0>
0.379549

>  <SCORE.INTRA.norm>
-0.211924

>  <SCORE.RESTR>
0

>  <SCORE.RESTR.CAVITY>
0

>  <SCORE.RESTR.norm>
0

>  <SCORE.SYSTEM>
0

>  <SCORE.SYSTEM.CONST>
0

>  <SCORE.SYSTEM.DIHEDRAL>
0

>  <SCORE.SYSTEM.SOLV>
0

>  <SCORE.SYSTEM.norm>
0

>  <SCORE.heavy>
27

>  <SCORE.norm>
-0.72443

>  <RMSD>
19.850

$$$$
ligand
 OpenBabel11021811483D
libRbt.so/2013.1/901 2013/11/27
 27 29  0  0  0  0  0  0  0  0999 V2000
   51.8956   69.1679    9.2519 N   0  0  0  0  0  0  0  0  0  0  0  0
   50.8458   69.9797    9.8656 C   0  0  2  0  0  0  0  0  0  0  0  0
   51.4331   71.2807   10.3309 C   0  0  0  0  0  0  0  0  0  0  0  0
   52.6106   71.5377   10.1030 O   0  0  0  0  0  0  0  0  0  0  0  0
   50.2411   69.2479   11.0631 C   0  0  0  0  0  0  0  0  0  0  0  0
   51.3326   68.9960   12.0873 C   0  0  0  0  0  0  0  0  0  0  0  0
   50.8085   67.9408   13.4760 S   0  0  2  0  0  0  0  0  0  0  0  0
   52.3532   67.5214   14.3364 C   0  0  0  0  0  0  0  0  0  0  0  0
   50.7322   66.2094   12.7142 C   0  0  0  0  0  0  0  0  0  0  0  0
   50.1450   65.0077   13.5671 C   0  0  2  0  0  0  0  0  0  0  0  0
   50.8211   64.6277   14.7443 O   0  0  0  0  0  0  0  0  0  0  0  0
   49.6664   63.7765   12.9079 C   0  0  1  0  0  0  0  0  0  0  0  0
   49.4289   63.9554   11.5111 O   0  0  0  0  0  0  0  0  0  0  0  0
   50.9324   62.8672   13.2763 C   0  0  2  0  0  0  0  0  0  0  0  0
   50.6738   61.5232   13.0012 O   0  0  0  0  0  0  0  0  0  0  0  0
   51.0418   63.1452   14.7743 C   0  0  1  0  0  0  0  0  0  0  0  0
   50.7226   72.0990   10.9006 O   0  0  0  0  0  0  0  0  0  0  0  0
   52.5066   61.3111   19.3154 N   0  0  0  0  0  0  0  0  0  0  0  0
   51.2893   61.4857   18.7939 C   0  0  0  0  0  0  0  0  0  0  0  0
   51.1289   61.9628   17.5631 N   0  0  0  0  0  0  0  0  0  0  0  0
   52.1735   62.3875   16.8348 C   0  0  0  0  0  0  0  0  0  0  0  0
   53.4836   62.2741   17.3680 C   0  0  0  0  0  0  0  0  0  0  0  0
   53.6194   61.7002   18.6625 C   0  0  0  0  0  0  0  0  0  0  0  0
   54.8605   61.5409   19.2448 N   0  0  0  0  0  0  0  0  0  0  0  0
   54.3320   62.7698   16.4502 N   0  0  0  0  0  0  0  0  0  0  0  0
   53.6550   63.1794   15.4108 C   0  0  0  0  0  0  0  0  0  0  0  0
   52.3172   62.9594   15.5843 N   0  0  0  0  0  0  0  0  0  0  0  0
  2  1  1  1  0  0  0
  2  3  1  0  0  0  0
  2  5  1  0  0  0  0
  3  4  1  0  0  0  0
  3 17  1  0  0  0  0
  5  6  1  0  0  0  0
  7  6  1  6  0  0  0
  7  8  1  0  0  0  0
  7  9  1  0  0  0  0
 10  9  1  6  0  0  0
 10 11  1  0  0  0  0
 10 12  1  0  0  0  0
 11 16  1  0  0  0  0
 12 13  1  6  0  0  0
 12 14  1  0  0  0  0
 14 15  1  1  0  0  0
 14 16  1  0  0  0  0
 16 27  1  6  0  0  0
 18 19  2  0  0  0  0
 18 23  1  0  0  0  0
 19 20  1  0  0  0  0
 20 21  2  0  0  0  0
 21 22  1  0  0  0  0
 21 27  1  0  0  0  0
 22 23  2  0  0  0  0
 22 25  1  0  0  0  0
 23 24  1  0  0  0  0
 25 26  2  0  0  0  0
 26 27  1  0  0  0  0
M  END
>  <CHROM.1>
3.71764176,60.44747593,-172.50105541,168.52366501,-172.91159556,-63.43341672
110.16930362,51.59518179,65.42336104,14.05668294,1.78953891,-0.88502105,-0.51240643

>  <Name>
ligand

>  <RI>
0

>  <Rbt.Current_Directory>
/home/itssahil/PROJECTS/Mol_Feturizer/New_Systems/rnas/3IQR

>  <Rbt.Executable>
rbdock ($Id: //depot/dev/client3/rdock/2013.1/src/exe/rbdock.cxx#4 $)

>  <Rbt.Library>
libRbt.so (2013.1, Build901 2013/11/27)

>  <Rbt.Parameter_File>
/export/apps/rDock/src/rDock_2013.1_src/data/scripts/dock_solv.prm

>  <Rbt.Receptor>
prm/blind_docking_100.prm

>  <SCORE>
-21.4848

>  <SCORE.INTER>
-17.0095

>  <SCORE.INTER.CONST>
1

>  <SCORE.INTER.POLAR>
0

>  <SCORE.INTER.ROT>
7

>  <SCORE.INTER.SOLV>
5.33957

>  <SCORE.INTER.VDW>
-21.3862

>  <SCORE.INTER.norm>
-0.62998

>  <SCORE.INTRA>
-4.48575

>  <SCORE.INTRA.DIHEDRAL>
-4.46797

>  <SCORE.INTRA.DIHEDRAL.0>
9.29433

>  <SCORE.INTRA.POLAR>
0

>  <SCORE.INTRA.POLAR.0>
0

>  <SCORE.INTRA.REPUL>
0

>  <SCORE.INTRA.REPUL.0>
0

>  <SCORE.INTRA.SOLV>
-1.15981

>  <SCORE.INTRA.SOLV.lig_0>
-48.5102

>  <SCORE.INTRA.VDW>
-1.67186

>  <SCORE.INTRA.VDW.0>
0.379549

>  <SCORE.INTRA.norm>
-0.166139

>  <SCORE.RESTR>
0.0104508

>  <SCORE.RESTR.CAVITY>
0.0104508

>  <SCORE.RESTR.norm>
0.000387066

>  <SCORE.SYSTEM>
0

>  <SCORE.SYSTEM.CONST>
0

>  <SCORE.SYSTEM.DIHEDRAL>
0

>  <SCORE.SYSTEM.SOLV>
0

>  <SCORE.SYSTEM.norm>
0

>  <SCORE.heavy>
27

>  <SCORE.norm>
-0.795732

>  <RMSD>
20.065

$$$$
ligand
 OpenBabel11021811483D
libRbt.so/2013.1/901 2013/11/27
 27 29  0  0  0  0  0  0  0  0999 V2000
   54.2211   64.3627   22.8154 N   0  0  0  0  0  0  0  0  0  0  0  0
   53.7472   63.1580   22.1357 C   0  0  2  0  0  0  0  0  0  0  0  0
   53.7656   62.0058   23.0981 C   0  0  0  0  0  0  0  0  0  0  0  0
   52.9163   61.1247   23.0153 O   0  0  0  0  0  0  0  0  0  0  0  0
   54.6493   62.8302   20.9466 C   0  0  0  0  0  0  0  0  0  0  0  0
   54.4786   63.9056   19.8892 C   0  0  0  0  0  0  0  0  0  0  0  0
   55.5296   63.6668   18.4212 S   0  0  2  0  0  0  0  0  0  0  0  0
   57.0930   64.4919   18.8425 C   0  0  0  0  0  0  0  0  0  0  0  0
   55.0454   65.1051   17.2895 C   0  0  0  0  0  0  0  0  0  0  0  0
   55.7551   65.2605   15.8793 C   0  0  2  0  0  0  0  0  0  0  0  0
   55.5775   66.4648   15.1684 O   0  0  0  0  0  0  0  0  0  0  0  0
   55.7401   64.1557   14.9003 C   0  0  1  0  0  0  0  0  0  0  0  0
   55.4040   62.8997   15.4911 O   0  0  0  0  0  0  0  0  0  0  0  0
   54.6235   64.7798   13.9365 C   0  0  2  0  0  0  0  0  0  0  0  0
   54.5527   64.0705   12.7361 O   0  0  0  0  0  0  0  0  0  0  0  0
   55.1812   66.1893   13.7489 C   0  0  1  0  0  0  0  0  0  0  0  0
   54.6541   61.9288   23.9370 O   0  0  0  0  0  0  0  0  0  0  0  0
   54.4606   69.2047    9.6846 N   0  0  0  0  0  0  0  0  0  0  0  0
   55.3402   68.2230    9.9004 C   0  0  0  0  0  0  0  0  0  0  0  0
   55.3405   67.5360   11.0389 N   0  0  0  0  0  0  0  0  0  0  0  0
   54.5312   67.8676   12.0573 C   0  0  0  0  0  0  0  0  0  0  0  0
   53.6164   68.9402   11.8963 C   0  0  0  0  0  0  0  0  0  0  0  0
   53.6024   69.6099   10.6414 C   0  0  0  0  0  0  0  0  0  0  0  0
   52.7315   70.6530   10.3999 N   0  0  0  0  0  0  0  0  0  0  0  0
   52.9394   69.0638   13.0514 N   0  0  0  0  0  0  0  0  0  0  0  0
   53.3647   68.1673   13.9010 C   0  0  0  0  0  0  0  0  0  0  0  0
   54.3403   67.3909   13.3411 N   0  0  0  0  0  0  0  0  0  0  0  0
  2  1  1  1  0  0  0
  2  3  1  0  0  0  0
  2  5  1  0  0  0  0
  3  4  1  0  0  0  0
  3 17  1  0  0  0  0
  5  6  1  0  0  0  0
  7  6  1  1  0  0  0
  7  8  1  0  0  0  0
  7  9  1  0  0  0  0
 10  9  1  1  0  0  0
 10 11  1  0  0  0  0
 10 12  1  0  0  0  0
 11 16  1  0  0  0  0
 12 13  1  1  0  0  0
 12 14  1  0  0  0  0
 14 15  1  6  0  0  0
 14 16  1  0  0  0  0
 16 27  1  1  0  0  0
 18 19  2  0  0  0  0
 18 23  1  0  0  0  0
 19 20  1  0  0  0  0
 20 21  2  0  0  0  0
 21 22  1  0  0  0  0
 21 27  1  0  0  0  0
 22 23  2  0  0  0  0
 22 25  1  0  0  0  0
 23 24  1  0  0  0  0
 25 26  2  0  0  0  0
 26 27  1  0  0  0  0
M  END
>  <CHROM.1>
146.60505643,-67.76050787,178.58414772,-87.56891524,179.79445807,-167.87100354
140.25508517,54.62638770,65.46921268,16.10777997,1.53752520,-0.97726281,2.04256477

>  <Name>
ligand

>  <RI>
0

>  <Rbt.Current_Directory>
/home/itssahil/PROJECTS/Mol_Feturizer/New_Systems/rnas/3IQR

>  <Rbt.Executable>
rbdock ($Id: //depot/dev/client3/rdock/2013.1/src/exe/rbdock.cxx#4 $)

>  <Rbt.Library>
libRbt.so (2013.1, Build901 2013/11/27)

>  <Rbt.Parameter_File>
/export/apps/rDock/src/rDock_2013.1_src/data/scripts/dock_solv.prm

>  <Rbt.Receptor>
prm/blind_docking_100.prm

>  <SCORE>
-14.7702

>  <SCORE.INTER>
-9.48614

>  <SCORE.INTER.CONST>
1

>  <SCORE.INTER.POLAR>
0

>  <SCORE.INTER.ROT>
7

>  <SCORE.INTER.SOLV>
10.5542

>  <SCORE.INTER.VDW>
-18.1088

>  <SCORE.INTER.norm>
-0.351338

>  <SCORE.INTRA>
-5.28402

>  <SCORE.INTRA.DIHEDRAL>
-4.08047

>  <SCORE.INTRA.DIHEDRAL.0>
9.29433

>  <SCORE.INTRA.POLAR>
0

>  <SCORE.INTRA.POLAR.0>
0

>  <SCORE.INTRA.REPUL>
0

>  <SCORE.INTRA.REPUL.0>
0

>  <SCORE.INTRA.SOLV>
-1.04083

>  <SCORE.INTRA.SOLV.lig_0>
-48.5102

>  <SCORE.INTRA.VDW>
-2.72337

>  <SCORE.INTRA.VDW.0>
0.379549

>  <SCORE.INTRA.norm>
-0.195705

>  <SCORE.RESTR>
0

>  <SCORE.RESTR.CAVITY>
0

>  <SCORE.RESTR.norm>
0

>  <SCORE.SYSTEM>
0

>  <SCORE.SYSTEM.CONST>
0

>  <SCORE.SYSTEM.DIHEDRAL>
0

>  <SCORE.SYSTEM.SOLV>
0

>  <SCORE.SYSTEM.norm>
0

>  <SCORE.heavy>
27

>  <SCORE.norm>
-0.547043

>  <RMSD>
20.085

$$$$
ligand
 OpenBabel11021811483D
libRbt.so/2013.1/901 2013/11/27
 27 29  0  0  0  0  0  0  0  0999 V2000
   53.3162   60.4025   18.7542 N   0  0  0  0  0  0  0  0  0  0  0  0
   52.3643   61.3389   19.3502 C   0  0  2  0  0  0  0  0  0  0  0  0
   51.3677   61.7621   18.3101 C   0  0  0  0  0  0  0  0  0  0  0  0
   50.5848   62.6759   18.5478 O   0  0  0  0  0  0  0  0  0  0  0  0
   53.0938   62.5747   19.8751 C   0  0  0  0  0  0  0  0  0  0  0  0
   53.6235   63.3704   18.6961 C   0  0  0  0  0  0  0  0  0  0  0  0
   54.4170   64.9409   19.1658 S   0  0  2  0  0  0  0  0  0  0  0  0
   53.1938   65.7695   20.2239 C   0  0  0  0  0  0  0  0  0  0  0  0
   53.9962   66.0986   17.7282 C   0  0  0  0  0  0  0  0  0  0  0  0
   55.0560   66.3185   16.5686 C   0  0  2  0  0  0  0  0  0  0  0  0
   54.8190   67.3423   15.6289 O   0  0  0  0  0  0  0  0  0  0  0  0
   55.6314   65.1688   15.8430 C   0  0  1  0  0  0  0  0  0  0  0  0
   55.4501   63.9330   16.5354 O   0  0  0  0  0  0  0  0  0  0  0  0
   54.7620   65.3401   14.5088 C   0  0  2  0  0  0  0  0  0  0  0  0
   55.2580   64.5286   13.4868 O   0  0  0  0  0  0  0  0  0  0  0  0
   54.9787   66.8263   14.2304 C   0  0  1  0  0  0  0  0  0  0  0  0
   51.3677   61.2202   17.2122 O   0  0  0  0  0  0  0  0  0  0  0  0
   54.5417   68.5196    9.4270 N   0  0  0  0  0  0  0  0  0  0  0  0
   55.5176   67.8328   10.0270 C   0  0  0  0  0  0  0  0  0  0  0  0
   55.4185   67.4645   11.3009 N   0  0  0  0  0  0  0  0  0  0  0  0
   54.3866   67.8563   12.0650 C   0  0  0  0  0  0  0  0  0  0  0  0
   53.3508   68.6349   11.4869 C   0  0  0  0  0  0  0  0  0  0  0  0
   53.4618   68.9553   10.1054 C   0  0  0  0  0  0  0  0  0  0  0  0
   52.4887   69.6956    9.4651 N   0  0  0  0  0  0  0  0  0  0  0  0
   52.4563   68.8921   12.4572 N   0  0  0  0  0  0  0  0  0  0  0  0
   52.8583   68.3452   13.5733 C   0  0  0  0  0  0  0  0  0  0  0  0
   54.0394   67.6817   13.3919 N   0  0  0  0  0  0  0  0  0  0  0  0
  2  1  1  6  0  0  0
  2  3  1  0  0  0  0
  2  5  1  0  0  0  0
  3  4  1  0  0  0  0
  3 17  1  0  0  0  0
  5  6  1  0  0  0  0
  7  6  1  6  0  0  0
  7  8  1  0  0  0  0
  7  9  1  0  0  0  0
 10  9  1  6  0  0  0
 10 11  1  0  0  0  0
 10 12  1  0  0  0  0
 11 16  1  0  0  0  0
 12 13  1  1  0  0  0
 12 14  1  0  0  0  0
 14 15  1  6  0  0  0
 14 16  1  0  0  0  0
 16 27  1  6  0  0  0
 18 19  2  0  0  0  0
 18 23  1  0  0  0  0
 19 20  1  0  0  0  0
 20 21  2  0  0  0  0
 21 22  1  0  0  0  0
 21 27  1  0  0  0  0
 22 23  2  0  0  0  0
 22 25  1  0  0  0  0
 23 24  1  0  0  0  0
 25 26  2  0  0  0  0
 26 27  1  0  0  0  0
M  END
>  <CHROM.1>
-170.55168380,68.82952125,175.84317086,-51.68637966,-97.24485610,-169.76086383
152.06780032,53.79033517,65.56707081,15.40597950,1.76784566,0.92456656,2.03409894

>  <Name>
ligand

>  <RI>
0

>  <Rbt.Current_Directory>
/home/itssahil/PROJECTS/Mol_Feturizer/New_Systems/rnas/3IQR

>  <Rbt.Executable>
rbdock ($Id: //depot/dev/client3/rdock/2013.1/src/exe/rbdock.cxx#4 $)

>  <Rbt.Library>
libRbt.so (2013.1, Build901 2013/11/27)

>  <Rbt.Parameter_File>
/export/apps/rDock/src/rDock_2013.1_src/data/scripts/dock_solv.prm

>  <Rbt.Receptor>
prm/blind_docking_100.prm

>  <SCORE>
-12.6436

>  <SCORE.INTER>
-10.795

>  <SCORE.INTER.CONST>
1

>  <SCORE.INTER.POLAR>
0

>  <SCORE.INTER.ROT>
7

>  <SCORE.INTER.SOLV>
8.30771

>  <SCORE.INTER.VDW>
-18.2326

>  <SCORE.INTER.norm>
-0.399814

>  <SCORE.INTRA>
-1.84867

>  <SCORE.INTRA.DIHEDRAL>
-1.42359

>  <SCORE.INTRA.DIHEDRAL.0>
9.29433

>  <SCORE.INTRA.POLAR>
0

>  <SCORE.INTRA.POLAR.0>
0

>  <SCORE.INTRA.REPUL>
0

>  <SCORE.INTRA.REPUL.0>
0

>  <SCORE.INTRA.SOLV>
-0.823519

>  <SCORE.INTRA.SOLV.lig_0>
-48.5102

>  <SCORE.INTRA.VDW>
-0.725114

>  <SCORE.INTRA.VDW.0>
0.379549

>  <SCORE.INTRA.norm>
-0.0684692

>  <SCORE.RESTR>
0

>  <SCORE.RESTR.CAVITY>
0

>  <SCORE.RESTR.norm>
0

>  <SCORE.SYSTEM>
0

>  <SCORE.SYSTEM.CONST>
0

>  <SCORE.SYSTEM.DIHEDRAL>
0

>  <SCORE.SYSTEM.SOLV>
0

>  <SCORE.SYSTEM.norm>
0

>  <SCORE.heavy>
27

>  <SCORE.norm>
-0.468283

>  <RMSD>
20.119

$$$$
ligand
 OpenBabel11021811483D
libRbt.so/2013.1/901 2013/11/27
 27 29  0  0  0  0  0  0  0  0999 V2000
   53.4434   60.4950   17.6902 N   0  0  0  0  0  0  0  0  0  0  0  0
   52.7573   61.7844   17.6222 C   0  0  2  0  0  0  0  0  0  0  0  0
   51.8397   61.9207   18.8027 C   0  0  0  0  0  0  0  0  0  0  0  0
   51.5879   60.9430   19.4991 O   0  0  0  0  0  0  0  0  0  0  0  0
   51.9360   61.8812   16.3372 C   0  0  0  0  0  0  0  0  0  0  0  0
   52.8619   61.7032   15.1477 C   0  0  0  0  0  0  0  0  0  0  0  0
   52.0369   61.9063   13.5369 S   0  0  2  0  0  0  0  0  0  0  0  0
   53.3469   61.6046   12.3141 C   0  0  0  0  0  0  0  0  0  0  0  0
   52.1342   63.7701   13.2198 C   0  0  0  0  0  0  0  0  0  0  0  0
   51.2969   64.7609   14.1327 C   0  0  2  0  0  0  0  0  0  0  0  0
   50.4396   65.6877   13.5056 O   0  0  0  0  0  0  0  0  0  0  0  0
   51.9237   65.4386   15.2847 C   0  0  1  0  0  0  0  0  0  0  0  0
   53.1475   64.8226   15.6879 O   0  0  0  0  0  0  0  0  0  0  0  0
   52.0757   66.8748   14.5923 C   0  0  2  0  0  0  0  0  0  0  0  0
   52.4213   67.8451   15.5347 O   0  0  0  0  0  0  0  0  0  0  0  0
   50.6611   67.0673   14.0491 C   0  0  1  0  0  0  0  0  0  0  0  0
   51.3783   63.0178   19.0903 O   0  0  0  0  0  0  0  0  0  0  0  0
   53.0036   70.1968   10.7552 N   0  0  0  0  0  0  0  0  0  0  0  0
   53.4788   69.5084   11.7966 C   0  0  0  0  0  0  0  0  0  0  0  0
   52.6891   68.7198   12.5196 N   0  0  0  0  0  0  0  0  0  0  0  0
   51.3657   68.6640   12.3014 C   0  0  0  0  0  0  0  0  0  0  0  0
   50.8043   69.4210   11.2406 C   0  0  0  0  0  0  0  0  0  0  0  0
   51.6911   70.2033   10.4499 C   0  0  0  0  0  0  0  0  0  0  0  0
   51.2259   70.9555    9.3904 N   0  0  0  0  0  0  0  0  0  0  0  0
   49.4794   69.1918   11.2447 N   0  0  0  0  0  0  0  0  0  0  0  0
   49.1849   68.3691   12.2157 C   0  0  0  0  0  0  0  0  0  0  0  0
   50.3103   67.9987   12.8974 N   0  0  0  0  0  0  0  0  0  0  0  0
  2  1  1  1  0  0  0
  2  3  1  0  0  0  0
  2  5  1  0  0  0  0
  3  4  1  0  0  0  0
  3 17  1  0  0  0  0
  5  6  1  0  0  0  0
  7  6  1  1  0  0  0
  7  8  1  0  0  0  0
  7  9  1  0  0  0  0
 10  9  1  6  0  0  0
 10 11  1  0  0  0  0
 10 12  1  0  0  0  0
 11 16  1  0  0  0  0
 12 13  1  6  0  0  0
 12 14  1  0  0  0  0
 14 15  1  1  0  0  0
 14 16  1  0  0  0  0
 16 27  1  6  0  0  0
 18 19  2  0  0  0  0
 18 23  1  0  0  0  0
 19 20  1  0  0  0  0
 20 21  2  0  0  0  0
 21 22  1  0  0  0  0
 21 27  1  0  0  0  0
 22 23  2  0  0  0  0
 22 25  1  0  0  0  0
 23 24  1  0  0  0  0
 25 26  2  0  0  0  0
 26 27  1  0  0  0  0
M  END
>  <CHROM.1>
-12.58244483,-58.34851464,-176.12163488,-178.65512397,-68.11129154,-126.60209286
-109.28485239,51.82533373,65.44778436,14.16724815,-1.12803626,1.34788979
-1.06730062

>  <Name>
ligand

>  <RI>
0

>  <Rbt.Current_Directory>
/home/itssahil/PROJECTS/Mol_Feturizer/New_Systems/rnas/3IQR

>  <Rbt.Executable>
rbdock ($Id: //depot/dev/client3/rdock/2013.1/src/exe/rbdock.cxx#4 $)

>  <Rbt.Library>
libRbt.so (2013.1, Build901 2013/11/27)

>  <Rbt.Parameter_File>
/export/apps/rDock/src/rDock_2013.1_src/data/scripts/dock_solv.prm

>  <Rbt.Receptor>
prm/blind_docking_100.prm

>  <SCORE>
-19.551

>  <SCORE.INTER>
-15.8782

>  <SCORE.INTER.CONST>
1

>  <SCORE.INTER.POLAR>
0

>  <SCORE.INTER.ROT>
7

>  <SCORE.INTER.SOLV>
11.5841

>  <SCORE.INTER.VDW>
-22.7135

>  <SCORE.INTER.norm>
-0.58808

>  <SCORE.INTRA>
-3.67281

>  <SCORE.INTRA.DIHEDRAL>
-0.797617

>  <SCORE.INTRA.DIHEDRAL.0>
9.29433

>  <SCORE.INTRA.POLAR>
0

>  <SCORE.INTRA.POLAR.0>
0

>  <SCORE.INTRA.REPUL>
0

>  <SCORE.INTRA.REPUL.0>
0

>  <SCORE.INTRA.SOLV>
-0.478778

>  <SCORE.INTRA.SOLV.lig_0>
-48.5102

>  <SCORE.INTRA.VDW>
-3.03461

>  <SCORE.INTRA.VDW.0>
0.379549

>  <SCORE.INTRA.norm>
-0.13603

>  <SCORE.RESTR>
0

>  <SCORE.RESTR.CAVITY>
0

>  <SCORE.RESTR.norm>
0

>  <SCORE.SYSTEM>
0

>  <SCORE.SYSTEM.CONST>
0

>  <SCORE.SYSTEM.DIHEDRAL>
0

>  <SCORE.SYSTEM.SOLV>
0

>  <SCORE.SYSTEM.norm>
0

>  <SCORE.heavy>
27

>  <SCORE.norm>
-0.72411

>  <RMSD>
20.317

$$$$
ligand
 OpenBabel11021811483D
libRbt.so/2013.1/901 2013/11/27
 27 29  0  0  0  0  0  0  0  0999 V2000
   56.4566   67.3616   22.3779 N   0  0  0  0  0  0  0  0  0  0  0  0
   55.4627   67.9905   21.5093 C   0  0  2  0  0  0  0  0  0  0  0  0
   54.2373   68.3169   22.3131 C   0  0  0  0  0  0  0  0  0  0  0  0
   53.4895   67.4177   22.6826 O   0  0  0  0  0  0  0  0  0  0  0  0
   55.0773   67.0448   20.3726 C   0  0  0  0  0  0  0  0  0  0  0  0
   56.2936   66.8095   19.4955 C   0  0  0  0  0  0  0  0  0  0  0  0
   56.2482   65.2343   18.5826 S   0  0  2  0  0  0  0  0  0  0  0  0
   57.9546   64.9939   18.0059 C   0  0  0  0  0  0  0  0  0  0  0  0
   55.7044   65.7448   16.8426 C   0  0  0  0  0  0  0  0  0  0  0  0
   55.8707   64.7212   15.6422 C   0  0  2  0  0  0  0  0  0  0  0  0
   55.5141   65.1446   14.3457 O   0  0  0  0  0  0  0  0  0  0  0  0
   55.4493   63.3137   15.7857 C   0  0  1  0  0  0  0  0  0  0  0  0
   55.2812   62.9246   17.1495 O   0  0  0  0  0  0  0  0  0  0  0  0
   54.0964   63.4398   14.9379 C   0  0  2  0  0  0  0  0  0  0  0  0
   53.5645   62.1787   14.6631 O   0  0  0  0  0  0  0  0  0  0  0  0
   54.6233   64.1362   13.6846 C   0  0  1  0  0  0  0  0  0  0  0  0
   54.0109   69.4771   22.6321 O   0  0  0  0  0  0  0  0  0  0  0  0
   55.1541   67.6908   10.0496 N   0  0  0  0  0  0  0  0  0  0  0  0
   56.0505   67.1419   10.8737 C   0  0  0  0  0  0  0  0  0  0  0  0
   55.7003   66.1988   11.7433 N   0  0  0  0  0  0  0  0  0  0  0  0
   54.4180   65.8354   11.9038 C   0  0  0  0  0  0  0  0  0  0  0  0
   53.4204   66.4308   11.0893 C   0  0  0  0  0  0  0  0  0  0  0  0
   53.8429   67.3896   10.1271 C   0  0  0  0  0  0  0  0  0  0  0  0
   52.9361   68.0028    9.2864 N   0  0  0  0  0  0  0  0  0  0  0  0
   52.2395   65.9006   11.4531 N   0  0  0  0  0  0  0  0  0  0  0  0
   52.4294   65.0417   12.4188 C   0  0  0  0  0  0  0  0  0  0  0  0
   53.7562   64.9493   12.7336 N   0  0  0  0  0  0  0  0  0  0  0  0
  2  1  1  1  0  0  0
  2  3  1  0  0  0  0
  2  5  1  0  0  0  0
  3  4  1  0  0  0  0
  3 17  1  0  0  0  0
  5  6  1  0  0  0  0
  7  6  1  1  0  0  0
  7  8  1  0  0  0  0
  7  9  1  0  0  0  0
 10  9  1  1  0  0  0
 10 11  1  0  0  0  0
 10 12  1  0  0  0  0
 11 16  1  0  0  0  0
 12 13  1  1  0  0  0
 12 14  1  0  0  0  0
 14 15  1  6  0  0  0
 14 16  1  0  0  0  0
 16 27  1  1  0  0  0
 18 19  2  0  0  0  0
 18 23  1  0  0  0  0
 19 20  1  0  0  0  0
 20 21  2  0  0  0  0
 21 22  1  0  0  0  0
 21 27  1  0  0  0  0
 22 23  2  0  0  0  0
 22 25  1  0  0  0  0
 23 24  1  0  0  0  0
 25 26  2  0  0  0  0
 26 27  1  0  0  0  0
M  END
>  <CHROM.1>
-72.57406072,-64.60705922,154.88296709,-164.93634912,165.46400738,-177.22585745
49.36809232,54.87177290,65.90044198,15.93448926,1.15847700,-1.27613617,1.05995762

>  <Name>
ligand

>  <RI>
0

>  <Rbt.Current_Directory>
/home/itssahil/PROJECTS/Mol_Feturizer/New_Systems/rnas/3IQR

>  <Rbt.Executable>
rbdock ($Id: //depot/dev/client3/rdock/2013.1/src/exe/rbdock.cxx#4 $)

>  <Rbt.Library>
libRbt.so (2013.1, Build901 2013/11/27)

>  <Rbt.Parameter_File>
/export/apps/rDock/src/rDock_2013.1_src/data/scripts/dock_solv.prm

>  <Rbt.Receptor>
prm/blind_docking_100.prm

>  <SCORE>
-13.5066

>  <SCORE.INTER>
-10.5734

>  <SCORE.INTER.CONST>
1

>  <SCORE.INTER.POLAR>
0

>  <SCORE.INTER.ROT>
7

>  <SCORE.INTER.SOLV>
8.00751

>  <SCORE.INTER.VDW>
-17.9848

>  <SCORE.INTER.norm>
-0.391609

>  <SCORE.INTRA>
-2.93317

>  <SCORE.INTRA.DIHEDRAL>
-1.42173

>  <SCORE.INTRA.DIHEDRAL.0>
9.29433

>  <SCORE.INTRA.POLAR>
0

>  <SCORE.INTRA.POLAR.0>
0

>  <SCORE.INTRA.REPUL>
0

>  <SCORE.INTRA.REPUL.0>
0

>  <SCORE.INTRA.SOLV>
-0.640266

>  <SCORE.INTRA.SOLV.lig_0>
-48.5102

>  <SCORE.INTRA.VDW>
-1.90217

>  <SCORE.INTRA.VDW.0>
0.379549

>  <SCORE.INTRA.norm>
-0.108636

>  <SCORE.RESTR>
0

>  <SCORE.RESTR.CAVITY>
0

>  <SCORE.RESTR.norm>
0

>  <SCORE.SYSTEM>
0

>  <SCORE.SYSTEM.CONST>
0

>  <SCORE.SYSTEM.DIHEDRAL>
0

>  <SCORE.SYSTEM.SOLV>
0

>  <SCORE.SYSTEM.norm>
0

>  <SCORE.heavy>
27

>  <SCORE.norm>
-0.500245

>  <RMSD>
20.380

$$$$
ligand
 OpenBabel11021811483D
libRbt.so/2013.1/901 2013/11/27
 27 29  0  0  0  0  0  0  0  0999 V2000
   51.5491   70.4193    8.6386 N   0  0  0  0  0  0  0  0  0  0  0  0
   52.1316   70.4760    9.9785 C   0  0  2  0  0  0  0  0  0  0  0  0
   53.6251   70.3623    9.8752 C   0  0  0  0  0  0  0  0  0  0  0  0
   54.1298   69.3704    9.3596 O   0  0  0  0  0  0  0  0  0  0  0  0
   51.6013   69.3280   10.8364 C   0  0  0  0  0  0  0  0  0  0  0  0
   50.0931   69.4557   10.9503 C   0  0  0  0  0  0  0  0  0  0  0  0
   49.3335   68.2314   12.0642 S   0  0  2  0  0  0  0  0  0  0  0  0
   50.4267   68.1974   13.5154 C   0  0  0  0  0  0  0  0  0  0  0  0
   50.0408   66.5824   11.4603 C   0  0  0  0  0  0  0  0  0  0  0  0
   49.7748   65.2649   12.3028 C   0  0  2  0  0  0  0  0  0  0  0  0
   50.0486   65.2864   13.6854 O   0  0  0  0  0  0  0  0  0  0  0  0
   50.1807   63.9430   11.7860 C   0  0  1  0  0  0  0  0  0  0  0  0
   50.4353   63.9546   10.3808 O   0  0  0  0  0  0  0  0  0  0  0  0
   51.4741   63.7721   12.7150 C   0  0  2  0  0  0  0  0  0  0  0  0
   51.9640   62.4666   12.6468 O   0  0  0  0  0  0  0  0  0  0  0  0
   50.8745   64.0994   14.0812 C   0  0  1  0  0  0  0  0  0  0  0  0
   54.3332   71.2800   10.2693 O   0  0  0  0  0  0  0  0  0  0  0  0
   51.7270   62.7843   18.9468 N   0  0  0  0  0  0  0  0  0  0  0  0
   50.8779   62.2887   18.0427 C   0  0  0  0  0  0  0  0  0  0  0  0
   50.8333   62.7687   16.8034 N   0  0  0  0  0  0  0  0  0  0  0  0
   51.5603   63.8369   16.4394 C   0  0  0  0  0  0  0  0  0  0  0  0
   52.4371   64.4338   17.3818 C   0  0  0  0  0  0  0  0  0  0  0  0
   52.5035   63.8525   18.6784 C   0  0  0  0  0  0  0  0  0  0  0  0
   53.3430   64.3646   19.6469 N   0  0  0  0  0  0  0  0  0  0  0  0
   53.0323   65.4730   16.7704 N   0  0  0  0  0  0  0  0  0  0  0  0
   52.5916   65.5645   15.5441 C   0  0  0  0  0  0  0  0  0  0  0  0
   51.6881   64.5744   15.2769 N   0  0  0  0  0  0  0  0  0  0  0  0
  2  1  1  6  0  0  0
  2  3  1  0  0  0  0
  2  5  1  0  0  0  0
  3  4  1  0  0  0  0
  3 17  1  0  0  0  0
  5  6  1  0  0  0  0
  7  6  1  6  0  0  0
  7  8  1  0  0  0  0
  7  9  1  0  0  0  0
 10  9  1  6  0  0  0
 10 11  1  0  0  0  0
 10 12  1  0  0  0  0
 11 16  1  0  0  0  0
 12 13  1  6  0  0  0
 12 14  1  0  0  0  0
 14 15  1  1  0  0  0
 14 16  1  0  0  0  0
 16 27  1  1  0  0  0
 18 19  2  0  0  0  0
 18 23  1  0  0  0  0
 19 20  1  0  0  0  0
 20 21  2  0  0  0  0
 21 22  1  0  0  0  0
 21 27  1  0  0  0  0
 22 23  2  0  0  0  0
 22 25  1  0  0  0  0
 23 24  1  0  0  0  0
 25 26  2  0  0  0  0
 26 27  1  0  0  0  0
M  END
>  <CHROM.1>
-59.28693803,-60.55050282,-175.11860683,43.69951393,171.73264449,-50.50208504
123.66093421,51.47423256,66.17200227,13.44492893,-1.54576310,0.93890751,2.25731123

>  <Name>
ligand

>  <RI>
0

>  <Rbt.Current_Directory>
/home/itssahil/PROJECTS/Mol_Feturizer/New_Systems/rnas/3IQR

>  <Rbt.Executable>
rbdock ($Id: //depot/dev/client3/rdock/2013.1/src/exe/rbdock.cxx#4 $)

>  <Rbt.Library>
libRbt.so (2013.1, Build901 2013/11/27)

>  <Rbt.Parameter_File>
/export/apps/rDock/src/rDock_2013.1_src/data/scripts/dock_solv.prm

>  <Rbt.Receptor>
prm/blind_docking_100.prm

>  <SCORE>
-19.0402

>  <SCORE.INTER>
-14.7224

>  <SCORE.INTER.CONST>
1

>  <SCORE.INTER.POLAR>
0

>  <SCORE.INTER.ROT>
7

>  <SCORE.INTER.SOLV>
7.7928

>  <SCORE.INTER.VDW>
-20.6792

>  <SCORE.INTER.norm>
-0.545275

>  <SCORE.INTRA>
-4.31777

>  <SCORE.INTRA.DIHEDRAL>
-4.9324

>  <SCORE.INTRA.DIHEDRAL.0>
9.29433

>  <SCORE.INTRA.POLAR>
0

>  <SCORE.INTRA.POLAR.0>
0

>  <SCORE.INTRA.REPUL>
0

>  <SCORE.INTRA.REPUL.0>
0

>  <SCORE.INTRA.SOLV>
-1.17089

>  <SCORE.INTRA.SOLV.lig_0>
-48.5102

>  <SCORE.INTRA.VDW>
-1.26612

>  <SCORE.INTRA.VDW.0>
0.379549

>  <SCORE.INTRA.norm>
-0.159917

>  <SCORE.RESTR>
0

>  <SCORE.RESTR.CAVITY>
0

>  <SCORE.RESTR.norm>
0

>  <SCORE.SYSTEM>
0

>  <SCORE.SYSTEM.CONST>
0

>  <SCORE.SYSTEM.DIHEDRAL>
0

>  <SCORE.SYSTEM.SOLV>
0

>  <SCORE.SYSTEM.norm>
0

>  <SCORE.heavy>
27

>  <SCORE.norm>
-0.705192

>  <RMSD>
20.731

$$$$
ligand
 OpenBabel11021811483D
libRbt.so/2013.1/901 2013/11/27
 27 29  0  0  0  0  0  0  0  0999 V2000
   52.2674   71.3518    9.3978 N   0  0  0  0  0  0  0  0  0  0  0  0
   51.2276   70.3582    9.1342 C   0  0  2  0  0  0  0  0  0  0  0  0
   50.3886   70.8137    7.9755 C   0  0  0  0  0  0  0  0  0  0  0  0
   49.9633   69.9946    7.1676 O   0  0  0  0  0  0  0  0  0  0  0  0
   50.3335   70.1875   10.3617 C   0  0  0  0  0  0  0  0  0  0  0  0
   50.9108   69.0938   11.2418 C   0  0  0  0  0  0  0  0  0  0  0  0
   52.2968   69.6455   12.2865 S   0  0  2  0  0  0  0  0  0  0  0  0
   53.7550   69.5229   11.2091 C   0  0  0  0  0  0  0  0  0  0  0  0
   52.8124   68.0736   13.2070 C   0  0  0  0  0  0  0  0  0  0  0  0
   51.7064   67.1942   13.9279 C   0  0  2  0  0  0  0  0  0  0  0  0
   51.9169   66.8211   15.2709 O   0  0  0  0  0  0  0  0  0  0  0  0
   51.0837   66.0481   13.2367 C   0  0  1  0  0  0  0  0  0  0  0  0
   51.2773   66.0856   11.8222 O   0  0  0  0  0  0  0  0  0  0  0  0
   51.8965   64.9043   14.0090 C   0  0  2  0  0  0  0  0  0  0  0  0
   51.3452   63.6472   13.7550 O   0  0  0  0  0  0  0  0  0  0  0  0
   51.6891   65.3507   15.4549 C   0  0  1  0  0  0  0  0  0  0  0  0
   50.0973   71.9977    7.8643 O   0  0  0  0  0  0  0  0  0  0  0  0
   51.9090   61.8893   19.2101 N   0  0  0  0  0  0  0  0  0  0  0  0
   50.9498   62.1533   18.3189 C   0  0  0  0  0  0  0  0  0  0  0  0
   51.1082   63.0963   17.3949 N   0  0  0  0  0  0  0  0  0  0  0  0
   52.1894   63.8920   17.3843 C   0  0  0  0  0  0  0  0  0  0  0  0
   53.2118   63.6869   18.3465 C   0  0  0  0  0  0  0  0  0  0  0  0
   53.0346   62.6272   19.2788 C   0  0  0  0  0  0  0  0  0  0  0  0
   53.9901   62.3531   20.2363 N   0  0  0  0  0  0  0  0  0  0  0  0
   54.1637   64.6091   18.1198 N   0  0  0  0  0  0  0  0  0  0  0  0
   53.8088   65.3592   17.1109 C   0  0  0  0  0  0  0  0  0  0  0  0
   52.6032   64.9581   16.6071 N   0  0  0  0  0  0  0  0  0  0  0  0
  2  1  1  1  0  0  0
  2  3  1  0  0  0  0
  2  5  1  0  0  0  0
  3  4  1  0  0  0  0
  3 17  1  0  0  0  0
  5  6  1  0  0  0  0
  7  6  1  6  0  0  0
  7  8  1  0  0  0  0
  7  9  1  0  0  0  0
 10  9  1  6  0  0  0
 10 11  1  0  0  0  0
 10 12  1  0  0  0  0
 11 16  1  0  0  0  0
 12 13  1  6  0  0  0
 12 14  1  0  0  0  0
 14 15  1  1  0  0  0
 14 16  1  0  0  0  0
 16 27  1  1  0  0  0
 18 19  2  0  0  0  0
 18 23  1  0  0  0  0
 19 20  1  0  0  0  0
 20 21  2  0  0  0  0
 21 22  1  0  0  0  0
 21 27  1  0  0  0  0
 22 23  2  0  0  0  0
 22 25  1  0  0  0  0
 23 24  1  0  0  0  0
 25 26  2  0  0  0  0
 26 27  1  0  0  0  0
M  END
>  <CHROM.1>
143.12491967,-90.14884671,80.08870053,-84.10669140,-49.20550156,-129.75299951
150.97337405,51.91461128,66.74250016,13.82568448,-1.75811294,0.77739260,2.38204280

>  <Name>
ligand

>  <RI>
0

>  <Rbt.Current_Directory>
/home/itssahil/PROJECTS/Mol_Feturizer/New_Systems/rnas/3IQR

>  <Rbt.Executable>
rbdock ($Id: //depot/dev/client3/rdock/2013.1/src/exe/rbdock.cxx#4 $)

>  <Rbt.Library>
libRbt.so (2013.1, Build901 2013/11/27)

>  <Rbt.Parameter_File>
/export/apps/rDock/src/rDock_2013.1_src/data/scripts/dock_solv.prm

>  <Rbt.Receptor>
prm/blind_docking_100.prm

>  <SCORE>
-15.8893

>  <SCORE.INTER>
-15.2859

>  <SCORE.INTER.CONST>
1

>  <SCORE.INTER.POLAR>
0

>  <SCORE.INTER.ROT>
7

>  <SCORE.INTER.SOLV>
9.00675

>  <SCORE.INTER.VDW>
-21.4595

>  <SCORE.INTER.norm>
-0.566144

>  <SCORE.INTRA>
-0.60339

>  <SCORE.INTRA.DIHEDRAL>
3.96425

>  <SCORE.INTRA.DIHEDRAL.0>
9.29433

>  <SCORE.INTRA.POLAR>
0

>  <SCORE.INTRA.POLAR.0>
0

>  <SCORE.INTRA.REPUL>
0

>  <SCORE.INTRA.REPUL.0>
0

>  <SCORE.INTRA.SOLV>
1.15012

>  <SCORE.INTRA.SOLV.lig_0>
-48.5102

>  <SCORE.INTRA.VDW>
-3.16058

>  <SCORE.INTRA.VDW.0>
0.379549

>  <SCORE.INTRA.norm>
-0.0223478

>  <SCORE.RESTR>
0

>  <SCORE.RESTR.CAVITY>
0

>  <SCORE.RESTR.norm>
0

>  <SCORE.SYSTEM>
0

>  <SCORE.SYSTEM.CONST>
0

>  <SCORE.SYSTEM.DIHEDRAL>
0

>  <SCORE.SYSTEM.SOLV>
0

>  <SCORE.SYSTEM.norm>
0

>  <SCORE.heavy>
27

>  <SCORE.norm>
-0.588492

>  <RMSD>
20.776

$$$$
ligand
 OpenBabel11021811483D
libRbt.so/2013.1/901 2013/11/27
 27 29  0  0  0  0  0  0  0  0999 V2000
   51.1042   70.4427    7.9410 N   0  0  0  0  0  0  0  0  0  0  0  0
   51.4233   70.0345    9.3082 C   0  0  2  0  0  0  0  0  0  0  0  0
   51.8314   71.2408   10.1035 C   0  0  0  0  0  0  0  0  0  0  0  0
   51.1399   71.6171   11.0441 O   0  0  0  0  0  0  0  0  0  0  0  0
   52.5711   69.0256    9.3064 C   0  0  0  0  0  0  0  0  0  0  0  0
   52.8180   68.5599   10.7298 C   0  0  0  0  0  0  0  0  0  0  0  0
   51.5815   67.3697   11.3390 S   0  0  2  0  0  0  0  0  0  0  0  0
   50.1975   68.4021   11.9055 C   0  0  0  0  0  0  0  0  0  0  0  0
   52.1126   67.0541   13.1285 C   0  0  0  0  0  0  0  0  0  0  0  0
   51.2786   66.0435   14.0225 C   0  0  2  0  0  0  0  0  0  0  0  0
   51.6054   65.9303   15.3891 O   0  0  0  0  0  0  0  0  0  0  0  0
   50.9481   64.6926   13.5274 C   0  0  1  0  0  0  0  0  0  0  0  0
   51.0950   64.5728   12.1119 O   0  0  0  0  0  0  0  0  0  0  0  0
   52.0386   63.9062   14.3979 C   0  0  2  0  0  0  0  0  0  0  0  0
   51.8145   62.5292   14.3462 O   0  0  0  0  0  0  0  0  0  0  0  0
   51.7577   64.4911   15.7807 C   0  0  1  0  0  0  0  0  0  0  0  0
   52.8760   71.8205    9.8356 O   0  0  0  0  0  0  0  0  0  0  0  0
   56.6843   65.6002   16.5737 N   0  0  0  0  0  0  0  0  0  0  0  0
   55.9683   65.5549   15.4471 C   0  0  0  0  0  0  0  0  0  0  0  0
   54.6710   65.2636   15.4663 N   0  0  0  0  0  0  0  0  0  0  0  0
   54.0515   64.9000   16.6004 C   0  0  0  0  0  0  0  0  0  0  0  0
   54.7837   64.8791   17.8156 C   0  0  0  0  0  0  0  0  0  0  0  0
   56.1539   65.2582   17.7644 C   0  0  0  0  0  0  0  0  0  0  0  0
   56.9307   65.2788   18.9050 N   0  0  0  0  0  0  0  0  0  0  0  0
   53.9394   64.4806   18.7832 N   0  0  0  0  0  0  0  0  0  0  0  0
   52.7626   64.2520   18.2643 C   0  0  0  0  0  0  0  0  0  0  0  0
   52.7661   64.5043   16.9210 N   0  0  0  0  0  0  0  0  0  0  0  0
  2  1  1  6  0  0  0
  2  3  1  0  0  0  0
  2  5  1  0  0  0  0
  3  4  1  0  0  0  0
  3 17  1  0  0  0  0
  5  6  1  0  0  0  0
  7  6  1  6  0  0  0
  7  8  1  0  0  0  0
  7  9  1  0  0  0  0
 10  9  1  6  0  0  0
 10 11  1  0  0  0  0
 10 12  1  0  0  0  0
 11 16  1  0  0  0  0
 12 13  1  6  0  0  0
 12 14  1  0  0  0  0
 14 15  1  1  0  0  0
 14 16  1  0  0  0  0
 16 27  1  1  0  0  0
 18 19  2  0  0  0  0
 18 23  1  0  0  0  0
 19 20  1  0  0  0  0
 20 21  2  0  0  0  0
 21 22  1  0  0  0  0
 21 27  1  0  0  0  0
 22 23  2  0  0  0  0
 22 25  1  0  0  0  0
 23 24  1  0  0  0  0
 25 26  2  0  0  0  0
 26 27  1  0  0  0  0
M  END
>  <CHROM.1>
114.83083207,-176.53812698,75.98747635,-83.06854040,-179.58469131,-173.41710078
-65.86607875,52.72749203,66.66818696,13.73545654,-1.94178240,0.64637337,2.43526344

>  <Name>
ligand

>  <RI>
0

>  <Rbt.Current_Directory>
/home/itssahil/PROJECTS/Mol_Feturizer/New_Systems/rnas/3IQR

>  <Rbt.Executable>
rbdock ($Id: //depot/dev/client3/rdock/2013.1/src/exe/rbdock.cxx#4 $)

>  <Rbt.Library>
libRbt.so (2013.1, Build901 2013/11/27)

>  <Rbt.Parameter_File>
/export/apps/rDock/src/rDock_2013.1_src/data/scripts/dock_solv.prm

>  <Rbt.Receptor>
prm/blind_docking_100.prm

>  <SCORE>
-11.3173

>  <SCORE.INTER>
-5.912

>  <SCORE.INTER.CONST>
1

>  <SCORE.INTER.POLAR>
0

>  <SCORE.INTER.ROT>
7

>  <SCORE.INTER.SOLV>
7.50613

>  <SCORE.INTER.VDW>
-14.71

>  <SCORE.INTER.norm>
-0.218963

>  <SCORE.INTRA>
-5.40533

>  <SCORE.INTRA.DIHEDRAL>
-3.76726

>  <SCORE.INTRA.DIHEDRAL.0>
9.29433

>  <SCORE.INTRA.POLAR>
0

>  <SCORE.INTRA.POLAR.0>
0

>  <SCORE.INTRA.REPUL>
0

>  <SCORE.INTRA.REPUL.0>
0

>  <SCORE.INTRA.SOLV>
-1.33439

>  <SCORE.INTRA.SOLV.lig_0>
-48.5102

>  <SCORE.INTRA.VDW>
-2.85451

>  <SCORE.INTRA.VDW.0>
0.379549

>  <SCORE.INTRA.norm>
-0.200198

>  <SCORE.RESTR>
0

>  <SCORE.RESTR.CAVITY>
0

>  <SCORE.RESTR.norm>
0

>  <SCORE.SYSTEM>
0

>  <SCORE.SYSTEM.CONST>
0

>  <SCORE.SYSTEM.DIHEDRAL>
0

>  <SCORE.SYSTEM.SOLV>
0

>  <SCORE.SYSTEM.norm>
0

>  <SCORE.heavy>
27

>  <SCORE.norm>
-0.41916

>  <RMSD>
20.963

$$$$
ligand
 OpenBabel11021811483D
libRbt.so/2013.1/901 2013/11/27
 27 29  0  0  0  0  0  0  0  0999 V2000
   54.9423   58.9187    9.6821 N   0  0  0  0  0  0  0  0  0  0  0  0
   54.5002   59.2797   11.0283 C   0  0  2  0  0  0  0  0  0  0  0  0
   53.5235   58.2518   11.5218 C   0  0  0  0  0  0  0  0  0  0  0  0
   53.5824   57.8579   12.6819 O   0  0  0  0  0  0  0  0  0  0  0  0
   53.8207   60.6484   11.0143 C   0  0  0  0  0  0  0  0  0  0  0  0
   53.4093   61.0071   12.4306 C   0  0  0  0  0  0  0  0  0  0  0  0
   52.5915   62.6284   12.5704 S   0  0  2  0  0  0  0  0  0  0  0  0
   53.9367   63.7830   12.9701 C   0  0  0  0  0  0  0  0  0  0  0  0
   51.9888   62.6686   14.3646 C   0  0  0  0  0  0  0  0  0  0  0  0
   51.2615   63.9670   14.9137 C   0  0  2  0  0  0  0  0  0  0  0  0
   50.4193   64.6840   14.0397 O   0  0  0  0  0  0  0  0  0  0  0  0
   51.9909   64.9494   15.7395 C   0  0  1  0  0  0  0  0  0  0  0  0
   53.2017   64.4221   16.2831 O   0  0  0  0  0  0  0  0  0  0  0  0
   52.1782   66.0508   14.5918 C   0  0  2  0  0  0  0  0  0  0  0  0
   52.6307   67.2563   15.1312 O   0  0  0  0  0  0  0  0  0  0  0  0
   50.7462   66.1468   14.0690 C   0  0  1  0  0  0  0  0  0  0  0  0
   52.6446   57.8407   10.7751 O   0  0  0  0  0  0  0  0  0  0  0  0
   51.7026   70.1483   11.0352 N   0  0  0  0  0  0  0  0  0  0  0  0
   52.0493   69.9090   12.3027 C   0  0  0  0  0  0  0  0  0  0  0  0
   51.7128   68.7731   12.9065 N   0  0  0  0  0  0  0  0  0  0  0  0
   50.9234   67.8681   12.3065 C   0  0  0  0  0  0  0  0  0  0  0  0
   50.4829   68.1029   10.9783 C   0  0  0  0  0  0  0  0  0  0  0  0
   50.9160   69.3001   10.3438 C   0  0  0  0  0  0  0  0  0  0  0  0
   50.5439   69.5945    9.0477 N   0  0  0  0  0  0  0  0  0  0  0  0
   49.7132   67.0592   10.6230 N   0  0  0  0  0  0  0  0  0  0  0  0
   49.6417   66.2152   11.6174 C   0  0  0  0  0  0  0  0  0  0  0  0
   50.3780   66.6543   12.6819 N   0  0  0  0  0  0  0  0  0  0  0  0
  2  1  1  6  0  0  0
  2  3  1  0  0  0  0
  2  5  1  0  0  0  0
  3  4  1  0  0  0  0
  3 17  1  0  0  0  0
  5  6  1  0  0  0  0
  7  6  1  1  0  0  0
  7  8  1  0  0  0  0
  7  9  1  0  0  0  0
 10  9  1  6  0  0  0
 10 11  1  0  0  0  0
 10 12  1  0  0  0  0
 11 16  1  0  0  0  0
 12 13  1  6  0  0  0
 12 14  1  0  0  0  0
 14 15  1  1  0  0  0
 14 16  1  0  0  0  0
 16 27  1  6  0  0  0
 18 19  2  0  0  0  0
 18 23  1  0  0  0  0
 19 20  1  0  0  0  0
 20 21  2  0  0  0  0
 21 22  1  0  0  0  0
 21 27  1  0  0  0  0
 22 23  2  0  0  0  0
 22 25  1  0  0  0  0
 23 24  1  0  0  0  0
 25 26  2  0  0  0  0
 26 27  1  0  0  0  0
M  END
>  <CHROM.1>
138.45128940,-178.47776870,179.61141373,-93.48240017,177.49479413,35.93182098
-162.05587278,52.11777545,64.38762974,12.55310007,0.21369724,1.29231571,-1.76087099

>  <Name>
ligand

>  <RI>
0

>  <Rbt.Current_Directory>
/home/itssahil/PROJECTS/Mol_Feturizer/New_Systems/rnas/3IQR

>  <Rbt.Executable>
rbdock ($Id: //depot/dev/client3/rdock/2013.1/src/exe/rbdock.cxx#4 $)

>  <Rbt.Library>
libRbt.so (2013.1, Build901 2013/11/27)

>  <Rbt.Parameter_File>
/export/apps/rDock/src/rDock_2013.1_src/data/scripts/dock_solv.prm

>  <Rbt.Receptor>
prm/blind_docking_100.prm

>  <SCORE>
-12.4266

>  <SCORE.INTER>
-7.34061

>  <SCORE.INTER.CONST>
1

>  <SCORE.INTER.POLAR>
0

>  <SCORE.INTER.ROT>
7

>  <SCORE.INTER.SOLV>
13.0663

>  <SCORE.INTER.VDW>
-17.5159

>  <SCORE.INTER.norm>
-0.271874

>  <SCORE.INTRA>
-5.08599

>  <SCORE.INTRA.DIHEDRAL>
-2.95427

>  <SCORE.INTRA.DIHEDRAL.0>
9.29433

>  <SCORE.INTRA.POLAR>
0

>  <SCORE.INTRA.POLAR.0>
0

>  <SCORE.INTRA.REPUL>
0

>  <SCORE.INTRA.REPUL.0>
0

>  <SCORE.INTRA.SOLV>
-1.32683

>  <SCORE.INTRA.SOLV.lig_0>
-48.5102

>  <SCORE.INTRA.VDW>
-2.94544

>  <SCORE.INTRA.VDW.0>
0.379549

>  <SCORE.INTRA.norm>
-0.18837

>  <SCORE.RESTR>
0

>  <SCORE.RESTR.CAVITY>
0

>  <SCORE.RESTR.norm>
0

>  <SCORE.SYSTEM>
0

>  <SCORE.SYSTEM.CONST>
0

>  <SCORE.SYSTEM.DIHEDRAL>
0

>  <SCORE.SYSTEM.SOLV>
0

>  <SCORE.SYSTEM.norm>
0

>  <SCORE.heavy>
27

>  <SCORE.norm>
-0.460244

>  <RMSD>
21.001

$$$$
ligand
 OpenBabel11021811483D
libRbt.so/2013.1/901 2013/11/27
 27 29  0  0  0  0  0  0  0  0999 V2000
   54.2446   62.9371   15.8509 N   0  0  0  0  0  0  0  0  0  0  0  0
   55.0275   63.6922   14.8739 C   0  0  2  0  0  0  0  0  0  0  0  0
   56.2327   64.2786   15.5507 C   0  0  0  0  0  0  0  0  0  0  0  0
   57.3544   63.8750   15.2620 O   0  0  0  0  0  0  0  0  0  0  0  0
   54.1879   64.8231   14.2811 C   0  0  0  0  0  0  0  0  0  0  0  0
   55.0136   65.5530   13.2374 C   0  0  0  0  0  0  0  0  0  0  0  0
   54.0354   66.6477   12.1597 S   0  0  2  0  0  0  0  0  0  0  0  0
   55.1855   67.9765   11.6975 C   0  0  0  0  0  0  0  0  0  0  0  0
   53.1544   67.7985   13.3777 C   0  0  0  0  0  0  0  0  0  0  0  0
   51.6227   67.5555   13.7110 C   0  0  2  0  0  0  0  0  0  0  0  0
   51.2196   66.2644   14.1084 O   0  0  0  0  0  0  0  0  0  0  0  0
   50.5639   68.1085   12.8437 C   0  0  1  0  0  0  0  0  0  0  0  0
   51.0396   69.1467   11.9862 O   0  0  0  0  0  0  0  0  0  0  0  0
   50.1894   66.7338   12.1120 C   0  0  2  0  0  0  0  0  0  0  0  0
   49.0084   66.8680   11.3798 O   0  0  0  0  0  0  0  0  0  0  0  0
   50.0243   65.8164   13.3221 C   0  0  1  0  0  0  0  0  0  0  0  0
   56.0936   65.1874   16.3592 O   0  0  0  0  0  0  0  0  0  0  0  0
   53.1634   62.2555   11.4255 N   0  0  0  0  0  0  0  0  0  0  0  0
   53.1662   63.5845   11.2924 C   0  0  0  0  0  0  0  0  0  0  0  0
   52.2568   64.3400   11.9011 N   0  0  0  0  0  0  0  0  0  0  0  0
   51.2383   63.7955   12.5855 C   0  0  0  0  0  0  0  0  0  0  0  0
   51.1605   62.3841   12.7087 C   0  0  0  0  0  0  0  0  0  0  0  0
   52.1873   61.6129   12.0966 C   0  0  0  0  0  0  0  0  0  0  0  0
   52.1920   60.2355   12.1838 N   0  0  0  0  0  0  0  0  0  0  0  0
   50.0585   62.1066   13.4274 N   0  0  0  0  0  0  0  0  0  0  0  0
   49.4572   63.2215   13.7464 C   0  0  0  0  0  0  0  0  0  0  0  0
   50.1445   64.3000   13.2642 N   0  0  0  0  0  0  0  0  0  0  0  0
  2  1  1  1  0  0  0
  2  3  1  0  0  0  0
  2  5  1  0  0  0  0
  3  4  1  0  0  0  0
  3 17  1  0  0  0  0
  5  6  1  0  0  0  0
  7  6  1  1  0  0  0
  7  8  1  0  0  0  0
  7  9  1  0  0  0  0
 10  9  1  6  0  0  0
 10 11  1  0  0  0  0
 10 12  1  0  0  0  0
 11 16  1  0  0  0  0
 12 13  1  6  0  0  0
 12 14  1  0  0  0  0
 14 15  1  1  0  0  0
 14 16  1  0  0  0  0
 16 27  1  6  0  0  0
 18 19  2  0  0  0  0
 18 23  1  0  0  0  0
 19 20  1  0  0  0  0
 20 21  2  0  0  0  0
 21 22  1  0  0  0  0
 21 27  1  0  0  0  0
 22 23  2  0  0  0  0
 22 25  1  0  0  0  0
 23 24  1  0  0  0  0
 25 26  2  0  0  0  0
 26 27  1  0  0  0  0
M  END
>  <CHROM.1>
112.43492371,-177.98789776,165.70466660,150.36029397,-102.75583267,51.58014756
-64.16021706,52.67223261,65.01597288,13.18023918,0.48147322,0.38096817,3.04981388

>  <Name>
ligand

>  <RI>
0

>  <Rbt.Current_Directory>
/home/itssahil/PROJECTS/Mol_Feturizer/New_Systems/rnas/3IQR

>  <Rbt.Executable>
rbdock ($Id: //depot/dev/client3/rdock/2013.1/src/exe/rbdock.cxx#4 $)

>  <Rbt.Library>
libRbt.so (2013.1, Build901 2013/11/27)

>  <Rbt.Parameter_File>
/export/apps/rDock/src/rDock_2013.1_src/data/scripts/dock_solv.prm

>  <Rbt.Receptor>
prm/blind_docking_100.prm

>  <SCORE>
-14.2466

>  <SCORE.INTER>
-8.1726

>  <SCORE.INTER.CONST>
1

>  <SCORE.INTER.POLAR>
0

>  <SCORE.INTER.ROT>
7

>  <SCORE.INTER.SOLV>
6.17385

>  <SCORE.INTER.VDW>
-15.773

>  <SCORE.INTER.norm>
-0.302689

>  <SCORE.INTRA>
-6.07399

>  <SCORE.INTRA.DIHEDRAL>
-0.889904

>  <SCORE.INTRA.DIHEDRAL.0>
9.29433

>  <SCORE.INTRA.POLAR>
0

>  <SCORE.INTRA.POLAR.0>
0

>  <SCORE.INTRA.REPUL>
0

>  <SCORE.INTRA.REPUL.0>
0

>  <SCORE.INTRA.SOLV>
-1.48125

>  <SCORE.INTRA.SOLV.lig_0>
-48.5102

>  <SCORE.INTRA.VDW>
-4.88842

>  <SCORE.INTRA.VDW.0>
0.379549

>  <SCORE.INTRA.norm>
-0.224963

>  <SCORE.RESTR>
0

>  <SCORE.RESTR.CAVITY>
0

>  <SCORE.RESTR.norm>
0

>  <SCORE.SYSTEM>
0

>  <SCORE.SYSTEM.CONST>
0

>  <SCORE.SYSTEM.DIHEDRAL>
0

>  <SCORE.SYSTEM.SOLV>
0

>  <SCORE.SYSTEM.norm>
0

>  <SCORE.heavy>
27

>  <SCORE.norm>
-0.527652

>  <RMSD>
21.065

$$$$
ligand
 OpenBabel11021811483D
libRbt.so/2013.1/901 2013/11/27
 27 29  0  0  0  0  0  0  0  0999 V2000
   51.3941   41.3352   22.4538 N   0  0  0  0  0  0  0  0  0  0  0  0
   52.4876   40.3799   22.2821 C   0  0  2  0  0  0  0  0  0  0  0  0
   53.7974   41.0810   22.4993 C   0  0  0  0  0  0  0  0  0  0  0  0
   54.8413   40.5598   22.1212 O   0  0  0  0  0  0  0  0  0  0  0  0
   52.4630   39.7932   20.8713 C   0  0  0  0  0  0  0  0  0  0  0  0
   53.0383   38.3892   20.9129 C   0  0  0  0  0  0  0  0  0  0  0  0
   51.9468   37.1706   21.7131 S   0  0  2  0  0  0  0  0  0  0  0  0
   52.9660   35.6731   21.8573 C   0  0  0  0  0  0  0  0  0  0  0  0
   50.9911   36.4123   20.2655 C   0  0  0  0  0  0  0  0  0  0  0  0
   49.9917   35.2104   20.5355 C   0  0  2  0  0  0  0  0  0  0  0  0
   49.3324   34.6264   19.4348 O   0  0  0  0  0  0  0  0  0  0  0  0
   49.0324   35.2628   21.6563 C   0  0  1  0  0  0  0  0  0  0  0  0
   49.3739   36.2512   22.6289 O   0  0  0  0  0  0  0  0  0  0  0  0
   47.7366   35.5897   20.7735 C   0  0  2  0  0  0  0  0  0  0  0  0
   46.5728   35.4530   21.5324 O   0  0  0  0  0  0  0  0  0  0  0  0
   47.8606   34.5132   19.6970 C   0  0  1  0  0  0  0  0  0  0  0  0
   53.8143   42.1905   23.0167 O   0  0  0  0  0  0  0  0  0  0  0  0
   45.3552   37.9166   16.8212 N   0  0  0  0  0  0  0  0  0  0  0  0
   45.7805   37.9843   18.0855 C   0  0  0  0  0  0  0  0  0  0  0  0
   46.4462   36.9775   18.6435 N   0  0  0  0  0  0  0  0  0  0  0  0
   46.6258   35.8138   17.9987 C   0  0  0  0  0  0  0  0  0  0  0  0
   46.1427   35.6734   16.6720 C   0  0  0  0  0  0  0  0  0  0  0  0
   45.4915   36.7947   16.0871 C   0  0  0  0  0  0  0  0  0  0  0  0
   45.0070   36.7438   14.7957 N   0  0  0  0  0  0  0  0  0  0  0  0
   46.4451   34.4274   16.2672 N   0  0  0  0  0  0  0  0  0  0  0  0
   47.0625   33.7967   17.2303 C   0  0  0  0  0  0  0  0  0  0  0  0
   47.2137   34.6049   18.3221 N   0  0  0  0  0  0  0  0  0  0  0  0
  2  1  1  6  0  0  0
  2  3  1  0  0  0  0
  2  5  1  0  0  0  0
  3  4  1  0  0  0  0
  3 17  1  0  0  0  0
  5  6  1  0  0  0  0
  7  6  1  6  0  0  0
  7  8  1  0  0  0  0
  7  9  1  0  0  0  0
 10  9  1  6  0  0  0
 10 11  1  0  0  0  0
 10 12  1  0  0  0  0
 11 16  1  0  0  0  0
 12 13  1  1  0  0  0
 12 14  1  0  0  0  0
 14 15  1  1  0  0  0
 14 16  1  0  0  0  0
 16 27  1  6  0  0  0
 18 19  2  0  0  0  0
 18 23  1  0  0  0  0
 19 20  1  0  0  0  0
 20 21  2  0  0  0  0
 21 22  1  0  0  0  0
 21 27  1  0  0  0  0
 22 23  2  0  0  0  0
 22 25  1  0  0  0  0
 23 24  1  0  0  0  0
 25 26  2  0  0  0  0
 26 27  1  0  0  0  0
M  END
>  <CHROM.1>
-163.83143112,-150.49582739,71.84106117,-171.49863476,175.56298814,-177.46197404
-103.16831442,49.45684301,37.09832766,20.00159256,0.28068507,-0.69579211
-0.28146599

>  <Name>
ligand

>  <RI>
0

>  <Rbt.Current_Directory>
/home/itssahil/PROJECTS/Mol_Feturizer/New_Systems/rnas/3IQR

>  <Rbt.Executable>
rbdock ($Id: //depot/dev/client3/rdock/2013.1/src/exe/rbdock.cxx#4 $)

>  <Rbt.Library>
libRbt.so (2013.1, Build901 2013/11/27)

>  <Rbt.Parameter_File>
/export/apps/rDock/src/rDock_2013.1_src/data/scripts/dock_solv.prm

>  <Rbt.Receptor>
prm/blind_docking_80.prm

>  <SCORE>
-10.0354

>  <SCORE.INTER>
-7.05556

>  <SCORE.INTER.CONST>
1

>  <SCORE.INTER.POLAR>
0

>  <SCORE.INTER.ROT>
7

>  <SCORE.INTER.SOLV>
13.9158

>  <SCORE.INTER.VDW>
-17.609

>  <SCORE.INTER.norm>
-0.261317

>  <SCORE.INTRA>
-2.97982

>  <SCORE.INTRA.DIHEDRAL>
-0.83177

>  <SCORE.INTRA.DIHEDRAL.0>
9.29433

>  <SCORE.INTRA.POLAR>
0

>  <SCORE.INTRA.POLAR.0>
0

>  <SCORE.INTRA.REPUL>
0

>  <SCORE.INTRA.REPUL.0>
0

>  <SCORE.INTRA.SOLV>
-1.07683

>  <SCORE.INTRA.SOLV.lig_0>
-48.5102

>  <SCORE.INTRA.VDW>
-2.02552

>  <SCORE.INTRA.VDW.0>
0.379549

>  <SCORE.INTRA.norm>
-0.110364

>  <SCORE.RESTR>
0

>  <SCORE.RESTR.CAVITY>
0

>  <SCORE.RESTR.norm>
0

>  <SCORE.SYSTEM>
0

>  <SCORE.SYSTEM.CONST>
0

>  <SCORE.SYSTEM.DIHEDRAL>
0

>  <SCORE.SYSTEM.SOLV>
0

>  <SCORE.SYSTEM.norm>
0

>  <SCORE.heavy>
27

>  <SCORE.norm>
-0.371681

>  <RMSD>
22.888

$$$$
ligand
 OpenBabel11021811483D
libRbt.so/2013.1/901 2013/11/27
 27 29  0  0  0  0  0  0  0  0999 V2000
   50.3090   62.9932   14.8179 N   0  0  0  0  0  0  0  0  0  0  0  0
   51.5820   63.5176   14.3256 C   0  0  2  0  0  0  0  0  0  0  0  0
   52.7103   62.8353   15.0436 C   0  0  0  0  0  0  0  0  0  0  0  0
   52.5694   62.4806   16.2092 O   0  0  0  0  0  0  0  0  0  0  0  0
   51.6681   65.0226   14.5759 C   0  0  0  0  0  0  0  0  0  0  0  0
   50.5724   65.7155   13.7863 C   0  0  0  0  0  0  0  0  0  0  0  0
   50.7366   67.5285   13.7359 S   0  0  2  0  0  0  0  0  0  0  0  0
   49.6292   68.0480   12.3920 C   0  0  0  0  0  0  0  0  0  0  0  0
   52.2493   67.8070   12.6322 C   0  0  0  0  0  0  0  0  0  0  0  0
   52.6025   69.2764   12.1500 C   0  0  2  0  0  0  0  0  0  0  0  0
   51.7040   69.9320   11.2838 O   0  0  0  0  0  0  0  0  0  0  0  0
   53.9719   69.6217   11.7202 C   0  0  1  0  0  0  0  0  0  0  0  0
   54.9429   68.6685   12.1538 O   0  0  0  0  0  0  0  0  0  0  0  0
   53.6742   69.6285   10.1465 C   0  0  2  0  0  0  0  0  0  0  0  0
   54.7445   70.1829    9.4422 O   0  0  0  0  0  0  0  0  0  0  0  0
   52.4297   70.5133   10.1077 C   0  0  1  0  0  0  0  0  0  0  0  0
   53.7540   62.5982   14.4489 O   0  0  0  0  0  0  0  0  0  0  0  0
   50.0206   67.1437    7.1123 N   0  0  0  0  0  0  0  0  0  0  0  0
   50.9880   66.9743    8.0175 C   0  0  0  0  0  0  0  0  0  0  0  0
   51.4647   67.9999    8.7169 N   0  0  0  0  0  0  0  0  0  0  0  0
   51.0716   69.2594    8.4695 C   0  0  0  0  0  0  0  0  0  0  0  0
   50.0852   69.4968    7.4776 C   0  0  0  0  0  0  0  0  0  0  0  0
   49.5538   68.3675    6.7951 C   0  0  0  0  0  0  0  0  0  0  0  0
   48.5801   68.5126    5.8276 N   0  0  0  0  0  0  0  0  0  0  0  0
   49.8809   70.8248    7.4279 N   0  0  0  0  0  0  0  0  0  0  0  0
   50.6584   71.4156    8.2956 C   0  0  0  0  0  0  0  0  0  0  0  0
   51.4099   70.5000    8.9777 N   0  0  0  0  0  0  0  0  0  0  0  0
  2  1  1  1  0  0  0
  2  3  1  0  0  0  0
  2  5  1  0  0  0  0
  3  4  1  0  0  0  0
  3 17  1  0  0  0  0
  5  6  1  0  0  0  0
  7  6  1  6  0  0  0
  7  8  1  0  0  0  0
  7  9  1  0  0  0  0
 10  9  1  6  0  0  0
 10 11  1  0  0  0  0
 10 12  1  0  0  0  0
 11 16  1  0  0  0  0
 12 13  1  6  0  0  0
 12 14  1  0  0  0  0
 14 15  1  6  0  0  0
 14 16  1  0  0  0  0
 16 27  1  6  0  0  0
 18 19  2  0  0  0  0
 18 23  1  0  0  0  0
 19 20  1  0  0  0  0
 20 21  2  0  0  0  0
 21 22  1  0  0  0  0
 21 27  1  0  0  0  0
 22 23  2  0  0  0  0
 22 25  1  0  0  0  0
 23 24  1  0  0  0  0
 25 26  2  0  0  0  0
 26 27  1  0  0  0  0
M  END
>  <CHROM.1>
-32.61599641,-63.06362644,-169.22497435,164.62428011,170.64338906,-65.61064948
-70.35208751,51.62483033,67.61066229,11.19362849,1.39770157,0.73509010,2.39075611

>  <Name>
ligand

>  <RI>
0

>  <Rbt.Current_Directory>
/home/itssahil/PROJECTS/Mol_Feturizer/New_Systems/rnas/3IQR

>  <Rbt.Executable>
rbdock ($Id: //depot/dev/client3/rdock/2013.1/src/exe/rbdock.cxx#4 $)

>  <Rbt.Library>
libRbt.so (2013.1, Build901 2013/11/27)

>  <Rbt.Parameter_File>
/export/apps/rDock/src/rDock_2013.1_src/data/scripts/dock_solv.prm

>  <Rbt.Receptor>
prm/blind_docking_100.prm

>  <SCORE>
-15.9932

>  <SCORE.INTER>
-10.4059

>  <SCORE.INTER.CONST>
1

>  <SCORE.INTER.POLAR>
0

>  <SCORE.INTER.ROT>
7

>  <SCORE.INTER.SOLV>
12.6309

>  <SCORE.INTER.VDW>
-19.4142

>  <SCORE.INTER.norm>
-0.385402

>  <SCORE.INTRA>
-5.65971

>  <SCORE.INTRA.DIHEDRAL>
-4.73125

>  <SCORE.INTRA.DIHEDRAL.0>
9.29433

>  <SCORE.INTRA.POLAR>
0

>  <SCORE.INTRA.POLAR.0>
0

>  <SCORE.INTRA.REPUL>
0

>  <SCORE.INTRA.REPUL.0>
0

>  <SCORE.INTRA.SOLV>
-1.12894

>  <SCORE.INTRA.SOLV.lig_0>
-48.5102

>  <SCORE.INTRA.VDW>
-2.72962

>  <SCORE.INTRA.VDW.0>
0.379549

>  <SCORE.INTRA.norm>
-0.209619

>  <SCORE.RESTR>
0.0723801

>  <SCORE.RESTR.CAVITY>
0.0723801

>  <SCORE.RESTR.norm>
0.00268074

>  <SCORE.SYSTEM>
0

>  <SCORE.SYSTEM.CONST>
0

>  <SCORE.SYSTEM.DIHEDRAL>
0

>  <SCORE.SYSTEM.SOLV>
0

>  <SCORE.SYSTEM.norm>
0

>  <SCORE.heavy>
27

>  <SCORE.norm>
-0.592341

>  <RMSD>
23.967

$$$$
