@<TRIPOS>MOLECULE
3IQR_rdock.pdb
 2029 2275 0 0 0
SMALL
GASTEIGER

@<TRIPOS>ATOM
      1  P         66.1610   53.3960   32.5460 P.3     1  G1          0.1280
      2  C5'       67.7960   51.2660   32.6810 C.3     1  G1          0.1795
      3  O5'       66.7490   52.0610   33.2890 O.3     1  G1         -0.3259
      4  C4'       68.4940   50.4020   33.7220 C.3     1  G1          0.1772
      5  O4'       69.1780   51.2380   34.6930 O.3     1  G1         -0.3307
      6  C3'       67.6130   49.4850   34.5540 C.3     1  G1          0.1860
      7  O3'       67.3970   48.2580   33.8740 O.3     1  G1         -0.3112
      8  C2'       68.4480   49.2800   35.8130 C.3     1  G1          0.2309
      9  O2'       69.4550   48.3000   35.6680 O.3     1  G1         -0.2156
     10  C1'       69.0770   50.6630   35.9830 C.3     1  G1          0.2408
     11  N1        67.0040   51.6640   40.5130 N.ar    1  G1         -0.1709
     12  C2        67.8470   50.6410   40.1620 C.ar    1  G1          0.2606
     13  N2        68.1690   49.7820   41.1410 N.pl3   1  G1         -0.0859
     14  N3        68.3370   50.4750   38.9430 N.ar    1  G1         -0.1918
     15  C4        67.9070   51.4350   38.0940 C.ar    1  G1          0.1723
     16  C5        67.0680   52.4970   38.3520 C.ar    1  G1          0.1748
     17  C6        66.5520   52.6620   39.6520 C.ar    1  G1          0.3023
     18  O6        65.7920   53.5470   40.0670 O.2     1  G1         -0.2633
     19  N7        66.8730   53.2610   37.2130 N.ar    1  G1         -0.2173
     20  C8        67.5760   52.6580   36.2980 C.ar    1  G1          0.1817
     21  N9        68.2260   51.5450   36.7640 N.ar    1  G1         -0.2693
     22  OP1       65.8960   52.9840   31.1080 O.3     1  G1         -0.1955
     23  OP2       67.2630   54.4460   32.6190 O.co2   1  G1         -0.7863
     24  P         65.9350   47.6040   33.8790 P.3     2  G2          0.2141
     25  C5'       66.6740   45.9290   35.7480 C.3     2  G2          0.1812
     26  O5'       65.8120   46.9750   35.3360 O.3     2  G2         -0.3114
     27  C4'       66.5690   45.7390   37.2390 C.3     2  G2          0.1773
     28  O4'       66.9680   46.9710   37.9000 O.3     2  G2         -0.3307
     29  C3'       65.1630   45.5070   37.7580 C.3     2  G2          0.1860
     30  O3'       64.7650   44.1560   37.6670 O.3     2  G2         -0.3112
     31  C2'       65.2760   45.9450   39.2070 C.3     2  G2          0.2309
     32  O2'       65.9060   44.9530   39.9940 O.3     2  G2         -0.2156
     33  C1'       66.1910   47.1610   39.0760 C.3     2  G2          0.2408
     34  N1        63.1520   50.5510   41.3390 N.ar    2  G2         -0.1709
     35  C2        63.7080   49.4010   41.8450 C.ar    2  G2          0.2606
     36  N2        63.4090   49.1100   43.1150 N.pl3   2  G2         -0.0859
     37  N3        64.4950   48.5940   41.1580 N.ar    2  G2         -0.1918
     38  C4        64.6820   49.0270   39.8970 C.ar    2  G2          0.1723
     39  C5        64.1740   50.1570   39.2910 C.ar    2  G2          0.1748
     40  C6        63.3340   51.0230   40.0420 C.ar    2  G2          0.3023
     41  O6        62.7900   52.0870   39.6810 O.2     2  G2         -0.2633
     42  N7        64.6090   50.2470   37.9770 N.ar    2  G2         -0.2173
     43  C8        65.3570   49.1890   37.8090 C.ar    2  G2          0.1817
     44  N9        65.4430   48.4060   38.9330 N.ar    2  G2         -0.2693
     45  OP1       65.9240   46.4910   32.8940 O.2     2  G2         -0.5172
     46  OP2       64.9590   48.7250   33.7510 O.co2   2  G2         -0.4373
     47  P         63.2030   43.8060   37.6850 P.3     3  C3          0.2141
     48  C5'       63.1550   43.3150   40.2600 C.3     3  C3          0.1812
     49  O5'       62.7530   44.1460   39.1750 O.3     3  C3         -0.3114
     50  C4'       62.4000   43.6830   41.5120 C.3     3  C3          0.1773
     51  O4'       62.7390   45.0420   41.8740 O.3     3  C3         -0.3307
     52  C3'       60.8900   43.7250   41.3750 C.3     3  C3          0.1860
     53  O3'       60.2940   42.4550   41.5320 O.3     3  C3         -0.3112
     54  C2'       60.4920   44.6540   42.5050 C.3     3  C3          0.2309
     55  O2'       60.5440   43.9970   43.7530 O.3     3  C3         -0.2156
     56  C1'       61.6110   45.6850   42.4380 C.3     3  C3          0.2420
     57  N1        61.2490   46.8280   41.5930 N.ar    3  C3         -0.2535
     58  C2        60.5750   47.9000   42.1770 C.ar    3  C3          0.3532
     59  O2        60.3100   47.8540   43.3890 O.2     3  C3         -0.2443
     60  N3        60.2300   48.9570   41.4170 N.ar    3  C3         -0.1739
     61  C4        60.5270   48.9710   40.1250 C.ar    3  C3          0.1759
     62  N4        60.1590   50.0350   39.4250 N.pl3   3  C3         -0.1070
     63  C5        61.2150   47.8930   39.4970 C.ar    3  C3          0.0566
     64  C6        61.5540   46.8480   40.2630 C.ar    3  C3          0.0850
     65  OP1       63.0470   42.3460   37.4640 O.3     3  C3         -0.4373
     66  OP2       62.5360   44.7650   36.7720 O.co2   3  C3         -0.5172
     67  P         58.8910   42.1600   40.8210 P.3     4  U4          0.2141
     68  C5'       57.6570   42.8090   43.0260 C.3     4  U4          0.1812
     69  O5'       57.8470   43.0470   41.6400 O.3     4  U4         -0.3114
     70  C4'       56.6990   43.8080   43.6290 C.3     4  U4          0.1773
     71  O4'       57.2910   45.1360   43.6100 O.3     4  U4         -0.3307
     72  C3'       55.3840   43.9890   42.8960 C.3     4  U4          0.1860
     73  O3'       54.4550   42.9620   43.2090 O.3     4  U4         -0.3112
     74  C2'       54.9450   45.3660   43.3800 C.3     4  U4          0.2309
     75  O2'       54.4280   45.3270   44.6980 O.3     4  U4         -0.2156
     76  C1'       56.2790   46.1090   43.4070 C.3     4  U4          0.2420
     77  N1        56.5620   46.8350   42.1590 N.ar    4  U4         -0.2534
     78  C2        55.9120   48.0460   41.9550 C.ar    4  U4          0.3546
     79  O2        55.1200   48.5220   42.7490 O.2     4  U4         -0.2443
     80  N3        56.2260   48.6830   40.7850 N.ar    4  U4         -0.1530
     81  C4        57.1030   48.2500   39.8150 C.ar    4  U4          0.2846
     82  O4        57.2960   48.9560   38.8240 O.2     4  U4         -0.2650
     83  C5        57.7280   46.9860   40.0880 C.ar    4  U4          0.0814
     84  C6        57.4400   46.3380   41.2250 C.ar    4  U4          0.0870
     85  OP1       58.5820   40.7250   41.0340 O.3     4  U4         -0.4373
     86  OP2       59.0080   42.6880   39.4410 O.co2   4  U4         -0.5172
     87  P         53.5030   42.3760   42.0570 P.3     5  U5          0.2141
     88  C5'       51.6170   44.0180   42.8600 C.3     5  U5          0.1812
     89  O5'       52.4530   43.5510   41.7950 O.3     5  U5         -0.3114
     90  C4'       50.9680   45.3560   42.5160 C.3     5  U5          0.1773
     91  O4'       51.9910   46.3780   42.3220 O.3     5  U5         -0.3307
     92  C3'       50.1640   45.4020   41.2250 C.3     5  U5          0.1860
     93  O3'       48.8370   44.9220   41.3770 O.3     5  U5         -0.3112
     94  C2'       50.1730   46.8810   40.8740 C.3     5  U5          0.2309
     95  O2'       49.2310   47.6160   41.6200 O.3     5  U5         -0.2156
     96  C1'       51.5780   47.2830   41.3070 C.3     5  U5          0.2420
     97  N1        52.5450   47.2470   40.2020 N.ar    5  U5         -0.2534
     98  C2        52.6220   48.3710   39.4030 C.ar    5  U5          0.3546
     99  O2        51.9110   49.3470   39.5690 O.2     5  U5         -0.2443
    100  N3        53.5590   48.3110   38.4050 N.ar    5  U5         -0.1530
    101  C4        54.4050   47.2580   38.1240 C.ar    5  U5          0.2846
    102  O4        55.1970   47.3580   37.1900 O.2     5  U5         -0.2650
    103  C5        54.2550   46.1220   38.9850 C.ar    5  U5          0.0814
    104  C6        53.3490   46.1550   39.9710 C.ar    5  U5          0.0870
    105  OP1       52.7800   41.2280   42.6500 O.3     5  U5         -0.4373
    106  OP2       54.3450   42.1690   40.8530 O.co2   5  U5         -0.5172
    107  P         48.0810   44.3230   40.0950 P.3     6  A6          0.2141
    108  C5'       46.3550   46.2800   39.9400 C.3     6  A6          0.1812
    109  O5'       47.4830   45.6210   39.3960 O.3     6  A6         -0.3114
    110  C4'       46.0500   47.5190   39.1450 C.3     6  A6          0.1773
    111  O4'       47.1690   48.4280   39.2660 O.3     6  A6         -0.3307
    112  C3'       45.8880   47.3360   37.6470 C.3     6  A6          0.1860
    113  O3'       44.5840   46.8990   37.2950 O.3     6  A6         -0.3112
    114  C2'       46.2120   48.7280   37.1300 C.3     6  A6          0.2309
    115  O2'       45.1710   49.6600   37.3240 O.3     6  A6         -0.2156
    116  C1'       47.3700   49.1040   38.0450 C.3     6  A6          0.2408
    117  N1        51.2720   50.3080   35.0070 N.ar    6  A6         -0.2040
    118  C2        50.1910   50.9890   35.4050 C.ar    6  A6          0.2016
    119  N3        49.2140   50.6090   36.2130 N.ar    6  A6         -0.2048
    120  C4        49.4240   49.3520   36.6410 C.ar    6  A6          0.1692
    121  C5        50.4860   48.5270   36.3250 C.ar    6  A6          0.1518
    122  C6        51.4550   49.0500   35.4610 C.ar    6  A6          0.1919
    123  N6        52.5440   48.3790   35.0650 N.pl3   6  A6         -0.1054
    124  N7        50.3620   47.3000   36.9630 N.ar    6  A6         -0.2193
    125  C8        49.2430   47.4120   37.6370 C.ar    6  A6          0.1816
    126  N9        48.6240   48.6280   37.4810 N.ar    6  A6         -0.2693
    127  OP1       46.9770   43.4330   40.5420 O.3     6  A6         -0.4373
    128  OP2       49.1330   43.7790   39.1930 O.co2   6  A6         -0.5172
    129  P         44.3930   45.9460   36.0130 P.3     7  U7          0.2141
    130  C5'       43.6650   48.1270   34.7790 C.3     7  U7          0.1812
    131  O5'       44.4760   46.9610   34.7900 O.3     7  U7         -0.3114
    132  C4'       44.0560   49.0360   33.6400 C.3     7  U7          0.1773
    133  O4'       45.3090   49.7060   33.9510 O.3     7  U7         -0.3307
    134  C3'       44.3320   48.3440   32.3210 C.3     7  U7          0.1860
    135  O3'       43.1660   48.0200   31.5800 O.3     7  U7         -0.3112
    136  C2'       45.2060   49.3620   31.6160 C.3     7  U7          0.2309
    137  O2'       44.4120   50.4150   31.1110 O.3     7  U7         -0.2156
    138  C1'       46.0760   49.8600   32.7700 C.3     7  U7          0.2420
    139  N1        47.2890   49.0400   32.9030 N.ar    7  U7         -0.2534
    140  C2        48.4280   49.4290   32.2070 C.ar    7  U7          0.3546
    141  O2        48.4730   50.4250   31.5000 O.2     7  U7         -0.2443
    142  N3        49.5160   48.6020   32.3700 N.ar    7  U7         -0.1530
    143  C4        49.5830   47.4550   33.1380 C.ar    7  U7          0.2846
    144  O4        50.6360   46.8140   33.1850 O.2     7  U7         -0.2650
    145  C5        48.3730   47.1270   33.8210 C.ar    7  U7          0.0814
    146  C6        47.2960   47.9110   33.6850 C.ar    7  U7          0.0870
    147  OP1       43.0160   45.3820   36.0910 O.3     7  U7         -0.4373
    148  OP2       45.5630   45.0240   35.9430 O.co2   7  U7         -0.5172
    149  P         43.2100   46.7750   30.5650 P.3     8  C8          0.2141
    150  C5'       43.8750   48.4460   28.6850 C.3     8  C8          0.1812
    151  O5'       44.2030   47.2870   29.4300 O.3     8  C8         -0.3114
    152  C4'       44.9250   48.7360   27.6430 C.3     8  C8          0.1773
    153  O4'       46.1520   49.1080   28.3150 O.3     8  C8         -0.3307
    154  C3'       45.3330   47.5740   26.7490 C.3     8  C8          0.1860
    155  O3'       44.4610   47.4320   25.6340 O.3     8  C8         -0.3112
    156  C2'       46.7080   48.0140   26.2870 C.3     8  C8          0.2309
    157  O2'       46.5620   49.0160   25.3050 O.3     8  C8         -0.2156
    158  C1'       47.2590   48.6660   27.5550 C.3     8  C8          0.2420
    159  N1        48.0980   47.7850   28.3860 N.ar    8  C8         -0.2535
    160  C2        49.4430   47.6240   28.0380 C.ar    8  C8          0.3532
    161  O2        49.8880   48.2510   27.0710 O.2     8  C8         -0.2443
    162  N3        50.2220   46.7920   28.7610 N.ar    8  C8         -0.1739
    163  C4        49.7060   46.1340   29.8000 C.ar    8  C8          0.1759
    164  N4        50.5050   45.3100   30.4700 N.pl3   8  C8         -0.1070
    165  C5        48.3440   46.2920   30.1940 C.ar    8  C8          0.0566
    166  C6        47.5820   47.1240   29.4660 C.ar    8  C8          0.0850
    167  OP1       41.8550   46.6280   29.9800 O.2     8  C8         -0.5172
    168  OP2       43.8410   45.6120   31.2500 O.co2   8  C8         -0.4373
    169  P         43.7580   46.0130   25.3470 P.3     9  A9          0.2141
    170  C5'       43.4200   46.3700   22.7780 C.3     9  A9          0.1812
    171  O5'       42.8460   46.2930   24.0740 O.3     9  A9         -0.3114
    172  C4'       42.3950   46.8410   21.7790 C.3     9  A9          0.1773
    173  O4'       41.5260   45.7450   21.3980 O.3     9  A9         -0.3307
    174  C3'       41.4840   47.9190   22.3150 C.3     9  A9          0.1860
    175  O3'       41.5910   49.2020   21.7000 O.3     9  A9         -0.3112
    176  C2'       40.1900   47.2310   22.7550 C.3     9  A9          0.2309
    177  O2'       39.0300   47.9350   22.3630 O.3     9  A9         -0.2156
    178  C1'       40.2400   45.9080   21.9740 C.3     9  A9          0.2408
    179  N1        37.1250   41.8440   22.6610 N.ar    9  A9         -0.2040
    180  C2        37.0260   42.9290   21.8750 C.ar    9  A9          0.2016
    181  N3        37.8500   43.9760   21.7690 N.ar    9  A9         -0.2048
    182  C4        38.8950   43.8410   22.6050 C.ar    9  A9          0.1692
    183  C5        39.1290   42.7880   23.4780 C.ar    9  A9          0.1518
    184  C6        38.1900   41.7410   23.4880 C.ar    9  A9          0.1919
    185  N6        38.3000   40.6560   24.2590 N.pl3   9  A9         -0.1054
    186  N7        40.3030   42.9900   24.1880 N.ar    9  A9         -0.2193
    187  C8        40.7560   44.1320   23.7280 C.ar    9  A9          0.1816
    188  N9        39.9680   44.6910   22.7480 N.ar    9  A9         -0.2693
    189  OP1       42.8240   45.7090   26.4640 O.3     9  A9         -0.4373
    190  OP2       44.8140   45.0390   24.9860 O.co2   9  A9         -0.5172
    191  P         40.7650   49.5230   20.3600 P.3    10  A10         0.2141
    192  C5'       38.3720   50.4980   20.8480 C.3    10  A10         0.1812
    193  O5'       39.7810   50.6910   20.8130 O.3    10  A10        -0.3114
    194  C4'       37.7040   51.6690   21.5260 C.3    10  A10         0.1773
    195  O4'       37.9560   51.6080   22.9530 O.3    10  A10        -0.3307
    196  C3'       38.2290   53.0340   21.1240 C.3    10  A10         0.1860
    197  O3'       37.6400   53.4920   19.9170 O.3    10  A10        -0.3112
    198  C2'       37.8460   53.8900   22.3240 C.3    10  A10         0.2309
    199  O2'       36.4820   54.2700   22.3210 O.3    10  A10        -0.2156
    200  C1'       38.0970   52.9170   23.4740 C.3    10  A10         0.2408
    201  N1        41.3470   55.7380   26.2990 N.ar   10  A10        -0.2040
    202  C2        40.0640   55.9100   25.9750 C.ar   10  A10         0.2016
    203  N3        39.2680   55.1370   25.2460 N.ar   10  A10        -0.2048
    204  C4        39.9290   54.0580   24.8090 C.ar   10  A10         0.1692
    205  C5        41.2470   53.7430   25.0580 C.ar   10  A10         0.1518
    206  C6        41.9780   54.6370   25.8530 C.ar   10  A10         0.1919
    207  N6        43.2520   54.4520   26.1950 N.pl3  10  A10        -0.1054
    208  N7        41.5870   52.5480   24.4470 N.ar   10  A10        -0.2193
    209  C8        40.4840   52.1730   23.8530 C.ar   10  A10         0.1816
    210  N9        39.4430   53.0410   24.0240 N.ar   10  A10        -0.2693
    211  OP1       39.9730   48.3220   20.0170 O.3    10  A10        -0.4373
    212  OP2       41.7050   50.0800   19.3640 O.co2  10  A10        -0.5172
    213  P         38.5030   54.3970   18.9110 P.3    11  G11         0.2141
    214  C5'       37.6670   56.5120   20.2460 C.3    11  G11         0.1812
    215  O5'       38.7480   55.7430   19.7230 O.3    11  G11        -0.3114
    216  C4'       38.2210   57.7090   20.9630 C.3    11  G11         0.1773
    217  O4'       38.8610   57.2740   22.1820 O.3    11  G11        -0.3307
    218  C3'       39.3040   58.4370   20.1930 C.3    11  G11         0.1860
    219  O3'       38.6910   59.3560   19.3020 O.3    11  G11        -0.3112
    220  C2'       40.0960   59.1030   21.3130 C.3    11  G11         0.2309
    221  O2'       39.5020   60.2740   21.8230 O.3    11  G11        -0.2156
    222  C1'       40.0410   58.0290   22.3980 C.3    11  G11         0.2408
    223  N1        44.5580   56.7550   24.3070 N.ar   11  G11        -0.1709
    224  C2        43.7450   57.8160   24.6170 C.ar   11  G11         0.2606
    225  N2        44.1850   58.6390   25.5680 N.pl3  11  G11        -0.0859
    226  N3        42.5850   58.0530   24.0390 N.ar   11  G11        -0.1918
    227  C4        42.2920   57.1300   23.1050 C.ar   11  G11         0.1723
    228  C5        43.0270   56.0300   22.7190 C.ar   11  G11         0.1748
    229  C6        44.2750   55.7840   23.3540 C.ar   11  G11         0.3023
    230  O6        45.0730   54.8570   23.1600 O.2    11  G11        -0.2633
    231  N7        42.3690   55.3220   21.7260 N.ar   11  G11        -0.2173
    232  C8        41.2700   55.9930   21.5340 C.ar   11  G11         0.1817
    233  N9        41.1590   57.0940   22.3450 N.ar   11  G11        -0.2693
    234  OP1       37.6840   54.6950   17.7130 O.2    11  G11        -0.5172
    235  OP2       39.8220   53.7430   18.7500 O.co2  11  G11        -0.4373
    236  P         39.2570   59.5340   17.8100 P.3    12  A12         0.2141
    237  C5'       39.8760   61.9650   18.5180 C.3    12  A12         0.1812
    238  O5'       40.2880   60.7340   17.9540 O.3    12  A12        -0.3114
    239  C4'       41.0730   62.7250   19.0150 C.3    12  A12         0.1773
    240  O4'       41.6590   62.0170   20.1330 O.3    12  A12        -0.3307
    241  C3'       42.2070   62.8110   18.0170 C.3    12  A12         0.1860
    242  O3'       41.9940   63.8540   17.0980 O.3    12  A12        -0.3112
    243  C2'       43.4080   63.0560   18.9110 C.3    12  A12         0.2309
    244  O2'       43.4910   64.4050   19.3250 O.3    12  A12        -0.2156
    245  C1'       43.0690   62.1600   20.1000 C.3    12  A12         0.2408
    246  N1        45.9610   58.6300   22.4200 N.ar   12  A12        -0.2040
    247  C2        45.5680   59.8550   22.7810 C.ar   12  A12         0.2016
    248  N3        44.8130   60.7240   22.1220 N.ar   12  A12        -0.2048
    249  C4        44.4410   60.2210   20.9340 C.ar   12  A12         0.1692
    250  C5        44.7650   58.9800   20.4190 C.ar   12  A12         0.1518
    251  C6        45.5640   58.1490   21.2240 C.ar   12  A12         0.1919
    252  N6        45.9410   56.9190   20.8780 N.pl3  12  A12        -0.1054
    253  N7        44.2000   58.8080   19.1620 N.ar   12  A12        -0.2193
    254  C8        43.5540   59.9280   18.9540 C.ar   12  A12         0.1816
    255  N9        43.6560   60.8270   19.9870 N.ar   12  A12        -0.2693
    256  OP1       38.1330   60.0000   16.9630 O.2    12  A12        -0.5172
    257  OP2       40.0100   58.3160   17.4260 O.co2  12  A12        -0.4373
    258  P         41.8330   63.5000   15.5510 P.3    13  G13         0.2141
    259  C5'       43.7860   64.2490   13.9940 C.3    13  G13         0.1812
    260  O5'       42.6990   64.6110   14.8290 O.3    13  G13        -0.3114
    261  C4'       44.5490   65.4830   13.6270 C.3    13  G13         0.1773
    262  O4'       45.2050   65.9650   14.8230 O.3    13  G13        -0.3307
    263  C3'       45.6890   65.2600   12.6400 C.3    13  G13         0.1860
    264  O3'       45.2950   65.3750   11.2650 O.3    13  G13        -0.3112
    265  C2'       46.6030   66.4400   12.9430 C.3    13  G13         0.2309
    266  O2'       46.1800   67.6310   12.2920 O.3    13  G13        -0.2156
    267  C1'       46.4060   66.5910   14.4500 C.3    13  G13         0.2408
    268  N1        49.9400   68.6050   17.3070 N.ar   13  G13        -0.1709
    269  C2        48.9820   69.1790   16.4980 C.ar   13  G13         0.2606
    270  N2        48.9480   70.5090   16.4130 N.pl3  13  G13        -0.0859
    271  N3        48.1110   68.4960   15.8080 N.ar   13  G13        -0.1918
    272  C4        48.2590   67.1690   15.9640 C.ar   13  G13         0.1723
    273  C5        49.1690   66.4760   16.7270 C.ar   13  G13         0.1748
    274  C6        50.1210   67.2310   17.4890 C.ar   13  G13         0.3023
    275  O6        51.0250   66.8230   18.2350 O.2    13  G13        -0.2633
    276  N7        48.9730   65.1020   16.5950 N.ar   13  G13        -0.2173
    277  C8        47.9600   65.0030   15.7660 C.ar   13  G13         0.1817
    278  N9        47.4910   66.2320   15.3540 N.ar   13  G13        -0.2693
    279  OP1       40.4090   63.6740   15.1860 O.2    13  G13        -0.5172
    280  OP2       42.4980   62.1980   15.3100 O.co2  13  G13        -0.4373
    281  P         43.8640   66.0140   10.8570 P.3    14  A14         0.2141
    282  C5'       43.4760   68.2400    9.5260 C.3    14  A14         0.1812
    283  O5'       44.2080   67.5350   10.5260 O.3    14  A14        -0.3114
    284  C4'       43.5150   69.7240    9.7910 C.3    14  A14         0.1773
    285  O4'       42.8440   69.9530   11.0540 O.3    14  A14        -0.3307
    286  C3'       44.9250   70.3000    9.9110 C.3    14  A14         0.1860
    287  O3'       45.4170   70.9960    8.7690 O.3    14  A14        -0.3112
    288  C2'       45.0060   71.0220   11.2570 C.3    14  A14         0.2309
    289  O2'       45.0740   72.4300   11.1400 O.3    14  A14        -0.2156
    290  C1'       43.6760   70.6840   11.9290 C.3    14  A14         0.2408
    291  N1        46.3060   70.4380   16.3090 N.ar   14  A14        -0.2040
    292  C2        46.3090   71.3160   15.3000 C.ar   14  A14         0.2016
    293  N3        45.5840   71.3170   14.1850 N.ar   14  A14        -0.2048
    294  C4        44.7630   70.2490   14.1500 C.ar   14  A14         0.1692
    295  C5        44.6440   69.2620   15.1100 C.ar   14  A14         0.1518
    296  C6        45.4690   69.3770   16.2450 C.ar   14  A14         0.1919
    297  N6        45.4710   68.4990   17.2520 N.pl3  14  A14        -0.1054
    298  N7        43.6930   68.3190   14.7310 N.ar   14  A14        -0.2193
    299  C8        43.2680   68.7510   13.5660 C.ar   14  A14         0.1816
    300  N9        43.8760   69.9140   13.1540 N.ar   14  A14        -0.2693
    301  OP1       42.8980   66.0530   11.9860 O.3    14  A14        -0.4373
    302  OP2       43.4610   65.3560    9.5880 O.co2  14  A14        -0.5172
    303  P         47.0070   71.1340    8.5490 P.3    15  G15         0.2141
    304  C5'       46.8640   73.6170    9.3520 C.3    15  G15         0.1812
    305  O5'       47.4350   72.3290    9.5080 O.3    15  G15        -0.3114
    306  C4'       47.4980   74.5860   10.3120 C.3    15  G15         0.1773
    307  O4'       47.2500   74.1470   11.6760 O.3    15  G15        -0.3307
    308  C3'       49.0120   74.6400   10.2330 C.3    15  G15         0.1860
    309  O3'       49.4560   75.4700    9.1780 O.3    15  G15        -0.3112
    310  C2'       49.3930   75.1760   11.6030 C.3    15  G15         0.2309
    311  O2'       49.2750   76.5760   11.7170 O.3    15  G15        -0.2156
    312  C1'       48.3670   74.4720   12.4910 C.3    15  G15         0.2408
    313  N1        52.0170   72.6630   15.4300 N.ar   15  G15        -0.1709
    314  C2        51.6330   73.9620   15.1830 C.ar   15  G15         0.2606
    315  N2        52.3360   74.9280   15.7790 N.pl3  15  G15        -0.0859
    316  N3        50.6270   74.2930   14.4050 N.ar   15  G15        -0.1918
    317  C4        50.0130   73.2150   13.8850 C.ar   15  G15         0.1723
    318  C5        50.3030   71.8810   14.0660 C.ar   15  G15         0.1748
    319  C6        51.4000   71.5310   14.9010 C.ar   15  G15         0.3023
    320  O6        51.8320   70.4030   15.1790 O.2    15  G15        -0.2633
    321  N7        49.4170   71.0850   13.3510 N.ar   15  G15        -0.2173
    322  C8        48.6280   71.9390   12.7550 C.ar   15  G15         0.1817
    323  N9        48.9550   73.2490   13.0250 N.ar   15  G15        -0.2693
    324  OP1       47.2300   71.5910    7.1550 O.2    15  G15        -0.5172
    325  OP2       47.6670   69.8880    9.0330 O.co2  15  G15        -0.4373
    326  P         50.8870   75.1990    8.5120 P.3    16  G16         0.2141
    327  C5'       53.1910   76.1770    9.2170 C.3    16  G16         0.1812
    328  O5'       51.7940   76.3430    9.1350 O.3    16  G16        -0.3114
    329  C4'       53.7030   76.7620   10.5030 C.3    16  G16         0.1773
    330  O4'       52.9390   76.2280   11.6150 O.3    16  G16        -0.3307
    331  C3'       55.1420   76.4110   10.8280 C.3    16  G16         0.1860
    332  O3'       56.0450   77.2150   10.0890 O.3    16  G16        -0.3112
    333  C2'       55.1750   76.5760   12.3410 C.3    16  G16         0.2309
    334  O2'       55.2390   77.9230   12.7550 O.3    16  G16        -0.2156
    335  C1'       53.8100   75.9960   12.7170 C.3    16  G16         0.2408
    336  N1        56.3590   72.2360   14.9330 N.ar   16  G16        -0.1709
    337  C2        56.5560   73.5920   15.0080 C.ar   16  G16         0.2606
    338  N2        57.5680   73.9980   15.7810 N.pl3  16  G16        -0.0859
    339  N3        55.8150   74.4820   14.3750 N.ar   16  G16        -0.1918
    340  C4        54.8440   73.8990   13.6500 C.ar   16  G16         0.1723
    341  C5        54.5610   72.5580   13.5040 C.ar   16  G16         0.1748
    342  C6        55.3630   71.6130   14.1890 C.ar   16  G16         0.3023
    343  O6        55.2730   70.3760   14.1930 O.2    16  G16        -0.2633
    344  N7        53.4760   72.3720   12.6620 N.ar   16  G16        -0.2173
    345  C8        53.1270   73.5810   12.3220 C.ar   16  G16         0.1817
    346  N9        53.9180   74.5510   12.8900 N.ar   16  G16        -0.2693
    347  OP1       50.7600   75.4150    7.0510 O.2    16  G16        -0.5172
    348  OP2       51.4170   73.9090    9.0210 O.co2  16  G16        -0.4373
    349  P         56.8110   76.5670    8.8330 P.3    17  U17         0.2141
    350  C5'       58.8890   77.4820   10.0930 C.3    17  U17         0.1812
    351  O5'       58.2950   76.4220    9.3680 O.3    17  U17        -0.3114
    352  C4'       59.7720   76.9290   11.1690 C.3    17  U17         0.1773
    353  O4'       58.9450   76.2740   12.1680 O.3    17  U17        -0.3307
    354  C3'       60.6840   75.8200   10.6870 C.3    17  U17         0.1860
    355  O3'       61.8230   76.3110   10.0030 O.3    17  U17        -0.3112
    356  C2'       60.9890   75.0810   11.9790 C.3    17  U17         0.2309
    357  O2'       61.9620   75.7260   12.7730 O.3    17  U17        -0.2156
    358  C1'       59.6300   75.1410   12.6750 C.3    17  U17         0.2420
    359  N1        58.8450   73.9360   12.3750 N.ar   17  U17        -0.2534
    360  C2        59.2730   72.7620   12.9590 C.ar   17  U17         0.3546
    361  O2        60.2380   72.7180   13.7070 O.2    17  U17        -0.2443
    362  N3        58.5370   71.6470   12.6370 N.ar   17  U17        -0.1530
    363  C4        57.4390   71.5890   11.8130 C.ar   17  U17         0.2846
    364  O4        56.8850   70.5070   11.6280 O.2    17  U17        -0.2650
    365  C5        57.0450   72.8500   11.2490 C.ar   17  U17         0.0814
    366  C6        57.7450   73.9570   11.5440 C.ar   17  U17         0.0870
    367  OP1       56.8070   77.5270    7.7020 O.2    17  U17        -0.5172
    368  OP2       56.2560   75.2030    8.6390 O.co2  17  U17        -0.4373
    369  P         62.2440   75.6470    8.6000 P.3    18  G18         0.2141
    370  C5'       63.6450   74.1320   10.2030 C.3    18  G18         0.1812
    371  O5'       62.8610   74.2430    9.0240 O.3    18  G18        -0.3114
    372  C4'       63.6560   72.7070   10.6840 C.3    18  G18         0.1773
    373  O4'       62.3160   72.3170   11.0740 O.3    18  G18        -0.3307
    374  C3'       64.0470   71.6990    9.6190 C.3    18  G18         0.1860
    375  O3'       65.4640   71.5970    9.5910 O.3    18  G18        -0.3112
    376  C2'       63.4010   70.4170   10.1350 C.3    18  G18         0.2309
    377  O2'       64.1740   69.7910   11.1380 O.3    18  G18        -0.2156
    378  C1'       62.1050   70.9540   10.7520 C.3    18  G18         0.2408
    379  N1        58.2190   68.0280    9.3230 N.ar   18  G18        -0.1709
    380  C2        59.2580   67.7370   10.1640 C.ar   18  G18         0.2606
    381  N2        59.2520   66.5130   10.7090 N.pl3  18  G18        -0.0859
    382  N3        60.2330   68.5850   10.4510 N.ar   18  G18        -0.1918
    383  C4        60.0770   69.7680    9.8140 C.ar   18  G18         0.1723
    384  C5        59.0780   70.1530    8.9510 C.ar   18  G18         0.1748
    385  C6        58.0440   69.2350    8.6560 C.ar   18  G18         0.3023
    386  O6        57.0750   69.3890    7.9180 O.2    18  G18        -0.2633
    387  N7        59.2820   71.4500    8.5050 N.ar   18  G18        -0.2173
    388  C8        60.3810   71.8270    9.1000 C.ar   18  G18         0.1817
    389  N9        60.9110   70.8570    9.9160 N.ar   18  G18        -0.2693
    390  OP1       63.3160   76.4790    7.9870 O.3    18  G18        -0.4373
    391  OP2       60.9950   75.3760    7.8380 O.co2  18  G18        -0.5172
    392  P         66.2640   71.8980    8.2310 P.3    19  G19         0.2141
    393  C5'       67.3220   69.7920    7.0580 C.3    19  G19         0.1812
    394  O5'       67.2760   70.6680    8.1810 O.3    19  G19        -0.3114
    395  C4'       66.5420   68.5290    7.3440 C.3    19  G19         0.1773
    396  O4'       65.2070   68.8690    7.7740 O.3    19  G19        -0.3307
    397  C3'       66.3570   67.6040    6.1550 C.3    19  G19         0.1860
    398  O3'       67.4610   66.7060    6.1670 O.3    19  G19        -0.3112
    399  C2'       65.0870   66.8540    6.5160 C.3    19  G19         0.2309
    400  O2'       65.3660   65.8070    7.4180 O.3    19  G19        -0.2156
    401  C1'       64.2920   67.9300    7.2540 C.3    19  G19         0.2408
    402  N1        59.3410   68.3130    6.1790 N.ar   19  G19        -0.1709
    403  C2        60.0180   67.2890    6.7960 C.ar   19  G19         0.2606
    404  N2        59.2750   66.2610    7.2260 N.pl3  19  G19        -0.0859
    405  N3        61.3310   67.2720    6.9750 N.ar   19  G19        -0.1918
    406  C4        61.9250   68.3760    6.4680 C.ar   19  G19         0.1723
    407  C5        61.3430   69.4500    5.8300 C.ar   19  G19         0.1748
    408  C6        59.9290   69.4610    5.6570 C.ar   19  G19         0.3023
    409  O6        59.2230   70.3290    5.1330 O.2    19  G19        -0.2633
    410  N7        62.3060   70.3790    5.4540 N.ar   19  G19        -0.2173
    411  C8        63.4330   69.8680    5.8700 C.ar   19  G19         0.1817
    412  N9        63.2690   68.6760    6.5310 N.ar   19  G19        -0.2693
    413  OP1       67.0750   73.1340    8.3990 O.3    19  G19        -0.4373
    414  OP2       65.2940   71.8120    7.1040 O.co2  19  G19        -0.5172
    415  P         67.4990   65.4780    5.1440 P.3    20  A20         0.2141
    416  C5'       67.4070   63.7890    7.1580 C.3    20  A20         0.1812
    417  O5'       66.8410   64.2610    5.9410 O.3    20  A20        -0.3114
    418  C4'       67.0200   62.3420    7.4040 C.3    20  A20         0.1773
    419  O4'       65.5760   62.2320    7.5660 O.3    20  A20        -0.3307
    420  C3'       67.3580   61.4290    6.2390 C.3    20  A20         0.1860
    421  O3'       68.3800   60.4510    6.4310 O.3    20  A20        -0.3112
    422  C2'       66.0800   61.2390    5.4250 C.3    20  A20         0.2309
    423  O2'       65.8460   59.9350    4.9380 O.3    20  A20        -0.2156
    424  C1'       64.9960   61.5650    6.4540 C.3    20  A20         0.2408
    425  N1        60.0350   61.7160    5.1440 N.ar   20  A20        -0.2040
    426  C2        60.7730   60.7830    5.7480 C.ar   20  A20         0.2016
    427  N3        62.0570   60.8190    6.0920 N.ar   20  A20        -0.2048
    428  C4        62.6070   61.9930    5.7440 C.ar   20  A20         0.1692
    429  C5        61.9740   63.0480    5.1220 C.ar   20  A20         0.1518
    430  C6        60.6250   62.8830    4.8080 C.ar   20  A20         0.1919
    431  N6        59.9030   63.8110    4.1930 N.pl3  20  A20        -0.1054
    432  N7        62.8530   64.1010    4.9190 N.ar   20  A20        -0.2193
    433  C8        63.9860   63.6620    5.4080 C.ar   20  A20         0.1816
    434  N9        63.9140   62.3850    5.9060 N.ar   20  A20        -0.2693
    435  OP1       68.9180   65.1400    4.8860 O.3    20  A20        -0.4373
    436  OP2       66.6120   65.8670    4.0140 O.co2  20  A20        -0.5172
    437  P         68.0070   59.0000    7.0050 P.3    21  G21         0.2141
    438  C5'       67.1430   58.2340    9.3500 C.3    21  G21         0.1812
    439  O5'       67.7480   59.2460    8.5510 O.3    21  G21        -0.3114
    440  C4'       65.8060   58.7130    9.8610 C.3    21  G21         0.1773
    441  O4'       64.9570   59.0360    8.7260 O.3    21  G21        -0.3307
    442  C3'       64.9870   57.7300   10.6760 C.3    21  G21         0.1860
    443  O3'       65.3390   57.7230   12.0430 O.3    21  G21        -0.3112
    444  C2'       63.5910   58.2820   10.4890 C.3    21  G21         0.2309
    445  O2'       63.4270   59.4460   11.2700 O.3    21  G21        -0.2156
    446  C1'       63.6240   58.6560    9.0100 C.3    21  G21         0.2408
    447  N1        60.0140   55.4800    7.3870 N.ar   21  G21        -0.1709
    448  C2        59.8960   56.6240    8.1310 C.ar   21  G21         0.2606
    449  N2        58.6580   56.9560    8.5180 N.pl3  21  G21        -0.0859
    450  N3        60.9150   57.3890    8.4720 N.ar   21  G21        -0.1918
    451  C4        62.0850   56.9100    8.0090 C.ar   21  G21         0.1723
    452  C5        62.3130   55.7790    7.2600 C.ar   21  G21         0.1748
    453  C6        61.2070   54.9660    6.8940 C.ar   21  G21         0.3023
    454  O6        61.2000   53.9190    6.2240 O.2    21  G21        -0.2633
    455  N7        63.6660   55.6350    6.9870 N.ar   21  G21        -0.2173
    456  C8        64.2240   56.6600    7.5680 C.ar   21  G21         0.1817
    457  N9        63.3240   57.4670    8.2180 N.ar   21  G21        -0.2693
    458  OP1       69.1860   58.1120    6.8880 O.3    21  G21        -0.4373
    459  OP2       66.7150   58.5820    6.4070 O.co2  21  G21        -0.5172
    460  P         65.0280   56.4210   12.9240 P.3    22  G22         0.2141
    461  C5'       62.6450   57.3410   13.3860 C.3    22  G22         0.1812
    462  O5'       63.4460   56.3080   12.8490 O.3    22  G22        -0.3114
    463  C4'       61.1990   56.9360   13.4050 C.3    22  G22         0.1773
    464  O4'       60.7100   56.8430   12.0400 O.3    22  G22        -0.3307
    465  C3'       60.9350   55.5550   13.9630 C.3    22  G22         0.1860
    466  O3'       60.8990   55.5200   15.3710 O.3    22  G22        -0.3112
    467  C2'       59.5850   55.2350   13.3550 C.3    22  G22         0.2309
    468  O2'       58.5610   55.9310   14.0330 O.3    22  G22        -0.2156
    469  C1'       59.7500   55.8090   11.9500 C.3    22  G22         0.2408
    470  N1        58.4150   51.7410    9.2950 N.ar   22  G22        -0.1709
    471  C2        57.6430   52.6030   10.0330 C.ar   22  G22         0.2606
    472  N2        56.3340   52.3270   10.1050 N.pl3  22  G22        -0.0859
    473  N3        58.1170   53.6590   10.6560 N.ar   22  G22        -0.1918
    474  C4        59.4470   53.7910   10.4870 C.ar   22  G22         0.1723
    475  C5        60.3100   52.9930    9.7750 C.ar   22  G22         0.1748
    476  C6        59.7880   51.8600    9.1040 C.ar   22  G22         0.3023
    477  O6        60.3860   51.0290    8.4170 O.2    22  G22        -0.2633
    478  N7        61.6080   53.4770    9.8540 N.ar   22  G22        -0.2173
    479  C8        61.5100   54.5400   10.6060 C.ar   22  G22         0.1817
    480  N9        60.2270   54.7730   11.0400 N.ar   22  G22        -0.2693
    481  OP1       65.4000   56.6680   14.3440 O.3    22  G22        -0.4373
    482  OP2       65.6030   55.2540   12.2050 O.co2  22  G22        -0.5172
    483  P         60.9420   54.1020   16.1140 P.3    23  G23         0.2141
    484  C5'       58.3340   53.9950   16.1640 C.3    23  G23         0.1812
    485  O5'       59.5550   53.4280   15.7210 O.3    23  G23        -0.3114
    486  C4'       57.1860   53.0580   15.8980 C.3    23  G23         0.1773
    487  O4'       56.9980   52.9050   14.4630 O.3    23  G23        -0.3307
    488  C3'       57.4160   51.6350   16.3690 C.3    23  G23         0.1860
    489  O3'       57.1450   51.4910   17.7530 O.3    23  G23        -0.3112
    490  C2'       56.4320   50.8540   15.5120 C.3    23  G23         0.2309
    491  O2'       55.1120   50.9400   16.0020 O.3    23  G23        -0.2156
    492  C1'       56.5270   51.5980   14.1820 C.3    23  G23         0.2408
    493  N1        56.9630   47.9830   10.6680 N.ar   23  G23        -0.1709
    494  C2        55.8490   48.4330   11.3220 C.ar   23  G23         0.2606
    495  N2        54.6950   47.8150   11.0210 N.pl3  23  G23        -0.0859
    496  N3        55.8590   49.4150   12.2070 N.ar   23  G23        -0.1918
    497  C4        57.0930   49.9240   12.3830 C.ar   23  G23         0.1723
    498  C5        58.2700   49.5530   11.7760 C.ar   23  G23         0.1748
    499  C6        58.2460   48.4880   10.8320 C.ar   23  G23         0.3023
    500  O6        59.1880   47.9990   10.1900 O.2    23  G23        -0.2633
    501  N7        59.3260   50.3340   12.2290 N.ar   23  G23        -0.2173
    502  C8        58.7790   51.1450   13.0960 C.ar   23  G23         0.1817
    503  N9        57.4320   50.9350   13.2520 N.ar   23  G23        -0.2693
    504  OP1       60.9440   54.3300   17.5840 O.3    23  G23        -0.4373
    505  OP2       62.0230   53.2990   15.4950 O.co2  23  G23        -0.5172
    506  P         57.5120   50.1150   18.4890 P.3    24  A24         0.2141
    507  C5'       59.8080   51.3180   18.9110 C.3    24  A24         0.1812
    508  O5'       58.7630   50.4810   19.3890 O.3    24  A24        -0.3114
    509  C4'       61.0980   50.8760   19.5370 C.3    24  A24         0.1773
    510  O4'       60.8050   50.4480   20.8860 O.3    24  A24        -0.3307
    511  C3'       61.7350   49.6650   18.8880 C.3    24  A24         0.1860
    512  O3'       62.6030   50.1590   17.8790 O.3    24  A24        -0.3112
    513  C2'       62.5260   49.0570   20.0380 C.3    24  A24         0.2309
    514  O2'       63.7350   49.7380   20.2620 O.3    24  A24        -0.2156
    515  C1'       61.5920   49.3220   21.2170 C.3    24  A24         0.2408
    516  N1        60.8560   44.6900   23.3860 N.ar   24  A24        -0.2040
    517  C2        61.9670   45.4170   23.1980 C.ar   24  A24         0.2016
    518  N3        62.1100   46.6050   22.6040 N.ar   24  A24        -0.2048
    519  C4        60.9210   47.0580   22.1680 C.ar   24  A24         0.1692
    520  C5        59.6990   46.4230   22.2890 C.ar   24  A24         0.1518
    521  C6        59.6830   45.1790   22.9310 C.ar   24  A24         0.1919
    522  N6        58.5770   44.4620   23.1130 N.pl3  24  A24        -0.1054
    523  N7        58.6930   47.1850   21.7220 N.ar   24  A24        -0.2193
    524  C8        59.3170   48.2470   21.2780 C.ar   24  A24         0.1816
    525  N9        60.6610   48.2460   21.5310 N.ar   24  A24        -0.2693
    526  OP1       57.9500   49.1420   17.4650 O.2    24  A24        -0.5172
    527  OP2       56.4060   49.7620   19.4060 O.co2  24  A24        -0.4373
    528  P         63.1990   49.1640   16.7760 P.3    25  C25         0.2141
    529  C5'       65.1860   47.9200   17.9290 C.3    25  C25         0.1812
    530  O5'       63.8060   47.9830   17.6380 O.3    25  C25        -0.3114
    531  C4'       65.5030   46.5500   18.4380 C.3    25  C25         0.1773
    532  O4'       64.5980   46.2800   19.5350 O.3    25  C25        -0.3307
    533  C3'       65.1790   45.4480   17.4490 C.3    25  C25         0.1860
    534  O3'       66.2470   45.2600   16.5360 O.3    25  C25        -0.3112
    535  C2'       64.9580   44.2530   18.3630 C.3    25  C25         0.2309
    536  O2'       66.1620   43.6990   18.8550 O.3    25  C25        -0.2156
    537  C1'       64.2380   44.9150   19.5310 C.3    25  C25         0.2420
    538  N1        62.7770   44.8180   19.4740 N.ar   25  C25        -0.2535
    539  C2        62.1860   43.6670   19.9670 C.ar   25  C25         0.3532
    540  O2        62.9210   42.7430   20.3530 O.2    25  C25        -0.2443
    541  N3        60.8350   43.5780   20.0040 N.ar   25  C25        -0.1739
    542  C4        60.0840   44.5740   19.5450 C.ar   25  C25         0.1759
    543  N4        58.7560   44.4310   19.6250 N.pl3  25  C25        -0.1070
    544  C5        60.6610   45.7540   18.9930 C.ar   25  C25         0.0566
    545  C6        62.0040   45.8340   18.9780 C.ar   25  C25         0.0850
    546  OP1       64.2940   49.9090   16.1080 O.3    25  C25        -0.4373
    547  OP2       62.1010   48.5700   15.9650 O.co2  25  C25        -0.5172
    548  P         65.9400   44.7120   15.0560 P.3    26  U26         0.2141
    549  C5'       66.1340   42.2020   15.7970 C.3    26  U26         0.1812
    550  O5'       65.3140   43.2630   15.3130 O.3    26  U26        -0.3114
    551  C4'       65.4800   40.8630   15.5500 C.3    26  U26         0.1773
    552  O4'       64.4690   40.6070   16.5560 O.3    26  U26        -0.3307
    553  C3'       64.7580   40.7240   14.2210 C.3    26  U26         0.1860
    554  O3'       65.6730   40.3470   13.1990 O.3    26  U26        -0.3112
    555  C2'       63.7550   39.6150   14.5140 C.3    26  U26         0.2309
    556  O2'       64.3240   38.3280   14.3730 O.3    26  U26        -0.2156
    557  C1'       63.3820   39.9070   15.9740 C.3    26  U26         0.2420
    558  N1        62.1740   40.7280   16.1530 N.ar   26  U26        -0.2534
    559  C2        60.9680   40.0790   16.3570 C.ar   26  U26         0.3546
    560  O2        60.8660   38.8710   16.3760 O.2    26  U26        -0.2443
    561  N3        59.8850   40.9040   16.5450 N.ar   26  U26        -0.1530
    562  C4        59.8820   42.2830   16.5490 C.ar   26  U26         0.2846
    563  O4        58.8240   42.8850   16.7280 O.2    26  U26        -0.2650
    564  C5        61.1620   42.8830   16.3240 C.ar   26  U26         0.0814
    565  C6        62.2390   42.1040   16.1350 C.ar   26  U26         0.0870
    566  OP1       67.2700   44.5660   14.3930 O.2    26  U26        -0.5172
    567  OP2       64.9000   45.5890   14.4440 O.co2  26  U26        -0.4373
    568  P         65.3710   40.7400   11.6690 P.3    27  G27         0.2141
    569  C5'       64.3390   38.3590   11.1940 C.3    27  G27         0.1812
    570  O5'       64.1560   39.7750   11.2810 O.3    27  G27        -0.3114
    571  C4'       63.0090   37.6530   11.0150 C.3    27  G27         0.1773
    572  O4'       62.2410   37.7200   12.2500 O.3    27  G27        -0.3307
    573  C3'       62.0770   38.2260    9.9590 C.3    27  G27         0.1860
    574  O3'       62.3980   37.7530    8.6530 O.3    27  G27        -0.3112
    575  C2'       60.7120   37.7380   10.4320 C.3    27  G27         0.2309
    576  O2'       60.4390   36.3980   10.0820 O.3    27  G27        -0.2156
    577  C1'       60.8590   37.8550   11.9490 C.3    27  G27         0.2408
    578  N1        56.9350   40.7300   13.4350 N.ar   27  G27        -0.1709
    579  C2        56.9400   39.4170   13.0320 C.ar   27  G27         0.2606
    580  N2        55.7530   38.7970   13.0150 N.pl3  27  G27        -0.0859
    581  N3        58.0310   38.7600   12.6720 N.ar   27  G27        -0.1918
    582  C4        59.1320   39.5380   12.7480 C.ar   27  G27         0.1723
    583  C5        59.2260   40.8590   13.1390 C.ar   27  G27         0.1748
    584  C6        58.0570   41.5430   13.5220 C.ar   27  G27         0.3023
    585  O6        57.9460   42.7090   13.8950 O.2    27  G27        -0.2633
    586  N7        60.5410   41.3010   13.0750 N.ar   27  G27        -0.2173
    587  C8        61.2120   40.2610   12.6540 C.ar   27  G27         0.1817
    588  N9        60.4200   39.1590   12.4330 N.ar   27  G27        -0.2693
    589  OP1       66.5610   40.3650   10.8620 O.2    27  G27        -0.5172
    590  OP2       64.8880   42.1400   11.6270 O.co2  27  G27        -0.4373
    591  P         61.8420   38.5400    7.3600 P.3    28  G28         0.2141
    592  C5'       59.3420   39.1040    6.8340 C.3    28  G28         0.1812
    593  O5'       60.2870   38.1960    7.3740 O.3    28  G28        -0.3114
    594  C4'       57.9660   38.8080    7.3710 C.3    28  G28         0.1773
    595  O4'       57.9590   38.9480    8.8140 O.3    28  G28        -0.3307
    596  C3'       56.8980   39.7640    6.8990 C.3    28  G28         0.1860
    597  O3'       56.4450   39.3560    5.6230 O.3    28  G28        -0.3112
    598  C2'       55.8530   39.6430    7.9950 C.3    28  G28         0.2309
    599  O2'       55.1170   38.4510    7.8780 O.3    28  G28        -0.2156
    600  C1'       56.7350   39.5310    9.2350 C.3    28  G28         0.2408
    601  N1        55.0300   43.6930   11.6410 N.ar   28  G28        -0.1709
    602  C2        54.3180   42.6060   11.1940 C.ar   28  G28         0.2606
    603  N2        52.9880   42.6370   11.4150 N.pl3  28  G28        -0.0859
    604  N3        54.8640   41.5690   10.5770 N.ar   28  G28        -0.1918
    605  C4        56.1960   41.7160   10.4350 C.ar   28  G28         0.1723
    606  C5        56.9920   42.7670   10.8430 C.ar   28  G28         0.1748
    607  C6        56.4030   43.8580   11.5080 C.ar   28  G28         0.3023
    608  O6        56.9560   44.8710   11.9560 O.2    28  G28        -0.2633
    609  N7        58.3160   42.5430   10.5100 N.ar   28  G28        -0.2173
    610  C8        58.3070   41.3830    9.9160 C.ar   28  G28         0.1817
    611  N9        57.0560   40.8230    9.8370 N.ar   28  G28        -0.2693
    612  OP1       62.4490   37.9370    6.1430 O.2    28  G28        -0.5172
    613  OP2       61.9720   40.0100    7.5930 O.co2  28  G28        -0.4373
    614  P         56.5210   40.3900    4.3970 P.3    29  C29         0.2141
    615  C5'       54.0960   40.9490    5.2110 C.3    29  C29         0.1812
    616  O5'       55.3560   41.4200    4.7470 O.3    29  C29        -0.3114
    617  C4'       53.3490   42.0450    5.9300 C.3    29  C29         0.1773
    618  O4'       53.8840   42.2200    7.2710 O.3    29  C29        -0.3307
    619  C3'       53.4950   43.4220    5.3120 C.3    29  C29         0.1860
    620  O3'       52.6620   43.6200    4.1780 O.3    29  C29        -0.3112
    621  C2'       53.1670   44.3390    6.4840 C.3    29  C29         0.2309
    622  O2'       51.7850   44.4620    6.7420 O.3    29  C29        -0.2156
    623  C1'       53.8200   43.5900    7.6420 C.3    29  C29         0.2420
    624  N1        55.1830   44.0870    7.8730 N.ar   29  C29        -0.2535
    625  C2        55.3560   45.2990    8.5770 C.ar   29  C29         0.3532
    626  O2        54.3630   45.8790    9.0380 O.2    29  C29        -0.2443
    627  N3        56.6000   45.7980    8.7310 N.ar   29  C29        -0.1739
    628  C4        57.6490   45.1350    8.2360 C.ar   29  C29         0.1759
    629  N4        58.8620   45.6690    8.4040 N.pl3  29  C29        -0.1070
    630  C5        57.5030   43.8930    7.5460 C.ar   29  C29         0.0566
    631  C6        56.2660   43.4100    7.3920 C.ar   29  C29         0.0850
    632  OP1       56.1810   39.6370    3.1620 O.2    29  C29        -0.5172
    633  OP2       57.8170   41.1180    4.4780 O.co2  29  C29        -0.4373
    634  P         52.9080   44.9030    3.2520 P.3    30  C30         0.2141
    635  C5'       52.5370   47.3860    4.0130 C.3    30  C30         0.1812
    636  O5'       52.1130   46.0330    4.0400 O.3    30  C30        -0.3114
    637  C4'       52.2070   48.0500    5.3240 C.3    30  C30         0.1773
    638  O4'       53.0150   47.4740    6.3810 O.3    30  C30        -0.3307
    639  C3'       52.4830   49.5340    5.3980 C.3    30  C30         0.1860
    640  O3'       51.3650   50.2260    4.8910 O.3    30  C30        -0.3112
    641  C2'       52.6400   49.7490    6.8940 C.3    30  C30         0.2309
    642  O2'       51.3770   49.7510    7.5340 O.3    30  C30        -0.2156
    643  C1'       53.4050   48.4870    7.2900 C.3    30  C30         0.2420
    644  N1        54.8630   48.6400    7.1630 N.ar   30  C30        -0.2535
    645  C2        55.5410   49.5090    8.0220 C.ar   30  C30         0.3532
    646  O2        54.8990   50.1520    8.8620 O.2    30  C30        -0.2443
    647  N3        56.8840   49.6260    7.9130 N.ar   30  C30        -0.1739
    648  C4        57.5450   48.9150    7.0010 C.ar   30  C30         0.1759
    649  N4        58.8670   49.0490    6.9520 N.pl3  30  C30        -0.1070
    650  C5        56.8800   48.0340    6.1070 C.ar   30  C30         0.0566
    651  C6        55.5520   47.9300    6.2200 C.ar   30  C30         0.0850
    652  OP1       52.2350   44.7060    1.9520 O.2    30  C30        -0.5172
    653  OP2       54.3740   45.1940    3.2910 O.co2  30  C30        -0.4373
    654  P         51.5880   51.5620    4.0500 P.3    31  C31         0.2141
    655  C5'       51.2190   53.1000    6.1620 C.3    31  C31         0.1812
    656  O5'       52.0900   52.6240    5.1330 O.3    31  C31        -0.3114
    657  C4'       51.9370   54.0920    7.0400 C.3    31  C31         0.1773
    658  O4'       53.0280   53.4240    7.7220 O.3    31  C31        -0.3307
    659  C3'       52.6370   55.1860    6.2610 C.3    31  C31         0.1860
    660  O3'       51.7550   56.2300    5.9220 O.3    31  C31        -0.3112
    661  C2'       53.7270   55.6440    7.2170 C.3    31  C31         0.2309
    662  O2'       53.3100   56.5590    8.1960 O.3    31  C31        -0.2156
    663  C1'       54.1150   54.3240    7.8720 C.3    31  C31         0.2420
    664  N1        55.3170   53.7570    7.2540 N.ar   31  C31        -0.2535
    665  C2        56.5510   54.2690    7.6560 C.ar   31  C31         0.3532
    666  O2        56.5700   55.1590    8.5240 O.2    31  C31        -0.2443
    667  N3        57.6870   53.7840    7.0990 N.ar   31  C31        -0.1739
    668  C4        57.6190   52.8210    6.1800 C.ar   31  C31         0.1759
    669  N4        58.7680   52.3780    5.6670 N.pl3  31  C31        -0.1070
    670  C5        56.3710   52.2740    5.7500 C.ar   31  C31         0.0566
    671  C6        55.2520   52.7680    6.3090 C.ar   31  C31         0.0850
    672  OP1       50.2490   51.9650    3.5320 O.3    31  C31        -0.4373
    673  OP2       52.7120   51.3070    3.1030 O.co2  31  C31        -0.5172
    674  P         51.9760   57.0100    4.5540 P.3    32  G32         0.2141
    675  C5'       53.4890   58.8350    5.6330 C.3    32  G32         0.1812
    676  O5'       53.3860   57.7120    4.7750 O.3    32  G32        -0.3114
    677  C4'       54.8800   59.4140    5.5910 C.3    32  G32         0.1773
    678  O4'       55.8040   58.4920    6.2320 O.3    32  G32        -0.3307
    679  C3'       55.4700   59.5840    4.2060 C.3    32  G32         0.1860
    680  O3'       54.9960   60.7100    3.4880 O.3    32  G32        -0.3112
    681  C2'       56.9660   59.6050    4.4970 C.3    32  G32         0.2309
    682  O2'       57.4690   60.8200    5.0190 O.3    32  G32        -0.2156
    683  C1'       57.0630   58.5380    5.5780 C.3    32  G32         0.2408
    684  N1        60.6000   55.4810    3.6580 N.ar   32  G32        -0.1709
    685  C2        60.7440   56.6950    4.2820 C.ar   32  G32         0.2606
    686  N2        61.9930   57.1680    4.3970 N.pl3  32  G32        -0.0859
    687  N3        59.7360   57.3970    4.7610 N.ar   32  G32        -0.1918
    688  C4        58.5520   56.7750    4.5670 C.ar   32  G32         0.1723
    689  C5        58.3040   55.5680    3.9560 C.ar   32  G32         0.1748
    690  C6        59.3910   54.8310    3.4400 C.ar   32  G32         0.3023
    691  O6        59.3700   53.7490    2.8500 O.2    32  G32        -0.2633
    692  N7        56.9450   55.2860    3.9550 N.ar   32  G32        -0.2173
    693  C8        56.4030   56.3100    4.5560 C.ar   32  G32         0.1817
    694  N9        57.3210   57.2550    4.9400 N.ar   32  G32        -0.2693
    695  OP1       50.9450   58.0700    4.4470 O.3    32  G32        -0.4373
    696  OP2       52.0910   55.9760    3.4860 O.co2  32  G32        -0.5172
    697  P         54.8190   60.5910    1.8990 P.3    33  A33         0.2141
    698  C5'       56.3600   62.7270    1.8110 C.3    33  A33         0.1812
    699  O5'       55.2030   62.0390    1.3310 O.3    33  A33        -0.3114
    700  C4'       56.9480   63.6570    0.7540 C.3    33  A33         0.1773
    701  O4'       58.1740   64.2310    1.2710 O.3    33  A33        -0.3307
    702  C3'       57.3430   63.0070   -0.5630 C.3    33  A33         0.1860
    703  O3'       56.1840   63.0740   -1.4230 O.3    33  A33        -0.3112
    704  C2'       58.5070   63.8650   -1.0710 C.3    33  A33         0.2309
    705  O2'       58.2320   64.9320   -1.9430 O.3    33  A33        -0.2156
    706  C1'       59.1200   64.3770    0.2320 C.3    33  A33         0.2408
    707  N1        61.5380   60.4210    2.4680 N.ar   33  A33        -0.2040
    708  C2        60.2740   60.5880    2.0480 C.ar   33  A33         0.2016
    709  N3        59.7130   61.6350    1.4370 N.ar   33  A33        -0.2048
    710  C4        60.6130   62.6130    1.2620 C.ar   33  A33         0.1692
    711  C5        61.9470   62.5940    1.6340 C.ar   33  A33         0.1518
    712  C6        62.4180   61.4230    2.2720 C.ar   33  A33         0.1919
    713  N6        63.6740   61.2520    2.6890 N.pl3  33  A33        -0.1054
    714  N7        62.5700   63.7850    1.2810 N.ar   33  A33        -0.2193
    715  C8        61.6130   64.4870    0.7230 C.ar   33  A33         0.1816
    716  N9        60.3970   63.8450    0.7010 N.ar   33  A33        -0.2693
    717  OP1       53.3880   60.2980    1.6030 O.3    33  A33        -0.4373
    718  OP2       55.8630   59.6350    1.4570 O.co2  33  A33        -0.5172
    719  P         55.6330   64.5100   -1.9540 P.3    34  U34         0.2141
    720  C5'       53.6400   64.1600   -0.2990 C.3    34  U34         0.1812
    721  O5'       54.0800   64.4870   -1.6120 O.3    34  U34        -0.3114
    722  C4'       52.3100   64.8050   -0.0040 C.3    34  U34         0.1773
    723  O4'       51.3880   64.4970   -1.0730 O.3    34  U34        -0.3307
    724  C3'       51.6940   64.2420    1.2630 C.3    34  U34         0.1860
    725  O3'       51.2980   65.2090    2.2210 O.3    34  U34        -0.3112
    726  C2'       50.6890   63.1810    0.8240 C.3    34  U34         0.2309
    727  O2'       49.4690   63.3010    1.5330 O.3    34  U34        -0.2156
    728  C1'       50.4130   63.5700   -0.6330 C.3    34  U34         0.2420
    729  N1        50.3840   62.4460   -1.5840 N.ar   34  U34        -0.2534
    730  C2        49.2020   61.7380   -1.7130 C.ar   34  U34         0.3546
    731  O2        48.2020   61.9940   -1.0680 O.2    34  U34        -0.2443
    732  N3        49.2370   60.7160   -2.6300 N.ar   34  U34        -0.1530
    733  C4        50.3090   60.3350   -3.4070 C.ar   34  U34         0.2846
    734  O4        50.1950   59.3700   -4.1570 O.2    34  U34        -0.2650
    735  C5        51.4920   61.1100   -3.2140 C.ar   34  U34         0.0814
    736  C6        51.4910   62.1120   -2.3310 C.ar   34  U34         0.0870
    737  OP1       55.7710   64.5620   -3.4300 O.2    34  U34        -0.5172
    738  OP2       56.2030   65.6010   -1.1310 O.co2  34  U34        -0.4373
    739  P         52.3950   65.8770    3.1730 P.3    35  G35         0.2141
    740  C5'       53.6340   64.9900    5.2630 C.3    35  G35         0.1812
    741  O5'       52.7970   64.7130    4.1640 O.3    35  G35        -0.3114
    742  C4'       55.0070   64.4710    4.9830 C.3    35  G35         0.1773
    743  O4'       55.4650   65.0000    3.7150 O.3    35  G35        -0.3307
    744  C3'       56.0400   64.9490    5.9850 C.3    35  G35         0.1860
    745  O3'       56.0430   63.9660    7.0110 O.3    35  G35        -0.3112
    746  C2'       57.3370   64.8400    5.1880 C.3    35  G35         0.2309
    747  O2'       57.8030   63.5040    5.1560 O.3    35  G35        -0.2156
    748  C1'       56.8670   65.1640    3.7720 C.3    35  G35         0.2408
    749  N1        60.7830   67.9700    2.1800 N.ar   35  G35        -0.1709
    750  C2        60.7820   66.8720    2.9920 C.ar   35  G35         0.2606
    751  N2        61.9810   66.4370    3.3930 N.pl3  35  G35        -0.0859
    752  N3        59.6880   66.2450    3.3830 N.ar   35  G35        -0.1918
    753  C4        58.5740   66.8190    2.8870 C.ar   35  G35         0.1723
    754  C5        58.4700   67.9200    2.0710 C.ar   35  G35         0.1748
    755  C6        59.6490   68.5780    1.6590 C.ar   35  G35         0.3023
    756  O6        59.7630   69.5670    0.9320 O.2    35  G35        -0.2633
    757  N7        57.1420   68.1980    1.7850 N.ar   35  G35        -0.2173
    758  C8        56.4740   67.2710    2.4140 C.ar   35  G35         0.1817
    759  N9        57.2810   66.3810    3.0770 N.ar   35  G35        -0.2693
    760  OP1       51.7450   66.9310    3.9850 O.3    35  G35        -0.4373
    761  OP2       53.5780   66.2090    2.3500 O.co2  35  G35        -0.5172
    762  P         56.1230   64.3910    8.5520 P.3    36  A36         0.2141
    763  C5'       56.3700   61.8200    9.0770 C.3    36  A36         0.1812
    764  O5'       56.8720   63.1520    9.2210 O.3    36  A36        -0.3114
    765  C4'       57.4670   60.8220    9.3530 C.3    36  A36         0.1773
    766  O4'       58.4540   60.8930    8.3030 O.3    36  A36        -0.3307
    767  C3'       58.2400   61.0240   10.6430 C.3    36  A36         0.1860
    768  O3'       57.5960   60.3320   11.6980 O.3    36  A36        -0.3112
    769  C2'       59.5700   60.3630   10.3250 C.3    36  A36         0.2309
    770  O2'       59.4990   58.9650   10.4680 O.3    36  A36        -0.2156
    771  C1'       59.7480   60.7470    8.8570 C.3    36  A36         0.2408
    772  N1        63.7260   63.7620   10.1170 N.ar   36  A36        -0.2040
    773  C2        63.4500   62.4860   10.4120 C.ar   36  A36         0.2016
    774  N3        62.4070   61.7480   10.0460 N.ar   36  A36        -0.2048
    775  C4        61.5740   62.4620    9.2740 C.ar   36  A36         0.1692
    776  C5        61.7270   63.7780    8.8830 C.ar   36  A36         0.1518
    777  C6        62.8560   64.4480    9.3390 C.ar   36  A36         0.1919
    778  N6        63.1130   65.7250    9.0490 N.pl3  36  A36        -0.1054
    779  N7        60.6700   64.1810    8.0810 N.ar   36  A36        -0.2193
    780  C8        59.9100   63.1200    8.0130 C.ar   36  A36         0.1816
    781  N9        60.3930   62.0460    8.7200 N.ar   36  A36        -0.2693
    782  OP1       54.7310   64.4190    9.0640 O.3    36  A36        -0.4373
    783  OP2       56.9850   65.5940    8.6920 O.co2  36  A36        -0.5172
    784  P         57.2350   61.1040   13.0490 P.3    37  A37         0.2141
    785  C5'       59.3530   60.0910   14.1770 C.3    37  A37         0.1812
    786  O5'       58.6240   61.2460   13.8070 O.3    37  A37        -0.3114
    787  C4'       60.7390   60.4690   14.6190 C.3    37  A37         0.1773
    788  O4'       61.4470   61.0880   13.5140 O.3    37  A37        -0.3307
    789  C3'       60.7680   61.5300   15.6970 C.3    37  A37         0.1860
    790  O3'       60.5650   60.9280   16.9680 O.3    37  A37        -0.3112
    791  C2'       62.1590   62.1370   15.5250 C.3    37  A37         0.2309
    792  O2'       63.2070   61.4030   16.1330 O.3    37  A37        -0.2156
    793  C1'       62.3250   62.0830   14.0060 C.3    37  A37         0.2408
    794  N1        64.1820   66.7000   12.8090 N.ar   37  A37        -0.2040
    795  C2        64.6920   65.6680   13.4940 C.ar   37  A37         0.2016
    796  N3        64.1440   64.4880   13.7700 N.ar   37  A37        -0.2048
    797  C4        62.9090   64.4070   13.2490 C.ar   37  A37         0.1692
    798  C5        62.2480   65.3790   12.5230 C.ar   37  A37         0.1518
    799  C6        62.9380   66.5860   12.3000 C.ar   37  A37         0.1919
    800  N6        62.4320   67.6140   11.6160 N.pl3  37  A37        -0.1054
    801  N7        60.9870   64.9370   12.1430 N.ar   37  A37        -0.2193
    802  C8        60.9160   63.7270   12.6430 C.ar   37  A37         0.1816
    803  N9        62.0450   63.3440   13.3250 N.ar   37  A37        -0.2693
    804  OP1       56.3530   60.2030   13.8260 O.3    37  A37        -0.4373
    805  OP2       56.7750   62.4620   12.6870 O.co2  37  A37        -0.5172
    806  P         59.7190   61.7080   18.0830 P.3    38  A38         0.2141
    807  C5'       61.8190   63.1810   18.6220 C.3    38  A38         0.1812
    808  O5'       60.4630   63.1130   18.1950 O.3    38  A38        -0.3114
    809  C4'       62.3670   64.5790   18.4400 C.3    38  A38         0.1773
    810  O4'       62.4730   64.8920   17.0220 O.3    38  A38        -0.3307
    811  C3'       61.4840   65.6830   18.9950 C.3    38  A38         0.1860
    812  O3'       61.6950   65.8430   20.3940 O.3    38  A38        -0.3112
    813  C2'       61.9320   66.8960   18.1860 C.3    38  A38         0.2309
    814  O2'       63.1130   67.4880   18.6910 O.3    38  A38        -0.2156
    815  C1'       62.2000   66.2700   16.8150 C.3    38  A38         0.2408
    816  N1        59.7420   69.3540   13.5220 N.ar   38  A38        -0.2040
    817  C2        60.8610   69.5080   14.2410 C.ar   38  A38         0.2016
    818  N3        61.4560   68.6540   15.0700 N.ar   38  A38        -0.2048
    819  C4        60.7720   67.4990   15.1340 C.ar   38  A38         0.1692
    820  C5        59.6100   67.1860   14.4530 C.ar   38  A38         0.1518
    821  C6        59.0760   68.1820   13.6050 C.ar   38  A38         0.1919
    822  N6        57.9560   68.0310   12.8850 N.pl3  38  A38        -0.1054
    823  N7        59.1950   65.8990   14.7630 N.ar   38  A38        -0.2193
    824  C8        60.0960   65.4720   15.6130 C.ar   38  A38         0.1816
    825  N9        61.0720   66.3930   15.8920 N.ar   38  A38        -0.2693
    826  OP1       59.8860   60.9580   19.3530 O.3    38  A38        -0.4373
    827  OP2       58.3540   61.9690   17.5540 O.co2  38  A38        -0.5172
    828  P         60.4720   66.2900   21.3360 P.3    39  C39         0.2141
    829  C5'       61.4190   68.7000   21.7030 C.3    39  C39         0.1812
    830  O5'       60.4150   67.8690   21.1310 O.3    39  C39        -0.3114
    831  C4'       61.2890   70.1100   21.1930 C.3    39  C39         0.1773
    832  O4'       61.5570   70.1180   19.7670 O.3    39  C39        -0.3307
    833  C3'       59.9050   70.7210   21.3010 C.3    39  C39         0.1860
    834  O3'       59.6090   71.2420   22.5840 O.3    39  C39        -0.3112
    835  C2'       59.9520   71.7960   20.2310 C.3    39  C39         0.2309
    836  O2'       60.6700   72.9390   20.6450 O.3    39  C39        -0.2156
    837  C1'       60.7180   71.0680   19.1280 C.3    39  C39         0.2420
    838  N1        59.7620   70.3480   18.2730 N.ar   39  C39        -0.2535
    839  C2        59.1180   71.0540   17.2750 C.ar   39  C39         0.3532
    840  O2        59.4070   72.2420   17.1140 O.2    39  C39        -0.2443
    841  N3        58.1980   70.4330   16.5090 N.ar   39  C39        -0.1739
    842  C4        57.9240   69.1450   16.7110 C.ar   39  C39         0.1759
    843  N4        57.0010   68.5710   15.9350 N.pl3  39  C39        -0.1070
    844  C5        58.5810   68.3890   17.7190 C.ar   39  C39         0.0566
    845  C6        59.4890   69.0240   18.4690 C.ar   39  C39         0.0850
    846  OP1       60.8650   66.0340   22.7460 O.3    39  C39        -0.4373
    847  OP2       59.2250   65.6740   20.8020 O.co2  39  C39        -0.5172
    848  P         58.0830   71.2580   23.0880 P.3    40  C40         0.2141
    849  C5'       57.8430   73.7440   22.3170 C.3    40  C40         0.1812
    850  O5'       57.4030   72.3990   22.2080 O.3    40  C40        -0.3114
    851  C4'       56.9930   74.6540   21.4650 C.3    40  C40         0.1773
    852  O4'       57.1940   74.3280   20.0630 O.3    40  C40        -0.3307
    853  C3'       55.4940   74.5020   21.6580 C.3    40  C40         0.1860
    854  O3'       55.0130   75.2310   22.7780 O.3    40  C40        -0.3112
    855  C2'       54.9450   75.0380   20.3440 C.3    40  C40         0.2309
    856  O2'       54.8690   76.4430   20.2870 O.3    40  C40        -0.2156
    857  C1'       55.9850   74.5230   19.3520 C.3    40  C40         0.2420
    858  N1        55.5360   73.2480   18.7820 N.ar   40  C40        -0.2535
    859  C2        54.6970   73.3010   17.6850 C.ar   40  C40         0.3532
    860  O2        54.4350   74.4150   17.2090 O.2    40  C40        -0.2443
    861  N3        54.1940   72.1510   17.1690 N.ar   40  C40        -0.1739
    862  C4        54.5230   70.9770   17.7160 C.ar   40  C40         0.1759
    863  N4        53.9960   69.8650   17.1880 N.pl3  40  C40        -0.1070
    864  C5        55.4060   70.8920   18.8300 C.ar   40  C40         0.0566
    865  C6        55.8900   72.0430   19.3250 C.ar   40  C40         0.0850
    866  OP1       58.0970   71.6860   24.5070 O.3    40  C40        -0.4373
    867  OP2       57.4460   69.9660   22.7190 O.co2  40  C40        -0.5172
    868  P         53.7900   74.6410   23.6410 P.3    41  C41         0.2141
    869  C5'       52.2840   76.1730   22.1220 C.3    41  C41         0.1812
    870  O5'       52.5070   74.9090   22.7360 O.3    41  C41        -0.3114
    871  C4'       51.3510   76.0020   20.9560 C.3    41  C41         0.1773
    872  O4'       51.9950   75.1560   19.9690 O.3    41  C41        -0.3307
    873  C3'       50.0650   75.2650   21.2900 C.3    41  C41         0.1860
    874  O3'       49.0740   76.1490   21.7840 O.3    41  C41        -0.3112
    875  C2'       49.6610   74.6750   19.9460 C.3    41  C41         0.2309
    876  O2'       48.9740   75.5940   19.1200 O.3    41  C41        -0.2156
    877  C1'       51.0280   74.3160   19.3560 C.3    41  C41         0.2420
    878  N1        51.4100   72.9100   19.5920 N.ar   41  C41        -0.2535
    879  C2        50.8790   71.9390   18.7560 C.ar   41  C41         0.3532
    880  O2        50.1170   72.2970   17.8550 O.2    41  C41        -0.2443
    881  N3        51.2030   70.6380   18.9490 N.ar   41  C41        -0.1739
    882  C4        52.0270   70.2960   19.9360 C.ar   41  C41         0.1759
    883  N4        52.3120   68.9940   20.0860 N.pl3  41  C41        -0.1070
    884  C5        52.5940   71.2710   20.8120 C.ar   41  C41         0.0566
    885  C6        52.2610   72.5570   20.6050 C.ar   41  C41         0.0850
    886  OP1       53.6640   75.4380   24.8910 O.3    41  C41        -0.4373
    887  OP2       53.9770   73.1660   23.7280 O.co2  41  C41        -0.5172
    888  P         47.9730   75.5980   22.8060 P.3    42  G42         0.2141
    889  C5'       46.2610   75.0240   20.9050 C.3    42  G42         0.1812
    890  O5'       47.1210   74.5660   21.9410 O.3    42  G42        -0.3114
    891  C4'       45.6850   73.8580   20.1320 C.3    42  G42         0.1773
    892  O4'       46.7610   73.1500   19.4630 O.3    42  G42        -0.3307
    893  C3'       44.9870   72.7840   20.9550 C.3    42  G42         0.1860
    894  O3'       43.6270   73.1050   21.2140 O.3    42  G42        -0.3112
    895  C2'       45.0920   71.5690   20.0470 C.3    42  G42         0.2309
    896  O2'       44.1380   71.6070   19.0140 O.3    42  G42        -0.2156
    897  C1'       46.4800   71.7630   19.4450 C.3    42  G42         0.2408
    898  N1        48.4540   67.2730   20.6920 N.ar   42  G42        -0.1709
    899  C2        47.3770   67.5660   19.8880 C.ar   42  G42         0.2606
    900  N2        46.7390   66.5270   19.3380 N.pl3  42  G42        -0.0859
    901  N3        46.9530   68.7920   19.6410 N.ar   42  G42        -0.1918
    902  C4        47.7000   69.7180   20.2710 C.ar   42  G42         0.1723
    903  C5        48.7900   69.5350   21.0950 C.ar   42  G42         0.1748
    904  C6        49.2400   68.2130   21.3520 C.ar   42  G42         0.3023
    905  O6        50.1940   67.8420   22.0540 O.2    42  G42        -0.2633
    906  N7        49.2760   70.7540   21.5460 N.ar   42  G42        -0.2173
    907  C8        48.4880   71.6380   20.9940 C.ar   42  G42         0.1817
    908  N9        47.5130   71.0740   20.2070 N.ar   42  G42        -0.2693
    909  OP1       47.0940   76.7240   23.2020 O.2    42  G42        -0.5172
    910  OP2       48.7160   74.8520   23.8480 O.co2  42  G42        -0.4373
    911  P         42.8760   72.4160   22.4520 P.3    43  G43         0.2141
    912  C5'       41.8940   70.4050   21.0880 C.3    43  G43         0.1812
    913  O5'       42.8200   70.8740   22.0670 O.3    43  G43        -0.3114
    914  C4'       42.0630   68.9200   20.8730 C.3    43  G43         0.1773
    915  O4'       43.4660   68.6600   20.6080 O.3    43  G43        -0.3307
    916  C3'       41.7450   68.0330   22.0690 C.3    43  G43         0.1860
    917  O3'       40.3620   67.7060   22.1010 O.3    43  G43        -0.3112
    918  C2'       42.5750   66.7950   21.7750 C.3    43  G43         0.2309
    919  O2'       41.9670   65.9620   20.8130 O.3    43  G43        -0.2156
    920  C1'       43.8290   67.4140   21.1610 C.3    43  G43         0.2408
    921  N1        47.4240   65.1360   23.8660 N.ar   43  G43        -0.1709
    922  C2        46.4480   64.5970   23.0680 C.ar   43  G43         0.2606
    923  N2        46.4390   63.2670   22.9610 N.pl3  43  G43        -0.0859
    924  N3        45.5460   65.3100   22.4230 N.ar   43  G43        -0.1918
    925  C4        45.6980   66.6290   22.6420 C.ar   43  G43         0.1723
    926  C5        46.6380   67.2760   23.4210 C.ar   43  G43         0.1748
    927  C6        47.6060   66.4930   24.1070 C.ar   43  G43         0.3023
    928  O6        48.5300   66.8670   24.8410 O.2    43  G43        -0.2633
    929  N7        46.4490   68.6520   23.3810 N.ar   43  G43        -0.2173
    930  C8        45.4180   68.8100   22.5880 C.ar   43  G43         0.1817
    931  N9        44.9270   67.6190   22.0980 N.ar   43  G43        -0.2693
    932  OP1       41.4780   72.9110   22.4740 O.2    43  G43        -0.5172
    933  OP2       43.7300   72.5720   23.6470 O.co2  43  G43        -0.4373
    934  P         39.7020   67.1760   23.4660 P.3    44  C44         0.2141
    935  C5'       39.7740   64.6950   22.6060 C.3    44  C44         0.1812
    936  O5'       40.1590   65.6550   23.5800 O.3    44  C44        -0.3114
    937  C4'       40.5440   63.4050   22.8030 C.3    44  C44         0.1773
    938  O4'       41.9710   63.6760   22.7130 O.3    44  C44        -0.3307
    939  C3'       40.3870   62.7390   24.1580 C.3    44  C44         0.1860
    940  O3'       39.2370   61.9200   24.2150 O.3    44  C44        -0.3112
    941  C2'       41.6590   61.9100   24.2610 C.3    44  C44         0.2309
    942  O2'       41.5830   60.7370   23.4750 O.3    44  C44        -0.2156
    943  C1'       42.6770   62.8510   23.6260 C.3    44  C44         0.2420
    944  N1        43.3820   63.7220   24.5770 N.ar   44  C44        -0.2535
    945  C2        44.2150   63.1520   25.5520 C.ar   44  C44         0.3532
    946  O2        44.3040   61.9140   25.6310 O.2    44  C44        -0.2443
    947  N3        44.9040   63.9690   26.3840 N.ar   44  C44        -0.1739
    948  C4        44.7790   65.3000   26.2740 C.ar   44  C44         0.1759
    949  N4        45.4890   66.0730   27.1070 N.pl3  44  C44        -0.1070
    950  C5        43.9240   65.8960   25.3060 C.ar   44  C44         0.0566
    951  C6        43.2490   65.0790   24.4920 C.ar   44  C44         0.0850
    952  OP1       38.2300   67.1880   23.3190 O.2    44  C44        -0.5172
    953  OP2       40.3400   67.9160   24.5900 O.co2  44  C44        -0.4373
    954  P         38.4230   61.8250   25.5860 P.3    45  A45         0.2141
    955  C5'       39.8370   59.7840   26.4710 C.3    45  A45         0.1812
    956  O5'       39.4520   61.1560   26.6020 O.3    45  A45        -0.3114
    957  C4'       40.9190   59.4560   27.4710 C.3    45  A45         0.1773
    958  O4'       42.0610   60.3050   27.2230 O.3    45  A45        -0.3307
    959  C3'       40.5640   59.6780   28.9300 C.3    45  A45         0.1860
    960  O3'       39.9940   58.4750   29.4380 O.3    45  A45        -0.3112
    961  C2'       41.9310   59.9140   29.5550 C.3    45  A45         0.2309
    962  O2'       42.6270   58.7100   29.7780 O.3    45  A45        -0.2156
    963  C1'       42.6430   60.6920   28.4500 C.3    45  A45         0.2408
    964  N1        44.7250   65.1190   30.1140 N.ar   45  A45        -0.2040
    965  C2        45.0530   63.8360   30.3430 C.ar   45  A45         0.2016
    966  N3        44.4510   62.7240   29.9250 N.ar   45  A45        -0.2048
    967  C4        43.3750   63.0240   29.1780 C.ar   45  A45         0.1692
    968  C5        42.9080   64.2900   28.8650 C.ar   45  A45         0.1518
    969  C6        43.6330   65.3830   29.3640 C.ar   45  A45         0.1919
    970  N6        43.3000   66.6560   29.1330 N.pl3  45  A45        -0.1054
    971  N7        41.7730   64.2140   28.0740 N.ar   45  A45        -0.2193
    972  C8        41.5830   62.9260   27.9190 C.ar   45  A45         0.1816
    973  N9        42.5320   62.1470   28.5340 N.ar   45  A45        -0.2693
    974  OP1       37.2630   60.9110   25.4380 O.2    45  A45        -0.5172
    975  OP2       38.2030   63.2290   25.9970 O.co2  45  A45        -0.4373
    976  P         39.1830   58.4860   30.8240 P.3    46  A46         0.2141
    977  C5'       41.0700   57.9370   32.6200 C.3    46  A46         0.1812
    978  O5'       40.2530   58.8940   31.9280 O.3    46  A46        -0.3114
    979  C4'       41.8700   58.6810   33.6550 C.3    46  A46         0.1773
    980  O4'       42.4120   59.8300   32.9850 O.3    46  A46        -0.3307
    981  C3'       41.0380   59.2270   34.8080 C.3    46  A46         0.1860
    982  O3'       41.1700   58.4170   36.0030 O.3    46  A46        -0.3112
    983  C2'       41.7930   60.4920   35.1900 C.3    46  A46         0.2309
    984  O2'       42.7940   60.2760   36.1610 O.3    46  A46        -0.2156
    985  C1'       42.3890   60.9330   33.8490 C.3    46  A46         0.2408
    986  N1        42.8570   65.8260   32.6060 N.ar   46  A46        -0.2040
    987  C2        43.6060   64.9950   33.3390 C.ar   46  A46         0.2016
    988  N3        43.4030   63.7200   33.6250 N.ar   46  A46        -0.2048
    989  C4        42.2660   63.2870   33.0610 C.ar   46  A46         0.1692
    990  C5        41.3930   64.0090   32.2830 C.ar   46  A46         0.1518
    991  C6        41.7210   65.3560   32.0520 C.ar   46  A46         0.1919
    992  N6        40.9820   66.1950   31.3240 N.pl3  46  A46        -0.1054
    993  N7        40.3320   63.2150   31.8760 N.ar   46  A46        -0.2193
    994  C8        40.5860   62.0500   32.4170 C.ar   46  A46         0.1816
    995  N9        41.7440   62.0270   33.1400 N.ar   46  A46        -0.2693
    996  OP1       38.7130   57.1040   31.0980 O.3    46  A46        -0.4373
    997  OP2       38.2040   59.6030   30.7380 O.co2  46  A46        -0.5172
    998  P         41.8980   56.9600   35.9710 P.3    47  C47         0.2141
    999  C5'       43.7930   55.8550   37.4070 C.3    47  C47         0.1812
   1000  O5'       43.1740   57.0620   36.9270 O.3    47  C47        -0.3114
   1001  C4'       45.2860   56.0350   37.6520 C.3    47  C47         0.1773
   1002  O4'       45.9650   56.4150   36.4260 O.3    47  C47        -0.3307
   1003  C3'       45.6780   57.1120   38.6460 C.3    47  C47         0.1860
   1004  O3'       45.6370   56.5680   39.9550 O.3    47  C47        -0.3112
   1005  C2'       47.1090   57.4390   38.2340 C.3    47  C47         0.2309
   1006  O2'       48.0430   56.4970   38.7020 O.3    47  C47        -0.2156
   1007  C1'       47.0270   57.3060   36.7200 C.3    47  C47         0.2420
   1008  N1        46.7600   58.5730   36.0500 N.ar   47  C47        -0.2535
   1009  C2        47.7440   59.5660   36.0610 C.ar   47  C47         0.3532
   1010  O2        48.8240   59.3370   36.6360 O.2    47  C47        -0.2443
   1011  N3        47.4980   60.7490   35.4400 N.ar   47  C47        -0.1739
   1012  C4        46.3270   60.9400   34.8230 C.ar   47  C47         0.1759
   1013  N4        46.1120   62.1050   34.2270 N.pl3  47  C47        -0.1070
   1014  C5        45.3180   59.9390   34.7920 C.ar   47  C47         0.0566
   1015  C6        45.5700   58.7840   35.4160 C.ar   47  C47         0.0850
   1016  OP1       42.4540   56.6340   34.6370 O.2    47  C47        -0.5172
   1017  OP2       40.9770   55.9950   36.6150 O.co2  47  C47        -0.4373
   1018  P         45.3430   57.5280   41.2050 P.3    48  C48         0.2141
   1019  C5'       47.7850   58.2680   41.7630 C.3    48  C48         0.1812
   1020  O5'       46.5350   58.5790   41.1800 O.3    48  C48        -0.3114
   1021  C4'       48.6220   59.5100   41.8600 C.3    48  C48         0.1773
   1022  O4'       48.8530   60.0100   40.5180 O.3    48  C48        -0.3307
   1023  C3'       47.9470   60.6820   42.5590 C.3    48  C48         0.1860
   1024  O3'       48.0510   60.6160   43.9770 O.3    48  C48        -0.3112
   1025  C2'       48.7020   61.8710   41.9870 C.3    48  C48         0.2309
   1026  O2'       49.9760   62.0240   42.5790 O.3    48  C48        -0.2156
   1027  C1'       48.8860   61.4270   40.5400 C.3    48  C48         0.2420
   1028  N1        47.8330   61.9490   39.6630 N.ar   48  C48        -0.2535
   1029  C2        47.9650   63.2510   39.2010 C.ar   48  C48         0.3532
   1030  O2        48.9530   63.9110   39.5670 O.2    48  C48        -0.2443
   1031  N3        47.0220   63.7630   38.3740 N.ar   48  C48        -0.1739
   1032  C4        45.9760   63.0170   38.0170 C.ar   48  C48         0.1759
   1033  N4        45.0750   63.5630   37.1980 N.pl3  48  C48        -0.1070
   1034  C5        45.8110   61.6790   38.4850 C.ar   48  C48         0.0566
   1035  C6        46.7560   61.1900   39.2990 C.ar   48  C48         0.0850
   1036  OP1       45.4760   56.6910   42.4270 O.3    48  C48        -0.4373
   1037  OP2       44.0860   58.2750   40.9460 O.co2  48  C48        -0.5172
   1038  P         47.0540   61.4990   44.8830 P.3    49  A49         0.2141
   1039  C5'       48.6070   63.5920   45.0080 C.3    49  A49         0.1812
   1040  O5'       47.4150   63.0010   44.5080 O.3    49  A49        -0.3114
   1041  C4'       48.5670   65.0800   44.8080 C.3    49  A49         0.1773
   1042  O4'       48.5630   65.3780   43.3840 O.3    49  A49        -0.3307
   1043  C3'       47.2940   65.7260   45.3090 C.3    49  A49         0.1860
   1044  O3'       47.3360   65.9150   46.7200 O.3    49  A49        -0.3112
   1045  C2'       47.2490   67.0120   44.4900 C.3    49  A49         0.2309
   1046  O2'       48.1200   68.0070   44.9800 O.3    49  A49        -0.2156
   1047  C1'       47.7650   66.5250   43.1340 C.3    49  A49         0.2408
   1048  N1        44.3890   68.2770   39.6590 N.ar   49  A49        -0.2040
   1049  C2        45.3450   68.8790   40.3840 C.ar   49  A49         0.2016
   1050  N3        46.1970   68.3550   41.2670 N.ar   49  A49        -0.2048
   1051  C4        46.0040   67.0330   41.3860 C.ar   49  A49         0.1692
   1052  C5        45.0620   66.2650   40.7120 C.ar   49  A49         0.1518
   1053  C6        44.2120   66.9460   39.8000 C.ar   49  A49         0.1919
   1054  N6        43.2500   66.3550   39.0750 N.pl3  49  A49        -0.1054
   1055  N7        45.1540   64.9320   41.0950 N.ar   49  A49        -0.2193
   1056  C8        46.1340   64.9210   41.9740 C.ar   49  A49         0.1816
   1057  N9        46.6890   66.1620   42.2040 N.ar   49  A49        -0.2693
   1058  OP1       47.4470   61.3020   46.3000 O.3    49  A49        -0.4373
   1059  OP2       45.6640   61.2170   44.4520 O.co2  49  A49        -0.5172
   1060  P         45.9630   65.9730   47.5590 P.3    50  G50         0.2141
   1061  C5'       45.8120   68.5560   47.1610 C.3    50  G50         0.1812
   1062  O5'       45.2410   67.2620   46.9480 O.3    50  G50        -0.3114
   1063  C4'       45.0430   69.6480   46.4350 C.3    50  G50         0.1773
   1064  O4'       45.2540   69.5290   44.9980 O.3    50  G50        -0.3307
   1065  C3'       43.5240   69.6500   46.5870 C.3    50  G50         0.1860
   1066  O3'       43.0700   70.2850   47.7760 O.3    50  G50        -0.3112
   1067  C2'       43.0890   70.4400   45.3630 C.3    50  G50         0.2309
   1068  O2'       43.2190   71.8360   45.5540 O.3    50  G50        -0.2156
   1069  C1'       44.0800   69.9400   44.3090 C.3    50  G50         0.2408
   1070  N1        40.7350   68.5070   40.8090 N.ar   50  G50        -0.1709
   1071  C2        41.1980   69.7640   41.1170 C.ar   50  G50         0.2606
   1072  N2        40.6290   70.7850   40.4560 N.pl3  50  G50        -0.0859
   1073  N3        42.1400   70.0030   42.0130 N.ar   50  G50        -0.1918
   1074  C4        42.5740   68.8700   42.6040 C.ar   50  G50         0.1723
   1075  C5        42.1780   67.5710   42.3740 C.ar   50  G50         0.1748
   1076  C6        41.1730   67.3240   41.3960 C.ar   50  G50         0.3023
   1077  O6        40.6800   66.2400   41.0410 O.2    50  G50        -0.2633
   1078  N7        42.8690   66.6950   43.1980 N.ar   50  G50        -0.2173
   1079  C8        43.6460   67.4670   43.9110 C.ar   50  G50         0.1817
   1080  N9        43.4860   68.7990   43.6260 N.ar   50  G50        -0.2693
   1081  OP1       46.3320   66.2870   48.9590 O.3    50  G50        -0.4373
   1082  OP2       45.1970   64.7270   47.2710 O.co2  50  G50        -0.5172
   1083  P         42.0890   69.4950   48.7800 P.3    51  A51         0.2141
   1084  C5'       39.9540   68.0950   48.2350 C.3    51  A51         0.1812
   1085  O5'       40.7280   69.2650   47.9770 O.3    51  A51        -0.3114
   1086  C4'       38.4890   68.2960   47.8980 C.3    51  A51         0.1773
   1087  O4'       38.0080   69.4980   48.5700 O.3    51  A51        -0.3307
   1088  C3'       38.2150   68.5510   46.4260 C.3    51  A51         0.1860
   1089  O3'       37.6500   67.5890   45.5550 O.3    51  A51        -0.3112
   1090  C2'       38.0060   70.0380   46.2230 C.3    51  A51         0.2309
   1091  O2'       36.8350   70.2960   45.4830 O.3    51  A51        -0.2156
   1092  C1'       37.7090   70.5200   47.6320 C.3    51  A51         0.2408
   1093  N1        38.0790   75.5390   46.7790 N.ar   51  A51        -0.2040
   1094  C2        37.1400   74.6320   46.4760 C.ar   51  A51         0.2016
   1095  N3        37.1010   73.3310   46.7620 N.ar   51  A51        -0.2048
   1096  C4        38.1930   72.9670   47.4560 C.ar   51  A51         0.1692
   1097  C5        39.2400   73.7800   47.8450 C.ar   51  A51         0.1518
   1098  C6        39.1680   75.1340   47.4740 C.ar   51  A51         0.1919
   1099  N6        40.1140   76.0320   47.7620 N.pl3  51  A51        -0.1054
   1100  N7        40.1910   73.0520   48.5440 N.ar   51  A51        -0.2193
   1101  C8        39.7080   71.8310   48.5560 C.ar   51  A51         0.1816
   1102  N9        38.5120   71.7060   47.8990 N.ar   51  A51        -0.2693
   1103  OP1       41.8130   70.4020   49.9220 O.3    51  A51        -0.4373
   1104  OP2       42.6670   68.1450   49.0350 O.co2  51  A51        -0.5172
   1105  P         37.9830   67.6750   43.9830 P.3    52  A52         0.2141
   1106  C5'       37.3810   69.5930   42.2730 C.3    52  A52         0.1812
   1107  O5'       37.0350   68.8390   43.4360 O.3    52  A52        -0.3114
   1108  C4'       36.9100   71.0250   42.4160 C.3    52  A52         0.1773
   1109  O4'       37.3880   71.5460   43.6780 O.3    52  A52        -0.3307
   1110  C3'       37.4390   72.0030   41.3720 C.3    52  A52         0.1860
   1111  O3'       36.5960   72.0260   40.2170 O.3    52  A52        -0.3112
   1112  C2'       37.3650   73.3350   42.1100 C.3    52  A52         0.2309
   1113  O2'       36.0860   73.9250   42.0880 O.3    52  A52        -0.2156
   1114  C1'       37.7050   72.9140   43.5400 C.3    52  A52         0.2408
   1115  N1        41.5930   76.2490   44.0650 N.ar   52  A52        -0.2040
   1116  C2        40.3380   76.3920   43.6090 C.ar   52  A52         0.2016
   1117  N3        39.3740   75.4740   43.4810 N.ar   52  A52        -0.2048
   1118  C4        39.8120   74.2680   43.8880 C.ar   52  A52         0.1692
   1119  C5        41.0700   73.9620   44.3770 C.ar   52  A52         0.1518
   1120  C6        41.9990   75.0230   44.4650 C.ar   52  A52         0.1919
   1121  N6        43.2460   74.8820   44.9190 N.pl3  52  A52        -0.1054
   1122  N7        41.1540   72.6140   44.6960 N.ar   52  A52        -0.2193
   1123  C8        39.9670   72.1430   44.4000 C.ar   52  A52         0.1816
   1124  N9        39.1020   73.0920   43.9180 N.ar   52  A52        -0.2693
   1125  OP1       37.5990   66.3780   43.3640 O.2    52  A52        -0.5172
   1126  OP2       39.3850   68.1540   43.8840 O.co2  52  A52        -0.4373
   1127  P         37.2020   71.6680   38.7650 P.3    53  A53         0.2141
   1128  C5'       36.9410   74.0810   37.7420 C.3    53  A53         0.1812
   1129  O5'       37.7940   73.0450   38.2250 O.3    53  A53        -0.3114
   1130  C4'       37.6740   75.3970   37.7810 C.3    53  A53         0.1773
   1131  O4'       38.0350   75.6780   39.1580 O.3    53  A53        -0.3307
   1132  C3'       38.9920   75.4420   37.0270 C.3    53  A53         0.1860
   1133  O3'       38.8140   75.7350   35.6500 O.3    53  A53        -0.3112
   1134  C2'       39.7370   76.5490   37.7560 C.3    53  A53         0.2309
   1135  O2'       39.3070   77.8350   37.3600 O.3    53  A53        -0.2156
   1136  C1'       39.3210   76.2720   39.2020 C.3    53  A53         0.2408
   1137  N1        43.7780   75.4710   41.6800 N.ar   53  A53        -0.2040
   1138  C2        43.2360   76.5780   41.1500 C.ar   53  A53         0.2016
   1139  N3        42.0790   76.7260   40.5110 N.ar   53  A53        -0.2048
   1140  C4        41.4320   75.5500   40.4300 C.ar   53  A53         0.1692
   1141  C5        41.8630   74.3290   40.9240 C.ar   53  A53         0.1518
   1142  C6        43.0990   74.3070   41.5810 C.ar   53  A53         0.1919
   1143  N6        43.6330   73.2050   42.1150 N.pl3  53  A53        -0.1054
   1144  N7        40.9350   73.3350   40.6550 N.ar   53  A53        -0.2193
   1145  C8        39.9780   73.9630   40.0180 C.ar   53  A53         0.1816
   1146  N9        40.2090   75.3070   39.8520 N.ar   53  A53        -0.2693
   1147  OP1       36.0780   71.2700   37.8790 O.2    53  A53        -0.5172
   1148  OP2       38.3350   70.7230   38.9840 O.co2  53  A53        -0.4373
   1149  P         39.3680   74.7050   34.5490 P.3    54  U54         0.2141
   1150  C5'       41.7650   75.6440   35.1170 C.3    54  U54         0.1812
   1151  O5'       40.9110   74.5160   34.9260 O.3    54  U54        -0.3114
   1152  C4'       42.9480   75.2820   35.9950 C.3    54  U54         0.1773
   1153  O4'       42.4530   74.6030   37.1820 O.3    54  U54        -0.3307
   1154  C3'       43.9420   74.2860   35.4100 C.3    54  U54         0.1860
   1155  O3'       44.9270   74.9050   34.5920 O.3    54  U54        -0.3112
   1156  C2'       44.5860   73.7030   36.6590 C.3    54  U54         0.2309
   1157  O2'       45.5610   74.5530   37.2230 O.3    54  U54        -0.2156
   1158  C1'       43.3930   73.6270   37.6040 C.3    54  U54         0.2420
   1159  N1        42.7820   72.2900   37.5870 N.ar   54  U54        -0.2534
   1160  C2        43.3780   71.3400   38.3890 C.ar   54  U54         0.3546
   1161  O2        44.3360   71.5900   39.0920 O.2    54  U54        -0.2443
   1162  N3        42.8160   70.0880   38.3400 N.ar   54  U54        -0.1530
   1163  C4        41.7330   69.6920   37.5860 C.ar   54  U54         0.2846
   1164  O4        41.3530   68.5140   37.6450 O.2    54  U54        -0.2650
   1165  C5        41.1570   70.7380   36.7780 C.ar   54  U54         0.0814
   1166  C6        41.6890   71.9760   36.8090 C.ar   54  U54         0.0870
   1167  OP1       39.2630   75.3390   33.2040 O.2    54  U54        -0.5172
   1168  OP2       38.6850   73.4080   34.8070 O.co2  54  U54        -0.4373
   1169  P         45.9440   73.9900   33.7380 P.3    55  G55         0.2141
   1170  C5'       47.9600   74.1460   35.3950 C.3    55  G55         0.1812
   1171  O5'       46.9320   73.3560   34.8140 O.3    55  G55        -0.3114
   1172  C4'       48.6470   73.3870   36.5020 C.3    55  G55         0.1773
   1173  O4'       47.6320   72.7700   37.3380 O.3    55  G55        -0.3307
   1174  C3'       49.4910   72.2100   36.0520 C.3    55  G55         0.1860
   1175  O3'       50.7830   72.6250   35.6380 O.3    55  G55        -0.3112
   1176  C2'       49.5250   71.3400   37.3030 C.3    55  G55         0.2309
   1177  O2'       50.4340   71.7740   38.2940 O.3    55  G55        -0.2156
   1178  C1'       48.1050   71.5250   37.8250 C.3    55  G55         0.2408
   1179  N1        47.1620   66.5710   38.0000 N.ar   55  G55        -0.1709
   1180  C2        48.0950   67.3130   38.6800 C.ar   55  G55         0.2606
   1181  N2        48.8960   66.6410   39.5120 N.pl3  55  G55        -0.0859
   1182  N3        48.2330   68.6210   38.5540 N.ar   55  G55        -0.1918
   1183  C4        47.3460   69.1400   37.6790 C.ar   55  G55         0.1723
   1184  C5        46.3740   68.4920   36.9490 C.ar   55  G55         0.1748
   1185  C6        46.2370   67.0830   37.0930 C.ar   55  G55         0.3023
   1186  O6        45.4330   66.3220   36.5330 O.2    55  G55        -0.2633
   1187  N7        45.6690   69.3930   36.1610 N.ar   55  G55        -0.2173
   1188  C8        46.2190   70.5490   36.4220 C.ar   55  G55         0.1817
   1189  N9        47.2480   70.4600   37.3290 N.ar   55  G55        -0.2693
   1190  OP1       46.7610   74.8670   32.8600 O.2    55  G55        -0.5172
   1191  OP2       45.1550   72.8780   33.1450 O.co2  55  G55        -0.4373
   1192  P         51.7010   71.6220   34.7860 P.3    56  G56         0.2141
   1193  C5'       52.8420   70.4590   36.8400 C.3    56  G56         0.1812
   1194  O5'       51.9230   70.3780   35.7550 O.3    56  G56        -0.3114
   1195  C4'       53.3620   69.0860   37.1900 C.3    56  G56         0.1773
   1196  O4'       52.3080   68.3120   37.8300 O.3    56  G56        -0.3307
   1197  C3'       53.7690   68.2380   35.9990 C.3    56  G56         0.1860
   1198  O3'       55.0770   68.5520   35.5160 O.3    56  G56        -0.3112
   1199  C2'       53.6550   66.8260   36.5650 C.3    56  G56         0.2309
   1200  O2'       54.7660   66.4780   37.3680 O.3    56  G56        -0.2156
   1201  C1'       52.4130   66.9470   37.4490 C.3    56  G56         0.2408
   1202  N1        49.2770   63.1720   36.0320 N.ar   56  G56        -0.1709
   1203  C2        50.4330   63.1000   36.7710 C.ar   56  G56         0.2606
   1204  N2        50.7900   61.8630   37.1660 N.pl3  56  G56        -0.0859
   1205  N3        51.1730   64.1520   37.0940 N.ar   56  G56        -0.1918
   1206  C4        50.6520   65.3000   36.6100 C.ar   56  G56         0.1723
   1207  C5        49.5030   65.4730   35.8670 C.ar   56  G56         0.1748
   1208  C6        48.7260   64.3420   35.5260 C.ar   56  G56         0.3023
   1209  O6        47.6780   64.2990   34.8630 O.2    56  G56        -0.2633
   1210  N7        49.3070   66.8140   35.5630 N.ar   56  G56        -0.2173
   1211  C8        50.3210   67.4250   36.1140 C.ar   56  G56         0.1817
   1212  N9        51.1820   66.5700   36.7600 N.ar   56  G56        -0.2693
   1213  OP1       53.0070   72.2890   34.5700 O.3    56  G56        -0.4373
   1214  OP2       50.9110   71.1460   33.6230 O.co2  56  G56        -0.5172
   1215  P         55.5590   67.9490   34.1040 P.3    57  U57         0.2141
   1216  C5'       54.7700   65.6680   33.0310 C.3    57  U57         0.1812
   1217  O5'       54.9620   66.4740   34.1810 O.3    57  U57        -0.3114
   1218  C4'       54.6500   64.2300   33.4600 C.3    57  U57         0.1773
   1219  O4'       53.4450   64.0830   34.2580 O.3    57  U57        -0.3307
   1220  C3'       54.4630   63.2170   32.3510 C.3    57  U57         0.1860
   1221  O3'       55.6940   62.8640   31.7460 O.3    57  U57        -0.3112
   1222  C2'       53.8150   62.0610   33.0940 C.3    57  U57         0.2309
   1223  O2'       54.7430   61.3400   33.8720 O.3    57  U57        -0.2156
   1224  C1'       52.8710   62.8070   34.0340 C.3    57  U57         0.2420
   1225  N1        51.5450   62.9760   33.4230 N.ar   57  U57        -0.2534
   1226  C2        50.7520   61.8470   33.3290 C.ar   57  U57         0.3546
   1227  O2        51.1070   60.7660   33.7450 O.2    57  U57        -0.2443
   1228  N3        49.5350   62.0320   32.7260 N.ar   57  U57        -0.1530
   1229  C4        49.0390   63.2080   32.2160 C.ar   57  U57         0.2846
   1230  O4        47.9280   63.2100   31.6790 O.2    57  U57        -0.2650
   1231  C5        49.9160   64.3420   32.3560 C.ar   57  U57         0.0814
   1232  C6        51.1100   64.1880   32.9440 C.ar   57  U57         0.0870
   1233  OP1       57.0430   67.8540   34.0900 O.3    57  U57        -0.4373
   1234  OP2       54.8640   68.6920   33.0240 O.co2  57  U57        -0.5172
   1235  P         55.7860   62.8100   30.1470 P.3    58  G58         0.2141
   1236  C5'       54.7280   60.4160   30.2390 C.3    58  G58         0.1812
   1237  O5'       54.6600   61.7480   29.7540 O.3    58  G58        -0.3114
   1238  C4'       53.4620   59.6650   29.9190 C.3    58  G58         0.1773
   1239  O4'       52.3380   60.3130   30.5800 O.3    58  G58        -0.3307
   1240  C3'       53.0540   59.6610   28.4550 C.3    58  G58         0.1860
   1241  O3'       53.7310   58.6570   27.7220 O.3    58  G58        -0.3112
   1242  C2'       51.5630   59.3710   28.5470 C.3    58  G58         0.2309
   1243  O2'       51.3150   58.0140   28.8350 O.3    58  G58        -0.2156
   1244  C1'       51.1740   60.1800   29.7790 C.3    58  G58         0.2408
   1245  N1        47.3100   62.8440   27.7880 N.ar   58  G58        -0.1709
   1246  C2        47.4410   61.4840   27.9340 C.ar   58  G58         0.2606
   1247  N2        46.4050   60.7510   27.4940 N.pl3  58  G58        -0.0859
   1248  N3        48.5080   60.8920   28.4700 N.ar   58  G58        -0.1918
   1249  C4        49.4520   61.7940   28.8560 C.ar   58  G58         0.1723
   1250  C5        49.4170   63.1690   28.7520 C.ar   58  G58         0.1748
   1251  C6        48.2580   63.7890   28.1720 C.ar   58  G58         0.3023
   1252  O6        48.0310   64.9980   27.9900 O.2    58  G58        -0.2633
   1253  N7        50.5870   63.7310   29.2560 N.ar   58  G58        -0.2173
   1254  C8        51.2970   62.7090   29.6530 C.ar   58  G58         0.1817
   1255  N9        50.6690   61.5050   29.4450 N.ar   58  G58        -0.2693
   1256  OP1       57.1210   62.2650   29.7710 O.3    58  G58        -0.4373
   1257  OP2       55.3590   64.1370   29.6280 O.co2  58  G58        -0.5172
   1258  P         54.1500   58.9310   26.1930 P.3    59  C59         0.2141
   1259  C5'       52.0760   57.5070   25.5170 C.3    59  C59         0.1812
   1260  O5'       52.8000   58.7150   25.3930 O.3    59  C59        -0.3114
   1261  C4'       50.6960   57.7000   24.9690 C.3    59  C59         0.1773
   1262  O4'       49.9830   58.6400   25.8130 O.3    59  C59        -0.3307
   1263  C3'       50.6620   58.3390   23.5960 C.3    59  C59         0.1860
   1264  O3'       50.8570   57.3660   22.5850 O.3    59  C59        -0.3112
   1265  C2'       49.2720   58.9530   23.5760 C.3    59  C59         0.2309
   1266  O2'       48.2900   57.9600   23.3550 O.3    59  C59        -0.2156
   1267  C1'       49.1600   59.4700   25.0120 C.3    59  C59         0.2420
   1268  N1        49.6430   60.8580   25.1570 N.ar   59  C59        -0.2535
   1269  C2        48.7250   61.9090   25.0190 C.ar   59  C59         0.3532
   1270  O2        47.5410   61.6390   24.7690 O.2    59  C59        -0.2443
   1271  N3        49.1540   63.1850   25.1620 N.ar   59  C59        -0.1739
   1272  C4        50.4380   63.4360   25.4250 C.ar   59  C59         0.1759
   1273  N4        50.8080   64.7170   25.5590 N.pl3  59  C59        -0.1070
   1274  C5        51.3990   62.3870   25.5640 C.ar   59  C59         0.0566
   1275  C6        50.9610   61.1240   25.4240 C.ar   59  C59         0.0850
   1276  OP1       55.0980   57.8740   25.7700 O.2    59  C59        -0.5172
   1277  OP2       54.5340   60.3640   26.0500 O.co2  59  C59        -0.4373
   1278  P         51.5120   57.7950   21.1860 P.3    60  C60         0.2141
   1279  C5'       49.1320   58.0340   20.1270 C.3    60  C60         0.1812
   1280  O5'       50.3700   58.6430   20.4730 O.3    60  C60        -0.3114
   1281  C4'       48.2120   59.0480   19.5040 C.3    60  C60         0.1773
   1282  O4'       47.8980   60.0730   20.4760 O.3    60  C60        -0.3307
   1283  C3'       48.8130   59.8010   18.3300 C.3    60  C60         0.1860
   1284  O3'       48.5510   59.0490   17.1500 O.3    60  C60        -0.3112
   1285  C2'       48.0160   61.1000   18.3260 C.3    60  C60         0.2309
   1286  O2'       46.7780   60.9760   17.6630 O.3    60  C60        -0.2156
   1287  C1'       47.7820   61.3220   19.8220 C.3    60  C60         0.2420
   1288  N1        48.6770   62.2740   20.4880 N.ar   60  C60        -0.2535
   1289  C2        48.5030   63.6230   20.2430 C.ar   60  C60         0.3532
   1290  O2        47.6420   63.9670   19.4230 O.2    60  C60        -0.2443
   1291  N3        49.2710   64.5220   20.9000 N.ar   60  C60        -0.1739
   1292  C4        50.1930   64.1020   21.7630 C.ar   60  C60         0.1759
   1293  N4        50.9270   65.0220   22.3910 N.pl3  60  C60        -0.1070
   1294  C5        50.4060   62.7210   22.0180 C.ar   60  C60         0.0566
   1295  C6        49.6380   61.8480   21.3590 C.ar   60  C60         0.0850
   1296  OP1       51.6990   56.5300   20.4450 O.2    60  C60        -0.5172
   1297  OP2       52.6800   58.6820   21.4370 O.co2  60  C60        -0.4373
   1298  P         49.5790   59.0980   15.9240 P.3    61  A61         0.2141
   1299  C5'       48.5690   56.8000   15.2710 C.3    61  A61         0.1812
   1300  O5'       48.9300   58.1030   14.8790 O.3    61  A61        -0.3114
   1301  C4'       47.7600   56.1450   14.1910 C.3    61  A61         0.1773
   1302  O4'       48.4960   56.1970   12.9460 O.3    61  A61        -0.3307
   1303  C3'       47.4950   54.6710   14.4180 C.3    61  A61         0.1860
   1304  O3'       46.3630   54.5070   15.2540 O.3    61  A61        -0.3112
   1305  C2'       47.2560   54.1700   13.0010 C.3    61  A61         0.2309
   1306  O2'       45.9400   54.4370   12.5490 O.3    61  A61        -0.2156
   1307  C1'       48.2700   55.0100   12.2150 C.3    61  A61         0.2408
   1308  N1        50.9310   51.5010    9.5680 N.ar   61  A61        -0.2040
   1309  C2        49.6370   51.8330    9.5630 C.ar   61  A61         0.2016
   1310  N3        48.9980   52.7300   10.3020 N.ar   61  A61        -0.2048
   1311  C4        49.8510   53.3490   11.1390 C.ar   61  A61         0.1692
   1312  C5        51.2060   53.1090   11.2670 C.ar   61  A61         0.1518
   1313  C6        51.7580   52.1260   10.4300 C.ar   61  A61         0.1919
   1314  N6        53.0450   51.7760   10.4470 N.pl3  61  A61        -0.1054
   1315  N7        51.7600   53.9290   12.2410 N.ar   61  A61        -0.2193
   1316  C8        50.7470   54.6440   12.6650 C.ar   61  A61         0.1816
   1317  N9        49.5650   54.3600   12.0270 N.ar   61  A61        -0.2693
   1318  OP1       50.8620   58.5190   16.3880 O.3    61  A61        -0.4373
   1319  OP2       49.5590   60.4560   15.3310 O.co2  61  A61        -0.5172
   1320  P         46.3090   53.2750   16.2650 P.3    62  A62         0.2141
   1321  C5'       45.1590   51.7890   14.4500 C.3    62  A62         0.1812
   1322  O5'       46.2860   52.0250   15.2840 O.3    62  A62        -0.3114
   1323  C4'       45.4590   50.6890   13.4760 C.3    62  A62         0.1773
   1324  O4'       46.5620   51.0970   12.6350 O.3    62  A62        -0.3307
   1325  C3'       45.9150   49.3860   14.1010 C.3    62  A62         0.1860
   1326  O3'       44.7710   48.6090   14.4310 O.3    62  A62        -0.3112
   1327  C2'       46.7110   48.7530   12.9690 C.3    62  A62         0.2309
   1328  O2'       45.8680   48.1500   12.0160 O.3    62  A62        -0.2156
   1329  C1'       47.3750   49.9770   12.3370 C.3    62  A62         0.2408
   1330  N1        52.4280   49.0530   11.8460 N.ar   62  A62        -0.2040
   1331  C2        51.3660   48.5490   11.2140 C.ar   62  A62         0.2016
   1332  N3        50.0760   48.8160   11.3890 N.ar   62  A62        -0.2048
   1333  C4        49.9100   49.7350   12.3530 C.ar   62  A62         0.1692
   1334  C5        50.9080   50.3460   13.0910 C.ar   62  A62         0.1518
   1335  C6        52.2290   49.9700   12.8140 C.ar   62  A62         0.1919
   1336  N6        53.2880   50.4680   13.4550 N.pl3  62  A62        -0.1054
   1337  N7        50.3670   51.2430   13.9980 N.ar   62  A62        -0.2193
   1338  C8        49.0740   51.1560   13.7950 C.ar   62  A62         0.1816
   1339  N9        48.7260   50.2700   12.8100 N.ar   62  A62        -0.2693
   1340  OP1       45.0040   53.2930   16.9760 O.2    62  A62        -0.5172
   1341  OP2       47.5780   53.2910   17.0430 O.co2  62  A62        -0.4373
   1342  P         44.9530   47.1620   15.1040 P.3    63  U63         0.2141
   1343  C5'       44.3170   48.3270   17.3310 C.3    63  U63         0.1812
   1344  O5'       45.2060   47.4750   16.6430 O.3    63  U63        -0.3114
   1345  C4'       44.3580   48.0760   18.8160 C.3    63  U63         0.1773
   1346  O4'       43.9320   46.7160   19.0890 O.3    63  U63        -0.3307
   1347  C3'       45.7560   48.1740   19.3980 C.3    63  U63         0.1860
   1348  O3'       46.1030   49.3100   20.1890 O.3    63  U63        -0.3112
   1349  C2'       46.2920   46.7580   19.5690 C.3    63  U63         0.2309
   1350  O2'       46.8750   46.5600   20.8360 O.3    63  U63        -0.2156
   1351  C1'       45.0080   45.9420   19.5770 C.3    63  U63         0.2420
   1352  N1        45.0520   44.6690   18.8530 N.ar   63  U63        -0.2534
   1353  C2        45.1540   43.5190   19.6150 C.ar   63  U63         0.3546
   1354  O2        45.2780   43.5410   20.8230 O.2    63  U63        -0.2443
   1355  N3        45.1080   42.3440   18.9110 N.ar   63  U63        -0.1530
   1356  C4        44.9890   42.2060   17.5500 C.ar   63  U63         0.2846
   1357  O4        44.8170   41.0850   17.0800 O.2    63  U63        -0.2650
   1358  C5        44.9390   43.4430   16.8200 C.ar   63  U63         0.0814
   1359  C6        44.9700   44.6060   17.4840 C.ar   63  U63         0.0870
   1360  OP1       46.1760   46.5130   14.5390 O.2    63  U63        -0.5172
   1361  OP2       43.6330   46.4760   15.0090 O.co2  63  U63        -0.4373
   1362  P         46.2070   49.1720   21.7680 P.3    64  U64         0.2141
   1363  C5'       48.7960   49.6240   21.7150 C.3    64  U64         0.1812
   1364  O5'       47.7250   48.7310   22.0240 O.3    64  U64        -0.3114
   1365  C4'       50.1180   48.8850   21.5440 C.3    64  U64         0.1773
   1366  O4'       50.6340   48.4570   22.8410 O.3    64  U64        -0.3307
   1367  C3'       49.9920   47.5800   20.7650 C.3    64  U64         0.1860
   1368  O3'       50.1620   47.7140   19.3460 O.3    64  U64        -0.3112
   1369  C2'       51.2080   46.7860   21.2240 C.3    64  U64         0.2309
   1370  O2'       52.3480   47.0960   20.4450 O.3    64  U64        -0.2156
   1371  C1'       51.3940   47.2760   22.6590 C.3    64  U64         0.2420
   1372  N1        51.2060   46.3170   23.7570 N.ar   64  U64        -0.2534
   1373  C2        52.2520   45.4350   23.9690 C.ar   64  U64         0.3546
   1374  O2        53.2530   45.4280   23.2750 O.2    64  U64        -0.2443
   1375  N3        52.0850   44.5600   25.0100 N.ar   64  U64        -0.1530
   1376  C4        51.0000   44.4640   25.8440 C.ar   64  U64         0.2846
   1377  O4        51.0080   43.6150   26.7430 O.2    64  U64        -0.2650
   1378  C5        49.9410   45.4010   25.5600 C.ar   64  U64         0.0814
   1379  C6        50.0800   46.2770   24.5480 C.ar   64  U64         0.0870
   1380  OP1       45.2950   48.0680   22.0980 O.2    64  U64        -0.5172
   1381  OP2       45.9640   50.5080   22.3430 O.co2  64  U64        -0.4373
   1382  P         50.6010   49.1190   18.6760 P.3    65  C65         0.2141
   1383  C5'       48.9720   48.6680   16.6860 C.3    65  C65         0.1812
   1384  O5'       50.3100   48.8420   17.1350 O.3    65  C65        -0.3114
   1385  C4'       48.8500   47.4750   15.7680 C.3    65  C65         0.1773
   1386  O4'       49.6090   47.7210   14.5560 O.3    65  C65        -0.3307
   1387  C3'       49.4330   46.1710   16.2820 C.3    65  C65         0.1860
   1388  O3'       48.5570   45.4640   17.1290 O.3    65  C65        -0.3112
   1389  C2'       49.6710   45.3920   14.9990 C.3    65  C65         0.2309
   1390  O2'       48.4860   44.8270   14.4830 O.3    65  C65        -0.2156
   1391  C1'       50.1390   46.4980   14.0640 C.3    65  C65         0.2420
   1392  N1        51.5990   46.5790   14.0230 N.ar   65  C65        -0.2535
   1393  C2        52.2790   45.8060   13.0810 C.ar   65  C65         0.3532
   1394  O2        51.6170   45.0850   12.3100 O.2    65  C65        -0.2443
   1395  N3        53.6310   45.8540   13.0360 N.ar   65  C65        -0.1739
   1396  C4        54.2970   46.6270   13.8950 C.ar   65  C65         0.1759
   1397  N4        55.6230   46.6330   13.8290 N.pl3  65  C65        -0.1070
   1398  C5        53.6290   47.4280   14.8650 C.ar   65  C65         0.0566
   1399  C6        52.2900   47.3780   14.8900 C.ar   65  C65         0.0850
   1400  OP1       52.0520   49.3180   18.8140 O.2    65  C65        -0.5172
   1401  OP2       49.6730   50.1900   19.1090 O.co2  65  C65        -0.4373
   1402  P         49.1120   44.2020   17.9430 P.3    66  C66         0.2141
   1403  C5'       48.3550   42.2390   16.3540 C.3    66  C66         0.1812
   1404  O5'       49.3920   43.0990   16.8260 O.3    66  C66        -0.3114
   1405  C4'       48.9340   41.1680   15.4600 C.3    66  C66         0.1773
   1406  O4'       49.7240   41.8110   14.4260 O.3    66  C66        -0.3307
   1407  C3'       49.9320   40.2280   16.1170 C.3    66  C66         0.1860
   1408  O3'       49.3040   39.1530   16.7940 O.3    66  C66        -0.3112
   1409  C2'       50.7390   39.7360   14.9270 C.3    66  C66         0.2309
   1410  O2'       50.0430   38.7850   14.1640 O.3    66  C66        -0.2156
   1411  C1'       50.8480   41.0080   14.1030 C.3    66  C66         0.2420
   1412  N1        52.0720   41.7400   14.4510 N.ar   66  C66        -0.2535
   1413  C2        53.2910   41.2210   14.0270 C.ar   66  C66         0.3532
   1414  O2        53.2900   40.1550   13.3900 O.2    66  C66        -0.2443
   1415  N3        54.4340   41.8840   14.3210 N.ar   66  C66        -0.1739
   1416  C4        54.3850   43.0150   15.0210 C.ar   66  C66         0.1759
   1417  N4        55.5290   43.6310   15.2890 N.pl3  66  C66        -0.1070
   1418  C5        53.1550   43.5640   15.4790 C.ar   66  C66         0.0566
   1419  C6        52.0290   42.9000   15.1730 C.ar   66  C66         0.0850
   1420  OP1       48.0270   43.7320   18.8450 O.3    66  C66        -0.4373
   1421  OP2       50.4360   44.5840   18.5090 O.co2  66  C66        -0.5172
   1422  P         49.9590   38.5820   18.1450 P.3    67  U67         0.2141
   1423  C5'       51.5490   36.9400   16.8450 C.3    67  U67         0.1812
   1424  O5'       51.4030   38.0650   17.7060 O.3    67  U67        -0.3114
   1425  C4'       52.9970   36.7620   16.4550 C.3    67  U67         0.1773
   1426  O4'       53.5050   38.0350   15.9890 O.3    67  U67        -0.3307
   1427  C3'       53.9340   36.4000   17.5970 C.3    67  U67         0.1860
   1428  O3'       53.9450   34.9890   17.7630 O.3    67  U67        -0.3112
   1429  C2'       55.2840   36.8990   17.0920 C.3    67  U67         0.2309
   1430  O2'       55.9520   36.0040   16.2190 O.3    67  U67        -0.2156
   1431  C1'       54.8750   38.1590   16.3270 C.3    67  U67         0.2420
   1432  N1        55.0900   39.4430   17.0120 N.ar   67  U67        -0.2534
   1433  C2        56.3080   40.0620   16.8260 C.ar   67  U67         0.3546
   1434  O2        57.2070   39.5780   16.1630 O.2    67  U67        -0.2443
   1435  N3        56.4400   41.2720   17.4400 N.ar   67  U67        -0.1530
   1436  C4        55.5160   41.9150   18.2030 C.ar   67  U67         0.2846
   1437  O4        55.7670   43.0480   18.6050 O.2    67  U67        -0.2650
   1438  C5        54.2910   41.2090   18.3790 C.ar   67  U67         0.0814
   1439  C6        54.1230   40.0230   17.7930 C.ar   67  U67         0.0870
   1440  OP1       49.1130   37.4370   18.5730 O.2    67  U67        -0.5172
   1441  OP2       50.1710   39.7330   19.0590 O.co2  67  U67        -0.4373
   1442  P         54.4560   34.3460   19.1430 P.3    68  G68         0.2141
   1443  C5'       56.7640   33.1150   19.5090 C.3    68  G68         0.1812
   1444  O5'       55.6310   33.3710   18.6730 O.3    68  G68        -0.3114
   1445  C4'       57.9360   33.9680   19.0780 C.3    68  G68         0.1773
   1446  O4'       57.4960   35.3440   18.9760 O.3    68  G68        -0.3307
   1447  C3'       59.0670   34.0070   20.1080 C.3    68  G68         0.1860
   1448  O3'       60.0480   33.0190   19.7590 O.3    68  G68        -0.3112
   1449  C2'       59.7410   35.3540   19.8340 C.3    68  G68         0.2309
   1450  O2'       60.7480   35.3110   18.8440 O.3    68  G68        -0.2156
   1451  C1'       58.5750   36.1820   19.3090 C.3    68  G68         0.2408
   1452  N1        59.7240   41.0070   20.0730 N.ar   68  G68        -0.1709
   1453  C2        60.4990   39.9790   19.5810 C.ar   68  G68         0.2606
   1454  N2        61.7430   40.2940   19.1820 N.pl3  68  G68        -0.0859
   1455  N3        60.0880   38.7280   19.4920 N.ar   68  G68        -0.1918
   1456  C4        58.8330   38.5730   19.9620 C.ar   68  G68         0.1723
   1457  C5        57.9820   39.5180   20.4930 C.ar   68  G68         0.1748
   1458  C6        58.4240   40.8770   20.5550 C.ar   68  G68         0.3023
   1459  O6        57.8040   41.8840   20.9490 O.2    68  G68        -0.2633
   1460  N7        56.7800   38.9340   20.8770 N.ar   68  G68        -0.2173
   1461  C8        56.9180   37.6740   20.5520 C.ar   68  G68         0.1817
   1462  N9        58.1230   37.4070   19.9490 N.ar   68  G68        -0.2693
   1463  OP1       53.3480   33.5280   19.7120 O.2    68  G68        -0.5172
   1464  OP2       55.0430   35.4540   19.9490 O.co2  68  G68        -0.4373
   1465  P         59.8690   31.4840   20.2020 P.3    69  C69         0.2141
   1466  C5'       60.5040   31.3100   22.7390 C.3    69  C69         0.1812
   1467  O5'       59.5110   31.5550   21.7500 O.3    69  C69        -0.3114
   1468  C4'       59.8520   30.7910   23.9910 C.3    69  C69         0.1773
   1469  O4'       58.9550   31.8070   24.5070 O.3    69  C69        -0.3307
   1470  C3'       58.9540   29.5890   23.7690 C.3    69  C69         0.1860
   1471  O3'       59.7160   28.3910   23.7750 O.3    69  C69        -0.3112
   1472  C2'       57.9850   29.6780   24.9440 C.3    69  C69         0.2309
   1473  O2'       58.4740   29.1580   26.1610 O.3    69  C69        -0.2156
   1474  C1'       57.8090   31.1900   25.0670 C.3    69  C69         0.2420
   1475  N1        56.6220   31.6740   24.3540 N.ar   69  C69        -0.2535
   1476  C2        55.3760   31.4430   24.9280 C.ar   69  C69         0.3532
   1477  O2        55.3290   30.8390   26.0100 O.2    69  C69        -0.2443
   1478  N3        54.2610   31.8760   24.2910 N.ar   69  C69        -0.1739
   1479  C4        54.3680   32.5140   23.1220 C.ar   69  C69         0.1759
   1480  N4        53.2450   32.9200   22.5260 N.pl3  69  C69        -0.1070
   1481  C5        55.6330   32.7630   22.5130 C.ar   69  C69         0.0566
   1482  C6        56.7240   32.3300   23.1570 C.ar   69  C69         0.0850
   1483  OP1       61.2180   30.8880   20.0770 O.3    69  C69        -0.4373
   1484  OP2       58.7260   30.8690   19.4730 O.co2  69  C69        -0.5172
   1485  P         59.0050   27.0010   23.4040 P.3    70  A70         0.2141
   1486  C5'       56.8290   26.0580   24.5190 C.3    70  A70         0.1812
   1487  O5'       58.0830   26.7030   24.6690 O.3    70  A70        -0.3114
   1488  C4'       55.9350   26.3710   25.6910 C.3    70  A70         0.1773
   1489  O4'       55.6750   27.7990   25.7420 O.3    70  A70        -0.3307
   1490  C3'       54.5570   25.7580   25.5890 C.3    70  A70         0.1860
   1491  O3'       54.5620   24.4030   25.9880 O.3    70  A70        -0.3112
   1492  C2'       53.7200   26.6680   26.4780 C.3    70  A70         0.2309
   1493  O2'       53.8160   26.4050   27.8590 O.3    70  A70        -0.2156
   1494  C1'       54.3320   28.0290   26.1580 C.3    70  A70         0.2408
   1495  N1        49.9110   30.2060   24.5610 N.ar   70  A70        -0.2040
   1496  C2        50.2800   29.6770   25.7380 C.ar   70  A70         0.2016
   1497  N3        51.4460   29.1290   26.0950 N.ar   70  A70        -0.2048
   1498  C4        52.3180   29.1530   25.0700 C.ar   70  A70         0.1692
   1499  C5        52.0900   29.6650   23.8030 C.ar   70  A70         0.1518
   1500  C6        50.8100   30.2210   23.5500 C.ar   70  A70         0.1919
   1501  N6        50.4440   30.7590   22.3740 N.pl3  70  A70        -0.1054
   1502  N7        53.2170   29.5130   23.0050 N.ar   70  A70        -0.2193
   1503  C8        54.0860   28.9240   23.7900 C.ar   70  A70         0.1816
   1504  N9        53.6130   28.6770   25.0550 N.ar   70  A70        -0.2693
   1505  OP1       60.0690   25.9690   23.3120 O.3    70  A70        -0.4373
   1506  OP2       58.1060   27.2360   22.2460 O.co2  70  A70        -0.5172
   1507  P         53.6050   23.3670   25.2310 P.3    71  G71         0.2141
   1508  C5'       52.0320   23.7150   27.2830 C.3    71  G71         0.1812
   1509  O5'       52.1800   23.6600   25.8740 O.3    71  G71        -0.3114
   1510  C4'       50.5850   23.9110   27.6500 C.3    71  G71         0.1773
   1511  O4'       50.2540   25.3250   27.6680 O.3    71  G71        -0.3307
   1512  C3'       49.6010   23.3180   26.6720 C.3    71  G71         0.1860
   1513  O3'       49.4620   21.9190   26.7800 O.3    71  G71        -0.3112
   1514  C2'       48.3400   24.1220   26.9550 C.3    71  G71         0.2309
   1515  O2'       47.6350   23.7010   28.1090 O.3    71  G71        -0.2156
   1516  C1'       48.9330   25.5120   27.1800 C.3    71  G71         0.2408
   1517  N1        46.4120   28.1540   23.6390 N.ar   71  G71        -0.1709
   1518  C2        45.9250   27.5080   24.7490 C.ar   71  G71         0.2606
   1519  N2        44.5980   27.5920   24.9440 N.pl3  71  G71        -0.0859
   1520  N3        46.6800   26.8320   25.6020 N.ar   71  G71        -0.1918
   1521  C4        47.9820   26.8580   25.2470 C.ar   71  G71         0.1723
   1522  C5        48.5660   27.4710   24.1550 C.ar   71  G71         0.1748
   1523  C6        47.7460   28.1910   23.2530 C.ar   71  G71         0.3023
   1524  O6        48.0780   28.8070   22.2270 O.2    71  G71        -0.2633
   1525  N7        49.9360   27.2540   24.1410 N.ar   71  G71        -0.2173
   1526  C8        50.1600   26.5330   25.2060 C.ar   71  G71         0.1817
   1527  N9        49.0200   26.2650   25.9300 N.ar   71  G71        -0.2693
   1528  OP1       54.0070   21.9790   25.5760 O.3    71  G71        -0.4373
   1529  OP2       53.5930   23.7950   23.8090 O.co2  71  G71        -0.5172
   1530  P         49.2240   21.0670   25.4450 P.3    72  C72         0.2141
   1531  C5'       46.7040   21.1820   26.1310 C.3    72  C72         0.1812
   1532  O5'       47.6870   21.3410   25.1190 O.3    72  C72        -0.3114
   1533  C4'       45.3860   21.7620   25.6890 C.3    72  C72         0.1773
   1534  O4'       45.4670   23.2150   25.6830 O.3    72  C72        -0.3307
   1535  C3'       44.9590   21.4250   24.2750 C.3    72  C72         0.1860
   1536  O3'       44.4100   20.1330   24.1020 O.3    72  C72        -0.3112
   1537  C2'       43.9900   22.5540   23.9510 C.3    72  C72         0.2309
   1538  O2'       42.7130   22.3750   24.5340 O.3    72  C72        -0.2156
   1539  C1'       44.7080   23.7390   24.5930 C.3    72  C72         0.2420
   1540  N1        45.6470   24.3150   23.6130 N.ar   72  C72        -0.2535
   1541  C2        45.1550   25.1690   22.6170 C.ar   72  C72         0.3532
   1542  O2        43.9390   25.4430   22.6020 O.2    72  C72        -0.2443
   1543  N3        46.0180   25.6710   21.6960 N.ar   72  C72        -0.1739
   1544  C4        47.3140   25.3480   21.7440 C.ar   72  C72         0.1759
   1545  N4        48.1270   25.8560   20.8110 N.pl3  72  C72        -0.1070
   1546  C5        47.8370   24.4890   22.7490 C.ar   72  C72         0.0566
   1547  C6        46.9780   24.0030   23.6570 C.ar   72  C72         0.0850
   1548  OP1       49.4120   19.6240   25.7490 O.3    72  C72        -0.4373
   1549  OP2       50.0730   21.7130   24.4070 O.co2  72  C72        -0.5172
   1550  P         44.5420   19.4300   22.6660 P.3    73  G73         0.2141
   1551  C5'       42.1940   20.4740   22.1100 C.3    73  G73         0.1812
   1552  O5'       43.5600   20.2850   21.7450 O.3    73  G73        -0.3114
   1553  C4'       41.4410   21.1490   20.9870 C.3    73  G73         0.1773
   1554  O4'       41.8280   22.5470   20.8790 O.3    73  G73        -0.3307
   1555  C3'       41.7210   20.6030   19.6020 C.3    73  G73         0.1860
   1556  O3'       40.9880   19.4170   19.3370 O.3    73  G73        -0.3112
   1557  C2'       41.2620   21.7580   18.7290 C.3    73  G73         0.2309
   1558  O2'       39.8510   21.8350   18.7130 O.3    73  G73        -0.2156
   1559  C1'       41.8160   22.9450   19.5130 C.3    73  G73         0.2408
   1560  N1        44.8170   25.5270   16.3030 N.ar   73  G73        -0.1709
   1561  C2        43.4520   25.4020   16.2960 C.ar   73  G73         0.2606
   1562  N2        42.8110   26.0570   15.3190 N.pl3  73  G73        -0.0859
   1563  N3        42.7680   24.6890   17.1790 N.ar   73  G73        -0.1918
   1564  C4        43.5780   24.1010   18.0830 C.ar   73  G73         0.1723
   1565  C5        44.9520   24.1660   18.1730 C.ar   73  G73         0.1748
   1566  C6        45.6680   24.9320   17.2250 C.ar   73  G73         0.3023
   1567  O6        46.8940   25.1110   17.1410 O.2    73  G73        -0.2633
   1568  N7        45.4110   23.4180   19.2450 N.ar   73  G73        -0.2173
   1569  C8        44.3310   22.9220   19.7820 C.ar   73  G73         0.1817
   1570  N9        43.1810   23.3030   19.1350 N.ar   73  G73        -0.2693
   1571  OP1       44.0410   18.0310   22.7360 O.3    73  G73        -0.4373
   1572  OP2       45.9370   19.6890   22.2130 O.co2  73  G73        -0.5172
   1573  P         41.5770   18.5300   18.1760 P.3    74  G74         0.2141
   1574  C5'       41.5810   18.7010   15.7410 C.3    74  G74         0.1812
   1575  O5'       41.2810   19.3620   16.9060 O.3    74  G74        -0.3114
   1576  C4'       41.8760   19.6470   14.6190 C.3    74  G74         0.1773
   1577  O4'       42.3800   20.8600   15.1680 O.3    74  G74        -0.3307
   1578  C3'       43.0360   19.1490   13.8270 C.3    74  G74         0.1860
   1579  O3'       42.6610   18.0460   12.9670 O.3    74  G74        -0.3112
   1580  C2'       43.3590   20.4650   13.1680 C.3    74  G74         0.2309
   1581  O2'       42.3720   20.7360   12.2370 O.3    74  G74        -0.2156
   1582  C1'       43.2710   21.4720   14.3040 C.3    74  G74         0.2408
   1583  N1        48.0190   23.2080   14.6170 N.ar   74  G74        -0.1709
   1584  C2        47.0950   23.4290   13.6490 C.ar   74  G74         0.2606
   1585  N2        47.4680   24.1880   12.6270 N.pl3  74  G74        -0.0859
   1586  N3        45.8820   22.9560   13.6740 N.ar   74  G74        -0.1918
   1587  C4        45.6560   22.2080   14.7400 C.ar   74  G74         0.1723
   1588  C5        46.5070   21.9230   15.7320 C.ar   74  G74         0.1748
   1589  C6        47.8040   22.4420   15.7210 C.ar   74  G74         0.3023
   1590  O6        48.7090   22.3010   16.5390 O.2    74  G74        -0.2633
   1591  N7        45.9040   21.1160   16.6530 N.ar   74  G74        -0.2173
   1592  C8        44.7230   20.9340   16.2070 C.ar   74  G74         0.1817
   1593  N9        44.5060   21.5640   15.0420 N.ar   74  G74        -0.2693
   1594  OP1       40.7370   17.3760   18.0420 O.2    74  G74        -0.5172
   1595  OP2       43.0210   18.4620   18.2710 O.co2  74  G74        -0.4373
   1596  P         43.4730   16.7170   13.1030 P.3    75  A75         0.2141
   1597  C5'       45.7550   16.2300   12.6130 C.3    75  A75         0.1812
   1598  O5'       44.9250   17.1820   13.0870 O.3    75  A75        -0.3114
   1599  C4'       46.5310   16.6400   11.3940 C.3    75  A75         0.1773
   1600  O4'       45.6460   16.4430   10.3030 O.3    75  A75        -0.3307
   1601  C3'       46.9370   18.0780   11.2330 C.3    75  A75         0.1860
   1602  O3'       48.1730   18.3970   11.8120 O.3    75  A75        -0.3112
   1603  C2'       47.1540   18.1050    9.7510 C.3    75  A75         0.2309
   1604  O2'       48.4320   17.6370    9.4890 O.3    75  A75        -0.2156
   1605  C1'       46.1330   17.1520    9.2160 C.3    75  A75         0.2408
   1606  N1        43.5960   20.1430    5.8820 N.ar   75  A75        -0.2040
   1607  C2        44.8810   19.8920    5.9680 C.ar   75  A75         0.2016
   1608  N3        45.5270   19.1280    6.8260 N.ar   75  A75        -0.2048
   1609  C4        44.6880   18.5730    7.6890 C.ar   75  A75         0.1692
   1610  C5        43.3450   18.7450    7.7090 C.ar   75  A75         0.1518
   1611  C6        42.8020   19.5690    6.7580 C.ar   75  A75         0.1919
   1612  N6        41.5160   19.7860    6.7150 N.pl3  75  A75        -0.1054
   1613  N7        42.7550   18.0410    8.7200 N.ar   75  A75        -0.2193
   1614  C8        43.7490   17.4600    9.2870 C.ar   75  A75         0.1816
   1615  N9        44.9300   17.7330    8.7290 N.ar   75  A75        -0.2693
   1616  OP1       43.5000   15.9240   11.9370 O.2    75  A75        -0.5172
   1617  OP2       43.0690   16.1180   14.3270 O.co2  75  A75        -0.4373
   1618  P         48.2760   19.6690   12.7090 P.3    76  A76         0.2141
   1619  C5'       49.7970   20.9670   10.9980 C.3    76  A76         0.1812
   1620  O5'       48.5420   20.8590   11.6750 O.3    76  A76        -0.3114
   1621  C4'       49.6290   21.6580    9.6570 C.3    76  A76         0.1773
   1622  O4'       48.4900   21.0770    8.9640 O.3    76  A76        -0.3307
   1623  C3'       49.3330   23.1520    9.6850 C.3    76  A76         0.1860
   1624  O3'       50.5530   23.8890    9.7230 O.3    76  A76        -0.3112
   1625  C2'       48.6200   23.3720    8.3510 C.3    76  A76         0.2309
   1626  O2'       49.5050   23.4740    7.2550 O.3    76  A76        -0.2156
   1627  C1'       47.8190   22.0790    8.2210 C.3    76  A76         0.2408
   1628  N1        42.9220   23.1920    7.0830 N.ar   76  A76        -0.2040
   1629  C2        44.0650   23.3380    6.3900 C.ar   76  A76         0.2016
   1630  N3        45.3200   23.0640    6.7570 N.ar   76  A76        -0.2048
   1631  C4        45.3480   22.5770    8.0090 C.ar   76  A76         0.1692
   1632  C5        44.2650   22.3720    8.8460 C.ar   76  A76         0.1518
   1633  C6        42.9880   22.7010    8.3410 C.ar   76  A76         0.1919
   1634  N6        41.8510   22.5530    9.0310 N.pl3  76  A76        -0.1054
   1635  N7        44.6820   21.8560   10.0630 N.ar   76  A76        -0.2193
   1636  C8        45.9810   21.7520    9.9350 C.ar   76  A76         0.1816
   1637  N9        46.4470   22.1480    8.7100 N.ar   76  A76        -0.2693
   1638  OP1       49.4430   19.5330   13.6150 O.3    76  A76        -0.4373
   1639  OP2       46.9150   19.7870   13.2820 O.co2  76  A76        -0.5172
   1640  P         50.6130   25.2930   10.4980 P.3    77  A77         0.2141
   1641  C5'       50.1000   26.7840    8.4070 C.3    77  A77         0.1812
   1642  O5'       49.6720   26.2550    9.6490 O.3    77  A77        -0.3114
   1643  C4'       48.9200   27.3560    7.6600 C.3    77  A77         0.1773
   1644  O4'       47.8980   26.3260    7.5570 O.3    77  A77        -0.3307
   1645  C3'       48.2050   28.5230    8.3300 C.3    77  A77         0.1860
   1646  O3'       48.8360   29.7670    8.0100 O.3    77  A77        -0.3112
   1647  C2'       46.8110   28.4320    7.7140 C.3    77  A77         0.2309
   1648  O2'       46.7460   28.9650    6.4050 O.3    77  A77        -0.2156
   1649  C1'       46.6120   26.9180    7.6300 C.3    77  A77         0.2408
   1650  N1        42.0740   25.4550    9.5600 N.ar   77  A77        -0.2040
   1651  C2        42.4200   25.9900    8.3830 C.ar   77  A77         0.2016
   1652  N3        43.6240   26.3580    7.9430 N.ar   77  A77        -0.2048
   1653  C4        44.5610   26.1220    8.8760 C.ar   77  A77         0.1692
   1654  C5        44.3600   25.5810   10.1310 C.ar   77  A77         0.1518
   1655  C6        43.0420   25.2330   10.4760 C.ar   77  A77         0.1919
   1656  N6        42.6990   24.6960   11.6530 N.pl3  77  A77        -0.1054
   1657  N7        45.5600   25.4860   10.8170 N.ar   77  A77        -0.2193
   1658  C8        46.4460   25.9570    9.9750 C.ar   77  A77         0.1816
   1659  N9        45.9120   26.3580    8.7810 N.ar   77  A77        -0.2693
   1660  OP1       51.9980   25.8080   10.4210 O.2    77  A77        -0.5172
   1661  OP2       49.9710   25.0970   11.8240 O.co2  77  A77        -0.4373
   1662  P         49.2080   30.8120    9.1850 P.3    78  C78         0.2141
   1663  C5'       46.7860   31.6760    9.6510 C.3    78  C78         0.1812
   1664  O5'       47.8900   30.8980   10.0770 O.3    78  C78        -0.3114
   1665  C4'       45.4980   31.0970   10.1820 C.3    78  C78         0.1773
   1666  O4'       45.6520   29.6560   10.2290 O.3    78  C78        -0.3307
   1667  C3'       45.1320   31.4500   11.6190 C.3    78  C78         0.1860
   1668  O3'       44.4760   32.7100   11.7330 O.3    78  C78        -0.3112
   1669  C2'       44.2110   30.2990   12.0000 C.3    78  C78         0.2309
   1670  O2'       42.8890   30.4360   11.4930 O.3    78  C78        -0.2156
   1671  C1'       44.9220   29.1280   11.3260 C.3    78  C78         0.2420
   1672  N1        45.8610   28.4670   12.2420 N.ar   78  C78        -0.2535
   1673  C2        45.3370   27.6830   13.2740 C.ar   78  C78         0.3532
   1674  O2        44.1060   27.5430   13.3470 O.2    78  C78        -0.2443
   1675  N3        46.1830   27.0970   14.1550 N.ar   78  C78        -0.1739
   1676  C4        47.5080   27.2600   14.0200 C.ar   78  C78         0.1759
   1677  N4        48.3110   26.6630   14.9130 N.pl3  78  C78        -0.1070
   1678  C5        48.0680   28.0420   12.9670 C.ar   78  C78         0.0566
   1679  C6        47.2160   28.6220   12.1080 C.ar   78  C78         0.0850
   1680  OP1       49.4520   32.1310    8.5420 O.2    78  C78        -0.5172
   1681  OP2       50.2670   30.2060   10.0380 O.co2  78  C78        -0.4373
   1682  P         44.5570   33.5230   13.1130 P.3    79  G79         0.2141
   1683  C5'       42.2730   32.4700   13.7870 C.3    79  G79         0.1812
   1684  O5'       43.6390   32.6810   14.0970 O.3    79  G79        -0.3114
   1685  C4'       41.6110   31.6150   14.8420 C.3    79  G79         0.1773
   1686  O4'       42.2040   30.2840   14.8390 O.3    79  G79        -0.3307
   1687  C3'       41.8000   32.0860   16.2760 C.3    79  G79         0.1860
   1688  O3'       40.8960   33.1300   16.6240 O.3    79  G79        -0.3112
   1689  C2'       41.5660   30.8030   17.0680 C.3    79  G79         0.2309
   1690  O2'       40.1940   30.4970   17.2530 O.3    79  G79        -0.2156
   1691  C1'       42.2210   29.7650   16.1560 C.3    79  G79         0.2408
   1692  N1        45.1140   27.2960   19.4560 N.ar   79  G79        -0.1709
   1693  C2        43.7510   27.2870   19.2890 C.ar   79  G79         0.2606
   1694  N2        43.0440   26.5260   20.1460 N.pl3  79  G79        -0.0859
   1695  N3        43.1180   27.9720   18.3570 N.ar   79  G79        -0.1918
   1696  C4        43.9640   28.6780   17.5880 C.ar   79  G79         0.1723
   1697  C5        45.3400   28.7610   17.6600 C.ar   79  G79         0.1748
   1698  C6        46.0140   28.0200   18.6820 C.ar   79  G79         0.3023
   1699  O6        47.2320   27.9690   18.9400 O.2    79  G79        -0.2633
   1700  N7        45.8360   29.6070   16.6710 N.ar   79  G79        -0.2173
   1701  C8        44.7660   30.0140   16.0350 C.ar   79  G79         0.1817
   1702  N9        43.5990   29.4970   16.5560 N.ar   79  G79        -0.2693
   1703  OP1       43.9090   34.8480   12.9190 O.2    79  G79        -0.5172
   1704  OP2       45.9660   33.4570   13.5780 O.co2  79  G79        -0.4373
   1705  P         41.3450   34.2490   17.6840 P.3    80  U80         0.2141
   1706  C5'       40.3010   32.7640   19.5630 C.3    80  U80         0.1812
   1707  O5'       41.4390   33.4400   19.0490 O.3    80  U80        -0.3114
   1708  C4'       40.6800   31.9110   20.7480 C.3    80  U80         0.1773
   1709  O4'       41.6020   30.8750   20.3180 O.3    80  U80        -0.3307
   1710  C3'       41.4520   32.6390   21.8350 C.3    80  U80         0.1860
   1711  O3'       40.5760   33.3420   22.7080 O.3    80  U80        -0.3112
   1712  C2'       42.1670   31.4970   22.5400 C.3    80  U80         0.2309
   1713  O2'       41.3030   30.8160   23.4250 O.3    80  U80        -0.2156
   1714  C1'       42.5080   30.5840   21.3630 C.3    80  U80         0.2420
   1715  N1        43.8760   30.7390   20.8610 N.ar   80  U80        -0.2534
   1716  C2        44.8810   30.0700   21.5420 C.ar   80  U80         0.3546
   1717  O2        44.6650   29.3820   22.5290 O.2    80  U80        -0.2443
   1718  N3        46.1450   30.2400   21.0290 N.ar   80  U80        -0.1530
   1719  C4        46.4940   30.9990   19.9370 C.ar   80  U80         0.2846
   1720  O4        47.6750   31.0550   19.5900 O.2    80  U80        -0.2650
   1721  C5        45.3950   31.6600   19.2940 C.ar   80  U80         0.0814
   1722  C6        44.1540   31.5070   19.7680 C.ar   80  U80         0.0870
   1723  OP1       40.2200   35.2160   17.7560 O.3    80  U80        -0.4373
   1724  OP2       42.7110   34.7360   17.3740 O.co2  80  U80        -0.5172
   1725  P         41.1210   34.6100   23.5380 P.3    81  U81         0.2141
   1726  C5'       41.3130   33.2950   25.7860 C.3    81  U81         0.1812
   1727  O5'       41.9770   33.9500   24.7110 O.3    81  U81        -0.3114
   1728  C4'       42.2970   32.5670   26.6670 C.3    81  U81         0.1773
   1729  O4'       42.9880   31.5660   25.8740 O.3    81  U81        -0.3307
   1730  C3'       43.4280   33.4110   27.2360 C.3    81  U81         0.1860
   1731  O3'       43.0550   34.1380   28.4050 O.3    81  U81        -0.3112
   1732  C2'       44.4860   32.3600   27.5350 C.3    81  U81         0.2309
   1733  O2'       44.2190   31.6500   28.7260 O.3    81  U81        -0.2156
   1734  C1'       44.3190   31.4240   26.3420 C.3    81  U81         0.2420
   1735  N1        45.2590   31.7730   25.2710 N.ar   81  U81        -0.2534
   1736  C2        46.4750   31.1150   25.2690 C.ar   81  U81         0.3546
   1737  O2        46.7600   30.2510   26.0830 O.2    81  U81        -0.2443
   1738  N3        47.3450   31.5010   24.2830 N.ar   81  U81        -0.1530
   1739  C4        47.1290   32.4500   23.3190 C.ar   81  U81         0.2846
   1740  O4        48.0220   32.6950   22.5100 O.2    81  U81        -0.2650
   1741  C5        45.8410   33.0770   23.3750 C.ar   81  U81         0.0814
   1742  C6        44.9680   32.7220   24.3260 C.ar   81  U81         0.0870
   1743  OP1       39.9110   35.2200   24.1370 O.3    81  U81        -0.4373
   1744  OP2       42.0140   35.4380   22.6910 O.co2  81  U81        -0.5172
   1745  P         43.9550   35.3840   28.8870 P.3    82  G82         0.2141
   1746  C5'       45.3040   33.8200   30.4980 C.3    82  G82         0.1812
   1747  O5'       45.3090   34.6970   29.3750 O.3    82  G82        -0.3114
   1748  C4'       46.6990   33.3240   30.8050 C.3    82  G82         0.1773
   1749  O4'       47.1450   32.4000   29.7720 O.3    82  G82        -0.3307
   1750  C3'       47.7630   34.4050   30.8030 C.3    82  G82         0.1860
   1751  O3'       47.7940   35.0770   32.0500 O.3    82  G82        -0.3112
   1752  C2'       49.0410   33.6140   30.5470 C.3    82  G82         0.2309
   1753  O2'       49.5950   33.0310   31.7030 O.3    82  G82        -0.2156
   1754  C1'       48.5460   32.5290   29.5920 C.3    82  G82         0.2408
   1755  N1        52.0840   32.5800   26.0180 N.ar   82  G82        -0.1709
   1756  C2        52.1250   32.0780   27.2940 C.ar   82  G82         0.2606
   1757  N2        53.2810   31.5390   27.6880 N.pl3  82  G82        -0.0859
   1758  N3        51.1080   32.1040   28.1260 N.ar   82  G82        -0.1918
   1759  C4        50.0260   32.6850   27.5810 C.ar   82  G82         0.1723
   1760  C5        49.8750   33.2200   26.3240 C.ar   82  G82         0.1748
   1761  C6        50.9770   33.1860   25.4350 C.ar   82  G82         0.3023
   1762  O6        51.0460   33.6100   24.2790 O.2    82  G82        -0.2633
   1763  N7        48.5930   33.7240   26.1540 N.ar   82  G82        -0.2173
   1764  C8        48.0040   33.4910   27.2970 C.ar   82  G82         0.1817
   1765  N9        48.8290   32.8790   28.2080 N.ar   82  G82        -0.2693
   1766  OP1       43.2750   35.9840   30.0610 O.3    82  G82        -0.4373
   1767  OP2       44.2620   36.2310   27.7080 O.co2  82  G82        -0.5172
   1768  P         48.9090   36.1960   32.3150 P.3    83  A83         0.2141
   1769  C5'       51.5000   36.0280   32.4300 C.3    83  A83         0.1812
   1770  O5'       50.2580   35.3650   32.4200 O.3    83  A83        -0.3114
   1771  C4'       52.5950   35.0770   32.0390 C.3    83  A83         0.1773
   1772  O4'       52.1970   34.3280   30.8650 O.3    83  A83        -0.3307
   1773  C3'       53.8730   35.7740   31.6300 C.3    83  A83         0.1860
   1774  O3'       54.6380   36.0790   32.7790 O.3    83  A83        -0.3112
   1775  C2'       54.5410   34.7440   30.7340 C.3    83  A83         0.2309
   1776  O2'       55.2630   33.7820   31.4700 O.3    83  A83        -0.2156
   1777  C1'       53.3280   34.1240   30.0280 C.3    83  A83         0.2408
   1778  N1        55.1630   35.3100   25.3720 N.ar   83  A83        -0.2040
   1779  C2        55.6950   34.6410   26.4070 C.ar   83  A83         0.2016
   1780  N3        55.1560   34.3510   27.5890 N.ar   83  A83        -0.2048
   1781  C4        53.9050   34.8320   27.6660 C.ar   83  A83         0.1692
   1782  C5        53.2200   35.5330   26.6880 C.ar   83  A83         0.1518
   1783  C6        53.9000   35.7770   25.4850 C.ar   83  A83         0.1919
   1784  N6        53.3700   36.4420   24.4560 N.pl3  83  A83        -0.1054
   1785  N7        51.9460   35.8650   27.1220 N.ar   83  A83        -0.2193
   1786  C8        51.8900   35.3730   28.3340 C.ar   83  A83         0.1816
   1787  N9        53.0450   34.7440   28.7320 N.ar   83  A83        -0.2693
   1788  OP1       48.6400   36.7990   33.6420 O.3    83  A83        -0.4373
   1789  OP2       48.9760   37.0640   31.1120 O.co2  83  A83        -0.5172
   1790  P         55.3130   37.5230   32.9100 P.3    84  A84         0.2141
   1791  C5'       57.4260   36.4570   31.7870 C.3    84  A84         0.1812
   1792  O5'       56.4550   37.4980   31.8000 O.3    84  A84        -0.3114
   1793  C4'       58.1330   36.4250   30.4590 C.3    84  A84         0.1773
   1794  O4'       57.1980   36.0310   29.4240 O.3    84  A84        -0.3307
   1795  C3'       58.6440   37.7740   29.9960 C.3    84  A84         0.1860
   1796  O3'       59.9090   38.0550   30.5630 O.3    84  A84        -0.3112
   1797  C2'       58.7240   37.6000   28.4870 C.3    84  A84         0.2309
   1798  O2'       59.8970   36.9390   28.0640 O.3    84  A84        -0.2156
   1799  C1'       57.4980   36.7260   28.2230 C.3    84  A84         0.2408
   1800  N1        55.2830   39.5560   24.5550 N.ar   84  A84        -0.2040
   1801  C2        56.4650   38.9310   24.6110 C.ar   84  A84         0.2016
   1802  N3        56.9830   38.2040   25.5960 N.ar   84  A84        -0.2048
   1803  C4        56.1330   38.1460   26.6380 C.ar   84  A84         0.1692
   1804  C5        54.8880   38.7350   26.7250 C.ar   84  A84         0.1518
   1805  C6        54.4550   39.4710   25.6220 C.ar   84  A84         0.1919
   1806  N6        53.2740   40.0890   25.5740 N.pl3  84  A84        -0.1054
   1807  N7        54.2980   38.4590   27.9470 N.ar   84  A84        -0.2193
   1808  C8        55.1860   37.7240   28.5650 C.ar   84  A84         0.1816
   1809  N9        56.3200   37.4970   27.8330 N.ar   84  A84        -0.2693
   1810  OP1       55.9540   37.6040   34.2480 O.3    84  A84        -0.4373
   1811  OP2       54.2860   38.5260   32.5220 O.co2  84  A84        -0.5172
   1812  P         60.2260   39.5440   31.0580 P.3    85  A85         0.2141
   1813  C5'       61.3630   40.1340   28.7860 C.3    85  A85         0.1812
   1814  O5'       60.3060   40.3670   29.7020 O.3    85  A85        -0.3114
   1815  C4'       61.1070   40.8790   27.5070 C.3    85  A85         0.1773
   1816  O4'       59.9160   40.3340   26.8870 O.3    85  A85        -0.3307
   1817  C3'       60.7730   42.3480   27.6770 C.3    85  A85         0.1860
   1818  O3'       61.9010   43.1880   27.8480 O.3    85  A85        -0.3112
   1819  C2'       60.0130   42.6470   26.3990 C.3    85  A85         0.2309
   1820  O2'       60.8730   42.7850   25.2890 O.3    85  A85        -0.2156
   1821  C1'       59.1950   41.3710   26.2520 C.3    85  A85         0.2408
   1822  N1        54.5010   43.3920   25.9060 N.ar   85  A85        -0.2040
   1823  C2        55.5850   43.4830   25.1270 C.ar   85  A85         0.2016
   1824  N3        56.7860   42.9380   25.2890 N.ar   85  A85        -0.2048
   1825  C4        56.8300   42.2120   26.4210 C.ar   85  A85         0.1692
   1826  C5        55.8020   42.0250   27.3290 C.ar   85  A85         0.1518
   1827  C6        54.5740   42.6550   27.0350 C.ar   85  A85         0.1919
   1828  N6        53.4900   42.5620   27.8030 N.pl3  85  A85        -0.1054
   1829  N7        56.2180   41.2180   28.3830 N.ar   85  A85        -0.2193
   1830  C8        57.4670   40.9370   28.0890 C.ar   85  A85         0.1816
   1831  N9        57.8960   41.4960   26.9090 N.ar   85  A85        -0.2693
   1832  OP1       61.5710   39.5780   31.6990 O.2    85  A85        -0.5172
   1833  OP2       59.0280   39.9910   31.8210 O.co2  85  A85        -0.4373
   1834  P         61.7480   44.5200   28.7290 P.3    86  G86         0.2141
   1835  C5'       61.1270   45.9230   26.6260 C.3    86  G86         0.1812
   1836  O5'       60.7380   45.4200   27.8880 O.3    86  G86        -0.3114
   1837  C4'       60.0060   46.7020   25.9930 C.3    86  G86         0.1773
   1838  O4'       58.8550   45.8320   25.8360 O.3    86  G86        -0.3307
   1839  C3'       59.4540   47.8450   26.8240 C.3    86  G86         0.1860
   1840  O3'       60.2400   49.0150   26.7050 O.3    86  G86        -0.3112
   1841  C2'       58.0650   48.0320   26.2310 C.3    86  G86         0.2309
   1842  O2'       58.0930   48.6940   24.9820 O.3    86  G86        -0.2156
   1843  C1'       57.6640   46.5900   25.9690 C.3    86  G86         0.2408
   1844  N1        53.0790   46.5700   28.0770 N.ar   86  G86        -0.1709
   1845  C2        53.5560   47.3150   27.0300 C.ar   86  G86         0.2606
   1846  N2        52.6910   48.1610   26.4610 N.pl3  86  G86        -0.0859
   1847  N3        54.7920   47.2370   26.5760 N.ar   86  G86        -0.1918
   1848  C4        55.5280   46.3410   27.2670 C.ar   86  G86         0.1723
   1849  C5        55.1510   45.5560   28.3310 C.ar   86  G86         0.1748
   1850  C6        53.8230   45.6460   28.8070 C.ar   86  G86         0.3023
   1851  O6        53.2940   45.0290   29.7410 O.2    86  G86        -0.2633
   1852  N7        56.2100   44.7710   28.7620 N.ar   86  G86        -0.2173
   1853  C8        57.1920   45.0840   27.9590 C.ar   86  G86         0.1817
   1854  N9        56.8390   46.0250   27.0260 N.ar   86  G86        -0.2693
   1855  OP1       63.0550   45.2350   28.7650 O.2    86  G86        -0.5172
   1856  OP2       61.0750   44.1220   30.0000 O.co2  86  G86        -0.4373
   1857  P         60.0890   50.1700   27.8000 P.3    87  A87         0.2141
   1858  C5'       58.2980   51.3980   26.3310 C.3    87  A87         0.1812
   1859  O5'       58.6240   50.7340   27.5470 O.3    87  A87        -0.3114
   1860  C4'       56.9310   52.0180   26.4410 C.3    87  A87         0.1773
   1861  O4'       55.9120   50.9830   26.4240 O.3    87  A87        -0.3307
   1862  C3'       56.6940   52.7390   27.7490 C.3    87  A87         0.1860
   1863  O3'       57.2590   54.0400   27.7280 O.3    87  A87        -0.3112
   1864  C2'       55.1720   52.7140   27.8660 C.3    87  A87         0.2309
   1865  O2'       54.5100   53.6880   27.0900 O.3    87  A87        -0.2156
   1866  C1'       54.8540   51.3340   27.2990 C.3    87  A87         0.2408
   1867  N1        51.7590   49.0430   30.6590 N.ar   87  A87        -0.2040
   1868  C2        51.5600   50.0060   29.7500 C.ar   87  A87         0.2016
   1869  N3        52.4220   50.5550   28.9040 N.ar   87  A87        -0.2048
   1870  C4        53.6370   50.0070   29.0500 C.ar   87  A87         0.1692
   1871  C5        54.0030   49.0090   29.9390 C.ar   87  A87         0.1518
   1872  C6        52.9920   48.5120   30.7840 C.ar   87  A87         0.1919
   1873  N6        53.1780   47.5570   31.6980 N.pl3  87  A87        -0.1054
   1874  N7        55.3500   48.6980   29.8010 N.ar   87  A87        -0.2193
   1875  C8        55.7600   49.5010   28.8460 C.ar   87  A87         0.1816
   1876  N9        54.7710   50.3200   28.3480 N.ar   87  A87        -0.2693
   1877  OP1       61.0640   51.2580   27.5190 O.2    87  A87        -0.5172
   1878  OP2       60.0880   49.4990   29.1170 O.co2  87  A87        -0.4373
   1879  P         57.5550   54.7800   29.1120 P.3    88  U88         0.2141
   1880  C5'       55.2330   55.9580   29.2040 C.3    88  U88         0.1812
   1881  O5'       56.1050   54.9730   29.7330 O.3    88  U88        -0.3114
   1882  C4'       53.9970   56.0790   30.0560 C.3    88  U88         0.1773
   1883  O4'       53.2460   54.8360   29.9860 O.3    88  U88        -0.3307
   1884  C3'       54.2570   56.2360   31.5380 C.3    88  U88         0.1860
   1885  O3'       54.5470   57.5650   31.9040 O.3    88  U88        -0.3112
   1886  C2'       52.9460   55.7710   32.1300 C.3    88  U88         0.2309
   1887  O2'       51.9720   56.7660   31.9440 O.3    88  U88        -0.2156
   1888  C1'       52.6170   54.5880   31.2270 C.3    88  U88         0.2420
   1889  N1        53.1460   53.3380   31.7870 N.ar   88  U88        -0.2534
   1890  C2        52.4340   52.7560   32.8180 C.ar   88  U88         0.3546
   1891  O2        51.4030   53.2220   33.2460 O.2    88  U88        -0.2443
   1892  N3        52.9790   51.6140   33.3330 N.ar   88  U88        -0.1530
   1893  C4        54.1420   51.0020   32.9400 C.ar   88  U88         0.2846
   1894  O4        54.5200   49.9830   33.5290 O.2    88  U88        -0.2650
   1895  C5        54.8240   51.6580   31.8560 C.ar   88  U88         0.0814
   1896  C6        54.3090   52.7770   31.3270 C.ar   88  U88         0.0870
   1897  OP1       58.0840   56.1340   28.8290 O.2    88  U88        -0.5172
   1898  OP2       58.3220   53.8530   29.9820 O.co2  88  U88        -0.4373
   1899  P         55.3340   57.8430   33.2720 P.3    89  G89         0.2141
   1900  C5'       53.0250   58.5430   34.3050 C.3    89  G89         0.1812
   1901  O5'       54.2000   57.7390   34.3810 O.3    89  G89        -0.3114
   1902  C4'       52.0210   58.0720   35.3210 C.3    89  G89         0.1773
   1903  O4'       51.6580   56.7070   35.0090 O.3    89  G89        -0.3307
   1904  C3'       52.5520   58.0010   36.7390 C.3    89  G89         0.1860
   1905  O3'       52.3970   59.2660   37.3610 O.3    89  G89        -0.3112
   1906  C2'       51.6520   56.9510   37.3730 C.3    89  G89         0.2309
   1907  O2'       50.4160   57.4830   37.8070 O.3    89  G89        -0.2156
   1908  C1'       51.4540   55.9780   36.2040 C.3    89  G89         0.2408
   1909  N1        52.5060   51.3920   38.1120 N.ar   89  G89        -0.1709
   1910  C2        51.4660   52.2390   38.3950 C.ar   89  G89         0.2606
   1911  N2        50.5910   51.8160   39.3150 N.pl3  89  G89        -0.0859
   1912  N3        51.2910   53.4130   37.8230 N.ar   89  G89        -0.1918
   1913  C4        52.2620   53.6870   36.9330 C.ar   89  G89         0.1723
   1914  C5        53.3450   52.9140   36.5740 C.ar   89  G89         0.1748
   1915  C6        53.5140   51.6430   37.1940 C.ar   89  G89         0.3023
   1916  O6        54.4090   50.7920   37.0070 O.2    89  G89        -0.2633
   1917  N7        54.1170   53.5650   35.6200 N.ar   89  G89        -0.2173
   1918  C8        53.5010   54.6990   35.4200 C.ar   89  G89         0.1817
   1919  N9        52.3690   54.8390   36.1850 N.ar   89  G89        -0.2693
   1920  OP1       55.8280   59.2400   33.2490 O.2    89  G89        -0.5172
   1921  OP2       56.2910   56.7240   33.4600 O.co2  89  G89        -0.4373
   1922  P         53.4500   59.7430   38.4710 P.3    90  A90         0.2141
   1923  C5'       51.9460   58.8740   40.4110 C.3    90  A90         0.1812
   1924  O5'       53.1590   58.7740   39.6940 O.3    90  A90        -0.3114
   1925  C4'       51.8260   57.7320   41.3760 C.3    90  A90         0.1773
   1926  O4'       51.7280   56.4900   40.6290 O.3    90  A90        -0.3307
   1927  C3'       53.0550   57.5160   42.2380 C.3    90  A90         0.1860
   1928  O3'       53.0790   58.3860   43.3590 O.3    90  A90        -0.3112
   1929  C2'       52.9000   56.0630   42.6420 C.3    90  A90         0.2309
   1930  O2'       51.9220   55.9220   43.6480 O.3    90  A90        -0.2156
   1931  C1'       52.3630   55.4550   41.3520 C.3    90  A90         0.2408
   1932  N1        54.9730   51.1810   40.4190 N.ar   90  A90        -0.2040
   1933  C2        53.9500   51.4680   41.2320 C.ar   90  A90         0.2016
   1934  N3        53.3080   52.6180   41.4050 N.ar   90  A90        -0.2048
   1935  C4        53.8270   53.5700   40.6170 C.ar   90  A90         0.1692
   1936  C5        54.8770   53.4340   39.7260 C.ar   90  A90         0.1518
   1937  C6        55.4700   52.1590   39.6340 C.ar   90  A90         0.1919
   1938  N6        56.4830   51.8610   38.8220 N.pl3  90  A90        -0.1054
   1939  N7        55.1370   54.6410   39.0900 N.ar   90  A90        -0.2193
   1940  C8        54.2490   55.4660   39.6060 C.ar   90  A90         0.1816
   1941  N9        53.4320   54.8820   40.5410 N.ar   90  A90        -0.2693
   1942  OP1       53.0590   61.1290   38.8650 O.3    90  A90        -0.4373
   1943  OP2       54.8260   59.4680   37.9660 O.co2  90  A90        -0.5172
   1944  P         54.4880   58.7910   44.0210 P.3    91  G91         0.2141
   1945  C5'       54.0350   56.9210   45.7830 C.3    91  G91         0.1812
   1946  O5'       54.9010   57.4640   44.7980 O.3    91  G91        -0.3114
   1947  C4'       54.5600   55.5980   46.2840 C.3    91  G91         0.1773
   1948  O4'       54.4680   54.5980   45.2280 O.3    91  G91        -0.3307
   1949  C3'       56.0360   55.5950   46.6500 C.3    91  G91         0.1860
   1950  O3'       56.2440   56.1520   47.9500 O.3    91  G91        -0.3112
   1951  C2'       56.3870   54.1110   46.5430 C.3    91  G91         0.2309
   1952  O2'       55.9700   53.3530   47.6640 O.3    91  G91        -0.2156
   1953  C1'       55.5460   53.6840   45.3430 C.3    91  G91         0.2408
   1954  N1        58.4040   50.7920   42.3420 N.ar   91  G91        -0.1709
   1955  C2        57.7630   50.4790   43.5080 C.ar   91  G91         0.2606
   1956  N2        57.9250   49.2330   43.9540 N.pl3  91  G91        -0.0859
   1957  N3        57.0200   51.3270   44.1890 N.ar   91  G91        -0.1918
   1958  C4        56.9700   52.5440   43.6060 C.ar   91  G91         0.1723
   1959  C5        57.5710   52.9650   42.4410 C.ar   91  G91         0.1748
   1960  C6        58.3680   52.0320   41.7120 C.ar   91  G91         0.3023
   1961  O6        58.9870   52.1990   40.6540 O.2    91  G91        -0.2633
   1962  N7        57.2710   54.2990   42.1860 N.ar   91  G91        -0.2173
   1963  C8        56.5100   54.6580   43.1870 C.ar   91  G91         0.1817
   1964  N9        56.2990   53.6430   44.0920 N.ar   91  G91        -0.2693
   1965  OP1       54.2060   59.8570   45.0150 O.3    91  G91        -0.4373
   1966  OP2       55.4810   59.0370   42.9420 O.co2  91  G91        -0.5172
   1967  P         57.7380   56.2720   48.5440 P.3    92  C92         0.2141
   1968  C5'       59.6080   54.4730   48.6330 C.3    92  C92         0.1812
   1969  O5'       58.2660   54.7890   48.3910 O.3    92  C92        -0.3114
   1970  C4'       59.8200   53.0280   48.3430 C.3    92  C92         0.1773
   1971  O4'       59.1810   52.7180   47.0930 O.3    92  C92        -0.3307
   1972  C3'       61.2600   52.6300   48.1660 C.3    92  C92         0.1860
   1973  O3'       61.8330   52.3910   49.4390 O.3    92  C92        -0.3112
   1974  C2'       61.1390   51.3940   47.2870 C.3    92  C92         0.2309
   1975  O2'       60.8350   50.1970   47.9670 O.3    92  C92        -0.2156
   1976  C1'       59.9710   51.7910   46.3850 C.3    92  C92         0.2420
   1977  N1        60.4150   52.4430   45.1480 N.ar   92  C92        -0.2535
   1978  C2        61.1590   51.6980   44.2440 C.ar   92  C92         0.3532
   1979  O2        61.4240   50.5070   44.5230 O.2    92  C92        -0.2443
   1980  N3        61.5730   52.2820   43.0950 N.ar   92  C92        -0.1739
   1981  C4        61.2610   53.5570   42.8420 C.ar   92  C92         0.1759
   1982  N4        61.6870   54.0880   41.6900 N.pl3  92  C92        -0.1070
   1983  C5        60.5000   54.3390   43.7540 C.ar   92  C92         0.0566
   1984  C6        60.1040   53.7490   44.8840 C.ar   92  C92         0.0850
   1985  OP1       57.6310   56.5540   49.9970 O.3    92  C92        -0.4373
   1986  OP2       58.5820   57.1490   47.6920 O.co2  92  C92        -0.5172
   1987  P         63.2640   53.0210   49.7860 P.3    93  C93         0.2141
   1988  C5'       64.3580   50.6890   49.3830 C.3    93  C93         0.1812
   1989  O5'       64.2740   52.0580   49.0110 O.3    93  C93        -0.3114
   1990  C4'       65.3550   49.9460   48.5230 C.3    93  C93         0.1773
   1991  O4'       64.8150   49.7190   47.2030 O.3    93  C93        -0.3307
   1992  C3'       66.6550   50.6690   48.2670 C.3    93  C93         0.1860
   1993  O3'       67.5590   50.4100   49.3110 O.3    93  C93        -0.3112
   1994  C2'       67.1520   50.0180   46.9890 C.3    93  C93         0.2309
   1995  O2'       67.8000   48.7960   47.2370 O.3    93  C93        -0.2156
   1996  C1'       65.8500   49.7790   46.2450 C.3    93  C93         0.2420
   1997  N1        65.5290   50.8440   45.3050 N.ar   93  C93        -0.2535
   1998  C2        66.0370   50.7690   44.0130 C.ar   93  C93         0.3532
   1999  O2        66.7630   49.8070   43.7120 O.2    93  C93        -0.2443
   2000  N3        65.7230   51.7360   43.1250 N.ar   93  C93        -0.1739
   2001  C4        64.9330   52.7510   43.4940 C.ar   93  C93         0.1759
   2002  N4        64.6410   53.6820   42.5860 N.pl3  93  C93        -0.1070
   2003  C5        64.4070   52.8560   44.8140 C.ar   93  C93         0.0566
   2004  C6        64.7290   51.8900   45.6800 C.ar   93  C93         0.0850
   2005  OP1       63.4570   52.8260   51.2380 O.3    93  C93        -0.4373
   2006  OP2       63.2970   54.3960   49.2240 O.co2  93  C93        -0.5172
   2007  P         68.9540   51.1820   49.3380 P.3    94  G94         0.2141
   2008  C5'       70.6020   49.6360   47.9700 C.3    94  G94         0.1813
   2009  O5'       69.6970   50.7400   47.9930 O.3    94  G94        -0.3114
   2010  C4'       71.5340   49.7310   46.7680 C.3    94  G94         0.1801
   2011  O4'       70.7460   49.6670   45.5460 O.3    94  G94        -0.3306
   2012  C3'       72.3720   51.0070   46.6400 C.3    94  G94         0.2161
   2013  O3'       73.6370   50.8920   47.2910 O.3    94  G94        -0.2175
   2014  C2'       72.5820   51.1050   45.1390 C.3    94  G94         0.2337
   2015  O2'       73.6460   50.2580   44.7240 O.3    94  G94        -0.2155
   2016  C1'       71.2110   50.6430   44.6240 C.3    94  G94         0.2409
   2017  N1        68.6860   54.0880   41.8400 N.ar   94  G94        -0.1709
   2018  C2        69.6250   53.1670   41.4410 C.ar   94  G94         0.2606
   2019  N2        69.9510   53.1780   40.1440 N.pl3  94  G94        -0.0859
   2020  N3        70.2060   52.3050   42.2500 N.ar   94  G94        -0.1918
   2021  C4        69.7810   52.4460   43.5200 C.ar   94  G94         0.1723
   2022  C5        68.8510   53.3350   44.0230 C.ar   94  G94         0.1748
   2023  C6        68.2300   54.2490   43.1450 C.ar   94  G94         0.3023
   2024  O6        67.3840   55.1240   43.4110 O.2    94  G94        -0.2633
   2025  N7        68.6980   53.1680   45.3900 N.ar   94  G94        -0.2173
   2026  C8        69.5240   52.2030   45.6930 C.ar   94  G94         0.1817
   2027  N9        70.2160   51.7180   44.6080 N.ar   94  G94        -0.2693
   2028  OP1       69.6730   50.6280   50.5140 O.3    94  G94        -0.4373
   2029  OP2       68.6490   52.6360   49.2660 O.co2  94  G94        -0.5172
@<TRIPOS>BOND
     1   734   733    2
     2   737   719    2
     3   733   735   ar
     4   733   732   ar
     5   735   736   ar
     6   732   730   ar
     7   736   729   ar
     8   719   721    1
     9   719   703    1
    10   719   738    1
    11   705   704    1
    12   730   729   ar
    13   730   731    2
    14   721   720    1
    15   729   728    1
    16   703   702    1
    17   723   728    1
    18   723   722    1
    19   704   702    1
    20   704   706    1
    21   728   726    1
    22   702   700    1
    23   720   722    1
    24   722   724    1
    25   706   716    1
    26   706   701    1
    27   716   715   ar
    28   716   710   ar
    29   715   714   ar
    30   700   701    1
    31   700   698    1
    32   726   724    1
    33   726   727    1
    34   756   755    2
    35   710   709   ar
    36   710   711   ar
    37   724   725    1
    38   714   711   ar
    39   699   698    1
    40   699   697    1
    41   709   708   ar
    42   718   697    2
    43   717   697    1
    44   711   712   ar
    45   755   754   ar
    46   755   749   ar
    47   757   754   ar
    48   757   758   ar
    49   697   680    1
    50   652   634    2
    51   708   707   ar
    52   754   753   ar
    53   749   750   ar
    54   725   739    1
    55   712   707   ar
    56   712   713    1
    57   761   739    2
    58   758   759   ar
    59   691   690    2
    60   753   759   ar
    61   753   752   ar
    62   750   752   ar
    63   750   751    1
    64   759   748    1
    65   673   654    2
    66   632   614    2
    67   739   760    1
    68   739   741    1
    69   634   653    1
    70   634   636    1
    71   634   620    1
    72   690   684   ar
    73   690   689   ar
    74   696   674    2
    75   680   679    1
    76   672   654    1
    77   684   685   ar
    78   743   748    1
    79   743   742    1
    80   748   746    1
    81   692   689   ar
    82   692   693   ar
    83   689   688   ar
    84   635   636    1
    85   635   637    1
    86   436   415    2
    87   654   640    1
    88   654   656    1
    89   741   740    1
    90   620   619    1
    91   431   430    1
    92   679   681    1
    93   679   677    1
    94   685   686    1
    95   685   687   ar
    96   614   633    1
    97   614   616    1
    98   614   597    1
    99   695   674    1
   100   681   682    1
   101   681   683    1
   102   674   676    1
   103   674   660    1
   104   693   694   ar
   105   688   687   ar
   106   688   694   ar
   107   616   615    1
   108   676   675    1
   109   430   429   ar
   110   430   425   ar
   111   435   415    1
   112   640   639    1
   113   432   429   ar
   114   432   433   ar
   115   423   422    1
   116   694   683    1
   117   742   740    1
   118   742   744    1
   119   429   428   ar
   120   656   655    1
   121   409   408    2
   122   415   417    1
   123   415   398    1
   124   425   426   ar
   125   747   746    1
   126   746   744    1
   127   615   617    1
   128   619   617    1
   129   619   621    1
   130   637   639    1
   131   637   638    1
   132   639   641    1
   133   433   434   ar
   134   422   420    1
   135   422   424    1
   136   410   407   ar
   137   410   411   ar
   138   683   678    1
   139   677   675    1
   140   677   678    1
   141   597   596    1
   142   408   407   ar
   143   408   402   ar
   144   669   668    1
   145   428   434   ar
   146   428   427   ar
   147   426   427   ar
   148   670   668   ar
   149   670   671   ar
   150   407   406   ar
   151   411   412   ar
   152  1606  1607   ar
   153  1606  1611   ar
   154   434   424    1
   155   660   659    1
   156   617   618    1
   157   417   416    1
   158  1607  1608   ar
   159   744   745    1
   160   650   651   ar
   161   650   648   ar
   162   612   591    2
   163   397   398    1
   164   397   399    1
   165   397   395    1
   166   655   657    1
   167   402   403   ar
   168   668   667   ar
   169   651   644   ar
   170   454   453    2
   171   420   421    1
   172   420   418    1
   173   659   657    1
   174   659   661    1
   175   671   664   ar
   176   638   643    1
   177  1629  1630   ar
   178  1629  1628   ar
   179  1648  1647    1
   180   459   437    2
   181   421   437    1
   182   424   419    1
   183   406   412   ar
   184   406   405   ar
   185   621   622    1
   186   621   623    1
   187   399   401    1
   188   399   400    1
   189   412   401    1
   190  1612  1611    1
   191  1630  1631   ar
   192  1611  1610   ar
   193   403   405   ar
   194   403   404    1
   195  1608  1609   ar
   196   592   594    1
   197   592   593    1
   198   458   437    1
   199   453   452   ar
   200   453   447   ar
   201   641   643    1
   202   641   642    1
   203   596   594    1
   204   596   598    1
   205   649   648    1
   206   455   452   ar
   207   455   456   ar
   208   648   647   ar
   209   437   439    1
   210   745   762    1
   211   657   658    1
   212   347   326    2
   213   393   395    1
   214   393   394    1
   215  1628  1633   ar
   216   667   665   ar
   217   414   392    2
   218   324   303    2
   219   416   418    1
   220   644   643    1
   221   644   645   ar
   222   661   663    1
   223   661   662    1
   224   401   396    1
   225   664   665   ar
   226   664   663    1
   227  1626  1625    1
   228   452   451   ar
   229   618   623    1
   230   395   396    1
   231   591   593    1
   232   591   613    1
   233   591   574    1
   234   594   595    1
   235   447   448   ar
   236   631   630   ar
   237   631   624   ar
   238   418   419    1
   239   630   628   ar
   240  1644  1649    1
   241  1644  1643    1
   242   456   457   ar
   243  1649  1647    1
   244  1649  1659    1
   245   623   624    1
   246   665   666    2
   247  1643  1645    1
   248  1643  1641    1
   249  1609  1610   ar
   250  1609  1615   ar
   251   367   349    2
   252  1610  1613   ar
   253  1647  1645    1
   254   658   663    1
   255   391   369    2
   256   624   625   ar
   257   599   598    1
   258   647   645   ar
   259   386   385    2
   260  1652  1651   ar
   261  1652  1653   ar
   262   390   369    1
   263   598   600    1
   264  1631  1637   ar
   265  1631  1632   ar
   266   451   457   ar
   267   451   450   ar
   268  1646  1645    1
   269  1646  1662    1
   270   780   779   ar
   271   780   781   ar
   272   645   646    2
   273   779   776   ar
   274   448   450   ar
   275   448   449    1
   276   394   392    1
   277   457   446    1
   278  1627  1625    1
   279  1627  1637    1
   280  1627  1622    1
   281   392   413    1
   282   392   375    1
   283   628   629    1
   284   628   627   ar
   285   766   771    1
   286   766   765    1
   287  1633  1632   ar
   288  1633  1634    1
   289  1625  1623    1
   290  1651  1650   ar
   291  1641  1642    1
   292   477   476    2
   293   387   384   ar
   294   387   388   ar
   295   326   348    1
   296   326   328    1
   297   326   309    1
   298  1680  1662    2
   299   303   287    1
   300   303   325    1
   301   303   305    1
   302   439   438    1
   303   762   783    2
   304   762   782    1
   305   762   764    1
   306   625   627   ar
   307   625   626    2
   308   369   371    1
   309   369   355    1
   310   368   349    1
   311   574   573    1
   312   385   384   ar
   313   385   379   ar
   314  1637  1636   ar
   315  1613  1614   ar
   316   781   771    1
   317   781   775   ar
   318   441   446    1
   319   441   440    1
   320  1615  1605    1
   321  1615  1614   ar
   322   287   286    1
   323  1659  1653   ar
   324  1659  1658   ar
   325   595   600    1
   326   349   351    1
   327   349   332    1
   328  1632  1635   ar
   329   771   769    1
   330  1653  1654   ar
   331   776   775   ar
   332   776   777   ar
   333   384   383   ar
   334  1622  1621    1
   335   446   444    1
   336   371   370    1
   337   778   777    1
   338   763   764    1
   339   763   765    1
   340   388   389   ar
   341   476   470   ar
   342   476   475   ar
   343   328   327    1
   344   309   308    1
   345  1662  1681    1
   346  1662  1664    1
   347  1605  1603    1
   348  1605  1600    1
   349   327   329    1
   350   600   611    1
   351   775   774   ar
   352   470   471   ar
   353   379   380   ar
   354   777   772   ar
   355   438   440    1
   356   304   305    1
   357   304   306    1
   358   765   767    1
   359   351   350    1
   360  1604  1603    1
   361   282   284    1
   362   282   283    1
   363  1650  1655   ar
   364  1309  1308   ar
   365  1309  1310   ar
   366  1308  1313   ar
   367   302   281    2
   368   375   374    1
   369   374   376    1
   370   374   372    1
   371  1642  1640    1
   372  1663  1664    1
   373  1663  1665    1
   374  1621  1623    1
   375  1621  1619    1
   376  1623  1624    1
   377  1624  1640    1
   378  1603  1601    1
   379   475   478   ar
   380   475   474   ar
   381   284   286    1
   382   284   285    1
   383   383   389   ar
   384   383   382   ar
   385   611   610   ar
   386   611   605   ar
   387   478   479   ar
   388   440   442    1
   389   286   288    1
   390   389   378    1
   391   610   609   ar
   392  1636  1635   ar
   393   573   575    1
   394   573   571    1
   395  1658  1657   ar
   396   355   354    1
   397   471   472    1
   398   471   473   ar
   399   774   773   ar
   400   576   575    1
   401   332   331    1
   402   350   352    1
   403   772   773   ar
   404  1654  1655   ar
   405  1654  1657   ar
   406   376   378    1
   407   376   377    1
   408   380   382   ar
   409   380   381    1
   410  1665  1666    1
   411  1665  1667    1
   412   500   499    2
   413   370   372    1
   414  1666  1671    1
   415   308   306    1
   416   308   310    1
   417  1310  1311   ar
   418  1600  1599    1
   419   306   307    1
   420   769   770    1
   421   769   767    1
   422  1660  1640    2
   423  1313  1314    1
   424  1313  1312   ar
   425   575   577    1
   426   605   604   ar
   427   605   606   ar
   428  1655  1656    1
   429   474   473   ar
   430   474   480   ar
   431   444   442    1
   432   444   445    1
   433  1640  1661    1
   434   329   331    1
   435   329   330    1
   436   609   606   ar
   437   283   281    1
   438   604   602   ar
   439   479   480   ar
   440   767   768    1
   441   493   499   ar
   442   493   494   ar
   443   442   443    1
   444   372   373    1
   445   354   352    1
   446   354   356    1
   447   378   373    1
   448   331   333    1
   449   499   498   ar
   450   606   607   ar
   451   281   264    1
   452   281   301    1
   453   589   568    2
   454  1619  1620    1
   455   571   569    1
   456   571   572    1
   457   495   494    1
   458   480   469    1
   459   285   290    1
   460  1311  1312   ar
   461  1311  1317   ar
   462   289   288    1
   463   352   353    1
   464   602   603    1
   465   602   601   ar
   466   569   570    1
   467  1331  1332   ar
   468  1331  1330   ar
   469  1601  1599    1
   470  1601  1602    1
   471   365   366   ar
   472   365   363   ar
   473   288   290    1
   474   264   263    1
   475  1312  1315   ar
   476   570   568    1
   477   494   496   ar
   478  1671  1669    1
   479  1671  1672    1
   480  1332  1333   ar
   481  1599  1597    1
   482  1670  1669    1
   483   607   601   ar
   484   607   608    2
   485   366   359   ar
   486   310   311    1
   487   310   312    1
   488   330   335    1
   489   800   799    1
   490  1667  1668    1
   491  1667  1669    1
   492   590   568    1
   493   364   363    2
   494   568   554    1
   495  1620  1618    1
   496   307   312    1
   497   768   784    1
   498  1668  1682    1
   499   498   501   ar
   500   498   497   ar
   501  1602  1618    1
   502   363   362   ar
   503  1330  1335   ar
   504   290   300    1
   505  1616  1596    2
   506   577   572    1
   507   577   588    1
   508   469   464    1
   509   469   467    1
   510   356   358    1
   511   356   357    1
   512  1328  1327    1
   513  1317  1307    1
   514  1317  1316   ar
   515   464   463    1
   516   443   460    1
   517  1679  1672   ar
   518  1679  1678   ar
   519   801   798   ar
   520   801   802   ar
   521   353   358    1
   522   482   460    2
   523   496   497   ar
   524  1307  1302    1
   525  1307  1305    1
   526   501   502   ar
   527  1581  1580    1
   528  1315  1316   ar
   529  1672  1673   ar
   530   266   265    1
   531   799   798   ar
   532   799   794   ar
   533  1394  1393    2
   534   345   344   ar
   535   345   346   ar
   536  1329  1324    1
   537  1329  1339    1
   538  1329  1327    1
   539   333   335    1
   540   333   334    1
   541  1333  1339   ar
   542  1333  1334   ar
   543   359   358    1
   544   359   360   ar
   545   497   503   ar
   546   588   587   ar
   547   588   582   ar
   548   312   323    1
   549   798   797   ar
   550  1306  1305    1
   551  1597  1598    1
   552  1585  1584    1
   553  1324  1323    1
   554   362   360   ar
   555   263   265    1
   556   263   261    1
   557   802   803   ar
   558   587   586   ar
   559   344   341   ar
   560   581   582   ar
   561   581   579   ar
   562   805   784    2
   563  1618  1639    2
   564  1618  1638    1
   565   335   346    1
   566   582   583   ar
   567   322   323   ar
   568   322   321   ar
   569   794   795   ar
   570  1339  1338   ar
   571  1335  1334   ar
   572  1335  1336    1
   573   462   460    1
   574   462   461    1
   575   822   821    1
   576   346   340   ar
   577  1703  1682    2
   578   460   481    1
   579   265   267    1
   580  1302  1301    1
   581   360   361    2
   582  1678  1676   ar
   583  1579  1596    1
   584  1579  1578    1
   585  1327  1325    1
   586  1305  1303    1
   587   580   579    1
   588   323   317   ar
   589   579   578   ar
   590  1395  1393   ar
   591  1395  1396   ar
   592   784   786    1
   593   784   804    1
   594   586   583   ar
   595  1393  1392   ar
   596  1598  1596    1
   597  1334  1337   ar
   598   502   503   ar
   599  1596  1617    1
   600  1682  1704    1
   601  1682  1684    1
   602   583   584   ar
   603   300   299   ar
   604   300   294   ar
   605  1580  1578    1
   606  1580  1582    1
   607   554   553    1
   608   797   803   ar
   609   797   796   ar
   610   503   492    1
   611  1673  1674    2
   612  1673  1675   ar
   613   803   793    1
   614   321   318   ar
   615   467   465    1
   616   467   468    1
   617   461   463    1
   618  1414  1413    2
   619   463   465    1
   620   578   584   ar
   621  1323  1325    1
   622  1323  1321    1
   623   795   796   ar
   624   341   340   ar
   625   341   342   ar
   626   788   793    1
   627   788   787    1
   628   816   821   ar
   629   816   817   ar
   630   584   585    2
   631   299   298   ar
   632   821   820   ar
   633   261   259    1
   634   261   262    1
   635  1584  1586   ar
   636  1584  1583   ar
   637   340   339   ar
   638  1586  1587   ar
   639  1683  1684    1
   640  1683  1685    1
   641  1338  1337   ar
   642   786   785    1
   643  1578  1576    1
   644  1397  1396    1
   645   317   318   ar
   646   317   316   ar
   647  1396  1398   ar
   648   465   466    1
   649   259   260    1
   650   793   791    1
   651  1676  1675   ar
   652  1676  1677    1
   653  1392  1391    1
   654  1392  1399   ar
   655  1413  1415   ar
   656  1413  1412   ar
   657  1391  1386    1
   658  1391  1389    1
   659   318   319   ar
   660  1325  1326    1
   661  1411  1406    1
   662  1411  1412    1
   663  1411  1409    1
   664   294   293   ar
   665   294   295   ar
   666  1410  1409    1
   667   785   787    1
   668   492   487    1
   669   492   490    1
   670   293   292   ar
   671   342   343    2
   672   342   336   ar
   673  1301  1303    1
   674  1301  1299    1
   675   553   555    1
   676   553   551    1
   677   817   818   ar
   678  1582  1593    1
   679  1582  1577    1
   680  1415  1416   ar
   681   556   555    1
   682   339   337   ar
   683   566   548    2
   684   316   314   ar
   685  1303  1304    1
   686  1406  1405    1
   687  1326  1342    1
   688   567   548    1
   689  1321  1322    1
   690   267   262    1
   691   267   278    1
   692  1412  1419   ar
   693   820   823   ar
   694   820   819   ar
   695   487   486    1
   696  1390  1389    1
   697   555   557    1
   698  1360  1342    2
   699  1386  1385    1
   700  1583  1589   ar
   701  1576  1577    1
   702  1576  1574    1
   703   787   789    1
   704   298   295   ar
   705  1587  1593   ar
   706  1587  1588   ar
   707   823   824   ar
   708   260   258    1
   709  1686  1685    1
   710  1686  1691    1
   711  1685  1687    1
   712  1398  1399   ar
   713  1300  1299    1
   714  1300  1298    1
   715   319   320    2
   716   319   313   ar
   717  1409  1407    1
   718   336   337   ar
   719  1389  1387    1
   720   337   338    1
   721  1361  1342    1
   722  1416  1417    1
   723  1416  1418   ar
   724  1593  1592   ar
   725   548   550    1
   726   548   534    1
   727   818   819   ar
   728  1342  1344    1
   729   295   296   ar
   730   819   825   ar
   731  1419  1418   ar
   732   314   313   ar
   733   314   315    1
   734   279   258    2
   735  1304  1320    1
   736  1322  1320    1
   737   292   291   ar
   738   280   258    1
   739   550   549    1
   740  1562  1561    1
   741  1319  1298    2
   742   278   277   ar
   743   278   272   ar
   744   466   483    1
   745  1405  1407    1
   746  1405  1403    1
   747   505   483    2
   748   490   491    1
   749   490   488    1
   750   791   789    1
   751   791   792    1
   752   551   549    1
   753   551   552    1
   754   258   242    1
   755   824   825   ar
   756   789   790    1
   757   485   483    1
   758   485   484    1
   759  1589  1588   ar
   760  1589  1590    2
   761  1588  1591   ar
   762  1574  1575    1
   763   277   276   ar
   764  1385  1387    1
   765  1385  1383    1
   766   271   272   ar
   767   271   269   ar
   768   825   815    1
   769   486   484    1
   770   486   488    1
   771  1298  1318    1
   772  1298  1284    1
   773   843   842    1
   774   272   273   ar
   775   547   528    2
   776   557   558    1
   777   557   552    1
   778  1426  1431    1
   779  1426  1425    1
   780  1701  1702   ar
   781  1701  1700   ar
   782   546   528    1
   783   483   504    1
   784  1407  1408    1
   785   565   558   ar
   786   565   564   ar
   787   558   559   ar
   788  1691  1702    1
   789  1691  1689    1
   790  1434  1433    2
   791  1592  1591   ar
   792  1430  1429    1
   793   296   291   ar
   794   296   297    1
   795  1320  1340    2
   796  1320  1341    1
   797  1687  1688    1
   798  1687  1689    1
   799  1387  1388    1
   800  1561  1560   ar
   801  1561  1563   ar
   802  1560  1566   ar
   803   564   562   ar
   804  1431  1432    1
   805  1431  1429    1
   806  1403  1404    1
   807   559   560    2
   808   559   561   ar
   809   488   489    1
   810   270   269    1
   811  1425  1423    1
   812  1425  1427    1
   813   269   268   ar
   814   841   842   ar
   815   841   839   ar
   816   534   533    1
   817   561   562   ar
   818   562   563    2
   819  1702  1696   ar
   820   276   273   ar
   821  1688  1705    1
   822  1344  1343    1
   823  1700  1697   ar
   824  1383  1384    1
   825   842   844   ar
   826   273   274   ar
   827   528   530    1
   828   528   512    1
   829  1408  1422    1
   830   815   810    1
   831   815   813    1
   832  1358  1359   ar
   833  1358  1356   ar
   834  1404  1402    1
   835  1433  1432   ar
   836  1433  1435   ar
   837  1423  1424    1
   838  1575  1573    1
   839   256   236    2
   840   790   806    1
   841  1432  1439   ar
   842   810   809    1
   843  1689  1690    1
   844  1357  1356    2
   845  1429  1427    1
   846   242   241    1
   847   840   839    2
   848  1388  1402    1
   849  1384  1382    1
   850  1567  1566    2
   851  1284  1283    1
   852   861   859   ar
   853   861   862   ar
   854  1563  1564   ar
   855   863   862    1
   856   860   859    2
   857  1566  1565   ar
   858   839   838   ar
   859   268   274   ar
   860  1343  1345    1
   861  1724  1705    2
   862   257   236    1
   863  1435  1436   ar
   864   533   535    1
   865   533   531    1
   866   526   506    2
   867  1359  1352   ar
   868   274   275    2
   869  1356  1355   ar
   870   827   806    2
   871  1696  1697   ar
   872  1696  1695   ar
   873  1427  1428    1
   874   530   529    1
   875  1697  1698   ar
   876  1286  1285    1
   877  1705  1723    1
   878  1705  1707    1
   879   859   858   ar
   880  1424  1422    1
   881   234   213    2
   882   862   864   ar
   883   844   845   ar
   884   489   506    1
   885  1428  1442    1
   886  1439  1438   ar
   887   236   238    1
   888   236   219    1
   889   880   879    2
   890   512   511    1
   891   529   531    1
   892  1402  1421    2
   893  1402  1420    1
   894   238   237    1
   895   241   243    1
   896   241   239    1
   897  1594  1573    2
   898  1564  1565   ar
   899  1564  1570   ar
   900   806   808    1
   901   806   826    1
   902  1422  1440    2
   903  1422  1441    1
   904  1565  1568   ar
   905  1573  1595    1
   906  1573  1556    1
   907   813   814    1
   908   813   811    1
   909   808   807    1
   910  1436  1438   ar
   911  1436  1437    2
   912   838   845   ar
   913   838   837    1
   914  1285  1283    1
   915  1285  1287    1
   916  1283  1281    1
   917  1695  1693   ar
   918   535   536    1
   919   535   537    1
   920   531   532    1
   921   809   807    1
   922   809   811    1
   923   506   508    1
   924   506   527    1
   925   237   239    1
   926  1444  1442    1
   927  1444  1443    1
   928  1382  1400    2
   929  1382  1401    1
   930  1382  1368    1
   931  1698  1699    2
   932  1698  1692   ar
   933  1558  1557    1
   934  1557  1559    1
   935  1557  1555    1
   936   235   213    1
   937   879   881   ar
   938   879   878   ar
   939   858   865   ar
   940   858   857    1
   941  1345  1346    1
   942  1345  1347    1
   943   864   865   ar
   944  1450  1449    1
   945  1352  1351    1
   946  1352  1353   ar
   947   511   509    1
   948   511   513    1
   949   213   215    1
   950   213   197    1
   951   243   244    1
   952   243   245    1
   953   507   508    1
   954   507   509    1
   955  1355  1353   ar
   956   881   882   ar
   957   254   253   ar
   958   254   255   ar
   959  1446  1445    1
   960  1446  1451    1
   961   545   544   ar
   962   545   538   ar
   963   544   542   ar
   964   811   812    1
   965   896   895    1
   966   239   240    1
   967  1707  1706    1
   968  1445  1443    1
   969  1445  1447    1
   970  1346  1351    1
   971   876   875    1
   972   837   832    1
   973   837   835    1
   974  1570  1559    1
   975  1570  1569   ar
   976  1442  1463    2
   977  1442  1464    1
   978   253   250   ar
   979  1454  1453    1
   980  1568  1569   ar
   981  1693  1692   ar
   982  1693  1694    1
   983  1721  1722   ar
   984  1721  1719   ar
   985   219   218    1
   986  1451  1449    1
   987  1451  1462    1
   988  1556  1555    1
   989   900   899    1
   990  1368  1367    1
   991   857   852    1
   992   857   855    1
   993   877   878    1
   994   877   875    1
   995   877   872    1
   996   212   191    2
   997  1347  1349    1
   998  1347  1348    1
   999  1290  1289    2
  1000   897   892    1
  1001   897   895    1
  1002   897   908    1
  1003   892   891    1
  1004  1484  1465    2
  1005   538   537    1
  1006   538   539   ar
  1007  1455  1453   ar
  1008  1455  1456   ar
  1009  1281  1279    1
  1010  1281  1282    1
  1011  1559  1554    1
  1012   537   532    1
  1013   509   510    1
  1014   542   543    1
  1015   542   541   ar
  1016  1706  1708    1
  1017  1349  1351    1
  1018  1349  1350    1
  1019  1453  1452   ar
  1020  1720  1719    2
  1021   878   885   ar
  1022  1555  1553    1
  1023  1353  1354    2
  1024   901   899   ar
  1025   901   902   ar
  1026   215   214    1
  1027  1448  1447    1
  1028  1448  1465    1
  1029   832   831    1
  1030  1722  1715   ar
  1031  1287  1282    1
  1032  1287  1288    1
  1033  1449  1447    1
  1034   899   898   ar
  1035   197   196    1
  1036   882   883    1
  1037   882   884   ar
  1038  1719  1718   ar
  1039   875   873    1
  1040  1462  1456   ar
  1041  1462  1461   ar
  1042  1456  1457   ar
  1043   539   541   ar
  1044   539   540    2
  1045   872   871    1
  1046   255   245    1
  1047   255   249   ar
  1048   211   191    1
  1049   513   514    1
  1050   513   515    1
  1051   895   893    1
  1052   852   851    1
  1053  1452  1458   ar
  1054  1483  1465    1
  1055   245   240    1
  1056  1279  1280    1
  1057   891   889    1
  1058   891   893    1
  1059  1348  1362    1
  1060   218   216    1
  1061   218   220    1
  1062  1465  1467    1
  1063   908   902   ar
  1064   908   907   ar
  1065   835   836    1
  1066   835   833    1
  1067  1289  1288   ar
  1068  1289  1291   ar
  1069   214   216    1
  1070   902   903   ar
  1071   856   855    1
  1072  1709  1708    1
  1073  1709  1714    1
  1074   855   853    1
  1075   191   193    1
  1076   191   175    1
  1077   812   828    1
  1078   250   249   ar
  1079   250   251   ar
  1080  1296  1278    2
  1081  1370  1369    1
  1082  1280  1278    1
  1083  1288  1295   ar
  1084  1457  1458   ar
  1085  1457  1460   ar
  1086  1461  1460   ar
  1087  1458  1459    2
  1088   885   884   ar
  1089   915   914    1
  1090   915   920    1
  1091   898   904   ar
  1092  1708  1710    1
  1093  1367  1369    1
  1094  1367  1365    1
  1095   847   828    2
  1096  1545  1544    1
  1097   919   918    1
  1098   193   192    1
  1099   192   194    1
  1100  1715  1714    1
  1101  1715  1716   ar
  1102   914   912    1
  1103   914   916    1
  1104   252   251    1
  1105  1554  1553    1
  1106   510   515    1
  1107  1291  1292   ar
  1108   889   890    1
  1109   249   248   ar
  1110   893   894    1
  1111   871   873    1
  1112   871   869    1
  1113   216   217    1
  1114  1553  1551    1
  1115   907   906   ar
  1116  1718  1716   ar
  1117   912   913    1
  1118   903   904   ar
  1119   903   906   ar
  1120   196   194    1
  1121   196   198    1
  1122   830   828    1
  1123   830   829    1
  1124   920   918    1
  1125   920   931    1
  1126  1278  1297    1
  1127  1278  1264    1
  1128   831   833    1
  1129   831   829    1
  1130   894   911    1
  1131   515   525    1
  1132  1369  1371    1
  1133   251   246   ar
  1134   524   525   ar
  1135   524   523   ar
  1136   873   874    1
  1137   833   834    1
  1138   220   221    1
  1139   220   222    1
  1140   828   846    1
  1141   904   905    2
  1142  1295  1294   ar
  1143  1714  1712    1
  1144   173   172    1
  1145   173   178    1
  1146   851   853    1
  1147   851   849    1
  1148   194   195    1
  1149   525   519   ar
  1150   232   231   ar
  1151   232   233   ar
  1152  1716  1717    2
  1153  1365  1363    1
  1154  1365  1366    1
  1155   853   854    1
  1156  1543  1544   ar
  1157  1543  1541   ar
  1158   175   174    1
  1159  1363  1364    1
  1160   523   520   ar
  1161   231   228   ar
  1162  1544  1546   ar
  1163  1552  1551    1
  1164  1552  1550    1
  1165  1467  1466    1
  1166  1292  1294   ar
  1167  1292  1293    1
  1168  1362  1364    1
  1169  1362  1380    2
  1170  1362  1381    1
  1171   181   180   ar
  1172   181   182   ar
  1173   918   916    1
  1174   172   174    1
  1175   172   170    1
  1176   874   888    1
  1177  1710  1712    1
  1178  1710  1711    1
  1179   180   179   ar
  1180   890   888    1
  1181   178   188    1
  1182   178   176    1
  1183   913   911    1
  1184   916   917    1
  1185   931   930   ar
  1186   931   925   ar
  1187   917   934    1
  1188   248   247   ar
  1189   869   870    1
  1190   519   520   ar
  1191   519   518   ar
  1192   217   222    1
  1193   850   849    1
  1194   850   848    1
  1195  1572  1550    2
  1196  1524  1523    2
  1197  1506  1485    2
  1198   520   521   ar
  1199   174   176    1
  1200   199   198    1
  1201   198   200    1
  1202   233   222    1
  1203   233   227   ar
  1204   177   176    1
  1205  1501  1500    1
  1206   246   247   ar
  1207   924   925   ar
  1208   924   922   ar
  1209   911   932    2
  1210   911   933    1
  1211  1740  1739    2
  1212  1481  1479   ar
  1213  1481  1482   ar
  1214  1480  1479    1
  1215  1712  1713    1
  1216   834   848    1
  1217  1264  1263    1
  1218   930   929   ar
  1219  1542  1541    2
  1220   518   517   ar
  1221   182   188   ar
  1222   182   183   ar
  1223   935   937    1
  1224   935   936    1
  1225  1541  1540   ar
  1226   925   926   ar
  1227  1371  1366    1
  1228  1371  1372    1
  1229   179   184   ar
  1230  1550  1571    1
  1231  1550  1536    1
  1232  1744  1725    2
  1233  1711  1725    1
  1234   938   937    1
  1235   938   943    1
  1236   228   227   ar
  1237   228   229   ar
  1238   867   848    2
  1239   870   868    1
  1240  1466  1468    1
  1241   188   187   ar
  1242  1546  1547   ar
  1243   170   171    1
  1244   854   868    1
  1245   937   939    1
  1246   888   909    2
  1247   888   910    1
  1248   521   522    1
  1249   521   516   ar
  1250   195   200    1
  1251   923   922    1
  1252  1502  1503   ar
  1253  1502  1499   ar
  1254   922   921   ar
  1255   848   866    1
  1256   227   226   ar
  1257  1479  1478   ar
  1258  1482  1475   ar
  1259   230   229    2
  1260   517   516   ar
  1261  1523  1517   ar
  1262  1523  1522   ar
  1263  1374  1373    2
  1264  1505  1485    1
  1265  1739  1741   ar
  1266  1739  1738   ar
  1267   952   934    2
  1268   229   223   ar
  1269  1266  1265    1
  1270  1741  1742   ar
  1271   929   926   ar
  1272  1485  1471    1
  1273  1485  1487    1
  1274   926   927   ar
  1275   934   936    1
  1276   934   953    1
  1277   200   210    1
  1278   942   941    1
  1279   183   184   ar
  1280   183   186   ar
  1281   184   185    1
  1282  1725  1743    1
  1283  1725  1727    1
  1284  1500  1499   ar
  1285  1500  1495   ar
  1286  1265  1263    1
  1287  1265  1267    1
  1288  1263  1261    1
  1289  1540  1547   ar
  1290  1540  1539    1
  1291   943   941    1
  1292   943   944    1
  1293  1517  1518   ar
  1294   868   887    2
  1295   868   886    1
  1296   187   186   ar
  1297  1372  1373   ar
  1298  1372  1379   ar
  1299  1470  1471    1
  1300  1470  1468    1
  1301  1470  1472    1
  1302  1503  1504   ar
  1303  1499  1498   ar
  1304  1529  1507    2
  1305   209   210   ar
  1306   209   208   ar
  1307   921   927   ar
  1308  1537  1535    1
  1309  1537  1538    1
  1310  1537  1539    1
  1311  1373  1375   ar
  1312  1468  1469    1
  1313   210   204   ar
  1314   226   224   ar
  1315   171   169    1
  1316  1536  1535    1
  1317   927   928    2
  1318  1525  1522   ar
  1319  1525  1526   ar
  1320  1522  1521   ar
  1321   939   940    1
  1322   939   941    1
  1323   940   954    1
  1324  1535  1533    1
  1325  1762  1761    2
  1326  1738  1736   ar
  1327  1478  1476   ar
  1328   223   224   ar
  1329  1742  1735   ar
  1330  1475  1476   ar
  1331  1475  1474    1
  1332  1549  1530    2
  1333   208   205   ar
  1334  1784  1783    1
  1335   951   944   ar
  1336   951   950   ar
  1337  1469  1474    1
  1338  1486  1487    1
  1339  1486  1488    1
  1340  1379  1378   ar
  1341  1800  1801   ar
  1342  1800  1805   ar
  1343  1495  1496   ar
  1344   944   945   ar
  1345  1539  1534    1
  1346  1801  1802   ar
  1347   224   225    1
  1348  1727  1726    1
  1349  1518  1519    1
  1350  1518  1520   ar
  1351  1270  1269    2
  1352   204   205   ar
  1353   204   203   ar
  1354  1476  1477    2
  1355  1472  1474    1
  1356  1472  1473    1
  1357  1261  1259    1
  1358  1261  1262    1
  1359  1842  1841    1
  1360   190   169    2
  1361  1375  1376   ar
  1362  1267  1268    1
  1363  1267  1262    1
  1364  1269  1268   ar
  1365  1269  1271   ar
  1366  1504  1498   ar
  1367  1504  1494    1
  1368   205   206   ar
  1369  1498  1497   ar
  1370  1532  1530    1
  1371  1532  1531    1
  1372  1823  1824   ar
  1373  1823  1822   ar
  1374  1268  1275   ar
  1375  1271  1272   ar
  1376  1526  1527   ar
  1377  1507  1528    1
  1378  1507  1509    1
  1379  1507  1491    1
  1380   203   202   ar
  1381  1521  1520   ar
  1382  1521  1527   ar
  1383  1736  1735   ar
  1384  1736  1737    2
  1385  1735  1734    1
  1386  1820  1819    1
  1387  1824  1825   ar
  1388   157   156    1
  1389   950   948   ar
  1390   169   155    1
  1391   169   189    1
  1392  1778  1783   ar
  1393  1778  1779   ar
  1394  1260  1259    1
  1395  1260  1258    1
  1396  1275  1274   ar
  1397  1272  1273    1
  1398  1272  1274   ar
  1399  1761  1755   ar
  1400  1761  1760   ar
  1401   974   954    2
  1402  1530  1548    1
  1403  1530  1513    1
  1404  1783  1782   ar
  1405   945   946    2
  1406   945   947   ar
  1407  1378  1376   ar
  1408  1806  1805    1
  1409   954   975    1
  1410   954   956    1
  1411  1490  1488    1
  1412  1490  1491    1
  1413  1490  1492    1
  1414  1802  1803   ar
  1415  1805  1804   ar
  1416   155   154    1
  1417  1534  1533    1
  1418  1533  1531    1
  1419  1488  1489    1
  1420  1496  1497   ar
  1421  1489  1494    1
  1422  1276  1258    2
  1423  1726  1728    1
  1424  1838  1843    1
  1425  1838  1837    1
  1426  1376  1377    2
  1427   206   207    1
  1428   206   201   ar
  1429  1729  1734    1
  1430  1729  1728    1
  1431  1509  1508    1
  1432  1822  1827   ar
  1433  1527  1516    1
  1434  1843  1841    1
  1435  1843  1854    1
  1436   202   201   ar
  1437  1837  1835    1
  1438  1837  1839    1
  1439  1755  1756   ar
  1440  1277  1258    1
  1441  1763  1760   ar
  1442  1763  1764   ar
  1443  1494  1492    1
  1444  1258  1241    1
  1445  1841  1839    1
  1446  1821  1819    1
  1447  1821  1816    1
  1448  1821  1831    1
  1449   948   947   ar
  1450   948   949    1
  1451   156   154    1
  1452   156   158    1
  1453  1760  1759   ar
  1454  1858  1860    1
  1455  1858  1859    1
  1456  1734  1732    1
  1457  1819  1817    1
  1458  1779  1780   ar
  1459  1825  1831   ar
  1460  1825  1826   ar
  1461  1861  1860    1
  1462  1861  1866    1
  1463  1860  1862    1
  1464  1846  1845    1
  1465   955   956    1
  1466   955   957    1
  1467  1492  1493    1
  1468  1847  1845   ar
  1469  1847  1848   ar
  1470  1835  1836    1
  1471  1803  1804   ar
  1472  1803  1809   ar
  1473  1728  1730    1
  1474  1512  1513    1
  1475  1512  1514    1
  1476  1512  1510    1
  1477  1782  1785   ar
  1478  1782  1781   ar
  1479  1840  1839    1
  1480  1840  1857    1
  1481  1804  1807   ar
  1482   154   152    1
  1483  1816  1815    1
  1484  1831  1830   ar
  1485  1514  1516    1
  1486  1514  1515    1
  1487  1854  1848   ar
  1488  1854  1853   ar
  1489  1845  1844   ar
  1490  1827  1826   ar
  1491  1827  1828    1
  1492   161   160    2
  1493  1865  1864    1
  1494  1785  1786   ar
  1495  1516  1511    1
  1496   958   957    1
  1497   958   963    1
  1498  1730  1732    1
  1499  1730  1731    1
  1500  1848  1849   ar
  1501  1508  1510    1
  1502  1756  1757    1
  1503  1756  1758   ar
  1504  1764  1765   ar
  1505  1866  1864    1
  1506  1866  1876    1
  1507  1826  1829   ar
  1508   957   959    1
  1509  1247  1246    1
  1510  1815  1817    1
  1511  1815  1813    1
  1512  1877  1857    2
  1513  1732  1733    1
  1514  1859  1857    1
  1515   158   153    1
  1516   158   159    1
  1517  1759  1758   ar
  1518  1759  1765   ar
  1519  1780  1781   ar
  1520   152   153    1
  1521   152   150    1
  1522  1510  1511    1
  1523  1781  1787   ar
  1524  1817  1818    1
  1525  1767  1745    2
  1526  1241  1240    1
  1527  1863  1862    1
  1528  1863  1879    1
  1529  1862  1864    1
  1530  1245  1246   ar
  1531  1245  1251   ar
  1532  1857  1878    1
  1533  1809  1799    1
  1534  1809  1808   ar
  1535  1818  1834    1
  1536  1836  1834    1
  1537   972   971   ar
  1538   972   973   ar
  1539  1246  1248   ar
  1540  1807  1808   ar
  1541  1853  1852   ar
  1542  1252  1251    2
  1543   160   159   ar
  1544   160   162   ar
  1545  1798  1797    1
  1546   971   968   ar
  1547  1844  1850   ar
  1548  1830  1829   ar
  1549  1251  1250   ar
  1550  1765  1754    1
  1551  1799  1797    1
  1552  1799  1794    1
  1553  1849  1852   ar
  1554  1849  1850   ar
  1555  1786  1787   ar
  1556  1876  1875   ar
  1557  1876  1870   ar
  1558   159   166   ar
  1559  1731  1745    1
  1560   963   973    1
  1561   963   961    1
  1562  1240  1242    1
  1563  1240  1238    1
  1564  1248  1249   ar
  1565  1797  1795    1
  1566   973   967   ar
  1567  1242  1243    1
  1568  1242  1244    1
  1569   150   151    1
  1570  1834  1855    2
  1571  1834  1856    1
  1572  1787  1777    1
  1573  1250  1249   ar
  1574  1250  1253   ar
  1575   162   163   ar
  1576  1813  1814    1
  1577  1850  1851    2
  1578  1897  1879    2
  1579  1875  1874   ar
  1580  1249  1255   ar
  1581   968   967   ar
  1582   968   969   ar
  1583  1745  1747    1
  1584  1745  1766    1
  1585  1869  1870   ar
  1586  1869  1868   ar
  1587   959   960    1
  1588   959   961    1
  1589  1870  1871   ar
  1590  1879  1881    1
  1591  1879  1898    1
  1592   970   969    1
  1593   967   966   ar
  1594  1880  1881    1
  1595  1880  1882    1
  1596  1253  1254   ar
  1597   969   964   ar
  1598  1747  1746    1
  1599  1794  1793    1
  1600   151   149    1
  1601   960   976    1
  1602  1255  1254   ar
  1603  1255  1244    1
  1604   166   165   ar
  1605   961   962    1
  1606  1754  1749    1
  1607  1754  1752    1
  1608  1257  1235    2
  1609  1814  1812    1
  1610  1868  1867   ar
  1611  1237  1235    1
  1612  1237  1236    1
  1613  1256  1235    1
  1614  1749  1748    1
  1615  1244  1239    1
  1616   163   165   ar
  1617   163   164    1
  1618  1874  1871   ar
  1619  1238  1236    1
  1620  1238  1239    1
  1621   966   965   ar
  1622  1871  1872   ar
  1623   167   149    2
  1624  1883  1882    1
  1625  1883  1888    1
  1626  1795  1793    1
  1627  1795  1796    1
  1628  1777  1775    1
  1629  1777  1772    1
  1630  1882  1884    1
  1631   964   965   ar
  1632  1235  1221    1
  1633  1793  1791    1
  1634  1746  1748    1
  1635  1752  1750    1
  1636  1752  1753    1
  1637  1796  1812    1
  1638   149   168    1
  1639   149   135    1
  1640  1867  1872   ar
  1641  1775  1776    1
  1642  1775  1773    1
  1643   997   976    2
  1644  1872  1873    1
  1645  1750  1748    1
  1646  1750  1751    1
  1647   976   996    1
  1648   976   978    1
  1649  1772  1771    1
  1650  1812  1832    2
  1651  1812  1833    1
  1652    22     1    1
  1653   137   136    1
  1654  1789  1768    2
  1655  1888  1889    1
  1656  1888  1886    1
  1657   992   991    1
  1658  1896  1889   ar
  1659  1896  1895   ar
  1660   141   140    2
  1661  1884  1885    1
  1662  1884  1886    1
  1663   135   134    1
  1664   136   134    1
  1665   136   138    1
  1666  1773  1771    1
  1667  1773  1774    1
  1668  1230  1229    2
  1669  1221  1220    1
  1670  1791  1792    1
  1671  1889  1890   ar
  1672  1792  1790    1
  1673  1895  1893   ar
  1674   993   990   ar
  1675   993   994   ar
  1676  1885  1899    1
  1677   978   977    1
  1678  1887  1886    1
  1679  1771  1769    1
  1680  1751  1768    1
  1681   991   990   ar
  1682   991   986   ar
  1683   140   142   ar
  1684   140   139   ar
  1685  1229  1231   ar
  1686  1229  1228   ar
  1687   990   989   ar
  1688  1768  1770    1
  1689  1768  1788    1
  1690   134   132    1
  1691  1220  1222    1
  1692  1220  1218    1
  1693  1231  1232   ar
  1694   142   143   ar
  1695   994   995   ar
  1696  1770  1769    1
  1697  1811  1790    2
  1698     1    23    1
  1699     1     3    1
  1700   986   987   ar
  1701   977   979    1
  1702     2     3    1
  1703     2     4    1
  1704  1228  1226   ar
  1705   138   139    1
  1706   138   133    1
  1707  1774  1790    1
  1708  1890  1891    2
  1709  1890  1892   ar
  1710  1190  1169    2
  1711    45    24    2
  1712   139   146   ar
  1713  1790  1810    1
  1714  1893  1892   ar
  1715  1893  1894    2
  1716  1232  1225   ar
  1717   980   979    1
  1718   980   985    1
  1719  1234  1215    2
  1720  1216  1218    1
  1721  1216  1217    1
  1722   989   995   ar
  1723   989   988   ar
  1724  1222  1223    1
  1725  1222  1224    1
  1726   143   144    2
  1727   143   145   ar
  1728   995   985    1
  1729  1191  1169    1
  1730  1167  1149    2
  1731  1920  1899    2
  1732  1899  1921    1
  1733  1899  1901    1
  1734  1226  1225   ar
  1735  1226  1227    2
  1736   987   988   ar
  1737  1225  1224    1
  1738  1218  1219    1
  1739  1214  1192    2
  1740   132   133    1
  1741   132   130    1
  1742   979   981    1
  1743   146   145   ar
  1744     4     6    1
  1745     4     5    1
  1746  1169  1155    1
  1747  1169  1171    1
  1748    46    24    1
  1749   985   983    1
  1750     7    24    1
  1751     7     6    1
  1752    24    26    1
  1753  1224  1219    1
  1754  1233  1215    1
  1755  1215  1217    1
  1756  1215  1198    1
  1757  1013  1012    1
  1758  1900  1901    1
  1759  1900  1902    1
  1760  1149  1168    1
  1761  1149  1151    1
  1762  1149  1133    1
  1763     6     8    1
  1764  1213  1192    1
  1765  1155  1154    1
  1766  1016   998    2
  1767     5    10    1
  1768   130   131    1
  1769  1192  1175    1
  1770  1192  1194    1
  1771   131   129    1
  1772  1014  1012   ar
  1773  1014  1015   ar
  1774   981   983    1
  1775   981   982    1
  1776  1171  1170    1
  1777  1012  1011   ar
  1778  1209  1208    2
  1779  1151  1150    1
  1780   117   118   ar
  1781   117   122   ar
  1782  1903  1902    1
  1783  1903  1908    1
  1784   123   122    1
  1785  1150  1152    1
  1786   983   984    1
  1787  1902  1904    1
  1788    26    25    1
  1789  1170  1172    1
  1790   118   119   ar
  1791  1154  1152    1
  1792  1154  1156    1
  1793  1015  1008   ar
  1794  1918  1917   ar
  1795  1918  1919   ar
  1796  1011  1009   ar
  1797   122   121   ar
  1798  1198  1197    1
  1799  1208  1207   ar
  1800  1208  1202   ar
  1801  1210  1207   ar
  1802  1210  1211   ar
  1803  1917  1914   ar
  1804  1175  1174    1
  1805  1133  1132    1
  1806     9     8    1
  1807    25    27    1
  1808  1194  1193    1
  1809     8    10    1
  1810  1207  1206   ar
  1811   148   129    2
  1812   998   982    1
  1813   998  1017    1
  1814   998  1000    1
  1815    10    21    1
  1816  1152  1153    1
  1817  1197  1199    1
  1818  1197  1195    1
  1819   129   147    1
  1820   129   113    1
  1821  1202  1203   ar
  1822  1008  1009   ar
  1823  1008  1007    1
  1824  1174  1172    1
  1825  1174  1176    1
  1826  1009  1010    2
  1827  1211  1212   ar
  1828  1187  1188   ar
  1829  1187  1184   ar
  1830  1919  1908    1
  1831  1919  1913   ar
  1832  1908  1906    1
  1833   119   120   ar
  1834    20    21   ar
  1835    20    19   ar
  1836   121   120   ar
  1837   121   124   ar
  1838  1188  1189   ar
  1839  1002  1007    1
  1840  1002  1001    1
  1841  1172  1173    1
  1842  1186  1185    2
  1843  1199  1200    1
  1844  1199  1201    1
  1845  1914  1913   ar
  1846  1914  1915   ar
  1847  1206  1212   ar
  1848  1206  1205   ar
  1849   120   126   ar
  1850  1156  1157    1
  1851  1156  1158    1
  1852  1007  1005    1
  1853  1904  1905    1
  1854  1904  1906    1
  1855  1212  1201    1
  1856    21    15   ar
  1857  1203  1205   ar
  1858  1203  1204    1
  1859    66    47    2
  1860  1165  1166   ar
  1861  1165  1163   ar
  1862  1166  1159   ar
  1863  1193  1195    1
  1864  1000   999    1
  1865  1913  1912   ar
  1866  1184  1185   ar
  1867  1184  1183   ar
  1868   124   125   ar
  1869  1916  1915    2
  1870  1132  1134    1
  1871  1132  1130    1
  1872  1185  1179   ar
  1873   114   115    1
  1874   114   112    1
  1875   114   116    1
  1876  1153  1158    1
  1877   102   101    2
  1878  1195  1196    1
  1879  1915  1909   ar
  1880  1033  1032    1
  1881    19    16   ar
  1882    27    29    1
  1883    27    28    1
  1884   113   112    1
  1885  1176  1178    1
  1886  1176  1177    1
  1887  1189  1183   ar
  1888  1189  1178    1
  1889  1173  1178    1
  1890  1135  1134    1
  1891  1905  1922    1
  1892  1906  1907    1
  1893   999  1001    1
  1894  1201  1196    1
  1895    65    47    1
  1896   126   125   ar
  1897   126   116    1
  1898  1163  1164    2
  1899  1163  1162   ar
  1900  1159  1158    1
  1901  1159  1160   ar
  1902   112   110    1
  1903  1001  1003    1
  1904    30    47    1
  1905    30    29    1
  1906  1183  1182   ar
  1907    47    49    1
  1908  1128  1130    1
  1909  1128  1129    1
  1910  1134  1136    1
  1911    29    31    1
  1912  1130  1131    1
  1913    43    42   ar
  1914    43    44   ar
  1915  1912  1910   ar
  1916  1147  1127    2
  1917    28    33    1
  1918  1943  1922    2
  1919    42    39   ar
  1920  1179  1180   ar
  1921  1032  1031   ar
  1922  1032  1034   ar
  1923   116   111    1
  1924    15    16   ar
  1925    15    14   ar
  1926  1909  1910   ar
  1927   101   100   ar
  1928   101   103   ar
  1929  1129  1127    1
  1930  1005  1003    1
  1931  1005  1006    1
  1932  1162  1160   ar
  1933    16    17   ar
  1934  1031  1029   ar
  1935  1160  1161    2
  1936  1910  1911    1
  1937   100    98   ar
  1938  1922  1942    1
  1939  1922  1924    1
  1940  1034  1035   ar
  1941  1182  1180   ar
  1942  1003  1004    1
  1943  1180  1181    1
  1944  1127  1148    1
  1945  1127  1111    1
  1946  1938  1937    1
  1947    82    81    2
  1948    44    33    1
  1949    44    38   ar
  1950    14    12   ar
  1951   103   104   ar
  1952  1054  1053    1
  1953    33    31    1
  1954  1939  1940   ar
  1955  1939  1936   ar
  1956   110   111    1
  1957   110   108    1
  1958  1131  1136    1
  1959    49    48    1
  1960   128   107    2
  1961  1029  1030    2
  1962  1029  1028   ar
  1963  1136  1146    1
  1964    31    32    1
  1965    39    38   ar
  1966    39    40   ar
  1967  1035  1028   ar
  1968   109   108    1
  1969   109   107    1
  1970    98    99    2
  1971    98    97   ar
  1972    62    61    1
  1973    86    67    2
  1974    63    61   ar
  1975    63    64   ar
  1976  1940  1941   ar
  1977  1937  1936   ar
  1978  1937  1932   ar
  1979    17    18    2
  1980    17    11   ar
  1981  1048  1053   ar
  1982  1048  1049   ar
  1983  1028  1027    1
  1984    41    40    2
  1985  1924  1923    1
  1986  1936  1935   ar
  1987  1053  1052   ar
  1988    81    83   ar
  1989    81    80   ar
  1990  1146  1145   ar
  1991  1146  1140   ar
  1992    38    37   ar
  1993  1004  1018    1
  1994   104    97   ar
  1995  1145  1144   ar
  1996    40    34   ar
  1997    83    84   ar
  1998   107   127    1
  1999   107    93    1
  2000    61    60   ar
  2001  2019  2018    1
  2002    12    11   ar
  2003    12    13    1
  2004    97    96    1
  2005  1111  1110    1
  2006    48    50    1
  2007    64    57   ar
  2008  1049  1050   ar
  2009  1923  1925    1
  2010  1932  1933   ar
  2011  1140  1139   ar
  2012  1140  1141   ar
  2013  1072  1071    1
  2014  1139  1138   ar
  2015  1022  1027    1
  2016  1022  1021    1
  2017  1027  1025    1
  2018  1941  1935   ar
  2019  1941  1931    1
  2020  1935  1934   ar
  2021  1926  1931    1
  2022  1926  1925    1
  2023  1961  1960    2
  2024  1144  1141   ar
  2025  1052  1055   ar
  2026  1052  1051   ar
  2027    80    78   ar
  2028  1070  1071   ar
  2029  1070  1076   ar
  2030    67    85    1
  2031    67    53    1
  2032    67    69    1
  2033   106    87    2
  2034    94    92    1
  2035    94    96    1
  2036    94    95    1
  2037  1141  1142   ar
  2038  1037  1018    2
  2039  1077  1076    2
  2040  1055  1056   ar
  2041  1071  1073   ar
  2042  1138  1137   ar
  2043    37    35   ar
  2044  1020  1018    1
  2045  1020  1019    1
  2046  1018  1036    1
  2047    84    77   ar
  2048    92    93    1
  2049    92    90    1
  2050  1933  1934   ar
  2051  1050  1051   ar
  2052    96    91    1
  2053    34    35   ar
  2054  1931  1929    1
  2055  1110  1112    1
  2056  1110  1108    1
  2057    52    50    1
  2058    52    53    1
  2059    52    54    1
  2060  1925  1927    1
  2061  1051  1057   ar
  2062  1076  1075   ar
  2063    60    58   ar
  2064  2018  2017   ar
  2065  2018  2020   ar
  2066    50    51    1
  2067  1142  1137   ar
  2068  1142  1143    1
  2069    57    58   ar
  2070    57    56    1
  2071    69    68    1
  2072  1982  1981    1
  2073  1960  1954   ar
  2074  1960  1959   ar
  2075  1019  1021    1
  2076    89    87    1
  2077    89    88    1
  2078  2017  2023   ar
  2079    35    36    1
  2080  1021  1023    1
  2081    51    56    1
  2082    78    77   ar
  2083    78    79    2
  2084  1056  1057   ar
  2085  1025  1023    1
  2086  1025  1026    1
  2087  1073  1074   ar
  2088    87   105    1
  2089    87    73    1
  2090  1113  1112    1
  2091  1112  1114    1
  2092    77    76    1
  2093    58    59    2
  2094  1962  1959   ar
  2095  1962  1963   ar
  2096  1057  1047    1
  2097  1927  1929    1
  2098  1927  1928    1
  2099  2020  2021   ar
  2100  1106  1108    1
  2101  1106  1107    1
  2102    91    90    1
  2103  1954  1955   ar
  2104  1075  1074   ar
  2105  1075  1078   ar
  2106  1108  1109    1
  2107    56    54    1
  2108  1959  1958   ar
  2109    54    55    1
  2110    90    88    1
  2111  1023  1024    1
  2112  2002  2001    1
  2113  1074  1080   ar
  2114  1929  1930    1
  2115  1981  1980   ar
  2116  1981  1983   ar
  2117    72    73    1
  2118    72    74    1
  2119    72    70    1
  2120  1966  1944    2
  2121    68    70    1
  2122  1980  1978   ar
  2123  2000  2001   ar
  2124  2000  1998   ar
  2125  1047  1042    1
  2126  1047  1045    1
  2127  2023  2024    2
  2128  2023  2022   ar
  2129  1963  1964   ar
  2130  1078  1079   ar
  2131  1928  1944    1
  2132  1125  1105    2
  2133    74    76    1
  2134    74    75    1
  2135  1042  1041    1
  2136    76    71    1
  2137  1107  1105    1
  2138  1117  1116   ar
  2139  1117  1118   ar
  2140  2001  2003   ar
  2141  1955  1956    1
  2142  1955  1957   ar
  2143  2021  2022   ar
  2144  2021  2027   ar
  2145  1114  1109    1
  2146  1114  1124    1
  2147  1958  1964   ar
  2148  1958  1957   ar
  2149  1116  1115   ar
  2150    71    70    1
  2151  1080  1079   ar
  2152  1080  1069    1
  2153  1999  1998    2
  2154  1983  1984   ar
  2155  1126  1105    1
  2156  1118  1124   ar
  2157  1118  1119   ar
  2158  1124  1123   ar
  2159  1024  1038    1
  2160  1105  1089    1
  2161  1998  1997   ar
  2162  1944  1946    1
  2163  1944  1965    1
  2164  2022  2025   ar
  2165  1115  1120   ar
  2166  1964  1953    1
  2167  1978  1979    2
  2168  1978  1977   ar
  2169  1069  1064    1
  2170  1069  1067    1
  2171  1119  1120   ar
  2172  1119  1122   ar
  2173  1123  1122   ar
  2174  1059  1038    2
  2175  1120  1121    1
  2176  1045  1046    1
  2177  1045  1043    1
  2178  1040  1038    1
  2179  1040  1039    1
  2180  2027  2016    1
  2181  2027  2026   ar
  2182  2016  2014    1
  2183  2016  2011    1
  2184  2015  2014    1
  2185  1946  1945    1
  2186  1041  1039    1
  2187  1041  1043    1
  2188  2003  2004   ar
  2189  1038  1058    1
  2190  1984  1977   ar
  2191  1064  1063    1
  2192  2014  2012    1
  2193  1977  1976    1
  2194  1948  1953    1
  2195  1948  1947    1
  2196  1997  2004   ar
  2197  1997  1996    1
  2198  1043  1044    1
  2199  1953  1951    1
  2200  1067  1068    1
  2201  1067  1065    1
  2202  2025  2026   ar
  2203  1091  1090    1
  2204  2011  2010    1
  2205  1089  1088    1
  2206  1945  1947    1
  2207  1090  1088    1
  2208  1090  1092    1
  2209  1996  1994    1
  2210  1996  1991    1
  2211  1947  1949    1
  2212  1976  1971    1
  2213  1976  1974    1
  2214  1088  1086    1
  2215  1063  1065    1
  2216  1063  1061    1
  2217  1094  1095   ar
  2218  1094  1093   ar
  2219  1951  1949    1
  2220  1951  1952    1
  2221  1065  1066    1
  2222  2012  2010    1
  2223  2012  2013    1
  2224  1949  1950    1
  2225  1044  1060    1
  2226  1095  1096   ar
  2227  2010  2008    1
  2228  1093  1098   ar
  2229  1062  1061    1
  2230  1062  1060    1
  2231  1994  1995    1
  2232  1994  1992    1
  2233  1971  1970    1
  2234  1991  1990    1
  2235  1082  1060    2
  2236  1974  1975    1
  2237  1974  1972    1
  2238  1096  1097   ar
  2239  1096  1102   ar
  2240  1098  1099    1
  2241  1098  1097   ar
  2242  1060  1081    1
  2243  1092  1102    1
  2244  1092  1087    1
  2245  1986  1967    2
  2246  1066  1083    1
  2247  1097  1100   ar
  2248  1086  1084    1
  2249  1086  1087    1
  2250  1102  1101   ar
  2251  1950  1967    1
  2252  2008  2009    1
  2253  1085  1084    1
  2254  1085  1083    1
  2255  2009  2007    1
  2256  1972  1970    1
  2257  1972  1973    1
  2258  1992  1990    1
  2259  1992  1993    1
  2260  1970  1968    1
  2261  1969  1967    1
  2262  1969  1968    1
  2263  1990  1988    1
  2264  1100  1101   ar
  2265  1967  1985    1
  2266  1083  1104    2
  2267  1083  1103    1
  2268  1989  1988    1
  2269  1989  1987    1
  2270  2006  1987    2
  2271  2029  2007    2
  2272  1993  2007    1
  2273  2007  2028    1
  2274  1973  1987    1
  2275  1987  2005    1
