ligand
  PyMOL2.3          3D                             0

 10 11  0  0  0  0  0  0  0  0999 V2000
   12.1410   10.7120    9.0650 N   0  0  0  0  0  0  0  0  0  0  0  0
   11.7000   12.0040    9.2300 C   0  0  0  0  0  0  0  0  0  0  0  0
   11.2260   12.7260    8.2130 N   0  0  0  0  0  0  0  0  0  0  0  0
   11.2290   12.0570    7.0250 C   0  0  0  0  0  0  0  0  0  0  0  0
   11.6580   10.7650    6.7930 C   0  0  0  0  0  0  0  0  0  0  0  0
   12.1630    9.9890    7.8720 C   0  0  0  0  0  0  0  0  0  0  0  0
   12.5920    8.8290    7.8920 O   0  0  0  0  0  0  0  0  0  0  0  0
   11.4900   10.4850    5.4660 N   0  0  0  0  0  0  0  0  0  0  0  0
   10.9620   11.5940    4.8980 C   0  0  0  0  0  0  0  0  0  0  0  0
   10.7890   12.5870    5.8380 N   0  0  0  0  0  0  0  0  0  0  0  0
  1  2  4  0  0  0  0
  1  6  4  0  0  0  0
  2  3  4  0  0  0  0
  3  4  4  0  0  0  0
  4  5  4  0  0  0  0
  4 10  4  0  0  0  0
  5  6  4  0  0  0  0
  5  8  4  0  0  0  0
  6  7  2  0  0  0  0
  8  9  4  0  0  0  0
  9 10  4  0  0  0  0
M  END
$$$$
