ligand
 OpenBabel02271912143D
libRbt.so/2013.1/901 2013/11/27
 10 11  0  0  0  0  0  0  0  0999 V2000
   11.9675   10.9550    8.8786 N   0  0  0  0  0  0  0  0  0  0  0  0
   11.6964   12.3025    8.9219 C   0  0  0  0  0  0  0  0  0  0  0  0
   11.3372   12.9880    7.8350 N   0  0  0  0  0  0  0  0  0  0  0  0
   11.2719   12.2231    6.7082 C   0  0  0  0  0  0  0  0  0  0  0  0
   11.5322   10.8714    6.5979 C   0  0  0  0  0  0  0  0  0  0  0  0
   11.9141   10.1339    7.7519 C   0  0  0  0  0  0  0  0  0  0  0  0
   12.1875    8.9346    7.8814 O   0  0  0  0  0  0  0  0  0  0  0  0
   11.3504   10.5007    5.2952 N   0  0  0  0  0  0  0  0  0  0  0  0
   10.9810   11.6146    4.6214 C   0  0  0  0  0  0  0  0  0  0  0  0
   10.9240   12.6998    5.4692 N   0  0  0  0  0  0  0  0  0  0  0  0
  1  2  1  0  0  0  0
  1  6  1  0  0  0  0
  2  3  2  0  0  0  0
  3  4  1  0  0  0  0
  4  5  2  0  0  0  0
  4 10  1  0  0  0  0
  5  6  1  0  0  0  0
  5  8  1  0  0  0  0
  6  7  2  0  0  0  0
  8  9  1  0  0  0  0
  9 10  2  0  0  0  0
M  END
>  <CHROM.1>
11.52914771,11.27827414,7.01516513,0.32693872,-1.29042826,0.80681032

>  <Name>
ligand

>  <RI>
0

>  <Rbt.Current_Directory>
/home/itssahil/PROJECTS/Mol_Feturizer/Test_systems_manuscript/rnas/4fe5

>  <Rbt.Executable>
rbdock ($Id: //depot/dev/client3/rdock/2013.1/src/exe/rbdock.cxx#4 $)

>  <Rbt.Library>
libRbt.so (2013.1, Build901 2013/11/27)

>  <Rbt.Parameter_File>
/export/apps/rDock/src/rDock_2013.1_src/data/scripts/dock_solv.prm

>  <Rbt.Receptor>
prm/pocket_docking_3.prm

>  <SCORE>
-17.4219

>  <SCORE.INTER>
-17.4305

>  <SCORE.INTER.CONST>
1

>  <SCORE.INTER.POLAR>
0

>  <SCORE.INTER.ROT>
0

>  <SCORE.INTER.SOLV>
3.72867

>  <SCORE.INTER.VDW>
-16.4632

>  <SCORE.INTER.norm>
-1.74305

>  <SCORE.INTRA>
0

>  <SCORE.INTRA.DIHEDRAL>
0

>  <SCORE.INTRA.DIHEDRAL.0>
0

>  <SCORE.INTRA.POLAR>
0

>  <SCORE.INTRA.POLAR.0>
0

>  <SCORE.INTRA.REPUL>
0

>  <SCORE.INTRA.REPUL.0>
0

>  <SCORE.INTRA.SOLV>
0

>  <SCORE.INTRA.SOLV.lig_0>
-4.28333

>  <SCORE.INTRA.VDW>
0

>  <SCORE.INTRA.VDW.0>
0

>  <SCORE.INTRA.norm>
0

>  <SCORE.RESTR>
0.00858398

>  <SCORE.RESTR.CAVITY>
0.00858398

>  <SCORE.RESTR.norm>
0.000858398

>  <SCORE.SYSTEM>
0

>  <SCORE.SYSTEM.CONST>
0

>  <SCORE.SYSTEM.DIHEDRAL>
0

>  <SCORE.SYSTEM.SOLV>
0

>  <SCORE.SYSTEM.norm>
0

>  <SCORE.heavy>
10

>  <SCORE.norm>
-1.74219

>  <RMSD>
0.359

$$$$
ligand
 OpenBabel02271912143D
libRbt.so/2013.1/901 2013/11/27
 10 11  0  0  0  0  0  0  0  0999 V2000
   11.8978   10.9166    8.8881 N   0  0  0  0  0  0  0  0  0  0  0  0
   11.6232   12.2638    8.9154 C   0  0  0  0  0  0  0  0  0  0  0  0
   11.2891   12.9410    7.8155 N   0  0  0  0  0  0  0  0  0  0  0  0
   11.2525   12.1683    6.6928 C   0  0  0  0  0  0  0  0  0  0  0  0
   11.5179   10.8163    6.5982 C   0  0  0  0  0  0  0  0  0  0  0  0
   11.8732   10.0877    7.7662 C   0  0  0  0  0  0  0  0  0  0  0  0
   12.1457    8.8898    7.9106 O   0  0  0  0  0  0  0  0  0  0  0  0
   11.3684   10.4362    5.2941 N   0  0  0  0  0  0  0  0  0  0  0  0
   11.0132   11.5447    4.6038 C   0  0  0  0  0  0  0  0  0  0  0  0
   10.9338   12.6356    5.4424 N   0  0  0  0  0  0  0  0  0  0  0  0
  1  2  1  0  0  0  0
  1  6  1  0  0  0  0
  2  3  2  0  0  0  0
  3  4  1  0  0  0  0
  4  5  2  0  0  0  0
  4 10  1  0  0  0  0
  5  6  1  0  0  0  0
  5  8  1  0  0  0  0
  6  7  2  0  0  0  0
  8  9  1  0  0  0  0
  9 10  2  0  0  0  0
M  END
>  <CHROM.1>
11.50403296,11.22606752,7.01240604,0.39842834,-1.30512751,0.86870941

>  <Name>
ligand

>  <RI>
0

>  <Rbt.Current_Directory>
/home/itssahil/PROJECTS/Mol_Feturizer/Test_systems_manuscript/rnas/4fe5

>  <Rbt.Executable>
rbdock ($Id: //depot/dev/client3/rdock/2013.1/src/exe/rbdock.cxx#4 $)

>  <Rbt.Library>
libRbt.so (2013.1, Build901 2013/11/27)

>  <Rbt.Parameter_File>
/export/apps/rDock/src/rDock_2013.1_src/data/scripts/dock_solv.prm

>  <Rbt.Receptor>
prm/pocket_docking_4.prm

>  <SCORE>
-17.4169

>  <SCORE.INTER>
-17.4169

>  <SCORE.INTER.CONST>
1

>  <SCORE.INTER.POLAR>
0

>  <SCORE.INTER.ROT>
0

>  <SCORE.INTER.SOLV>
3.79776

>  <SCORE.INTER.VDW>
-16.4772

>  <SCORE.INTER.norm>
-1.74169

>  <SCORE.INTRA>
0

>  <SCORE.INTRA.DIHEDRAL>
0

>  <SCORE.INTRA.DIHEDRAL.0>
0

>  <SCORE.INTRA.POLAR>
0

>  <SCORE.INTRA.POLAR.0>
0

>  <SCORE.INTRA.REPUL>
0

>  <SCORE.INTRA.REPUL.0>
0

>  <SCORE.INTRA.SOLV>
0

>  <SCORE.INTRA.SOLV.lig_0>
-4.28333

>  <SCORE.INTRA.VDW>
0

>  <SCORE.INTRA.VDW.0>
0

>  <SCORE.INTRA.norm>
0

>  <SCORE.RESTR>
0

>  <SCORE.RESTR.CAVITY>
0

>  <SCORE.RESTR.norm>
0

>  <SCORE.SYSTEM>
0

>  <SCORE.SYSTEM.CONST>
0

>  <SCORE.SYSTEM.DIHEDRAL>
0

>  <SCORE.SYSTEM.SOLV>
0

>  <SCORE.SYSTEM.norm>
0

>  <SCORE.heavy>
10

>  <SCORE.norm>
-1.74169

>  <RMSD>
0.364

$$$$
ligand
 OpenBabel02271912143D
libRbt.so/2013.1/901 2013/11/27
 10 11  0  0  0  0  0  0  0  0999 V2000
   11.9275   10.9444    8.8776 N   0  0  0  0  0  0  0  0  0  0  0  0
   11.6494   12.2905    8.9174 C   0  0  0  0  0  0  0  0  0  0  0  0
   11.3020   12.9746    7.8258 N   0  0  0  0  0  0  0  0  0  0  0  0
   11.2560   12.2098    6.6981 C   0  0  0  0  0  0  0  0  0  0  0  0
   11.5243   10.8594    6.5910 C   0  0  0  0  0  0  0  0  0  0  0  0
   11.8937   10.1234    7.7501 C   0  0  0  0  0  0  0  0  0  0  0  0
   12.1712    8.9253    7.8831 O   0  0  0  0  0  0  0  0  0  0  0  0
   11.3625   10.4882    5.2858 N   0  0  0  0  0  0  0  0  0  0  0  0
   10.9971   11.6005    4.6072 C   0  0  0  0  0  0  0  0  0  0  0  0
   10.9231   12.6851    5.4544 N   0  0  0  0  0  0  0  0  0  0  0  0
  1  2  1  0  0  0  0
  1  6  1  0  0  0  0
  2  3  2  0  0  0  0
  3  4  1  0  0  0  0
  4  5  2  0  0  0  0
  4 10  1  0  0  0  0
  5  6  1  0  0  0  0
  5  8  1  0  0  0  0
  6  7  2  0  0  0  0
  8  9  1  0  0  0  0
  9 10  2  0  0  0  0
M  END
>  <CHROM.1>
11.51356417,11.26608561,7.00829622,0.37628780,-1.29622938,0.85454222

>  <Name>
ligand

>  <RI>
0

>  <Rbt.Current_Directory>
/home/itssahil/PROJECTS/Mol_Feturizer/Test_systems_manuscript/rnas/4fe5

>  <Rbt.Executable>
rbdock ($Id: //depot/dev/client3/rdock/2013.1/src/exe/rbdock.cxx#4 $)

>  <Rbt.Library>
libRbt.so (2013.1, Build901 2013/11/27)

>  <Rbt.Parameter_File>
/export/apps/rDock/src/rDock_2013.1_src/data/scripts/dock_solv.prm

>  <Rbt.Receptor>
prm/blind_docking_60.prm

>  <SCORE>
-17.4393

>  <SCORE.INTER>
-17.4393

>  <SCORE.INTER.CONST>
1

>  <SCORE.INTER.POLAR>
0

>  <SCORE.INTER.ROT>
0

>  <SCORE.INTER.SOLV>
3.74596

>  <SCORE.INTER.VDW>
-16.4749

>  <SCORE.INTER.norm>
-1.74393

>  <SCORE.INTRA>
0

>  <SCORE.INTRA.DIHEDRAL>
0

>  <SCORE.INTRA.DIHEDRAL.0>
0

>  <SCORE.INTRA.POLAR>
0

>  <SCORE.INTRA.POLAR.0>
0

>  <SCORE.INTRA.REPUL>
0

>  <SCORE.INTRA.REPUL.0>
0

>  <SCORE.INTRA.SOLV>
0

>  <SCORE.INTRA.SOLV.lig_0>
-4.28333

>  <SCORE.INTRA.VDW>
0

>  <SCORE.INTRA.VDW.0>
0

>  <SCORE.INTRA.norm>
0

>  <SCORE.RESTR>
0

>  <SCORE.RESTR.CAVITY>
0

>  <SCORE.RESTR.norm>
0

>  <SCORE.SYSTEM>
0

>  <SCORE.SYSTEM.CONST>
0

>  <SCORE.SYSTEM.DIHEDRAL>
0

>  <SCORE.SYSTEM.SOLV>
0

>  <SCORE.SYSTEM.norm>
0

>  <SCORE.heavy>
10

>  <SCORE.norm>
-1.74393

>  <RMSD>
0.365

$$$$
ligand
 OpenBabel02271912143D
libRbt.so/2013.1/901 2013/11/27
 10 11  0  0  0  0  0  0  0  0999 V2000
   11.9116   10.9417    8.8765 N   0  0  0  0  0  0  0  0  0  0  0  0
   11.6174   12.2845    8.9145 C   0  0  0  0  0  0  0  0  0  0  0  0
   11.2720   12.9651    7.8201 N   0  0  0  0  0  0  0  0  0  0  0  0
   11.2452   12.2004    6.6916 C   0  0  0  0  0  0  0  0  0  0  0  0
   11.5302   10.8533    6.5864 C   0  0  0  0  0  0  0  0  0  0  0  0
   11.8976   10.1210    7.7484 C   0  0  0  0  0  0  0  0  0  0  0  0
   12.1877    8.9262    7.8833 O   0  0  0  0  0  0  0  0  0  0  0  0
   11.3845   10.4810    5.2796 N   0  0  0  0  0  0  0  0  0  0  0  0
   11.0124   11.5894    4.5982 C   0  0  0  0  0  0  0  0  0  0  0  0
   10.9181   12.6726    5.4452 N   0  0  0  0  0  0  0  0  0  0  0  0
  1  2  1  0  0  0  0
  1  6  1  0  0  0  0
  2  3  2  0  0  0  0
  3  4  1  0  0  0  0
  4  5  2  0  0  0  0
  4 10  1  0  0  0  0
  5  6  1  0  0  0  0
  5  8  1  0  0  0  0
  6  7  2  0  0  0  0
  8  9  1  0  0  0  0
  9 10  2  0  0  0  0
M  END
>  <CHROM.1>
11.51088232,11.25962514,7.00371980,0.42917293,-1.29303190,0.90594406

>  <Name>
ligand

>  <RI>
0

>  <Rbt.Current_Directory>
/home/itssahil/PROJECTS/Mol_Feturizer/Test_systems_manuscript/rnas/4fe5

>  <Rbt.Executable>
rbdock ($Id: //depot/dev/client3/rdock/2013.1/src/exe/rbdock.cxx#4 $)

>  <Rbt.Library>
libRbt.so (2013.1, Build901 2013/11/27)

>  <Rbt.Parameter_File>
/export/apps/rDock/src/rDock_2013.1_src/data/scripts/dock_solv.prm

>  <Rbt.Receptor>
prm/pocket_docking_6.prm

>  <SCORE>
-17.4276

>  <SCORE.INTER>
-17.4276

>  <SCORE.INTER.CONST>
1

>  <SCORE.INTER.POLAR>
0

>  <SCORE.INTER.ROT>
0

>  <SCORE.INTER.SOLV>
3.73725

>  <SCORE.INTER.VDW>
-16.4642

>  <SCORE.INTER.norm>
-1.74276

>  <SCORE.INTRA>
0

>  <SCORE.INTRA.DIHEDRAL>
0

>  <SCORE.INTRA.DIHEDRAL.0>
0

>  <SCORE.INTRA.POLAR>
0

>  <SCORE.INTRA.POLAR.0>
0

>  <SCORE.INTRA.REPUL>
0

>  <SCORE.INTRA.REPUL.0>
0

>  <SCORE.INTRA.SOLV>
0

>  <SCORE.INTRA.SOLV.lig_0>
-4.28333

>  <SCORE.INTRA.VDW>
0

>  <SCORE.INTRA.VDW.0>
0

>  <SCORE.INTRA.norm>
0

>  <SCORE.RESTR>
0

>  <SCORE.RESTR.CAVITY>
0

>  <SCORE.RESTR.norm>
0

>  <SCORE.SYSTEM>
0

>  <SCORE.SYSTEM.CONST>
0

>  <SCORE.SYSTEM.DIHEDRAL>
0

>  <SCORE.SYSTEM.SOLV>
0

>  <SCORE.SYSTEM.norm>
0

>  <SCORE.heavy>
10

>  <SCORE.norm>
-1.74276

>  <RMSD>
0.365

$$$$
ligand
 OpenBabel02271912143D
libRbt.so/2013.1/901 2013/11/27
 10 11  0  0  0  0  0  0  0  0999 V2000
   11.9071   10.9304    8.8864 N   0  0  0  0  0  0  0  0  0  0  0  0
   11.6296   12.2770    8.9117 C   0  0  0  0  0  0  0  0  0  0  0  0
   11.2918   12.9514    7.8111 N   0  0  0  0  0  0  0  0  0  0  0  0
   11.2547   12.1764    6.6900 C   0  0  0  0  0  0  0  0  0  0  0  0
   11.5228   10.8249    6.5974 C   0  0  0  0  0  0  0  0  0  0  0  0
   11.8820   10.0992    7.7661 C   0  0  0  0  0  0  0  0  0  0  0  0
   12.1574    8.9022    7.9123 O   0  0  0  0  0  0  0  0  0  0  0  0
   11.3715   10.4420    5.2943 N   0  0  0  0  0  0  0  0  0  0  0  0
   11.0126   11.5484    4.6027 C   0  0  0  0  0  0  0  0  0  0  0  0
   10.9325   12.6407    5.4394 N   0  0  0  0  0  0  0  0  0  0  0  0
  1  2  1  0  0  0  0
  1  6  1  0  0  0  0
  2  3  2  0  0  0  0
  3  4  1  0  0  0  0
  4  5  2  0  0  0  0
  4 10  1  0  0  0  0
  5  6  1  0  0  0  0
  5  8  1  0  0  0  0
  6  7  2  0  0  0  0
  8  9  1  0  0  0  0
  9 10  2  0  0  0  0
M  END
>  <CHROM.1>
11.50887732,11.23540045,7.01088591,0.39799602,-1.30220035,0.86639712

>  <Name>
ligand

>  <RI>
0

>  <Rbt.Current_Directory>
/home/itssahil/PROJECTS/Mol_Feturizer/Test_systems_manuscript/rnas/4fe5

>  <Rbt.Executable>
rbdock ($Id: //depot/dev/client3/rdock/2013.1/src/exe/rbdock.cxx#4 $)

>  <Rbt.Library>
libRbt.so (2013.1, Build901 2013/11/27)

>  <Rbt.Parameter_File>
/export/apps/rDock/src/rDock_2013.1_src/data/scripts/dock_solv.prm

>  <Rbt.Receptor>
prm/pocket_docking_7.prm

>  <SCORE>
-17.4126

>  <SCORE.INTER>
-17.4126

>  <SCORE.INTER.CONST>
1

>  <SCORE.INTER.POLAR>
0

>  <SCORE.INTER.ROT>
0

>  <SCORE.INTER.SOLV>
3.78392

>  <SCORE.INTER.VDW>
-16.4697

>  <SCORE.INTER.norm>
-1.74126

>  <SCORE.INTRA>
0

>  <SCORE.INTRA.DIHEDRAL>
0

>  <SCORE.INTRA.DIHEDRAL.0>
0

>  <SCORE.INTRA.POLAR>
0

>  <SCORE.INTRA.POLAR.0>
0

>  <SCORE.INTRA.REPUL>
0

>  <SCORE.INTRA.REPUL.0>
0

>  <SCORE.INTRA.SOLV>
0

>  <SCORE.INTRA.SOLV.lig_0>
-4.28333

>  <SCORE.INTRA.VDW>
0

>  <SCORE.INTRA.VDW.0>
0

>  <SCORE.INTRA.norm>
0

>  <SCORE.RESTR>
0

>  <SCORE.RESTR.CAVITY>
0

>  <SCORE.RESTR.norm>
0

>  <SCORE.SYSTEM>
0

>  <SCORE.SYSTEM.CONST>
0

>  <SCORE.SYSTEM.DIHEDRAL>
0

>  <SCORE.SYSTEM.SOLV>
0

>  <SCORE.SYSTEM.norm>
0

>  <SCORE.heavy>
10

>  <SCORE.norm>
-1.74126

>  <RMSD>
0.365

$$$$
ligand
 OpenBabel02271912143D
libRbt.so/2013.1/901 2013/11/27
 10 11  0  0  0  0  0  0  0  0999 V2000
   11.9153   10.8973    8.8668 N   0  0  0  0  0  0  0  0  0  0  0  0
   11.6475   12.2456    8.9044 C   0  0  0  0  0  0  0  0  0  0  0  0
   11.3069   12.9309    7.8114 N   0  0  0  0  0  0  0  0  0  0  0  0
   11.2565   12.1649    6.6847 C   0  0  0  0  0  0  0  0  0  0  0  0
   11.5144   10.8122    6.5799 C   0  0  0  0  0  0  0  0  0  0  0  0
   11.8766   10.0751    7.7404 C   0  0  0  0  0  0  0  0  0  0  0  0
   12.1445    8.8750    7.8755 O   0  0  0  0  0  0  0  0  0  0  0  0
   11.3514   10.4405    5.2750 N   0  0  0  0  0  0  0  0  0  0  0  0
   10.9955   11.5547    4.5944 C   0  0  0  0  0  0  0  0  0  0  0  0
   10.9289   12.6410    5.4399 N   0  0  0  0  0  0  0  0  0  0  0  0
  1  2  1  0  0  0  0
  1  6  1  0  0  0  0
  2  3  2  0  0  0  0
  3  4  1  0  0  0  0
  4  5  2  0  0  0  0
  4 10  1  0  0  0  0
  5  6  1  0  0  0  0
  5  8  1  0  0  0  0
  6  7  2  0  0  0  0
  8  9  1  0  0  0  0
  9 10  2  0  0  0  0
M  END
>  <CHROM.1>
11.50626240,11.21962083,6.99655853,0.36068587,-1.30291668,0.83811165

>  <Name>
ligand

>  <RI>
0

>  <Rbt.Current_Directory>
/home/itssahil/PROJECTS/Mol_Feturizer/Test_systems_manuscript/rnas/4fe5

>  <Rbt.Executable>
rbdock ($Id: //depot/dev/client3/rdock/2013.1/src/exe/rbdock.cxx#4 $)

>  <Rbt.Library>
libRbt.so (2013.1, Build901 2013/11/27)

>  <Rbt.Parameter_File>
/export/apps/rDock/src/rDock_2013.1_src/data/scripts/dock_solv.prm

>  <Rbt.Receptor>
prm/pocket_docking_8.prm

>  <SCORE>
-17.429

>  <SCORE.INTER>
-17.429

>  <SCORE.INTER.CONST>
1

>  <SCORE.INTER.POLAR>
0

>  <SCORE.INTER.ROT>
0

>  <SCORE.INTER.SOLV>
3.77432

>  <SCORE.INTER.VDW>
-16.4774

>  <SCORE.INTER.norm>
-1.7429

>  <SCORE.INTRA>
0

>  <SCORE.INTRA.DIHEDRAL>
0

>  <SCORE.INTRA.DIHEDRAL.0>
0

>  <SCORE.INTRA.POLAR>
0

>  <SCORE.INTRA.POLAR.0>
0

>  <SCORE.INTRA.REPUL>
0

>  <SCORE.INTRA.REPUL.0>
0

>  <SCORE.INTRA.SOLV>
0

>  <SCORE.INTRA.SOLV.lig_0>
-4.28333

>  <SCORE.INTRA.VDW>
0

>  <SCORE.INTRA.VDW.0>
0

>  <SCORE.INTRA.norm>
0

>  <SCORE.RESTR>
0

>  <SCORE.RESTR.CAVITY>
0

>  <SCORE.RESTR.norm>
0

>  <SCORE.SYSTEM>
0

>  <SCORE.SYSTEM.CONST>
0

>  <SCORE.SYSTEM.DIHEDRAL>
0

>  <SCORE.SYSTEM.SOLV>
0

>  <SCORE.SYSTEM.norm>
0

>  <SCORE.heavy>
10

>  <SCORE.norm>
-1.7429

>  <RMSD>
0.366

$$$$
ligand
 OpenBabel02271912143D
libRbt.so/2013.1/901 2013/11/27
 10 11  0  0  0  0  0  0  0  0999 V2000
   11.9198   10.9434    8.8682 N   0  0  0  0  0  0  0  0  0  0  0  0
   11.6253   12.2861    8.9060 C   0  0  0  0  0  0  0  0  0  0  0  0
   11.2765   12.9658    7.8122 N   0  0  0  0  0  0  0  0  0  0  0  0
   11.2468   12.2003    6.6843 C   0  0  0  0  0  0  0  0  0  0  0  0
   11.5319   10.8532    6.5792 C   0  0  0  0  0  0  0  0  0  0  0  0
   11.9029   10.1219    7.7407 C   0  0  0  0  0  0  0  0  0  0  0  0
   12.1939    8.9273    7.8757 O   0  0  0  0  0  0  0  0  0  0  0  0
   11.3827   10.4799    5.2731 N   0  0  0  0  0  0  0  0  0  0  0  0
   11.0082   11.5877    4.5921 C   0  0  0  0  0  0  0  0  0  0  0  0
   10.9160   12.6715    5.4385 N   0  0  0  0  0  0  0  0  0  0  0  0
  1  2  1  0  0  0  0
  1  6  1  0  0  0  0
  2  3  2  0  0  0  0
  3  4  1  0  0  0  0
  4  5  2  0  0  0  0
  4 10  1  0  0  0  0
  5  6  1  0  0  0  0
  5  8  1  0  0  0  0
  6  7  2  0  0  0  0
  8  9  1  0  0  0  0
  9 10  2  0  0  0  0
M  END
>  <CHROM.1>
11.51368326,11.25982719,6.99635201,0.42182093,-1.29099104,0.89814877

>  <Name>
ligand

>  <RI>
0

>  <Rbt.Current_Directory>
/home/itssahil/PROJECTS/Mol_Feturizer/Test_systems_manuscript/rnas/4fe5

>  <Rbt.Executable>
rbdock ($Id: //depot/dev/client3/rdock/2013.1/src/exe/rbdock.cxx#4 $)

>  <Rbt.Library>
libRbt.so (2013.1, Build901 2013/11/27)

>  <Rbt.Parameter_File>
/export/apps/rDock/src/rDock_2013.1_src/data/scripts/dock_solv.prm

>  <Rbt.Receptor>
prm/blind_docking_80.prm

>  <SCORE>
-17.4262

>  <SCORE.INTER>
-17.4262

>  <SCORE.INTER.CONST>
1

>  <SCORE.INTER.POLAR>
0

>  <SCORE.INTER.ROT>
0

>  <SCORE.INTER.SOLV>
3.72601

>  <SCORE.INTER.VDW>
-16.4595

>  <SCORE.INTER.norm>
-1.74262

>  <SCORE.INTRA>
0

>  <SCORE.INTRA.DIHEDRAL>
0

>  <SCORE.INTRA.DIHEDRAL.0>
0

>  <SCORE.INTRA.POLAR>
0

>  <SCORE.INTRA.POLAR.0>
0

>  <SCORE.INTRA.REPUL>
0

>  <SCORE.INTRA.REPUL.0>
0

>  <SCORE.INTRA.SOLV>
0

>  <SCORE.INTRA.SOLV.lig_0>
-4.28333

>  <SCORE.INTRA.VDW>
0

>  <SCORE.INTRA.VDW.0>
0

>  <SCORE.INTRA.norm>
0

>  <SCORE.RESTR>
0

>  <SCORE.RESTR.CAVITY>
0

>  <SCORE.RESTR.norm>
0

>  <SCORE.SYSTEM>
0

>  <SCORE.SYSTEM.CONST>
0

>  <SCORE.SYSTEM.DIHEDRAL>
0

>  <SCORE.SYSTEM.SOLV>
0

>  <SCORE.SYSTEM.norm>
0

>  <SCORE.heavy>
10

>  <SCORE.norm>
-1.74262

>  <RMSD>
0.368

$$$$
ligand
 OpenBabel02271912143D
libRbt.so/2013.1/901 2013/11/27
 10 11  0  0  0  0  0  0  0  0999 V2000
   11.9038   10.9321    8.8841 N   0  0  0  0  0  0  0  0  0  0  0  0
   11.6337   12.2798    8.9248 C   0  0  0  0  0  0  0  0  0  0  0  0
   11.3040   12.9695    7.8312 N   0  0  0  0  0  0  0  0  0  0  0  0
   11.2669   12.2085    6.7006 C   0  0  0  0  0  0  0  0  0  0  0  0
   11.5279   10.8567    6.5925 C   0  0  0  0  0  0  0  0  0  0  0  0
   11.8785   10.1148    7.7536 C   0  0  0  0  0  0  0  0  0  0  0  0
   12.1466    8.9146    7.8862 O   0  0  0  0  0  0  0  0  0  0  0  0
   11.3796   10.4906    5.2843 N   0  0  0  0  0  0  0  0  0  0  0  0
   11.0295   11.6073    4.6049 C   0  0  0  0  0  0  0  0  0  0  0  0
   10.9522   12.6898    5.4545 N   0  0  0  0  0  0  0  0  0  0  0  0
  1  2  1  0  0  0  0
  1  6  1  0  0  0  0
  2  3  2  0  0  0  0
  3  4  1  0  0  0  0
  4  5  2  0  0  0  0
  4 10  1  0  0  0  0
  5  6  1  0  0  0  0
  5  8  1  0  0  0  0
  6  7  2  0  0  0  0
  8  9  1  0  0  0  0
  9 10  2  0  0  0  0
M  END
>  <CHROM.1>
11.51462649,11.26216750,7.01093719,0.39562168,-1.30896991,0.87631245

>  <Name>
ligand

>  <RI>
0

>  <Rbt.Current_Directory>
/home/itssahil/PROJECTS/Mol_Feturizer/Test_systems_manuscript/rnas/4fe5

>  <Rbt.Executable>
rbdock ($Id: //depot/dev/client3/rdock/2013.1/src/exe/rbdock.cxx#4 $)

>  <Rbt.Library>
libRbt.so (2013.1, Build901 2013/11/27)

>  <Rbt.Parameter_File>
/export/apps/rDock/src/rDock_2013.1_src/data/scripts/dock_solv.prm

>  <Rbt.Receptor>
prm/pocket_docking_5.prm

>  <SCORE>
-17.3619

>  <SCORE.INTER>
-17.3619

>  <SCORE.INTER.CONST>
1

>  <SCORE.INTER.POLAR>
0

>  <SCORE.INTER.ROT>
0

>  <SCORE.INTER.SOLV>
3.77886

>  <SCORE.INTER.VDW>
-16.4342

>  <SCORE.INTER.norm>
-1.73619

>  <SCORE.INTRA>
0

>  <SCORE.INTRA.DIHEDRAL>
0

>  <SCORE.INTRA.DIHEDRAL.0>
0

>  <SCORE.INTRA.POLAR>
0

>  <SCORE.INTRA.POLAR.0>
0

>  <SCORE.INTRA.REPUL>
0

>  <SCORE.INTRA.REPUL.0>
0

>  <SCORE.INTRA.SOLV>
0

>  <SCORE.INTRA.SOLV.lig_0>
-4.28333

>  <SCORE.INTRA.VDW>
0

>  <SCORE.INTRA.VDW.0>
0

>  <SCORE.INTRA.norm>
0

>  <SCORE.RESTR>
0

>  <SCORE.RESTR.CAVITY>
0

>  <SCORE.RESTR.norm>
0

>  <SCORE.SYSTEM>
0

>  <SCORE.SYSTEM.CONST>
0

>  <SCORE.SYSTEM.DIHEDRAL>
0

>  <SCORE.SYSTEM.SOLV>
0

>  <SCORE.SYSTEM.norm>
0

>  <SCORE.heavy>
10

>  <SCORE.norm>
-1.73619

>  <RMSD>
0.368

$$$$
ligand
 OpenBabel02271912143D
libRbt.so/2013.1/901 2013/11/27
 10 11  0  0  0  0  0  0  0  0999 V2000
   11.9137   10.9951    8.9070 N   0  0  0  0  0  0  0  0  0  0  0  0
   11.6309   12.3407    8.9251 C   0  0  0  0  0  0  0  0  0  0  0  0
   11.2911   13.0080    7.8208 N   0  0  0  0  0  0  0  0  0  0  0  0
   11.2578   12.2270    6.7037 C   0  0  0  0  0  0  0  0  0  0  0  0
   11.5314   10.8761    6.6184 C   0  0  0  0  0  0  0  0  0  0  0  0
   11.8927   10.1580    7.7911 C   0  0  0  0  0  0  0  0  0  0  0  0
   12.1727    8.9628    7.9437 O   0  0  0  0  0  0  0  0  0  0  0  0
   11.3825   10.4858    5.3172 N   0  0  0  0  0  0  0  0  0  0  0  0
   11.0196   11.5871    4.6196 C   0  0  0  0  0  0  0  0  0  0  0  0
   10.9346   12.6835    5.4505 N   0  0  0  0  0  0  0  0  0  0  0  0
  1  2  1  0  0  0  0
  1  6  1  0  0  0  0
  2  3  2  0  0  0  0
  3  4  1  0  0  0  0
  4  5  2  0  0  0  0
  4 10  1  0  0  0  0
  5  6  1  0  0  0  0
  5  8  1  0  0  0  0
  6  7  2  0  0  0  0
  8  9  1  0  0  0  0
  9 10  2  0  0  0  0
M  END
>  <CHROM.1>
11.51553407,11.28868755,7.02972087,0.40943827,-1.29958415,0.87218382

>  <Name>
ligand

>  <RI>
0

>  <Rbt.Current_Directory>
/home/itssahil/PROJECTS/Mol_Feturizer/Test_systems_manuscript/rnas/4fe5

>  <Rbt.Executable>
rbdock ($Id: //depot/dev/client3/rdock/2013.1/src/exe/rbdock.cxx#4 $)

>  <Rbt.Library>
libRbt.so (2013.1, Build901 2013/11/27)

>  <Rbt.Parameter_File>
/export/apps/rDock/src/rDock_2013.1_src/data/scripts/dock_solv.prm

>  <Rbt.Receptor>
prm/pocket_docking_7.prm

>  <SCORE>
-17.4227

>  <SCORE.INTER>
-17.4271

>  <SCORE.INTER.CONST>
1

>  <SCORE.INTER.POLAR>
0

>  <SCORE.INTER.ROT>
0

>  <SCORE.INTER.SOLV>
3.77947

>  <SCORE.INTER.VDW>
-16.4779

>  <SCORE.INTER.norm>
-1.74271

>  <SCORE.INTRA>
0

>  <SCORE.INTRA.DIHEDRAL>
0

>  <SCORE.INTRA.DIHEDRAL.0>
0

>  <SCORE.INTRA.POLAR>
0

>  <SCORE.INTRA.POLAR.0>
0

>  <SCORE.INTRA.REPUL>
0

>  <SCORE.INTRA.REPUL.0>
0

>  <SCORE.INTRA.SOLV>
0

>  <SCORE.INTRA.SOLV.lig_0>
-4.28333

>  <SCORE.INTRA.VDW>
0

>  <SCORE.INTRA.VDW.0>
0

>  <SCORE.INTRA.norm>
0

>  <SCORE.RESTR>
0.00434078

>  <SCORE.RESTR.CAVITY>
0.00434078

>  <SCORE.RESTR.norm>
0.000434078

>  <SCORE.SYSTEM>
0

>  <SCORE.SYSTEM.CONST>
0

>  <SCORE.SYSTEM.DIHEDRAL>
0

>  <SCORE.SYSTEM.SOLV>
0

>  <SCORE.SYSTEM.norm>
0

>  <SCORE.heavy>
10

>  <SCORE.norm>
-1.74227

>  <RMSD>
0.374

$$$$
ligand
 OpenBabel02271912143D
libRbt.so/2013.1/901 2013/11/27
 10 11  0  0  0  0  0  0  0  0999 V2000
   11.9491   10.9177    8.8301 N   0  0  0  0  0  0  0  0  0  0  0  0
   11.6601   12.2610    8.8856 C   0  0  0  0  0  0  0  0  0  0  0  0
   11.2885   12.9508    7.8056 N   0  0  0  0  0  0  0  0  0  0  0  0
   11.2302   12.1947    6.6726 C   0  0  0  0  0  0  0  0  0  0  0  0
   11.5083   10.8476    6.5500 C   0  0  0  0  0  0  0  0  0  0  0  0
   11.9034   10.1056    7.6966 C   0  0  0  0  0  0  0  0  0  0  0  0
   12.1934    8.9090    7.8151 O   0  0  0  0  0  0  0  0  0  0  0  0
   11.3277   10.4855    5.2446 N   0  0  0  0  0  0  0  0  0  0  0  0
   10.9414   11.6001    4.5814 C   0  0  0  0  0  0  0  0  0  0  0  0
   10.8724   12.6772    5.4386 N   0  0  0  0  0  0  0  0  0  0  0  0
  1  2  1  0  0  0  0
  1  6  1  0  0  0  0
  2  3  2  0  0  0  0
  3  4  1  0  0  0  0
  4  5  2  0  0  0  0
  4 10  1  0  0  0  0
  5  6  1  0  0  0  0
  5  8  1  0  0  0  0
  6  7  2  0  0  0  0
  8  9  1  0  0  0  0
  9 10  2  0  0  0  0
M  END
>  <CHROM.1>
11.50102729,11.25084286,6.97069219,0.35189762,-1.27861144,0.83925211

>  <Name>
ligand

>  <RI>
0

>  <Rbt.Current_Directory>
/home/itssahil/PROJECTS/Mol_Feturizer/Test_systems_manuscript/rnas/4fe5

>  <Rbt.Executable>
rbdock ($Id: //depot/dev/client3/rdock/2013.1/src/exe/rbdock.cxx#4 $)

>  <Rbt.Library>
libRbt.so (2013.1, Build901 2013/11/27)

>  <Rbt.Parameter_File>
/export/apps/rDock/src/rDock_2013.1_src/data/scripts/dock_solv.prm

>  <Rbt.Receptor>
prm/pocket_docking_3.prm

>  <SCORE>
-17.3624

>  <SCORE.INTER>
-17.3635

>  <SCORE.INTER.CONST>
1

>  <SCORE.INTER.POLAR>
0

>  <SCORE.INTER.ROT>
0

>  <SCORE.INTER.SOLV>
3.67201

>  <SCORE.INTER.VDW>
-16.3997

>  <SCORE.INTER.norm>
-1.73635

>  <SCORE.INTRA>
0

>  <SCORE.INTRA.DIHEDRAL>
0

>  <SCORE.INTRA.DIHEDRAL.0>
0

>  <SCORE.INTRA.POLAR>
0

>  <SCORE.INTRA.POLAR.0>
0

>  <SCORE.INTRA.REPUL>
0

>  <SCORE.INTRA.REPUL.0>
0

>  <SCORE.INTRA.SOLV>
0

>  <SCORE.INTRA.SOLV.lig_0>
-4.28333

>  <SCORE.INTRA.VDW>
0

>  <SCORE.INTRA.VDW.0>
0

>  <SCORE.INTRA.norm>
0

>  <SCORE.RESTR>
0.00112284

>  <SCORE.RESTR.CAVITY>
0.00112284

>  <SCORE.RESTR.norm>
0.000112284

>  <SCORE.SYSTEM>
0

>  <SCORE.SYSTEM.CONST>
0

>  <SCORE.SYSTEM.DIHEDRAL>
0

>  <SCORE.SYSTEM.SOLV>
0

>  <SCORE.SYSTEM.norm>
0

>  <SCORE.heavy>
10

>  <SCORE.norm>
-1.73624

>  <RMSD>
0.375

$$$$
ligand
 OpenBabel02271912143D
libRbt.so/2013.1/901 2013/11/27
 10 11  0  0  0  0  0  0  0  0999 V2000
   11.8772   10.9086    8.8690 N   0  0  0  0  0  0  0  0  0  0  0  0
   11.6204   12.2591    8.9019 C   0  0  0  0  0  0  0  0  0  0  0  0
   11.2895   12.9442    7.8058 N   0  0  0  0  0  0  0  0  0  0  0  0
   11.2371   12.1755    6.6809 C   0  0  0  0  0  0  0  0  0  0  0  0
   11.4844   10.8205    6.5807 C   0  0  0  0  0  0  0  0  0  0  0  0
   11.8360   10.0836    7.7446 C   0  0  0  0  0  0  0  0  0  0  0  0
   12.0935    8.8818    7.8839 O   0  0  0  0  0  0  0  0  0  0  0  0
   11.3233   10.4466    5.2762 N   0  0  0  0  0  0  0  0  0  0  0  0
   10.9792   11.5618    4.5913 C   0  0  0  0  0  0  0  0  0  0  0  0
   10.9182   12.6510    5.4336 N   0  0  0  0  0  0  0  0  0  0  0  0
  1  2  1  0  0  0  0
  1  6  1  0  0  0  0
  2  3  2  0  0  0  0
  3  4  1  0  0  0  0
  4  5  2  0  0  0  0
  4 10  1  0  0  0  0
  5  6  1  0  0  0  0
  5  8  1  0  0  0  0
  6  7  2  0  0  0  0
  8  9  1  0  0  0  0
  9 10  2  0  0  0  0
M  END
>  <CHROM.1>
11.47795674,11.22911177,6.99628911,0.35036452,-1.31156756,0.82545113

>  <Name>
ligand

>  <RI>
0

>  <Rbt.Current_Directory>
/home/itssahil/PROJECTS/Mol_Feturizer/Test_systems_manuscript/rnas/4fe5

>  <Rbt.Executable>
rbdock ($Id: //depot/dev/client3/rdock/2013.1/src/exe/rbdock.cxx#4 $)

>  <Rbt.Library>
libRbt.so (2013.1, Build901 2013/11/27)

>  <Rbt.Parameter_File>
/export/apps/rDock/src/rDock_2013.1_src/data/scripts/dock_solv.prm

>  <Rbt.Receptor>
prm/pocket_docking_8.prm

>  <SCORE>
-17.401

>  <SCORE.INTER>
-17.401

>  <SCORE.INTER.CONST>
1

>  <SCORE.INTER.POLAR>
0

>  <SCORE.INTER.ROT>
0

>  <SCORE.INTER.SOLV>
3.82245

>  <SCORE.INTER.VDW>
-16.4748

>  <SCORE.INTER.norm>
-1.7401

>  <SCORE.INTRA>
0

>  <SCORE.INTRA.DIHEDRAL>
0

>  <SCORE.INTRA.DIHEDRAL.0>
0

>  <SCORE.INTRA.POLAR>
0

>  <SCORE.INTRA.POLAR.0>
0

>  <SCORE.INTRA.REPUL>
0

>  <SCORE.INTRA.REPUL.0>
0

>  <SCORE.INTRA.SOLV>
0

>  <SCORE.INTRA.SOLV.lig_0>
-4.28333

>  <SCORE.INTRA.VDW>
0

>  <SCORE.INTRA.VDW.0>
0

>  <SCORE.INTRA.norm>
0

>  <SCORE.RESTR>
0

>  <SCORE.RESTR.CAVITY>
0

>  <SCORE.RESTR.norm>
0

>  <SCORE.SYSTEM>
0

>  <SCORE.SYSTEM.CONST>
0

>  <SCORE.SYSTEM.DIHEDRAL>
0

>  <SCORE.SYSTEM.SOLV>
0

>  <SCORE.SYSTEM.norm>
0

>  <SCORE.heavy>
10

>  <SCORE.norm>
-1.7401

>  <RMSD>
0.385

$$$$
ligand
 OpenBabel02271912143D
libRbt.so/2013.1/901 2013/11/27
 10 11  0  0  0  0  0  0  0  0999 V2000
   11.9229   10.9173    8.8074 N   0  0  0  0  0  0  0  0  0  0  0  0
   11.6304   12.2593    8.8732 C   0  0  0  0  0  0  0  0  0  0  0  0
   11.2680   12.9590    7.7965 N   0  0  0  0  0  0  0  0  0  0  0  0
   11.2226   12.2140    6.6555 C   0  0  0  0  0  0  0  0  0  0  0  0
   11.5048   10.8687    6.5224 C   0  0  0  0  0  0  0  0  0  0  0  0
   11.8902   10.1163    7.6655 C   0  0  0  0  0  0  0  0  0  0  0  0
   12.1816    8.9191    7.7752 O   0  0  0  0  0  0  0  0  0  0  0  0
   11.3380   10.5192    5.2119 N   0  0  0  0  0  0  0  0  0  0  0  0
   10.9558   11.6394    4.5559 C   0  0  0  0  0  0  0  0  0  0  0  0
   10.8759   12.7078    5.4229 N   0  0  0  0  0  0  0  0  0  0  0  0
  1  2  1  0  0  0  0
  1  6  1  0  0  0  0
  2  3  2  0  0  0  0
  3  4  1  0  0  0  0
  4  5  2  0  0  0  0
  4 10  1  0  0  0  0
  5  6  1  0  0  0  0
  5  8  1  0  0  0  0
  6  7  2  0  0  0  0
  8  9  1  0  0  0  0
  9 10  2  0  0  0  0
M  END
>  <CHROM.1>
11.49251464,11.26778250,6.94701521,0.38301174,-1.28347214,0.87892801

>  <Name>
ligand

>  <RI>
0

>  <Rbt.Current_Directory>
/home/itssahil/PROJECTS/Mol_Feturizer/Test_systems_manuscript/rnas/4fe5

>  <Rbt.Executable>
rbdock ($Id: //depot/dev/client3/rdock/2013.1/src/exe/rbdock.cxx#4 $)

>  <Rbt.Library>
libRbt.so (2013.1, Build901 2013/11/27)

>  <Rbt.Parameter_File>
/export/apps/rDock/src/rDock_2013.1_src/data/scripts/dock_solv.prm

>  <Rbt.Receptor>
prm/pocket_docking_4.prm

>  <SCORE>
-17.4248

>  <SCORE.INTER>
-17.4249

>  <SCORE.INTER.CONST>
1

>  <SCORE.INTER.POLAR>
0

>  <SCORE.INTER.ROT>
0

>  <SCORE.INTER.SOLV>
3.66482

>  <SCORE.INTER.VDW>
-16.4382

>  <SCORE.INTER.norm>
-1.74249

>  <SCORE.INTRA>
0

>  <SCORE.INTRA.DIHEDRAL>
0

>  <SCORE.INTRA.DIHEDRAL.0>
0

>  <SCORE.INTRA.POLAR>
0

>  <SCORE.INTRA.POLAR.0>
0

>  <SCORE.INTRA.REPUL>
0

>  <SCORE.INTRA.REPUL.0>
0

>  <SCORE.INTRA.SOLV>
0

>  <SCORE.INTRA.SOLV.lig_0>
-4.28333

>  <SCORE.INTRA.VDW>
0

>  <SCORE.INTRA.VDW.0>
0

>  <SCORE.INTRA.norm>
0

>  <SCORE.RESTR>
0.000144822

>  <SCORE.RESTR.CAVITY>
0.000144822

>  <SCORE.RESTR.norm>
1.44822e-05

>  <SCORE.SYSTEM>
0

>  <SCORE.SYSTEM.CONST>
0

>  <SCORE.SYSTEM.DIHEDRAL>
0

>  <SCORE.SYSTEM.SOLV>
0

>  <SCORE.SYSTEM.norm>
0

>  <SCORE.heavy>
10

>  <SCORE.norm>
-1.74248

>  <RMSD>
0.397

$$$$
ligand
 OpenBabel02271912143D
libRbt.so/2013.1/901 2013/11/27
 10 11  0  0  0  0  0  0  0  0999 V2000
   11.9634   10.8008    8.7630 N   0  0  0  0  0  0  0  0  0  0  0  0
   11.7205   12.1487    8.8860 C   0  0  0  0  0  0  0  0  0  0  0  0
   11.3753   12.9044    7.8420 N   0  0  0  0  0  0  0  0  0  0  0  0
   11.2937   12.2088    6.6722 C   0  0  0  0  0  0  0  0  0  0  0  0
   11.5256   10.8608    6.4820 C   0  0  0  0  0  0  0  0  0  0  0  0
   11.8925   10.0488    7.5900 C   0  0  0  0  0  0  0  0  0  0  0  0
   12.1409    8.8385    7.6482 O   0  0  0  0  0  0  0  0  0  0  0  0
   11.3357   10.5713    5.1600 N   0  0  0  0  0  0  0  0  0  0  0  0
   10.9894   11.7305    4.5536 C   0  0  0  0  0  0  0  0  0  0  0  0
   10.9554   12.7648    5.4639 N   0  0  0  0  0  0  0  0  0  0  0  0
  1  2  1  0  0  0  0
  1  6  1  0  0  0  0
  2  3  2  0  0  0  0
  3  4  1  0  0  0  0
  4  5  2  0  0  0  0
  4 10  1  0  0  0  0
  5  6  1  0  0  0  0
  5  8  1  0  0  0  0
  6  7  2  0  0  0  0
  8  9  1  0  0  0  0
  9 10  2  0  0  0  0
M  END
>  <CHROM.1>
11.53126074,11.24233667,6.92253965,0.27095988,-1.30485742,0.81184683

>  <Name>
ligand

>  <RI>
0

>  <Rbt.Current_Directory>
/home/itssahil/PROJECTS/Mol_Feturizer/Test_systems_manuscript/rnas/4fe5

>  <Rbt.Executable>
rbdock ($Id: //depot/dev/client3/rdock/2013.1/src/exe/rbdock.cxx#4 $)

>  <Rbt.Library>
libRbt.so (2013.1, Build901 2013/11/27)

>  <Rbt.Parameter_File>
/export/apps/rDock/src/rDock_2013.1_src/data/scripts/dock_solv.prm

>  <Rbt.Receptor>
prm/pocket_docking_8.prm

>  <SCORE>
-17.3659

>  <SCORE.INTER>
-17.3659

>  <SCORE.INTER.CONST>
1

>  <SCORE.INTER.POLAR>
0

>  <SCORE.INTER.ROT>
0

>  <SCORE.INTER.SOLV>
3.67445

>  <SCORE.INTER.VDW>
-16.4021

>  <SCORE.INTER.norm>
-1.73659

>  <SCORE.INTRA>
0

>  <SCORE.INTRA.DIHEDRAL>
0

>  <SCORE.INTRA.DIHEDRAL.0>
0

>  <SCORE.INTRA.POLAR>
0

>  <SCORE.INTRA.POLAR.0>
0

>  <SCORE.INTRA.REPUL>
0

>  <SCORE.INTRA.REPUL.0>
0

>  <SCORE.INTRA.SOLV>
0

>  <SCORE.INTRA.SOLV.lig_0>
-4.28333

>  <SCORE.INTRA.VDW>
0

>  <SCORE.INTRA.VDW.0>
0

>  <SCORE.INTRA.norm>
0

>  <SCORE.RESTR>
0

>  <SCORE.RESTR.CAVITY>
0

>  <SCORE.RESTR.norm>
0

>  <SCORE.SYSTEM>
0

>  <SCORE.SYSTEM.CONST>
0

>  <SCORE.SYSTEM.DIHEDRAL>
0

>  <SCORE.SYSTEM.SOLV>
0

>  <SCORE.SYSTEM.norm>
0

>  <SCORE.heavy>
10

>  <SCORE.norm>
-1.73659

>  <RMSD>
0.402

$$$$
ligand
 OpenBabel02271912143D
libRbt.so/2013.1/901 2013/11/27
 10 11  0  0  0  0  0  0  0  0999 V2000
   11.9054   10.9280    8.8096 N   0  0  0  0  0  0  0  0  0  0  0  0
   11.6085   12.2694    8.8685 C   0  0  0  0  0  0  0  0  0  0  0  0
   11.2515   12.9640    7.7867 N   0  0  0  0  0  0  0  0  0  0  0  0
   11.2160   12.2147    6.6482 C   0  0  0  0  0  0  0  0  0  0  0  0
   11.5030   10.8698    6.5221 C   0  0  0  0  0  0  0  0  0  0  0  0
   11.8828   10.1227    7.6706 C   0  0  0  0  0  0  0  0  0  0  0  0
   12.1768    8.9268    7.7866 O   0  0  0  0  0  0  0  0  0  0  0  0
   11.3461   10.5149    5.2117 N   0  0  0  0  0  0  0  0  0  0  0  0
   10.9651   11.6315    4.5490 C   0  0  0  0  0  0  0  0  0  0  0  0
   10.8763   12.7029    5.4114 N   0  0  0  0  0  0  0  0  0  0  0  0
  1  2  1  0  0  0  0
  1  6  1  0  0  0  0
  2  3  2  0  0  0  0
  3  4  1  0  0  0  0
  4  5  2  0  0  0  0
  4 10  1  0  0  0  0
  5  6  1  0  0  0  0
  5  8  1  0  0  0  0
  6  7  2  0  0  0  0
  8  9  1  0  0  0  0
  9 10  2  0  0  0  0
M  END
>  <CHROM.1>
11.48662994,11.27035989,6.94504995,0.40820418,-1.28549508,0.89937887

>  <Name>
ligand

>  <RI>
0

>  <Rbt.Current_Directory>
/home/itssahil/PROJECTS/Mol_Feturizer/Test_systems_manuscript/rnas/4fe5

>  <Rbt.Executable>
rbdock ($Id: //depot/dev/client3/rdock/2013.1/src/exe/rbdock.cxx#4 $)

>  <Rbt.Library>
libRbt.so (2013.1, Build901 2013/11/27)

>  <Rbt.Parameter_File>
/export/apps/rDock/src/rDock_2013.1_src/data/scripts/dock_solv.prm

>  <Rbt.Receptor>
prm/blind_docking_60.prm

>  <SCORE>
-17.4157

>  <SCORE.INTER>
-17.4157

>  <SCORE.INTER.CONST>
1

>  <SCORE.INTER.POLAR>
0

>  <SCORE.INTER.ROT>
0

>  <SCORE.INTER.SOLV>
3.67862

>  <SCORE.INTER.VDW>
-16.4367

>  <SCORE.INTER.norm>
-1.74157

>  <SCORE.INTRA>
0

>  <SCORE.INTRA.DIHEDRAL>
0

>  <SCORE.INTRA.DIHEDRAL.0>
0

>  <SCORE.INTRA.POLAR>
0

>  <SCORE.INTRA.POLAR.0>
0

>  <SCORE.INTRA.REPUL>
0

>  <SCORE.INTRA.REPUL.0>
0

>  <SCORE.INTRA.SOLV>
0

>  <SCORE.INTRA.SOLV.lig_0>
-4.28333

>  <SCORE.INTRA.VDW>
0

>  <SCORE.INTRA.VDW.0>
0

>  <SCORE.INTRA.norm>
0

>  <SCORE.RESTR>
0

>  <SCORE.RESTR.CAVITY>
0

>  <SCORE.RESTR.norm>
0

>  <SCORE.SYSTEM>
0

>  <SCORE.SYSTEM.CONST>
0

>  <SCORE.SYSTEM.DIHEDRAL>
0

>  <SCORE.SYSTEM.SOLV>
0

>  <SCORE.SYSTEM.norm>
0

>  <SCORE.heavy>
10

>  <SCORE.norm>
-1.74157

>  <RMSD>
0.404

$$$$
ligand
 OpenBabel02271912143D
libRbt.so/2013.1/901 2013/11/27
 10 11  0  0  0  0  0  0  0  0999 V2000
   11.9840   10.8386    8.7443 N   0  0  0  0  0  0  0  0  0  0  0  0
   11.7056   12.1805    8.8579 C   0  0  0  0  0  0  0  0  0  0  0  0
   11.3227   12.9155    7.8122 N   0  0  0  0  0  0  0  0  0  0  0  0
   11.2417   12.2058    6.6509 C   0  0  0  0  0  0  0  0  0  0  0  0
   11.5082   10.8628    6.4703 C   0  0  0  0  0  0  0  0  0  0  0  0
   11.9153   10.0729    7.5801 C   0  0  0  0  0  0  0  0  0  0  0  0
   12.1983    8.8706    7.6462 O   0  0  0  0  0  0  0  0  0  0  0  0
   11.3053   10.5546    5.1545 N   0  0  0  0  0  0  0  0  0  0  0  0
   10.9170   11.6974    4.5424 C   0  0  0  0  0  0  0  0  0  0  0  0
   10.8687   12.7397    5.4429 N   0  0  0  0  0  0  0  0  0  0  0  0
  1  2  1  0  0  0  0
  1  6  1  0  0  0  0
  2  3  2  0  0  0  0
  3  4  1  0  0  0  0
  4  5  2  0  0  0  0
  4 10  1  0  0  0  0
  5  6  1  0  0  0  0
  5  8  1  0  0  0  0
  6  7  2  0  0  0  0
  8  9  1  0  0  0  0
  9 10  2  0  0  0  0
M  END
>  <CHROM.1>
11.51021937,11.24894149,6.90683359,0.29688678,-1.27344144,0.82665995

>  <Name>
ligand

>  <RI>
0

>  <Rbt.Current_Directory>
/home/itssahil/PROJECTS/Mol_Feturizer/Test_systems_manuscript/rnas/4fe5

>  <Rbt.Executable>
rbdock ($Id: //depot/dev/client3/rdock/2013.1/src/exe/rbdock.cxx#4 $)

>  <Rbt.Library>
libRbt.so (2013.1, Build901 2013/11/27)

>  <Rbt.Parameter_File>
/export/apps/rDock/src/rDock_2013.1_src/data/scripts/dock_solv.prm

>  <Rbt.Receptor>
prm/pocket_docking_8.prm

>  <SCORE>
-17.4042

>  <SCORE.INTER>
-17.4048

>  <SCORE.INTER.CONST>
1

>  <SCORE.INTER.POLAR>
0

>  <SCORE.INTER.ROT>
0

>  <SCORE.INTER.SOLV>
3.57767

>  <SCORE.INTER.VDW>
-16.3958

>  <SCORE.INTER.norm>
-1.74048

>  <SCORE.INTRA>
0

>  <SCORE.INTRA.DIHEDRAL>
0

>  <SCORE.INTRA.DIHEDRAL.0>
0

>  <SCORE.INTRA.POLAR>
0

>  <SCORE.INTRA.POLAR.0>
0

>  <SCORE.INTRA.REPUL>
0

>  <SCORE.INTRA.REPUL.0>
0

>  <SCORE.INTRA.SOLV>
0

>  <SCORE.INTRA.SOLV.lig_0>
-4.28333

>  <SCORE.INTRA.VDW>
0

>  <SCORE.INTRA.VDW.0>
0

>  <SCORE.INTRA.norm>
0

>  <SCORE.RESTR>
0.000676468

>  <SCORE.RESTR.CAVITY>
0.000676468

>  <SCORE.RESTR.norm>
6.76468e-05

>  <SCORE.SYSTEM>
0

>  <SCORE.SYSTEM.CONST>
0

>  <SCORE.SYSTEM.DIHEDRAL>
0

>  <SCORE.SYSTEM.SOLV>
0

>  <SCORE.SYSTEM.norm>
0

>  <SCORE.heavy>
10

>  <SCORE.norm>
-1.74042

>  <RMSD>
0.406

$$$$
ligand
 OpenBabel02271912143D
libRbt.so/2013.1/901 2013/11/27
 10 11  0  0  0  0  0  0  0  0999 V2000
   11.9006   10.9276    8.8053 N   0  0  0  0  0  0  0  0  0  0  0  0
   11.6033   12.2690    8.8616 C   0  0  0  0  0  0  0  0  0  0  0  0
   11.2527   12.9630    7.7773 N   0  0  0  0  0  0  0  0  0  0  0  0
   11.2240   12.2130    6.6391 C   0  0  0  0  0  0  0  0  0  0  0  0
   11.5118   10.8680    6.5155 C   0  0  0  0  0  0  0  0  0  0  0  0
   11.8848   10.1216    7.6667 C   0  0  0  0  0  0  0  0  0  0  0  0
   12.1782    8.9258    7.7852 O   0  0  0  0  0  0  0  0  0  0  0  0
   11.3628   10.5123    5.2044 N   0  0  0  0  0  0  0  0  0  0  0  0
   10.9857   11.6285    4.5387 C   0  0  0  0  0  0  0  0  0  0  0  0
   10.8917   12.7004    5.4000 N   0  0  0  0  0  0  0  0  0  0  0  0
  1  2  1  0  0  0  0
  1  6  1  0  0  0  0
  2  3  2  0  0  0  0
  3  4  1  0  0  0  0
  4  5  2  0  0  0  0
  4 10  1  0  0  0  0
  5  6  1  0  0  0  0
  5  8  1  0  0  0  0
  6  7  2  0  0  0  0
  8  9  1  0  0  0  0
  9 10  2  0  0  0  0
M  END
>  <CHROM.1>
11.49293813,11.26881090,6.93811913,0.42513919,-1.28912627,0.91503969

>  <Name>
ligand

>  <RI>
0

>  <Rbt.Current_Directory>
/home/itssahil/PROJECTS/Mol_Feturizer/Test_systems_manuscript/rnas/4fe5

>  <Rbt.Executable>
rbdock ($Id: //depot/dev/client3/rdock/2013.1/src/exe/rbdock.cxx#4 $)

>  <Rbt.Library>
libRbt.so (2013.1, Build901 2013/11/27)

>  <Rbt.Parameter_File>
/export/apps/rDock/src/rDock_2013.1_src/data/scripts/dock_solv.prm

>  <Rbt.Receptor>
prm/pocket_docking_8.prm

>  <SCORE>
-17.4295

>  <SCORE.INTER>
-17.4337

>  <SCORE.INTER.CONST>
1

>  <SCORE.INTER.POLAR>
0

>  <SCORE.INTER.ROT>
0

>  <SCORE.INTER.SOLV>
3.68349

>  <SCORE.INTER.VDW>
-16.4503

>  <SCORE.INTER.norm>
-1.74337

>  <SCORE.INTRA>
0

>  <SCORE.INTRA.DIHEDRAL>
0

>  <SCORE.INTRA.DIHEDRAL.0>
0

>  <SCORE.INTRA.POLAR>
0

>  <SCORE.INTRA.POLAR.0>
0

>  <SCORE.INTRA.REPUL>
0

>  <SCORE.INTRA.REPUL.0>
0

>  <SCORE.INTRA.SOLV>
0

>  <SCORE.INTRA.SOLV.lig_0>
-4.28333

>  <SCORE.INTRA.VDW>
0

>  <SCORE.INTRA.VDW.0>
0

>  <SCORE.INTRA.norm>
0

>  <SCORE.RESTR>
0.00419916

>  <SCORE.RESTR.CAVITY>
0.00419916

>  <SCORE.RESTR.norm>
0.000419916

>  <SCORE.SYSTEM>
0

>  <SCORE.SYSTEM.CONST>
0

>  <SCORE.SYSTEM.DIHEDRAL>
0

>  <SCORE.SYSTEM.SOLV>
0

>  <SCORE.SYSTEM.norm>
0

>  <SCORE.heavy>
10

>  <SCORE.norm>
-1.74295

>  <RMSD>
0.409

$$$$
ligand
 OpenBabel02271912143D
libRbt.so/2013.1/901 2013/11/27
 10 11  0  0  0  0  0  0  0  0999 V2000
   11.8903   10.9379    8.8114 N   0  0  0  0  0  0  0  0  0  0  0  0
   11.5914   12.2791    8.8630 C   0  0  0  0  0  0  0  0  0  0  0  0
   11.2388   12.9686    7.7765 N   0  0  0  0  0  0  0  0  0  0  0  0
   11.2100   12.2143    6.6411 C   0  0  0  0  0  0  0  0  0  0  0  0
   11.4995   10.8692    6.5222 C   0  0  0  0  0  0  0  0  0  0  0  0
   11.8746   10.1276    7.6758 C   0  0  0  0  0  0  0  0  0  0  0  0
   12.1697    8.9327    7.7985 O   0  0  0  0  0  0  0  0  0  0  0  0
   11.3497   10.5084    5.2126 N   0  0  0  0  0  0  0  0  0  0  0  0
   10.9705   11.6217    4.5432 C   0  0  0  0  0  0  0  0  0  0  0  0
   10.8758   12.6967    5.4005 N   0  0  0  0  0  0  0  0  0  0  0  0
  1  2  1  0  0  0  0
  1  6  1  0  0  0  0
  2  3  2  0  0  0  0
  3  4  1  0  0  0  0
  4  5  2  0  0  0  0
  4 10  1  0  0  0  0
  5  6  1  0  0  0  0
  5  8  1  0  0  0  0
  6  7  2  0  0  0  0
  8  9  1  0  0  0  0
  9 10  2  0  0  0  0
M  END
>  <CHROM.1>
11.48049962,11.27159120,6.94337389,0.42536674,-1.28748796,0.91152645

>  <Name>
ligand

>  <RI>
0

>  <Rbt.Current_Directory>
/home/itssahil/PROJECTS/Mol_Feturizer/Test_systems_manuscript/rnas/4fe5

>  <Rbt.Executable>
rbdock ($Id: //depot/dev/client3/rdock/2013.1/src/exe/rbdock.cxx#4 $)

>  <Rbt.Library>
libRbt.so (2013.1, Build901 2013/11/27)

>  <Rbt.Parameter_File>
/export/apps/rDock/src/rDock_2013.1_src/data/scripts/dock_solv.prm

>  <Rbt.Receptor>
prm/pocket_docking_3.prm

>  <SCORE>
-17.4093

>  <SCORE.INTER>
-17.4093

>  <SCORE.INTER.CONST>
1

>  <SCORE.INTER.POLAR>
0

>  <SCORE.INTER.ROT>
0

>  <SCORE.INTER.SOLV>
3.69326

>  <SCORE.INTER.VDW>
-16.4373

>  <SCORE.INTER.norm>
-1.74093

>  <SCORE.INTRA>
0

>  <SCORE.INTRA.DIHEDRAL>
0

>  <SCORE.INTRA.DIHEDRAL.0>
0

>  <SCORE.INTRA.POLAR>
0

>  <SCORE.INTRA.POLAR.0>
0

>  <SCORE.INTRA.REPUL>
0

>  <SCORE.INTRA.REPUL.0>
0

>  <SCORE.INTRA.SOLV>
0

>  <SCORE.INTRA.SOLV.lig_0>
-4.28333

>  <SCORE.INTRA.VDW>
0

>  <SCORE.INTRA.VDW.0>
0

>  <SCORE.INTRA.norm>
0

>  <SCORE.RESTR>
2.75104e-05

>  <SCORE.RESTR.CAVITY>
2.75104e-05

>  <SCORE.RESTR.norm>
2.75104e-06

>  <SCORE.SYSTEM>
0

>  <SCORE.SYSTEM.CONST>
0

>  <SCORE.SYSTEM.DIHEDRAL>
0

>  <SCORE.SYSTEM.SOLV>
0

>  <SCORE.SYSTEM.norm>
0

>  <SCORE.heavy>
10

>  <SCORE.norm>
-1.74093

>  <RMSD>
0.411

$$$$
ligand
 OpenBabel02271912143D
libRbt.so/2013.1/901 2013/11/27
 10 11  0  0  0  0  0  0  0  0999 V2000
   11.9434   10.8833    8.7599 N   0  0  0  0  0  0  0  0  0  0  0  0
   11.6419   12.2223    8.8454 C   0  0  0  0  0  0  0  0  0  0  0  0
   11.2662   12.9332    7.7806 N   0  0  0  0  0  0  0  0  0  0  0  0
   11.2172   12.2027    6.6305 C   0  0  0  0  0  0  0  0  0  0  0  0
   11.5079   10.8613    6.4778 C   0  0  0  0  0  0  0  0  0  0  0  0
   11.9075   10.0969    7.6080 C   0  0  0  0  0  0  0  0  0  0  0  0
   12.2082    8.9006    7.6998 O   0  0  0  0  0  0  0  0  0  0  0  0
   11.3334   10.5276    5.1641 N   0  0  0  0  0  0  0  0  0  0  0  0
   10.9381   11.6534    4.5257 C   0  0  0  0  0  0  0  0  0  0  0  0
   10.8574   12.7099    5.4070 N   0  0  0  0  0  0  0  0  0  0  0  0
  1  2  1  0  0  0  0
  1  6  1  0  0  0  0
  2  3  2  0  0  0  0
  3  4  1  0  0  0  0
  4  5  2  0  0  0  0
  4 10  1  0  0  0  0
  5  6  1  0  0  0  0
  5  8  1  0  0  0  0
  6  7  2  0  0  0  0
  8  9  1  0  0  0  0
  9 10  2  0  0  0  0
M  END
>  <CHROM.1>
11.49607984,11.25475614,6.90757327,0.37802021,-1.27303736,0.88710107

>  <Name>
ligand

>  <RI>
0

>  <Rbt.Current_Directory>
/home/itssahil/PROJECTS/Mol_Feturizer/Test_systems_manuscript/rnas/4fe5

>  <Rbt.Executable>
rbdock ($Id: //depot/dev/client3/rdock/2013.1/src/exe/rbdock.cxx#4 $)

>  <Rbt.Library>
libRbt.so (2013.1, Build901 2013/11/27)

>  <Rbt.Parameter_File>
/export/apps/rDock/src/rDock_2013.1_src/data/scripts/dock_solv.prm

>  <Rbt.Receptor>
prm/blind_docking_40.prm

>  <SCORE>
-17.4441

>  <SCORE.INTER>
-17.4453

>  <SCORE.INTER.CONST>
1

>  <SCORE.INTER.POLAR>
0

>  <SCORE.INTER.ROT>
0

>  <SCORE.INTER.SOLV>
3.59921

>  <SCORE.INTER.VDW>
-16.43

>  <SCORE.INTER.norm>
-1.74453

>  <SCORE.INTRA>
0

>  <SCORE.INTRA.DIHEDRAL>
0

>  <SCORE.INTRA.DIHEDRAL.0>
0

>  <SCORE.INTRA.POLAR>
0

>  <SCORE.INTRA.POLAR.0>
0

>  <SCORE.INTRA.REPUL>
0

>  <SCORE.INTRA.REPUL.0>
0

>  <SCORE.INTRA.SOLV>
0

>  <SCORE.INTRA.SOLV.lig_0>
-4.28333

>  <SCORE.INTRA.VDW>
0

>  <SCORE.INTRA.VDW.0>
0

>  <SCORE.INTRA.norm>
0

>  <SCORE.RESTR>
0.00119061

>  <SCORE.RESTR.CAVITY>
0.00119061

>  <SCORE.RESTR.norm>
0.000119061

>  <SCORE.SYSTEM>
0

>  <SCORE.SYSTEM.CONST>
0

>  <SCORE.SYSTEM.DIHEDRAL>
0

>  <SCORE.SYSTEM.SOLV>
0

>  <SCORE.SYSTEM.norm>
0

>  <SCORE.heavy>
10

>  <SCORE.norm>
-1.74441

>  <RMSD>
0.413

$$$$
ligand
 OpenBabel02271912143D
libRbt.so/2013.1/901 2013/11/27
 10 11  0  0  0  0  0  0  0  0999 V2000
   11.9333   10.8823    8.7669 N   0  0  0  0  0  0  0  0  0  0  0  0
   11.6413   12.2227    8.8610 C   0  0  0  0  0  0  0  0  0  0  0  0
   11.2790   12.9450    7.7992 N   0  0  0  0  0  0  0  0  0  0  0  0
   11.2331   12.2241    6.6429 C   0  0  0  0  0  0  0  0  0  0  0  0
   11.5148   10.8818    6.4815 C   0  0  0  0  0  0  0  0  0  0  0  0
   11.9001   10.1054    7.6085 C   0  0  0  0  0  0  0  0  0  0  0  0
   12.1910    8.9061    7.6929 O   0  0  0  0  0  0  0  0  0  0  0  0
   11.3475   10.5600    5.1640 N   0  0  0  0  0  0  0  0  0  0  0  0
   10.9656   11.6939    4.5317 C   0  0  0  0  0  0  0  0  0  0  0  0
   10.8864   12.7439    5.4209 N   0  0  0  0  0  0  0  0  0  0  0  0
  1  2  1  0  0  0  0
  1  6  1  0  0  0  0
  2  3  2  0  0  0  0
  3  4  1  0  0  0  0
  4  5  2  0  0  0  0
  4 10  1  0  0  0  0
  5  6  1  0  0  0  0
  5  8  1  0  0  0  0
  6  7  2  0  0  0  0
  8  9  1  0  0  0  0
  9 10  2  0  0  0  0
M  END
>  <CHROM.1>
11.50267975,11.27190299,6.91439601,0.38164334,-1.28364382,0.89861558

>  <Name>
ligand

>  <RI>
0

>  <Rbt.Current_Directory>
/home/itssahil/PROJECTS/Mol_Feturizer/Test_systems_manuscript/rnas/4fe5

>  <Rbt.Executable>
rbdock ($Id: //depot/dev/client3/rdock/2013.1/src/exe/rbdock.cxx#4 $)

>  <Rbt.Library>
libRbt.so (2013.1, Build901 2013/11/27)

>  <Rbt.Parameter_File>
/export/apps/rDock/src/rDock_2013.1_src/data/scripts/dock_solv.prm

>  <Rbt.Receptor>
prm/pocket_docking_7.prm

>  <SCORE>
-17.4075

>  <SCORE.INTER>
-17.4075

>  <SCORE.INTER.CONST>
1

>  <SCORE.INTER.POLAR>
0

>  <SCORE.INTER.ROT>
0

>  <SCORE.INTER.SOLV>
3.62005

>  <SCORE.INTER.VDW>
-16.4117

>  <SCORE.INTER.norm>
-1.74075

>  <SCORE.INTRA>
0

>  <SCORE.INTRA.DIHEDRAL>
0

>  <SCORE.INTRA.DIHEDRAL.0>
0

>  <SCORE.INTRA.POLAR>
0

>  <SCORE.INTRA.POLAR.0>
0

>  <SCORE.INTRA.REPUL>
0

>  <SCORE.INTRA.REPUL.0>
0

>  <SCORE.INTRA.SOLV>
0

>  <SCORE.INTRA.SOLV.lig_0>
-4.28333

>  <SCORE.INTRA.VDW>
0

>  <SCORE.INTRA.VDW.0>
0

>  <SCORE.INTRA.norm>
0

>  <SCORE.RESTR>
0

>  <SCORE.RESTR.CAVITY>
0

>  <SCORE.RESTR.norm>
0

>  <SCORE.SYSTEM>
0

>  <SCORE.SYSTEM.CONST>
0

>  <SCORE.SYSTEM.DIHEDRAL>
0

>  <SCORE.SYSTEM.SOLV>
0

>  <SCORE.SYSTEM.norm>
0

>  <SCORE.heavy>
10

>  <SCORE.norm>
-1.74075

>  <RMSD>
0.413

$$$$
ligand
 OpenBabel02271912143D
libRbt.so/2013.1/901 2013/11/27
 10 11  0  0  0  0  0  0  0  0999 V2000
   11.8806   10.9069    8.8054 N   0  0  0  0  0  0  0  0  0  0  0  0
   11.5989   12.2514    8.8683 C   0  0  0  0  0  0  0  0  0  0  0  0
   11.2647   12.9565    7.7860 N   0  0  0  0  0  0  0  0  0  0  0  0
   11.2357   12.2143    6.6427 C   0  0  0  0  0  0  0  0  0  0  0  0
   11.5085   10.8668    6.5123 C   0  0  0  0  0  0  0  0  0  0  0  0
   11.8639   10.1086    7.6613 C   0  0  0  0  0  0  0  0  0  0  0  0
   12.1422    8.9086    7.7741 O   0  0  0  0  0  0  0  0  0  0  0  0
   11.3651   10.5215    5.1979 N   0  0  0  0  0  0  0  0  0  0  0  0
   11.0063   11.6465    4.5368 C   0  0  0  0  0  0  0  0  0  0  0  0
   10.9185   12.7138    5.4044 N   0  0  0  0  0  0  0  0  0  0  0  0
  1  2  1  0  0  0  0
  1  6  1  0  0  0  0
  2  3  2  0  0  0  0
  3  4  1  0  0  0  0
  4  5  2  0  0  0  0
  4 10  1  0  0  0  0
  5  6  1  0  0  0  0
  5  8  1  0  0  0  0
  6  7  2  0  0  0  0
  8  9  1  0  0  0  0
  9 10  2  0  0  0  0
M  END
>  <CHROM.1>
11.49114113,11.26511230,6.93745666,0.42037816,-1.30311482,0.91701144

>  <Name>
ligand

>  <RI>
0

>  <Rbt.Current_Directory>
/home/itssahil/PROJECTS/Mol_Feturizer/Test_systems_manuscript/rnas/4fe5

>  <Rbt.Executable>
rbdock ($Id: //depot/dev/client3/rdock/2013.1/src/exe/rbdock.cxx#4 $)

>  <Rbt.Library>
libRbt.so (2013.1, Build901 2013/11/27)

>  <Rbt.Parameter_File>
/export/apps/rDock/src/rDock_2013.1_src/data/scripts/dock_solv.prm

>  <Rbt.Receptor>
prm/blind_docking_80.prm

>  <SCORE>
-17.4058

>  <SCORE.INTER>
-17.4092

>  <SCORE.INTER.CONST>
1

>  <SCORE.INTER.POLAR>
0

>  <SCORE.INTER.ROT>
0

>  <SCORE.INTER.SOLV>
3.7227

>  <SCORE.INTER.VDW>
-16.4471

>  <SCORE.INTER.norm>
-1.74092

>  <SCORE.INTRA>
0

>  <SCORE.INTRA.DIHEDRAL>
0

>  <SCORE.INTRA.DIHEDRAL.0>
0

>  <SCORE.INTRA.POLAR>
0

>  <SCORE.INTRA.POLAR.0>
0

>  <SCORE.INTRA.REPUL>
0

>  <SCORE.INTRA.REPUL.0>
0

>  <SCORE.INTRA.SOLV>
0

>  <SCORE.INTRA.SOLV.lig_0>
-4.28333

>  <SCORE.INTRA.VDW>
0

>  <SCORE.INTRA.VDW.0>
0

>  <SCORE.INTRA.norm>
0

>  <SCORE.RESTR>
0.00342602

>  <SCORE.RESTR.CAVITY>
0.00342602

>  <SCORE.RESTR.norm>
0.000342602

>  <SCORE.SYSTEM>
0

>  <SCORE.SYSTEM.CONST>
0

>  <SCORE.SYSTEM.DIHEDRAL>
0

>  <SCORE.SYSTEM.SOLV>
0

>  <SCORE.SYSTEM.norm>
0

>  <SCORE.heavy>
10

>  <SCORE.norm>
-1.74058

>  <RMSD>
0.414

$$$$
ligand
 OpenBabel02271912143D
libRbt.so/2013.1/901 2013/11/27
 10 11  0  0  0  0  0  0  0  0999 V2000
   11.8765   10.8942    8.7953 N   0  0  0  0  0  0  0  0  0  0  0  0
   11.5938   12.2380    8.8696 C   0  0  0  0  0  0  0  0  0  0  0  0
   11.2602   12.9523    7.7932 N   0  0  0  0  0  0  0  0  0  0  0  0
   11.2327   12.2200    6.6435 C   0  0  0  0  0  0  0  0  0  0  0  0
   11.5064   10.8739    6.5016 C   0  0  0  0  0  0  0  0  0  0  0  0
   11.8612   10.1059    7.6443 C   0  0  0  0  0  0  0  0  0  0  0  0
   12.1402    8.9052    7.7469 O   0  0  0  0  0  0  0  0  0  0  0  0
   11.3644   10.5399    5.1841 N   0  0  0  0  0  0  0  0  0  0  0  0
   11.0055   11.6703    4.5325 C   0  0  0  0  0  0  0  0  0  0  0  0
   10.9163   12.7300    5.4093 N   0  0  0  0  0  0  0  0  0  0  0  0
  1  2  1  0  0  0  0
  1  6  1  0  0  0  0
  2  3  2  0  0  0  0
  3  4  1  0  0  0  0
  4  5  2  0  0  0  0
  4 10  1  0  0  0  0
  5  6  1  0  0  0  0
  5  8  1  0  0  0  0
  6  7  2  0  0  0  0
  8  9  1  0  0  0  0
  9 10  2  0  0  0  0
M  END
>  <CHROM.1>
11.48843185,11.26841864,6.93020167,0.42442416,-1.30317558,0.92960787

>  <Name>
ligand

>  <RI>
0

>  <Rbt.Current_Directory>
/home/itssahil/PROJECTS/Mol_Feturizer/Test_systems_manuscript/rnas/4fe5

>  <Rbt.Executable>
rbdock ($Id: //depot/dev/client3/rdock/2013.1/src/exe/rbdock.cxx#4 $)

>  <Rbt.Library>
libRbt.so (2013.1, Build901 2013/11/27)

>  <Rbt.Parameter_File>
/export/apps/rDock/src/rDock_2013.1_src/data/scripts/dock_solv.prm

>  <Rbt.Receptor>
prm/blind_docking_80.prm

>  <SCORE>
-17.4128

>  <SCORE.INTER>
-17.4128

>  <SCORE.INTER.CONST>
1

>  <SCORE.INTER.POLAR>
0

>  <SCORE.INTER.ROT>
0

>  <SCORE.INTER.SOLV>
3.71272

>  <SCORE.INTER.VDW>
-16.4461

>  <SCORE.INTER.norm>
-1.74128

>  <SCORE.INTRA>
0

>  <SCORE.INTRA.DIHEDRAL>
0

>  <SCORE.INTRA.DIHEDRAL.0>
0

>  <SCORE.INTRA.POLAR>
0

>  <SCORE.INTRA.POLAR.0>
0

>  <SCORE.INTRA.REPUL>
0

>  <SCORE.INTRA.REPUL.0>
0

>  <SCORE.INTRA.SOLV>
0

>  <SCORE.INTRA.SOLV.lig_0>
-4.28333

>  <SCORE.INTRA.VDW>
0

>  <SCORE.INTRA.VDW.0>
0

>  <SCORE.INTRA.norm>
0

>  <SCORE.RESTR>
0

>  <SCORE.RESTR.CAVITY>
0

>  <SCORE.RESTR.norm>
0

>  <SCORE.SYSTEM>
0

>  <SCORE.SYSTEM.CONST>
0

>  <SCORE.SYSTEM.DIHEDRAL>
0

>  <SCORE.SYSTEM.SOLV>
0

>  <SCORE.SYSTEM.norm>
0

>  <SCORE.heavy>
10

>  <SCORE.norm>
-1.74128

>  <RMSD>
0.417

$$$$
ligand
 OpenBabel02271912143D
libRbt.so/2013.1/901 2013/11/27
 10 11  0  0  0  0  0  0  0  0999 V2000
   11.9138   10.8588    8.7632 N   0  0  0  0  0  0  0  0  0  0  0  0
   11.6347   12.2019    8.8587 C   0  0  0  0  0  0  0  0  0  0  0  0
   11.2844   12.9299    7.7969 N   0  0  0  0  0  0  0  0  0  0  0  0
   11.2366   12.2119    6.6388 C   0  0  0  0  0  0  0  0  0  0  0  0
   11.5058   10.8672    6.4759 C   0  0  0  0  0  0  0  0  0  0  0  0
   11.8783   10.0847    7.6030 C   0  0  0  0  0  0  0  0  0  0  0  0
   12.1570    8.8824    7.6862 O   0  0  0  0  0  0  0  0  0  0  0  0
   11.3414   10.5497    5.1569 N   0  0  0  0  0  0  0  0  0  0  0  0
   10.9736   11.6886    4.5253 C   0  0  0  0  0  0  0  0  0  0  0  0
   10.9006   12.7375    5.4164 N   0  0  0  0  0  0  0  0  0  0  0  0
  1  2  1  0  0  0  0
  1  6  1  0  0  0  0
  2  3  2  0  0  0  0
  3  4  1  0  0  0  0
  4  5  2  0  0  0  0
  4 10  1  0  0  0  0
  5  6  1  0  0  0  0
  5  8  1  0  0  0  0
  6  7  2  0  0  0  0
  8  9  1  0  0  0  0
  9 10  2  0  0  0  0
M  END
>  <CHROM.1>
11.49557559,11.25647891,6.90953578,0.37226065,-1.29419452,0.89168112

>  <Name>
ligand

>  <RI>
0

>  <Rbt.Current_Directory>
/home/itssahil/PROJECTS/Mol_Feturizer/Test_systems_manuscript/rnas/4fe5

>  <Rbt.Executable>
rbdock ($Id: //depot/dev/client3/rdock/2013.1/src/exe/rbdock.cxx#4 $)

>  <Rbt.Library>
libRbt.so (2013.1, Build901 2013/11/27)

>  <Rbt.Parameter_File>
/export/apps/rDock/src/rDock_2013.1_src/data/scripts/dock_solv.prm

>  <Rbt.Receptor>
prm/blind_docking_100.prm

>  <SCORE>
-17.4459

>  <SCORE.INTER>
-17.4459

>  <SCORE.INTER.CONST>
1

>  <SCORE.INTER.POLAR>
0

>  <SCORE.INTER.ROT>
0

>  <SCORE.INTER.SOLV>
3.65745

>  <SCORE.INTER.VDW>
-16.4497

>  <SCORE.INTER.norm>
-1.74459

>  <SCORE.INTRA>
0

>  <SCORE.INTRA.DIHEDRAL>
0

>  <SCORE.INTRA.DIHEDRAL.0>
0

>  <SCORE.INTRA.POLAR>
0

>  <SCORE.INTRA.POLAR.0>
0

>  <SCORE.INTRA.REPUL>
0

>  <SCORE.INTRA.REPUL.0>
0

>  <SCORE.INTRA.SOLV>
0

>  <SCORE.INTRA.SOLV.lig_0>
-4.28333

>  <SCORE.INTRA.VDW>
0

>  <SCORE.INTRA.VDW.0>
0

>  <SCORE.INTRA.norm>
0

>  <SCORE.RESTR>
0

>  <SCORE.RESTR.CAVITY>
0

>  <SCORE.RESTR.norm>
0

>  <SCORE.SYSTEM>
0

>  <SCORE.SYSTEM.CONST>
0

>  <SCORE.SYSTEM.DIHEDRAL>
0

>  <SCORE.SYSTEM.SOLV>
0

>  <SCORE.SYSTEM.norm>
0

>  <SCORE.heavy>
10

>  <SCORE.norm>
-1.74459

>  <RMSD>
0.418

$$$$
ligand
 OpenBabel02271912143D
libRbt.so/2013.1/901 2013/11/27
 10 11  0  0  0  0  0  0  0  0999 V2000
   11.9073   10.8576    8.7621 N   0  0  0  0  0  0  0  0  0  0  0  0
   11.6239   12.2000    8.8547 C   0  0  0  0  0  0  0  0  0  0  0  0
   11.2790   12.9263    7.7898 N   0  0  0  0  0  0  0  0  0  0  0  0
   11.2412   12.2073    6.6320 C   0  0  0  0  0  0  0  0  0  0  0  0
   11.5150   10.8632    6.4721 C   0  0  0  0  0  0  0  0  0  0  0  0
   11.8818   10.0825    7.6023 C   0  0  0  0  0  0  0  0  0  0  0  0
   12.1631    8.8811    7.6884 O   0  0  0  0  0  0  0  0  0  0  0  0
   11.3606   10.5442    5.1522 N   0  0  0  0  0  0  0  0  0  0  0  0
   10.9942   11.6817    4.5172 C   0  0  0  0  0  0  0  0  0  0  0  0
   10.9123   12.7311    5.4069 N   0  0  0  0  0  0  0  0  0  0  0  0
  1  2  1  0  0  0  0
  1  6  1  0  0  0  0
  2  3  2  0  0  0  0
  3  4  1  0  0  0  0
  4  5  2  0  0  0  0
  4 10  1  0  0  0  0
  5  6  1  0  0  0  0
  5  8  1  0  0  0  0
  6  7  2  0  0  0  0
  8  9  1  0  0  0  0
  9 10  2  0  0  0  0
M  END
>  <CHROM.1>
11.50079721,11.25277547,6.90529319,0.39826216,-1.29638056,0.91592481

>  <Name>
ligand

>  <RI>
0

>  <Rbt.Current_Directory>
/home/itssahil/PROJECTS/Mol_Feturizer/Test_systems_manuscript/rnas/4fe5

>  <Rbt.Executable>
rbdock ($Id: //depot/dev/client3/rdock/2013.1/src/exe/rbdock.cxx#4 $)

>  <Rbt.Library>
libRbt.so (2013.1, Build901 2013/11/27)

>  <Rbt.Parameter_File>
/export/apps/rDock/src/rDock_2013.1_src/data/scripts/dock_solv.prm

>  <Rbt.Receptor>
prm/pocket_docking_7.prm

>  <SCORE>
-17.4546

>  <SCORE.INTER>
-17.4546

>  <SCORE.INTER.CONST>
1

>  <SCORE.INTER.POLAR>
0

>  <SCORE.INTER.ROT>
0

>  <SCORE.INTER.SOLV>
3.65988

>  <SCORE.INTER.VDW>
-16.4563

>  <SCORE.INTER.norm>
-1.74546

>  <SCORE.INTRA>
0

>  <SCORE.INTRA.DIHEDRAL>
0

>  <SCORE.INTRA.DIHEDRAL.0>
0

>  <SCORE.INTRA.POLAR>
0

>  <SCORE.INTRA.POLAR.0>
0

>  <SCORE.INTRA.REPUL>
0

>  <SCORE.INTRA.REPUL.0>
0

>  <SCORE.INTRA.SOLV>
0

>  <SCORE.INTRA.SOLV.lig_0>
-4.28333

>  <SCORE.INTRA.VDW>
0

>  <SCORE.INTRA.VDW.0>
0

>  <SCORE.INTRA.norm>
0

>  <SCORE.RESTR>
0

>  <SCORE.RESTR.CAVITY>
0

>  <SCORE.RESTR.norm>
0

>  <SCORE.SYSTEM>
0

>  <SCORE.SYSTEM.CONST>
0

>  <SCORE.SYSTEM.DIHEDRAL>
0

>  <SCORE.SYSTEM.SOLV>
0

>  <SCORE.SYSTEM.norm>
0

>  <SCORE.heavy>
10

>  <SCORE.norm>
-1.74546

>  <RMSD>
0.420

$$$$
ligand
 OpenBabel02271912143D
libRbt.so/2013.1/901 2013/11/27
 10 11  0  0  0  0  0  0  0  0999 V2000
   11.8739   10.8807    8.7793 N   0  0  0  0  0  0  0  0  0  0  0  0
   11.5830   12.2224    8.8575 C   0  0  0  0  0  0  0  0  0  0  0  0
   11.2491   12.9387    7.7825 N   0  0  0  0  0  0  0  0  0  0  0  0
   11.2302   12.2105    6.6300 C   0  0  0  0  0  0  0  0  0  0  0  0
   11.5125   10.8666    6.4842 C   0  0  0  0  0  0  0  0  0  0  0  0
   11.8676   10.0965    7.6254 C   0  0  0  0  0  0  0  0  0  0  0  0
   12.1533    8.8971    7.7246 O   0  0  0  0  0  0  0  0  0  0  0  0
   11.3773   10.5367    5.1650 N   0  0  0  0  0  0  0  0  0  0  0  0
   11.0141   11.6674    4.5162 C   0  0  0  0  0  0  0  0  0  0  0  0
   10.9153   12.7233    5.3965 N   0  0  0  0  0  0  0  0  0  0  0  0
  1  2  1  0  0  0  0
  1  6  1  0  0  0  0
  2  3  2  0  0  0  0
  3  4  1  0  0  0  0
  4  5  2  0  0  0  0
  4 10  1  0  0  0  0
  5  6  1  0  0  0  0
  5  8  1  0  0  0  0
  6  7  2  0  0  0  0
  8  9  1  0  0  0  0
  9 10  2  0  0  0  0
M  END
>  <CHROM.1>
11.49057598,11.25944232,6.91415776,0.44888375,-1.30053987,0.95688378

>  <Name>
ligand

>  <RI>
0

>  <Rbt.Current_Directory>
/home/itssahil/PROJECTS/Mol_Feturizer/Test_systems_manuscript/rnas/4fe5

>  <Rbt.Executable>
rbdock ($Id: //depot/dev/client3/rdock/2013.1/src/exe/rbdock.cxx#4 $)

>  <Rbt.Library>
libRbt.so (2013.1, Build901 2013/11/27)

>  <Rbt.Parameter_File>
/export/apps/rDock/src/rDock_2013.1_src/data/scripts/dock_solv.prm

>  <Rbt.Receptor>
prm/blind_docking_60.prm

>  <SCORE>
-17.4142

>  <SCORE.INTER>
-17.4142

>  <SCORE.INTER.CONST>
1

>  <SCORE.INTER.POLAR>
0

>  <SCORE.INTER.ROT>
0

>  <SCORE.INTER.SOLV>
3.69437

>  <SCORE.INTER.VDW>
-16.4409

>  <SCORE.INTER.norm>
-1.74142

>  <SCORE.INTRA>
0

>  <SCORE.INTRA.DIHEDRAL>
0

>  <SCORE.INTRA.DIHEDRAL.0>
0

>  <SCORE.INTRA.POLAR>
0

>  <SCORE.INTRA.POLAR.0>
0

>  <SCORE.INTRA.REPUL>
0

>  <SCORE.INTRA.REPUL.0>
0

>  <SCORE.INTRA.SOLV>
0

>  <SCORE.INTRA.SOLV.lig_0>
-4.28333

>  <SCORE.INTRA.VDW>
0

>  <SCORE.INTRA.VDW.0>
0

>  <SCORE.INTRA.norm>
0

>  <SCORE.RESTR>
0

>  <SCORE.RESTR.CAVITY>
0

>  <SCORE.RESTR.norm>
0

>  <SCORE.SYSTEM>
0

>  <SCORE.SYSTEM.CONST>
0

>  <SCORE.SYSTEM.DIHEDRAL>
0

>  <SCORE.SYSTEM.SOLV>
0

>  <SCORE.SYSTEM.norm>
0

>  <SCORE.heavy>
10

>  <SCORE.norm>
-1.74142

>  <RMSD>
0.423

$$$$
ligand
 OpenBabel02271912143D
libRbt.so/2013.1/901 2013/11/27
 10 11  0  0  0  0  0  0  0  0999 V2000
   11.8738   10.9447    8.8063 N   0  0  0  0  0  0  0  0  0  0  0  0
   11.5705   12.2851    8.8519 C   0  0  0  0  0  0  0  0  0  0  0  0
   11.2245   12.9706    7.7607 N   0  0  0  0  0  0  0  0  0  0  0  0
   11.2071   12.2131    6.6271 C   0  0  0  0  0  0  0  0  0  0  0  0
   11.5015   10.8686    6.5142 C   0  0  0  0  0  0  0  0  0  0  0  0
   11.8695   10.1313    7.6728 C   0  0  0  0  0  0  0  0  0  0  0  0
   12.1671    8.9375    7.8011 O   0  0  0  0  0  0  0  0  0  0  0  0
   11.3631   10.5039    5.2045 N   0  0  0  0  0  0  0  0  0  0  0  0
   10.9860   11.6142    4.5290 C   0  0  0  0  0  0  0  0  0  0  0  0
   10.8814   12.6912    5.3826 N   0  0  0  0  0  0  0  0  0  0  0  0
  1  2  1  0  0  0  0
  1  6  1  0  0  0  0
  2  3  2  0  0  0  0
  3  4  1  0  0  0  0
  4  5  2  0  0  0  0
  4 10  1  0  0  0  0
  5  6  1  0  0  0  0
  5  8  1  0  0  0  0
  6  7  2  0  0  0  0
  8  9  1  0  0  0  0
  9 10  2  0  0  0  0
M  END
>  <CHROM.1>
11.47788427,11.27210360,6.93413643,0.45459097,-1.28994356,0.93689490

>  <Name>
ligand

>  <RI>
0

>  <Rbt.Current_Directory>
/home/itssahil/PROJECTS/Mol_Feturizer/Test_systems_manuscript/rnas/4fe5

>  <Rbt.Executable>
rbdock ($Id: //depot/dev/client3/rdock/2013.1/src/exe/rbdock.cxx#4 $)

>  <Rbt.Library>
libRbt.so (2013.1, Build901 2013/11/27)

>  <Rbt.Parameter_File>
/export/apps/rDock/src/rDock_2013.1_src/data/scripts/dock_solv.prm

>  <Rbt.Receptor>
prm/pocket_docking_5.prm

>  <SCORE>
-17.4059

>  <SCORE.INTER>
-17.407

>  <SCORE.INTER.CONST>
1

>  <SCORE.INTER.POLAR>
0

>  <SCORE.INTER.ROT>
0

>  <SCORE.INTER.SOLV>
3.70216

>  <SCORE.INTER.VDW>
-16.4387

>  <SCORE.INTER.norm>
-1.7407

>  <SCORE.INTRA>
0

>  <SCORE.INTRA.DIHEDRAL>
0

>  <SCORE.INTRA.DIHEDRAL.0>
0

>  <SCORE.INTRA.POLAR>
0

>  <SCORE.INTRA.POLAR.0>
0

>  <SCORE.INTRA.REPUL>
0

>  <SCORE.INTRA.REPUL.0>
0

>  <SCORE.INTRA.SOLV>
0

>  <SCORE.INTRA.SOLV.lig_0>
-4.28333

>  <SCORE.INTRA.VDW>
0

>  <SCORE.INTRA.VDW.0>
0

>  <SCORE.INTRA.norm>
0

>  <SCORE.RESTR>
0.00115163

>  <SCORE.RESTR.CAVITY>
0.00115163

>  <SCORE.RESTR.norm>
0.000115163

>  <SCORE.SYSTEM>
0

>  <SCORE.SYSTEM.CONST>
0

>  <SCORE.SYSTEM.DIHEDRAL>
0

>  <SCORE.SYSTEM.SOLV>
0

>  <SCORE.SYSTEM.norm>
0

>  <SCORE.heavy>
10

>  <SCORE.norm>
-1.74059

>  <RMSD>
0.423

$$$$
ligand
 OpenBabel02271912143D
libRbt.so/2013.1/901 2013/11/27
 10 11  0  0  0  0  0  0  0  0999 V2000
   11.8878   10.8541    8.7645 N   0  0  0  0  0  0  0  0  0  0  0  0
   11.6076   12.1971    8.8584 C   0  0  0  0  0  0  0  0  0  0  0  0
   11.2680   12.9259    7.7936 N   0  0  0  0  0  0  0  0  0  0  0  0
   11.2319   12.2088    6.6346 C   0  0  0  0  0  0  0  0  0  0  0  0
   11.5027   10.8643    6.4733 C   0  0  0  0  0  0  0  0  0  0  0  0
   11.8640   10.0809    7.6035 C   0  0  0  0  0  0  0  0  0  0  0  0
   12.1419    8.8785    7.6885 O   0  0  0  0  0  0  0  0  0  0  0  0
   11.3516   10.5478    5.1525 N   0  0  0  0  0  0  0  0  0  0  0  0
   10.9901   11.6872    4.5181 C   0  0  0  0  0  0  0  0  0  0  0  0
   10.9081   12.7354    5.4093 N   0  0  0  0  0  0  0  0  0  0  0  0
  1  2  1  0  0  0  0
  1  6  1  0  0  0  0
  2  3  2  0  0  0  0
  3  4  1  0  0  0  0
  4  5  2  0  0  0  0
  4 10  1  0  0  0  0
  5  6  1  0  0  0  0
  5  8  1  0  0  0  0
  6  7  2  0  0  0  0
  8  9  1  0  0  0  0
  9 10  2  0  0  0  0
M  END
>  <CHROM.1>
11.48816263,11.25318895,6.90713700,0.40161907,-1.30033946,0.92072858

>  <Name>
ligand

>  <RI>
0

>  <Rbt.Current_Directory>
/home/itssahil/PROJECTS/Mol_Feturizer/Test_systems_manuscript/rnas/4fe5

>  <Rbt.Executable>
rbdock ($Id: //depot/dev/client3/rdock/2013.1/src/exe/rbdock.cxx#4 $)

>  <Rbt.Library>
libRbt.so (2013.1, Build901 2013/11/27)

>  <Rbt.Parameter_File>
/export/apps/rDock/src/rDock_2013.1_src/data/scripts/dock_solv.prm

>  <Rbt.Receptor>
prm/blind_docking_100.prm

>  <SCORE>
-17.4182

>  <SCORE.INTER>
-17.4182

>  <SCORE.INTER.CONST>
1

>  <SCORE.INTER.POLAR>
0

>  <SCORE.INTER.ROT>
0

>  <SCORE.INTER.SOLV>
3.68108

>  <SCORE.INTER.VDW>
-16.4392

>  <SCORE.INTER.norm>
-1.74182

>  <SCORE.INTRA>
0

>  <SCORE.INTRA.DIHEDRAL>
0

>  <SCORE.INTRA.DIHEDRAL.0>
0

>  <SCORE.INTRA.POLAR>
0

>  <SCORE.INTRA.POLAR.0>
0

>  <SCORE.INTRA.REPUL>
0

>  <SCORE.INTRA.REPUL.0>
0

>  <SCORE.INTRA.SOLV>
0

>  <SCORE.INTRA.SOLV.lig_0>
-4.28333

>  <SCORE.INTRA.VDW>
0

>  <SCORE.INTRA.VDW.0>
0

>  <SCORE.INTRA.norm>
0

>  <SCORE.RESTR>
0

>  <SCORE.RESTR.CAVITY>
0

>  <SCORE.RESTR.norm>
0

>  <SCORE.SYSTEM>
0

>  <SCORE.SYSTEM.CONST>
0

>  <SCORE.SYSTEM.DIHEDRAL>
0

>  <SCORE.SYSTEM.SOLV>
0

>  <SCORE.SYSTEM.norm>
0

>  <SCORE.heavy>
10

>  <SCORE.norm>
-1.74182

>  <RMSD>
0.424

$$$$
ligand
 OpenBabel02271912143D
libRbt.so/2013.1/901 2013/11/27
 10 11  0  0  0  0  0  0  0  0999 V2000
   11.8833   10.8521    8.7678 N   0  0  0  0  0  0  0  0  0  0  0  0
   11.6097   12.1968    8.8565 C   0  0  0  0  0  0  0  0  0  0  0  0
   11.2774   12.9241    7.7883 N   0  0  0  0  0  0  0  0  0  0  0  0
   11.2417   12.2036    6.6313 C   0  0  0  0  0  0  0  0  0  0  0  0
   11.5063   10.8572    6.4752 C   0  0  0  0  0  0  0  0  0  0  0  0
   11.8595   10.0755    7.6091 C   0  0  0  0  0  0  0  0  0  0  0  0
   12.1310    8.8720    7.6988 O   0  0  0  0  0  0  0  0  0  0  0  0
   11.3582   10.5373    5.1549 N   0  0  0  0  0  0  0  0  0  0  0  0
   11.0047   11.6766    4.5157 C   0  0  0  0  0  0  0  0  0  0  0  0
   10.9250   12.7280    5.4033 N   0  0  0  0  0  0  0  0  0  0  0  0
  1  2  1  0  0  0  0
  1  6  1  0  0  0  0
  2  3  2  0  0  0  0
  3  4  1  0  0  0  0
  4  5  2  0  0  0  0
  4 10  1  0  0  0  0
  5  6  1  0  0  0  0
  5  8  1  0  0  0  0
  6  7  2  0  0  0  0
  8  9  1  0  0  0  0
  9 10  2  0  0  0  0
M  END
>  <CHROM.1>
11.49217163,11.24751245,6.90777158,0.40038247,-1.30652839,0.91643211

>  <Name>
ligand

>  <RI>
0

>  <Rbt.Current_Directory>
/home/itssahil/PROJECTS/Mol_Feturizer/Test_systems_manuscript/rnas/4fe5

>  <Rbt.Executable>
rbdock ($Id: //depot/dev/client3/rdock/2013.1/src/exe/rbdock.cxx#4 $)

>  <Rbt.Library>
libRbt.so (2013.1, Build901 2013/11/27)

>  <Rbt.Parameter_File>
/export/apps/rDock/src/rDock_2013.1_src/data/scripts/dock_solv.prm

>  <Rbt.Receptor>
prm/blind_docking_60.prm

>  <SCORE>
-17.4534

>  <SCORE.INTER>
-17.4534

>  <SCORE.INTER.CONST>
1

>  <SCORE.INTER.POLAR>
0

>  <SCORE.INTER.ROT>
0

>  <SCORE.INTER.SOLV>
3.70198

>  <SCORE.INTER.VDW>
-16.4696

>  <SCORE.INTER.norm>
-1.74534

>  <SCORE.INTRA>
0

>  <SCORE.INTRA.DIHEDRAL>
0

>  <SCORE.INTRA.DIHEDRAL.0>
0

>  <SCORE.INTRA.POLAR>
0

>  <SCORE.INTRA.POLAR.0>
0

>  <SCORE.INTRA.REPUL>
0

>  <SCORE.INTRA.REPUL.0>
0

>  <SCORE.INTRA.SOLV>
0

>  <SCORE.INTRA.SOLV.lig_0>
-4.28333

>  <SCORE.INTRA.VDW>
0

>  <SCORE.INTRA.VDW.0>
0

>  <SCORE.INTRA.norm>
0

>  <SCORE.RESTR>
0

>  <SCORE.RESTR.CAVITY>
0

>  <SCORE.RESTR.norm>
0

>  <SCORE.SYSTEM>
0

>  <SCORE.SYSTEM.CONST>
0

>  <SCORE.SYSTEM.DIHEDRAL>
0

>  <SCORE.SYSTEM.SOLV>
0

>  <SCORE.SYSTEM.norm>
0

>  <SCORE.heavy>
10

>  <SCORE.norm>
-1.74534

>  <RMSD>
0.425

$$$$
ligand
 OpenBabel02271912143D
libRbt.so/2013.1/901 2013/11/27
 10 11  0  0  0  0  0  0  0  0999 V2000
   11.8869   10.8725    8.7701 N   0  0  0  0  0  0  0  0  0  0  0  0
   11.6017   12.2152    8.8533 C   0  0  0  0  0  0  0  0  0  0  0  0
   11.2645   12.9354    7.7820 N   0  0  0  0  0  0  0  0  0  0  0  0
   11.2362   12.2102    6.6278 C   0  0  0  0  0  0  0  0  0  0  0  0
   11.5123   10.8655    6.4772 C   0  0  0  0  0  0  0  0  0  0  0  0
   11.8709   10.0912    7.6144 C   0  0  0  0  0  0  0  0  0  0  0  0
   12.1525    8.8904    7.7091 O   0  0  0  0  0  0  0  0  0  0  0  0
   11.3683   10.5393    5.1579 N   0  0  0  0  0  0  0  0  0  0  0  0
   11.0059   11.6730    4.5140 C   0  0  0  0  0  0  0  0  0  0  0  0
   10.9163   12.7271    5.3974 N   0  0  0  0  0  0  0  0  0  0  0  0
  1  2  1  0  0  0  0
  1  6  1  0  0  0  0
  2  3  2  0  0  0  0
  3  4  1  0  0  0  0
  4  5  2  0  0  0  0
  4 10  1  0  0  0  0
  5  6  1  0  0  0  0
  5  8  1  0  0  0  0
  6  7  2  0  0  0  0
  8  9  1  0  0  0  0
  9 10  2  0  0  0  0
M  END
>  <CHROM.1>
11.49439098,11.25736712,6.90817254,0.42289213,-1.30038609,0.93426457

>  <Name>
ligand

>  <RI>
0

>  <Rbt.Current_Directory>
/home/itssahil/PROJECTS/Mol_Feturizer/Test_systems_manuscript/rnas/4fe5

>  <Rbt.Executable>
rbdock ($Id: //depot/dev/client3/rdock/2013.1/src/exe/rbdock.cxx#4 $)

>  <Rbt.Library>
libRbt.so (2013.1, Build901 2013/11/27)

>  <Rbt.Parameter_File>
/export/apps/rDock/src/rDock_2013.1_src/data/scripts/dock_solv.prm

>  <Rbt.Receptor>
prm/blind_docking_60.prm

>  <SCORE>
-17.4479

>  <SCORE.INTER>
-17.4484

>  <SCORE.INTER.CONST>
1

>  <SCORE.INTER.POLAR>
0

>  <SCORE.INTER.ROT>
0

>  <SCORE.INTER.SOLV>
3.68476

>  <SCORE.INTER.VDW>
-16.4605

>  <SCORE.INTER.norm>
-1.74484

>  <SCORE.INTRA>
0

>  <SCORE.INTRA.DIHEDRAL>
0

>  <SCORE.INTRA.DIHEDRAL.0>
0

>  <SCORE.INTRA.POLAR>
0

>  <SCORE.INTRA.POLAR.0>
0

>  <SCORE.INTRA.REPUL>
0

>  <SCORE.INTRA.REPUL.0>
0

>  <SCORE.INTRA.SOLV>
0

>  <SCORE.INTRA.SOLV.lig_0>
-4.28333

>  <SCORE.INTRA.VDW>
0

>  <SCORE.INTRA.VDW.0>
0

>  <SCORE.INTRA.norm>
0

>  <SCORE.RESTR>
0.000454296

>  <SCORE.RESTR.CAVITY>
0.000454296

>  <SCORE.RESTR.norm>
4.54296e-05

>  <SCORE.SYSTEM>
0

>  <SCORE.SYSTEM.CONST>
0

>  <SCORE.SYSTEM.DIHEDRAL>
0

>  <SCORE.SYSTEM.SOLV>
0

>  <SCORE.SYSTEM.norm>
0

>  <SCORE.heavy>
10

>  <SCORE.norm>
-1.74479

>  <RMSD>
0.425

$$$$
ligand
 OpenBabel02271912143D
libRbt.so/2013.1/901 2013/11/27
 10 11  0  0  0  0  0  0  0  0999 V2000
   11.8830   10.8708    8.7686 N   0  0  0  0  0  0  0  0  0  0  0  0
   11.5955   12.2126    8.8573 C   0  0  0  0  0  0  0  0  0  0  0  0
   11.2527   12.9356    7.7896 N   0  0  0  0  0  0  0  0  0  0  0  0
   11.2215   12.2141    6.6331 C   0  0  0  0  0  0  0  0  0  0  0  0
   11.4998   10.8705    6.4771 C   0  0  0  0  0  0  0  0  0  0  0  0
   11.8643   10.0932    7.6104 C   0  0  0  0  0  0  0  0  0  0  0  0
   12.1487    8.8928    7.7001 O   0  0  0  0  0  0  0  0  0  0  0  0
   11.3515   10.5483    5.1573 N   0  0  0  0  0  0  0  0  0  0  0  0
   10.9843   11.6834    4.5185 C   0  0  0  0  0  0  0  0  0  0  0  0
   10.8959   12.7344    5.4056 N   0  0  0  0  0  0  0  0  0  0  0  0
  1  2  1  0  0  0  0
  1  6  1  0  0  0  0
  2  3  2  0  0  0  0
  3  4  1  0  0  0  0
  4  5  2  0  0  0  0
  4 10  1  0  0  0  0
  5  6  1  0  0  0  0
  5  8  1  0  0  0  0
  6  7  2  0  0  0  0
  8  9  1  0  0  0  0
  9 10  2  0  0  0  0
M  END
>  <CHROM.1>
11.48274431,11.26091636,6.90944730,0.41617017,-1.29649185,0.93105744

>  <Name>
ligand

>  <RI>
0

>  <Rbt.Current_Directory>
/home/itssahil/PROJECTS/Mol_Feturizer/Test_systems_manuscript/rnas/4fe5

>  <Rbt.Executable>
rbdock ($Id: //depot/dev/client3/rdock/2013.1/src/exe/rbdock.cxx#4 $)

>  <Rbt.Library>
libRbt.so (2013.1, Build901 2013/11/27)

>  <Rbt.Parameter_File>
/export/apps/rDock/src/rDock_2013.1_src/data/scripts/dock_solv.prm

>  <Rbt.Receptor>
prm/pocket_docking_3.prm

>  <SCORE>
-17.4336

>  <SCORE.INTER>
-17.4336

>  <SCORE.INTER.CONST>
1

>  <SCORE.INTER.POLAR>
0

>  <SCORE.INTER.ROT>
0

>  <SCORE.INTER.SOLV>
3.6774

>  <SCORE.INTER.VDW>
-16.4482

>  <SCORE.INTER.norm>
-1.74336

>  <SCORE.INTRA>
0

>  <SCORE.INTRA.DIHEDRAL>
0

>  <SCORE.INTRA.DIHEDRAL.0>
0

>  <SCORE.INTRA.POLAR>
0

>  <SCORE.INTRA.POLAR.0>
0

>  <SCORE.INTRA.REPUL>
0

>  <SCORE.INTRA.REPUL.0>
0

>  <SCORE.INTRA.SOLV>
0

>  <SCORE.INTRA.SOLV.lig_0>
-4.28333

>  <SCORE.INTRA.VDW>
0

>  <SCORE.INTRA.VDW.0>
0

>  <SCORE.INTRA.norm>
0

>  <SCORE.RESTR>
0

>  <SCORE.RESTR.CAVITY>
0

>  <SCORE.RESTR.norm>
0

>  <SCORE.SYSTEM>
0

>  <SCORE.SYSTEM.CONST>
0

>  <SCORE.SYSTEM.DIHEDRAL>
0

>  <SCORE.SYSTEM.SOLV>
0

>  <SCORE.SYSTEM.norm>
0

>  <SCORE.heavy>
10

>  <SCORE.norm>
-1.74336

>  <RMSD>
0.425

$$$$
ligand
 OpenBabel02271912143D
libRbt.so/2013.1/901 2013/11/27
 10 11  0  0  0  0  0  0  0  0999 V2000
   11.8851   10.8745    8.7712 N   0  0  0  0  0  0  0  0  0  0  0  0
   11.5981   12.2168    8.8524 C   0  0  0  0  0  0  0  0  0  0  0  0
   11.2609   12.9352    7.7798 N   0  0  0  0  0  0  0  0  0  0  0  0
   11.2347   12.2085    6.6265 C   0  0  0  0  0  0  0  0  0  0  0  0
   11.5128   10.8640    6.4779 C   0  0  0  0  0  0  0  0  0  0  0  0
   11.8714   10.0916    7.6165 C   0  0  0  0  0  0  0  0  0  0  0  0
   12.1545    8.8914    7.7130 O   0  0  0  0  0  0  0  0  0  0  0  0
   11.3706   10.5359    5.1589 N   0  0  0  0  0  0  0  0  0  0  0  0
   11.0073   11.6683    4.5132 C   0  0  0  0  0  0  0  0  0  0  0  0
   10.9153   12.7234    5.3951 N   0  0  0  0  0  0  0  0  0  0  0  0
  1  2  1  0  0  0  0
  1  6  1  0  0  0  0
  2  3  2  0  0  0  0
  3  4  1  0  0  0  0
  4  5  2  0  0  0  0
  4 10  1  0  0  0  0
  5  6  1  0  0  0  0
  5  8  1  0  0  0  0
  6  7  2  0  0  0  0
  8  9  1  0  0  0  0
  9 10  2  0  0  0  0
M  END
>  <CHROM.1>
11.49395652,11.25636679,6.90838644,0.42894835,-1.29986597,0.93882538

>  <Name>
ligand

>  <RI>
0

>  <Rbt.Current_Directory>
/home/itssahil/PROJECTS/Mol_Feturizer/Test_systems_manuscript/rnas/4fe5

>  <Rbt.Executable>
rbdock ($Id: //depot/dev/client3/rdock/2013.1/src/exe/rbdock.cxx#4 $)

>  <Rbt.Library>
libRbt.so (2013.1, Build901 2013/11/27)

>  <Rbt.Parameter_File>
/export/apps/rDock/src/rDock_2013.1_src/data/scripts/dock_solv.prm

>  <Rbt.Receptor>
prm/pocket_docking_8.prm

>  <SCORE>
-17.4445

>  <SCORE.INTER>
-17.4445

>  <SCORE.INTER.CONST>
1

>  <SCORE.INTER.POLAR>
0

>  <SCORE.INTER.ROT>
0

>  <SCORE.INTER.SOLV>
3.68535

>  <SCORE.INTER.VDW>
-16.4581

>  <SCORE.INTER.norm>
-1.74445

>  <SCORE.INTRA>
0

>  <SCORE.INTRA.DIHEDRAL>
0

>  <SCORE.INTRA.DIHEDRAL.0>
0

>  <SCORE.INTRA.POLAR>
0

>  <SCORE.INTRA.POLAR.0>
0

>  <SCORE.INTRA.REPUL>
0

>  <SCORE.INTRA.REPUL.0>
0

>  <SCORE.INTRA.SOLV>
0

>  <SCORE.INTRA.SOLV.lig_0>
-4.28333

>  <SCORE.INTRA.VDW>
0

>  <SCORE.INTRA.VDW.0>
0

>  <SCORE.INTRA.norm>
0

>  <SCORE.RESTR>
1.28654e-05

>  <SCORE.RESTR.CAVITY>
1.28654e-05

>  <SCORE.RESTR.norm>
1.28654e-06

>  <SCORE.SYSTEM>
0

>  <SCORE.SYSTEM.CONST>
0

>  <SCORE.SYSTEM.DIHEDRAL>
0

>  <SCORE.SYSTEM.SOLV>
0

>  <SCORE.SYSTEM.norm>
0

>  <SCORE.heavy>
10

>  <SCORE.norm>
-1.74445

>  <RMSD>
0.425

$$$$
ligand
 OpenBabel02271912143D
libRbt.so/2013.1/901 2013/11/27
 10 11  0  0  0  0  0  0  0  0999 V2000
   11.8701   10.8808    8.7808 N   0  0  0  0  0  0  0  0  0  0  0  0
   11.5818   12.2233    8.8565 C   0  0  0  0  0  0  0  0  0  0  0  0
   11.2561   12.9397    7.7790 N   0  0  0  0  0  0  0  0  0  0  0  0
   11.2426   12.2108    6.6268 C   0  0  0  0  0  0  0  0  0  0  0  0
   11.5227   10.8661    6.4836 C   0  0  0  0  0  0  0  0  0  0  0  0
   11.8691   10.0959    7.6274 C   0  0  0  0  0  0  0  0  0  0  0  0
   12.1515    8.8960    7.7291 O   0  0  0  0  0  0  0  0  0  0  0  0
   11.3949   10.5357    5.1638 N   0  0  0  0  0  0  0  0  0  0  0  0
   11.0383   11.6668    4.5121 C   0  0  0  0  0  0  0  0  0  0  0  0
   10.9365   12.7235    5.3911 N   0  0  0  0  0  0  0  0  0  0  0  0
  1  2  1  0  0  0  0
  1  6  1  0  0  0  0
  2  3  2  0  0  0  0
  3  4  1  0  0  0  0
  4  5  2  0  0  0  0
  4 10  1  0  0  0  0
  5  6  1  0  0  0  0
  5  8  1  0  0  0  0
  6  7  2  0  0  0  0
  8  9  1  0  0  0  0
  9 10  2  0  0  0  0
M  END
>  <CHROM.1>
11.49905976,11.25931438,6.91318889,0.46308105,-1.30591963,0.96995140

>  <Name>
ligand

>  <RI>
0

>  <Rbt.Current_Directory>
/home/itssahil/PROJECTS/Mol_Feturizer/Test_systems_manuscript/rnas/4fe5

>  <Rbt.Executable>
rbdock ($Id: //depot/dev/client3/rdock/2013.1/src/exe/rbdock.cxx#4 $)

>  <Rbt.Library>
libRbt.so (2013.1, Build901 2013/11/27)

>  <Rbt.Parameter_File>
/export/apps/rDock/src/rDock_2013.1_src/data/scripts/dock_solv.prm

>  <Rbt.Receptor>
prm/blind_docking_80.prm

>  <SCORE>
-17.4196

>  <SCORE.INTER>
-17.4196

>  <SCORE.INTER.CONST>
1

>  <SCORE.INTER.POLAR>
0

>  <SCORE.INTER.ROT>
0

>  <SCORE.INTER.SOLV>
3.70571

>  <SCORE.INTER.VDW>
-16.4483

>  <SCORE.INTER.norm>
-1.74196

>  <SCORE.INTRA>
0

>  <SCORE.INTRA.DIHEDRAL>
0

>  <SCORE.INTRA.DIHEDRAL.0>
0

>  <SCORE.INTRA.POLAR>
0

>  <SCORE.INTRA.POLAR.0>
0

>  <SCORE.INTRA.REPUL>
0

>  <SCORE.INTRA.REPUL.0>
0

>  <SCORE.INTRA.SOLV>
0

>  <SCORE.INTRA.SOLV.lig_0>
-4.28333

>  <SCORE.INTRA.VDW>
0

>  <SCORE.INTRA.VDW.0>
0

>  <SCORE.INTRA.norm>
0

>  <SCORE.RESTR>
0

>  <SCORE.RESTR.CAVITY>
0

>  <SCORE.RESTR.norm>
0

>  <SCORE.SYSTEM>
0

>  <SCORE.SYSTEM.CONST>
0

>  <SCORE.SYSTEM.DIHEDRAL>
0

>  <SCORE.SYSTEM.SOLV>
0

>  <SCORE.SYSTEM.norm>
0

>  <SCORE.heavy>
10

>  <SCORE.norm>
-1.74196

>  <RMSD>
0.426

$$$$
ligand
 OpenBabel02271912143D
libRbt.so/2013.1/901 2013/11/27
 10 11  0  0  0  0  0  0  0  0999 V2000
   11.8366   10.8549    8.7976 N   0  0  0  0  0  0  0  0  0  0  0  0
   11.5797   12.2038    8.8709 C   0  0  0  0  0  0  0  0  0  0  0  0
   11.2702   12.9256    7.7923 N   0  0  0  0  0  0  0  0  0  0  0  0
   11.2393   12.1952    6.6414 C   0  0  0  0  0  0  0  0  0  0  0  0
   11.4880   10.8441    6.5006 C   0  0  0  0  0  0  0  0  0  0  0  0
   11.8169   10.0682    7.6456 C   0  0  0  0  0  0  0  0  0  0  0  0
   12.0713    8.8621    7.7494 O   0  0  0  0  0  0  0  0  0  0  0  0
   11.3519   10.5143    5.1814 N   0  0  0  0  0  0  0  0  0  0  0  0
   11.0214   11.6523    4.5278 C   0  0  0  0  0  0  0  0  0  0  0  0
   10.9446   12.7126    5.4049 N   0  0  0  0  0  0  0  0  0  0  0  0
  1  2  1  0  0  0  0
  1  6  1  0  0  0  0
  2  3  2  0  0  0  0
  3  4  1  0  0  0  0
  4  5  2  0  0  0  0
  4 10  1  0  0  0  0
  5  6  1  0  0  0  0
  5  8  1  0  0  0  0
  6  7  2  0  0  0  0
  8  9  1  0  0  0  0
  9 10  2  0  0  0  0
M  END
>  <CHROM.1>
11.47368129,11.23853267,6.92942041,0.40756829,-1.32447177,0.91441774

>  <Name>
ligand

>  <RI>
0

>  <Rbt.Current_Directory>
/home/itssahil/PROJECTS/Mol_Feturizer/Test_systems_manuscript/rnas/4fe5

>  <Rbt.Executable>
rbdock ($Id: //depot/dev/client3/rdock/2013.1/src/exe/rbdock.cxx#4 $)

>  <Rbt.Library>
libRbt.so (2013.1, Build901 2013/11/27)

>  <Rbt.Parameter_File>
/export/apps/rDock/src/rDock_2013.1_src/data/scripts/dock_solv.prm

>  <Rbt.Receptor>
prm/pocket_docking_5.prm

>  <SCORE>
-17.4058

>  <SCORE.INTER>
-17.4058

>  <SCORE.INTER.CONST>
1

>  <SCORE.INTER.POLAR>
0

>  <SCORE.INTER.ROT>
0

>  <SCORE.INTER.SOLV>
3.79046

>  <SCORE.INTER.VDW>
-16.4674

>  <SCORE.INTER.norm>
-1.74058

>  <SCORE.INTRA>
0

>  <SCORE.INTRA.DIHEDRAL>
0

>  <SCORE.INTRA.DIHEDRAL.0>
0

>  <SCORE.INTRA.POLAR>
0

>  <SCORE.INTRA.POLAR.0>
0

>  <SCORE.INTRA.REPUL>
0

>  <SCORE.INTRA.REPUL.0>
0

>  <SCORE.INTRA.SOLV>
0

>  <SCORE.INTRA.SOLV.lig_0>
-4.28333

>  <SCORE.INTRA.VDW>
0

>  <SCORE.INTRA.VDW.0>
0

>  <SCORE.INTRA.norm>
0

>  <SCORE.RESTR>
0

>  <SCORE.RESTR.CAVITY>
0

>  <SCORE.RESTR.norm>
0

>  <SCORE.SYSTEM>
0

>  <SCORE.SYSTEM.CONST>
0

>  <SCORE.SYSTEM.DIHEDRAL>
0

>  <SCORE.SYSTEM.SOLV>
0

>  <SCORE.SYSTEM.norm>
0

>  <SCORE.heavy>
10

>  <SCORE.norm>
-1.74058

>  <RMSD>
0.426

$$$$
ligand
 OpenBabel02271912143D
libRbt.so/2013.1/901 2013/11/27
 10 11  0  0  0  0  0  0  0  0999 V2000
   11.9134   10.8846    8.7545 N   0  0  0  0  0  0  0  0  0  0  0  0
   11.6123   12.2239    8.8361 C   0  0  0  0  0  0  0  0  0  0  0  0
   11.2468   12.9342    7.7674 N   0  0  0  0  0  0  0  0  0  0  0  0
   11.2076   12.2027    6.6175 C   0  0  0  0  0  0  0  0  0  0  0  0
   11.4985   10.8609    6.4686 C   0  0  0  0  0  0  0  0  0  0  0  0
   11.8873   10.0972    7.6031 C   0  0  0  0  0  0  0  0  0  0  0  0
   12.1861    8.9007    7.6986 O   0  0  0  0  0  0  0  0  0  0  0  0
   11.3355   10.5262    5.1537 N   0  0  0  0  0  0  0  0  0  0  0  0
   10.9471   11.6518    4.5107 C   0  0  0  0  0  0  0  0  0  0  0  0
   10.8593   12.7091    5.3904 N   0  0  0  0  0  0  0  0  0  0  0  0
  1  2  1  0  0  0  0
  1  6  1  0  0  0  0
  2  3  2  0  0  0  0
  3  4  1  0  0  0  0
  4  5  2  0  0  0  0
  4 10  1  0  0  0  0
  5  6  1  0  0  0  0
  5  8  1  0  0  0  0
  6  7  2  0  0  0  0
  8  9  1  0  0  0  0
  9 10  2  0  0  0  0
M  END
>  <CHROM.1>
11.48313662,11.25477169,6.89791264,0.40050297,-1.27932515,0.90774258

>  <Name>
ligand

>  <RI>
0

>  <Rbt.Current_Directory>
/home/itssahil/PROJECTS/Mol_Feturizer/Test_systems_manuscript/rnas/4fe5

>  <Rbt.Executable>
rbdock ($Id: //depot/dev/client3/rdock/2013.1/src/exe/rbdock.cxx#4 $)

>  <Rbt.Library>
libRbt.so (2013.1, Build901 2013/11/27)

>  <Rbt.Parameter_File>
/export/apps/rDock/src/rDock_2013.1_src/data/scripts/dock_solv.prm

>  <Rbt.Receptor>
prm/pocket_docking_5.prm

>  <SCORE>
-17.421

>  <SCORE.INTER>
-17.421

>  <SCORE.INTER.CONST>
1

>  <SCORE.INTER.POLAR>
0

>  <SCORE.INTER.ROT>
0

>  <SCORE.INTER.SOLV>
3.62616

>  <SCORE.INTER.VDW>
-16.4227

>  <SCORE.INTER.norm>
-1.7421

>  <SCORE.INTRA>
0

>  <SCORE.INTRA.DIHEDRAL>
0

>  <SCORE.INTRA.DIHEDRAL.0>
0

>  <SCORE.INTRA.POLAR>
0

>  <SCORE.INTRA.POLAR.0>
0

>  <SCORE.INTRA.REPUL>
0

>  <SCORE.INTRA.REPUL.0>
0

>  <SCORE.INTRA.SOLV>
0

>  <SCORE.INTRA.SOLV.lig_0>
-4.28333

>  <SCORE.INTRA.VDW>
0

>  <SCORE.INTRA.VDW.0>
0

>  <SCORE.INTRA.norm>
0

>  <SCORE.RESTR>
0

>  <SCORE.RESTR.CAVITY>
0

>  <SCORE.RESTR.norm>
0

>  <SCORE.SYSTEM>
0

>  <SCORE.SYSTEM.CONST>
0

>  <SCORE.SYSTEM.DIHEDRAL>
0

>  <SCORE.SYSTEM.SOLV>
0

>  <SCORE.SYSTEM.norm>
0

>  <SCORE.heavy>
10

>  <SCORE.norm>
-1.7421

>  <RMSD>
0.427

$$$$
ligand
 OpenBabel02271912143D
libRbt.so/2013.1/901 2013/11/27
 10 11  0  0  0  0  0  0  0  0999 V2000
   11.8299   10.8841    8.8072 N   0  0  0  0  0  0  0  0  0  0  0  0
   11.5589   12.2307    8.8712 C   0  0  0  0  0  0  0  0  0  0  0  0
   11.2526   12.9439    7.7859 N   0  0  0  0  0  0  0  0  0  0  0  0
   11.2399   12.2075    6.6386 C   0  0  0  0  0  0  0  0  0  0  0  0
   11.5033   10.8582    6.5071 C   0  0  0  0  0  0  0  0  0  0  0  0
   11.8290   10.0914    7.6592 C   0  0  0  0  0  0  0  0  0  0  0  0
   12.0944    8.8885    7.7716 O   0  0  0  0  0  0  0  0  0  0  0  0
   11.3831   10.5204    5.1884 N   0  0  0  0  0  0  0  0  0  0  0  0
   11.0476   11.6517    4.5258 C   0  0  0  0  0  0  0  0  0  0  0  0
   10.9519   12.7156    5.3967 N   0  0  0  0  0  0  0  0  0  0  0  0
  1  2  1  0  0  0  0
  1  6  1  0  0  0  0
  2  3  2  0  0  0  0
  3  4  1  0  0  0  0
  4  5  2  0  0  0  0
  4 10  1  0  0  0  0
  5  6  1  0  0  0  0
  5  8  1  0  0  0  0
  6  7  2  0  0  0  0
  8  9  1  0  0  0  0
  9 10  2  0  0  0  0
M  END
>  <CHROM.1>
11.48099997,11.25461663,6.93373815,0.46289430,-1.32205046,0.96296597

>  <Name>
ligand

>  <RI>
0

>  <Rbt.Current_Directory>
/home/itssahil/PROJECTS/Mol_Feturizer/Test_systems_manuscript/rnas/4fe5

>  <Rbt.Executable>
rbdock ($Id: //depot/dev/client3/rdock/2013.1/src/exe/rbdock.cxx#4 $)

>  <Rbt.Library>
libRbt.so (2013.1, Build901 2013/11/27)

>  <Rbt.Parameter_File>
/export/apps/rDock/src/rDock_2013.1_src/data/scripts/dock_solv.prm

>  <Rbt.Receptor>
prm/pocket_docking_7.prm

>  <SCORE>
-17.385

>  <SCORE.INTER>
-17.385

>  <SCORE.INTER.CONST>
1

>  <SCORE.INTER.POLAR>
0

>  <SCORE.INTER.ROT>
0

>  <SCORE.INTER.SOLV>
3.78492

>  <SCORE.INTER.VDW>
-16.4516

>  <SCORE.INTER.norm>
-1.7385

>  <SCORE.INTRA>
0

>  <SCORE.INTRA.DIHEDRAL>
0

>  <SCORE.INTRA.DIHEDRAL.0>
0

>  <SCORE.INTRA.POLAR>
0

>  <SCORE.INTRA.POLAR.0>
0

>  <SCORE.INTRA.REPUL>
0

>  <SCORE.INTRA.REPUL.0>
0

>  <SCORE.INTRA.SOLV>
0

>  <SCORE.INTRA.SOLV.lig_0>
-4.28333

>  <SCORE.INTRA.VDW>
0

>  <SCORE.INTRA.VDW.0>
0

>  <SCORE.INTRA.norm>
0

>  <SCORE.RESTR>
0

>  <SCORE.RESTR.CAVITY>
0

>  <SCORE.RESTR.norm>
0

>  <SCORE.SYSTEM>
0

>  <SCORE.SYSTEM.CONST>
0

>  <SCORE.SYSTEM.DIHEDRAL>
0

>  <SCORE.SYSTEM.SOLV>
0

>  <SCORE.SYSTEM.norm>
0

>  <SCORE.heavy>
10

>  <SCORE.norm>
-1.7385

>  <RMSD>
0.427

$$$$
ligand
 OpenBabel02271912143D
libRbt.so/2013.1/901 2013/11/27
 10 11  0  0  0  0  0  0  0  0999 V2000
   11.8464   10.8487    8.7907 N   0  0  0  0  0  0  0  0  0  0  0  0
   11.5917   12.1978    8.8687 C   0  0  0  0  0  0  0  0  0  0  0  0
   11.2799   12.9231    7.7931 N   0  0  0  0  0  0  0  0  0  0  0  0
   11.2440   12.1961    6.6403 C   0  0  0  0  0  0  0  0  0  0  0  0
   11.4902   10.8450    6.4948 C   0  0  0  0  0  0  0  0  0  0  0  0
   11.8217   10.0653    7.6365 C   0  0  0  0  0  0  0  0  0  0  0  0
   12.0746    8.8586    7.7361 O   0  0  0  0  0  0  0  0  0  0  0  0
   11.3493   10.5192    5.1751 N   0  0  0  0  0  0  0  0  0  0  0  0
   11.0184   11.6595    4.5258 C   0  0  0  0  0  0  0  0  0  0  0  0
   10.9461   12.7174    5.4062 N   0  0  0  0  0  0  0  0  0  0  0  0
  1  2  1  0  0  0  0
  1  6  1  0  0  0  0
  2  3  2  0  0  0  0
  3  4  1  0  0  0  0
  4  5  2  0  0  0  0
  4 10  1  0  0  0  0
  5  6  1  0  0  0  0
  5  8  1  0  0  0  0
  6  7  2  0  0  0  0
  8  9  1  0  0  0  0
  9 10  2  0  0  0  0
M  END
>  <CHROM.1>
11.47790593,11.23819542,6.92480255,0.39316227,-1.32365321,0.90329978

>  <Name>
ligand

>  <RI>
0

>  <Rbt.Current_Directory>
/home/itssahil/PROJECTS/Mol_Feturizer/Test_systems_manuscript/rnas/4fe5

>  <Rbt.Executable>
rbdock ($Id: //depot/dev/client3/rdock/2013.1/src/exe/rbdock.cxx#4 $)

>  <Rbt.Library>
libRbt.so (2013.1, Build901 2013/11/27)

>  <Rbt.Parameter_File>
/export/apps/rDock/src/rDock_2013.1_src/data/scripts/dock_solv.prm

>  <Rbt.Receptor>
prm/pocket_docking_7.prm

>  <SCORE>
-17.4131

>  <SCORE.INTER>
-17.4131

>  <SCORE.INTER.CONST>
1

>  <SCORE.INTER.POLAR>
0

>  <SCORE.INTER.ROT>
0

>  <SCORE.INTER.SOLV>
3.78026

>  <SCORE.INTER.VDW>
-16.4688

>  <SCORE.INTER.norm>
-1.74131

>  <SCORE.INTRA>
0

>  <SCORE.INTRA.DIHEDRAL>
0

>  <SCORE.INTRA.DIHEDRAL.0>
0

>  <SCORE.INTRA.POLAR>
0

>  <SCORE.INTRA.POLAR.0>
0

>  <SCORE.INTRA.REPUL>
0

>  <SCORE.INTRA.REPUL.0>
0

>  <SCORE.INTRA.SOLV>
0

>  <SCORE.INTRA.SOLV.lig_0>
-4.28333

>  <SCORE.INTRA.VDW>
0

>  <SCORE.INTRA.VDW.0>
0

>  <SCORE.INTRA.norm>
0

>  <SCORE.RESTR>
0

>  <SCORE.RESTR.CAVITY>
0

>  <SCORE.RESTR.norm>
0

>  <SCORE.SYSTEM>
0

>  <SCORE.SYSTEM.CONST>
0

>  <SCORE.SYSTEM.DIHEDRAL>
0

>  <SCORE.SYSTEM.SOLV>
0

>  <SCORE.SYSTEM.norm>
0

>  <SCORE.heavy>
10

>  <SCORE.norm>
-1.74131

>  <RMSD>
0.427

$$$$
ligand
 OpenBabel02271912143D
libRbt.so/2013.1/901 2013/11/27
 10 11  0  0  0  0  0  0  0  0999 V2000
   11.7780   10.7639    8.7606 N   0  0  0  0  0  0  0  0  0  0  0  0
   11.4283   12.0872    8.8932 C   0  0  0  0  0  0  0  0  0  0  0  0
   11.1105   12.8446    7.8418 N   0  0  0  0  0  0  0  0  0  0  0  0
   11.1709   12.1773    6.6544 C   0  0  0  0  0  0  0  0  0  0  0  0
   11.5150   10.8549    6.4539 C   0  0  0  0  0  0  0  0  0  0  0  0
   11.8534   10.0412    7.5696 C   0  0  0  0  0  0  0  0  0  0  0  0
   12.1846    8.8505    7.6210 O   0  0  0  0  0  0  0  0  0  0  0  0
   11.4497   10.5890    5.1151 N   0  0  0  0  0  0  0  0  0  0  0  0
   11.0674   11.7367    4.5085 C   0  0  0  0  0  0  0  0  0  0  0  0
   10.8874   12.7406    5.4355 N   0  0  0  0  0  0  0  0  0  0  0  0
  1  2  1  0  0  0  0
  1  6  1  0  0  0  0
  2  3  2  0  0  0  0
  3  4  1  0  0  0  0
  4  5  2  0  0  0  0
  4 10  1  0  0  0  0
  5  6  1  0  0  0  0
  5  8  1  0  0  0  0
  6  7  2  0  0  0  0
  8  9  1  0  0  0  0
  9 10  2  0  0  0  0
M  END
>  <CHROM.1>
11.45851392,11.22371264,6.90170191,0.65848548,-1.28480566,1.20970626

>  <Name>
ligand

>  <RI>
0

>  <Rbt.Current_Directory>
/home/itssahil/PROJECTS/Mol_Feturizer/Test_systems_manuscript/rnas/4fe5

>  <Rbt.Executable>
rbdock ($Id: //depot/dev/client3/rdock/2013.1/src/exe/rbdock.cxx#4 $)

>  <Rbt.Library>
libRbt.so (2013.1, Build901 2013/11/27)

>  <Rbt.Parameter_File>
/export/apps/rDock/src/rDock_2013.1_src/data/scripts/dock_solv.prm

>  <Rbt.Receptor>
prm/blind_docking_20.prm

>  <SCORE>
-17.2555

>  <SCORE.INTER>
-17.2555

>  <SCORE.INTER.CONST>
1

>  <SCORE.INTER.POLAR>
0

>  <SCORE.INTER.ROT>
0

>  <SCORE.INTER.SOLV>
3.65112

>  <SCORE.INTER.VDW>
-16.3207

>  <SCORE.INTER.norm>
-1.72555

>  <SCORE.INTRA>
0

>  <SCORE.INTRA.DIHEDRAL>
0

>  <SCORE.INTRA.DIHEDRAL.0>
0

>  <SCORE.INTRA.POLAR>
0

>  <SCORE.INTRA.POLAR.0>
0

>  <SCORE.INTRA.REPUL>
0

>  <SCORE.INTRA.REPUL.0>
0

>  <SCORE.INTRA.SOLV>
0

>  <SCORE.INTRA.SOLV.lig_0>
-4.28333

>  <SCORE.INTRA.VDW>
0

>  <SCORE.INTRA.VDW.0>
0

>  <SCORE.INTRA.norm>
0

>  <SCORE.RESTR>
0

>  <SCORE.RESTR.CAVITY>
0

>  <SCORE.RESTR.norm>
0

>  <SCORE.SYSTEM>
0

>  <SCORE.SYSTEM.CONST>
0

>  <SCORE.SYSTEM.DIHEDRAL>
0

>  <SCORE.SYSTEM.SOLV>
0

>  <SCORE.SYSTEM.norm>
0

>  <SCORE.heavy>
10

>  <SCORE.norm>
-1.72555

>  <RMSD>
0.428

$$$$
ligand
 OpenBabel02271912143D
libRbt.so/2013.1/901 2013/11/27
 10 11  0  0  0  0  0  0  0  0999 V2000
   11.8765   10.8448    8.7490 N   0  0  0  0  0  0  0  0  0  0  0  0
   11.5587   12.1792    8.8442 C   0  0  0  0  0  0  0  0  0  0  0  0
   11.2111   12.9025    7.7782 N   0  0  0  0  0  0  0  0  0  0  0  0
   11.2075   12.1890    6.6164 C   0  0  0  0  0  0  0  0  0  0  0  0
   11.5168   10.8529    6.4536 C   0  0  0  0  0  0  0  0  0  0  0  0
   11.8867   10.0755    7.5851 C   0  0  0  0  0  0  0  0  0  0  0  0
   12.1964    8.8809    7.6691 O   0  0  0  0  0  0  0  0  0  0  0  0
   11.3891   10.5374    5.1301 N   0  0  0  0  0  0  0  0  0  0  0  0
   11.0037   11.6688    4.4956 C   0  0  0  0  0  0  0  0  0  0  0  0
   10.8832   12.7111    5.3893 N   0  0  0  0  0  0  0  0  0  0  0  0
  1  2  1  0  0  0  0
  1  6  1  0  0  0  0
  2  3  2  0  0  0  0
  3  4  1  0  0  0  0
  4  5  2  0  0  0  0
  4 10  1  0  0  0  0
  5  6  1  0  0  0  0
  5  8  1  0  0  0  0
  6  7  2  0  0  0  0
  8  9  1  0  0  0  0
  9 10  2  0  0  0  0
M  END
>  <CHROM.1>
11.48678078,11.23971801,6.88856863,0.49162628,-1.28421496,1.01084607

>  <Name>
ligand

>  <RI>
0

>  <Rbt.Current_Directory>
/home/itssahil/PROJECTS/Mol_Feturizer/Test_systems_manuscript/rnas/4fe5

>  <Rbt.Executable>
rbdock ($Id: //depot/dev/client3/rdock/2013.1/src/exe/rbdock.cxx#4 $)

>  <Rbt.Library>
libRbt.so (2013.1, Build901 2013/11/27)

>  <Rbt.Parameter_File>
/export/apps/rDock/src/rDock_2013.1_src/data/scripts/dock_solv.prm

>  <Rbt.Receptor>
prm/pocket_docking_7.prm

>  <SCORE>
-17.4004

>  <SCORE.INTER>
-17.4004

>  <SCORE.INTER.CONST>
1

>  <SCORE.INTER.POLAR>
0

>  <SCORE.INTER.ROT>
0

>  <SCORE.INTER.SOLV>
3.62443

>  <SCORE.INTER.VDW>
-16.4084

>  <SCORE.INTER.norm>
-1.74004

>  <SCORE.INTRA>
0

>  <SCORE.INTRA.DIHEDRAL>
0

>  <SCORE.INTRA.DIHEDRAL.0>
0

>  <SCORE.INTRA.POLAR>
0

>  <SCORE.INTRA.POLAR.0>
0

>  <SCORE.INTRA.REPUL>
0

>  <SCORE.INTRA.REPUL.0>
0

>  <SCORE.INTRA.SOLV>
0

>  <SCORE.INTRA.SOLV.lig_0>
-4.28333

>  <SCORE.INTRA.VDW>
0

>  <SCORE.INTRA.VDW.0>
0

>  <SCORE.INTRA.norm>
0

>  <SCORE.RESTR>
0

>  <SCORE.RESTR.CAVITY>
0

>  <SCORE.RESTR.norm>
0

>  <SCORE.SYSTEM>
0

>  <SCORE.SYSTEM.CONST>
0

>  <SCORE.SYSTEM.DIHEDRAL>
0

>  <SCORE.SYSTEM.SOLV>
0

>  <SCORE.SYSTEM.norm>
0

>  <SCORE.heavy>
10

>  <SCORE.norm>
-1.74004

>  <RMSD>
0.428

$$$$
ligand
 OpenBabel02271912143D
libRbt.so/2013.1/901 2013/11/27
 10 11  0  0  0  0  0  0  0  0999 V2000
   11.7727   10.7743    8.7651 N   0  0  0  0  0  0  0  0  0  0  0  0
   11.4240   12.0982    8.8944 C   0  0  0  0  0  0  0  0  0  0  0  0
   11.1067   12.8533    7.8411 N   0  0  0  0  0  0  0  0  0  0  0  0
   11.1662   12.1828    6.6554 C   0  0  0  0  0  0  0  0  0  0  0  0
   11.5092   10.8597    6.4583 C   0  0  0  0  0  0  0  0  0  0  0  0
   11.8472   10.0485    7.5759 C   0  0  0  0  0  0  0  0  0  0  0  0
   12.1773    8.8577    7.6303 O   0  0  0  0  0  0  0  0  0  0  0  0
   11.4434   10.5904    5.1201 N   0  0  0  0  0  0  0  0  0  0  0  0
   11.0619   11.7369    4.5106 C   0  0  0  0  0  0  0  0  0  0  0  0
   10.8829   12.7433    5.4351 N   0  0  0  0  0  0  0  0  0  0  0  0
  1  2  1  0  0  0  0
  1  6  1  0  0  0  0
  2  3  2  0  0  0  0
  3  4  1  0  0  0  0
  4  5  2  0  0  0  0
  4 10  1  0  0  0  0
  5  6  1  0  0  0  0
  5  8  1  0  0  0  0
  6  7  2  0  0  0  0
  8  9  1  0  0  0  0
  9 10  2  0  0  0  0
M  END
>  <CHROM.1>
11.45311314,11.22966668,6.90509066,0.65665352,-1.28552201,1.20540136

>  <Name>
ligand

>  <RI>
0

>  <Rbt.Current_Directory>
/home/itssahil/PROJECTS/Mol_Feturizer/Test_systems_manuscript/rnas/4fe5

>  <Rbt.Executable>
rbdock ($Id: //depot/dev/client3/rdock/2013.1/src/exe/rbdock.cxx#4 $)

>  <Rbt.Library>
libRbt.so (2013.1, Build901 2013/11/27)

>  <Rbt.Parameter_File>
/export/apps/rDock/src/rDock_2013.1_src/data/scripts/dock_solv.prm

>  <Rbt.Receptor>
prm/blind_docking_20.prm

>  <SCORE>
-17.2538

>  <SCORE.INTER>
-17.2538

>  <SCORE.INTER.CONST>
1

>  <SCORE.INTER.POLAR>
0

>  <SCORE.INTER.ROT>
0

>  <SCORE.INTER.SOLV>
3.65845

>  <SCORE.INTER.VDW>
-16.322

>  <SCORE.INTER.norm>
-1.72538

>  <SCORE.INTRA>
0

>  <SCORE.INTRA.DIHEDRAL>
0

>  <SCORE.INTRA.DIHEDRAL.0>
0

>  <SCORE.INTRA.POLAR>
0

>  <SCORE.INTRA.POLAR.0>
0

>  <SCORE.INTRA.REPUL>
0

>  <SCORE.INTRA.REPUL.0>
0

>  <SCORE.INTRA.SOLV>
0

>  <SCORE.INTRA.SOLV.lig_0>
-4.28333

>  <SCORE.INTRA.VDW>
0

>  <SCORE.INTRA.VDW.0>
0

>  <SCORE.INTRA.norm>
0

>  <SCORE.RESTR>
0

>  <SCORE.RESTR.CAVITY>
0

>  <SCORE.RESTR.norm>
0

>  <SCORE.SYSTEM>
0

>  <SCORE.SYSTEM.CONST>
0

>  <SCORE.SYSTEM.DIHEDRAL>
0

>  <SCORE.SYSTEM.SOLV>
0

>  <SCORE.SYSTEM.norm>
0

>  <SCORE.heavy>
10

>  <SCORE.norm>
-1.72538

>  <RMSD>
0.429

$$$$
ligand
 OpenBabel02271912143D
libRbt.so/2013.1/901 2013/11/27
 10 11  0  0  0  0  0  0  0  0999 V2000
   11.8794   10.8817    8.7716 N   0  0  0  0  0  0  0  0  0  0  0  0
   11.5931   12.2244    8.8495 C   0  0  0  0  0  0  0  0  0  0  0  0
   11.2556   12.9401    7.7752 N   0  0  0  0  0  0  0  0  0  0  0  0
   11.2282   12.2103    6.6238 C   0  0  0  0  0  0  0  0  0  0  0  0
   11.5055   10.8653    6.4786 C   0  0  0  0  0  0  0  0  0  0  0  0
   11.8645   10.0958    7.6190 C   0  0  0  0  0  0  0  0  0  0  0  0
   12.1470    8.8957    7.7184 O   0  0  0  0  0  0  0  0  0  0  0  0
   11.3622   10.5338    5.1606 N   0  0  0  0  0  0  0  0  0  0  0  0
   10.9991   11.6647    4.5121 C   0  0  0  0  0  0  0  0  0  0  0  0
   10.9083   12.7222    5.3913 N   0  0  0  0  0  0  0  0  0  0  0  0
  1  2  1  0  0  0  0
  1  6  1  0  0  0  0
  2  3  2  0  0  0  0
  3  4  1  0  0  0  0
  4  5  2  0  0  0  0
  4 10  1  0  0  0  0
  5  6  1  0  0  0  0
  5  8  1  0  0  0  0
  6  7  2  0  0  0  0
  8  9  1  0  0  0  0
  9 10  2  0  0  0  0
M  END
>  <CHROM.1>
11.48717449,11.25885843,6.90805163,0.42575749,-1.29988546,0.93310979

>  <Name>
ligand

>  <RI>
0

>  <Rbt.Current_Directory>
/home/itssahil/PROJECTS/Mol_Feturizer/Test_systems_manuscript/rnas/4fe5

>  <Rbt.Executable>
rbdock ($Id: //depot/dev/client3/rdock/2013.1/src/exe/rbdock.cxx#4 $)

>  <Rbt.Library>
libRbt.so (2013.1, Build901 2013/11/27)

>  <Rbt.Parameter_File>
/export/apps/rDock/src/rDock_2013.1_src/data/scripts/dock_solv.prm

>  <Rbt.Receptor>
prm/blind_docking_40.prm

>  <SCORE>
-17.4598

>  <SCORE.INTER>
-17.4609

>  <SCORE.INTER.CONST>
1

>  <SCORE.INTER.POLAR>
0

>  <SCORE.INTER.ROT>
0

>  <SCORE.INTER.SOLV>
3.69262

>  <SCORE.INTER.VDW>
-16.4715

>  <SCORE.INTER.norm>
-1.74609

>  <SCORE.INTRA>
0

>  <SCORE.INTRA.DIHEDRAL>
0

>  <SCORE.INTRA.DIHEDRAL.0>
0

>  <SCORE.INTRA.POLAR>
0

>  <SCORE.INTRA.POLAR.0>
0

>  <SCORE.INTRA.REPUL>
0

>  <SCORE.INTRA.REPUL.0>
0

>  <SCORE.INTRA.SOLV>
0

>  <SCORE.INTRA.SOLV.lig_0>
-4.28333

>  <SCORE.INTRA.VDW>
0

>  <SCORE.INTRA.VDW.0>
0

>  <SCORE.INTRA.norm>
0

>  <SCORE.RESTR>
0.00115604

>  <SCORE.RESTR.CAVITY>
0.00115604

>  <SCORE.RESTR.norm>
0.000115604

>  <SCORE.SYSTEM>
0

>  <SCORE.SYSTEM.CONST>
0

>  <SCORE.SYSTEM.DIHEDRAL>
0

>  <SCORE.SYSTEM.SOLV>
0

>  <SCORE.SYSTEM.norm>
0

>  <SCORE.heavy>
10

>  <SCORE.norm>
-1.74598

>  <RMSD>
0.429

$$$$
ligand
 OpenBabel02271912143D
libRbt.so/2013.1/901 2013/11/27
 10 11  0  0  0  0  0  0  0  0999 V2000
   11.9074   10.8899    8.7564 N   0  0  0  0  0  0  0  0  0  0  0  0
   11.6045   12.2289    8.8347 C   0  0  0  0  0  0  0  0  0  0  0  0
   11.2420   12.9370    7.7635 N   0  0  0  0  0  0  0  0  0  0  0  0
   11.2076   12.2035    6.6147 C   0  0  0  0  0  0  0  0  0  0  0  0
   11.5005   10.8618    6.4691 C   0  0  0  0  0  0  0  0  0  0  0  0
   11.8861   10.1005    7.6063 C   0  0  0  0  0  0  0  0  0  0  0  0
   12.1860    8.9045    7.7049 O   0  0  0  0  0  0  0  0  0  0  0  0
   11.3425   10.5246    5.1543 N   0  0  0  0  0  0  0  0  0  0  0  0
   10.9550   11.6487    4.5080 C   0  0  0  0  0  0  0  0  0  0  0  0
   10.8630   12.7075    5.3856 N   0  0  0  0  0  0  0  0  0  0  0  0
  1  2  1  0  0  0  0
  1  6  1  0  0  0  0
  2  3  2  0  0  0  0
  3  4  1  0  0  0  0
  4  5  2  0  0  0  0
  4 10  1  0  0  0  0
  5  6  1  0  0  0  0
  5  8  1  0  0  0  0
  6  7  2  0  0  0  0
  8  9  1  0  0  0  0
  9 10  2  0  0  0  0
M  END
>  <CHROM.1>
11.48319081,11.25637909,6.89774506,0.41250603,-1.28057717,0.91753060

>  <Name>
ligand

>  <RI>
0

>  <Rbt.Current_Directory>
/home/itssahil/PROJECTS/Mol_Feturizer/Test_systems_manuscript/rnas/4fe5

>  <Rbt.Executable>
rbdock ($Id: //depot/dev/client3/rdock/2013.1/src/exe/rbdock.cxx#4 $)

>  <Rbt.Library>
libRbt.so (2013.1, Build901 2013/11/27)

>  <Rbt.Parameter_File>
/export/apps/rDock/src/rDock_2013.1_src/data/scripts/dock_solv.prm

>  <Rbt.Receptor>
prm/pocket_docking_5.prm

>  <SCORE>
-17.4221

>  <SCORE.INTER>
-17.4222

>  <SCORE.INTER.CONST>
1

>  <SCORE.INTER.POLAR>
0

>  <SCORE.INTER.ROT>
0

>  <SCORE.INTER.SOLV>
3.63198

>  <SCORE.INTER.VDW>
-16.4254

>  <SCORE.INTER.norm>
-1.74222

>  <SCORE.INTRA>
0

>  <SCORE.INTRA.DIHEDRAL>
0

>  <SCORE.INTRA.DIHEDRAL.0>
0

>  <SCORE.INTRA.POLAR>
0

>  <SCORE.INTRA.POLAR.0>
0

>  <SCORE.INTRA.REPUL>
0

>  <SCORE.INTRA.REPUL.0>
0

>  <SCORE.INTRA.SOLV>
0

>  <SCORE.INTRA.SOLV.lig_0>
-4.28333

>  <SCORE.INTRA.VDW>
0

>  <SCORE.INTRA.VDW.0>
0

>  <SCORE.INTRA.norm>
0

>  <SCORE.RESTR>
1.97955e-05

>  <SCORE.RESTR.CAVITY>
1.97955e-05

>  <SCORE.RESTR.norm>
1.97955e-06

>  <SCORE.SYSTEM>
0

>  <SCORE.SYSTEM.CONST>
0

>  <SCORE.SYSTEM.DIHEDRAL>
0

>  <SCORE.SYSTEM.SOLV>
0

>  <SCORE.SYSTEM.norm>
0

>  <SCORE.heavy>
10

>  <SCORE.norm>
-1.74221

>  <RMSD>
0.429

$$$$
ligand
 OpenBabel02271912143D
libRbt.so/2013.1/901 2013/11/27
 10 11  0  0  0  0  0  0  0  0999 V2000
   11.8725   10.8630    8.7698 N   0  0  0  0  0  0  0  0  0  0  0  0
   11.5955   12.2073    8.8542 C   0  0  0  0  0  0  0  0  0  0  0  0
   11.2662   12.9313    7.7828 N   0  0  0  0  0  0  0  0  0  0  0  0
   11.2372   12.2080    6.6274 C   0  0  0  0  0  0  0  0  0  0  0  0
   11.5055   10.8619    6.4756 C   0  0  0  0  0  0  0  0  0  0  0  0
   11.8556   10.0836    7.6128 C   0  0  0  0  0  0  0  0  0  0  0  0
   12.1293    8.8810    7.7066 O   0  0  0  0  0  0  0  0  0  0  0  0
   11.3638   10.5386    5.1554 N   0  0  0  0  0  0  0  0  0  0  0  0
   11.0106   11.6755    4.5120 C   0  0  0  0  0  0  0  0  0  0  0  0
   10.9246   12.7288    5.3968 N   0  0  0  0  0  0  0  0  0  0  0  0
  1  2  1  0  0  0  0
  1  6  1  0  0  0  0
  2  3  2  0  0  0  0
  3  4  1  0  0  0  0
  4  5  2  0  0  0  0
  4 10  1  0  0  0  0
  5  6  1  0  0  0  0
  5  8  1  0  0  0  0
  6  7  2  0  0  0  0
  8  9  1  0  0  0  0
  9 10  2  0  0  0  0
M  END
>  <CHROM.1>
11.48860485,11.25317569,6.90720030,0.41896834,-1.30734124,0.93203604

>  <Name>
ligand

>  <RI>
0

>  <Rbt.Current_Directory>
/home/itssahil/PROJECTS/Mol_Feturizer/Test_systems_manuscript/rnas/4fe5

>  <Rbt.Executable>
rbdock ($Id: //depot/dev/client3/rdock/2013.1/src/exe/rbdock.cxx#4 $)

>  <Rbt.Library>
libRbt.so (2013.1, Build901 2013/11/27)

>  <Rbt.Parameter_File>
/export/apps/rDock/src/rDock_2013.1_src/data/scripts/dock_solv.prm

>  <Rbt.Receptor>
prm/pocket_docking_6.prm

>  <SCORE>
-17.4457

>  <SCORE.INTER>
-17.4457

>  <SCORE.INTER.CONST>
1

>  <SCORE.INTER.POLAR>
0

>  <SCORE.INTER.ROT>
0

>  <SCORE.INTER.SOLV>
3.70906

>  <SCORE.INTER.VDW>
-16.4668

>  <SCORE.INTER.norm>
-1.74457

>  <SCORE.INTRA>
0

>  <SCORE.INTRA.DIHEDRAL>
0

>  <SCORE.INTRA.DIHEDRAL.0>
0

>  <SCORE.INTRA.POLAR>
0

>  <SCORE.INTRA.POLAR.0>
0

>  <SCORE.INTRA.REPUL>
0

>  <SCORE.INTRA.REPUL.0>
0

>  <SCORE.INTRA.SOLV>
0

>  <SCORE.INTRA.SOLV.lig_0>
-4.28333

>  <SCORE.INTRA.VDW>
0

>  <SCORE.INTRA.VDW.0>
0

>  <SCORE.INTRA.norm>
0

>  <SCORE.RESTR>
0

>  <SCORE.RESTR.CAVITY>
0

>  <SCORE.RESTR.norm>
0

>  <SCORE.SYSTEM>
0

>  <SCORE.SYSTEM.CONST>
0

>  <SCORE.SYSTEM.DIHEDRAL>
0

>  <SCORE.SYSTEM.SOLV>
0

>  <SCORE.SYSTEM.norm>
0

>  <SCORE.heavy>
10

>  <SCORE.norm>
-1.74457

>  <RMSD>
0.430

$$$$
ligand
 OpenBabel02271912143D
libRbt.so/2013.1/901 2013/11/27
 10 11  0  0  0  0  0  0  0  0999 V2000
   11.8346   10.8517    8.7946 N   0  0  0  0  0  0  0  0  0  0  0  0
   11.5871   12.2023    8.8693 C   0  0  0  0  0  0  0  0  0  0  0  0
   11.2798   12.9268    7.7919 N   0  0  0  0  0  0  0  0  0  0  0  0
   11.2408   12.1973    6.6407 C   0  0  0  0  0  0  0  0  0  0  0  0
   11.4798   10.8446    6.4985 C   0  0  0  0  0  0  0  0  0  0  0  0
   11.8064   10.0657    7.6422 C   0  0  0  0  0  0  0  0  0  0  0  0
   12.0528    8.8579    7.7446 O   0  0  0  0  0  0  0  0  0  0  0  0
   11.3379   10.5166    5.1794 N   0  0  0  0  0  0  0  0  0  0  0  0
   11.0135   11.6571    4.5274 C   0  0  0  0  0  0  0  0  0  0  0  0
   10.9464   12.7174    5.4053 N   0  0  0  0  0  0  0  0  0  0  0  0
  1  2  1  0  0  0  0
  1  6  1  0  0  0  0
  2  3  2  0  0  0  0
  3  4  1  0  0  0  0
  4  5  2  0  0  0  0
  4 10  1  0  0  0  0
  5  6  1  0  0  0  0
  5  8  1  0  0  0  0
  6  7  2  0  0  0  0
  8  9  1  0  0  0  0
  9 10  2  0  0  0  0
M  END
>  <CHROM.1>
11.46933022,11.23885437,6.92757127,0.38130860,-1.32821816,0.88951990

>  <Name>
ligand

>  <RI>
0

>  <Rbt.Current_Directory>
/home/itssahil/PROJECTS/Mol_Feturizer/Test_systems_manuscript/rnas/4fe5

>  <Rbt.Executable>
rbdock ($Id: //depot/dev/client3/rdock/2013.1/src/exe/rbdock.cxx#4 $)

>  <Rbt.Library>
libRbt.so (2013.1, Build901 2013/11/27)

>  <Rbt.Parameter_File>
/export/apps/rDock/src/rDock_2013.1_src/data/scripts/dock_solv.prm

>  <Rbt.Receptor>
prm/blind_docking_60.prm

>  <SCORE>
-17.4112

>  <SCORE.INTER>
-17.4112

>  <SCORE.INTER.CONST>
1

>  <SCORE.INTER.POLAR>
0

>  <SCORE.INTER.ROT>
0

>  <SCORE.INTER.SOLV>
3.80263

>  <SCORE.INTER.VDW>
-16.475

>  <SCORE.INTER.norm>
-1.74112

>  <SCORE.INTRA>
0

>  <SCORE.INTRA.DIHEDRAL>
0

>  <SCORE.INTRA.DIHEDRAL.0>
0

>  <SCORE.INTRA.POLAR>
0

>  <SCORE.INTRA.POLAR.0>
0

>  <SCORE.INTRA.REPUL>
0

>  <SCORE.INTRA.REPUL.0>
0

>  <SCORE.INTRA.SOLV>
0

>  <SCORE.INTRA.SOLV.lig_0>
-4.28333

>  <SCORE.INTRA.VDW>
0

>  <SCORE.INTRA.VDW.0>
0

>  <SCORE.INTRA.norm>
0

>  <SCORE.RESTR>
0

>  <SCORE.RESTR.CAVITY>
0

>  <SCORE.RESTR.norm>
0

>  <SCORE.SYSTEM>
0

>  <SCORE.SYSTEM.CONST>
0

>  <SCORE.SYSTEM.DIHEDRAL>
0

>  <SCORE.SYSTEM.SOLV>
0

>  <SCORE.SYSTEM.norm>
0

>  <SCORE.heavy>
10

>  <SCORE.norm>
-1.74112

>  <RMSD>
0.431

$$$$
ligand
 OpenBabel02271912143D
libRbt.so/2013.1/901 2013/11/27
 10 11  0  0  0  0  0  0  0  0999 V2000
   11.8694   10.8390    8.7578 N   0  0  0  0  0  0  0  0  0  0  0  0
   11.5839   12.1814    8.8434 C   0  0  0  0  0  0  0  0  0  0  0  0
   11.2503   12.9043    7.7727 N   0  0  0  0  0  0  0  0  0  0  0  0
   11.2261   12.1819    6.6166 C   0  0  0  0  0  0  0  0  0  0  0  0
   11.5029   10.8377    6.4635 C   0  0  0  0  0  0  0  0  0  0  0  0
   11.8577   10.0605    7.6001 C   0  0  0  0  0  0  0  0  0  0  0  0
   12.1390    8.8596    7.6928 O   0  0  0  0  0  0  0  0  0  0  0  0
   11.3637   10.5148    5.1430 N   0  0  0  0  0  0  0  0  0  0  0  0
   11.0034   11.6501    4.5006 C   0  0  0  0  0  0  0  0  0  0  0  0
   10.9106   12.7019    5.3863 N   0  0  0  0  0  0  0  0  0  0  0  0
  1  2  1  0  0  0  0
  1  6  1  0  0  0  0
  2  3  2  0  0  0  0
  3  4  1  0  0  0  0
  4  5  2  0  0  0  0
  4 10  1  0  0  0  0
  5  6  1  0  0  0  0
  5  8  1  0  0  0  0
  6  7  2  0  0  0  0
  8  9  1  0  0  0  0
  9 10  2  0  0  0  0
M  END
>  <CHROM.1>
11.48350343,11.22844724,6.89547818,0.43389030,-1.30238260,0.94738563

>  <Name>
ligand

>  <RI>
0

>  <Rbt.Current_Directory>
/home/itssahil/PROJECTS/Mol_Feturizer/Test_systems_manuscript/rnas/4fe5

>  <Rbt.Executable>
rbdock ($Id: //depot/dev/client3/rdock/2013.1/src/exe/rbdock.cxx#4 $)

>  <Rbt.Library>
libRbt.so (2013.1, Build901 2013/11/27)

>  <Rbt.Parameter_File>
/export/apps/rDock/src/rDock_2013.1_src/data/scripts/dock_solv.prm

>  <Rbt.Receptor>
prm/pocket_docking_3.prm

>  <SCORE>
-17.4317

>  <SCORE.INTER>
-17.4317

>  <SCORE.INTER.CONST>
1

>  <SCORE.INTER.POLAR>
0

>  <SCORE.INTER.ROT>
0

>  <SCORE.INTER.SOLV>
3.69473

>  <SCORE.INTER.VDW>
-16.4527

>  <SCORE.INTER.norm>
-1.74317

>  <SCORE.INTRA>
0

>  <SCORE.INTRA.DIHEDRAL>
0

>  <SCORE.INTRA.DIHEDRAL.0>
0

>  <SCORE.INTRA.POLAR>
0

>  <SCORE.INTRA.POLAR.0>
0

>  <SCORE.INTRA.REPUL>
0

>  <SCORE.INTRA.REPUL.0>
0

>  <SCORE.INTRA.SOLV>
0

>  <SCORE.INTRA.SOLV.lig_0>
-4.28333

>  <SCORE.INTRA.VDW>
0

>  <SCORE.INTRA.VDW.0>
0

>  <SCORE.INTRA.norm>
0

>  <SCORE.RESTR>
0

>  <SCORE.RESTR.CAVITY>
0

>  <SCORE.RESTR.norm>
0

>  <SCORE.SYSTEM>
0

>  <SCORE.SYSTEM.CONST>
0

>  <SCORE.SYSTEM.DIHEDRAL>
0

>  <SCORE.SYSTEM.SOLV>
0

>  <SCORE.SYSTEM.norm>
0

>  <SCORE.heavy>
10

>  <SCORE.norm>
-1.74317

>  <RMSD>
0.431

$$$$
ligand
 OpenBabel02271912143D
libRbt.so/2013.1/901 2013/11/27
 10 11  0  0  0  0  0  0  0  0999 V2000
   11.7813   10.7738    8.7583 N   0  0  0  0  0  0  0  0  0  0  0  0
   11.4425   12.1012    8.8774 C   0  0  0  0  0  0  0  0  0  0  0  0
   11.1123   12.8456    7.8205 N   0  0  0  0  0  0  0  0  0  0  0  0
   11.1487   12.1609    6.6421 C   0  0  0  0  0  0  0  0  0  0  0  0
   11.4809   10.8335    6.4552 C   0  0  0  0  0  0  0  0  0  0  0  0
   11.8323   10.0336    7.5768 C   0  0  0  0  0  0  0  0  0  0  0  0
   12.1565    8.8415    7.6400 O   0  0  0  0  0  0  0  0  0  0  0  0
   11.3918   10.5488    5.1215 N   0  0  0  0  0  0  0  0  0  0  0  0
   11.0070   11.6902    4.5047 C   0  0  0  0  0  0  0  0  0  0  0  0
   10.8489   12.7085    5.4199 N   0  0  0  0  0  0  0  0  0  0  0  0
  1  2  1  0  0  0  0
  1  6  1  0  0  0  0
  2  3  2  0  0  0  0
  3  4  1  0  0  0  0
  4  5  2  0  0  0  0
  4 10  1  0  0  0  0
  5  6  1  0  0  0  0
  5  8  1  0  0  0  0
  6  7  2  0  0  0  0
  8  9  1  0  0  0  0
  9 10  2  0  0  0  0
M  END
>  <CHROM.1>
11.43419562,11.20903243,6.89840810,0.59558564,-1.28455553,1.13493683

>  <Name>
ligand

>  <RI>
0

>  <Rbt.Current_Directory>
/home/itssahil/PROJECTS/Mol_Feturizer/Test_systems_manuscript/rnas/4fe5

>  <Rbt.Executable>
rbdock ($Id: //depot/dev/client3/rdock/2013.1/src/exe/rbdock.cxx#4 $)

>  <Rbt.Library>
libRbt.so (2013.1, Build901 2013/11/27)

>  <Rbt.Parameter_File>
/export/apps/rDock/src/rDock_2013.1_src/data/scripts/dock_solv.prm

>  <Rbt.Receptor>
prm/blind_docking_20.prm

>  <SCORE>
-17.2713

>  <SCORE.INTER>
-17.2713

>  <SCORE.INTER.CONST>
1

>  <SCORE.INTER.POLAR>
0

>  <SCORE.INTER.ROT>
0

>  <SCORE.INTER.SOLV>
3.66603

>  <SCORE.INTER.VDW>
-16.3362

>  <SCORE.INTER.norm>
-1.72713

>  <SCORE.INTRA>
0

>  <SCORE.INTRA.DIHEDRAL>
0

>  <SCORE.INTRA.DIHEDRAL.0>
0

>  <SCORE.INTRA.POLAR>
0

>  <SCORE.INTRA.POLAR.0>
0

>  <SCORE.INTRA.REPUL>
0

>  <SCORE.INTRA.REPUL.0>
0

>  <SCORE.INTRA.SOLV>
0

>  <SCORE.INTRA.SOLV.lig_0>
-4.28333

>  <SCORE.INTRA.VDW>
0

>  <SCORE.INTRA.VDW.0>
0

>  <SCORE.INTRA.norm>
0

>  <SCORE.RESTR>
0

>  <SCORE.RESTR.CAVITY>
0

>  <SCORE.RESTR.norm>
0

>  <SCORE.SYSTEM>
0

>  <SCORE.SYSTEM.CONST>
0

>  <SCORE.SYSTEM.DIHEDRAL>
0

>  <SCORE.SYSTEM.SOLV>
0

>  <SCORE.SYSTEM.norm>
0

>  <SCORE.heavy>
10

>  <SCORE.norm>
-1.72713

>  <RMSD>
0.432

$$$$
ligand
 OpenBabel02271912143D
libRbt.so/2013.1/901 2013/11/27
 10 11  0  0  0  0  0  0  0  0999 V2000
   11.8647   10.8728    8.7765 N   0  0  0  0  0  0  0  0  0  0  0  0
   11.5899   12.2172    8.8649 C   0  0  0  0  0  0  0  0  0  0  0  0
   11.2712   12.9470    7.7943 N   0  0  0  0  0  0  0  0  0  0  0  0
   11.2503   12.2292    6.6352 C   0  0  0  0  0  0  0  0  0  0  0  0
   11.5169   10.8832    6.4793 C   0  0  0  0  0  0  0  0  0  0  0  0
   11.8557   10.0988    7.6157 C   0  0  0  0  0  0  0  0  0  0  0  0
   12.1261    8.8952    7.7060 O   0  0  0  0  0  0  0  0  0  0  0  0
   11.3857   10.5666    5.1564 N   0  0  0  0  0  0  0  0  0  0  0  0
   11.0403   11.7073    4.5155 C   0  0  0  0  0  0  0  0  0  0  0  0
   10.9492   12.7566    5.4045 N   0  0  0  0  0  0  0  0  0  0  0  0
  1  2  1  0  0  0  0
  1  6  1  0  0  0  0
  2  3  2  0  0  0  0
  3  4  1  0  0  0  0
  4  5  2  0  0  0  0
  4 10  1  0  0  0  0
  5  6  1  0  0  0  0
  5  8  1  0  0  0  0
  6  7  2  0  0  0  0
  8  9  1  0  0  0  0
  9 10  2  0  0  0  0
M  END
>  <CHROM.1>
11.49727790,11.27255246,6.91254145,0.44039752,-1.31403914,0.95748958

>  <Name>
ligand

>  <RI>
0

>  <Rbt.Current_Directory>
/home/itssahil/PROJECTS/Mol_Feturizer/Test_systems_manuscript/rnas/4fe5

>  <Rbt.Executable>
rbdock ($Id: //depot/dev/client3/rdock/2013.1/src/exe/rbdock.cxx#4 $)

>  <Rbt.Library>
libRbt.so (2013.1, Build901 2013/11/27)

>  <Rbt.Parameter_File>
/export/apps/rDock/src/rDock_2013.1_src/data/scripts/dock_solv.prm

>  <Rbt.Receptor>
prm/pocket_docking_3.prm

>  <SCORE>
-17.4036

>  <SCORE.INTER>
-17.4036

>  <SCORE.INTER.CONST>
1

>  <SCORE.INTER.POLAR>
0

>  <SCORE.INTER.ROT>
0

>  <SCORE.INTER.SOLV>
3.71787

>  <SCORE.INTER.VDW>
-16.4417

>  <SCORE.INTER.norm>
-1.74036

>  <SCORE.INTRA>
0

>  <SCORE.INTRA.DIHEDRAL>
0

>  <SCORE.INTRA.DIHEDRAL.0>
0

>  <SCORE.INTRA.POLAR>
0

>  <SCORE.INTRA.POLAR.0>
0

>  <SCORE.INTRA.REPUL>
0

>  <SCORE.INTRA.REPUL.0>
0

>  <SCORE.INTRA.SOLV>
0

>  <SCORE.INTRA.SOLV.lig_0>
-4.28333

>  <SCORE.INTRA.VDW>
0

>  <SCORE.INTRA.VDW.0>
0

>  <SCORE.INTRA.norm>
0

>  <SCORE.RESTR>
0

>  <SCORE.RESTR.CAVITY>
0

>  <SCORE.RESTR.norm>
0

>  <SCORE.SYSTEM>
0

>  <SCORE.SYSTEM.CONST>
0

>  <SCORE.SYSTEM.DIHEDRAL>
0

>  <SCORE.SYSTEM.SOLV>
0

>  <SCORE.SYSTEM.norm>
0

>  <SCORE.heavy>
10

>  <SCORE.norm>
-1.74036

>  <RMSD>
0.432

$$$$
ligand
 OpenBabel02271912143D
libRbt.so/2013.1/901 2013/11/27
 10 11  0  0  0  0  0  0  0  0999 V2000
   11.9119   10.8293    8.7496 N   0  0  0  0  0  0  0  0  0  0  0  0
   11.6462   12.1728    8.8742 C   0  0  0  0  0  0  0  0  0  0  0  0
   11.3224   12.9311    7.8252 N   0  0  0  0  0  0  0  0  0  0  0  0
   11.2866   12.2429    6.6488 C   0  0  0  0  0  0  0  0  0  0  0  0
   11.5434   10.8997    6.4567 C   0  0  0  0  0  0  0  0  0  0  0  0
   11.8876   10.0849    7.5699 C   0  0  0  0  0  0  0  0  0  0  0  0
   12.1513    8.8778    7.6275 O   0  0  0  0  0  0  0  0  0  0  0  0
   11.3983   10.6172    5.1275 N   0  0  0  0  0  0  0  0  0  0  0  0
   11.0542   11.7757    4.5187 C   0  0  0  0  0  0  0  0  0  0  0  0
   10.9777   12.8028    5.4345 N   0  0  0  0  0  0  0  0  0  0  0  0
  1  2  1  0  0  0  0
  1  6  1  0  0  0  0
  2  3  2  0  0  0  0
  3  4  1  0  0  0  0
  4  5  2  0  0  0  0
  4 10  1  0  0  0  0
  5  6  1  0  0  0  0
  5  8  1  0  0  0  0
  6  7  2  0  0  0  0
  8  9  1  0  0  0  0
  9 10  2  0  0  0  0
M  END
>  <CHROM.1>
11.53011120,11.27807316,6.89974261,0.39729718,-1.31367722,0.94092954

>  <Name>
ligand

>  <RI>
0

>  <Rbt.Current_Directory>
/home/itssahil/PROJECTS/Mol_Feturizer/Test_systems_manuscript/rnas/4fe5

>  <Rbt.Executable>
rbdock ($Id: //depot/dev/client3/rdock/2013.1/src/exe/rbdock.cxx#4 $)

>  <Rbt.Library>
libRbt.so (2013.1, Build901 2013/11/27)

>  <Rbt.Parameter_File>
/export/apps/rDock/src/rDock_2013.1_src/data/scripts/dock_solv.prm

>  <Rbt.Receptor>
prm/pocket_docking_5.prm

>  <SCORE>
-17.3964

>  <SCORE.INTER>
-17.3964

>  <SCORE.INTER.CONST>
1

>  <SCORE.INTER.POLAR>
0

>  <SCORE.INTER.ROT>
0

>  <SCORE.INTER.SOLV>
3.66397

>  <SCORE.INTER.VDW>
-16.4189

>  <SCORE.INTER.norm>
-1.73964

>  <SCORE.INTRA>
0

>  <SCORE.INTRA.DIHEDRAL>
0

>  <SCORE.INTRA.DIHEDRAL.0>
0

>  <SCORE.INTRA.POLAR>
0

>  <SCORE.INTRA.POLAR.0>
0

>  <SCORE.INTRA.REPUL>
0

>  <SCORE.INTRA.REPUL.0>
0

>  <SCORE.INTRA.SOLV>
0

>  <SCORE.INTRA.SOLV.lig_0>
-4.28333

>  <SCORE.INTRA.VDW>
0

>  <SCORE.INTRA.VDW.0>
0

>  <SCORE.INTRA.norm>
0

>  <SCORE.RESTR>
0

>  <SCORE.RESTR.CAVITY>
0

>  <SCORE.RESTR.norm>
0

>  <SCORE.SYSTEM>
0

>  <SCORE.SYSTEM.CONST>
0

>  <SCORE.SYSTEM.DIHEDRAL>
0

>  <SCORE.SYSTEM.SOLV>
0

>  <SCORE.SYSTEM.norm>
0

>  <SCORE.heavy>
10

>  <SCORE.norm>
-1.73964

>  <RMSD>
0.432

$$$$
ligand
 OpenBabel02271912143D
libRbt.so/2013.1/901 2013/11/27
 10 11  0  0  0  0  0  0  0  0999 V2000
   11.8572   10.8417    8.7614 N   0  0  0  0  0  0  0  0  0  0  0  0
   11.5711   12.1842    8.8438 C   0  0  0  0  0  0  0  0  0  0  0  0
   11.2429   12.9057    7.7705 N   0  0  0  0  0  0  0  0  0  0  0  0
   11.2246   12.1819    6.6152 C   0  0  0  0  0  0  0  0  0  0  0  0
   11.5023   10.8374    6.4653 C   0  0  0  0  0  0  0  0  0  0  0  0
   11.8513   10.0618    7.6046 C   0  0  0  0  0  0  0  0  0  0  0  0
   12.1323    8.8610    7.7002 O   0  0  0  0  0  0  0  0  0  0  0  0
   11.3697   10.5129    5.1444 N   0  0  0  0  0  0  0  0  0  0  0  0
   11.0127   11.6473    4.4988 C   0  0  0  0  0  0  0  0  0  0  0  0
   10.9153   12.7003    5.3827 N   0  0  0  0  0  0  0  0  0  0  0  0
  1  2  1  0  0  0  0
  1  6  1  0  0  0  0
  2  3  2  0  0  0  0
  3  4  1  0  0  0  0
  4  5  2  0  0  0  0
  4 10  1  0  0  0  0
  5  6  1  0  0  0  0
  5  8  1  0  0  0  0
  6  7  2  0  0  0  0
  8  9  1  0  0  0  0
  9 10  2  0  0  0  0
M  END
>  <CHROM.1>
11.48063651,11.22876187,6.89660815,0.44973289,-1.30525132,0.96140695

>  <Name>
ligand

>  <RI>
0

>  <Rbt.Current_Directory>
/home/itssahil/PROJECTS/Mol_Feturizer/Test_systems_manuscript/rnas/4fe5

>  <Rbt.Executable>
rbdock ($Id: //depot/dev/client3/rdock/2013.1/src/exe/rbdock.cxx#4 $)

>  <Rbt.Library>
libRbt.so (2013.1, Build901 2013/11/27)

>  <Rbt.Parameter_File>
/export/apps/rDock/src/rDock_2013.1_src/data/scripts/dock_solv.prm

>  <Rbt.Receptor>
prm/pocket_docking_7.prm

>  <SCORE>
-17.4262

>  <SCORE.INTER>
-17.4262

>  <SCORE.INTER.CONST>
1

>  <SCORE.INTER.POLAR>
0

>  <SCORE.INTER.ROT>
0

>  <SCORE.INTER.SOLV>
3.70848

>  <SCORE.INTER.VDW>
-16.4536

>  <SCORE.INTER.norm>
-1.74262

>  <SCORE.INTRA>
0

>  <SCORE.INTRA.DIHEDRAL>
0

>  <SCORE.INTRA.DIHEDRAL.0>
0

>  <SCORE.INTRA.POLAR>
0

>  <SCORE.INTRA.POLAR.0>
0

>  <SCORE.INTRA.REPUL>
0

>  <SCORE.INTRA.REPUL.0>
0

>  <SCORE.INTRA.SOLV>
0

>  <SCORE.INTRA.SOLV.lig_0>
-4.28333

>  <SCORE.INTRA.VDW>
0

>  <SCORE.INTRA.VDW.0>
0

>  <SCORE.INTRA.norm>
0

>  <SCORE.RESTR>
0

>  <SCORE.RESTR.CAVITY>
0

>  <SCORE.RESTR.norm>
0

>  <SCORE.SYSTEM>
0

>  <SCORE.SYSTEM.CONST>
0

>  <SCORE.SYSTEM.DIHEDRAL>
0

>  <SCORE.SYSTEM.SOLV>
0

>  <SCORE.SYSTEM.norm>
0

>  <SCORE.heavy>
10

>  <SCORE.norm>
-1.74262

>  <RMSD>
0.433

$$$$
ligand
 OpenBabel02271912143D
libRbt.so/2013.1/901 2013/11/27
 10 11  0  0  0  0  0  0  0  0999 V2000
   11.8351   10.9940    8.8428 N   0  0  0  0  0  0  0  0  0  0  0  0
   11.5295   12.3347    8.8526 C   0  0  0  0  0  0  0  0  0  0  0  0
   11.1956   12.9933    7.7413 N   0  0  0  0  0  0  0  0  0  0  0  0
   11.1925   12.2089    6.6261 C   0  0  0  0  0  0  0  0  0  0  0  0
   11.4900   10.8626    6.5489 C   0  0  0  0  0  0  0  0  0  0  0  0
   11.8453   10.1537    7.7291 C   0  0  0  0  0  0  0  0  0  0  0  0
   12.1430    8.9639    7.8894 O   0  0  0  0  0  0  0  0  0  0  0  0
   11.3676   10.4664    5.2468 N   0  0  0  0  0  0  0  0  0  0  0  0
   10.9971   11.5596    4.5405 C   0  0  0  0  0  0  0  0  0  0  0  0
   10.8809   12.6565    5.3668 N   0  0  0  0  0  0  0  0  0  0  0  0
  1  2  1  0  0  0  0
  1  6  1  0  0  0  0
  2  3  2  0  0  0  0
  3  4  1  0  0  0  0
  4  5  2  0  0  0  0
  4 10  1  0  0  0  0
  5  6  1  0  0  0  0
  5  8  1  0  0  0  0
  6  7  2  0  0  0  0
  8  9  1  0  0  0  0
  9 10  2  0  0  0  0
M  END
>  <CHROM.1>
11.46091987,11.27591542,6.95875049,0.49256718,-1.29568550,0.94947185

>  <Name>
ligand

>  <RI>
0

>  <Rbt.Current_Directory>
/home/itssahil/PROJECTS/Mol_Feturizer/Test_systems_manuscript/rnas/4fe5

>  <Rbt.Executable>
rbdock ($Id: //depot/dev/client3/rdock/2013.1/src/exe/rbdock.cxx#4 $)

>  <Rbt.Library>
libRbt.so (2013.1, Build901 2013/11/27)

>  <Rbt.Parameter_File>
/export/apps/rDock/src/rDock_2013.1_src/data/scripts/dock_solv.prm

>  <Rbt.Receptor>
prm/pocket_docking_8.prm

>  <SCORE>
-17.3947

>  <SCORE.INTER>
-17.3947

>  <SCORE.INTER.CONST>
1

>  <SCORE.INTER.POLAR>
0

>  <SCORE.INTER.ROT>
0

>  <SCORE.INTER.SOLV>
3.76933

>  <SCORE.INTER.VDW>
-16.4529

>  <SCORE.INTER.norm>
-1.73947

>  <SCORE.INTRA>
0

>  <SCORE.INTRA.DIHEDRAL>
0

>  <SCORE.INTRA.DIHEDRAL.0>
0

>  <SCORE.INTRA.POLAR>
0

>  <SCORE.INTRA.POLAR.0>
0

>  <SCORE.INTRA.REPUL>
0

>  <SCORE.INTRA.REPUL.0>
0

>  <SCORE.INTRA.SOLV>
0

>  <SCORE.INTRA.SOLV.lig_0>
-4.28333

>  <SCORE.INTRA.VDW>
0

>  <SCORE.INTRA.VDW.0>
0

>  <SCORE.INTRA.norm>
0

>  <SCORE.RESTR>
0

>  <SCORE.RESTR.CAVITY>
0

>  <SCORE.RESTR.norm>
0

>  <SCORE.SYSTEM>
0

>  <SCORE.SYSTEM.CONST>
0

>  <SCORE.SYSTEM.DIHEDRAL>
0

>  <SCORE.SYSTEM.SOLV>
0

>  <SCORE.SYSTEM.norm>
0

>  <SCORE.heavy>
10

>  <SCORE.norm>
-1.73947

>  <RMSD>
0.433

$$$$
ligand
 OpenBabel02271912143D
libRbt.so/2013.1/901 2013/11/27
 10 11  0  0  0  0  0  0  0  0999 V2000
   11.8676   10.7258    8.6989 N   0  0  0  0  0  0  0  0  0  0  0  0
   11.4881   12.0354    8.8772 C   0  0  0  0  0  0  0  0  0  0  0  0
   11.1122   12.8091    7.8573 N   0  0  0  0  0  0  0  0  0  0  0  0
   11.1467   12.1726    6.6521 C   0  0  0  0  0  0  0  0  0  0  0  0
   11.5180   10.8654    6.4062 C   0  0  0  0  0  0  0  0  0  0  0  0
   11.9184   10.0344    7.4881 C   0  0  0  0  0  0  0  0  0  0  0  0
   12.2825    8.8523    7.4976 O   0  0  0  0  0  0  0  0  0  0  0  0
   11.4109   10.6302    5.0643 N   0  0  0  0  0  0  0  0  0  0  0  0
   10.9764   11.7814    4.5008 C   0  0  0  0  0  0  0  0  0  0  0  0
   10.8040   12.7573    5.4587 N   0  0  0  0  0  0  0  0  0  0  0  0
  1  2  1  0  0  0  0
  1  6  1  0  0  0  0
  2  3  2  0  0  0  0
  3  4  1  0  0  0  0
  4  5  2  0  0  0  0
  4 10  1  0  0  0  0
  5  6  1  0  0  0  0
  5  8  1  0  0  0  0
  6  7  2  0  0  0  0
  8  9  1  0  0  0  0
  9 10  2  0  0  0  0
M  END
>  <CHROM.1>
11.46824478,11.22154151,6.86481671,0.58033712,-1.24623345,1.15984361

>  <Name>
ligand

>  <RI>
0

>  <Rbt.Current_Directory>
/home/itssahil/PROJECTS/Mol_Feturizer/Test_systems_manuscript/rnas/4fe5

>  <Rbt.Executable>
rbdock ($Id: //depot/dev/client3/rdock/2013.1/src/exe/rbdock.cxx#4 $)

>  <Rbt.Library>
libRbt.so (2013.1, Build901 2013/11/27)

>  <Rbt.Parameter_File>
/export/apps/rDock/src/rDock_2013.1_src/data/scripts/dock_solv.prm

>  <Rbt.Receptor>
prm/blind_docking_20.prm

>  <SCORE>
-17.2171

>  <SCORE.INTER>
-17.2171

>  <SCORE.INTER.CONST>
1

>  <SCORE.INTER.POLAR>
0

>  <SCORE.INTER.ROT>
0

>  <SCORE.INTER.SOLV>
3.49342

>  <SCORE.INTER.VDW>
-16.2425

>  <SCORE.INTER.norm>
-1.72171

>  <SCORE.INTRA>
0

>  <SCORE.INTRA.DIHEDRAL>
0

>  <SCORE.INTRA.DIHEDRAL.0>
0

>  <SCORE.INTRA.POLAR>
0

>  <SCORE.INTRA.POLAR.0>
0

>  <SCORE.INTRA.REPUL>
0

>  <SCORE.INTRA.REPUL.0>
0

>  <SCORE.INTRA.SOLV>
0

>  <SCORE.INTRA.SOLV.lig_0>
-4.28333

>  <SCORE.INTRA.VDW>
0

>  <SCORE.INTRA.VDW.0>
0

>  <SCORE.INTRA.norm>
0

>  <SCORE.RESTR>
0

>  <SCORE.RESTR.CAVITY>
0

>  <SCORE.RESTR.norm>
0

>  <SCORE.SYSTEM>
0

>  <SCORE.SYSTEM.CONST>
0

>  <SCORE.SYSTEM.DIHEDRAL>
0

>  <SCORE.SYSTEM.SOLV>
0

>  <SCORE.SYSTEM.norm>
0

>  <SCORE.heavy>
10

>  <SCORE.norm>
-1.72171

>  <RMSD>
0.434

$$$$
ligand
 OpenBabel02271912143D
libRbt.so/2013.1/901 2013/11/27
 10 11  0  0  0  0  0  0  0  0999 V2000
   11.7796   10.7733    8.7567 N   0  0  0  0  0  0  0  0  0  0  0  0
   11.4410   12.1004    8.8794 C   0  0  0  0  0  0  0  0  0  0  0  0
   11.1121   12.8480    7.8244 N   0  0  0  0  0  0  0  0  0  0  0  0
   11.1494   12.1667    6.6440 C   0  0  0  0  0  0  0  0  0  0  0  0
   11.4813   10.8398    6.4535 C   0  0  0  0  0  0  0  0  0  0  0  0
   11.8315   10.0365    7.5731 C   0  0  0  0  0  0  0  0  0  0  0  0
   12.1553    8.8442    7.6331 O   0  0  0  0  0  0  0  0  0  0  0  0
   11.3934   10.5590    5.1190 N   0  0  0  0  0  0  0  0  0  0  0  0
   11.0095   11.7023    4.5051 C   0  0  0  0  0  0  0  0  0  0  0  0
   10.8508   12.7180    5.4232 N   0  0  0  0  0  0  0  0  0  0  0  0
  1  2  1  0  0  0  0
  1  6  1  0  0  0  0
  2  3  2  0  0  0  0
  3  4  1  0  0  0  0
  4  5  2  0  0  0  0
  4 10  1  0  0  0  0
  5  6  1  0  0  0  0
  5  8  1  0  0  0  0
  6  7  2  0  0  0  0
  8  9  1  0  0  0  0
  9 10  2  0  0  0  0
M  END
>  <CHROM.1>
11.43436095,11.21403337,6.89779544,0.59817899,-1.28520172,1.14034859

>  <Name>
ligand

>  <RI>
0

>  <Rbt.Current_Directory>
/home/itssahil/PROJECTS/Mol_Feturizer/Test_systems_manuscript/rnas/4fe5

>  <Rbt.Executable>
rbdock ($Id: //depot/dev/client3/rdock/2013.1/src/exe/rbdock.cxx#4 $)

>  <Rbt.Library>
libRbt.so (2013.1, Build901 2013/11/27)

>  <Rbt.Parameter_File>
/export/apps/rDock/src/rDock_2013.1_src/data/scripts/dock_solv.prm

>  <Rbt.Receptor>
prm/blind_docking_20.prm

>  <SCORE>
-17.2696

>  <SCORE.INTER>
-17.2698

>  <SCORE.INTER.CONST>
1

>  <SCORE.INTER.POLAR>
0

>  <SCORE.INTER.ROT>
0

>  <SCORE.INTER.SOLV>
3.66419

>  <SCORE.INTER.VDW>
-16.3346

>  <SCORE.INTER.norm>
-1.72698

>  <SCORE.INTRA>
0

>  <SCORE.INTRA.DIHEDRAL>
0

>  <SCORE.INTRA.DIHEDRAL.0>
0

>  <SCORE.INTRA.POLAR>
0

>  <SCORE.INTRA.POLAR.0>
0

>  <SCORE.INTRA.REPUL>
0

>  <SCORE.INTRA.REPUL.0>
0

>  <SCORE.INTRA.SOLV>
0

>  <SCORE.INTRA.SOLV.lig_0>
-4.28333

>  <SCORE.INTRA.VDW>
0

>  <SCORE.INTRA.VDW.0>
0

>  <SCORE.INTRA.norm>
0

>  <SCORE.RESTR>
0.000123363

>  <SCORE.RESTR.CAVITY>
0.000123363

>  <SCORE.RESTR.norm>
1.23363e-05

>  <SCORE.SYSTEM>
0

>  <SCORE.SYSTEM.CONST>
0

>  <SCORE.SYSTEM.DIHEDRAL>
0

>  <SCORE.SYSTEM.SOLV>
0

>  <SCORE.SYSTEM.norm>
0

>  <SCORE.heavy>
10

>  <SCORE.norm>
-1.72696

>  <RMSD>
0.434

$$$$
ligand
 OpenBabel02271912143D
libRbt.so/2013.1/901 2013/11/27
 10 11  0  0  0  0  0  0  0  0999 V2000
   11.8558   10.8432    8.7708 N   0  0  0  0  0  0  0  0  0  0  0  0
   11.5925   12.1898    8.8618 C   0  0  0  0  0  0  0  0  0  0  0  0
   11.2786   12.9240    7.7928 N   0  0  0  0  0  0  0  0  0  0  0  0
   11.2501   12.2084    6.6327 C   0  0  0  0  0  0  0  0  0  0  0  0
   11.5051   10.8605    6.4741 C   0  0  0  0  0  0  0  0  0  0  0  0
   11.8388   10.0714    7.6088 C   0  0  0  0  0  0  0  0  0  0  0  0
   12.0991    8.8653    7.6967 O   0  0  0  0  0  0  0  0  0  0  0  0
   11.3694   10.5471    5.1509 N   0  0  0  0  0  0  0  0  0  0  0  0
   11.0329   11.6918    4.5123 C   0  0  0  0  0  0  0  0  0  0  0  0
   10.9518   12.7403    5.4032 N   0  0  0  0  0  0  0  0  0  0  0  0
  1  2  1  0  0  0  0
  1  6  1  0  0  0  0
  2  3  2  0  0  0  0
  3  4  1  0  0  0  0
  4  5  2  0  0  0  0
  4 10  1  0  0  0  0
  5  6  1  0  0  0  0
  5  8  1  0  0  0  0
  6  7  2  0  0  0  0
  8  9  1  0  0  0  0
  9 10  2  0  0  0  0
M  END
>  <CHROM.1>
11.48934072,11.24923158,6.90805962,0.41639872,-1.32011483,0.93591345

>  <Name>
ligand

>  <RI>
0

>  <Rbt.Current_Directory>
/home/itssahil/PROJECTS/Mol_Feturizer/Test_systems_manuscript/rnas/4fe5

>  <Rbt.Executable>
rbdock ($Id: //depot/dev/client3/rdock/2013.1/src/exe/rbdock.cxx#4 $)

>  <Rbt.Library>
libRbt.so (2013.1, Build901 2013/11/27)

>  <Rbt.Parameter_File>
/export/apps/rDock/src/rDock_2013.1_src/data/scripts/dock_solv.prm

>  <Rbt.Receptor>
prm/pocket_docking_3.prm

>  <SCORE>
-17.4269

>  <SCORE.INTER>
-17.4269

>  <SCORE.INTER.CONST>
1

>  <SCORE.INTER.POLAR>
0

>  <SCORE.INTER.ROT>
0

>  <SCORE.INTER.SOLV>
3.74169

>  <SCORE.INTER.VDW>
-16.4652

>  <SCORE.INTER.norm>
-1.74269

>  <SCORE.INTRA>
0

>  <SCORE.INTRA.DIHEDRAL>
0

>  <SCORE.INTRA.DIHEDRAL.0>
0

>  <SCORE.INTRA.POLAR>
0

>  <SCORE.INTRA.POLAR.0>
0

>  <SCORE.INTRA.REPUL>
0

>  <SCORE.INTRA.REPUL.0>
0

>  <SCORE.INTRA.SOLV>
0

>  <SCORE.INTRA.SOLV.lig_0>
-4.28333

>  <SCORE.INTRA.VDW>
0

>  <SCORE.INTRA.VDW.0>
0

>  <SCORE.INTRA.norm>
0

>  <SCORE.RESTR>
0

>  <SCORE.RESTR.CAVITY>
0

>  <SCORE.RESTR.norm>
0

>  <SCORE.SYSTEM>
0

>  <SCORE.SYSTEM.CONST>
0

>  <SCORE.SYSTEM.DIHEDRAL>
0

>  <SCORE.SYSTEM.SOLV>
0

>  <SCORE.SYSTEM.norm>
0

>  <SCORE.heavy>
10

>  <SCORE.norm>
-1.74269

>  <RMSD>
0.434

$$$$
ligand
 OpenBabel02271912143D
libRbt.so/2013.1/901 2013/11/27
 10 11  0  0  0  0  0  0  0  0999 V2000
   11.9082   10.6910    8.6738 N   0  0  0  0  0  0  0  0  0  0  0  0
   11.5017   11.9897    8.8712 C   0  0  0  0  0  0  0  0  0  0  0  0
   11.1050   12.7687    7.8632 N   0  0  0  0  0  0  0  0  0  0  0  0
   11.1478   12.1491    6.6495 C   0  0  0  0  0  0  0  0  0  0  0  0
   11.5458   10.8535    6.3846 C   0  0  0  0  0  0  0  0  0  0  0  0
   11.9685   10.0170    7.4537 C   0  0  0  0  0  0  0  0  0  0  0  0
   12.3577    8.8429    7.4459 O   0  0  0  0  0  0  0  0  0  0  0  0
   11.4378   10.6340    5.0401 N   0  0  0  0  0  0  0  0  0  0  0  0
   10.9765   11.7830    4.4939 C   0  0  0  0  0  0  0  0  0  0  0  0
   10.7875   12.7422    5.4654 N   0  0  0  0  0  0  0  0  0  0  0  0
  1  2  1  0  0  0  0
  1  6  1  0  0  0  0
  2  3  2  0  0  0  0
  3  4  1  0  0  0  0
  4  5  2  0  0  0  0
  4 10  1  0  0  0  0
  5  6  1  0  0  0  0
  5  8  1  0  0  0  0
  6  7  2  0  0  0  0
  8  9  1  0  0  0  0
  9 10  2  0  0  0  0
M  END
>  <CHROM.1>
11.49044488,11.20240935,6.84817237,0.59360610,-1.22495339,1.18571197

>  <Name>
ligand

>  <RI>
0

>  <Rbt.Current_Directory>
/home/itssahil/PROJECTS/Mol_Feturizer/Test_systems_manuscript/rnas/4fe5

>  <Rbt.Executable>
rbdock ($Id: //depot/dev/client3/rdock/2013.1/src/exe/rbdock.cxx#4 $)

>  <Rbt.Library>
libRbt.so (2013.1, Build901 2013/11/27)

>  <Rbt.Parameter_File>
/export/apps/rDock/src/rDock_2013.1_src/data/scripts/dock_solv.prm

>  <Rbt.Receptor>
prm/blind_docking_20.prm

>  <SCORE>
-17.1976

>  <SCORE.INTER>
-17.1976

>  <SCORE.INTER.CONST>
1

>  <SCORE.INTER.POLAR>
0

>  <SCORE.INTER.ROT>
0

>  <SCORE.INTER.SOLV>
3.42617

>  <SCORE.INTER.VDW>
-16.2071

>  <SCORE.INTER.norm>
-1.71976

>  <SCORE.INTRA>
0

>  <SCORE.INTRA.DIHEDRAL>
0

>  <SCORE.INTRA.DIHEDRAL.0>
0

>  <SCORE.INTRA.POLAR>
0

>  <SCORE.INTRA.POLAR.0>
0

>  <SCORE.INTRA.REPUL>
0

>  <SCORE.INTRA.REPUL.0>
0

>  <SCORE.INTRA.SOLV>
0

>  <SCORE.INTRA.SOLV.lig_0>
-4.28333

>  <SCORE.INTRA.VDW>
0

>  <SCORE.INTRA.VDW.0>
0

>  <SCORE.INTRA.norm>
0

>  <SCORE.RESTR>
0

>  <SCORE.RESTR.CAVITY>
0

>  <SCORE.RESTR.norm>
0

>  <SCORE.SYSTEM>
0

>  <SCORE.SYSTEM.CONST>
0

>  <SCORE.SYSTEM.DIHEDRAL>
0

>  <SCORE.SYSTEM.SOLV>
0

>  <SCORE.SYSTEM.norm>
0

>  <SCORE.heavy>
10

>  <SCORE.norm>
-1.71976

>  <RMSD>
0.435

$$$$
ligand
 OpenBabel02271912143D
libRbt.so/2013.1/901 2013/11/27
 10 11  0  0  0  0  0  0  0  0999 V2000
   11.8736   10.8441    8.7608 N   0  0  0  0  0  0  0  0  0  0  0  0
   11.6113   12.1906    8.8565 C   0  0  0  0  0  0  0  0  0  0  0  0
   11.2822   12.9255    7.7926 N   0  0  0  0  0  0  0  0  0  0  0  0
   11.2374   12.2107    6.6324 C   0  0  0  0  0  0  0  0  0  0  0  0
   11.4904   10.8629    6.4693 C   0  0  0  0  0  0  0  0  0  0  0  0
   11.8403   10.0730    7.5986 C   0  0  0  0  0  0  0  0  0  0  0  0
   12.1020    8.8670    7.6820 O   0  0  0  0  0  0  0  0  0  0  0  0
   11.3361   10.5505    5.1479 N   0  0  0  0  0  0  0  0  0  0  0  0
   10.9903   11.6955    4.5150 C   0  0  0  0  0  0  0  0  0  0  0  0
   10.9217   12.7434    5.4077 N   0  0  0  0  0  0  0  0  0  0  0  0
  1  2  1  0  0  0  0
  1  6  1  0  0  0  0
  2  3  2  0  0  0  0
  3  4  1  0  0  0  0
  4  5  2  0  0  0  0
  4 10  1  0  0  0  0
  5  6  1  0  0  0  0
  5  8  1  0  0  0  0
  6  7  2  0  0  0  0
  8  9  1  0  0  0  0
  9 10  2  0  0  0  0
M  END
>  <CHROM.1>
11.48068945,11.25132869,6.90370527,0.37245766,-1.31133274,0.89410333

>  <Name>
ligand

>  <RI>
0

>  <Rbt.Current_Directory>
/home/itssahil/PROJECTS/Mol_Feturizer/Test_systems_manuscript/rnas/4fe5

>  <Rbt.Executable>
rbdock ($Id: //depot/dev/client3/rdock/2013.1/src/exe/rbdock.cxx#4 $)

>  <Rbt.Library>
libRbt.so (2013.1, Build901 2013/11/27)

>  <Rbt.Parameter_File>
/export/apps/rDock/src/rDock_2013.1_src/data/scripts/dock_solv.prm

>  <Rbt.Receptor>
prm/blind_docking_60.prm

>  <SCORE>
-17.451

>  <SCORE.INTER>
-17.451

>  <SCORE.INTER.CONST>
1

>  <SCORE.INTER.POLAR>
0

>  <SCORE.INTER.ROT>
0

>  <SCORE.INTER.SOLV>
3.71724

>  <SCORE.INTER.VDW>
-16.4731

>  <SCORE.INTER.norm>
-1.7451

>  <SCORE.INTRA>
0

>  <SCORE.INTRA.DIHEDRAL>
0

>  <SCORE.INTRA.DIHEDRAL.0>
0

>  <SCORE.INTRA.POLAR>
0

>  <SCORE.INTRA.POLAR.0>
0

>  <SCORE.INTRA.REPUL>
0

>  <SCORE.INTRA.REPUL.0>
0

>  <SCORE.INTRA.SOLV>
0

>  <SCORE.INTRA.SOLV.lig_0>
-4.28333

>  <SCORE.INTRA.VDW>
0

>  <SCORE.INTRA.VDW.0>
0

>  <SCORE.INTRA.norm>
0

>  <SCORE.RESTR>
0

>  <SCORE.RESTR.CAVITY>
0

>  <SCORE.RESTR.norm>
0

>  <SCORE.SYSTEM>
0

>  <SCORE.SYSTEM.CONST>
0

>  <SCORE.SYSTEM.DIHEDRAL>
0

>  <SCORE.SYSTEM.SOLV>
0

>  <SCORE.SYSTEM.norm>
0

>  <SCORE.heavy>
10

>  <SCORE.norm>
-1.7451

>  <RMSD>
0.435

$$$$
ligand
 OpenBabel02271912143D
libRbt.so/2013.1/901 2013/11/27
 10 11  0  0  0  0  0  0  0  0999 V2000
   11.8782   10.8487    8.7604 N   0  0  0  0  0  0  0  0  0  0  0  0
   11.6106   12.1930    8.8705 C   0  0  0  0  0  0  0  0  0  0  0  0
   11.2859   12.9395    7.8133 N   0  0  0  0  0  0  0  0  0  0  0  0
   11.2512   12.2385    6.6444 C   0  0  0  0  0  0  0  0  0  0  0  0
   11.5099   10.8937    6.4668 C   0  0  0  0  0  0  0  0  0  0  0  0
   11.8552   10.0915    7.5888 C   0  0  0  0  0  0  0  0  0  0  0  0
   12.1206    8.8854    7.6595 O   0  0  0  0  0  0  0  0  0  0  0  0
   11.3653   10.5966    5.1408 N   0  0  0  0  0  0  0  0  0  0  0  0
   11.0197   11.7480    4.5194 C   0  0  0  0  0  0  0  0  0  0  0  0
   10.9415   12.7848    5.4241 N   0  0  0  0  0  0  0  0  0  0  0  0
  1  2  1  0  0  0  0
  1  6  1  0  0  0  0
  2  3  2  0  0  0  0
  3  4  1  0  0  0  0
  4  5  2  0  0  0  0
  4 10  1  0  0  0  0
  5  6  1  0  0  0  0
  5  8  1  0  0  0  0
  6  7  2  0  0  0  0
  8  9  1  0  0  0  0
  9 10  2  0  0  0  0
M  END
>  <CHROM.1>
11.49603713,11.27680794,6.90578466,0.40098718,-1.31257595,0.93368019

>  <Name>
ligand

>  <RI>
0

>  <Rbt.Current_Directory>
/home/itssahil/PROJECTS/Mol_Feturizer/Test_systems_manuscript/rnas/4fe5

>  <Rbt.Executable>
rbdock ($Id: //depot/dev/client3/rdock/2013.1/src/exe/rbdock.cxx#4 $)

>  <Rbt.Library>
libRbt.so (2013.1, Build901 2013/11/27)

>  <Rbt.Parameter_File>
/export/apps/rDock/src/rDock_2013.1_src/data/scripts/dock_solv.prm

>  <Rbt.Receptor>
prm/pocket_docking_4.prm

>  <SCORE>
-17.4265

>  <SCORE.INTER>
-17.4265

>  <SCORE.INTER.CONST>
1

>  <SCORE.INTER.POLAR>
0

>  <SCORE.INTER.ROT>
0

>  <SCORE.INTER.SOLV>
3.69269

>  <SCORE.INTER.VDW>
-16.4485

>  <SCORE.INTER.norm>
-1.74265

>  <SCORE.INTRA>
0

>  <SCORE.INTRA.DIHEDRAL>
0

>  <SCORE.INTRA.DIHEDRAL.0>
0

>  <SCORE.INTRA.POLAR>
0

>  <SCORE.INTRA.POLAR.0>
0

>  <SCORE.INTRA.REPUL>
0

>  <SCORE.INTRA.REPUL.0>
0

>  <SCORE.INTRA.SOLV>
0

>  <SCORE.INTRA.SOLV.lig_0>
-4.28333

>  <SCORE.INTRA.VDW>
0

>  <SCORE.INTRA.VDW.0>
0

>  <SCORE.INTRA.norm>
0

>  <SCORE.RESTR>
0

>  <SCORE.RESTR.CAVITY>
0

>  <SCORE.RESTR.norm>
0

>  <SCORE.SYSTEM>
0

>  <SCORE.SYSTEM.CONST>
0

>  <SCORE.SYSTEM.DIHEDRAL>
0

>  <SCORE.SYSTEM.SOLV>
0

>  <SCORE.SYSTEM.norm>
0

>  <SCORE.heavy>
10

>  <SCORE.norm>
-1.74265

>  <RMSD>
0.435

$$$$
ligand
 OpenBabel02271912143D
libRbt.so/2013.1/901 2013/11/27
 10 11  0  0  0  0  0  0  0  0999 V2000
   11.8554   10.8120    8.7563 N   0  0  0  0  0  0  0  0  0  0  0  0
   11.5873   12.1574    8.8510 C   0  0  0  0  0  0  0  0  0  0  0  0
   11.2659   12.8924    7.7848 N   0  0  0  0  0  0  0  0  0  0  0  0
   11.2350   12.1789    6.6234 C   0  0  0  0  0  0  0  0  0  0  0  0
   11.4945   10.8322    6.4612 C   0  0  0  0  0  0  0  0  0  0  0  0
   11.8362   10.0423    7.5929 C   0  0  0  0  0  0  0  0  0  0  0  0
   12.1015    8.8371    7.6774 O   0  0  0  0  0  0  0  0  0  0  0  0
   11.3541   10.5208    5.1380 N   0  0  0  0  0  0  0  0  0  0  0  0
   11.0104   11.6654    4.5031 C   0  0  0  0  0  0  0  0  0  0  0  0
   10.9292   12.7119    5.3963 N   0  0  0  0  0  0  0  0  0  0  0  0
  1  2  1  0  0  0  0
  1  6  1  0  0  0  0
  2  3  2  0  0  0  0
  3  4  1  0  0  0  0
  4  5  2  0  0  0  0
  4 10  1  0  0  0  0
  5  6  1  0  0  0  0
  5  8  1  0  0  0  0
  6  7  2  0  0  0  0
  8  9  1  0  0  0  0
  9 10  2  0  0  0  0
M  END
>  <CHROM.1>
11.47911509,11.22007104,6.89594432,0.41136163,-1.31439491,0.93291954

>  <Name>
ligand

>  <RI>
0

>  <Rbt.Current_Directory>
/home/itssahil/PROJECTS/Mol_Feturizer/Test_systems_manuscript/rnas/4fe5

>  <Rbt.Executable>
rbdock ($Id: //depot/dev/client3/rdock/2013.1/src/exe/rbdock.cxx#4 $)

>  <Rbt.Library>
libRbt.so (2013.1, Build901 2013/11/27)

>  <Rbt.Parameter_File>
/export/apps/rDock/src/rDock_2013.1_src/data/scripts/dock_solv.prm

>  <Rbt.Receptor>
prm/pocket_docking_5.prm

>  <SCORE>
-17.4467

>  <SCORE.INTER>
-17.4467

>  <SCORE.INTER.CONST>
1

>  <SCORE.INTER.POLAR>
0

>  <SCORE.INTER.ROT>
0

>  <SCORE.INTER.SOLV>
3.72991

>  <SCORE.INTER.VDW>
-16.4744

>  <SCORE.INTER.norm>
-1.74467

>  <SCORE.INTRA>
0

>  <SCORE.INTRA.DIHEDRAL>
0

>  <SCORE.INTRA.DIHEDRAL.0>
0

>  <SCORE.INTRA.POLAR>
0

>  <SCORE.INTRA.POLAR.0>
0

>  <SCORE.INTRA.REPUL>
0

>  <SCORE.INTRA.REPUL.0>
0

>  <SCORE.INTRA.SOLV>
0

>  <SCORE.INTRA.SOLV.lig_0>
-4.28333

>  <SCORE.INTRA.VDW>
0

>  <SCORE.INTRA.VDW.0>
0

>  <SCORE.INTRA.norm>
0

>  <SCORE.RESTR>
0

>  <SCORE.RESTR.CAVITY>
0

>  <SCORE.RESTR.norm>
0

>  <SCORE.SYSTEM>
0

>  <SCORE.SYSTEM.CONST>
0

>  <SCORE.SYSTEM.DIHEDRAL>
0

>  <SCORE.SYSTEM.SOLV>
0

>  <SCORE.SYSTEM.norm>
0

>  <SCORE.heavy>
10

>  <SCORE.norm>
-1.74467

>  <RMSD>
0.435

$$$$
ligand
 OpenBabel02271912143D
libRbt.so/2013.1/901 2013/11/27
 10 11  0  0  0  0  0  0  0  0999 V2000
   11.7951   10.9411    8.8510 N   0  0  0  0  0  0  0  0  0  0  0  0
   11.5404   12.2919    8.8890 C   0  0  0  0  0  0  0  0  0  0  0  0
   11.2434   12.9879    7.7900 N   0  0  0  0  0  0  0  0  0  0  0  0
   11.2224   12.2298    6.6570 C   0  0  0  0  0  0  0  0  0  0  0  0
   11.4696   10.8752    6.5515 C   0  0  0  0  0  0  0  0  0  0  0  0
   11.7853   10.1267    7.7183 C   0  0  0  0  0  0  0  0  0  0  0  0
   12.0360    8.9230    7.8539 O   0  0  0  0  0  0  0  0  0  0  0  0
   11.3461   10.5137    5.2394 N   0  0  0  0  0  0  0  0  0  0  0  0
   11.0247   11.6361    4.5550 C   0  0  0  0  0  0  0  0  0  0  0  0
   10.9413   12.7176    5.4054 N   0  0  0  0  0  0  0  0  0  0  0  0
  1  2  1  0  0  0  0
  1  6  1  0  0  0  0
  2  3  2  0  0  0  0
  3  4  1  0  0  0  0
  4  5  2  0  0  0  0
  4 10  1  0  0  0  0
  5  6  1  0  0  0  0
  5  8  1  0  0  0  0
  6  7  2  0  0  0  0
  8  9  1  0  0  0  0
  9 10  2  0  0  0  0
M  END
>  <CHROM.1>
11.45182893,11.27992846,6.97046661,0.43571076,-1.33224916,0.91745775

>  <Name>
ligand

>  <RI>
0

>  <Rbt.Current_Directory>
/home/itssahil/PROJECTS/Mol_Feturizer/Test_systems_manuscript/rnas/4fe5

>  <Rbt.Executable>
rbdock ($Id: //depot/dev/client3/rdock/2013.1/src/exe/rbdock.cxx#4 $)

>  <Rbt.Library>
libRbt.so (2013.1, Build901 2013/11/27)

>  <Rbt.Parameter_File>
/export/apps/rDock/src/rDock_2013.1_src/data/scripts/dock_solv.prm

>  <Rbt.Receptor>
prm/pocket_docking_6.prm

>  <SCORE>
-17.3844

>  <SCORE.INTER>
-17.3844

>  <SCORE.INTER.CONST>
1

>  <SCORE.INTER.POLAR>
0

>  <SCORE.INTER.ROT>
0

>  <SCORE.INTER.SOLV>
3.86899

>  <SCORE.INTER.VDW>
-16.4792

>  <SCORE.INTER.norm>
-1.73844

>  <SCORE.INTRA>
0

>  <SCORE.INTRA.DIHEDRAL>
0

>  <SCORE.INTRA.DIHEDRAL.0>
0

>  <SCORE.INTRA.POLAR>
0

>  <SCORE.INTRA.POLAR.0>
0

>  <SCORE.INTRA.REPUL>
0

>  <SCORE.INTRA.REPUL.0>
0

>  <SCORE.INTRA.SOLV>
0

>  <SCORE.INTRA.SOLV.lig_0>
-4.28333

>  <SCORE.INTRA.VDW>
0

>  <SCORE.INTRA.VDW.0>
0

>  <SCORE.INTRA.norm>
0

>  <SCORE.RESTR>
0

>  <SCORE.RESTR.CAVITY>
0

>  <SCORE.RESTR.norm>
0

>  <SCORE.SYSTEM>
0

>  <SCORE.SYSTEM.CONST>
0

>  <SCORE.SYSTEM.DIHEDRAL>
0

>  <SCORE.SYSTEM.SOLV>
0

>  <SCORE.SYSTEM.norm>
0

>  <SCORE.heavy>
10

>  <SCORE.norm>
-1.73844

>  <RMSD>
0.435

$$$$
ligand
 OpenBabel02271912143D
libRbt.so/2013.1/901 2013/11/27
 10 11  0  0  0  0  0  0  0  0999 V2000
   11.8723   10.8630    8.7706 N   0  0  0  0  0  0  0  0  0  0  0  0
   11.6100   12.2091    8.8713 C   0  0  0  0  0  0  0  0  0  0  0  0
   11.2913   12.9501    7.8085 N   0  0  0  0  0  0  0  0  0  0  0  0
   11.2568   12.2418    6.6440 C   0  0  0  0  0  0  0  0  0  0  0  0
   11.5104   10.8948    6.4758 C   0  0  0  0  0  0  0  0  0  0  0  0
   11.8492   10.0984    7.6038 C   0  0  0  0  0  0  0  0  0  0  0  0
   12.1094    8.8917    7.6830 O   0  0  0  0  0  0  0  0  0  0  0  0
   11.3681   10.5897    5.1513 N   0  0  0  0  0  0  0  0  0  0  0  0
   11.0290   11.7385    4.5216 C   0  0  0  0  0  0  0  0  0  0  0  0
   10.9528   12.7815    5.4193 N   0  0  0  0  0  0  0  0  0  0  0  0
  1  2  1  0  0  0  0
  1  6  1  0  0  0  0
  2  3  2  0  0  0  0
  3  4  1  0  0  0  0
  4  5  2  0  0  0  0
  4 10  1  0  0  0  0
  5  6  1  0  0  0  0
  5  8  1  0  0  0  0
  6  7  2  0  0  0  0
  8  9  1  0  0  0  0
  9 10  2  0  0  0  0
M  END
>  <CHROM.1>
11.49690822,11.28079018,6.91222813,0.39959790,-1.31756411,0.92588575

>  <Name>
ligand

>  <RI>
0

>  <Rbt.Current_Directory>
/home/itssahil/PROJECTS/Mol_Feturizer/Test_systems_manuscript/rnas/4fe5

>  <Rbt.Executable>
rbdock ($Id: //depot/dev/client3/rdock/2013.1/src/exe/rbdock.cxx#4 $)

>  <Rbt.Library>
libRbt.so (2013.1, Build901 2013/11/27)

>  <Rbt.Parameter_File>
/export/apps/rDock/src/rDock_2013.1_src/data/scripts/dock_solv.prm

>  <Rbt.Receptor>
prm/pocket_docking_7.prm

>  <SCORE>
-17.4508

>  <SCORE.INTER>
-17.4512

>  <SCORE.INTER.CONST>
1

>  <SCORE.INTER.POLAR>
0

>  <SCORE.INTER.ROT>
0

>  <SCORE.INTER.SOLV>
3.7165

>  <SCORE.INTER.VDW>
-16.473

>  <SCORE.INTER.norm>
-1.74512

>  <SCORE.INTRA>
0

>  <SCORE.INTRA.DIHEDRAL>
0

>  <SCORE.INTRA.DIHEDRAL.0>
0

>  <SCORE.INTRA.POLAR>
0

>  <SCORE.INTRA.POLAR.0>
0

>  <SCORE.INTRA.REPUL>
0

>  <SCORE.INTRA.REPUL.0>
0

>  <SCORE.INTRA.SOLV>
0

>  <SCORE.INTRA.SOLV.lig_0>
-4.28333

>  <SCORE.INTRA.VDW>
0

>  <SCORE.INTRA.VDW.0>
0

>  <SCORE.INTRA.norm>
0

>  <SCORE.RESTR>
0.000460669

>  <SCORE.RESTR.CAVITY>
0.000460669

>  <SCORE.RESTR.norm>
4.60669e-05

>  <SCORE.SYSTEM>
0

>  <SCORE.SYSTEM.CONST>
0

>  <SCORE.SYSTEM.DIHEDRAL>
0

>  <SCORE.SYSTEM.SOLV>
0

>  <SCORE.SYSTEM.norm>
0

>  <SCORE.heavy>
10

>  <SCORE.norm>
-1.74508

>  <RMSD>
0.435

$$$$
ligand
 OpenBabel02271912143D
libRbt.so/2013.1/901 2013/11/27
 10 11  0  0  0  0  0  0  0  0999 V2000
   11.8522   10.8165    8.7578 N   0  0  0  0  0  0  0  0  0  0  0  0
   11.5839   12.1620    8.8502 C   0  0  0  0  0  0  0  0  0  0  0  0
   11.2630   12.8953    7.7827 N   0  0  0  0  0  0  0  0  0  0  0  0
   11.2330   12.1799    6.6224 C   0  0  0  0  0  0  0  0  0  0  0  0
   11.4927   10.8331    6.4624 C   0  0  0  0  0  0  0  0  0  0  0  0
   11.8338   10.0449    7.5955 C   0  0  0  0  0  0  0  0  0  0  0  0
   12.0992    8.8399    7.6821 O   0  0  0  0  0  0  0  0  0  0  0  0
   11.3532   10.5196    5.1396 N   0  0  0  0  0  0  0  0  0  0  0  0
   11.0098   11.6632    4.5027 C   0  0  0  0  0  0  0  0  0  0  0  0
   10.9279   12.7111    5.3942 N   0  0  0  0  0  0  0  0  0  0  0  0
  1  2  1  0  0  0  0
  1  6  1  0  0  0  0
  2  3  2  0  0  0  0
  3  4  1  0  0  0  0
  4  5  2  0  0  0  0
  4 10  1  0  0  0  0
  5  6  1  0  0  0  0
  5  8  1  0  0  0  0
  6  7  2  0  0  0  0
  8  9  1  0  0  0  0
  9 10  2  0  0  0  0
M  END
>  <CHROM.1>
11.47702945,11.22159922,6.89654913,0.41361710,-1.31469023,0.93355338

>  <Name>
ligand

>  <RI>
0

>  <Rbt.Current_Directory>
/home/itssahil/PROJECTS/Mol_Feturizer/Test_systems_manuscript/rnas/4fe5

>  <Rbt.Executable>
rbdock ($Id: //depot/dev/client3/rdock/2013.1/src/exe/rbdock.cxx#4 $)

>  <Rbt.Library>
libRbt.so (2013.1, Build901 2013/11/27)

>  <Rbt.Parameter_File>
/export/apps/rDock/src/rDock_2013.1_src/data/scripts/dock_solv.prm

>  <Rbt.Receptor>
prm/blind_docking_40.prm

>  <SCORE>
-17.445

>  <SCORE.INTER>
-17.445

>  <SCORE.INTER.CONST>
1

>  <SCORE.INTER.POLAR>
0

>  <SCORE.INTER.ROT>
0

>  <SCORE.INTER.SOLV>
3.73331

>  <SCORE.INTER.VDW>
-16.4744

>  <SCORE.INTER.norm>
-1.7445

>  <SCORE.INTRA>
0

>  <SCORE.INTRA.DIHEDRAL>
0

>  <SCORE.INTRA.DIHEDRAL.0>
0

>  <SCORE.INTRA.POLAR>
0

>  <SCORE.INTRA.POLAR.0>
0

>  <SCORE.INTRA.REPUL>
0

>  <SCORE.INTRA.REPUL.0>
0

>  <SCORE.INTRA.SOLV>
0

>  <SCORE.INTRA.SOLV.lig_0>
-4.28333

>  <SCORE.INTRA.VDW>
0

>  <SCORE.INTRA.VDW.0>
0

>  <SCORE.INTRA.norm>
0

>  <SCORE.RESTR>
0

>  <SCORE.RESTR.CAVITY>
0

>  <SCORE.RESTR.norm>
0

>  <SCORE.SYSTEM>
0

>  <SCORE.SYSTEM.CONST>
0

>  <SCORE.SYSTEM.DIHEDRAL>
0

>  <SCORE.SYSTEM.SOLV>
0

>  <SCORE.SYSTEM.norm>
0

>  <SCORE.heavy>
10

>  <SCORE.norm>
-1.7445

>  <RMSD>
0.436

$$$$
ligand
 OpenBabel02271912143D
libRbt.so/2013.1/901 2013/11/27
 10 11  0  0  0  0  0  0  0  0999 V2000
   11.8816   10.8307    8.7485 N   0  0  0  0  0  0  0  0  0  0  0  0
   11.6112   12.1760    8.8388 C   0  0  0  0  0  0  0  0  0  0  0  0
   11.2717   12.9033    7.7729 N   0  0  0  0  0  0  0  0  0  0  0  0
   11.2253   12.1823    6.6167 C   0  0  0  0  0  0  0  0  0  0  0  0
   11.4861   10.8354    6.4591 C   0  0  0  0  0  0  0  0  0  0  0  0
   11.8470   10.0535    7.5904 C   0  0  0  0  0  0  0  0  0  0  0  0
   12.1169    8.8496    7.6785 O   0  0  0  0  0  0  0  0  0  0  0  0
   11.3268   10.5152    5.1401 N   0  0  0  0  0  0  0  0  0  0  0  0
   10.9703   11.6548    4.5033 C   0  0  0  0  0  0  0  0  0  0  0  0
   10.8997   12.7067    5.3909 N   0  0  0  0  0  0  0  0  0  0  0  0
  1  2  1  0  0  0  0
  1  6  1  0  0  0  0
  2  3  2  0  0  0  0
  3  4  1  0  0  0  0
  4  5  2  0  0  0  0
  4 10  1  0  0  0  0
  5  6  1  0  0  0  0
  5  8  1  0  0  0  0
  6  7  2  0  0  0  0
  8  9  1  0  0  0  0
  9 10  2  0  0  0  0
M  END
>  <CHROM.1>
11.47620015,11.22592711,6.89152703,0.37196117,-1.30299517,0.88853699

>  <Name>
ligand

>  <RI>
0

>  <Rbt.Current_Directory>
/home/itssahil/PROJECTS/Mol_Feturizer/Test_systems_manuscript/rnas/4fe5

>  <Rbt.Executable>
rbdock ($Id: //depot/dev/client3/rdock/2013.1/src/exe/rbdock.cxx#4 $)

>  <Rbt.Library>
libRbt.so (2013.1, Build901 2013/11/27)

>  <Rbt.Parameter_File>
/export/apps/rDock/src/rDock_2013.1_src/data/scripts/dock_solv.prm

>  <Rbt.Receptor>
prm/blind_docking_80.prm

>  <SCORE>
-17.4696

>  <SCORE.INTER>
-17.4696

>  <SCORE.INTER.CONST>
1

>  <SCORE.INTER.POLAR>
0

>  <SCORE.INTER.ROT>
0

>  <SCORE.INTER.SOLV>
3.69808

>  <SCORE.INTER.VDW>
-16.4791

>  <SCORE.INTER.norm>
-1.74696

>  <SCORE.INTRA>
0

>  <SCORE.INTRA.DIHEDRAL>
0

>  <SCORE.INTRA.DIHEDRAL.0>
0

>  <SCORE.INTRA.POLAR>
0

>  <SCORE.INTRA.POLAR.0>
0

>  <SCORE.INTRA.REPUL>
0

>  <SCORE.INTRA.REPUL.0>
0

>  <SCORE.INTRA.SOLV>
0

>  <SCORE.INTRA.SOLV.lig_0>
-4.28333

>  <SCORE.INTRA.VDW>
0

>  <SCORE.INTRA.VDW.0>
0

>  <SCORE.INTRA.norm>
0

>  <SCORE.RESTR>
0

>  <SCORE.RESTR.CAVITY>
0

>  <SCORE.RESTR.norm>
0

>  <SCORE.SYSTEM>
0

>  <SCORE.SYSTEM.CONST>
0

>  <SCORE.SYSTEM.DIHEDRAL>
0

>  <SCORE.SYSTEM.SOLV>
0

>  <SCORE.SYSTEM.norm>
0

>  <SCORE.heavy>
10

>  <SCORE.norm>
-1.74696

>  <RMSD>
0.436

$$$$
ligand
 OpenBabel02271912143D
libRbt.so/2013.1/901 2013/11/27
 10 11  0  0  0  0  0  0  0  0999 V2000
   11.8732   10.8637    8.7696 N   0  0  0  0  0  0  0  0  0  0  0  0
   11.6129   12.2101    8.8722 C   0  0  0  0  0  0  0  0  0  0  0  0
   11.2913   12.9522    7.8110 N   0  0  0  0  0  0  0  0  0  0  0  0
   11.2518   12.2447    6.6462 C   0  0  0  0  0  0  0  0  0  0  0  0
   11.5032   10.8975    6.4762 C   0  0  0  0  0  0  0  0  0  0  0  0
   11.8450   10.1000    7.6025 C   0  0  0  0  0  0  0  0  0  0  0  0
   12.1040    8.8929    7.6799 O   0  0  0  0  0  0  0  0  0  0  0  0
   11.3558   10.5935    5.1520 N   0  0  0  0  0  0  0  0  0  0  0  0
   11.0159   11.7432    4.5242 C   0  0  0  0  0  0  0  0  0  0  0  0
   10.9441   12.7856    5.4230 N   0  0  0  0  0  0  0  0  0  0  0  0
  1  2  1  0  0  0  0
  1  6  1  0  0  0  0
  2  3  2  0  0  0  0
  3  4  1  0  0  0  0
  4  5  2  0  0  0  0
  4 10  1  0  0  0  0
  5  6  1  0  0  0  0
  5  8  1  0  0  0  0
  6  7  2  0  0  0  0
  8  9  1  0  0  0  0
  9 10  2  0  0  0  0
M  END
>  <CHROM.1>
11.49173031,11.28323020,6.91289286,0.38543471,-1.31639445,0.91285652

>  <Name>
ligand

>  <RI>
0

>  <Rbt.Current_Directory>
/home/itssahil/PROJECTS/Mol_Feturizer/Test_systems_manuscript/rnas/4fe5

>  <Rbt.Executable>
rbdock ($Id: //depot/dev/client3/rdock/2013.1/src/exe/rbdock.cxx#4 $)

>  <Rbt.Library>
libRbt.so (2013.1, Build901 2013/11/27)

>  <Rbt.Parameter_File>
/export/apps/rDock/src/rDock_2013.1_src/data/scripts/dock_solv.prm

>  <Rbt.Receptor>
prm/pocket_docking_3.prm

>  <SCORE>
-17.4478

>  <SCORE.INTER>
-17.4478

>  <SCORE.INTER.CONST>
1

>  <SCORE.INTER.POLAR>
0

>  <SCORE.INTER.ROT>
0

>  <SCORE.INTER.SOLV>
3.71558

>  <SCORE.INTER.VDW>
-16.4704

>  <SCORE.INTER.norm>
-1.74478

>  <SCORE.INTRA>
0

>  <SCORE.INTRA.DIHEDRAL>
0

>  <SCORE.INTRA.DIHEDRAL.0>
0

>  <SCORE.INTRA.POLAR>
0

>  <SCORE.INTRA.POLAR.0>
0

>  <SCORE.INTRA.REPUL>
0

>  <SCORE.INTRA.REPUL.0>
0

>  <SCORE.INTRA.SOLV>
0

>  <SCORE.INTRA.SOLV.lig_0>
-4.28333

>  <SCORE.INTRA.VDW>
0

>  <SCORE.INTRA.VDW.0>
0

>  <SCORE.INTRA.norm>
0

>  <SCORE.RESTR>
0

>  <SCORE.RESTR.CAVITY>
0

>  <SCORE.RESTR.norm>
0

>  <SCORE.SYSTEM>
0

>  <SCORE.SYSTEM.CONST>
0

>  <SCORE.SYSTEM.DIHEDRAL>
0

>  <SCORE.SYSTEM.SOLV>
0

>  <SCORE.SYSTEM.norm>
0

>  <SCORE.heavy>
10

>  <SCORE.norm>
-1.74478

>  <RMSD>
0.436

$$$$
ligand
 OpenBabel02271912143D
libRbt.so/2013.1/901 2013/11/27
 10 11  0  0  0  0  0  0  0  0999 V2000
   11.8577   10.8407    8.7671 N   0  0  0  0  0  0  0  0  0  0  0  0
   11.5982   12.1878    8.8614 C   0  0  0  0  0  0  0  0  0  0  0  0
   11.2822   12.9247    7.7950 N   0  0  0  0  0  0  0  0  0  0  0  0
   11.2474   12.2113    6.6336 C   0  0  0  0  0  0  0  0  0  0  0  0
   11.4983   10.8629    6.4718 C   0  0  0  0  0  0  0  0  0  0  0  0
   11.8342   10.0709    7.6037 C   0  0  0  0  0  0  0  0  0  0  0  0
   12.0916    8.8640    7.6886 O   0  0  0  0  0  0  0  0  0  0  0  0
   11.3567   10.5523    5.1485 N   0  0  0  0  0  0  0  0  0  0  0  0
   11.0208   11.6990    4.5133 C   0  0  0  0  0  0  0  0  0  0  0  0
   10.9459   12.7461    5.4063 N   0  0  0  0  0  0  0  0  0  0  0  0
  1  2  1  0  0  0  0
  1  6  1  0  0  0  0
  2  3  2  0  0  0  0
  3  4  1  0  0  0  0
  4  5  2  0  0  0  0
  4 10  1  0  0  0  0
  5  6  1  0  0  0  0
  5  8  1  0  0  0  0
  6  7  2  0  0  0  0
  8  9  1  0  0  0  0
  9 10  2  0  0  0  0
M  END
>  <CHROM.1>
11.48515842,11.25093415,6.90644038,0.39779965,-1.31994818,0.91965954

>  <Name>
ligand

>  <RI>
0

>  <Rbt.Current_Directory>
/home/itssahil/PROJECTS/Mol_Feturizer/Test_systems_manuscript/rnas/4fe5

>  <Rbt.Executable>
rbdock ($Id: //depot/dev/client3/rdock/2013.1/src/exe/rbdock.cxx#4 $)

>  <Rbt.Library>
libRbt.so (2013.1, Build901 2013/11/27)

>  <Rbt.Parameter_File>
/export/apps/rDock/src/rDock_2013.1_src/data/scripts/dock_solv.prm

>  <Rbt.Receptor>
prm/pocket_docking_5.prm

>  <SCORE>
-17.4604

>  <SCORE.INTER>
-17.4604

>  <SCORE.INTER.CONST>
1

>  <SCORE.INTER.POLAR>
0

>  <SCORE.INTER.ROT>
0

>  <SCORE.INTER.SOLV>
3.74086

>  <SCORE.INTER.VDW>
-16.4872

>  <SCORE.INTER.norm>
-1.74604

>  <SCORE.INTRA>
0

>  <SCORE.INTRA.DIHEDRAL>
0

>  <SCORE.INTRA.DIHEDRAL.0>
0

>  <SCORE.INTRA.POLAR>
0

>  <SCORE.INTRA.POLAR.0>
0

>  <SCORE.INTRA.REPUL>
0

>  <SCORE.INTRA.REPUL.0>
0

>  <SCORE.INTRA.SOLV>
0

>  <SCORE.INTRA.SOLV.lig_0>
-4.28333

>  <SCORE.INTRA.VDW>
0

>  <SCORE.INTRA.VDW.0>
0

>  <SCORE.INTRA.norm>
0

>  <SCORE.RESTR>
0

>  <SCORE.RESTR.CAVITY>
0

>  <SCORE.RESTR.norm>
0

>  <SCORE.SYSTEM>
0

>  <SCORE.SYSTEM.CONST>
0

>  <SCORE.SYSTEM.DIHEDRAL>
0

>  <SCORE.SYSTEM.SOLV>
0

>  <SCORE.SYSTEM.norm>
0

>  <SCORE.heavy>
10

>  <SCORE.norm>
-1.74604

>  <RMSD>
0.436

$$$$
ligand
 OpenBabel02271912143D
libRbt.so/2013.1/901 2013/11/27
 10 11  0  0  0  0  0  0  0  0999 V2000
   11.8798   10.8317    8.7493 N   0  0  0  0  0  0  0  0  0  0  0  0
   11.6080   12.1768    8.8379 C   0  0  0  0  0  0  0  0  0  0  0  0
   11.2701   12.9029    7.7707 N   0  0  0  0  0  0  0  0  0  0  0  0
   11.2267   12.1809    6.6150 C   0  0  0  0  0  0  0  0  0  0  0  0
   11.4890   10.8341    6.4591 C   0  0  0  0  0  0  0  0  0  0  0  0
   11.8483   10.0535    7.5918 C   0  0  0  0  0  0  0  0  0  0  0  0
   12.1191    8.8499    7.6816 O   0  0  0  0  0  0  0  0  0  0  0  0
   11.3326   10.5126    5.1401 N   0  0  0  0  0  0  0  0  0  0  0  0
   10.9765   11.6513    4.5015 C   0  0  0  0  0  0  0  0  0  0  0  0
   10.9031   12.7040    5.3881 N   0  0  0  0  0  0  0  0  0  0  0  0
  1  2  1  0  0  0  0
  1  6  1  0  0  0  0
  2  3  2  0  0  0  0
  3  4  1  0  0  0  0
  4  5  2  0  0  0  0
  4 10  1  0  0  0  0
  5  6  1  0  0  0  0
  5  8  1  0  0  0  0
  6  7  2  0  0  0  0
  8  9  1  0  0  0  0
  9 10  2  0  0  0  0
M  END
>  <CHROM.1>
11.47788509,11.22500578,6.89117437,0.38005957,-1.30359792,0.89547686

>  <Name>
ligand

>  <RI>
0

>  <Rbt.Current_Directory>
/home/itssahil/PROJECTS/Mol_Feturizer/Test_systems_manuscript/rnas/4fe5

>  <Rbt.Executable>
rbdock ($Id: //depot/dev/client3/rdock/2013.1/src/exe/rbdock.cxx#4 $)

>  <Rbt.Library>
libRbt.so (2013.1, Build901 2013/11/27)

>  <Rbt.Parameter_File>
/export/apps/rDock/src/rDock_2013.1_src/data/scripts/dock_solv.prm

>  <Rbt.Receptor>
prm/pocket_docking_5.prm

>  <SCORE>
-17.471

>  <SCORE.INTER>
-17.471

>  <SCORE.INTER.CONST>
1

>  <SCORE.INTER.POLAR>
0

>  <SCORE.INTER.ROT>
0

>  <SCORE.INTER.SOLV>
3.69956

>  <SCORE.INTER.VDW>
-16.4805

>  <SCORE.INTER.norm>
-1.7471

>  <SCORE.INTRA>
0

>  <SCORE.INTRA.DIHEDRAL>
0

>  <SCORE.INTRA.DIHEDRAL.0>
0

>  <SCORE.INTRA.POLAR>
0

>  <SCORE.INTRA.POLAR.0>
0

>  <SCORE.INTRA.REPUL>
0

>  <SCORE.INTRA.REPUL.0>
0

>  <SCORE.INTRA.SOLV>
0

>  <SCORE.INTRA.SOLV.lig_0>
-4.28333

>  <SCORE.INTRA.VDW>
0

>  <SCORE.INTRA.VDW.0>
0

>  <SCORE.INTRA.norm>
0

>  <SCORE.RESTR>
0

>  <SCORE.RESTR.CAVITY>
0

>  <SCORE.RESTR.norm>
0

>  <SCORE.SYSTEM>
0

>  <SCORE.SYSTEM.CONST>
0

>  <SCORE.SYSTEM.DIHEDRAL>
0

>  <SCORE.SYSTEM.SOLV>
0

>  <SCORE.SYSTEM.norm>
0

>  <SCORE.heavy>
10

>  <SCORE.norm>
-1.7471

>  <RMSD>
0.436

$$$$
ligand
 OpenBabel02271912143D
libRbt.so/2013.1/901 2013/11/27
 10 11  0  0  0  0  0  0  0  0999 V2000
   11.8640   10.8447    8.7654 N   0  0  0  0  0  0  0  0  0  0  0  0
   11.6044   12.1918    8.8604 C   0  0  0  0  0  0  0  0  0  0  0  0
   11.2823   12.9280    7.7952 N   0  0  0  0  0  0  0  0  0  0  0  0
   11.2416   12.2138    6.6345 C   0  0  0  0  0  0  0  0  0  0  0  0
   11.4922   10.8655    6.4720 C   0  0  0  0  0  0  0  0  0  0  0  0
   11.8346   10.0743    7.6026 C   0  0  0  0  0  0  0  0  0  0  0  0
   12.0930    8.8676    7.6868 O   0  0  0  0  0  0  0  0  0  0  0  0
   11.3437   10.5540    5.1497 N   0  0  0  0  0  0  0  0  0  0  0  0
   11.0038   11.7002    4.5157 C   0  0  0  0  0  0  0  0  0  0  0  0
   10.9332   12.7478    5.4084 N   0  0  0  0  0  0  0  0  0  0  0  0
  1  2  1  0  0  0  0
  1  6  1  0  0  0  0
  2  3  2  0  0  0  0
  3  4  1  0  0  0  0
  4  5  2  0  0  0  0
  4 10  1  0  0  0  0
  5  6  1  0  0  0  0
  5  8  1  0  0  0  0
  6  7  2  0  0  0  0
  8  9  1  0  0  0  0
  9 10  2  0  0  0  0
M  END
>  <CHROM.1>
11.48125529,11.25373691,6.90655984,0.38186102,-1.31628560,0.90364667

>  <Name>
ligand

>  <RI>
0

>  <Rbt.Current_Directory>
/home/itssahil/PROJECTS/Mol_Feturizer/Test_systems_manuscript/rnas/4fe5

>  <Rbt.Executable>
rbdock ($Id: //depot/dev/client3/rdock/2013.1/src/exe/rbdock.cxx#4 $)

>  <Rbt.Library>
libRbt.so (2013.1, Build901 2013/11/27)

>  <Rbt.Parameter_File>
/export/apps/rDock/src/rDock_2013.1_src/data/scripts/dock_solv.prm

>  <Rbt.Receptor>
prm/pocket_docking_7.prm

>  <SCORE>
-17.4566

>  <SCORE.INTER>
-17.4566

>  <SCORE.INTER.CONST>
1

>  <SCORE.INTER.POLAR>
0

>  <SCORE.INTER.ROT>
0

>  <SCORE.INTER.SOLV>
3.73246

>  <SCORE.INTER.VDW>
-16.4819

>  <SCORE.INTER.norm>
-1.74566

>  <SCORE.INTRA>
0

>  <SCORE.INTRA.DIHEDRAL>
0

>  <SCORE.INTRA.DIHEDRAL.0>
0

>  <SCORE.INTRA.POLAR>
0

>  <SCORE.INTRA.POLAR.0>
0

>  <SCORE.INTRA.REPUL>
0

>  <SCORE.INTRA.REPUL.0>
0

>  <SCORE.INTRA.SOLV>
0

>  <SCORE.INTRA.SOLV.lig_0>
-4.28333

>  <SCORE.INTRA.VDW>
0

>  <SCORE.INTRA.VDW.0>
0

>  <SCORE.INTRA.norm>
0

>  <SCORE.RESTR>
0

>  <SCORE.RESTR.CAVITY>
0

>  <SCORE.RESTR.norm>
0

>  <SCORE.SYSTEM>
0

>  <SCORE.SYSTEM.CONST>
0

>  <SCORE.SYSTEM.DIHEDRAL>
0

>  <SCORE.SYSTEM.SOLV>
0

>  <SCORE.SYSTEM.norm>
0

>  <SCORE.heavy>
10

>  <SCORE.norm>
-1.74566

>  <RMSD>
0.436

$$$$
ligand
 OpenBabel02271912143D
libRbt.so/2013.1/901 2013/11/27
 10 11  0  0  0  0  0  0  0  0999 V2000
   11.8772   10.8689    8.7701 N   0  0  0  0  0  0  0  0  0  0  0  0
   11.6188   12.2156    8.8720 C   0  0  0  0  0  0  0  0  0  0  0  0
   11.2903   12.9561    7.8118 N   0  0  0  0  0  0  0  0  0  0  0  0
   11.2420   12.2465    6.6485 C   0  0  0  0  0  0  0  0  0  0  0  0
   11.4909   10.8988    6.4792 C   0  0  0  0  0  0  0  0  0  0  0  0
   11.8401   10.1030    7.6045 C   0  0  0  0  0  0  0  0  0  0  0  0
   12.0986    8.8959    7.6823 O   0  0  0  0  0  0  0  0  0  0  0  0
   11.3339   10.5925    5.1567 N   0  0  0  0  0  0  0  0  0  0  0  0
   10.9905   11.7413    4.5292 C   0  0  0  0  0  0  0  0  0  0  0  0
   10.9261   12.7855    5.4266 N   0  0  0  0  0  0  0  0  0  0  0  0
  1  2  1  0  0  0  0
  1  6  1  0  0  0  0
  2  3  2  0  0  0  0
  3  4  1  0  0  0  0
  4  5  2  0  0  0  0
  4 10  1  0  0  0  0
  5  6  1  0  0  0  0
  5  8  1  0  0  0  0
  6  7  2  0  0  0  0
  8  9  1  0  0  0  0
  9 10  2  0  0  0  0
M  END
>  <CHROM.1>
11.48291267,11.28531666,6.91530477,0.36136304,-1.31265848,0.88775306

>  <Name>
ligand

>  <RI>
0

>  <Rbt.Current_Directory>
/home/itssahil/PROJECTS/Mol_Feturizer/Test_systems_manuscript/rnas/4fe5

>  <Rbt.Executable>
rbdock ($Id: //depot/dev/client3/rdock/2013.1/src/exe/rbdock.cxx#4 $)

>  <Rbt.Library>
libRbt.so (2013.1, Build901 2013/11/27)

>  <Rbt.Parameter_File>
/export/apps/rDock/src/rDock_2013.1_src/data/scripts/dock_solv.prm

>  <Rbt.Receptor>
prm/pocket_docking_8.prm

>  <SCORE>
-17.4333

>  <SCORE.INTER>
-17.4333

>  <SCORE.INTER.CONST>
1

>  <SCORE.INTER.POLAR>
0

>  <SCORE.INTER.ROT>
0

>  <SCORE.INTER.SOLV>
3.71316

>  <SCORE.INTER.VDW>
-16.4599

>  <SCORE.INTER.norm>
-1.74333

>  <SCORE.INTRA>
0

>  <SCORE.INTRA.DIHEDRAL>
0

>  <SCORE.INTRA.DIHEDRAL.0>
0

>  <SCORE.INTRA.POLAR>
0

>  <SCORE.INTRA.POLAR.0>
0

>  <SCORE.INTRA.REPUL>
0

>  <SCORE.INTRA.REPUL.0>
0

>  <SCORE.INTRA.SOLV>
0

>  <SCORE.INTRA.SOLV.lig_0>
-4.28333

>  <SCORE.INTRA.VDW>
0

>  <SCORE.INTRA.VDW.0>
0

>  <SCORE.INTRA.norm>
0

>  <SCORE.RESTR>
0

>  <SCORE.RESTR.CAVITY>
0

>  <SCORE.RESTR.norm>
0

>  <SCORE.SYSTEM>
0

>  <SCORE.SYSTEM.CONST>
0

>  <SCORE.SYSTEM.DIHEDRAL>
0

>  <SCORE.SYSTEM.SOLV>
0

>  <SCORE.SYSTEM.norm>
0

>  <SCORE.heavy>
10

>  <SCORE.norm>
-1.74333

>  <RMSD>
0.436

$$$$
ligand
 OpenBabel02271912143D
libRbt.so/2013.1/901 2013/11/27
 10 11  0  0  0  0  0  0  0  0999 V2000
   11.8716   10.8380    8.7573 N   0  0  0  0  0  0  0  0  0  0  0  0
   11.6076   12.1845    8.8472 C   0  0  0  0  0  0  0  0  0  0  0  0
   11.2776   12.9145    7.7802 N   0  0  0  0  0  0  0  0  0  0  0  0
   11.2337   12.1947    6.6231 C   0  0  0  0  0  0  0  0  0  0  0  0
   11.4885   10.8466    6.4657 C   0  0  0  0  0  0  0  0  0  0  0  0
   11.8394   10.0620    7.5983 C   0  0  0  0  0  0  0  0  0  0  0  0
   12.1027    8.8566    7.6868 O   0  0  0  0  0  0  0  0  0  0  0  0
   11.3346   10.5283    5.1456 N   0  0  0  0  0  0  0  0  0  0  0  0
   10.9874   11.6703    4.5079 C   0  0  0  0  0  0  0  0  0  0  0  0
   10.9174   12.7218    5.3961 N   0  0  0  0  0  0  0  0  0  0  0  0
  1  2  1  0  0  0  0
  1  6  1  0  0  0  0
  2  3  2  0  0  0  0
  3  4  1  0  0  0  0
  4  5  2  0  0  0  0
  4 10  1  0  0  0  0
  5  6  1  0  0  0  0
  5  8  1  0  0  0  0
  6  7  2  0  0  0  0
  8  9  1  0  0  0  0
  9 10  2  0  0  0  0
M  END
>  <CHROM.1>
11.47827736,11.23684635,6.89843530,0.37571647,-1.31033393,0.89300807

>  <Name>
ligand

>  <RI>
0

>  <Rbt.Current_Directory>
/home/itssahil/PROJECTS/Mol_Feturizer/Test_systems_manuscript/rnas/4fe5

>  <Rbt.Executable>
rbdock ($Id: //depot/dev/client3/rdock/2013.1/src/exe/rbdock.cxx#4 $)

>  <Rbt.Library>
libRbt.so (2013.1, Build901 2013/11/27)

>  <Rbt.Parameter_File>
/export/apps/rDock/src/rDock_2013.1_src/data/scripts/dock_solv.prm

>  <Rbt.Receptor>
prm/pocket_docking_8.prm

>  <SCORE>
-17.4435

>  <SCORE.INTER>
-17.4447

>  <SCORE.INTER.CONST>
1

>  <SCORE.INTER.POLAR>
0

>  <SCORE.INTER.ROT>
0

>  <SCORE.INTER.SOLV>
3.72022

>  <SCORE.INTER.VDW>
-16.4698

>  <SCORE.INTER.norm>
-1.74447

>  <SCORE.INTRA>
0

>  <SCORE.INTRA.DIHEDRAL>
0

>  <SCORE.INTRA.DIHEDRAL.0>
0

>  <SCORE.INTRA.POLAR>
0

>  <SCORE.INTRA.POLAR.0>
0

>  <SCORE.INTRA.REPUL>
0

>  <SCORE.INTRA.REPUL.0>
0

>  <SCORE.INTRA.SOLV>
0

>  <SCORE.INTRA.SOLV.lig_0>
-4.28333

>  <SCORE.INTRA.VDW>
0

>  <SCORE.INTRA.VDW.0>
0

>  <SCORE.INTRA.norm>
0

>  <SCORE.RESTR>
0.00115617

>  <SCORE.RESTR.CAVITY>
0.00115617

>  <SCORE.RESTR.norm>
0.000115617

>  <SCORE.SYSTEM>
0

>  <SCORE.SYSTEM.CONST>
0

>  <SCORE.SYSTEM.DIHEDRAL>
0

>  <SCORE.SYSTEM.SOLV>
0

>  <SCORE.SYSTEM.norm>
0

>  <SCORE.heavy>
10

>  <SCORE.norm>
-1.74435

>  <RMSD>
0.436

$$$$
ligand
 OpenBabel02271912143D
libRbt.so/2013.1/901 2013/11/27
 10 11  0  0  0  0  0  0  0  0999 V2000
   11.8621   10.8172    8.7512 N   0  0  0  0  0  0  0  0  0  0  0  0
   11.5920   12.1622    8.8462 C   0  0  0  0  0  0  0  0  0  0  0  0
   11.2632   12.8957    7.7812 N   0  0  0  0  0  0  0  0  0  0  0  0
   11.2272   12.1811    6.6206 C   0  0  0  0  0  0  0  0  0  0  0  0
   11.4883   10.8348    6.4581 C   0  0  0  0  0  0  0  0  0  0  0  0
   11.8379   10.0464    7.5885 C   0  0  0  0  0  0  0  0  0  0  0  0
   12.1059    8.8418    7.6726 O   0  0  0  0  0  0  0  0  0  0  0  0
   11.3412   10.5220    5.1360 N   0  0  0  0  0  0  0  0  0  0  0  0
   10.9918   11.6654    4.5020 C   0  0  0  0  0  0  0  0  0  0  0  0
   10.9137   12.7125    5.3948 N   0  0  0  0  0  0  0  0  0  0  0  0
  1  2  1  0  0  0  0
  1  6  1  0  0  0  0
  2  3  2  0  0  0  0
  3  4  1  0  0  0  0
  4  5  2  0  0  0  0
  4 10  1  0  0  0  0
  5  6  1  0  0  0  0
  5  8  1  0  0  0  0
  6  7  2  0  0  0  0
  8  9  1  0  0  0  0
  9 10  2  0  0  0  0
M  END
>  <CHROM.1>
11.47468236,11.22297881,6.89258930,0.39838368,-1.30954960,0.91952615

>  <Name>
ligand

>  <RI>
0

>  <Rbt.Current_Directory>
/home/itssahil/PROJECTS/Mol_Feturizer/Test_systems_manuscript/rnas/4fe5

>  <Rbt.Executable>
rbdock ($Id: //depot/dev/client3/rdock/2013.1/src/exe/rbdock.cxx#4 $)

>  <Rbt.Library>
libRbt.so (2013.1, Build901 2013/11/27)

>  <Rbt.Parameter_File>
/export/apps/rDock/src/rDock_2013.1_src/data/scripts/dock_solv.prm

>  <Rbt.Receptor>
prm/blind_docking_100.prm

>  <SCORE>
-17.4433

>  <SCORE.INTER>
-17.4433

>  <SCORE.INTER.CONST>
1

>  <SCORE.INTER.POLAR>
0

>  <SCORE.INTER.ROT>
0

>  <SCORE.INTER.SOLV>
3.71551

>  <SCORE.INTER.VDW>
-16.4674

>  <SCORE.INTER.norm>
-1.74433

>  <SCORE.INTRA>
0

>  <SCORE.INTRA.DIHEDRAL>
0

>  <SCORE.INTRA.DIHEDRAL.0>
0

>  <SCORE.INTRA.POLAR>
0

>  <SCORE.INTRA.POLAR.0>
0

>  <SCORE.INTRA.REPUL>
0

>  <SCORE.INTRA.REPUL.0>
0

>  <SCORE.INTRA.SOLV>
0

>  <SCORE.INTRA.SOLV.lig_0>
-4.28333

>  <SCORE.INTRA.VDW>
0

>  <SCORE.INTRA.VDW.0>
0

>  <SCORE.INTRA.norm>
0

>  <SCORE.RESTR>
0

>  <SCORE.RESTR.CAVITY>
0

>  <SCORE.RESTR.norm>
0

>  <SCORE.SYSTEM>
0

>  <SCORE.SYSTEM.CONST>
0

>  <SCORE.SYSTEM.DIHEDRAL>
0

>  <SCORE.SYSTEM.SOLV>
0

>  <SCORE.SYSTEM.norm>
0

>  <SCORE.heavy>
10

>  <SCORE.norm>
-1.74433

>  <RMSD>
0.437

$$$$
ligand
 OpenBabel02271912143D
libRbt.so/2013.1/901 2013/11/27
 10 11  0  0  0  0  0  0  0  0999 V2000
   11.7840   10.9533    8.8615 N   0  0  0  0  0  0  0  0  0  0  0  0
   11.5269   12.3038    8.8897 C   0  0  0  0  0  0  0  0  0  0  0  0
   11.2342   12.9924    7.7850 N   0  0  0  0  0  0  0  0  0  0  0  0
   11.2200   12.2272    6.6566 C   0  0  0  0  0  0  0  0  0  0  0  0
   11.4698   10.8724    6.5609 C   0  0  0  0  0  0  0  0  0  0  0  0
   11.7810   10.1317    7.7339 C   0  0  0  0  0  0  0  0  0  0  0  0
   12.0330    8.9293    7.8783 O   0  0  0  0  0  0  0  0  0  0  0  0
   11.3534   10.5025    5.2505 N   0  0  0  0  0  0  0  0  0  0  0  0
   11.0335   11.6200    4.5575 C   0  0  0  0  0  0  0  0  0  0  0  0
   10.9443   12.7066    5.4006 N   0  0  0  0  0  0  0  0  0  0  0  0
  1  2  1  0  0  0  0
  1  6  1  0  0  0  0
  2  3  2  0  0  0  0
  3  4  1  0  0  0  0
  4  5  2  0  0  0  0
  4 10  1  0  0  0  0
  5  6  1  0  0  0  0
  5  8  1  0  0  0  0
  6  7  2  0  0  0  0
  8  9  1  0  0  0  0
  9 10  2  0  0  0  0
M  END
>  <CHROM.1>
11.44938345,11.27968010,6.97721656,0.45650081,-1.33390500,0.93137528

>  <Name>
ligand

>  <RI>
0

>  <Rbt.Current_Directory>
/home/itssahil/PROJECTS/Mol_Feturizer/Test_systems_manuscript/rnas/4fe5

>  <Rbt.Executable>
rbdock ($Id: //depot/dev/client3/rdock/2013.1/src/exe/rbdock.cxx#4 $)

>  <Rbt.Library>
libRbt.so (2013.1, Build901 2013/11/27)

>  <Rbt.Parameter_File>
/export/apps/rDock/src/rDock_2013.1_src/data/scripts/dock_solv.prm

>  <Rbt.Receptor>
prm/blind_docking_60.prm

>  <SCORE>
-17.4035

>  <SCORE.INTER>
-17.4035

>  <SCORE.INTER.CONST>
1

>  <SCORE.INTER.POLAR>
0

>  <SCORE.INTER.ROT>
0

>  <SCORE.INTER.SOLV>
3.88539

>  <SCORE.INTER.VDW>
-16.4975

>  <SCORE.INTER.norm>
-1.74035

>  <SCORE.INTRA>
0

>  <SCORE.INTRA.DIHEDRAL>
0

>  <SCORE.INTRA.DIHEDRAL.0>
0

>  <SCORE.INTRA.POLAR>
0

>  <SCORE.INTRA.POLAR.0>
0

>  <SCORE.INTRA.REPUL>
0

>  <SCORE.INTRA.REPUL.0>
0

>  <SCORE.INTRA.SOLV>
0

>  <SCORE.INTRA.SOLV.lig_0>
-4.28333

>  <SCORE.INTRA.VDW>
0

>  <SCORE.INTRA.VDW.0>
0

>  <SCORE.INTRA.norm>
0

>  <SCORE.RESTR>
0

>  <SCORE.RESTR.CAVITY>
0

>  <SCORE.RESTR.norm>
0

>  <SCORE.SYSTEM>
0

>  <SCORE.SYSTEM.CONST>
0

>  <SCORE.SYSTEM.DIHEDRAL>
0

>  <SCORE.SYSTEM.SOLV>
0

>  <SCORE.SYSTEM.norm>
0

>  <SCORE.heavy>
10

>  <SCORE.norm>
-1.74035

>  <RMSD>
0.437

$$$$
ligand
 OpenBabel02271912143D
libRbt.so/2013.1/901 2013/11/27
 10 11  0  0  0  0  0  0  0  0999 V2000
   11.8611   10.8841    8.7709 N   0  0  0  0  0  0  0  0  0  0  0  0
   11.5766   12.2272    8.8495 C   0  0  0  0  0  0  0  0  0  0  0  0
   11.2479   12.9457    7.7743 N   0  0  0  0  0  0  0  0  0  0  0  0
   11.2274   12.2183    6.6213 C   0  0  0  0  0  0  0  0  0  0  0  0
   11.5034   10.8731    6.4752 C   0  0  0  0  0  0  0  0  0  0  0  0
   11.8530   10.1006    7.6165 C   0  0  0  0  0  0  0  0  0  0  0  0
   12.1327    8.8998    7.7155 O   0  0  0  0  0  0  0  0  0  0  0  0
   11.3689   10.5446    5.1556 N   0  0  0  0  0  0  0  0  0  0  0  0
   11.0122   11.6774    4.5069 C   0  0  0  0  0  0  0  0  0  0  0  0
   10.9171   12.7333    5.3876 N   0  0  0  0  0  0  0  0  0  0  0  0
  1  2  1  0  0  0  0
  1  6  1  0  0  0  0
  2  3  2  0  0  0  0
  3  4  1  0  0  0  0
  4  5  2  0  0  0  0
  4 10  1  0  0  0  0
  5  6  1  0  0  0  0
  5  8  1  0  0  0  0
  6  7  2  0  0  0  0
  8  9  1  0  0  0  0
  9 10  2  0  0  0  0
M  END
>  <CHROM.1>
11.48273228,11.26582821,6.90537791,0.44343494,-1.30543899,0.95221246

>  <Name>
ligand

>  <RI>
0

>  <Rbt.Current_Directory>
/home/itssahil/PROJECTS/Mol_Feturizer/Test_systems_manuscript/rnas/4fe5

>  <Rbt.Executable>
rbdock ($Id: //depot/dev/client3/rdock/2013.1/src/exe/rbdock.cxx#4 $)

>  <Rbt.Library>
libRbt.so (2013.1, Build901 2013/11/27)

>  <Rbt.Parameter_File>
/export/apps/rDock/src/rDock_2013.1_src/data/scripts/dock_solv.prm

>  <Rbt.Receptor>
prm/pocket_docking_8.prm

>  <SCORE>
-17.4249

>  <SCORE.INTER>
-17.4249

>  <SCORE.INTER.CONST>
1

>  <SCORE.INTER.POLAR>
0

>  <SCORE.INTER.ROT>
0

>  <SCORE.INTER.SOLV>
3.70927

>  <SCORE.INTER.VDW>
-16.453

>  <SCORE.INTER.norm>
-1.74249

>  <SCORE.INTRA>
0

>  <SCORE.INTRA.DIHEDRAL>
0

>  <SCORE.INTRA.DIHEDRAL.0>
0

>  <SCORE.INTRA.POLAR>
0

>  <SCORE.INTRA.POLAR.0>
0

>  <SCORE.INTRA.REPUL>
0

>  <SCORE.INTRA.REPUL.0>
0

>  <SCORE.INTRA.SOLV>
0

>  <SCORE.INTRA.SOLV.lig_0>
-4.28333

>  <SCORE.INTRA.VDW>
0

>  <SCORE.INTRA.VDW.0>
0

>  <SCORE.INTRA.norm>
0

>  <SCORE.RESTR>
0

>  <SCORE.RESTR.CAVITY>
0

>  <SCORE.RESTR.norm>
0

>  <SCORE.SYSTEM>
0

>  <SCORE.SYSTEM.CONST>
0

>  <SCORE.SYSTEM.DIHEDRAL>
0

>  <SCORE.SYSTEM.SOLV>
0

>  <SCORE.SYSTEM.norm>
0

>  <SCORE.heavy>
10

>  <SCORE.norm>
-1.74249

>  <RMSD>
0.437

$$$$
ligand
 OpenBabel02271912143D
libRbt.so/2013.1/901 2013/11/27
 10 11  0  0  0  0  0  0  0  0999 V2000
   11.8519   10.8506    8.7667 N   0  0  0  0  0  0  0  0  0  0  0  0
   11.5820   12.1958    8.8586 C   0  0  0  0  0  0  0  0  0  0  0  0
   11.2643   12.9292    7.7902 N   0  0  0  0  0  0  0  0  0  0  0  0
   11.2390   12.2142    6.6295 C   0  0  0  0  0  0  0  0  0  0  0  0
   11.5006   10.8676    6.4701 C   0  0  0  0  0  0  0  0  0  0  0  0
   11.8384   10.0794    7.6041 C   0  0  0  0  0  0  0  0  0  0  0  0
   12.1046    8.8746    7.6912 O   0  0  0  0  0  0  0  0  0  0  0  0
   11.3662   10.5545    5.1466 N   0  0  0  0  0  0  0  0  0  0  0  0
   11.0239   11.6980    4.5089 C   0  0  0  0  0  0  0  0  0  0  0  0
   10.9379   12.7455    5.4005 N   0  0  0  0  0  0  0  0  0  0  0  0
  1  2  1  0  0  0  0
  1  6  1  0  0  0  0
  2  3  2  0  0  0  0
  3  4  1  0  0  0  0
  4  5  2  0  0  0  0
  4 10  1  0  0  0  0
  5  6  1  0  0  0  0
  5  8  1  0  0  0  0
  6  7  2  0  0  0  0
  8  9  1  0  0  0  0
  9 10  2  0  0  0  0
M  END
>  <CHROM.1>
11.48300934,11.25600238,6.90425375,0.42720932,-1.31604587,0.94704701

>  <Name>
ligand

>  <RI>
0

>  <Rbt.Current_Directory>
/home/itssahil/PROJECTS/Mol_Feturizer/Test_systems_manuscript/rnas/4fe5

>  <Rbt.Executable>
rbdock ($Id: //depot/dev/client3/rdock/2013.1/src/exe/rbdock.cxx#4 $)

>  <Rbt.Library>
libRbt.so (2013.1, Build901 2013/11/27)

>  <Rbt.Parameter_File>
/export/apps/rDock/src/rDock_2013.1_src/data/scripts/dock_solv.prm

>  <Rbt.Receptor>
prm/pocket_docking_4.prm

>  <SCORE>
-17.4167

>  <SCORE.INTER>
-17.4167

>  <SCORE.INTER.CONST>
1

>  <SCORE.INTER.POLAR>
0

>  <SCORE.INTER.ROT>
0

>  <SCORE.INTER.SOLV>
3.73021

>  <SCORE.INTER.VDW>
-16.4545

>  <SCORE.INTER.norm>
-1.74167

>  <SCORE.INTRA>
0

>  <SCORE.INTRA.DIHEDRAL>
0

>  <SCORE.INTRA.DIHEDRAL.0>
0

>  <SCORE.INTRA.POLAR>
0

>  <SCORE.INTRA.POLAR.0>
0

>  <SCORE.INTRA.REPUL>
0

>  <SCORE.INTRA.REPUL.0>
0

>  <SCORE.INTRA.SOLV>
0

>  <SCORE.INTRA.SOLV.lig_0>
-4.28333

>  <SCORE.INTRA.VDW>
0

>  <SCORE.INTRA.VDW.0>
0

>  <SCORE.INTRA.norm>
0

>  <SCORE.RESTR>
0

>  <SCORE.RESTR.CAVITY>
0

>  <SCORE.RESTR.norm>
0

>  <SCORE.SYSTEM>
0

>  <SCORE.SYSTEM.CONST>
0

>  <SCORE.SYSTEM.DIHEDRAL>
0

>  <SCORE.SYSTEM.SOLV>
0

>  <SCORE.SYSTEM.norm>
0

>  <SCORE.heavy>
10

>  <SCORE.norm>
-1.74167

>  <RMSD>
0.438

$$$$
ligand
 OpenBabel02271912143D
libRbt.so/2013.1/901 2013/11/27
 10 11  0  0  0  0  0  0  0  0999 V2000
   11.8296   10.8658    8.7813 N   0  0  0  0  0  0  0  0  0  0  0  0
   11.5482   12.2083    8.8790 C   0  0  0  0  0  0  0  0  0  0  0  0
   11.2464   12.9484    7.8106 N   0  0  0  0  0  0  0  0  0  0  0  0
   11.2493   12.2431    6.6438 C   0  0  0  0  0  0  0  0  0  0  0  0
   11.5238   10.8998    6.4783 C   0  0  0  0  0  0  0  0  0  0  0  0
   11.8447   10.1044    7.6123 C   0  0  0  0  0  0  0  0  0  0  0  0
   12.1179    8.9008    7.6946 O   0  0  0  0  0  0  0  0  0  0  0  0
   11.4178   10.5969    5.1500 N   0  0  0  0  0  0  0  0  0  0  0  0
   11.0800   11.7433    4.5151 C   0  0  0  0  0  0  0  0  0  0  0  0
   10.9688   12.7826    5.4135 N   0  0  0  0  0  0  0  0  0  0  0  0
  1  2  1  0  0  0  0
  1  6  1  0  0  0  0
  2  3  2  0  0  0  0
  3  4  1  0  0  0  0
  4  5  2  0  0  0  0
  4 10  1  0  0  0  0
  5  6  1  0  0  0  0
  5  8  1  0  0  0  0
  6  7  2  0  0  0  0
  8  9  1  0  0  0  0
  9 10  2  0  0  0  0
M  END
>  <CHROM.1>
11.49476991,11.28434296,6.91532236,0.50942945,-1.32091889,1.03505247

>  <Name>
ligand

>  <RI>
0

>  <Rbt.Current_Directory>
/home/itssahil/PROJECTS/Mol_Feturizer/Test_systems_manuscript/rnas/4fe5

>  <Rbt.Executable>
rbdock ($Id: //depot/dev/client3/rdock/2013.1/src/exe/rbdock.cxx#4 $)

>  <Rbt.Library>
libRbt.so (2013.1, Build901 2013/11/27)

>  <Rbt.Parameter_File>
/export/apps/rDock/src/rDock_2013.1_src/data/scripts/dock_solv.prm

>  <Rbt.Receptor>
prm/pocket_docking_4.prm

>  <SCORE>
-17.4445

>  <SCORE.INTER>
-17.4445

>  <SCORE.INTER.CONST>
1

>  <SCORE.INTER.POLAR>
0

>  <SCORE.INTER.ROT>
0

>  <SCORE.INTER.SOLV>
3.73451

>  <SCORE.INTER.VDW>
-16.4745

>  <SCORE.INTER.norm>
-1.74445

>  <SCORE.INTRA>
0

>  <SCORE.INTRA.DIHEDRAL>
0

>  <SCORE.INTRA.DIHEDRAL.0>
0

>  <SCORE.INTRA.POLAR>
0

>  <SCORE.INTRA.POLAR.0>
0

>  <SCORE.INTRA.REPUL>
0

>  <SCORE.INTRA.REPUL.0>
0

>  <SCORE.INTRA.SOLV>
0

>  <SCORE.INTRA.SOLV.lig_0>
-4.28333

>  <SCORE.INTRA.VDW>
0

>  <SCORE.INTRA.VDW.0>
0

>  <SCORE.INTRA.norm>
0

>  <SCORE.RESTR>
0

>  <SCORE.RESTR.CAVITY>
0

>  <SCORE.RESTR.norm>
0

>  <SCORE.SYSTEM>
0

>  <SCORE.SYSTEM.CONST>
0

>  <SCORE.SYSTEM.DIHEDRAL>
0

>  <SCORE.SYSTEM.SOLV>
0

>  <SCORE.SYSTEM.norm>
0

>  <SCORE.heavy>
10

>  <SCORE.norm>
-1.74445

>  <RMSD>
0.438

$$$$
ligand
 OpenBabel02271912143D
libRbt.so/2013.1/901 2013/11/27
 10 11  0  0  0  0  0  0  0  0999 V2000
   11.8686   10.8159    8.7477 N   0  0  0  0  0  0  0  0  0  0  0  0
   11.5991   12.1610    8.8424 C   0  0  0  0  0  0  0  0  0  0  0  0
   11.2698   12.8942    7.7774 N   0  0  0  0  0  0  0  0  0  0  0  0
   11.2326   12.1792    6.6171 C   0  0  0  0  0  0  0  0  0  0  0  0
   11.4930   10.8327    6.4549 C   0  0  0  0  0  0  0  0  0  0  0  0
   11.8431   10.0446    7.5853 C   0  0  0  0  0  0  0  0  0  0  0  0
   12.1107    8.8399    7.6696 O   0  0  0  0  0  0  0  0  0  0  0  0
   11.3447   10.5195    5.1330 N   0  0  0  0  0  0  0  0  0  0  0  0
   10.9952   11.6628    4.4989 C   0  0  0  0  0  0  0  0  0  0  0  0
   10.9182   12.7103    5.3913 N   0  0  0  0  0  0  0  0  0  0  0  0
  1  2  1  0  0  0  0
  1  6  1  0  0  0  0
  2  3  2  0  0  0  0
  3  4  1  0  0  0  0
  4  5  2  0  0  0  0
  4 10  1  0  0  0  0
  5  6  1  0  0  0  0
  5  8  1  0  0  0  0
  6  7  2  0  0  0  0
  8  9  1  0  0  0  0
  9 10  2  0  0  0  0
M  END
>  <CHROM.1>
11.47983138,11.22107939,6.88925674,0.39492204,-1.30939038,0.91580255

>  <Name>
ligand

>  <RI>
0

>  <Rbt.Current_Directory>
/home/itssahil/PROJECTS/Mol_Feturizer/Test_systems_manuscript/rnas/4fe5

>  <Rbt.Executable>
rbdock ($Id: //depot/dev/client3/rdock/2013.1/src/exe/rbdock.cxx#4 $)

>  <Rbt.Library>
libRbt.so (2013.1, Build901 2013/11/27)

>  <Rbt.Parameter_File>
/export/apps/rDock/src/rDock_2013.1_src/data/scripts/dock_solv.prm

>  <Rbt.Receptor>
prm/pocket_docking_6.prm

>  <SCORE>
-17.447

>  <SCORE.INTER>
-17.447

>  <SCORE.INTER.CONST>
1

>  <SCORE.INTER.POLAR>
0

>  <SCORE.INTER.ROT>
0

>  <SCORE.INTER.SOLV>
3.71024

>  <SCORE.INTER.VDW>
-16.4681

>  <SCORE.INTER.norm>
-1.7447

>  <SCORE.INTRA>
0

>  <SCORE.INTRA.DIHEDRAL>
0

>  <SCORE.INTRA.DIHEDRAL.0>
0

>  <SCORE.INTRA.POLAR>
0

>  <SCORE.INTRA.POLAR.0>
0

>  <SCORE.INTRA.REPUL>
0

>  <SCORE.INTRA.REPUL.0>
0

>  <SCORE.INTRA.SOLV>
0

>  <SCORE.INTRA.SOLV.lig_0>
-4.28333

>  <SCORE.INTRA.VDW>
0

>  <SCORE.INTRA.VDW.0>
0

>  <SCORE.INTRA.norm>
0

>  <SCORE.RESTR>
0

>  <SCORE.RESTR.CAVITY>
0

>  <SCORE.RESTR.norm>
0

>  <SCORE.SYSTEM>
0

>  <SCORE.SYSTEM.CONST>
0

>  <SCORE.SYSTEM.DIHEDRAL>
0

>  <SCORE.SYSTEM.SOLV>
0

>  <SCORE.SYSTEM.norm>
0

>  <SCORE.heavy>
10

>  <SCORE.norm>
-1.7447

>  <RMSD>
0.438

$$$$
ligand
 OpenBabel02271912143D
libRbt.so/2013.1/901 2013/11/27
 10 11  0  0  0  0  0  0  0  0999 V2000
   11.8665   10.8693    8.7677 N   0  0  0  0  0  0  0  0  0  0  0  0
   11.5990   12.2145    8.8660 C   0  0  0  0  0  0  0  0  0  0  0  0
   11.2758   12.9521    7.8022 N   0  0  0  0  0  0  0  0  0  0  0  0
   11.2426   12.2413    6.6392 C   0  0  0  0  0  0  0  0  0  0  0  0
   11.5013   10.8950    6.4733 C   0  0  0  0  0  0  0  0  0  0  0  0
   11.8448   10.1023    7.6025 C   0  0  0  0  0  0  0  0  0  0  0  0
   12.1099    8.8968    7.6837 O   0  0  0  0  0  0  0  0  0  0  0  0
   11.3584   10.5867    5.1496 N   0  0  0  0  0  0  0  0  0  0  0  0
   11.0139   11.7329    4.5181 C   0  0  0  0  0  0  0  0  0  0  0  0
   10.9347   12.7774    5.4138 N   0  0  0  0  0  0  0  0  0  0  0  0
  1  2  1  0  0  0  0
  1  6  1  0  0  0  0
  2  3  2  0  0  0  0
  3  4  1  0  0  0  0
  4  5  2  0  0  0  0
  4 10  1  0  0  0  0
  5  6  1  0  0  0  0
  5  8  1  0  0  0  0
  6  7  2  0  0  0  0
  8  9  1  0  0  0  0
  9 10  2  0  0  0  0
M  END
>  <CHROM.1>
11.48686573,11.28181411,6.90898522,0.40474338,-1.31355778,0.92886001

>  <Name>
ligand

>  <RI>
0

>  <Rbt.Current_Directory>
/home/itssahil/PROJECTS/Mol_Feturizer/Test_systems_manuscript/rnas/4fe5

>  <Rbt.Executable>
rbdock ($Id: //depot/dev/client3/rdock/2013.1/src/exe/rbdock.cxx#4 $)

>  <Rbt.Library>
libRbt.so (2013.1, Build901 2013/11/27)

>  <Rbt.Parameter_File>
/export/apps/rDock/src/rDock_2013.1_src/data/scripts/dock_solv.prm

>  <Rbt.Receptor>
prm/blind_docking_80.prm

>  <SCORE>
-17.441

>  <SCORE.INTER>
-17.441

>  <SCORE.INTER.CONST>
1

>  <SCORE.INTER.POLAR>
0

>  <SCORE.INTER.ROT>
0

>  <SCORE.INTER.SOLV>
3.71247

>  <SCORE.INTER.VDW>
-16.4648

>  <SCORE.INTER.norm>
-1.7441

>  <SCORE.INTRA>
0

>  <SCORE.INTRA.DIHEDRAL>
0

>  <SCORE.INTRA.DIHEDRAL.0>
0

>  <SCORE.INTRA.POLAR>
0

>  <SCORE.INTRA.POLAR.0>
0

>  <SCORE.INTRA.REPUL>
0

>  <SCORE.INTRA.REPUL.0>
0

>  <SCORE.INTRA.SOLV>
0

>  <SCORE.INTRA.SOLV.lig_0>
-4.28333

>  <SCORE.INTRA.VDW>
0

>  <SCORE.INTRA.VDW.0>
0

>  <SCORE.INTRA.norm>
0

>  <SCORE.RESTR>
0

>  <SCORE.RESTR.CAVITY>
0

>  <SCORE.RESTR.norm>
0

>  <SCORE.SYSTEM>
0

>  <SCORE.SYSTEM.CONST>
0

>  <SCORE.SYSTEM.DIHEDRAL>
0

>  <SCORE.SYSTEM.SOLV>
0

>  <SCORE.SYSTEM.norm>
0

>  <SCORE.heavy>
10

>  <SCORE.norm>
-1.7441

>  <RMSD>
0.439

$$$$
ligand
 OpenBabel02271912143D
libRbt.so/2013.1/901 2013/11/27
 10 11  0  0  0  0  0  0  0  0999 V2000
   11.8528   10.8148    8.7529 N   0  0  0  0  0  0  0  0  0  0  0  0
   11.5821   12.1598    8.8459 C   0  0  0  0  0  0  0  0  0  0  0  0
   11.2614   12.8932    7.7784 N   0  0  0  0  0  0  0  0  0  0  0  0
   11.2339   12.1786    6.6176 C   0  0  0  0  0  0  0  0  0  0  0  0
   11.4961   10.8322    6.4572 C   0  0  0  0  0  0  0  0  0  0  0  0
   11.8372   10.0439    7.5902 C   0  0  0  0  0  0  0  0  0  0  0  0
   12.1045    8.8393    7.6764 O   0  0  0  0  0  0  0  0  0  0  0  0
   11.3589   10.5193    5.1340 N   0  0  0  0  0  0  0  0  0  0  0  0
   11.0143   11.6627    4.4974 C   0  0  0  0  0  0  0  0  0  0  0  0
   10.9296   12.7099    5.3894 N   0  0  0  0  0  0  0  0  0  0  0  0
  1  2  1  0  0  0  0
  1  6  1  0  0  0  0
  2  3  2  0  0  0  0
  3  4  1  0  0  0  0
  4  5  2  0  0  0  0
  4 10  1  0  0  0  0
  5  6  1  0  0  0  0
  5  8  1  0  0  0  0
  6  7  2  0  0  0  0
  8  9  1  0  0  0  0
  9 10  2  0  0  0  0
M  END
>  <CHROM.1>
11.47928530,11.22045711,6.89149181,0.42150447,-1.31406375,0.94178576

>  <Name>
ligand

>  <RI>
0

>  <Rbt.Current_Directory>
/home/itssahil/PROJECTS/Mol_Feturizer/Test_systems_manuscript/rnas/4fe5

>  <Rbt.Executable>
rbdock ($Id: //depot/dev/client3/rdock/2013.1/src/exe/rbdock.cxx#4 $)

>  <Rbt.Library>
libRbt.so (2013.1, Build901 2013/11/27)

>  <Rbt.Parameter_File>
/export/apps/rDock/src/rDock_2013.1_src/data/scripts/dock_solv.prm

>  <Rbt.Receptor>
prm/pocket_docking_4.prm

>  <SCORE>
-17.4432

>  <SCORE.INTER>
-17.4432

>  <SCORE.INTER.CONST>
1

>  <SCORE.INTER.POLAR>
0

>  <SCORE.INTER.ROT>
0

>  <SCORE.INTER.SOLV>
3.72669

>  <SCORE.INTER.VDW>
-16.471

>  <SCORE.INTER.norm>
-1.74432

>  <SCORE.INTRA>
0

>  <SCORE.INTRA.DIHEDRAL>
0

>  <SCORE.INTRA.DIHEDRAL.0>
0

>  <SCORE.INTRA.POLAR>
0

>  <SCORE.INTRA.POLAR.0>
0

>  <SCORE.INTRA.REPUL>
0

>  <SCORE.INTRA.REPUL.0>
0

>  <SCORE.INTRA.SOLV>
0

>  <SCORE.INTRA.SOLV.lig_0>
-4.28333

>  <SCORE.INTRA.VDW>
0

>  <SCORE.INTRA.VDW.0>
0

>  <SCORE.INTRA.norm>
0

>  <SCORE.RESTR>
0

>  <SCORE.RESTR.CAVITY>
0

>  <SCORE.RESTR.norm>
0

>  <SCORE.SYSTEM>
0

>  <SCORE.SYSTEM.CONST>
0

>  <SCORE.SYSTEM.DIHEDRAL>
0

>  <SCORE.SYSTEM.SOLV>
0

>  <SCORE.SYSTEM.norm>
0

>  <SCORE.heavy>
10

>  <SCORE.norm>
-1.74432

>  <RMSD>
0.439

$$$$
ligand
 OpenBabel02271912143D
libRbt.so/2013.1/901 2013/11/27
 10 11  0  0  0  0  0  0  0  0999 V2000
   11.8528   10.8214    8.7534 N   0  0  0  0  0  0  0  0  0  0  0  0
   11.5783   12.1659    8.8434 C   0  0  0  0  0  0  0  0  0  0  0  0
   11.2557   12.8961    7.7744 N   0  0  0  0  0  0  0  0  0  0  0  0
   11.2304   12.1789    6.6151 C   0  0  0  0  0  0  0  0  0  0  0  0
   11.4964   10.8329    6.4576 C   0  0  0  0  0  0  0  0  0  0  0  0
   11.8395   10.0480    7.5923 C   0  0  0  0  0  0  0  0  0  0  0  0
   12.1101    8.8443    7.6811 O   0  0  0  0  0  0  0  0  0  0  0  0
   11.3602   10.5168    5.1350 N   0  0  0  0  0  0  0  0  0  0  0  0
   11.0125   11.6579    4.4960 C   0  0  0  0  0  0  0  0  0  0  0  0
   10.9247   12.7068    5.3857 N   0  0  0  0  0  0  0  0  0  0  0  0
  1  2  1  0  0  0  0
  1  6  1  0  0  0  0
  2  3  2  0  0  0  0
  3  4  1  0  0  0  0
  4  5  2  0  0  0  0
  4 10  1  0  0  0  0
  5  6  1  0  0  0  0
  5  8  1  0  0  0  0
  6  7  2  0  0  0  0
  8  9  1  0  0  0  0
  9 10  2  0  0  0  0
M  END
>  <CHROM.1>
11.47839629,11.22203837,6.89107632,0.42833306,-1.31188468,0.94626332

>  <Name>
ligand

>  <RI>
0

>  <Rbt.Current_Directory>
/home/itssahil/PROJECTS/Mol_Feturizer/Test_systems_manuscript/rnas/4fe5

>  <Rbt.Executable>
rbdock ($Id: //depot/dev/client3/rdock/2013.1/src/exe/rbdock.cxx#4 $)

>  <Rbt.Library>
libRbt.so (2013.1, Build901 2013/11/27)

>  <Rbt.Parameter_File>
/export/apps/rDock/src/rDock_2013.1_src/data/scripts/dock_solv.prm

>  <Rbt.Receptor>
prm/pocket_docking_4.prm

>  <SCORE>
-17.4376

>  <SCORE.INTER>
-17.4376

>  <SCORE.INTER.CONST>
1

>  <SCORE.INTER.POLAR>
0

>  <SCORE.INTER.ROT>
0

>  <SCORE.INTER.SOLV>
3.72206

>  <SCORE.INTER.VDW>
-16.4657

>  <SCORE.INTER.norm>
-1.74376

>  <SCORE.INTRA>
0

>  <SCORE.INTRA.DIHEDRAL>
0

>  <SCORE.INTRA.DIHEDRAL.0>
0

>  <SCORE.INTRA.POLAR>
0

>  <SCORE.INTRA.POLAR.0>
0

>  <SCORE.INTRA.REPUL>
0

>  <SCORE.INTRA.REPUL.0>
0

>  <SCORE.INTRA.SOLV>
0

>  <SCORE.INTRA.SOLV.lig_0>
-4.28333

>  <SCORE.INTRA.VDW>
0

>  <SCORE.INTRA.VDW.0>
0

>  <SCORE.INTRA.norm>
0

>  <SCORE.RESTR>
0

>  <SCORE.RESTR.CAVITY>
0

>  <SCORE.RESTR.norm>
0

>  <SCORE.SYSTEM>
0

>  <SCORE.SYSTEM.CONST>
0

>  <SCORE.SYSTEM.DIHEDRAL>
0

>  <SCORE.SYSTEM.SOLV>
0

>  <SCORE.SYSTEM.norm>
0

>  <SCORE.heavy>
10

>  <SCORE.norm>
-1.74376

>  <RMSD>
0.439

$$$$
ligand
 OpenBabel02271912143D
libRbt.so/2013.1/901 2013/11/27
 10 11  0  0  0  0  0  0  0  0999 V2000
   11.8306   10.8547    8.7699 N   0  0  0  0  0  0  0  0  0  0  0  0
   11.5455   12.1971    8.8575 C   0  0  0  0  0  0  0  0  0  0  0  0
   11.2257   12.9247    7.7858 N   0  0  0  0  0  0  0  0  0  0  0  0
   11.2146   12.2070    6.6265 C   0  0  0  0  0  0  0  0  0  0  0  0
   11.4917   10.8631    6.4714 C   0  0  0  0  0  0  0  0  0  0  0  0
   11.8318   10.0810    7.6090 C   0  0  0  0  0  0  0  0  0  0  0  0
   12.1107    8.8793    7.7001 O   0  0  0  0  0  0  0  0  0  0  0  0
   11.3679   10.5457    5.1479 N   0  0  0  0  0  0  0  0  0  0  0  0
   11.0167   11.6840    4.5059 C   0  0  0  0  0  0  0  0  0  0  0  0
   10.9144   12.7324    5.3947 N   0  0  0  0  0  0  0  0  0  0  0  0
  1  2  1  0  0  0  0
  1  6  1  0  0  0  0
  2  3  2  0  0  0  0
  3  4  1  0  0  0  0
  4  5  2  0  0  0  0
  4 10  1  0  0  0  0
  5  6  1  0  0  0  0
  5  8  1  0  0  0  0
  6  7  2  0  0  0  0
  8  9  1  0  0  0  0
  9 10  2  0  0  0  0
M  END
>  <CHROM.1>
11.46746981,11.25213811,6.90464918,0.46920262,-1.31015868,0.98552317

>  <Name>
ligand

>  <RI>
0

>  <Rbt.Current_Directory>
/home/itssahil/PROJECTS/Mol_Feturizer/Test_systems_manuscript/rnas/4fe5

>  <Rbt.Executable>
rbdock ($Id: //depot/dev/client3/rdock/2013.1/src/exe/rbdock.cxx#4 $)

>  <Rbt.Library>
libRbt.so (2013.1, Build901 2013/11/27)

>  <Rbt.Parameter_File>
/export/apps/rDock/src/rDock_2013.1_src/data/scripts/dock_solv.prm

>  <Rbt.Receptor>
prm/pocket_docking_5.prm

>  <SCORE>
-17.4145

>  <SCORE.INTER>
-17.4145

>  <SCORE.INTER.CONST>
1

>  <SCORE.INTER.POLAR>
0

>  <SCORE.INTER.ROT>
0

>  <SCORE.INTER.SOLV>
3.72909

>  <SCORE.INTER.VDW>
-16.4527

>  <SCORE.INTER.norm>
-1.74145

>  <SCORE.INTRA>
0

>  <SCORE.INTRA.DIHEDRAL>
0

>  <SCORE.INTRA.DIHEDRAL.0>
0

>  <SCORE.INTRA.POLAR>
0

>  <SCORE.INTRA.POLAR.0>
0

>  <SCORE.INTRA.REPUL>
0

>  <SCORE.INTRA.REPUL.0>
0

>  <SCORE.INTRA.SOLV>
0

>  <SCORE.INTRA.SOLV.lig_0>
-4.28333

>  <SCORE.INTRA.VDW>
0

>  <SCORE.INTRA.VDW.0>
0

>  <SCORE.INTRA.norm>
0

>  <SCORE.RESTR>
0

>  <SCORE.RESTR.CAVITY>
0

>  <SCORE.RESTR.norm>
0

>  <SCORE.SYSTEM>
0

>  <SCORE.SYSTEM.CONST>
0

>  <SCORE.SYSTEM.DIHEDRAL>
0

>  <SCORE.SYSTEM.SOLV>
0

>  <SCORE.SYSTEM.norm>
0

>  <SCORE.heavy>
10

>  <SCORE.norm>
-1.74145

>  <RMSD>
0.439

$$$$
ligand
 OpenBabel02271912143D
libRbt.so/2013.1/901 2013/11/27
 10 11  0  0  0  0  0  0  0  0999 V2000
   11.8634   10.8640    8.7677 N   0  0  0  0  0  0  0  0  0  0  0  0
   11.5984   12.2095    8.8685 C   0  0  0  0  0  0  0  0  0  0  0  0
   11.2805   12.9505    7.8054 N   0  0  0  0  0  0  0  0  0  0  0  0
   11.2498   12.2427    6.6405 C   0  0  0  0  0  0  0  0  0  0  0  0
   11.5062   10.8962    6.4722 C   0  0  0  0  0  0  0  0  0  0  0  0
   11.8442   10.0999    7.6006 C   0  0  0  0  0  0  0  0  0  0  0  0
   12.1064    8.8937    7.6797 O   0  0  0  0  0  0  0  0  0  0  0  0
   11.3673   10.5916    5.1473 N   0  0  0  0  0  0  0  0  0  0  0  0
   11.0274   11.7401    4.5174 C   0  0  0  0  0  0  0  0  0  0  0  0
   10.9474   12.7824    5.4155 N   0  0  0  0  0  0  0  0  0  0  0  0
  1  2  1  0  0  0  0
  1  6  1  0  0  0  0
  2  3  2  0  0  0  0
  3  4  1  0  0  0  0
  4  5  2  0  0  0  0
  4 10  1  0  0  0  0
  5  6  1  0  0  0  0
  5  8  1  0  0  0  0
  6  7  2  0  0  0  0
  8  9  1  0  0  0  0
  9 10  2  0  0  0  0
M  END
>  <CHROM.1>
11.49113863,11.28196903,6.90879564,0.41075092,-1.31733241,0.93718643

>  <Name>
ligand

>  <RI>
0

>  <Rbt.Current_Directory>
/home/itssahil/PROJECTS/Mol_Feturizer/Test_systems_manuscript/rnas/4fe5

>  <Rbt.Executable>
rbdock ($Id: //depot/dev/client3/rdock/2013.1/src/exe/rbdock.cxx#4 $)

>  <Rbt.Library>
libRbt.so (2013.1, Build901 2013/11/27)

>  <Rbt.Parameter_File>
/export/apps/rDock/src/rDock_2013.1_src/data/scripts/dock_solv.prm

>  <Rbt.Receptor>
prm/pocket_docking_6.prm

>  <SCORE>
-17.4451

>  <SCORE.INTER>
-17.4451

>  <SCORE.INTER.CONST>
1

>  <SCORE.INTER.POLAR>
0

>  <SCORE.INTER.ROT>
0

>  <SCORE.INTER.SOLV>
3.7177

>  <SCORE.INTER.VDW>
-16.4693

>  <SCORE.INTER.norm>
-1.74451

>  <SCORE.INTRA>
0

>  <SCORE.INTRA.DIHEDRAL>
0

>  <SCORE.INTRA.DIHEDRAL.0>
0

>  <SCORE.INTRA.POLAR>
0

>  <SCORE.INTRA.POLAR.0>
0

>  <SCORE.INTRA.REPUL>
0

>  <SCORE.INTRA.REPUL.0>
0

>  <SCORE.INTRA.SOLV>
0

>  <SCORE.INTRA.SOLV.lig_0>
-4.28333

>  <SCORE.INTRA.VDW>
0

>  <SCORE.INTRA.VDW.0>
0

>  <SCORE.INTRA.norm>
0

>  <SCORE.RESTR>
0

>  <SCORE.RESTR.CAVITY>
0

>  <SCORE.RESTR.norm>
0

>  <SCORE.SYSTEM>
0

>  <SCORE.SYSTEM.CONST>
0

>  <SCORE.SYSTEM.DIHEDRAL>
0

>  <SCORE.SYSTEM.SOLV>
0

>  <SCORE.SYSTEM.norm>
0

>  <SCORE.heavy>
10

>  <SCORE.norm>
-1.74451

>  <RMSD>
0.439

$$$$
ligand
 OpenBabel02271912143D
libRbt.so/2013.1/901 2013/11/27
 10 11  0  0  0  0  0  0  0  0999 V2000
   11.8535   10.8428    8.7571 N   0  0  0  0  0  0  0  0  0  0  0  0
   11.5679   12.1855    8.8385 C   0  0  0  0  0  0  0  0  0  0  0  0
   11.2411   12.9065    7.7644 N   0  0  0  0  0  0  0  0  0  0  0  0
   11.2234   12.1820    6.6096 C   0  0  0  0  0  0  0  0  0  0  0  0
   11.5006   10.8374    6.4607 C   0  0  0  0  0  0  0  0  0  0  0  0
   11.8483   10.0622    7.6008 C   0  0  0  0  0  0  0  0  0  0  0  0
   12.1286    8.8614    7.6973 O   0  0  0  0  0  0  0  0  0  0  0  0
   11.3690   10.5121    5.1399 N   0  0  0  0  0  0  0  0  0  0  0  0
   11.0131   11.6463    4.4933 C   0  0  0  0  0  0  0  0  0  0  0  0
   10.9154   12.6999    5.3765 N   0  0  0  0  0  0  0  0  0  0  0  0
  1  2  1  0  0  0  0
  1  6  1  0  0  0  0
  2  3  2  0  0  0  0
  3  4  1  0  0  0  0
  4  5  2  0  0  0  0
  4 10  1  0  0  0  0
  5  6  1  0  0  0  0
  5  8  1  0  0  0  0
  6  7  2  0  0  0  0
  8  9  1  0  0  0  0
  9 10  2  0  0  0  0
M  END
>  <CHROM.1>
11.47875726,11.22897496,6.89177306,0.45140668,-1.30613026,0.96241403

>  <Name>
ligand

>  <RI>
0

>  <Rbt.Current_Directory>
/home/itssahil/PROJECTS/Mol_Feturizer/Test_systems_manuscript/rnas/4fe5

>  <Rbt.Executable>
rbdock ($Id: //depot/dev/client3/rdock/2013.1/src/exe/rbdock.cxx#4 $)

>  <Rbt.Library>
libRbt.so (2013.1, Build901 2013/11/27)

>  <Rbt.Parameter_File>
/export/apps/rDock/src/rDock_2013.1_src/data/scripts/dock_solv.prm

>  <Rbt.Receptor>
prm/pocket_docking_6.prm

>  <SCORE>
-17.4252

>  <SCORE.INTER>
-17.4252

>  <SCORE.INTER.CONST>
1

>  <SCORE.INTER.POLAR>
0

>  <SCORE.INTER.ROT>
0

>  <SCORE.INTER.SOLV>
3.7109

>  <SCORE.INTER.VDW>
-16.4538

>  <SCORE.INTER.norm>
-1.74252

>  <SCORE.INTRA>
0

>  <SCORE.INTRA.DIHEDRAL>
0

>  <SCORE.INTRA.DIHEDRAL.0>
0

>  <SCORE.INTRA.POLAR>
0

>  <SCORE.INTRA.POLAR.0>
0

>  <SCORE.INTRA.REPUL>
0

>  <SCORE.INTRA.REPUL.0>
0

>  <SCORE.INTRA.SOLV>
0

>  <SCORE.INTRA.SOLV.lig_0>
-4.28333

>  <SCORE.INTRA.VDW>
0

>  <SCORE.INTRA.VDW.0>
0

>  <SCORE.INTRA.norm>
0

>  <SCORE.RESTR>
0

>  <SCORE.RESTR.CAVITY>
0

>  <SCORE.RESTR.norm>
0

>  <SCORE.SYSTEM>
0

>  <SCORE.SYSTEM.CONST>
0

>  <SCORE.SYSTEM.DIHEDRAL>
0

>  <SCORE.SYSTEM.SOLV>
0

>  <SCORE.SYSTEM.norm>
0

>  <SCORE.heavy>
10

>  <SCORE.norm>
-1.74252

>  <RMSD>
0.439

$$$$
ligand
 OpenBabel02271912143D
libRbt.so/2013.1/901 2013/11/27
 10 11  0  0  0  0  0  0  0  0999 V2000
   11.8502   10.8176    8.7520 N   0  0  0  0  0  0  0  0  0  0  0  0
   11.5780   12.1623    8.8443 C   0  0  0  0  0  0  0  0  0  0  0  0
   11.2554   12.8947    7.7767 N   0  0  0  0  0  0  0  0  0  0  0  0
   11.2276   12.1792    6.6164 C   0  0  0  0  0  0  0  0  0  0  0  0
   11.4912   10.8331    6.4565 C   0  0  0  0  0  0  0  0  0  0  0  0
   11.8343   10.0459    7.5897 C   0  0  0  0  0  0  0  0  0  0  0  0
   12.1031    8.8417    7.6764 O   0  0  0  0  0  0  0  0  0  0  0  0
   11.3530   10.5192    5.1337 N   0  0  0  0  0  0  0  0  0  0  0  0
   11.0064   11.6618    4.4967 C   0  0  0  0  0  0  0  0  0  0  0  0
   10.9214   12.7095    5.3882 N   0  0  0  0  0  0  0  0  0  0  0  0
  1  2  1  0  0  0  0
  1  6  1  0  0  0  0
  2  3  2  0  0  0  0
  3  4  1  0  0  0  0
  4  5  2  0  0  0  0
  4 10  1  0  0  0  0
  5  6  1  0  0  0  0
  5  8  1  0  0  0  0
  6  7  2  0  0  0  0
  8  9  1  0  0  0  0
  9 10  2  0  0  0  0
M  END
>  <CHROM.1>
11.47435181,11.22160819,6.89066157,0.42102991,-1.31252053,0.94070816

>  <Name>
ligand

>  <RI>
0

>  <Rbt.Current_Directory>
/home/itssahil/PROJECTS/Mol_Feturizer/Test_systems_manuscript/rnas/4fe5

>  <Rbt.Executable>
rbdock ($Id: //depot/dev/client3/rdock/2013.1/src/exe/rbdock.cxx#4 $)

>  <Rbt.Library>
libRbt.so (2013.1, Build901 2013/11/27)

>  <Rbt.Parameter_File>
/export/apps/rDock/src/rDock_2013.1_src/data/scripts/dock_solv.prm

>  <Rbt.Receptor>
prm/blind_docking_100.prm

>  <SCORE>
-17.4399

>  <SCORE.INTER>
-17.4399

>  <SCORE.INTER.CONST>
1

>  <SCORE.INTER.POLAR>
0

>  <SCORE.INTER.ROT>
0

>  <SCORE.INTER.SOLV>
3.72502

>  <SCORE.INTER.VDW>
-16.4683

>  <SCORE.INTER.norm>
-1.74399

>  <SCORE.INTRA>
0

>  <SCORE.INTRA.DIHEDRAL>
0

>  <SCORE.INTRA.DIHEDRAL.0>
0

>  <SCORE.INTRA.POLAR>
0

>  <SCORE.INTRA.POLAR.0>
0

>  <SCORE.INTRA.REPUL>
0

>  <SCORE.INTRA.REPUL.0>
0

>  <SCORE.INTRA.SOLV>
0

>  <SCORE.INTRA.SOLV.lig_0>
-4.28333

>  <SCORE.INTRA.VDW>
0

>  <SCORE.INTRA.VDW.0>
0

>  <SCORE.INTRA.norm>
0

>  <SCORE.RESTR>
0

>  <SCORE.RESTR.CAVITY>
0

>  <SCORE.RESTR.norm>
0

>  <SCORE.SYSTEM>
0

>  <SCORE.SYSTEM.CONST>
0

>  <SCORE.SYSTEM.DIHEDRAL>
0

>  <SCORE.SYSTEM.SOLV>
0

>  <SCORE.SYSTEM.norm>
0

>  <SCORE.heavy>
10

>  <SCORE.norm>
-1.74399

>  <RMSD>
0.440

$$$$
ligand
 OpenBabel02271912143D
libRbt.so/2013.1/901 2013/11/27
 10 11  0  0  0  0  0  0  0  0999 V2000
   11.7548   10.7670    8.7569 N   0  0  0  0  0  0  0  0  0  0  0  0
   11.4047   12.0903    8.8887 C   0  0  0  0  0  0  0  0  0  0  0  0
   11.0919   12.8484    7.8362 N   0  0  0  0  0  0  0  0  0  0  0  0
   11.1575   12.1816    6.6487 C   0  0  0  0  0  0  0  0  0  0  0  0
   11.5021   10.8593    6.4492 C   0  0  0  0  0  0  0  0  0  0  0  0
   11.8353   10.0449    7.5659 C   0  0  0  0  0  0  0  0  0  0  0  0
   12.1659    8.8541    7.6182 O   0  0  0  0  0  0  0  0  0  0  0  0
   11.4429   10.5941    5.1099 N   0  0  0  0  0  0  0  0  0  0  0  0
   11.0636   11.7422    4.5022 C   0  0  0  0  0  0  0  0  0  0  0  0
   10.8796   12.7457    5.4288 N   0  0  0  0  0  0  0  0  0  0  0  0
  1  2  1  0  0  0  0
  1  6  1  0  0  0  0
  2  3  2  0  0  0  0
  3  4  1  0  0  0  0
  4  5  2  0  0  0  0
  4 10  1  0  0  0  0
  5  6  1  0  0  0  0
  5  8  1  0  0  0  0
  6  7  2  0  0  0  0
  8  9  1  0  0  0  0
  9 10  2  0  0  0  0
M  END
>  <CHROM.1>
11.44375264,11.22789909,6.89686392,0.67320633,-1.28661033,1.22434472

>  <Name>
ligand

>  <RI>
0

>  <Rbt.Current_Directory>
/home/itssahil/PROJECTS/Mol_Feturizer/Test_systems_manuscript/rnas/4fe5

>  <Rbt.Executable>
rbdock ($Id: //depot/dev/client3/rdock/2013.1/src/exe/rbdock.cxx#4 $)

>  <Rbt.Library>
libRbt.so (2013.1, Build901 2013/11/27)

>  <Rbt.Parameter_File>
/export/apps/rDock/src/rDock_2013.1_src/data/scripts/dock_solv.prm

>  <Rbt.Receptor>
prm/blind_docking_20.prm

>  <SCORE>
-17.2497

>  <SCORE.INTER>
-17.2497

>  <SCORE.INTER.CONST>
1

>  <SCORE.INTER.POLAR>
0

>  <SCORE.INTER.ROT>
0

>  <SCORE.INTER.SOLV>
3.66544

>  <SCORE.INTER.VDW>
-16.3216

>  <SCORE.INTER.norm>
-1.72497

>  <SCORE.INTRA>
0

>  <SCORE.INTRA.DIHEDRAL>
0

>  <SCORE.INTRA.DIHEDRAL.0>
0

>  <SCORE.INTRA.POLAR>
0

>  <SCORE.INTRA.POLAR.0>
0

>  <SCORE.INTRA.REPUL>
0

>  <SCORE.INTRA.REPUL.0>
0

>  <SCORE.INTRA.SOLV>
0

>  <SCORE.INTRA.SOLV.lig_0>
-4.28333

>  <SCORE.INTRA.VDW>
0

>  <SCORE.INTRA.VDW.0>
0

>  <SCORE.INTRA.norm>
0

>  <SCORE.RESTR>
0

>  <SCORE.RESTR.CAVITY>
0

>  <SCORE.RESTR.norm>
0

>  <SCORE.SYSTEM>
0

>  <SCORE.SYSTEM.CONST>
0

>  <SCORE.SYSTEM.DIHEDRAL>
0

>  <SCORE.SYSTEM.SOLV>
0

>  <SCORE.SYSTEM.norm>
0

>  <SCORE.heavy>
10

>  <SCORE.norm>
-1.72497

>  <RMSD>
0.440

$$$$
ligand
 OpenBabel02271912143D
libRbt.so/2013.1/901 2013/11/27
 10 11  0  0  0  0  0  0  0  0999 V2000
   11.8490   10.8740    8.7780 N   0  0  0  0  0  0  0  0  0  0  0  0
   11.5832   12.2200    8.8710 C   0  0  0  0  0  0  0  0  0  0  0  0
   11.2762   12.9569    7.8018 N   0  0  0  0  0  0  0  0  0  0  0  0
   11.2572   12.2446    6.6394 C   0  0  0  0  0  0  0  0  0  0  0  0
   11.5151   10.8974    6.4789 C   0  0  0  0  0  0  0  0  0  0  0  0
   11.8415   10.1055    7.6137 C   0  0  0  0  0  0  0  0  0  0  0  0
   12.1027    8.8995    7.7001 O   0  0  0  0  0  0  0  0  0  0  0  0
   11.3896   10.5877    5.1538 N   0  0  0  0  0  0  0  0  0  0  0  0
   11.0563   11.7338    4.5161 C   0  0  0  0  0  0  0  0  0  0  0  0
   10.9673   12.7797    5.4093 N   0  0  0  0  0  0  0  0  0  0  0  0
  1  2  1  0  0  0  0
  1  6  1  0  0  0  0
  2  3  2  0  0  0  0
  3  4  1  0  0  0  0
  4  5  2  0  0  0  0
  4 10  1  0  0  0  0
  5  6  1  0  0  0  0
  5  8  1  0  0  0  0
  6  7  2  0  0  0  0
  8  9  1  0  0  0  0
  9 10  2  0  0  0  0
M  END
>  <CHROM.1>
11.49563926,11.28488942,6.91381939,0.44372010,-1.32334477,0.96527355

>  <Name>
ligand

>  <RI>
0

>  <Rbt.Current_Directory>
/home/itssahil/PROJECTS/Mol_Feturizer/Test_systems_manuscript/rnas/4fe5

>  <Rbt.Executable>
rbdock ($Id: //depot/dev/client3/rdock/2013.1/src/exe/rbdock.cxx#4 $)

>  <Rbt.Library>
libRbt.so (2013.1, Build901 2013/11/27)

>  <Rbt.Parameter_File>
/export/apps/rDock/src/rDock_2013.1_src/data/scripts/dock_solv.prm

>  <Rbt.Receptor>
prm/blind_docking_40.prm

>  <SCORE>
-17.4662

>  <SCORE.INTER>
-17.4663

>  <SCORE.INTER.CONST>
1

>  <SCORE.INTER.POLAR>
0

>  <SCORE.INTER.ROT>
0

>  <SCORE.INTER.SOLV>
3.74018

>  <SCORE.INTER.VDW>
-16.4909

>  <SCORE.INTER.norm>
-1.74663

>  <SCORE.INTRA>
0

>  <SCORE.INTRA.DIHEDRAL>
0

>  <SCORE.INTRA.DIHEDRAL.0>
0

>  <SCORE.INTRA.POLAR>
0

>  <SCORE.INTRA.POLAR.0>
0

>  <SCORE.INTRA.REPUL>
0

>  <SCORE.INTRA.REPUL.0>
0

>  <SCORE.INTRA.SOLV>
0

>  <SCORE.INTRA.SOLV.lig_0>
-4.28333

>  <SCORE.INTRA.VDW>
0

>  <SCORE.INTRA.VDW.0>
0

>  <SCORE.INTRA.norm>
0

>  <SCORE.RESTR>
3.87096e-05

>  <SCORE.RESTR.CAVITY>
3.87096e-05

>  <SCORE.RESTR.norm>
3.87096e-06

>  <SCORE.SYSTEM>
0

>  <SCORE.SYSTEM.CONST>
0

>  <SCORE.SYSTEM.DIHEDRAL>
0

>  <SCORE.SYSTEM.SOLV>
0

>  <SCORE.SYSTEM.norm>
0

>  <SCORE.heavy>
10

>  <SCORE.norm>
-1.74662

>  <RMSD>
0.440

$$$$
ligand
 OpenBabel02271912143D
libRbt.so/2013.1/901 2013/11/27
 10 11  0  0  0  0  0  0  0  0999 V2000
   11.8552   10.8189    8.7523 N   0  0  0  0  0  0  0  0  0  0  0  0
   11.5869   12.1646    8.8427 C   0  0  0  0  0  0  0  0  0  0  0  0
   11.2644   12.8959    7.7743 N   0  0  0  0  0  0  0  0  0  0  0  0
   11.2325   12.1784    6.6154 C   0  0  0  0  0  0  0  0  0  0  0  0
   11.4921   10.8312    6.4575 C   0  0  0  0  0  0  0  0  0  0  0  0
   11.8350   10.0452    7.5915 C   0  0  0  0  0  0  0  0  0  0  0  0
   12.1006    8.8403    7.6799 O   0  0  0  0  0  0  0  0  0  0  0  0
   11.3505   10.5153    5.1355 N   0  0  0  0  0  0  0  0  0  0  0  0
   11.0060   11.6577    4.4970 C   0  0  0  0  0  0  0  0  0  0  0  0
   10.9255   12.7072    5.3867 N   0  0  0  0  0  0  0  0  0  0  0  0
  1  2  1  0  0  0  0
  1  6  1  0  0  0  0
  2  3  2  0  0  0  0
  3  4  1  0  0  0  0
  4  5  2  0  0  0  0
  4 10  1  0  0  0  0
  5  6  1  0  0  0  0
  5  8  1  0  0  0  0
  6  7  2  0  0  0  0
  8  9  1  0  0  0  0
  9 10  2  0  0  0  0
M  END
>  <CHROM.1>
11.47706621,11.22055653,6.89093160,0.40874774,-1.31368934,0.92699272

>  <Name>
ligand

>  <RI>
0

>  <Rbt.Current_Directory>
/home/itssahil/PROJECTS/Mol_Feturizer/Test_systems_manuscript/rnas/4fe5

>  <Rbt.Executable>
rbdock ($Id: //depot/dev/client3/rdock/2013.1/src/exe/rbdock.cxx#4 $)

>  <Rbt.Library>
libRbt.so (2013.1, Build901 2013/11/27)

>  <Rbt.Parameter_File>
/export/apps/rDock/src/rDock_2013.1_src/data/scripts/dock_solv.prm

>  <Rbt.Receptor>
prm/pocket_docking_3.prm

>  <SCORE>
-17.4447

>  <SCORE.INTER>
-17.4447

>  <SCORE.INTER.CONST>
1

>  <SCORE.INTER.POLAR>
0

>  <SCORE.INTER.ROT>
0

>  <SCORE.INTER.SOLV>
3.72849

>  <SCORE.INTER.VDW>
-16.4726

>  <SCORE.INTER.norm>
-1.74447

>  <SCORE.INTRA>
0

>  <SCORE.INTRA.DIHEDRAL>
0

>  <SCORE.INTRA.DIHEDRAL.0>
0

>  <SCORE.INTRA.POLAR>
0

>  <SCORE.INTRA.POLAR.0>
0

>  <SCORE.INTRA.REPUL>
0

>  <SCORE.INTRA.REPUL.0>
0

>  <SCORE.INTRA.SOLV>
0

>  <SCORE.INTRA.SOLV.lig_0>
-4.28333

>  <SCORE.INTRA.VDW>
0

>  <SCORE.INTRA.VDW.0>
0

>  <SCORE.INTRA.norm>
0

>  <SCORE.RESTR>
0

>  <SCORE.RESTR.CAVITY>
0

>  <SCORE.RESTR.norm>
0

>  <SCORE.SYSTEM>
0

>  <SCORE.SYSTEM.CONST>
0

>  <SCORE.SYSTEM.DIHEDRAL>
0

>  <SCORE.SYSTEM.SOLV>
0

>  <SCORE.SYSTEM.norm>
0

>  <SCORE.heavy>
10

>  <SCORE.norm>
-1.74447

>  <RMSD>
0.440

$$$$
ligand
 OpenBabel02271912143D
libRbt.so/2013.1/901 2013/11/27
 10 11  0  0  0  0  0  0  0  0999 V2000
   11.8497   10.8118    8.7529 N   0  0  0  0  0  0  0  0  0  0  0  0
   11.5814   12.1575    8.8436 C   0  0  0  0  0  0  0  0  0  0  0  0
   11.2645   12.8902    7.7745 N   0  0  0  0  0  0  0  0  0  0  0  0
   11.2384   12.1742    6.6145 C   0  0  0  0  0  0  0  0  0  0  0  0
   11.4985   10.8271    6.4563 C   0  0  0  0  0  0  0  0  0  0  0  0
   11.8353   10.0396    7.5910 C   0  0  0  0  0  0  0  0  0  0  0  0
   12.1001    8.8345    7.6793 O   0  0  0  0  0  0  0  0  0  0  0  0
   11.3637   10.5129    5.1331 N   0  0  0  0  0  0  0  0  0  0  0  0
   11.0227   11.6562    4.4944 C   0  0  0  0  0  0  0  0  0  0  0  0
   10.9379   12.7046    5.3849 N   0  0  0  0  0  0  0  0  0  0  0  0
  1  2  1  0  0  0  0
  1  6  1  0  0  0  0
  2  3  2  0  0  0  0
  3  4  1  0  0  0  0
  4  5  2  0  0  0  0
  4 10  1  0  0  0  0
  5  6  1  0  0  0  0
  5  8  1  0  0  0  0
  6  7  2  0  0  0  0
  8  9  1  0  0  0  0
  9 10  2  0  0  0  0
M  END
>  <CHROM.1>
11.48131982,11.21594190,6.89008864,0.42458216,-1.31697548,0.94357267

>  <Name>
ligand

>  <RI>
0

>  <Rbt.Current_Directory>
/home/itssahil/PROJECTS/Mol_Feturizer/Test_systems_manuscript/rnas/4fe5

>  <Rbt.Executable>
rbdock ($Id: //depot/dev/client3/rdock/2013.1/src/exe/rbdock.cxx#4 $)

>  <Rbt.Library>
libRbt.so (2013.1, Build901 2013/11/27)

>  <Rbt.Parameter_File>
/export/apps/rDock/src/rDock_2013.1_src/data/scripts/dock_solv.prm

>  <Rbt.Receptor>
prm/pocket_docking_8.prm

>  <SCORE>
-17.4135

>  <SCORE.INTER>
-17.4135

>  <SCORE.INTER.CONST>
1

>  <SCORE.INTER.POLAR>
0

>  <SCORE.INTER.ROT>
0

>  <SCORE.INTER.SOLV>
3.73557

>  <SCORE.INTER.VDW>
-16.4542

>  <SCORE.INTER.norm>
-1.74135

>  <SCORE.INTRA>
0

>  <SCORE.INTRA.DIHEDRAL>
0

>  <SCORE.INTRA.DIHEDRAL.0>
0

>  <SCORE.INTRA.POLAR>
0

>  <SCORE.INTRA.POLAR.0>
0

>  <SCORE.INTRA.REPUL>
0

>  <SCORE.INTRA.REPUL.0>
0

>  <SCORE.INTRA.SOLV>
0

>  <SCORE.INTRA.SOLV.lig_0>
-4.28333

>  <SCORE.INTRA.VDW>
0

>  <SCORE.INTRA.VDW.0>
0

>  <SCORE.INTRA.norm>
0

>  <SCORE.RESTR>
0

>  <SCORE.RESTR.CAVITY>
0

>  <SCORE.RESTR.norm>
0

>  <SCORE.SYSTEM>
0

>  <SCORE.SYSTEM.CONST>
0

>  <SCORE.SYSTEM.DIHEDRAL>
0

>  <SCORE.SYSTEM.SOLV>
0

>  <SCORE.SYSTEM.norm>
0

>  <SCORE.heavy>
10

>  <SCORE.norm>
-1.74135

>  <RMSD>
0.440

$$$$
ligand
 OpenBabel02271912143D
libRbt.so/2013.1/901 2013/11/27
 10 11  0  0  0  0  0  0  0  0999 V2000
   11.8728   10.8345    8.7479 N   0  0  0  0  0  0  0  0  0  0  0  0
   11.6005   12.1794    8.8381 C   0  0  0  0  0  0  0  0  0  0  0  0
   11.2606   12.9064    7.7721 N   0  0  0  0  0  0  0  0  0  0  0  0
   11.2157   12.1854    6.6158 C   0  0  0  0  0  0  0  0  0  0  0  0
   11.4784   10.8388    6.4582 C   0  0  0  0  0  0  0  0  0  0  0  0
   11.8398   10.0574    7.5897 C   0  0  0  0  0  0  0  0  0  0  0  0
   12.1113    8.8538    7.6779 O   0  0  0  0  0  0  0  0  0  0  0  0
   11.3201   10.5185    5.1392 N   0  0  0  0  0  0  0  0  0  0  0  0
   10.9624   11.6576    4.5022 C   0  0  0  0  0  0  0  0  0  0  0  0
   10.8900   12.7095    5.3899 N   0  0  0  0  0  0  0  0  0  0  0  0
  1  2  1  0  0  0  0
  1  6  1  0  0  0  0
  2  3  2  0  0  0  0
  3  4  1  0  0  0  0
  4  5  2  0  0  0  0
  4 10  1  0  0  0  0
  5  6  1  0  0  0  0
  5  8  1  0  0  0  0
  6  7  2  0  0  0  0
  8  9  1  0  0  0  0
  9 10  2  0  0  0  0
M  END
>  <CHROM.1>
11.46775835,11.22933530,6.89070757,0.37649346,-1.30226247,0.89295907

>  <Name>
ligand

>  <RI>
0

>  <Rbt.Current_Directory>
/home/itssahil/PROJECTS/Mol_Feturizer/Test_systems_manuscript/rnas/4fe5

>  <Rbt.Executable>
rbdock ($Id: //depot/dev/client3/rdock/2013.1/src/exe/rbdock.cxx#4 $)

>  <Rbt.Library>
libRbt.so (2013.1, Build901 2013/11/27)

>  <Rbt.Parameter_File>
/export/apps/rDock/src/rDock_2013.1_src/data/scripts/dock_solv.prm

>  <Rbt.Receptor>
prm/pocket_docking_8.prm

>  <SCORE>
-17.4591

>  <SCORE.INTER>
-17.4591

>  <SCORE.INTER.CONST>
1

>  <SCORE.INTER.POLAR>
0

>  <SCORE.INTER.ROT>
0

>  <SCORE.INTER.SOLV>
3.70057

>  <SCORE.INTER.VDW>
-16.4729

>  <SCORE.INTER.norm>
-1.74591

>  <SCORE.INTRA>
0

>  <SCORE.INTRA.DIHEDRAL>
0

>  <SCORE.INTRA.DIHEDRAL.0>
0

>  <SCORE.INTRA.POLAR>
0

>  <SCORE.INTRA.POLAR.0>
0

>  <SCORE.INTRA.REPUL>
0

>  <SCORE.INTRA.REPUL.0>
0

>  <SCORE.INTRA.SOLV>
0

>  <SCORE.INTRA.SOLV.lig_0>
-4.28333

>  <SCORE.INTRA.VDW>
0

>  <SCORE.INTRA.VDW.0>
0

>  <SCORE.INTRA.norm>
0

>  <SCORE.RESTR>
0

>  <SCORE.RESTR.CAVITY>
0

>  <SCORE.RESTR.norm>
0

>  <SCORE.SYSTEM>
0

>  <SCORE.SYSTEM.CONST>
0

>  <SCORE.SYSTEM.DIHEDRAL>
0

>  <SCORE.SYSTEM.SOLV>
0

>  <SCORE.SYSTEM.norm>
0

>  <SCORE.heavy>
10

>  <SCORE.norm>
-1.74591

>  <RMSD>
0.440

$$$$
ligand
 OpenBabel02271912143D
libRbt.so/2013.1/901 2013/11/27
 10 11  0  0  0  0  0  0  0  0999 V2000
   11.8571   10.8193    8.7517 N   0  0  0  0  0  0  0  0  0  0  0  0
   11.5871   12.1646    8.8423 C   0  0  0  0  0  0  0  0  0  0  0  0
   11.2640   12.8957    7.7740 N   0  0  0  0  0  0  0  0  0  0  0  0
   11.2334   12.1784    6.6149 C   0  0  0  0  0  0  0  0  0  0  0  0
   11.4947   10.8317    6.4568 C   0  0  0  0  0  0  0  0  0  0  0  0
   11.8383   10.0458    7.5907 C   0  0  0  0  0  0  0  0  0  0  0  0
   12.1054    8.8413    7.6789 O   0  0  0  0  0  0  0  0  0  0  0  0
   11.3539   10.5159    5.1347 N   0  0  0  0  0  0  0  0  0  0  0  0
   11.0081   11.6579    4.4964 C   0  0  0  0  0  0  0  0  0  0  0  0
   10.9260   12.7072    5.3863 N   0  0  0  0  0  0  0  0  0  0  0  0
  1  2  1  0  0  0  0
  1  6  1  0  0  0  0
  2  3  2  0  0  0  0
  3  4  1  0  0  0  0
  4  5  2  0  0  0  0
  4 10  1  0  0  0  0
  5  6  1  0  0  0  0
  5  8  1  0  0  0  0
  6  7  2  0  0  0  0
  8  9  1  0  0  0  0
  9 10  2  0  0  0  0
M  END
>  <CHROM.1>
11.47904760,11.22088054,6.89029995,0.41268582,-1.31284718,0.93101886

>  <Name>
ligand

>  <RI>
0

>  <Rbt.Current_Directory>
/home/itssahil/PROJECTS/Mol_Feturizer/Test_systems_manuscript/rnas/4fe5

>  <Rbt.Executable>
rbdock ($Id: //depot/dev/client3/rdock/2013.1/src/exe/rbdock.cxx#4 $)

>  <Rbt.Library>
libRbt.so (2013.1, Build901 2013/11/27)

>  <Rbt.Parameter_File>
/export/apps/rDock/src/rDock_2013.1_src/data/scripts/dock_solv.prm

>  <Rbt.Receptor>
prm/pocket_docking_8.prm

>  <SCORE>
-17.444

>  <SCORE.INTER>
-17.444

>  <SCORE.INTER.CONST>
1

>  <SCORE.INTER.POLAR>
0

>  <SCORE.INTER.ROT>
0

>  <SCORE.INTER.SOLV>
3.72398

>  <SCORE.INTER.VDW>
-16.4707

>  <SCORE.INTER.norm>
-1.7444

>  <SCORE.INTRA>
0

>  <SCORE.INTRA.DIHEDRAL>
0

>  <SCORE.INTRA.DIHEDRAL.0>
0

>  <SCORE.INTRA.POLAR>
0

>  <SCORE.INTRA.POLAR.0>
0

>  <SCORE.INTRA.REPUL>
0

>  <SCORE.INTRA.REPUL.0>
0

>  <SCORE.INTRA.SOLV>
0

>  <SCORE.INTRA.SOLV.lig_0>
-4.28333

>  <SCORE.INTRA.VDW>
0

>  <SCORE.INTRA.VDW.0>
0

>  <SCORE.INTRA.norm>
0

>  <SCORE.RESTR>
0

>  <SCORE.RESTR.CAVITY>
0

>  <SCORE.RESTR.norm>
0

>  <SCORE.SYSTEM>
0

>  <SCORE.SYSTEM.CONST>
0

>  <SCORE.SYSTEM.DIHEDRAL>
0

>  <SCORE.SYSTEM.SOLV>
0

>  <SCORE.SYSTEM.norm>
0

>  <SCORE.heavy>
10

>  <SCORE.norm>
-1.7444

>  <RMSD>
0.440

$$$$
ligand
 OpenBabel02271912143D
libRbt.so/2013.1/901 2013/11/27
 10 11  0  0  0  0  0  0  0  0999 V2000
   11.7696   10.7720    8.7522 N   0  0  0  0  0  0  0  0  0  0  0  0
   11.4330   12.0999    8.8725 C   0  0  0  0  0  0  0  0  0  0  0  0
   11.1129   12.8480    7.8152 N   0  0  0  0  0  0  0  0  0  0  0  0
   11.1568   12.1665    6.6351 C   0  0  0  0  0  0  0  0  0  0  0  0
   11.4872   10.8389    6.4471 C   0  0  0  0  0  0  0  0  0  0  0  0
   11.8281   10.0350    7.5691 C   0  0  0  0  0  0  0  0  0  0  0  0
   12.1489    8.8420    7.6315 O   0  0  0  0  0  0  0  0  0  0  0  0
   11.4078   10.5582    5.1120 N   0  0  0  0  0  0  0  0  0  0  0  0
   11.0305   11.7022    4.4954 C   0  0  0  0  0  0  0  0  0  0  0  0
   10.8677   12.7183    5.4122 N   0  0  0  0  0  0  0  0  0  0  0  0
  1  2  1  0  0  0  0
  1  6  1  0  0  0  0
  2  3  2  0  0  0  0
  3  4  1  0  0  0  0
  4  5  2  0  0  0  0
  4 10  1  0  0  0  0
  5  6  1  0  0  0  0
  5  8  1  0  0  0  0
  6  7  2  0  0  0  0
  8  9  1  0  0  0  0
  9 10  2  0  0  0  0
M  END
>  <CHROM.1>
11.43797792,11.21330067,6.89097519,0.61734491,-1.28991512,1.15864103

>  <Name>
ligand

>  <RI>
0

>  <Rbt.Current_Directory>
/home/itssahil/PROJECTS/Mol_Feturizer/Test_systems_manuscript/rnas/4fe5

>  <Rbt.Executable>
rbdock ($Id: //depot/dev/client3/rdock/2013.1/src/exe/rbdock.cxx#4 $)

>  <Rbt.Library>
libRbt.so (2013.1, Build901 2013/11/27)

>  <Rbt.Parameter_File>
/export/apps/rDock/src/rDock_2013.1_src/data/scripts/dock_solv.prm

>  <Rbt.Receptor>
prm/blind_docking_20.prm

>  <SCORE>
-17.2626

>  <SCORE.INTER>
-17.2628

>  <SCORE.INTER.CONST>
1

>  <SCORE.INTER.POLAR>
0

>  <SCORE.INTER.ROT>
0

>  <SCORE.INTER.SOLV>
3.67707

>  <SCORE.INTER.VDW>
-16.3342

>  <SCORE.INTER.norm>
-1.72628

>  <SCORE.INTRA>
0

>  <SCORE.INTRA.DIHEDRAL>
0

>  <SCORE.INTRA.DIHEDRAL.0>
0

>  <SCORE.INTRA.POLAR>
0

>  <SCORE.INTRA.POLAR.0>
0

>  <SCORE.INTRA.REPUL>
0

>  <SCORE.INTRA.REPUL.0>
0

>  <SCORE.INTRA.SOLV>
0

>  <SCORE.INTRA.SOLV.lig_0>
-4.28333

>  <SCORE.INTRA.VDW>
0

>  <SCORE.INTRA.VDW.0>
0

>  <SCORE.INTRA.norm>
0

>  <SCORE.RESTR>
0.000174752

>  <SCORE.RESTR.CAVITY>
0.000174752

>  <SCORE.RESTR.norm>
1.74752e-05

>  <SCORE.SYSTEM>
0

>  <SCORE.SYSTEM.CONST>
0

>  <SCORE.SYSTEM.DIHEDRAL>
0

>  <SCORE.SYSTEM.SOLV>
0

>  <SCORE.SYSTEM.norm>
0

>  <SCORE.heavy>
10

>  <SCORE.norm>
-1.72626

>  <RMSD>
0.441

$$$$
ligand
 OpenBabel02271912143D
libRbt.so/2013.1/901 2013/11/27
 10 11  0  0  0  0  0  0  0  0999 V2000
   11.8600   10.8670    8.7670 N   0  0  0  0  0  0  0  0  0  0  0  0
   11.5921   12.2122    8.8646 C   0  0  0  0  0  0  0  0  0  0  0  0
   11.2747   12.9504    7.7994 N   0  0  0  0  0  0  0  0  0  0  0  0
   11.2476   12.2402    6.6359 C   0  0  0  0  0  0  0  0  0  0  0  0
   11.5071   10.8939    6.4707 C   0  0  0  0  0  0  0  0  0  0  0  0
   11.8445   10.1005    7.6013 C   0  0  0  0  0  0  0  0  0  0  0  0
   12.1090    8.8950    7.6833 O   0  0  0  0  0  0  0  0  0  0  0  0
   11.3713   10.5863    5.1461 N   0  0  0  0  0  0  0  0  0  0  0  0
   11.0302   11.7328    4.5133 C   0  0  0  0  0  0  0  0  0  0  0  0
   10.9464   12.7769    5.4092 N   0  0  0  0  0  0  0  0  0  0  0  0
  1  2  1  0  0  0  0
  1  6  1  0  0  0  0
  2  3  2  0  0  0  0
  3  4  1  0  0  0  0
  4  5  2  0  0  0  0
  4 10  1  0  0  0  0
  5  6  1  0  0  0  0
  5  8  1  0  0  0  0
  6  7  2  0  0  0  0
  8  9  1  0  0  0  0
  9 10  2  0  0  0  0
M  END
>  <CHROM.1>
11.49037710,11.28049701,6.90649281,0.42156620,-1.31680946,0.94564832

>  <Name>
ligand

>  <RI>
0

>  <Rbt.Current_Directory>
/home/itssahil/PROJECTS/Mol_Feturizer/Test_systems_manuscript/rnas/4fe5

>  <Rbt.Executable>
rbdock ($Id: //depot/dev/client3/rdock/2013.1/src/exe/rbdock.cxx#4 $)

>  <Rbt.Library>
libRbt.so (2013.1, Build901 2013/11/27)

>  <Rbt.Parameter_File>
/export/apps/rDock/src/rDock_2013.1_src/data/scripts/dock_solv.prm

>  <Rbt.Receptor>
prm/pocket_docking_6.prm

>  <SCORE>
-17.4433

>  <SCORE.INTER>
-17.4433

>  <SCORE.INTER.CONST>
1

>  <SCORE.INTER.POLAR>
0

>  <SCORE.INTER.ROT>
0

>  <SCORE.INTER.SOLV>
3.71871

>  <SCORE.INTER.VDW>
-16.4684

>  <SCORE.INTER.norm>
-1.74433

>  <SCORE.INTRA>
0

>  <SCORE.INTRA.DIHEDRAL>
0

>  <SCORE.INTRA.DIHEDRAL.0>
0

>  <SCORE.INTRA.POLAR>
0

>  <SCORE.INTRA.POLAR.0>
0

>  <SCORE.INTRA.REPUL>
0

>  <SCORE.INTRA.REPUL.0>
0

>  <SCORE.INTRA.SOLV>
0

>  <SCORE.INTRA.SOLV.lig_0>
-4.28333

>  <SCORE.INTRA.VDW>
0

>  <SCORE.INTRA.VDW.0>
0

>  <SCORE.INTRA.norm>
0

>  <SCORE.RESTR>
0

>  <SCORE.RESTR.CAVITY>
0

>  <SCORE.RESTR.norm>
0

>  <SCORE.SYSTEM>
0

>  <SCORE.SYSTEM.CONST>
0

>  <SCORE.SYSTEM.DIHEDRAL>
0

>  <SCORE.SYSTEM.SOLV>
0

>  <SCORE.SYSTEM.norm>
0

>  <SCORE.heavy>
10

>  <SCORE.norm>
-1.74433

>  <RMSD>
0.441

$$$$
ligand
 OpenBabel02271912143D
libRbt.so/2013.1/901 2013/11/27
 10 11  0  0  0  0  0  0  0  0999 V2000
   11.8556   10.8418    8.7560 N   0  0  0  0  0  0  0  0  0  0  0  0
   11.5795   12.1865    8.8357 C   0  0  0  0  0  0  0  0  0  0  0  0
   11.2535   12.9076    7.7614 N   0  0  0  0  0  0  0  0  0  0  0  0
   11.2266   12.1809    6.6081 C   0  0  0  0  0  0  0  0  0  0  0  0
   11.4941   10.8341    6.4609 C   0  0  0  0  0  0  0  0  0  0  0  0
   11.8407   10.0589    7.6012 C   0  0  0  0  0  0  0  0  0  0  0  0
   12.1132    8.8563    7.6992 O   0  0  0  0  0  0  0  0  0  0  0  0
   11.3554   10.5071    5.1413 N   0  0  0  0  0  0  0  0  0  0  0  0
   11.0047   11.6424    4.4937 C   0  0  0  0  0  0  0  0  0  0  0  0
   10.9175   12.6984    5.3752 N   0  0  0  0  0  0  0  0  0  0  0  0
  1  2  1  0  0  0  0
  1  6  1  0  0  0  0
  2  3  2  0  0  0  0
  3  4  1  0  0  0  0
  4  5  2  0  0  0  0
  4 10  1  0  0  0  0
  5  6  1  0  0  0  0
  5  8  1  0  0  0  0
  6  7  2  0  0  0  0
  8  9  1  0  0  0  0
  9 10  2  0  0  0  0
M  END
>  <CHROM.1>
11.47652458,11.22672354,6.89128166,0.42442818,-1.30947998,0.93435365

>  <Name>
ligand

>  <RI>
0

>  <Rbt.Current_Directory>
/home/itssahil/PROJECTS/Mol_Feturizer/Test_systems_manuscript/rnas/4fe5

>  <Rbt.Executable>
rbdock ($Id: //depot/dev/client3/rdock/2013.1/src/exe/rbdock.cxx#4 $)

>  <Rbt.Library>
libRbt.so (2013.1, Build901 2013/11/27)

>  <Rbt.Parameter_File>
/export/apps/rDock/src/rDock_2013.1_src/data/scripts/dock_solv.prm

>  <Rbt.Receptor>
prm/blind_docking_100.prm

>  <SCORE>
-17.4375

>  <SCORE.INTER>
-17.4375

>  <SCORE.INTER.CONST>
1

>  <SCORE.INTER.POLAR>
0

>  <SCORE.INTER.ROT>
0

>  <SCORE.INTER.SOLV>
3.7238

>  <SCORE.INTER.VDW>
-16.4663

>  <SCORE.INTER.norm>
-1.74375

>  <SCORE.INTRA>
0

>  <SCORE.INTRA.DIHEDRAL>
0

>  <SCORE.INTRA.DIHEDRAL.0>
0

>  <SCORE.INTRA.POLAR>
0

>  <SCORE.INTRA.POLAR.0>
0

>  <SCORE.INTRA.REPUL>
0

>  <SCORE.INTRA.REPUL.0>
0

>  <SCORE.INTRA.SOLV>
0

>  <SCORE.INTRA.SOLV.lig_0>
-4.28333

>  <SCORE.INTRA.VDW>
0

>  <SCORE.INTRA.VDW.0>
0

>  <SCORE.INTRA.norm>
0

>  <SCORE.RESTR>
0

>  <SCORE.RESTR.CAVITY>
0

>  <SCORE.RESTR.norm>
0

>  <SCORE.SYSTEM>
0

>  <SCORE.SYSTEM.CONST>
0

>  <SCORE.SYSTEM.DIHEDRAL>
0

>  <SCORE.SYSTEM.SOLV>
0

>  <SCORE.SYSTEM.norm>
0

>  <SCORE.heavy>
10

>  <SCORE.norm>
-1.74375

>  <RMSD>
0.442

$$$$
ligand
 OpenBabel02271912143D
libRbt.so/2013.1/901 2013/11/27
 10 11  0  0  0  0  0  0  0  0999 V2000
   11.7712   10.7721    8.7508 N   0  0  0  0  0  0  0  0  0  0  0  0
   11.4305   12.0992    8.8686 C   0  0  0  0  0  0  0  0  0  0  0  0
   11.1135   12.8458    7.8093 N   0  0  0  0  0  0  0  0  0  0  0  0
   11.1648   12.1637    6.6299 C   0  0  0  0  0  0  0  0  0  0  0  0
   11.4995   10.8368    6.4443 C   0  0  0  0  0  0  0  0  0  0  0  0
   11.8371   10.0345    7.5684 C   0  0  0  0  0  0  0  0  0  0  0  0
   12.1608    8.8424    7.6331 O   0  0  0  0  0  0  0  0  0  0  0  0
   11.4272   10.5550    5.1090 N   0  0  0  0  0  0  0  0  0  0  0  0
   11.0498   11.6977    4.4899 C   0  0  0  0  0  0  0  0  0  0  0  0
   10.8800   12.7140    5.4053 N   0  0  0  0  0  0  0  0  0  0  0  0
  1  2  1  0  0  0  0
  1  6  1  0  0  0  0
  2  3  2  0  0  0  0
  3  4  1  0  0  0  0
  4  5  2  0  0  0  0
  4 10  1  0  0  0  0
  5  6  1  0  0  0  0
  5  8  1  0  0  0  0
  6  7  2  0  0  0  0
  8  9  1  0  0  0  0
  9 10  2  0  0  0  0
M  END
>  <CHROM.1>
11.44721778,11.21136408,6.88769271,0.63672050,-1.28937644,1.17661844

>  <Name>
ligand

>  <RI>
0

>  <Rbt.Current_Directory>
/home/itssahil/PROJECTS/Mol_Feturizer/Test_systems_manuscript/rnas/4fe5

>  <Rbt.Executable>
rbdock ($Id: //depot/dev/client3/rdock/2013.1/src/exe/rbdock.cxx#4 $)

>  <Rbt.Library>
libRbt.so (2013.1, Build901 2013/11/27)

>  <Rbt.Parameter_File>
/export/apps/rDock/src/rDock_2013.1_src/data/scripts/dock_solv.prm

>  <Rbt.Receptor>
prm/blind_docking_20.prm

>  <SCORE>
-17.246

>  <SCORE.INTER>
-17.2462

>  <SCORE.INTER.CONST>
1

>  <SCORE.INTER.POLAR>
0

>  <SCORE.INTER.ROT>
0

>  <SCORE.INTER.SOLV>
3.67242

>  <SCORE.INTER.VDW>
-16.3216

>  <SCORE.INTER.norm>
-1.72462

>  <SCORE.INTRA>
0

>  <SCORE.INTRA.DIHEDRAL>
0

>  <SCORE.INTRA.DIHEDRAL.0>
0

>  <SCORE.INTRA.POLAR>
0

>  <SCORE.INTRA.POLAR.0>
0

>  <SCORE.INTRA.REPUL>
0

>  <SCORE.INTRA.REPUL.0>
0

>  <SCORE.INTRA.SOLV>
0

>  <SCORE.INTRA.SOLV.lig_0>
-4.28333

>  <SCORE.INTRA.VDW>
0

>  <SCORE.INTRA.VDW.0>
0

>  <SCORE.INTRA.norm>
0

>  <SCORE.RESTR>
0.000122813

>  <SCORE.RESTR.CAVITY>
0.000122813

>  <SCORE.RESTR.norm>
1.22813e-05

>  <SCORE.SYSTEM>
0

>  <SCORE.SYSTEM.CONST>
0

>  <SCORE.SYSTEM.DIHEDRAL>
0

>  <SCORE.SYSTEM.SOLV>
0

>  <SCORE.SYSTEM.norm>
0

>  <SCORE.heavy>
10

>  <SCORE.norm>
-1.7246

>  <RMSD>
0.442

$$$$
ligand
 OpenBabel02271912143D
libRbt.so/2013.1/901 2013/11/27
 10 11  0  0  0  0  0  0  0  0999 V2000
   11.8097   10.9618    8.8280 N   0  0  0  0  0  0  0  0  0  0  0  0
   11.5186   12.3055    8.8559 C   0  0  0  0  0  0  0  0  0  0  0  0
   11.2067   12.9858    7.7513 N   0  0  0  0  0  0  0  0  0  0  0  0
   11.2100   12.2197    6.6234 C   0  0  0  0  0  0  0  0  0  0  0  0
   11.4939   10.8716    6.5280 C   0  0  0  0  0  0  0  0  0  0  0  0
   11.8256   10.1397    7.7009 C   0  0  0  0  0  0  0  0  0  0  0  0
   12.1082    8.9442    7.8456 O   0  0  0  0  0  0  0  0  0  0  0  0
   11.3846   10.4981    5.2180 N   0  0  0  0  0  0  0  0  0  0  0  0
   11.0354   11.6067    4.5249 C   0  0  0  0  0  0  0  0  0  0  0  0
   10.9202   12.6913    5.3676 N   0  0  0  0  0  0  0  0  0  0  0  0
  1  2  1  0  0  0  0
  1  6  1  0  0  0  0
  2  3  2  0  0  0  0
  3  4  1  0  0  0  0
  4  5  2  0  0  0  0
  4 10  1  0  0  0  0
  5  6  1  0  0  0  0
  5  8  1  0  0  0  0
  6  7  2  0  0  0  0
  8  9  1  0  0  0  0
  9 10  2  0  0  0  0
M  END
>  <CHROM.1>
11.46381631,11.27853375,6.94412966,0.51029678,-1.31226219,0.98295210

>  <Name>
ligand

>  <RI>
0

>  <Rbt.Current_Directory>
/home/itssahil/PROJECTS/Mol_Feturizer/Test_systems_manuscript/rnas/4fe5

>  <Rbt.Executable>
rbdock ($Id: //depot/dev/client3/rdock/2013.1/src/exe/rbdock.cxx#4 $)

>  <Rbt.Library>
libRbt.so (2013.1, Build901 2013/11/27)

>  <Rbt.Parameter_File>
/export/apps/rDock/src/rDock_2013.1_src/data/scripts/dock_solv.prm

>  <Rbt.Receptor>
prm/blind_docking_80.prm

>  <SCORE>
-17.4047

>  <SCORE.INTER>
-17.4047

>  <SCORE.INTER.CONST>
1

>  <SCORE.INTER.POLAR>
0

>  <SCORE.INTER.ROT>
0

>  <SCORE.INTER.SOLV>
3.79569

>  <SCORE.INTER.VDW>
-16.4684

>  <SCORE.INTER.norm>
-1.74047

>  <SCORE.INTRA>
0

>  <SCORE.INTRA.DIHEDRAL>
0

>  <SCORE.INTRA.DIHEDRAL.0>
0

>  <SCORE.INTRA.POLAR>
0

>  <SCORE.INTRA.POLAR.0>
0

>  <SCORE.INTRA.REPUL>
0

>  <SCORE.INTRA.REPUL.0>
0

>  <SCORE.INTRA.SOLV>
0

>  <SCORE.INTRA.SOLV.lig_0>
-4.28333

>  <SCORE.INTRA.VDW>
0

>  <SCORE.INTRA.VDW.0>
0

>  <SCORE.INTRA.norm>
0

>  <SCORE.RESTR>
0

>  <SCORE.RESTR.CAVITY>
0

>  <SCORE.RESTR.norm>
0

>  <SCORE.SYSTEM>
0

>  <SCORE.SYSTEM.CONST>
0

>  <SCORE.SYSTEM.DIHEDRAL>
0

>  <SCORE.SYSTEM.SOLV>
0

>  <SCORE.SYSTEM.norm>
0

>  <SCORE.heavy>
10

>  <SCORE.norm>
-1.74047

>  <RMSD>
0.442

$$$$
ligand
 OpenBabel02271912143D
libRbt.so/2013.1/901 2013/11/27
 10 11  0  0  0  0  0  0  0  0999 V2000
   11.8264   10.8558    8.7690 N   0  0  0  0  0  0  0  0  0  0  0  0
   11.5425   12.1988    8.8517 C   0  0  0  0  0  0  0  0  0  0  0  0
   11.2294   12.9242    7.7765 N   0  0  0  0  0  0  0  0  0  0  0  0
   11.2237   12.2037    6.6190 C   0  0  0  0  0  0  0  0  0  0  0  0
   11.4999   10.8590    6.4687 C   0  0  0  0  0  0  0  0  0  0  0  0
   11.8330   10.0793    7.6100 C   0  0  0  0  0  0  0  0  0  0  0  0
   12.1098    8.8775    7.7056 O   0  0  0  0  0  0  0  0  0  0  0  0
   11.3829   10.5385    5.1454 N   0  0  0  0  0  0  0  0  0  0  0  0
   11.0366   11.6757    4.4986 C   0  0  0  0  0  0  0  0  0  0  0  0
   10.9308   12.7264    5.3843 N   0  0  0  0  0  0  0  0  0  0  0  0
  1  2  1  0  0  0  0
  1  6  1  0  0  0  0
  2  3  2  0  0  0  0
  3  4  1  0  0  0  0
  4  5  2  0  0  0  0
  4 10  1  0  0  0  0
  5  6  1  0  0  0  0
  5  8  1  0  0  0  0
  6  7  2  0  0  0  0
  8  9  1  0  0  0  0
  9 10  2  0  0  0  0
M  END
>  <CHROM.1>
11.47389918,11.24914644,6.90084573,0.48422439,-1.31416924,0.99757658

>  <Name>
ligand

>  <RI>
0

>  <Rbt.Current_Directory>
/home/itssahil/PROJECTS/Mol_Feturizer/Test_systems_manuscript/rnas/4fe5

>  <Rbt.Executable>
rbdock ($Id: //depot/dev/client3/rdock/2013.1/src/exe/rbdock.cxx#4 $)

>  <Rbt.Library>
libRbt.so (2013.1, Build901 2013/11/27)

>  <Rbt.Parameter_File>
/export/apps/rDock/src/rDock_2013.1_src/data/scripts/dock_solv.prm

>  <Rbt.Receptor>
prm/pocket_docking_7.prm

>  <SCORE>
-17.415

>  <SCORE.INTER>
-17.415

>  <SCORE.INTER.CONST>
1

>  <SCORE.INTER.POLAR>
0

>  <SCORE.INTER.ROT>
0

>  <SCORE.INTER.SOLV>
3.73908

>  <SCORE.INTER.VDW>
-16.4564

>  <SCORE.INTER.norm>
-1.7415

>  <SCORE.INTRA>
0

>  <SCORE.INTRA.DIHEDRAL>
0

>  <SCORE.INTRA.DIHEDRAL.0>
0

>  <SCORE.INTRA.POLAR>
0

>  <SCORE.INTRA.POLAR.0>
0

>  <SCORE.INTRA.REPUL>
0

>  <SCORE.INTRA.REPUL.0>
0

>  <SCORE.INTRA.SOLV>
0

>  <SCORE.INTRA.SOLV.lig_0>
-4.28333

>  <SCORE.INTRA.VDW>
0

>  <SCORE.INTRA.VDW.0>
0

>  <SCORE.INTRA.norm>
0

>  <SCORE.RESTR>
0

>  <SCORE.RESTR.CAVITY>
0

>  <SCORE.RESTR.norm>
0

>  <SCORE.SYSTEM>
0

>  <SCORE.SYSTEM.CONST>
0

>  <SCORE.SYSTEM.DIHEDRAL>
0

>  <SCORE.SYSTEM.SOLV>
0

>  <SCORE.SYSTEM.norm>
0

>  <SCORE.heavy>
10

>  <SCORE.norm>
-1.7415

>  <RMSD>
0.442

$$$$
ligand
 OpenBabel02271912143D
libRbt.so/2013.1/901 2013/11/27
 10 11  0  0  0  0  0  0  0  0999 V2000
   11.8441   10.7477    8.7034 N   0  0  0  0  0  0  0  0  0  0  0  0
   11.4715   12.0616    8.8642 C   0  0  0  0  0  0  0  0  0  0  0  0
   11.1126   12.8275    7.8323 N   0  0  0  0  0  0  0  0  0  0  0  0
   11.1567   12.1786    6.6340 C   0  0  0  0  0  0  0  0  0  0  0  0
   11.5219   10.8666    6.4055 C   0  0  0  0  0  0  0  0  0  0  0  0
   11.9042   10.0439    7.5003 C   0  0  0  0  0  0  0  0  0  0  0  0
   12.2601    8.8595    7.5258 O   0  0  0  0  0  0  0  0  0  0  0  0
   11.4287   10.6186    5.0648 N   0  0  0  0  0  0  0  0  0  0  0  0
   11.0086   11.7669    4.4850 C   0  0  0  0  0  0  0  0  0  0  0  0
   10.8317   12.7535    5.4309 N   0  0  0  0  0  0  0  0  0  0  0  0
  1  2  1  0  0  0  0
  1  6  1  0  0  0  0
  2  3  2  0  0  0  0
  3  4  1  0  0  0  0
  4  5  2  0  0  0  0
  4 10  1  0  0  0  0
  5  6  1  0  0  0  0
  5  8  1  0  0  0  0
  6  7  2  0  0  0  0
  8  9  1  0  0  0  0
  9 10  2  0  0  0  0
M  END
>  <CHROM.1>
11.46930714,11.22763976,6.85995283,0.60574136,-1.25696906,1.17393199

>  <Name>
ligand

>  <RI>
0

>  <Rbt.Current_Directory>
/home/itssahil/PROJECTS/Mol_Feturizer/Test_systems_manuscript/rnas/4fe5

>  <Rbt.Executable>
rbdock ($Id: //depot/dev/client3/rdock/2013.1/src/exe/rbdock.cxx#4 $)

>  <Rbt.Library>
libRbt.so (2013.1, Build901 2013/11/27)

>  <Rbt.Parameter_File>
/export/apps/rDock/src/rDock_2013.1_src/data/scripts/dock_solv.prm

>  <Rbt.Receptor>
prm/blind_docking_20.prm

>  <SCORE>
-17.2285

>  <SCORE.INTER>
-17.2285

>  <SCORE.INTER.CONST>
1

>  <SCORE.INTER.POLAR>
0

>  <SCORE.INTER.ROT>
0

>  <SCORE.INTER.SOLV>
3.52801

>  <SCORE.INTER.VDW>
-16.2617

>  <SCORE.INTER.norm>
-1.72285

>  <SCORE.INTRA>
0

>  <SCORE.INTRA.DIHEDRAL>
0

>  <SCORE.INTRA.DIHEDRAL.0>
0

>  <SCORE.INTRA.POLAR>
0

>  <SCORE.INTRA.POLAR.0>
0

>  <SCORE.INTRA.REPUL>
0

>  <SCORE.INTRA.REPUL.0>
0

>  <SCORE.INTRA.SOLV>
0

>  <SCORE.INTRA.SOLV.lig_0>
-4.28333

>  <SCORE.INTRA.VDW>
0

>  <SCORE.INTRA.VDW.0>
0

>  <SCORE.INTRA.norm>
0

>  <SCORE.RESTR>
0

>  <SCORE.RESTR.CAVITY>
0

>  <SCORE.RESTR.norm>
0

>  <SCORE.SYSTEM>
0

>  <SCORE.SYSTEM.CONST>
0

>  <SCORE.SYSTEM.DIHEDRAL>
0

>  <SCORE.SYSTEM.SOLV>
0

>  <SCORE.SYSTEM.norm>
0

>  <SCORE.heavy>
10

>  <SCORE.norm>
-1.72285

>  <RMSD>
0.443

$$$$
ligand
 OpenBabel02271912143D
libRbt.so/2013.1/901 2013/11/27
 10 11  0  0  0  0  0  0  0  0999 V2000
   11.8892   10.8416    8.7386 N   0  0  0  0  0  0  0  0  0  0  0  0
   11.6077   12.1832    8.8482 C   0  0  0  0  0  0  0  0  0  0  0  0
   11.2793   12.9267    7.7901 N   0  0  0  0  0  0  0  0  0  0  0  0
   11.2560   12.2259    6.6208 C   0  0  0  0  0  0  0  0  0  0  0  0
   11.5289   10.8838    6.4437 C   0  0  0  0  0  0  0  0  0  0  0  0
   11.8781   10.0847    7.5667 C   0  0  0  0  0  0  0  0  0  0  0  0
   12.1553    8.8813    7.6380 O   0  0  0  0  0  0  0  0  0  0  0  0
   11.3922   10.5857    5.1171 N   0  0  0  0  0  0  0  0  0  0  0  0
   11.0373   11.7338    4.4948 C   0  0  0  0  0  0  0  0  0  0  0  0
   10.9454   12.7695    5.3995 N   0  0  0  0  0  0  0  0  0  0  0  0
  1  2  1  0  0  0  0
  1  6  1  0  0  0  0
  2  3  2  0  0  0  0
  3  4  1  0  0  0  0
  4  5  2  0  0  0  0
  4 10  1  0  0  0  0
  5  6  1  0  0  0  0
  5  8  1  0  0  0  0
  6  7  2  0  0  0  0
  8  9  1  0  0  0  0
  9 10  2  0  0  0  0
M  END
>  <CHROM.1>
11.50952783,11.26659604,6.88275717,0.43516332,-1.30654431,0.96703829

>  <Name>
ligand

>  <RI>
0

>  <Rbt.Current_Directory>
/home/itssahil/PROJECTS/Mol_Feturizer/Test_systems_manuscript/rnas/4fe5

>  <Rbt.Executable>
rbdock ($Id: //depot/dev/client3/rdock/2013.1/src/exe/rbdock.cxx#4 $)

>  <Rbt.Library>
libRbt.so (2013.1, Build901 2013/11/27)

>  <Rbt.Parameter_File>
/export/apps/rDock/src/rDock_2013.1_src/data/scripts/dock_solv.prm

>  <Rbt.Receptor>
prm/blind_docking_40.prm

>  <SCORE>
-17.3814

>  <SCORE.INTER>
-17.3815

>  <SCORE.INTER.CONST>
1

>  <SCORE.INTER.POLAR>
0

>  <SCORE.INTER.ROT>
0

>  <SCORE.INTER.SOLV>
3.65895

>  <SCORE.INTER.VDW>
-16.4073

>  <SCORE.INTER.norm>
-1.73815

>  <SCORE.INTRA>
0

>  <SCORE.INTRA.DIHEDRAL>
0

>  <SCORE.INTRA.DIHEDRAL.0>
0

>  <SCORE.INTRA.POLAR>
0

>  <SCORE.INTRA.POLAR.0>
0

>  <SCORE.INTRA.REPUL>
0

>  <SCORE.INTRA.REPUL.0>
0

>  <SCORE.INTRA.SOLV>
0

>  <SCORE.INTRA.SOLV.lig_0>
-4.28333

>  <SCORE.INTRA.VDW>
0

>  <SCORE.INTRA.VDW.0>
0

>  <SCORE.INTRA.norm>
0

>  <SCORE.RESTR>
9.97806e-05

>  <SCORE.RESTR.CAVITY>
9.97806e-05

>  <SCORE.RESTR.norm>
9.97806e-06

>  <SCORE.SYSTEM>
0

>  <SCORE.SYSTEM.CONST>
0

>  <SCORE.SYSTEM.DIHEDRAL>
0

>  <SCORE.SYSTEM.SOLV>
0

>  <SCORE.SYSTEM.norm>
0

>  <SCORE.heavy>
10

>  <SCORE.norm>
-1.73814

>  <RMSD>
0.443

$$$$
ligand
 OpenBabel02271912143D
libRbt.so/2013.1/901 2013/11/27
 10 11  0  0  0  0  0  0  0  0999 V2000
   11.8342   10.8064    8.7483 N   0  0  0  0  0  0  0  0  0  0  0  0
   11.5493   12.1480    8.8472 C   0  0  0  0  0  0  0  0  0  0  0  0
   11.2354   12.8860    7.7807 N   0  0  0  0  0  0  0  0  0  0  0  0
   11.2302   12.1794    6.6147 C   0  0  0  0  0  0  0  0  0  0  0  0
   11.5076   10.8368    6.4482 C   0  0  0  0  0  0  0  0  0  0  0  0
   11.8413   10.0438    7.5801 C   0  0  0  0  0  0  0  0  0  0  0  0
   12.1192    8.8412    7.6613 O   0  0  0  0  0  0  0  0  0  0  0  0
   11.3907   10.5322    5.1212 N   0  0  0  0  0  0  0  0  0  0  0  0
   11.0433   11.6767    4.4882 C   0  0  0  0  0  0  0  0  0  0  0  0
   10.9368   12.7166    5.3864 N   0  0  0  0  0  0  0  0  0  0  0  0
  1  2  1  0  0  0  0
  1  6  1  0  0  0  0
  2  3  2  0  0  0  0
  3  4  1  0  0  0  0
  4  5  2  0  0  0  0
  4 10  1  0  0  0  0
  5  6  1  0  0  0  0
  5  8  1  0  0  0  0
  6  7  2  0  0  0  0
  8  9  1  0  0  0  0
  9 10  2  0  0  0  0
M  END
>  <CHROM.1>
11.48122060,11.22177774,6.88502661,0.48567954,-1.31340508,1.01097359

>  <Name>
ligand

>  <RI>
0

>  <Rbt.Current_Directory>
/home/itssahil/PROJECTS/Mol_Feturizer/Test_systems_manuscript/rnas/4fe5

>  <Rbt.Executable>
rbdock ($Id: //depot/dev/client3/rdock/2013.1/src/exe/rbdock.cxx#4 $)

>  <Rbt.Library>
libRbt.so (2013.1, Build901 2013/11/27)

>  <Rbt.Parameter_File>
/export/apps/rDock/src/rDock_2013.1_src/data/scripts/dock_solv.prm

>  <Rbt.Receptor>
prm/blind_docking_40.prm

>  <SCORE>
-17.3761

>  <SCORE.INTER>
-17.3761

>  <SCORE.INTER.CONST>
1

>  <SCORE.INTER.POLAR>
0

>  <SCORE.INTER.ROT>
0

>  <SCORE.INTER.SOLV>
3.71576

>  <SCORE.INTER.VDW>
-16.4226

>  <SCORE.INTER.norm>
-1.73761

>  <SCORE.INTRA>
0

>  <SCORE.INTRA.DIHEDRAL>
0

>  <SCORE.INTRA.DIHEDRAL.0>
0

>  <SCORE.INTRA.POLAR>
0

>  <SCORE.INTRA.POLAR.0>
0

>  <SCORE.INTRA.REPUL>
0

>  <SCORE.INTRA.REPUL.0>
0

>  <SCORE.INTRA.SOLV>
0

>  <SCORE.INTRA.SOLV.lig_0>
-4.28333

>  <SCORE.INTRA.VDW>
0

>  <SCORE.INTRA.VDW.0>
0

>  <SCORE.INTRA.norm>
0

>  <SCORE.RESTR>
0

>  <SCORE.RESTR.CAVITY>
0

>  <SCORE.RESTR.norm>
0

>  <SCORE.SYSTEM>
0

>  <SCORE.SYSTEM.CONST>
0

>  <SCORE.SYSTEM.DIHEDRAL>
0

>  <SCORE.SYSTEM.SOLV>
0

>  <SCORE.SYSTEM.norm>
0

>  <SCORE.heavy>
10

>  <SCORE.norm>
-1.73761

>  <RMSD>
0.443

$$$$
ligand
 OpenBabel02271912143D
libRbt.so/2013.1/901 2013/11/27
 10 11  0  0  0  0  0  0  0  0999 V2000
   11.8681   10.8619    8.7628 N   0  0  0  0  0  0  0  0  0  0  0  0
   11.6110   12.2085    8.8706 C   0  0  0  0  0  0  0  0  0  0  0  0
   11.2880   12.9548    7.8128 N   0  0  0  0  0  0  0  0  0  0  0  0
   11.2438   12.2513    6.6457 C   0  0  0  0  0  0  0  0  0  0  0  0
   11.4919   10.9041    6.4705 C   0  0  0  0  0  0  0  0  0  0  0  0
   11.8351   10.1021    7.5932 C   0  0  0  0  0  0  0  0  0  0  0  0
   12.0918    8.8943    7.6659 O   0  0  0  0  0  0  0  0  0  0  0  0
   11.3402   10.6049    5.1457 N   0  0  0  0  0  0  0  0  0  0  0  0
   11.0010   11.7574    4.5228 C   0  0  0  0  0  0  0  0  0  0  0  0
   10.9339   12.7970    5.4252 N   0  0  0  0  0  0  0  0  0  0  0  0
  1  2  1  0  0  0  0
  1  6  1  0  0  0  0
  2  3  2  0  0  0  0
  3  4  1  0  0  0  0
  4  5  2  0  0  0  0
  4 10  1  0  0  0  0
  5  6  1  0  0  0  0
  5  8  1  0  0  0  0
  6  7  2  0  0  0  0
  8  9  1  0  0  0  0
  9 10  2  0  0  0  0
M  END
>  <CHROM.1>
11.48241724,11.28844136,6.90855242,0.37164450,-1.31634948,0.90285343

>  <Name>
ligand

>  <RI>
0

>  <Rbt.Current_Directory>
/home/itssahil/PROJECTS/Mol_Feturizer/Test_systems_manuscript/rnas/4fe5

>  <Rbt.Executable>
rbdock ($Id: //depot/dev/client3/rdock/2013.1/src/exe/rbdock.cxx#4 $)

>  <Rbt.Library>
libRbt.so (2013.1, Build901 2013/11/27)

>  <Rbt.Parameter_File>
/export/apps/rDock/src/rDock_2013.1_src/data/scripts/dock_solv.prm

>  <Rbt.Receptor>
prm/pocket_docking_5.prm

>  <SCORE>
-17.4344

>  <SCORE.INTER>
-17.4344

>  <SCORE.INTER.CONST>
1

>  <SCORE.INTER.POLAR>
0

>  <SCORE.INTER.ROT>
0

>  <SCORE.INTER.SOLV>
3.71465

>  <SCORE.INTER.VDW>
-16.4611

>  <SCORE.INTER.norm>
-1.74344

>  <SCORE.INTRA>
0

>  <SCORE.INTRA.DIHEDRAL>
0

>  <SCORE.INTRA.DIHEDRAL.0>
0

>  <SCORE.INTRA.POLAR>
0

>  <SCORE.INTRA.POLAR.0>
0

>  <SCORE.INTRA.REPUL>
0

>  <SCORE.INTRA.REPUL.0>
0

>  <SCORE.INTRA.SOLV>
0

>  <SCORE.INTRA.SOLV.lig_0>
-4.28333

>  <SCORE.INTRA.VDW>
0

>  <SCORE.INTRA.VDW.0>
0

>  <SCORE.INTRA.norm>
0

>  <SCORE.RESTR>
0

>  <SCORE.RESTR.CAVITY>
0

>  <SCORE.RESTR.norm>
0

>  <SCORE.SYSTEM>
0

>  <SCORE.SYSTEM.CONST>
0

>  <SCORE.SYSTEM.DIHEDRAL>
0

>  <SCORE.SYSTEM.SOLV>
0

>  <SCORE.SYSTEM.norm>
0

>  <SCORE.heavy>
10

>  <SCORE.norm>
-1.74344

>  <RMSD>
0.443

$$$$
ligand
 OpenBabel02271912143D
libRbt.so/2013.1/901 2013/11/27
 10 11  0  0  0  0  0  0  0  0999 V2000
   11.8540   10.8200    8.7477 N   0  0  0  0  0  0  0  0  0  0  0  0
   11.5831   12.1651    8.8383 C   0  0  0  0  0  0  0  0  0  0  0  0
   11.2604   12.8963    7.7699 N   0  0  0  0  0  0  0  0  0  0  0  0
   11.2313   12.1792    6.6106 C   0  0  0  0  0  0  0  0  0  0  0  0
   11.4935   10.8326    6.4524 C   0  0  0  0  0  0  0  0  0  0  0  0
   11.8366   10.0467    7.5865 C   0  0  0  0  0  0  0  0  0  0  0  0
   12.1044    8.8423    7.6747 O   0  0  0  0  0  0  0  0  0  0  0  0
   11.3542   10.5170    5.1301 N   0  0  0  0  0  0  0  0  0  0  0  0
   11.0082   11.6590    4.4918 C   0  0  0  0  0  0  0  0  0  0  0  0
   10.9247   12.7080    5.3818 N   0  0  0  0  0  0  0  0  0  0  0  0
  1  2  1  0  0  0  0
  1  6  1  0  0  0  0
  2  3  2  0  0  0  0
  3  4  1  0  0  0  0
  4  5  2  0  0  0  0
  4 10  1  0  0  0  0
  5  6  1  0  0  0  0
  5  8  1  0  0  0  0
  6  7  2  0  0  0  0
  8  9  1  0  0  0  0
  9 10  2  0  0  0  0
M  END
>  <CHROM.1>
11.47729416,11.22174812,6.88601349,0.41692772,-1.31289098,0.93533203

>  <Name>
ligand

>  <RI>
0

>  <Rbt.Current_Directory>
/home/itssahil/PROJECTS/Mol_Feturizer/Test_systems_manuscript/rnas/4fe5

>  <Rbt.Executable>
rbdock ($Id: //depot/dev/client3/rdock/2013.1/src/exe/rbdock.cxx#4 $)

>  <Rbt.Library>
libRbt.so (2013.1, Build901 2013/11/27)

>  <Rbt.Parameter_File>
/export/apps/rDock/src/rDock_2013.1_src/data/scripts/dock_solv.prm

>  <Rbt.Receptor>
prm/pocket_docking_4.prm

>  <SCORE>
-17.4426

>  <SCORE.INTER>
-17.4426

>  <SCORE.INTER.CONST>
1

>  <SCORE.INTER.POLAR>
0

>  <SCORE.INTER.ROT>
0

>  <SCORE.INTER.SOLV>
3.72265

>  <SCORE.INTER.VDW>
-16.4693

>  <SCORE.INTER.norm>
-1.74426

>  <SCORE.INTRA>
0

>  <SCORE.INTRA.DIHEDRAL>
0

>  <SCORE.INTRA.DIHEDRAL.0>
0

>  <SCORE.INTRA.POLAR>
0

>  <SCORE.INTRA.POLAR.0>
0

>  <SCORE.INTRA.REPUL>
0

>  <SCORE.INTRA.REPUL.0>
0

>  <SCORE.INTRA.SOLV>
0

>  <SCORE.INTRA.SOLV.lig_0>
-4.28333

>  <SCORE.INTRA.VDW>
0

>  <SCORE.INTRA.VDW.0>
0

>  <SCORE.INTRA.norm>
0

>  <SCORE.RESTR>
0

>  <SCORE.RESTR.CAVITY>
0

>  <SCORE.RESTR.norm>
0

>  <SCORE.SYSTEM>
0

>  <SCORE.SYSTEM.CONST>
0

>  <SCORE.SYSTEM.DIHEDRAL>
0

>  <SCORE.SYSTEM.SOLV>
0

>  <SCORE.SYSTEM.norm>
0

>  <SCORE.heavy>
10

>  <SCORE.norm>
-1.74426

>  <RMSD>
0.444

$$$$
ligand
 OpenBabel02271912143D
libRbt.so/2013.1/901 2013/11/27
 10 11  0  0  0  0  0  0  0  0999 V2000
   11.8512   10.8226    8.7466 N   0  0  0  0  0  0  0  0  0  0  0  0
   11.5765   12.1670    8.8373 C   0  0  0  0  0  0  0  0  0  0  0  0
   11.2530   12.8975    7.7687 N   0  0  0  0  0  0  0  0  0  0  0  0
   11.2271   12.1807    6.6092 C   0  0  0  0  0  0  0  0  0  0  0  0
   11.4932   10.8348    6.4510 C   0  0  0  0  0  0  0  0  0  0  0  0
   11.8372   10.0496    7.5853 C   0  0  0  0  0  0  0  0  0  0  0  0
   12.1082    8.8459    7.6734 O   0  0  0  0  0  0  0  0  0  0  0  0
   11.3561   10.5192    5.1285 N   0  0  0  0  0  0  0  0  0  0  0  0
   11.0078   11.6604    4.4900 C   0  0  0  0  0  0  0  0  0  0  0  0
   10.9204   12.7089    5.3803 N   0  0  0  0  0  0  0  0  0  0  0  0
  1  2  1  0  0  0  0
  1  6  1  0  0  0  0
  2  3  2  0  0  0  0
  3  4  1  0  0  0  0
  4  5  2  0  0  0  0
  4 10  1  0  0  0  0
  5  6  1  0  0  0  0
  5  8  1  0  0  0  0
  6  7  2  0  0  0  0
  8  9  1  0  0  0  0
  9 10  2  0  0  0  0
M  END
>  <CHROM.1>
11.47542404,11.22381451,6.88469091,0.42664544,-1.31130898,0.94498288

>  <Name>
ligand

>  <RI>
0

>  <Rbt.Current_Directory>
/home/itssahil/PROJECTS/Mol_Feturizer/Test_systems_manuscript/rnas/4fe5

>  <Rbt.Executable>
rbdock ($Id: //depot/dev/client3/rdock/2013.1/src/exe/rbdock.cxx#4 $)

>  <Rbt.Library>
libRbt.so (2013.1, Build901 2013/11/27)

>  <Rbt.Parameter_File>
/export/apps/rDock/src/rDock_2013.1_src/data/scripts/dock_solv.prm

>  <Rbt.Receptor>
prm/blind_docking_60.prm

>  <SCORE>
-17.4376

>  <SCORE.INTER>
-17.4376

>  <SCORE.INTER.CONST>
1

>  <SCORE.INTER.POLAR>
0

>  <SCORE.INTER.ROT>
0

>  <SCORE.INTER.SOLV>
3.71804

>  <SCORE.INTER.VDW>
-16.4644

>  <SCORE.INTER.norm>
-1.74376

>  <SCORE.INTRA>
0

>  <SCORE.INTRA.DIHEDRAL>
0

>  <SCORE.INTRA.DIHEDRAL.0>
0

>  <SCORE.INTRA.POLAR>
0

>  <SCORE.INTRA.POLAR.0>
0

>  <SCORE.INTRA.REPUL>
0

>  <SCORE.INTRA.REPUL.0>
0

>  <SCORE.INTRA.SOLV>
0

>  <SCORE.INTRA.SOLV.lig_0>
-4.28333

>  <SCORE.INTRA.VDW>
0

>  <SCORE.INTRA.VDW.0>
0

>  <SCORE.INTRA.norm>
0

>  <SCORE.RESTR>
0

>  <SCORE.RESTR.CAVITY>
0

>  <SCORE.RESTR.norm>
0

>  <SCORE.SYSTEM>
0

>  <SCORE.SYSTEM.CONST>
0

>  <SCORE.SYSTEM.DIHEDRAL>
0

>  <SCORE.SYSTEM.SOLV>
0

>  <SCORE.SYSTEM.norm>
0

>  <SCORE.heavy>
10

>  <SCORE.norm>
-1.74376

>  <RMSD>
0.445

$$$$
ligand
 OpenBabel02271912143D
libRbt.so/2013.1/901 2013/11/27
 10 11  0  0  0  0  0  0  0  0999 V2000
   11.8643   10.8614    8.7630 N   0  0  0  0  0  0  0  0  0  0  0  0
   11.6074   12.2081    8.8700 C   0  0  0  0  0  0  0  0  0  0  0  0
   11.2888   12.9547    7.8111 N   0  0  0  0  0  0  0  0  0  0  0  0
   11.2486   12.2514    6.6438 C   0  0  0  0  0  0  0  0  0  0  0  0
   11.4967   10.9042    6.4693 C   0  0  0  0  0  0  0  0  0  0  0  0
   11.8354   10.1018    7.5931 C   0  0  0  0  0  0  0  0  0  0  0  0
   12.0912    8.8938    7.6666 O   0  0  0  0  0  0  0  0  0  0  0  0
   11.3499   10.6052    5.1439 N   0  0  0  0  0  0  0  0  0  0  0  0
   11.0136   11.7579    4.5198 C   0  0  0  0  0  0  0  0  0  0  0  0
   10.9435   12.7974    5.4222 N   0  0  0  0  0  0  0  0  0  0  0  0
  1  2  1  0  0  0  0
  1  6  1  0  0  0  0
  2  3  2  0  0  0  0
  3  4  1  0  0  0  0
  4  5  2  0  0  0  0
  4 10  1  0  0  0  0
  5  6  1  0  0  0  0
  5  8  1  0  0  0  0
  6  7  2  0  0  0  0
  8  9  1  0  0  0  0
  9 10  2  0  0  0  0
M  END
>  <CHROM.1>
11.48580170,11.28840504,6.90734686,0.38237738,-1.31902344,0.91340700

>  <Name>
ligand

>  <RI>
0

>  <Rbt.Current_Directory>
/home/itssahil/PROJECTS/Mol_Feturizer/Test_systems_manuscript/rnas/4fe5

>  <Rbt.Executable>
rbdock ($Id: //depot/dev/client3/rdock/2013.1/src/exe/rbdock.cxx#4 $)

>  <Rbt.Library>
libRbt.so (2013.1, Build901 2013/11/27)

>  <Rbt.Parameter_File>
/export/apps/rDock/src/rDock_2013.1_src/data/scripts/dock_solv.prm

>  <Rbt.Receptor>
prm/pocket_docking_3.prm

>  <SCORE>
-17.4407

>  <SCORE.INTER>
-17.4407

>  <SCORE.INTER.CONST>
1

>  <SCORE.INTER.POLAR>
0

>  <SCORE.INTER.ROT>
0

>  <SCORE.INTER.SOLV>
3.71947

>  <SCORE.INTER.VDW>
-16.467

>  <SCORE.INTER.norm>
-1.74407

>  <SCORE.INTRA>
0

>  <SCORE.INTRA.DIHEDRAL>
0

>  <SCORE.INTRA.DIHEDRAL.0>
0

>  <SCORE.INTRA.POLAR>
0

>  <SCORE.INTRA.POLAR.0>
0

>  <SCORE.INTRA.REPUL>
0

>  <SCORE.INTRA.REPUL.0>
0

>  <SCORE.INTRA.SOLV>
0

>  <SCORE.INTRA.SOLV.lig_0>
-4.28333

>  <SCORE.INTRA.VDW>
0

>  <SCORE.INTRA.VDW.0>
0

>  <SCORE.INTRA.norm>
0

>  <SCORE.RESTR>
0

>  <SCORE.RESTR.CAVITY>
0

>  <SCORE.RESTR.norm>
0

>  <SCORE.SYSTEM>
0

>  <SCORE.SYSTEM.CONST>
0

>  <SCORE.SYSTEM.DIHEDRAL>
0

>  <SCORE.SYSTEM.SOLV>
0

>  <SCORE.SYSTEM.norm>
0

>  <SCORE.heavy>
10

>  <SCORE.norm>
-1.74407

>  <RMSD>
0.445

$$$$
ligand
 OpenBabel02271912143D
libRbt.so/2013.1/901 2013/11/27
 10 11  0  0  0  0  0  0  0  0999 V2000
   11.9068   10.8775    8.7371 N   0  0  0  0  0  0  0  0  0  0  0  0
   11.6045   12.2144    8.8485 C   0  0  0  0  0  0  0  0  0  0  0  0
   11.2618   12.9536    7.7919 N   0  0  0  0  0  0  0  0  0  0  0  0
   11.2464   12.2535    6.6221 C   0  0  0  0  0  0  0  0  0  0  0  0
   11.5399   10.9159    6.4432 C   0  0  0  0  0  0  0  0  0  0  0  0
   11.9045   10.1215    7.5645 C   0  0  0  0  0  0  0  0  0  0  0  0
   12.2007    8.9226    7.6340 O   0  0  0  0  0  0  0  0  0  0  0  0
   11.4044   10.6169    5.1166 N   0  0  0  0  0  0  0  0  0  0  0  0
   11.0299   11.7598    4.4963 C   0  0  0  0  0  0  0  0  0  0  0  0
   10.9241   12.7931    5.4021 N   0  0  0  0  0  0  0  0  0  0  0  0
  1  2  1  0  0  0  0
  1  6  1  0  0  0  0
  2  3  2  0  0  0  0
  3  4  1  0  0  0  0
  4  5  2  0  0  0  0
  4 10  1  0  0  0  0
  5  6  1  0  0  0  0
  5  8  1  0  0  0  0
  6  7  2  0  0  0  0
  8  9  1  0  0  0  0
  9 10  2  0  0  0  0
M  END
>  <CHROM.1>
11.51565550,11.29804286,6.88257539,0.45976418,-1.29207696,0.99160446

>  <Name>
ligand

>  <RI>
0

>  <Rbt.Current_Directory>
/home/itssahil/PROJECTS/Mol_Feturizer/Test_systems_manuscript/rnas/4fe5

>  <Rbt.Executable>
rbdock ($Id: //depot/dev/client3/rdock/2013.1/src/exe/rbdock.cxx#4 $)

>  <Rbt.Library>
libRbt.so (2013.1, Build901 2013/11/27)

>  <Rbt.Parameter_File>
/export/apps/rDock/src/rDock_2013.1_src/data/scripts/dock_solv.prm

>  <Rbt.Receptor>
prm/pocket_docking_4.prm

>  <SCORE>
-17.4193

>  <SCORE.INTER>
-17.4193

>  <SCORE.INTER.CONST>
1

>  <SCORE.INTER.POLAR>
0

>  <SCORE.INTER.ROT>
0

>  <SCORE.INTER.SOLV>
3.60741

>  <SCORE.INTER.VDW>
-16.4153

>  <SCORE.INTER.norm>
-1.74193

>  <SCORE.INTRA>
0

>  <SCORE.INTRA.DIHEDRAL>
0

>  <SCORE.INTRA.DIHEDRAL.0>
0

>  <SCORE.INTRA.POLAR>
0

>  <SCORE.INTRA.POLAR.0>
0

>  <SCORE.INTRA.REPUL>
0

>  <SCORE.INTRA.REPUL.0>
0

>  <SCORE.INTRA.SOLV>
0

>  <SCORE.INTRA.SOLV.lig_0>
-4.28333

>  <SCORE.INTRA.VDW>
0

>  <SCORE.INTRA.VDW.0>
0

>  <SCORE.INTRA.norm>
0

>  <SCORE.RESTR>
0

>  <SCORE.RESTR.CAVITY>
0

>  <SCORE.RESTR.norm>
0

>  <SCORE.SYSTEM>
0

>  <SCORE.SYSTEM.CONST>
0

>  <SCORE.SYSTEM.DIHEDRAL>
0

>  <SCORE.SYSTEM.SOLV>
0

>  <SCORE.SYSTEM.norm>
0

>  <SCORE.heavy>
10

>  <SCORE.norm>
-1.74193

>  <RMSD>
0.445

$$$$
ligand
 OpenBabel02271912143D
libRbt.so/2013.1/901 2013/11/27
 10 11  0  0  0  0  0  0  0  0999 V2000
   11.8386   10.7516    8.7028 N   0  0  0  0  0  0  0  0  0  0  0  0
   11.4673   12.0657    8.8640 C   0  0  0  0  0  0  0  0  0  0  0  0
   11.1087   12.8322    7.8324 N   0  0  0  0  0  0  0  0  0  0  0  0
   11.1518   12.1836    6.6339 C   0  0  0  0  0  0  0  0  0  0  0  0
   11.5157   10.8712    6.4050 C   0  0  0  0  0  0  0  0  0  0  0  0
   11.8976   10.0479    7.4995 C   0  0  0  0  0  0  0  0  0  0  0  0
   12.2525    8.8632    7.5246 O   0  0  0  0  0  0  0  0  0  0  0  0
   11.4218   10.6237    5.0643 N   0  0  0  0  0  0  0  0  0  0  0  0
   11.0026   11.7725    4.4849 C   0  0  0  0  0  0  0  0  0  0  0  0
   10.8270   12.7591    5.4311 N   0  0  0  0  0  0  0  0  0  0  0  0
  1  2  1  0  0  0  0
  1  6  1  0  0  0  0
  2  3  2  0  0  0  0
  3  4  1  0  0  0  0
  4  5  2  0  0  0  0
  4 10  1  0  0  0  0
  5  6  1  0  0  0  0
  5  8  1  0  0  0  0
  6  7  2  0  0  0  0
  8  9  1  0  0  0  0
  9 10  2  0  0  0  0
M  END
>  <CHROM.1>
11.46361052,11.23224321,6.85957682,0.60354860,-1.25768915,1.17207621

>  <Name>
ligand

>  <RI>
0

>  <Rbt.Current_Directory>
/home/itssahil/PROJECTS/Mol_Feturizer/Test_systems_manuscript/rnas/4fe5

>  <Rbt.Executable>
rbdock ($Id: //depot/dev/client3/rdock/2013.1/src/exe/rbdock.cxx#4 $)

>  <Rbt.Library>
libRbt.so (2013.1, Build901 2013/11/27)

>  <Rbt.Parameter_File>
/export/apps/rDock/src/rDock_2013.1_src/data/scripts/dock_solv.prm

>  <Rbt.Receptor>
prm/blind_docking_20.prm

>  <SCORE>
-17.2221

>  <SCORE.INTER>
-17.2221

>  <SCORE.INTER.CONST>
1

>  <SCORE.INTER.POLAR>
0

>  <SCORE.INTER.ROT>
0

>  <SCORE.INTER.SOLV>
3.5304

>  <SCORE.INTER.VDW>
-16.2582

>  <SCORE.INTER.norm>
-1.72221

>  <SCORE.INTRA>
0

>  <SCORE.INTRA.DIHEDRAL>
0

>  <SCORE.INTRA.DIHEDRAL.0>
0

>  <SCORE.INTRA.POLAR>
0

>  <SCORE.INTRA.POLAR.0>
0

>  <SCORE.INTRA.REPUL>
0

>  <SCORE.INTRA.REPUL.0>
0

>  <SCORE.INTRA.SOLV>
0

>  <SCORE.INTRA.SOLV.lig_0>
-4.28333

>  <SCORE.INTRA.VDW>
0

>  <SCORE.INTRA.VDW.0>
0

>  <SCORE.INTRA.norm>
0

>  <SCORE.RESTR>
0

>  <SCORE.RESTR.CAVITY>
0

>  <SCORE.RESTR.norm>
0

>  <SCORE.SYSTEM>
0

>  <SCORE.SYSTEM.CONST>
0

>  <SCORE.SYSTEM.DIHEDRAL>
0

>  <SCORE.SYSTEM.SOLV>
0

>  <SCORE.SYSTEM.norm>
0

>  <SCORE.heavy>
10

>  <SCORE.norm>
-1.72221

>  <RMSD>
0.446

$$$$
ligand
 OpenBabel02271912143D
libRbt.so/2013.1/901 2013/11/27
 10 11  0  0  0  0  0  0  0  0999 V2000
   11.8446   10.8464    8.7567 N   0  0  0  0  0  0  0  0  0  0  0  0
   11.5667   12.1910    8.8327 C   0  0  0  0  0  0  0  0  0  0  0  0
   11.2448   12.9097    7.7557 N   0  0  0  0  0  0  0  0  0  0  0  0
   11.2239   12.1810    6.6036 C   0  0  0  0  0  0  0  0  0  0  0  0
   11.4935   10.8342    6.4601 C   0  0  0  0  0  0  0  0  0  0  0  0
   11.8358   10.0614    7.6034 C   0  0  0  0  0  0  0  0  0  0  0  0
   12.1092    8.8593    7.7047 O   0  0  0  0  0  0  0  0  0  0  0  0
   11.3611   10.5046    5.1404 N   0  0  0  0  0  0  0  0  0  0  0  0
   11.0121   11.6384    4.4892 C   0  0  0  0  0  0  0  0  0  0  0  0
   10.9197   12.6958    5.3683 N   0  0  0  0  0  0  0  0  0  0  0  0
  1  2  1  0  0  0  0
  1  6  1  0  0  0  0
  2  3  2  0  0  0  0
  3  4  1  0  0  0  0
  4  5  2  0  0  0  0
  4 10  1  0  0  0  0
  5  6  1  0  0  0  0
  5  8  1  0  0  0  0
  6  7  2  0  0  0  0
  8  9  1  0  0  0  0
  9 10  2  0  0  0  0
M  END
>  <CHROM.1>
11.47355270,11.22753591,6.88962954,0.44114772,-1.31124489,0.94868641

>  <Name>
ligand

>  <RI>
0

>  <Rbt.Current_Directory>
/home/itssahil/PROJECTS/Mol_Feturizer/Test_systems_manuscript/rnas/4fe5

>  <Rbt.Executable>
rbdock ($Id: //depot/dev/client3/rdock/2013.1/src/exe/rbdock.cxx#4 $)

>  <Rbt.Library>
libRbt.so (2013.1, Build901 2013/11/27)

>  <Rbt.Parameter_File>
/export/apps/rDock/src/rDock_2013.1_src/data/scripts/dock_solv.prm

>  <Rbt.Receptor>
prm/pocket_docking_3.prm

>  <SCORE>
-17.4291

>  <SCORE.INTER>
-17.4291

>  <SCORE.INTER.CONST>
1

>  <SCORE.INTER.POLAR>
0

>  <SCORE.INTER.ROT>
0

>  <SCORE.INTER.SOLV>
3.73309

>  <SCORE.INTER.VDW>
-16.4638

>  <SCORE.INTER.norm>
-1.74291

>  <SCORE.INTRA>
0

>  <SCORE.INTRA.DIHEDRAL>
0

>  <SCORE.INTRA.DIHEDRAL.0>
0

>  <SCORE.INTRA.POLAR>
0

>  <SCORE.INTRA.POLAR.0>
0

>  <SCORE.INTRA.REPUL>
0

>  <SCORE.INTRA.REPUL.0>
0

>  <SCORE.INTRA.SOLV>
0

>  <SCORE.INTRA.SOLV.lig_0>
-4.28333

>  <SCORE.INTRA.VDW>
0

>  <SCORE.INTRA.VDW.0>
0

>  <SCORE.INTRA.norm>
0

>  <SCORE.RESTR>
0

>  <SCORE.RESTR.CAVITY>
0

>  <SCORE.RESTR.norm>
0

>  <SCORE.SYSTEM>
0

>  <SCORE.SYSTEM.CONST>
0

>  <SCORE.SYSTEM.DIHEDRAL>
0

>  <SCORE.SYSTEM.SOLV>
0

>  <SCORE.SYSTEM.norm>
0

>  <SCORE.heavy>
10

>  <SCORE.norm>
-1.74291

>  <RMSD>
0.446

$$$$
ligand
 OpenBabel02271912143D
libRbt.so/2013.1/901 2013/11/27
 10 11  0  0  0  0  0  0  0  0999 V2000
   11.8518   10.8168    8.7424 N   0  0  0  0  0  0  0  0  0  0  0  0
   11.5758   12.1608    8.8349 C   0  0  0  0  0  0  0  0  0  0  0  0
   11.2528   12.8927    7.7670 N   0  0  0  0  0  0  0  0  0  0  0  0
   11.2288   12.1776    6.6064 C   0  0  0  0  0  0  0  0  0  0  0  0
   11.4963   10.8323    6.4464 C   0  0  0  0  0  0  0  0  0  0  0  0
   11.8398   10.0456    7.5799 C   0  0  0  0  0  0  0  0  0  0  0  0
   12.1117    8.8420    7.6665 O   0  0  0  0  0  0  0  0  0  0  0  0
   11.3610   10.5186    5.1233 N   0  0  0  0  0  0  0  0  0  0  0  0
   11.0123   11.6604    4.4862 C   0  0  0  0  0  0  0  0  0  0  0  0
   10.9231   12.7075    5.3779 N   0  0  0  0  0  0  0  0  0  0  0  0
  1  2  1  0  0  0  0
  1  6  1  0  0  0  0
  2  3  2  0  0  0  0
  3  4  1  0  0  0  0
  4  5  2  0  0  0  0
  4 10  1  0  0  0  0
  5  6  1  0  0  0  0
  5  8  1  0  0  0  0
  6  7  2  0  0  0  0
  8  9  1  0  0  0  0
  9 10  2  0  0  0  0
M  END
>  <CHROM.1>
11.47773181,11.22057289,6.88067584,0.43219097,-1.31124149,0.95187788

>  <Name>
ligand

>  <RI>
0

>  <Rbt.Current_Directory>
/home/itssahil/PROJECTS/Mol_Feturizer/Test_systems_manuscript/rnas/4fe5

>  <Rbt.Executable>
rbdock ($Id: //depot/dev/client3/rdock/2013.1/src/exe/rbdock.cxx#4 $)

>  <Rbt.Library>
libRbt.so (2013.1, Build901 2013/11/27)

>  <Rbt.Parameter_File>
/export/apps/rDock/src/rDock_2013.1_src/data/scripts/dock_solv.prm

>  <Rbt.Receptor>
prm/pocket_docking_6.prm

>  <SCORE>
-17.4363

>  <SCORE.INTER>
-17.4363

>  <SCORE.INTER.CONST>
1

>  <SCORE.INTER.POLAR>
0

>  <SCORE.INTER.ROT>
0

>  <SCORE.INTER.SOLV>
3.71311

>  <SCORE.INTER.VDW>
-16.4619

>  <SCORE.INTER.norm>
-1.74363

>  <SCORE.INTRA>
0

>  <SCORE.INTRA.DIHEDRAL>
0

>  <SCORE.INTRA.DIHEDRAL.0>
0

>  <SCORE.INTRA.POLAR>
0

>  <SCORE.INTRA.POLAR.0>
0

>  <SCORE.INTRA.REPUL>
0

>  <SCORE.INTRA.REPUL.0>
0

>  <SCORE.INTRA.SOLV>
0

>  <SCORE.INTRA.SOLV.lig_0>
-4.28333

>  <SCORE.INTRA.VDW>
0

>  <SCORE.INTRA.VDW.0>
0

>  <SCORE.INTRA.norm>
0

>  <SCORE.RESTR>
0

>  <SCORE.RESTR.CAVITY>
0

>  <SCORE.RESTR.norm>
0

>  <SCORE.SYSTEM>
0

>  <SCORE.SYSTEM.CONST>
0

>  <SCORE.SYSTEM.DIHEDRAL>
0

>  <SCORE.SYSTEM.SOLV>
0

>  <SCORE.SYSTEM.norm>
0

>  <SCORE.heavy>
10

>  <SCORE.norm>
-1.74363

>  <RMSD>
0.446

$$$$
ligand
 OpenBabel02271912143D
libRbt.so/2013.1/901 2013/11/27
 10 11  0  0  0  0  0  0  0  0999 V2000
   11.8439   10.8788    8.7728 N   0  0  0  0  0  0  0  0  0  0  0  0
   11.5772   12.2246    8.8645 C   0  0  0  0  0  0  0  0  0  0  0  0
   11.2657   12.9595    7.7953 N   0  0  0  0  0  0  0  0  0  0  0  0
   11.2432   12.2454    6.6341 C   0  0  0  0  0  0  0  0  0  0  0  0
   11.5019   10.8982    6.4748 C   0  0  0  0  0  0  0  0  0  0  0  0
   11.8330   10.1084    7.6096 C   0  0  0  0  0  0  0  0  0  0  0  0
   12.0957    8.9028    7.6971 O   0  0  0  0  0  0  0  0  0  0  0  0
   11.3720   10.5863    5.1506 N   0  0  0  0  0  0  0  0  0  0  0  0
   11.0353   11.7310    4.5123 C   0  0  0  0  0  0  0  0  0  0  0  0
   10.9485   12.7782    5.4042 N   0  0  0  0  0  0  0  0  0  0  0  0
  1  2  1  0  0  0  0
  1  6  1  0  0  0  0
  2  3  2  0  0  0  0
  3  4  1  0  0  0  0
  4  5  2  0  0  0  0
  4 10  1  0  0  0  0
  5  6  1  0  0  0  0
  5  8  1  0  0  0  0
  6  7  2  0  0  0  0
  8  9  1  0  0  0  0
  9 10  2  0  0  0  0
M  END
>  <CHROM.1>
11.48358949,11.28634195,6.90914320,0.43422692,-1.32052532,0.95448196

>  <Name>
ligand

>  <RI>
0

>  <Rbt.Current_Directory>
/home/itssahil/PROJECTS/Mol_Feturizer/Test_systems_manuscript/rnas/4fe5

>  <Rbt.Executable>
rbdock ($Id: //depot/dev/client3/rdock/2013.1/src/exe/rbdock.cxx#4 $)

>  <Rbt.Library>
libRbt.so (2013.1, Build901 2013/11/27)

>  <Rbt.Parameter_File>
/export/apps/rDock/src/rDock_2013.1_src/data/scripts/dock_solv.prm

>  <Rbt.Receptor>
prm/pocket_docking_7.prm

>  <SCORE>
-17.467

>  <SCORE.INTER>
-17.467

>  <SCORE.INTER.CONST>
1

>  <SCORE.INTER.POLAR>
0

>  <SCORE.INTER.ROT>
0

>  <SCORE.INTER.SOLV>
3.73963

>  <SCORE.INTER.VDW>
-16.4912

>  <SCORE.INTER.norm>
-1.7467

>  <SCORE.INTRA>
0

>  <SCORE.INTRA.DIHEDRAL>
0

>  <SCORE.INTRA.DIHEDRAL.0>
0

>  <SCORE.INTRA.POLAR>
0

>  <SCORE.INTRA.POLAR.0>
0

>  <SCORE.INTRA.REPUL>
0

>  <SCORE.INTRA.REPUL.0>
0

>  <SCORE.INTRA.SOLV>
0

>  <SCORE.INTRA.SOLV.lig_0>
-4.28333

>  <SCORE.INTRA.VDW>
0

>  <SCORE.INTRA.VDW.0>
0

>  <SCORE.INTRA.norm>
0

>  <SCORE.RESTR>
0

>  <SCORE.RESTR.CAVITY>
0

>  <SCORE.RESTR.norm>
0

>  <SCORE.SYSTEM>
0

>  <SCORE.SYSTEM.CONST>
0

>  <SCORE.SYSTEM.DIHEDRAL>
0

>  <SCORE.SYSTEM.SOLV>
0

>  <SCORE.SYSTEM.norm>
0

>  <SCORE.heavy>
10

>  <SCORE.norm>
-1.7467

>  <RMSD>
0.446

$$$$
ligand
 OpenBabel02271912143D
libRbt.so/2013.1/901 2013/11/27
 10 11  0  0  0  0  0  0  0  0999 V2000
   11.8414   10.8740    8.7722 N   0  0  0  0  0  0  0  0  0  0  0  0
   11.5721   12.2193    8.8649 C   0  0  0  0  0  0  0  0  0  0  0  0
   11.2642   12.9554    7.7954 N   0  0  0  0  0  0  0  0  0  0  0  0
   11.2481   12.2430    6.6330 C   0  0  0  0  0  0  0  0  0  0  0  0
   11.5097   10.8966    6.4728 C   0  0  0  0  0  0  0  0  0  0  0  0
   11.8370   10.1055    7.6079 C   0  0  0  0  0  0  0  0  0  0  0  0
   12.1013    8.9002    7.6946 O   0  0  0  0  0  0  0  0  0  0  0  0
   11.3863   10.5865    5.1476 N   0  0  0  0  0  0  0  0  0  0  0  0
   11.0506   11.7317    4.5095 C   0  0  0  0  0  0  0  0  0  0  0  0
   10.9580   12.7773    5.4026 N   0  0  0  0  0  0  0  0  0  0  0  0
  1  2  1  0  0  0  0
  1  6  1  0  0  0  0
  2  3  2  0  0  0  0
  3  4  1  0  0  0  0
  4  5  2  0  0  0  0
  4 10  1  0  0  0  0
  5  6  1  0  0  0  0
  5  8  1  0  0  0  0
  6  7  2  0  0  0  0
  8  9  1  0  0  0  0
  9 10  2  0  0  0  0
M  END
>  <CHROM.1>
11.48881196,11.28397946,6.90766205,0.45296127,-1.32173498,0.97421149

>  <Name>
ligand

>  <RI>
0

>  <Rbt.Current_Directory>
/home/itssahil/PROJECTS/Mol_Feturizer/Test_systems_manuscript/rnas/4fe5

>  <Rbt.Executable>
rbdock ($Id: //depot/dev/client3/rdock/2013.1/src/exe/rbdock.cxx#4 $)

>  <Rbt.Library>
libRbt.so (2013.1, Build901 2013/11/27)

>  <Rbt.Parameter_File>
/export/apps/rDock/src/rDock_2013.1_src/data/scripts/dock_solv.prm

>  <Rbt.Receptor>
prm/pocket_docking_7.prm

>  <SCORE>
-17.4618

>  <SCORE.INTER>
-17.4618

>  <SCORE.INTER.CONST>
1

>  <SCORE.INTER.POLAR>
0

>  <SCORE.INTER.ROT>
0

>  <SCORE.INTER.SOLV>
3.73816

>  <SCORE.INTER.VDW>
-16.4872

>  <SCORE.INTER.norm>
-1.74618

>  <SCORE.INTRA>
0

>  <SCORE.INTRA.DIHEDRAL>
0

>  <SCORE.INTRA.DIHEDRAL.0>
0

>  <SCORE.INTRA.POLAR>
0

>  <SCORE.INTRA.POLAR.0>
0

>  <SCORE.INTRA.REPUL>
0

>  <SCORE.INTRA.REPUL.0>
0

>  <SCORE.INTRA.SOLV>
0

>  <SCORE.INTRA.SOLV.lig_0>
-4.28333

>  <SCORE.INTRA.VDW>
0

>  <SCORE.INTRA.VDW.0>
0

>  <SCORE.INTRA.norm>
0

>  <SCORE.RESTR>
0

>  <SCORE.RESTR.CAVITY>
0

>  <SCORE.RESTR.norm>
0

>  <SCORE.SYSTEM>
0

>  <SCORE.SYSTEM.CONST>
0

>  <SCORE.SYSTEM.DIHEDRAL>
0

>  <SCORE.SYSTEM.SOLV>
0

>  <SCORE.SYSTEM.norm>
0

>  <SCORE.heavy>
10

>  <SCORE.norm>
-1.74618

>  <RMSD>
0.446

$$$$
ligand
 OpenBabel02271912143D
libRbt.so/2013.1/901 2013/11/27
 10 11  0  0  0  0  0  0  0  0999 V2000
   11.8429   10.8750    8.7716 N   0  0  0  0  0  0  0  0  0  0  0  0
   11.5741   12.2204    8.8650 C   0  0  0  0  0  0  0  0  0  0  0  0
   11.2633   12.9565    7.7965 N   0  0  0  0  0  0  0  0  0  0  0  0
   11.2436   12.2442    6.6342 C   0  0  0  0  0  0  0  0  0  0  0  0
   11.5044   10.8977    6.4731 C   0  0  0  0  0  0  0  0  0  0  0  0
   11.8349   10.1065    7.6072 C   0  0  0  0  0  0  0  0  0  0  0  0
   12.0992    8.9011    7.6930 O   0  0  0  0  0  0  0  0  0  0  0  0
   11.3770   10.5877    5.1482 N   0  0  0  0  0  0  0  0  0  0  0  0
   11.0397   11.7330    4.5112 C   0  0  0  0  0  0  0  0  0  0  0  0
   10.9500   12.7786    5.4047 N   0  0  0  0  0  0  0  0  0  0  0  0
  1  2  1  0  0  0  0
  1  6  1  0  0  0  0
  2  3  2  0  0  0  0
  3  4  1  0  0  0  0
  4  5  2  0  0  0  0
  4 10  1  0  0  0  0
  5  6  1  0  0  0  0
  5  8  1  0  0  0  0
  6  7  2  0  0  0  0
  8  9  1  0  0  0  0
  9 10  2  0  0  0  0
M  END
>  <CHROM.1>
11.48491142,11.28510410,6.90804029,0.44263156,-1.32026172,0.96424873

>  <Name>
ligand

>  <RI>
0

>  <Rbt.Current_Directory>
/home/itssahil/PROJECTS/Mol_Feturizer/Test_systems_manuscript/rnas/4fe5

>  <Rbt.Executable>
rbdock ($Id: //depot/dev/client3/rdock/2013.1/src/exe/rbdock.cxx#4 $)

>  <Rbt.Library>
libRbt.so (2013.1, Build901 2013/11/27)

>  <Rbt.Parameter_File>
/export/apps/rDock/src/rDock_2013.1_src/data/scripts/dock_solv.prm

>  <Rbt.Receptor>
prm/pocket_docking_7.prm

>  <SCORE>
-17.4642

>  <SCORE.INTER>
-17.4642

>  <SCORE.INTER.CONST>
1

>  <SCORE.INTER.POLAR>
0

>  <SCORE.INTER.ROT>
0

>  <SCORE.INTER.SOLV>
3.73602

>  <SCORE.INTER.VDW>
-16.4882

>  <SCORE.INTER.norm>
-1.74642

>  <SCORE.INTRA>
0

>  <SCORE.INTRA.DIHEDRAL>
0

>  <SCORE.INTRA.DIHEDRAL.0>
0

>  <SCORE.INTRA.POLAR>
0

>  <SCORE.INTRA.POLAR.0>
0

>  <SCORE.INTRA.REPUL>
0

>  <SCORE.INTRA.REPUL.0>
0

>  <SCORE.INTRA.SOLV>
0

>  <SCORE.INTRA.SOLV.lig_0>
-4.28333

>  <SCORE.INTRA.VDW>
0

>  <SCORE.INTRA.VDW.0>
0

>  <SCORE.INTRA.norm>
0

>  <SCORE.RESTR>
0

>  <SCORE.RESTR.CAVITY>
0

>  <SCORE.RESTR.norm>
0

>  <SCORE.SYSTEM>
0

>  <SCORE.SYSTEM.CONST>
0

>  <SCORE.SYSTEM.DIHEDRAL>
0

>  <SCORE.SYSTEM.SOLV>
0

>  <SCORE.SYSTEM.norm>
0

>  <SCORE.heavy>
10

>  <SCORE.norm>
-1.74642

>  <RMSD>
0.446

$$$$
ligand
 OpenBabel02271912143D
libRbt.so/2013.1/901 2013/11/27
 10 11  0  0  0  0  0  0  0  0999 V2000
   11.8637   10.8593    8.7623 N   0  0  0  0  0  0  0  0  0  0  0  0
   11.6090   12.2062    8.8716 C   0  0  0  0  0  0  0  0  0  0  0  0
   11.2931   12.9555    7.8137 N   0  0  0  0  0  0  0  0  0  0  0  0
   11.2532   12.2545    6.6450 C   0  0  0  0  0  0  0  0  0  0  0  0
   11.4990   10.9071    6.4682 C   0  0  0  0  0  0  0  0  0  0  0  0
   11.8349   10.1020    7.5909 C   0  0  0  0  0  0  0  0  0  0  0  0
   12.0884    8.8935    7.6624 O   0  0  0  0  0  0  0  0  0  0  0  0
   11.3534   10.6110    5.1421 N   0  0  0  0  0  0  0  0  0  0  0  0
   11.0199   11.7655    4.5198 C   0  0  0  0  0  0  0  0  0  0  0  0
   10.9506   12.8034    5.4241 N   0  0  0  0  0  0  0  0  0  0  0  0
  1  2  1  0  0  0  0
  1  6  1  0  0  0  0
  2  3  2  0  0  0  0
  3  4  1  0  0  0  0
  4  5  2  0  0  0  0
  4 10  1  0  0  0  0
  5  6  1  0  0  0  0
  5  8  1  0  0  0  0
  6  7  2  0  0  0  0
  8  9  1  0  0  0  0
  9 10  2  0  0  0  0
M  END
>  <CHROM.1>
11.48826967,11.29054103,6.90702711,0.38199870,-1.32121148,0.91495799

>  <Name>
ligand

>  <RI>
0

>  <Rbt.Current_Directory>
/home/itssahil/PROJECTS/Mol_Feturizer/Test_systems_manuscript/rnas/4fe5

>  <Rbt.Executable>
rbdock ($Id: //depot/dev/client3/rdock/2013.1/src/exe/rbdock.cxx#4 $)

>  <Rbt.Library>
libRbt.so (2013.1, Build901 2013/11/27)

>  <Rbt.Parameter_File>
/export/apps/rDock/src/rDock_2013.1_src/data/scripts/dock_solv.prm

>  <Rbt.Receptor>
prm/pocket_docking_8.prm

>  <SCORE>
-17.4406

>  <SCORE.INTER>
-17.4406

>  <SCORE.INTER.CONST>
1

>  <SCORE.INTER.POLAR>
0

>  <SCORE.INTER.ROT>
0

>  <SCORE.INTER.SOLV>
3.72148

>  <SCORE.INTER.VDW>
-16.4676

>  <SCORE.INTER.norm>
-1.74406

>  <SCORE.INTRA>
0

>  <SCORE.INTRA.DIHEDRAL>
0

>  <SCORE.INTRA.DIHEDRAL.0>
0

>  <SCORE.INTRA.POLAR>
0

>  <SCORE.INTRA.POLAR.0>
0

>  <SCORE.INTRA.REPUL>
0

>  <SCORE.INTRA.REPUL.0>
0

>  <SCORE.INTRA.SOLV>
0

>  <SCORE.INTRA.SOLV.lig_0>
-4.28333

>  <SCORE.INTRA.VDW>
0

>  <SCORE.INTRA.VDW.0>
0

>  <SCORE.INTRA.norm>
0

>  <SCORE.RESTR>
0

>  <SCORE.RESTR.CAVITY>
0

>  <SCORE.RESTR.norm>
0

>  <SCORE.SYSTEM>
0

>  <SCORE.SYSTEM.CONST>
0

>  <SCORE.SYSTEM.DIHEDRAL>
0

>  <SCORE.SYSTEM.SOLV>
0

>  <SCORE.SYSTEM.norm>
0

>  <SCORE.heavy>
10

>  <SCORE.norm>
-1.74406

>  <RMSD>
0.446

$$$$
ligand
 OpenBabel02271912143D
libRbt.so/2013.1/901 2013/11/27
 10 11  0  0  0  0  0  0  0  0999 V2000
   11.8727   10.9108    8.7587 N   0  0  0  0  0  0  0  0  0  0  0  0
   11.5780   12.2516    8.8390 C   0  0  0  0  0  0  0  0  0  0  0  0
   11.2294   12.9657    7.7672 N   0  0  0  0  0  0  0  0  0  0  0  0
   11.2001   12.2364    6.6156 C   0  0  0  0  0  0  0  0  0  0  0  0
   11.4854   10.8933    6.4679 C   0  0  0  0  0  0  0  0  0  0  0  0
   11.8562   10.1256    7.6056 C   0  0  0  0  0  0  0  0  0  0  0  0
   12.1472    8.9273    7.7027 O   0  0  0  0  0  0  0  0  0  0  0  0
   11.3365   10.5617    5.1505 N   0  0  0  0  0  0  0  0  0  0  0  0
   10.9621   11.6905    4.5049 C   0  0  0  0  0  0  0  0  0  0  0  0
   10.8695   12.7469    5.3853 N   0  0  0  0  0  0  0  0  0  0  0  0
  1  2  1  0  0  0  0
  1  6  1  0  0  0  0
  2  3  2  0  0  0  0
  3  4  1  0  0  0  0
  4  5  2  0  0  0  0
  4 10  1  0  0  0  0
  5  6  1  0  0  0  0
  5  8  1  0  0  0  0
  6  7  2  0  0  0  0
  8  9  1  0  0  0  0
  9 10  2  0  0  0  0
M  END
>  <CHROM.1>
11.46699542,11.28652310,6.89766892,0.42279261,-1.29107021,0.93086231

>  <Name>
ligand

>  <RI>
0

>  <Rbt.Current_Directory>
/home/itssahil/PROJECTS/Mol_Feturizer/Test_systems_manuscript/rnas/4fe5

>  <Rbt.Executable>
rbdock ($Id: //depot/dev/client3/rdock/2013.1/src/exe/rbdock.cxx#4 $)

>  <Rbt.Library>
libRbt.so (2013.1, Build901 2013/11/27)

>  <Rbt.Parameter_File>
/export/apps/rDock/src/rDock_2013.1_src/data/scripts/dock_solv.prm

>  <Rbt.Receptor>
prm/blind_docking_100.prm

>  <SCORE>
-17.3687

>  <SCORE.INTER>
-17.3687

>  <SCORE.INTER.CONST>
1

>  <SCORE.INTER.POLAR>
0

>  <SCORE.INTER.ROT>
0

>  <SCORE.INTER.SOLV>
3.66855

>  <SCORE.INTER.VDW>
-16.402

>  <SCORE.INTER.norm>
-1.73687

>  <SCORE.INTRA>
0

>  <SCORE.INTRA.DIHEDRAL>
0

>  <SCORE.INTRA.DIHEDRAL.0>
0

>  <SCORE.INTRA.POLAR>
0

>  <SCORE.INTRA.POLAR.0>
0

>  <SCORE.INTRA.REPUL>
0

>  <SCORE.INTRA.REPUL.0>
0

>  <SCORE.INTRA.SOLV>
0

>  <SCORE.INTRA.SOLV.lig_0>
-4.28333

>  <SCORE.INTRA.VDW>
0

>  <SCORE.INTRA.VDW.0>
0

>  <SCORE.INTRA.norm>
0

>  <SCORE.RESTR>
0

>  <SCORE.RESTR.CAVITY>
0

>  <SCORE.RESTR.norm>
0

>  <SCORE.SYSTEM>
0

>  <SCORE.SYSTEM.CONST>
0

>  <SCORE.SYSTEM.DIHEDRAL>
0

>  <SCORE.SYSTEM.SOLV>
0

>  <SCORE.SYSTEM.norm>
0

>  <SCORE.heavy>
10

>  <SCORE.norm>
-1.73687

>  <RMSD>
0.447

$$$$
ligand
 OpenBabel02271912143D
libRbt.so/2013.1/901 2013/11/27
 10 11  0  0  0  0  0  0  0  0999 V2000
   11.8723   10.7133    8.6798 N   0  0  0  0  0  0  0  0  0  0  0  0
   11.4880   12.0216    8.8577 C   0  0  0  0  0  0  0  0  0  0  0  0
   11.1156   12.7956    7.8367 N   0  0  0  0  0  0  0  0  0  0  0  0
   11.1586   12.1607    6.6309 C   0  0  0  0  0  0  0  0  0  0  0  0
   11.5351   10.8549    6.3854 C   0  0  0  0  0  0  0  0  0  0  0  0
   11.9319   10.0237    7.4684 C   0  0  0  0  0  0  0  0  0  0  0  0
   12.2993    8.8426    7.4785 O   0  0  0  0  0  0  0  0  0  0  0  0
   11.4361   10.6212    5.0426 N   0  0  0  0  0  0  0  0  0  0  0  0
   11.0015   11.7719    4.4782 C   0  0  0  0  0  0  0  0  0  0  0  0
   10.8209   12.7460    5.4364 N   0  0  0  0  0  0  0  0  0  0  0  0
  1  2  1  0  0  0  0
  1  6  1  0  0  0  0
  2  3  2  0  0  0  0
  3  4  1  0  0  0  0
  4  5  2  0  0  0  0
  4 10  1  0  0  0  0
  5  6  1  0  0  0  0
  5  8  1  0  0  0  0
  6  7  2  0  0  0  0
  8  9  1  0  0  0  0
  9 10  2  0  0  0  0
M  END
>  <CHROM.1>
11.48174415,11.21034996,6.84417879,0.59989559,-1.24575115,1.17968680

>  <Name>
ligand

>  <RI>
0

>  <Rbt.Current_Directory>
/home/itssahil/PROJECTS/Mol_Feturizer/Test_systems_manuscript/rnas/4fe5

>  <Rbt.Executable>
rbdock ($Id: //depot/dev/client3/rdock/2013.1/src/exe/rbdock.cxx#4 $)

>  <Rbt.Library>
libRbt.so (2013.1, Build901 2013/11/27)

>  <Rbt.Parameter_File>
/export/apps/rDock/src/rDock_2013.1_src/data/scripts/dock_solv.prm

>  <Rbt.Receptor>
prm/blind_docking_20.prm

>  <SCORE>
-17.2156

>  <SCORE.INTER>
-17.2157

>  <SCORE.INTER.CONST>
1

>  <SCORE.INTER.POLAR>
0

>  <SCORE.INTER.ROT>
0

>  <SCORE.INTER.SOLV>
3.4887

>  <SCORE.INTER.VDW>
-16.2401

>  <SCORE.INTER.norm>
-1.72157

>  <SCORE.INTRA>
0

>  <SCORE.INTRA.DIHEDRAL>
0

>  <SCORE.INTRA.DIHEDRAL.0>
0

>  <SCORE.INTRA.POLAR>
0

>  <SCORE.INTRA.POLAR.0>
0

>  <SCORE.INTRA.REPUL>
0

>  <SCORE.INTRA.REPUL.0>
0

>  <SCORE.INTRA.SOLV>
0

>  <SCORE.INTRA.SOLV.lig_0>
-4.28333

>  <SCORE.INTRA.VDW>
0

>  <SCORE.INTRA.VDW.0>
0

>  <SCORE.INTRA.norm>
0

>  <SCORE.RESTR>
0.000146092

>  <SCORE.RESTR.CAVITY>
0.000146092

>  <SCORE.RESTR.norm>
1.46092e-05

>  <SCORE.SYSTEM>
0

>  <SCORE.SYSTEM.CONST>
0

>  <SCORE.SYSTEM.DIHEDRAL>
0

>  <SCORE.SYSTEM.SOLV>
0

>  <SCORE.SYSTEM.norm>
0

>  <SCORE.heavy>
10

>  <SCORE.norm>
-1.72156

>  <RMSD>
0.447

$$$$
ligand
 OpenBabel02271912143D
libRbt.so/2013.1/901 2013/11/27
 10 11  0  0  0  0  0  0  0  0999 V2000
   11.8591   10.8418    8.7525 N   0  0  0  0  0  0  0  0  0  0  0  0
   11.5998   12.1882    8.8577 C   0  0  0  0  0  0  0  0  0  0  0  0
   11.2839   12.9337    7.7972 N   0  0  0  0  0  0  0  0  0  0  0  0
   11.2490   12.2296    6.6302 C   0  0  0  0  0  0  0  0  0  0  0  0
   11.4997   10.8825    6.4575 C   0  0  0  0  0  0  0  0  0  0  0  0
   11.8355   10.0814    7.5831 C   0  0  0  0  0  0  0  0  0  0  0  0
   12.0928    8.8739    7.6582 O   0  0  0  0  0  0  0  0  0  0  0  0
   11.3582   10.5826    5.1318 N   0  0  0  0  0  0  0  0  0  0  0  0
   11.0224   11.7343    4.5058 C   0  0  0  0  0  0  0  0  0  0  0  0
   10.9476   12.7743    5.4071 N   0  0  0  0  0  0  0  0  0  0  0  0
  1  2  1  0  0  0  0
  1  6  1  0  0  0  0
  2  3  2  0  0  0  0
  3  4  1  0  0  0  0
  4  5  2  0  0  0  0
  4 10  1  0  0  0  0
  5  6  1  0  0  0  0
  5  8  1  0  0  0  0
  6  7  2  0  0  0  0
  8  9  1  0  0  0  0
  9 10  2  0  0  0  0
M  END
>  <CHROM.1>
11.48665263,11.26705188,6.89526463,0.39758823,-1.32004596,0.92749144

>  <Name>
ligand

>  <RI>
0

>  <Rbt.Current_Directory>
/home/itssahil/PROJECTS/Mol_Feturizer/Test_systems_manuscript/rnas/4fe5

>  <Rbt.Executable>
rbdock ($Id: //depot/dev/client3/rdock/2013.1/src/exe/rbdock.cxx#4 $)

>  <Rbt.Library>
libRbt.so (2013.1, Build901 2013/11/27)

>  <Rbt.Parameter_File>
/export/apps/rDock/src/rDock_2013.1_src/data/scripts/dock_solv.prm

>  <Rbt.Receptor>
prm/blind_docking_60.prm

>  <SCORE>
-17.4272

>  <SCORE.INTER>
-17.4272

>  <SCORE.INTER.CONST>
1

>  <SCORE.INTER.POLAR>
0

>  <SCORE.INTER.ROT>
0

>  <SCORE.INTER.SOLV>
3.72216

>  <SCORE.INTER.VDW>
-16.4588

>  <SCORE.INTER.norm>
-1.74272

>  <SCORE.INTRA>
0

>  <SCORE.INTRA.DIHEDRAL>
0

>  <SCORE.INTRA.DIHEDRAL.0>
0

>  <SCORE.INTRA.POLAR>
0

>  <SCORE.INTRA.POLAR.0>
0

>  <SCORE.INTRA.REPUL>
0

>  <SCORE.INTRA.REPUL.0>
0

>  <SCORE.INTRA.SOLV>
0

>  <SCORE.INTRA.SOLV.lig_0>
-4.28333

>  <SCORE.INTRA.VDW>
0

>  <SCORE.INTRA.VDW.0>
0

>  <SCORE.INTRA.norm>
0

>  <SCORE.RESTR>
0

>  <SCORE.RESTR.CAVITY>
0

>  <SCORE.RESTR.norm>
0

>  <SCORE.SYSTEM>
0

>  <SCORE.SYSTEM.CONST>
0

>  <SCORE.SYSTEM.DIHEDRAL>
0

>  <SCORE.SYSTEM.SOLV>
0

>  <SCORE.SYSTEM.norm>
0

>  <SCORE.heavy>
10

>  <SCORE.norm>
-1.74272

>  <RMSD>
0.447

$$$$
ligand
 OpenBabel02271912143D
libRbt.so/2013.1/901 2013/11/27
 10 11  0  0  0  0  0  0  0  0999 V2000
   11.8392   10.8506    8.7659 N   0  0  0  0  0  0  0  0  0  0  0  0
   11.5820   12.1977    8.8664 C   0  0  0  0  0  0  0  0  0  0  0  0
   11.2736   12.9413    7.8023 N   0  0  0  0  0  0  0  0  0  0  0  0
   11.2440   12.2344    6.6368 C   0  0  0  0  0  0  0  0  0  0  0  0
   11.4930   10.8865    6.4687 C   0  0  0  0  0  0  0  0  0  0  0  0
   11.8208   10.0874    7.5981 C   0  0  0  0  0  0  0  0  0  0  0  0
   12.0753    8.8796    7.6776 O   0  0  0  0  0  0  0  0  0  0  0  0
   11.3584   10.5836    5.1430 N   0  0  0  0  0  0  0  0  0  0  0  0
   11.0284   11.7345    4.5123 C   0  0  0  0  0  0  0  0  0  0  0  0
   10.9505   12.7768    5.4107 N   0  0  0  0  0  0  0  0  0  0  0  0
  1  2  1  0  0  0  0
  1  6  1  0  0  0  0
  2  3  2  0  0  0  0
  3  4  1  0  0  0  0
  4  5  2  0  0  0  0
  4 10  1  0  0  0  0
  5  6  1  0  0  0  0
  5  8  1  0  0  0  0
  6  7  2  0  0  0  0
  8  9  1  0  0  0  0
  9 10  2  0  0  0  0
M  END
>  <CHROM.1>
11.47818587,11.27208493,6.90550897,0.41141718,-1.32500127,0.93849645

>  <Name>
ligand

>  <RI>
0

>  <Rbt.Current_Directory>
/home/itssahil/PROJECTS/Mol_Feturizer/Test_systems_manuscript/rnas/4fe5

>  <Rbt.Executable>
rbdock ($Id: //depot/dev/client3/rdock/2013.1/src/exe/rbdock.cxx#4 $)

>  <Rbt.Library>
libRbt.so (2013.1, Build901 2013/11/27)

>  <Rbt.Parameter_File>
/export/apps/rDock/src/rDock_2013.1_src/data/scripts/dock_solv.prm

>  <Rbt.Receptor>
prm/pocket_docking_4.prm

>  <SCORE>
-17.416

>  <SCORE.INTER>
-17.416

>  <SCORE.INTER.CONST>
1

>  <SCORE.INTER.POLAR>
0

>  <SCORE.INTER.ROT>
0

>  <SCORE.INTER.SOLV>
3.74987

>  <SCORE.INTER.VDW>
-16.4606

>  <SCORE.INTER.norm>
-1.7416

>  <SCORE.INTRA>
0

>  <SCORE.INTRA.DIHEDRAL>
0

>  <SCORE.INTRA.DIHEDRAL.0>
0

>  <SCORE.INTRA.POLAR>
0

>  <SCORE.INTRA.POLAR.0>
0

>  <SCORE.INTRA.REPUL>
0

>  <SCORE.INTRA.REPUL.0>
0

>  <SCORE.INTRA.SOLV>
0

>  <SCORE.INTRA.SOLV.lig_0>
-4.28333

>  <SCORE.INTRA.VDW>
0

>  <SCORE.INTRA.VDW.0>
0

>  <SCORE.INTRA.norm>
0

>  <SCORE.RESTR>
0

>  <SCORE.RESTR.CAVITY>
0

>  <SCORE.RESTR.norm>
0

>  <SCORE.SYSTEM>
0

>  <SCORE.SYSTEM.CONST>
0

>  <SCORE.SYSTEM.DIHEDRAL>
0

>  <SCORE.SYSTEM.SOLV>
0

>  <SCORE.SYSTEM.norm>
0

>  <SCORE.heavy>
10

>  <SCORE.norm>
-1.7416

>  <RMSD>
0.447

$$$$
ligand
 OpenBabel02271912143D
libRbt.so/2013.1/901 2013/11/27
 10 11  0  0  0  0  0  0  0  0999 V2000
   11.8041   10.9684    8.8279 N   0  0  0  0  0  0  0  0  0  0  0  0
   11.5176   12.3130    8.8582 C   0  0  0  0  0  0  0  0  0  0  0  0
   11.2028   12.9952    7.7555 N   0  0  0  0  0  0  0  0  0  0  0  0
   11.1984   12.2301    6.6270 C   0  0  0  0  0  0  0  0  0  0  0  0
   11.4774   10.8811    6.5292 C   0  0  0  0  0  0  0  0  0  0  0  0
   11.8121   10.1472    7.7000 C   0  0  0  0  0  0  0  0  0  0  0  0
   12.0914    8.9506    7.8424 O   0  0  0  0  0  0  0  0  0  0  0  0
   11.3609   10.5090    5.2195 N   0  0  0  0  0  0  0  0  0  0  0  0
   11.0122   11.6194    4.5289 C   0  0  0  0  0  0  0  0  0  0  0  0
   10.9043   12.7036    5.3729 N   0  0  0  0  0  0  0  0  0  0  0  0
  1  2  1  0  0  0  0
  1  6  1  0  0  0  0
  2  3  2  0  0  0  0
  3  4  1  0  0  0  0
  4  5  2  0  0  0  0
  4 10  1  0  0  0  0
  5  6  1  0  0  0  0
  5  8  1  0  0  0  0
  6  7  2  0  0  0  0
  8  9  1  0  0  0  0
  9 10  2  0  0  0  0
M  END
>  <CHROM.1>
11.45060488,11.28779104,6.94584602,0.48812918,-1.31238466,0.96232375

>  <Name>
ligand

>  <RI>
0

>  <Rbt.Current_Directory>
/home/itssahil/PROJECTS/Mol_Feturizer/Test_systems_manuscript/rnas/4fe5

>  <Rbt.Executable>
rbdock ($Id: //depot/dev/client3/rdock/2013.1/src/exe/rbdock.cxx#4 $)

>  <Rbt.Library>
libRbt.so (2013.1, Build901 2013/11/27)

>  <Rbt.Parameter_File>
/export/apps/rDock/src/rDock_2013.1_src/data/scripts/dock_solv.prm

>  <Rbt.Receptor>
prm/pocket_docking_6.prm

>  <SCORE>
-17.3941

>  <SCORE.INTER>
-17.3941

>  <SCORE.INTER.CONST>
1

>  <SCORE.INTER.POLAR>
0

>  <SCORE.INTER.ROT>
0

>  <SCORE.INTER.SOLV>
3.80221

>  <SCORE.INTER.VDW>
-16.4635

>  <SCORE.INTER.norm>
-1.73941

>  <SCORE.INTRA>
0

>  <SCORE.INTRA.DIHEDRAL>
0

>  <SCORE.INTRA.DIHEDRAL.0>
0

>  <SCORE.INTRA.POLAR>
0

>  <SCORE.INTRA.POLAR.0>
0

>  <SCORE.INTRA.REPUL>
0

>  <SCORE.INTRA.REPUL.0>
0

>  <SCORE.INTRA.SOLV>
0

>  <SCORE.INTRA.SOLV.lig_0>
-4.28333

>  <SCORE.INTRA.VDW>
0

>  <SCORE.INTRA.VDW.0>
0

>  <SCORE.INTRA.norm>
0

>  <SCORE.RESTR>
0

>  <SCORE.RESTR.CAVITY>
0

>  <SCORE.RESTR.norm>
0

>  <SCORE.SYSTEM>
0

>  <SCORE.SYSTEM.CONST>
0

>  <SCORE.SYSTEM.DIHEDRAL>
0

>  <SCORE.SYSTEM.SOLV>
0

>  <SCORE.SYSTEM.norm>
0

>  <SCORE.heavy>
10

>  <SCORE.norm>
-1.73941

>  <RMSD>
0.447

$$$$
ligand
 OpenBabel02271912143D
libRbt.so/2013.1/901 2013/11/27
 10 11  0  0  0  0  0  0  0  0999 V2000
   11.9087   10.8713    8.7311 N   0  0  0  0  0  0  0  0  0  0  0  0
   11.6116   12.2092    8.8448 C   0  0  0  0  0  0  0  0  0  0  0  0
   11.2648   12.9498    7.7905 N   0  0  0  0  0  0  0  0  0  0  0  0
   11.2398   12.2500    6.6206 C   0  0  0  0  0  0  0  0  0  0  0  0
   11.5278   10.9116    6.4395 C   0  0  0  0  0  0  0  0  0  0  0  0
   11.8966   10.1157    7.5584 C   0  0  0  0  0  0  0  0  0  0  0  0
   12.1893    8.9157    7.6257 O   0  0  0  0  0  0  0  0  0  0  0  0
   11.3830   10.6134    5.1137 N   0  0  0  0  0  0  0  0  0  0  0  0
   11.0085   11.7577    4.4960 C   0  0  0  0  0  0  0  0  0  0  0  0
   10.9118   12.7912    5.4028 N   0  0  0  0  0  0  0  0  0  0  0  0
  1  2  1  0  0  0  0
  1  6  1  0  0  0  0
  2  3  2  0  0  0  0
  3  4  1  0  0  0  0
  4  5  2  0  0  0  0
  4 10  1  0  0  0  0
  5  6  1  0  0  0  0
  5  8  1  0  0  0  0
  6  7  2  0  0  0  0
  8  9  1  0  0  0  0
  9 10  2  0  0  0  0
M  END
>  <CHROM.1>
11.50752423,11.29366877,6.87916774,0.43430171,-1.29138448,0.96739884

>  <Name>
ligand

>  <RI>
0

>  <Rbt.Current_Directory>
/home/itssahil/PROJECTS/Mol_Feturizer/Test_systems_manuscript/rnas/4fe5

>  <Rbt.Executable>
rbdock ($Id: //depot/dev/client3/rdock/2013.1/src/exe/rbdock.cxx#4 $)

>  <Rbt.Library>
libRbt.so (2013.1, Build901 2013/11/27)

>  <Rbt.Parameter_File>
/export/apps/rDock/src/rDock_2013.1_src/data/scripts/dock_solv.prm

>  <Rbt.Receptor>
prm/pocket_docking_7.prm

>  <SCORE>
-17.4024

>  <SCORE.INTER>
-17.4024

>  <SCORE.INTER.CONST>
1

>  <SCORE.INTER.POLAR>
0

>  <SCORE.INTER.ROT>
0

>  <SCORE.INTER.SOLV>
3.60685

>  <SCORE.INTER.VDW>
-16.4039

>  <SCORE.INTER.norm>
-1.74024

>  <SCORE.INTRA>
0

>  <SCORE.INTRA.DIHEDRAL>
0

>  <SCORE.INTRA.DIHEDRAL.0>
0

>  <SCORE.INTRA.POLAR>
0

>  <SCORE.INTRA.POLAR.0>
0

>  <SCORE.INTRA.REPUL>
0

>  <SCORE.INTRA.REPUL.0>
0

>  <SCORE.INTRA.SOLV>
0

>  <SCORE.INTRA.SOLV.lig_0>
-4.28333

>  <SCORE.INTRA.VDW>
0

>  <SCORE.INTRA.VDW.0>
0

>  <SCORE.INTRA.norm>
0

>  <SCORE.RESTR>
0

>  <SCORE.RESTR.CAVITY>
0

>  <SCORE.RESTR.norm>
0

>  <SCORE.SYSTEM>
0

>  <SCORE.SYSTEM.CONST>
0

>  <SCORE.SYSTEM.DIHEDRAL>
0

>  <SCORE.SYSTEM.SOLV>
0

>  <SCORE.SYSTEM.norm>
0

>  <SCORE.heavy>
10

>  <SCORE.norm>
-1.74024

>  <RMSD>
0.447

$$$$
ligand
 OpenBabel02271912143D
libRbt.so/2013.1/901 2013/11/27
 10 11  0  0  0  0  0  0  0  0999 V2000
   11.8994   10.8811    8.7360 N   0  0  0  0  0  0  0  0  0  0  0  0
   11.5973   12.2184    8.8431 C   0  0  0  0  0  0  0  0  0  0  0  0
   11.2543   12.9541    7.7842 N   0  0  0  0  0  0  0  0  0  0  0  0
   11.2384   12.2500    6.6167 C   0  0  0  0  0  0  0  0  0  0  0  0
   11.5317   10.9119    6.4422 C   0  0  0  0  0  0  0  0  0  0  0  0
   11.8967   10.1212    7.5660 C   0  0  0  0  0  0  0  0  0  0  0  0
   12.1929    8.9225    7.6394 O   0  0  0  0  0  0  0  0  0  0  0  0
   11.3957   10.6084    5.1166 N   0  0  0  0  0  0  0  0  0  0  0  0
   11.0211   11.7493    4.4926 C   0  0  0  0  0  0  0  0  0  0  0  0
   10.9158   12.7857    5.3951 N   0  0  0  0  0  0  0  0  0  0  0  0
  1  2  1  0  0  0  0
  1  6  1  0  0  0  0
  2  3  2  0  0  0  0
  3  4  1  0  0  0  0
  4  5  2  0  0  0  0
  4 10  1  0  0  0  0
  5  6  1  0  0  0  0
  5  8  1  0  0  0  0
  6  7  2  0  0  0  0
  8  9  1  0  0  0  0
  9 10  2  0  0  0  0
M  END
>  <CHROM.1>
11.50769444,11.29547100,6.88028393,0.45851348,-1.29194298,0.98705863

>  <Name>
ligand

>  <RI>
0

>  <Rbt.Current_Directory>
/home/itssahil/PROJECTS/Mol_Feturizer/Test_systems_manuscript/rnas/4fe5

>  <Rbt.Executable>
rbdock ($Id: //depot/dev/client3/rdock/2013.1/src/exe/rbdock.cxx#4 $)

>  <Rbt.Library>
libRbt.so (2013.1, Build901 2013/11/27)

>  <Rbt.Parameter_File>
/export/apps/rDock/src/rDock_2013.1_src/data/scripts/dock_solv.prm

>  <Rbt.Receptor>
prm/blind_docking_40.prm

>  <SCORE>
-17.3912

>  <SCORE.INTER>
-17.3912

>  <SCORE.INTER.CONST>
1

>  <SCORE.INTER.POLAR>
0

>  <SCORE.INTER.ROT>
0

>  <SCORE.INTER.SOLV>
3.61483

>  <SCORE.INTER.VDW>
-16.3991

>  <SCORE.INTER.norm>
-1.73912

>  <SCORE.INTRA>
0

>  <SCORE.INTRA.DIHEDRAL>
0

>  <SCORE.INTRA.DIHEDRAL.0>
0

>  <SCORE.INTRA.POLAR>
0

>  <SCORE.INTRA.POLAR.0>
0

>  <SCORE.INTRA.REPUL>
0

>  <SCORE.INTRA.REPUL.0>
0

>  <SCORE.INTRA.SOLV>
0

>  <SCORE.INTRA.SOLV.lig_0>
-4.28333

>  <SCORE.INTRA.VDW>
0

>  <SCORE.INTRA.VDW.0>
0

>  <SCORE.INTRA.norm>
0

>  <SCORE.RESTR>
0

>  <SCORE.RESTR.CAVITY>
0

>  <SCORE.RESTR.norm>
0

>  <SCORE.SYSTEM>
0

>  <SCORE.SYSTEM.CONST>
0

>  <SCORE.SYSTEM.DIHEDRAL>
0

>  <SCORE.SYSTEM.SOLV>
0

>  <SCORE.SYSTEM.norm>
0

>  <SCORE.heavy>
10

>  <SCORE.norm>
-1.73912

>  <RMSD>
0.448

$$$$
ligand
 OpenBabel02271912143D
libRbt.so/2013.1/901 2013/11/27
 10 11  0  0  0  0  0  0  0  0999 V2000
   11.8330   10.8672    8.7659 N   0  0  0  0  0  0  0  0  0  0  0  0
   11.5591   12.2124    8.8458 C   0  0  0  0  0  0  0  0  0  0  0  0
   11.2420   12.9358    7.7704 N   0  0  0  0  0  0  0  0  0  0  0  0
   11.2215   12.2109    6.6158 C   0  0  0  0  0  0  0  0  0  0  0  0
   11.4872   10.8637    6.4684 C   0  0  0  0  0  0  0  0  0  0  0  0
   11.8244   10.0861    7.6099 C   0  0  0  0  0  0  0  0  0  0  0  0
   12.0937    8.8828    7.7079 O   0  0  0  0  0  0  0  0  0  0  0  0
   11.3568   10.5390    5.1474 N   0  0  0  0  0  0  0  0  0  0  0  0
   11.0129   11.6760    4.4992 C   0  0  0  0  0  0  0  0  0  0  0  0
   10.9218   12.7308    5.3816 N   0  0  0  0  0  0  0  0  0  0  0  0
  1  2  1  0  0  0  0
  1  6  1  0  0  0  0
  2  3  2  0  0  0  0
  3  4  1  0  0  0  0
  4  5  2  0  0  0  0
  4 10  1  0  0  0  0
  5  6  1  0  0  0  0
  5  8  1  0  0  0  0
  6  7  2  0  0  0  0
  8  9  1  0  0  0  0
  9 10  2  0  0  0  0
M  END
>  <CHROM.1>
11.46745081,11.25573546,6.89924163,0.44140001,-1.31517554,0.95226420

>  <Name>
ligand

>  <RI>
0

>  <Rbt.Current_Directory>
/home/itssahil/PROJECTS/Mol_Feturizer/Test_systems_manuscript/rnas/4fe5

>  <Rbt.Executable>
rbdock ($Id: //depot/dev/client3/rdock/2013.1/src/exe/rbdock.cxx#4 $)

>  <Rbt.Library>
libRbt.so (2013.1, Build901 2013/11/27)

>  <Rbt.Parameter_File>
/export/apps/rDock/src/rDock_2013.1_src/data/scripts/dock_solv.prm

>  <Rbt.Receptor>
prm/pocket_docking_4.prm

>  <SCORE>
-17.4318

>  <SCORE.INTER>
-17.4318

>  <SCORE.INTER.CONST>
1

>  <SCORE.INTER.POLAR>
0

>  <SCORE.INTER.ROT>
0

>  <SCORE.INTER.SOLV>
3.74664

>  <SCORE.INTER.VDW>
-16.4701

>  <SCORE.INTER.norm>
-1.74318

>  <SCORE.INTRA>
0

>  <SCORE.INTRA.DIHEDRAL>
0

>  <SCORE.INTRA.DIHEDRAL.0>
0

>  <SCORE.INTRA.POLAR>
0

>  <SCORE.INTRA.POLAR.0>
0

>  <SCORE.INTRA.REPUL>
0

>  <SCORE.INTRA.REPUL.0>
0

>  <SCORE.INTRA.SOLV>
0

>  <SCORE.INTRA.SOLV.lig_0>
-4.28333

>  <SCORE.INTRA.VDW>
0

>  <SCORE.INTRA.VDW.0>
0

>  <SCORE.INTRA.norm>
0

>  <SCORE.RESTR>
0

>  <SCORE.RESTR.CAVITY>
0

>  <SCORE.RESTR.norm>
0

>  <SCORE.SYSTEM>
0

>  <SCORE.SYSTEM.CONST>
0

>  <SCORE.SYSTEM.DIHEDRAL>
0

>  <SCORE.SYSTEM.SOLV>
0

>  <SCORE.SYSTEM.norm>
0

>  <SCORE.heavy>
10

>  <SCORE.norm>
-1.74318

>  <RMSD>
0.448

$$$$
ligand
 OpenBabel02271912143D
libRbt.so/2013.1/901 2013/11/27
 10 11  0  0  0  0  0  0  0  0999 V2000
   11.8647   10.8380    8.7414 N   0  0  0  0  0  0  0  0  0  0  0  0
   11.5853   12.1818    8.8254 C   0  0  0  0  0  0  0  0  0  0  0  0
   11.2520   12.9043    7.7543 N   0  0  0  0  0  0  0  0  0  0  0  0
   11.2214   12.1801    6.5996 C   0  0  0  0  0  0  0  0  0  0  0  0
   11.4918   10.8343    6.4481 C   0  0  0  0  0  0  0  0  0  0  0  0
   11.8463   10.0576    7.5850 C   0  0  0  0  0  0  0  0  0  0  0  0
   12.1226    8.8556    7.6790 O   0  0  0  0  0  0  0  0  0  0  0  0
   11.3475   10.5098    5.1285 N   0  0  0  0  0  0  0  0  0  0  0  0
   10.9904   11.6456    4.4852 C   0  0  0  0  0  0  0  0  0  0  0  0
   10.9047   12.6994    5.3693 N   0  0  0  0  0  0  0  0  0  0  0  0
  1  2  1  0  0  0  0
  1  6  1  0  0  0  0
  2  3  2  0  0  0  0
  3  4  1  0  0  0  0
  4  5  2  0  0  0  0
  4 10  1  0  0  0  0
  5  6  1  0  0  0  0
  5  8  1  0  0  0  0
  6  7  2  0  0  0  0
  8  9  1  0  0  0  0
  9 10  2  0  0  0  0
M  END
>  <CHROM.1>
11.47530738,11.22596798,6.87941824,0.41551883,-1.30429976,0.92792564

>  <Name>
ligand

>  <RI>
0

>  <Rbt.Current_Directory>
/home/itssahil/PROJECTS/Mol_Feturizer/Test_systems_manuscript/rnas/4fe5

>  <Rbt.Executable>
rbdock ($Id: //depot/dev/client3/rdock/2013.1/src/exe/rbdock.cxx#4 $)

>  <Rbt.Library>
libRbt.so (2013.1, Build901 2013/11/27)

>  <Rbt.Parameter_File>
/export/apps/rDock/src/rDock_2013.1_src/data/scripts/dock_solv.prm

>  <Rbt.Receptor>
prm/pocket_docking_4.prm

>  <SCORE>
-17.4627

>  <SCORE.INTER>
-17.4628

>  <SCORE.INTER.CONST>
1

>  <SCORE.INTER.POLAR>
0

>  <SCORE.INTER.ROT>
0

>  <SCORE.INTER.SOLV>
3.70008

>  <SCORE.INTER.VDW>
-16.4753

>  <SCORE.INTER.norm>
-1.74628

>  <SCORE.INTRA>
0

>  <SCORE.INTRA.DIHEDRAL>
0

>  <SCORE.INTRA.DIHEDRAL.0>
0

>  <SCORE.INTRA.POLAR>
0

>  <SCORE.INTRA.POLAR.0>
0

>  <SCORE.INTRA.REPUL>
0

>  <SCORE.INTRA.REPUL.0>
0

>  <SCORE.INTRA.SOLV>
0

>  <SCORE.INTRA.SOLV.lig_0>
-4.28333

>  <SCORE.INTRA.VDW>
0

>  <SCORE.INTRA.VDW.0>
0

>  <SCORE.INTRA.norm>
0

>  <SCORE.RESTR>
0.000125453

>  <SCORE.RESTR.CAVITY>
0.000125453

>  <SCORE.RESTR.norm>
1.25453e-05

>  <SCORE.SYSTEM>
0

>  <SCORE.SYSTEM.CONST>
0

>  <SCORE.SYSTEM.DIHEDRAL>
0

>  <SCORE.SYSTEM.SOLV>
0

>  <SCORE.SYSTEM.norm>
0

>  <SCORE.heavy>
10

>  <SCORE.norm>
-1.74627

>  <RMSD>
0.448

$$$$
ligand
 OpenBabel02271912143D
libRbt.so/2013.1/901 2013/11/27
 10 11  0  0  0  0  0  0  0  0999 V2000
   11.8367   10.8621    8.7710 N   0  0  0  0  0  0  0  0  0  0  0  0
   11.5810   12.2097    8.8684 C   0  0  0  0  0  0  0  0  0  0  0  0
   11.2750   12.9515    7.8024 N   0  0  0  0  0  0  0  0  0  0  0  0
   11.2461   12.2424    6.6383 C   0  0  0  0  0  0  0  0  0  0  0  0
   11.4938   10.8938    6.4733 C   0  0  0  0  0  0  0  0  0  0  0  0
   11.8190   10.0966    7.6047 C   0  0  0  0  0  0  0  0  0  0  0  0
   12.0720    8.8886    7.6870 O   0  0  0  0  0  0  0  0  0  0  0  0
   11.3607   10.5885    5.1479 N   0  0  0  0  0  0  0  0  0  0  0  0
   11.0330   11.7385    4.5145 C   0  0  0  0  0  0  0  0  0  0  0  0
   10.9551   12.7827    5.4107 N   0  0  0  0  0  0  0  0  0  0  0  0
  1  2  1  0  0  0  0
  1  6  1  0  0  0  0
  2  3  2  0  0  0  0
  3  4  1  0  0  0  0
  4  5  2  0  0  0  0
  4 10  1  0  0  0  0
  5  6  1  0  0  0  0
  5  8  1  0  0  0  0
  6  7  2  0  0  0  0
  8  9  1  0  0  0  0
  9 10  2  0  0  0  0
M  END
>  <CHROM.1>
11.47882825,11.28030842,6.90924817,0.41315793,-1.32680797,0.93819774

>  <Name>
ligand

>  <RI>
0

>  <Rbt.Current_Directory>
/home/itssahil/PROJECTS/Mol_Feturizer/Test_systems_manuscript/rnas/4fe5

>  <Rbt.Executable>
rbdock ($Id: //depot/dev/client3/rdock/2013.1/src/exe/rbdock.cxx#4 $)

>  <Rbt.Library>
libRbt.so (2013.1, Build901 2013/11/27)

>  <Rbt.Parameter_File>
/export/apps/rDock/src/rDock_2013.1_src/data/scripts/dock_solv.prm

>  <Rbt.Receptor>
prm/pocket_docking_6.prm

>  <SCORE>
-17.444

>  <SCORE.INTER>
-17.444

>  <SCORE.INTER.CONST>
1

>  <SCORE.INTER.POLAR>
0

>  <SCORE.INTER.ROT>
0

>  <SCORE.INTER.SOLV>
3.75739

>  <SCORE.INTER.VDW>
-16.4818

>  <SCORE.INTER.norm>
-1.7444

>  <SCORE.INTRA>
0

>  <SCORE.INTRA.DIHEDRAL>
0

>  <SCORE.INTRA.DIHEDRAL.0>
0

>  <SCORE.INTRA.POLAR>
0

>  <SCORE.INTRA.POLAR.0>
0

>  <SCORE.INTRA.REPUL>
0

>  <SCORE.INTRA.REPUL.0>
0

>  <SCORE.INTRA.SOLV>
0

>  <SCORE.INTRA.SOLV.lig_0>
-4.28333

>  <SCORE.INTRA.VDW>
0

>  <SCORE.INTRA.VDW.0>
0

>  <SCORE.INTRA.norm>
0

>  <SCORE.RESTR>
0

>  <SCORE.RESTR.CAVITY>
0

>  <SCORE.RESTR.norm>
0

>  <SCORE.SYSTEM>
0

>  <SCORE.SYSTEM.CONST>
0

>  <SCORE.SYSTEM.DIHEDRAL>
0

>  <SCORE.SYSTEM.SOLV>
0

>  <SCORE.SYSTEM.norm>
0

>  <SCORE.heavy>
10

>  <SCORE.norm>
-1.7444

>  <RMSD>
0.448

$$$$
ligand
 OpenBabel02271912143D
libRbt.so/2013.1/901 2013/11/27
 10 11  0  0  0  0  0  0  0  0999 V2000
   11.8459   10.8473    8.7628 N   0  0  0  0  0  0  0  0  0  0  0  0
   11.5971   12.1959    8.8644 C   0  0  0  0  0  0  0  0  0  0  0  0
   11.2865   12.9409    7.8019 N   0  0  0  0  0  0  0  0  0  0  0  0
   11.2457   12.2338    6.6369 C   0  0  0  0  0  0  0  0  0  0  0  0
   11.4859   10.8844    6.4678 C   0  0  0  0  0  0  0  0  0  0  0  0
   11.8159   10.0839    7.5955 C   0  0  0  0  0  0  0  0  0  0  0  0
   12.0639    8.8746    7.6739 O   0  0  0  0  0  0  0  0  0  0  0  0
   11.3414   10.5818    5.1430 N   0  0  0  0  0  0  0  0  0  0  0  0
   11.0143   11.7345    4.5139 C   0  0  0  0  0  0  0  0  0  0  0  0
   10.9480   12.7775    5.4124 N   0  0  0  0  0  0  0  0  0  0  0  0
  1  2  1  0  0  0  0
  1  6  1  0  0  0  0
  2  3  2  0  0  0  0
  3  4  1  0  0  0  0
  4  5  2  0  0  0  0
  4 10  1  0  0  0  0
  5  6  1  0  0  0  0
  5  8  1  0  0  0  0
  6  7  2  0  0  0  0
  8  9  1  0  0  0  0
  9 10  2  0  0  0  0
M  END
>  <CHROM.1>
11.47596619,11.27023362,6.90454025,0.37692711,-1.32594889,0.90467738

>  <Name>
ligand

>  <RI>
0

>  <Rbt.Current_Directory>
/home/itssahil/PROJECTS/Mol_Feturizer/Test_systems_manuscript/rnas/4fe5

>  <Rbt.Executable>
rbdock ($Id: //depot/dev/client3/rdock/2013.1/src/exe/rbdock.cxx#4 $)

>  <Rbt.Library>
libRbt.so (2013.1, Build901 2013/11/27)

>  <Rbt.Parameter_File>
/export/apps/rDock/src/rDock_2013.1_src/data/scripts/dock_solv.prm

>  <Rbt.Receptor>
prm/pocket_docking_8.prm

>  <SCORE>
-17.425

>  <SCORE.INTER>
-17.4251

>  <SCORE.INTER.CONST>
1

>  <SCORE.INTER.POLAR>
0

>  <SCORE.INTER.ROT>
0

>  <SCORE.INTER.SOLV>
3.75411

>  <SCORE.INTER.VDW>
-16.4681

>  <SCORE.INTER.norm>
-1.74251

>  <SCORE.INTRA>
0

>  <SCORE.INTRA.DIHEDRAL>
0

>  <SCORE.INTRA.DIHEDRAL.0>
0

>  <SCORE.INTRA.POLAR>
0

>  <SCORE.INTRA.POLAR.0>
0

>  <SCORE.INTRA.REPUL>
0

>  <SCORE.INTRA.REPUL.0>
0

>  <SCORE.INTRA.SOLV>
0

>  <SCORE.INTRA.SOLV.lig_0>
-4.28333

>  <SCORE.INTRA.VDW>
0

>  <SCORE.INTRA.VDW.0>
0

>  <SCORE.INTRA.norm>
0

>  <SCORE.RESTR>
9.41178e-05

>  <SCORE.RESTR.CAVITY>
9.41178e-05

>  <SCORE.RESTR.norm>
9.41178e-06

>  <SCORE.SYSTEM>
0

>  <SCORE.SYSTEM.CONST>
0

>  <SCORE.SYSTEM.DIHEDRAL>
0

>  <SCORE.SYSTEM.SOLV>
0

>  <SCORE.SYSTEM.norm>
0

>  <SCORE.heavy>
10

>  <SCORE.norm>
-1.7425

>  <RMSD>
0.448

$$$$
ligand
 OpenBabel02271912143D
libRbt.so/2013.1/901 2013/11/27
 10 11  0  0  0  0  0  0  0  0999 V2000
   11.8392   10.9749    8.8142 N   0  0  0  0  0  0  0  0  0  0  0  0
   11.5651   12.3219    8.8512 C   0  0  0  0  0  0  0  0  0  0  0  0
   11.2358   13.0082    7.7554 N   0  0  0  0  0  0  0  0  0  0  0  0
   11.2036   12.2445    6.6264 C   0  0  0  0  0  0  0  0  0  0  0  0
   11.4688   10.8933    6.5219 C   0  0  0  0  0  0  0  0  0  0  0  0
   11.8189   10.1550    7.6855 C   0  0  0  0  0  0  0  0  0  0  0  0
   12.0903    8.9559    7.8214 O   0  0  0  0  0  0  0  0  0  0  0  0
   11.3245   10.5238    5.2142 N   0  0  0  0  0  0  0  0  0  0  0  0
   10.9727   11.6380    4.5315 C   0  0  0  0  0  0  0  0  0  0  0  0
   10.8903   12.7221    5.3785 N   0  0  0  0  0  0  0  0  0  0  0  0
  1  2  1  0  0  0  0
  1  6  1  0  0  0  0
  2  3  2  0  0  0  0
  3  4  1  0  0  0  0
  4  5  2  0  0  0  0
  4 10  1  0  0  0  0
  5  6  1  0  0  0  0
  5  8  1  0  0  0  0
  6  7  2  0  0  0  0
  8  9  1  0  0  0  0
  9 10  2  0  0  0  0
M  END
>  <CHROM.1>
11.45338067,11.29966695,6.93940743,0.40957694,-1.30813828,0.88754377

>  <Name>
ligand

>  <RI>
0

>  <Rbt.Current_Directory>
/home/itssahil/PROJECTS/Mol_Feturizer/Test_systems_manuscript/rnas/4fe5

>  <Rbt.Executable>
rbdock ($Id: //depot/dev/client3/rdock/2013.1/src/exe/rbdock.cxx#4 $)

>  <Rbt.Library>
libRbt.so (2013.1, Build901 2013/11/27)

>  <Rbt.Parameter_File>
/export/apps/rDock/src/rDock_2013.1_src/data/scripts/dock_solv.prm

>  <Rbt.Receptor>
prm/blind_docking_100.prm

>  <SCORE>
-17.4608

>  <SCORE.INTER>
-17.4762

>  <SCORE.INTER.CONST>
1

>  <SCORE.INTER.POLAR>
0

>  <SCORE.INTER.ROT>
0

>  <SCORE.INTER.SOLV>
3.7776

>  <SCORE.INTER.VDW>
-16.51

>  <SCORE.INTER.norm>
-1.74762

>  <SCORE.INTRA>
0

>  <SCORE.INTRA.DIHEDRAL>
0

>  <SCORE.INTRA.DIHEDRAL.0>
0

>  <SCORE.INTRA.POLAR>
0

>  <SCORE.INTRA.POLAR.0>
0

>  <SCORE.INTRA.REPUL>
0

>  <SCORE.INTRA.REPUL.0>
0

>  <SCORE.INTRA.SOLV>
0

>  <SCORE.INTRA.SOLV.lig_0>
-4.28333

>  <SCORE.INTRA.VDW>
0

>  <SCORE.INTRA.VDW.0>
0

>  <SCORE.INTRA.norm>
0

>  <SCORE.RESTR>
0.0153833

>  <SCORE.RESTR.CAVITY>
0.0153833

>  <SCORE.RESTR.norm>
0.00153833

>  <SCORE.SYSTEM>
0

>  <SCORE.SYSTEM.CONST>
0

>  <SCORE.SYSTEM.DIHEDRAL>
0

>  <SCORE.SYSTEM.SOLV>
0

>  <SCORE.SYSTEM.norm>
0

>  <SCORE.heavy>
10

>  <SCORE.norm>
-1.74608

>  <RMSD>
0.449

$$$$
ligand
 OpenBabel02271912143D
libRbt.so/2013.1/901 2013/11/27
 10 11  0  0  0  0  0  0  0  0999 V2000
   11.8198   11.0080    8.8365 N   0  0  0  0  0  0  0  0  0  0  0  0
   11.5113   12.3481    8.8379 C   0  0  0  0  0  0  0  0  0  0  0  0
   11.1817   13.0003    7.7216 N   0  0  0  0  0  0  0  0  0  0  0  0
   11.1859   12.2102    6.6104 C   0  0  0  0  0  0  0  0  0  0  0  0
   11.4866   10.8641    6.5416 C   0  0  0  0  0  0  0  0  0  0  0  0
   11.8374   10.1621    7.7271 C   0  0  0  0  0  0  0  0  0  0  0  0
   12.1367    8.9737    7.8950 O   0  0  0  0  0  0  0  0  0  0  0  0
   11.3717   10.4611    5.2409 N   0  0  0  0  0  0  0  0  0  0  0  0
   11.0025   11.5499    4.5271 C   0  0  0  0  0  0  0  0  0  0  0  0
   10.8798   12.6508    5.3472 N   0  0  0  0  0  0  0  0  0  0  0  0
  1  2  1  0  0  0  0
  1  6  1  0  0  0  0
  2  3  2  0  0  0  0
  3  4  1  0  0  0  0
  4  5  2  0  0  0  0
  4 10  1  0  0  0  0
  5  6  1  0  0  0  0
  5  8  1  0  0  0  0
  6  7  2  0  0  0  0
  8  9  1  0  0  0  0
  9 10  2  0  0  0  0
M  END
>  <CHROM.1>
11.45459019,11.27951863,6.94915198,0.51234411,-1.29689085,0.96341584

>  <Name>
ligand

>  <RI>
0

>  <Rbt.Current_Directory>
/home/itssahil/PROJECTS/Mol_Feturizer/Test_systems_manuscript/rnas/4fe5

>  <Rbt.Executable>
rbdock ($Id: //depot/dev/client3/rdock/2013.1/src/exe/rbdock.cxx#4 $)

>  <Rbt.Library>
libRbt.so (2013.1, Build901 2013/11/27)

>  <Rbt.Parameter_File>
/export/apps/rDock/src/rDock_2013.1_src/data/scripts/dock_solv.prm

>  <Rbt.Receptor>
prm/pocket_docking_3.prm

>  <SCORE>
-17.3977

>  <SCORE.INTER>
-17.3988

>  <SCORE.INTER.CONST>
1

>  <SCORE.INTER.POLAR>
0

>  <SCORE.INTER.ROT>
0

>  <SCORE.INTER.SOLV>
3.77778

>  <SCORE.INTER.VDW>
-16.4585

>  <SCORE.INTER.norm>
-1.73988

>  <SCORE.INTRA>
0

>  <SCORE.INTRA.DIHEDRAL>
0

>  <SCORE.INTRA.DIHEDRAL.0>
0

>  <SCORE.INTRA.POLAR>
0

>  <SCORE.INTRA.POLAR.0>
0

>  <SCORE.INTRA.REPUL>
0

>  <SCORE.INTRA.REPUL.0>
0

>  <SCORE.INTRA.SOLV>
0

>  <SCORE.INTRA.SOLV.lig_0>
-4.28333

>  <SCORE.INTRA.VDW>
0

>  <SCORE.INTRA.VDW.0>
0

>  <SCORE.INTRA.norm>
0

>  <SCORE.RESTR>
0.00114241

>  <SCORE.RESTR.CAVITY>
0.00114241

>  <SCORE.RESTR.norm>
0.000114241

>  <SCORE.SYSTEM>
0

>  <SCORE.SYSTEM.CONST>
0

>  <SCORE.SYSTEM.DIHEDRAL>
0

>  <SCORE.SYSTEM.SOLV>
0

>  <SCORE.SYSTEM.norm>
0

>  <SCORE.heavy>
10

>  <SCORE.norm>
-1.73977

>  <RMSD>
0.449

$$$$
ligand
 OpenBabel02271912143D
libRbt.so/2013.1/901 2013/11/27
 10 11  0  0  0  0  0  0  0  0999 V2000
   11.8335   10.8573    8.7705 N   0  0  0  0  0  0  0  0  0  0  0  0
   11.5790   12.2052    8.8673 C   0  0  0  0  0  0  0  0  0  0  0  0
   11.2777   12.9476    7.8004 N   0  0  0  0  0  0  0  0  0  0  0  0
   11.2521   12.2387    6.6360 C   0  0  0  0  0  0  0  0  0  0  0  0
   11.4986   10.8899    6.4717 C   0  0  0  0  0  0  0  0  0  0  0  0
   11.8189   10.0921    7.6041 C   0  0  0  0  0  0  0  0  0  0  0  0
   12.0701    8.8837    7.6870 O   0  0  0  0  0  0  0  0  0  0  0  0
   11.3698   10.5849    5.1458 N   0  0  0  0  0  0  0  0  0  0  0  0
   11.0458   11.7355    4.5114 C   0  0  0  0  0  0  0  0  0  0  0  0
   10.9660   12.7796    5.4076 N   0  0  0  0  0  0  0  0  0  0  0  0
  1  2  1  0  0  0  0
  1  6  1  0  0  0  0
  2  3  2  0  0  0  0
  3  4  1  0  0  0  0
  4  5  2  0  0  0  0
  4 10  1  0  0  0  0
  5  6  1  0  0  0  0
  5  8  1  0  0  0  0
  6  7  2  0  0  0  0
  8  9  1  0  0  0  0
  9 10  2  0  0  0  0
M  END
>  <CHROM.1>
11.48262417,11.27628207,6.90765077,0.42197113,-1.32988359,0.94693316

>  <Name>
ligand

>  <RI>
0

>  <Rbt.Current_Directory>
/home/itssahil/PROJECTS/Mol_Feturizer/Test_systems_manuscript/rnas/4fe5

>  <Rbt.Executable>
rbdock ($Id: //depot/dev/client3/rdock/2013.1/src/exe/rbdock.cxx#4 $)

>  <Rbt.Library>
libRbt.so (2013.1, Build901 2013/11/27)

>  <Rbt.Parameter_File>
/export/apps/rDock/src/rDock_2013.1_src/data/scripts/dock_solv.prm

>  <Rbt.Receptor>
prm/pocket_docking_5.prm

>  <SCORE>
-17.4474

>  <SCORE.INTER>
-17.4474

>  <SCORE.INTER.CONST>
1

>  <SCORE.INTER.POLAR>
0

>  <SCORE.INTER.ROT>
0

>  <SCORE.INTER.SOLV>
3.76379

>  <SCORE.INTER.VDW>
-16.4862

>  <SCORE.INTER.norm>
-1.74474

>  <SCORE.INTRA>
0

>  <SCORE.INTRA.DIHEDRAL>
0

>  <SCORE.INTRA.DIHEDRAL.0>
0

>  <SCORE.INTRA.POLAR>
0

>  <SCORE.INTRA.POLAR.0>
0

>  <SCORE.INTRA.REPUL>
0

>  <SCORE.INTRA.REPUL.0>
0

>  <SCORE.INTRA.SOLV>
0

>  <SCORE.INTRA.SOLV.lig_0>
-4.28333

>  <SCORE.INTRA.VDW>
0

>  <SCORE.INTRA.VDW.0>
0

>  <SCORE.INTRA.norm>
0

>  <SCORE.RESTR>
0

>  <SCORE.RESTR.CAVITY>
0

>  <SCORE.RESTR.norm>
0

>  <SCORE.SYSTEM>
0

>  <SCORE.SYSTEM.CONST>
0

>  <SCORE.SYSTEM.DIHEDRAL>
0

>  <SCORE.SYSTEM.SOLV>
0

>  <SCORE.SYSTEM.norm>
0

>  <SCORE.heavy>
10

>  <SCORE.norm>
-1.74474

>  <RMSD>
0.449

$$$$
ligand
 OpenBabel02271912143D
libRbt.so/2013.1/901 2013/11/27
 10 11  0  0  0  0  0  0  0  0999 V2000
   11.8603   10.8400    8.7411 N   0  0  0  0  0  0  0  0  0  0  0  0
   11.5796   12.1834    8.8267 C   0  0  0  0  0  0  0  0  0  0  0  0
   11.2453   12.9068    7.7565 N   0  0  0  0  0  0  0  0  0  0  0  0
   11.2152   12.1838    6.6010 C   0  0  0  0  0  0  0  0  0  0  0  0
   11.4869   10.8385    6.4479 C   0  0  0  0  0  0  0  0  0  0  0  0
   11.8424   10.0609    7.5839 C   0  0  0  0  0  0  0  0  0  0  0  0
   12.1199    8.8590    7.6765 O   0  0  0  0  0  0  0  0  0  0  0  0
   11.3426   10.5153    5.1280 N   0  0  0  0  0  0  0  0  0  0  0  0
   10.9843   11.6514    4.4860 C   0  0  0  0  0  0  0  0  0  0  0  0
   10.8977   12.7042    5.3714 N   0  0  0  0  0  0  0  0  0  0  0  0
  1  2  1  0  0  0  0
  1  6  1  0  0  0  0
  2  3  2  0  0  0  0
  3  4  1  0  0  0  0
  4  5  2  0  0  0  0
  4 10  1  0  0  0  0
  5  6  1  0  0  0  0
  5  8  1  0  0  0  0
  6  7  2  0  0  0  0
  8  9  1  0  0  0  0
  9 10  2  0  0  0  0
M  END
>  <CHROM.1>
11.47012289,11.22964018,6.87969084,0.41711446,-1.30339099,0.93059173

>  <Name>
ligand

>  <RI>
0

>  <Rbt.Current_Directory>
/home/itssahil/PROJECTS/Mol_Feturizer/Test_systems_manuscript/rnas/4fe5

>  <Rbt.Executable>
rbdock ($Id: //depot/dev/client3/rdock/2013.1/src/exe/rbdock.cxx#4 $)

>  <Rbt.Library>
libRbt.so (2013.1, Build901 2013/11/27)

>  <Rbt.Parameter_File>
/export/apps/rDock/src/rDock_2013.1_src/data/scripts/dock_solv.prm

>  <Rbt.Receptor>
prm/pocket_docking_6.prm

>  <SCORE>
-17.4588

>  <SCORE.INTER>
-17.4588

>  <SCORE.INTER.CONST>
1

>  <SCORE.INTER.POLAR>
0

>  <SCORE.INTER.ROT>
0

>  <SCORE.INTER.SOLV>
3.69953

>  <SCORE.INTER.VDW>
-16.4724

>  <SCORE.INTER.norm>
-1.74588

>  <SCORE.INTRA>
0

>  <SCORE.INTRA.DIHEDRAL>
0

>  <SCORE.INTRA.DIHEDRAL.0>
0

>  <SCORE.INTRA.POLAR>
0

>  <SCORE.INTRA.POLAR.0>
0

>  <SCORE.INTRA.REPUL>
0

>  <SCORE.INTRA.REPUL.0>
0

>  <SCORE.INTRA.SOLV>
0

>  <SCORE.INTRA.SOLV.lig_0>
-4.28333

>  <SCORE.INTRA.VDW>
0

>  <SCORE.INTRA.VDW.0>
0

>  <SCORE.INTRA.norm>
0

>  <SCORE.RESTR>
0

>  <SCORE.RESTR.CAVITY>
0

>  <SCORE.RESTR.norm>
0

>  <SCORE.SYSTEM>
0

>  <SCORE.SYSTEM.CONST>
0

>  <SCORE.SYSTEM.DIHEDRAL>
0

>  <SCORE.SYSTEM.SOLV>
0

>  <SCORE.SYSTEM.norm>
0

>  <SCORE.heavy>
10

>  <SCORE.norm>
-1.74588

>  <RMSD>
0.449

$$$$
ligand
 OpenBabel02271912143D
libRbt.so/2013.1/901 2013/11/27
 10 11  0  0  0  0  0  0  0  0999 V2000
   11.8377   10.8756    8.7675 N   0  0  0  0  0  0  0  0  0  0  0  0
   11.5636   12.2201    8.8586 C   0  0  0  0  0  0  0  0  0  0  0  0
   11.2540   12.9539    7.7881 N   0  0  0  0  0  0  0  0  0  0  0  0
   11.2414   12.2403    6.6264 C   0  0  0  0  0  0  0  0  0  0  0  0
   11.5078   10.8946    6.4678 C   0  0  0  0  0  0  0  0  0  0  0  0
   11.8370   10.1059    7.6040 C   0  0  0  0  0  0  0  0  0  0  0  0
   12.1054    8.9016    7.6921 O   0  0  0  0  0  0  0  0  0  0  0  0
   11.3865   10.5828    5.1428 N   0  0  0  0  0  0  0  0  0  0  0  0
   11.0473   11.7261    4.5033 C   0  0  0  0  0  0  0  0  0  0  0  0
   10.9504   12.7723    5.3953 N   0  0  0  0  0  0  0  0  0  0  0  0
  1  2  1  0  0  0  0
  1  6  1  0  0  0  0
  2  3  2  0  0  0  0
  3  4  1  0  0  0  0
  4  5  2  0  0  0  0
  4 10  1  0  0  0  0
  5  6  1  0  0  0  0
  5  8  1  0  0  0  0
  6  7  2  0  0  0  0
  8  9  1  0  0  0  0
  9 10  2  0  0  0  0
M  END
>  <CHROM.1>
11.48517754,11.28241671,6.90226169,0.46353473,-1.31927852,0.98342433

>  <Name>
ligand

>  <RI>
0

>  <Rbt.Current_Directory>
/home/itssahil/PROJECTS/Mol_Feturizer/Test_systems_manuscript/rnas/4fe5

>  <Rbt.Executable>
rbdock ($Id: //depot/dev/client3/rdock/2013.1/src/exe/rbdock.cxx#4 $)

>  <Rbt.Library>
libRbt.so (2013.1, Build901 2013/11/27)

>  <Rbt.Parameter_File>
/export/apps/rDock/src/rDock_2013.1_src/data/scripts/dock_solv.prm

>  <Rbt.Receptor>
prm/pocket_docking_8.prm

>  <SCORE>
-17.4557

>  <SCORE.INTER>
-17.4557

>  <SCORE.INTER.CONST>
1

>  <SCORE.INTER.POLAR>
0

>  <SCORE.INTER.ROT>
0

>  <SCORE.INTER.SOLV>
3.73298

>  <SCORE.INTER.VDW>
-16.4815

>  <SCORE.INTER.norm>
-1.74557

>  <SCORE.INTRA>
0

>  <SCORE.INTRA.DIHEDRAL>
0

>  <SCORE.INTRA.DIHEDRAL.0>
0

>  <SCORE.INTRA.POLAR>
0

>  <SCORE.INTRA.POLAR.0>
0

>  <SCORE.INTRA.REPUL>
0

>  <SCORE.INTRA.REPUL.0>
0

>  <SCORE.INTRA.SOLV>
0

>  <SCORE.INTRA.SOLV.lig_0>
-4.28333

>  <SCORE.INTRA.VDW>
0

>  <SCORE.INTRA.VDW.0>
0

>  <SCORE.INTRA.norm>
0

>  <SCORE.RESTR>
0

>  <SCORE.RESTR.CAVITY>
0

>  <SCORE.RESTR.norm>
0

>  <SCORE.SYSTEM>
0

>  <SCORE.SYSTEM.CONST>
0

>  <SCORE.SYSTEM.DIHEDRAL>
0

>  <SCORE.SYSTEM.SOLV>
0

>  <SCORE.SYSTEM.norm>
0

>  <SCORE.heavy>
10

>  <SCORE.norm>
-1.74557

>  <RMSD>
0.449

$$$$
ligand
 OpenBabel02271912143D
libRbt.so/2013.1/901 2013/11/27
 10 11  0  0  0  0  0  0  0  0999 V2000
   11.8534   10.8429    8.7468 N   0  0  0  0  0  0  0  0  0  0  0  0
   11.5779   12.1878    8.8277 C   0  0  0  0  0  0  0  0  0  0  0  0
   11.2486   12.9092    7.7547 N   0  0  0  0  0  0  0  0  0  0  0  0
   11.2178   12.1828    6.6013 C   0  0  0  0  0  0  0  0  0  0  0  0
   11.4845   10.8360    6.4529 C   0  0  0  0  0  0  0  0  0  0  0  0
   11.8346   10.0604    7.5919 C   0  0  0  0  0  0  0  0  0  0  0  0
   12.1071    8.8577    7.6887 O   0  0  0  0  0  0  0  0  0  0  0  0
   11.3414   10.5093    5.1336 N   0  0  0  0  0  0  0  0  0  0  0  0
   10.9889   11.6449    4.4875 C   0  0  0  0  0  0  0  0  0  0  0  0
   10.9049   12.7007    5.3695 N   0  0  0  0  0  0  0  0  0  0  0  0
  1  2  1  0  0  0  0
  1  6  1  0  0  0  0
  2  3  2  0  0  0  0
  3  4  1  0  0  0  0
  4  5  2  0  0  0  0
  4 10  1  0  0  0  0
  5  6  1  0  0  0  0
  5  8  1  0  0  0  0
  6  7  2  0  0  0  0
  8  9  1  0  0  0  0
  9 10  2  0  0  0  0
M  END
>  <CHROM.1>
11.46839325,11.22848441,6.88341264,0.41388543,-1.30775982,0.92443095

>  <Name>
ligand

>  <RI>
0

>  <Rbt.Current_Directory>
/home/itssahil/PROJECTS/Mol_Feturizer/Test_systems_manuscript/rnas/4fe5

>  <Rbt.Executable>
rbdock ($Id: //depot/dev/client3/rdock/2013.1/src/exe/rbdock.cxx#4 $)

>  <Rbt.Library>
libRbt.so (2013.1, Build901 2013/11/27)

>  <Rbt.Parameter_File>
/export/apps/rDock/src/rDock_2013.1_src/data/scripts/dock_solv.prm

>  <Rbt.Receptor>
prm/blind_docking_40.prm

>  <SCORE>
-17.462

>  <SCORE.INTER>
-17.462

>  <SCORE.INTER.CONST>
1

>  <SCORE.INTER.POLAR>
0

>  <SCORE.INTER.ROT>
0

>  <SCORE.INTER.SOLV>
3.71956

>  <SCORE.INTER.VDW>
-16.4812

>  <SCORE.INTER.norm>
-1.7462

>  <SCORE.INTRA>
0

>  <SCORE.INTRA.DIHEDRAL>
0

>  <SCORE.INTRA.DIHEDRAL.0>
0

>  <SCORE.INTRA.POLAR>
0

>  <SCORE.INTRA.POLAR.0>
0

>  <SCORE.INTRA.REPUL>
0

>  <SCORE.INTRA.REPUL.0>
0

>  <SCORE.INTRA.SOLV>
0

>  <SCORE.INTRA.SOLV.lig_0>
-4.28333

>  <SCORE.INTRA.VDW>
0

>  <SCORE.INTRA.VDW.0>
0

>  <SCORE.INTRA.norm>
0

>  <SCORE.RESTR>
0

>  <SCORE.RESTR.CAVITY>
0

>  <SCORE.RESTR.norm>
0

>  <SCORE.SYSTEM>
0

>  <SCORE.SYSTEM.CONST>
0

>  <SCORE.SYSTEM.DIHEDRAL>
0

>  <SCORE.SYSTEM.SOLV>
0

>  <SCORE.SYSTEM.norm>
0

>  <SCORE.heavy>
10

>  <SCORE.norm>
-1.7462

>  <RMSD>
0.450

$$$$
ligand
 OpenBabel02271912143D
libRbt.so/2013.1/901 2013/11/27
 10 11  0  0  0  0  0  0  0  0999 V2000
   11.8553   10.8205    8.7368 N   0  0  0  0  0  0  0  0  0  0  0  0
   11.5780   12.1643    8.8285 C   0  0  0  0  0  0  0  0  0  0  0  0
   11.2528   12.8950    7.7606 N   0  0  0  0  0  0  0  0  0  0  0  0
   11.2279   12.1789    6.6006 C   0  0  0  0  0  0  0  0  0  0  0  0
   11.4965   10.8337    6.4413 C   0  0  0  0  0  0  0  0  0  0  0  0
   11.8424   10.0483    7.5749 C   0  0  0  0  0  0  0  0  0  0  0  0
   12.1157    8.8451    7.6621 O   0  0  0  0  0  0  0  0  0  0  0  0
   11.3596   10.5188    5.1186 N   0  0  0  0  0  0  0  0  0  0  0  0
   11.0089   11.6598    4.4811 C   0  0  0  0  0  0  0  0  0  0  0  0
   10.9198   12.7075    5.3721 N   0  0  0  0  0  0  0  0  0  0  0  0
  1  2  1  0  0  0  0
  1  6  1  0  0  0  0
  2  3  2  0  0  0  0
  3  4  1  0  0  0  0
  4  5  2  0  0  0  0
  4 10  1  0  0  0  0
  5  6  1  0  0  0  0
  5  8  1  0  0  0  0
  6  7  2  0  0  0  0
  8  9  1  0  0  0  0
  9 10  2  0  0  0  0
M  END
>  <CHROM.1>
11.47813759,11.22235023,6.87524893,0.42997551,-1.30957142,0.94892524

>  <Name>
ligand

>  <RI>
0

>  <Rbt.Current_Directory>
/home/itssahil/PROJECTS/Mol_Feturizer/Test_systems_manuscript/rnas/4fe5

>  <Rbt.Executable>
rbdock ($Id: //depot/dev/client3/rdock/2013.1/src/exe/rbdock.cxx#4 $)

>  <Rbt.Library>
libRbt.so (2013.1, Build901 2013/11/27)

>  <Rbt.Parameter_File>
/export/apps/rDock/src/rDock_2013.1_src/data/scripts/dock_solv.prm

>  <Rbt.Receptor>
prm/pocket_docking_3.prm

>  <SCORE>
-17.4356

>  <SCORE.INTER>
-17.4356

>  <SCORE.INTER.CONST>
1

>  <SCORE.INTER.POLAR>
0

>  <SCORE.INTER.ROT>
0

>  <SCORE.INTER.SOLV>
3.70533

>  <SCORE.INTER.VDW>
-16.4589

>  <SCORE.INTER.norm>
-1.74356

>  <SCORE.INTRA>
0

>  <SCORE.INTRA.DIHEDRAL>
0

>  <SCORE.INTRA.DIHEDRAL.0>
0

>  <SCORE.INTRA.POLAR>
0

>  <SCORE.INTRA.POLAR.0>
0

>  <SCORE.INTRA.REPUL>
0

>  <SCORE.INTRA.REPUL.0>
0

>  <SCORE.INTRA.SOLV>
0

>  <SCORE.INTRA.SOLV.lig_0>
-4.28333

>  <SCORE.INTRA.VDW>
0

>  <SCORE.INTRA.VDW.0>
0

>  <SCORE.INTRA.norm>
0

>  <SCORE.RESTR>
0

>  <SCORE.RESTR.CAVITY>
0

>  <SCORE.RESTR.norm>
0

>  <SCORE.SYSTEM>
0

>  <SCORE.SYSTEM.CONST>
0

>  <SCORE.SYSTEM.DIHEDRAL>
0

>  <SCORE.SYSTEM.SOLV>
0

>  <SCORE.SYSTEM.norm>
0

>  <SCORE.heavy>
10

>  <SCORE.norm>
-1.74356

>  <RMSD>
0.450

$$$$
ligand
 OpenBabel02271912143D
libRbt.so/2013.1/901 2013/11/27
 10 11  0  0  0  0  0  0  0  0999 V2000
   11.8509   10.8034    8.7383 N   0  0  0  0  0  0  0  0  0  0  0  0
   11.5895   12.1498    8.8371 C   0  0  0  0  0  0  0  0  0  0  0  0
   11.2677   12.8888    7.7738 N   0  0  0  0  0  0  0  0  0  0  0  0
   11.2292   12.1781    6.6109 C   0  0  0  0  0  0  0  0  0  0  0  0
   11.4817   10.8306    6.4446 C   0  0  0  0  0  0  0  0  0  0  0  0
   11.8237   10.0364    7.5732 C   0  0  0  0  0  0  0  0  0  0  0  0
   12.0836    8.8297    7.6540 O   0  0  0  0  0  0  0  0  0  0  0  0
   11.3351   10.5229    5.1212 N   0  0  0  0  0  0  0  0  0  0  0  0
   10.9945   11.6706    4.4902 C   0  0  0  0  0  0  0  0  0  0  0  0
   10.9216   12.7154    5.3861 N   0  0  0  0  0  0  0  0  0  0  0  0
  1  2  1  0  0  0  0
  1  6  1  0  0  0  0
  2  3  2  0  0  0  0
  3  4  1  0  0  0  0
  4  5  2  0  0  0  0
  4 10  1  0  0  0  0
  5  6  1  0  0  0  0
  5  8  1  0  0  0  0
  6  7  2  0  0  0  0
  8  9  1  0  0  0  0
  9 10  2  0  0  0  0
M  END
>  <CHROM.1>
11.46975359,11.21749610,6.88031308,0.38847735,-1.31600225,0.91308043

>  <Name>
ligand

>  <RI>
0

>  <Rbt.Current_Directory>
/home/itssahil/PROJECTS/Mol_Feturizer/Test_systems_manuscript/rnas/4fe5

>  <Rbt.Executable>
rbdock ($Id: //depot/dev/client3/rdock/2013.1/src/exe/rbdock.cxx#4 $)

>  <Rbt.Library>
libRbt.so (2013.1, Build901 2013/11/27)

>  <Rbt.Parameter_File>
/export/apps/rDock/src/rDock_2013.1_src/data/scripts/dock_solv.prm

>  <Rbt.Receptor>
prm/pocket_docking_3.prm

>  <SCORE>
-17.4209

>  <SCORE.INTER>
-17.4209

>  <SCORE.INTER.CONST>
1

>  <SCORE.INTER.POLAR>
0

>  <SCORE.INTER.ROT>
0

>  <SCORE.INTER.SOLV>
3.73071

>  <SCORE.INTER.VDW>
-16.4575

>  <SCORE.INTER.norm>
-1.74209

>  <SCORE.INTRA>
0

>  <SCORE.INTRA.DIHEDRAL>
0

>  <SCORE.INTRA.DIHEDRAL.0>
0

>  <SCORE.INTRA.POLAR>
0

>  <SCORE.INTRA.POLAR.0>
0

>  <SCORE.INTRA.REPUL>
0

>  <SCORE.INTRA.REPUL.0>
0

>  <SCORE.INTRA.SOLV>
0

>  <SCORE.INTRA.SOLV.lig_0>
-4.28333

>  <SCORE.INTRA.VDW>
0

>  <SCORE.INTRA.VDW.0>
0

>  <SCORE.INTRA.norm>
0

>  <SCORE.RESTR>
0

>  <SCORE.RESTR.CAVITY>
0

>  <SCORE.RESTR.norm>
0

>  <SCORE.SYSTEM>
0

>  <SCORE.SYSTEM.CONST>
0

>  <SCORE.SYSTEM.DIHEDRAL>
0

>  <SCORE.SYSTEM.SOLV>
0

>  <SCORE.SYSTEM.norm>
0

>  <SCORE.heavy>
10

>  <SCORE.norm>
-1.74209

>  <RMSD>
0.450

$$$$
ligand
 OpenBabel02271912143D
libRbt.so/2013.1/901 2013/11/27
 10 11  0  0  0  0  0  0  0  0999 V2000
   11.8512   10.9405    8.7815 N   0  0  0  0  0  0  0  0  0  0  0  0
   11.5600   12.2834    8.8348 C   0  0  0  0  0  0  0  0  0  0  0  0
   11.2182   12.9777    7.7479 N   0  0  0  0  0  0  0  0  0  0  0  0
   11.1919   12.2265    6.6104 C   0  0  0  0  0  0  0  0  0  0  0  0
   11.4739   10.8801    6.4898 C   0  0  0  0  0  0  0  0  0  0  0  0
   11.8374   10.1333    7.6437 C   0  0  0  0  0  0  0  0  0  0  0  0
   12.1246    8.9362    7.7651 O   0  0  0  0  0  0  0  0  0  0  0  0
   11.3299   10.5236    5.1784 N   0  0  0  0  0  0  0  0  0  0  0  0
   10.9616   11.6408    4.5095 C   0  0  0  0  0  0  0  0  0  0  0  0
   10.8682   12.7141    5.3691 N   0  0  0  0  0  0  0  0  0  0  0  0
  1  2  1  0  0  0  0
  1  6  1  0  0  0  0
  2  3  2  0  0  0  0
  3  4  1  0  0  0  0
  4  5  2  0  0  0  0
  4 10  1  0  0  0  0
  5  6  1  0  0  0  0
  5  8  1  0  0  0  0
  6  7  2  0  0  0  0
  8  9  1  0  0  0  0
  9 10  2  0  0  0  0
M  END
>  <CHROM.1>
11.45477716,11.28147324,6.91188759,0.42948390,-1.29601752,0.91806335

>  <Name>
ligand

>  <RI>
0

>  <Rbt.Current_Directory>
/home/itssahil/PROJECTS/Mol_Feturizer/Test_systems_manuscript/rnas/4fe5

>  <Rbt.Executable>
rbdock ($Id: //depot/dev/client3/rdock/2013.1/src/exe/rbdock.cxx#4 $)

>  <Rbt.Library>
libRbt.so (2013.1, Build901 2013/11/27)

>  <Rbt.Parameter_File>
/export/apps/rDock/src/rDock_2013.1_src/data/scripts/dock_solv.prm

>  <Rbt.Receptor>
prm/pocket_docking_4.prm

>  <SCORE>
-17.4369

>  <SCORE.INTER>
-17.442

>  <SCORE.INTER.CONST>
1

>  <SCORE.INTER.POLAR>
0

>  <SCORE.INTER.ROT>
0

>  <SCORE.INTER.SOLV>
3.7193

>  <SCORE.INTER.VDW>
-16.4678

>  <SCORE.INTER.norm>
-1.7442

>  <SCORE.INTRA>
0

>  <SCORE.INTRA.DIHEDRAL>
0

>  <SCORE.INTRA.DIHEDRAL.0>
0

>  <SCORE.INTRA.POLAR>
0

>  <SCORE.INTRA.POLAR.0>
0

>  <SCORE.INTRA.REPUL>
0

>  <SCORE.INTRA.REPUL.0>
0

>  <SCORE.INTRA.SOLV>
0

>  <SCORE.INTRA.SOLV.lig_0>
-4.28333

>  <SCORE.INTRA.VDW>
0

>  <SCORE.INTRA.VDW.0>
0

>  <SCORE.INTRA.norm>
0

>  <SCORE.RESTR>
0.00513702

>  <SCORE.RESTR.CAVITY>
0.00513702

>  <SCORE.RESTR.norm>
0.000513702

>  <SCORE.SYSTEM>
0

>  <SCORE.SYSTEM.CONST>
0

>  <SCORE.SYSTEM.DIHEDRAL>
0

>  <SCORE.SYSTEM.SOLV>
0

>  <SCORE.SYSTEM.norm>
0

>  <SCORE.heavy>
10

>  <SCORE.norm>
-1.74369

>  <RMSD>
0.450

$$$$
ligand
 OpenBabel02271912143D
libRbt.so/2013.1/901 2013/11/27
 10 11  0  0  0  0  0  0  0  0999 V2000
   11.8432   10.8704    8.7736 N   0  0  0  0  0  0  0  0  0  0  0  0
   11.5918   12.2183    8.8780 C   0  0  0  0  0  0  0  0  0  0  0  0
   11.2879   12.9666    7.8159 N   0  0  0  0  0  0  0  0  0  0  0  0
   11.2564   12.2635    6.6482 C   0  0  0  0  0  0  0  0  0  0  0  0
   11.4996   10.9151    6.4762 C   0  0  0  0  0  0  0  0  0  0  0  0
   11.8226   10.1110    7.6034 C   0  0  0  0  0  0  0  0  0  0  0  0
   12.0717    8.9018    7.6794 O   0  0  0  0  0  0  0  0  0  0  0  0
   11.3651   10.6169    5.1493 N   0  0  0  0  0  0  0  0  0  0  0  0
   11.0410   11.7713    4.5219 C   0  0  0  0  0  0  0  0  0  0  0  0
   10.9668   12.8111    5.4235 N   0  0  0  0  0  0  0  0  0  0  0  0
  1  2  1  0  0  0  0
  1  6  1  0  0  0  0
  2  3  2  0  0  0  0
  3  4  1  0  0  0  0
  4  5  2  0  0  0  0
  4 10  1  0  0  0  0
  5  6  1  0  0  0  0
  5  8  1  0  0  0  0
  6  7  2  0  0  0  0
  8  9  1  0  0  0  0
  9 10  2  0  0  0  0
M  END
>  <CHROM.1>
11.48605769,11.29934603,6.91414409,0.40411858,-1.32924317,0.93455304

>  <Name>
ligand

>  <RI>
0

>  <Rbt.Current_Directory>
/home/itssahil/PROJECTS/Mol_Feturizer/Test_systems_manuscript/rnas/4fe5

>  <Rbt.Executable>
rbdock ($Id: //depot/dev/client3/rdock/2013.1/src/exe/rbdock.cxx#4 $)

>  <Rbt.Library>
libRbt.so (2013.1, Build901 2013/11/27)

>  <Rbt.Parameter_File>
/export/apps/rDock/src/rDock_2013.1_src/data/scripts/dock_solv.prm

>  <Rbt.Receptor>
prm/pocket_docking_5.prm

>  <SCORE>
-17.46

>  <SCORE.INTER>
-17.46

>  <SCORE.INTER.CONST>
1

>  <SCORE.INTER.POLAR>
0

>  <SCORE.INTER.ROT>
0

>  <SCORE.INTER.SOLV>
3.75092

>  <SCORE.INTER.VDW>
-16.4903

>  <SCORE.INTER.norm>
-1.746

>  <SCORE.INTRA>
0

>  <SCORE.INTRA.DIHEDRAL>
0

>  <SCORE.INTRA.DIHEDRAL.0>
0

>  <SCORE.INTRA.POLAR>
0

>  <SCORE.INTRA.POLAR.0>
0

>  <SCORE.INTRA.REPUL>
0

>  <SCORE.INTRA.REPUL.0>
0

>  <SCORE.INTRA.SOLV>
0

>  <SCORE.INTRA.SOLV.lig_0>
-4.28333

>  <SCORE.INTRA.VDW>
0

>  <SCORE.INTRA.VDW.0>
0

>  <SCORE.INTRA.norm>
0

>  <SCORE.RESTR>
0

>  <SCORE.RESTR.CAVITY>
0

>  <SCORE.RESTR.norm>
0

>  <SCORE.SYSTEM>
0

>  <SCORE.SYSTEM.CONST>
0

>  <SCORE.SYSTEM.DIHEDRAL>
0

>  <SCORE.SYSTEM.SOLV>
0

>  <SCORE.SYSTEM.norm>
0

>  <SCORE.heavy>
10

>  <SCORE.norm>
-1.746

>  <RMSD>
0.450

$$$$
ligand
 OpenBabel02271912143D
libRbt.so/2013.1/901 2013/11/27
 10 11  0  0  0  0  0  0  0  0999 V2000
   11.8321   10.8805    8.7702 N   0  0  0  0  0  0  0  0  0  0  0  0
   11.5577   12.2251    8.8575 C   0  0  0  0  0  0  0  0  0  0  0  0
   11.2499   12.9564    7.7848 N   0  0  0  0  0  0  0  0  0  0  0  0
   11.2394   12.2400    6.6248 C   0  0  0  0  0  0  0  0  0  0  0  0
   11.5062   10.8939    6.4698 C   0  0  0  0  0  0  0  0  0  0  0  0
   11.8335   10.1079    7.6084 C   0  0  0  0  0  0  0  0  0  0  0  0
   12.1018    8.9039    7.6999 O   0  0  0  0  0  0  0  0  0  0  0  0
   11.3872   10.5789    5.1453 N   0  0  0  0  0  0  0  0  0  0  0  0
   11.0491   11.7207    4.5025 C   0  0  0  0  0  0  0  0  0  0  0  0
   10.9505   12.7691    5.3918 N   0  0  0  0  0  0  0  0  0  0  0  0
  1  2  1  0  0  0  0
  1  6  1  0  0  0  0
  2  3  2  0  0  0  0
  3  4  1  0  0  0  0
  4  5  2  0  0  0  0
  4 10  1  0  0  0  0
  5  6  1  0  0  0  0
  5  8  1  0  0  0  0
  6  7  2  0  0  0  0
  8  9  1  0  0  0  0
  9 10  2  0  0  0  0
M  END
>  <CHROM.1>
11.48278774,11.28277830,6.90330318,0.46962429,-1.32016833,0.98693805

>  <Name>
ligand

>  <RI>
0

>  <Rbt.Current_Directory>
/home/itssahil/PROJECTS/Mol_Feturizer/Test_systems_manuscript/rnas/4fe5

>  <Rbt.Executable>
rbdock ($Id: //depot/dev/client3/rdock/2013.1/src/exe/rbdock.cxx#4 $)

>  <Rbt.Library>
libRbt.so (2013.1, Build901 2013/11/27)

>  <Rbt.Parameter_File>
/export/apps/rDock/src/rDock_2013.1_src/data/scripts/dock_solv.prm

>  <Rbt.Receptor>
prm/pocket_docking_5.prm

>  <SCORE>
-17.4516

>  <SCORE.INTER>
-17.4516

>  <SCORE.INTER.CONST>
1

>  <SCORE.INTER.POLAR>
0

>  <SCORE.INTER.ROT>
0

>  <SCORE.INTER.SOLV>
3.741

>  <SCORE.INTER.VDW>
-16.4814

>  <SCORE.INTER.norm>
-1.74516

>  <SCORE.INTRA>
0

>  <SCORE.INTRA.DIHEDRAL>
0

>  <SCORE.INTRA.DIHEDRAL.0>
0

>  <SCORE.INTRA.POLAR>
0

>  <SCORE.INTRA.POLAR.0>
0

>  <SCORE.INTRA.REPUL>
0

>  <SCORE.INTRA.REPUL.0>
0

>  <SCORE.INTRA.SOLV>
0

>  <SCORE.INTRA.SOLV.lig_0>
-4.28333

>  <SCORE.INTRA.VDW>
0

>  <SCORE.INTRA.VDW.0>
0

>  <SCORE.INTRA.norm>
0

>  <SCORE.RESTR>
0

>  <SCORE.RESTR.CAVITY>
0

>  <SCORE.RESTR.norm>
0

>  <SCORE.SYSTEM>
0

>  <SCORE.SYSTEM.CONST>
0

>  <SCORE.SYSTEM.DIHEDRAL>
0

>  <SCORE.SYSTEM.SOLV>
0

>  <SCORE.SYSTEM.norm>
0

>  <SCORE.heavy>
10

>  <SCORE.norm>
-1.74516

>  <RMSD>
0.450

$$$$
ligand
 OpenBabel02271912143D
libRbt.so/2013.1/901 2013/11/27
 10 11  0  0  0  0  0  0  0  0999 V2000
   11.7460   10.7669    8.7547 N   0  0  0  0  0  0  0  0  0  0  0  0
   11.4225   12.0987    8.8679 C   0  0  0  0  0  0  0  0  0  0  0  0
   11.1138   12.8453    7.8060 N   0  0  0  0  0  0  0  0  0  0  0  0
   11.1549   12.1581    6.6292 C   0  0  0  0  0  0  0  0  0  0  0  0
   11.4723   10.8263    6.4483 C   0  0  0  0  0  0  0  0  0  0  0  0
   11.8010   10.0240    7.5751 C   0  0  0  0  0  0  0  0  0  0  0  0
   12.1093    8.8281    7.6440 O   0  0  0  0  0  0  0  0  0  0  0  0
   11.3948   10.5404    5.1142 N   0  0  0  0  0  0  0  0  0  0  0  0
   11.0314   11.6854    4.4912 C   0  0  0  0  0  0  0  0  0  0  0  0
   10.8758   12.7073    5.4029 N   0  0  0  0  0  0  0  0  0  0  0  0
  1  2  1  0  0  0  0
  1  6  1  0  0  0  0
  2  3  2  0  0  0  0
  3  4  1  0  0  0  0
  4  5  2  0  0  0  0
  4 10  1  0  0  0  0
  5  6  1  0  0  0  0
  5  8  1  0  0  0  0
  6  7  2  0  0  0  0
  8  9  1  0  0  0  0
  9 10  2  0  0  0  0
M  END
>  <CHROM.1>
11.42541157,11.20319619,6.89033963,0.61407235,-1.30072938,1.15100217

>  <Name>
ligand

>  <RI>
0

>  <Rbt.Current_Directory>
/home/itssahil/PROJECTS/Mol_Feturizer/Test_systems_manuscript/rnas/4fe5

>  <Rbt.Executable>
rbdock ($Id: //depot/dev/client3/rdock/2013.1/src/exe/rbdock.cxx#4 $)

>  <Rbt.Library>
libRbt.so (2013.1, Build901 2013/11/27)

>  <Rbt.Parameter_File>
/export/apps/rDock/src/rDock_2013.1_src/data/scripts/dock_solv.prm

>  <Rbt.Receptor>
prm/blind_docking_20.prm

>  <SCORE>
-17.2139

>  <SCORE.INTER>
-17.2141

>  <SCORE.INTER.CONST>
1

>  <SCORE.INTER.POLAR>
0

>  <SCORE.INTER.ROT>
0

>  <SCORE.INTER.SOLV>
3.72348

>  <SCORE.INTER.VDW>
-16.3172

>  <SCORE.INTER.norm>
-1.72141

>  <SCORE.INTRA>
0

>  <SCORE.INTRA.DIHEDRAL>
0

>  <SCORE.INTRA.DIHEDRAL.0>
0

>  <SCORE.INTRA.POLAR>
0

>  <SCORE.INTRA.POLAR.0>
0

>  <SCORE.INTRA.REPUL>
0

>  <SCORE.INTRA.REPUL.0>
0

>  <SCORE.INTRA.SOLV>
0

>  <SCORE.INTRA.SOLV.lig_0>
-4.28333

>  <SCORE.INTRA.VDW>
0

>  <SCORE.INTRA.VDW.0>
0

>  <SCORE.INTRA.norm>
0

>  <SCORE.RESTR>
0.000156218

>  <SCORE.RESTR.CAVITY>
0.000156218

>  <SCORE.RESTR.norm>
1.56218e-05

>  <SCORE.SYSTEM>
0

>  <SCORE.SYSTEM.CONST>
0

>  <SCORE.SYSTEM.DIHEDRAL>
0

>  <SCORE.SYSTEM.SOLV>
0

>  <SCORE.SYSTEM.norm>
0

>  <SCORE.heavy>
10

>  <SCORE.norm>
-1.72139

>  <RMSD>
0.451

$$$$
ligand
 OpenBabel02271912143D
libRbt.so/2013.1/901 2013/11/27
 10 11  0  0  0  0  0  0  0  0999 V2000
   11.9057   10.8698    8.7264 N   0  0  0  0  0  0  0  0  0  0  0  0
   11.6056   12.2069    8.8404 C   0  0  0  0  0  0  0  0  0  0  0  0
   11.2606   12.9479    7.7858 N   0  0  0  0  0  0  0  0  0  0  0  0
   11.2405   12.2492    6.6152 C   0  0  0  0  0  0  0  0  0  0  0  0
   11.5316   10.9115    6.4337 C   0  0  0  0  0  0  0  0  0  0  0  0
   11.8986   10.1152    7.5529 C   0  0  0  0  0  0  0  0  0  0  0  0
   12.1935    8.9158    7.6199 O   0  0  0  0  0  0  0  0  0  0  0  0
   11.3914   10.6143    5.1072 N   0  0  0  0  0  0  0  0  0  0  0  0
   11.0165   11.7585    4.4895 C   0  0  0  0  0  0  0  0  0  0  0  0
   10.9151   12.7908    5.3969 N   0  0  0  0  0  0  0  0  0  0  0  0
  1  2  1  0  0  0  0
  1  6  1  0  0  0  0
  2  3  2  0  0  0  0
  3  4  1  0  0  0  0
  4  5  2  0  0  0  0
  4 10  1  0  0  0  0
  5  6  1  0  0  0  0
  5  8  1  0  0  0  0
  6  7  2  0  0  0  0
  8  9  1  0  0  0  0
  9 10  2  0  0  0  0
M  END
>  <CHROM.1>
11.50925752,11.29311276,6.87363277,0.44735668,-1.29144588,0.98090831

>  <Name>
ligand

>  <RI>
0

>  <Rbt.Current_Directory>
/home/itssahil/PROJECTS/Mol_Feturizer/Test_systems_manuscript/rnas/4fe5

>  <Rbt.Executable>
rbdock ($Id: //depot/dev/client3/rdock/2013.1/src/exe/rbdock.cxx#4 $)

>  <Rbt.Library>
libRbt.so (2013.1, Build901 2013/11/27)

>  <Rbt.Parameter_File>
/export/apps/rDock/src/rDock_2013.1_src/data/scripts/dock_solv.prm

>  <Rbt.Receptor>
prm/blind_docking_40.prm

>  <SCORE>
-17.3977

>  <SCORE.INTER>
-17.3977

>  <SCORE.INTER.CONST>
1

>  <SCORE.INTER.POLAR>
0

>  <SCORE.INTER.ROT>
0

>  <SCORE.INTER.SOLV>
3.60439

>  <SCORE.INTER.VDW>
-16.3999

>  <SCORE.INTER.norm>
-1.73977

>  <SCORE.INTRA>
0

>  <SCORE.INTRA.DIHEDRAL>
0

>  <SCORE.INTRA.DIHEDRAL.0>
0

>  <SCORE.INTRA.POLAR>
0

>  <SCORE.INTRA.POLAR.0>
0

>  <SCORE.INTRA.REPUL>
0

>  <SCORE.INTRA.REPUL.0>
0

>  <SCORE.INTRA.SOLV>
0

>  <SCORE.INTRA.SOLV.lig_0>
-4.28333

>  <SCORE.INTRA.VDW>
0

>  <SCORE.INTRA.VDW.0>
0

>  <SCORE.INTRA.norm>
0

>  <SCORE.RESTR>
0

>  <SCORE.RESTR.CAVITY>
0

>  <SCORE.RESTR.norm>
0

>  <SCORE.SYSTEM>
0

>  <SCORE.SYSTEM.CONST>
0

>  <SCORE.SYSTEM.DIHEDRAL>
0

>  <SCORE.SYSTEM.SOLV>
0

>  <SCORE.SYSTEM.norm>
0

>  <SCORE.heavy>
10

>  <SCORE.norm>
-1.73977

>  <RMSD>
0.451

$$$$
ligand
 OpenBabel02271912143D
libRbt.so/2013.1/901 2013/11/27
 10 11  0  0  0  0  0  0  0  0999 V2000
   11.8124   10.8341    8.7605 N   0  0  0  0  0  0  0  0  0  0  0  0
   11.5344   12.1785    8.8401 C   0  0  0  0  0  0  0  0  0  0  0  0
   11.2251   12.9029    7.7632 N   0  0  0  0  0  0  0  0  0  0  0  0
   11.2168   12.1800    6.6072 C   0  0  0  0  0  0  0  0  0  0  0  0
   11.4873   10.8338    6.4600 C   0  0  0  0  0  0  0  0  0  0  0  0
   11.8162   10.0550    7.6031 C   0  0  0  0  0  0  0  0  0  0  0  0
   12.0877    8.8523    7.7015 O   0  0  0  0  0  0  0  0  0  0  0  0
   11.3696   10.5110    5.1373 N   0  0  0  0  0  0  0  0  0  0  0  0
   11.0287   11.6482    4.4879 C   0  0  0  0  0  0  0  0  0  0  0  0
   10.9270   12.7013    5.3712 N   0  0  0  0  0  0  0  0  0  0  0  0
  1  2  1  0  0  0  0
  1  6  1  0  0  0  0
  2  3  2  0  0  0  0
  3  4  1  0  0  0  0
  4  5  2  0  0  0  0
  4 10  1  0  0  0  0
  5  6  1  0  0  0  0
  5  8  1  0  0  0  0
  6  7  2  0  0  0  0
  8  9  1  0  0  0  0
  9 10  2  0  0  0  0
M  END
>  <CHROM.1>
11.46269488,11.22497057,6.89125558,0.47663747,-1.31815700,0.98809196

>  <Name>
ligand

>  <RI>
0

>  <Rbt.Current_Directory>
/home/itssahil/PROJECTS/Mol_Feturizer/Test_systems_manuscript/rnas/4fe5

>  <Rbt.Executable>
rbdock ($Id: //depot/dev/client3/rdock/2013.1/src/exe/rbdock.cxx#4 $)

>  <Rbt.Library>
libRbt.so (2013.1, Build901 2013/11/27)

>  <Rbt.Parameter_File>
/export/apps/rDock/src/rDock_2013.1_src/data/scripts/dock_solv.prm

>  <Rbt.Receptor>
prm/blind_docking_80.prm

>  <SCORE>
-17.439

>  <SCORE.INTER>
-17.439

>  <SCORE.INTER.CONST>
1

>  <SCORE.INTER.POLAR>
0

>  <SCORE.INTER.ROT>
0

>  <SCORE.INTER.SOLV>
3.75945

>  <SCORE.INTER.VDW>
-16.4792

>  <SCORE.INTER.norm>
-1.7439

>  <SCORE.INTRA>
0

>  <SCORE.INTRA.DIHEDRAL>
0

>  <SCORE.INTRA.DIHEDRAL.0>
0

>  <SCORE.INTRA.POLAR>
0

>  <SCORE.INTRA.POLAR.0>
0

>  <SCORE.INTRA.REPUL>
0

>  <SCORE.INTRA.REPUL.0>
0

>  <SCORE.INTRA.SOLV>
0

>  <SCORE.INTRA.SOLV.lig_0>
-4.28333

>  <SCORE.INTRA.VDW>
0

>  <SCORE.INTRA.VDW.0>
0

>  <SCORE.INTRA.norm>
0

>  <SCORE.RESTR>
0

>  <SCORE.RESTR.CAVITY>
0

>  <SCORE.RESTR.norm>
0

>  <SCORE.SYSTEM>
0

>  <SCORE.SYSTEM.CONST>
0

>  <SCORE.SYSTEM.DIHEDRAL>
0

>  <SCORE.SYSTEM.SOLV>
0

>  <SCORE.SYSTEM.norm>
0

>  <SCORE.heavy>
10

>  <SCORE.norm>
-1.7439

>  <RMSD>
0.451

$$$$
ligand
 OpenBabel02271912143D
libRbt.so/2013.1/901 2013/11/27
 10 11  0  0  0  0  0  0  0  0999 V2000
   11.8251   10.8627    8.7603 N   0  0  0  0  0  0  0  0  0  0  0  0
   11.5361   12.2052    8.8318 C   0  0  0  0  0  0  0  0  0  0  0  0
   11.2144   12.9191    7.7515 N   0  0  0  0  0  0  0  0  0  0  0  0
   11.2056   12.1877    6.6009 C   0  0  0  0  0  0  0  0  0  0  0  0
   11.4866   10.8428    6.4618 C   0  0  0  0  0  0  0  0  0  0  0  0
   11.8288   10.0752    7.6086 C   0  0  0  0  0  0  0  0  0  0  0  0
   12.1111    8.8756    7.7141 O   0  0  0  0  0  0  0  0  0  0  0  0
   11.3640   10.5094    5.1422 N   0  0  0  0  0  0  0  0  0  0  0  0
   11.0096   11.6389    4.4866 C   0  0  0  0  0  0  0  0  0  0  0  0
   10.9041   12.6975    5.3629 N   0  0  0  0  0  0  0  0  0  0  0  0
  1  2  1  0  0  0  0
  1  6  1  0  0  0  0
  2  3  2  0  0  0  0
  3  4  1  0  0  0  0
  4  5  2  0  0  0  0
  4 10  1  0  0  0  0
  5  6  1  0  0  0  0
  5  8  1  0  0  0  0
  6  7  2  0  0  0  0
  8  9  1  0  0  0  0
  9 10  2  0  0  0  0
M  END
>  <CHROM.1>
11.46117602,11.23691147,6.89037506,0.47593816,-1.30784156,0.98014440

>  <Name>
ligand

>  <RI>
0

>  <Rbt.Current_Directory>
/home/itssahil/PROJECTS/Mol_Feturizer/Test_systems_manuscript/rnas/4fe5

>  <Rbt.Executable>
rbdock ($Id: //depot/dev/client3/rdock/2013.1/src/exe/rbdock.cxx#4 $)

>  <Rbt.Library>
libRbt.so (2013.1, Build901 2013/11/27)

>  <Rbt.Parameter_File>
/export/apps/rDock/src/rDock_2013.1_src/data/scripts/dock_solv.prm

>  <Rbt.Receptor>
prm/pocket_docking_7.prm

>  <SCORE>
-17.4327

>  <SCORE.INTER>
-17.4327

>  <SCORE.INTER.CONST>
1

>  <SCORE.INTER.POLAR>
0

>  <SCORE.INTER.ROT>
0

>  <SCORE.INTER.SOLV>
3.73496

>  <SCORE.INTER.VDW>
-16.4668

>  <SCORE.INTER.norm>
-1.74327

>  <SCORE.INTRA>
0

>  <SCORE.INTRA.DIHEDRAL>
0

>  <SCORE.INTRA.DIHEDRAL.0>
0

>  <SCORE.INTRA.POLAR>
0

>  <SCORE.INTRA.POLAR.0>
0

>  <SCORE.INTRA.REPUL>
0

>  <SCORE.INTRA.REPUL.0>
0

>  <SCORE.INTRA.SOLV>
0

>  <SCORE.INTRA.SOLV.lig_0>
-4.28333

>  <SCORE.INTRA.VDW>
0

>  <SCORE.INTRA.VDW.0>
0

>  <SCORE.INTRA.norm>
0

>  <SCORE.RESTR>
0

>  <SCORE.RESTR.CAVITY>
0

>  <SCORE.RESTR.norm>
0

>  <SCORE.SYSTEM>
0

>  <SCORE.SYSTEM.CONST>
0

>  <SCORE.SYSTEM.DIHEDRAL>
0

>  <SCORE.SYSTEM.SOLV>
0

>  <SCORE.SYSTEM.norm>
0

>  <SCORE.heavy>
10

>  <SCORE.norm>
-1.74327

>  <RMSD>
0.451

$$$$
ligand
 OpenBabel02271912143D
libRbt.so/2013.1/901 2013/11/27
 10 11  0  0  0  0  0  0  0  0999 V2000
   11.8190   10.9837    8.8160 N   0  0  0  0  0  0  0  0  0  0  0  0
   11.5189   12.3254    8.8435 C   0  0  0  0  0  0  0  0  0  0  0  0
   11.1922   13.0009    7.7402 N   0  0  0  0  0  0  0  0  0  0  0  0
   11.1904   12.2322    6.6141 C   0  0  0  0  0  0  0  0  0  0  0  0
   11.4826   10.8858    6.5192 C   0  0  0  0  0  0  0  0  0  0  0  0
   11.8301   10.1590    7.6907 C   0  0  0  0  0  0  0  0  0  0  0  0
   12.1223    8.9658    7.8356 O   0  0  0  0  0  0  0  0  0  0  0  0
   11.3638   10.5084    5.2112 N   0  0  0  0  0  0  0  0  0  0  0  0
   11.0007   11.6129    4.5188 C   0  0  0  0  0  0  0  0  0  0  0  0
   10.8857   12.6987    5.3599 N   0  0  0  0  0  0  0  0  0  0  0  0
  1  2  1  0  0  0  0
  1  6  1  0  0  0  0
  2  3  2  0  0  0  0
  3  4  1  0  0  0  0
  4  5  2  0  0  0  0
  4 10  1  0  0  0  0
  5  6  1  0  0  0  0
  5  8  1  0  0  0  0
  6  7  2  0  0  0  0
  8  9  1  0  0  0  0
  9 10  2  0  0  0  0
M  END
>  <CHROM.1>
11.45357161,11.29351345,6.93467016,0.49582121,-1.30140750,0.96660033

>  <Name>
ligand

>  <RI>
0

>  <Rbt.Current_Directory>
/home/itssahil/PROJECTS/Mol_Feturizer/Test_systems_manuscript/rnas/4fe5

>  <Rbt.Executable>
rbdock ($Id: //depot/dev/client3/rdock/2013.1/src/exe/rbdock.cxx#4 $)

>  <Rbt.Library>
libRbt.so (2013.1, Build901 2013/11/27)

>  <Rbt.Parameter_File>
/export/apps/rDock/src/rDock_2013.1_src/data/scripts/dock_solv.prm

>  <Rbt.Receptor>
prm/blind_docking_40.prm

>  <SCORE>
-17.4326

>  <SCORE.INTER>
-17.4326

>  <SCORE.INTER.CONST>
1

>  <SCORE.INTER.POLAR>
0

>  <SCORE.INTER.ROT>
0

>  <SCORE.INTER.SOLV>
3.76294

>  <SCORE.INTER.VDW>
-16.476

>  <SCORE.INTER.norm>
-1.74326

>  <SCORE.INTRA>
0

>  <SCORE.INTRA.DIHEDRAL>
0

>  <SCORE.INTRA.DIHEDRAL.0>
0

>  <SCORE.INTRA.POLAR>
0

>  <SCORE.INTRA.POLAR.0>
0

>  <SCORE.INTRA.REPUL>
0

>  <SCORE.INTRA.REPUL.0>
0

>  <SCORE.INTRA.SOLV>
0

>  <SCORE.INTRA.SOLV.lig_0>
-4.28333

>  <SCORE.INTRA.VDW>
0

>  <SCORE.INTRA.VDW.0>
0

>  <SCORE.INTRA.norm>
0

>  <SCORE.RESTR>
0

>  <SCORE.RESTR.CAVITY>
0

>  <SCORE.RESTR.norm>
0

>  <SCORE.SYSTEM>
0

>  <SCORE.SYSTEM.CONST>
0

>  <SCORE.SYSTEM.DIHEDRAL>
0

>  <SCORE.SYSTEM.SOLV>
0

>  <SCORE.SYSTEM.norm>
0

>  <SCORE.heavy>
10

>  <SCORE.norm>
-1.74326

>  <RMSD>
0.452

$$$$
ligand
 OpenBabel02271912143D
libRbt.so/2013.1/901 2013/11/27
 10 11  0  0  0  0  0  0  0  0999 V2000
   11.9658   10.7515    8.6743 N   0  0  0  0  0  0  0  0  0  0  0  0
   11.6903   12.0919    8.8095 C   0  0  0  0  0  0  0  0  0  0  0  0
   11.3178   12.8465    7.7740 N   0  0  0  0  0  0  0  0  0  0  0  0
   11.2441   12.1577    6.5997 C   0  0  0  0  0  0  0  0  0  0  0  0
   11.5082   10.8174    6.3974 C   0  0  0  0  0  0  0  0  0  0  0  0
   11.9042   10.0067    7.4962 C   0  0  0  0  0  0  0  0  0  0  0  0
   12.1833    8.8026    7.5432 O   0  0  0  0  0  0  0  0  0  0  0  0
   11.3149   10.5331    5.0748 N   0  0  0  0  0  0  0  0  0  0  0  0
   10.9347   11.6877    4.4800 C   0  0  0  0  0  0  0  0  0  0  0  0
   10.8822   12.7140    5.3984 N   0  0  0  0  0  0  0  0  0  0  0  0
  1  2  1  0  0  0  0
  1  6  1  0  0  0  0
  2  3  2  0  0  0  0
  3  4  1  0  0  0  0
  4  5  2  0  0  0  0
  4 10  1  0  0  0  0
  5  6  1  0  0  0  0
  5  8  1  0  0  0  0
  6  7  2  0  0  0  0
  8  9  1  0  0  0  0
  9 10  2  0  0  0  0
M  END
>  <CHROM.1>
11.50783986,11.19570136,6.84073002,0.31067762,-1.28088988,0.85757634

>  <Name>
ligand

>  <RI>
0

>  <Rbt.Current_Directory>
/home/itssahil/PROJECTS/Mol_Feturizer/Test_systems_manuscript/rnas/4fe5

>  <Rbt.Executable>
rbdock ($Id: //depot/dev/client3/rdock/2013.1/src/exe/rbdock.cxx#4 $)

>  <Rbt.Library>
libRbt.so (2013.1, Build901 2013/11/27)

>  <Rbt.Parameter_File>
/export/apps/rDock/src/rDock_2013.1_src/data/scripts/dock_solv.prm

>  <Rbt.Receptor>
prm/pocket_docking_8.prm

>  <SCORE>
-17.3295

>  <SCORE.INTER>
-17.3295

>  <SCORE.INTER.CONST>
1

>  <SCORE.INTER.POLAR>
0

>  <SCORE.INTER.ROT>
0

>  <SCORE.INTER.SOLV>
3.56618

>  <SCORE.INTER.VDW>
-16.3418

>  <SCORE.INTER.norm>
-1.73295

>  <SCORE.INTRA>
0

>  <SCORE.INTRA.DIHEDRAL>
0

>  <SCORE.INTRA.DIHEDRAL.0>
0

>  <SCORE.INTRA.POLAR>
0

>  <SCORE.INTRA.POLAR.0>
0

>  <SCORE.INTRA.REPUL>
0

>  <SCORE.INTRA.REPUL.0>
0

>  <SCORE.INTRA.SOLV>
0

>  <SCORE.INTRA.SOLV.lig_0>
-4.28333

>  <SCORE.INTRA.VDW>
0

>  <SCORE.INTRA.VDW.0>
0

>  <SCORE.INTRA.norm>
0

>  <SCORE.RESTR>
0

>  <SCORE.RESTR.CAVITY>
0

>  <SCORE.RESTR.norm>
0

>  <SCORE.SYSTEM>
0

>  <SCORE.SYSTEM.CONST>
0

>  <SCORE.SYSTEM.DIHEDRAL>
0

>  <SCORE.SYSTEM.SOLV>
0

>  <SCORE.SYSTEM.norm>
0

>  <SCORE.heavy>
10

>  <SCORE.norm>
-1.73295

>  <RMSD>
0.452

$$$$
ligand
 OpenBabel02271912143D
libRbt.so/2013.1/901 2013/11/27
 10 11  0  0  0  0  0  0  0  0999 V2000
   11.8257   10.8691    8.7642 N   0  0  0  0  0  0  0  0  0  0  0  0
   11.5485   12.2139    8.8402 C   0  0  0  0  0  0  0  0  0  0  0  0
   11.2369   12.9350    7.7618 N   0  0  0  0  0  0  0  0  0  0  0  0
   11.2255   12.2084    6.6081 C   0  0  0  0  0  0  0  0  0  0  0  0
   11.4949   10.8616    6.4645 C   0  0  0  0  0  0  0  0  0  0  0  0
   11.8262   10.0864    7.6093 C   0  0  0  0  0  0  0  0  0  0  0  0
   12.0974    8.8838    7.7108 O   0  0  0  0  0  0  0  0  0  0  0  0
   11.3738   10.5347    5.1431 N   0  0  0  0  0  0  0  0  0  0  0  0
   11.0318   11.6701    4.4910 C   0  0  0  0  0  0  0  0  0  0  0  0
   10.9328   12.7260    5.3712 N   0  0  0  0  0  0  0  0  0  0  0  0
  1  2  1  0  0  0  0
  1  6  1  0  0  0  0
  2  3  2  0  0  0  0
  3  4  1  0  0  0  0
  4  5  2  0  0  0  0
  4 10  1  0  0  0  0
  5  6  1  0  0  0  0
  5  8  1  0  0  0  0
  6  7  2  0  0  0  0
  8  9  1  0  0  0  0
  9 10  2  0  0  0  0
M  END
>  <CHROM.1>
11.47154173,11.25421862,6.89457172,0.46731529,-1.31720465,0.97588768

>  <Name>
ligand

>  <RI>
0

>  <Rbt.Current_Directory>
/home/itssahil/PROJECTS/Mol_Feturizer/Test_systems_manuscript/rnas/4fe5

>  <Rbt.Executable>
rbdock ($Id: //depot/dev/client3/rdock/2013.1/src/exe/rbdock.cxx#4 $)

>  <Rbt.Library>
libRbt.so (2013.1, Build901 2013/11/27)

>  <Rbt.Parameter_File>
/export/apps/rDock/src/rDock_2013.1_src/data/scripts/dock_solv.prm

>  <Rbt.Receptor>
prm/blind_docking_40.prm

>  <SCORE>
-17.424

>  <SCORE.INTER>
-17.424

>  <SCORE.INTER.CONST>
1

>  <SCORE.INTER.POLAR>
0

>  <SCORE.INTER.ROT>
0

>  <SCORE.INTER.SOLV>
3.75073

>  <SCORE.INTER.VDW>
-16.4663

>  <SCORE.INTER.norm>
-1.7424

>  <SCORE.INTRA>
0

>  <SCORE.INTRA.DIHEDRAL>
0

>  <SCORE.INTRA.DIHEDRAL.0>
0

>  <SCORE.INTRA.POLAR>
0

>  <SCORE.INTRA.POLAR.0>
0

>  <SCORE.INTRA.REPUL>
0

>  <SCORE.INTRA.REPUL.0>
0

>  <SCORE.INTRA.SOLV>
0

>  <SCORE.INTRA.SOLV.lig_0>
-4.28333

>  <SCORE.INTRA.VDW>
0

>  <SCORE.INTRA.VDW.0>
0

>  <SCORE.INTRA.norm>
0

>  <SCORE.RESTR>
0

>  <SCORE.RESTR.CAVITY>
0

>  <SCORE.RESTR.norm>
0

>  <SCORE.SYSTEM>
0

>  <SCORE.SYSTEM.CONST>
0

>  <SCORE.SYSTEM.DIHEDRAL>
0

>  <SCORE.SYSTEM.SOLV>
0

>  <SCORE.SYSTEM.norm>
0

>  <SCORE.heavy>
10

>  <SCORE.norm>
-1.7424

>  <RMSD>
0.453

$$$$
ligand
 OpenBabel02271912143D
libRbt.so/2013.1/901 2013/11/27
 10 11  0  0  0  0  0  0  0  0999 V2000
   11.8400   10.8229    8.7413 N   0  0  0  0  0  0  0  0  0  0  0  0
   11.5622   12.1668    8.8294 C   0  0  0  0  0  0  0  0  0  0  0  0
   11.2438   12.8960    7.7584 N   0  0  0  0  0  0  0  0  0  0  0  0
   11.2264   12.1785    6.5992 C   0  0  0  0  0  0  0  0  0  0  0  0
   11.4962   10.8331    6.4435 C   0  0  0  0  0  0  0  0  0  0  0  0
   11.8347   10.0492    7.5803 C   0  0  0  0  0  0  0  0  0  0  0  0
   12.1075    8.8461    7.6709 O   0  0  0  0  0  0  0  0  0  0  0  0
   11.3679   10.5164    5.1203 N   0  0  0  0  0  0  0  0  0  0  0  0
   11.0212   11.6565    4.4790 C   0  0  0  0  0  0  0  0  0  0  0  0
   10.9263   12.7054    5.3681 N   0  0  0  0  0  0  0  0  0  0  0  0
  1  2  1  0  0  0  0
  1  6  1  0  0  0  0
  2  3  2  0  0  0  0
  3  4  1  0  0  0  0
  4  5  2  0  0  0  0
  4 10  1  0  0  0  0
  5  6  1  0  0  0  0
  5  8  1  0  0  0  0
  6  7  2  0  0  0  0
  8  9  1  0  0  0  0
  9 10  2  0  0  0  0
M  END
>  <CHROM.1>
11.47495685,11.22226894,6.87679951,0.45073500,-1.31328039,0.96766623

>  <Name>
ligand

>  <RI>
0

>  <Rbt.Current_Directory>
/home/itssahil/PROJECTS/Mol_Feturizer/Test_systems_manuscript/rnas/4fe5

>  <Rbt.Executable>
rbdock ($Id: //depot/dev/client3/rdock/2013.1/src/exe/rbdock.cxx#4 $)

>  <Rbt.Library>
libRbt.so (2013.1, Build901 2013/11/27)

>  <Rbt.Parameter_File>
/export/apps/rDock/src/rDock_2013.1_src/data/scripts/dock_solv.prm

>  <Rbt.Receptor>
prm/blind_docking_60.prm

>  <SCORE>
-17.4259

>  <SCORE.INTER>
-17.4259

>  <SCORE.INTER.CONST>
1

>  <SCORE.INTER.POLAR>
0

>  <SCORE.INTER.ROT>
0

>  <SCORE.INTER.SOLV>
3.72202

>  <SCORE.INTER.VDW>
-16.458

>  <SCORE.INTER.norm>
-1.74259

>  <SCORE.INTRA>
0

>  <SCORE.INTRA.DIHEDRAL>
0

>  <SCORE.INTRA.DIHEDRAL.0>
0

>  <SCORE.INTRA.POLAR>
0

>  <SCORE.INTRA.POLAR.0>
0

>  <SCORE.INTRA.REPUL>
0

>  <SCORE.INTRA.REPUL.0>
0

>  <SCORE.INTRA.SOLV>
0

>  <SCORE.INTRA.SOLV.lig_0>
-4.28333

>  <SCORE.INTRA.VDW>
0

>  <SCORE.INTRA.VDW.0>
0

>  <SCORE.INTRA.norm>
0

>  <SCORE.RESTR>
0

>  <SCORE.RESTR.CAVITY>
0

>  <SCORE.RESTR.norm>
0

>  <SCORE.SYSTEM>
0

>  <SCORE.SYSTEM.CONST>
0

>  <SCORE.SYSTEM.DIHEDRAL>
0

>  <SCORE.SYSTEM.SOLV>
0

>  <SCORE.SYSTEM.norm>
0

>  <SCORE.heavy>
10

>  <SCORE.norm>
-1.74259

>  <RMSD>
0.453

$$$$
ligand
 OpenBabel02271912143D
libRbt.so/2013.1/901 2013/11/27
 10 11  0  0  0  0  0  0  0  0999 V2000
   11.8517   10.8739    8.7507 N   0  0  0  0  0  0  0  0  0  0  0  0
   11.5594   12.2136    8.8539 C   0  0  0  0  0  0  0  0  0  0  0  0
   11.2423   12.9534    7.7898 N   0  0  0  0  0  0  0  0  0  0  0  0
   11.2417   12.2509    6.6213 C   0  0  0  0  0  0  0  0  0  0  0  0
   11.5265   10.9104    6.4505 C   0  0  0  0  0  0  0  0  0  0  0  0
   11.8638   10.1153    7.5798 C   0  0  0  0  0  0  0  0  0  0  0  0
   12.1481    8.9139    7.6571 O   0  0  0  0  0  0  0  0  0  0  0  0
   11.4122   10.6096    5.1223 N   0  0  0  0  0  0  0  0  0  0  0  0
   11.0591   11.7544    4.4930 C   0  0  0  0  0  0  0  0  0  0  0  0
   10.9462   12.7907    5.3947 N   0  0  0  0  0  0  0  0  0  0  0  0
  1  2  1  0  0  0  0
  1  6  1  0  0  0  0
  2  3  2  0  0  0  0
  3  4  1  0  0  0  0
  4  5  2  0  0  0  0
  4 10  1  0  0  0  0
  5  6  1  0  0  0  0
  5  8  1  0  0  0  0
  6  7  2  0  0  0  0
  8  9  1  0  0  0  0
  9 10  2  0  0  0  0
M  END
>  <CHROM.1>
11.49774440,11.29368534,6.88858200,0.49915332,-1.30913464,1.02742291

>  <Name>
ligand

>  <RI>
0

>  <Rbt.Current_Directory>
/home/itssahil/PROJECTS/Mol_Feturizer/Test_systems_manuscript/rnas/4fe5

>  <Rbt.Executable>
rbdock ($Id: //depot/dev/client3/rdock/2013.1/src/exe/rbdock.cxx#4 $)

>  <Rbt.Library>
libRbt.so (2013.1, Build901 2013/11/27)

>  <Rbt.Parameter_File>
/export/apps/rDock/src/rDock_2013.1_src/data/scripts/dock_solv.prm

>  <Rbt.Receptor>
prm/pocket_docking_3.prm

>  <SCORE>
-17.3825

>  <SCORE.INTER>
-17.3825

>  <SCORE.INTER.CONST>
1

>  <SCORE.INTER.POLAR>
0

>  <SCORE.INTER.ROT>
0

>  <SCORE.INTER.SOLV>
3.6825

>  <SCORE.INTER.VDW>
-16.4158

>  <SCORE.INTER.norm>
-1.73825

>  <SCORE.INTRA>
0

>  <SCORE.INTRA.DIHEDRAL>
0

>  <SCORE.INTRA.DIHEDRAL.0>
0

>  <SCORE.INTRA.POLAR>
0

>  <SCORE.INTRA.POLAR.0>
0

>  <SCORE.INTRA.REPUL>
0

>  <SCORE.INTRA.REPUL.0>
0

>  <SCORE.INTRA.SOLV>
0

>  <SCORE.INTRA.SOLV.lig_0>
-4.28333

>  <SCORE.INTRA.VDW>
0

>  <SCORE.INTRA.VDW.0>
0

>  <SCORE.INTRA.norm>
0

>  <SCORE.RESTR>
0

>  <SCORE.RESTR.CAVITY>
0

>  <SCORE.RESTR.norm>
0

>  <SCORE.SYSTEM>
0

>  <SCORE.SYSTEM.CONST>
0

>  <SCORE.SYSTEM.DIHEDRAL>
0

>  <SCORE.SYSTEM.SOLV>
0

>  <SCORE.SYSTEM.norm>
0

>  <SCORE.heavy>
10

>  <SCORE.norm>
-1.73825

>  <RMSD>
0.453

$$$$
ligand
 OpenBabel02271912143D
libRbt.so/2013.1/901 2013/11/27
 10 11  0  0  0  0  0  0  0  0999 V2000
   11.8283   10.9678    8.8016 N   0  0  0  0  0  0  0  0  0  0  0  0
   11.5289   12.3095    8.8346 C   0  0  0  0  0  0  0  0  0  0  0  0
   11.2027   12.9898    7.7342 N   0  0  0  0  0  0  0  0  0  0  0  0
   11.2006   12.2259    6.6049 C   0  0  0  0  0  0  0  0  0  0  0  0
   11.4922   10.8798    6.5043 C   0  0  0  0  0  0  0  0  0  0  0  0
   11.8392   10.1479    7.6728 C   0  0  0  0  0  0  0  0  0  0  0  0
   12.1307    8.9540    7.8126 O   0  0  0  0  0  0  0  0  0  0  0  0
   11.3735   10.5080    5.1947 N   0  0  0  0  0  0  0  0  0  0  0  0
   11.0110   11.6156    4.5069 C   0  0  0  0  0  0  0  0  0  0  0  0
   10.8964   12.6979    5.3526 N   0  0  0  0  0  0  0  0  0  0  0  0
  1  2  1  0  0  0  0
  1  6  1  0  0  0  0
  2  3  2  0  0  0  0
  3  4  1  0  0  0  0
  4  5  2  0  0  0  0
  4 10  1  0  0  0  0
  5  6  1  0  0  0  0
  5  8  1  0  0  0  0
  6  7  2  0  0  0  0
  8  9  1  0  0  0  0
  9 10  2  0  0  0  0
M  END
>  <CHROM.1>
11.46332948,11.28576103,6.92149885,0.49518599,-1.30191473,0.97022287

>  <Name>
ligand

>  <RI>
0

>  <Rbt.Current_Directory>
/home/itssahil/PROJECTS/Mol_Feturizer/Test_systems_manuscript/rnas/4fe5

>  <Rbt.Executable>
rbdock ($Id: //depot/dev/client3/rdock/2013.1/src/exe/rbdock.cxx#4 $)

>  <Rbt.Library>
libRbt.so (2013.1, Build901 2013/11/27)

>  <Rbt.Parameter_File>
/export/apps/rDock/src/rDock_2013.1_src/data/scripts/dock_solv.prm

>  <Rbt.Receptor>
prm/pocket_docking_8.prm

>  <SCORE>
-17.4589

>  <SCORE.INTER>
-17.4645

>  <SCORE.INTER.CONST>
1

>  <SCORE.INTER.POLAR>
0

>  <SCORE.INTER.ROT>
0

>  <SCORE.INTER.SOLV>
3.74932

>  <SCORE.INTER.VDW>
-16.4928

>  <SCORE.INTER.norm>
-1.74645

>  <SCORE.INTRA>
0

>  <SCORE.INTRA.DIHEDRAL>
0

>  <SCORE.INTRA.DIHEDRAL.0>
0

>  <SCORE.INTRA.POLAR>
0

>  <SCORE.INTRA.POLAR.0>
0

>  <SCORE.INTRA.REPUL>
0

>  <SCORE.INTRA.REPUL.0>
0

>  <SCORE.INTRA.SOLV>
0

>  <SCORE.INTRA.SOLV.lig_0>
-4.28333

>  <SCORE.INTRA.VDW>
0

>  <SCORE.INTRA.VDW.0>
0

>  <SCORE.INTRA.norm>
0

>  <SCORE.RESTR>
0.00556894

>  <SCORE.RESTR.CAVITY>
0.00556894

>  <SCORE.RESTR.norm>
0.000556894

>  <SCORE.SYSTEM>
0

>  <SCORE.SYSTEM.CONST>
0

>  <SCORE.SYSTEM.DIHEDRAL>
0

>  <SCORE.SYSTEM.SOLV>
0

>  <SCORE.SYSTEM.norm>
0

>  <SCORE.heavy>
10

>  <SCORE.norm>
-1.74589

>  <RMSD>
0.453

$$$$
ligand
 OpenBabel02271912143D
libRbt.so/2013.1/901 2013/11/27
 10 11  0  0  0  0  0  0  0  0999 V2000
   11.8471   10.9403    8.7787 N   0  0  0  0  0  0  0  0  0  0  0  0
   11.5555   12.2829    8.8374 C   0  0  0  0  0  0  0  0  0  0  0  0
   11.2227   12.9836    7.7518 N   0  0  0  0  0  0  0  0  0  0  0  0
   11.2057   12.2391    6.6098 C   0  0  0  0  0  0  0  0  0  0  0  0
   11.4888   10.8934    6.4836 C   0  0  0  0  0  0  0  0  0  0  0  0
   11.8428   10.1398    7.6360 C   0  0  0  0  0  0  0  0  0  0  0  0
   12.1289    8.9421    7.7527 O   0  0  0  0  0  0  0  0  0  0  0  0
   11.3556   10.5446    5.1690 N   0  0  0  0  0  0  0  0  0  0  0  0
   10.9927   11.6658    4.5037 C   0  0  0  0  0  0  0  0  0  0  0  0
   10.8922   12.7341    5.3687 N   0  0  0  0  0  0  0  0  0  0  0  0
  1  2  1  0  0  0  0
  1  6  1  0  0  0  0
  2  3  2  0  0  0  0
  3  4  1  0  0  0  0
  4  5  2  0  0  0  0
  4 10  1  0  0  0  0
  5  6  1  0  0  0  0
  5  8  1  0  0  0  0
  6  7  2  0  0  0  0
  8  9  1  0  0  0  0
  9 10  2  0  0  0  0
M  END
>  <CHROM.1>
11.46611417,11.29231156,6.90783028,0.45406274,-1.30092575,0.94762621

>  <Name>
ligand

>  <RI>
0

>  <Rbt.Current_Directory>
/home/itssahil/PROJECTS/Mol_Feturizer/Test_systems_manuscript/rnas/4fe5

>  <Rbt.Executable>
rbdock ($Id: //depot/dev/client3/rdock/2013.1/src/exe/rbdock.cxx#4 $)

>  <Rbt.Library>
libRbt.so (2013.1, Build901 2013/11/27)

>  <Rbt.Parameter_File>
/export/apps/rDock/src/rDock_2013.1_src/data/scripts/dock_solv.prm

>  <Rbt.Receptor>
prm/pocket_docking_8.prm

>  <SCORE>
-17.4247

>  <SCORE.INTER>
-17.4316

>  <SCORE.INTER.CONST>
1

>  <SCORE.INTER.POLAR>
0

>  <SCORE.INTER.ROT>
0

>  <SCORE.INTER.SOLV>
3.7182

>  <SCORE.INTER.VDW>
-16.4605

>  <SCORE.INTER.norm>
-1.74316

>  <SCORE.INTRA>
0

>  <SCORE.INTRA.DIHEDRAL>
0

>  <SCORE.INTRA.DIHEDRAL.0>
0

>  <SCORE.INTRA.POLAR>
0

>  <SCORE.INTRA.POLAR.0>
0

>  <SCORE.INTRA.REPUL>
0

>  <SCORE.INTRA.REPUL.0>
0

>  <SCORE.INTRA.SOLV>
0

>  <SCORE.INTRA.SOLV.lig_0>
-4.28333

>  <SCORE.INTRA.VDW>
0

>  <SCORE.INTRA.VDW.0>
0

>  <SCORE.INTRA.norm>
0

>  <SCORE.RESTR>
0.00689587

>  <SCORE.RESTR.CAVITY>
0.00689587

>  <SCORE.RESTR.norm>
0.000689587

>  <SCORE.SYSTEM>
0

>  <SCORE.SYSTEM.CONST>
0

>  <SCORE.SYSTEM.DIHEDRAL>
0

>  <SCORE.SYSTEM.SOLV>
0

>  <SCORE.SYSTEM.norm>
0

>  <SCORE.heavy>
10

>  <SCORE.norm>
-1.74247

>  <RMSD>
0.453

$$$$
ligand
 OpenBabel02271912143D
libRbt.so/2013.1/901 2013/11/27
 10 11  0  0  0  0  0  0  0  0999 V2000
   11.8384   10.8256    8.7421 N   0  0  0  0  0  0  0  0  0  0  0  0
   11.5621   12.1699    8.8282 C   0  0  0  0  0  0  0  0  0  0  0  0
   11.2454   12.8981    7.7559 N   0  0  0  0  0  0  0  0  0  0  0  0
   11.2278   12.1789    6.5977 C   0  0  0  0  0  0  0  0  0  0  0  0
   11.4960   10.8330    6.4441 C   0  0  0  0  0  0  0  0  0  0  0  0
   11.8328   10.0503    7.5822 C   0  0  0  0  0  0  0  0  0  0  0  0
   12.1040    8.8470    7.6746 O   0  0  0  0  0  0  0  0  0  0  0  0
   11.3681   10.5146    5.1213 N   0  0  0  0  0  0  0  0  0  0  0  0
   11.0232   11.6542    4.4782 C   0  0  0  0  0  0  0  0  0  0  0  0
   10.9291   12.7045    5.3657 N   0  0  0  0  0  0  0  0  0  0  0  0
  1  2  1  0  0  0  0
  1  6  1  0  0  0  0
  2  3  2  0  0  0  0
  3  4  1  0  0  0  0
  4  5  2  0  0  0  0
  4 10  1  0  0  0  0
  5  6  1  0  0  0  0
  5  8  1  0  0  0  0
  6  7  2  0  0  0  0
  8  9  1  0  0  0  0
  9 10  2  0  0  0  0
M  END
>  <CHROM.1>
11.47495193,11.22278033,6.87680168,0.44994759,-1.31463871,0.96549847

>  <Name>
ligand

>  <RI>
0

>  <Rbt.Current_Directory>
/home/itssahil/PROJECTS/Mol_Feturizer/Test_systems_manuscript/rnas/4fe5

>  <Rbt.Executable>
rbdock ($Id: //depot/dev/client3/rdock/2013.1/src/exe/rbdock.cxx#4 $)

>  <Rbt.Library>
libRbt.so (2013.1, Build901 2013/11/27)

>  <Rbt.Parameter_File>
/export/apps/rDock/src/rDock_2013.1_src/data/scripts/dock_solv.prm

>  <Rbt.Receptor>
prm/blind_docking_60.prm

>  <SCORE>
-17.426

>  <SCORE.INTER>
-17.426

>  <SCORE.INTER.CONST>
1

>  <SCORE.INTER.POLAR>
0

>  <SCORE.INTER.ROT>
0

>  <SCORE.INTER.SOLV>
3.72765

>  <SCORE.INTER.VDW>
-16.4599

>  <SCORE.INTER.norm>
-1.7426

>  <SCORE.INTRA>
0

>  <SCORE.INTRA.DIHEDRAL>
0

>  <SCORE.INTRA.DIHEDRAL.0>
0

>  <SCORE.INTRA.POLAR>
0

>  <SCORE.INTRA.POLAR.0>
0

>  <SCORE.INTRA.REPUL>
0

>  <SCORE.INTRA.REPUL.0>
0

>  <SCORE.INTRA.SOLV>
0

>  <SCORE.INTRA.SOLV.lig_0>
-4.28333

>  <SCORE.INTRA.VDW>
0

>  <SCORE.INTRA.VDW.0>
0

>  <SCORE.INTRA.norm>
0

>  <SCORE.RESTR>
0

>  <SCORE.RESTR.CAVITY>
0

>  <SCORE.RESTR.norm>
0

>  <SCORE.SYSTEM>
0

>  <SCORE.SYSTEM.CONST>
0

>  <SCORE.SYSTEM.DIHEDRAL>
0

>  <SCORE.SYSTEM.SOLV>
0

>  <SCORE.SYSTEM.norm>
0

>  <SCORE.heavy>
10

>  <SCORE.norm>
-1.7426

>  <RMSD>
0.454

$$$$
ligand
 OpenBabel02271912143D
libRbt.so/2013.1/901 2013/11/27
 10 11  0  0  0  0  0  0  0  0999 V2000
   11.9034   10.8694    8.7237 N   0  0  0  0  0  0  0  0  0  0  0  0
   11.6070   12.2072    8.8395 C   0  0  0  0  0  0  0  0  0  0  0  0
   11.2597   12.9495    7.7865 N   0  0  0  0  0  0  0  0  0  0  0  0
   11.2335   12.2514    6.6157 C   0  0  0  0  0  0  0  0  0  0  0  0
   11.5206   10.9130    6.4325 C   0  0  0  0  0  0  0  0  0  0  0  0
   11.8900   10.1154    7.5500 C   0  0  0  0  0  0  0  0  0  0  0  0
   12.1822    8.9152    7.6154 O   0  0  0  0  0  0  0  0  0  0  0  0
   11.3747   10.6167    5.1064 N   0  0  0  0  0  0  0  0  0  0  0  0
   11.0002   11.7621    4.4906 C   0  0  0  0  0  0  0  0  0  0  0  0
   10.9047   12.7943    5.3989 N   0  0  0  0  0  0  0  0  0  0  0  0
  1  2  1  0  0  0  0
  1  6  1  0  0  0  0
  2  3  2  0  0  0  0
  3  4  1  0  0  0  0
  4  5  2  0  0  0  0
  4 10  1  0  0  0  0
  5  6  1  0  0  0  0
  5  8  1  0  0  0  0
  6  7  2  0  0  0  0
  8  9  1  0  0  0  0
  9 10  2  0  0  0  0
M  END
>  <CHROM.1>
11.50092013,11.29451354,6.87267841,0.43096180,-1.29131489,0.96556583

>  <Name>
ligand

>  <RI>
0

>  <Rbt.Current_Directory>
/home/itssahil/PROJECTS/Mol_Feturizer/Test_systems_manuscript/rnas/4fe5

>  <Rbt.Executable>
rbdock ($Id: //depot/dev/client3/rdock/2013.1/src/exe/rbdock.cxx#4 $)

>  <Rbt.Library>
libRbt.so (2013.1, Build901 2013/11/27)

>  <Rbt.Parameter_File>
/export/apps/rDock/src/rDock_2013.1_src/data/scripts/dock_solv.prm

>  <Rbt.Receptor>
prm/pocket_docking_3.prm

>  <SCORE>
-17.3987

>  <SCORE.INTER>
-17.3987

>  <SCORE.INTER.CONST>
1

>  <SCORE.INTER.POLAR>
0

>  <SCORE.INTER.ROT>
0

>  <SCORE.INTER.SOLV>
3.60725

>  <SCORE.INTER.VDW>
-16.4016

>  <SCORE.INTER.norm>
-1.73987

>  <SCORE.INTRA>
0

>  <SCORE.INTRA.DIHEDRAL>
0

>  <SCORE.INTRA.DIHEDRAL.0>
0

>  <SCORE.INTRA.POLAR>
0

>  <SCORE.INTRA.POLAR.0>
0

>  <SCORE.INTRA.REPUL>
0

>  <SCORE.INTRA.REPUL.0>
0

>  <SCORE.INTRA.SOLV>
0

>  <SCORE.INTRA.SOLV.lig_0>
-4.28333

>  <SCORE.INTRA.VDW>
0

>  <SCORE.INTRA.VDW.0>
0

>  <SCORE.INTRA.norm>
0

>  <SCORE.RESTR>
0

>  <SCORE.RESTR.CAVITY>
0

>  <SCORE.RESTR.norm>
0

>  <SCORE.SYSTEM>
0

>  <SCORE.SYSTEM.CONST>
0

>  <SCORE.SYSTEM.DIHEDRAL>
0

>  <SCORE.SYSTEM.SOLV>
0

>  <SCORE.SYSTEM.norm>
0

>  <SCORE.heavy>
10

>  <SCORE.norm>
-1.73987

>  <RMSD>
0.454

$$$$
ligand
 OpenBabel02271912143D
libRbt.so/2013.1/901 2013/11/27
 10 11  0  0  0  0  0  0  0  0999 V2000
   11.8569   10.8849    8.7539 N   0  0  0  0  0  0  0  0  0  0  0  0
   11.5833   12.2292    8.8475 C   0  0  0  0  0  0  0  0  0  0  0  0
   11.2496   12.9601    7.7822 N   0  0  0  0  0  0  0  0  0  0  0  0
   11.2125   12.2435    6.6229 C   0  0  0  0  0  0  0  0  0  0  0  0
   11.4770   10.8977    6.4618 C   0  0  0  0  0  0  0  0  0  0  0  0
   11.8317   10.1121    7.5926 C   0  0  0  0  0  0  0  0  0  0  0  0
   12.1034    8.9084    7.6779 O   0  0  0  0  0  0  0  0  0  0  0  0
   11.3272   10.5823    5.1406 N   0  0  0  0  0  0  0  0  0  0  0  0
   10.9729   11.7237    4.5058 C   0  0  0  0  0  0  0  0  0  0  0  0
   10.8942   12.7721    5.3970 N   0  0  0  0  0  0  0  0  0  0  0  0
  1  2  1  0  0  0  0
  1  6  1  0  0  0  0
  2  3  2  0  0  0  0
  3  4  1  0  0  0  0
  4  5  2  0  0  0  0
  4 10  1  0  0  0  0
  5  6  1  0  0  0  0
  5  8  1  0  0  0  0
  6  7  2  0  0  0  0
  8  9  1  0  0  0  0
  9 10  2  0  0  0  0
M  END
>  <CHROM.1>
11.46337590,11.28654496,6.89574085,0.39674632,-1.30569347,0.91632896

>  <Name>
ligand

>  <RI>
0

>  <Rbt.Current_Directory>
/home/itssahil/PROJECTS/Mol_Feturizer/Test_systems_manuscript/rnas/4fe5

>  <Rbt.Executable>
rbdock ($Id: //depot/dev/client3/rdock/2013.1/src/exe/rbdock.cxx#4 $)

>  <Rbt.Library>
libRbt.so (2013.1, Build901 2013/11/27)

>  <Rbt.Parameter_File>
/export/apps/rDock/src/rDock_2013.1_src/data/scripts/dock_solv.prm

>  <Rbt.Receptor>
prm/pocket_docking_3.prm

>  <SCORE>
-17.412

>  <SCORE.INTER>
-17.412

>  <SCORE.INTER.CONST>
1

>  <SCORE.INTER.POLAR>
0

>  <SCORE.INTER.ROT>
0

>  <SCORE.INTER.SOLV>
3.70356

>  <SCORE.INTER.VDW>
-16.4425

>  <SCORE.INTER.norm>
-1.7412

>  <SCORE.INTRA>
0

>  <SCORE.INTRA.DIHEDRAL>
0

>  <SCORE.INTRA.DIHEDRAL.0>
0

>  <SCORE.INTRA.POLAR>
0

>  <SCORE.INTRA.POLAR.0>
0

>  <SCORE.INTRA.REPUL>
0

>  <SCORE.INTRA.REPUL.0>
0

>  <SCORE.INTRA.SOLV>
0

>  <SCORE.INTRA.SOLV.lig_0>
-4.28333

>  <SCORE.INTRA.VDW>
0

>  <SCORE.INTRA.VDW.0>
0

>  <SCORE.INTRA.norm>
0

>  <SCORE.RESTR>
3.50194e-05

>  <SCORE.RESTR.CAVITY>
3.50194e-05

>  <SCORE.RESTR.norm>
3.50194e-06

>  <SCORE.SYSTEM>
0

>  <SCORE.SYSTEM.CONST>
0

>  <SCORE.SYSTEM.DIHEDRAL>
0

>  <SCORE.SYSTEM.SOLV>
0

>  <SCORE.SYSTEM.norm>
0

>  <SCORE.heavy>
10

>  <SCORE.norm>
-1.7412

>  <RMSD>
0.454

$$$$
ligand
 OpenBabel02271912143D
libRbt.so/2013.1/901 2013/11/27
 10 11  0  0  0  0  0  0  0  0999 V2000
   11.8541   10.8429    8.7372 N   0  0  0  0  0  0  0  0  0  0  0  0
   11.5722   12.1863    8.8195 C   0  0  0  0  0  0  0  0  0  0  0  0
   11.2420   12.9078    7.7468 N   0  0  0  0  0  0  0  0  0  0  0  0
   11.2170   12.1829    6.5923 C   0  0  0  0  0  0  0  0  0  0  0  0
   11.4901   10.8375    6.4425 C   0  0  0  0  0  0  0  0  0  0  0  0
   11.8413   10.0619    7.5812 C   0  0  0  0  0  0  0  0  0  0  0  0
   12.1191    8.8604    7.6768 O   0  0  0  0  0  0  0  0  0  0  0  0
   11.3514   10.5122    5.1225 N   0  0  0  0  0  0  0  0  0  0  0  0
   10.9951   11.6471    4.4773 C   0  0  0  0  0  0  0  0  0  0  0  0
   10.9043   12.7012    5.3606 N   0  0  0  0  0  0  0  0  0  0  0  0
  1  2  1  0  0  0  0
  1  6  1  0  0  0  0
  2  3  2  0  0  0  0
  3  4  1  0  0  0  0
  4  5  2  0  0  0  0
  4 10  1  0  0  0  0
  5  6  1  0  0  0  0
  5  8  1  0  0  0  0
  6  7  2  0  0  0  0
  8  9  1  0  0  0  0
  9 10  2  0  0  0  0
M  END
>  <CHROM.1>
11.47131498,11.22934847,6.87358471,0.43094204,-1.30535462,0.94234228

>  <Name>
ligand

>  <RI>
0

>  <Rbt.Current_Directory>
/home/itssahil/PROJECTS/Mol_Feturizer/Test_systems_manuscript/rnas/4fe5

>  <Rbt.Executable>
rbdock ($Id: //depot/dev/client3/rdock/2013.1/src/exe/rbdock.cxx#4 $)

>  <Rbt.Library>
libRbt.so (2013.1, Build901 2013/11/27)

>  <Rbt.Parameter_File>
/export/apps/rDock/src/rDock_2013.1_src/data/scripts/dock_solv.prm

>  <Rbt.Receptor>
prm/pocket_docking_7.prm

>  <SCORE>
-17.4566

>  <SCORE.INTER>
-17.4566

>  <SCORE.INTER.CONST>
1

>  <SCORE.INTER.POLAR>
0

>  <SCORE.INTER.ROT>
0

>  <SCORE.INTER.SOLV>
3.70399

>  <SCORE.INTER.VDW>
-16.4724

>  <SCORE.INTER.norm>
-1.74566

>  <SCORE.INTRA>
0

>  <SCORE.INTRA.DIHEDRAL>
0

>  <SCORE.INTRA.DIHEDRAL.0>
0

>  <SCORE.INTRA.POLAR>
0

>  <SCORE.INTRA.POLAR.0>
0

>  <SCORE.INTRA.REPUL>
0

>  <SCORE.INTRA.REPUL.0>
0

>  <SCORE.INTRA.SOLV>
0

>  <SCORE.INTRA.SOLV.lig_0>
-4.28333

>  <SCORE.INTRA.VDW>
0

>  <SCORE.INTRA.VDW.0>
0

>  <SCORE.INTRA.norm>
0

>  <SCORE.RESTR>
0

>  <SCORE.RESTR.CAVITY>
0

>  <SCORE.RESTR.norm>
0

>  <SCORE.SYSTEM>
0

>  <SCORE.SYSTEM.CONST>
0

>  <SCORE.SYSTEM.DIHEDRAL>
0

>  <SCORE.SYSTEM.SOLV>
0

>  <SCORE.SYSTEM.norm>
0

>  <SCORE.heavy>
10

>  <SCORE.norm>
-1.74566

>  <RMSD>
0.455

$$$$
ligand
 OpenBabel02271912143D
libRbt.so/2013.1/901 2013/11/27
 10 11  0  0  0  0  0  0  0  0999 V2000
   11.8391   10.8888    8.7628 N   0  0  0  0  0  0  0  0  0  0  0  0
   11.5684   12.2341    8.8525 C   0  0  0  0  0  0  0  0  0  0  0  0
   11.2481   12.9650    7.7832 N   0  0  0  0  0  0  0  0  0  0  0  0
   11.2210   12.2476    6.6241 C   0  0  0  0  0  0  0  0  0  0  0  0
   11.4832   10.9009    6.4669 C   0  0  0  0  0  0  0  0  0  0  0  0
   11.8238   10.1152    7.6019 C   0  0  0  0  0  0  0  0  0  0  0  0
   12.0911    8.9108    7.6910 O   0  0  0  0  0  0  0  0  0  0  0  0
   11.3464   10.5849    5.1444 N   0  0  0  0  0  0  0  0  0  0  0  0
   11.0020   11.7268    4.5050 C   0  0  0  0  0  0  0  0  0  0  0  0
   10.9171   12.7761    5.3946 N   0  0  0  0  0  0  0  0  0  0  0  0
  1  2  1  0  0  0  0
  1  6  1  0  0  0  0
  2  3  2  0  0  0  0
  3  4  1  0  0  0  0
  4  5  2  0  0  0  0
  4 10  1  0  0  0  0
  5  6  1  0  0  0  0
  5  8  1  0  0  0  0
  6  7  2  0  0  0  0
  8  9  1  0  0  0  0
  9 10  2  0  0  0  0
M  END
>  <CHROM.1>
11.46624281,11.29012822,6.90033433,0.42249436,-1.31429675,0.94041379

>  <Name>
ligand

>  <RI>
0

>  <Rbt.Current_Directory>
/home/itssahil/PROJECTS/Mol_Feturizer/Test_systems_manuscript/rnas/4fe5

>  <Rbt.Executable>
rbdock ($Id: //depot/dev/client3/rdock/2013.1/src/exe/rbdock.cxx#4 $)

>  <Rbt.Library>
libRbt.so (2013.1, Build901 2013/11/27)

>  <Rbt.Parameter_File>
/export/apps/rDock/src/rDock_2013.1_src/data/scripts/dock_solv.prm

>  <Rbt.Receptor>
prm/blind_docking_80.prm

>  <SCORE>
-17.4816

>  <SCORE.INTER>
-17.4816

>  <SCORE.INTER.CONST>
1

>  <SCORE.INTER.POLAR>
0

>  <SCORE.INTER.ROT>
0

>  <SCORE.INTER.SOLV>
3.73097

>  <SCORE.INTER.VDW>
-16.4981

>  <SCORE.INTER.norm>
-1.74816

>  <SCORE.INTRA>
0

>  <SCORE.INTRA.DIHEDRAL>
0

>  <SCORE.INTRA.DIHEDRAL.0>
0

>  <SCORE.INTRA.POLAR>
0

>  <SCORE.INTRA.POLAR.0>
0

>  <SCORE.INTRA.REPUL>
0

>  <SCORE.INTRA.REPUL.0>
0

>  <SCORE.INTRA.SOLV>
0

>  <SCORE.INTRA.SOLV.lig_0>
-4.28333

>  <SCORE.INTRA.VDW>
0

>  <SCORE.INTRA.VDW.0>
0

>  <SCORE.INTRA.norm>
0

>  <SCORE.RESTR>
2.21752e-05

>  <SCORE.RESTR.CAVITY>
2.21752e-05

>  <SCORE.RESTR.norm>
2.21752e-06

>  <SCORE.SYSTEM>
0

>  <SCORE.SYSTEM.CONST>
0

>  <SCORE.SYSTEM.DIHEDRAL>
0

>  <SCORE.SYSTEM.SOLV>
0

>  <SCORE.SYSTEM.norm>
0

>  <SCORE.heavy>
10

>  <SCORE.norm>
-1.74816

>  <RMSD>
0.456

$$$$
ligand
 OpenBabel02271912143D
libRbt.so/2013.1/901 2013/11/27
 10 11  0  0  0  0  0  0  0  0999 V2000
   11.9648   10.8525    8.6882 N   0  0  0  0  0  0  0  0  0  0  0  0
   11.6400   12.1814    8.8275 C   0  0  0  0  0  0  0  0  0  0  0  0
   11.2633   12.9311    7.7900 N   0  0  0  0  0  0  0  0  0  0  0  0
   11.2382   12.2498    6.6093 C   0  0  0  0  0  0  0  0  0  0  0  0
   11.5529   10.9211    6.4027 C   0  0  0  0  0  0  0  0  0  0  0  0
   11.9538   10.1156    7.5036 C   0  0  0  0  0  0  0  0  0  0  0  0
   12.2735    8.9215    7.5476 O   0  0  0  0  0  0  0  0  0  0  0  0
   11.3973   10.6411    5.0742 N   0  0  0  0  0  0  0  0  0  0  0  0
   10.9898   11.7866    4.4801 C   0  0  0  0  0  0  0  0  0  0  0  0
   10.8825   12.8030    5.4048 N   0  0  0  0  0  0  0  0  0  0  0  0
  1  2  1  0  0  0  0
  1  6  1  0  0  0  0
  2  3  2  0  0  0  0
  3  4  1  0  0  0  0
  4  5  2  0  0  0  0
  4 10  1  0  0  0  0
  5  6  1  0  0  0  0
  5  8  1  0  0  0  0
  6  7  2  0  0  0  0
  8  9  1  0  0  0  0
  9 10  2  0  0  0  0
M  END
>  <CHROM.1>
11.53011844,11.29551824,6.84873303,0.43955768,-1.26592287,0.98861508

>  <Name>
ligand

>  <RI>
0

>  <Rbt.Current_Directory>
/home/itssahil/PROJECTS/Mol_Feturizer/Test_systems_manuscript/rnas/4fe5

>  <Rbt.Executable>
rbdock ($Id: //depot/dev/client3/rdock/2013.1/src/exe/rbdock.cxx#4 $)

>  <Rbt.Library>
libRbt.so (2013.1, Build901 2013/11/27)

>  <Rbt.Parameter_File>
/export/apps/rDock/src/rDock_2013.1_src/data/scripts/dock_solv.prm

>  <Rbt.Receptor>
prm/blind_docking_80.prm

>  <SCORE>
-17.4192

>  <SCORE.INTER>
-17.4192

>  <SCORE.INTER.CONST>
1

>  <SCORE.INTER.POLAR>
0

>  <SCORE.INTER.ROT>
0

>  <SCORE.INTER.SOLV>
3.50483

>  <SCORE.INTER.VDW>
-16.381

>  <SCORE.INTER.norm>
-1.74192

>  <SCORE.INTRA>
0

>  <SCORE.INTRA.DIHEDRAL>
0

>  <SCORE.INTRA.DIHEDRAL.0>
0

>  <SCORE.INTRA.POLAR>
0

>  <SCORE.INTRA.POLAR.0>
0

>  <SCORE.INTRA.REPUL>
0

>  <SCORE.INTRA.REPUL.0>
0

>  <SCORE.INTRA.SOLV>
0

>  <SCORE.INTRA.SOLV.lig_0>
-4.28333

>  <SCORE.INTRA.VDW>
0

>  <SCORE.INTRA.VDW.0>
0

>  <SCORE.INTRA.norm>
0

>  <SCORE.RESTR>
0

>  <SCORE.RESTR.CAVITY>
0

>  <SCORE.RESTR.norm>
0

>  <SCORE.SYSTEM>
0

>  <SCORE.SYSTEM.CONST>
0

>  <SCORE.SYSTEM.DIHEDRAL>
0

>  <SCORE.SYSTEM.SOLV>
0

>  <SCORE.SYSTEM.norm>
0

>  <SCORE.heavy>
10

>  <SCORE.norm>
-1.74192

>  <RMSD>
0.456

$$$$
ligand
 OpenBabel02271912143D
libRbt.so/2013.1/901 2013/11/27
 10 11  0  0  0  0  0  0  0  0999 V2000
   11.8356   10.8900    8.7633 N   0  0  0  0  0  0  0  0  0  0  0  0
   11.5611   12.2346    8.8499 C   0  0  0  0  0  0  0  0  0  0  0  0
   11.2437   12.9633    7.7782 N   0  0  0  0  0  0  0  0  0  0  0  0
   11.2236   12.2443    6.6200 C   0  0  0  0  0  0  0  0  0  0  0  0
   11.4899   10.8980    6.4657 C   0  0  0  0  0  0  0  0  0  0  0  0
   11.8274   10.1148    7.6033 C   0  0  0  0  0  0  0  0  0  0  0  0
   12.0973    8.9111    7.6952 O   0  0  0  0  0  0  0  0  0  0  0  0
   11.3597   10.5799    5.1431 N   0  0  0  0  0  0  0  0  0  0  0  0
   11.0154   11.7201    4.5006 C   0  0  0  0  0  0  0  0  0  0  0  0
   10.9238   12.7704    5.3884 N   0  0  0  0  0  0  0  0  0  0  0  0
  1  2  1  0  0  0  0
  1  6  1  0  0  0  0
  2  3  2  0  0  0  0
  3  4  1  0  0  0  0
  4  5  2  0  0  0  0
  4 10  1  0  0  0  0
  5  6  1  0  0  0  0
  5  8  1  0  0  0  0
  6  7  2  0  0  0  0
  8  9  1  0  0  0  0
  9 10  2  0  0  0  0
M  END
>  <CHROM.1>
11.46997513,11.28782624,6.89856394,0.44254846,-1.31484013,0.95846044

>  <Name>
ligand

>  <RI>
0

>  <Rbt.Current_Directory>
/home/itssahil/PROJECTS/Mol_Feturizer/Test_systems_manuscript/rnas/4fe5

>  <Rbt.Executable>
rbdock ($Id: //depot/dev/client3/rdock/2013.1/src/exe/rbdock.cxx#4 $)

>  <Rbt.Library>
libRbt.so (2013.1, Build901 2013/11/27)

>  <Rbt.Parameter_File>
/export/apps/rDock/src/rDock_2013.1_src/data/scripts/dock_solv.prm

>  <Rbt.Receptor>
prm/pocket_docking_6.prm

>  <SCORE>
-17.4844

>  <SCORE.INTER>
-17.4846

>  <SCORE.INTER.CONST>
1

>  <SCORE.INTER.POLAR>
0

>  <SCORE.INTER.ROT>
0

>  <SCORE.INTER.SOLV>
3.73198

>  <SCORE.INTER.VDW>
-16.5004

>  <SCORE.INTER.norm>
-1.74846

>  <SCORE.INTRA>
0

>  <SCORE.INTRA.DIHEDRAL>
0

>  <SCORE.INTRA.DIHEDRAL.0>
0

>  <SCORE.INTRA.POLAR>
0

>  <SCORE.INTRA.POLAR.0>
0

>  <SCORE.INTRA.REPUL>
0

>  <SCORE.INTRA.REPUL.0>
0

>  <SCORE.INTRA.SOLV>
0

>  <SCORE.INTRA.SOLV.lig_0>
-4.28333

>  <SCORE.INTRA.VDW>
0

>  <SCORE.INTRA.VDW.0>
0

>  <SCORE.INTRA.norm>
0

>  <SCORE.RESTR>
0.000163373

>  <SCORE.RESTR.CAVITY>
0.000163373

>  <SCORE.RESTR.norm>
1.63373e-05

>  <SCORE.SYSTEM>
0

>  <SCORE.SYSTEM.CONST>
0

>  <SCORE.SYSTEM.DIHEDRAL>
0

>  <SCORE.SYSTEM.SOLV>
0

>  <SCORE.SYSTEM.norm>
0

>  <SCORE.heavy>
10

>  <SCORE.norm>
-1.74844

>  <RMSD>
0.456

$$$$
ligand
 OpenBabel02271912143D
libRbt.so/2013.1/901 2013/11/27
 10 11  0  0  0  0  0  0  0  0999 V2000
   11.8354   10.8862    8.7601 N   0  0  0  0  0  0  0  0  0  0  0  0
   11.5604   12.2307    8.8479 C   0  0  0  0  0  0  0  0  0  0  0  0
   11.2434   12.9602    7.7767 N   0  0  0  0  0  0  0  0  0  0  0  0
   11.2241   12.2423    6.6177 C   0  0  0  0  0  0  0  0  0  0  0  0
   11.4908   10.8962    6.4624 C   0  0  0  0  0  0  0  0  0  0  0  0
   11.8280   10.1121    7.5994 C   0  0  0  0  0  0  0  0  0  0  0  0
   12.0982    8.9084    7.6904 O   0  0  0  0  0  0  0  0  0  0  0  0
   11.3615   10.5793    5.1394 N   0  0  0  0  0  0  0  0  0  0  0  0
   11.0171   11.7200    4.4978 C   0  0  0  0  0  0  0  0  0  0  0  0
   10.9247   12.7694    5.3865 N   0  0  0  0  0  0  0  0  0  0  0  0
  1  2  1  0  0  0  0
  1  6  1  0  0  0  0
  2  3  2  0  0  0  0
  3  4  1  0  0  0  0
  4  5  2  0  0  0  0
  4 10  1  0  0  0  0
  5  6  1  0  0  0  0
  5  8  1  0  0  0  0
  6  7  2  0  0  0  0
  8  9  1  0  0  0  0
  9 10  2  0  0  0  0
M  END
>  <CHROM.1>
11.47060404,11.28564350,6.89559253,0.44492052,-1.31488830,0.96167384

>  <Name>
ligand

>  <RI>
0

>  <Rbt.Current_Directory>
/home/itssahil/PROJECTS/Mol_Feturizer/Test_systems_manuscript/rnas/4fe5

>  <Rbt.Executable>
rbdock ($Id: //depot/dev/client3/rdock/2013.1/src/exe/rbdock.cxx#4 $)

>  <Rbt.Library>
libRbt.so (2013.1, Build901 2013/11/27)

>  <Rbt.Parameter_File>
/export/apps/rDock/src/rDock_2013.1_src/data/scripts/dock_solv.prm

>  <Rbt.Receptor>
prm/blind_docking_40.prm

>  <SCORE>
-17.4873

>  <SCORE.INTER>
-17.4874

>  <SCORE.INTER.CONST>
1

>  <SCORE.INTER.POLAR>
0

>  <SCORE.INTER.ROT>
0

>  <SCORE.INTER.SOLV>
3.72975

>  <SCORE.INTER.VDW>
-16.5015

>  <SCORE.INTER.norm>
-1.74874

>  <SCORE.INTRA>
0

>  <SCORE.INTRA.DIHEDRAL>
0

>  <SCORE.INTRA.DIHEDRAL.0>
0

>  <SCORE.INTRA.POLAR>
0

>  <SCORE.INTRA.POLAR.0>
0

>  <SCORE.INTRA.REPUL>
0

>  <SCORE.INTRA.REPUL.0>
0

>  <SCORE.INTRA.SOLV>
0

>  <SCORE.INTRA.SOLV.lig_0>
-4.28333

>  <SCORE.INTRA.VDW>
0

>  <SCORE.INTRA.VDW.0>
0

>  <SCORE.INTRA.norm>
0

>  <SCORE.RESTR>
5.78755e-05

>  <SCORE.RESTR.CAVITY>
5.78755e-05

>  <SCORE.RESTR.norm>
5.78755e-06

>  <SCORE.SYSTEM>
0

>  <SCORE.SYSTEM.CONST>
0

>  <SCORE.SYSTEM.DIHEDRAL>
0

>  <SCORE.SYSTEM.SOLV>
0

>  <SCORE.SYSTEM.norm>
0

>  <SCORE.heavy>
10

>  <SCORE.norm>
-1.74873

>  <RMSD>
0.457

$$$$
ligand
 OpenBabel02271912143D
libRbt.so/2013.1/901 2013/11/27
 10 11  0  0  0  0  0  0  0  0999 V2000
   11.8268   10.8710    8.7583 N   0  0  0  0  0  0  0  0  0  0  0  0
   11.5520   12.2158    8.8412 C   0  0  0  0  0  0  0  0  0  0  0  0
   11.2298   12.9405    7.7682 N   0  0  0  0  0  0  0  0  0  0  0  0
   11.2054   12.2173    6.6127 C   0  0  0  0  0  0  0  0  0  0  0  0
   11.4717   10.8707    6.4622 C   0  0  0  0  0  0  0  0  0  0  0  0
   11.8143   10.0917    7.6011 C   0  0  0  0  0  0  0  0  0  0  0  0
   12.0852    8.8885    7.6962 O   0  0  0  0  0  0  0  0  0  0  0  0
   11.3363   10.5478    5.1412 N   0  0  0  0  0  0  0  0  0  0  0  0
   10.9888   11.6854    4.4961 C   0  0  0  0  0  0  0  0  0  0  0  0
   10.9003   12.7388    5.3804 N   0  0  0  0  0  0  0  0  0  0  0  0
  1  2  1  0  0  0  0
  1  6  1  0  0  0  0
  2  3  2  0  0  0  0
  3  4  1  0  0  0  0
  4  5  2  0  0  0  0
  4 10  1  0  0  0  0
  5  6  1  0  0  0  0
  5  8  1  0  0  0  0
  6  7  2  0  0  0  0
  8  9  1  0  0  0  0
  9 10  2  0  0  0  0
M  END
>  <CHROM.1>
11.45338891,11.26199231,6.89366058,0.43068657,-1.31204655,0.94341198

>  <Name>
ligand

>  <RI>
0

>  <Rbt.Current_Directory>
/home/itssahil/PROJECTS/Mol_Feturizer/Test_systems_manuscript/rnas/4fe5

>  <Rbt.Executable>
rbdock ($Id: //depot/dev/client3/rdock/2013.1/src/exe/rbdock.cxx#4 $)

>  <Rbt.Library>
libRbt.so (2013.1, Build901 2013/11/27)

>  <Rbt.Parameter_File>
/export/apps/rDock/src/rDock_2013.1_src/data/scripts/dock_solv.prm

>  <Rbt.Receptor>
prm/pocket_docking_7.prm

>  <SCORE>
-17.4093

>  <SCORE.INTER>
-17.4093

>  <SCORE.INTER.CONST>
1

>  <SCORE.INTER.POLAR>
0

>  <SCORE.INTER.ROT>
0

>  <SCORE.INTER.SOLV>
3.74116

>  <SCORE.INTER.VDW>
-16.4532

>  <SCORE.INTER.norm>
-1.74093

>  <SCORE.INTRA>
0

>  <SCORE.INTRA.DIHEDRAL>
0

>  <SCORE.INTRA.DIHEDRAL.0>
0

>  <SCORE.INTRA.POLAR>
0

>  <SCORE.INTRA.POLAR.0>
0

>  <SCORE.INTRA.REPUL>
0

>  <SCORE.INTRA.REPUL.0>
0

>  <SCORE.INTRA.SOLV>
0

>  <SCORE.INTRA.SOLV.lig_0>
-4.28333

>  <SCORE.INTRA.VDW>
0

>  <SCORE.INTRA.VDW.0>
0

>  <SCORE.INTRA.norm>
0

>  <SCORE.RESTR>
0

>  <SCORE.RESTR.CAVITY>
0

>  <SCORE.RESTR.norm>
0

>  <SCORE.SYSTEM>
0

>  <SCORE.SYSTEM.CONST>
0

>  <SCORE.SYSTEM.DIHEDRAL>
0

>  <SCORE.SYSTEM.SOLV>
0

>  <SCORE.SYSTEM.norm>
0

>  <SCORE.heavy>
10

>  <SCORE.norm>
-1.74093

>  <RMSD>
0.457

$$$$
ligand
 OpenBabel02271912143D
libRbt.so/2013.1/901 2013/11/27
 10 11  0  0  0  0  0  0  0  0999 V2000
   11.8338   10.8876    8.7638 N   0  0  0  0  0  0  0  0  0  0  0  0
   11.5616   12.2325    8.8532 C   0  0  0  0  0  0  0  0  0  0  0  0
   11.2456   12.9639    7.7829 N   0  0  0  0  0  0  0  0  0  0  0  0
   11.2245   12.2473    6.6232 C   0  0  0  0  0  0  0  0  0  0  0  0
   11.4886   10.9009    6.4663 C   0  0  0  0  0  0  0  0  0  0  0  0
   11.8246   10.1147    7.6023 C   0  0  0  0  0  0  0  0  0  0  0  0
   12.0924    8.9105    7.6918 O   0  0  0  0  0  0  0  0  0  0  0  0
   11.3582   10.5857    5.1429 N   0  0  0  0  0  0  0  0  0  0  0  0
   11.0159   11.7277    4.5027 C   0  0  0  0  0  0  0  0  0  0  0  0
   10.9259   12.7764    5.3926 N   0  0  0  0  0  0  0  0  0  0  0  0
  1  2  1  0  0  0  0
  1  6  1  0  0  0  0
  2  3  2  0  0  0  0
  3  4  1  0  0  0  0
  4  5  2  0  0  0  0
  4 10  1  0  0  0  0
  5  6  1  0  0  0  0
  5  8  1  0  0  0  0
  6  7  2  0  0  0  0
  8  9  1  0  0  0  0
  9 10  2  0  0  0  0
M  END
>  <CHROM.1>
11.46925470,11.28983014,6.89987167,0.43938441,-1.31633654,0.95743929

>  <Name>
ligand

>  <RI>
0

>  <Rbt.Current_Directory>
/home/itssahil/PROJECTS/Mol_Feturizer/Test_systems_manuscript/rnas/4fe5

>  <Rbt.Executable>
rbdock ($Id: //depot/dev/client3/rdock/2013.1/src/exe/rbdock.cxx#4 $)

>  <Rbt.Library>
libRbt.so (2013.1, Build901 2013/11/27)

>  <Rbt.Parameter_File>
/export/apps/rDock/src/rDock_2013.1_src/data/scripts/dock_solv.prm

>  <Rbt.Receptor>
prm/pocket_docking_7.prm

>  <SCORE>
-17.4836

>  <SCORE.INTER>
-17.4836

>  <SCORE.INTER.CONST>
1

>  <SCORE.INTER.POLAR>
0

>  <SCORE.INTER.ROT>
0

>  <SCORE.INTER.SOLV>
3.73478

>  <SCORE.INTER.VDW>
-16.5007

>  <SCORE.INTER.norm>
-1.74836

>  <SCORE.INTRA>
0

>  <SCORE.INTRA.DIHEDRAL>
0

>  <SCORE.INTRA.DIHEDRAL.0>
0

>  <SCORE.INTRA.POLAR>
0

>  <SCORE.INTRA.POLAR.0>
0

>  <SCORE.INTRA.REPUL>
0

>  <SCORE.INTRA.REPUL.0>
0

>  <SCORE.INTRA.SOLV>
0

>  <SCORE.INTRA.SOLV.lig_0>
-4.28333

>  <SCORE.INTRA.VDW>
0

>  <SCORE.INTRA.VDW.0>
0

>  <SCORE.INTRA.norm>
0

>  <SCORE.RESTR>
0

>  <SCORE.RESTR.CAVITY>
0

>  <SCORE.RESTR.norm>
0

>  <SCORE.SYSTEM>
0

>  <SCORE.SYSTEM.CONST>
0

>  <SCORE.SYSTEM.DIHEDRAL>
0

>  <SCORE.SYSTEM.SOLV>
0

>  <SCORE.SYSTEM.norm>
0

>  <SCORE.heavy>
10

>  <SCORE.norm>
-1.74836

>  <RMSD>
0.457

$$$$
ligand
 OpenBabel02271912143D
libRbt.so/2013.1/901 2013/11/27
 10 11  0  0  0  0  0  0  0  0999 V2000
   11.8371   10.8868    8.7618 N   0  0  0  0  0  0  0  0  0  0  0  0
   11.5693   12.2327    8.8501 C   0  0  0  0  0  0  0  0  0  0  0  0
   11.2566   12.9644    7.7790 N   0  0  0  0  0  0  0  0  0  0  0  0
   11.2341   12.2471    6.6198 C   0  0  0  0  0  0  0  0  0  0  0  0
   11.4938   10.8997    6.4640 C   0  0  0  0  0  0  0  0  0  0  0  0
   11.8263   10.1132    7.6008 C   0  0  0  0  0  0  0  0  0  0  0  0
   12.0900    8.9081    7.6913 O   0  0  0  0  0  0  0  0  0  0  0  0
   11.3633   10.5840    5.1408 N   0  0  0  0  0  0  0  0  0  0  0  0
   11.0253   11.7268    4.4995 C   0  0  0  0  0  0  0  0  0  0  0  0
   10.9381   12.7763    5.3886 N   0  0  0  0  0  0  0  0  0  0  0  0
  1  2  1  0  0  0  0
  1  6  1  0  0  0  0
  2  3  2  0  0  0  0
  3  4  1  0  0  0  0
  4  5  2  0  0  0  0
  4 10  1  0  0  0  0
  5  6  1  0  0  0  0
  5  8  1  0  0  0  0
  6  7  2  0  0  0  0
  8  9  1  0  0  0  0
  9 10  2  0  0  0  0
M  END
>  <CHROM.1>
11.47538471,11.28898514,6.89732817,0.43428185,-1.31948088,0.95182003

>  <Name>
ligand

>  <RI>
0

>  <Rbt.Current_Directory>
/home/itssahil/PROJECTS/Mol_Feturizer/Test_systems_manuscript/rnas/4fe5

>  <Rbt.Executable>
rbdock ($Id: //depot/dev/client3/rdock/2013.1/src/exe/rbdock.cxx#4 $)

>  <Rbt.Library>
libRbt.so (2013.1, Build901 2013/11/27)

>  <Rbt.Parameter_File>
/export/apps/rDock/src/rDock_2013.1_src/data/scripts/dock_solv.prm

>  <Rbt.Receptor>
prm/blind_docking_60.prm

>  <SCORE>
-17.493

>  <SCORE.INTER>
-17.4983

>  <SCORE.INTER.CONST>
1

>  <SCORE.INTER.POLAR>
0

>  <SCORE.INTER.ROT>
0

>  <SCORE.INTER.SOLV>
3.73932

>  <SCORE.INTER.VDW>
-16.512

>  <SCORE.INTER.norm>
-1.74983

>  <SCORE.INTRA>
0

>  <SCORE.INTRA.DIHEDRAL>
0

>  <SCORE.INTRA.DIHEDRAL.0>
0

>  <SCORE.INTRA.POLAR>
0

>  <SCORE.INTRA.POLAR.0>
0

>  <SCORE.INTRA.REPUL>
0

>  <SCORE.INTRA.REPUL.0>
0

>  <SCORE.INTRA.SOLV>
0

>  <SCORE.INTRA.SOLV.lig_0>
-4.28333

>  <SCORE.INTRA.VDW>
0

>  <SCORE.INTRA.VDW.0>
0

>  <SCORE.INTRA.norm>
0

>  <SCORE.RESTR>
0.0053132

>  <SCORE.RESTR.CAVITY>
0.0053132

>  <SCORE.RESTR.norm>
0.00053132

>  <SCORE.SYSTEM>
0

>  <SCORE.SYSTEM.CONST>
0

>  <SCORE.SYSTEM.DIHEDRAL>
0

>  <SCORE.SYSTEM.SOLV>
0

>  <SCORE.SYSTEM.norm>
0

>  <SCORE.heavy>
10

>  <SCORE.norm>
-1.7493

>  <RMSD>
0.458

$$$$
ligand
 OpenBabel02271912143D
libRbt.so/2013.1/901 2013/11/27
 10 11  0  0  0  0  0  0  0  0999 V2000
   11.8367   10.8882    8.7624 N   0  0  0  0  0  0  0  0  0  0  0  0
   11.5678   12.2339    8.8494 C   0  0  0  0  0  0  0  0  0  0  0  0
   11.2544   12.9644    7.7778 N   0  0  0  0  0  0  0  0  0  0  0  0
   11.2324   12.2460    6.6192 C   0  0  0  0  0  0  0  0  0  0  0  0
   11.4933   10.8987    6.4646 C   0  0  0  0  0  0  0  0  0  0  0  0
   11.8265   10.1136    7.6021 C   0  0  0  0  0  0  0  0  0  0  0  0
   12.0913    8.9088    7.6937 O   0  0  0  0  0  0  0  0  0  0  0  0
   11.3630   10.5818    5.1417 N   0  0  0  0  0  0  0  0  0  0  0  0
   11.0240   11.7236    4.4994 C   0  0  0  0  0  0  0  0  0  0  0  0
   10.9359   12.7739    5.3875 N   0  0  0  0  0  0  0  0  0  0  0  0
  1  2  1  0  0  0  0
  1  6  1  0  0  0  0
  2  3  2  0  0  0  0
  3  4  1  0  0  0  0
  4  5  2  0  0  0  0
  4 10  1  0  0  0  0
  5  6  1  0  0  0  0
  5  8  1  0  0  0  0
  6  7  2  0  0  0  0
  8  9  1  0  0  0  0
  9 10  2  0  0  0  0
M  END
>  <CHROM.1>
11.47456268,11.28840083,6.89756364,0.43614478,-1.31875442,0.95272669

>  <Name>
ligand

>  <RI>
0

>  <Rbt.Current_Directory>
/home/itssahil/PROJECTS/Mol_Feturizer/Test_systems_manuscript/rnas/4fe5

>  <Rbt.Executable>
rbdock ($Id: //depot/dev/client3/rdock/2013.1/src/exe/rbdock.cxx#4 $)

>  <Rbt.Library>
libRbt.so (2013.1, Build901 2013/11/27)

>  <Rbt.Parameter_File>
/export/apps/rDock/src/rDock_2013.1_src/data/scripts/dock_solv.prm

>  <Rbt.Receptor>
prm/blind_docking_80.prm

>  <SCORE>
-17.4919

>  <SCORE.INTER>
-17.4969

>  <SCORE.INTER.CONST>
1

>  <SCORE.INTER.POLAR>
0

>  <SCORE.INTER.ROT>
0

>  <SCORE.INTER.SOLV>
3.73909

>  <SCORE.INTER.VDW>
-16.511

>  <SCORE.INTER.norm>
-1.74969

>  <SCORE.INTRA>
0

>  <SCORE.INTRA.DIHEDRAL>
0

>  <SCORE.INTRA.DIHEDRAL.0>
0

>  <SCORE.INTRA.POLAR>
0

>  <SCORE.INTRA.POLAR.0>
0

>  <SCORE.INTRA.REPUL>
0

>  <SCORE.INTRA.REPUL.0>
0

>  <SCORE.INTRA.SOLV>
0

>  <SCORE.INTRA.SOLV.lig_0>
-4.28333

>  <SCORE.INTRA.VDW>
0

>  <SCORE.INTRA.VDW.0>
0

>  <SCORE.INTRA.norm>
0

>  <SCORE.RESTR>
0.00499825

>  <SCORE.RESTR.CAVITY>
0.00499825

>  <SCORE.RESTR.norm>
0.000499825

>  <SCORE.SYSTEM>
0

>  <SCORE.SYSTEM.CONST>
0

>  <SCORE.SYSTEM.DIHEDRAL>
0

>  <SCORE.SYSTEM.SOLV>
0

>  <SCORE.SYSTEM.norm>
0

>  <SCORE.heavy>
10

>  <SCORE.norm>
-1.74919

>  <RMSD>
0.458

$$$$
ligand
 OpenBabel02271912143D
libRbt.so/2013.1/901 2013/11/27
 10 11  0  0  0  0  0  0  0  0999 V2000
   11.8284   10.8860    8.7635 N   0  0  0  0  0  0  0  0  0  0  0  0
   11.5556   12.2309    8.8523 C   0  0  0  0  0  0  0  0  0  0  0  0
   11.2443   12.9628    7.7811 N   0  0  0  0  0  0  0  0  0  0  0  0
   11.2284   12.2468    6.6209 C   0  0  0  0  0  0  0  0  0  0  0  0
   11.4933   10.9005    6.4644 C   0  0  0  0  0  0  0  0  0  0  0  0
   11.8243   10.1138    7.6015 C   0  0  0  0  0  0  0  0  0  0  0  0
   12.0918    8.9095    7.6915 O   0  0  0  0  0  0  0  0  0  0  0  0
   11.3687   10.5860    5.1404 N   0  0  0  0  0  0  0  0  0  0  0  0
   11.0291   11.7284    4.4993 C   0  0  0  0  0  0  0  0  0  0  0  0
   10.9351   12.7765    5.3893 N   0  0  0  0  0  0  0  0  0  0  0  0
  1  2  1  0  0  0  0
  1  6  1  0  0  0  0
  2  3  2  0  0  0  0
  3  4  1  0  0  0  0
  4  5  2  0  0  0  0
  4 10  1  0  0  0  0
  5  6  1  0  0  0  0
  5  8  1  0  0  0  0
  6  7  2  0  0  0  0
  8  9  1  0  0  0  0
  9 10  2  0  0  0  0
M  END
>  <CHROM.1>
11.47200230,11.28922029,6.89814385,0.45405064,-1.31877432,0.97216554

>  <Name>
ligand

>  <RI>
0

>  <Rbt.Current_Directory>
/home/itssahil/PROJECTS/Mol_Feturizer/Test_systems_manuscript/rnas/4fe5

>  <Rbt.Executable>
rbdock ($Id: //depot/dev/client3/rdock/2013.1/src/exe/rbdock.cxx#4 $)

>  <Rbt.Library>
libRbt.so (2013.1, Build901 2013/11/27)

>  <Rbt.Parameter_File>
/export/apps/rDock/src/rDock_2013.1_src/data/scripts/dock_solv.prm

>  <Rbt.Receptor>
prm/blind_docking_80.prm

>  <SCORE>
-17.484

>  <SCORE.INTER>
-17.484

>  <SCORE.INTER.CONST>
1

>  <SCORE.INTER.POLAR>
0

>  <SCORE.INTER.ROT>
0

>  <SCORE.INTER.SOLV>
3.73952

>  <SCORE.INTER.VDW>
-16.5025

>  <SCORE.INTER.norm>
-1.7484

>  <SCORE.INTRA>
0

>  <SCORE.INTRA.DIHEDRAL>
0

>  <SCORE.INTRA.DIHEDRAL.0>
0

>  <SCORE.INTRA.POLAR>
0

>  <SCORE.INTRA.POLAR.0>
0

>  <SCORE.INTRA.REPUL>
0

>  <SCORE.INTRA.REPUL.0>
0

>  <SCORE.INTRA.SOLV>
0

>  <SCORE.INTRA.SOLV.lig_0>
-4.28333

>  <SCORE.INTRA.VDW>
0

>  <SCORE.INTRA.VDW.0>
0

>  <SCORE.INTRA.norm>
0

>  <SCORE.RESTR>
0

>  <SCORE.RESTR.CAVITY>
0

>  <SCORE.RESTR.norm>
0

>  <SCORE.SYSTEM>
0

>  <SCORE.SYSTEM.CONST>
0

>  <SCORE.SYSTEM.DIHEDRAL>
0

>  <SCORE.SYSTEM.SOLV>
0

>  <SCORE.SYSTEM.norm>
0

>  <SCORE.heavy>
10

>  <SCORE.norm>
-1.7484

>  <RMSD>
0.458

$$$$
ligand
 OpenBabel02271912143D
libRbt.so/2013.1/901 2013/11/27
 10 11  0  0  0  0  0  0  0  0999 V2000
   11.8327   10.8824    8.7600 N   0  0  0  0  0  0  0  0  0  0  0  0
   11.5594   12.2271    8.8510 C   0  0  0  0  0  0  0  0  0  0  0  0
   11.2477   12.9605    7.7809 N   0  0  0  0  0  0  0  0  0  0  0  0
   11.2320   12.2463    6.6196 C   0  0  0  0  0  0  0  0  0  0  0  0
   11.4974   10.9004    6.4610 C   0  0  0  0  0  0  0  0  0  0  0  0
   11.8288   10.1121    7.5968 C   0  0  0  0  0  0  0  0  0  0  0  0
   12.0969    8.9077    7.6849 O   0  0  0  0  0  0  0  0  0  0  0  0
   11.3728   10.5879    5.1364 N   0  0  0  0  0  0  0  0  0  0  0  0
   11.0327   11.7311    4.4972 C   0  0  0  0  0  0  0  0  0  0  0  0
   10.9383   12.7779    5.3888 N   0  0  0  0  0  0  0  0  0  0  0  0
  1  2  1  0  0  0  0
  1  6  1  0  0  0  0
  2  3  2  0  0  0  0
  3  4  1  0  0  0  0
  4  5  2  0  0  0  0
  4 10  1  0  0  0  0
  5  6  1  0  0  0  0
  5  8  1  0  0  0  0
  6  7  2  0  0  0  0
  8  9  1  0  0  0  0
  9 10  2  0  0  0  0
M  END
>  <CHROM.1>
11.47596329,11.28843383,6.89531136,0.45468023,-1.31837266,0.97433941

>  <Name>
ligand

>  <RI>
0

>  <Rbt.Current_Directory>
/home/itssahil/PROJECTS/Mol_Feturizer/Test_systems_manuscript/rnas/4fe5

>  <Rbt.Executable>
rbdock ($Id: //depot/dev/client3/rdock/2013.1/src/exe/rbdock.cxx#4 $)

>  <Rbt.Library>
libRbt.so (2013.1, Build901 2013/11/27)

>  <Rbt.Parameter_File>
/export/apps/rDock/src/rDock_2013.1_src/data/scripts/dock_solv.prm

>  <Rbt.Receptor>
prm/pocket_docking_5.prm

>  <SCORE>
-17.4874

>  <SCORE.INTER>
-17.4874

>  <SCORE.INTER.CONST>
1

>  <SCORE.INTER.POLAR>
0

>  <SCORE.INTER.ROT>
0

>  <SCORE.INTER.SOLV>
3.73253

>  <SCORE.INTER.VDW>
-16.5025

>  <SCORE.INTER.norm>
-1.74874

>  <SCORE.INTRA>
0

>  <SCORE.INTRA.DIHEDRAL>
0

>  <SCORE.INTRA.DIHEDRAL.0>
0

>  <SCORE.INTRA.POLAR>
0

>  <SCORE.INTRA.POLAR.0>
0

>  <SCORE.INTRA.REPUL>
0

>  <SCORE.INTRA.REPUL.0>
0

>  <SCORE.INTRA.SOLV>
0

>  <SCORE.INTRA.SOLV.lig_0>
-4.28333

>  <SCORE.INTRA.VDW>
0

>  <SCORE.INTRA.VDW.0>
0

>  <SCORE.INTRA.norm>
0

>  <SCORE.RESTR>
0

>  <SCORE.RESTR.CAVITY>
0

>  <SCORE.RESTR.norm>
0

>  <SCORE.SYSTEM>
0

>  <SCORE.SYSTEM.CONST>
0

>  <SCORE.SYSTEM.DIHEDRAL>
0

>  <SCORE.SYSTEM.SOLV>
0

>  <SCORE.SYSTEM.norm>
0

>  <SCORE.heavy>
10

>  <SCORE.norm>
-1.74874

>  <RMSD>
0.458

$$$$
ligand
 OpenBabel02271912143D
libRbt.so/2013.1/901 2013/11/27
 10 11  0  0  0  0  0  0  0  0999 V2000
   11.8019   10.8246    8.7546 N   0  0  0  0  0  0  0  0  0  0  0  0
   11.5331   12.1704    8.8413 C   0  0  0  0  0  0  0  0  0  0  0  0
   11.2264   12.9021    7.7685 N   0  0  0  0  0  0  0  0  0  0  0  0
   11.2109   12.1848    6.6091 C   0  0  0  0  0  0  0  0  0  0  0  0
   11.4720   10.8375    6.4548 C   0  0  0  0  0  0  0  0  0  0  0  0
   11.7980   10.0511    7.5935 C   0  0  0  0  0  0  0  0  0  0  0  0
   12.0617    8.8461    7.6855 O   0  0  0  0  0  0  0  0  0  0  0  0
   11.3495   10.5219    5.1308 N   0  0  0  0  0  0  0  0  0  0  0  0
   11.0148   11.6645    4.4876 C   0  0  0  0  0  0  0  0  0  0  0  0
   10.9220   12.7140    5.3762 N   0  0  0  0  0  0  0  0  0  0  0  0
  1  2  1  0  0  0  0
  1  6  1  0  0  0  0
  2  3  2  0  0  0  0
  3  4  1  0  0  0  0
  4  5  2  0  0  0  0
  4 10  1  0  0  0  0
  5  6  1  0  0  0  0
  5  8  1  0  0  0  0
  6  7  2  0  0  0  0
  8  9  1  0  0  0  0
  9 10  2  0  0  0  0
M  END
>  <CHROM.1>
11.45093598,11.22677846,6.88799155,0.45454987,-1.32258184,0.97150523

>  <Name>
ligand

>  <RI>
0

>  <Rbt.Current_Directory>
/home/itssahil/PROJECTS/Mol_Feturizer/Test_systems_manuscript/rnas/4fe5

>  <Rbt.Executable>
rbdock ($Id: //depot/dev/client3/rdock/2013.1/src/exe/rbdock.cxx#4 $)

>  <Rbt.Library>
libRbt.so (2013.1, Build901 2013/11/27)

>  <Rbt.Parameter_File>
/export/apps/rDock/src/rDock_2013.1_src/data/scripts/dock_solv.prm

>  <Rbt.Receptor>
prm/pocket_docking_6.prm

>  <SCORE>
-17.418

>  <SCORE.INTER>
-17.418

>  <SCORE.INTER.CONST>
1

>  <SCORE.INTER.POLAR>
0

>  <SCORE.INTER.ROT>
0

>  <SCORE.INTER.SOLV>
3.77229

>  <SCORE.INTER.VDW>
-16.4694

>  <SCORE.INTER.norm>
-1.7418

>  <SCORE.INTRA>
0

>  <SCORE.INTRA.DIHEDRAL>
0

>  <SCORE.INTRA.DIHEDRAL.0>
0

>  <SCORE.INTRA.POLAR>
0

>  <SCORE.INTRA.POLAR.0>
0

>  <SCORE.INTRA.REPUL>
0

>  <SCORE.INTRA.REPUL.0>
0

>  <SCORE.INTRA.SOLV>
0

>  <SCORE.INTRA.SOLV.lig_0>
-4.28333

>  <SCORE.INTRA.VDW>
0

>  <SCORE.INTRA.VDW.0>
0

>  <SCORE.INTRA.norm>
0

>  <SCORE.RESTR>
0

>  <SCORE.RESTR.CAVITY>
0

>  <SCORE.RESTR.norm>
0

>  <SCORE.SYSTEM>
0

>  <SCORE.SYSTEM.CONST>
0

>  <SCORE.SYSTEM.DIHEDRAL>
0

>  <SCORE.SYSTEM.SOLV>
0

>  <SCORE.SYSTEM.norm>
0

>  <SCORE.heavy>
10

>  <SCORE.norm>
-1.7418

>  <RMSD>
0.458

$$$$
ligand
 OpenBabel02271912143D
libRbt.so/2013.1/901 2013/11/27
 10 11  0  0  0  0  0  0  0  0999 V2000
   11.8206   10.8882    8.7679 N   0  0  0  0  0  0  0  0  0  0  0  0
   11.5417   12.2319    8.8554 C   0  0  0  0  0  0  0  0  0  0  0  0
   11.2369   12.9634    7.7820 N   0  0  0  0  0  0  0  0  0  0  0  0
   11.2340   12.2482    6.6211 C   0  0  0  0  0  0  0  0  0  0  0  0
   11.5056   10.9031    6.4660 C   0  0  0  0  0  0  0  0  0  0  0  0
   11.8298   10.1169    7.6053 C   0  0  0  0  0  0  0  0  0  0  0  0
   12.1014    8.9136    7.6968 O   0  0  0  0  0  0  0  0  0  0  0  0
   11.3939   10.5892    5.1407 N   0  0  0  0  0  0  0  0  0  0  0  0
   11.0554   11.7307    4.4975 C   0  0  0  0  0  0  0  0  0  0  0  0
   10.9494   12.7777    5.3874 N   0  0  0  0  0  0  0  0  0  0  0  0
  1  2  1  0  0  0  0
  1  6  1  0  0  0  0
  2  3  2  0  0  0  0
  3  4  1  0  0  0  0
  4  5  2  0  0  0  0
  4 10  1  0  0  0  0
  5  6  1  0  0  0  0
  5  8  1  0  0  0  0
  6  7  2  0  0  0  0
  8  9  1  0  0  0  0
  9 10  2  0  0  0  0
M  END
>  <CHROM.1>
11.47897891,11.29141650,6.89981349,0.49234058,-1.32020564,1.01002121

>  <Name>
ligand

>  <RI>
0

>  <Rbt.Current_Directory>
/home/itssahil/PROJECTS/Mol_Feturizer/Test_systems_manuscript/rnas/4fe5

>  <Rbt.Executable>
rbdock ($Id: //depot/dev/client3/rdock/2013.1/src/exe/rbdock.cxx#4 $)

>  <Rbt.Library>
libRbt.so (2013.1, Build901 2013/11/27)

>  <Rbt.Parameter_File>
/export/apps/rDock/src/rDock_2013.1_src/data/scripts/dock_solv.prm

>  <Rbt.Receptor>
prm/pocket_docking_7.prm

>  <SCORE>
-17.4606

>  <SCORE.INTER>
-17.4606

>  <SCORE.INTER.CONST>
1

>  <SCORE.INTER.POLAR>
0

>  <SCORE.INTER.ROT>
0

>  <SCORE.INTER.SOLV>
3.74133

>  <SCORE.INTER.VDW>
-16.4875

>  <SCORE.INTER.norm>
-1.74606

>  <SCORE.INTRA>
0

>  <SCORE.INTRA.DIHEDRAL>
0

>  <SCORE.INTRA.DIHEDRAL.0>
0

>  <SCORE.INTRA.POLAR>
0

>  <SCORE.INTRA.POLAR.0>
0

>  <SCORE.INTRA.REPUL>
0

>  <SCORE.INTRA.REPUL.0>
0

>  <SCORE.INTRA.SOLV>
0

>  <SCORE.INTRA.SOLV.lig_0>
-4.28333

>  <SCORE.INTRA.VDW>
0

>  <SCORE.INTRA.VDW.0>
0

>  <SCORE.INTRA.norm>
0

>  <SCORE.RESTR>
0

>  <SCORE.RESTR.CAVITY>
0

>  <SCORE.RESTR.norm>
0

>  <SCORE.SYSTEM>
0

>  <SCORE.SYSTEM.CONST>
0

>  <SCORE.SYSTEM.DIHEDRAL>
0

>  <SCORE.SYSTEM.SOLV>
0

>  <SCORE.SYSTEM.norm>
0

>  <SCORE.heavy>
10

>  <SCORE.norm>
-1.74606

>  <RMSD>
0.458

$$$$
ligand
 OpenBabel02271912143D
libRbt.so/2013.1/901 2013/11/27
 10 11  0  0  0  0  0  0  0  0999 V2000
   11.8330   10.8829    8.7607 N   0  0  0  0  0  0  0  0  0  0  0  0
   11.5618   12.2279    8.8516 C   0  0  0  0  0  0  0  0  0  0  0  0
   11.2514   12.9618    7.7815 N   0  0  0  0  0  0  0  0  0  0  0  0
   11.2348   12.2476    6.6202 C   0  0  0  0  0  0  0  0  0  0  0  0
   11.4982   10.9013    6.4617 C   0  0  0  0  0  0  0  0  0  0  0  0
   11.8283   10.1125    7.5976 C   0  0  0  0  0  0  0  0  0  0  0  0
   12.0945    8.9077    7.6858 O   0  0  0  0  0  0  0  0  0  0  0  0
   11.3735   10.5890    5.1371 N   0  0  0  0  0  0  0  0  0  0  0  0
   11.0352   11.7327    4.4977 C   0  0  0  0  0  0  0  0  0  0  0  0
   10.9422   12.7796    5.3894 N   0  0  0  0  0  0  0  0  0  0  0  0
  1  2  1  0  0  0  0
  1  6  1  0  0  0  0
  2  3  2  0  0  0  0
  3  4  1  0  0  0  0
  4  5  2  0  0  0  0
  4 10  1  0  0  0  0
  5  6  1  0  0  0  0
  5  8  1  0  0  0  0
  6  7  2  0  0  0  0
  8  9  1  0  0  0  0
  9 10  2  0  0  0  0
M  END
>  <CHROM.1>
11.47732670,11.28936682,6.89598584,0.45195219,-1.31973142,0.97168627

>  <Name>
ligand

>  <RI>
0

>  <Rbt.Current_Directory>
/home/itssahil/PROJECTS/Mol_Feturizer/Test_systems_manuscript/rnas/4fe5

>  <Rbt.Executable>
rbdock ($Id: //depot/dev/client3/rdock/2013.1/src/exe/rbdock.cxx#4 $)

>  <Rbt.Library>
libRbt.so (2013.1, Build901 2013/11/27)

>  <Rbt.Parameter_File>
/export/apps/rDock/src/rDock_2013.1_src/data/scripts/dock_solv.prm

>  <Rbt.Receptor>
prm/blind_docking_100.prm

>  <SCORE>
-17.4885

>  <SCORE.INTER>
-17.4899

>  <SCORE.INTER.CONST>
1

>  <SCORE.INTER.POLAR>
0

>  <SCORE.INTER.ROT>
0

>  <SCORE.INTER.SOLV>
3.73569

>  <SCORE.INTER.VDW>
-16.5052

>  <SCORE.INTER.norm>
-1.74899

>  <SCORE.INTRA>
0

>  <SCORE.INTRA.DIHEDRAL>
0

>  <SCORE.INTRA.DIHEDRAL.0>
0

>  <SCORE.INTRA.POLAR>
0

>  <SCORE.INTRA.POLAR.0>
0

>  <SCORE.INTRA.REPUL>
0

>  <SCORE.INTRA.REPUL.0>
0

>  <SCORE.INTRA.SOLV>
0

>  <SCORE.INTRA.SOLV.lig_0>
-4.28333

>  <SCORE.INTRA.VDW>
0

>  <SCORE.INTRA.VDW.0>
0

>  <SCORE.INTRA.norm>
0

>  <SCORE.RESTR>
0.00146999

>  <SCORE.RESTR.CAVITY>
0.00146999

>  <SCORE.RESTR.norm>
0.000146999

>  <SCORE.SYSTEM>
0

>  <SCORE.SYSTEM.CONST>
0

>  <SCORE.SYSTEM.DIHEDRAL>
0

>  <SCORE.SYSTEM.SOLV>
0

>  <SCORE.SYSTEM.norm>
0

>  <SCORE.heavy>
10

>  <SCORE.norm>
-1.74885

>  <RMSD>
0.459

$$$$
ligand
 OpenBabel02271912143D
libRbt.so/2013.1/901 2013/11/27
 10 11  0  0  0  0  0  0  0  0999 V2000
   11.8315   10.8824    8.7593 N   0  0  0  0  0  0  0  0  0  0  0  0
   11.5572   12.2269    8.8492 C   0  0  0  0  0  0  0  0  0  0  0  0
   11.2438   12.9590    7.7786 N   0  0  0  0  0  0  0  0  0  0  0  0
   11.2276   12.2436    6.6181 C   0  0  0  0  0  0  0  0  0  0  0  0
   11.4939   10.8977    6.4606 C   0  0  0  0  0  0  0  0  0  0  0  0
   11.8271   10.1108    7.5969 C   0  0  0  0  0  0  0  0  0  0  0  0
   12.0962    8.9068    7.6861 O   0  0  0  0  0  0  0  0  0  0  0  0
   11.3683   10.5838    5.1365 N   0  0  0  0  0  0  0  0  0  0  0  0
   11.0266   11.7260    4.4964 C   0  0  0  0  0  0  0  0  0  0  0  0
   10.9323   12.7736    5.3871 N   0  0  0  0  0  0  0  0  0  0  0  0
  1  2  1  0  0  0  0
  1  6  1  0  0  0  0
  2  3  2  0  0  0  0
  3  4  1  0  0  0  0
  4  5  2  0  0  0  0
  4 10  1  0  0  0  0
  5  6  1  0  0  0  0
  5  8  1  0  0  0  0
  6  7  2  0  0  0  0
  8  9  1  0  0  0  0
  9 10  2  0  0  0  0
M  END
>  <CHROM.1>
11.47261063,11.28617997,6.89457351,0.45327651,-1.31714129,0.97193462

>  <Name>
ligand

>  <RI>
0

>  <Rbt.Current_Directory>
/home/itssahil/PROJECTS/Mol_Feturizer/Test_systems_manuscript/rnas/4fe5

>  <Rbt.Executable>
rbdock ($Id: //depot/dev/client3/rdock/2013.1/src/exe/rbdock.cxx#4 $)

>  <Rbt.Library>
libRbt.so (2013.1, Build901 2013/11/27)

>  <Rbt.Parameter_File>
/export/apps/rDock/src/rDock_2013.1_src/data/scripts/dock_solv.prm

>  <Rbt.Receptor>
prm/blind_docking_40.prm

>  <SCORE>
-17.4873

>  <SCORE.INTER>
-17.4873

>  <SCORE.INTER.CONST>
1

>  <SCORE.INTER.POLAR>
0

>  <SCORE.INTER.ROT>
0

>  <SCORE.INTER.SOLV>
3.73239

>  <SCORE.INTER.VDW>
-16.5023

>  <SCORE.INTER.norm>
-1.74873

>  <SCORE.INTRA>
0

>  <SCORE.INTRA.DIHEDRAL>
0

>  <SCORE.INTRA.DIHEDRAL.0>
0

>  <SCORE.INTRA.POLAR>
0

>  <SCORE.INTRA.POLAR.0>
0

>  <SCORE.INTRA.REPUL>
0

>  <SCORE.INTRA.REPUL.0>
0

>  <SCORE.INTRA.SOLV>
0

>  <SCORE.INTRA.SOLV.lig_0>
-4.28333

>  <SCORE.INTRA.VDW>
0

>  <SCORE.INTRA.VDW.0>
0

>  <SCORE.INTRA.norm>
0

>  <SCORE.RESTR>
0

>  <SCORE.RESTR.CAVITY>
0

>  <SCORE.RESTR.norm>
0

>  <SCORE.SYSTEM>
0

>  <SCORE.SYSTEM.CONST>
0

>  <SCORE.SYSTEM.DIHEDRAL>
0

>  <SCORE.SYSTEM.SOLV>
0

>  <SCORE.SYSTEM.norm>
0

>  <SCORE.heavy>
10

>  <SCORE.norm>
-1.74873

>  <RMSD>
0.459

$$$$
ligand
 OpenBabel02271912143D
libRbt.so/2013.1/901 2013/11/27
 10 11  0  0  0  0  0  0  0  0999 V2000
   11.8316   10.8844    8.7583 N   0  0  0  0  0  0  0  0  0  0  0  0
   11.5552   12.2287    8.8448 C   0  0  0  0  0  0  0  0  0  0  0  0
   11.2400   12.9575    7.7726 N   0  0  0  0  0  0  0  0  0  0  0  0
   11.2241   12.2390    6.6139 C   0  0  0  0  0  0  0  0  0  0  0  0
   11.4924   10.8931    6.4598 C   0  0  0  0  0  0  0  0  0  0  0  0
   11.8277   10.1097    7.5980 C   0  0  0  0  0  0  0  0  0  0  0  0
   12.0988    8.9064    7.6900 O   0  0  0  0  0  0  0  0  0  0  0  0
   11.3665   10.5755    5.1366 N   0  0  0  0  0  0  0  0  0  0  0  0
   11.0225   11.7156    4.4938 C   0  0  0  0  0  0  0  0  0  0  0  0
   10.9271   12.7653    5.3818 N   0  0  0  0  0  0  0  0  0  0  0  0
  1  2  1  0  0  0  0
  1  6  1  0  0  0  0
  2  3  2  0  0  0  0
  3  4  1  0  0  0  0
  4  5  2  0  0  0  0
  4 10  1  0  0  0  0
  5  6  1  0  0  0  0
  5  8  1  0  0  0  0
  6  7  2  0  0  0  0
  8  9  1  0  0  0  0
  9 10  2  0  0  0  0
M  END
>  <CHROM.1>
11.47083200,11.28268258,6.89277284,0.45459603,-1.31544550,0.97060254

>  <Name>
ligand

>  <RI>
0

>  <Rbt.Current_Directory>
/home/itssahil/PROJECTS/Mol_Feturizer/Test_systems_manuscript/rnas/4fe5

>  <Rbt.Executable>
rbdock ($Id: //depot/dev/client3/rdock/2013.1/src/exe/rbdock.cxx#4 $)

>  <Rbt.Library>
libRbt.so (2013.1, Build901 2013/11/27)

>  <Rbt.Parameter_File>
/export/apps/rDock/src/rDock_2013.1_src/data/scripts/dock_solv.prm

>  <Rbt.Receptor>
prm/blind_docking_60.prm

>  <SCORE>
-17.4877

>  <SCORE.INTER>
-17.4877

>  <SCORE.INTER.CONST>
1

>  <SCORE.INTER.POLAR>
0

>  <SCORE.INTER.ROT>
0

>  <SCORE.INTER.SOLV>
3.73149

>  <SCORE.INTER.VDW>
-16.5023

>  <SCORE.INTER.norm>
-1.74877

>  <SCORE.INTRA>
0

>  <SCORE.INTRA.DIHEDRAL>
0

>  <SCORE.INTRA.DIHEDRAL.0>
0

>  <SCORE.INTRA.POLAR>
0

>  <SCORE.INTRA.POLAR.0>
0

>  <SCORE.INTRA.REPUL>
0

>  <SCORE.INTRA.REPUL.0>
0

>  <SCORE.INTRA.SOLV>
0

>  <SCORE.INTRA.SOLV.lig_0>
-4.28333

>  <SCORE.INTRA.VDW>
0

>  <SCORE.INTRA.VDW.0>
0

>  <SCORE.INTRA.norm>
0

>  <SCORE.RESTR>
0

>  <SCORE.RESTR.CAVITY>
0

>  <SCORE.RESTR.norm>
0

>  <SCORE.SYSTEM>
0

>  <SCORE.SYSTEM.CONST>
0

>  <SCORE.SYSTEM.DIHEDRAL>
0

>  <SCORE.SYSTEM.SOLV>
0

>  <SCORE.SYSTEM.norm>
0

>  <SCORE.heavy>
10

>  <SCORE.norm>
-1.74877

>  <RMSD>
0.459

$$$$
ligand
 OpenBabel02271912143D
libRbt.so/2013.1/901 2013/11/27
 10 11  0  0  0  0  0  0  0  0999 V2000
   11.8237   10.8864    8.7634 N   0  0  0  0  0  0  0  0  0  0  0  0
   11.5471   12.2306    8.8509 C   0  0  0  0  0  0  0  0  0  0  0  0
   11.2390   12.9617    7.7782 N   0  0  0  0  0  0  0  0  0  0  0  0
   11.2305   12.2457    6.6180 C   0  0  0  0  0  0  0  0  0  0  0  0
   11.4996   10.9001    6.4628 C   0  0  0  0  0  0  0  0  0  0  0  0
   11.8272   10.1142    7.6014 C   0  0  0  0  0  0  0  0  0  0  0  0
   12.0973    8.9106    7.6927 O   0  0  0  0  0  0  0  0  0  0  0  0
   11.3822   10.5853    5.1381 N   0  0  0  0  0  0  0  0  0  0  0  0
   11.0427   11.7268    4.4954 C   0  0  0  0  0  0  0  0  0  0  0  0
   10.9418   12.7747    5.3850 N   0  0  0  0  0  0  0  0  0  0  0  0
  1  2  1  0  0  0  0
  1  6  1  0  0  0  0
  2  3  2  0  0  0  0
  3  4  1  0  0  0  0
  4  5  2  0  0  0  0
  4 10  1  0  0  0  0
  5  6  1  0  0  0  0
  5  8  1  0  0  0  0
  6  7  2  0  0  0  0
  8  9  1  0  0  0  0
  9 10  2  0  0  0  0
M  END
>  <CHROM.1>
11.47522119,11.28873446,6.89637193,0.47577039,-1.31930060,0.99321653

>  <Name>
ligand

>  <RI>
0

>  <Rbt.Current_Directory>
/home/itssahil/PROJECTS/Mol_Feturizer/Test_systems_manuscript/rnas/4fe5

>  <Rbt.Executable>
rbdock ($Id: //depot/dev/client3/rdock/2013.1/src/exe/rbdock.cxx#4 $)

>  <Rbt.Library>
libRbt.so (2013.1, Build901 2013/11/27)

>  <Rbt.Parameter_File>
/export/apps/rDock/src/rDock_2013.1_src/data/scripts/dock_solv.prm

>  <Rbt.Receptor>
prm/pocket_docking_5.prm

>  <SCORE>
-17.4748

>  <SCORE.INTER>
-17.4748

>  <SCORE.INTER.CONST>
1

>  <SCORE.INTER.POLAR>
0

>  <SCORE.INTER.ROT>
0

>  <SCORE.INTER.SOLV>
3.73937

>  <SCORE.INTER.VDW>
-16.4964

>  <SCORE.INTER.norm>
-1.74748

>  <SCORE.INTRA>
0

>  <SCORE.INTRA.DIHEDRAL>
0

>  <SCORE.INTRA.DIHEDRAL.0>
0

>  <SCORE.INTRA.POLAR>
0

>  <SCORE.INTRA.POLAR.0>
0

>  <SCORE.INTRA.REPUL>
0

>  <SCORE.INTRA.REPUL.0>
0

>  <SCORE.INTRA.SOLV>
0

>  <SCORE.INTRA.SOLV.lig_0>
-4.28333

>  <SCORE.INTRA.VDW>
0

>  <SCORE.INTRA.VDW.0>
0

>  <SCORE.INTRA.norm>
0

>  <SCORE.RESTR>
0

>  <SCORE.RESTR.CAVITY>
0

>  <SCORE.RESTR.norm>
0

>  <SCORE.SYSTEM>
0

>  <SCORE.SYSTEM.CONST>
0

>  <SCORE.SYSTEM.DIHEDRAL>
0

>  <SCORE.SYSTEM.SOLV>
0

>  <SCORE.SYSTEM.norm>
0

>  <SCORE.heavy>
10

>  <SCORE.norm>
-1.74748

>  <RMSD>
0.459

$$$$
ligand
 OpenBabel02271912143D
libRbt.so/2013.1/901 2013/11/27
 10 11  0  0  0  0  0  0  0  0999 V2000
   11.8016   10.9629    8.8065 N   0  0  0  0  0  0  0  0  0  0  0  0
   11.5087   12.3061    8.8364 C   0  0  0  0  0  0  0  0  0  0  0  0
   11.1955   12.9875    7.7329 N   0  0  0  0  0  0  0  0  0  0  0  0
   11.1993   12.2231    6.6039 C   0  0  0  0  0  0  0  0  0  0  0  0
   11.4848   10.8755    6.5065 C   0  0  0  0  0  0  0  0  0  0  0  0
   11.8181   10.1424    7.6782 C   0  0  0  0  0  0  0  0  0  0  0  0
   12.1023    8.9470    7.8211 O   0  0  0  0  0  0  0  0  0  0  0  0
   11.3755   10.5036    5.1960 N   0  0  0  0  0  0  0  0  0  0  0  0
   11.0245   11.6128    4.5047 C   0  0  0  0  0  0  0  0  0  0  0  0
   10.9082   12.6960    5.3489 N   0  0  0  0  0  0  0  0  0  0  0  0
  1  2  1  0  0  0  0
  1  6  1  0  0  0  0
  2  3  2  0  0  0  0
  3  4  1  0  0  0  0
  4  5  2  0  0  0  0
  4 10  1  0  0  0  0
  5  6  1  0  0  0  0
  5  8  1  0  0  0  0
  6  7  2  0  0  0  0
  8  9  1  0  0  0  0
  9 10  2  0  0  0  0
M  END
>  <CHROM.1>
11.45444098,11.28176467,6.92323715,0.51162108,-1.31091531,0.98563140

>  <Name>
ligand

>  <RI>
0

>  <Rbt.Current_Directory>
/home/itssahil/PROJECTS/Mol_Feturizer/Test_systems_manuscript/rnas/4fe5

>  <Rbt.Executable>
rbdock ($Id: //depot/dev/client3/rdock/2013.1/src/exe/rbdock.cxx#4 $)

>  <Rbt.Library>
libRbt.so (2013.1, Build901 2013/11/27)

>  <Rbt.Parameter_File>
/export/apps/rDock/src/rDock_2013.1_src/data/scripts/dock_solv.prm

>  <Rbt.Receptor>
prm/pocket_docking_5.prm

>  <SCORE>
-17.4292

>  <SCORE.INTER>
-17.4311

>  <SCORE.INTER.CONST>
1

>  <SCORE.INTER.POLAR>
0

>  <SCORE.INTER.ROT>
0

>  <SCORE.INTER.SOLV>
3.78655

>  <SCORE.INTER.VDW>
-16.4829

>  <SCORE.INTER.norm>
-1.74311

>  <SCORE.INTRA>
0

>  <SCORE.INTRA.DIHEDRAL>
0

>  <SCORE.INTRA.DIHEDRAL.0>
0

>  <SCORE.INTRA.POLAR>
0

>  <SCORE.INTRA.POLAR.0>
0

>  <SCORE.INTRA.REPUL>
0

>  <SCORE.INTRA.REPUL.0>
0

>  <SCORE.INTRA.SOLV>
0

>  <SCORE.INTRA.SOLV.lig_0>
-4.28333

>  <SCORE.INTRA.VDW>
0

>  <SCORE.INTRA.VDW.0>
0

>  <SCORE.INTRA.norm>
0

>  <SCORE.RESTR>
0.00181144

>  <SCORE.RESTR.CAVITY>
0.00181144

>  <SCORE.RESTR.norm>
0.000181144

>  <SCORE.SYSTEM>
0

>  <SCORE.SYSTEM.CONST>
0

>  <SCORE.SYSTEM.DIHEDRAL>
0

>  <SCORE.SYSTEM.SOLV>
0

>  <SCORE.SYSTEM.norm>
0

>  <SCORE.heavy>
10

>  <SCORE.norm>
-1.74292

>  <RMSD>
0.459

$$$$
ligand
 OpenBabel02271912143D
libRbt.so/2013.1/901 2013/11/27
 10 11  0  0  0  0  0  0  0  0999 V2000
   11.8254   10.8836    8.7633 N   0  0  0  0  0  0  0  0  0  0  0  0
   11.5530   12.2285    8.8529 C   0  0  0  0  0  0  0  0  0  0  0  0
   11.2473   12.9622    7.7812 N   0  0  0  0  0  0  0  0  0  0  0  0
   11.2367   12.2479    6.6199 C   0  0  0  0  0  0  0  0  0  0  0  0
   11.5016   10.9017    6.4627 C   0  0  0  0  0  0  0  0  0  0  0  0
   11.8267   10.1131    7.6002 C   0  0  0  0  0  0  0  0  0  0  0  0
   12.0932    8.9086    7.6898 O   0  0  0  0  0  0  0  0  0  0  0  0
   11.3834   10.5893    5.1376 N   0  0  0  0  0  0  0  0  0  0  0  0
   11.0475   11.7327    4.4965 C   0  0  0  0  0  0  0  0  0  0  0  0
   10.9497   12.7796    5.3877 N   0  0  0  0  0  0  0  0  0  0  0  0
  1  2  1  0  0  0  0
  1  6  1  0  0  0  0
  2  3  2  0  0  0  0
  3  4  1  0  0  0  0
  4  5  2  0  0  0  0
  4 10  1  0  0  0  0
  5  6  1  0  0  0  0
  5  8  1  0  0  0  0
  6  7  2  0  0  0  0
  8  9  1  0  0  0  0
  9 10  2  0  0  0  0
M  END
>  <CHROM.1>
11.47840067,11.28979580,6.89691027,0.46925453,-1.32191126,0.98838031

>  <Name>
ligand

>  <RI>
0

>  <Rbt.Current_Directory>
/home/itssahil/PROJECTS/Mol_Feturizer/Test_systems_manuscript/rnas/4fe5

>  <Rbt.Executable>
rbdock ($Id: //depot/dev/client3/rdock/2013.1/src/exe/rbdock.cxx#4 $)

>  <Rbt.Library>
libRbt.so (2013.1, Build901 2013/11/27)

>  <Rbt.Parameter_File>
/export/apps/rDock/src/rDock_2013.1_src/data/scripts/dock_solv.prm

>  <Rbt.Receptor>
prm/blind_docking_60.prm

>  <SCORE>
-17.4807

>  <SCORE.INTER>
-17.4808

>  <SCORE.INTER.CONST>
1

>  <SCORE.INTER.POLAR>
0

>  <SCORE.INTER.ROT>
0

>  <SCORE.INTER.SOLV>
3.74302

>  <SCORE.INTER.VDW>
-16.5015

>  <SCORE.INTER.norm>
-1.74808

>  <SCORE.INTRA>
0

>  <SCORE.INTRA.DIHEDRAL>
0

>  <SCORE.INTRA.DIHEDRAL.0>
0

>  <SCORE.INTRA.POLAR>
0

>  <SCORE.INTRA.POLAR.0>
0

>  <SCORE.INTRA.REPUL>
0

>  <SCORE.INTRA.REPUL.0>
0

>  <SCORE.INTRA.SOLV>
0

>  <SCORE.INTRA.SOLV.lig_0>
-4.28333

>  <SCORE.INTRA.VDW>
0

>  <SCORE.INTRA.VDW.0>
0

>  <SCORE.INTRA.norm>
0

>  <SCORE.RESTR>
2.01766e-05

>  <SCORE.RESTR.CAVITY>
2.01766e-05

>  <SCORE.RESTR.norm>
2.01766e-06

>  <SCORE.SYSTEM>
0

>  <SCORE.SYSTEM.CONST>
0

>  <SCORE.SYSTEM.DIHEDRAL>
0

>  <SCORE.SYSTEM.SOLV>
0

>  <SCORE.SYSTEM.norm>
0

>  <SCORE.heavy>
10

>  <SCORE.norm>
-1.74807

>  <RMSD>
0.460

$$$$
ligand
 OpenBabel02271912143D
libRbt.so/2013.1/901 2013/11/27
 10 11  0  0  0  0  0  0  0  0999 V2000
   11.8298   10.8847    8.7598 N   0  0  0  0  0  0  0  0  0  0  0  0
   11.5549   12.2292    8.8485 C   0  0  0  0  0  0  0  0  0  0  0  0
   11.2432   12.9606    7.7770 N   0  0  0  0  0  0  0  0  0  0  0  0
   11.2292   12.2446    6.6169 C   0  0  0  0  0  0  0  0  0  0  0  0
   11.4963   10.8987    6.4606 C   0  0  0  0  0  0  0  0  0  0  0  0
   11.8278   10.1125    7.5979 C   0  0  0  0  0  0  0  0  0  0  0  0
   12.0971    8.9087    7.6881 O   0  0  0  0  0  0  0  0  0  0  0  0
   11.3731   10.5841    5.1364 N   0  0  0  0  0  0  0  0  0  0  0  0
   11.0321   11.7259    4.4951 C   0  0  0  0  0  0  0  0  0  0  0  0
   10.9359   12.7738    5.3851 N   0  0  0  0  0  0  0  0  0  0  0  0
  1  2  1  0  0  0  0
  1  6  1  0  0  0  0
  2  3  2  0  0  0  0
  3  4  1  0  0  0  0
  4  5  2  0  0  0  0
  4 10  1  0  0  0  0
  5  6  1  0  0  0  0
  5  8  1  0  0  0  0
  6  7  2  0  0  0  0
  8  9  1  0  0  0  0
  9 10  2  0  0  0  0
M  END
>  <CHROM.1>
11.47406534,11.28740662,6.89428208,0.45981278,-1.31784265,0.97774671

>  <Name>
ligand

>  <RI>
0

>  <Rbt.Current_Directory>
/home/itssahil/PROJECTS/Mol_Feturizer/Test_systems_manuscript/rnas/4fe5

>  <Rbt.Executable>
rbdock ($Id: //depot/dev/client3/rdock/2013.1/src/exe/rbdock.cxx#4 $)

>  <Rbt.Library>
libRbt.so (2013.1, Build901 2013/11/27)

>  <Rbt.Parameter_File>
/export/apps/rDock/src/rDock_2013.1_src/data/scripts/dock_solv.prm

>  <Rbt.Receptor>
prm/blind_docking_60.prm

>  <SCORE>
-17.4847

>  <SCORE.INTER>
-17.4847

>  <SCORE.INTER.CONST>
1

>  <SCORE.INTER.POLAR>
0

>  <SCORE.INTER.ROT>
0

>  <SCORE.INTER.SOLV>
3.734

>  <SCORE.INTER.VDW>
-16.5011

>  <SCORE.INTER.norm>
-1.74847

>  <SCORE.INTRA>
0

>  <SCORE.INTRA.DIHEDRAL>
0

>  <SCORE.INTRA.DIHEDRAL.0>
0

>  <SCORE.INTRA.POLAR>
0

>  <SCORE.INTRA.POLAR.0>
0

>  <SCORE.INTRA.REPUL>
0

>  <SCORE.INTRA.REPUL.0>
0

>  <SCORE.INTRA.SOLV>
0

>  <SCORE.INTRA.SOLV.lig_0>
-4.28333

>  <SCORE.INTRA.VDW>
0

>  <SCORE.INTRA.VDW.0>
0

>  <SCORE.INTRA.norm>
0

>  <SCORE.RESTR>
0

>  <SCORE.RESTR.CAVITY>
0

>  <SCORE.RESTR.norm>
0

>  <SCORE.SYSTEM>
0

>  <SCORE.SYSTEM.CONST>
0

>  <SCORE.SYSTEM.DIHEDRAL>
0

>  <SCORE.SYSTEM.SOLV>
0

>  <SCORE.SYSTEM.norm>
0

>  <SCORE.heavy>
10

>  <SCORE.norm>
-1.74847

>  <RMSD>
0.460

$$$$
ligand
 OpenBabel02271912143D
libRbt.so/2013.1/901 2013/11/27
 10 11  0  0  0  0  0  0  0  0999 V2000
   11.8292   10.8794    8.7587 N   0  0  0  0  0  0  0  0  0  0  0  0
   11.5590   12.2246    8.8506 C   0  0  0  0  0  0  0  0  0  0  0  0
   11.2489   12.9594    7.7809 N   0  0  0  0  0  0  0  0  0  0  0  0
   11.2315   12.2460    6.6192 C   0  0  0  0  0  0  0  0  0  0  0  0
   11.4938   10.8995    6.4598 C   0  0  0  0  0  0  0  0  0  0  0  0
   11.8236   10.1097    7.5951 C   0  0  0  0  0  0  0  0  0  0  0  0
   12.0889    8.9047    7.6825 O   0  0  0  0  0  0  0  0  0  0  0  0
   11.3685   10.5882    5.1351 N   0  0  0  0  0  0  0  0  0  0  0  0
   11.0309   11.7325    4.4965 C   0  0  0  0  0  0  0  0  0  0  0  0
   10.9390   12.7789    5.3888 N   0  0  0  0  0  0  0  0  0  0  0  0
  1  2  1  0  0  0  0
  1  6  1  0  0  0  0
  2  3  2  0  0  0  0
  3  4  1  0  0  0  0
  4  5  2  0  0  0  0
  4 10  1  0  0  0  0
  5  6  1  0  0  0  0
  5  8  1  0  0  0  0
  6  7  2  0  0  0  0
  8  9  1  0  0  0  0
  9 10  2  0  0  0  0
M  END
>  <CHROM.1>
11.47334048,11.28735101,6.89434870,0.44927248,-1.32022479,0.96971221

>  <Name>
ligand

>  <RI>
0

>  <Rbt.Current_Directory>
/home/itssahil/PROJECTS/Mol_Feturizer/Test_systems_manuscript/rnas/4fe5

>  <Rbt.Executable>
rbdock ($Id: //depot/dev/client3/rdock/2013.1/src/exe/rbdock.cxx#4 $)

>  <Rbt.Library>
libRbt.so (2013.1, Build901 2013/11/27)

>  <Rbt.Parameter_File>
/export/apps/rDock/src/rDock_2013.1_src/data/scripts/dock_solv.prm

>  <Rbt.Receptor>
prm/blind_docking_80.prm

>  <SCORE>
-17.4625

>  <SCORE.INTER>
-17.4627

>  <SCORE.INTER.CONST>
1

>  <SCORE.INTER.POLAR>
0

>  <SCORE.INTER.ROT>
0

>  <SCORE.INTER.SOLV>
3.73862

>  <SCORE.INTER.VDW>
-16.488

>  <SCORE.INTER.norm>
-1.74627

>  <SCORE.INTRA>
0

>  <SCORE.INTRA.DIHEDRAL>
0

>  <SCORE.INTRA.DIHEDRAL.0>
0

>  <SCORE.INTRA.POLAR>
0

>  <SCORE.INTRA.POLAR.0>
0

>  <SCORE.INTRA.REPUL>
0

>  <SCORE.INTRA.REPUL.0>
0

>  <SCORE.INTRA.SOLV>
0

>  <SCORE.INTRA.SOLV.lig_0>
-4.28333

>  <SCORE.INTRA.VDW>
0

>  <SCORE.INTRA.VDW.0>
0

>  <SCORE.INTRA.norm>
0

>  <SCORE.RESTR>
0.000211175

>  <SCORE.RESTR.CAVITY>
0.000211175

>  <SCORE.RESTR.norm>
2.11175e-05

>  <SCORE.SYSTEM>
0

>  <SCORE.SYSTEM.CONST>
0

>  <SCORE.SYSTEM.DIHEDRAL>
0

>  <SCORE.SYSTEM.SOLV>
0

>  <SCORE.SYSTEM.norm>
0

>  <SCORE.heavy>
10

>  <SCORE.norm>
-1.74625

>  <RMSD>
0.460

$$$$
ligand
 OpenBabel02271912143D
libRbt.so/2013.1/901 2013/11/27
 10 11  0  0  0  0  0  0  0  0999 V2000
   11.8251   10.8839    8.7624 N   0  0  0  0  0  0  0  0  0  0  0  0
   11.5530   12.2289    8.8515 C   0  0  0  0  0  0  0  0  0  0  0  0
   11.2456   12.9619    7.7798 N   0  0  0  0  0  0  0  0  0  0  0  0
   11.2329   12.2469    6.6190 C   0  0  0  0  0  0  0  0  0  0  0  0
   11.4974   10.9005    6.4623 C   0  0  0  0  0  0  0  0  0  0  0  0
   11.8242   10.1127    7.5998 C   0  0  0  0  0  0  0  0  0  0  0  0
   12.0907    8.9081    7.6897 O   0  0  0  0  0  0  0  0  0  0  0  0
   11.3768   10.5872    5.1376 N   0  0  0  0  0  0  0  0  0  0  0  0
   11.0400   11.7303    4.4963 C   0  0  0  0  0  0  0  0  0  0  0  0
   10.9439   12.7778    5.3869 N   0  0  0  0  0  0  0  0  0  0  0  0
  1  2  1  0  0  0  0
  1  6  1  0  0  0  0
  2  3  2  0  0  0  0
  3  4  1  0  0  0  0
  4  5  2  0  0  0  0
  4 10  1  0  0  0  0
  5  6  1  0  0  0  0
  5  8  1  0  0  0  0
  6  7  2  0  0  0  0
  8  9  1  0  0  0  0
  9 10  2  0  0  0  0
M  END
>  <CHROM.1>
11.47495579,11.28889639,6.89628045,0.46314435,-1.32111519,0.98178336

>  <Name>
ligand

>  <RI>
0

>  <Rbt.Current_Directory>
/home/itssahil/PROJECTS/Mol_Feturizer/Test_systems_manuscript/rnas/4fe5

>  <Rbt.Executable>
rbdock ($Id: //depot/dev/client3/rdock/2013.1/src/exe/rbdock.cxx#4 $)

>  <Rbt.Library>
libRbt.so (2013.1, Build901 2013/11/27)

>  <Rbt.Parameter_File>
/export/apps/rDock/src/rDock_2013.1_src/data/scripts/dock_solv.prm

>  <Rbt.Receptor>
prm/pocket_docking_4.prm

>  <SCORE>
-17.4838

>  <SCORE.INTER>
-17.4838

>  <SCORE.INTER.CONST>
1

>  <SCORE.INTER.POLAR>
0

>  <SCORE.INTER.ROT>
0

>  <SCORE.INTER.SOLV>
3.74315

>  <SCORE.INTER.VDW>
-16.5036

>  <SCORE.INTER.norm>
-1.74838

>  <SCORE.INTRA>
0

>  <SCORE.INTRA.DIHEDRAL>
0

>  <SCORE.INTRA.DIHEDRAL.0>
0

>  <SCORE.INTRA.POLAR>
0

>  <SCORE.INTRA.POLAR.0>
0

>  <SCORE.INTRA.REPUL>
0

>  <SCORE.INTRA.REPUL.0>
0

>  <SCORE.INTRA.SOLV>
0

>  <SCORE.INTRA.SOLV.lig_0>
-4.28333

>  <SCORE.INTRA.VDW>
0

>  <SCORE.INTRA.VDW.0>
0

>  <SCORE.INTRA.norm>
0

>  <SCORE.RESTR>
0

>  <SCORE.RESTR.CAVITY>
0

>  <SCORE.RESTR.norm>
0

>  <SCORE.SYSTEM>
0

>  <SCORE.SYSTEM.CONST>
0

>  <SCORE.SYSTEM.DIHEDRAL>
0

>  <SCORE.SYSTEM.SOLV>
0

>  <SCORE.SYSTEM.norm>
0

>  <SCORE.heavy>
10

>  <SCORE.norm>
-1.74838

>  <RMSD>
0.460

$$$$
ligand
 OpenBabel02271912143D
libRbt.so/2013.1/901 2013/11/27
 10 11  0  0  0  0  0  0  0  0999 V2000
   11.8461   10.8689    8.7444 N   0  0  0  0  0  0  0  0  0  0  0  0
   11.5644   12.2111    8.8447 C   0  0  0  0  0  0  0  0  0  0  0  0
   11.2497   12.9503    7.7795 N   0  0  0  0  0  0  0  0  0  0  0  0
   11.2399   12.2445    6.6131 C   0  0  0  0  0  0  0  0  0  0  0  0
   11.5138   10.9014    6.4451 C   0  0  0  0  0  0  0  0  0  0  0  0
   11.8485   10.1069    7.5757 C   0  0  0  0  0  0  0  0  0  0  0  0
   12.1239    8.9036    7.6555 O   0  0  0  0  0  0  0  0  0  0  0  0
   11.3929   10.5977    5.1182 N   0  0  0  0  0  0  0  0  0  0  0  0
   11.0466   11.7434    4.4867 C   0  0  0  0  0  0  0  0  0  0  0  0
   10.9446   12.7830    5.3858 N   0  0  0  0  0  0  0  0  0  0  0  0
  1  2  1  0  0  0  0
  1  6  1  0  0  0  0
  2  3  2  0  0  0  0
  3  4  1  0  0  0  0
  4  5  2  0  0  0  0
  4 10  1  0  0  0  0
  5  6  1  0  0  0  0
  5  8  1  0  0  0  0
  6  7  2  0  0  0  0
  8  9  1  0  0  0  0
  9 10  2  0  0  0  0
M  END
>  <CHROM.1>
11.48938909,11.28610364,6.88223507,0.47258283,-1.31399954,0.99888000

>  <Name>
ligand

>  <RI>
0

>  <Rbt.Current_Directory>
/home/itssahil/PROJECTS/Mol_Feturizer/Test_systems_manuscript/rnas/4fe5

>  <Rbt.Executable>
rbdock ($Id: //depot/dev/client3/rdock/2013.1/src/exe/rbdock.cxx#4 $)

>  <Rbt.Library>
libRbt.so (2013.1, Build901 2013/11/27)

>  <Rbt.Parameter_File>
/export/apps/rDock/src/rDock_2013.1_src/data/scripts/dock_solv.prm

>  <Rbt.Receptor>
prm/pocket_docking_4.prm

>  <SCORE>
-17.385

>  <SCORE.INTER>
-17.385

>  <SCORE.INTER.CONST>
1

>  <SCORE.INTER.POLAR>
0

>  <SCORE.INTER.ROT>
0

>  <SCORE.INTER.SOLV>
3.70097

>  <SCORE.INTER.VDW>
-16.4237

>  <SCORE.INTER.norm>
-1.7385

>  <SCORE.INTRA>
0

>  <SCORE.INTRA.DIHEDRAL>
0

>  <SCORE.INTRA.DIHEDRAL.0>
0

>  <SCORE.INTRA.POLAR>
0

>  <SCORE.INTRA.POLAR.0>
0

>  <SCORE.INTRA.REPUL>
0

>  <SCORE.INTRA.REPUL.0>
0

>  <SCORE.INTRA.SOLV>
0

>  <SCORE.INTRA.SOLV.lig_0>
-4.28333

>  <SCORE.INTRA.VDW>
0

>  <SCORE.INTRA.VDW.0>
0

>  <SCORE.INTRA.norm>
0

>  <SCORE.RESTR>
0

>  <SCORE.RESTR.CAVITY>
0

>  <SCORE.RESTR.norm>
0

>  <SCORE.SYSTEM>
0

>  <SCORE.SYSTEM.CONST>
0

>  <SCORE.SYSTEM.DIHEDRAL>
0

>  <SCORE.SYSTEM.SOLV>
0

>  <SCORE.SYSTEM.norm>
0

>  <SCORE.heavy>
10

>  <SCORE.norm>
-1.7385

>  <RMSD>
0.460

$$$$
ligand
 OpenBabel02271912143D
libRbt.so/2013.1/901 2013/11/27
 10 11  0  0  0  0  0  0  0  0999 V2000
   11.8271   10.8848    8.7610 N   0  0  0  0  0  0  0  0  0  0  0  0
   11.5541   12.2297    8.8491 C   0  0  0  0  0  0  0  0  0  0  0  0
   11.2435   12.9612    7.7774 N   0  0  0  0  0  0  0  0  0  0  0  0
   11.2285   12.2447    6.6175 C   0  0  0  0  0  0  0  0  0  0  0  0
   11.4936   10.8984    6.4617 C   0  0  0  0  0  0  0  0  0  0  0  0
   11.8239   10.1122    7.5993 C   0  0  0  0  0  0  0  0  0  0  0  0
   12.0915    8.9079    7.6899 O   0  0  0  0  0  0  0  0  0  0  0  0
   11.3700   10.5835    5.1376 N   0  0  0  0  0  0  0  0  0  0  0  0
   11.0308   11.7255    4.4959 C   0  0  0  0  0  0  0  0  0  0  0  0
   10.9360   12.7740    5.3855 N   0  0  0  0  0  0  0  0  0  0  0  0
  1  2  1  0  0  0  0
  1  6  1  0  0  0  0
  2  3  2  0  0  0  0
  3  4  1  0  0  0  0
  4  5  2  0  0  0  0
  4 10  1  0  0  0  0
  5  6  1  0  0  0  0
  5  8  1  0  0  0  0
  6  7  2  0  0  0  0
  8  9  1  0  0  0  0
  9 10  2  0  0  0  0
M  END
>  <CHROM.1>
11.47199198,11.28729474,6.89524102,0.45661820,-1.31908931,0.97429082

>  <Name>
ligand

>  <RI>
0

>  <Rbt.Current_Directory>
/home/itssahil/PROJECTS/Mol_Feturizer/Test_systems_manuscript/rnas/4fe5

>  <Rbt.Executable>
rbdock ($Id: //depot/dev/client3/rdock/2013.1/src/exe/rbdock.cxx#4 $)

>  <Rbt.Library>
libRbt.so (2013.1, Build901 2013/11/27)

>  <Rbt.Parameter_File>
/export/apps/rDock/src/rDock_2013.1_src/data/scripts/dock_solv.prm

>  <Rbt.Receptor>
prm/pocket_docking_4.prm

>  <SCORE>
-17.486

>  <SCORE.INTER>
-17.486

>  <SCORE.INTER.CONST>
1

>  <SCORE.INTER.POLAR>
0

>  <SCORE.INTER.ROT>
0

>  <SCORE.INTER.SOLV>
3.74

>  <SCORE.INTER.VDW>
-16.504

>  <SCORE.INTER.norm>
-1.7486

>  <SCORE.INTRA>
0

>  <SCORE.INTRA.DIHEDRAL>
0

>  <SCORE.INTRA.DIHEDRAL.0>
0

>  <SCORE.INTRA.POLAR>
0

>  <SCORE.INTRA.POLAR.0>
0

>  <SCORE.INTRA.REPUL>
0

>  <SCORE.INTRA.REPUL.0>
0

>  <SCORE.INTRA.SOLV>
0

>  <SCORE.INTRA.SOLV.lig_0>
-4.28333

>  <SCORE.INTRA.VDW>
0

>  <SCORE.INTRA.VDW.0>
0

>  <SCORE.INTRA.norm>
0

>  <SCORE.RESTR>
1.17366e-07

>  <SCORE.RESTR.CAVITY>
1.17366e-07

>  <SCORE.RESTR.norm>
1.17366e-08

>  <SCORE.SYSTEM>
0

>  <SCORE.SYSTEM.CONST>
0

>  <SCORE.SYSTEM.DIHEDRAL>
0

>  <SCORE.SYSTEM.SOLV>
0

>  <SCORE.SYSTEM.norm>
0

>  <SCORE.heavy>
10

>  <SCORE.norm>
-1.7486

>  <RMSD>
0.460

$$$$
ligand
 OpenBabel02271912143D
libRbt.so/2013.1/901 2013/11/27
 10 11  0  0  0  0  0  0  0  0999 V2000
   11.8522   10.8692    8.7477 N   0  0  0  0  0  0  0  0  0  0  0  0
   11.5912   12.2153    8.8508 C   0  0  0  0  0  0  0  0  0  0  0  0
   11.2668   12.9572    7.7902 N   0  0  0  0  0  0  0  0  0  0  0  0
   11.2255   12.2496    6.6255 C   0  0  0  0  0  0  0  0  0  0  0  0
   11.4776   10.9026    6.4550 C   0  0  0  0  0  0  0  0  0  0  0  0
   11.8223   10.1053    7.5806 C   0  0  0  0  0  0  0  0  0  0  0  0
   12.0824    8.8985    7.6576 O   0  0  0  0  0  0  0  0  0  0  0  0
   11.3278   10.5985    5.1311 N   0  0  0  0  0  0  0  0  0  0  0  0
   10.9857   11.7478    4.5041 C   0  0  0  0  0  0  0  0  0  0  0  0
   10.9149   12.7903    5.4029 N   0  0  0  0  0  0  0  0  0  0  0  0
  1  2  1  0  0  0  0
  1  6  1  0  0  0  0
  2  3  2  0  0  0  0
  3  4  1  0  0  0  0
  4  5  2  0  0  0  0
  4 10  1  0  0  0  0
  5  6  1  0  0  0  0
  5  8  1  0  0  0  0
  6  7  2  0  0  0  0
  8  9  1  0  0  0  0
  9 10  2  0  0  0  0
M  END
>  <CHROM.1>
11.46668926,11.28832647,6.89176689,0.38097010,-1.31453750,0.90851363

>  <Name>
ligand

>  <RI>
0

>  <Rbt.Current_Directory>
/home/itssahil/PROJECTS/Mol_Feturizer/Test_systems_manuscript/rnas/4fe5

>  <Rbt.Executable>
rbdock ($Id: //depot/dev/client3/rdock/2013.1/src/exe/rbdock.cxx#4 $)

>  <Rbt.Library>
libRbt.so (2013.1, Build901 2013/11/27)

>  <Rbt.Parameter_File>
/export/apps/rDock/src/rDock_2013.1_src/data/scripts/dock_solv.prm

>  <Rbt.Receptor>
prm/pocket_docking_5.prm

>  <SCORE>
-17.4314

>  <SCORE.INTER>
-17.4337

>  <SCORE.INTER.CONST>
1

>  <SCORE.INTER.POLAR>
0

>  <SCORE.INTER.ROT>
0

>  <SCORE.INTER.SOLV>
3.71776

>  <SCORE.INTER.VDW>
-16.4617

>  <SCORE.INTER.norm>
-1.74337

>  <SCORE.INTRA>
0

>  <SCORE.INTRA.DIHEDRAL>
0

>  <SCORE.INTRA.DIHEDRAL.0>
0

>  <SCORE.INTRA.POLAR>
0

>  <SCORE.INTRA.POLAR.0>
0

>  <SCORE.INTRA.REPUL>
0

>  <SCORE.INTRA.REPUL.0>
0

>  <SCORE.INTRA.SOLV>
0

>  <SCORE.INTRA.SOLV.lig_0>
-4.28333

>  <SCORE.INTRA.VDW>
0

>  <SCORE.INTRA.VDW.0>
0

>  <SCORE.INTRA.norm>
0

>  <SCORE.RESTR>
0.00236124

>  <SCORE.RESTR.CAVITY>
0.00236124

>  <SCORE.RESTR.norm>
0.000236124

>  <SCORE.SYSTEM>
0

>  <SCORE.SYSTEM.CONST>
0

>  <SCORE.SYSTEM.DIHEDRAL>
0

>  <SCORE.SYSTEM.SOLV>
0

>  <SCORE.SYSTEM.norm>
0

>  <SCORE.heavy>
10

>  <SCORE.norm>
-1.74314

>  <RMSD>
0.460

$$$$
ligand
 OpenBabel02271912143D
libRbt.so/2013.1/901 2013/11/27
 10 11  0  0  0  0  0  0  0  0999 V2000
   11.8294   10.8867    8.7594 N   0  0  0  0  0  0  0  0  0  0  0  0
   11.5524   12.2310    8.8432 C   0  0  0  0  0  0  0  0  0  0  0  0
   11.2382   12.9577    7.7692 N   0  0  0  0  0  0  0  0  0  0  0  0
   11.2240   12.2372    6.6119 C   0  0  0  0  0  0  0  0  0  0  0  0
   11.4931   10.8911    6.4605 C   0  0  0  0  0  0  0  0  0  0  0  0
   11.8273   10.1099    7.6004 C   0  0  0  0  0  0  0  0  0  0  0  0
   12.0988    8.9069    7.6950 O   0  0  0  0  0  0  0  0  0  0  0  0
   11.3689   10.5711    5.1377 N   0  0  0  0  0  0  0  0  0  0  0  0
   11.0253   11.7099    4.4924 C   0  0  0  0  0  0  0  0  0  0  0  0
   10.9284   12.7611    5.3784 N   0  0  0  0  0  0  0  0  0  0  0  0
  1  2  1  0  0  0  0
  1  6  1  0  0  0  0
  2  3  2  0  0  0  0
  3  4  1  0  0  0  0
  4  5  2  0  0  0  0
  4 10  1  0  0  0  0
  5  6  1  0  0  0  0
  5  8  1  0  0  0  0
  6  7  2  0  0  0  0
  8  9  1  0  0  0  0
  9 10  2  0  0  0  0
M  END
>  <CHROM.1>
11.47081594,11.28147723,6.89270964,0.45959297,-1.31580444,0.97364233

>  <Name>
ligand

>  <RI>
0

>  <Rbt.Current_Directory>
/home/itssahil/PROJECTS/Mol_Feturizer/Test_systems_manuscript/rnas/4fe5

>  <Rbt.Executable>
rbdock ($Id: //depot/dev/client3/rdock/2013.1/src/exe/rbdock.cxx#4 $)

>  <Rbt.Library>
libRbt.so (2013.1, Build901 2013/11/27)

>  <Rbt.Parameter_File>
/export/apps/rDock/src/rDock_2013.1_src/data/scripts/dock_solv.prm

>  <Rbt.Receptor>
prm/pocket_docking_6.prm

>  <SCORE>
-17.4864

>  <SCORE.INTER>
-17.4871

>  <SCORE.INTER.CONST>
1

>  <SCORE.INTER.POLAR>
0

>  <SCORE.INTER.ROT>
0

>  <SCORE.INTER.SOLV>
3.73508

>  <SCORE.INTER.VDW>
-16.5031

>  <SCORE.INTER.norm>
-1.74871

>  <SCORE.INTRA>
0

>  <SCORE.INTRA.DIHEDRAL>
0

>  <SCORE.INTRA.DIHEDRAL.0>
0

>  <SCORE.INTRA.POLAR>
0

>  <SCORE.INTRA.POLAR.0>
0

>  <SCORE.INTRA.REPUL>
0

>  <SCORE.INTRA.REPUL.0>
0

>  <SCORE.INTRA.SOLV>
0

>  <SCORE.INTRA.SOLV.lig_0>
-4.28333

>  <SCORE.INTRA.VDW>
0

>  <SCORE.INTRA.VDW.0>
0

>  <SCORE.INTRA.norm>
0

>  <SCORE.RESTR>
0.000632328

>  <SCORE.RESTR.CAVITY>
0.000632328

>  <SCORE.RESTR.norm>
6.32328e-05

>  <SCORE.SYSTEM>
0

>  <SCORE.SYSTEM.CONST>
0

>  <SCORE.SYSTEM.DIHEDRAL>
0

>  <SCORE.SYSTEM.SOLV>
0

>  <SCORE.SYSTEM.norm>
0

>  <SCORE.heavy>
10

>  <SCORE.norm>
-1.74864

>  <RMSD>
0.460

$$$$
ligand
 OpenBabel02271912143D
libRbt.so/2013.1/901 2013/11/27
 10 11  0  0  0  0  0  0  0  0999 V2000
   11.8309   10.8834    8.7577 N   0  0  0  0  0  0  0  0  0  0  0  0
   11.5545   12.2277    8.8446 C   0  0  0  0  0  0  0  0  0  0  0  0
   11.2394   12.9568    7.7726 N   0  0  0  0  0  0  0  0  0  0  0  0
   11.2235   12.2387    6.6137 C   0  0  0  0  0  0  0  0  0  0  0  0
   11.4919   10.8929    6.4592 C   0  0  0  0  0  0  0  0  0  0  0  0
   11.8271   10.1091    7.5971 C   0  0  0  0  0  0  0  0  0  0  0  0
   12.0982    8.9057    7.6889 O   0  0  0  0  0  0  0  0  0  0  0  0
   11.3661   10.5757    5.1359 N   0  0  0  0  0  0  0  0  0  0  0  0
   11.0222   11.7159    4.4933 C   0  0  0  0  0  0  0  0  0  0  0  0
   10.9267   12.7654    5.3816 N   0  0  0  0  0  0  0  0  0  0  0  0
  1  2  1  0  0  0  0
  1  6  1  0  0  0  0
  2  3  2  0  0  0  0
  3  4  1  0  0  0  0
  4  5  2  0  0  0  0
  4 10  1  0  0  0  0
  5  6  1  0  0  0  0
  5  8  1  0  0  0  0
  6  7  2  0  0  0  0
  8  9  1  0  0  0  0
  9 10  2  0  0  0  0
M  END
>  <CHROM.1>
11.47028567,11.28228417,6.89225555,0.45489050,-1.31550414,0.97119108

>  <Name>
ligand

>  <RI>
0

>  <Rbt.Current_Directory>
/home/itssahil/PROJECTS/Mol_Feturizer/Test_systems_manuscript/rnas/4fe5

>  <Rbt.Executable>
rbdock ($Id: //depot/dev/client3/rdock/2013.1/src/exe/rbdock.cxx#4 $)

>  <Rbt.Library>
libRbt.so (2013.1, Build901 2013/11/27)

>  <Rbt.Parameter_File>
/export/apps/rDock/src/rDock_2013.1_src/data/scripts/dock_solv.prm

>  <Rbt.Receptor>
prm/pocket_docking_6.prm

>  <SCORE>
-17.4875

>  <SCORE.INTER>
-17.4875

>  <SCORE.INTER.CONST>
1

>  <SCORE.INTER.POLAR>
0

>  <SCORE.INTER.ROT>
0

>  <SCORE.INTER.SOLV>
3.73156

>  <SCORE.INTER.VDW>
-16.5022

>  <SCORE.INTER.norm>
-1.74875

>  <SCORE.INTRA>
0

>  <SCORE.INTRA.DIHEDRAL>
0

>  <SCORE.INTRA.DIHEDRAL.0>
0

>  <SCORE.INTRA.POLAR>
0

>  <SCORE.INTRA.POLAR.0>
0

>  <SCORE.INTRA.REPUL>
0

>  <SCORE.INTRA.REPUL.0>
0

>  <SCORE.INTRA.SOLV>
0

>  <SCORE.INTRA.SOLV.lig_0>
-4.28333

>  <SCORE.INTRA.VDW>
0

>  <SCORE.INTRA.VDW.0>
0

>  <SCORE.INTRA.norm>
0

>  <SCORE.RESTR>
0

>  <SCORE.RESTR.CAVITY>
0

>  <SCORE.RESTR.norm>
0

>  <SCORE.SYSTEM>
0

>  <SCORE.SYSTEM.CONST>
0

>  <SCORE.SYSTEM.DIHEDRAL>
0

>  <SCORE.SYSTEM.SOLV>
0

>  <SCORE.SYSTEM.norm>
0

>  <SCORE.heavy>
10

>  <SCORE.norm>
-1.74875

>  <RMSD>
0.460

$$$$
ligand
 OpenBabel02271912143D
libRbt.so/2013.1/901 2013/11/27
 10 11  0  0  0  0  0  0  0  0999 V2000
   11.8314   10.8869    8.7591 N   0  0  0  0  0  0  0  0  0  0  0  0
   11.5561   12.2316    8.8432 C   0  0  0  0  0  0  0  0  0  0  0  0
   11.2399   12.9584    7.7698 N   0  0  0  0  0  0  0  0  0  0  0  0
   11.2220   12.2375    6.6127 C   0  0  0  0  0  0  0  0  0  0  0  0
   11.4892   10.8911    6.4611 C   0  0  0  0  0  0  0  0  0  0  0  0
   11.8254   10.1099    7.6004 C   0  0  0  0  0  0  0  0  0  0  0  0
   12.0958    8.9065    7.6946 O   0  0  0  0  0  0  0  0  0  0  0  0
   11.3612   10.5709    5.1387 N   0  0  0  0  0  0  0  0  0  0  0  0
   11.0172   11.7098    4.4939 C   0  0  0  0  0  0  0  0  0  0  0  0
   10.9237   12.7615    5.3798 N   0  0  0  0  0  0  0  0  0  0  0  0
  1  2  1  0  0  0  0
  1  6  1  0  0  0  0
  2  3  2  0  0  0  0
  3  4  1  0  0  0  0
  4  5  2  0  0  0  0
  4 10  1  0  0  0  0
  5  6  1  0  0  0  0
  5  8  1  0  0  0  0
  6  7  2  0  0  0  0
  8  9  1  0  0  0  0
  9 10  2  0  0  0  0
M  END
>  <CHROM.1>
11.46842182,11.28161794,6.89321757,0.44863805,-1.31526323,0.96275405

>  <Name>
ligand

>  <RI>
0

>  <Rbt.Current_Directory>
/home/itssahil/PROJECTS/Mol_Feturizer/Test_systems_manuscript/rnas/4fe5

>  <Rbt.Executable>
rbdock ($Id: //depot/dev/client3/rdock/2013.1/src/exe/rbdock.cxx#4 $)

>  <Rbt.Library>
libRbt.so (2013.1, Build901 2013/11/27)

>  <Rbt.Parameter_File>
/export/apps/rDock/src/rDock_2013.1_src/data/scripts/dock_solv.prm

>  <Rbt.Receptor>
prm/pocket_docking_6.prm

>  <SCORE>
-17.4879

>  <SCORE.INTER>
-17.4892

>  <SCORE.INTER.CONST>
1

>  <SCORE.INTER.POLAR>
0

>  <SCORE.INTER.ROT>
0

>  <SCORE.INTER.SOLV>
3.7351

>  <SCORE.INTER.VDW>
-16.5045

>  <SCORE.INTER.norm>
-1.74892

>  <SCORE.INTRA>
0

>  <SCORE.INTRA.DIHEDRAL>
0

>  <SCORE.INTRA.DIHEDRAL.0>
0

>  <SCORE.INTRA.POLAR>
0

>  <SCORE.INTRA.POLAR.0>
0

>  <SCORE.INTRA.REPUL>
0

>  <SCORE.INTRA.REPUL.0>
0

>  <SCORE.INTRA.SOLV>
0

>  <SCORE.INTRA.SOLV.lig_0>
-4.28333

>  <SCORE.INTRA.VDW>
0

>  <SCORE.INTRA.VDW.0>
0

>  <SCORE.INTRA.norm>
0

>  <SCORE.RESTR>
0.00124448

>  <SCORE.RESTR.CAVITY>
0.00124448

>  <SCORE.RESTR.norm>
0.000124448

>  <SCORE.SYSTEM>
0

>  <SCORE.SYSTEM.CONST>
0

>  <SCORE.SYSTEM.DIHEDRAL>
0

>  <SCORE.SYSTEM.SOLV>
0

>  <SCORE.SYSTEM.norm>
0

>  <SCORE.heavy>
10

>  <SCORE.norm>
-1.74879

>  <RMSD>
0.460

$$$$
ligand
 OpenBabel02271912143D
libRbt.so/2013.1/901 2013/11/27
 10 11  0  0  0  0  0  0  0  0999 V2000
   11.8206   10.8833    8.7589 N   0  0  0  0  0  0  0  0  0  0  0  0
   11.5393   12.2267    8.8430 C   0  0  0  0  0  0  0  0  0  0  0  0
   11.2300   12.9544    7.7683 N   0  0  0  0  0  0  0  0  0  0  0  0
   11.2253   12.2357    6.6097 C   0  0  0  0  0  0  0  0  0  0  0  0
   11.4991   10.8907    6.4579 C   0  0  0  0  0  0  0  0  0  0  0  0
   11.8281   10.1085    7.5987 C   0  0  0  0  0  0  0  0  0  0  0  0
   12.1023    8.9060    7.6931 O   0  0  0  0  0  0  0  0  0  0  0  0
   11.3843   10.5725    5.1338 N   0  0  0  0  0  0  0  0  0  0  0  0
   11.0417   11.7113    4.4881 C   0  0  0  0  0  0  0  0  0  0  0  0
   10.9362   12.7609    5.3751 N   0  0  0  0  0  0  0  0  0  0  0  0
  1  2  1  0  0  0  0
  1  6  1  0  0  0  0
  2  3  2  0  0  0  0
  3  4  1  0  0  0  0
  4  5  2  0  0  0  0
  4 10  1  0  0  0  0
  5  6  1  0  0  0  0
  5  8  1  0  0  0  0
  6  7  2  0  0  0  0
  8  9  1  0  0  0  0
  9 10  2  0  0  0  0
M  END
>  <CHROM.1>
11.47295070,11.28021553,6.89055339,0.48700124,-1.31704033,1.00179884

>  <Name>
ligand

>  <RI>
0

>  <Rbt.Current_Directory>
/home/itssahil/PROJECTS/Mol_Feturizer/Test_systems_manuscript/rnas/4fe5

>  <Rbt.Executable>
rbdock ($Id: //depot/dev/client3/rdock/2013.1/src/exe/rbdock.cxx#4 $)

>  <Rbt.Library>
libRbt.so (2013.1, Build901 2013/11/27)

>  <Rbt.Parameter_File>
/export/apps/rDock/src/rDock_2013.1_src/data/scripts/dock_solv.prm

>  <Rbt.Receptor>
prm/blind_docking_100.prm

>  <SCORE>
-17.4738

>  <SCORE.INTER>
-17.4738

>  <SCORE.INTER.CONST>
1

>  <SCORE.INTER.POLAR>
0

>  <SCORE.INTER.ROT>
0

>  <SCORE.INTER.SOLV>
3.73635

>  <SCORE.INTER.VDW>
-16.4946

>  <SCORE.INTER.norm>
-1.74738

>  <SCORE.INTRA>
0

>  <SCORE.INTRA.DIHEDRAL>
0

>  <SCORE.INTRA.DIHEDRAL.0>
0

>  <SCORE.INTRA.POLAR>
0

>  <SCORE.INTRA.POLAR.0>
0

>  <SCORE.INTRA.REPUL>
0

>  <SCORE.INTRA.REPUL.0>
0

>  <SCORE.INTRA.SOLV>
0

>  <SCORE.INTRA.SOLV.lig_0>
-4.28333

>  <SCORE.INTRA.VDW>
0

>  <SCORE.INTRA.VDW.0>
0

>  <SCORE.INTRA.norm>
0

>  <SCORE.RESTR>
0

>  <SCORE.RESTR.CAVITY>
0

>  <SCORE.RESTR.norm>
0

>  <SCORE.SYSTEM>
0

>  <SCORE.SYSTEM.CONST>
0

>  <SCORE.SYSTEM.DIHEDRAL>
0

>  <SCORE.SYSTEM.SOLV>
0

>  <SCORE.SYSTEM.norm>
0

>  <SCORE.heavy>
10

>  <SCORE.norm>
-1.74738

>  <RMSD>
0.461

$$$$
ligand
 OpenBabel02271912143D
libRbt.so/2013.1/901 2013/11/27
 10 11  0  0  0  0  0  0  0  0999 V2000
   11.7831   10.9726    8.8206 N   0  0  0  0  0  0  0  0  0  0  0  0
   11.4950   12.3170    8.8451 C   0  0  0  0  0  0  0  0  0  0  0  0
   11.1913   12.9967    7.7378 N   0  0  0  0  0  0  0  0  0  0  0  0
   11.1995   12.2292    6.6109 C   0  0  0  0  0  0  0  0  0  0  0  0
   11.4807   10.8803    6.5188 C   0  0  0  0  0  0  0  0  0  0  0  0
   11.8037   10.1491    7.6946 C   0  0  0  0  0  0  0  0  0  0  0  0
   12.0825    8.9531    7.8424 O   0  0  0  0  0  0  0  0  0  0  0  0
   11.3783   10.5054    5.2086 N   0  0  0  0  0  0  0  0  0  0  0  0
   11.0359   11.6140    4.5122 C   0  0  0  0  0  0  0  0  0  0  0  0
   10.9182   12.6999    5.3527 N   0  0  0  0  0  0  0  0  0  0  0  0
  1  2  1  0  0  0  0
  1  6  1  0  0  0  0
  2  3  2  0  0  0  0
  3  4  1  0  0  0  0
  4  5  2  0  0  0  0
  4 10  1  0  0  0  0
  5  6  1  0  0  0  0
  5  8  1  0  0  0  0
  6  7  2  0  0  0  0
  8  9  1  0  0  0  0
  9 10  2  0  0  0  0
M  END
>  <CHROM.1>
11.44911718,11.28781987,6.93426350,0.52472113,-1.31752572,0.99565441

>  <Name>
ligand

>  <RI>
0

>  <Rbt.Current_Directory>
/home/itssahil/PROJECTS/Mol_Feturizer/Test_systems_manuscript/rnas/4fe5

>  <Rbt.Executable>
rbdock ($Id: //depot/dev/client3/rdock/2013.1/src/exe/rbdock.cxx#4 $)

>  <Rbt.Library>
libRbt.so (2013.1, Build901 2013/11/27)

>  <Rbt.Parameter_File>
/export/apps/rDock/src/rDock_2013.1_src/data/scripts/dock_solv.prm

>  <Rbt.Receptor>
prm/blind_docking_60.prm

>  <SCORE>
-17.3826

>  <SCORE.INTER>
-17.3826

>  <SCORE.INTER.CONST>
1

>  <SCORE.INTER.POLAR>
0

>  <SCORE.INTER.ROT>
0

>  <SCORE.INTER.SOLV>
3.81792

>  <SCORE.INTER.VDW>
-16.461

>  <SCORE.INTER.norm>
-1.73826

>  <SCORE.INTRA>
0

>  <SCORE.INTRA.DIHEDRAL>
0

>  <SCORE.INTRA.DIHEDRAL.0>
0

>  <SCORE.INTRA.POLAR>
0

>  <SCORE.INTRA.POLAR.0>
0

>  <SCORE.INTRA.REPUL>
0

>  <SCORE.INTRA.REPUL.0>
0

>  <SCORE.INTRA.SOLV>
0

>  <SCORE.INTRA.SOLV.lig_0>
-4.28333

>  <SCORE.INTRA.VDW>
0

>  <SCORE.INTRA.VDW.0>
0

>  <SCORE.INTRA.norm>
0

>  <SCORE.RESTR>
0

>  <SCORE.RESTR.CAVITY>
0

>  <SCORE.RESTR.norm>
0

>  <SCORE.SYSTEM>
0

>  <SCORE.SYSTEM.CONST>
0

>  <SCORE.SYSTEM.DIHEDRAL>
0

>  <SCORE.SYSTEM.SOLV>
0

>  <SCORE.SYSTEM.norm>
0

>  <SCORE.heavy>
10

>  <SCORE.norm>
-1.73826

>  <RMSD>
0.461

$$$$
ligand
 OpenBabel02271912143D
libRbt.so/2013.1/901 2013/11/27
 10 11  0  0  0  0  0  0  0  0999 V2000
   11.8288   10.8766    8.7593 N   0  0  0  0  0  0  0  0  0  0  0  0
   11.5640   12.2226    8.8554 C   0  0  0  0  0  0  0  0  0  0  0  0
   11.2553   12.9618    7.7884 N   0  0  0  0  0  0  0  0  0  0  0  0
   11.2337   12.2519    6.6246 C   0  0  0  0  0  0  0  0  0  0  0  0
   11.4906   10.9049    6.4608 C   0  0  0  0  0  0  0  0  0  0  0  0
   11.8187   10.1105    7.5934 C   0  0  0  0  0  0  0  0  0  0  0  0
   12.0794    8.9042    7.6768 O   0  0  0  0  0  0  0  0  0  0  0  0
   11.3623   10.5980    5.1353 N   0  0  0  0  0  0  0  0  0  0  0  0
   11.0284   11.7455    4.5006 C   0  0  0  0  0  0  0  0  0  0  0  0
   10.9417   12.7896    5.3961 N   0  0  0  0  0  0  0  0  0  0  0  0
  1  2  1  0  0  0  0
  1  6  1  0  0  0  0
  2  3  2  0  0  0  0
  3  4  1  0  0  0  0
  4  5  2  0  0  0  0
  4 10  1  0  0  0  0
  5  6  1  0  0  0  0
  5  8  1  0  0  0  0
  6  7  2  0  0  0  0
  8  9  1  0  0  0  0
  9 10  2  0  0  0  0
M  END
>  <CHROM.1>
11.47215102,11.29149890,6.89656345,0.43607084,-1.32267173,0.95989320

>  <Name>
ligand

>  <RI>
0

>  <Rbt.Current_Directory>
/home/itssahil/PROJECTS/Mol_Feturizer/Test_systems_manuscript/rnas/4fe5

>  <Rbt.Executable>
rbdock ($Id: //depot/dev/client3/rdock/2013.1/src/exe/rbdock.cxx#4 $)

>  <Rbt.Library>
libRbt.so (2013.1, Build901 2013/11/27)

>  <Rbt.Parameter_File>
/export/apps/rDock/src/rDock_2013.1_src/data/scripts/dock_solv.prm

>  <Rbt.Receptor>
prm/pocket_docking_5.prm

>  <SCORE>
-17.4627

>  <SCORE.INTER>
-17.4627

>  <SCORE.INTER.CONST>
1

>  <SCORE.INTER.POLAR>
0

>  <SCORE.INTER.ROT>
0

>  <SCORE.INTER.SOLV>
3.74301

>  <SCORE.INTER.VDW>
-16.4894

>  <SCORE.INTER.norm>
-1.74627

>  <SCORE.INTRA>
0

>  <SCORE.INTRA.DIHEDRAL>
0

>  <SCORE.INTRA.DIHEDRAL.0>
0

>  <SCORE.INTRA.POLAR>
0

>  <SCORE.INTRA.POLAR.0>
0

>  <SCORE.INTRA.REPUL>
0

>  <SCORE.INTRA.REPUL.0>
0

>  <SCORE.INTRA.SOLV>
0

>  <SCORE.INTRA.SOLV.lig_0>
-4.28333

>  <SCORE.INTRA.VDW>
0

>  <SCORE.INTRA.VDW.0>
0

>  <SCORE.INTRA.norm>
0

>  <SCORE.RESTR>
0

>  <SCORE.RESTR.CAVITY>
0

>  <SCORE.RESTR.norm>
0

>  <SCORE.SYSTEM>
0

>  <SCORE.SYSTEM.CONST>
0

>  <SCORE.SYSTEM.DIHEDRAL>
0

>  <SCORE.SYSTEM.SOLV>
0

>  <SCORE.SYSTEM.norm>
0

>  <SCORE.heavy>
10

>  <SCORE.norm>
-1.74627

>  <RMSD>
0.461

$$$$
ligand
 OpenBabel02271912143D
libRbt.so/2013.1/901 2013/11/27
 10 11  0  0  0  0  0  0  0  0999 V2000
   11.8330   10.8718    8.7570 N   0  0  0  0  0  0  0  0  0  0  0  0
   11.5707   12.2179    8.8580 C   0  0  0  0  0  0  0  0  0  0  0  0
   11.2602   12.9608    7.7941 N   0  0  0  0  0  0  0  0  0  0  0  0
   11.2339   12.2544    6.6282 C   0  0  0  0  0  0  0  0  0  0  0  0
   11.4880   10.9075    6.4597 C   0  0  0  0  0  0  0  0  0  0  0  0
   11.8181   10.1092    7.5888 C   0  0  0  0  0  0  0  0  0  0  0  0
   12.0771    8.9022    7.6679 O   0  0  0  0  0  0  0  0  0  0  0  0
   11.3554   10.6048    5.1336 N   0  0  0  0  0  0  0  0  0  0  0  0
   11.0215   11.7548    4.5033 C   0  0  0  0  0  0  0  0  0  0  0  0
   10.9392   12.7963    5.4022 N   0  0  0  0  0  0  0  0  0  0  0  0
  1  2  1  0  0  0  0
  1  6  1  0  0  0  0
  2  3  2  0  0  0  0
  3  4  1  0  0  0  0
  4  5  2  0  0  0  0
  4 10  1  0  0  0  0
  5  6  1  0  0  0  0
  5  8  1  0  0  0  0
  6  7  2  0  0  0  0
  8  9  1  0  0  0  0
  9 10  2  0  0  0  0
M  END
>  <CHROM.1>
11.47154944,11.29286475,6.89660761,0.42235258,-1.32235407,0.94958915

>  <Name>
ligand

>  <RI>
0

>  <Rbt.Current_Directory>
/home/itssahil/PROJECTS/Mol_Feturizer/Test_systems_manuscript/rnas/4fe5

>  <Rbt.Executable>
rbdock ($Id: //depot/dev/client3/rdock/2013.1/src/exe/rbdock.cxx#4 $)

>  <Rbt.Library>
libRbt.so (2013.1, Build901 2013/11/27)

>  <Rbt.Parameter_File>
/export/apps/rDock/src/rDock_2013.1_src/data/scripts/dock_solv.prm

>  <Rbt.Receptor>
prm/pocket_docking_8.prm

>  <SCORE>
-17.4565

>  <SCORE.INTER>
-17.4565

>  <SCORE.INTER.CONST>
1

>  <SCORE.INTER.POLAR>
0

>  <SCORE.INTER.ROT>
0

>  <SCORE.INTER.SOLV>
3.73841

>  <SCORE.INTER.VDW>
-16.4838

>  <SCORE.INTER.norm>
-1.74565

>  <SCORE.INTRA>
0

>  <SCORE.INTRA.DIHEDRAL>
0

>  <SCORE.INTRA.DIHEDRAL.0>
0

>  <SCORE.INTRA.POLAR>
0

>  <SCORE.INTRA.POLAR.0>
0

>  <SCORE.INTRA.REPUL>
0

>  <SCORE.INTRA.REPUL.0>
0

>  <SCORE.INTRA.SOLV>
0

>  <SCORE.INTRA.SOLV.lig_0>
-4.28333

>  <SCORE.INTRA.VDW>
0

>  <SCORE.INTRA.VDW.0>
0

>  <SCORE.INTRA.norm>
0

>  <SCORE.RESTR>
0

>  <SCORE.RESTR.CAVITY>
0

>  <SCORE.RESTR.norm>
0

>  <SCORE.SYSTEM>
0

>  <SCORE.SYSTEM.CONST>
0

>  <SCORE.SYSTEM.DIHEDRAL>
0

>  <SCORE.SYSTEM.SOLV>
0

>  <SCORE.SYSTEM.norm>
0

>  <SCORE.heavy>
10

>  <SCORE.norm>
-1.74565

>  <RMSD>
0.461

$$$$
ligand
 OpenBabel02271912143D
libRbt.so/2013.1/901 2013/11/27
 10 11  0  0  0  0  0  0  0  0999 V2000
   11.8255   10.8832    8.7563 N   0  0  0  0  0  0  0  0  0  0  0  0
   11.5471   12.2271    8.8412 C   0  0  0  0  0  0  0  0  0  0  0  0
   11.2338   12.9548    7.7676 N   0  0  0  0  0  0  0  0  0  0  0  0
   11.2221   12.2356    6.6094 C   0  0  0  0  0  0  0  0  0  0  0  0
   11.4927   10.8900    6.4569 C   0  0  0  0  0  0  0  0  0  0  0  0
   11.8258   10.1078    7.5964 C   0  0  0  0  0  0  0  0  0  0  0  0
   12.0983    8.9049    7.6900 O   0  0  0  0  0  0  0  0  0  0  0  0
   11.3708   10.5714    5.1335 N   0  0  0  0  0  0  0  0  0  0  0  0
   11.0271   11.7106    4.4890 C   0  0  0  0  0  0  0  0  0  0  0  0
   10.9279   12.7607    5.3760 N   0  0  0  0  0  0  0  0  0  0  0  0
  1  2  1  0  0  0  0
  1  6  1  0  0  0  0
  2  3  2  0  0  0  0
  3  4  1  0  0  0  0
  4  5  2  0  0  0  0
  4 10  1  0  0  0  0
  5  6  1  0  0  0  0
  5  8  1  0  0  0  0
  6  7  2  0  0  0  0
  8  9  1  0  0  0  0
  9 10  2  0  0  0  0
M  END
>  <CHROM.1>
11.46937559,11.27982558,6.88950504,0.46669654,-1.31589647,0.98167925

>  <Name>
ligand

>  <RI>
0

>  <Rbt.Current_Directory>
/home/itssahil/PROJECTS/Mol_Feturizer/Test_systems_manuscript/rnas/4fe5

>  <Rbt.Executable>
rbdock ($Id: //depot/dev/client3/rdock/2013.1/src/exe/rbdock.cxx#4 $)

>  <Rbt.Library>
libRbt.so (2013.1, Build901 2013/11/27)

>  <Rbt.Parameter_File>
/export/apps/rDock/src/rDock_2013.1_src/data/scripts/dock_solv.prm

>  <Rbt.Receptor>
prm/pocket_docking_4.prm

>  <SCORE>
-17.4837

>  <SCORE.INTER>
-17.4837

>  <SCORE.INTER.CONST>
1

>  <SCORE.INTER.POLAR>
0

>  <SCORE.INTER.ROT>
0

>  <SCORE.INTER.SOLV>
3.73426

>  <SCORE.INTER.VDW>
-16.5006

>  <SCORE.INTER.norm>
-1.74837

>  <SCORE.INTRA>
0

>  <SCORE.INTRA.DIHEDRAL>
0

>  <SCORE.INTRA.DIHEDRAL.0>
0

>  <SCORE.INTRA.POLAR>
0

>  <SCORE.INTRA.POLAR.0>
0

>  <SCORE.INTRA.REPUL>
0

>  <SCORE.INTRA.REPUL.0>
0

>  <SCORE.INTRA.SOLV>
0

>  <SCORE.INTRA.SOLV.lig_0>
-4.28333

>  <SCORE.INTRA.VDW>
0

>  <SCORE.INTRA.VDW.0>
0

>  <SCORE.INTRA.norm>
0

>  <SCORE.RESTR>
0

>  <SCORE.RESTR.CAVITY>
0

>  <SCORE.RESTR.norm>
0

>  <SCORE.SYSTEM>
0

>  <SCORE.SYSTEM.CONST>
0

>  <SCORE.SYSTEM.DIHEDRAL>
0

>  <SCORE.SYSTEM.SOLV>
0

>  <SCORE.SYSTEM.norm>
0

>  <SCORE.heavy>
10

>  <SCORE.norm>
-1.74837

>  <RMSD>
0.462

$$$$
ligand
 OpenBabel02271912143D
libRbt.so/2013.1/901 2013/11/27
 10 11  0  0  0  0  0  0  0  0999 V2000
   11.7495   10.7660    8.7370 N   0  0  0  0  0  0  0  0  0  0  0  0
   11.4269   12.0971    8.8603 C   0  0  0  0  0  0  0  0  0  0  0  0
   11.1132   12.8506    7.8048 N   0  0  0  0  0  0  0  0  0  0  0  0
   11.1483   12.1708    6.6234 C   0  0  0  0  0  0  0  0  0  0  0  0
   11.4645   10.8402    6.4324 C   0  0  0  0  0  0  0  0  0  0  0  0
   11.7985   10.0306    7.5525 C   0  0  0  0  0  0  0  0  0  0  0  0
   12.1069    8.8342    7.6121 O   0  0  0  0  0  0  0  0  0  0  0  0
   11.3803   10.5628    5.0969 N   0  0  0  0  0  0  0  0  0  0  0  0
   11.0142   11.7118    4.4830 C   0  0  0  0  0  0  0  0  0  0  0  0
   10.8633   12.7279    5.4020 N   0  0  0  0  0  0  0  0  0  0  0  0
  1  2  1  0  0  0  0
  1  6  1  0  0  0  0
  2  3  2  0  0  0  0
  3  4  1  0  0  0  0
  4  5  2  0  0  0  0
  4 10  1  0  0  0  0
  5  6  1  0  0  0  0
  5  8  1  0  0  0  0
  6  7  2  0  0  0  0
  8  9  1  0  0  0  0
  9 10  2  0  0  0  0
M  END
>  <CHROM.1>
11.41985183,11.21422972,6.87707962,0.59691646,-1.29889226,1.14085444

>  <Name>
ligand

>  <RI>
0

>  <Rbt.Current_Directory>
/home/itssahil/PROJECTS/Mol_Feturizer/Test_systems_manuscript/rnas/4fe5

>  <Rbt.Executable>
rbdock ($Id: //depot/dev/client3/rdock/2013.1/src/exe/rbdock.cxx#4 $)

>  <Rbt.Library>
libRbt.so (2013.1, Build901 2013/11/27)

>  <Rbt.Parameter_File>
/export/apps/rDock/src/rDock_2013.1_src/data/scripts/dock_solv.prm

>  <Rbt.Receptor>
prm/blind_docking_20.prm

>  <SCORE>
-17.1998

>  <SCORE.INTER>
-17.1998

>  <SCORE.INTER.CONST>
1

>  <SCORE.INTER.POLAR>
0

>  <SCORE.INTER.ROT>
0

>  <SCORE.INTER.SOLV>
3.70397

>  <SCORE.INTER.VDW>
-16.3012

>  <SCORE.INTER.norm>
-1.71998

>  <SCORE.INTRA>
0

>  <SCORE.INTRA.DIHEDRAL>
0

>  <SCORE.INTRA.DIHEDRAL.0>
0

>  <SCORE.INTRA.POLAR>
0

>  <SCORE.INTRA.POLAR.0>
0

>  <SCORE.INTRA.REPUL>
0

>  <SCORE.INTRA.REPUL.0>
0

>  <SCORE.INTRA.SOLV>
0

>  <SCORE.INTRA.SOLV.lig_0>
-4.28333

>  <SCORE.INTRA.VDW>
0

>  <SCORE.INTRA.VDW.0>
0

>  <SCORE.INTRA.norm>
0

>  <SCORE.RESTR>
0

>  <SCORE.RESTR.CAVITY>
0

>  <SCORE.RESTR.norm>
0

>  <SCORE.SYSTEM>
0

>  <SCORE.SYSTEM.CONST>
0

>  <SCORE.SYSTEM.DIHEDRAL>
0

>  <SCORE.SYSTEM.SOLV>
0

>  <SCORE.SYSTEM.norm>
0

>  <SCORE.heavy>
10

>  <SCORE.norm>
-1.71998

>  <RMSD>
0.463

$$$$
ligand
 OpenBabel02271912143D
libRbt.so/2013.1/901 2013/11/27
 10 11  0  0  0  0  0  0  0  0999 V2000
   11.8036   10.8350    8.7518 N   0  0  0  0  0  0  0  0  0  0  0  0
   11.5338   12.1811    8.8312 C   0  0  0  0  0  0  0  0  0  0  0  0
   11.2275   12.9068    7.7543 N   0  0  0  0  0  0  0  0  0  0  0  0
   11.2133   12.1834    6.5987 C   0  0  0  0  0  0  0  0  0  0  0  0
   11.4754   10.8355    6.4518 C   0  0  0  0  0  0  0  0  0  0  0  0
   11.8012   10.0553    7.5949 C   0  0  0  0  0  0  0  0  0  0  0  0
   12.0655    8.8510    7.6935 O   0  0  0  0  0  0  0  0  0  0  0  0
   11.3540   10.5127    5.1294 N   0  0  0  0  0  0  0  0  0  0  0  0
   11.0191   11.6517    4.4799 C   0  0  0  0  0  0  0  0  0  0  0  0
   10.9250   12.7058    5.3629 N   0  0  0  0  0  0  0  0  0  0  0  0
  1  2  1  0  0  0  0
  1  6  1  0  0  0  0
  2  3  2  0  0  0  0
  3  4  1  0  0  0  0
  4  5  2  0  0  0  0
  4 10  1  0  0  0  0
  5  6  1  0  0  0  0
  5  8  1  0  0  0  0
  6  7  2  0  0  0  0
  8  9  1  0  0  0  0
  9 10  2  0  0  0  0
M  END
>  <CHROM.1>
11.45376509,11.22703715,6.88289009,0.45853209,-1.32242514,0.97004698

>  <Name>
ligand

>  <RI>
0

>  <Rbt.Current_Directory>
/home/itssahil/PROJECTS/Mol_Feturizer/Test_systems_manuscript/rnas/4fe5

>  <Rbt.Executable>
rbdock ($Id: //depot/dev/client3/rdock/2013.1/src/exe/rbdock.cxx#4 $)

>  <Rbt.Library>
libRbt.so (2013.1, Build901 2013/11/27)

>  <Rbt.Parameter_File>
/export/apps/rDock/src/rDock_2013.1_src/data/scripts/dock_solv.prm

>  <Rbt.Receptor>
prm/pocket_docking_3.prm

>  <SCORE>
-17.4159

>  <SCORE.INTER>
-17.4159

>  <SCORE.INTER.CONST>
1

>  <SCORE.INTER.POLAR>
0

>  <SCORE.INTER.ROT>
0

>  <SCORE.INTER.SOLV>
3.77344

>  <SCORE.INTER.VDW>
-16.4684

>  <SCORE.INTER.norm>
-1.74159

>  <SCORE.INTRA>
0

>  <SCORE.INTRA.DIHEDRAL>
0

>  <SCORE.INTRA.DIHEDRAL.0>
0

>  <SCORE.INTRA.POLAR>
0

>  <SCORE.INTRA.POLAR.0>
0

>  <SCORE.INTRA.REPUL>
0

>  <SCORE.INTRA.REPUL.0>
0

>  <SCORE.INTRA.SOLV>
0

>  <SCORE.INTRA.SOLV.lig_0>
-4.28333

>  <SCORE.INTRA.VDW>
0

>  <SCORE.INTRA.VDW.0>
0

>  <SCORE.INTRA.norm>
0

>  <SCORE.RESTR>
0

>  <SCORE.RESTR.CAVITY>
0

>  <SCORE.RESTR.norm>
0

>  <SCORE.SYSTEM>
0

>  <SCORE.SYSTEM.CONST>
0

>  <SCORE.SYSTEM.DIHEDRAL>
0

>  <SCORE.SYSTEM.SOLV>
0

>  <SCORE.SYSTEM.norm>
0

>  <SCORE.heavy>
10

>  <SCORE.norm>
-1.74159

>  <RMSD>
0.463

$$$$
ligand
 OpenBabel02271912143D
libRbt.so/2013.1/901 2013/11/27
 10 11  0  0  0  0  0  0  0  0999 V2000
   11.8032   10.8832    8.7627 N   0  0  0  0  0  0  0  0  0  0  0  0
   11.5182   12.2256    8.8511 C   0  0  0  0  0  0  0  0  0  0  0  0
   11.2113   12.9567    7.7781 N   0  0  0  0  0  0  0  0  0  0  0  0
   11.2130   12.2427    6.6166 C   0  0  0  0  0  0  0  0  0  0  0  0
   11.4908   10.8990    6.4605 C   0  0  0  0  0  0  0  0  0  0  0  0
   11.8172   10.1131    7.5994 C   0  0  0  0  0  0  0  0  0  0  0  0
   12.0940    8.9109    7.6901 O   0  0  0  0  0  0  0  0  0  0  0  0
   11.3820   10.5858    5.1347 N   0  0  0  0  0  0  0  0  0  0  0  0
   11.0390   11.7264    4.4922 C   0  0  0  0  0  0  0  0  0  0  0  0
   10.9274   12.7721    5.3830 N   0  0  0  0  0  0  0  0  0  0  0  0
  1  2  1  0  0  0  0
  1  6  1  0  0  0  0
  2  3  2  0  0  0  0
  3  4  1  0  0  0  0
  4  5  2  0  0  0  0
  4 10  1  0  0  0  0
  5  6  1  0  0  0  0
  5  8  1  0  0  0  0
  6  7  2  0  0  0  0
  8  9  1  0  0  0  0
  9 10  2  0  0  0  0
M  END
>  <CHROM.1>
11.46189119,11.28671842,6.89462304,0.50560640,-1.31701667,1.02382133

>  <Name>
ligand

>  <RI>
0

>  <Rbt.Current_Directory>
/home/itssahil/PROJECTS/Mol_Feturizer/Test_systems_manuscript/rnas/4fe5

>  <Rbt.Executable>
rbdock ($Id: //depot/dev/client3/rdock/2013.1/src/exe/rbdock.cxx#4 $)

>  <Rbt.Library>
libRbt.so (2013.1, Build901 2013/11/27)

>  <Rbt.Parameter_File>
/export/apps/rDock/src/rDock_2013.1_src/data/scripts/dock_solv.prm

>  <Rbt.Receptor>
prm/pocket_docking_5.prm

>  <SCORE>
-17.441

>  <SCORE.INTER>
-17.441

>  <SCORE.INTER.CONST>
1

>  <SCORE.INTER.POLAR>
0

>  <SCORE.INTER.ROT>
0

>  <SCORE.INTER.SOLV>
3.74175

>  <SCORE.INTER.VDW>
-16.4746

>  <SCORE.INTER.norm>
-1.7441

>  <SCORE.INTRA>
0

>  <SCORE.INTRA.DIHEDRAL>
0

>  <SCORE.INTRA.DIHEDRAL.0>
0

>  <SCORE.INTRA.POLAR>
0

>  <SCORE.INTRA.POLAR.0>
0

>  <SCORE.INTRA.REPUL>
0

>  <SCORE.INTRA.REPUL.0>
0

>  <SCORE.INTRA.SOLV>
0

>  <SCORE.INTRA.SOLV.lig_0>
-4.28333

>  <SCORE.INTRA.VDW>
0

>  <SCORE.INTRA.VDW.0>
0

>  <SCORE.INTRA.norm>
0

>  <SCORE.RESTR>
0

>  <SCORE.RESTR.CAVITY>
0

>  <SCORE.RESTR.norm>
0

>  <SCORE.SYSTEM>
0

>  <SCORE.SYSTEM.CONST>
0

>  <SCORE.SYSTEM.DIHEDRAL>
0

>  <SCORE.SYSTEM.SOLV>
0

>  <SCORE.SYSTEM.norm>
0

>  <SCORE.heavy>
10

>  <SCORE.norm>
-1.7441

>  <RMSD>
0.463

$$$$
ligand
 OpenBabel02271912143D
libRbt.so/2013.1/901 2013/11/27
 10 11  0  0  0  0  0  0  0  0999 V2000
   11.8188   10.9635    8.7873 N   0  0  0  0  0  0  0  0  0  0  0  0
   11.5223   12.3053    8.8396 C   0  0  0  0  0  0  0  0  0  0  0  0
   11.1989   13.0023    7.7489 N   0  0  0  0  0  0  0  0  0  0  0  0
   11.1964   12.2550    6.6085 C   0  0  0  0  0  0  0  0  0  0  0  0
   11.4851   10.9099    6.4886 C   0  0  0  0  0  0  0  0  0  0  0  0
   11.8292   10.1602    7.6467 C   0  0  0  0  0  0  0  0  0  0  0  0
   12.1179    8.9637    7.7694 O   0  0  0  0  0  0  0  0  0  0  0  0
   11.3670   10.5575    5.1736 N   0  0  0  0  0  0  0  0  0  0  0  0
   11.0078   11.6759    4.5017 C   0  0  0  0  0  0  0  0  0  0  0  0
   10.8947   12.7459    5.3629 N   0  0  0  0  0  0  0  0  0  0  0  0
  1  2  1  0  0  0  0
  1  6  1  0  0  0  0
  2  3  2  0  0  0  0
  3  4  1  0  0  0  0
  4  5  2  0  0  0  0
  4 10  1  0  0  0  0
  5  6  1  0  0  0  0
  5  8  1  0  0  0  0
  6  7  2  0  0  0  0
  8  9  1  0  0  0  0
  9 10  2  0  0  0  0
M  END
>  <CHROM.1>
11.45669357,11.30973388,6.91166041,0.49398734,-1.30435924,0.98367727

>  <Name>
ligand

>  <RI>
0

>  <Rbt.Current_Directory>
/home/itssahil/PROJECTS/Mol_Feturizer/Test_systems_manuscript/rnas/4fe5

>  <Rbt.Executable>
rbdock ($Id: //depot/dev/client3/rdock/2013.1/src/exe/rbdock.cxx#4 $)

>  <Rbt.Library>
libRbt.so (2013.1, Build901 2013/11/27)

>  <Rbt.Parameter_File>
/export/apps/rDock/src/rDock_2013.1_src/data/scripts/dock_solv.prm

>  <Rbt.Receptor>
prm/blind_docking_80.prm

>  <SCORE>
-17.4485

>  <SCORE.INTER>
-17.4485

>  <SCORE.INTER.CONST>
1

>  <SCORE.INTER.POLAR>
0

>  <SCORE.INTER.ROT>
0

>  <SCORE.INTER.SOLV>
3.73899

>  <SCORE.INTER.VDW>
-16.4787

>  <SCORE.INTER.norm>
-1.74485

>  <SCORE.INTRA>
0

>  <SCORE.INTRA.DIHEDRAL>
0

>  <SCORE.INTRA.DIHEDRAL.0>
0

>  <SCORE.INTRA.POLAR>
0

>  <SCORE.INTRA.POLAR.0>
0

>  <SCORE.INTRA.REPUL>
0

>  <SCORE.INTRA.REPUL.0>
0

>  <SCORE.INTRA.SOLV>
0

>  <SCORE.INTRA.SOLV.lig_0>
-4.28333

>  <SCORE.INTRA.VDW>
0

>  <SCORE.INTRA.VDW.0>
0

>  <SCORE.INTRA.norm>
0

>  <SCORE.RESTR>
0

>  <SCORE.RESTR.CAVITY>
0

>  <SCORE.RESTR.norm>
0

>  <SCORE.SYSTEM>
0

>  <SCORE.SYSTEM.CONST>
0

>  <SCORE.SYSTEM.DIHEDRAL>
0

>  <SCORE.SYSTEM.SOLV>
0

>  <SCORE.SYSTEM.norm>
0

>  <SCORE.heavy>
10

>  <SCORE.norm>
-1.74485

>  <RMSD>
0.464

$$$$
ligand
 OpenBabel02271912143D
libRbt.so/2013.1/901 2013/11/27
 10 11  0  0  0  0  0  0  0  0999 V2000
   11.8609   10.8505    8.7301 N   0  0  0  0  0  0  0  0  0  0  0  0
   11.5966   12.1954    8.8421 C   0  0  0  0  0  0  0  0  0  0  0  0
   11.2714   12.9437    7.7864 N   0  0  0  0  0  0  0  0  0  0  0  0
   11.2325   12.2440    6.6168 C   0  0  0  0  0  0  0  0  0  0  0  0
   11.4878   10.8987    6.4373 C   0  0  0  0  0  0  0  0  0  0  0  0
   11.8336   10.0946    7.5577 C   0  0  0  0  0  0  0  0  0  0  0  0
   12.0964    8.8879    7.6266 O   0  0  0  0  0  0  0  0  0  0  0  0
   11.3397   10.6033    5.1113 N   0  0  0  0  0  0  0  0  0  0  0  0
   10.9954   11.7562    4.4918 C   0  0  0  0  0  0  0  0  0  0  0  0
   10.9216   12.7922    5.3977 N   0  0  0  0  0  0  0  0  0  0  0  0
  1  2  1  0  0  0  0
  1  6  1  0  0  0  0
  2  3  2  0  0  0  0
  3  4  1  0  0  0  0
  4  5  2  0  0  0  0
  4 10  1  0  0  0  0
  5  6  1  0  0  0  0
  5  8  1  0  0  0  0
  6  7  2  0  0  0  0
  8  9  1  0  0  0  0
  9 10  2  0  0  0  0
M  END
>  <CHROM.1>
11.47576390,11.28146232,6.87668922,0.38884022,-1.31314669,0.92295156

>  <Name>
ligand

>  <RI>
0

>  <Rbt.Current_Directory>
/home/itssahil/PROJECTS/Mol_Feturizer/Test_systems_manuscript/rnas/4fe5

>  <Rbt.Executable>
rbdock ($Id: //depot/dev/client3/rdock/2013.1/src/exe/rbdock.cxx#4 $)

>  <Rbt.Library>
libRbt.so (2013.1, Build901 2013/11/27)

>  <Rbt.Parameter_File>
/export/apps/rDock/src/rDock_2013.1_src/data/scripts/dock_solv.prm

>  <Rbt.Receptor>
prm/blind_docking_40.prm

>  <SCORE>
-17.4115

>  <SCORE.INTER>
-17.4144

>  <SCORE.INTER.CONST>
1

>  <SCORE.INTER.POLAR>
0

>  <SCORE.INTER.ROT>
0

>  <SCORE.INTER.SOLV>
3.69472

>  <SCORE.INTER.VDW>
-16.4412

>  <SCORE.INTER.norm>
-1.74144

>  <SCORE.INTRA>
0

>  <SCORE.INTRA.DIHEDRAL>
0

>  <SCORE.INTRA.DIHEDRAL.0>
0

>  <SCORE.INTRA.POLAR>
0

>  <SCORE.INTRA.POLAR.0>
0

>  <SCORE.INTRA.REPUL>
0

>  <SCORE.INTRA.REPUL.0>
0

>  <SCORE.INTRA.SOLV>
0

>  <SCORE.INTRA.SOLV.lig_0>
-4.28333

>  <SCORE.INTRA.VDW>
0

>  <SCORE.INTRA.VDW.0>
0

>  <SCORE.INTRA.norm>
0

>  <SCORE.RESTR>
0.00288574

>  <SCORE.RESTR.CAVITY>
0.00288574

>  <SCORE.RESTR.norm>
0.000288574

>  <SCORE.SYSTEM>
0

>  <SCORE.SYSTEM.CONST>
0

>  <SCORE.SYSTEM.DIHEDRAL>
0

>  <SCORE.SYSTEM.SOLV>
0

>  <SCORE.SYSTEM.norm>
0

>  <SCORE.heavy>
10

>  <SCORE.norm>
-1.74115

>  <RMSD>
0.465

$$$$
ligand
 OpenBabel02271912143D
libRbt.so/2013.1/901 2013/11/27
 10 11  0  0  0  0  0  0  0  0999 V2000
   11.8374   10.8060    8.7245 N   0  0  0  0  0  0  0  0  0  0  0  0
   11.5678   12.1510    8.8200 C   0  0  0  0  0  0  0  0  0  0  0  0
   11.2519   12.8876    7.7533 N   0  0  0  0  0  0  0  0  0  0  0  0
   11.2279   12.1761    6.5905 C   0  0  0  0  0  0  0  0  0  0  0  0
   11.4892   10.8299    6.4275 C   0  0  0  0  0  0  0  0  0  0  0  0
   11.8251   10.0382    7.5597 C   0  0  0  0  0  0  0  0  0  0  0  0
   12.0908    8.8330    7.6436 O   0  0  0  0  0  0  0  0  0  0  0  0
   11.3565   10.5207    5.1030 N   0  0  0  0  0  0  0  0  0  0  0  0
   11.0155   11.6661    4.4681 C   0  0  0  0  0  0  0  0  0  0  0  0
   10.9287   12.7111    5.3626 N   0  0  0  0  0  0  0  0  0  0  0  0
  1  2  1  0  0  0  0
  1  6  1  0  0  0  0
  2  3  2  0  0  0  0
  3  4  1  0  0  0  0
  4  5  2  0  0  0  0
  4 10  1  0  0  0  0
  5  6  1  0  0  0  0
  5  8  1  0  0  0  0
  6  7  2  0  0  0  0
  8  9  1  0  0  0  0
  9 10  2  0  0  0  0
M  END
>  <CHROM.1>
11.47118255,11.21698507,6.86277718,0.43079301,-1.31714829,0.95344599

>  <Name>
ligand

>  <RI>
0

>  <Rbt.Current_Directory>
/home/itssahil/PROJECTS/Mol_Feturizer/Test_systems_manuscript/rnas/4fe5

>  <Rbt.Executable>
rbdock ($Id: //depot/dev/client3/rdock/2013.1/src/exe/rbdock.cxx#4 $)

>  <Rbt.Library>
libRbt.so (2013.1, Build901 2013/11/27)

>  <Rbt.Parameter_File>
/export/apps/rDock/src/rDock_2013.1_src/data/scripts/dock_solv.prm

>  <Rbt.Receptor>
prm/pocket_docking_6.prm

>  <SCORE>
-17.4082

>  <SCORE.INTER>
-17.4082

>  <SCORE.INTER.CONST>
1

>  <SCORE.INTER.POLAR>
0

>  <SCORE.INTER.ROT>
0

>  <SCORE.INTER.SOLV>
3.72459

>  <SCORE.INTER.VDW>
-16.447

>  <SCORE.INTER.norm>
-1.74082

>  <SCORE.INTRA>
0

>  <SCORE.INTRA.DIHEDRAL>
0

>  <SCORE.INTRA.DIHEDRAL.0>
0

>  <SCORE.INTRA.POLAR>
0

>  <SCORE.INTRA.POLAR.0>
0

>  <SCORE.INTRA.REPUL>
0

>  <SCORE.INTRA.REPUL.0>
0

>  <SCORE.INTRA.SOLV>
0

>  <SCORE.INTRA.SOLV.lig_0>
-4.28333

>  <SCORE.INTRA.VDW>
0

>  <SCORE.INTRA.VDW.0>
0

>  <SCORE.INTRA.norm>
0

>  <SCORE.RESTR>
0

>  <SCORE.RESTR.CAVITY>
0

>  <SCORE.RESTR.norm>
0

>  <SCORE.SYSTEM>
0

>  <SCORE.SYSTEM.CONST>
0

>  <SCORE.SYSTEM.DIHEDRAL>
0

>  <SCORE.SYSTEM.SOLV>
0

>  <SCORE.SYSTEM.norm>
0

>  <SCORE.heavy>
10

>  <SCORE.norm>
-1.74082

>  <RMSD>
0.465

$$$$
ligand
 OpenBabel02271912143D
libRbt.so/2013.1/901 2013/11/27
 10 11  0  0  0  0  0  0  0  0999 V2000
   11.7754   10.9517    8.8103 N   0  0  0  0  0  0  0  0  0  0  0  0
   11.5009   12.2987    8.8464 C   0  0  0  0  0  0  0  0  0  0  0  0
   11.2003   12.9901    7.7456 N   0  0  0  0  0  0  0  0  0  0  0  0
   11.1967   12.2315    6.6127 C   0  0  0  0  0  0  0  0  0  0  0  0
   11.4640   10.8806    6.5090 C   0  0  0  0  0  0  0  0  0  0  0  0
   11.7837   10.1369    7.6778 C   0  0  0  0  0  0  0  0  0  0  0  0
   12.0510    8.9371    7.8152 O   0  0  0  0  0  0  0  0  0  0  0  0
   11.3532   10.5171    5.1963 N   0  0  0  0  0  0  0  0  0  0  0  0
   11.0196   11.6346    4.5098 C   0  0  0  0  0  0  0  0  0  0  0  0
   10.9158   12.7149    5.3593 N   0  0  0  0  0  0  0  0  0  0  0  0
  1  2  1  0  0  0  0
  1  6  1  0  0  0  0
  2  3  2  0  0  0  0
  3  4  1  0  0  0  0
  4  5  2  0  0  0  0
  4 10  1  0  0  0  0
  5  6  1  0  0  0  0
  5  8  1  0  0  0  0
  6  7  2  0  0  0  0
  8  9  1  0  0  0  0
  9 10  2  0  0  0  0
M  END
>  <CHROM.1>
11.43798826,11.28513279,6.92773960,0.49019563,-1.32393812,0.97008319

>  <Name>
ligand

>  <RI>
0

>  <Rbt.Current_Directory>
/home/itssahil/PROJECTS/Mol_Feturizer/Test_systems_manuscript/rnas/4fe5

>  <Rbt.Executable>
rbdock ($Id: //depot/dev/client3/rdock/2013.1/src/exe/rbdock.cxx#4 $)

>  <Rbt.Library>
libRbt.so (2013.1, Build901 2013/11/27)

>  <Rbt.Parameter_File>
/export/apps/rDock/src/rDock_2013.1_src/data/scripts/dock_solv.prm

>  <Rbt.Receptor>
prm/pocket_docking_6.prm

>  <SCORE>
-17.3703

>  <SCORE.INTER>
-17.3703

>  <SCORE.INTER.CONST>
1

>  <SCORE.INTER.POLAR>
0

>  <SCORE.INTER.ROT>
0

>  <SCORE.INTER.SOLV>
3.8336

>  <SCORE.INTER.VDW>
-16.4581

>  <SCORE.INTER.norm>
-1.73703

>  <SCORE.INTRA>
0

>  <SCORE.INTRA.DIHEDRAL>
0

>  <SCORE.INTRA.DIHEDRAL.0>
0

>  <SCORE.INTRA.POLAR>
0

>  <SCORE.INTRA.POLAR.0>
0

>  <SCORE.INTRA.REPUL>
0

>  <SCORE.INTRA.REPUL.0>
0

>  <SCORE.INTRA.SOLV>
0

>  <SCORE.INTRA.SOLV.lig_0>
-4.28333

>  <SCORE.INTRA.VDW>
0

>  <SCORE.INTRA.VDW.0>
0

>  <SCORE.INTRA.norm>
0

>  <SCORE.RESTR>
0

>  <SCORE.RESTR.CAVITY>
0

>  <SCORE.RESTR.norm>
0

>  <SCORE.SYSTEM>
0

>  <SCORE.SYSTEM.CONST>
0

>  <SCORE.SYSTEM.DIHEDRAL>
0

>  <SCORE.SYSTEM.SOLV>
0

>  <SCORE.SYSTEM.norm>
0

>  <SCORE.heavy>
10

>  <SCORE.norm>
-1.73703

>  <RMSD>
0.466

$$$$
ligand
 OpenBabel02271912143D
libRbt.so/2013.1/901 2013/11/27
 10 11  0  0  0  0  0  0  0  0999 V2000
   11.8164   10.9624    8.7822 N   0  0  0  0  0  0  0  0  0  0  0  0
   11.5084   12.3018    8.8268 C   0  0  0  0  0  0  0  0  0  0  0  0
   11.1887   12.9920    7.7307 N   0  0  0  0  0  0  0  0  0  0  0  0
   11.2023   12.2404    6.5932 C   0  0  0  0  0  0  0  0  0  0  0  0
   11.5031   10.8973    6.4810 C   0  0  0  0  0  0  0  0  0  0  0  0
   11.8434   10.1549    7.6448 C   0  0  0  0  0  0  0  0  0  0  0  0
   12.1409    8.9613    7.7746 O   0  0  0  0  0  0  0  0  0  0  0  0
   11.3994   10.5390    5.1663 N   0  0  0  0  0  0  0  0  0  0  0  0
   11.0367   11.6518    4.4870 C   0  0  0  0  0  0  0  0  0  0  0  0
   10.9073   12.7241    5.3432 N   0  0  0  0  0  0  0  0  0  0  0  0
  1  2  1  0  0  0  0
  1  6  1  0  0  0  0
  2  3  2  0  0  0  0
  3  4  1  0  0  0  0
  4  5  2  0  0  0  0
  4 10  1  0  0  0  0
  5  6  1  0  0  0  0
  5  8  1  0  0  0  0
  6  7  2  0  0  0  0
  8  9  1  0  0  0  0
  9 10  2  0  0  0  0
M  END
>  <CHROM.1>
11.46772944,11.29848866,6.90219999,0.53848676,-1.30201874,1.02279969

>  <Name>
ligand

>  <RI>
0

>  <Rbt.Current_Directory>
/home/itssahil/PROJECTS/Mol_Feturizer/Test_systems_manuscript/rnas/4fe5

>  <Rbt.Executable>
rbdock ($Id: //depot/dev/client3/rdock/2013.1/src/exe/rbdock.cxx#4 $)

>  <Rbt.Library>
libRbt.so (2013.1, Build901 2013/11/27)

>  <Rbt.Parameter_File>
/export/apps/rDock/src/rDock_2013.1_src/data/scripts/dock_solv.prm

>  <Rbt.Receptor>
prm/pocket_docking_8.prm

>  <SCORE>
-17.4053

>  <SCORE.INTER>
-17.4053

>  <SCORE.INTER.CONST>
1

>  <SCORE.INTER.POLAR>
0

>  <SCORE.INTER.ROT>
0

>  <SCORE.INTER.SOLV>
3.72911

>  <SCORE.INTER.VDW>
-16.4466

>  <SCORE.INTER.norm>
-1.74053

>  <SCORE.INTRA>
0

>  <SCORE.INTRA.DIHEDRAL>
0

>  <SCORE.INTRA.DIHEDRAL.0>
0

>  <SCORE.INTRA.POLAR>
0

>  <SCORE.INTRA.POLAR.0>
0

>  <SCORE.INTRA.REPUL>
0

>  <SCORE.INTRA.REPUL.0>
0

>  <SCORE.INTRA.SOLV>
0

>  <SCORE.INTRA.SOLV.lig_0>
-4.28333

>  <SCORE.INTRA.VDW>
0

>  <SCORE.INTRA.VDW.0>
0

>  <SCORE.INTRA.norm>
0

>  <SCORE.RESTR>
3.44237e-06

>  <SCORE.RESTR.CAVITY>
3.44237e-06

>  <SCORE.RESTR.norm>
3.44237e-07

>  <SCORE.SYSTEM>
0

>  <SCORE.SYSTEM.CONST>
0

>  <SCORE.SYSTEM.DIHEDRAL>
0

>  <SCORE.SYSTEM.SOLV>
0

>  <SCORE.SYSTEM.norm>
0

>  <SCORE.heavy>
10

>  <SCORE.norm>
-1.74053

>  <RMSD>
0.466

$$$$
ligand
 OpenBabel02271912143D
libRbt.so/2013.1/901 2013/11/27
 10 11  0  0  0  0  0  0  0  0999 V2000
   11.8144   10.8703    8.7556 N   0  0  0  0  0  0  0  0  0  0  0  0
   11.5506   12.2167    8.8485 C   0  0  0  0  0  0  0  0  0  0  0  0
   11.2481   12.9547    7.7788 N   0  0  0  0  0  0  0  0  0  0  0  0
   11.2312   12.2430    6.6160 C   0  0  0  0  0  0  0  0  0  0  0  0
   11.4874   10.8955    6.4555 C   0  0  0  0  0  0  0  0  0  0  0  0
   11.8090   10.1024    7.5908 C   0  0  0  0  0  0  0  0  0  0  0  0
   12.0680    8.8960    7.6773 O   0  0  0  0  0  0  0  0  0  0  0  0
   11.3652   10.5868    5.1299 N   0  0  0  0  0  0  0  0  0  0  0  0
   11.0357   11.7337    4.4918 C   0  0  0  0  0  0  0  0  0  0  0  0
   10.9459   12.7793    5.3853 N   0  0  0  0  0  0  0  0  0  0  0  0
  1  2  1  0  0  0  0
  1  6  1  0  0  0  0
  2  3  2  0  0  0  0
  3  4  1  0  0  0  0
  4  5  2  0  0  0  0
  4 10  1  0  0  0  0
  5  6  1  0  0  0  0
  5  8  1  0  0  0  0
  6  7  2  0  0  0  0
  8  9  1  0  0  0  0
  9 10  2  0  0  0  0
M  END
>  <CHROM.1>
11.46726601,11.28280186,6.89055083,0.44984427,-1.32640856,0.97175161

>  <Name>
ligand

>  <RI>
0

>  <Rbt.Current_Directory>
/home/itssahil/PROJECTS/Mol_Feturizer/Test_systems_manuscript/rnas/4fe5

>  <Rbt.Executable>
rbdock ($Id: //depot/dev/client3/rdock/2013.1/src/exe/rbdock.cxx#4 $)

>  <Rbt.Library>
libRbt.so (2013.1, Build901 2013/11/27)

>  <Rbt.Parameter_File>
/export/apps/rDock/src/rDock_2013.1_src/data/scripts/dock_solv.prm

>  <Rbt.Receptor>
prm/blind_docking_60.prm

>  <SCORE>
-17.4575

>  <SCORE.INTER>
-17.4575

>  <SCORE.INTER.CONST>
1

>  <SCORE.INTER.POLAR>
0

>  <SCORE.INTER.ROT>
0

>  <SCORE.INTER.SOLV>
3.75918

>  <SCORE.INTER.VDW>
-16.4914

>  <SCORE.INTER.norm>
-1.74575

>  <SCORE.INTRA>
0

>  <SCORE.INTRA.DIHEDRAL>
0

>  <SCORE.INTRA.DIHEDRAL.0>
0

>  <SCORE.INTRA.POLAR>
0

>  <SCORE.INTRA.POLAR.0>
0

>  <SCORE.INTRA.REPUL>
0

>  <SCORE.INTRA.REPUL.0>
0

>  <SCORE.INTRA.SOLV>
0

>  <SCORE.INTRA.SOLV.lig_0>
-4.28333

>  <SCORE.INTRA.VDW>
0

>  <SCORE.INTRA.VDW.0>
0

>  <SCORE.INTRA.norm>
0

>  <SCORE.RESTR>
0

>  <SCORE.RESTR.CAVITY>
0

>  <SCORE.RESTR.norm>
0

>  <SCORE.SYSTEM>
0

>  <SCORE.SYSTEM.CONST>
0

>  <SCORE.SYSTEM.DIHEDRAL>
0

>  <SCORE.SYSTEM.SOLV>
0

>  <SCORE.SYSTEM.norm>
0

>  <SCORE.heavy>
10

>  <SCORE.norm>
-1.74575

>  <RMSD>
0.467

$$$$
ligand
 OpenBabel02271912143D
libRbt.so/2013.1/901 2013/11/27
 10 11  0  0  0  0  0  0  0  0999 V2000
   11.8249   10.8755    8.7567 N   0  0  0  0  0  0  0  0  0  0  0  0
   11.5673   12.2224    8.8582 C   0  0  0  0  0  0  0  0  0  0  0  0
   11.2615   12.9672    7.7942 N   0  0  0  0  0  0  0  0  0  0  0  0
   11.2350   12.2618    6.6278 C   0  0  0  0  0  0  0  0  0  0  0  0
   11.4847   10.9141    6.4587 C   0  0  0  0  0  0  0  0  0  0  0  0
   11.8097   10.1137    7.5880 C   0  0  0  0  0  0  0  0  0  0  0  0
   12.0641    8.9058    7.6667 O   0  0  0  0  0  0  0  0  0  0  0  0
   11.3536   10.6129    5.1322 N   0  0  0  0  0  0  0  0  0  0  0  0
   11.0251   11.7645    4.5021 C   0  0  0  0  0  0  0  0  0  0  0  0
   10.9447   12.8057    5.4016 N   0  0  0  0  0  0  0  0  0  0  0  0
  1  2  1  0  0  0  0
  1  6  1  0  0  0  0
  2  3  2  0  0  0  0
  3  4  1  0  0  0  0
  4  5  2  0  0  0  0
  4 10  1  0  0  0  0
  5  6  1  0  0  0  0
  5  8  1  0  0  0  0
  6  7  2  0  0  0  0
  8  9  1  0  0  0  0
  9 10  2  0  0  0  0
M  END
>  <CHROM.1>
11.46869743,11.29919027,6.89593805,0.42040131,-1.32643263,0.94844317

>  <Name>
ligand

>  <RI>
0

>  <Rbt.Current_Directory>
/home/itssahil/PROJECTS/Mol_Feturizer/Test_systems_manuscript/rnas/4fe5

>  <Rbt.Executable>
rbdock ($Id: //depot/dev/client3/rdock/2013.1/src/exe/rbdock.cxx#4 $)

>  <Rbt.Library>
libRbt.so (2013.1, Build901 2013/11/27)

>  <Rbt.Parameter_File>
/export/apps/rDock/src/rDock_2013.1_src/data/scripts/dock_solv.prm

>  <Rbt.Receptor>
prm/blind_docking_80.prm

>  <SCORE>
-17.4816

>  <SCORE.INTER>
-17.4822

>  <SCORE.INTER.CONST>
1

>  <SCORE.INTER.POLAR>
0

>  <SCORE.INTER.ROT>
0

>  <SCORE.INTER.SOLV>
3.75033

>  <SCORE.INTER.VDW>
-16.5049

>  <SCORE.INTER.norm>
-1.74822

>  <SCORE.INTRA>
0

>  <SCORE.INTRA.DIHEDRAL>
0

>  <SCORE.INTRA.DIHEDRAL.0>
0

>  <SCORE.INTRA.POLAR>
0

>  <SCORE.INTRA.POLAR.0>
0

>  <SCORE.INTRA.REPUL>
0

>  <SCORE.INTRA.REPUL.0>
0

>  <SCORE.INTRA.SOLV>
0

>  <SCORE.INTRA.SOLV.lig_0>
-4.28333

>  <SCORE.INTRA.VDW>
0

>  <SCORE.INTRA.VDW.0>
0

>  <SCORE.INTRA.norm>
0

>  <SCORE.RESTR>
0.000579122

>  <SCORE.RESTR.CAVITY>
0.000579122

>  <SCORE.RESTR.norm>
5.79122e-05

>  <SCORE.SYSTEM>
0

>  <SCORE.SYSTEM.CONST>
0

>  <SCORE.SYSTEM.DIHEDRAL>
0

>  <SCORE.SYSTEM.SOLV>
0

>  <SCORE.SYSTEM.norm>
0

>  <SCORE.heavy>
10

>  <SCORE.norm>
-1.74816

>  <RMSD>
0.467

$$$$
ligand
 OpenBabel02271912143D
libRbt.so/2013.1/901 2013/11/27
 10 11  0  0  0  0  0  0  0  0999 V2000
   11.8174   10.9621    8.7824 N   0  0  0  0  0  0  0  0  0  0  0  0
   11.5178   12.3031    8.8346 C   0  0  0  0  0  0  0  0  0  0  0  0
   11.1948   12.9997    7.7434 N   0  0  0  0  0  0  0  0  0  0  0  0
   11.1963   12.2528    6.6028 C   0  0  0  0  0  0  0  0  0  0  0  0
   11.4883   10.9083    6.4831 C   0  0  0  0  0  0  0  0  0  0  0  0
   11.8319   10.1591    7.6416 C   0  0  0  0  0  0  0  0  0  0  0  0
   12.1231    8.9632    7.7644 O   0  0  0  0  0  0  0  0  0  0  0  0
   11.3736   10.5561    5.1677 N   0  0  0  0  0  0  0  0  0  0  0  0
   11.0131   11.6739    4.4954 C   0  0  0  0  0  0  0  0  0  0  0  0
   10.8959   12.7434    5.3568 N   0  0  0  0  0  0  0  0  0  0  0  0
  1  2  1  0  0  0  0
  1  6  1  0  0  0  0
  2  3  2  0  0  0  0
  3  4  1  0  0  0  0
  4  5  2  0  0  0  0
  4 10  1  0  0  0  0
  5  6  1  0  0  0  0
  5  8  1  0  0  0  0
  6  7  2  0  0  0  0
  8  9  1  0  0  0  0
  9 10  2  0  0  0  0
M  END
>  <CHROM.1>
11.45815020,11.30801543,6.90617623,0.50491801,-1.30351918,0.99453443

>  <Name>
ligand

>  <RI>
0

>  <Rbt.Current_Directory>
/home/itssahil/PROJECTS/Mol_Feturizer/Test_systems_manuscript/rnas/4fe5

>  <Rbt.Executable>
rbdock ($Id: //depot/dev/client3/rdock/2013.1/src/exe/rbdock.cxx#4 $)

>  <Rbt.Library>
libRbt.so (2013.1, Build901 2013/11/27)

>  <Rbt.Parameter_File>
/export/apps/rDock/src/rDock_2013.1_src/data/scripts/dock_solv.prm

>  <Rbt.Receptor>
prm/pocket_docking_7.prm

>  <SCORE>
-17.4472

>  <SCORE.INTER>
-17.4472

>  <SCORE.INTER.CONST>
1

>  <SCORE.INTER.POLAR>
0

>  <SCORE.INTER.ROT>
0

>  <SCORE.INTER.SOLV>
3.7334

>  <SCORE.INTER.VDW>
-16.4759

>  <SCORE.INTER.norm>
-1.74472

>  <SCORE.INTRA>
0

>  <SCORE.INTRA.DIHEDRAL>
0

>  <SCORE.INTRA.DIHEDRAL.0>
0

>  <SCORE.INTRA.POLAR>
0

>  <SCORE.INTRA.POLAR.0>
0

>  <SCORE.INTRA.REPUL>
0

>  <SCORE.INTRA.REPUL.0>
0

>  <SCORE.INTRA.SOLV>
0

>  <SCORE.INTRA.SOLV.lig_0>
-4.28333

>  <SCORE.INTRA.VDW>
0

>  <SCORE.INTRA.VDW.0>
0

>  <SCORE.INTRA.norm>
0

>  <SCORE.RESTR>
0

>  <SCORE.RESTR.CAVITY>
0

>  <SCORE.RESTR.norm>
0

>  <SCORE.SYSTEM>
0

>  <SCORE.SYSTEM.CONST>
0

>  <SCORE.SYSTEM.DIHEDRAL>
0

>  <SCORE.SYSTEM.SOLV>
0

>  <SCORE.SYSTEM.norm>
0

>  <SCORE.heavy>
10

>  <SCORE.norm>
-1.74472

>  <RMSD>
0.467

$$$$
ligand
 OpenBabel02271912143D
libRbt.so/2013.1/901 2013/11/27
 10 11  0  0  0  0  0  0  0  0999 V2000
   11.8185   10.8668    8.7547 N   0  0  0  0  0  0  0  0  0  0  0  0
   11.5648   12.2148    8.8522 C   0  0  0  0  0  0  0  0  0  0  0  0
   11.2568   12.9565    7.7867 N   0  0  0  0  0  0  0  0  0  0  0  0
   11.2237   12.2468    6.6230 C   0  0  0  0  0  0  0  0  0  0  0  0
   11.4691   10.8978    6.4580 C   0  0  0  0  0  0  0  0  0  0  0  0
   11.7965   10.1008    7.5888 C   0  0  0  0  0  0  0  0  0  0  0  0
   12.0480    8.8925    7.6710 O   0  0  0  0  0  0  0  0  0  0  0  0
   11.3318   10.5920    5.1331 N   0  0  0  0  0  0  0  0  0  0  0  0
   11.0038   11.7422    4.5001 C   0  0  0  0  0  0  0  0  0  0  0  0
   10.9299   12.7869    5.3960 N   0  0  0  0  0  0  0  0  0  0  0  0
  1  2  1  0  0  0  0
  1  6  1  0  0  0  0
  2  3  2  0  0  0  0
  3  4  1  0  0  0  0
  4  5  2  0  0  0  0
  4 10  1  0  0  0  0
  5  6  1  0  0  0  0
  5  8  1  0  0  0  0
  6  7  2  0  0  0  0
  8  9  1  0  0  0  0
  9 10  2  0  0  0  0
M  END
>  <CHROM.1>
11.45586575,11.28455222,6.89378942,0.40040517,-1.32617652,0.92533177

>  <Name>
ligand

>  <RI>
0

>  <Rbt.Current_Directory>
/home/itssahil/PROJECTS/Mol_Feturizer/Test_systems_manuscript/rnas/4fe5

>  <Rbt.Executable>
rbdock ($Id: //depot/dev/client3/rdock/2013.1/src/exe/rbdock.cxx#4 $)

>  <Rbt.Library>
libRbt.so (2013.1, Build901 2013/11/27)

>  <Rbt.Parameter_File>
/export/apps/rDock/src/rDock_2013.1_src/data/scripts/dock_solv.prm

>  <Rbt.Receptor>
prm/pocket_docking_5.prm

>  <SCORE>
-17.4559

>  <SCORE.INTER>
-17.4559

>  <SCORE.INTER.CONST>
1

>  <SCORE.INTER.POLAR>
0

>  <SCORE.INTER.ROT>
0

>  <SCORE.INTER.SOLV>
3.76443

>  <SCORE.INTER.VDW>
-16.4921

>  <SCORE.INTER.norm>
-1.74559

>  <SCORE.INTRA>
0

>  <SCORE.INTRA.DIHEDRAL>
0

>  <SCORE.INTRA.DIHEDRAL.0>
0

>  <SCORE.INTRA.POLAR>
0

>  <SCORE.INTRA.POLAR.0>
0

>  <SCORE.INTRA.REPUL>
0

>  <SCORE.INTRA.REPUL.0>
0

>  <SCORE.INTRA.SOLV>
0

>  <SCORE.INTRA.SOLV.lig_0>
-4.28333

>  <SCORE.INTRA.VDW>
0

>  <SCORE.INTRA.VDW.0>
0

>  <SCORE.INTRA.norm>
0

>  <SCORE.RESTR>
0

>  <SCORE.RESTR.CAVITY>
0

>  <SCORE.RESTR.norm>
0

>  <SCORE.SYSTEM>
0

>  <SCORE.SYSTEM.CONST>
0

>  <SCORE.SYSTEM.DIHEDRAL>
0

>  <SCORE.SYSTEM.SOLV>
0

>  <SCORE.SYSTEM.norm>
0

>  <SCORE.heavy>
10

>  <SCORE.norm>
-1.74559

>  <RMSD>
0.468

$$$$
ligand
 OpenBabel02271912143D
libRbt.so/2013.1/901 2013/11/27
 10 11  0  0  0  0  0  0  0  0999 V2000
   11.8164   10.8630    8.7521 N   0  0  0  0  0  0  0  0  0  0  0  0
   11.5607   12.2105    8.8509 C   0  0  0  0  0  0  0  0  0  0  0  0
   11.2559   12.9537    7.7854 N   0  0  0  0  0  0  0  0  0  0  0  0
   11.2282   12.2459    6.6204 C   0  0  0  0  0  0  0  0  0  0  0  0
   11.4758   10.8975    6.4541 C   0  0  0  0  0  0  0  0  0  0  0  0
   11.7998   10.0990    7.5849 C   0  0  0  0  0  0  0  0  0  0  0  0
   12.0525    8.8908    7.6659 O   0  0  0  0  0  0  0  0  0  0  0  0
   11.3440   10.5938    5.1282 N   0  0  0  0  0  0  0  0  0  0  0  0
   11.0171   11.7447    4.4958 C   0  0  0  0  0  0  0  0  0  0  0  0
   10.9384   12.7877    5.3932 N   0  0  0  0  0  0  0  0  0  0  0  0
  1  2  1  0  0  0  0
  1  6  1  0  0  0  0
  2  3  2  0  0  0  0
  3  4  1  0  0  0  0
  4  5  2  0  0  0  0
  4 10  1  0  0  0  0
  5  6  1  0  0  0  0
  5  8  1  0  0  0  0
  6  7  2  0  0  0  0
  8  9  1  0  0  0  0
  9 10  2  0  0  0  0
M  END
>  <CHROM.1>
11.46044519,11.28349952,6.89048115,0.41625505,-1.32752311,0.94239733

>  <Name>
ligand

>  <RI>
0

>  <Rbt.Current_Directory>
/home/itssahil/PROJECTS/Mol_Feturizer/Test_systems_manuscript/rnas/4fe5

>  <Rbt.Executable>
rbdock ($Id: //depot/dev/client3/rdock/2013.1/src/exe/rbdock.cxx#4 $)

>  <Rbt.Library>
libRbt.so (2013.1, Build901 2013/11/27)

>  <Rbt.Parameter_File>
/export/apps/rDock/src/rDock_2013.1_src/data/scripts/dock_solv.prm

>  <Rbt.Receptor>
prm/pocket_docking_5.prm

>  <SCORE>
-17.4613

>  <SCORE.INTER>
-17.4613

>  <SCORE.INTER.CONST>
1

>  <SCORE.INTER.POLAR>
0

>  <SCORE.INTER.ROT>
0

>  <SCORE.INTER.SOLV>
3.76243

>  <SCORE.INTER.VDW>
-16.495

>  <SCORE.INTER.norm>
-1.74613

>  <SCORE.INTRA>
0

>  <SCORE.INTRA.DIHEDRAL>
0

>  <SCORE.INTRA.DIHEDRAL.0>
0

>  <SCORE.INTRA.POLAR>
0

>  <SCORE.INTRA.POLAR.0>
0

>  <SCORE.INTRA.REPUL>
0

>  <SCORE.INTRA.REPUL.0>
0

>  <SCORE.INTRA.SOLV>
0

>  <SCORE.INTRA.SOLV.lig_0>
-4.28333

>  <SCORE.INTRA.VDW>
0

>  <SCORE.INTRA.VDW.0>
0

>  <SCORE.INTRA.norm>
0

>  <SCORE.RESTR>
0

>  <SCORE.RESTR.CAVITY>
0

>  <SCORE.RESTR.norm>
0

>  <SCORE.SYSTEM>
0

>  <SCORE.SYSTEM.CONST>
0

>  <SCORE.SYSTEM.DIHEDRAL>
0

>  <SCORE.SYSTEM.SOLV>
0

>  <SCORE.SYSTEM.norm>
0

>  <SCORE.heavy>
10

>  <SCORE.norm>
-1.74613

>  <RMSD>
0.469

$$$$
ligand
 OpenBabel02271912143D
libRbt.so/2013.1/901 2013/11/27
 10 11  0  0  0  0  0  0  0  0999 V2000
   11.8395   10.9239    8.7492 N   0  0  0  0  0  0  0  0  0  0  0  0
   11.5450   12.2651    8.8241 C   0  0  0  0  0  0  0  0  0  0  0  0
   11.2070   12.9773    7.7477 N   0  0  0  0  0  0  0  0  0  0  0  0
   11.1878   12.2457    6.5973 C   0  0  0  0  0  0  0  0  0  0  0  0
   11.4736   10.9021    6.4549 C   0  0  0  0  0  0  0  0  0  0  0  0
   11.8332   10.1364    7.5976 C   0  0  0  0  0  0  0  0  0  0  0  0
   12.1225    8.9381    7.6998 O   0  0  0  0  0  0  0  0  0  0  0  0
   11.3368   10.5680    5.1369 N   0  0  0  0  0  0  0  0  0  0  0  0
   10.9692   11.6958    4.4856 C   0  0  0  0  0  0  0  0  0  0  0  0
   10.8691   12.7539    5.3630 N   0  0  0  0  0  0  0  0  0  0  0  0
  1  2  1  0  0  0  0
  1  6  1  0  0  0  0
  2  3  2  0  0  0  0
  3  4  1  0  0  0  0
  4  5  2  0  0  0  0
  4 10  1  0  0  0  0
  5  6  1  0  0  0  0
  5  8  1  0  0  0  0
  6  7  2  0  0  0  0
  8  9  1  0  0  0  0
  9 10  2  0  0  0  0
M  END
>  <CHROM.1>
11.45146021,11.29619117,6.88377543,0.44894526,-1.29710107,0.95402414

>  <Name>
ligand

>  <RI>
0

>  <Rbt.Current_Directory>
/home/itssahil/PROJECTS/Mol_Feturizer/Test_systems_manuscript/rnas/4fe5

>  <Rbt.Executable>
rbdock ($Id: //depot/dev/client3/rdock/2013.1/src/exe/rbdock.cxx#4 $)

>  <Rbt.Library>
libRbt.so (2013.1, Build901 2013/11/27)

>  <Rbt.Parameter_File>
/export/apps/rDock/src/rDock_2013.1_src/data/scripts/dock_solv.prm

>  <Rbt.Receptor>
prm/pocket_docking_5.prm

>  <SCORE>
-17.4136

>  <SCORE.INTER>
-17.4136

>  <SCORE.INTER.CONST>
1

>  <SCORE.INTER.POLAR>
0

>  <SCORE.INTER.ROT>
0

>  <SCORE.INTER.SOLV>
3.69293

>  <SCORE.INTER.VDW>
-16.44

>  <SCORE.INTER.norm>
-1.74136

>  <SCORE.INTRA>
0

>  <SCORE.INTRA.DIHEDRAL>
0

>  <SCORE.INTRA.DIHEDRAL.0>
0

>  <SCORE.INTRA.POLAR>
0

>  <SCORE.INTRA.POLAR.0>
0

>  <SCORE.INTRA.REPUL>
0

>  <SCORE.INTRA.REPUL.0>
0

>  <SCORE.INTRA.SOLV>
0

>  <SCORE.INTRA.SOLV.lig_0>
-4.28333

>  <SCORE.INTRA.VDW>
0

>  <SCORE.INTRA.VDW.0>
0

>  <SCORE.INTRA.norm>
0

>  <SCORE.RESTR>
0

>  <SCORE.RESTR.CAVITY>
0

>  <SCORE.RESTR.norm>
0

>  <SCORE.SYSTEM>
0

>  <SCORE.SYSTEM.CONST>
0

>  <SCORE.SYSTEM.DIHEDRAL>
0

>  <SCORE.SYSTEM.SOLV>
0

>  <SCORE.SYSTEM.norm>
0

>  <SCORE.heavy>
10

>  <SCORE.norm>
-1.74136

>  <RMSD>
0.471

$$$$
ligand
 OpenBabel02271912143D
libRbt.so/2013.1/901 2013/11/27
 10 11  0  0  0  0  0  0  0  0999 V2000
   11.8103   10.8648    8.7525 N   0  0  0  0  0  0  0  0  0  0  0  0
   11.5522   12.2122    8.8473 C   0  0  0  0  0  0  0  0  0  0  0  0
   11.2503   12.9525    7.7791 N   0  0  0  0  0  0  0  0  0  0  0  0
   11.2280   12.2421    6.6156 C   0  0  0  0  0  0  0  0  0  0  0  0
   11.4783   10.8938    6.4531 C   0  0  0  0  0  0  0  0  0  0  0  0
   11.7993   10.0982    7.5869 C   0  0  0  0  0  0  0  0  0  0  0  0
   12.0535    8.8906    7.6716 O   0  0  0  0  0  0  0  0  0  0  0  0
   11.3519   10.5869    5.1275 N   0  0  0  0  0  0  0  0  0  0  0  0
   11.0257   11.7359    4.4913 C   0  0  0  0  0  0  0  0  0  0  0  0
   10.9420   12.7808    5.3862 N   0  0  0  0  0  0  0  0  0  0  0  0
  1  2  1  0  0  0  0
  1  6  1  0  0  0  0
  2  3  2  0  0  0  0
  3  4  1  0  0  0  0
  4  5  2  0  0  0  0
  4 10  1  0  0  0  0
  5  6  1  0  0  0  0
  5  8  1  0  0  0  0
  6  7  2  0  0  0  0
  8  9  1  0  0  0  0
  9 10  2  0  0  0  0
M  END
>  <CHROM.1>
11.46071022,11.28066358,6.88866492,0.43264935,-1.32846474,0.95610203

>  <Name>
ligand

>  <RI>
0

>  <Rbt.Current_Directory>
/home/itssahil/PROJECTS/Mol_Feturizer/Test_systems_manuscript/rnas/4fe5

>  <Rbt.Executable>
rbdock ($Id: //depot/dev/client3/rdock/2013.1/src/exe/rbdock.cxx#4 $)

>  <Rbt.Library>
libRbt.so (2013.1, Build901 2013/11/27)

>  <Rbt.Parameter_File>
/export/apps/rDock/src/rDock_2013.1_src/data/scripts/dock_solv.prm

>  <Rbt.Receptor>
prm/pocket_docking_7.prm

>  <SCORE>
-17.4614

>  <SCORE.INTER>
-17.4615

>  <SCORE.INTER.CONST>
1

>  <SCORE.INTER.POLAR>
0

>  <SCORE.INTER.ROT>
0

>  <SCORE.INTER.SOLV>
3.7678

>  <SCORE.INTER.VDW>
-16.4969

>  <SCORE.INTER.norm>
-1.74615

>  <SCORE.INTRA>
0

>  <SCORE.INTRA.DIHEDRAL>
0

>  <SCORE.INTRA.DIHEDRAL.0>
0

>  <SCORE.INTRA.POLAR>
0

>  <SCORE.INTRA.POLAR.0>
0

>  <SCORE.INTRA.REPUL>
0

>  <SCORE.INTRA.REPUL.0>
0

>  <SCORE.INTRA.SOLV>
0

>  <SCORE.INTRA.SOLV.lig_0>
-4.28333

>  <SCORE.INTRA.VDW>
0

>  <SCORE.INTRA.VDW.0>
0

>  <SCORE.INTRA.norm>
0

>  <SCORE.RESTR>
3.13013e-05

>  <SCORE.RESTR.CAVITY>
3.13013e-05

>  <SCORE.RESTR.norm>
3.13013e-06

>  <SCORE.SYSTEM>
0

>  <SCORE.SYSTEM.CONST>
0

>  <SCORE.SYSTEM.DIHEDRAL>
0

>  <SCORE.SYSTEM.SOLV>
0

>  <SCORE.SYSTEM.norm>
0

>  <SCORE.heavy>
10

>  <SCORE.norm>
-1.74614

>  <RMSD>
0.471

$$$$
ligand
 OpenBabel02271912143D
libRbt.so/2013.1/901 2013/11/27
 10 11  0  0  0  0  0  0  0  0999 V2000
   11.8133   10.8610    8.7508 N   0  0  0  0  0  0  0  0  0  0  0  0
   11.5587   12.2087    8.8497 C   0  0  0  0  0  0  0  0  0  0  0  0
   11.2562   12.9525    7.7841 N   0  0  0  0  0  0  0  0  0  0  0  0
   11.2295   12.2452    6.6188 C   0  0  0  0  0  0  0  0  0  0  0  0
   11.4761   10.8967    6.4523 C   0  0  0  0  0  0  0  0  0  0  0  0
   11.7977   10.0974    7.5833 C   0  0  0  0  0  0  0  0  0  0  0  0
   12.0491    8.8890    7.6643 O   0  0  0  0  0  0  0  0  0  0  0  0
   11.3460   10.5935    5.1261 N   0  0  0  0  0  0  0  0  0  0  0  0
   11.0211   11.7449    4.4937 C   0  0  0  0  0  0  0  0  0  0  0  0
   10.9421   12.7878    5.3914 N   0  0  0  0  0  0  0  0  0  0  0  0
  1  2  1  0  0  0  0
  1  6  1  0  0  0  0
  2  3  2  0  0  0  0
  3  4  1  0  0  0  0
  4  5  2  0  0  0  0
  4 10  1  0  0  0  0
  5  6  1  0  0  0  0
  5  8  1  0  0  0  0
  6  7  2  0  0  0  0
  8  9  1  0  0  0  0
  9 10  2  0  0  0  0
M  END
>  <CHROM.1>
11.46047541,11.28248741,6.88885056,0.41893892,-1.32915726,0.94536349

>  <Name>
ligand

>  <RI>
0

>  <Rbt.Current_Directory>
/home/itssahil/PROJECTS/Mol_Feturizer/Test_systems_manuscript/rnas/4fe5

>  <Rbt.Executable>
rbdock ($Id: //depot/dev/client3/rdock/2013.1/src/exe/rbdock.cxx#4 $)

>  <Rbt.Library>
libRbt.so (2013.1, Build901 2013/11/27)

>  <Rbt.Parameter_File>
/export/apps/rDock/src/rDock_2013.1_src/data/scripts/dock_solv.prm

>  <Rbt.Receptor>
prm/pocket_docking_8.prm

>  <SCORE>
-17.4626

>  <SCORE.INTER>
-17.4627

>  <SCORE.INTER.CONST>
1

>  <SCORE.INTER.POLAR>
0

>  <SCORE.INTER.ROT>
0

>  <SCORE.INTER.SOLV>
3.7664

>  <SCORE.INTER.VDW>
-16.4973

>  <SCORE.INTER.norm>
-1.74627

>  <SCORE.INTRA>
0

>  <SCORE.INTRA.DIHEDRAL>
0

>  <SCORE.INTRA.DIHEDRAL.0>
0

>  <SCORE.INTRA.POLAR>
0

>  <SCORE.INTRA.POLAR.0>
0

>  <SCORE.INTRA.REPUL>
0

>  <SCORE.INTRA.REPUL.0>
0

>  <SCORE.INTRA.SOLV>
0

>  <SCORE.INTRA.SOLV.lig_0>
-4.28333

>  <SCORE.INTRA.VDW>
0

>  <SCORE.INTRA.VDW.0>
0

>  <SCORE.INTRA.norm>
0

>  <SCORE.RESTR>
0.000110982

>  <SCORE.RESTR.CAVITY>
0.000110982

>  <SCORE.RESTR.norm>
1.10982e-05

>  <SCORE.SYSTEM>
0

>  <SCORE.SYSTEM.CONST>
0

>  <SCORE.SYSTEM.DIHEDRAL>
0

>  <SCORE.SYSTEM.SOLV>
0

>  <SCORE.SYSTEM.norm>
0

>  <SCORE.heavy>
10

>  <SCORE.norm>
-1.74626

>  <RMSD>
0.471

$$$$
ligand
 OpenBabel02271912143D
libRbt.so/2013.1/901 2013/11/27
 10 11  0  0  0  0  0  0  0  0999 V2000
   11.8077   10.8664    8.7477 N   0  0  0  0  0  0  0  0  0  0  0  0
   11.5354   12.2114    8.8356 C   0  0  0  0  0  0  0  0  0  0  0  0
   11.2297   12.9439    7.7631 N   0  0  0  0  0  0  0  0  0  0  0  0
   11.2188   12.2282    6.6027 C   0  0  0  0  0  0  0  0  0  0  0  0
   11.4834   10.8818    6.4471 C   0  0  0  0  0  0  0  0  0  0  0  0
   11.8086   10.0945    7.5855 C   0  0  0  0  0  0  0  0  0  0  0  0
   12.0749    8.8900    7.6764 O   0  0  0  0  0  0  0  0  0  0  0  0
   11.3649   10.5678    5.1223 N   0  0  0  0  0  0  0  0  0  0  0  0
   11.0291   11.7106    4.4800 C   0  0  0  0  0  0  0  0  0  0  0  0
   10.9316   12.7585    5.3699 N   0  0  0  0  0  0  0  0  0  0  0  0
  1  2  1  0  0  0  0
  1  6  1  0  0  0  0
  2  3  2  0  0  0  0
  3  4  1  0  0  0  0
  4  5  2  0  0  0  0
  4 10  1  0  0  0  0
  5  6  1  0  0  0  0
  5  8  1  0  0  0  0
  6  7  2  0  0  0  0
  8  9  1  0  0  0  0
  9 10  2  0  0  0  0
M  END
>  <CHROM.1>
11.46037095,11.27040458,6.88080308,0.46826113,-1.32195872,0.98623531

>  <Name>
ligand

>  <RI>
0

>  <Rbt.Current_Directory>
/home/itssahil/PROJECTS/Mol_Feturizer/Test_systems_manuscript/rnas/4fe5

>  <Rbt.Executable>
rbdock ($Id: //depot/dev/client3/rdock/2013.1/src/exe/rbdock.cxx#4 $)

>  <Rbt.Library>
libRbt.so (2013.1, Build901 2013/11/27)

>  <Rbt.Parameter_File>
/export/apps/rDock/src/rDock_2013.1_src/data/scripts/dock_solv.prm

>  <Rbt.Receptor>
prm/pocket_docking_8.prm

>  <SCORE>
-17.4143

>  <SCORE.INTER>
-17.4143

>  <SCORE.INTER.CONST>
1

>  <SCORE.INTER.POLAR>
0

>  <SCORE.INTER.ROT>
0

>  <SCORE.INTER.SOLV>
3.75374

>  <SCORE.INTER.VDW>
-16.4608

>  <SCORE.INTER.norm>
-1.74143

>  <SCORE.INTRA>
0

>  <SCORE.INTRA.DIHEDRAL>
0

>  <SCORE.INTRA.DIHEDRAL.0>
0

>  <SCORE.INTRA.POLAR>
0

>  <SCORE.INTRA.POLAR.0>
0

>  <SCORE.INTRA.REPUL>
0

>  <SCORE.INTRA.REPUL.0>
0

>  <SCORE.INTRA.SOLV>
0

>  <SCORE.INTRA.SOLV.lig_0>
-4.28333

>  <SCORE.INTRA.VDW>
0

>  <SCORE.INTRA.VDW.0>
0

>  <SCORE.INTRA.norm>
0

>  <SCORE.RESTR>
0

>  <SCORE.RESTR.CAVITY>
0

>  <SCORE.RESTR.norm>
0

>  <SCORE.SYSTEM>
0

>  <SCORE.SYSTEM.CONST>
0

>  <SCORE.SYSTEM.DIHEDRAL>
0

>  <SCORE.SYSTEM.SOLV>
0

>  <SCORE.SYSTEM.norm>
0

>  <SCORE.heavy>
10

>  <SCORE.norm>
-1.74143

>  <RMSD>
0.471

$$$$
ligand
 OpenBabel02271912143D
libRbt.so/2013.1/901 2013/11/27
 10 11  0  0  0  0  0  0  0  0999 V2000
   11.7937   10.6699    8.6809 N   0  0  0  0  0  0  0  0  0  0  0  0
   11.4545   11.9909    8.8566 C   0  0  0  0  0  0  0  0  0  0  0  0
   11.1172   12.7778    7.8333 N   0  0  0  0  0  0  0  0  0  0  0  0
   11.1468   12.1422    6.6275 C   0  0  0  0  0  0  0  0  0  0  0  0
   11.4787   10.8239    6.3841 C   0  0  0  0  0  0  0  0  0  0  0  0
   11.8378    9.9789    7.4697 C   0  0  0  0  0  0  0  0  0  0  0  0
   12.1632    8.7856    7.4818 O   0  0  0  0  0  0  0  0  0  0  0  0
   11.3814   10.5943    5.0405 N   0  0  0  0  0  0  0  0  0  0  0  0
   10.9919   11.7597    4.4736 C   0  0  0  0  0  0  0  0  0  0  0  0
   10.8388   12.7393    5.4308 N   0  0  0  0  0  0  0  0  0  0  0  0
  1  2  1  0  0  0  0
  1  6  1  0  0  0  0
  2  3  2  0  0  0  0
  3  4  1  0  0  0  0
  4  5  2  0  0  0  0
  4 10  1  0  0  0  0
  5  6  1  0  0  0  0
  5  8  1  0  0  0  0
  6  7  2  0  0  0  0
  8  9  1  0  0  0  0
  9 10  2  0  0  0  0
M  END
>  <CHROM.1>
11.43451879,11.18089690,6.84269256,0.57674456,-1.28118117,1.15801241

>  <Name>
ligand

>  <RI>
0

>  <Rbt.Current_Directory>
/home/itssahil/PROJECTS/Mol_Feturizer/Test_systems_manuscript/rnas/4fe5

>  <Rbt.Executable>
rbdock ($Id: //depot/dev/client3/rdock/2013.1/src/exe/rbdock.cxx#4 $)

>  <Rbt.Library>
libRbt.so (2013.1, Build901 2013/11/27)

>  <Rbt.Parameter_File>
/export/apps/rDock/src/rDock_2013.1_src/data/scripts/dock_solv.prm

>  <Rbt.Receptor>
prm/blind_docking_20.prm

>  <SCORE>
-17.1442

>  <SCORE.INTER>
-17.1442

>  <SCORE.INTER.CONST>
1

>  <SCORE.INTER.POLAR>
0

>  <SCORE.INTER.ROT>
0

>  <SCORE.INTER.SOLV>
3.59893

>  <SCORE.INTER.VDW>
-16.2291

>  <SCORE.INTER.norm>
-1.71442

>  <SCORE.INTRA>
0

>  <SCORE.INTRA.DIHEDRAL>
0

>  <SCORE.INTRA.DIHEDRAL.0>
0

>  <SCORE.INTRA.POLAR>
0

>  <SCORE.INTRA.POLAR.0>
0

>  <SCORE.INTRA.REPUL>
0

>  <SCORE.INTRA.REPUL.0>
0

>  <SCORE.INTRA.SOLV>
0

>  <SCORE.INTRA.SOLV.lig_0>
-4.28333

>  <SCORE.INTRA.VDW>
0

>  <SCORE.INTRA.VDW.0>
0

>  <SCORE.INTRA.norm>
0

>  <SCORE.RESTR>
0

>  <SCORE.RESTR.CAVITY>
0

>  <SCORE.RESTR.norm>
0

>  <SCORE.SYSTEM>
0

>  <SCORE.SYSTEM.CONST>
0

>  <SCORE.SYSTEM.DIHEDRAL>
0

>  <SCORE.SYSTEM.SOLV>
0

>  <SCORE.SYSTEM.norm>
0

>  <SCORE.heavy>
10

>  <SCORE.norm>
-1.71442

>  <RMSD>
0.472

$$$$
ligand
 OpenBabel02271912143D
libRbt.so/2013.1/901 2013/11/27
 10 11  0  0  0  0  0  0  0  0999 V2000
   11.9449   10.8209    8.6638 N   0  0  0  0  0  0  0  0  0  0  0  0
   11.6276   12.1526    8.7939 C   0  0  0  0  0  0  0  0  0  0  0  0
   11.2493   12.8957    7.7523 N   0  0  0  0  0  0  0  0  0  0  0  0
   11.2146   12.2050    6.5773 C   0  0  0  0  0  0  0  0  0  0  0  0
   11.5215   10.8731    6.3799 C   0  0  0  0  0  0  0  0  0  0  0  0
   11.9240   10.0746    7.4852 C   0  0  0  0  0  0  0  0  0  0  0  0
   12.2379    8.8792    7.5373 O   0  0  0  0  0  0  0  0  0  0  0  0
   11.3576   10.5831    5.0545 N   0  0  0  0  0  0  0  0  0  0  0  0
   10.9528   11.7259    4.4532 C   0  0  0  0  0  0  0  0  0  0  0  0
   10.8554   12.7502    5.3701 N   0  0  0  0  0  0  0  0  0  0  0  0
  1  2  1  0  0  0  0
  1  6  1  0  0  0  0
  2  3  2  0  0  0  0
  3  4  1  0  0  0  0
  4  5  2  0  0  0  0
  4 10  1  0  0  0  0
  5  6  1  0  0  0  0
  5  8  1  0  0  0  0
  6  7  2  0  0  0  0
  8  9  1  0  0  0  0
  9 10  2  0  0  0  0
M  END
>  <CHROM.1>
11.50292261,11.25125033,6.82296365,0.41569215,-1.26721346,0.95772555

>  <Name>
ligand

>  <RI>
0

>  <Rbt.Current_Directory>
/home/itssahil/PROJECTS/Mol_Feturizer/Test_systems_manuscript/rnas/4fe5

>  <Rbt.Executable>
rbdock ($Id: //depot/dev/client3/rdock/2013.1/src/exe/rbdock.cxx#4 $)

>  <Rbt.Library>
libRbt.so (2013.1, Build901 2013/11/27)

>  <Rbt.Parameter_File>
/export/apps/rDock/src/rDock_2013.1_src/data/scripts/dock_solv.prm

>  <Rbt.Receptor>
prm/pocket_docking_4.prm

>  <SCORE>
-17.4728

>  <SCORE.INTER>
-17.4728

>  <SCORE.INTER.CONST>
1

>  <SCORE.INTER.POLAR>
0

>  <SCORE.INTER.ROT>
0

>  <SCORE.INTER.SOLV>
3.51634

>  <SCORE.INTER.VDW>
-16.4207

>  <SCORE.INTER.norm>
-1.74728

>  <SCORE.INTRA>
0

>  <SCORE.INTRA.DIHEDRAL>
0

>  <SCORE.INTRA.DIHEDRAL.0>
0

>  <SCORE.INTRA.POLAR>
0

>  <SCORE.INTRA.POLAR.0>
0

>  <SCORE.INTRA.REPUL>
0

>  <SCORE.INTRA.REPUL.0>
0

>  <SCORE.INTRA.SOLV>
0

>  <SCORE.INTRA.SOLV.lig_0>
-4.28333

>  <SCORE.INTRA.VDW>
0

>  <SCORE.INTRA.VDW.0>
0

>  <SCORE.INTRA.norm>
0

>  <SCORE.RESTR>
0

>  <SCORE.RESTR.CAVITY>
0

>  <SCORE.RESTR.norm>
0

>  <SCORE.SYSTEM>
0

>  <SCORE.SYSTEM.CONST>
0

>  <SCORE.SYSTEM.DIHEDRAL>
0

>  <SCORE.SYSTEM.SOLV>
0

>  <SCORE.SYSTEM.norm>
0

>  <SCORE.heavy>
10

>  <SCORE.norm>
-1.74728

>  <RMSD>
0.472

$$$$
ligand
 OpenBabel02271912143D
libRbt.so/2013.1/901 2013/11/27
 10 11  0  0  0  0  0  0  0  0999 V2000
   11.8608   10.8451    8.7074 N   0  0  0  0  0  0  0  0  0  0  0  0
   11.5612   12.1834    8.8082 C   0  0  0  0  0  0  0  0  0  0  0  0
   11.2268   12.9164    7.7447 N   0  0  0  0  0  0  0  0  0  0  0  0
   11.2167   12.2086    6.5794 C   0  0  0  0  0  0  0  0  0  0  0  0
   11.5079   10.8692    6.4111 C   0  0  0  0  0  0  0  0  0  0  0  0
   11.8638   10.0814    7.5399 C   0  0  0  0  0  0  0  0  0  0  0  0
   12.1566    8.8822    7.6190 O   0  0  0  0  0  0  0  0  0  0  0  0
   11.3798   10.5618    5.0857 N   0  0  0  0  0  0  0  0  0  0  0  0
   11.0119   11.7015    4.4556 C   0  0  0  0  0  0  0  0  0  0  0  0
   10.9032   12.7410    5.3540 N   0  0  0  0  0  0  0  0  0  0  0  0
  1  2  1  0  0  0  0
  1  6  1  0  0  0  0
  2  3  2  0  0  0  0
  3  4  1  0  0  0  0
  4  5  2  0  0  0  0
  4 10  1  0  0  0  0
  5  6  1  0  0  0  0
  5  8  1  0  0  0  0
  6  7  2  0  0  0  0
  8  9  1  0  0  0  0
  9 10  2  0  0  0  0
M  END
>  <CHROM.1>
11.48200689,11.25430759,6.84781506,0.47350711,-1.29744106,0.99822459

>  <Name>
ligand

>  <RI>
0

>  <Rbt.Current_Directory>
/home/itssahil/PROJECTS/Mol_Feturizer/Test_systems_manuscript/rnas/4fe5

>  <Rbt.Executable>
rbdock ($Id: //depot/dev/client3/rdock/2013.1/src/exe/rbdock.cxx#4 $)

>  <Rbt.Library>
libRbt.so (2013.1, Build901 2013/11/27)

>  <Rbt.Parameter_File>
/export/apps/rDock/src/rDock_2013.1_src/data/scripts/dock_solv.prm

>  <Rbt.Receptor>
prm/pocket_docking_7.prm

>  <SCORE>
-17.4166

>  <SCORE.INTER>
-17.4166

>  <SCORE.INTER.CONST>
1

>  <SCORE.INTER.POLAR>
0

>  <SCORE.INTER.ROT>
0

>  <SCORE.INTER.SOLV>
3.64669

>  <SCORE.INTER.VDW>
-16.4266

>  <SCORE.INTER.norm>
-1.74166

>  <SCORE.INTRA>
0

>  <SCORE.INTRA.DIHEDRAL>
0

>  <SCORE.INTRA.DIHEDRAL.0>
0

>  <SCORE.INTRA.POLAR>
0

>  <SCORE.INTRA.POLAR.0>
0

>  <SCORE.INTRA.REPUL>
0

>  <SCORE.INTRA.REPUL.0>
0

>  <SCORE.INTRA.SOLV>
0

>  <SCORE.INTRA.SOLV.lig_0>
-4.28333

>  <SCORE.INTRA.VDW>
0

>  <SCORE.INTRA.VDW.0>
0

>  <SCORE.INTRA.norm>
0

>  <SCORE.RESTR>
0

>  <SCORE.RESTR.CAVITY>
0

>  <SCORE.RESTR.norm>
0

>  <SCORE.SYSTEM>
0

>  <SCORE.SYSTEM.CONST>
0

>  <SCORE.SYSTEM.DIHEDRAL>
0

>  <SCORE.SYSTEM.SOLV>
0

>  <SCORE.SYSTEM.norm>
0

>  <SCORE.heavy>
10

>  <SCORE.norm>
-1.74166

>  <RMSD>
0.472

$$$$
ligand
 OpenBabel02271912143D
libRbt.so/2013.1/901 2013/11/27
 10 11  0  0  0  0  0  0  0  0999 V2000
   11.8984   10.8506    8.6917 N   0  0  0  0  0  0  0  0  0  0  0  0
   11.5925   12.1884    8.7793 C   0  0  0  0  0  0  0  0  0  0  0  0
   11.2305   12.9036    7.7127 N   0  0  0  0  0  0  0  0  0  0  0  0
   11.1997   12.1785    6.5584 C   0  0  0  0  0  0  0  0  0  0  0  0
   11.4958   10.8385    6.4035 C   0  0  0  0  0  0  0  0  0  0  0  0
   11.8809   10.0696    7.5358 C   0  0  0  0  0  0  0  0  0  0  0  0
   12.1831    8.8736    7.6262 O   0  0  0  0  0  0  0  0  0  0  0  0
   11.3409   10.5107    5.0859 N   0  0  0  0  0  0  0  0  0  0  0  0
   10.9523   11.6386    4.4472 C   0  0  0  0  0  0  0  0  0  0  0  0
   10.8564   12.6907    5.3324 N   0  0  0  0  0  0  0  0  0  0  0  0
  1  2  1  0  0  0  0
  1  6  1  0  0  0  0
  2  3  2  0  0  0  0
  3  4  1  0  0  0  0
  4  5  2  0  0  0  0
  4 10  1  0  0  0  0
  5  6  1  0  0  0  0
  5  8  1  0  0  0  0
  6  7  2  0  0  0  0
  8  9  1  0  0  0  0
  9 10  2  0  0  0  0
M  END
>  <CHROM.1>
11.47684476,11.22986635,6.83499742,0.42212547,-1.28000782,0.93409658

>  <Name>
ligand

>  <RI>
0

>  <Rbt.Current_Directory>
/home/itssahil/PROJECTS/Mol_Feturizer/Test_systems_manuscript/rnas/4fe5

>  <Rbt.Executable>
rbdock ($Id: //depot/dev/client3/rdock/2013.1/src/exe/rbdock.cxx#4 $)

>  <Rbt.Library>
libRbt.so (2013.1, Build901 2013/11/27)

>  <Rbt.Parameter_File>
/export/apps/rDock/src/rDock_2013.1_src/data/scripts/dock_solv.prm

>  <Rbt.Receptor>
prm/blind_docking_80.prm

>  <SCORE>
-17.4195

>  <SCORE.INTER>
-17.4264

>  <SCORE.INTER.CONST>
1

>  <SCORE.INTER.POLAR>
0

>  <SCORE.INTER.ROT>
0

>  <SCORE.INTER.SOLV>
3.60192

>  <SCORE.INTER.VDW>
-16.4183

>  <SCORE.INTER.norm>
-1.74264

>  <SCORE.INTRA>
0

>  <SCORE.INTRA.DIHEDRAL>
0

>  <SCORE.INTRA.DIHEDRAL.0>
0

>  <SCORE.INTRA.POLAR>
0

>  <SCORE.INTRA.POLAR.0>
0

>  <SCORE.INTRA.REPUL>
0

>  <SCORE.INTRA.REPUL.0>
0

>  <SCORE.INTRA.SOLV>
0

>  <SCORE.INTRA.SOLV.lig_0>
-4.28333

>  <SCORE.INTRA.VDW>
0

>  <SCORE.INTRA.VDW.0>
0

>  <SCORE.INTRA.norm>
0

>  <SCORE.RESTR>
0.00690135

>  <SCORE.RESTR.CAVITY>
0.00690135

>  <SCORE.RESTR.norm>
0.000690135

>  <SCORE.SYSTEM>
0

>  <SCORE.SYSTEM.CONST>
0

>  <SCORE.SYSTEM.DIHEDRAL>
0

>  <SCORE.SYSTEM.SOLV>
0

>  <SCORE.SYSTEM.norm>
0

>  <SCORE.heavy>
10

>  <SCORE.norm>
-1.74195

>  <RMSD>
0.474

$$$$
ligand
 OpenBabel02271912143D
libRbt.so/2013.1/901 2013/11/27
 10 11  0  0  0  0  0  0  0  0999 V2000
   11.8368   10.8507    8.7241 N   0  0  0  0  0  0  0  0  0  0  0  0
   11.5553   12.1928    8.8271 C   0  0  0  0  0  0  0  0  0  0  0  0
   11.2422   12.9346    7.7632 N   0  0  0  0  0  0  0  0  0  0  0  0
   11.2339   12.2314    6.5951 C   0  0  0  0  0  0  0  0  0  0  0  0
   11.5077   10.8886    6.4244 C   0  0  0  0  0  0  0  0  0  0  0  0
   11.8407   10.0914    7.5536 C   0  0  0  0  0  0  0  0  0  0  0  0
   12.1156    8.8879    7.6310 O   0  0  0  0  0  0  0  0  0  0  0  0
   11.3886   10.5881    5.0966 N   0  0  0  0  0  0  0  0  0  0  0  0
   11.0435   11.7354    4.4673 C   0  0  0  0  0  0  0  0  0  0  0  0
   10.9406   12.7729    5.3687 N   0  0  0  0  0  0  0  0  0  0  0  0
  1  2  1  0  0  0  0
  1  6  1  0  0  0  0
  2  3  2  0  0  0  0
  3  4  1  0  0  0  0
  4  5  2  0  0  0  0
  4 10  1  0  0  0  0
  5  6  1  0  0  0  0
  5  8  1  0  0  0  0
  6  7  2  0  0  0  0
  8  9  1  0  0  0  0
  9 10  2  0  0  0  0
M  END
>  <CHROM.1>
11.48282271,11.27237657,6.86239047,0.47674781,-1.31497523,1.00524245

>  <Name>
ligand

>  <RI>
0

>  <Rbt.Current_Directory>
/home/itssahil/PROJECTS/Mol_Feturizer/Test_systems_manuscript/rnas/4fe5

>  <Rbt.Executable>
rbdock ($Id: //depot/dev/client3/rdock/2013.1/src/exe/rbdock.cxx#4 $)

>  <Rbt.Library>
libRbt.so (2013.1, Build901 2013/11/27)

>  <Rbt.Parameter_File>
/export/apps/rDock/src/rDock_2013.1_src/data/scripts/dock_solv.prm

>  <Rbt.Receptor>
prm/pocket_docking_5.prm

>  <SCORE>
-17.3574

>  <SCORE.INTER>
-17.3574

>  <SCORE.INTER.CONST>
1

>  <SCORE.INTER.POLAR>
0

>  <SCORE.INTER.ROT>
0

>  <SCORE.INTER.SOLV>
3.70123

>  <SCORE.INTER.VDW>
-16.4054

>  <SCORE.INTER.norm>
-1.73574

>  <SCORE.INTRA>
0

>  <SCORE.INTRA.DIHEDRAL>
0

>  <SCORE.INTRA.DIHEDRAL.0>
0

>  <SCORE.INTRA.POLAR>
0

>  <SCORE.INTRA.POLAR.0>
0

>  <SCORE.INTRA.REPUL>
0

>  <SCORE.INTRA.REPUL.0>
0

>  <SCORE.INTRA.SOLV>
0

>  <SCORE.INTRA.SOLV.lig_0>
-4.28333

>  <SCORE.INTRA.VDW>
0

>  <SCORE.INTRA.VDW.0>
0

>  <SCORE.INTRA.norm>
0

>  <SCORE.RESTR>
0

>  <SCORE.RESTR.CAVITY>
0

>  <SCORE.RESTR.norm>
0

>  <SCORE.SYSTEM>
0

>  <SCORE.SYSTEM.CONST>
0

>  <SCORE.SYSTEM.DIHEDRAL>
0

>  <SCORE.SYSTEM.SOLV>
0

>  <SCORE.SYSTEM.norm>
0

>  <SCORE.heavy>
10

>  <SCORE.norm>
-1.73574

>  <RMSD>
0.474

$$$$
ligand
 OpenBabel02271912143D
libRbt.so/2013.1/901 2013/11/27
 10 11  0  0  0  0  0  0  0  0999 V2000
   11.9557   10.8116    8.6516 N   0  0  0  0  0  0  0  0  0  0  0  0
   11.6265   12.1393    8.7923 C   0  0  0  0  0  0  0  0  0  0  0  0
   11.2448   12.8881    7.7561 N   0  0  0  0  0  0  0  0  0  0  0  0
   11.2196   12.2074    6.5750 C   0  0  0  0  0  0  0  0  0  0  0  0
   11.5386   10.8800    6.3670 C   0  0  0  0  0  0  0  0  0  0  0  0
   11.9448   10.0754    7.4665 C   0  0  0  0  0  0  0  0  0  0  0  0
   12.2689    8.8824    7.5091 O   0  0  0  0  0  0  0  0  0  0  0  0
   11.3811   10.6002    5.0387 N   0  0  0  0  0  0  0  0  0  0  0  0
   10.9682   11.7446    4.4461 C   0  0  0  0  0  0  0  0  0  0  0  0
   10.8592   12.7600    5.3716 N   0  0  0  0  0  0  0  0  0  0  0  0
  1  2  1  0  0  0  0
  1  6  1  0  0  0  0
  2  3  2  0  0  0  0
  3  4  1  0  0  0  0
  4  5  2  0  0  0  0
  4 10  1  0  0  0  0
  5  6  1  0  0  0  0
  5  8  1  0  0  0  0
  6  7  2  0  0  0  0
  8  9  1  0  0  0  0
  9 10  2  0  0  0  0
M  END
>  <CHROM.1>
11.51544862,11.25409614,6.81328675,0.44005136,-1.26169077,0.98965478

>  <Name>
ligand

>  <RI>
0

>  <Rbt.Current_Directory>
/home/itssahil/PROJECTS/Mol_Feturizer/Test_systems_manuscript/rnas/4fe5

>  <Rbt.Executable>
rbdock ($Id: //depot/dev/client3/rdock/2013.1/src/exe/rbdock.cxx#4 $)

>  <Rbt.Library>
libRbt.so (2013.1, Build901 2013/11/27)

>  <Rbt.Parameter_File>
/export/apps/rDock/src/rDock_2013.1_src/data/scripts/dock_solv.prm

>  <Rbt.Receptor>
prm/pocket_docking_6.prm

>  <SCORE>
-17.4843

>  <SCORE.INTER>
-17.4843

>  <SCORE.INTER.CONST>
1

>  <SCORE.INTER.POLAR>
0

>  <SCORE.INTER.ROT>
0

>  <SCORE.INTER.SOLV>
3.49572

>  <SCORE.INTER.VDW>
-16.4214

>  <SCORE.INTER.norm>
-1.74843

>  <SCORE.INTRA>
0

>  <SCORE.INTRA.DIHEDRAL>
0

>  <SCORE.INTRA.DIHEDRAL.0>
0

>  <SCORE.INTRA.POLAR>
0

>  <SCORE.INTRA.POLAR.0>
0

>  <SCORE.INTRA.REPUL>
0

>  <SCORE.INTRA.REPUL.0>
0

>  <SCORE.INTRA.SOLV>
0

>  <SCORE.INTRA.SOLV.lig_0>
-4.28333

>  <SCORE.INTRA.VDW>
0

>  <SCORE.INTRA.VDW.0>
0

>  <SCORE.INTRA.norm>
0

>  <SCORE.RESTR>
0

>  <SCORE.RESTR.CAVITY>
0

>  <SCORE.RESTR.norm>
0

>  <SCORE.SYSTEM>
0

>  <SCORE.SYSTEM.CONST>
0

>  <SCORE.SYSTEM.DIHEDRAL>
0

>  <SCORE.SYSTEM.SOLV>
0

>  <SCORE.SYSTEM.norm>
0

>  <SCORE.heavy>
10

>  <SCORE.norm>
-1.74843

>  <RMSD>
0.475

$$$$
ligand
 OpenBabel02271912143D
libRbt.so/2013.1/901 2013/11/27
 10 11  0  0  0  0  0  0  0  0999 V2000
   11.8100   10.9613    8.7773 N   0  0  0  0  0  0  0  0  0  0  0  0
   11.5198   12.3040    8.8387 C   0  0  0  0  0  0  0  0  0  0  0  0
   11.2046   13.0110    7.7519 N   0  0  0  0  0  0  0  0  0  0  0  0
   11.2036   12.2725    6.6058 C   0  0  0  0  0  0  0  0  0  0  0  0
   11.4863   10.9269    6.4768 C   0  0  0  0  0  0  0  0  0  0  0  0
   11.8216   10.1667    7.6305 C   0  0  0  0  0  0  0  0  0  0  0  0
   12.1039    8.9679    7.7453 O   0  0  0  0  0  0  0  0  0  0  0  0
   11.3724   10.5853    5.1585 N   0  0  0  0  0  0  0  0  0  0  0  0
   11.0215   11.7105    4.4937 C   0  0  0  0  0  0  0  0  0  0  0  0
   10.9098   12.7744    5.3627 N   0  0  0  0  0  0  0  0  0  0  0  0
  1  2  1  0  0  0  0
  1  6  1  0  0  0  0
  2  3  2  0  0  0  0
  3  4  1  0  0  0  0
  4  5  2  0  0  0  0
  4 10  1  0  0  0  0
  5  6  1  0  0  0  0
  5  8  1  0  0  0  0
  6  7  2  0  0  0  0
  8  9  1  0  0  0  0
  9 10  2  0  0  0  0
M  END
>  <CHROM.1>
11.45793091,11.32366035,6.90277779,0.49791647,-1.31087040,0.99518122

>  <Name>
ligand

>  <RI>
0

>  <Rbt.Current_Directory>
/home/itssahil/PROJECTS/Mol_Feturizer/Test_systems_manuscript/rnas/4fe5

>  <Rbt.Executable>
rbdock ($Id: //depot/dev/client3/rdock/2013.1/src/exe/rbdock.cxx#4 $)

>  <Rbt.Library>
libRbt.so (2013.1, Build901 2013/11/27)

>  <Rbt.Parameter_File>
/export/apps/rDock/src/rDock_2013.1_src/data/scripts/dock_solv.prm

>  <Rbt.Receptor>
prm/blind_docking_100.prm

>  <SCORE>
-17.3667

>  <SCORE.INTER>
-17.3682

>  <SCORE.INTER.CONST>
1

>  <SCORE.INTER.POLAR>
0

>  <SCORE.INTER.ROT>
0

>  <SCORE.INTER.SOLV>
3.74301

>  <SCORE.INTER.VDW>
-16.4265

>  <SCORE.INTER.norm>
-1.73682

>  <SCORE.INTRA>
0

>  <SCORE.INTRA.DIHEDRAL>
0

>  <SCORE.INTRA.DIHEDRAL.0>
0

>  <SCORE.INTRA.POLAR>
0

>  <SCORE.INTRA.POLAR.0>
0

>  <SCORE.INTRA.REPUL>
0

>  <SCORE.INTRA.REPUL.0>
0

>  <SCORE.INTRA.SOLV>
0

>  <SCORE.INTRA.SOLV.lig_0>
-4.28333

>  <SCORE.INTRA.VDW>
0

>  <SCORE.INTRA.VDW.0>
0

>  <SCORE.INTRA.norm>
0

>  <SCORE.RESTR>
0.00154909

>  <SCORE.RESTR.CAVITY>
0.00154909

>  <SCORE.RESTR.norm>
0.000154909

>  <SCORE.SYSTEM>
0

>  <SCORE.SYSTEM.CONST>
0

>  <SCORE.SYSTEM.DIHEDRAL>
0

>  <SCORE.SYSTEM.SOLV>
0

>  <SCORE.SYSTEM.norm>
0

>  <SCORE.heavy>
10

>  <SCORE.norm>
-1.73667

>  <RMSD>
0.476

$$$$
ligand
 OpenBabel02271912143D
libRbt.so/2013.1/901 2013/11/27
 10 11  0  0  0  0  0  0  0  0999 V2000
   11.9387   10.8101    8.6583 N   0  0  0  0  0  0  0  0  0  0  0  0
   11.6315   12.1438    8.7921 C   0  0  0  0  0  0  0  0  0  0  0  0
   11.2568   12.8920    7.7529 N   0  0  0  0  0  0  0  0  0  0  0  0
   11.2149   12.2043    6.5763 C   0  0  0  0  0  0  0  0  0  0  0  0
   11.5115   10.8706    6.3753 C   0  0  0  0  0  0  0  0  0  0  0  0
   11.9101   10.0666    7.4781 C   0  0  0  0  0  0  0  0  0  0  0  0
   12.2152    8.8689    7.5268 O   0  0  0  0  0  0  0  0  0  0  0  0
   11.3430   10.5849    5.0496 N   0  0  0  0  0  0  0  0  0  0  0  0
   10.9456   11.7320    4.4517 C   0  0  0  0  0  0  0  0  0  0  0  0
   10.8575   12.7550    5.3711 N   0  0  0  0  0  0  0  0  0  0  0  0
  1  2  1  0  0  0  0
  1  6  1  0  0  0  0
  2  3  2  0  0  0  0
  3  4  1  0  0  0  0
  4  5  2  0  0  0  0
  4 10  1  0  0  0  0
  5  6  1  0  0  0  0
  5  8  1  0  0  0  0
  6  7  2  0  0  0  0
  8  9  1  0  0  0  0
  9 10  2  0  0  0  0
M  END
>  <CHROM.1>
11.49654878,11.24788461,6.81931273,0.39613277,-1.27216757,0.94133758

>  <Name>
ligand

>  <RI>
0

>  <Rbt.Current_Directory>
/home/itssahil/PROJECTS/Mol_Feturizer/Test_systems_manuscript/rnas/4fe5

>  <Rbt.Executable>
rbdock ($Id: //depot/dev/client3/rdock/2013.1/src/exe/rbdock.cxx#4 $)

>  <Rbt.Library>
libRbt.so (2013.1, Build901 2013/11/27)

>  <Rbt.Parameter_File>
/export/apps/rDock/src/rDock_2013.1_src/data/scripts/dock_solv.prm

>  <Rbt.Receptor>
prm/pocket_docking_4.prm

>  <SCORE>
-17.4598

>  <SCORE.INTER>
-17.4598

>  <SCORE.INTER.CONST>
1

>  <SCORE.INTER.POLAR>
0

>  <SCORE.INTER.ROT>
0

>  <SCORE.INTER.SOLV>
3.52782

>  <SCORE.INTER.VDW>
-16.4158

>  <SCORE.INTER.norm>
-1.74598

>  <SCORE.INTRA>
0

>  <SCORE.INTRA.DIHEDRAL>
0

>  <SCORE.INTRA.DIHEDRAL.0>
0

>  <SCORE.INTRA.POLAR>
0

>  <SCORE.INTRA.POLAR.0>
0

>  <SCORE.INTRA.REPUL>
0

>  <SCORE.INTRA.REPUL.0>
0

>  <SCORE.INTRA.SOLV>
0

>  <SCORE.INTRA.SOLV.lig_0>
-4.28333

>  <SCORE.INTRA.VDW>
0

>  <SCORE.INTRA.VDW.0>
0

>  <SCORE.INTRA.norm>
0

>  <SCORE.RESTR>
0

>  <SCORE.RESTR.CAVITY>
0

>  <SCORE.RESTR.norm>
0

>  <SCORE.SYSTEM>
0

>  <SCORE.SYSTEM.CONST>
0

>  <SCORE.SYSTEM.DIHEDRAL>
0

>  <SCORE.SYSTEM.SOLV>
0

>  <SCORE.SYSTEM.norm>
0

>  <SCORE.heavy>
10

>  <SCORE.norm>
-1.74598

>  <RMSD>
0.477

$$$$
ligand
 OpenBabel02271912143D
libRbt.so/2013.1/901 2013/11/27
 10 11  0  0  0  0  0  0  0  0999 V2000
   11.9255   10.8158    8.6615 N   0  0  0  0  0  0  0  0  0  0  0  0
   11.6010   12.1463    8.7866 C   0  0  0  0  0  0  0  0  0  0  0  0
   11.2358   12.8878    7.7393 N   0  0  0  0  0  0  0  0  0  0  0  0
   11.2219   12.1970    6.5640 C   0  0  0  0  0  0  0  0  0  0  0  0
   11.5370   10.8663    6.3714 C   0  0  0  0  0  0  0  0  0  0  0  0
   11.9257   10.0694    7.4828 C   0  0  0  0  0  0  0  0  0  0  0  0
   12.2435    8.8753    7.5397 O   0  0  0  0  0  0  0  0  0  0  0  0
   11.3946   10.5757    5.0437 N   0  0  0  0  0  0  0  0  0  0  0  0
   10.9945   11.7168    4.4362 C   0  0  0  0  0  0  0  0  0  0  0  0
   10.8790   12.7408    5.3514 N   0  0  0  0  0  0  0  0  0  0  0  0
  1  2  1  0  0  0  0
  1  6  1  0  0  0  0
  2  3  2  0  0  0  0
  3  4  1  0  0  0  0
  4  5  2  0  0  0  0
  4 10  1  0  0  0  0
  5  6  1  0  0  0  0
  5  8  1  0  0  0  0
  6  7  2  0  0  0  0
  8  9  1  0  0  0  0
  9 10  2  0  0  0  0
M  END
>  <CHROM.1>
11.51013200,11.24438977,6.81410351,0.46615263,-1.27243284,1.00587945

>  <Name>
ligand

>  <RI>
0

>  <Rbt.Current_Directory>
/home/itssahil/PROJECTS/Mol_Feturizer/Test_systems_manuscript/rnas/4fe5

>  <Rbt.Executable>
rbdock ($Id: //depot/dev/client3/rdock/2013.1/src/exe/rbdock.cxx#4 $)

>  <Rbt.Library>
libRbt.so (2013.1, Build901 2013/11/27)

>  <Rbt.Parameter_File>
/export/apps/rDock/src/rDock_2013.1_src/data/scripts/dock_solv.prm

>  <Rbt.Receptor>
prm/pocket_docking_8.prm

>  <SCORE>
-17.5101

>  <SCORE.INTER>
-17.5101

>  <SCORE.INTER.CONST>
1

>  <SCORE.INTER.POLAR>
0

>  <SCORE.INTER.ROT>
0

>  <SCORE.INTER.SOLV>
3.53166

>  <SCORE.INTER.VDW>
-16.4506

>  <SCORE.INTER.norm>
-1.75101

>  <SCORE.INTRA>
0

>  <SCORE.INTRA.DIHEDRAL>
0

>  <SCORE.INTRA.DIHEDRAL.0>
0

>  <SCORE.INTRA.POLAR>
0

>  <SCORE.INTRA.POLAR.0>
0

>  <SCORE.INTRA.REPUL>
0

>  <SCORE.INTRA.REPUL.0>
0

>  <SCORE.INTRA.SOLV>
0

>  <SCORE.INTRA.SOLV.lig_0>
-4.28333

>  <SCORE.INTRA.VDW>
0

>  <SCORE.INTRA.VDW.0>
0

>  <SCORE.INTRA.norm>
0

>  <SCORE.RESTR>
0

>  <SCORE.RESTR.CAVITY>
0

>  <SCORE.RESTR.norm>
0

>  <SCORE.SYSTEM>
0

>  <SCORE.SYSTEM.CONST>
0

>  <SCORE.SYSTEM.DIHEDRAL>
0

>  <SCORE.SYSTEM.SOLV>
0

>  <SCORE.SYSTEM.norm>
0

>  <SCORE.heavy>
10

>  <SCORE.norm>
-1.75101

>  <RMSD>
0.478

$$$$
ligand
 OpenBabel02271912143D
libRbt.so/2013.1/901 2013/11/27
 10 11  0  0  0  0  0  0  0  0999 V2000
   11.9385   10.8101    8.6557 N   0  0  0  0  0  0  0  0  0  0  0  0
   11.6220   12.1420    8.7855 C   0  0  0  0  0  0  0  0  0  0  0  0
   11.2520   12.8871    7.7423 N   0  0  0  0  0  0  0  0  0  0  0  0
   11.2248   12.1981    6.5661 C   0  0  0  0  0  0  0  0  0  0  0  0
   11.5313   10.8661    6.3690 C   0  0  0  0  0  0  0  0  0  0  0  0
   11.9250   10.0654    7.4760 C   0  0  0  0  0  0  0  0  0  0  0  0
   12.2369    8.8696    7.5286 O   0  0  0  0  0  0  0  0  0  0  0  0
   11.3765   10.5782    5.0421 N   0  0  0  0  0  0  0  0  0  0  0  0
   10.9774   11.7223    4.4395 C   0  0  0  0  0  0  0  0  0  0  0  0
   10.8749   12.7455    5.3572 N   0  0  0  0  0  0  0  0  0  0  0  0
  1  2  1  0  0  0  0
  1  6  1  0  0  0  0
  2  3  2  0  0  0  0
  3  4  1  0  0  0  0
  4  5  2  0  0  0  0
  4 10  1  0  0  0  0
  5  6  1  0  0  0  0
  5  8  1  0  0  0  0
  6  7  2  0  0  0  0
  8  9  1  0  0  0  0
  9 10  2  0  0  0  0
M  END
>  <CHROM.1>
11.51012349,11.24361120,6.81244762,0.43288470,-1.27230835,0.97555729

>  <Name>
ligand

>  <RI>
0

>  <Rbt.Current_Directory>
/home/itssahil/PROJECTS/Mol_Feturizer/Test_systems_manuscript/rnas/4fe5

>  <Rbt.Executable>
rbdock ($Id: //depot/dev/client3/rdock/2013.1/src/exe/rbdock.cxx#4 $)

>  <Rbt.Library>
libRbt.so (2013.1, Build901 2013/11/27)

>  <Rbt.Parameter_File>
/export/apps/rDock/src/rDock_2013.1_src/data/scripts/dock_solv.prm

>  <Rbt.Receptor>
prm/blind_docking_80.prm

>  <SCORE>
-17.4986

>  <SCORE.INTER>
-17.4992

>  <SCORE.INTER.CONST>
1

>  <SCORE.INTER.POLAR>
0

>  <SCORE.INTER.ROT>
0

>  <SCORE.INTER.SOLV>
3.52598

>  <SCORE.INTER.VDW>
-16.4415

>  <SCORE.INTER.norm>
-1.74992

>  <SCORE.INTRA>
0

>  <SCORE.INTRA.DIHEDRAL>
0

>  <SCORE.INTRA.DIHEDRAL.0>
0

>  <SCORE.INTRA.POLAR>
0

>  <SCORE.INTRA.POLAR.0>
0

>  <SCORE.INTRA.REPUL>
0

>  <SCORE.INTRA.REPUL.0>
0

>  <SCORE.INTRA.SOLV>
0

>  <SCORE.INTRA.SOLV.lig_0>
-4.28333

>  <SCORE.INTRA.VDW>
0

>  <SCORE.INTRA.VDW.0>
0

>  <SCORE.INTRA.norm>
0

>  <SCORE.RESTR>
0.000578782

>  <SCORE.RESTR.CAVITY>
0.000578782

>  <SCORE.RESTR.norm>
5.78782e-05

>  <SCORE.SYSTEM>
0

>  <SCORE.SYSTEM.CONST>
0

>  <SCORE.SYSTEM.DIHEDRAL>
0

>  <SCORE.SYSTEM.SOLV>
0

>  <SCORE.SYSTEM.norm>
0

>  <SCORE.heavy>
10

>  <SCORE.norm>
-1.74986

>  <RMSD>
0.479

$$$$
ligand
 OpenBabel02271912143D
libRbt.so/2013.1/901 2013/11/27
 10 11  0  0  0  0  0  0  0  0999 V2000
   11.9532   10.8074    8.6491 N   0  0  0  0  0  0  0  0  0  0  0  0
   11.6230   12.1353    8.7849 C   0  0  0  0  0  0  0  0  0  0  0  0
   11.2499   12.8825    7.7443 N   0  0  0  0  0  0  0  0  0  0  0  0
   11.2343   12.1998    6.5642 C   0  0  0  0  0  0  0  0  0  0  0  0
   11.5549   10.8719    6.3611 C   0  0  0  0  0  0  0  0  0  0  0  0
   11.9519   10.0691    7.4653 C   0  0  0  0  0  0  0  0  0  0  0  0
   12.2756    8.8762    7.5126 O   0  0  0  0  0  0  0  0  0  0  0  0
   11.4083   10.5899    5.0320 N   0  0  0  0  0  0  0  0  0  0  0  0
   11.0004   11.7333    4.4341 C   0  0  0  0  0  0  0  0  0  0  0  0
   10.8839   12.7504    5.3569 N   0  0  0  0  0  0  0  0  0  0  0  0
  1  2  1  0  0  0  0
  1  6  1  0  0  0  0
  2  3  2  0  0  0  0
  3  4  1  0  0  0  0
  4  5  2  0  0  0  0
  4 10  1  0  0  0  0
  5  6  1  0  0  0  0
  5  8  1  0  0  0  0
  6  7  2  0  0  0  0
  8  9  1  0  0  0  0
  9 10  2  0  0  0  0
M  END
>  <CHROM.1>
11.52812126,11.24680074,6.80652518,0.46272519,-1.26624114,1.00957513

>  <Name>
ligand

>  <RI>
0

>  <Rbt.Current_Directory>
/home/itssahil/PROJECTS/Mol_Feturizer/Test_systems_manuscript/rnas/4fe5

>  <Rbt.Executable>
rbdock ($Id: //depot/dev/client3/rdock/2013.1/src/exe/rbdock.cxx#4 $)

>  <Rbt.Library>
libRbt.so (2013.1, Build901 2013/11/27)

>  <Rbt.Parameter_File>
/export/apps/rDock/src/rDock_2013.1_src/data/scripts/dock_solv.prm

>  <Rbt.Receptor>
prm/pocket_docking_3.prm

>  <SCORE>
-17.524

>  <SCORE.INTER>
-17.524

>  <SCORE.INTER.CONST>
1

>  <SCORE.INTER.POLAR>
0

>  <SCORE.INTER.ROT>
0

>  <SCORE.INTER.SOLV>
3.50483

>  <SCORE.INTER.VDW>
-16.451

>  <SCORE.INTER.norm>
-1.7524

>  <SCORE.INTRA>
0

>  <SCORE.INTRA.DIHEDRAL>
0

>  <SCORE.INTRA.DIHEDRAL.0>
0

>  <SCORE.INTRA.POLAR>
0

>  <SCORE.INTRA.POLAR.0>
0

>  <SCORE.INTRA.REPUL>
0

>  <SCORE.INTRA.REPUL.0>
0

>  <SCORE.INTRA.SOLV>
0

>  <SCORE.INTRA.SOLV.lig_0>
-4.28333

>  <SCORE.INTRA.VDW>
0

>  <SCORE.INTRA.VDW.0>
0

>  <SCORE.INTRA.norm>
0

>  <SCORE.RESTR>
0

>  <SCORE.RESTR.CAVITY>
0

>  <SCORE.RESTR.norm>
0

>  <SCORE.SYSTEM>
0

>  <SCORE.SYSTEM.CONST>
0

>  <SCORE.SYSTEM.DIHEDRAL>
0

>  <SCORE.SYSTEM.SOLV>
0

>  <SCORE.SYSTEM.norm>
0

>  <SCORE.heavy>
10

>  <SCORE.norm>
-1.7524

>  <RMSD>
0.479

$$$$
ligand
 OpenBabel02271912143D
libRbt.so/2013.1/901 2013/11/27
 10 11  0  0  0  0  0  0  0  0999 V2000
   11.8599   10.8015    8.6912 N   0  0  0  0  0  0  0  0  0  0  0  0
   11.5776   12.1435    8.7942 C   0  0  0  0  0  0  0  0  0  0  0  0
   11.2458   12.8810    7.7330 N   0  0  0  0  0  0  0  0  0  0  0  0
   11.2197   12.1737    6.5676 C   0  0  0  0  0  0  0  0  0  0  0  0
   11.4931   10.8308    6.3972 C   0  0  0  0  0  0  0  0  0  0  0  0
   11.8460   10.0382    7.5235 C   0  0  0  0  0  0  0  0  0  0  0  0
   12.1244    8.8355    7.6006 O   0  0  0  0  0  0  0  0  0  0  0  0
   11.3529   10.5255    5.0726 N   0  0  0  0  0  0  0  0  0  0  0  0
   10.9954   11.6699    4.4450 C   0  0  0  0  0  0  0  0  0  0  0  0
   10.9053   12.7104    5.3443 N   0  0  0  0  0  0  0  0  0  0  0  0
  1  2  1  0  0  0  0
  1  6  1  0  0  0  0
  2  3  2  0  0  0  0
  3  4  1  0  0  0  0
  4  5  2  0  0  0  0
  4 10  1  0  0  0  0
  5  6  1  0  0  0  0
  5  8  1  0  0  0  0
  6  7  2  0  0  0  0
  8  9  1  0  0  0  0
  9 10  2  0  0  0  0
M  END
>  <CHROM.1>
11.47468502,11.21606340,6.83413740,0.42803988,-1.30433505,0.95469256

>  <Name>
ligand

>  <RI>
0

>  <Rbt.Current_Directory>
/home/itssahil/PROJECTS/Mol_Feturizer/Test_systems_manuscript/rnas/4fe5

>  <Rbt.Executable>
rbdock ($Id: //depot/dev/client3/rdock/2013.1/src/exe/rbdock.cxx#4 $)

>  <Rbt.Library>
libRbt.so (2013.1, Build901 2013/11/27)

>  <Rbt.Parameter_File>
/export/apps/rDock/src/rDock_2013.1_src/data/scripts/dock_solv.prm

>  <Rbt.Receptor>
prm/blind_docking_100.prm

>  <SCORE>
-17.4157

>  <SCORE.INTER>
-17.4157

>  <SCORE.INTER.CONST>
1

>  <SCORE.INTER.POLAR>
0

>  <SCORE.INTER.ROT>
0

>  <SCORE.INTER.SOLV>
3.66502

>  <SCORE.INTER.VDW>
-16.4321

>  <SCORE.INTER.norm>
-1.74157

>  <SCORE.INTRA>
0

>  <SCORE.INTRA.DIHEDRAL>
0

>  <SCORE.INTRA.DIHEDRAL.0>
0

>  <SCORE.INTRA.POLAR>
0

>  <SCORE.INTRA.POLAR.0>
0

>  <SCORE.INTRA.REPUL>
0

>  <SCORE.INTRA.REPUL.0>
0

>  <SCORE.INTRA.SOLV>
0

>  <SCORE.INTRA.SOLV.lig_0>
-4.28333

>  <SCORE.INTRA.VDW>
0

>  <SCORE.INTRA.VDW.0>
0

>  <SCORE.INTRA.norm>
0

>  <SCORE.RESTR>
8.79925e-06

>  <SCORE.RESTR.CAVITY>
8.79925e-06

>  <SCORE.RESTR.norm>
8.79925e-07

>  <SCORE.SYSTEM>
0

>  <SCORE.SYSTEM.CONST>
0

>  <SCORE.SYSTEM.DIHEDRAL>
0

>  <SCORE.SYSTEM.SOLV>
0

>  <SCORE.SYSTEM.norm>
0

>  <SCORE.heavy>
10

>  <SCORE.norm>
-1.74157

>  <RMSD>
0.480

$$$$
ligand
 OpenBabel02271912143D
libRbt.so/2013.1/901 2013/11/27
 10 11  0  0  0  0  0  0  0  0999 V2000
   11.9582   10.8092    8.6461 N   0  0  0  0  0  0  0  0  0  0  0  0
   11.6324   12.1381    8.7831 C   0  0  0  0  0  0  0  0  0  0  0  0
   11.2531   12.8851    7.7446 N   0  0  0  0  0  0  0  0  0  0  0  0
   11.2267   12.2013    6.5654 C   0  0  0  0  0  0  0  0  0  0  0  0
   11.5424   10.8725    6.3611 C   0  0  0  0  0  0  0  0  0  0  0  0
   11.9460   10.0698    7.4630 C   0  0  0  0  0  0  0  0  0  0  0  0
   12.2670    8.8761    7.5090 O   0  0  0  0  0  0  0  0  0  0  0  0
   11.3848   10.5895    5.0335 N   0  0  0  0  0  0  0  0  0  0  0  0
   10.9751   11.7333    4.4376 C   0  0  0  0  0  0  0  0  0  0  0  0
   10.8683   12.7516    5.3603 N   0  0  0  0  0  0  0  0  0  0  0  0
  1  2  1  0  0  0  0
  1  6  1  0  0  0  0
  2  3  2  0  0  0  0
  3  4  1  0  0  0  0
  4  5  2  0  0  0  0
  4 10  1  0  0  0  0
  5  6  1  0  0  0  0
  5  8  1  0  0  0  0
  6  7  2  0  0  0  0
  8  9  1  0  0  0  0
  9 10  2  0  0  0  0
M  END
>  <CHROM.1>
11.51998336,11.24784692,6.80638641,0.43666518,-1.26413107,0.98372657

>  <Name>
ligand

>  <RI>
0

>  <Rbt.Current_Directory>
/home/itssahil/PROJECTS/Mol_Feturizer/Test_systems_manuscript/rnas/4fe5

>  <Rbt.Executable>
rbdock ($Id: //depot/dev/client3/rdock/2013.1/src/exe/rbdock.cxx#4 $)

>  <Rbt.Library>
libRbt.so (2013.1, Build901 2013/11/27)

>  <Rbt.Parameter_File>
/export/apps/rDock/src/rDock_2013.1_src/data/scripts/dock_solv.prm

>  <Rbt.Receptor>
prm/blind_docking_100.prm

>  <SCORE>
-17.5361

>  <SCORE.INTER>
-17.5361

>  <SCORE.INTER.CONST>
1

>  <SCORE.INTER.POLAR>
0

>  <SCORE.INTER.ROT>
0

>  <SCORE.INTER.SOLV>
3.49977

>  <SCORE.INTER.VDW>
-16.4573

>  <SCORE.INTER.norm>
-1.75361

>  <SCORE.INTRA>
0

>  <SCORE.INTRA.DIHEDRAL>
0

>  <SCORE.INTRA.DIHEDRAL.0>
0

>  <SCORE.INTRA.POLAR>
0

>  <SCORE.INTRA.POLAR.0>
0

>  <SCORE.INTRA.REPUL>
0

>  <SCORE.INTRA.REPUL.0>
0

>  <SCORE.INTRA.SOLV>
0

>  <SCORE.INTRA.SOLV.lig_0>
-4.28333

>  <SCORE.INTRA.VDW>
0

>  <SCORE.INTRA.VDW.0>
0

>  <SCORE.INTRA.norm>
0

>  <SCORE.RESTR>
0

>  <SCORE.RESTR.CAVITY>
0

>  <SCORE.RESTR.norm>
0

>  <SCORE.SYSTEM>
0

>  <SCORE.SYSTEM.CONST>
0

>  <SCORE.SYSTEM.DIHEDRAL>
0

>  <SCORE.SYSTEM.SOLV>
0

>  <SCORE.SYSTEM.norm>
0

>  <SCORE.heavy>
10

>  <SCORE.norm>
-1.75361

>  <RMSD>
0.480

$$$$
ligand
 OpenBabel02271912143D
libRbt.so/2013.1/901 2013/11/27
 10 11  0  0  0  0  0  0  0  0999 V2000
   11.9211   10.8298    8.6693 N   0  0  0  0  0  0  0  0  0  0  0  0
   11.6141   12.1654    8.7827 C   0  0  0  0  0  0  0  0  0  0  0  0
   11.2530   12.9011    7.7298 N   0  0  0  0  0  0  0  0  0  0  0  0
   11.2245   12.1988    6.5615 C   0  0  0  0  0  0  0  0  0  0  0  0
   11.5218   10.8624    6.3808 C   0  0  0  0  0  0  0  0  0  0  0  0
   11.9059   10.0717    7.4982 C   0  0  0  0  0  0  0  0  0  0  0  0
   12.2089    8.8743    7.5656 O   0  0  0  0  0  0  0  0  0  0  0  0
   11.3690   10.5604    5.0567 N   0  0  0  0  0  0  0  0  0  0  0  0
   10.9804   11.7004    4.4398 C   0  0  0  0  0  0  0  0  0  0  0  0
   10.8825   12.7348    5.3453 N   0  0  0  0  0  0  0  0  0  0  0  0
  1  2  1  0  0  0  0
  1  6  1  0  0  0  0
  2  3  2  0  0  0  0
  3  4  1  0  0  0  0
  4  5  2  0  0  0  0
  4 10  1  0  0  0  0
  5  6  1  0  0  0  0
  5  8  1  0  0  0  0
  6  7  2  0  0  0  0
  8  9  1  0  0  0  0
  9 10  2  0  0  0  0
M  END
>  <CHROM.1>
11.50191341,11.24516629,6.81979150,0.42771540,-1.28022505,0.95909240

>  <Name>
ligand

>  <RI>
0

>  <Rbt.Current_Directory>
/home/itssahil/PROJECTS/Mol_Feturizer/Test_systems_manuscript/rnas/4fe5

>  <Rbt.Executable>
rbdock ($Id: //depot/dev/client3/rdock/2013.1/src/exe/rbdock.cxx#4 $)

>  <Rbt.Library>
libRbt.so (2013.1, Build901 2013/11/27)

>  <Rbt.Parameter_File>
/export/apps/rDock/src/rDock_2013.1_src/data/scripts/dock_solv.prm

>  <Rbt.Receptor>
prm/blind_docking_60.prm

>  <SCORE>
-17.5103

>  <SCORE.INTER>
-17.52

>  <SCORE.INTER.CONST>
1

>  <SCORE.INTER.POLAR>
0

>  <SCORE.INTER.ROT>
0

>  <SCORE.INTER.SOLV>
3.55973

>  <SCORE.INTER.VDW>
-16.4666

>  <SCORE.INTER.norm>
-1.752

>  <SCORE.INTRA>
0

>  <SCORE.INTRA.DIHEDRAL>
0

>  <SCORE.INTRA.DIHEDRAL.0>
0

>  <SCORE.INTRA.POLAR>
0

>  <SCORE.INTRA.POLAR.0>
0

>  <SCORE.INTRA.REPUL>
0

>  <SCORE.INTRA.REPUL.0>
0

>  <SCORE.INTRA.SOLV>
0

>  <SCORE.INTRA.SOLV.lig_0>
-4.28333

>  <SCORE.INTRA.VDW>
0

>  <SCORE.INTRA.VDW.0>
0

>  <SCORE.INTRA.norm>
0

>  <SCORE.RESTR>
0.00968253

>  <SCORE.RESTR.CAVITY>
0.00968253

>  <SCORE.RESTR.norm>
0.000968253

>  <SCORE.SYSTEM>
0

>  <SCORE.SYSTEM.CONST>
0

>  <SCORE.SYSTEM.DIHEDRAL>
0

>  <SCORE.SYSTEM.SOLV>
0

>  <SCORE.SYSTEM.norm>
0

>  <SCORE.heavy>
10

>  <SCORE.norm>
-1.75103

>  <RMSD>
0.480

$$$$
ligand
 OpenBabel02271912143D
libRbt.so/2013.1/901 2013/11/27
 10 11  0  0  0  0  0  0  0  0999 V2000
   11.9306   10.8131    8.6580 N   0  0  0  0  0  0  0  0  0  0  0  0
   11.6095   12.1444    8.7828 C   0  0  0  0  0  0  0  0  0  0  0  0
   11.2431   12.8858    7.7358 N   0  0  0  0  0  0  0  0  0  0  0  0
   11.2242   12.1939    6.5612 C   0  0  0  0  0  0  0  0  0  0  0  0
   11.5357   10.8623    6.3690 C   0  0  0  0  0  0  0  0  0  0  0  0
   11.9256   10.0655    7.4801 C   0  0  0  0  0  0  0  0  0  0  0  0
   12.2408    8.8707    7.5373 O   0  0  0  0  0  0  0  0  0  0  0  0
   11.3889   10.5707    5.0420 N   0  0  0  0  0  0  0  0  0  0  0  0
   10.9898   11.7122    4.4345 C   0  0  0  0  0  0  0  0  0  0  0  0
   10.8793   12.7373    5.3491 N   0  0  0  0  0  0  0  0  0  0  0  0
  1  2  1  0  0  0  0
  1  6  1  0  0  0  0
  2  3  2  0  0  0  0
  3  4  1  0  0  0  0
  4  5  2  0  0  0  0
  4 10  1  0  0  0  0
  5  6  1  0  0  0  0
  5  8  1  0  0  0  0
  6  7  2  0  0  0  0
  8  9  1  0  0  0  0
  9 10  2  0  0  0  0
M  END
>  <CHROM.1>
11.51097444,11.24084069,6.81141423,0.45373847,-1.27288603,0.99305191

>  <Name>
ligand

>  <RI>
0

>  <Rbt.Current_Directory>
/home/itssahil/PROJECTS/Mol_Feturizer/Test_systems_manuscript/rnas/4fe5

>  <Rbt.Executable>
rbdock ($Id: //depot/dev/client3/rdock/2013.1/src/exe/rbdock.cxx#4 $)

>  <Rbt.Library>
libRbt.so (2013.1, Build901 2013/11/27)

>  <Rbt.Parameter_File>
/export/apps/rDock/src/rDock_2013.1_src/data/scripts/dock_solv.prm

>  <Rbt.Receptor>
prm/pocket_docking_3.prm

>  <SCORE>
-17.5186

>  <SCORE.INTER>
-17.5186

>  <SCORE.INTER.CONST>
1

>  <SCORE.INTER.POLAR>
0

>  <SCORE.INTER.ROT>
0

>  <SCORE.INTER.SOLV>
3.53077

>  <SCORE.INTER.VDW>
-16.456

>  <SCORE.INTER.norm>
-1.75186

>  <SCORE.INTRA>
0

>  <SCORE.INTRA.DIHEDRAL>
0

>  <SCORE.INTRA.DIHEDRAL.0>
0

>  <SCORE.INTRA.POLAR>
0

>  <SCORE.INTRA.POLAR.0>
0

>  <SCORE.INTRA.REPUL>
0

>  <SCORE.INTRA.REPUL.0>
0

>  <SCORE.INTRA.SOLV>
0

>  <SCORE.INTRA.SOLV.lig_0>
-4.28333

>  <SCORE.INTRA.VDW>
0

>  <SCORE.INTRA.VDW.0>
0

>  <SCORE.INTRA.norm>
0

>  <SCORE.RESTR>
0

>  <SCORE.RESTR.CAVITY>
0

>  <SCORE.RESTR.norm>
0

>  <SCORE.SYSTEM>
0

>  <SCORE.SYSTEM.CONST>
0

>  <SCORE.SYSTEM.DIHEDRAL>
0

>  <SCORE.SYSTEM.SOLV>
0

>  <SCORE.SYSTEM.norm>
0

>  <SCORE.heavy>
10

>  <SCORE.norm>
-1.75186

>  <RMSD>
0.480

$$$$
ligand
 OpenBabel02271912143D
libRbt.so/2013.1/901 2013/11/27
 10 11  0  0  0  0  0  0  0  0999 V2000
   11.9274   10.8141    8.6586 N   0  0  0  0  0  0  0  0  0  0  0  0
   11.6033   12.1445    8.7853 C   0  0  0  0  0  0  0  0  0  0  0  0
   11.2421   12.8884    7.7382 N   0  0  0  0  0  0  0  0  0  0  0  0
   11.2317   12.1999    6.5614 C   0  0  0  0  0  0  0  0  0  0  0  0
   11.5466   10.8694    6.3673 C   0  0  0  0  0  0  0  0  0  0  0  0
   11.9311   10.0700    7.4784 C   0  0  0  0  0  0  0  0  0  0  0  0
   12.2479    8.8756    7.5341 O   0  0  0  0  0  0  0  0  0  0  0  0
   11.4085   10.5814    5.0385 N   0  0  0  0  0  0  0  0  0  0  0  0
   11.0112   11.7240    4.4319 C   0  0  0  0  0  0  0  0  0  0  0  0
   10.8933   12.7463    5.3488 N   0  0  0  0  0  0  0  0  0  0  0  0
  1  2  1  0  0  0  0
  1  6  1  0  0  0  0
  2  3  2  0  0  0  0
  3  4  1  0  0  0  0
  4  5  2  0  0  0  0
  4 10  1  0  0  0  0
  5  6  1  0  0  0  0
  5  8  1  0  0  0  0
  6  7  2  0  0  0  0
  8  9  1  0  0  0  0
  9 10  2  0  0  0  0
M  END
>  <CHROM.1>
11.51851642,11.24658106,6.81065281,0.47471386,-1.27475252,1.01603336

>  <Name>
ligand

>  <RI>
0

>  <Rbt.Current_Directory>
/home/itssahil/PROJECTS/Mol_Feturizer/Test_systems_manuscript/rnas/4fe5

>  <Rbt.Executable>
rbdock ($Id: //depot/dev/client3/rdock/2013.1/src/exe/rbdock.cxx#4 $)

>  <Rbt.Library>
libRbt.so (2013.1, Build901 2013/11/27)

>  <Rbt.Parameter_File>
/export/apps/rDock/src/rDock_2013.1_src/data/scripts/dock_solv.prm

>  <Rbt.Receptor>
prm/blind_docking_100.prm

>  <SCORE>
-17.5024

>  <SCORE.INTER>
-17.5024

>  <SCORE.INTER.CONST>
1

>  <SCORE.INTER.POLAR>
0

>  <SCORE.INTER.ROT>
0

>  <SCORE.INTER.SOLV>
3.53412

>  <SCORE.INTER.VDW>
-16.4463

>  <SCORE.INTER.norm>
-1.75024

>  <SCORE.INTRA>
0

>  <SCORE.INTRA.DIHEDRAL>
0

>  <SCORE.INTRA.DIHEDRAL.0>
0

>  <SCORE.INTRA.POLAR>
0

>  <SCORE.INTRA.POLAR.0>
0

>  <SCORE.INTRA.REPUL>
0

>  <SCORE.INTRA.REPUL.0>
0

>  <SCORE.INTRA.SOLV>
0

>  <SCORE.INTRA.SOLV.lig_0>
-4.28333

>  <SCORE.INTRA.VDW>
0

>  <SCORE.INTRA.VDW.0>
0

>  <SCORE.INTRA.norm>
0

>  <SCORE.RESTR>
0

>  <SCORE.RESTR.CAVITY>
0

>  <SCORE.RESTR.norm>
0

>  <SCORE.SYSTEM>
0

>  <SCORE.SYSTEM.CONST>
0

>  <SCORE.SYSTEM.DIHEDRAL>
0

>  <SCORE.SYSTEM.SOLV>
0

>  <SCORE.SYSTEM.norm>
0

>  <SCORE.heavy>
10

>  <SCORE.norm>
-1.75024

>  <RMSD>
0.481

$$$$
ligand
 OpenBabel02271912143D
libRbt.so/2013.1/901 2013/11/27
 10 11  0  0  0  0  0  0  0  0999 V2000
   11.9547   10.8056    8.6467 N   0  0  0  0  0  0  0  0  0  0  0  0
   11.6280   12.1344    8.7838 C   0  0  0  0  0  0  0  0  0  0  0  0
   11.2536   12.8826    7.7445 N   0  0  0  0  0  0  0  0  0  0  0  0
   11.2329   12.2002    6.5643 C   0  0  0  0  0  0  0  0  0  0  0  0
   11.5497   10.8717    6.3599 C   0  0  0  0  0  0  0  0  0  0  0  0
   11.9481   10.0677    7.4627 C   0  0  0  0  0  0  0  0  0  0  0  0
   12.2690    8.8740    7.5088 O   0  0  0  0  0  0  0  0  0  0  0  0
   11.3985   10.5903    5.0312 N   0  0  0  0  0  0  0  0  0  0  0  0
   10.9915   11.7348    4.4347 C   0  0  0  0  0  0  0  0  0  0  0  0
   10.8802   12.7519    5.3582 N   0  0  0  0  0  0  0  0  0  0  0  0
  1  2  1  0  0  0  0
  1  6  1  0  0  0  0
  2  3  2  0  0  0  0
  3  4  1  0  0  0  0
  4  5  2  0  0  0  0
  4 10  1  0  0  0  0
  5  6  1  0  0  0  0
  5  8  1  0  0  0  0
  6  7  2  0  0  0  0
  8  9  1  0  0  0  0
  9 10  2  0  0  0  0
M  END
>  <CHROM.1>
11.52511565,11.24648917,6.80549307,0.45011394,-1.26663437,0.99776277

>  <Name>
ligand

>  <RI>
0

>  <Rbt.Current_Directory>
/home/itssahil/PROJECTS/Mol_Feturizer/Test_systems_manuscript/rnas/4fe5

>  <Rbt.Executable>
rbdock ($Id: //depot/dev/client3/rdock/2013.1/src/exe/rbdock.cxx#4 $)

>  <Rbt.Library>
libRbt.so (2013.1, Build901 2013/11/27)

>  <Rbt.Parameter_File>
/export/apps/rDock/src/rDock_2013.1_src/data/scripts/dock_solv.prm

>  <Rbt.Receptor>
prm/blind_docking_80.prm

>  <SCORE>
-17.5345

>  <SCORE.INTER>
-17.5345

>  <SCORE.INTER.CONST>
1

>  <SCORE.INTER.POLAR>
0

>  <SCORE.INTER.ROT>
0

>  <SCORE.INTER.SOLV>
3.50505

>  <SCORE.INTER.VDW>
-16.458

>  <SCORE.INTER.norm>
-1.75345

>  <SCORE.INTRA>
0

>  <SCORE.INTRA.DIHEDRAL>
0

>  <SCORE.INTRA.DIHEDRAL.0>
0

>  <SCORE.INTRA.POLAR>
0

>  <SCORE.INTRA.POLAR.0>
0

>  <SCORE.INTRA.REPUL>
0

>  <SCORE.INTRA.REPUL.0>
0

>  <SCORE.INTRA.SOLV>
0

>  <SCORE.INTRA.SOLV.lig_0>
-4.28333

>  <SCORE.INTRA.VDW>
0

>  <SCORE.INTRA.VDW.0>
0

>  <SCORE.INTRA.norm>
0

>  <SCORE.RESTR>
0

>  <SCORE.RESTR.CAVITY>
0

>  <SCORE.RESTR.norm>
0

>  <SCORE.SYSTEM>
0

>  <SCORE.SYSTEM.CONST>
0

>  <SCORE.SYSTEM.DIHEDRAL>
0

>  <SCORE.SYSTEM.SOLV>
0

>  <SCORE.SYSTEM.norm>
0

>  <SCORE.heavy>
10

>  <SCORE.norm>
-1.75345

>  <RMSD>
0.481

$$$$
ligand
 OpenBabel02271912143D
libRbt.so/2013.1/901 2013/11/27
 10 11  0  0  0  0  0  0  0  0999 V2000
   11.9631   10.8111    8.6446 N   0  0  0  0  0  0  0  0  0  0  0  0
   11.6372   12.1403    8.7790 C   0  0  0  0  0  0  0  0  0  0  0  0
   11.2551   12.8845    7.7396 N   0  0  0  0  0  0  0  0  0  0  0  0
   11.2260   12.1976    6.5622 C   0  0  0  0  0  0  0  0  0  0  0  0
   11.5416   10.8684    6.3605 C   0  0  0  0  0  0  0  0  0  0  0  0
   11.9481   10.0687    7.4635 C   0  0  0  0  0  0  0  0  0  0  0  0
   12.2696    8.8752    7.5118 O   0  0  0  0  0  0  0  0  0  0  0  0
   11.3808   10.5819    5.0340 N   0  0  0  0  0  0  0  0  0  0  0  0
   10.9693   11.7241    4.4362 C   0  0  0  0  0  0  0  0  0  0  0  0
   10.8644   12.7447    5.3566 N   0  0  0  0  0  0  0  0  0  0  0  0
  1  2  1  0  0  0  0
  1  6  1  0  0  0  0
  2  3  2  0  0  0  0
  3  4  1  0  0  0  0
  4  5  2  0  0  0  0
  4 10  1  0  0  0  0
  5  6  1  0  0  0  0
  5  8  1  0  0  0  0
  6  7  2  0  0  0  0
  8  9  1  0  0  0  0
  9 10  2  0  0  0  0
M  END
>  <CHROM.1>
11.52015445,11.24488792,6.80489364,0.43043567,-1.26248925,0.97521182

>  <Name>
ligand

>  <RI>
0

>  <Rbt.Current_Directory>
/home/itssahil/PROJECTS/Mol_Feturizer/Test_systems_manuscript/rnas/4fe5

>  <Rbt.Executable>
rbdock ($Id: //depot/dev/client3/rdock/2013.1/src/exe/rbdock.cxx#4 $)

>  <Rbt.Library>
libRbt.so (2013.1, Build901 2013/11/27)

>  <Rbt.Parameter_File>
/export/apps/rDock/src/rDock_2013.1_src/data/scripts/dock_solv.prm

>  <Rbt.Receptor>
prm/pocket_docking_3.prm

>  <SCORE>
-17.5328

>  <SCORE.INTER>
-17.5349

>  <SCORE.INTER.CONST>
1

>  <SCORE.INTER.POLAR>
0

>  <SCORE.INTER.ROT>
0

>  <SCORE.INTER.SOLV>
3.49595

>  <SCORE.INTER.VDW>
-16.4553

>  <SCORE.INTER.norm>
-1.75349

>  <SCORE.INTRA>
0

>  <SCORE.INTRA.DIHEDRAL>
0

>  <SCORE.INTRA.DIHEDRAL.0>
0

>  <SCORE.INTRA.POLAR>
0

>  <SCORE.INTRA.POLAR.0>
0

>  <SCORE.INTRA.REPUL>
0

>  <SCORE.INTRA.REPUL.0>
0

>  <SCORE.INTRA.SOLV>
0

>  <SCORE.INTRA.SOLV.lig_0>
-4.28333

>  <SCORE.INTRA.VDW>
0

>  <SCORE.INTRA.VDW.0>
0

>  <SCORE.INTRA.norm>
0

>  <SCORE.RESTR>
0.00216942

>  <SCORE.RESTR.CAVITY>
0.00216942

>  <SCORE.RESTR.norm>
0.000216942

>  <SCORE.SYSTEM>
0

>  <SCORE.SYSTEM.CONST>
0

>  <SCORE.SYSTEM.DIHEDRAL>
0

>  <SCORE.SYSTEM.SOLV>
0

>  <SCORE.SYSTEM.norm>
0

>  <SCORE.heavy>
10

>  <SCORE.norm>
-1.75328

>  <RMSD>
0.481

$$$$
ligand
 OpenBabel02271912143D
libRbt.so/2013.1/901 2013/11/27
 10 11  0  0  0  0  0  0  0  0999 V2000
   11.9514   10.8126    8.6472 N   0  0  0  0  0  0  0  0  0  0  0  0
   11.6209   12.1405    8.7827 C   0  0  0  0  0  0  0  0  0  0  0  0
   11.2426   12.8860    7.7428 N   0  0  0  0  0  0  0  0  0  0  0  0
   11.2222   12.2017    6.5637 C   0  0  0  0  0  0  0  0  0  0  0  0
   11.5428   10.8738    6.3609 C   0  0  0  0  0  0  0  0  0  0  0  0
   11.9454   10.0728    7.4644 C   0  0  0  0  0  0  0  0  0  0  0  0
   12.2700    8.8802    7.5118 O   0  0  0  0  0  0  0  0  0  0  0  0
   11.3905   10.5899    5.0328 N   0  0  0  0  0  0  0  0  0  0  0  0
   10.9790   11.7323    4.4353 C   0  0  0  0  0  0  0  0  0  0  0  0
   10.8660   12.7504    5.3573 N   0  0  0  0  0  0  0  0  0  0  0  0
  1  2  1  0  0  0  0
  1  6  1  0  0  0  0
  2  3  2  0  0  0  0
  3  4  1  0  0  0  0
  4  5  2  0  0  0  0
  4 10  1  0  0  0  0
  5  6  1  0  0  0  0
  5  8  1  0  0  0  0
  6  7  2  0  0  0  0
  8  9  1  0  0  0  0
  9 10  2  0  0  0  0
M  END
>  <CHROM.1>
11.51776553,11.24926986,6.80595071,0.45143111,-1.26323727,0.99747228

>  <Name>
ligand

>  <RI>
0

>  <Rbt.Current_Directory>
/home/itssahil/PROJECTS/Mol_Feturizer/Test_systems_manuscript/rnas/4fe5

>  <Rbt.Executable>
rbdock ($Id: //depot/dev/client3/rdock/2013.1/src/exe/rbdock.cxx#4 $)

>  <Rbt.Library>
libRbt.so (2013.1, Build901 2013/11/27)

>  <Rbt.Parameter_File>
/export/apps/rDock/src/rDock_2013.1_src/data/scripts/dock_solv.prm

>  <Rbt.Receptor>
prm/pocket_docking_4.prm

>  <SCORE>
-17.5262

>  <SCORE.INTER>
-17.5262

>  <SCORE.INTER.CONST>
1

>  <SCORE.INTER.POLAR>
0

>  <SCORE.INTER.ROT>
0

>  <SCORE.INTER.SOLV>
3.50057

>  <SCORE.INTER.VDW>
-16.451

>  <SCORE.INTER.norm>
-1.75262

>  <SCORE.INTRA>
0

>  <SCORE.INTRA.DIHEDRAL>
0

>  <SCORE.INTRA.DIHEDRAL.0>
0

>  <SCORE.INTRA.POLAR>
0

>  <SCORE.INTRA.POLAR.0>
0

>  <SCORE.INTRA.REPUL>
0

>  <SCORE.INTRA.REPUL.0>
0

>  <SCORE.INTRA.SOLV>
0

>  <SCORE.INTRA.SOLV.lig_0>
-4.28333

>  <SCORE.INTRA.VDW>
0

>  <SCORE.INTRA.VDW.0>
0

>  <SCORE.INTRA.norm>
0

>  <SCORE.RESTR>
0

>  <SCORE.RESTR.CAVITY>
0

>  <SCORE.RESTR.norm>
0

>  <SCORE.SYSTEM>
0

>  <SCORE.SYSTEM.CONST>
0

>  <SCORE.SYSTEM.DIHEDRAL>
0

>  <SCORE.SYSTEM.SOLV>
0

>  <SCORE.SYSTEM.norm>
0

>  <SCORE.heavy>
10

>  <SCORE.norm>
-1.75262

>  <RMSD>
0.481

$$$$
ligand
 OpenBabel02271912143D
libRbt.so/2013.1/901 2013/11/27
 10 11  0  0  0  0  0  0  0  0999 V2000
   11.9630   10.8137    8.6457 N   0  0  0  0  0  0  0  0  0  0  0  0
   11.6397   12.1434    8.7817 C   0  0  0  0  0  0  0  0  0  0  0  0
   11.2579   12.8893    7.7434 N   0  0  0  0  0  0  0  0  0  0  0  0
   11.2261   12.2036    6.5654 C   0  0  0  0  0  0  0  0  0  0  0  0
   11.5389   10.8739    6.3622 C   0  0  0  0  0  0  0  0  0  0  0  0
   11.9452   10.0724    7.4639 C   0  0  0  0  0  0  0  0  0  0  0  0
   12.2646    8.8783    7.5107 O   0  0  0  0  0  0  0  0  0  0  0  0
   11.3761   10.5890    5.0356 N   0  0  0  0  0  0  0  0  0  0  0  0
   10.9660   11.7325    4.4393 C   0  0  0  0  0  0  0  0  0  0  0  0
   10.8642   12.7524    5.3607 N   0  0  0  0  0  0  0  0  0  0  0  0
  1  2  1  0  0  0  0
  1  6  1  0  0  0  0
  2  3  2  0  0  0  0
  3  4  1  0  0  0  0
  4  5  2  0  0  0  0
  4 10  1  0  0  0  0
  5  6  1  0  0  0  0
  5  8  1  0  0  0  0
  6  7  2  0  0  0  0
  8  9  1  0  0  0  0
  9 10  2  0  0  0  0
M  END
>  <CHROM.1>
11.51873736,11.25004184,6.80690926,0.42374501,-1.26339370,0.96976205

>  <Name>
ligand

>  <RI>
0

>  <Rbt.Current_Directory>
/home/itssahil/PROJECTS/Mol_Feturizer/Test_systems_manuscript/rnas/4fe5

>  <Rbt.Executable>
rbdock ($Id: //depot/dev/client3/rdock/2013.1/src/exe/rbdock.cxx#4 $)

>  <Rbt.Library>
libRbt.so (2013.1, Build901 2013/11/27)

>  <Rbt.Parameter_File>
/export/apps/rDock/src/rDock_2013.1_src/data/scripts/dock_solv.prm

>  <Rbt.Receptor>
prm/pocket_docking_5.prm

>  <SCORE>
-17.5341

>  <SCORE.INTER>
-17.5371

>  <SCORE.INTER.CONST>
1

>  <SCORE.INTER.POLAR>
0

>  <SCORE.INTER.ROT>
0

>  <SCORE.INTER.SOLV>
3.49795

>  <SCORE.INTER.VDW>
-16.4574

>  <SCORE.INTER.norm>
-1.75371

>  <SCORE.INTRA>
0

>  <SCORE.INTRA.DIHEDRAL>
0

>  <SCORE.INTRA.DIHEDRAL.0>
0

>  <SCORE.INTRA.POLAR>
0

>  <SCORE.INTRA.POLAR.0>
0

>  <SCORE.INTRA.REPUL>
0

>  <SCORE.INTRA.REPUL.0>
0

>  <SCORE.INTRA.SOLV>
0

>  <SCORE.INTRA.SOLV.lig_0>
-4.28333

>  <SCORE.INTRA.VDW>
0

>  <SCORE.INTRA.VDW.0>
0

>  <SCORE.INTRA.norm>
0

>  <SCORE.RESTR>
0.00302193

>  <SCORE.RESTR.CAVITY>
0.00302193

>  <SCORE.RESTR.norm>
0.000302193

>  <SCORE.SYSTEM>
0

>  <SCORE.SYSTEM.CONST>
0

>  <SCORE.SYSTEM.DIHEDRAL>
0

>  <SCORE.SYSTEM.SOLV>
0

>  <SCORE.SYSTEM.norm>
0

>  <SCORE.heavy>
10

>  <SCORE.norm>
-1.75341

>  <RMSD>
0.481

$$$$
ligand
 OpenBabel02271912143D
libRbt.so/2013.1/901 2013/11/27
 10 11  0  0  0  0  0  0  0  0999 V2000
   11.9570   10.8117    8.6463 N   0  0  0  0  0  0  0  0  0  0  0  0
   11.6309   12.1407    8.7822 C   0  0  0  0  0  0  0  0  0  0  0  0
   11.2516   12.8868    7.7431 N   0  0  0  0  0  0  0  0  0  0  0  0
   11.2254   12.2021    6.5644 C   0  0  0  0  0  0  0  0  0  0  0  0
   11.5413   10.8731    6.3612 C   0  0  0  0  0  0  0  0  0  0  0  0
   11.9449   10.0714    7.4638 C   0  0  0  0  0  0  0  0  0  0  0  0
   12.2661    8.8778    7.5108 O   0  0  0  0  0  0  0  0  0  0  0  0
   11.3839   10.5890    5.0338 N   0  0  0  0  0  0  0  0  0  0  0  0
   10.9740   11.7324    4.4370 C   0  0  0  0  0  0  0  0  0  0  0  0
   10.8670   12.7513    5.3589 N   0  0  0  0  0  0  0  0  0  0  0  0
  1  2  1  0  0  0  0
  1  6  1  0  0  0  0
  2  3  2  0  0  0  0
  3  4  1  0  0  0  0
  4  5  2  0  0  0  0
  4 10  1  0  0  0  0
  5  6  1  0  0  0  0
  5  8  1  0  0  0  0
  6  7  2  0  0  0  0
  8  9  1  0  0  0  0
  9 10  2  0  0  0  0
M  END
>  <CHROM.1>
11.51878306,11.24883923,6.80619437,0.43717422,-1.26404062,0.98341503

>  <Name>
ligand

>  <RI>
0

>  <Rbt.Current_Directory>
/home/itssahil/PROJECTS/Mol_Feturizer/Test_systems_manuscript/rnas/4fe5

>  <Rbt.Executable>
rbdock ($Id: //depot/dev/client3/rdock/2013.1/src/exe/rbdock.cxx#4 $)

>  <Rbt.Library>
libRbt.so (2013.1, Build901 2013/11/27)

>  <Rbt.Parameter_File>
/export/apps/rDock/src/rDock_2013.1_src/data/scripts/dock_solv.prm

>  <Rbt.Receptor>
prm/pocket_docking_7.prm

>  <SCORE>
-17.535

>  <SCORE.INTER>
-17.535

>  <SCORE.INTER.CONST>
1

>  <SCORE.INTER.POLAR>
0

>  <SCORE.INTER.ROT>
0

>  <SCORE.INTER.SOLV>
3.50055

>  <SCORE.INTER.VDW>
-16.4569

>  <SCORE.INTER.norm>
-1.7535

>  <SCORE.INTRA>
0

>  <SCORE.INTRA.DIHEDRAL>
0

>  <SCORE.INTRA.DIHEDRAL.0>
0

>  <SCORE.INTRA.POLAR>
0

>  <SCORE.INTRA.POLAR.0>
0

>  <SCORE.INTRA.REPUL>
0

>  <SCORE.INTRA.REPUL.0>
0

>  <SCORE.INTRA.SOLV>
0

>  <SCORE.INTRA.SOLV.lig_0>
-4.28333

>  <SCORE.INTRA.VDW>
0

>  <SCORE.INTRA.VDW.0>
0

>  <SCORE.INTRA.norm>
0

>  <SCORE.RESTR>
0

>  <SCORE.RESTR.CAVITY>
0

>  <SCORE.RESTR.norm>
0

>  <SCORE.SYSTEM>
0

>  <SCORE.SYSTEM.CONST>
0

>  <SCORE.SYSTEM.DIHEDRAL>
0

>  <SCORE.SYSTEM.SOLV>
0

>  <SCORE.SYSTEM.norm>
0

>  <SCORE.heavy>
10

>  <SCORE.norm>
-1.7535

>  <RMSD>
0.481

$$$$
ligand
 OpenBabel02271912143D
libRbt.so/2013.1/901 2013/11/27
 10 11  0  0  0  0  0  0  0  0999 V2000
   11.9476   10.8064    8.6465 N   0  0  0  0  0  0  0  0  0  0  0  0
   11.6137   12.1333    8.7839 C   0  0  0  0  0  0  0  0  0  0  0  0
   11.2387   12.8806    7.7441 N   0  0  0  0  0  0  0  0  0  0  0  0
   11.2252   12.1993    6.5632 C   0  0  0  0  0  0  0  0  0  0  0  0
   11.5495   10.8727    6.3585 C   0  0  0  0  0  0  0  0  0  0  0  0
   11.9486   10.0696    7.4618 C   0  0  0  0  0  0  0  0  0  0  0  0
   12.2756    8.8776    7.5077 O   0  0  0  0  0  0  0  0  0  0  0  0
   11.4040   10.5918    5.0290 N   0  0  0  0  0  0  0  0  0  0  0  0
   10.9930   11.7348    4.4324 C   0  0  0  0  0  0  0  0  0  0  0  0
   10.8735   12.7504    5.3565 N   0  0  0  0  0  0  0  0  0  0  0  0
  1  2  1  0  0  0  0
  1  6  1  0  0  0  0
  2  3  2  0  0  0  0
  3  4  1  0  0  0  0
  4  5  2  0  0  0  0
  4 10  1  0  0  0  0
  5  6  1  0  0  0  0
  5  8  1  0  0  0  0
  6  7  2  0  0  0  0
  8  9  1  0  0  0  0
  9 10  2  0  0  0  0
M  END
>  <CHROM.1>
11.52163174,11.24689882,6.80438107,0.46818379,-1.26397383,1.01599659

>  <Name>
ligand

>  <RI>
0

>  <Rbt.Current_Directory>
/home/itssahil/PROJECTS/Mol_Feturizer/Test_systems_manuscript/rnas/4fe5

>  <Rbt.Executable>
rbdock ($Id: //depot/dev/client3/rdock/2013.1/src/exe/rbdock.cxx#4 $)

>  <Rbt.Library>
libRbt.so (2013.1, Build901 2013/11/27)

>  <Rbt.Parameter_File>
/export/apps/rDock/src/rDock_2013.1_src/data/scripts/dock_solv.prm

>  <Rbt.Receptor>
prm/pocket_docking_8.prm

>  <SCORE>
-17.5181

>  <SCORE.INTER>
-17.5181

>  <SCORE.INTER.CONST>
1

>  <SCORE.INTER.POLAR>
0

>  <SCORE.INTER.ROT>
0

>  <SCORE.INTER.SOLV>
3.50142

>  <SCORE.INTER.VDW>
-16.4459

>  <SCORE.INTER.norm>
-1.75181

>  <SCORE.INTRA>
0

>  <SCORE.INTRA.DIHEDRAL>
0

>  <SCORE.INTRA.DIHEDRAL.0>
0

>  <SCORE.INTRA.POLAR>
0

>  <SCORE.INTRA.POLAR.0>
0

>  <SCORE.INTRA.REPUL>
0

>  <SCORE.INTRA.REPUL.0>
0

>  <SCORE.INTRA.SOLV>
0

>  <SCORE.INTRA.SOLV.lig_0>
-4.28333

>  <SCORE.INTRA.VDW>
0

>  <SCORE.INTRA.VDW.0>
0

>  <SCORE.INTRA.norm>
0

>  <SCORE.RESTR>
0

>  <SCORE.RESTR.CAVITY>
0

>  <SCORE.RESTR.norm>
0

>  <SCORE.SYSTEM>
0

>  <SCORE.SYSTEM.CONST>
0

>  <SCORE.SYSTEM.DIHEDRAL>
0

>  <SCORE.SYSTEM.SOLV>
0

>  <SCORE.SYSTEM.norm>
0

>  <SCORE.heavy>
10

>  <SCORE.norm>
-1.75181

>  <RMSD>
0.481

$$$$
ligand
 OpenBabel02271912143D
libRbt.so/2013.1/901 2013/11/27
 10 11  0  0  0  0  0  0  0  0999 V2000
   11.8921   10.8291    8.6761 N   0  0  0  0  0  0  0  0  0  0  0  0
   11.5782   12.1633    8.7871 C   0  0  0  0  0  0  0  0  0  0  0  0
   11.2311   12.8997    7.7300 N   0  0  0  0  0  0  0  0  0  0  0  0
   11.2239   12.1996    6.5600 C   0  0  0  0  0  0  0  0  0  0  0  0
   11.5293   10.8646    6.3815 C   0  0  0  0  0  0  0  0  0  0  0  0
   11.8986   10.0732    7.5034 C   0  0  0  0  0  0  0  0  0  0  0  0
   12.2050    8.8769    7.5733 O   0  0  0  0  0  0  0  0  0  0  0  0
   11.3989   10.5647    5.0546 N   0  0  0  0  0  0  0  0  0  0  0  0
   11.0157   11.7044    4.4337 C   0  0  0  0  0  0  0  0  0  0  0  0
   10.8993   12.7366    5.3395 N   0  0  0  0  0  0  0  0  0  0  0  0
  1  2  1  0  0  0  0
  1  6  1  0  0  0  0
  2  3  2  0  0  0  0
  3  4  1  0  0  0  0
  4  5  2  0  0  0  0
  4 10  1  0  0  0  0
  5  6  1  0  0  0  0
  5  8  1  0  0  0  0
  6  7  2  0  0  0  0
  8  9  1  0  0  0  0
  9 10  2  0  0  0  0
M  END
>  <CHROM.1>
11.50092515,11.24647652,6.82089711,0.48213184,-1.28583173,1.01322099

>  <Name>
ligand

>  <RI>
0

>  <Rbt.Current_Directory>
/home/itssahil/PROJECTS/Mol_Feturizer/Test_systems_manuscript/rnas/4fe5

>  <Rbt.Executable>
rbdock ($Id: //depot/dev/client3/rdock/2013.1/src/exe/rbdock.cxx#4 $)

>  <Rbt.Library>
libRbt.so (2013.1, Build901 2013/11/27)

>  <Rbt.Parameter_File>
/export/apps/rDock/src/rDock_2013.1_src/data/scripts/dock_solv.prm

>  <Rbt.Receptor>
prm/blind_docking_40.prm

>  <SCORE>
-17.4388

>  <SCORE.INTER>
-17.4388

>  <SCORE.INTER.CONST>
1

>  <SCORE.INTER.POLAR>
0

>  <SCORE.INTER.ROT>
0

>  <SCORE.INTER.SOLV>
3.58109

>  <SCORE.INTER.VDW>
-16.4196

>  <SCORE.INTER.norm>
-1.74388

>  <SCORE.INTRA>
0

>  <SCORE.INTRA.DIHEDRAL>
0

>  <SCORE.INTRA.DIHEDRAL.0>
0

>  <SCORE.INTRA.POLAR>
0

>  <SCORE.INTRA.POLAR.0>
0

>  <SCORE.INTRA.REPUL>
0

>  <SCORE.INTRA.REPUL.0>
0

>  <SCORE.INTRA.SOLV>
0

>  <SCORE.INTRA.SOLV.lig_0>
-4.28333

>  <SCORE.INTRA.VDW>
0

>  <SCORE.INTRA.VDW.0>
0

>  <SCORE.INTRA.norm>
0

>  <SCORE.RESTR>
0

>  <SCORE.RESTR.CAVITY>
0

>  <SCORE.RESTR.norm>
0

>  <SCORE.SYSTEM>
0

>  <SCORE.SYSTEM.CONST>
0

>  <SCORE.SYSTEM.DIHEDRAL>
0

>  <SCORE.SYSTEM.SOLV>
0

>  <SCORE.SYSTEM.norm>
0

>  <SCORE.heavy>
10

>  <SCORE.norm>
-1.74388

>  <RMSD>
0.482

$$$$
ligand
 OpenBabel02271912143D
libRbt.so/2013.1/901 2013/11/27
 10 11  0  0  0  0  0  0  0  0999 V2000
   11.9347   10.8114    8.6548 N   0  0  0  0  0  0  0  0  0  0  0  0
   11.6200   12.1437    8.7846 C   0  0  0  0  0  0  0  0  0  0  0  0
   11.2515   12.8894    7.7414 N   0  0  0  0  0  0  0  0  0  0  0  0
   11.2238   12.2007    6.5651 C   0  0  0  0  0  0  0  0  0  0  0  0
   11.5286   10.8683    6.3679 C   0  0  0  0  0  0  0  0  0  0  0  0
   11.9206   10.0669    7.4749 C   0  0  0  0  0  0  0  0  0  0  0  0
   12.2309    8.8707    7.5274 O   0  0  0  0  0  0  0  0  0  0  0  0
   11.3738   10.5808    5.0408 N   0  0  0  0  0  0  0  0  0  0  0  0
   10.9766   11.7256    4.4384 C   0  0  0  0  0  0  0  0  0  0  0  0
   10.8751   12.7488    5.3562 N   0  0  0  0  0  0  0  0  0  0  0  0
  1  2  1  0  0  0  0
  1  6  1  0  0  0  0
  2  3  2  0  0  0  0
  3  4  1  0  0  0  0
  4  5  2  0  0  0  0
  4 10  1  0  0  0  0
  5  6  1  0  0  0  0
  5  8  1  0  0  0  0
  6  7  2  0  0  0  0
  8  9  1  0  0  0  0
  9 10  2  0  0  0  0
M  END
>  <CHROM.1>
11.50768970,11.24576758,6.81139841,0.43132291,-1.27367457,0.97423551

>  <Name>
ligand

>  <RI>
0

>  <Rbt.Current_Directory>
/home/itssahil/PROJECTS/Mol_Feturizer/Test_systems_manuscript/rnas/4fe5

>  <Rbt.Executable>
rbdock ($Id: //depot/dev/client3/rdock/2013.1/src/exe/rbdock.cxx#4 $)

>  <Rbt.Library>
libRbt.so (2013.1, Build901 2013/11/27)

>  <Rbt.Parameter_File>
/export/apps/rDock/src/rDock_2013.1_src/data/scripts/dock_solv.prm

>  <Rbt.Receptor>
prm/pocket_docking_3.prm

>  <SCORE>
-17.5005

>  <SCORE.INTER>
-17.5019

>  <SCORE.INTER.CONST>
1

>  <SCORE.INTER.POLAR>
0

>  <SCORE.INTER.ROT>
0

>  <SCORE.INTER.SOLV>
3.52995

>  <SCORE.INTER.VDW>
-16.4446

>  <SCORE.INTER.norm>
-1.75019

>  <SCORE.INTRA>
0

>  <SCORE.INTRA.DIHEDRAL>
0

>  <SCORE.INTRA.DIHEDRAL.0>
0

>  <SCORE.INTRA.POLAR>
0

>  <SCORE.INTRA.POLAR.0>
0

>  <SCORE.INTRA.REPUL>
0

>  <SCORE.INTRA.REPUL.0>
0

>  <SCORE.INTRA.SOLV>
0

>  <SCORE.INTRA.SOLV.lig_0>
-4.28333

>  <SCORE.INTRA.VDW>
0

>  <SCORE.INTRA.VDW.0>
0

>  <SCORE.INTRA.norm>
0

>  <SCORE.RESTR>
0.00132435

>  <SCORE.RESTR.CAVITY>
0.00132435

>  <SCORE.RESTR.norm>
0.000132435

>  <SCORE.SYSTEM>
0

>  <SCORE.SYSTEM.CONST>
0

>  <SCORE.SYSTEM.DIHEDRAL>
0

>  <SCORE.SYSTEM.SOLV>
0

>  <SCORE.SYSTEM.norm>
0

>  <SCORE.heavy>
10

>  <SCORE.norm>
-1.75005

>  <RMSD>
0.482

$$$$
ligand
 OpenBabel02271912143D
libRbt.so/2013.1/901 2013/11/27
 10 11  0  0  0  0  0  0  0  0999 V2000
   11.9282   10.8155    8.6567 N   0  0  0  0  0  0  0  0  0  0  0  0
   11.6058   12.1465    8.7806 C   0  0  0  0  0  0  0  0  0  0  0  0
   11.2378   12.8867    7.7332 N   0  0  0  0  0  0  0  0  0  0  0  0
   11.2190   12.1937    6.5591 C   0  0  0  0  0  0  0  0  0  0  0  0
   11.5318   10.8623    6.3679 C   0  0  0  0  0  0  0  0  0  0  0  0
   11.9233   10.0669    7.4795 C   0  0  0  0  0  0  0  0  0  0  0  0
   12.2398    8.8725    7.5375 O   0  0  0  0  0  0  0  0  0  0  0  0
   11.3844   10.5694    5.0412 N   0  0  0  0  0  0  0  0  0  0  0  0
   10.9837   11.7099    4.4330 C   0  0  0  0  0  0  0  0  0  0  0  0
   10.8727   12.7357    5.3468 N   0  0  0  0  0  0  0  0  0  0  0  0
  1  2  1  0  0  0  0
  1  6  1  0  0  0  0
  2  3  2  0  0  0  0
  3  4  1  0  0  0  0
  4  5  2  0  0  0  0
  4 10  1  0  0  0  0
  5  6  1  0  0  0  0
  5  8  1  0  0  0  0
  6  7  2  0  0  0  0
  8  9  1  0  0  0  0
  9 10  2  0  0  0  0
M  END
>  <CHROM.1>
11.50693107,11.24117142,6.81003844,0.45392659,-1.27162071,0.99236313

>  <Name>
ligand

>  <RI>
0

>  <Rbt.Current_Directory>
/home/itssahil/PROJECTS/Mol_Feturizer/Test_systems_manuscript/rnas/4fe5

>  <Rbt.Executable>
rbdock ($Id: //depot/dev/client3/rdock/2013.1/src/exe/rbdock.cxx#4 $)

>  <Rbt.Library>
libRbt.so (2013.1, Build901 2013/11/27)

>  <Rbt.Parameter_File>
/export/apps/rDock/src/rDock_2013.1_src/data/scripts/dock_solv.prm

>  <Rbt.Receptor>
prm/pocket_docking_4.prm

>  <SCORE>
-17.5151

>  <SCORE.INTER>
-17.5151

>  <SCORE.INTER.CONST>
1

>  <SCORE.INTER.POLAR>
0

>  <SCORE.INTER.ROT>
0

>  <SCORE.INTER.SOLV>
3.52954

>  <SCORE.INTER.VDW>
-16.4532

>  <SCORE.INTER.norm>
-1.75151

>  <SCORE.INTRA>
0

>  <SCORE.INTRA.DIHEDRAL>
0

>  <SCORE.INTRA.DIHEDRAL.0>
0

>  <SCORE.INTRA.POLAR>
0

>  <SCORE.INTRA.POLAR.0>
0

>  <SCORE.INTRA.REPUL>
0

>  <SCORE.INTRA.REPUL.0>
0

>  <SCORE.INTRA.SOLV>
0

>  <SCORE.INTRA.SOLV.lig_0>
-4.28333

>  <SCORE.INTRA.VDW>
0

>  <SCORE.INTRA.VDW.0>
0

>  <SCORE.INTRA.norm>
0

>  <SCORE.RESTR>
0

>  <SCORE.RESTR.CAVITY>
0

>  <SCORE.RESTR.norm>
0

>  <SCORE.SYSTEM>
0

>  <SCORE.SYSTEM.CONST>
0

>  <SCORE.SYSTEM.DIHEDRAL>
0

>  <SCORE.SYSTEM.SOLV>
0

>  <SCORE.SYSTEM.norm>
0

>  <SCORE.heavy>
10

>  <SCORE.norm>
-1.75151

>  <RMSD>
0.482

$$$$
ligand
 OpenBabel02271912143D
libRbt.so/2013.1/901 2013/11/27
 10 11  0  0  0  0  0  0  0  0999 V2000
   11.9509   10.8085    8.6470 N   0  0  0  0  0  0  0  0  0  0  0  0
   11.6202   12.1365    8.7814 C   0  0  0  0  0  0  0  0  0  0  0  0
   11.2478   12.8826    7.7398 N   0  0  0  0  0  0  0  0  0  0  0  0
   11.2333   12.1989    6.5604 C   0  0  0  0  0  0  0  0  0  0  0  0
   11.5543   10.8710    6.3586 C   0  0  0  0  0  0  0  0  0  0  0  0
   11.9507   10.0692    7.4638 C   0  0  0  0  0  0  0  0  0  0  0  0
   12.2746    8.8764    7.5124 O   0  0  0  0  0  0  0  0  0  0  0  0
   11.4088   10.5877    5.0296 N   0  0  0  0  0  0  0  0  0  0  0  0
   11.0011   11.7305    4.4304 C   0  0  0  0  0  0  0  0  0  0  0  0
   10.8836   12.7483    5.3523 N   0  0  0  0  0  0  0  0  0  0  0  0
  1  2  1  0  0  0  0
  1  6  1  0  0  0  0
  2  3  2  0  0  0  0
  3  4  1  0  0  0  0
  4  5  2  0  0  0  0
  4 10  1  0  0  0  0
  5  6  1  0  0  0  0
  5  8  1  0  0  0  0
  6  7  2  0  0  0  0
  8  9  1  0  0  0  0
  9 10  2  0  0  0  0
M  END
>  <CHROM.1>
11.52711343,11.24621707,6.80370618,0.46537464,-1.26643057,1.01123010

>  <Name>
ligand

>  <RI>
0

>  <Rbt.Current_Directory>
/home/itssahil/PROJECTS/Mol_Feturizer/Test_systems_manuscript/rnas/4fe5

>  <Rbt.Executable>
rbdock ($Id: //depot/dev/client3/rdock/2013.1/src/exe/rbdock.cxx#4 $)

>  <Rbt.Library>
libRbt.so (2013.1, Build901 2013/11/27)

>  <Rbt.Parameter_File>
/export/apps/rDock/src/rDock_2013.1_src/data/scripts/dock_solv.prm

>  <Rbt.Receptor>
prm/pocket_docking_5.prm

>  <SCORE>
-17.5221

>  <SCORE.INTER>
-17.5221

>  <SCORE.INTER.CONST>
1

>  <SCORE.INTER.POLAR>
0

>  <SCORE.INTER.ROT>
0

>  <SCORE.INTER.SOLV>
3.50607

>  <SCORE.INTER.VDW>
-16.4501

>  <SCORE.INTER.norm>
-1.75221

>  <SCORE.INTRA>
0

>  <SCORE.INTRA.DIHEDRAL>
0

>  <SCORE.INTRA.DIHEDRAL.0>
0

>  <SCORE.INTRA.POLAR>
0

>  <SCORE.INTRA.POLAR.0>
0

>  <SCORE.INTRA.REPUL>
0

>  <SCORE.INTRA.REPUL.0>
0

>  <SCORE.INTRA.SOLV>
0

>  <SCORE.INTRA.SOLV.lig_0>
-4.28333

>  <SCORE.INTRA.VDW>
0

>  <SCORE.INTRA.VDW.0>
0

>  <SCORE.INTRA.norm>
0

>  <SCORE.RESTR>
0

>  <SCORE.RESTR.CAVITY>
0

>  <SCORE.RESTR.norm>
0

>  <SCORE.SYSTEM>
0

>  <SCORE.SYSTEM.CONST>
0

>  <SCORE.SYSTEM.DIHEDRAL>
0

>  <SCORE.SYSTEM.SOLV>
0

>  <SCORE.SYSTEM.norm>
0

>  <SCORE.heavy>
10

>  <SCORE.norm>
-1.75221

>  <RMSD>
0.482

$$$$
ligand
 OpenBabel02271912143D
libRbt.so/2013.1/901 2013/11/27
 10 11  0  0  0  0  0  0  0  0999 V2000
   11.9512   10.8060    8.6452 N   0  0  0  0  0  0  0  0  0  0  0  0
   11.6238   12.1347    8.7808 C   0  0  0  0  0  0  0  0  0  0  0  0
   11.2514   12.8822    7.7402 N   0  0  0  0  0  0  0  0  0  0  0  0
   11.2333   12.1991    6.5604 C   0  0  0  0  0  0  0  0  0  0  0  0
   11.5509   10.8706    6.3575 C   0  0  0  0  0  0  0  0  0  0  0  0
   11.9473   10.0673    7.4617 C   0  0  0  0  0  0  0  0  0  0  0  0
   12.2685    8.8738    7.5091 O   0  0  0  0  0  0  0  0  0  0  0  0
   11.4026   10.5883    5.0286 N   0  0  0  0  0  0  0  0  0  0  0  0
   10.9965   11.7324    4.4307 C   0  0  0  0  0  0  0  0  0  0  0  0
   10.8830   12.7500    5.3533 N   0  0  0  0  0  0  0  0  0  0  0  0
  1  2  1  0  0  0  0
  1  6  1  0  0  0  0
  2  3  2  0  0  0  0
  3  4  1  0  0  0  0
  4  5  2  0  0  0  0
  4 10  1  0  0  0  0
  5  6  1  0  0  0  0
  5  8  1  0  0  0  0
  6  7  2  0  0  0  0
  8  9  1  0  0  0  0
  9 10  2  0  0  0  0
M  END
>  <CHROM.1>
11.52533625,11.24562172,6.80282575,0.45651957,-1.26751978,1.00328111

>  <Name>
ligand

>  <RI>
0

>  <Rbt.Current_Directory>
/home/itssahil/PROJECTS/Mol_Feturizer/Test_systems_manuscript/rnas/4fe5

>  <Rbt.Executable>
rbdock ($Id: //depot/dev/client3/rdock/2013.1/src/exe/rbdock.cxx#4 $)

>  <Rbt.Library>
libRbt.so (2013.1, Build901 2013/11/27)

>  <Rbt.Parameter_File>
/export/apps/rDock/src/rDock_2013.1_src/data/scripts/dock_solv.prm

>  <Rbt.Receptor>
prm/pocket_docking_5.prm

>  <SCORE>
-17.5317

>  <SCORE.INTER>
-17.5317

>  <SCORE.INTER.CONST>
1

>  <SCORE.INTER.POLAR>
0

>  <SCORE.INTER.ROT>
0

>  <SCORE.INTER.SOLV>
3.50775

>  <SCORE.INTER.VDW>
-16.457

>  <SCORE.INTER.norm>
-1.75317

>  <SCORE.INTRA>
0

>  <SCORE.INTRA.DIHEDRAL>
0

>  <SCORE.INTRA.DIHEDRAL.0>
0

>  <SCORE.INTRA.POLAR>
0

>  <SCORE.INTRA.POLAR.0>
0

>  <SCORE.INTRA.REPUL>
0

>  <SCORE.INTRA.REPUL.0>
0

>  <SCORE.INTRA.SOLV>
0

>  <SCORE.INTRA.SOLV.lig_0>
-4.28333

>  <SCORE.INTRA.VDW>
0

>  <SCORE.INTRA.VDW.0>
0

>  <SCORE.INTRA.norm>
0

>  <SCORE.RESTR>
0

>  <SCORE.RESTR.CAVITY>
0

>  <SCORE.RESTR.norm>
0

>  <SCORE.SYSTEM>
0

>  <SCORE.SYSTEM.CONST>
0

>  <SCORE.SYSTEM.DIHEDRAL>
0

>  <SCORE.SYSTEM.SOLV>
0

>  <SCORE.SYSTEM.norm>
0

>  <SCORE.heavy>
10

>  <SCORE.norm>
-1.75317

>  <RMSD>
0.483

$$$$
ligand
 OpenBabel02271912143D
libRbt.so/2013.1/901 2013/11/27
 10 11  0  0  0  0  0  0  0  0999 V2000
   11.9314   10.8200    8.6547 N   0  0  0  0  0  0  0  0  0  0  0  0
   11.6100   12.1513    8.7777 C   0  0  0  0  0  0  0  0  0  0  0  0
   11.2377   12.8898    7.7306 N   0  0  0  0  0  0  0  0  0  0  0  0
   11.2135   12.1948    6.5578 C   0  0  0  0  0  0  0  0  0  0  0  0
   11.5250   10.8630    6.3675 C   0  0  0  0  0  0  0  0  0  0  0  0
   11.9211   10.0694    7.4787 C   0  0  0  0  0  0  0  0  0  0  0  0
   12.2375    8.8750    7.5373 O   0  0  0  0  0  0  0  0  0  0  0  0
   11.3717   10.5679    5.0420 N   0  0  0  0  0  0  0  0  0  0  0  0
   10.9687   11.7075    4.4336 C   0  0  0  0  0  0  0  0  0  0  0  0
   10.8621   12.7349    5.3461 N   0  0  0  0  0  0  0  0  0  0  0  0
  1  2  1  0  0  0  0
  1  6  1  0  0  0  0
  2  3  2  0  0  0  0
  3  4  1  0  0  0  0
  4  5  2  0  0  0  0
  4 10  1  0  0  0  0
  5  6  1  0  0  0  0
  5  8  1  0  0  0  0
  6  7  2  0  0  0  0
  8  9  1  0  0  0  0
  9 10  2  0  0  0  0
M  END
>  <CHROM.1>
11.50223424,11.24265825,6.80908809,0.44096270,-1.26947904,0.97827905

>  <Name>
ligand

>  <RI>
0

>  <Rbt.Current_Directory>
/home/itssahil/PROJECTS/Mol_Feturizer/Test_systems_manuscript/rnas/4fe5

>  <Rbt.Executable>
rbdock ($Id: //depot/dev/client3/rdock/2013.1/src/exe/rbdock.cxx#4 $)

>  <Rbt.Library>
libRbt.so (2013.1, Build901 2013/11/27)

>  <Rbt.Parameter_File>
/export/apps/rDock/src/rDock_2013.1_src/data/scripts/dock_solv.prm

>  <Rbt.Receptor>
prm/pocket_docking_5.prm

>  <SCORE>
-17.5135

>  <SCORE.INTER>
-17.5135

>  <SCORE.INTER.CONST>
1

>  <SCORE.INTER.POLAR>
0

>  <SCORE.INTER.ROT>
0

>  <SCORE.INTER.SOLV>
3.52527

>  <SCORE.INTER.VDW>
-16.4507

>  <SCORE.INTER.norm>
-1.75135

>  <SCORE.INTRA>
0

>  <SCORE.INTRA.DIHEDRAL>
0

>  <SCORE.INTRA.DIHEDRAL.0>
0

>  <SCORE.INTRA.POLAR>
0

>  <SCORE.INTRA.POLAR.0>
0

>  <SCORE.INTRA.REPUL>
0

>  <SCORE.INTRA.REPUL.0>
0

>  <SCORE.INTRA.SOLV>
0

>  <SCORE.INTRA.SOLV.lig_0>
-4.28333

>  <SCORE.INTRA.VDW>
0

>  <SCORE.INTRA.VDW.0>
0

>  <SCORE.INTRA.norm>
0

>  <SCORE.RESTR>
0

>  <SCORE.RESTR.CAVITY>
0

>  <SCORE.RESTR.norm>
0

>  <SCORE.SYSTEM>
0

>  <SCORE.SYSTEM.CONST>
0

>  <SCORE.SYSTEM.DIHEDRAL>
0

>  <SCORE.SYSTEM.SOLV>
0

>  <SCORE.SYSTEM.norm>
0

>  <SCORE.heavy>
10

>  <SCORE.norm>
-1.75135

>  <RMSD>
0.483

$$$$
ligand
 OpenBabel02271912143D
libRbt.so/2013.1/901 2013/11/27
 10 11  0  0  0  0  0  0  0  0999 V2000
   11.9576   10.8030    8.6415 N   0  0  0  0  0  0  0  0  0  0  0  0
   11.6297   12.1315    8.7779 C   0  0  0  0  0  0  0  0  0  0  0  0
   11.2500   12.8777    7.7390 N   0  0  0  0  0  0  0  0  0  0  0  0
   11.2254   12.1935    6.5600 C   0  0  0  0  0  0  0  0  0  0  0  0
   11.5432   10.8651    6.3562 C   0  0  0  0  0  0  0  0  0  0  0  0
   11.9472   10.0633    7.4587 C   0  0  0  0  0  0  0  0  0  0  0  0
   12.2699    8.8701    7.5052 O   0  0  0  0  0  0  0  0  0  0  0  0
   11.3869   10.5815    5.0286 N   0  0  0  0  0  0  0  0  0  0  0  0
   10.9759   11.7246    4.4321 C   0  0  0  0  0  0  0  0  0  0  0  0
   10.8671   12.7429    5.3545 N   0  0  0  0  0  0  0  0  0  0  0  0
  1  2  1  0  0  0  0
  1  6  1  0  0  0  0
  2  3  2  0  0  0  0
  3  4  1  0  0  0  0
  4  5  2  0  0  0  0
  4 10  1  0  0  0  0
  5  6  1  0  0  0  0
  5  8  1  0  0  0  0
  6  7  2  0  0  0  0
  8  9  1  0  0  0  0
  9 10  2  0  0  0  0
M  END
>  <CHROM.1>
11.51991301,11.24053774,6.80140377,0.44118372,-1.26328837,0.98774488

>  <Name>
ligand

>  <RI>
0

>  <Rbt.Current_Directory>
/home/itssahil/PROJECTS/Mol_Feturizer/Test_systems_manuscript/rnas/4fe5

>  <Rbt.Executable>
rbdock ($Id: //depot/dev/client3/rdock/2013.1/src/exe/rbdock.cxx#4 $)

>  <Rbt.Library>
libRbt.so (2013.1, Build901 2013/11/27)

>  <Rbt.Parameter_File>
/export/apps/rDock/src/rDock_2013.1_src/data/scripts/dock_solv.prm

>  <Rbt.Receptor>
prm/pocket_docking_7.prm

>  <SCORE>
-17.5341

>  <SCORE.INTER>
-17.5341

>  <SCORE.INTER.CONST>
1

>  <SCORE.INTER.POLAR>
0

>  <SCORE.INTER.ROT>
0

>  <SCORE.INTER.SOLV>
3.49739

>  <SCORE.INTER.VDW>
-16.4552

>  <SCORE.INTER.norm>
-1.75341

>  <SCORE.INTRA>
0

>  <SCORE.INTRA.DIHEDRAL>
0

>  <SCORE.INTRA.DIHEDRAL.0>
0

>  <SCORE.INTRA.POLAR>
0

>  <SCORE.INTRA.POLAR.0>
0

>  <SCORE.INTRA.REPUL>
0

>  <SCORE.INTRA.REPUL.0>
0

>  <SCORE.INTRA.SOLV>
0

>  <SCORE.INTRA.SOLV.lig_0>
-4.28333

>  <SCORE.INTRA.VDW>
0

>  <SCORE.INTRA.VDW.0>
0

>  <SCORE.INTRA.norm>
0

>  <SCORE.RESTR>
0

>  <SCORE.RESTR.CAVITY>
0

>  <SCORE.RESTR.norm>
0

>  <SCORE.SYSTEM>
0

>  <SCORE.SYSTEM.CONST>
0

>  <SCORE.SYSTEM.DIHEDRAL>
0

>  <SCORE.SYSTEM.SOLV>
0

>  <SCORE.SYSTEM.norm>
0

>  <SCORE.heavy>
10

>  <SCORE.norm>
-1.75341

>  <RMSD>
0.483

$$$$
ligand
 OpenBabel02271912143D
libRbt.so/2013.1/901 2013/11/27
 10 11  0  0  0  0  0  0  0  0999 V2000
   11.9305   10.8152    8.6548 N   0  0  0  0  0  0  0  0  0  0  0  0
   11.6118   12.1470    8.7798 C   0  0  0  0  0  0  0  0  0  0  0  0
   11.2415   12.8879    7.7337 N   0  0  0  0  0  0  0  0  0  0  0  0
   11.2164   12.1949    6.5598 C   0  0  0  0  0  0  0  0  0  0  0  0
   11.5253   10.8628    6.3675 C   0  0  0  0  0  0  0  0  0  0  0  0
   11.9193   10.0665    7.4776 C   0  0  0  0  0  0  0  0  0  0  0  0
   12.2332    8.8714    7.5345 O   0  0  0  0  0  0  0  0  0  0  0  0
   11.3720   10.5701    5.0415 N   0  0  0  0  0  0  0  0  0  0  0  0
   10.9716   11.7115    4.4347 C   0  0  0  0  0  0  0  0  0  0  0  0
   10.8666   12.7377    5.3488 N   0  0  0  0  0  0  0  0  0  0  0  0
  1  2  1  0  0  0  0
  1  6  1  0  0  0  0
  2  3  2  0  0  0  0
  3  4  1  0  0  0  0
  4  5  2  0  0  0  0
  4 10  1  0  0  0  0
  5  6  1  0  0  0  0
  5  8  1  0  0  0  0
  6  7  2  0  0  0  0
  8  9  1  0  0  0  0
  9 10  2  0  0  0  0
M  END
>  <CHROM.1>
11.50306827,11.24176039,6.80969299,0.43845339,-1.27141046,0.97749480

>  <Name>
ligand

>  <RI>
0

>  <Rbt.Current_Directory>
/home/itssahil/PROJECTS/Mol_Feturizer/Test_systems_manuscript/rnas/4fe5

>  <Rbt.Executable>
rbdock ($Id: //depot/dev/client3/rdock/2013.1/src/exe/rbdock.cxx#4 $)

>  <Rbt.Library>
libRbt.so (2013.1, Build901 2013/11/27)

>  <Rbt.Parameter_File>
/export/apps/rDock/src/rDock_2013.1_src/data/scripts/dock_solv.prm

>  <Rbt.Receptor>
prm/pocket_docking_8.prm

>  <SCORE>
-17.4929

>  <SCORE.INTER>
-17.4929

>  <SCORE.INTER.CONST>
1

>  <SCORE.INTER.POLAR>
0

>  <SCORE.INTER.ROT>
0

>  <SCORE.INTER.SOLV>
3.52848

>  <SCORE.INTER.VDW>
-16.4381

>  <SCORE.INTER.norm>
-1.74929

>  <SCORE.INTRA>
0

>  <SCORE.INTRA.DIHEDRAL>
0

>  <SCORE.INTRA.DIHEDRAL.0>
0

>  <SCORE.INTRA.POLAR>
0

>  <SCORE.INTRA.POLAR.0>
0

>  <SCORE.INTRA.REPUL>
0

>  <SCORE.INTRA.REPUL.0>
0

>  <SCORE.INTRA.SOLV>
0

>  <SCORE.INTRA.SOLV.lig_0>
-4.28333

>  <SCORE.INTRA.VDW>
0

>  <SCORE.INTRA.VDW.0>
0

>  <SCORE.INTRA.norm>
0

>  <SCORE.RESTR>
0

>  <SCORE.RESTR.CAVITY>
0

>  <SCORE.RESTR.norm>
0

>  <SCORE.SYSTEM>
0

>  <SCORE.SYSTEM.CONST>
0

>  <SCORE.SYSTEM.DIHEDRAL>
0

>  <SCORE.SYSTEM.SOLV>
0

>  <SCORE.SYSTEM.norm>
0

>  <SCORE.heavy>
10

>  <SCORE.norm>
-1.74929

>  <RMSD>
0.483

$$$$
ligand
 OpenBabel02271912143D
libRbt.so/2013.1/901 2013/11/27
 10 11  0  0  0  0  0  0  0  0999 V2000
   11.9490   10.8090    8.6453 N   0  0  0  0  0  0  0  0  0  0  0  0
   11.6221   12.1379    8.7805 C   0  0  0  0  0  0  0  0  0  0  0  0
   11.2497   12.8851    7.7397 N   0  0  0  0  0  0  0  0  0  0  0  0
   11.2312   12.2015    6.5601 C   0  0  0  0  0  0  0  0  0  0  0  0
   11.5484   10.8728    6.3576 C   0  0  0  0  0  0  0  0  0  0  0  0
   11.9447   10.0699    7.4621 C   0  0  0  0  0  0  0  0  0  0  0  0
   12.2655    8.8762    7.5099 O   0  0  0  0  0  0  0  0  0  0  0  0
   11.3997   10.5901    5.0289 N   0  0  0  0  0  0  0  0  0  0  0  0
   10.9939   11.7341    4.4306 C   0  0  0  0  0  0  0  0  0  0  0  0
   10.8809   12.7521    5.3528 N   0  0  0  0  0  0  0  0  0  0  0  0
  1  2  1  0  0  0  0
  1  6  1  0  0  0  0
  2  3  2  0  0  0  0
  3  4  1  0  0  0  0
  4  5  2  0  0  0  0
  4 10  1  0  0  0  0
  5  6  1  0  0  0  0
  5  8  1  0  0  0  0
  6  7  2  0  0  0  0
  8  9  1  0  0  0  0
  9 10  2  0  0  0  0
M  END
>  <CHROM.1>
11.52297726,11.24806002,6.80284724,0.45540265,-1.26770584,1.00182949

>  <Name>
ligand

>  <RI>
0

>  <Rbt.Current_Directory>
/home/itssahil/PROJECTS/Mol_Feturizer/Test_systems_manuscript/rnas/4fe5

>  <Rbt.Executable>
rbdock ($Id: //depot/dev/client3/rdock/2013.1/src/exe/rbdock.cxx#4 $)

>  <Rbt.Library>
libRbt.so (2013.1, Build901 2013/11/27)

>  <Rbt.Parameter_File>
/export/apps/rDock/src/rDock_2013.1_src/data/scripts/dock_solv.prm

>  <Rbt.Receptor>
prm/blind_docking_100.prm

>  <SCORE>
-17.5326

>  <SCORE.INTER>
-17.5327

>  <SCORE.INTER.CONST>
1

>  <SCORE.INTER.POLAR>
0

>  <SCORE.INTER.ROT>
0

>  <SCORE.INTER.SOLV>
3.50939

>  <SCORE.INTER.VDW>
-16.4583

>  <SCORE.INTER.norm>
-1.75327

>  <SCORE.INTRA>
0

>  <SCORE.INTRA.DIHEDRAL>
0

>  <SCORE.INTRA.DIHEDRAL.0>
0

>  <SCORE.INTRA.POLAR>
0

>  <SCORE.INTRA.POLAR.0>
0

>  <SCORE.INTRA.REPUL>
0

>  <SCORE.INTRA.REPUL.0>
0

>  <SCORE.INTRA.SOLV>
0

>  <SCORE.INTRA.SOLV.lig_0>
-4.28333

>  <SCORE.INTRA.VDW>
0

>  <SCORE.INTRA.VDW.0>
0

>  <SCORE.INTRA.norm>
0

>  <SCORE.RESTR>
0.000141834

>  <SCORE.RESTR.CAVITY>
0.000141834

>  <SCORE.RESTR.norm>
1.41834e-05

>  <SCORE.SYSTEM>
0

>  <SCORE.SYSTEM.CONST>
0

>  <SCORE.SYSTEM.DIHEDRAL>
0

>  <SCORE.SYSTEM.SOLV>
0

>  <SCORE.SYSTEM.norm>
0

>  <SCORE.heavy>
10

>  <SCORE.norm>
-1.75326

>  <RMSD>
0.484

$$$$
ligand
 OpenBabel02271912143D
libRbt.so/2013.1/901 2013/11/27
 10 11  0  0  0  0  0  0  0  0999 V2000
   11.9627   10.8014    8.6392 N   0  0  0  0  0  0  0  0  0  0  0  0
   11.6416   12.1311    8.7802 C   0  0  0  0  0  0  0  0  0  0  0  0
   11.2587   12.8810    7.7452 N   0  0  0  0  0  0  0  0  0  0  0  0
   11.2235   12.1992    6.5650 C   0  0  0  0  0  0  0  0  0  0  0  0
   11.5340   10.8698    6.3567 C   0  0  0  0  0  0  0  0  0  0  0  0
   11.9414   10.0640    7.4550 C   0  0  0  0  0  0  0  0  0  0  0  0
   12.2590    8.8693    7.4972 O   0  0  0  0  0  0  0  0  0  0  0  0
   11.3679   10.5894    5.0295 N   0  0  0  0  0  0  0  0  0  0  0  0
   10.9583   11.7355    4.4379 C   0  0  0  0  0  0  0  0  0  0  0  0
   10.8599   12.7525    5.3629 N   0  0  0  0  0  0  0  0  0  0  0  0
  1  2  1  0  0  0  0
  1  6  1  0  0  0  0
  2  3  2  0  0  0  0
  3  4  1  0  0  0  0
  4  5  2  0  0  0  0
  4 10  1  0  0  0  0
  5  6  1  0  0  0  0
  5  8  1  0  0  0  0
  6  7  2  0  0  0  0
  8  9  1  0  0  0  0
  9 10  2  0  0  0  0
M  END
>  <CHROM.1>
11.51524671,11.24444041,6.80271019,0.41537984,-1.26342193,0.96508653

>  <Name>
ligand

>  <RI>
0

>  <Rbt.Current_Directory>
/home/itssahil/PROJECTS/Mol_Feturizer/Test_systems_manuscript/rnas/4fe5

>  <Rbt.Executable>
rbdock ($Id: //depot/dev/client3/rdock/2013.1/src/exe/rbdock.cxx#4 $)

>  <Rbt.Library>
libRbt.so (2013.1, Build901 2013/11/27)

>  <Rbt.Parameter_File>
/export/apps/rDock/src/rDock_2013.1_src/data/scripts/dock_solv.prm

>  <Rbt.Receptor>
prm/blind_docking_80.prm

>  <SCORE>
-17.5126

>  <SCORE.INTER>
-17.5131

>  <SCORE.INTER.CONST>
1

>  <SCORE.INTER.POLAR>
0

>  <SCORE.INTER.ROT>
0

>  <SCORE.INTER.SOLV>
3.49588

>  <SCORE.INTER.VDW>
-16.4407

>  <SCORE.INTER.norm>
-1.75131

>  <SCORE.INTRA>
0

>  <SCORE.INTRA.DIHEDRAL>
0

>  <SCORE.INTRA.DIHEDRAL.0>
0

>  <SCORE.INTRA.POLAR>
0

>  <SCORE.INTRA.POLAR.0>
0

>  <SCORE.INTRA.REPUL>
0

>  <SCORE.INTRA.REPUL.0>
0

>  <SCORE.INTRA.SOLV>
0

>  <SCORE.INTRA.SOLV.lig_0>
-4.28333

>  <SCORE.INTRA.VDW>
0

>  <SCORE.INTRA.VDW.0>
0

>  <SCORE.INTRA.norm>
0

>  <SCORE.RESTR>
0.000464238

>  <SCORE.RESTR.CAVITY>
0.000464238

>  <SCORE.RESTR.norm>
4.64238e-05

>  <SCORE.SYSTEM>
0

>  <SCORE.SYSTEM.CONST>
0

>  <SCORE.SYSTEM.DIHEDRAL>
0

>  <SCORE.SYSTEM.SOLV>
0

>  <SCORE.SYSTEM.norm>
0

>  <SCORE.heavy>
10

>  <SCORE.norm>
-1.75126

>  <RMSD>
0.484

$$$$
ligand
 OpenBabel02271912143D
libRbt.so/2013.1/901 2013/11/27
 10 11  0  0  0  0  0  0  0  0999 V2000
   11.9016   10.8343    8.6699 N   0  0  0  0  0  0  0  0  0  0  0  0
   11.5848   12.1677    8.7815 C   0  0  0  0  0  0  0  0  0  0  0  0
   11.2267   12.9015    7.7262 N   0  0  0  0  0  0  0  0  0  0  0  0
   11.2117   12.1996    6.5575 C   0  0  0  0  0  0  0  0  0  0  0  0
   11.5193   10.8652    6.3784 C   0  0  0  0  0  0  0  0  0  0  0  0
   11.9003   10.0766    7.4984 C   0  0  0  0  0  0  0  0  0  0  0  0
   12.2107    8.8813    7.5675 O   0  0  0  0  0  0  0  0  0  0  0  0
   11.3785   10.5628    5.0531 N   0  0  0  0  0  0  0  0  0  0  0  0
   10.9869   11.7005    4.4337 C   0  0  0  0  0  0  0  0  0  0  0  0
   10.8753   12.7338    5.3389 N   0  0  0  0  0  0  0  0  0  0  0  0
  1  2  1  0  0  0  0
  1  6  1  0  0  0  0
  2  3  2  0  0  0  0
  3  4  1  0  0  0  0
  4  5  2  0  0  0  0
  4 10  1  0  0  0  0
  5  6  1  0  0  0  0
  5  8  1  0  0  0  0
  6  7  2  0  0  0  0
  8  9  1  0  0  0  0
  9 10  2  0  0  0  0
M  END
>  <CHROM.1>
11.49354842,11.24766732,6.81741542,0.46250572,-1.27890713,0.99286315

>  <Name>
ligand

>  <RI>
0

>  <Rbt.Current_Directory>
/home/itssahil/PROJECTS/Mol_Feturizer/Test_systems_manuscript/rnas/4fe5

>  <Rbt.Executable>
rbdock ($Id: //depot/dev/client3/rdock/2013.1/src/exe/rbdock.cxx#4 $)

>  <Rbt.Library>
libRbt.so (2013.1, Build901 2013/11/27)

>  <Rbt.Parameter_File>
/export/apps/rDock/src/rDock_2013.1_src/data/scripts/dock_solv.prm

>  <Rbt.Receptor>
prm/pocket_docking_3.prm

>  <SCORE>
-17.4714

>  <SCORE.INTER>
-17.4714

>  <SCORE.INTER.CONST>
1

>  <SCORE.INTER.POLAR>
0

>  <SCORE.INTER.ROT>
0

>  <SCORE.INTER.SOLV>
3.56277

>  <SCORE.INTER.VDW>
-16.4352

>  <SCORE.INTER.norm>
-1.74714

>  <SCORE.INTRA>
0

>  <SCORE.INTRA.DIHEDRAL>
0

>  <SCORE.INTRA.DIHEDRAL.0>
0

>  <SCORE.INTRA.POLAR>
0

>  <SCORE.INTRA.POLAR.0>
0

>  <SCORE.INTRA.REPUL>
0

>  <SCORE.INTRA.REPUL.0>
0

>  <SCORE.INTRA.SOLV>
0

>  <SCORE.INTRA.SOLV.lig_0>
-4.28333

>  <SCORE.INTRA.VDW>
0

>  <SCORE.INTRA.VDW.0>
0

>  <SCORE.INTRA.norm>
0

>  <SCORE.RESTR>
0

>  <SCORE.RESTR.CAVITY>
0

>  <SCORE.RESTR.norm>
0

>  <SCORE.SYSTEM>
0

>  <SCORE.SYSTEM.CONST>
0

>  <SCORE.SYSTEM.DIHEDRAL>
0

>  <SCORE.SYSTEM.SOLV>
0

>  <SCORE.SYSTEM.norm>
0

>  <SCORE.heavy>
10

>  <SCORE.norm>
-1.74714

>  <RMSD>
0.484

$$$$
ligand
 OpenBabel02271912143D
libRbt.so/2013.1/901 2013/11/27
 10 11  0  0  0  0  0  0  0  0999 V2000
   11.9515   10.8064    8.6432 N   0  0  0  0  0  0  0  0  0  0  0  0
   11.6278   12.1356    8.7817 C   0  0  0  0  0  0  0  0  0  0  0  0
   11.2513   12.8848    7.7438 N   0  0  0  0  0  0  0  0  0  0  0  0
   11.2253   12.2028    6.5636 C   0  0  0  0  0  0  0  0  0  0  0  0
   11.5389   10.8737    6.3577 C   0  0  0  0  0  0  0  0  0  0  0  0
   11.9396   10.0687    7.4591 C   0  0  0  0  0  0  0  0  0  0  0  0
   12.2585    8.8744    7.5037 O   0  0  0  0  0  0  0  0  0  0  0  0
   11.3827   10.5929    5.0295 N   0  0  0  0  0  0  0  0  0  0  0  0
   10.9758   11.7384    4.4347 C   0  0  0  0  0  0  0  0  0  0  0  0
   10.8695   12.7554    5.3588 N   0  0  0  0  0  0  0  0  0  0  0  0
  1  2  1  0  0  0  0
  1  6  1  0  0  0  0
  2  3  2  0  0  0  0
  3  4  1  0  0  0  0
  4  5  2  0  0  0  0
  4 10  1  0  0  0  0
  5  6  1  0  0  0  0
  5  8  1  0  0  0  0
  6  7  2  0  0  0  0
  8  9  1  0  0  0  0
  9 10  2  0  0  0  0
M  END
>  <CHROM.1>
11.51657400,11.24846716,6.80354294,0.43728427,-1.26634330,0.98577428

>  <Name>
ligand

>  <RI>
0

>  <Rbt.Current_Directory>
/home/itssahil/PROJECTS/Mol_Feturizer/Test_systems_manuscript/rnas/4fe5

>  <Rbt.Executable>
rbdock ($Id: //depot/dev/client3/rdock/2013.1/src/exe/rbdock.cxx#4 $)

>  <Rbt.Library>
libRbt.so (2013.1, Build901 2013/11/27)

>  <Rbt.Parameter_File>
/export/apps/rDock/src/rDock_2013.1_src/data/scripts/dock_solv.prm

>  <Rbt.Receptor>
prm/pocket_docking_4.prm

>  <SCORE>
-17.5122

>  <SCORE.INTER>
-17.5122

>  <SCORE.INTER.CONST>
1

>  <SCORE.INTER.POLAR>
0

>  <SCORE.INTER.ROT>
0

>  <SCORE.INTER.SOLV>
3.50541

>  <SCORE.INTER.VDW>
-16.4433

>  <SCORE.INTER.norm>
-1.75122

>  <SCORE.INTRA>
0

>  <SCORE.INTRA.DIHEDRAL>
0

>  <SCORE.INTRA.DIHEDRAL.0>
0

>  <SCORE.INTRA.POLAR>
0

>  <SCORE.INTRA.POLAR.0>
0

>  <SCORE.INTRA.REPUL>
0

>  <SCORE.INTRA.REPUL.0>
0

>  <SCORE.INTRA.SOLV>
0

>  <SCORE.INTRA.SOLV.lig_0>
-4.28333

>  <SCORE.INTRA.VDW>
0

>  <SCORE.INTRA.VDW.0>
0

>  <SCORE.INTRA.norm>
0

>  <SCORE.RESTR>
0

>  <SCORE.RESTR.CAVITY>
0

>  <SCORE.RESTR.norm>
0

>  <SCORE.SYSTEM>
0

>  <SCORE.SYSTEM.CONST>
0

>  <SCORE.SYSTEM.DIHEDRAL>
0

>  <SCORE.SYSTEM.SOLV>
0

>  <SCORE.SYSTEM.norm>
0

>  <SCORE.heavy>
10

>  <SCORE.norm>
-1.75122

>  <RMSD>
0.484

$$$$
ligand
 OpenBabel02271912143D
libRbt.so/2013.1/901 2013/11/27
 10 11  0  0  0  0  0  0  0  0999 V2000
   11.9505   10.8098    8.6448 N   0  0  0  0  0  0  0  0  0  0  0  0
   11.6235   12.1386    8.7796 C   0  0  0  0  0  0  0  0  0  0  0  0
   11.2488   12.8849    7.7390 N   0  0  0  0  0  0  0  0  0  0  0  0
   11.2281   12.2004    6.5600 C   0  0  0  0  0  0  0  0  0  0  0  0
   11.5453   10.8716    6.3579 C   0  0  0  0  0  0  0  0  0  0  0  0
   11.9441   10.0697    7.4622 C   0  0  0  0  0  0  0  0  0  0  0  0
   12.2654    8.8762    7.5103 O   0  0  0  0  0  0  0  0  0  0  0  0
   11.3940   10.5878    5.0297 N   0  0  0  0  0  0  0  0  0  0  0  0
   10.9866   11.7311    4.4313 C   0  0  0  0  0  0  0  0  0  0  0  0
   10.8751   12.7499    5.3529 N   0  0  0  0  0  0  0  0  0  0  0  0
  1  2  1  0  0  0  0
  1  6  1  0  0  0  0
  2  3  2  0  0  0  0
  3  4  1  0  0  0  0
  4  5  2  0  0  0  0
  4 10  1  0  0  0  0
  5  6  1  0  0  0  0
  5  8  1  0  0  0  0
  6  7  2  0  0  0  0
  8  9  1  0  0  0  0
  9 10  2  0  0  0  0
M  END
>  <CHROM.1>
11.52067732,11.24722477,6.80287484,0.45034727,-1.26633587,0.99620546

>  <Name>
ligand

>  <RI>
0

>  <Rbt.Current_Directory>
/home/itssahil/PROJECTS/Mol_Feturizer/Test_systems_manuscript/rnas/4fe5

>  <Rbt.Executable>
rbdock ($Id: //depot/dev/client3/rdock/2013.1/src/exe/rbdock.cxx#4 $)

>  <Rbt.Library>
libRbt.so (2013.1, Build901 2013/11/27)

>  <Rbt.Parameter_File>
/export/apps/rDock/src/rDock_2013.1_src/data/scripts/dock_solv.prm

>  <Rbt.Receptor>
prm/pocket_docking_7.prm

>  <SCORE>
-17.534

>  <SCORE.INTER>
-17.534

>  <SCORE.INTER.CONST>
1

>  <SCORE.INTER.POLAR>
0

>  <SCORE.INTER.ROT>
0

>  <SCORE.INTER.SOLV>
3.50663

>  <SCORE.INTER.VDW>
-16.4582

>  <SCORE.INTER.norm>
-1.7534

>  <SCORE.INTRA>
0

>  <SCORE.INTRA.DIHEDRAL>
0

>  <SCORE.INTRA.DIHEDRAL.0>
0

>  <SCORE.INTRA.POLAR>
0

>  <SCORE.INTRA.POLAR.0>
0

>  <SCORE.INTRA.REPUL>
0

>  <SCORE.INTRA.REPUL.0>
0

>  <SCORE.INTRA.SOLV>
0

>  <SCORE.INTRA.SOLV.lig_0>
-4.28333

>  <SCORE.INTRA.VDW>
0

>  <SCORE.INTRA.VDW.0>
0

>  <SCORE.INTRA.norm>
0

>  <SCORE.RESTR>
0

>  <SCORE.RESTR.CAVITY>
0

>  <SCORE.RESTR.norm>
0

>  <SCORE.SYSTEM>
0

>  <SCORE.SYSTEM.CONST>
0

>  <SCORE.SYSTEM.DIHEDRAL>
0

>  <SCORE.SYSTEM.SOLV>
0

>  <SCORE.SYSTEM.norm>
0

>  <SCORE.heavy>
10

>  <SCORE.norm>
-1.7534

>  <RMSD>
0.484

$$$$
ligand
 OpenBabel02271912143D
libRbt.so/2013.1/901 2013/11/27
 10 11  0  0  0  0  0  0  0  0999 V2000
   11.9308   10.8418    8.6581 N   0  0  0  0  0  0  0  0  0  0  0  0
   11.5904   12.1686    8.7799 C   0  0  0  0  0  0  0  0  0  0  0  0
   11.2203   12.9042    7.7301 N   0  0  0  0  0  0  0  0  0  0  0  0
   11.2188   12.2114    6.5558 C   0  0  0  0  0  0  0  0  0  0  0  0
   11.5501   10.8841    6.3665 C   0  0  0  0  0  0  0  0  0  0  0  0
   11.9440   10.0936    7.4807 C   0  0  0  0  0  0  0  0  0  0  0  0
   12.2755    8.9034    7.5407 O   0  0  0  0  0  0  0  0  0  0  0  0
   11.4159   10.5898    5.0388 N   0  0  0  0  0  0  0  0  0  0  0  0
   11.0048   11.7252    4.4280 C   0  0  0  0  0  0  0  0  0  0  0  0
   10.8741   12.7492    5.3411 N   0  0  0  0  0  0  0  0  0  0  0  0
  1  2  1  0  0  0  0
  1  6  1  0  0  0  0
  2  3  2  0  0  0  0
  3  4  1  0  0  0  0
  4  5  2  0  0  0  0
  4 10  1  0  0  0  0
  5  6  1  0  0  0  0
  5  8  1  0  0  0  0
  6  7  2  0  0  0  0
  8  9  1  0  0  0  0
  9 10  2  0  0  0  0
M  END
>  <CHROM.1>
11.51722455,11.26257516,6.80854403,0.49708411,-1.26439728,1.03380182

>  <Name>
ligand

>  <RI>
0

>  <Rbt.Current_Directory>
/home/itssahil/PROJECTS/Mol_Feturizer/Test_systems_manuscript/rnas/4fe5

>  <Rbt.Executable>
rbdock ($Id: //depot/dev/client3/rdock/2013.1/src/exe/rbdock.cxx#4 $)

>  <Rbt.Library>
libRbt.so (2013.1, Build901 2013/11/27)

>  <Rbt.Parameter_File>
/export/apps/rDock/src/rDock_2013.1_src/data/scripts/dock_solv.prm

>  <Rbt.Receptor>
prm/pocket_docking_8.prm

>  <SCORE>
-17.4607

>  <SCORE.INTER>
-17.4607

>  <SCORE.INTER.CONST>
1

>  <SCORE.INTER.POLAR>
0

>  <SCORE.INTER.ROT>
0

>  <SCORE.INTER.SOLV>
3.51538

>  <SCORE.INTER.VDW>
-16.4123

>  <SCORE.INTER.norm>
-1.74607

>  <SCORE.INTRA>
0

>  <SCORE.INTRA.DIHEDRAL>
0

>  <SCORE.INTRA.DIHEDRAL.0>
0

>  <SCORE.INTRA.POLAR>
0

>  <SCORE.INTRA.POLAR.0>
0

>  <SCORE.INTRA.REPUL>
0

>  <SCORE.INTRA.REPUL.0>
0

>  <SCORE.INTRA.SOLV>
0

>  <SCORE.INTRA.SOLV.lig_0>
-4.28333

>  <SCORE.INTRA.VDW>
0

>  <SCORE.INTRA.VDW.0>
0

>  <SCORE.INTRA.norm>
0

>  <SCORE.RESTR>
0

>  <SCORE.RESTR.CAVITY>
0

>  <SCORE.RESTR.norm>
0

>  <SCORE.SYSTEM>
0

>  <SCORE.SYSTEM.CONST>
0

>  <SCORE.SYSTEM.DIHEDRAL>
0

>  <SCORE.SYSTEM.SOLV>
0

>  <SCORE.SYSTEM.norm>
0

>  <SCORE.heavy>
10

>  <SCORE.norm>
-1.74607

>  <RMSD>
0.484

$$$$
ligand
 OpenBabel02271912143D
libRbt.so/2013.1/901 2013/11/27
 10 11  0  0  0  0  0  0  0  0999 V2000
   11.8688   10.8377    8.6893 N   0  0  0  0  0  0  0  0  0  0  0  0
   11.5786   12.1780    8.7900 C   0  0  0  0  0  0  0  0  0  0  0  0
   11.2437   12.9121    7.7273 N   0  0  0  0  0  0  0  0  0  0  0  0
   11.2233   12.2031    6.5629 C   0  0  0  0  0  0  0  0  0  0  0  0
   11.5049   10.8616    6.3947 C   0  0  0  0  0  0  0  0  0  0  0  0
   11.8610   10.0726    7.5226 C   0  0  0  0  0  0  0  0  0  0  0  0
   12.1463    8.8716    7.6017 O   0  0  0  0  0  0  0  0  0  0  0  0
   11.3681   10.5535    5.0704 N   0  0  0  0  0  0  0  0  0  0  0  0
   11.0047   11.6949    4.4407 C   0  0  0  0  0  0  0  0  0  0  0  0
   10.9073   12.7361    5.3384 N   0  0  0  0  0  0  0  0  0  0  0  0
  1  2  1  0  0  0  0
  1  6  1  0  0  0  0
  2  3  2  0  0  0  0
  3  4  1  0  0  0  0
  4  5  2  0  0  0  0
  4 10  1  0  0  0  0
  5  6  1  0  0  0  0
  5  8  1  0  0  0  0
  6  7  2  0  0  0  0
  8  9  1  0  0  0  0
  9 10  2  0  0  0  0
M  END
>  <CHROM.1>
11.48360914,11.24729533,6.83111206,0.44468619,-1.30022478,0.96933227

>  <Name>
ligand

>  <RI>
0

>  <Rbt.Current_Directory>
/home/itssahil/PROJECTS/Mol_Feturizer/Test_systems_manuscript/rnas/4fe5

>  <Rbt.Executable>
rbdock ($Id: //depot/dev/client3/rdock/2013.1/src/exe/rbdock.cxx#4 $)

>  <Rbt.Library>
libRbt.so (2013.1, Build901 2013/11/27)

>  <Rbt.Parameter_File>
/export/apps/rDock/src/rDock_2013.1_src/data/scripts/dock_solv.prm

>  <Rbt.Receptor>
prm/blind_docking_100.prm

>  <SCORE>
-17.4728

>  <SCORE.INTER>
-17.4824

>  <SCORE.INTER.CONST>
1

>  <SCORE.INTER.POLAR>
0

>  <SCORE.INTER.ROT>
0

>  <SCORE.INTER.SOLV>
3.64711

>  <SCORE.INTER.VDW>
-16.4706

>  <SCORE.INTER.norm>
-1.74824

>  <SCORE.INTRA>
0

>  <SCORE.INTRA.DIHEDRAL>
0

>  <SCORE.INTRA.DIHEDRAL.0>
0

>  <SCORE.INTRA.POLAR>
0

>  <SCORE.INTRA.POLAR.0>
0

>  <SCORE.INTRA.REPUL>
0

>  <SCORE.INTRA.REPUL.0>
0

>  <SCORE.INTRA.SOLV>
0

>  <SCORE.INTRA.SOLV.lig_0>
-4.28333

>  <SCORE.INTRA.VDW>
0

>  <SCORE.INTRA.VDW.0>
0

>  <SCORE.INTRA.norm>
0

>  <SCORE.RESTR>
0.00955949

>  <SCORE.RESTR.CAVITY>
0.00955949

>  <SCORE.RESTR.norm>
0.000955949

>  <SCORE.SYSTEM>
0

>  <SCORE.SYSTEM.CONST>
0

>  <SCORE.SYSTEM.DIHEDRAL>
0

>  <SCORE.SYSTEM.SOLV>
0

>  <SCORE.SYSTEM.norm>
0

>  <SCORE.heavy>
10

>  <SCORE.norm>
-1.74728

>  <RMSD>
0.485

$$$$
ligand
 OpenBabel02271912143D
libRbt.so/2013.1/901 2013/11/27
 10 11  0  0  0  0  0  0  0  0999 V2000
   11.9443   10.8125    8.6466 N   0  0  0  0  0  0  0  0  0  0  0  0
   11.6141   12.1407    8.7796 C   0  0  0  0  0  0  0  0  0  0  0  0
   11.2422   12.8859    7.7371 N   0  0  0  0  0  0  0  0  0  0  0  0
   11.2279   12.2010    6.5583 C   0  0  0  0  0  0  0  0  0  0  0  0
   11.5485   10.8728    6.3580 C   0  0  0  0  0  0  0  0  0  0  0  0
   11.9442   10.0720    7.4642 C   0  0  0  0  0  0  0  0  0  0  0  0
   12.2676    8.8792    7.5140 O   0  0  0  0  0  0  0  0  0  0  0  0
   11.4034   10.5883    5.0293 N   0  0  0  0  0  0  0  0  0  0  0  0
   10.9962   11.7307    4.4288 C   0  0  0  0  0  0  0  0  0  0  0  0
   10.8789   12.7494    5.3496 N   0  0  0  0  0  0  0  0  0  0  0  0
  1  2  1  0  0  0  0
  1  6  1  0  0  0  0
  2  3  2  0  0  0  0
  3  4  1  0  0  0  0
  4  5  2  0  0  0  0
  4 10  1  0  0  0  0
  5  6  1  0  0  0  0
  5  8  1  0  0  0  0
  6  7  2  0  0  0  0
  8  9  1  0  0  0  0
  9 10  2  0  0  0  0
M  END
>  <CHROM.1>
11.52127768,11.24850209,6.80272982,0.46567293,-1.26693640,1.01051942

>  <Name>
ligand

>  <RI>
0

>  <Rbt.Current_Directory>
/home/itssahil/PROJECTS/Mol_Feturizer/Test_systems_manuscript/rnas/4fe5

>  <Rbt.Executable>
rbdock ($Id: //depot/dev/client3/rdock/2013.1/src/exe/rbdock.cxx#4 $)

>  <Rbt.Library>
libRbt.so (2013.1, Build901 2013/11/27)

>  <Rbt.Parameter_File>
/export/apps/rDock/src/rDock_2013.1_src/data/scripts/dock_solv.prm

>  <Rbt.Receptor>
prm/pocket_docking_4.prm

>  <SCORE>
-17.5247

>  <SCORE.INTER>
-17.5247

>  <SCORE.INTER.CONST>
1

>  <SCORE.INTER.POLAR>
0

>  <SCORE.INTER.ROT>
0

>  <SCORE.INTER.SOLV>
3.51027

>  <SCORE.INTER.VDW>
-16.4532

>  <SCORE.INTER.norm>
-1.75247

>  <SCORE.INTRA>
0

>  <SCORE.INTRA.DIHEDRAL>
0

>  <SCORE.INTRA.DIHEDRAL.0>
0

>  <SCORE.INTRA.POLAR>
0

>  <SCORE.INTRA.POLAR.0>
0

>  <SCORE.INTRA.REPUL>
0

>  <SCORE.INTRA.REPUL.0>
0

>  <SCORE.INTRA.SOLV>
0

>  <SCORE.INTRA.SOLV.lig_0>
-4.28333

>  <SCORE.INTRA.VDW>
0

>  <SCORE.INTRA.VDW.0>
0

>  <SCORE.INTRA.norm>
0

>  <SCORE.RESTR>
0

>  <SCORE.RESTR.CAVITY>
0

>  <SCORE.RESTR.norm>
0

>  <SCORE.SYSTEM>
0

>  <SCORE.SYSTEM.CONST>
0

>  <SCORE.SYSTEM.DIHEDRAL>
0

>  <SCORE.SYSTEM.SOLV>
0

>  <SCORE.SYSTEM.norm>
0

>  <SCORE.heavy>
10

>  <SCORE.norm>
-1.75247

>  <RMSD>
0.485

$$$$
ligand
 OpenBabel02271912143D
libRbt.so/2013.1/901 2013/11/27
 10 11  0  0  0  0  0  0  0  0999 V2000
   11.9274   10.8145    8.6535 N   0  0  0  0  0  0  0  0  0  0  0  0
   11.6128   12.1471    8.7813 C   0  0  0  0  0  0  0  0  0  0  0  0
   11.2444   12.8912    7.7369 N   0  0  0  0  0  0  0  0  0  0  0  0
   11.2167   12.2006    6.5616 C   0  0  0  0  0  0  0  0  0  0  0  0
   11.5214   10.8679    6.3665 C   0  0  0  0  0  0  0  0  0  0  0  0
   11.9134   10.0682    7.4748 C   0  0  0  0  0  0  0  0  0  0  0  0
   12.2236    8.8721    7.5292 O   0  0  0  0  0  0  0  0  0  0  0  0
   11.3668   10.5784    5.0399 N   0  0  0  0  0  0  0  0  0  0  0  0
   10.9696   11.7222    4.4356 C   0  0  0  0  0  0  0  0  0  0  0  0
   10.8681   12.7468    5.3518 N   0  0  0  0  0  0  0  0  0  0  0  0
  1  2  1  0  0  0  0
  1  6  1  0  0  0  0
  2  3  2  0  0  0  0
  3  4  1  0  0  0  0
  4  5  2  0  0  0  0
  4 10  1  0  0  0  0
  5  6  1  0  0  0  0
  5  8  1  0  0  0  0
  6  7  2  0  0  0  0
  8  9  1  0  0  0  0
  9 10  2  0  0  0  0
M  END
>  <CHROM.1>
11.50053574,11.24607034,6.80942939,0.43148472,-1.27375752,0.97282925

>  <Name>
ligand

>  <RI>
0

>  <Rbt.Current_Directory>
/home/itssahil/PROJECTS/Mol_Feturizer/Test_systems_manuscript/rnas/4fe5

>  <Rbt.Executable>
rbdock ($Id: //depot/dev/client3/rdock/2013.1/src/exe/rbdock.cxx#4 $)

>  <Rbt.Library>
libRbt.so (2013.1, Build901 2013/11/27)

>  <Rbt.Parameter_File>
/export/apps/rDock/src/rDock_2013.1_src/data/scripts/dock_solv.prm

>  <Rbt.Receptor>
prm/pocket_docking_6.prm

>  <SCORE>
-17.4991

>  <SCORE.INTER>
-17.4997

>  <SCORE.INTER.CONST>
1

>  <SCORE.INTER.POLAR>
0

>  <SCORE.INTER.ROT>
0

>  <SCORE.INTER.SOLV>
3.53341

>  <SCORE.INTER.VDW>
-16.4443

>  <SCORE.INTER.norm>
-1.74997

>  <SCORE.INTRA>
0

>  <SCORE.INTRA.DIHEDRAL>
0

>  <SCORE.INTRA.DIHEDRAL.0>
0

>  <SCORE.INTRA.POLAR>
0

>  <SCORE.INTRA.POLAR.0>
0

>  <SCORE.INTRA.REPUL>
0

>  <SCORE.INTRA.REPUL.0>
0

>  <SCORE.INTRA.SOLV>
0

>  <SCORE.INTRA.SOLV.lig_0>
-4.28333

>  <SCORE.INTRA.VDW>
0

>  <SCORE.INTRA.VDW.0>
0

>  <SCORE.INTRA.norm>
0

>  <SCORE.RESTR>
0.000626853

>  <SCORE.RESTR.CAVITY>
0.000626853

>  <SCORE.RESTR.norm>
6.26853e-05

>  <SCORE.SYSTEM>
0

>  <SCORE.SYSTEM.CONST>
0

>  <SCORE.SYSTEM.DIHEDRAL>
0

>  <SCORE.SYSTEM.SOLV>
0

>  <SCORE.SYSTEM.norm>
0

>  <SCORE.heavy>
10

>  <SCORE.norm>
-1.74991

>  <RMSD>
0.485

$$$$
ligand
 OpenBabel02271912143D
libRbt.so/2013.1/901 2013/11/27
 10 11  0  0  0  0  0  0  0  0999 V2000
   11.8990   10.8356    8.6696 N   0  0  0  0  0  0  0  0  0  0  0  0
   11.5806   12.1687    8.7819 C   0  0  0  0  0  0  0  0  0  0  0  0
   11.2255   12.9035    7.7263 N   0  0  0  0  0  0  0  0  0  0  0  0
   11.2152   12.2031    6.5566 C   0  0  0  0  0  0  0  0  0  0  0  0
   11.5246   10.8693    6.3768 C   0  0  0  0  0  0  0  0  0  0  0  0
   11.9024   10.0795    7.4971 C   0  0  0  0  0  0  0  0  0  0  0  0
   12.2137    8.8844    7.5657 O   0  0  0  0  0  0  0  0  0  0  0  0
   11.3888   10.5685    5.0507 N   0  0  0  0  0  0  0  0  0  0  0  0
   10.9983   11.7066    4.4314 C   0  0  0  0  0  0  0  0  0  0  0  0
   10.8826   12.7387    5.3376 N   0  0  0  0  0  0  0  0  0  0  0  0
  1  2  1  0  0  0  0
  1  6  1  0  0  0  0
  2  3  2  0  0  0  0
  3  4  1  0  0  0  0
  4  5  2  0  0  0  0
  4 10  1  0  0  0  0
  5  6  1  0  0  0  0
  5  8  1  0  0  0  0
  6  7  2  0  0  0  0
  8  9  1  0  0  0  0
  9 10  2  0  0  0  0
M  END
>  <CHROM.1>
11.49704567,11.25111569,6.81627899,0.47441671,-1.28003102,1.00559295

>  <Name>
ligand

>  <RI>
0

>  <Rbt.Current_Directory>
/home/itssahil/PROJECTS/Mol_Feturizer/Test_systems_manuscript/rnas/4fe5

>  <Rbt.Executable>
rbdock ($Id: //depot/dev/client3/rdock/2013.1/src/exe/rbdock.cxx#4 $)

>  <Rbt.Library>
libRbt.so (2013.1, Build901 2013/11/27)

>  <Rbt.Parameter_File>
/export/apps/rDock/src/rDock_2013.1_src/data/scripts/dock_solv.prm

>  <Rbt.Receptor>
prm/pocket_docking_8.prm

>  <SCORE>
-17.4655

>  <SCORE.INTER>
-17.4655

>  <SCORE.INTER.CONST>
1

>  <SCORE.INTER.POLAR>
0

>  <SCORE.INTER.ROT>
0

>  <SCORE.INTER.SOLV>
3.56437

>  <SCORE.INTER.VDW>
-16.4318

>  <SCORE.INTER.norm>
-1.74655

>  <SCORE.INTRA>
0

>  <SCORE.INTRA.DIHEDRAL>
0

>  <SCORE.INTRA.DIHEDRAL.0>
0

>  <SCORE.INTRA.POLAR>
0

>  <SCORE.INTRA.POLAR.0>
0

>  <SCORE.INTRA.REPUL>
0

>  <SCORE.INTRA.REPUL.0>
0

>  <SCORE.INTRA.SOLV>
0

>  <SCORE.INTRA.SOLV.lig_0>
-4.28333

>  <SCORE.INTRA.VDW>
0

>  <SCORE.INTRA.VDW.0>
0

>  <SCORE.INTRA.norm>
0

>  <SCORE.RESTR>
0

>  <SCORE.RESTR.CAVITY>
0

>  <SCORE.RESTR.norm>
0

>  <SCORE.SYSTEM>
0

>  <SCORE.SYSTEM.CONST>
0

>  <SCORE.SYSTEM.DIHEDRAL>
0

>  <SCORE.SYSTEM.SOLV>
0

>  <SCORE.SYSTEM.norm>
0

>  <SCORE.heavy>
10

>  <SCORE.norm>
-1.74655

>  <RMSD>
0.485

$$$$
ligand
 OpenBabel02271912143D
libRbt.so/2013.1/901 2013/11/27
 10 11  0  0  0  0  0  0  0  0999 V2000
   11.9332   10.8360    8.6542 N   0  0  0  0  0  0  0  0  0  0  0  0
   11.5955   12.1633    8.7778 C   0  0  0  0  0  0  0  0  0  0  0  0
   11.2243   12.9004    7.7294 N   0  0  0  0  0  0  0  0  0  0  0  0
   11.2185   12.2084    6.5546 C   0  0  0  0  0  0  0  0  0  0  0  0
   11.5469   10.8807    6.3636 C   0  0  0  0  0  0  0  0  0  0  0  0
   11.9421   10.0886    7.4762 C   0  0  0  0  0  0  0  0  0  0  0  0
   12.2715    8.8977    7.5345 O   0  0  0  0  0  0  0  0  0  0  0  0
   11.4090   10.5876    5.0359 N   0  0  0  0  0  0  0  0  0  0  0  0
   10.9985   11.7242    4.4270 C   0  0  0  0  0  0  0  0  0  0  0  0
   10.8719   12.7478    5.3412 N   0  0  0  0  0  0  0  0  0  0  0  0
  1  2  1  0  0  0  0
  1  6  1  0  0  0  0
  2  3  2  0  0  0  0
  3  4  1  0  0  0  0
  4  5  2  0  0  0  0
  4 10  1  0  0  0  0
  5  6  1  0  0  0  0
  5  8  1  0  0  0  0
  6  7  2  0  0  0  0
  8  9  1  0  0  0  0
  9 10  2  0  0  0  0
M  END
>  <CHROM.1>
11.51584006,11.25888927,6.80593660,0.48694934,-1.26474406,1.02487034

>  <Name>
ligand

>  <RI>
0

>  <Rbt.Current_Directory>
/home/itssahil/PROJECTS/Mol_Feturizer/Test_systems_manuscript/rnas/4fe5

>  <Rbt.Executable>
rbdock ($Id: //depot/dev/client3/rdock/2013.1/src/exe/rbdock.cxx#4 $)

>  <Rbt.Library>
libRbt.so (2013.1, Build901 2013/11/27)

>  <Rbt.Parameter_File>
/export/apps/rDock/src/rDock_2013.1_src/data/scripts/dock_solv.prm

>  <Rbt.Receptor>
prm/blind_docking_100.prm

>  <SCORE>
-17.4719

>  <SCORE.INTER>
-17.4719

>  <SCORE.INTER.CONST>
1

>  <SCORE.INTER.POLAR>
0

>  <SCORE.INTER.ROT>
0

>  <SCORE.INTER.SOLV>
3.51439

>  <SCORE.INTER.VDW>
-16.4194

>  <SCORE.INTER.norm>
-1.74719

>  <SCORE.INTRA>
0

>  <SCORE.INTRA.DIHEDRAL>
0

>  <SCORE.INTRA.DIHEDRAL.0>
0

>  <SCORE.INTRA.POLAR>
0

>  <SCORE.INTRA.POLAR.0>
0

>  <SCORE.INTRA.REPUL>
0

>  <SCORE.INTRA.REPUL.0>
0

>  <SCORE.INTRA.SOLV>
0

>  <SCORE.INTRA.SOLV.lig_0>
-4.28333

>  <SCORE.INTRA.VDW>
0

>  <SCORE.INTRA.VDW.0>
0

>  <SCORE.INTRA.norm>
0

>  <SCORE.RESTR>
0

>  <SCORE.RESTR.CAVITY>
0

>  <SCORE.RESTR.norm>
0

>  <SCORE.SYSTEM>
0

>  <SCORE.SYSTEM.CONST>
0

>  <SCORE.SYSTEM.DIHEDRAL>
0

>  <SCORE.SYSTEM.SOLV>
0

>  <SCORE.SYSTEM.norm>
0

>  <SCORE.heavy>
10

>  <SCORE.norm>
-1.74719

>  <RMSD>
0.486

$$$$
ligand
 OpenBabel02271912143D
libRbt.so/2013.1/901 2013/11/27
 10 11  0  0  0  0  0  0  0  0999 V2000
   11.8939   10.8401    8.6720 N   0  0  0  0  0  0  0  0  0  0  0  0
   11.5778   12.1741    8.7796 C   0  0  0  0  0  0  0  0  0  0  0  0
   11.2219   12.9053    7.7219 N   0  0  0  0  0  0  0  0  0  0  0  0
   11.2081   12.2003    6.5549 C   0  0  0  0  0  0  0  0  0  0  0  0
   11.5150   10.8653    6.3798 C   0  0  0  0  0  0  0  0  0  0  0  0
   11.8938   10.0794    7.5025 C   0  0  0  0  0  0  0  0  0  0  0  0
   12.2033    8.8840    7.5752 O   0  0  0  0  0  0  0  0  0  0  0  0
   11.3761   10.5595    5.0552 N   0  0  0  0  0  0  0  0  0  0  0  0
   10.9862   11.6958    4.4322 C   0  0  0  0  0  0  0  0  0  0  0  0
   10.8739   12.7316    5.3345 N   0  0  0  0  0  0  0  0  0  0  0  0
  1  2  1  0  0  0  0
  1  6  1  0  0  0  0
  2  3  2  0  0  0  0
  3  4  1  0  0  0  0
  4  5  2  0  0  0  0
  4 10  1  0  0  0  0
  5  6  1  0  0  0  0
  5  8  1  0  0  0  0
  6  7  2  0  0  0  0
  8  9  1  0  0  0  0
  9 10  2  0  0  0  0
M  END
>  <CHROM.1>
11.48891997,11.24888742,6.81783098,0.46557724,-1.28031939,0.99317122

>  <Name>
ligand

>  <RI>
0

>  <Rbt.Current_Directory>
/home/itssahil/PROJECTS/Mol_Feturizer/Test_systems_manuscript/rnas/4fe5

>  <Rbt.Executable>
rbdock ($Id: //depot/dev/client3/rdock/2013.1/src/exe/rbdock.cxx#4 $)

>  <Rbt.Library>
libRbt.so (2013.1, Build901 2013/11/27)

>  <Rbt.Parameter_File>
/export/apps/rDock/src/rDock_2013.1_src/data/scripts/dock_solv.prm

>  <Rbt.Receptor>
prm/blind_docking_40.prm

>  <SCORE>
-17.4694

>  <SCORE.INTER>
-17.4695

>  <SCORE.INTER.CONST>
1

>  <SCORE.INTER.POLAR>
0

>  <SCORE.INTER.ROT>
0

>  <SCORE.INTER.SOLV>
3.57253

>  <SCORE.INTER.VDW>
-16.4372

>  <SCORE.INTER.norm>
-1.74695

>  <SCORE.INTRA>
0

>  <SCORE.INTRA.DIHEDRAL>
0

>  <SCORE.INTRA.DIHEDRAL.0>
0

>  <SCORE.INTRA.POLAR>
0

>  <SCORE.INTRA.POLAR.0>
0

>  <SCORE.INTRA.REPUL>
0

>  <SCORE.INTRA.REPUL.0>
0

>  <SCORE.INTRA.SOLV>
0

>  <SCORE.INTRA.SOLV.lig_0>
-4.28333

>  <SCORE.INTRA.VDW>
0

>  <SCORE.INTRA.VDW.0>
0

>  <SCORE.INTRA.norm>
0

>  <SCORE.RESTR>
4.13095e-05

>  <SCORE.RESTR.CAVITY>
4.13095e-05

>  <SCORE.RESTR.norm>
4.13095e-06

>  <SCORE.SYSTEM>
0

>  <SCORE.SYSTEM.CONST>
0

>  <SCORE.SYSTEM.DIHEDRAL>
0

>  <SCORE.SYSTEM.SOLV>
0

>  <SCORE.SYSTEM.norm>
0

>  <SCORE.heavy>
10

>  <SCORE.norm>
-1.74694

>  <RMSD>
0.486

$$$$
ligand
 OpenBabel02271912143D
libRbt.so/2013.1/901 2013/11/27
 10 11  0  0  0  0  0  0  0  0999 V2000
   11.9244   10.8264    8.6521 N   0  0  0  0  0  0  0  0  0  0  0  0
   11.5777   12.1510    8.7789 C   0  0  0  0  0  0  0  0  0  0  0  0
   11.2061   12.8894    7.7316 N   0  0  0  0  0  0  0  0  0  0  0  0
   11.2096   12.2016    6.5544 C   0  0  0  0  0  0  0  0  0  0  0  0
   11.5473   10.8767    6.3601 C   0  0  0  0  0  0  0  0  0  0  0  0
   11.9429   10.0832    7.4715 C   0  0  0  0  0  0  0  0  0  0  0  0
   12.2797    8.8943    7.5271 O   0  0  0  0  0  0  0  0  0  0  0  0
   11.4167   10.5874    5.0309 N   0  0  0  0  0  0  0  0  0  0  0  0
   11.0014   11.7235    4.4242 C   0  0  0  0  0  0  0  0  0  0  0  0
   10.8645   12.7430    5.3414 N   0  0  0  0  0  0  0  0  0  0  0  0
  1  2  1  0  0  0  0
  1  6  1  0  0  0  0
  2  3  2  0  0  0  0
  3  4  1  0  0  0  0
  4  5  2  0  0  0  0
  4 10  1  0  0  0  0
  5  6  1  0  0  0  0
  5  8  1  0  0  0  0
  6  7  2  0  0  0  0
  8  9  1  0  0  0  0
  9 10  2  0  0  0  0
M  END
>  <CHROM.1>
11.51194149,11.25310594,6.80361976,0.50939385,-1.26133212,1.04977061

>  <Name>
ligand

>  <RI>
0

>  <Rbt.Current_Directory>
/home/itssahil/PROJECTS/Mol_Feturizer/Test_systems_manuscript/rnas/4fe5

>  <Rbt.Executable>
rbdock ($Id: //depot/dev/client3/rdock/2013.1/src/exe/rbdock.cxx#4 $)

>  <Rbt.Library>
libRbt.so (2013.1, Build901 2013/11/27)

>  <Rbt.Parameter_File>
/export/apps/rDock/src/rDock_2013.1_src/data/scripts/dock_solv.prm

>  <Rbt.Receptor>
prm/blind_docking_80.prm

>  <SCORE>
-17.4493

>  <SCORE.INTER>
-17.4493

>  <SCORE.INTER.CONST>
1

>  <SCORE.INTER.POLAR>
0

>  <SCORE.INTER.ROT>
0

>  <SCORE.INTER.SOLV>
3.50844

>  <SCORE.INTER.VDW>
-16.4024

>  <SCORE.INTER.norm>
-1.74493

>  <SCORE.INTRA>
0

>  <SCORE.INTRA.DIHEDRAL>
0

>  <SCORE.INTRA.DIHEDRAL.0>
0

>  <SCORE.INTRA.POLAR>
0

>  <SCORE.INTRA.POLAR.0>
0

>  <SCORE.INTRA.REPUL>
0

>  <SCORE.INTRA.REPUL.0>
0

>  <SCORE.INTRA.SOLV>
0

>  <SCORE.INTRA.SOLV.lig_0>
-4.28333

>  <SCORE.INTRA.VDW>
0

>  <SCORE.INTRA.VDW.0>
0

>  <SCORE.INTRA.norm>
0

>  <SCORE.RESTR>
0

>  <SCORE.RESTR.CAVITY>
0

>  <SCORE.RESTR.norm>
0

>  <SCORE.SYSTEM>
0

>  <SCORE.SYSTEM.CONST>
0

>  <SCORE.SYSTEM.DIHEDRAL>
0

>  <SCORE.SYSTEM.SOLV>
0

>  <SCORE.SYSTEM.norm>
0

>  <SCORE.heavy>
10

>  <SCORE.norm>
-1.74493

>  <RMSD>
0.486

$$$$
ligand
 OpenBabel02271912143D
libRbt.so/2013.1/901 2013/11/27
 10 11  0  0  0  0  0  0  0  0999 V2000
   11.9494   10.8063    8.6422 N   0  0  0  0  0  0  0  0  0  0  0  0
   11.6201   12.1347    8.7758 C   0  0  0  0  0  0  0  0  0  0  0  0
   11.2461   12.8800    7.7342 N   0  0  0  0  0  0  0  0  0  0  0  0
   11.2286   12.1950    6.5555 C   0  0  0  0  0  0  0  0  0  0  0  0
   11.5482   10.8666    6.3545 C   0  0  0  0  0  0  0  0  0  0  0  0
   11.9462   10.0658    7.4598 C   0  0  0  0  0  0  0  0  0  0  0  0
   12.2692    8.8728    7.5091 O   0  0  0  0  0  0  0  0  0  0  0  0
   11.3998   10.5820    5.0262 N   0  0  0  0  0  0  0  0  0  0  0  0
   10.9917   11.7244    4.4266 C   0  0  0  0  0  0  0  0  0  0  0  0
   10.8770   12.7434    5.3475 N   0  0  0  0  0  0  0  0  0  0  0  0
  1  2  1  0  0  0  0
  1  6  1  0  0  0  0
  2  3  2  0  0  0  0
  3  4  1  0  0  0  0
  4  5  2  0  0  0  0
  4 10  1  0  0  0  0
  5  6  1  0  0  0  0
  5  8  1  0  0  0  0
  6  7  2  0  0  0  0
  8  9  1  0  0  0  0
  9 10  2  0  0  0  0
M  END
>  <CHROM.1>
11.52219781,11.24234198,6.79927708,0.45821652,-1.26602266,1.00328934

>  <Name>
ligand

>  <RI>
0

>  <Rbt.Current_Directory>
/home/itssahil/PROJECTS/Mol_Feturizer/Test_systems_manuscript/rnas/4fe5

>  <Rbt.Executable>
rbdock ($Id: //depot/dev/client3/rdock/2013.1/src/exe/rbdock.cxx#4 $)

>  <Rbt.Library>
libRbt.so (2013.1, Build901 2013/11/27)

>  <Rbt.Parameter_File>
/export/apps/rDock/src/rDock_2013.1_src/data/scripts/dock_solv.prm

>  <Rbt.Receptor>
prm/pocket_docking_4.prm

>  <SCORE>
-17.5285

>  <SCORE.INTER>
-17.5285

>  <SCORE.INTER.CONST>
1

>  <SCORE.INTER.POLAR>
0

>  <SCORE.INTER.ROT>
0

>  <SCORE.INTER.SOLV>
3.50581

>  <SCORE.INTER.VDW>
-16.4543

>  <SCORE.INTER.norm>
-1.75285

>  <SCORE.INTRA>
0

>  <SCORE.INTRA.DIHEDRAL>
0

>  <SCORE.INTRA.DIHEDRAL.0>
0

>  <SCORE.INTRA.POLAR>
0

>  <SCORE.INTRA.POLAR.0>
0

>  <SCORE.INTRA.REPUL>
0

>  <SCORE.INTRA.REPUL.0>
0

>  <SCORE.INTRA.SOLV>
0

>  <SCORE.INTRA.SOLV.lig_0>
-4.28333

>  <SCORE.INTRA.VDW>
0

>  <SCORE.INTRA.VDW.0>
0

>  <SCORE.INTRA.norm>
0

>  <SCORE.RESTR>
0

>  <SCORE.RESTR.CAVITY>
0

>  <SCORE.RESTR.norm>
0

>  <SCORE.SYSTEM>
0

>  <SCORE.SYSTEM.CONST>
0

>  <SCORE.SYSTEM.DIHEDRAL>
0

>  <SCORE.SYSTEM.SOLV>
0

>  <SCORE.SYSTEM.norm>
0

>  <SCORE.heavy>
10

>  <SCORE.norm>
-1.75285

>  <RMSD>
0.486

$$$$
ligand
 OpenBabel02271912143D
libRbt.so/2013.1/901 2013/11/27
 10 11  0  0  0  0  0  0  0  0999 V2000
   11.8692   10.8376    8.6869 N   0  0  0  0  0  0  0  0  0  0  0  0
   11.5728   12.1765    8.7898 C   0  0  0  0  0  0  0  0  0  0  0  0
   11.2357   12.9110    7.7282 N   0  0  0  0  0  0  0  0  0  0  0  0
   11.2195   12.2041    6.5625 C   0  0  0  0  0  0  0  0  0  0  0  0
   11.5072   10.8643    6.3920 C   0  0  0  0  0  0  0  0  0  0  0  0
   11.8659   10.0748    7.5187 C   0  0  0  0  0  0  0  0  0  0  0  0
   12.1565    8.8749    7.5959 O   0  0  0  0  0  0  0  0  0  0  0  0
   11.3731   10.5581    5.0669 N   0  0  0  0  0  0  0  0  0  0  0  0
   11.0052   11.6990    4.4391 C   0  0  0  0  0  0  0  0  0  0  0  0
   10.9022   12.7381    5.3387 N   0  0  0  0  0  0  0  0  0  0  0  0
  1  2  1  0  0  0  0
  1  6  1  0  0  0  0
  2  3  2  0  0  0  0
  3  4  1  0  0  0  0
  4  5  2  0  0  0  0
  4 10  1  0  0  0  0
  5  6  1  0  0  0  0
  5  8  1  0  0  0  0
  6  7  2  0  0  0  0
  8  9  1  0  0  0  0
  9 10  2  0  0  0  0
M  END
>  <CHROM.1>
11.48385125,11.24904251,6.82910365,0.45693005,-1.29702792,0.98301962

>  <Name>
ligand

>  <RI>
0

>  <Rbt.Current_Directory>
/home/itssahil/PROJECTS/Mol_Feturizer/Test_systems_manuscript/rnas/4fe5

>  <Rbt.Executable>
rbdock ($Id: //depot/dev/client3/rdock/2013.1/src/exe/rbdock.cxx#4 $)

>  <Rbt.Library>
libRbt.so (2013.1, Build901 2013/11/27)

>  <Rbt.Parameter_File>
/export/apps/rDock/src/rDock_2013.1_src/data/scripts/dock_solv.prm

>  <Rbt.Receptor>
prm/pocket_docking_7.prm

>  <SCORE>
-17.4657

>  <SCORE.INTER>
-17.471

>  <SCORE.INTER.CONST>
1

>  <SCORE.INTER.POLAR>
0

>  <SCORE.INTER.ROT>
0

>  <SCORE.INTER.SOLV>
3.6352

>  <SCORE.INTER.VDW>
-16.459

>  <SCORE.INTER.norm>
-1.7471

>  <SCORE.INTRA>
0

>  <SCORE.INTRA.DIHEDRAL>
0

>  <SCORE.INTRA.DIHEDRAL.0>
0

>  <SCORE.INTRA.POLAR>
0

>  <SCORE.INTRA.POLAR.0>
0

>  <SCORE.INTRA.REPUL>
0

>  <SCORE.INTRA.REPUL.0>
0

>  <SCORE.INTRA.SOLV>
0

>  <SCORE.INTRA.SOLV.lig_0>
-4.28333

>  <SCORE.INTRA.VDW>
0

>  <SCORE.INTRA.VDW.0>
0

>  <SCORE.INTRA.norm>
0

>  <SCORE.RESTR>
0.00530847

>  <SCORE.RESTR.CAVITY>
0.00530847

>  <SCORE.RESTR.norm>
0.000530847

>  <SCORE.SYSTEM>
0

>  <SCORE.SYSTEM.CONST>
0

>  <SCORE.SYSTEM.DIHEDRAL>
0

>  <SCORE.SYSTEM.SOLV>
0

>  <SCORE.SYSTEM.norm>
0

>  <SCORE.heavy>
10

>  <SCORE.norm>
-1.74657

>  <RMSD>
0.486

$$$$
ligand
 OpenBabel02271912143D
libRbt.so/2013.1/901 2013/11/27
 10 11  0  0  0  0  0  0  0  0999 V2000
   11.9154   10.8283    8.6620 N   0  0  0  0  0  0  0  0  0  0  0  0
   11.6019   12.1625    8.7743 C   0  0  0  0  0  0  0  0  0  0  0  0
   11.2406   12.8964    7.7202 N   0  0  0  0  0  0  0  0  0  0  0  0
   11.2187   12.1938    6.5519 C   0  0  0  0  0  0  0  0  0  0  0  0
   11.5227   10.8587    6.3723 C   0  0  0  0  0  0  0  0  0  0  0  0
   11.9072   10.0699    7.4910 C   0  0  0  0  0  0  0  0  0  0  0  0
   12.2154    8.8740    7.5595 O   0  0  0  0  0  0  0  0  0  0  0  0
   11.3753   10.5557    5.0479 N   0  0  0  0  0  0  0  0  0  0  0  0
   10.9832   11.6938    4.4296 C   0  0  0  0  0  0  0  0  0  0  0  0
   10.8779   12.7280    5.3346 N   0  0  0  0  0  0  0  0  0  0  0  0
  1  2  1  0  0  0  0
  1  6  1  0  0  0  0
  2  3  2  0  0  0  0
  3  4  1  0  0  0  0
  4  5  2  0  0  0  0
  4 10  1  0  0  0  0
  5  6  1  0  0  0  0
  5  8  1  0  0  0  0
  6  7  2  0  0  0  0
  8  9  1  0  0  0  0
  9 10  2  0  0  0  0
M  END
>  <CHROM.1>
11.49980205,11.24142394,6.81118832,0.44523194,-1.27812549,0.97570524

>  <Name>
ligand

>  <RI>
0

>  <Rbt.Current_Directory>
/home/itssahil/PROJECTS/Mol_Feturizer/Test_systems_manuscript/rnas/4fe5

>  <Rbt.Executable>
rbdock ($Id: //depot/dev/client3/rdock/2013.1/src/exe/rbdock.cxx#4 $)

>  <Rbt.Library>
libRbt.so (2013.1, Build901 2013/11/27)

>  <Rbt.Parameter_File>
/export/apps/rDock/src/rDock_2013.1_src/data/scripts/dock_solv.prm

>  <Rbt.Receptor>
prm/pocket_docking_7.prm

>  <SCORE>
-17.4974

>  <SCORE.INTER>
-17.5042

>  <SCORE.INTER.CONST>
1

>  <SCORE.INTER.POLAR>
0

>  <SCORE.INTER.ROT>
0

>  <SCORE.INTER.SOLV>
3.5551

>  <SCORE.INTER.VDW>
-16.4545

>  <SCORE.INTER.norm>
-1.75042

>  <SCORE.INTRA>
0

>  <SCORE.INTRA.DIHEDRAL>
0

>  <SCORE.INTRA.DIHEDRAL.0>
0

>  <SCORE.INTRA.POLAR>
0

>  <SCORE.INTRA.POLAR.0>
0

>  <SCORE.INTRA.REPUL>
0

>  <SCORE.INTRA.REPUL.0>
0

>  <SCORE.INTRA.SOLV>
0

>  <SCORE.INTRA.SOLV.lig_0>
-4.28333

>  <SCORE.INTRA.VDW>
0

>  <SCORE.INTRA.VDW.0>
0

>  <SCORE.INTRA.norm>
0

>  <SCORE.RESTR>
0.00674481

>  <SCORE.RESTR.CAVITY>
0.00674481

>  <SCORE.RESTR.norm>
0.000674481

>  <SCORE.SYSTEM>
0

>  <SCORE.SYSTEM.CONST>
0

>  <SCORE.SYSTEM.DIHEDRAL>
0

>  <SCORE.SYSTEM.SOLV>
0

>  <SCORE.SYSTEM.norm>
0

>  <SCORE.heavy>
10

>  <SCORE.norm>
-1.74974

>  <RMSD>
0.486

$$$$
ligand
 OpenBabel02271912143D
libRbt.so/2013.1/901 2013/11/27
 10 11  0  0  0  0  0  0  0  0999 V2000
   11.9476   10.8229    8.6440 N   0  0  0  0  0  0  0  0  0  0  0  0
   11.6183   12.1516    8.7748 C   0  0  0  0  0  0  0  0  0  0  0  0
   11.2367   12.8927    7.7330 N   0  0  0  0  0  0  0  0  0  0  0  0
   11.2117   12.2032    6.5570 C   0  0  0  0  0  0  0  0  0  0  0  0
   11.5308   10.8743    6.3589 C   0  0  0  0  0  0  0  0  0  0  0  0
   11.9369   10.0779    7.4645 C   0  0  0  0  0  0  0  0  0  0  0  0
   12.2611    8.8853    7.5160 O   0  0  0  0  0  0  0  0  0  0  0  0
   11.3735   10.5846    5.0327 N   0  0  0  0  0  0  0  0  0  0  0  0
   10.9606   11.7245    4.4316 C   0  0  0  0  0  0  0  0  0  0  0  0
   10.8514   12.7468    5.3495 N   0  0  0  0  0  0  0  0  0  0  0  0
  1  2  1  0  0  0  0
  1  6  1  0  0  0  0
  2  3  2  0  0  0  0
  3  4  1  0  0  0  0
  4  5  2  0  0  0  0
  4 10  1  0  0  0  0
  5  6  1  0  0  0  0
  5  8  1  0  0  0  0
  6  7  2  0  0  0  0
  8  9  1  0  0  0  0
  9 10  2  0  0  0  0
M  END
>  <CHROM.1>
11.50756941,11.25168371,6.80238917,0.44050175,-1.26171872,0.98264613

>  <Name>
ligand

>  <RI>
0

>  <Rbt.Current_Directory>
/home/itssahil/PROJECTS/Mol_Feturizer/Test_systems_manuscript/rnas/4fe5

>  <Rbt.Executable>
rbdock ($Id: //depot/dev/client3/rdock/2013.1/src/exe/rbdock.cxx#4 $)

>  <Rbt.Library>
libRbt.so (2013.1, Build901 2013/11/27)

>  <Rbt.Parameter_File>
/export/apps/rDock/src/rDock_2013.1_src/data/scripts/dock_solv.prm

>  <Rbt.Receptor>
prm/blind_docking_40.prm

>  <SCORE>
-17.5216

>  <SCORE.INTER>
-17.5216

>  <SCORE.INTER.CONST>
1

>  <SCORE.INTER.POLAR>
0

>  <SCORE.INTER.ROT>
0

>  <SCORE.INTER.SOLV>
3.50151

>  <SCORE.INTER.VDW>
-16.4482

>  <SCORE.INTER.norm>
-1.75216

>  <SCORE.INTRA>
0

>  <SCORE.INTRA.DIHEDRAL>
0

>  <SCORE.INTRA.DIHEDRAL.0>
0

>  <SCORE.INTRA.POLAR>
0

>  <SCORE.INTRA.POLAR.0>
0

>  <SCORE.INTRA.REPUL>
0

>  <SCORE.INTRA.REPUL.0>
0

>  <SCORE.INTRA.SOLV>
0

>  <SCORE.INTRA.SOLV.lig_0>
-4.28333

>  <SCORE.INTRA.VDW>
0

>  <SCORE.INTRA.VDW.0>
0

>  <SCORE.INTRA.norm>
0

>  <SCORE.RESTR>
0

>  <SCORE.RESTR.CAVITY>
0

>  <SCORE.RESTR.norm>
0

>  <SCORE.SYSTEM>
0

>  <SCORE.SYSTEM.CONST>
0

>  <SCORE.SYSTEM.DIHEDRAL>
0

>  <SCORE.SYSTEM.SOLV>
0

>  <SCORE.SYSTEM.norm>
0

>  <SCORE.heavy>
10

>  <SCORE.norm>
-1.75216

>  <RMSD>
0.487

$$$$
ligand
 OpenBabel02271912143D
libRbt.so/2013.1/901 2013/11/27
 10 11  0  0  0  0  0  0  0  0999 V2000
   11.8591   10.8428    8.6885 N   0  0  0  0  0  0  0  0  0  0  0  0
   11.5557   12.1804    8.7877 C   0  0  0  0  0  0  0  0  0  0  0  0
   11.2190   12.9112    7.7233 N   0  0  0  0  0  0  0  0  0  0  0  0
   11.2108   12.2018    6.5589 C   0  0  0  0  0  0  0  0  0  0  0  0
   11.5058   10.8630    6.3923 C   0  0  0  0  0  0  0  0  0  0  0  0
   11.8640   10.0776    7.5220 C   0  0  0  0  0  0  0  0  0  0  0  0
   12.1603    8.8794    7.6026 O   0  0  0  0  0  0  0  0  0  0  0  0
   11.3783   10.5535    5.0673 N   0  0  0  0  0  0  0  0  0  0  0  0
   11.0071   11.6914    4.4358 C   0  0  0  0  0  0  0  0  0  0  0  0
   10.8956   12.7318    5.3328 N   0  0  0  0  0  0  0  0  0  0  0  0
  1  2  1  0  0  0  0
  1  6  1  0  0  0  0
  2  3  2  0  0  0  0
  3  4  1  0  0  0  0
  4  5  2  0  0  0  0
  4 10  1  0  0  0  0
  5  6  1  0  0  0  0
  5  8  1  0  0  0  0
  6  7  2  0  0  0  0
  8  9  1  0  0  0  0
  9 10  2  0  0  0  0
M  END
>  <CHROM.1>
11.47884512,11.24859936,6.82848633,0.47869959,-1.29499884,1.00194591

>  <Name>
ligand

>  <RI>
0

>  <Rbt.Current_Directory>
/home/itssahil/PROJECTS/Mol_Feturizer/Test_systems_manuscript/rnas/4fe5

>  <Rbt.Executable>
rbdock ($Id: //depot/dev/client3/rdock/2013.1/src/exe/rbdock.cxx#4 $)

>  <Rbt.Library>
libRbt.so (2013.1, Build901 2013/11/27)

>  <Rbt.Parameter_File>
/export/apps/rDock/src/rDock_2013.1_src/data/scripts/dock_solv.prm

>  <Rbt.Receptor>
prm/blind_docking_40.prm

>  <SCORE>
-17.4505

>  <SCORE.INTER>
-17.4505

>  <SCORE.INTER.CONST>
1

>  <SCORE.INTER.POLAR>
0

>  <SCORE.INTER.ROT>
0

>  <SCORE.INTER.SOLV>
3.63619

>  <SCORE.INTER.VDW>
-16.4457

>  <SCORE.INTER.norm>
-1.74505

>  <SCORE.INTRA>
0

>  <SCORE.INTRA.DIHEDRAL>
0

>  <SCORE.INTRA.DIHEDRAL.0>
0

>  <SCORE.INTRA.POLAR>
0

>  <SCORE.INTRA.POLAR.0>
0

>  <SCORE.INTRA.REPUL>
0

>  <SCORE.INTRA.REPUL.0>
0

>  <SCORE.INTRA.SOLV>
0

>  <SCORE.INTRA.SOLV.lig_0>
-4.28333

>  <SCORE.INTRA.VDW>
0

>  <SCORE.INTRA.VDW.0>
0

>  <SCORE.INTRA.norm>
0

>  <SCORE.RESTR>
0

>  <SCORE.RESTR.CAVITY>
0

>  <SCORE.RESTR.norm>
0

>  <SCORE.SYSTEM>
0

>  <SCORE.SYSTEM.CONST>
0

>  <SCORE.SYSTEM.DIHEDRAL>
0

>  <SCORE.SYSTEM.SOLV>
0

>  <SCORE.SYSTEM.norm>
0

>  <SCORE.heavy>
10

>  <SCORE.norm>
-1.74505

>  <RMSD>
0.487

$$$$
ligand
 OpenBabel02271912143D
libRbt.so/2013.1/901 2013/11/27
 10 11  0  0  0  0  0  0  0  0999 V2000
   11.9392   10.8184    8.6466 N   0  0  0  0  0  0  0  0  0  0  0  0
   11.6080   12.1463    8.7806 C   0  0  0  0  0  0  0  0  0  0  0  0
   11.2336   12.8916    7.7391 N   0  0  0  0  0  0  0  0  0  0  0  0
   11.2179   12.2071    6.5601 C   0  0  0  0  0  0  0  0  0  0  0  0
   11.5394   10.8793    6.3586 C   0  0  0  0  0  0  0  0  0  0  0  0
   11.9378   10.0784    7.4638 C   0  0  0  0  0  0  0  0  0  0  0  0
   12.2624    8.8858    7.5126 O   0  0  0  0  0  0  0  0  0  0  0  0
   11.3922   10.5951    5.0301 N   0  0  0  0  0  0  0  0  0  0  0  0
   10.9830   11.7374    4.4308 C   0  0  0  0  0  0  0  0  0  0  0  0
   10.8663   12.7556    5.3522 N   0  0  0  0  0  0  0  0  0  0  0  0
  1  2  1  0  0  0  0
  1  6  1  0  0  0  0
  2  3  2  0  0  0  0
  3  4  1  0  0  0  0
  4  5  2  0  0  0  0
  4 10  1  0  0  0  0
  5  6  1  0  0  0  0
  5  8  1  0  0  0  0
  6  7  2  0  0  0  0
  8  9  1  0  0  0  0
  9 10  2  0  0  0  0
M  END
>  <CHROM.1>
11.51258267,11.25474193,6.80357408,0.46242872,-1.26522175,1.00782682

>  <Name>
ligand

>  <RI>
0

>  <Rbt.Current_Directory>
/home/itssahil/PROJECTS/Mol_Feturizer/Test_systems_manuscript/rnas/4fe5

>  <Rbt.Executable>
rbdock ($Id: //depot/dev/client3/rdock/2013.1/src/exe/rbdock.cxx#4 $)

>  <Rbt.Library>
libRbt.so (2013.1, Build901 2013/11/27)

>  <Rbt.Parameter_File>
/export/apps/rDock/src/rDock_2013.1_src/data/scripts/dock_solv.prm

>  <Rbt.Receptor>
prm/pocket_docking_3.prm

>  <SCORE>
-17.5207

>  <SCORE.INTER>
-17.5207

>  <SCORE.INTER.CONST>
1

>  <SCORE.INTER.POLAR>
0

>  <SCORE.INTER.ROT>
0

>  <SCORE.INTER.SOLV>
3.50914

>  <SCORE.INTER.VDW>
-16.4502

>  <SCORE.INTER.norm>
-1.75207

>  <SCORE.INTRA>
0

>  <SCORE.INTRA.DIHEDRAL>
0

>  <SCORE.INTRA.DIHEDRAL.0>
0

>  <SCORE.INTRA.POLAR>
0

>  <SCORE.INTRA.POLAR.0>
0

>  <SCORE.INTRA.REPUL>
0

>  <SCORE.INTRA.REPUL.0>
0

>  <SCORE.INTRA.SOLV>
0

>  <SCORE.INTRA.SOLV.lig_0>
-4.28333

>  <SCORE.INTRA.VDW>
0

>  <SCORE.INTRA.VDW.0>
0

>  <SCORE.INTRA.norm>
0

>  <SCORE.RESTR>
0

>  <SCORE.RESTR.CAVITY>
0

>  <SCORE.RESTR.norm>
0

>  <SCORE.SYSTEM>
0

>  <SCORE.SYSTEM.CONST>
0

>  <SCORE.SYSTEM.DIHEDRAL>
0

>  <SCORE.SYSTEM.SOLV>
0

>  <SCORE.SYSTEM.norm>
0

>  <SCORE.heavy>
10

>  <SCORE.norm>
-1.75207

>  <RMSD>
0.487

$$$$
ligand
 OpenBabel02271912143D
libRbt.so/2013.1/901 2013/11/27
 10 11  0  0  0  0  0  0  0  0999 V2000
   11.9511   10.8054    8.6407 N   0  0  0  0  0  0  0  0  0  0  0  0
   11.6302   12.1352    8.7808 C   0  0  0  0  0  0  0  0  0  0  0  0
   11.2530   12.8859    7.7442 N   0  0  0  0  0  0  0  0  0  0  0  0
   11.2233   12.2047    6.5635 C   0  0  0  0  0  0  0  0  0  0  0  0
   11.5340   10.8752    6.3562 C   0  0  0  0  0  0  0  0  0  0  0  0
   11.9354   10.0687    7.4561 C   0  0  0  0  0  0  0  0  0  0  0  0
   12.2520    8.8737    7.4993 O   0  0  0  0  0  0  0  0  0  0  0  0
   11.3746   10.5957    5.0280 N   0  0  0  0  0  0  0  0  0  0  0  0
   10.9687   11.7423    4.4349 C   0  0  0  0  0  0  0  0  0  0  0  0
   10.8662   12.7589    5.3599 N   0  0  0  0  0  0  0  0  0  0  0  0
  1  2  1  0  0  0  0
  1  6  1  0  0  0  0
  2  3  2  0  0  0  0
  3  4  1  0  0  0  0
  4  5  2  0  0  0  0
  4 10  1  0  0  0  0
  5  6  1  0  0  0  0
  5  8  1  0  0  0  0
  6  7  2  0  0  0  0
  8  9  1  0  0  0  0
  9 10  2  0  0  0  0
M  END
>  <CHROM.1>
11.51327882,11.24969352,6.80226185,0.42809341,-1.26680895,0.97771275

>  <Name>
ligand

>  <RI>
0

>  <Rbt.Current_Directory>
/home/itssahil/PROJECTS/Mol_Feturizer/Test_systems_manuscript/rnas/4fe5

>  <Rbt.Executable>
rbdock ($Id: //depot/dev/client3/rdock/2013.1/src/exe/rbdock.cxx#4 $)

>  <Rbt.Library>
libRbt.so (2013.1, Build901 2013/11/27)

>  <Rbt.Parameter_File>
/export/apps/rDock/src/rDock_2013.1_src/data/scripts/dock_solv.prm

>  <Rbt.Receptor>
prm/pocket_docking_5.prm

>  <SCORE>
-17.5153

>  <SCORE.INTER>
-17.5153

>  <SCORE.INTER.CONST>
1

>  <SCORE.INTER.POLAR>
0

>  <SCORE.INTER.ROT>
0

>  <SCORE.INTER.SOLV>
3.50612

>  <SCORE.INTER.VDW>
-16.4456

>  <SCORE.INTER.norm>
-1.75153

>  <SCORE.INTRA>
0

>  <SCORE.INTRA.DIHEDRAL>
0

>  <SCORE.INTRA.DIHEDRAL.0>
0

>  <SCORE.INTRA.POLAR>
0

>  <SCORE.INTRA.POLAR.0>
0

>  <SCORE.INTRA.REPUL>
0

>  <SCORE.INTRA.REPUL.0>
0

>  <SCORE.INTRA.SOLV>
0

>  <SCORE.INTRA.SOLV.lig_0>
-4.28333

>  <SCORE.INTRA.VDW>
0

>  <SCORE.INTRA.VDW.0>
0

>  <SCORE.INTRA.norm>
0

>  <SCORE.RESTR>
0

>  <SCORE.RESTR.CAVITY>
0

>  <SCORE.RESTR.norm>
0

>  <SCORE.SYSTEM>
0

>  <SCORE.SYSTEM.CONST>
0

>  <SCORE.SYSTEM.DIHEDRAL>
0

>  <SCORE.SYSTEM.SOLV>
0

>  <SCORE.SYSTEM.norm>
0

>  <SCORE.heavy>
10

>  <SCORE.norm>
-1.75153

>  <RMSD>
0.487

$$$$
ligand
 OpenBabel02271912143D
libRbt.so/2013.1/901 2013/11/27
 10 11  0  0  0  0  0  0  0  0999 V2000
   11.9506   10.8081    8.6395 N   0  0  0  0  0  0  0  0  0  0  0  0
   11.6205   12.1364    8.7719 C   0  0  0  0  0  0  0  0  0  0  0  0
   11.2421   12.8795    7.7303 N   0  0  0  0  0  0  0  0  0  0  0  0
   11.2210   12.1923    6.5529 C   0  0  0  0  0  0  0  0  0  0  0  0
   11.5411   10.8638    6.3532 C   0  0  0  0  0  0  0  0  0  0  0  0
   11.9439   10.0654    7.4585 C   0  0  0  0  0  0  0  0  0  0  0  0
   12.2682    8.8728    7.5088 O   0  0  0  0  0  0  0  0  0  0  0  0
   11.3882   10.5767    5.0259 N   0  0  0  0  0  0  0  0  0  0  0  0
   10.9768   11.7177    4.4257 C   0  0  0  0  0  0  0  0  0  0  0  0
   10.8645   12.7381    5.3453 N   0  0  0  0  0  0  0  0  0  0  0  0
  1  2  1  0  0  0  0
  1  6  1  0  0  0  0
  2  3  2  0  0  0  0
  3  4  1  0  0  0  0
  4  5  2  0  0  0  0
  4 10  1  0  0  0  0
  5  6  1  0  0  0  0
  5  8  1  0  0  0  0
  6  7  2  0  0  0  0
  8  9  1  0  0  0  0
  9 10  2  0  0  0  0
M  END
>  <CHROM.1>
11.51635872,11.24036363,6.79737949,0.44982976,-1.26326208,0.99348387

>  <Name>
ligand

>  <RI>
0

>  <Rbt.Current_Directory>
/home/itssahil/PROJECTS/Mol_Feturizer/Test_systems_manuscript/rnas/4fe5

>  <Rbt.Executable>
rbdock ($Id: //depot/dev/client3/rdock/2013.1/src/exe/rbdock.cxx#4 $)

>  <Rbt.Library>
libRbt.so (2013.1, Build901 2013/11/27)

>  <Rbt.Parameter_File>
/export/apps/rDock/src/rDock_2013.1_src/data/scripts/dock_solv.prm

>  <Rbt.Receptor>
prm/pocket_docking_6.prm

>  <SCORE>
-17.5279

>  <SCORE.INTER>
-17.5279

>  <SCORE.INTER.CONST>
1

>  <SCORE.INTER.POLAR>
0

>  <SCORE.INTER.ROT>
0

>  <SCORE.INTER.SOLV>
3.50074

>  <SCORE.INTER.VDW>
-16.4522

>  <SCORE.INTER.norm>
-1.75279

>  <SCORE.INTRA>
0

>  <SCORE.INTRA.DIHEDRAL>
0

>  <SCORE.INTRA.DIHEDRAL.0>
0

>  <SCORE.INTRA.POLAR>
0

>  <SCORE.INTRA.POLAR.0>
0

>  <SCORE.INTRA.REPUL>
0

>  <SCORE.INTRA.REPUL.0>
0

>  <SCORE.INTRA.SOLV>
0

>  <SCORE.INTRA.SOLV.lig_0>
-4.28333

>  <SCORE.INTRA.VDW>
0

>  <SCORE.INTRA.VDW.0>
0

>  <SCORE.INTRA.norm>
0

>  <SCORE.RESTR>
0

>  <SCORE.RESTR.CAVITY>
0

>  <SCORE.RESTR.norm>
0

>  <SCORE.SYSTEM>
0

>  <SCORE.SYSTEM.CONST>
0

>  <SCORE.SYSTEM.DIHEDRAL>
0

>  <SCORE.SYSTEM.SOLV>
0

>  <SCORE.SYSTEM.norm>
0

>  <SCORE.heavy>
10

>  <SCORE.norm>
-1.75279

>  <RMSD>
0.487

$$$$
ligand
 OpenBabel02271912143D
libRbt.so/2013.1/901 2013/11/27
 10 11  0  0  0  0  0  0  0  0999 V2000
   11.9317   10.8142    8.6464 N   0  0  0  0  0  0  0  0  0  0  0  0
   11.5888   12.1395    8.7762 C   0  0  0  0  0  0  0  0  0  0  0  0
   11.2163   12.8805    7.7310 N   0  0  0  0  0  0  0  0  0  0  0  0
   11.2149   12.1944    6.5527 C   0  0  0  0  0  0  0  0  0  0  0  0
   11.5485   10.8690    6.3555 C   0  0  0  0  0  0  0  0  0  0  0  0
   11.9450   10.0727    7.4646 C   0  0  0  0  0  0  0  0  0  0  0  0
   12.2789    8.8828    7.5174 O   0  0  0  0  0  0  0  0  0  0  0  0
   11.4135   10.5820    5.0262 N   0  0  0  0  0  0  0  0  0  0  0  0
   10.9996   11.7201    4.4223 C   0  0  0  0  0  0  0  0  0  0  0  0
   10.8679   12.7386    5.3415 N   0  0  0  0  0  0  0  0  0  0  0  0
  1  2  1  0  0  0  0
  1  6  1  0  0  0  0
  2  3  2  0  0  0  0
  3  4  1  0  0  0  0
  4  5  2  0  0  0  0
  4 10  1  0  0  0  0
  5  6  1  0  0  0  0
  5  8  1  0  0  0  0
  6  7  2  0  0  0  0
  8  9  1  0  0  0  0
  9 10  2  0  0  0  0
M  END
>  <CHROM.1>
11.51537045,11.24477501,6.79968418,0.49736166,-1.26223677,1.03983065

>  <Name>
ligand

>  <RI>
0

>  <Rbt.Current_Directory>
/home/itssahil/PROJECTS/Mol_Feturizer/Test_systems_manuscript/rnas/4fe5

>  <Rbt.Executable>
rbdock ($Id: //depot/dev/client3/rdock/2013.1/src/exe/rbdock.cxx#4 $)

>  <Rbt.Library>
libRbt.so (2013.1, Build901 2013/11/27)

>  <Rbt.Parameter_File>
/export/apps/rDock/src/rDock_2013.1_src/data/scripts/dock_solv.prm

>  <Rbt.Receptor>
prm/pocket_docking_8.prm

>  <SCORE>
-17.4636

>  <SCORE.INTER>
-17.4636

>  <SCORE.INTER.CONST>
1

>  <SCORE.INTER.POLAR>
0

>  <SCORE.INTER.ROT>
0

>  <SCORE.INTER.SOLV>
3.50557

>  <SCORE.INTER.VDW>
-16.4109

>  <SCORE.INTER.norm>
-1.74636

>  <SCORE.INTRA>
0

>  <SCORE.INTRA.DIHEDRAL>
0

>  <SCORE.INTRA.DIHEDRAL.0>
0

>  <SCORE.INTRA.POLAR>
0

>  <SCORE.INTRA.POLAR.0>
0

>  <SCORE.INTRA.REPUL>
0

>  <SCORE.INTRA.REPUL.0>
0

>  <SCORE.INTRA.SOLV>
0

>  <SCORE.INTRA.SOLV.lig_0>
-4.28333

>  <SCORE.INTRA.VDW>
0

>  <SCORE.INTRA.VDW.0>
0

>  <SCORE.INTRA.norm>
0

>  <SCORE.RESTR>
0

>  <SCORE.RESTR.CAVITY>
0

>  <SCORE.RESTR.norm>
0

>  <SCORE.SYSTEM>
0

>  <SCORE.SYSTEM.CONST>
0

>  <SCORE.SYSTEM.DIHEDRAL>
0

>  <SCORE.SYSTEM.SOLV>
0

>  <SCORE.SYSTEM.norm>
0

>  <SCORE.heavy>
10

>  <SCORE.norm>
-1.74636

>  <RMSD>
0.487

$$$$
ligand
 OpenBabel02271912143D
libRbt.so/2013.1/901 2013/11/27
 10 11  0  0  0  0  0  0  0  0999 V2000
   11.8596   10.8419    8.6867 N   0  0  0  0  0  0  0  0  0  0  0  0
   11.5567   12.1794    8.7875 C   0  0  0  0  0  0  0  0  0  0  0  0
   11.2203   12.9117    7.7241 N   0  0  0  0  0  0  0  0  0  0  0  0
   11.2120   12.2039    6.5588 C   0  0  0  0  0  0  0  0  0  0  0  0
   11.5065   10.8652    6.3904 C   0  0  0  0  0  0  0  0  0  0  0  0
   11.8644   10.0782    7.5191 C   0  0  0  0  0  0  0  0  0  0  0  0
   12.1602    8.8797    7.5983 O   0  0  0  0  0  0  0  0  0  0  0  0
   11.3790   10.5575    5.0651 N   0  0  0  0  0  0  0  0  0  0  0  0
   11.0082   11.6962    4.4350 C   0  0  0  0  0  0  0  0  0  0  0  0
   10.8970   12.7355    5.3334 N   0  0  0  0  0  0  0  0  0  0  0  0
  1  2  1  0  0  0  0
  1  6  1  0  0  0  0
  2  3  2  0  0  0  0
  3  4  1  0  0  0  0
  4  5  2  0  0  0  0
  4 10  1  0  0  0  0
  5  6  1  0  0  0  0
  5  8  1  0  0  0  0
  6  7  2  0  0  0  0
  8  9  1  0  0  0  0
  9 10  2  0  0  0  0
M  END
>  <CHROM.1>
11.47965387,11.25018894,6.82714103,0.47822182,-1.29530671,1.00278658

>  <Name>
ligand

>  <RI>
0

>  <Rbt.Current_Directory>
/home/itssahil/PROJECTS/Mol_Feturizer/Test_systems_manuscript/rnas/4fe5

>  <Rbt.Executable>
rbdock ($Id: //depot/dev/client3/rdock/2013.1/src/exe/rbdock.cxx#4 $)

>  <Rbt.Library>
libRbt.so (2013.1, Build901 2013/11/27)

>  <Rbt.Parameter_File>
/export/apps/rDock/src/rDock_2013.1_src/data/scripts/dock_solv.prm

>  <Rbt.Receptor>
prm/blind_docking_40.prm

>  <SCORE>
-17.4515

>  <SCORE.INTER>
-17.4516

>  <SCORE.INTER.CONST>
1

>  <SCORE.INTER.POLAR>
0

>  <SCORE.INTER.ROT>
0

>  <SCORE.INTER.SOLV>
3.63472

>  <SCORE.INTER.VDW>
-16.446

>  <SCORE.INTER.norm>
-1.74516

>  <SCORE.INTRA>
0

>  <SCORE.INTRA.DIHEDRAL>
0

>  <SCORE.INTRA.DIHEDRAL.0>
0

>  <SCORE.INTRA.POLAR>
0

>  <SCORE.INTRA.POLAR.0>
0

>  <SCORE.INTRA.REPUL>
0

>  <SCORE.INTRA.REPUL.0>
0

>  <SCORE.INTRA.SOLV>
0

>  <SCORE.INTRA.SOLV.lig_0>
-4.28333

>  <SCORE.INTRA.VDW>
0

>  <SCORE.INTRA.VDW.0>
0

>  <SCORE.INTRA.norm>
0

>  <SCORE.RESTR>
0.000117856

>  <SCORE.RESTR.CAVITY>
0.000117856

>  <SCORE.RESTR.norm>
1.17856e-05

>  <SCORE.SYSTEM>
0

>  <SCORE.SYSTEM.CONST>
0

>  <SCORE.SYSTEM.DIHEDRAL>
0

>  <SCORE.SYSTEM.SOLV>
0

>  <SCORE.SYSTEM.norm>
0

>  <SCORE.heavy>
10

>  <SCORE.norm>
-1.74515

>  <RMSD>
0.488

$$$$
ligand
 OpenBabel02271912143D
libRbt.so/2013.1/901 2013/11/27
 10 11  0  0  0  0  0  0  0  0999 V2000
   11.9516   10.8094    8.6392 N   0  0  0  0  0  0  0  0  0  0  0  0
   11.6223   12.1380    8.7714 C   0  0  0  0  0  0  0  0  0  0  0  0
   11.2431   12.8807    7.7298 N   0  0  0  0  0  0  0  0  0  0  0  0
   11.2205   12.1931    6.5528 C   0  0  0  0  0  0  0  0  0  0  0  0
   11.5398   10.8644    6.3533 C   0  0  0  0  0  0  0  0  0  0  0  0
   11.9433   10.0662    7.4585 C   0  0  0  0  0  0  0  0  0  0  0  0
   12.2672    8.8735    7.5089 O   0  0  0  0  0  0  0  0  0  0  0  0
   11.3853   10.5768    5.0263 N   0  0  0  0  0  0  0  0  0  0  0  0
   10.9739   11.7177    4.4260 C   0  0  0  0  0  0  0  0  0  0  0  0
   10.8630   12.7386    5.3453 N   0  0  0  0  0  0  0  0  0  0  0  0
  1  2  1  0  0  0  0
  1  6  1  0  0  0  0
  2  3  2  0  0  0  0
  3  4  1  0  0  0  0
  4  5  2  0  0  0  0
  4 10  1  0  0  0  0
  5  6  1  0  0  0  0
  5  8  1  0  0  0  0
  6  7  2  0  0  0  0
  8  9  1  0  0  0  0
  9 10  2  0  0  0  0
M  END
>  <CHROM.1>
11.51567221,11.24112163,6.79731575,0.44610652,-1.26309547,0.98952691

>  <Name>
ligand

>  <RI>
0

>  <Rbt.Current_Directory>
/home/itssahil/PROJECTS/Mol_Feturizer/Test_systems_manuscript/rnas/4fe5

>  <Rbt.Executable>
rbdock ($Id: //depot/dev/client3/rdock/2013.1/src/exe/rbdock.cxx#4 $)

>  <Rbt.Library>
libRbt.so (2013.1, Build901 2013/11/27)

>  <Rbt.Parameter_File>
/export/apps/rDock/src/rDock_2013.1_src/data/scripts/dock_solv.prm

>  <Rbt.Receptor>
prm/pocket_docking_3.prm

>  <SCORE>
-17.529

>  <SCORE.INTER>
-17.529

>  <SCORE.INTER.CONST>
1

>  <SCORE.INTER.POLAR>
0

>  <SCORE.INTER.ROT>
0

>  <SCORE.INTER.SOLV>
3.50038

>  <SCORE.INTER.VDW>
-16.4528

>  <SCORE.INTER.norm>
-1.7529

>  <SCORE.INTRA>
0

>  <SCORE.INTRA.DIHEDRAL>
0

>  <SCORE.INTRA.DIHEDRAL.0>
0

>  <SCORE.INTRA.POLAR>
0

>  <SCORE.INTRA.POLAR.0>
0

>  <SCORE.INTRA.REPUL>
0

>  <SCORE.INTRA.REPUL.0>
0

>  <SCORE.INTRA.SOLV>
0

>  <SCORE.INTRA.SOLV.lig_0>
-4.28333

>  <SCORE.INTRA.VDW>
0

>  <SCORE.INTRA.VDW.0>
0

>  <SCORE.INTRA.norm>
0

>  <SCORE.RESTR>
2.56381e-05

>  <SCORE.RESTR.CAVITY>
2.56381e-05

>  <SCORE.RESTR.norm>
2.56381e-06

>  <SCORE.SYSTEM>
0

>  <SCORE.SYSTEM.CONST>
0

>  <SCORE.SYSTEM.DIHEDRAL>
0

>  <SCORE.SYSTEM.SOLV>
0

>  <SCORE.SYSTEM.norm>
0

>  <SCORE.heavy>
10

>  <SCORE.norm>
-1.7529

>  <RMSD>
0.488

$$$$
ligand
 OpenBabel02271912143D
libRbt.so/2013.1/901 2013/11/27
 10 11  0  0  0  0  0  0  0  0999 V2000
   11.9480   10.8112    8.6405 N   0  0  0  0  0  0  0  0  0  0  0  0
   11.6290   12.1413    8.7821 C   0  0  0  0  0  0  0  0  0  0  0  0
   11.2477   12.8923    7.7473 N   0  0  0  0  0  0  0  0  0  0  0  0
   11.2118   12.2112    6.5668 C   0  0  0  0  0  0  0  0  0  0  0  0
   11.5203   10.8814    6.3579 C   0  0  0  0  0  0  0  0  0  0  0  0
   11.9260   10.0744    7.4560 C   0  0  0  0  0  0  0  0  0  0  0  0
   12.2417    8.8792    7.4977 O   0  0  0  0  0  0  0  0  0  0  0  0
   11.3543   10.6020    5.0306 N   0  0  0  0  0  0  0  0  0  0  0  0
   10.9467   11.7490    4.4393 C   0  0  0  0  0  0  0  0  0  0  0  0
   10.8496   12.7657    5.3648 N   0  0  0  0  0  0  0  0  0  0  0  0
  1  2  1  0  0  0  0
  1  6  1  0  0  0  0
  2  3  2  0  0  0  0
  3  4  1  0  0  0  0
  4  5  2  0  0  0  0
  4 10  1  0  0  0  0
  5  6  1  0  0  0  0
  5  8  1  0  0  0  0
  6  7  2  0  0  0  0
  8  9  1  0  0  0  0
  9 10  2  0  0  0  0
M  END
>  <CHROM.1>
11.50197632,11.25586569,6.80413079,0.41337547,-1.26495511,0.96366292

>  <Name>
ligand

>  <RI>
0

>  <Rbt.Current_Directory>
/home/itssahil/PROJECTS/Mol_Feturizer/Test_systems_manuscript/rnas/4fe5

>  <Rbt.Executable>
rbdock ($Id: //depot/dev/client3/rdock/2013.1/src/exe/rbdock.cxx#4 $)

>  <Rbt.Library>
libRbt.so (2013.1, Build901 2013/11/27)

>  <Rbt.Parameter_File>
/export/apps/rDock/src/rDock_2013.1_src/data/scripts/dock_solv.prm

>  <Rbt.Receptor>
prm/pocket_docking_4.prm

>  <SCORE>
-17.4617

>  <SCORE.INTER>
-17.4617

>  <SCORE.INTER.CONST>
1

>  <SCORE.INTER.POLAR>
0

>  <SCORE.INTER.ROT>
0

>  <SCORE.INTER.SOLV>
3.50438

>  <SCORE.INTER.VDW>
-16.4093

>  <SCORE.INTER.norm>
-1.74617

>  <SCORE.INTRA>
0

>  <SCORE.INTRA.DIHEDRAL>
0

>  <SCORE.INTRA.DIHEDRAL.0>
0

>  <SCORE.INTRA.POLAR>
0

>  <SCORE.INTRA.POLAR.0>
0

>  <SCORE.INTRA.REPUL>
0

>  <SCORE.INTRA.REPUL.0>
0

>  <SCORE.INTRA.SOLV>
0

>  <SCORE.INTRA.SOLV.lig_0>
-4.28333

>  <SCORE.INTRA.VDW>
0

>  <SCORE.INTRA.VDW.0>
0

>  <SCORE.INTRA.norm>
0

>  <SCORE.RESTR>
0

>  <SCORE.RESTR.CAVITY>
0

>  <SCORE.RESTR.norm>
0

>  <SCORE.SYSTEM>
0

>  <SCORE.SYSTEM.CONST>
0

>  <SCORE.SYSTEM.DIHEDRAL>
0

>  <SCORE.SYSTEM.SOLV>
0

>  <SCORE.SYSTEM.norm>
0

>  <SCORE.heavy>
10

>  <SCORE.norm>
-1.74617

>  <RMSD>
0.488

$$$$
ligand
 OpenBabel02271912143D
libRbt.so/2013.1/901 2013/11/27
 10 11  0  0  0  0  0  0  0  0999 V2000
   11.9331   10.8375    8.6530 N   0  0  0  0  0  0  0  0  0  0  0  0
   11.6004   12.1659    8.7780 C   0  0  0  0  0  0  0  0  0  0  0  0
   11.2292   12.9048    7.7308 N   0  0  0  0  0  0  0  0  0  0  0  0
   11.2182   12.2133    6.5558 C   0  0  0  0  0  0  0  0  0  0  0  0
   11.5415   10.8846    6.3634 C   0  0  0  0  0  0  0  0  0  0  0  0
   11.9365   10.0906    7.4747 C   0  0  0  0  0  0  0  0  0  0  0  0
   12.2618    8.8986    7.5318 O   0  0  0  0  0  0  0  0  0  0  0  0
   11.3993   10.5925    5.0360 N   0  0  0  0  0  0  0  0  0  0  0  0
   10.9914   11.7308    4.4285 C   0  0  0  0  0  0  0  0  0  0  0  0
   10.8706   12.7544    5.3434 N   0  0  0  0  0  0  0  0  0  0  0  0
  1  2  1  0  0  0  0
  1  6  1  0  0  0  0
  2  3  2  0  0  0  0
  3  4  1  0  0  0  0
  4  5  2  0  0  0  0
  4 10  1  0  0  0  0
  5  6  1  0  0  0  0
  5  8  1  0  0  0  0
  6  7  2  0  0  0  0
  8  9  1  0  0  0  0
  9 10  2  0  0  0  0
M  END
>  <CHROM.1>
11.51278517,11.26266625,6.80598395,0.47399804,-1.26648320,1.01293971

>  <Name>
ligand

>  <RI>
0

>  <Rbt.Current_Directory>
/home/itssahil/PROJECTS/Mol_Feturizer/Test_systems_manuscript/rnas/4fe5

>  <Rbt.Executable>
rbdock ($Id: //depot/dev/client3/rdock/2013.1/src/exe/rbdock.cxx#4 $)

>  <Rbt.Library>
libRbt.so (2013.1, Build901 2013/11/27)

>  <Rbt.Parameter_File>
/export/apps/rDock/src/rDock_2013.1_src/data/scripts/dock_solv.prm

>  <Rbt.Receptor>
prm/pocket_docking_4.prm

>  <SCORE>
-17.483

>  <SCORE.INTER>
-17.483

>  <SCORE.INTER.CONST>
1

>  <SCORE.INTER.POLAR>
0

>  <SCORE.INTER.ROT>
0

>  <SCORE.INTER.SOLV>
3.51789

>  <SCORE.INTER.VDW>
-16.428

>  <SCORE.INTER.norm>
-1.7483

>  <SCORE.INTRA>
0

>  <SCORE.INTRA.DIHEDRAL>
0

>  <SCORE.INTRA.DIHEDRAL.0>
0

>  <SCORE.INTRA.POLAR>
0

>  <SCORE.INTRA.POLAR.0>
0

>  <SCORE.INTRA.REPUL>
0

>  <SCORE.INTRA.REPUL.0>
0

>  <SCORE.INTRA.SOLV>
0

>  <SCORE.INTRA.SOLV.lig_0>
-4.28333

>  <SCORE.INTRA.VDW>
0

>  <SCORE.INTRA.VDW.0>
0

>  <SCORE.INTRA.norm>
0

>  <SCORE.RESTR>
0

>  <SCORE.RESTR.CAVITY>
0

>  <SCORE.RESTR.norm>
0

>  <SCORE.SYSTEM>
0

>  <SCORE.SYSTEM.CONST>
0

>  <SCORE.SYSTEM.DIHEDRAL>
0

>  <SCORE.SYSTEM.SOLV>
0

>  <SCORE.SYSTEM.norm>
0

>  <SCORE.heavy>
10

>  <SCORE.norm>
-1.7483

>  <RMSD>
0.488

$$$$
ligand
 OpenBabel02271912143D
libRbt.so/2013.1/901 2013/11/27
 10 11  0  0  0  0  0  0  0  0999 V2000
   11.9252   10.8158    8.6508 N   0  0  0  0  0  0  0  0  0  0  0  0
   11.6104   12.1484    8.7773 C   0  0  0  0  0  0  0  0  0  0  0  0
   11.2389   12.8907    7.7327 N   0  0  0  0  0  0  0  0  0  0  0  0
   11.2084   12.1983    6.5586 C   0  0  0  0  0  0  0  0  0  0  0  0
   11.5131   10.8653    6.3648 C   0  0  0  0  0  0  0  0  0  0  0  0
   11.9084   10.0676    7.4733 C   0  0  0  0  0  0  0  0  0  0  0  0
   12.2193    8.8717    7.5288 O   0  0  0  0  0  0  0  0  0  0  0  0
   11.3551   10.5736    5.0391 N   0  0  0  0  0  0  0  0  0  0  0  0
   10.9558   11.7164    4.4340 C   0  0  0  0  0  0  0  0  0  0  0  0
   10.8563   12.7424    5.3489 N   0  0  0  0  0  0  0  0  0  0  0  0
  1  2  1  0  0  0  0
  1  6  1  0  0  0  0
  2  3  2  0  0  0  0
  3  4  1  0  0  0  0
  4  5  2  0  0  0  0
  4 10  1  0  0  0  0
  5  6  1  0  0  0  0
  5  8  1  0  0  0  0
  6  7  2  0  0  0  0
  8  9  1  0  0  0  0
  9 10  2  0  0  0  0
M  END
>  <CHROM.1>
11.49327005,11.24421688,6.80719157,0.42483257,-1.27189561,0.96488223

>  <Name>
ligand

>  <RI>
0

>  <Rbt.Current_Directory>
/home/itssahil/PROJECTS/Mol_Feturizer/Test_systems_manuscript/rnas/4fe5

>  <Rbt.Executable>
rbdock ($Id: //depot/dev/client3/rdock/2013.1/src/exe/rbdock.cxx#4 $)

>  <Rbt.Library>
libRbt.so (2013.1, Build901 2013/11/27)

>  <Rbt.Parameter_File>
/export/apps/rDock/src/rDock_2013.1_src/data/scripts/dock_solv.prm

>  <Rbt.Receptor>
prm/pocket_docking_4.prm

>  <SCORE>
-17.4927

>  <SCORE.INTER>
-17.4927

>  <SCORE.INTER.CONST>
1

>  <SCORE.INTER.POLAR>
0

>  <SCORE.INTER.ROT>
0

>  <SCORE.INTER.SOLV>
3.53159

>  <SCORE.INTER.VDW>
-16.439

>  <SCORE.INTER.norm>
-1.74927

>  <SCORE.INTRA>
0

>  <SCORE.INTRA.DIHEDRAL>
0

>  <SCORE.INTRA.DIHEDRAL.0>
0

>  <SCORE.INTRA.POLAR>
0

>  <SCORE.INTRA.POLAR.0>
0

>  <SCORE.INTRA.REPUL>
0

>  <SCORE.INTRA.REPUL.0>
0

>  <SCORE.INTRA.SOLV>
0

>  <SCORE.INTRA.SOLV.lig_0>
-4.28333

>  <SCORE.INTRA.VDW>
0

>  <SCORE.INTRA.VDW.0>
0

>  <SCORE.INTRA.norm>
0

>  <SCORE.RESTR>
0

>  <SCORE.RESTR.CAVITY>
0

>  <SCORE.RESTR.norm>
0

>  <SCORE.SYSTEM>
0

>  <SCORE.SYSTEM.CONST>
0

>  <SCORE.SYSTEM.DIHEDRAL>
0

>  <SCORE.SYSTEM.SOLV>
0

>  <SCORE.SYSTEM.norm>
0

>  <SCORE.heavy>
10

>  <SCORE.norm>
-1.74927

>  <RMSD>
0.488

$$$$
ligand
 OpenBabel02271912143D
libRbt.so/2013.1/901 2013/11/27
 10 11  0  0  0  0  0  0  0  0999 V2000
   11.8257   10.8300    8.7089 N   0  0  0  0  0  0  0  0  0  0  0  0
   11.5633   12.1762    8.8092 C   0  0  0  0  0  0  0  0  0  0  0  0
   11.2383   12.9156    7.7472 N   0  0  0  0  0  0  0  0  0  0  0  0
   11.1976   12.2056    6.5839 C   0  0  0  0  0  0  0  0  0  0  0  0
   11.4509   10.8585    6.4161 C   0  0  0  0  0  0  0  0  0  0  0  0
   11.7965   10.0638    7.5433 C   0  0  0  0  0  0  0  0  0  0  0  0
   12.0577    8.8574    7.6226 O   0  0  0  0  0  0  0  0  0  0  0  0
   11.3014   10.5516    5.0928 N   0  0  0  0  0  0  0  0  0  0  0  0
   10.9582   11.6994    4.4635 C   0  0  0  0  0  0  0  0  0  0  0  0
   10.8865   12.7435    5.3602 N   0  0  0  0  0  0  0  0  0  0  0  0
  1  2  1  0  0  0  0
  1  6  1  0  0  0  0
  2  3  2  0  0  0  0
  3  4  1  0  0  0  0
  4  5  2  0  0  0  0
  4 10  1  0  0  0  0
  5  6  1  0  0  0  0
  5  8  1  0  0  0  0
  6  7  2  0  0  0  0
  8  9  1  0  0  0  0
  9 10  2  0  0  0  0
M  END
>  <CHROM.1>
11.43969841,11.24510764,6.85205925,0.38323795,-1.31378156,0.90871097

>  <Name>
ligand

>  <RI>
0

>  <Rbt.Current_Directory>
/home/itssahil/PROJECTS/Mol_Feturizer/Test_systems_manuscript/rnas/4fe5

>  <Rbt.Executable>
rbdock ($Id: //depot/dev/client3/rdock/2013.1/src/exe/rbdock.cxx#4 $)

>  <Rbt.Library>
libRbt.so (2013.1, Build901 2013/11/27)

>  <Rbt.Parameter_File>
/export/apps/rDock/src/rDock_2013.1_src/data/scripts/dock_solv.prm

>  <Rbt.Receptor>
prm/pocket_docking_7.prm

>  <SCORE>
-17.4026

>  <SCORE.INTER>
-17.4027

>  <SCORE.INTER.CONST>
1

>  <SCORE.INTER.POLAR>
0

>  <SCORE.INTER.ROT>
0

>  <SCORE.INTER.SOLV>
3.72659

>  <SCORE.INTER.VDW>
-16.444

>  <SCORE.INTER.norm>
-1.74027

>  <SCORE.INTRA>
0

>  <SCORE.INTRA.DIHEDRAL>
0

>  <SCORE.INTRA.DIHEDRAL.0>
0

>  <SCORE.INTRA.POLAR>
0

>  <SCORE.INTRA.POLAR.0>
0

>  <SCORE.INTRA.REPUL>
0

>  <SCORE.INTRA.REPUL.0>
0

>  <SCORE.INTRA.SOLV>
0

>  <SCORE.INTRA.SOLV.lig_0>
-4.28333

>  <SCORE.INTRA.VDW>
0

>  <SCORE.INTRA.VDW.0>
0

>  <SCORE.INTRA.norm>
0

>  <SCORE.RESTR>
0.000126385

>  <SCORE.RESTR.CAVITY>
0.000126385

>  <SCORE.RESTR.norm>
1.26385e-05

>  <SCORE.SYSTEM>
0

>  <SCORE.SYSTEM.CONST>
0

>  <SCORE.SYSTEM.DIHEDRAL>
0

>  <SCORE.SYSTEM.SOLV>
0

>  <SCORE.SYSTEM.norm>
0

>  <SCORE.heavy>
10

>  <SCORE.norm>
-1.74026

>  <RMSD>
0.488

$$$$
ligand
 OpenBabel02271912143D
libRbt.so/2013.1/901 2013/11/27
 10 11  0  0  0  0  0  0  0  0999 V2000
   11.9405   10.8129    8.6425 N   0  0  0  0  0  0  0  0  0  0  0  0
   11.6165   12.1423    8.7798 C   0  0  0  0  0  0  0  0  0  0  0  0
   11.2419   12.8910    7.7409 N   0  0  0  0  0  0  0  0  0  0  0  0
   11.2181   12.2084    6.5609 C   0  0  0  0  0  0  0  0  0  0  0  0
   11.5322   10.8793    6.3563 C   0  0  0  0  0  0  0  0  0  0  0  0
   11.9308   10.0748    7.4586 C   0  0  0  0  0  0  0  0  0  0  0  0
   12.2497    8.8805    7.5044 O   0  0  0  0  0  0  0  0  0  0  0  0
   11.3785   10.5980    5.0278 N   0  0  0  0  0  0  0  0  0  0  0  0
   10.9726   11.7431    4.4318 C   0  0  0  0  0  0  0  0  0  0  0  0
   10.8646   12.7606    5.3552 N   0  0  0  0  0  0  0  0  0  0  0  0
  1  2  1  0  0  0  0
  1  6  1  0  0  0  0
  2  3  2  0  0  0  0
  3  4  1  0  0  0  0
  4  5  2  0  0  0  0
  4 10  1  0  0  0  0
  5  6  1  0  0  0  0
  5  8  1  0  0  0  0
  6  7  2  0  0  0  0
  8  9  1  0  0  0  0
  9 10  2  0  0  0  0
M  END
>  <CHROM.1>
11.50899345,11.25425022,6.80184564,0.44257329,-1.26733397,0.99039925

>  <Name>
ligand

>  <RI>
0

>  <Rbt.Current_Directory>
/home/itssahil/PROJECTS/Mol_Feturizer/Test_systems_manuscript/rnas/4fe5

>  <Rbt.Executable>
rbdock ($Id: //depot/dev/client3/rdock/2013.1/src/exe/rbdock.cxx#4 $)

>  <Rbt.Library>
libRbt.so (2013.1, Build901 2013/11/27)

>  <Rbt.Parameter_File>
/export/apps/rDock/src/rDock_2013.1_src/data/scripts/dock_solv.prm

>  <Rbt.Receptor>
prm/pocket_docking_3.prm

>  <SCORE>
-17.5068

>  <SCORE.INTER>
-17.5068

>  <SCORE.INTER.CONST>
1

>  <SCORE.INTER.POLAR>
0

>  <SCORE.INTER.ROT>
0

>  <SCORE.INTER.SOLV>
3.51179

>  <SCORE.INTER.VDW>
-16.4418

>  <SCORE.INTER.norm>
-1.75068

>  <SCORE.INTRA>
0

>  <SCORE.INTRA.DIHEDRAL>
0

>  <SCORE.INTRA.DIHEDRAL.0>
0

>  <SCORE.INTRA.POLAR>
0

>  <SCORE.INTRA.POLAR.0>
0

>  <SCORE.INTRA.REPUL>
0

>  <SCORE.INTRA.REPUL.0>
0

>  <SCORE.INTRA.SOLV>
0

>  <SCORE.INTRA.SOLV.lig_0>
-4.28333

>  <SCORE.INTRA.VDW>
0

>  <SCORE.INTRA.VDW.0>
0

>  <SCORE.INTRA.norm>
0

>  <SCORE.RESTR>
0

>  <SCORE.RESTR.CAVITY>
0

>  <SCORE.RESTR.norm>
0

>  <SCORE.SYSTEM>
0

>  <SCORE.SYSTEM.CONST>
0

>  <SCORE.SYSTEM.DIHEDRAL>
0

>  <SCORE.SYSTEM.SOLV>
0

>  <SCORE.SYSTEM.norm>
0

>  <SCORE.heavy>
10

>  <SCORE.norm>
-1.75068

>  <RMSD>
0.489

$$$$
ligand
 OpenBabel02271912143D
libRbt.so/2013.1/901 2013/11/27
 10 11  0  0  0  0  0  0  0  0999 V2000
   11.8900   10.8411    8.6701 N   0  0  0  0  0  0  0  0  0  0  0  0
   11.5714   12.1743    8.7793 C   0  0  0  0  0  0  0  0  0  0  0  0
   11.2180   12.9071    7.7218 N   0  0  0  0  0  0  0  0  0  0  0  0
   11.2097   12.2045    6.5534 C   0  0  0  0  0  0  0  0  0  0  0  0
   11.5195   10.8704    6.3766 C   0  0  0  0  0  0  0  0  0  0  0  0
   11.8955   10.0828    7.4990 C   0  0  0  0  0  0  0  0  0  0  0  0
   12.2067    8.8878    7.5704 O   0  0  0  0  0  0  0  0  0  0  0  0
   11.3858   10.5671    5.0509 N   0  0  0  0  0  0  0  0  0  0  0  0
   10.9963   11.7040    4.4288 C   0  0  0  0  0  0  0  0  0  0  0  0
   10.8790   12.7378    5.3328 N   0  0  0  0  0  0  0  0  0  0  0  0
  1  2  1  0  0  0  0
  1  6  1  0  0  0  0
  2  3  2  0  0  0  0
  3  4  1  0  0  0  0
  4  5  2  0  0  0  0
  4 10  1  0  0  0  0
  5  6  1  0  0  0  0
  5  8  1  0  0  0  0
  6  7  2  0  0  0  0
  8  9  1  0  0  0  0
  9 10  2  0  0  0  0
M  END
>  <CHROM.1>
11.49112246,11.25305064,6.81531958,0.47940941,-1.28086042,1.00848915

>  <Name>
ligand

>  <RI>
0

>  <Rbt.Current_Directory>
/home/itssahil/PROJECTS/Mol_Feturizer/Test_systems_manuscript/rnas/4fe5

>  <Rbt.Executable>
rbdock ($Id: //depot/dev/client3/rdock/2013.1/src/exe/rbdock.cxx#4 $)

>  <Rbt.Library>
libRbt.so (2013.1, Build901 2013/11/27)

>  <Rbt.Parameter_File>
/export/apps/rDock/src/rDock_2013.1_src/data/scripts/dock_solv.prm

>  <Rbt.Receptor>
prm/pocket_docking_5.prm

>  <SCORE>
-17.4611

>  <SCORE.INTER>
-17.4611

>  <SCORE.INTER.CONST>
1

>  <SCORE.INTER.POLAR>
0

>  <SCORE.INTER.ROT>
0

>  <SCORE.INTER.SOLV>
3.57144

>  <SCORE.INTER.VDW>
-16.4312

>  <SCORE.INTER.norm>
-1.74611

>  <SCORE.INTRA>
0

>  <SCORE.INTRA.DIHEDRAL>
0

>  <SCORE.INTRA.DIHEDRAL.0>
0

>  <SCORE.INTRA.POLAR>
0

>  <SCORE.INTRA.POLAR.0>
0

>  <SCORE.INTRA.REPUL>
0

>  <SCORE.INTRA.REPUL.0>
0

>  <SCORE.INTRA.SOLV>
0

>  <SCORE.INTRA.SOLV.lig_0>
-4.28333

>  <SCORE.INTRA.VDW>
0

>  <SCORE.INTRA.VDW.0>
0

>  <SCORE.INTRA.norm>
0

>  <SCORE.RESTR>
0

>  <SCORE.RESTR.CAVITY>
0

>  <SCORE.RESTR.norm>
0

>  <SCORE.SYSTEM>
0

>  <SCORE.SYSTEM.CONST>
0

>  <SCORE.SYSTEM.DIHEDRAL>
0

>  <SCORE.SYSTEM.SOLV>
0

>  <SCORE.SYSTEM.norm>
0

>  <SCORE.heavy>
10

>  <SCORE.norm>
-1.74611

>  <RMSD>
0.489

$$$$
ligand
 OpenBabel02271912143D
libRbt.so/2013.1/901 2013/11/27
 10 11  0  0  0  0  0  0  0  0999 V2000
   11.9167   10.8274    8.6503 N   0  0  0  0  0  0  0  0  0  0  0  0
   11.5677   12.1515    8.7768 C   0  0  0  0  0  0  0  0  0  0  0  0
   11.1952   12.8891    7.7293 N   0  0  0  0  0  0  0  0  0  0  0  0
   11.2003   12.2011    6.5522 C   0  0  0  0  0  0  0  0  0  0  0  0
   11.5403   10.8767    6.3581 C   0  0  0  0  0  0  0  0  0  0  0  0
   11.9369   10.0840    7.4698 C   0  0  0  0  0  0  0  0  0  0  0  0
   12.2756    8.8957    7.5256 O   0  0  0  0  0  0  0  0  0  0  0  0
   11.4105   10.5870    5.0289 N   0  0  0  0  0  0  0  0  0  0  0  0
   10.9935   11.7223    4.4220 C   0  0  0  0  0  0  0  0  0  0  0  0
   10.8546   12.7417    5.3390 N   0  0  0  0  0  0  0  0  0  0  0  0
  1  2  1  0  0  0  0
  1  6  1  0  0  0  0
  2  3  2  0  0  0  0
  3  4  1  0  0  0  0
  4  5  2  0  0  0  0
  4 10  1  0  0  0  0
  5  6  1  0  0  0  0
  5  8  1  0  0  0  0
  6  7  2  0  0  0  0
  8  9  1  0  0  0  0
  9 10  2  0  0  0  0
M  END
>  <CHROM.1>
11.50413282,11.25312839,6.80162489,0.51304589,-1.26001034,1.05310970

>  <Name>
ligand

>  <RI>
0

>  <Rbt.Current_Directory>
/home/itssahil/PROJECTS/Mol_Feturizer/Test_systems_manuscript/rnas/4fe5

>  <Rbt.Executable>
rbdock ($Id: //depot/dev/client3/rdock/2013.1/src/exe/rbdock.cxx#4 $)

>  <Rbt.Library>
libRbt.so (2013.1, Build901 2013/11/27)

>  <Rbt.Parameter_File>
/export/apps/rDock/src/rDock_2013.1_src/data/scripts/dock_solv.prm

>  <Rbt.Receptor>
prm/pocket_docking_8.prm

>  <SCORE>
-17.4425

>  <SCORE.INTER>
-17.4425

>  <SCORE.INTER.CONST>
1

>  <SCORE.INTER.POLAR>
0

>  <SCORE.INTER.ROT>
0

>  <SCORE.INTER.SOLV>
3.5087

>  <SCORE.INTER.VDW>
-16.3979

>  <SCORE.INTER.norm>
-1.74425

>  <SCORE.INTRA>
0

>  <SCORE.INTRA.DIHEDRAL>
0

>  <SCORE.INTRA.DIHEDRAL.0>
0

>  <SCORE.INTRA.POLAR>
0

>  <SCORE.INTRA.POLAR.0>
0

>  <SCORE.INTRA.REPUL>
0

>  <SCORE.INTRA.REPUL.0>
0

>  <SCORE.INTRA.SOLV>
0

>  <SCORE.INTRA.SOLV.lig_0>
-4.28333

>  <SCORE.INTRA.VDW>
0

>  <SCORE.INTRA.VDW.0>
0

>  <SCORE.INTRA.norm>
0

>  <SCORE.RESTR>
0

>  <SCORE.RESTR.CAVITY>
0

>  <SCORE.RESTR.norm>
0

>  <SCORE.SYSTEM>
0

>  <SCORE.SYSTEM.CONST>
0

>  <SCORE.SYSTEM.DIHEDRAL>
0

>  <SCORE.SYSTEM.SOLV>
0

>  <SCORE.SYSTEM.norm>
0

>  <SCORE.heavy>
10

>  <SCORE.norm>
-1.74425

>  <RMSD>
0.489

$$$$
ligand
 OpenBabel02271912143D
libRbt.so/2013.1/901 2013/11/27
 10 11  0  0  0  0  0  0  0  0999 V2000
   11.9468   10.8081    8.6392 N   0  0  0  0  0  0  0  0  0  0  0  0
   11.6250   12.1379    8.7774 C   0  0  0  0  0  0  0  0  0  0  0  0
   11.2480   12.8870    7.7396 N   0  0  0  0  0  0  0  0  0  0  0  0
   11.2196   12.2044    6.5598 C   0  0  0  0  0  0  0  0  0  0  0  0
   11.5313   10.8748    6.3543 C   0  0  0  0  0  0  0  0  0  0  0  0
   11.9324   10.0699    7.4555 C   0  0  0  0  0  0  0  0  0  0  0  0
   12.2498    8.8752    7.5004 O   0  0  0  0  0  0  0  0  0  0  0  0
   11.3729   10.5935    5.0263 N   0  0  0  0  0  0  0  0  0  0  0  0
   10.9667   11.7391    4.4315 C   0  0  0  0  0  0  0  0  0  0  0  0
   10.8630   12.7568    5.3552 N   0  0  0  0  0  0  0  0  0  0  0  0
  1  2  1  0  0  0  0
  1  6  1  0  0  0  0
  2  3  2  0  0  0  0
  3  4  1  0  0  0  0
  4  5  2  0  0  0  0
  4 10  1  0  0  0  0
  5  6  1  0  0  0  0
  5  8  1  0  0  0  0
  6  7  2  0  0  0  0
  8  9  1  0  0  0  0
  9 10  2  0  0  0  0
M  END
>  <CHROM.1>
11.51000298,11.24980355,6.79987866,0.43121591,-1.26667469,0.97944990

>  <Name>
ligand

>  <RI>
0

>  <Rbt.Current_Directory>
/home/itssahil/PROJECTS/Mol_Feturizer/Test_systems_manuscript/rnas/4fe5

>  <Rbt.Executable>
rbdock ($Id: //depot/dev/client3/rdock/2013.1/src/exe/rbdock.cxx#4 $)

>  <Rbt.Library>
libRbt.so (2013.1, Build901 2013/11/27)

>  <Rbt.Parameter_File>
/export/apps/rDock/src/rDock_2013.1_src/data/scripts/dock_solv.prm

>  <Rbt.Receptor>
prm/pocket_docking_4.prm

>  <SCORE>
-17.5127

>  <SCORE.INTER>
-17.5127

>  <SCORE.INTER.CONST>
1

>  <SCORE.INTER.POLAR>
0

>  <SCORE.INTER.ROT>
0

>  <SCORE.INTER.SOLV>
3.50785

>  <SCORE.INTER.VDW>
-16.4444

>  <SCORE.INTER.norm>
-1.75127

>  <SCORE.INTRA>
0

>  <SCORE.INTRA.DIHEDRAL>
0

>  <SCORE.INTRA.DIHEDRAL.0>
0

>  <SCORE.INTRA.POLAR>
0

>  <SCORE.INTRA.POLAR.0>
0

>  <SCORE.INTRA.REPUL>
0

>  <SCORE.INTRA.REPUL.0>
0

>  <SCORE.INTRA.SOLV>
0

>  <SCORE.INTRA.SOLV.lig_0>
-4.28333

>  <SCORE.INTRA.VDW>
0

>  <SCORE.INTRA.VDW.0>
0

>  <SCORE.INTRA.norm>
0

>  <SCORE.RESTR>
0

>  <SCORE.RESTR.CAVITY>
0

>  <SCORE.RESTR.norm>
0

>  <SCORE.SYSTEM>
0

>  <SCORE.SYSTEM.CONST>
0

>  <SCORE.SYSTEM.DIHEDRAL>
0

>  <SCORE.SYSTEM.SOLV>
0

>  <SCORE.SYSTEM.norm>
0

>  <SCORE.heavy>
10

>  <SCORE.norm>
-1.75127

>  <RMSD>
0.490

$$$$
ligand
 OpenBabel02271912143D
libRbt.so/2013.1/901 2013/11/27
 10 11  0  0  0  0  0  0  0  0999 V2000
   11.9325   10.8144    8.6435 N   0  0  0  0  0  0  0  0  0  0  0  0
   11.5970   12.1414    8.7750 C   0  0  0  0  0  0  0  0  0  0  0  0
   11.2241   12.8846    7.7315 N   0  0  0  0  0  0  0  0  0  0  0  0
   11.2145   12.1990    6.5531 C   0  0  0  0  0  0  0  0  0  0  0  0
   11.5406   10.8718    6.3541 C   0  0  0  0  0  0  0  0  0  0  0  0
   11.9374   10.0732    7.4615 C   0  0  0  0  0  0  0  0  0  0  0  0
   12.2654    8.8817    7.5126 O   0  0  0  0  0  0  0  0  0  0  0  0
   11.3990   10.5860    5.0253 N   0  0  0  0  0  0  0  0  0  0  0  0
   10.9885   11.7264    4.4234 C   0  0  0  0  0  0  0  0  0  0  0  0
   10.8656   12.7453    5.3434 N   0  0  0  0  0  0  0  0  0  0  0  0
  1  2  1  0  0  0  0
  1  6  1  0  0  0  0
  2  3  2  0  0  0  0
  3  4  1  0  0  0  0
  4  5  2  0  0  0  0
  4 10  1  0  0  0  0
  5  6  1  0  0  0  0
  5  8  1  0  0  0  0
  6  7  2  0  0  0  0
  8  9  1  0  0  0  0
  9 10  2  0  0  0  0
M  END
>  <CHROM.1>
11.51115532,11.24768903,6.79856335,0.47752117,-1.26460213,1.02122908

>  <Name>
ligand

>  <RI>
0

>  <Rbt.Current_Directory>
/home/itssahil/PROJECTS/Mol_Feturizer/Test_systems_manuscript/rnas/4fe5

>  <Rbt.Executable>
rbdock ($Id: //depot/dev/client3/rdock/2013.1/src/exe/rbdock.cxx#4 $)

>  <Rbt.Library>
libRbt.so (2013.1, Build901 2013/11/27)

>  <Rbt.Parameter_File>
/export/apps/rDock/src/rDock_2013.1_src/data/scripts/dock_solv.prm

>  <Rbt.Receptor>
prm/pocket_docking_5.prm

>  <SCORE>
-17.5125

>  <SCORE.INTER>
-17.5125

>  <SCORE.INTER.CONST>
1

>  <SCORE.INTER.POLAR>
0

>  <SCORE.INTER.ROT>
0

>  <SCORE.INTER.SOLV>
3.50985

>  <SCORE.INTER.VDW>
-16.445

>  <SCORE.INTER.norm>
-1.75125

>  <SCORE.INTRA>
0

>  <SCORE.INTRA.DIHEDRAL>
0

>  <SCORE.INTRA.DIHEDRAL.0>
0

>  <SCORE.INTRA.POLAR>
0

>  <SCORE.INTRA.POLAR.0>
0

>  <SCORE.INTRA.REPUL>
0

>  <SCORE.INTRA.REPUL.0>
0

>  <SCORE.INTRA.SOLV>
0

>  <SCORE.INTRA.SOLV.lig_0>
-4.28333

>  <SCORE.INTRA.VDW>
0

>  <SCORE.INTRA.VDW.0>
0

>  <SCORE.INTRA.norm>
0

>  <SCORE.RESTR>
0

>  <SCORE.RESTR.CAVITY>
0

>  <SCORE.RESTR.norm>
0

>  <SCORE.SYSTEM>
0

>  <SCORE.SYSTEM.CONST>
0

>  <SCORE.SYSTEM.DIHEDRAL>
0

>  <SCORE.SYSTEM.SOLV>
0

>  <SCORE.SYSTEM.norm>
0

>  <SCORE.heavy>
10

>  <SCORE.norm>
-1.75125

>  <RMSD>
0.490

$$$$
ligand
 OpenBabel02271912143D
libRbt.so/2013.1/901 2013/11/27
 10 11  0  0  0  0  0  0  0  0999 V2000
   11.9436   10.8147    8.6395 N   0  0  0  0  0  0  0  0  0  0  0  0
   11.6202   12.1444    8.7750 C   0  0  0  0  0  0  0  0  0  0  0  0
   11.2415   12.8907    7.7358 N   0  0  0  0  0  0  0  0  0  0  0  0
   11.2129   12.2053    6.5575 C   0  0  0  0  0  0  0  0  0  0  0  0
   11.5261   10.8756    6.3548 C   0  0  0  0  0  0  0  0  0  0  0  0
   11.9291   10.0737    7.4575 C   0  0  0  0  0  0  0  0  0  0  0  0
   12.2480    8.8796    7.5049 O   0  0  0  0  0  0  0  0  0  0  0  0
   11.3669   10.5911    5.0277 N   0  0  0  0  0  0  0  0  0  0  0  0
   10.9588   11.7349    4.4306 C   0  0  0  0  0  0  0  0  0  0  0  0
   10.8546   12.7545    5.3519 N   0  0  0  0  0  0  0  0  0  0  0  0
  1  2  1  0  0  0  0
  1  6  1  0  0  0  0
  2  3  2  0  0  0  0
  3  4  1  0  0  0  0
  4  5  2  0  0  0  0
  4 10  1  0  0  0  0
  5  6  1  0  0  0  0
  5  8  1  0  0  0  0
  6  7  2  0  0  0  0
  8  9  1  0  0  0  0
  9 10  2  0  0  0  0
M  END
>  <CHROM.1>
11.50467316,11.25165269,6.79956364,0.43121493,-1.26517208,0.97715182

>  <Name>
ligand

>  <RI>
0

>  <Rbt.Current_Directory>
/home/itssahil/PROJECTS/Mol_Feturizer/Test_systems_manuscript/rnas/4fe5

>  <Rbt.Executable>
rbdock ($Id: //depot/dev/client3/rdock/2013.1/src/exe/rbdock.cxx#4 $)

>  <Rbt.Library>
libRbt.so (2013.1, Build901 2013/11/27)

>  <Rbt.Parameter_File>
/export/apps/rDock/src/rDock_2013.1_src/data/scripts/dock_solv.prm

>  <Rbt.Receptor>
prm/blind_docking_100.prm

>  <SCORE>
-17.5049

>  <SCORE.INTER>
-17.5049

>  <SCORE.INTER.CONST>
1

>  <SCORE.INTER.POLAR>
0

>  <SCORE.INTER.ROT>
0

>  <SCORE.INTER.SOLV>
3.5076

>  <SCORE.INTER.VDW>
-16.4391

>  <SCORE.INTER.norm>
-1.75049

>  <SCORE.INTRA>
0

>  <SCORE.INTRA.DIHEDRAL>
0

>  <SCORE.INTRA.DIHEDRAL.0>
0

>  <SCORE.INTRA.POLAR>
0

>  <SCORE.INTRA.POLAR.0>
0

>  <SCORE.INTRA.REPUL>
0

>  <SCORE.INTRA.REPUL.0>
0

>  <SCORE.INTRA.SOLV>
0

>  <SCORE.INTRA.SOLV.lig_0>
-4.28333

>  <SCORE.INTRA.VDW>
0

>  <SCORE.INTRA.VDW.0>
0

>  <SCORE.INTRA.norm>
0

>  <SCORE.RESTR>
0

>  <SCORE.RESTR.CAVITY>
0

>  <SCORE.RESTR.norm>
0

>  <SCORE.SYSTEM>
0

>  <SCORE.SYSTEM.CONST>
0

>  <SCORE.SYSTEM.DIHEDRAL>
0

>  <SCORE.SYSTEM.SOLV>
0

>  <SCORE.SYSTEM.norm>
0

>  <SCORE.heavy>
10

>  <SCORE.norm>
-1.75049

>  <RMSD>
0.491

$$$$
ligand
 OpenBabel02271912143D
libRbt.so/2013.1/901 2013/11/27
 10 11  0  0  0  0  0  0  0  0999 V2000
   11.9358   10.8250    8.6441 N   0  0  0  0  0  0  0  0  0  0  0  0
   11.6061   12.1538    8.7727 C   0  0  0  0  0  0  0  0  0  0  0  0
   11.2323   12.8951    7.7282 N   0  0  0  0  0  0  0  0  0  0  0  0
   11.2153   12.2057    6.5520 C   0  0  0  0  0  0  0  0  0  0  0  0
   11.5353   10.8766    6.3561 C   0  0  0  0  0  0  0  0  0  0  0  0
   11.9331   10.0800    7.4645 C   0  0  0  0  0  0  0  0  0  0  0  0
   12.2564    8.8873    7.5183 O   0  0  0  0  0  0  0  0  0  0  0  0
   11.3873   10.5870    5.0288 N   0  0  0  0  0  0  0  0  0  0  0  0
   10.9792   11.7272    4.4248 C   0  0  0  0  0  0  0  0  0  0  0  0
   10.8639   12.7495    5.3419 N   0  0  0  0  0  0  0  0  0  0  0  0
  1  2  1  0  0  0  0
  1  6  1  0  0  0  0
  2  3  2  0  0  0  0
  3  4  1  0  0  0  0
  4  5  2  0  0  0  0
  4 10  1  0  0  0  0
  5  6  1  0  0  0  0
  5  8  1  0  0  0  0
  6  7  2  0  0  0  0
  8  9  1  0  0  0  0
  9 10  2  0  0  0  0
M  END
>  <CHROM.1>
11.50905197,11.25404800,6.79946527,0.45951886,-1.26598977,1.00080244

>  <Name>
ligand

>  <RI>
0

>  <Rbt.Current_Directory>
/home/itssahil/PROJECTS/Mol_Feturizer/Test_systems_manuscript/rnas/4fe5

>  <Rbt.Executable>
rbdock ($Id: //depot/dev/client3/rdock/2013.1/src/exe/rbdock.cxx#4 $)

>  <Rbt.Library>
libRbt.so (2013.1, Build901 2013/11/27)

>  <Rbt.Parameter_File>
/export/apps/rDock/src/rDock_2013.1_src/data/scripts/dock_solv.prm

>  <Rbt.Receptor>
prm/pocket_docking_3.prm

>  <SCORE>
-17.523

>  <SCORE.INTER>
-17.523

>  <SCORE.INTER.CONST>
1

>  <SCORE.INTER.POLAR>
0

>  <SCORE.INTER.ROT>
0

>  <SCORE.INTER.SOLV>
3.5139

>  <SCORE.INTER.VDW>
-16.4533

>  <SCORE.INTER.norm>
-1.7523

>  <SCORE.INTRA>
0

>  <SCORE.INTRA.DIHEDRAL>
0

>  <SCORE.INTRA.DIHEDRAL.0>
0

>  <SCORE.INTRA.POLAR>
0

>  <SCORE.INTRA.POLAR.0>
0

>  <SCORE.INTRA.REPUL>
0

>  <SCORE.INTRA.REPUL.0>
0

>  <SCORE.INTRA.SOLV>
0

>  <SCORE.INTRA.SOLV.lig_0>
-4.28333

>  <SCORE.INTRA.VDW>
0

>  <SCORE.INTRA.VDW.0>
0

>  <SCORE.INTRA.norm>
0

>  <SCORE.RESTR>
0

>  <SCORE.RESTR.CAVITY>
0

>  <SCORE.RESTR.norm>
0

>  <SCORE.SYSTEM>
0

>  <SCORE.SYSTEM.CONST>
0

>  <SCORE.SYSTEM.DIHEDRAL>
0

>  <SCORE.SYSTEM.SOLV>
0

>  <SCORE.SYSTEM.norm>
0

>  <SCORE.heavy>
10

>  <SCORE.norm>
-1.7523

>  <RMSD>
0.491

$$$$
ligand
 OpenBabel02271912143D
libRbt.so/2013.1/901 2013/11/27
 10 11  0  0  0  0  0  0  0  0999 V2000
   11.9193   10.8466    8.6545 N   0  0  0  0  0  0  0  0  0  0  0  0
   11.5722   12.1721    8.7702 C   0  0  0  0  0  0  0  0  0  0  0  0
   11.2035   12.9024    7.7161 N   0  0  0  0  0  0  0  0  0  0  0  0
   11.2105   12.2055    6.5443 C   0  0  0  0  0  0  0  0  0  0  0  0
   11.5488   10.8792    6.3611 C   0  0  0  0  0  0  0  0  0  0  0  0
   11.9412   10.0943    7.4798 C   0  0  0  0  0  0  0  0  0  0  0  0
   12.2779    8.9059    7.5454 O   0  0  0  0  0  0  0  0  0  0  0  0
   11.4220   10.5796    5.0338 N   0  0  0  0  0  0  0  0  0  0  0  0
   11.0085   11.7110    4.4172 C   0  0  0  0  0  0  0  0  0  0  0  0
   10.8689   12.7376    5.3262 N   0  0  0  0  0  0  0  0  0  0  0  0
  1  2  1  0  0  0  0
  1  6  1  0  0  0  0
  2  3  2  0  0  0  0
  3  4  1  0  0  0  0
  4  5  2  0  0  0  0
  4 10  1  0  0  0  0
  5  6  1  0  0  0  0
  5  8  1  0  0  0  0
  6  7  2  0  0  0  0
  8  9  1  0  0  0  0
  9 10  2  0  0  0  0
M  END
>  <CHROM.1>
11.51216247,11.25901150,6.80166655,0.51770955,-1.26271604,1.05000052

>  <Name>
ligand

>  <RI>
0

>  <Rbt.Current_Directory>
/home/itssahil/PROJECTS/Mol_Feturizer/Test_systems_manuscript/rnas/4fe5

>  <Rbt.Executable>
rbdock ($Id: //depot/dev/client3/rdock/2013.1/src/exe/rbdock.cxx#4 $)

>  <Rbt.Library>
libRbt.so (2013.1, Build901 2013/11/27)

>  <Rbt.Parameter_File>
/export/apps/rDock/src/rDock_2013.1_src/data/scripts/dock_solv.prm

>  <Rbt.Receptor>
prm/pocket_docking_5.prm

>  <SCORE>
-17.4364

>  <SCORE.INTER>
-17.4364

>  <SCORE.INTER.CONST>
1

>  <SCORE.INTER.POLAR>
0

>  <SCORE.INTER.ROT>
0

>  <SCORE.INTER.SOLV>
3.51808

>  <SCORE.INTER.VDW>
-16.397

>  <SCORE.INTER.norm>
-1.74364

>  <SCORE.INTRA>
0

>  <SCORE.INTRA.DIHEDRAL>
0

>  <SCORE.INTRA.DIHEDRAL.0>
0

>  <SCORE.INTRA.POLAR>
0

>  <SCORE.INTRA.POLAR.0>
0

>  <SCORE.INTRA.REPUL>
0

>  <SCORE.INTRA.REPUL.0>
0

>  <SCORE.INTRA.SOLV>
0

>  <SCORE.INTRA.SOLV.lig_0>
-4.28333

>  <SCORE.INTRA.VDW>
0

>  <SCORE.INTRA.VDW.0>
0

>  <SCORE.INTRA.norm>
0

>  <SCORE.RESTR>
0

>  <SCORE.RESTR.CAVITY>
0

>  <SCORE.RESTR.norm>
0

>  <SCORE.SYSTEM>
0

>  <SCORE.SYSTEM.CONST>
0

>  <SCORE.SYSTEM.DIHEDRAL>
0

>  <SCORE.SYSTEM.SOLV>
0

>  <SCORE.SYSTEM.norm>
0

>  <SCORE.heavy>
10

>  <SCORE.norm>
-1.74364

>  <RMSD>
0.491

$$$$
ligand
 OpenBabel02271912143D
libRbt.so/2013.1/901 2013/11/27
 10 11  0  0  0  0  0  0  0  0999 V2000
   11.9168   10.8197    8.6513 N   0  0  0  0  0  0  0  0  0  0  0  0
   11.6001   12.1518    8.7781 C   0  0  0  0  0  0  0  0  0  0  0  0
   11.2329   12.8952    7.7327 N   0  0  0  0  0  0  0  0  0  0  0  0
   11.2086   12.2043    6.5576 C   0  0  0  0  0  0  0  0  0  0  0  0
   11.5155   10.8719    6.3634 C   0  0  0  0  0  0  0  0  0  0  0  0
   11.9062   10.0731    7.4728 C   0  0  0  0  0  0  0  0  0  0  0  0
   12.2179    8.8773    7.5281 O   0  0  0  0  0  0  0  0  0  0  0  0
   11.3640   10.5819    5.0366 N   0  0  0  0  0  0  0  0  0  0  0  0
   10.9666   11.7251    4.4312 C   0  0  0  0  0  0  0  0  0  0  0  0
   10.8618   12.7498    5.3469 N   0  0  0  0  0  0  0  0  0  0  0  0
  1  2  1  0  0  0  0
  1  6  1  0  0  0  0
  2  3  2  0  0  0  0
  3  4  1  0  0  0  0
  4  5  2  0  0  0  0
  4 10  1  0  0  0  0
  5  6  1  0  0  0  0
  5  8  1  0  0  0  0
  6  7  2  0  0  0  0
  8  9  1  0  0  0  0
  9 10  2  0  0  0  0
M  END
>  <CHROM.1>
11.49319973,11.25018718,6.80624942,0.43989095,-1.27381307,0.98062834

>  <Name>
ligand

>  <RI>
0

>  <Rbt.Current_Directory>
/home/itssahil/PROJECTS/Mol_Feturizer/Test_systems_manuscript/rnas/4fe5

>  <Rbt.Executable>
rbdock ($Id: //depot/dev/client3/rdock/2013.1/src/exe/rbdock.cxx#4 $)

>  <Rbt.Library>
libRbt.so (2013.1, Build901 2013/11/27)

>  <Rbt.Parameter_File>
/export/apps/rDock/src/rDock_2013.1_src/data/scripts/dock_solv.prm

>  <Rbt.Receptor>
prm/pocket_docking_6.prm

>  <SCORE>
-17.4896

>  <SCORE.INTER>
-17.4896

>  <SCORE.INTER.CONST>
1

>  <SCORE.INTER.POLAR>
0

>  <SCORE.INTER.ROT>
0

>  <SCORE.INTER.SOLV>
3.53722

>  <SCORE.INTER.VDW>
-16.4388

>  <SCORE.INTER.norm>
-1.74896

>  <SCORE.INTRA>
0

>  <SCORE.INTRA.DIHEDRAL>
0

>  <SCORE.INTRA.DIHEDRAL.0>
0

>  <SCORE.INTRA.POLAR>
0

>  <SCORE.INTRA.POLAR.0>
0

>  <SCORE.INTRA.REPUL>
0

>  <SCORE.INTRA.REPUL.0>
0

>  <SCORE.INTRA.SOLV>
0

>  <SCORE.INTRA.SOLV.lig_0>
-4.28333

>  <SCORE.INTRA.VDW>
0

>  <SCORE.INTRA.VDW.0>
0

>  <SCORE.INTRA.norm>
0

>  <SCORE.RESTR>
0

>  <SCORE.RESTR.CAVITY>
0

>  <SCORE.RESTR.norm>
0

>  <SCORE.SYSTEM>
0

>  <SCORE.SYSTEM.CONST>
0

>  <SCORE.SYSTEM.DIHEDRAL>
0

>  <SCORE.SYSTEM.SOLV>
0

>  <SCORE.SYSTEM.norm>
0

>  <SCORE.heavy>
10

>  <SCORE.norm>
-1.74896

>  <RMSD>
0.491

$$$$
ligand
 OpenBabel02271912143D
libRbt.so/2013.1/901 2013/11/27
 10 11  0  0  0  0  0  0  0  0999 V2000
   11.9287   10.8264    8.6417 N   0  0  0  0  0  0  0  0  0  0  0  0
   11.5929   12.1537    8.7692 C   0  0  0  0  0  0  0  0  0  0  0  0
   11.2158   12.8925    7.7241 N   0  0  0  0  0  0  0  0  0  0  0  0
   11.2021   12.2021    6.5485 C   0  0  0  0  0  0  0  0  0  0  0  0
   11.5283   10.8744    6.3536 C   0  0  0  0  0  0  0  0  0  0  0  0
   11.9296   10.0805    7.4627 C   0  0  0  0  0  0  0  0  0  0  0  0
   12.2584    8.8893    7.5174 O   0  0  0  0  0  0  0  0  0  0  0  0
   11.3818   10.5831    5.0265 N   0  0  0  0  0  0  0  0  0  0  0  0
   10.9684   11.7209    4.4216 C   0  0  0  0  0  0  0  0  0  0  0  0
   10.8484   12.7434    5.3379 N   0  0  0  0  0  0  0  0  0  0  0  0
  1  2  1  0  0  0  0
  1  6  1  0  0  0  0
  2  3  2  0  0  0  0
  3  4  1  0  0  0  0
  4  5  2  0  0  0  0
  4 10  1  0  0  0  0
  5  6  1  0  0  0  0
  5  8  1  0  0  0  0
  6  7  2  0  0  0  0
  8  9  1  0  0  0  0
  9 10  2  0  0  0  0
M  END
>  <CHROM.1>
11.50022332,11.25200425,6.79666257,0.46796823,-1.26215212,1.00809690

>  <Name>
ligand

>  <RI>
0

>  <Rbt.Current_Directory>
/home/itssahil/PROJECTS/Mol_Feturizer/Test_systems_manuscript/rnas/4fe5

>  <Rbt.Executable>
rbdock ($Id: //depot/dev/client3/rdock/2013.1/src/exe/rbdock.cxx#4 $)

>  <Rbt.Library>
libRbt.so (2013.1, Build901 2013/11/27)

>  <Rbt.Parameter_File>
/export/apps/rDock/src/rDock_2013.1_src/data/scripts/dock_solv.prm

>  <Rbt.Receptor>
prm/blind_docking_80.prm

>  <SCORE>
-17.5053

>  <SCORE.INTER>
-17.5053

>  <SCORE.INTER.CONST>
1

>  <SCORE.INTER.POLAR>
0

>  <SCORE.INTER.ROT>
0

>  <SCORE.INTER.SOLV>
3.50906

>  <SCORE.INTER.VDW>
-16.4399

>  <SCORE.INTER.norm>
-1.75053

>  <SCORE.INTRA>
0

>  <SCORE.INTRA.DIHEDRAL>
0

>  <SCORE.INTRA.DIHEDRAL.0>
0

>  <SCORE.INTRA.POLAR>
0

>  <SCORE.INTRA.POLAR.0>
0

>  <SCORE.INTRA.REPUL>
0

>  <SCORE.INTRA.REPUL.0>
0

>  <SCORE.INTRA.SOLV>
0

>  <SCORE.INTRA.SOLV.lig_0>
-4.28333

>  <SCORE.INTRA.VDW>
0

>  <SCORE.INTRA.VDW.0>
0

>  <SCORE.INTRA.norm>
0

>  <SCORE.RESTR>
0

>  <SCORE.RESTR.CAVITY>
0

>  <SCORE.RESTR.norm>
0

>  <SCORE.SYSTEM>
0

>  <SCORE.SYSTEM.CONST>
0

>  <SCORE.SYSTEM.DIHEDRAL>
0

>  <SCORE.SYSTEM.SOLV>
0

>  <SCORE.SYSTEM.norm>
0

>  <SCORE.heavy>
10

>  <SCORE.norm>
-1.75053

>  <RMSD>
0.494

$$$$
ligand
 OpenBabel02271912143D
libRbt.so/2013.1/901 2013/11/27
 10 11  0  0  0  0  0  0  0  0999 V2000
   11.9370   10.8111    8.6382 N   0  0  0  0  0  0  0  0  0  0  0  0
   11.6144   12.1409    8.7747 C   0  0  0  0  0  0  0  0  0  0  0  0
   11.2410   12.8895    7.7352 N   0  0  0  0  0  0  0  0  0  0  0  0
   11.2169   12.2063    6.5556 C   0  0  0  0  0  0  0  0  0  0  0  0
   11.5296   10.8767    6.3518 C   0  0  0  0  0  0  0  0  0  0  0  0
   11.9269   10.0723    7.4547 C   0  0  0  0  0  0  0  0  0  0  0  0
   12.2444    8.8777    7.5013 O   0  0  0  0  0  0  0  0  0  0  0  0
   11.3760   10.5948    5.0234 N   0  0  0  0  0  0  0  0  0  0  0  0
   10.9717   11.7401    4.4267 C   0  0  0  0  0  0  0  0  0  0  0  0
   10.8645   12.7582    5.3495 N   0  0  0  0  0  0  0  0  0  0  0  0
  1  2  1  0  0  0  0
  1  6  1  0  0  0  0
  2  3  2  0  0  0  0
  3  4  1  0  0  0  0
  4  5  2  0  0  0  0
  4 10  1  0  0  0  0
  5  6  1  0  0  0  0
  5  8  1  0  0  0  0
  6  7  2  0  0  0  0
  8  9  1  0  0  0  0
  9 10  2  0  0  0  0
M  END
>  <CHROM.1>
11.50664432,11.25189563,6.79713333,0.44151687,-1.26847235,0.98884496

>  <Name>
ligand

>  <RI>
0

>  <Rbt.Current_Directory>
/home/itssahil/PROJECTS/Mol_Feturizer/Test_systems_manuscript/rnas/4fe5

>  <Rbt.Executable>
rbdock ($Id: //depot/dev/client3/rdock/2013.1/src/exe/rbdock.cxx#4 $)

>  <Rbt.Library>
libRbt.so (2013.1, Build901 2013/11/27)

>  <Rbt.Parameter_File>
/export/apps/rDock/src/rDock_2013.1_src/data/scripts/dock_solv.prm

>  <Rbt.Receptor>
prm/blind_docking_80.prm

>  <SCORE>
-17.5105

>  <SCORE.INTER>
-17.5105

>  <SCORE.INTER.CONST>
1

>  <SCORE.INTER.POLAR>
0

>  <SCORE.INTER.ROT>
0

>  <SCORE.INTER.SOLV>
3.51495

>  <SCORE.INTER.VDW>
-16.4453

>  <SCORE.INTER.norm>
-1.75105

>  <SCORE.INTRA>
0

>  <SCORE.INTRA.DIHEDRAL>
0

>  <SCORE.INTRA.DIHEDRAL.0>
0

>  <SCORE.INTRA.POLAR>
0

>  <SCORE.INTRA.POLAR.0>
0

>  <SCORE.INTRA.REPUL>
0

>  <SCORE.INTRA.REPUL.0>
0

>  <SCORE.INTRA.SOLV>
0

>  <SCORE.INTRA.SOLV.lig_0>
-4.28333

>  <SCORE.INTRA.VDW>
0

>  <SCORE.INTRA.VDW.0>
0

>  <SCORE.INTRA.norm>
0

>  <SCORE.RESTR>
0

>  <SCORE.RESTR.CAVITY>
0

>  <SCORE.RESTR.norm>
0

>  <SCORE.SYSTEM>
0

>  <SCORE.SYSTEM.CONST>
0

>  <SCORE.SYSTEM.DIHEDRAL>
0

>  <SCORE.SYSTEM.SOLV>
0

>  <SCORE.SYSTEM.norm>
0

>  <SCORE.heavy>
10

>  <SCORE.norm>
-1.75105

>  <RMSD>
0.494

$$$$
ligand
 OpenBabel02271912143D
libRbt.so/2013.1/901 2013/11/27
 10 11  0  0  0  0  0  0  0  0999 V2000
   11.8417   10.8302    8.6840 N   0  0  0  0  0  0  0  0  0  0  0  0
   11.5405   12.1678    8.7883 C   0  0  0  0  0  0  0  0  0  0  0  0
   11.2136   12.9053    7.7256 N   0  0  0  0  0  0  0  0  0  0  0  0
   11.2128   12.2026    6.5572 C   0  0  0  0  0  0  0  0  0  0  0  0
   11.5061   10.8641    6.3852 C   0  0  0  0  0  0  0  0  0  0  0  0
   11.8539   10.0715    7.5132 C   0  0  0  0  0  0  0  0  0  0  0  0
   12.1469    8.8722    7.5893 O   0  0  0  0  0  0  0  0  0  0  0  0
   11.3880   10.5624    5.0576 N   0  0  0  0  0  0  0  0  0  0  0  0
   11.0242   11.7046    4.4297 C   0  0  0  0  0  0  0  0  0  0  0  0
   10.9081   12.7402    5.3317 N   0  0  0  0  0  0  0  0  0  0  0  0
  1  2  1  0  0  0  0
  1  6  1  0  0  0  0
  2  3  2  0  0  0  0
  3  4  1  0  0  0  0
  4  5  2  0  0  0  0
  4 10  1  0  0  0  0
  5  6  1  0  0  0  0
  5  8  1  0  0  0  0
  6  7  2  0  0  0  0
  8  9  1  0  0  0  0
  9 10  2  0  0  0  0
M  END
>  <CHROM.1>
11.47661715,11.24726617,6.82339571,0.49844277,-1.30093075,1.02660907

>  <Name>
ligand

>  <RI>
0

>  <Rbt.Current_Directory>
/home/itssahil/PROJECTS/Mol_Feturizer/Test_systems_manuscript/rnas/4fe5

>  <Rbt.Executable>
rbdock ($Id: //depot/dev/client3/rdock/2013.1/src/exe/rbdock.cxx#4 $)

>  <Rbt.Library>
libRbt.so (2013.1, Build901 2013/11/27)

>  <Rbt.Parameter_File>
/export/apps/rDock/src/rDock_2013.1_src/data/scripts/dock_solv.prm

>  <Rbt.Receptor>
prm/pocket_docking_3.prm

>  <SCORE>
-17.4076

>  <SCORE.INTER>
-17.4076

>  <SCORE.INTER.CONST>
1

>  <SCORE.INTER.POLAR>
0

>  <SCORE.INTER.ROT>
0

>  <SCORE.INTER.SOLV>
3.65124

>  <SCORE.INTER.VDW>
-16.4222

>  <SCORE.INTER.norm>
-1.74076

>  <SCORE.INTRA>
0

>  <SCORE.INTRA.DIHEDRAL>
0

>  <SCORE.INTRA.DIHEDRAL.0>
0

>  <SCORE.INTRA.POLAR>
0

>  <SCORE.INTRA.POLAR.0>
0

>  <SCORE.INTRA.REPUL>
0

>  <SCORE.INTRA.REPUL.0>
0

>  <SCORE.INTRA.SOLV>
0

>  <SCORE.INTRA.SOLV.lig_0>
-4.28333

>  <SCORE.INTRA.VDW>
0

>  <SCORE.INTRA.VDW.0>
0

>  <SCORE.INTRA.norm>
0

>  <SCORE.RESTR>
0

>  <SCORE.RESTR.CAVITY>
0

>  <SCORE.RESTR.norm>
0

>  <SCORE.SYSTEM>
0

>  <SCORE.SYSTEM.CONST>
0

>  <SCORE.SYSTEM.DIHEDRAL>
0

>  <SCORE.SYSTEM.SOLV>
0

>  <SCORE.SYSTEM.norm>
0

>  <SCORE.heavy>
10

>  <SCORE.norm>
-1.74076

>  <RMSD>
0.494

$$$$
ligand
 OpenBabel02271912143D
libRbt.so/2013.1/901 2013/11/27
 10 11  0  0  0  0  0  0  0  0999 V2000
   11.9304   10.8272    8.6444 N   0  0  0  0  0  0  0  0  0  0  0  0
   11.5998   12.1560    8.7711 C   0  0  0  0  0  0  0  0  0  0  0  0
   11.2293   12.8966    7.7250 N   0  0  0  0  0  0  0  0  0  0  0  0
   11.2167   12.2066    6.5491 C   0  0  0  0  0  0  0  0  0  0  0  0
   11.5378   10.8776    6.3550 C   0  0  0  0  0  0  0  0  0  0  0  0
   11.9321   10.0817    7.4652 C   0  0  0  0  0  0  0  0  0  0  0  0
   12.2556    8.8891    7.5206 O   0  0  0  0  0  0  0  0  0  0  0  0
   11.3945   10.5873    5.0273 N   0  0  0  0  0  0  0  0  0  0  0  0
   10.9880   11.7270    4.4214 C   0  0  0  0  0  0  0  0  0  0  0  0
   10.8692   12.7497    5.3376 N   0  0  0  0  0  0  0  0  0  0  0  0
  1  2  1  0  0  0  0
  1  6  1  0  0  0  0
  2  3  2  0  0  0  0
  3  4  1  0  0  0  0
  4  5  2  0  0  0  0
  4 10  1  0  0  0  0
  5  6  1  0  0  0  0
  5  8  1  0  0  0  0
  6  7  2  0  0  0  0
  8  9  1  0  0  0  0
  9 10  2  0  0  0  0
M  END
>  <CHROM.1>
11.50987136,11.25518481,6.79805984,0.46979780,-1.26752339,1.01011836

>  <Name>
ligand

>  <RI>
0

>  <Rbt.Current_Directory>
/home/itssahil/PROJECTS/Mol_Feturizer/Test_systems_manuscript/rnas/4fe5

>  <Rbt.Executable>
rbdock ($Id: //depot/dev/client3/rdock/2013.1/src/exe/rbdock.cxx#4 $)

>  <Rbt.Library>
libRbt.so (2013.1, Build901 2013/11/27)

>  <Rbt.Parameter_File>
/export/apps/rDock/src/rDock_2013.1_src/data/scripts/dock_solv.prm

>  <Rbt.Receptor>
prm/pocket_docking_7.prm

>  <SCORE>
-17.5192

>  <SCORE.INTER>
-17.5192

>  <SCORE.INTER.CONST>
1

>  <SCORE.INTER.POLAR>
0

>  <SCORE.INTER.ROT>
0

>  <SCORE.INTER.SOLV>
3.51906

>  <SCORE.INTER.VDW>
-16.4525

>  <SCORE.INTER.norm>
-1.75192

>  <SCORE.INTRA>
0

>  <SCORE.INTRA.DIHEDRAL>
0

>  <SCORE.INTRA.DIHEDRAL.0>
0

>  <SCORE.INTRA.POLAR>
0

>  <SCORE.INTRA.POLAR.0>
0

>  <SCORE.INTRA.REPUL>
0

>  <SCORE.INTRA.REPUL.0>
0

>  <SCORE.INTRA.SOLV>
0

>  <SCORE.INTRA.SOLV.lig_0>
-4.28333

>  <SCORE.INTRA.VDW>
0

>  <SCORE.INTRA.VDW.0>
0

>  <SCORE.INTRA.norm>
0

>  <SCORE.RESTR>
5.23886e-05

>  <SCORE.RESTR.CAVITY>
5.23886e-05

>  <SCORE.RESTR.norm>
5.23886e-06

>  <SCORE.SYSTEM>
0

>  <SCORE.SYSTEM.CONST>
0

>  <SCORE.SYSTEM.DIHEDRAL>
0

>  <SCORE.SYSTEM.SOLV>
0

>  <SCORE.SYSTEM.norm>
0

>  <SCORE.heavy>
10

>  <SCORE.norm>
-1.75192

>  <RMSD>
0.494

$$$$
ligand
 OpenBabel02271912143D
libRbt.so/2013.1/901 2013/11/27
 10 11  0  0  0  0  0  0  0  0999 V2000
   11.9173   10.8317    8.6459 N   0  0  0  0  0  0  0  0  0  0  0  0
   11.5746   12.1579    8.7677 C   0  0  0  0  0  0  0  0  0  0  0  0
   11.2055   12.8934    7.7174 N   0  0  0  0  0  0  0  0  0  0  0  0
   11.2072   12.2011    6.5428 C   0  0  0  0  0  0  0  0  0  0  0  0
   11.5409   10.8745    6.3536 C   0  0  0  0  0  0  0  0  0  0  0  0
   11.9338   10.0840    7.4682 C   0  0  0  0  0  0  0  0  0  0  0  0
   12.2669    8.8943    7.5283 O   0  0  0  0  0  0  0  0  0  0  0  0
   11.4097   10.5805    5.0255 N   0  0  0  0  0  0  0  0  0  0  0  0
   10.9981   11.7156    4.4144 C   0  0  0  0  0  0  0  0  0  0  0  0
   10.8641   12.7390    5.3277 N   0  0  0  0  0  0  0  0  0  0  0  0
  1  2  1  0  0  0  0
  1  6  1  0  0  0  0
  2  3  2  0  0  0  0
  3  4  1  0  0  0  0
  4  5  2  0  0  0  0
  4 10  1  0  0  0  0
  5  6  1  0  0  0  0
  5  8  1  0  0  0  0
  6  7  2  0  0  0  0
  8  9  1  0  0  0  0
  9 10  2  0  0  0  0
M  END
>  <CHROM.1>
11.50659518,11.25268068,6.79572976,0.50510330,-1.26410017,1.04188905

>  <Name>
ligand

>  <RI>
0

>  <Rbt.Current_Directory>
/home/itssahil/PROJECTS/Mol_Feturizer/Test_systems_manuscript/rnas/4fe5

>  <Rbt.Executable>
rbdock ($Id: //depot/dev/client3/rdock/2013.1/src/exe/rbdock.cxx#4 $)

>  <Rbt.Library>
libRbt.so (2013.1, Build901 2013/11/27)

>  <Rbt.Parameter_File>
/export/apps/rDock/src/rDock_2013.1_src/data/scripts/dock_solv.prm

>  <Rbt.Receptor>
prm/blind_docking_40.prm

>  <SCORE>
-17.4551

>  <SCORE.INTER>
-17.4551

>  <SCORE.INTER.CONST>
1

>  <SCORE.INTER.POLAR>
0

>  <SCORE.INTER.ROT>
0

>  <SCORE.INTER.SOLV>
3.51845

>  <SCORE.INTER.VDW>
-16.4096

>  <SCORE.INTER.norm>
-1.74551

>  <SCORE.INTRA>
0

>  <SCORE.INTRA.DIHEDRAL>
0

>  <SCORE.INTRA.DIHEDRAL.0>
0

>  <SCORE.INTRA.POLAR>
0

>  <SCORE.INTRA.POLAR.0>
0

>  <SCORE.INTRA.REPUL>
0

>  <SCORE.INTRA.REPUL.0>
0

>  <SCORE.INTRA.SOLV>
0

>  <SCORE.INTRA.SOLV.lig_0>
-4.28333

>  <SCORE.INTRA.VDW>
0

>  <SCORE.INTRA.VDW.0>
0

>  <SCORE.INTRA.norm>
0

>  <SCORE.RESTR>
0

>  <SCORE.RESTR.CAVITY>
0

>  <SCORE.RESTR.norm>
0

>  <SCORE.SYSTEM>
0

>  <SCORE.SYSTEM.CONST>
0

>  <SCORE.SYSTEM.DIHEDRAL>
0

>  <SCORE.SYSTEM.SOLV>
0

>  <SCORE.SYSTEM.norm>
0

>  <SCORE.heavy>
10

>  <SCORE.norm>
-1.74551

>  <RMSD>
0.496

$$$$
ligand
 OpenBabel02271912143D
libRbt.so/2013.1/901 2013/11/27
 10 11  0  0  0  0  0  0  0  0999 V2000
   11.9183   10.8364    8.6466 N   0  0  0  0  0  0  0  0  0  0  0  0
   11.5821   12.1638    8.7728 C   0  0  0  0  0  0  0  0  0  0  0  0
   11.2098   12.9028    7.7262 N   0  0  0  0  0  0  0  0  0  0  0  0
   11.2014   12.2127    6.5504 C   0  0  0  0  0  0  0  0  0  0  0  0
   11.5281   10.8849    6.3568 C   0  0  0  0  0  0  0  0  0  0  0  0
   11.9244   10.0907    7.4675 C   0  0  0  0  0  0  0  0  0  0  0  0
   12.2527    8.8995    7.5235 O   0  0  0  0  0  0  0  0  0  0  0  0
   11.3876   10.5939    5.0289 N   0  0  0  0  0  0  0  0  0  0  0  0
   10.9772   11.7319    4.4224 C   0  0  0  0  0  0  0  0  0  0  0  0
   10.8532   12.7542    5.3384 N   0  0  0  0  0  0  0  0  0  0  0  0
  1  2  1  0  0  0  0
  1  6  1  0  0  0  0
  2  3  2  0  0  0  0
  3  4  1  0  0  0  0
  4  5  2  0  0  0  0
  4 10  1  0  0  0  0
  5  6  1  0  0  0  0
  5  8  1  0  0  0  0
  6  7  2  0  0  0  0
  8  9  1  0  0  0  0
  9 10  2  0  0  0  0
M  END
>  <CHROM.1>
11.49816085,11.26246875,6.79974428,0.48035156,-1.26468775,1.02008305

>  <Name>
ligand

>  <RI>
0

>  <Rbt.Current_Directory>
/home/itssahil/PROJECTS/Mol_Feturizer/Test_systems_manuscript/rnas/4fe5

>  <Rbt.Executable>
rbdock ($Id: //depot/dev/client3/rdock/2013.1/src/exe/rbdock.cxx#4 $)

>  <Rbt.Library>
libRbt.so (2013.1, Build901 2013/11/27)

>  <Rbt.Parameter_File>
/export/apps/rDock/src/rDock_2013.1_src/data/scripts/dock_solv.prm

>  <Rbt.Receptor>
prm/pocket_docking_3.prm

>  <SCORE>
-17.4684

>  <SCORE.INTER>
-17.4684

>  <SCORE.INTER.CONST>
1

>  <SCORE.INTER.POLAR>
0

>  <SCORE.INTER.ROT>
0

>  <SCORE.INTER.SOLV>
3.5188

>  <SCORE.INTER.VDW>
-16.4185

>  <SCORE.INTER.norm>
-1.74684

>  <SCORE.INTRA>
0

>  <SCORE.INTRA.DIHEDRAL>
0

>  <SCORE.INTRA.DIHEDRAL.0>
0

>  <SCORE.INTRA.POLAR>
0

>  <SCORE.INTRA.POLAR.0>
0

>  <SCORE.INTRA.REPUL>
0

>  <SCORE.INTRA.REPUL.0>
0

>  <SCORE.INTRA.SOLV>
0

>  <SCORE.INTRA.SOLV.lig_0>
-4.28333

>  <SCORE.INTRA.VDW>
0

>  <SCORE.INTRA.VDW.0>
0

>  <SCORE.INTRA.norm>
0

>  <SCORE.RESTR>
0

>  <SCORE.RESTR.CAVITY>
0

>  <SCORE.RESTR.norm>
0

>  <SCORE.SYSTEM>
0

>  <SCORE.SYSTEM.CONST>
0

>  <SCORE.SYSTEM.DIHEDRAL>
0

>  <SCORE.SYSTEM.SOLV>
0

>  <SCORE.SYSTEM.norm>
0

>  <SCORE.heavy>
10

>  <SCORE.norm>
-1.74684

>  <RMSD>
0.496

$$$$
ligand
 OpenBabel02271912143D
libRbt.so/2013.1/901 2013/11/27
 10 11  0  0  0  0  0  0  0  0999 V2000
   11.8932   10.8311    8.6559 N   0  0  0  0  0  0  0  0  0  0  0  0
   11.5788   12.1649    8.7701 C   0  0  0  0  0  0  0  0  0  0  0  0
   11.2197   12.9008    7.7166 N   0  0  0  0  0  0  0  0  0  0  0  0
   11.2011   12.2006    6.5469 C   0  0  0  0  0  0  0  0  0  0  0  0
   11.5062   10.8660    6.3652 C   0  0  0  0  0  0  0  0  0  0  0  0
   11.8883   10.0751    7.4833 C   0  0  0  0  0  0  0  0  0  0  0  0
   12.1969    8.8792    7.5501 O   0  0  0  0  0  0  0  0  0  0  0  0
   11.3623   10.5657    5.0398 N   0  0  0  0  0  0  0  0  0  0  0  0
   10.9713   11.7049    4.4229 C   0  0  0  0  0  0  0  0  0  0  0  0
   10.8631   12.7371    5.3298 N   0  0  0  0  0  0  0  0  0  0  0  0
  1  2  1  0  0  0  0
  1  6  1  0  0  0  0
  2  3  2  0  0  0  0
  3  4  1  0  0  0  0
  4  5  2  0  0  0  0
  4 10  1  0  0  0  0
  5  6  1  0  0  0  0
  5  8  1  0  0  0  0
  6  7  2  0  0  0  0
  8  9  1  0  0  0  0
  9 10  2  0  0  0  0
M  END
>  <CHROM.1>
11.48203241,11.24783778,6.80488722,0.45348823,-1.27912286,0.98568532

>  <Name>
ligand

>  <RI>
0

>  <Rbt.Current_Directory>
/home/itssahil/PROJECTS/Mol_Feturizer/Test_systems_manuscript/rnas/4fe5

>  <Rbt.Executable>
rbdock ($Id: //depot/dev/client3/rdock/2013.1/src/exe/rbdock.cxx#4 $)

>  <Rbt.Library>
libRbt.so (2013.1, Build901 2013/11/27)

>  <Rbt.Parameter_File>
/export/apps/rDock/src/rDock_2013.1_src/data/scripts/dock_solv.prm

>  <Rbt.Receptor>
prm/pocket_docking_6.prm

>  <SCORE>
-17.4377

>  <SCORE.INTER>
-17.4377

>  <SCORE.INTER.CONST>
1

>  <SCORE.INTER.POLAR>
0

>  <SCORE.INTER.ROT>
0

>  <SCORE.INTER.SOLV>
3.56454

>  <SCORE.INTER.VDW>
-16.4133

>  <SCORE.INTER.norm>
-1.74377

>  <SCORE.INTRA>
0

>  <SCORE.INTRA.DIHEDRAL>
0

>  <SCORE.INTRA.DIHEDRAL.0>
0

>  <SCORE.INTRA.POLAR>
0

>  <SCORE.INTRA.POLAR.0>
0

>  <SCORE.INTRA.REPUL>
0

>  <SCORE.INTRA.REPUL.0>
0

>  <SCORE.INTRA.SOLV>
0

>  <SCORE.INTRA.SOLV.lig_0>
-4.28333

>  <SCORE.INTRA.VDW>
0

>  <SCORE.INTRA.VDW.0>
0

>  <SCORE.INTRA.norm>
0

>  <SCORE.RESTR>
0

>  <SCORE.RESTR.CAVITY>
0

>  <SCORE.RESTR.norm>
0

>  <SCORE.SYSTEM>
0

>  <SCORE.SYSTEM.CONST>
0

>  <SCORE.SYSTEM.DIHEDRAL>
0

>  <SCORE.SYSTEM.SOLV>
0

>  <SCORE.SYSTEM.norm>
0

>  <SCORE.heavy>
10

>  <SCORE.norm>
-1.74377

>  <RMSD>
0.498

$$$$
ligand
 OpenBabel02271912143D
libRbt.so/2013.1/901 2013/11/27
 10 11  0  0  0  0  0  0  0  0999 V2000
   11.9061   10.8235    8.6474 N   0  0  0  0  0  0  0  0  0  0  0  0
   11.5885   12.1557    8.7718 C   0  0  0  0  0  0  0  0  0  0  0  0
   11.2261   12.8983    7.7242 N   0  0  0  0  0  0  0  0  0  0  0  0
   11.2075   12.2066    6.5494 C   0  0  0  0  0  0  0  0  0  0  0  0
   11.5157   10.8742    6.3576 C   0  0  0  0  0  0  0  0  0  0  0  0
   11.9013   10.0762    7.4693 C   0  0  0  0  0  0  0  0  0  0  0  0
   12.2130    8.8805    7.5269 O   0  0  0  0  0  0  0  0  0  0  0  0
   11.3705   10.5833    5.0303 N   0  0  0  0  0  0  0  0  0  0  0  0
   10.9757   11.7259    4.4222 C   0  0  0  0  0  0  0  0  0  0  0  0
   10.8664   12.7512    5.3368 N   0  0  0  0  0  0  0  0  0  0  0  0
  1  2  1  0  0  0  0
  1  6  1  0  0  0  0
  2  3  2  0  0  0  0
  3  4  1  0  0  0  0
  4  5  2  0  0  0  0
  4 10  1  0  0  0  0
  5  6  1  0  0  0  0
  5  8  1  0  0  0  0
  6  7  2  0  0  0  0
  8  9  1  0  0  0  0
  9 10  2  0  0  0  0
M  END
>  <CHROM.1>
11.49115474,11.25275457,6.80005471,0.45391786,-1.27624930,0.99338843

>  <Name>
ligand

>  <RI>
0

>  <Rbt.Current_Directory>
/home/itssahil/PROJECTS/Mol_Feturizer/Test_systems_manuscript/rnas/4fe5

>  <Rbt.Executable>
rbdock ($Id: //depot/dev/client3/rdock/2013.1/src/exe/rbdock.cxx#4 $)

>  <Rbt.Library>
libRbt.so (2013.1, Build901 2013/11/27)

>  <Rbt.Parameter_File>
/export/apps/rDock/src/rDock_2013.1_src/data/scripts/dock_solv.prm

>  <Rbt.Receptor>
prm/blind_docking_100.prm

>  <SCORE>
-17.4849

>  <SCORE.INTER>
-17.4849

>  <SCORE.INTER.CONST>
1

>  <SCORE.INTER.POLAR>
0

>  <SCORE.INTER.ROT>
0

>  <SCORE.INTER.SOLV>
3.54575

>  <SCORE.INTER.VDW>
-16.4385

>  <SCORE.INTER.norm>
-1.74849

>  <SCORE.INTRA>
0

>  <SCORE.INTRA.DIHEDRAL>
0

>  <SCORE.INTRA.DIHEDRAL.0>
0

>  <SCORE.INTRA.POLAR>
0

>  <SCORE.INTRA.POLAR.0>
0

>  <SCORE.INTRA.REPUL>
0

>  <SCORE.INTRA.REPUL.0>
0

>  <SCORE.INTRA.SOLV>
0

>  <SCORE.INTRA.SOLV.lig_0>
-4.28333

>  <SCORE.INTRA.VDW>
0

>  <SCORE.INTRA.VDW.0>
0

>  <SCORE.INTRA.norm>
0

>  <SCORE.RESTR>
0

>  <SCORE.RESTR.CAVITY>
0

>  <SCORE.RESTR.norm>
0

>  <SCORE.SYSTEM>
0

>  <SCORE.SYSTEM.CONST>
0

>  <SCORE.SYSTEM.DIHEDRAL>
0

>  <SCORE.SYSTEM.SOLV>
0

>  <SCORE.SYSTEM.norm>
0

>  <SCORE.heavy>
10

>  <SCORE.norm>
-1.74849

>  <RMSD>
0.499

$$$$
ligand
 OpenBabel02271912143D
libRbt.so/2013.1/901 2013/11/27
 10 11  0  0  0  0  0  0  0  0999 V2000
   11.8787   10.8434    8.6638 N   0  0  0  0  0  0  0  0  0  0  0  0
   11.5635   12.1776    8.7704 C   0  0  0  0  0  0  0  0  0  0  0  0
   11.2117   12.9091    7.7114 N   0  0  0  0  0  0  0  0  0  0  0  0
   11.2012   12.2042    6.5444 C   0  0  0  0  0  0  0  0  0  0  0  0
   11.5075   10.8689    6.3704 C   0  0  0  0  0  0  0  0  0  0  0  0
   11.8818   10.0826    7.4943 C   0  0  0  0  0  0  0  0  0  0  0  0
   12.1900    8.8869    7.5681 O   0  0  0  0  0  0  0  0  0  0  0  0
   11.3727   10.5632    5.0453 N   0  0  0  0  0  0  0  0  0  0  0  0
   10.9860   11.6998    4.4210 C   0  0  0  0  0  0  0  0  0  0  0  0
   10.8716   12.7357    5.3229 N   0  0  0  0  0  0  0  0  0  0  0  0
  1  2  1  0  0  0  0
  1  6  1  0  0  0  0
  2  3  2  0  0  0  0
  3  4  1  0  0  0  0
  4  5  2  0  0  0  0
  4 10  1  0  0  0  0
  5  6  1  0  0  0  0
  5  8  1  0  0  0  0
  6  7  2  0  0  0  0
  8  9  1  0  0  0  0
  9 10  2  0  0  0  0
M  END
>  <CHROM.1>
11.48029539,11.25249435,6.80828715,0.47368358,-1.28288990,1.00092575

>  <Name>
ligand

>  <RI>
0

>  <Rbt.Current_Directory>
/home/itssahil/PROJECTS/Mol_Feturizer/Test_systems_manuscript/rnas/4fe5

>  <Rbt.Executable>
rbdock ($Id: //depot/dev/client3/rdock/2013.1/src/exe/rbdock.cxx#4 $)

>  <Rbt.Library>
libRbt.so (2013.1, Build901 2013/11/27)

>  <Rbt.Parameter_File>
/export/apps/rDock/src/rDock_2013.1_src/data/scripts/dock_solv.prm

>  <Rbt.Receptor>
prm/pocket_docking_3.prm

>  <SCORE>
-17.4318

>  <SCORE.INTER>
-17.4318

>  <SCORE.INTER.CONST>
1

>  <SCORE.INTER.POLAR>
0

>  <SCORE.INTER.ROT>
0

>  <SCORE.INTER.SOLV>
3.58467

>  <SCORE.INTER.VDW>
-16.4161

>  <SCORE.INTER.norm>
-1.74318

>  <SCORE.INTRA>
0

>  <SCORE.INTRA.DIHEDRAL>
0

>  <SCORE.INTRA.DIHEDRAL.0>
0

>  <SCORE.INTRA.POLAR>
0

>  <SCORE.INTRA.POLAR.0>
0

>  <SCORE.INTRA.REPUL>
0

>  <SCORE.INTRA.REPUL.0>
0

>  <SCORE.INTRA.SOLV>
0

>  <SCORE.INTRA.SOLV.lig_0>
-4.28333

>  <SCORE.INTRA.VDW>
0

>  <SCORE.INTRA.VDW.0>
0

>  <SCORE.INTRA.norm>
0

>  <SCORE.RESTR>
3.83638e-06

>  <SCORE.RESTR.CAVITY>
3.83638e-06

>  <SCORE.RESTR.norm>
3.83638e-07

>  <SCORE.SYSTEM>
0

>  <SCORE.SYSTEM.CONST>
0

>  <SCORE.SYSTEM.DIHEDRAL>
0

>  <SCORE.SYSTEM.SOLV>
0

>  <SCORE.SYSTEM.norm>
0

>  <SCORE.heavy>
10

>  <SCORE.norm>
-1.74318

>  <RMSD>
0.499

$$$$
ligand
 OpenBabel02271912143D
libRbt.so/2013.1/901 2013/11/27
 10 11  0  0  0  0  0  0  0  0999 V2000
   11.9394   10.7815    8.6203 N   0  0  0  0  0  0  0  0  0  0  0  0
   11.5999   12.1062    8.7648 C   0  0  0  0  0  0  0  0  0  0  0  0
   11.2196   12.8570    7.7295 N   0  0  0  0  0  0  0  0  0  0  0  0
   11.2068   12.1814    6.5453 C   0  0  0  0  0  0  0  0  0  0  0  0
   11.5365   10.8572    6.3334 C   0  0  0  0  0  0  0  0  0  0  0  0
   11.9413   10.0505    7.4320 C   0  0  0  0  0  0  0  0  0  0  0  0
   12.2735    8.8597    7.4714 O   0  0  0  0  0  0  0  0  0  0  0  0
   11.3895   10.5822    5.0029 N   0  0  0  0  0  0  0  0  0  0  0  0
   10.9723   11.7263    4.4128 C   0  0  0  0  0  0  0  0  0  0  0  0
   10.8502   12.7368    5.3420 N   0  0  0  0  0  0  0  0  0  0  0  0
  1  2  1  0  0  0  0
  1  6  1  0  0  0  0
  2  3  2  0  0  0  0
  3  4  1  0  0  0  0
  4  5  2  0  0  0  0
  4 10  1  0  0  0  0
  5  6  1  0  0  0  0
  5  8  1  0  0  0  0
  6  7  2  0  0  0  0
  8  9  1  0  0  0  0
  9 10  2  0  0  0  0
M  END
>  <CHROM.1>
11.50781489,11.22908908,6.78121974,0.47015270,-1.25918117,1.02275813

>  <Name>
ligand

>  <RI>
0

>  <Rbt.Current_Directory>
/home/itssahil/PROJECTS/Mol_Feturizer/Test_systems_manuscript/rnas/4fe5

>  <Rbt.Executable>
rbdock ($Id: //depot/dev/client3/rdock/2013.1/src/exe/rbdock.cxx#4 $)

>  <Rbt.Library>
libRbt.so (2013.1, Build901 2013/11/27)

>  <Rbt.Parameter_File>
/export/apps/rDock/src/rDock_2013.1_src/data/scripts/dock_solv.prm

>  <Rbt.Receptor>
prm/blind_docking_100.prm

>  <SCORE>
-17.4411

>  <SCORE.INTER>
-17.4411

>  <SCORE.INTER.CONST>
1

>  <SCORE.INTER.POLAR>
0

>  <SCORE.INTER.ROT>
0

>  <SCORE.INTER.SOLV>
3.48909

>  <SCORE.INTER.VDW>
-16.3904

>  <SCORE.INTER.norm>
-1.74411

>  <SCORE.INTRA>
0

>  <SCORE.INTRA.DIHEDRAL>
0

>  <SCORE.INTRA.DIHEDRAL.0>
0

>  <SCORE.INTRA.POLAR>
0

>  <SCORE.INTRA.POLAR.0>
0

>  <SCORE.INTRA.REPUL>
0

>  <SCORE.INTRA.REPUL.0>
0

>  <SCORE.INTRA.SOLV>
0

>  <SCORE.INTRA.SOLV.lig_0>
-4.28333

>  <SCORE.INTRA.VDW>
0

>  <SCORE.INTRA.VDW.0>
0

>  <SCORE.INTRA.norm>
0

>  <SCORE.RESTR>
0

>  <SCORE.RESTR.CAVITY>
0

>  <SCORE.RESTR.norm>
0

>  <SCORE.SYSTEM>
0

>  <SCORE.SYSTEM.CONST>
0

>  <SCORE.SYSTEM.DIHEDRAL>
0

>  <SCORE.SYSTEM.SOLV>
0

>  <SCORE.SYSTEM.norm>
0

>  <SCORE.heavy>
10

>  <SCORE.norm>
-1.74411

>  <RMSD>
0.500

$$$$
ligand
 OpenBabel02271912143D
libRbt.so/2013.1/901 2013/11/27
 10 11  0  0  0  0  0  0  0  0999 V2000
   11.9103   10.8236    8.6453 N   0  0  0  0  0  0  0  0  0  0  0  0
   11.5876   12.1537    8.7786 C   0  0  0  0  0  0  0  0  0  0  0  0
   11.2313   12.9042    7.7346 N   0  0  0  0  0  0  0  0  0  0  0  0
   11.2243   12.2227    6.5538 C   0  0  0  0  0  0  0  0  0  0  0  0
   11.5381   10.8929    6.3529 C   0  0  0  0  0  0  0  0  0  0  0  0
   11.9173   10.0865    7.4608 C   0  0  0  0  0  0  0  0  0  0  0  0
   12.2323    8.8913    7.5105 O   0  0  0  0  0  0  0  0  0  0  0  0
   11.4045   10.6131    5.0220 N   0  0  0  0  0  0  0  0  0  0  0  0
   11.0110   11.7598    4.4207 C   0  0  0  0  0  0  0  0  0  0  0  0
   10.8912   12.7768    5.3432 N   0  0  0  0  0  0  0  0  0  0  0  0
  1  2  1  0  0  0  0
  1  6  1  0  0  0  0
  2  3  2  0  0  0  0
  3  4  1  0  0  0  0
  4  5  2  0  0  0  0
  4 10  1  0  0  0  0
  5  6  1  0  0  0  0
  5  8  1  0  0  0  0
  6  7  2  0  0  0  0
  8  9  1  0  0  0  0
  9 10  2  0  0  0  0
M  END
>  <CHROM.1>
11.50886871,11.26756978,6.79844562,0.48304487,-1.27788376,1.02992238

>  <Name>
ligand

>  <RI>
0

>  <Rbt.Current_Directory>
/home/itssahil/PROJECTS/Mol_Feturizer/Test_systems_manuscript/rnas/4fe5

>  <Rbt.Executable>
rbdock ($Id: //depot/dev/client3/rdock/2013.1/src/exe/rbdock.cxx#4 $)

>  <Rbt.Library>
libRbt.so (2013.1, Build901 2013/11/27)

>  <Rbt.Parameter_File>
/export/apps/rDock/src/rDock_2013.1_src/data/scripts/dock_solv.prm

>  <Rbt.Receptor>
prm/pocket_docking_6.prm

>  <SCORE>
-17.4189

>  <SCORE.INTER>
-17.4189

>  <SCORE.INTER.CONST>
1

>  <SCORE.INTER.POLAR>
0

>  <SCORE.INTER.ROT>
0

>  <SCORE.INTER.SOLV>
3.5429

>  <SCORE.INTER.VDW>
-16.3936

>  <SCORE.INTER.norm>
-1.74189

>  <SCORE.INTRA>
0

>  <SCORE.INTRA.DIHEDRAL>
0

>  <SCORE.INTRA.DIHEDRAL.0>
0

>  <SCORE.INTRA.POLAR>
0

>  <SCORE.INTRA.POLAR.0>
0

>  <SCORE.INTRA.REPUL>
0

>  <SCORE.INTRA.REPUL.0>
0

>  <SCORE.INTRA.SOLV>
0

>  <SCORE.INTRA.SOLV.lig_0>
-4.28333

>  <SCORE.INTRA.VDW>
0

>  <SCORE.INTRA.VDW.0>
0

>  <SCORE.INTRA.norm>
0

>  <SCORE.RESTR>
0

>  <SCORE.RESTR.CAVITY>
0

>  <SCORE.RESTR.norm>
0

>  <SCORE.SYSTEM>
0

>  <SCORE.SYSTEM.CONST>
0

>  <SCORE.SYSTEM.DIHEDRAL>
0

>  <SCORE.SYSTEM.SOLV>
0

>  <SCORE.SYSTEM.norm>
0

>  <SCORE.heavy>
10

>  <SCORE.norm>
-1.74189

>  <RMSD>
0.500

$$$$
ligand
 OpenBabel02271912143D
libRbt.so/2013.1/901 2013/11/27
 10 11  0  0  0  0  0  0  0  0999 V2000
   11.9064   10.8237    8.6437 N   0  0  0  0  0  0  0  0  0  0  0  0
   11.5930   12.1566    8.7715 C   0  0  0  0  0  0  0  0  0  0  0  0
   11.2268   12.9014    7.7268 N   0  0  0  0  0  0  0  0  0  0  0  0
   11.1999   12.2112    6.5513 C   0  0  0  0  0  0  0  0  0  0  0  0
   11.5035   10.8782    6.3562 C   0  0  0  0  0  0  0  0  0  0  0  0
   11.8932   10.0778    7.4648 C   0  0  0  0  0  0  0  0  0  0  0  0
   12.2021    8.8813    7.5193 O   0  0  0  0  0  0  0  0  0  0  0  0
   11.3502   10.5892    5.0294 N   0  0  0  0  0  0  0  0  0  0  0  0
   10.9551   11.7336    4.4249 C   0  0  0  0  0  0  0  0  0  0  0  0
   10.8534   12.7581    5.3412 N   0  0  0  0  0  0  0  0  0  0  0  0
  1  2  1  0  0  0  0
  1  6  1  0  0  0  0
  2  3  2  0  0  0  0
  3  4  1  0  0  0  0
  4  5  2  0  0  0  0
  4 10  1  0  0  0  0
  5  6  1  0  0  0  0
  5  8  1  0  0  0  0
  6  7  2  0  0  0  0
  8  9  1  0  0  0  0
  9 10  2  0  0  0  0
M  END
>  <CHROM.1>
11.48241331,11.25625848,6.79925243,0.43315104,-1.27534081,0.97471111

>  <Name>
ligand

>  <RI>
0

>  <Rbt.Current_Directory>
/home/itssahil/PROJECTS/Mol_Feturizer/Test_systems_manuscript/rnas/4fe5

>  <Rbt.Executable>
rbdock ($Id: //depot/dev/client3/rdock/2013.1/src/exe/rbdock.cxx#4 $)

>  <Rbt.Library>
libRbt.so (2013.1, Build901 2013/11/27)

>  <Rbt.Parameter_File>
/export/apps/rDock/src/rDock_2013.1_src/data/scripts/dock_solv.prm

>  <Rbt.Receptor>
prm/pocket_docking_7.prm

>  <SCORE>
-17.479

>  <SCORE.INTER>
-17.479

>  <SCORE.INTER.CONST>
1

>  <SCORE.INTER.POLAR>
0

>  <SCORE.INTER.ROT>
0

>  <SCORE.INTER.SOLV>
3.54356

>  <SCORE.INTER.VDW>
-16.4338

>  <SCORE.INTER.norm>
-1.7479

>  <SCORE.INTRA>
0

>  <SCORE.INTRA.DIHEDRAL>
0

>  <SCORE.INTRA.DIHEDRAL.0>
0

>  <SCORE.INTRA.POLAR>
0

>  <SCORE.INTRA.POLAR.0>
0

>  <SCORE.INTRA.REPUL>
0

>  <SCORE.INTRA.REPUL.0>
0

>  <SCORE.INTRA.SOLV>
0

>  <SCORE.INTRA.SOLV.lig_0>
-4.28333

>  <SCORE.INTRA.VDW>
0

>  <SCORE.INTRA.VDW.0>
0

>  <SCORE.INTRA.norm>
0

>  <SCORE.RESTR>
0

>  <SCORE.RESTR.CAVITY>
0

>  <SCORE.RESTR.norm>
0

>  <SCORE.SYSTEM>
0

>  <SCORE.SYSTEM.CONST>
0

>  <SCORE.SYSTEM.DIHEDRAL>
0

>  <SCORE.SYSTEM.SOLV>
0

>  <SCORE.SYSTEM.norm>
0

>  <SCORE.heavy>
10

>  <SCORE.norm>
-1.7479

>  <RMSD>
0.502

$$$$
ligand
 OpenBabel02271912143D
libRbt.so/2013.1/901 2013/11/27
 10 11  0  0  0  0  0  0  0  0999 V2000
   11.9349   10.7650    8.6162 N   0  0  0  0  0  0  0  0  0  0  0  0
   11.6108   12.0930    8.7660 C   0  0  0  0  0  0  0  0  0  0  0  0
   11.2360   12.8514    7.7342 N   0  0  0  0  0  0  0  0  0  0  0  0
   11.2121   12.1798    6.5478 C   0  0  0  0  0  0  0  0  0  0  0  0
   11.5262   10.8527    6.3308 C   0  0  0  0  0  0  0  0  0  0  0  0
   11.9251   10.0379    7.4256 C   0  0  0  0  0  0  0  0  0  0  0  0
   12.2440    8.8433    7.4602 O   0  0  0  0  0  0  0  0  0  0  0  0
   11.3723   10.5837    4.9998 N   0  0  0  0  0  0  0  0  0  0  0  0
   10.9663   11.7343    4.4146 C   0  0  0  0  0  0  0  0  0  0  0  0
   10.8584   12.7431    5.3474 N   0  0  0  0  0  0  0  0  0  0  0  0
  1  2  1  0  0  0  0
  1  6  1  0  0  0  0
  2  3  2  0  0  0  0
  3  4  1  0  0  0  0
  4  5  2  0  0  0  0
  4 10  1  0  0  0  0
  5  6  1  0  0  0  0
  5  8  1  0  0  0  0
  6  7  2  0  0  0  0
  8  9  1  0  0  0  0
  9 10  2  0  0  0  0
M  END
>  <CHROM.1>
11.50307398,11.22344253,6.77984060,0.44226818,-1.26720285,0.99941438

>  <Name>
ligand

>  <RI>
0

>  <Rbt.Current_Directory>
/home/itssahil/PROJECTS/Mol_Feturizer/Test_systems_manuscript/rnas/4fe5

>  <Rbt.Executable>
rbdock ($Id: //depot/dev/client3/rdock/2013.1/src/exe/rbdock.cxx#4 $)

>  <Rbt.Library>
libRbt.so (2013.1, Build901 2013/11/27)

>  <Rbt.Parameter_File>
/export/apps/rDock/src/rDock_2013.1_src/data/scripts/dock_solv.prm

>  <Rbt.Receptor>
prm/blind_docking_60.prm

>  <SCORE>
-17.4451

>  <SCORE.INTER>
-17.4451

>  <SCORE.INTER.CONST>
1

>  <SCORE.INTER.POLAR>
0

>  <SCORE.INTER.ROT>
0

>  <SCORE.INTER.SOLV>
3.50509

>  <SCORE.INTER.VDW>
-16.3985

>  <SCORE.INTER.norm>
-1.74451

>  <SCORE.INTRA>
0

>  <SCORE.INTRA.DIHEDRAL>
0

>  <SCORE.INTRA.DIHEDRAL.0>
0

>  <SCORE.INTRA.POLAR>
0

>  <SCORE.INTRA.POLAR.0>
0

>  <SCORE.INTRA.REPUL>
0

>  <SCORE.INTRA.REPUL.0>
0

>  <SCORE.INTRA.SOLV>
0

>  <SCORE.INTRA.SOLV.lig_0>
-4.28333

>  <SCORE.INTRA.VDW>
0

>  <SCORE.INTRA.VDW.0>
0

>  <SCORE.INTRA.norm>
0

>  <SCORE.RESTR>
0

>  <SCORE.RESTR.CAVITY>
0

>  <SCORE.RESTR.norm>
0

>  <SCORE.SYSTEM>
0

>  <SCORE.SYSTEM.CONST>
0

>  <SCORE.SYSTEM.DIHEDRAL>
0

>  <SCORE.SYSTEM.SOLV>
0

>  <SCORE.SYSTEM.norm>
0

>  <SCORE.heavy>
10

>  <SCORE.norm>
-1.74451

>  <RMSD>
0.503

$$$$
ligand
 OpenBabel02271912143D
libRbt.so/2013.1/901 2013/11/27
 10 11  0  0  0  0  0  0  0  0999 V2000
   11.9036   10.6150    8.6184 N   0  0  0  0  0  0  0  0  0  0  0  0
   11.6381   11.9521    8.7991 C   0  0  0  0  0  0  0  0  0  0  0  0
   11.2922   12.7489    7.7863 N   0  0  0  0  0  0  0  0  0  0  0  0
   11.2341   12.1057    6.5856 C   0  0  0  0  0  0  0  0  0  0  0  0
   11.4893   10.7713    6.3376 C   0  0  0  0  0  0  0  0  0  0  0  0
   11.8571    9.9158    7.4120 C   0  0  0  0  0  0  0  0  0  0  0  0
   12.1239    8.7080    7.4185 O   0  0  0  0  0  0  0  0  0  0  0  0
   11.3181   10.5390    5.0018 N   0  0  0  0  0  0  0  0  0  0  0  0
   10.9600   11.7190    4.4443 C   0  0  0  0  0  0  0  0  0  0  0  0
   10.9000   12.7104    5.3998 N   0  0  0  0  0  0  0  0  0  0  0  0
  1  2  1  0  0  0  0
  1  6  1  0  0  0  0
  2  3  2  0  0  0  0
  3  4  1  0  0  0  0
  4  5  2  0  0  0  0
  4 10  1  0  0  0  0
  5  6  1  0  0  0  0
  5  8  1  0  0  0  0
  6  7  2  0  0  0  0
  8  9  1  0  0  0  0
  9 10  2  0  0  0  0
M  END
>  <CHROM.1>
11.48418811,11.13261548,6.79482773,0.34073480,-1.30012134,0.92425500

>  <Name>
ligand

>  <RI>
0

>  <Rbt.Current_Directory>
/home/itssahil/PROJECTS/Mol_Feturizer/Test_systems_manuscript/rnas/4fe5

>  <Rbt.Executable>
rbdock ($Id: //depot/dev/client3/rdock/2013.1/src/exe/rbdock.cxx#4 $)

>  <Rbt.Library>
libRbt.so (2013.1, Build901 2013/11/27)

>  <Rbt.Parameter_File>
/export/apps/rDock/src/rDock_2013.1_src/data/scripts/dock_solv.prm

>  <Rbt.Receptor>
prm/pocket_docking_6.prm

>  <SCORE>
-17.3611

>  <SCORE.INTER>
-17.3611

>  <SCORE.INTER.CONST>
1

>  <SCORE.INTER.POLAR>
0

>  <SCORE.INTER.ROT>
0

>  <SCORE.INTER.SOLV>
3.59998

>  <SCORE.INTER.VDW>
-16.374

>  <SCORE.INTER.norm>
-1.73611

>  <SCORE.INTRA>
0

>  <SCORE.INTRA.DIHEDRAL>
0

>  <SCORE.INTRA.DIHEDRAL.0>
0

>  <SCORE.INTRA.POLAR>
0

>  <SCORE.INTRA.POLAR.0>
0

>  <SCORE.INTRA.REPUL>
0

>  <SCORE.INTRA.REPUL.0>
0

>  <SCORE.INTRA.SOLV>
0

>  <SCORE.INTRA.SOLV.lig_0>
-4.28333

>  <SCORE.INTRA.VDW>
0

>  <SCORE.INTRA.VDW.0>
0

>  <SCORE.INTRA.norm>
0

>  <SCORE.RESTR>
0

>  <SCORE.RESTR.CAVITY>
0

>  <SCORE.RESTR.norm>
0

>  <SCORE.SYSTEM>
0

>  <SCORE.SYSTEM.CONST>
0

>  <SCORE.SYSTEM.DIHEDRAL>
0

>  <SCORE.SYSTEM.SOLV>
0

>  <SCORE.SYSTEM.norm>
0

>  <SCORE.heavy>
10

>  <SCORE.norm>
-1.73611

>  <RMSD>
0.503

$$$$
ligand
 OpenBabel02271912143D
libRbt.so/2013.1/901 2013/11/27
 10 11  0  0  0  0  0  0  0  0999 V2000
   11.9110   10.8293    8.6375 N   0  0  0  0  0  0  0  0  0  0  0  0
   11.5760   12.1571    8.7626 C   0  0  0  0  0  0  0  0  0  0  0  0
   11.2057   12.8960    7.7152 N   0  0  0  0  0  0  0  0  0  0  0  0
   11.1979   12.2052    6.5397 C   0  0  0  0  0  0  0  0  0  0  0  0
   11.5235   10.8770    6.3472 C   0  0  0  0  0  0  0  0  0  0  0  0
   11.9177   10.0830    7.4588 C   0  0  0  0  0  0  0  0  0  0  0  0
   12.2447    8.8914    7.5158 O   0  0  0  0  0  0  0  0  0  0  0  0
   11.3842   10.5855    5.0194 N   0  0  0  0  0  0  0  0  0  0  0  0
   10.9757   11.7235    4.4117 C   0  0  0  0  0  0  0  0  0  0  0  0
   10.8516   12.7464    5.3270 N   0  0  0  0  0  0  0  0  0  0  0  0
  1  2  1  0  0  0  0
  1  6  1  0  0  0  0
  2  3  2  0  0  0  0
  3  4  1  0  0  0  0
  4  5  2  0  0  0  0
  4 10  1  0  0  0  0
  5  6  1  0  0  0  0
  5  8  1  0  0  0  0
  6  7  2  0  0  0  0
  8  9  1  0  0  0  0
  9 10  2  0  0  0  0
M  END
>  <CHROM.1>
11.49342906,11.25482429,6.78993398,0.48182305,-1.26616073,1.02096257

>  <Name>
ligand

>  <RI>
0

>  <Rbt.Current_Directory>
/home/itssahil/PROJECTS/Mol_Feturizer/Test_systems_manuscript/rnas/4fe5

>  <Rbt.Executable>
rbdock ($Id: //depot/dev/client3/rdock/2013.1/src/exe/rbdock.cxx#4 $)

>  <Rbt.Library>
libRbt.so (2013.1, Build901 2013/11/27)

>  <Rbt.Parameter_File>
/export/apps/rDock/src/rDock_2013.1_src/data/scripts/dock_solv.prm

>  <Rbt.Receptor>
prm/pocket_docking_6.prm

>  <SCORE>
-17.4716

>  <SCORE.INTER>
-17.4716

>  <SCORE.INTER.CONST>
1

>  <SCORE.INTER.POLAR>
0

>  <SCORE.INTER.ROT>
0

>  <SCORE.INTER.SOLV>
3.52388

>  <SCORE.INTER.VDW>
-16.4224

>  <SCORE.INTER.norm>
-1.74716

>  <SCORE.INTRA>
0

>  <SCORE.INTRA.DIHEDRAL>
0

>  <SCORE.INTRA.DIHEDRAL.0>
0

>  <SCORE.INTRA.POLAR>
0

>  <SCORE.INTRA.POLAR.0>
0

>  <SCORE.INTRA.REPUL>
0

>  <SCORE.INTRA.REPUL.0>
0

>  <SCORE.INTRA.SOLV>
0

>  <SCORE.INTRA.SOLV.lig_0>
-4.28333

>  <SCORE.INTRA.VDW>
0

>  <SCORE.INTRA.VDW.0>
0

>  <SCORE.INTRA.norm>
0

>  <SCORE.RESTR>
0

>  <SCORE.RESTR.CAVITY>
0

>  <SCORE.RESTR.norm>
0

>  <SCORE.SYSTEM>
0

>  <SCORE.SYSTEM.CONST>
0

>  <SCORE.SYSTEM.DIHEDRAL>
0

>  <SCORE.SYSTEM.SOLV>
0

>  <SCORE.SYSTEM.norm>
0

>  <SCORE.heavy>
10

>  <SCORE.norm>
-1.74716

>  <RMSD>
0.504

$$$$
ligand
 OpenBabel02271912143D
libRbt.so/2013.1/901 2013/11/27
 10 11  0  0  0  0  0  0  0  0999 V2000
   11.9511   10.7697    8.6100 N   0  0  0  0  0  0  0  0  0  0  0  0
   11.6263   12.0977    8.7582 C   0  0  0  0  0  0  0  0  0  0  0  0
   11.2446   12.8530    7.7267 N   0  0  0  0  0  0  0  0  0  0  0  0
   11.2145   12.1784    6.5422 C   0  0  0  0  0  0  0  0  0  0  0  0
   11.5289   10.8510    6.3267 C   0  0  0  0  0  0  0  0  0  0  0  0
   11.9351   10.0396    7.4212 C   0  0  0  0  0  0  0  0  0  0  0  0
   12.2556    8.8454    7.4570 O   0  0  0  0  0  0  0  0  0  0  0  0
   11.3675   10.5784    4.9974 N   0  0  0  0  0  0  0  0  0  0  0  0
   10.9567   11.7271    4.4116 C   0  0  0  0  0  0  0  0  0  0  0  0
   10.8531   12.7382    5.3425 N   0  0  0  0  0  0  0  0  0  0  0  0
  1  2  1  0  0  0  0
  1  6  1  0  0  0  0
  2  3  2  0  0  0  0
  3  4  1  0  0  0  0
  4  5  2  0  0  0  0
  4 10  1  0  0  0  0
  5  6  1  0  0  0  0
  5  8  1  0  0  0  0
  6  7  2  0  0  0  0
  8  9  1  0  0  0  0
  9 10  2  0  0  0  0
M  END
>  <CHROM.1>
11.50793613,11.22291974,6.77495345,0.42797714,-1.26302894,0.98322336

>  <Name>
ligand

>  <RI>
0

>  <Rbt.Current_Directory>
/home/itssahil/PROJECTS/Mol_Feturizer/Test_systems_manuscript/rnas/4fe5

>  <Rbt.Executable>
rbdock ($Id: //depot/dev/client3/rdock/2013.1/src/exe/rbdock.cxx#4 $)

>  <Rbt.Library>
libRbt.so (2013.1, Build901 2013/11/27)

>  <Rbt.Parameter_File>
/export/apps/rDock/src/rDock_2013.1_src/data/scripts/dock_solv.prm

>  <Rbt.Receptor>
prm/pocket_docking_5.prm

>  <SCORE>
-17.472

>  <SCORE.INTER>
-17.472

>  <SCORE.INTER.CONST>
1

>  <SCORE.INTER.POLAR>
0

>  <SCORE.INTER.ROT>
0

>  <SCORE.INTER.SOLV>
3.49166

>  <SCORE.INTER.VDW>
-16.4119

>  <SCORE.INTER.norm>
-1.7472

>  <SCORE.INTRA>
0

>  <SCORE.INTRA.DIHEDRAL>
0

>  <SCORE.INTRA.DIHEDRAL.0>
0

>  <SCORE.INTRA.POLAR>
0

>  <SCORE.INTRA.POLAR.0>
0

>  <SCORE.INTRA.REPUL>
0

>  <SCORE.INTRA.REPUL.0>
0

>  <SCORE.INTRA.SOLV>
0

>  <SCORE.INTRA.SOLV.lig_0>
-4.28333

>  <SCORE.INTRA.VDW>
0

>  <SCORE.INTRA.VDW.0>
0

>  <SCORE.INTRA.norm>
0

>  <SCORE.RESTR>
0

>  <SCORE.RESTR.CAVITY>
0

>  <SCORE.RESTR.norm>
0

>  <SCORE.SYSTEM>
0

>  <SCORE.SYSTEM.CONST>
0

>  <SCORE.SYSTEM.DIHEDRAL>
0

>  <SCORE.SYSTEM.SOLV>
0

>  <SCORE.SYSTEM.norm>
0

>  <SCORE.heavy>
10

>  <SCORE.norm>
-1.7472

>  <RMSD>
0.506

$$$$
ligand
 OpenBabel02271912143D
libRbt.so/2013.1/901 2013/11/27
 10 11  0  0  0  0  0  0  0  0999 V2000
   11.9003   10.8266    8.6395 N   0  0  0  0  0  0  0  0  0  0  0  0
   11.5669   12.1549    8.7639 C   0  0  0  0  0  0  0  0  0  0  0  0
   11.2107   12.8971    7.7139 N   0  0  0  0  0  0  0  0  0  0  0  0
   11.2152   12.2092    6.5367 C   0  0  0  0  0  0  0  0  0  0  0  0
   11.5401   10.8808    6.3448 C   0  0  0  0  0  0  0  0  0  0  0  0
   11.9192   10.0832    7.4591 C   0  0  0  0  0  0  0  0  0  0  0  0
   12.2429    8.8907    7.5170 O   0  0  0  0  0  0  0  0  0  0  0  0
   11.4159   10.5927    5.0147 N   0  0  0  0  0  0  0  0  0  0  0  0
   11.0171   11.7332    4.4051 C   0  0  0  0  0  0  0  0  0  0  0  0
   10.8846   12.7542    5.3214 N   0  0  0  0  0  0  0  0  0  0  0  0
  1  2  1  0  0  0  0
  1  6  1  0  0  0  0
  2  3  2  0  0  0  0
  3  4  1  0  0  0  0
  4  5  2  0  0  0  0
  4 10  1  0  0  0  0
  5  6  1  0  0  0  0
  5  8  1  0  0  0  0
  6  7  2  0  0  0  0
  8  9  1  0  0  0  0
  9 10  2  0  0  0  0
M  END
>  <CHROM.1>
11.50561842,11.25757113,6.78811118,0.51234630,-1.27415731,1.05254844

>  <Name>
ligand

>  <RI>
0

>  <Rbt.Current_Directory>
/home/itssahil/PROJECTS/Mol_Feturizer/Test_systems_manuscript/rnas/4fe5

>  <Rbt.Executable>
rbdock ($Id: //depot/dev/client3/rdock/2013.1/src/exe/rbdock.cxx#4 $)

>  <Rbt.Library>
libRbt.so (2013.1, Build901 2013/11/27)

>  <Rbt.Parameter_File>
/export/apps/rDock/src/rDock_2013.1_src/data/scripts/dock_solv.prm

>  <Rbt.Receptor>
prm/pocket_docking_6.prm

>  <SCORE>
-17.4251

>  <SCORE.INTER>
-17.4251

>  <SCORE.INTER.CONST>
1

>  <SCORE.INTER.POLAR>
0

>  <SCORE.INTER.ROT>
0

>  <SCORE.INTER.SOLV>
3.54229

>  <SCORE.INTER.VDW>
-16.3975

>  <SCORE.INTER.norm>
-1.74251

>  <SCORE.INTRA>
0

>  <SCORE.INTRA.DIHEDRAL>
0

>  <SCORE.INTRA.DIHEDRAL.0>
0

>  <SCORE.INTRA.POLAR>
0

>  <SCORE.INTRA.POLAR.0>
0

>  <SCORE.INTRA.REPUL>
0

>  <SCORE.INTRA.REPUL.0>
0

>  <SCORE.INTRA.SOLV>
0

>  <SCORE.INTRA.SOLV.lig_0>
-4.28333

>  <SCORE.INTRA.VDW>
0

>  <SCORE.INTRA.VDW.0>
0

>  <SCORE.INTRA.norm>
0

>  <SCORE.RESTR>
0

>  <SCORE.RESTR.CAVITY>
0

>  <SCORE.RESTR.norm>
0

>  <SCORE.SYSTEM>
0

>  <SCORE.SYSTEM.CONST>
0

>  <SCORE.SYSTEM.DIHEDRAL>
0

>  <SCORE.SYSTEM.SOLV>
0

>  <SCORE.SYSTEM.norm>
0

>  <SCORE.heavy>
10

>  <SCORE.norm>
-1.74251

>  <RMSD>
0.507

$$$$
ligand
 OpenBabel02271912143D
libRbt.so/2013.1/901 2013/11/27
 10 11  0  0  0  0  0  0  0  0999 V2000
   11.9227   10.8252    8.6270 N   0  0  0  0  0  0  0  0  0  0  0  0
   11.5833   12.1526    8.7442 C   0  0  0  0  0  0  0  0  0  0  0  0
   11.2051   12.8825    7.6933 N   0  0  0  0  0  0  0  0  0  0  0  0
   11.1943   12.1833    6.5229 C   0  0  0  0  0  0  0  0  0  0  0  0
   11.5240   10.8550    6.3383 C   0  0  0  0  0  0  0  0  0  0  0  0
   11.9266   10.0705    7.4536 C   0  0  0  0  0  0  0  0  0  0  0  0
   12.2584    8.8806    7.5175 O   0  0  0  0  0  0  0  0  0  0  0  0
   11.3794   10.5534    5.0132 N   0  0  0  0  0  0  0  0  0  0  0  0
   10.9636   11.6855    4.3995 C   0  0  0  0  0  0  0  0  0  0  0  0
   10.8401   12.7145    5.3080 N   0  0  0  0  0  0  0  0  0  0  0  0
  1  2  1  0  0  0  0
  1  6  1  0  0  0  0
  2  3  2  0  0  0  0
  3  4  1  0  0  0  0
  4  5  2  0  0  0  0
  4 10  1  0  0  0  0
  5  6  1  0  0  0  0
  5  8  1  0  0  0  0
  6  7  2  0  0  0  0
  8  9  1  0  0  0  0
  9 10  2  0  0  0  0
M  END
>  <CHROM.1>
11.49462960,11.23587422,6.77843522,0.47482119,-1.26037669,1.00712921

>  <Name>
ligand

>  <RI>
0

>  <Rbt.Current_Directory>
/home/itssahil/PROJECTS/Mol_Feturizer/Test_systems_manuscript/rnas/4fe5

>  <Rbt.Executable>
rbdock ($Id: //depot/dev/client3/rdock/2013.1/src/exe/rbdock.cxx#4 $)

>  <Rbt.Library>
libRbt.so (2013.1, Build901 2013/11/27)

>  <Rbt.Parameter_File>
/export/apps/rDock/src/rDock_2013.1_src/data/scripts/dock_solv.prm

>  <Rbt.Receptor>
prm/pocket_docking_5.prm

>  <SCORE>
-17.4839

>  <SCORE.INTER>
-17.4839

>  <SCORE.INTER.CONST>
1

>  <SCORE.INTER.POLAR>
0

>  <SCORE.INTER.ROT>
0

>  <SCORE.INTER.SOLV>
3.51067

>  <SCORE.INTER.VDW>
-16.4261

>  <SCORE.INTER.norm>
-1.74839

>  <SCORE.INTRA>
0

>  <SCORE.INTRA.DIHEDRAL>
0

>  <SCORE.INTRA.DIHEDRAL.0>
0

>  <SCORE.INTRA.POLAR>
0

>  <SCORE.INTRA.POLAR.0>
0

>  <SCORE.INTRA.REPUL>
0

>  <SCORE.INTRA.REPUL.0>
0

>  <SCORE.INTRA.SOLV>
0

>  <SCORE.INTRA.SOLV.lig_0>
-4.28333

>  <SCORE.INTRA.VDW>
0

>  <SCORE.INTRA.VDW.0>
0

>  <SCORE.INTRA.norm>
0

>  <SCORE.RESTR>
0

>  <SCORE.RESTR.CAVITY>
0

>  <SCORE.RESTR.norm>
0

>  <SCORE.SYSTEM>
0

>  <SCORE.SYSTEM.CONST>
0

>  <SCORE.SYSTEM.DIHEDRAL>
0

>  <SCORE.SYSTEM.SOLV>
0

>  <SCORE.SYSTEM.norm>
0

>  <SCORE.heavy>
10

>  <SCORE.norm>
-1.74839

>  <RMSD>
0.509

$$$$
ligand
 OpenBabel02271912143D
libRbt.so/2013.1/901 2013/11/27
 10 11  0  0  0  0  0  0  0  0999 V2000
   11.8996   10.8277    8.6359 N   0  0  0  0  0  0  0  0  0  0  0  0
   11.5630   12.1564    8.7457 C   0  0  0  0  0  0  0  0  0  0  0  0
   11.1981   12.8844    7.6888 N   0  0  0  0  0  0  0  0  0  0  0  0
   11.1974   12.1819    6.5203 C   0  0  0  0  0  0  0  0  0  0  0  0
   11.5251   10.8521    6.3430 C   0  0  0  0  0  0  0  0  0  0  0  0
   11.9135   10.0696    7.4647 C   0  0  0  0  0  0  0  0  0  0  0  0
   12.2410    8.8789    7.5356 O   0  0  0  0  0  0  0  0  0  0  0  0
   11.3935   10.5471    5.0174 N   0  0  0  0  0  0  0  0  0  0  0  0
   10.9876   11.6786    4.3961 C   0  0  0  0  0  0  0  0  0  0  0  0
   10.8577   12.7106    5.3003 N   0  0  0  0  0  0  0  0  0  0  0  0
  1  2  1  0  0  0  0
  1  6  1  0  0  0  0
  2  3  2  0  0  0  0
  3  4  1  0  0  0  0
  4  5  2  0  0  0  0
  4 10  1  0  0  0  0
  5  6  1  0  0  0  0
  5  8  1  0  0  0  0
  6  7  2  0  0  0  0
  8  9  1  0  0  0  0
  9 10  2  0  0  0  0
M  END
>  <CHROM.1>
11.49219767,11.23427828,6.78175990,0.49929736,-1.26847732,1.02758195

>  <Name>
ligand

>  <RI>
0

>  <Rbt.Current_Directory>
/home/itssahil/PROJECTS/Mol_Feturizer/Test_systems_manuscript/rnas/4fe5

>  <Rbt.Executable>
rbdock ($Id: //depot/dev/client3/rdock/2013.1/src/exe/rbdock.cxx#4 $)

>  <Rbt.Library>
libRbt.so (2013.1, Build901 2013/11/27)

>  <Rbt.Parameter_File>
/export/apps/rDock/src/rDock_2013.1_src/data/scripts/dock_solv.prm

>  <Rbt.Receptor>
prm/pocket_docking_3.prm

>  <SCORE>
-17.49

>  <SCORE.INTER>
-17.49

>  <SCORE.INTER.CONST>
1

>  <SCORE.INTER.POLAR>
0

>  <SCORE.INTER.ROT>
0

>  <SCORE.INTER.SOLV>
3.53652

>  <SCORE.INTER.VDW>
-16.4388

>  <SCORE.INTER.norm>
-1.749

>  <SCORE.INTRA>
0

>  <SCORE.INTRA.DIHEDRAL>
0

>  <SCORE.INTRA.DIHEDRAL.0>
0

>  <SCORE.INTRA.POLAR>
0

>  <SCORE.INTRA.POLAR.0>
0

>  <SCORE.INTRA.REPUL>
0

>  <SCORE.INTRA.REPUL.0>
0

>  <SCORE.INTRA.SOLV>
0

>  <SCORE.INTRA.SOLV.lig_0>
-4.28333

>  <SCORE.INTRA.VDW>
0

>  <SCORE.INTRA.VDW.0>
0

>  <SCORE.INTRA.norm>
0

>  <SCORE.RESTR>
0

>  <SCORE.RESTR.CAVITY>
0

>  <SCORE.RESTR.norm>
0

>  <SCORE.SYSTEM>
0

>  <SCORE.SYSTEM.CONST>
0

>  <SCORE.SYSTEM.DIHEDRAL>
0

>  <SCORE.SYSTEM.SOLV>
0

>  <SCORE.SYSTEM.norm>
0

>  <SCORE.heavy>
10

>  <SCORE.norm>
-1.749

>  <RMSD>
0.510

$$$$
ligand
 OpenBabel02271912143D
libRbt.so/2013.1/901 2013/11/27
 10 11  0  0  0  0  0  0  0  0999 V2000
   11.8975   10.8336    8.6384 N   0  0  0  0  0  0  0  0  0  0  0  0
   11.5623   12.1621    8.7556 C   0  0  0  0  0  0  0  0  0  0  0  0
   11.2085   12.8990    7.7011 N   0  0  0  0  0  0  0  0  0  0  0  0
   11.2175   12.2057    6.5272 C   0  0  0  0  0  0  0  0  0  0  0  0
   11.5444   10.8768    6.3424 C   0  0  0  0  0  0  0  0  0  0  0  0
   11.9210   10.0847    7.4615 C   0  0  0  0  0  0  0  0  0  0  0  0
   12.2458    8.8929    7.5260 O   0  0  0  0  0  0  0  0  0  0  0  0
   11.4246   10.5824    5.0133 N   0  0  0  0  0  0  0  0  0  0  0  0
   11.0265   11.7196    4.3972 C   0  0  0  0  0  0  0  0  0  0  0  0
   10.8900   12.7447    5.3083 N   0  0  0  0  0  0  0  0  0  0  0  0
  1  2  1  0  0  0  0
  1  6  1  0  0  0  0
  2  3  2  0  0  0  0
  3  4  1  0  0  0  0
  4  5  2  0  0  0  0
  4 10  1  0  0  0  0
  5  6  1  0  0  0  0
  5  8  1  0  0  0  0
  6  7  2  0  0  0  0
  8  9  1  0  0  0  0
  9 10  2  0  0  0  0
M  END
>  <CHROM.1>
11.50812218,11.25554905,6.78387685,0.52344841,-1.27471006,1.05854851

>  <Name>
ligand

>  <RI>
0

>  <Rbt.Current_Directory>
/home/itssahil/PROJECTS/Mol_Feturizer/Test_systems_manuscript/rnas/4fe5

>  <Rbt.Executable>
rbdock ($Id: //depot/dev/client3/rdock/2013.1/src/exe/rbdock.cxx#4 $)

>  <Rbt.Library>
libRbt.so (2013.1, Build901 2013/11/27)

>  <Rbt.Parameter_File>
/export/apps/rDock/src/rDock_2013.1_src/data/scripts/dock_solv.prm

>  <Rbt.Receptor>
prm/pocket_docking_8.prm

>  <SCORE>
-17.4078

>  <SCORE.INTER>
-17.4078

>  <SCORE.INTER.CONST>
1

>  <SCORE.INTER.POLAR>
0

>  <SCORE.INTER.ROT>
0

>  <SCORE.INTER.SOLV>
3.54703

>  <SCORE.INTER.VDW>
-16.3875

>  <SCORE.INTER.norm>
-1.74078

>  <SCORE.INTRA>
0

>  <SCORE.INTRA.DIHEDRAL>
0

>  <SCORE.INTRA.DIHEDRAL.0>
0

>  <SCORE.INTRA.POLAR>
0

>  <SCORE.INTRA.POLAR.0>
0

>  <SCORE.INTRA.REPUL>
0

>  <SCORE.INTRA.REPUL.0>
0

>  <SCORE.INTRA.SOLV>
0

>  <SCORE.INTRA.SOLV.lig_0>
-4.28333

>  <SCORE.INTRA.VDW>
0

>  <SCORE.INTRA.VDW.0>
0

>  <SCORE.INTRA.norm>
0

>  <SCORE.RESTR>
0

>  <SCORE.RESTR.CAVITY>
0

>  <SCORE.RESTR.norm>
0

>  <SCORE.SYSTEM>
0

>  <SCORE.SYSTEM.CONST>
0

>  <SCORE.SYSTEM.DIHEDRAL>
0

>  <SCORE.SYSTEM.SOLV>
0

>  <SCORE.SYSTEM.norm>
0

>  <SCORE.heavy>
10

>  <SCORE.norm>
-1.74078

>  <RMSD>
0.511

$$$$
ligand
 OpenBabel02271912143D
libRbt.so/2013.1/901 2013/11/27
 10 11  0  0  0  0  0  0  0  0999 V2000
   11.9076   10.8323    8.6311 N   0  0  0  0  0  0  0  0  0  0  0  0
   11.5687   12.1602    8.7447 C   0  0  0  0  0  0  0  0  0  0  0  0
   11.2031   12.8907    7.6897 N   0  0  0  0  0  0  0  0  0  0  0  0
   11.2044   12.1916    6.5192 C   0  0  0  0  0  0  0  0  0  0  0  0
   11.5345   10.8629    6.3381 C   0  0  0  0  0  0  0  0  0  0  0  0
   11.9236   10.0777    7.4577 C   0  0  0  0  0  0  0  0  0  0  0  0
   12.2532    8.8874    7.5252 O   0  0  0  0  0  0  0  0  0  0  0  0
   11.4043   10.5616    5.0115 N   0  0  0  0  0  0  0  0  0  0  0  0
   10.9968   11.6943    4.3933 C   0  0  0  0  0  0  0  0  0  0  0  0
   10.8645   12.7233    5.3005 N   0  0  0  0  0  0  0  0  0  0  0  0
  1  2  1  0  0  0  0
  1  6  1  0  0  0  0
  2  3  2  0  0  0  0
  3  4  1  0  0  0  0
  4  5  2  0  0  0  0
  4 10  1  0  0  0  0
  5  6  1  0  0  0  0
  5  8  1  0  0  0  0
  6  7  2  0  0  0  0
  8  9  1  0  0  0  0
  9 10  2  0  0  0  0
M  END
>  <CHROM.1>
11.50070269,11.24372598,6.77796977,0.50407733,-1.26729250,1.03510913

>  <Name>
ligand

>  <RI>
0

>  <Rbt.Current_Directory>
/home/itssahil/PROJECTS/Mol_Feturizer/Test_systems_manuscript/rnas/4fe5

>  <Rbt.Executable>
rbdock ($Id: //depot/dev/client3/rdock/2013.1/src/exe/rbdock.cxx#4 $)

>  <Rbt.Library>
libRbt.so (2013.1, Build901 2013/11/27)

>  <Rbt.Parameter_File>
/export/apps/rDock/src/rDock_2013.1_src/data/scripts/dock_solv.prm

>  <Rbt.Receptor>
prm/pocket_docking_4.prm

>  <SCORE>
-17.4774

>  <SCORE.INTER>
-17.4774

>  <SCORE.INTER.CONST>
1

>  <SCORE.INTER.POLAR>
0

>  <SCORE.INTER.ROT>
0

>  <SCORE.INTER.SOLV>
3.53058

>  <SCORE.INTER.VDW>
-16.4285

>  <SCORE.INTER.norm>
-1.74774

>  <SCORE.INTRA>
0

>  <SCORE.INTRA.DIHEDRAL>
0

>  <SCORE.INTRA.DIHEDRAL.0>
0

>  <SCORE.INTRA.POLAR>
0

>  <SCORE.INTRA.POLAR.0>
0

>  <SCORE.INTRA.REPUL>
0

>  <SCORE.INTRA.REPUL.0>
0

>  <SCORE.INTRA.SOLV>
0

>  <SCORE.INTRA.SOLV.lig_0>
-4.28333

>  <SCORE.INTRA.VDW>
0

>  <SCORE.INTRA.VDW.0>
0

>  <SCORE.INTRA.norm>
0

>  <SCORE.RESTR>
0

>  <SCORE.RESTR.CAVITY>
0

>  <SCORE.RESTR.norm>
0

>  <SCORE.SYSTEM>
0

>  <SCORE.SYSTEM.CONST>
0

>  <SCORE.SYSTEM.DIHEDRAL>
0

>  <SCORE.SYSTEM.SOLV>
0

>  <SCORE.SYSTEM.norm>
0

>  <SCORE.heavy>
10

>  <SCORE.norm>
-1.74774

>  <RMSD>
0.513

$$$$
ligand
 OpenBabel02271912143D
libRbt.so/2013.1/901 2013/11/27
 10 11  0  0  0  0  0  0  0  0999 V2000
   11.9282   10.5859    8.6006 N   0  0  0  0  0  0  0  0  0  0  0  0
   11.6736   11.9235    8.7927 C   0  0  0  0  0  0  0  0  0  0  0  0
   11.3272   12.7302    7.7879 N   0  0  0  0  0  0  0  0  0  0  0  0
   11.2571   12.0962    6.5829 C   0  0  0  0  0  0  0  0  0  0  0  0
   11.5011   10.7619    6.3236 C   0  0  0  0  0  0  0  0  0  0  0  0
   11.8692    9.8959    7.3894 C   0  0  0  0  0  0  0  0  0  0  0  0
   12.1273    8.6862    7.3855 O   0  0  0  0  0  0  0  0  0  0  0  0
   11.3201   10.5407    4.9872 N   0  0  0  0  0  0  0  0  0  0  0  0
   10.9671   11.7272    4.4406 C   0  0  0  0  0  0  0  0  0  0  0  0
   10.9201   12.7120    5.4036 N   0  0  0  0  0  0  0  0  0  0  0  0
  1  2  1  0  0  0  0
  1  6  1  0  0  0  0
  2  3  2  0  0  0  0
  3  4  1  0  0  0  0
  4  5  2  0  0  0  0
  4 10  1  0  0  0  0
  5  6  1  0  0  0  0
  5  8  1  0  0  0  0
  6  7  2  0  0  0  0
  8  9  1  0  0  0  0
  9 10  2  0  0  0  0
M  END
>  <CHROM.1>
11.50141857,11.11986680,6.78348719,0.30580880,-1.30206211,0.89790050

>  <Name>
ligand

>  <RI>
0

>  <Rbt.Current_Directory>
/home/itssahil/PROJECTS/Mol_Feturizer/Test_systems_manuscript/rnas/4fe5

>  <Rbt.Executable>
rbdock ($Id: //depot/dev/client3/rdock/2013.1/src/exe/rbdock.cxx#4 $)

>  <Rbt.Library>
libRbt.so (2013.1, Build901 2013/11/27)

>  <Rbt.Parameter_File>
/export/apps/rDock/src/rDock_2013.1_src/data/scripts/dock_solv.prm

>  <Rbt.Receptor>
prm/blind_docking_100.prm

>  <SCORE>
-17.3551

>  <SCORE.INTER>
-17.3551

>  <SCORE.INTER.CONST>
1

>  <SCORE.INTER.POLAR>
0

>  <SCORE.INTER.ROT>
0

>  <SCORE.INTER.SOLV>
3.59757

>  <SCORE.INTER.VDW>
-16.3692

>  <SCORE.INTER.norm>
-1.73551

>  <SCORE.INTRA>
0

>  <SCORE.INTRA.DIHEDRAL>
0

>  <SCORE.INTRA.DIHEDRAL.0>
0

>  <SCORE.INTRA.POLAR>
0

>  <SCORE.INTRA.POLAR.0>
0

>  <SCORE.INTRA.REPUL>
0

>  <SCORE.INTRA.REPUL.0>
0

>  <SCORE.INTRA.SOLV>
0

>  <SCORE.INTRA.SOLV.lig_0>
-4.28333

>  <SCORE.INTRA.VDW>
0

>  <SCORE.INTRA.VDW.0>
0

>  <SCORE.INTRA.norm>
0

>  <SCORE.RESTR>
0

>  <SCORE.RESTR.CAVITY>
0

>  <SCORE.RESTR.norm>
0

>  <SCORE.SYSTEM>
0

>  <SCORE.SYSTEM.CONST>
0

>  <SCORE.SYSTEM.DIHEDRAL>
0

>  <SCORE.SYSTEM.SOLV>
0

>  <SCORE.SYSTEM.norm>
0

>  <SCORE.heavy>
10

>  <SCORE.norm>
-1.73551

>  <RMSD>
0.514

$$$$
ligand
 OpenBabel02271912143D
libRbt.so/2013.1/901 2013/11/27
 10 11  0  0  0  0  0  0  0  0999 V2000
   11.8507   10.7464    8.6040 N   0  0  0  0  0  0  0  0  0  0  0  0
   11.4824   12.0610    8.7688 C   0  0  0  0  0  0  0  0  0  0  0  0
   11.1231   12.8303    7.7396 N   0  0  0  0  0  0  0  0  0  0  0  0
   11.1620   12.1840    6.5397 C   0  0  0  0  0  0  0  0  0  0  0  0
   11.5226   10.8714    6.3072 C   0  0  0  0  0  0  0  0  0  0  0  0
   11.9053   10.0450    7.3991 C   0  0  0  0  0  0  0  0  0  0  0  0
   12.2578    8.8596    7.4210 O   0  0  0  0  0  0  0  0  0  0  0  0
   11.4250   10.6268    4.9663 N   0  0  0  0  0  0  0  0  0  0  0  0
   11.0068   11.7776    4.3901 C   0  0  0  0  0  0  0  0  0  0  0  0
   10.8355   12.7626    5.3388 N   0  0  0  0  0  0  0  0  0  0  0  0
  1  2  1  0  0  0  0
  1  6  1  0  0  0  0
  2  3  2  0  0  0  0
  3  4  1  0  0  0  0
  4  5  2  0  0  0  0
  4 10  1  0  0  0  0
  5  6  1  0  0  0  0
  5  8  1  0  0  0  0
  6  7  2  0  0  0  0
  8  9  1  0  0  0  0
  9 10  2  0  0  0  0
M  END
>  <CHROM.1>
11.47233091,11.23158292,6.76264476,0.59384590,-1.25869780,1.16487786

>  <Name>
ligand

>  <RI>
0

>  <Rbt.Current_Directory>
/home/itssahil/PROJECTS/Mol_Feturizer/Test_systems_manuscript/rnas/4fe5

>  <Rbt.Executable>
rbdock ($Id: //depot/dev/client3/rdock/2013.1/src/exe/rbdock.cxx#4 $)

>  <Rbt.Library>
libRbt.so (2013.1, Build901 2013/11/27)

>  <Rbt.Parameter_File>
/export/apps/rDock/src/rDock_2013.1_src/data/scripts/dock_solv.prm

>  <Rbt.Receptor>
prm/blind_docking_20.prm

>  <SCORE>
-17.2203

>  <SCORE.INTER>
-17.2216

>  <SCORE.INTER.CONST>
1

>  <SCORE.INTER.POLAR>
0

>  <SCORE.INTER.ROT>
0

>  <SCORE.INTER.SOLV>
3.50723

>  <SCORE.INTER.VDW>
-16.2501

>  <SCORE.INTER.norm>
-1.72216

>  <SCORE.INTRA>
0

>  <SCORE.INTRA.DIHEDRAL>
0

>  <SCORE.INTRA.DIHEDRAL.0>
0

>  <SCORE.INTRA.POLAR>
0

>  <SCORE.INTRA.POLAR.0>
0

>  <SCORE.INTRA.REPUL>
0

>  <SCORE.INTRA.REPUL.0>
0

>  <SCORE.INTRA.SOLV>
0

>  <SCORE.INTRA.SOLV.lig_0>
-4.28333

>  <SCORE.INTRA.VDW>
0

>  <SCORE.INTRA.VDW.0>
0

>  <SCORE.INTRA.norm>
0

>  <SCORE.RESTR>
0.00133966

>  <SCORE.RESTR.CAVITY>
0.00133966

>  <SCORE.RESTR.norm>
0.000133966

>  <SCORE.SYSTEM>
0

>  <SCORE.SYSTEM.CONST>
0

>  <SCORE.SYSTEM.DIHEDRAL>
0

>  <SCORE.SYSTEM.SOLV>
0

>  <SCORE.SYSTEM.norm>
0

>  <SCORE.heavy>
10

>  <SCORE.norm>
-1.72203

>  <RMSD>
0.530

$$$$
ligand
 OpenBabel02271912143D
libRbt.so/2013.1/901 2013/11/27
 10 11  0  0  0  0  0  0  0  0999 V2000
   11.8483   10.7425    8.6247 N   0  0  0  0  0  0  0  0  0  0  0  0
   11.5850   12.0853    8.7604 C   0  0  0  0  0  0  0  0  0  0  0  0
   11.2487   12.8499    7.7199 N   0  0  0  0  0  0  0  0  0  0  0  0
   11.1977   12.1684    6.5401 C   0  0  0  0  0  0  0  0  0  0  0  0
   11.4513   10.8262    6.3371 C   0  0  0  0  0  0  0  0  0  0  0  0
   11.8088   10.0049    7.4411 C   0  0  0  0  0  0  0  0  0  0  0  0
   12.0725    8.7973    7.4885 O   0  0  0  0  0  0  0  0  0  0  0  0
   11.2893   10.5514    5.0082 N   0  0  0  0  0  0  0  0  0  0  0  0
   10.9384   11.7137    4.4104 C   0  0  0  0  0  0  0  0  0  0  0  0
   10.8740   12.7355    5.3330 N   0  0  0  0  0  0  0  0  0  0  0  0
  1  2  1  0  0  0  0
  1  6  1  0  0  0  0
  2  3  2  0  0  0  0
  3  4  1  0  0  0  0
  4  5  2  0  0  0  0
  4 10  1  0  0  0  0
  5  6  1  0  0  0  0
  5  8  1  0  0  0  0
  6  7  2  0  0  0  0
  8  9  1  0  0  0  0
  9 10  2  0  0  0  0
M  END
>  <CHROM.1>
11.44371977,11.20205858,6.78241128,0.35715548,-1.30662425,0.90789201

>  <Name>
ligand

>  <RI>
0

>  <Rbt.Current_Directory>
/home/itssahil/PROJECTS/Mol_Feturizer/Test_systems_manuscript/rnas/4fe5

>  <Rbt.Executable>
rbdock ($Id: //depot/dev/client3/rdock/2013.1/src/exe/rbdock.cxx#4 $)

>  <Rbt.Library>
libRbt.so (2013.1, Build901 2013/11/27)

>  <Rbt.Parameter_File>
/export/apps/rDock/src/rDock_2013.1_src/data/scripts/dock_solv.prm

>  <Rbt.Receptor>
prm/blind_docking_100.prm

>  <SCORE>
-17.3826

>  <SCORE.INTER>
-17.3826

>  <SCORE.INTER.CONST>
1

>  <SCORE.INTER.POLAR>
0

>  <SCORE.INTER.ROT>
0

>  <SCORE.INTER.SOLV>
3.65438

>  <SCORE.INTER.VDW>
-16.4065

>  <SCORE.INTER.norm>
-1.73826

>  <SCORE.INTRA>
0

>  <SCORE.INTRA.DIHEDRAL>
0

>  <SCORE.INTRA.DIHEDRAL.0>
0

>  <SCORE.INTRA.POLAR>
0

>  <SCORE.INTRA.POLAR.0>
0

>  <SCORE.INTRA.REPUL>
0

>  <SCORE.INTRA.REPUL.0>
0

>  <SCORE.INTRA.SOLV>
0

>  <SCORE.INTRA.SOLV.lig_0>
-4.28333

>  <SCORE.INTRA.VDW>
0

>  <SCORE.INTRA.VDW.0>
0

>  <SCORE.INTRA.norm>
0

>  <SCORE.RESTR>
0

>  <SCORE.RESTR.CAVITY>
0

>  <SCORE.RESTR.norm>
0

>  <SCORE.SYSTEM>
0

>  <SCORE.SYSTEM.CONST>
0

>  <SCORE.SYSTEM.DIHEDRAL>
0

>  <SCORE.SYSTEM.SOLV>
0

>  <SCORE.SYSTEM.norm>
0

>  <SCORE.heavy>
10

>  <SCORE.norm>
-1.73826

>  <RMSD>
0.531

$$$$
ligand
 OpenBabel02271912143D
libRbt.so/2013.1/901 2013/11/27
 10 11  0  0  0  0  0  0  0  0999 V2000
   11.9179   10.7768    8.5940 N   0  0  0  0  0  0  0  0  0  0  0  0
   11.6015   12.1079    8.7320 C   0  0  0  0  0  0  0  0  0  0  0  0
   11.2282   12.8585    7.6940 N   0  0  0  0  0  0  0  0  0  0  0  0
   11.1977   12.1760    6.5141 C   0  0  0  0  0  0  0  0  0  0  0  0
   11.5041   10.8451    6.3088 C   0  0  0  0  0  0  0  0  0  0  0  0
   11.9012   10.0386    7.4103 C   0  0  0  0  0  0  0  0  0  0  0  0
   12.2136    8.8426    7.4554 O   0  0  0  0  0  0  0  0  0  0  0  0
   11.3453   10.5645    4.9808 N   0  0  0  0  0  0  0  0  0  0  0  0
   10.9442   11.7117    4.3857 C   0  0  0  0  0  0  0  0  0  0  0  0
   10.8441   12.7299    5.3093 N   0  0  0  0  0  0  0  0  0  0  0  0
  1  2  1  0  0  0  0
  1  6  1  0  0  0  0
  2  3  2  0  0  0  0
  3  4  1  0  0  0  0
  4  5  2  0  0  0  0
  4 10  1  0  0  0  0
  5  6  1  0  0  0  0
  5  8  1  0  0  0  0
  6  7  2  0  0  0  0
  8  9  1  0  0  0  0
  9 10  2  0  0  0  0
M  END
>  <CHROM.1>
11.48403375,11.22024004,6.75439609,0.42516957,-1.27040765,0.97366139

>  <Name>
ligand

>  <RI>
0

>  <Rbt.Current_Directory>
/home/itssahil/PROJECTS/Mol_Feturizer/Test_systems_manuscript/rnas/4fe5

>  <Rbt.Executable>
rbdock ($Id: //depot/dev/client3/rdock/2013.1/src/exe/rbdock.cxx#4 $)

>  <Rbt.Library>
libRbt.so (2013.1, Build901 2013/11/27)

>  <Rbt.Parameter_File>
/export/apps/rDock/src/rDock_2013.1_src/data/scripts/dock_solv.prm

>  <Rbt.Receptor>
prm/pocket_docking_4.prm

>  <SCORE>
-17.4267

>  <SCORE.INTER>
-17.4269

>  <SCORE.INTER.CONST>
1

>  <SCORE.INTER.POLAR>
0

>  <SCORE.INTER.ROT>
0

>  <SCORE.INTER.SOLV>
3.5231

>  <SCORE.INTER.VDW>
-16.3923

>  <SCORE.INTER.norm>
-1.74269

>  <SCORE.INTRA>
0

>  <SCORE.INTRA.DIHEDRAL>
0

>  <SCORE.INTRA.DIHEDRAL.0>
0

>  <SCORE.INTRA.POLAR>
0

>  <SCORE.INTRA.POLAR.0>
0

>  <SCORE.INTRA.REPUL>
0

>  <SCORE.INTRA.REPUL.0>
0

>  <SCORE.INTRA.SOLV>
0

>  <SCORE.INTRA.SOLV.lig_0>
-4.28333

>  <SCORE.INTRA.VDW>
0

>  <SCORE.INTRA.VDW.0>
0

>  <SCORE.INTRA.norm>
0

>  <SCORE.RESTR>
0.000165899

>  <SCORE.RESTR.CAVITY>
0.000165899

>  <SCORE.RESTR.norm>
1.65899e-05

>  <SCORE.SYSTEM>
0

>  <SCORE.SYSTEM.CONST>
0

>  <SCORE.SYSTEM.DIHEDRAL>
0

>  <SCORE.SYSTEM.SOLV>
0

>  <SCORE.SYSTEM.norm>
0

>  <SCORE.heavy>
10

>  <SCORE.norm>
-1.74267

>  <RMSD>
0.532

$$$$
ligand
 OpenBabel02271912143D
libRbt.so/2013.1/901 2013/11/27
 10 11  0  0  0  0  0  0  0  0999 V2000
   11.8673   10.7255    8.6037 N   0  0  0  0  0  0  0  0  0  0  0  0
   11.6033   12.0673    8.7479 C   0  0  0  0  0  0  0  0  0  0  0  0
   11.2608   12.8370    7.7132 N   0  0  0  0  0  0  0  0  0  0  0  0
   11.2046   12.1618    6.5300 C   0  0  0  0  0  0  0  0  0  0  0  0
   11.4585   10.8209    6.3185 C   0  0  0  0  0  0  0  0  0  0  0  0
   11.8226    9.9941    7.4164 C   0  0  0  0  0  0  0  0  0  0  0  0
   12.0878    8.7866    7.4560 O   0  0  0  0  0  0  0  0  0  0  0  0
   11.2902   10.5531    4.9891 N   0  0  0  0  0  0  0  0  0  0  0  0
   10.9350   11.7181    4.3993 C   0  0  0  0  0  0  0  0  0  0  0  0
   10.8741   12.7349    5.3276 N   0  0  0  0  0  0  0  0  0  0  0  0
  1  2  1  0  0  0  0
  1  6  1  0  0  0  0
  2  3  2  0  0  0  0
  3  4  1  0  0  0  0
  4  5  2  0  0  0  0
  4 10  1  0  0  0  0
  5  6  1  0  0  0  0
  5  8  1  0  0  0  0
  6  7  2  0  0  0  0
  8  9  1  0  0  0  0
  9 10  2  0  0  0  0
M  END
>  <CHROM.1>
11.45286650,11.19440569,6.76594078,0.34459717,-1.30260726,0.90111102

>  <Name>
ligand

>  <RI>
0

>  <Rbt.Current_Directory>
/home/itssahil/PROJECTS/Mol_Feturizer/Test_systems_manuscript/rnas/4fe5

>  <Rbt.Executable>
rbdock ($Id: //depot/dev/client3/rdock/2013.1/src/exe/rbdock.cxx#4 $)

>  <Rbt.Library>
libRbt.so (2013.1, Build901 2013/11/27)

>  <Rbt.Parameter_File>
/export/apps/rDock/src/rDock_2013.1_src/data/scripts/dock_solv.prm

>  <Rbt.Receptor>
prm/pocket_docking_3.prm

>  <SCORE>
-17.4046

>  <SCORE.INTER>
-17.4054

>  <SCORE.INTER.CONST>
1

>  <SCORE.INTER.POLAR>
0

>  <SCORE.INTER.ROT>
0

>  <SCORE.INTER.SOLV>
3.62663

>  <SCORE.INTER.VDW>
-16.4125

>  <SCORE.INTER.norm>
-1.74054

>  <SCORE.INTRA>
0

>  <SCORE.INTRA.DIHEDRAL>
0

>  <SCORE.INTRA.DIHEDRAL.0>
0

>  <SCORE.INTRA.POLAR>
0

>  <SCORE.INTRA.POLAR.0>
0

>  <SCORE.INTRA.REPUL>
0

>  <SCORE.INTRA.REPUL.0>
0

>  <SCORE.INTRA.SOLV>
0

>  <SCORE.INTRA.SOLV.lig_0>
-4.28333

>  <SCORE.INTRA.VDW>
0

>  <SCORE.INTRA.VDW.0>
0

>  <SCORE.INTRA.norm>
0

>  <SCORE.RESTR>
0.000801838

>  <SCORE.RESTR.CAVITY>
0.000801838

>  <SCORE.RESTR.norm>
8.01838e-05

>  <SCORE.SYSTEM>
0

>  <SCORE.SYSTEM.CONST>
0

>  <SCORE.SYSTEM.DIHEDRAL>
0

>  <SCORE.SYSTEM.SOLV>
0

>  <SCORE.SYSTEM.norm>
0

>  <SCORE.heavy>
10

>  <SCORE.norm>
-1.74046

>  <RMSD>
0.540

$$$$
ligand
 OpenBabel02271912143D
libRbt.so/2013.1/901 2013/11/27
 10 11  0  0  0  0  0  0  0  0999 V2000
   11.8389   10.7612    8.5973 N   0  0  0  0  0  0  0  0  0  0  0  0
   11.4791   12.0789    8.7554 C   0  0  0  0  0  0  0  0  0  0  0  0
   11.1211   12.8442    7.7228 N   0  0  0  0  0  0  0  0  0  0  0  0
   11.1523   12.1906    6.5267 C   0  0  0  0  0  0  0  0  0  0  0  0
   11.5044   10.8745    6.3009 C   0  0  0  0  0  0  0  0  0  0  0  0
   11.8856   10.0524    7.3965 C   0  0  0  0  0  0  0  0  0  0  0  0
   12.2311    8.8650    7.4243 O   0  0  0  0  0  0  0  0  0  0  0  0
   11.4011   10.6225    4.9617 N   0  0  0  0  0  0  0  0  0  0  0  0
   10.9880   11.7724    4.3801 C   0  0  0  0  0  0  0  0  0  0  0  0
   10.8255   12.7641    5.3234 N   0  0  0  0  0  0  0  0  0  0  0  0
  1  2  1  0  0  0  0
  1  6  1  0  0  0  0
  2  3  2  0  0  0  0
  3  4  1  0  0  0  0
  4  5  2  0  0  0  0
  4 10  1  0  0  0  0
  5  6  1  0  0  0  0
  5  8  1  0  0  0  0
  6  7  2  0  0  0  0
  8  9  1  0  0  0  0
  9 10  2  0  0  0  0
M  END
>  <CHROM.1>
11.45768707,11.23770619,6.75430697,0.57649883,-1.26288982,1.14241757

>  <Name>
ligand

>  <RI>
0

>  <Rbt.Current_Directory>
/home/itssahil/PROJECTS/Mol_Feturizer/Test_systems_manuscript/rnas/4fe5

>  <Rbt.Executable>
rbdock ($Id: //depot/dev/client3/rdock/2013.1/src/exe/rbdock.cxx#4 $)

>  <Rbt.Library>
libRbt.so (2013.1, Build901 2013/11/27)

>  <Rbt.Parameter_File>
/export/apps/rDock/src/rDock_2013.1_src/data/scripts/dock_solv.prm

>  <Rbt.Receptor>
prm/blind_docking_20.prm

>  <SCORE>
-17.2293

>  <SCORE.INTER>
-17.2295

>  <SCORE.INTER.CONST>
1

>  <SCORE.INTER.POLAR>
0

>  <SCORE.INTER.ROT>
0

>  <SCORE.INTER.SOLV>
3.52346

>  <SCORE.INTER.VDW>
-16.2608

>  <SCORE.INTER.norm>
-1.72295

>  <SCORE.INTRA>
0

>  <SCORE.INTRA.DIHEDRAL>
0

>  <SCORE.INTRA.DIHEDRAL.0>
0

>  <SCORE.INTRA.POLAR>
0

>  <SCORE.INTRA.POLAR.0>
0

>  <SCORE.INTRA.REPUL>
0

>  <SCORE.INTRA.REPUL.0>
0

>  <SCORE.INTRA.SOLV>
0

>  <SCORE.INTRA.SOLV.lig_0>
-4.28333

>  <SCORE.INTRA.VDW>
0

>  <SCORE.INTRA.VDW.0>
0

>  <SCORE.INTRA.norm>
0

>  <SCORE.RESTR>
0.000177412

>  <SCORE.RESTR.CAVITY>
0.000177412

>  <SCORE.RESTR.norm>
1.77412e-05

>  <SCORE.SYSTEM>
0

>  <SCORE.SYSTEM.CONST>
0

>  <SCORE.SYSTEM.DIHEDRAL>
0

>  <SCORE.SYSTEM.SOLV>
0

>  <SCORE.SYSTEM.norm>
0

>  <SCORE.heavy>
10

>  <SCORE.norm>
-1.72293

>  <RMSD>
0.543

$$$$
ligand
 OpenBabel02271912143D
libRbt.so/2013.1/901 2013/11/27
 10 11  0  0  0  0  0  0  0  0999 V2000
   11.8411   10.6066    8.5785 N   0  0  0  0  0  0  0  0  0  0  0  0
   11.5025   11.9268    8.7606 C   0  0  0  0  0  0  0  0  0  0  0  0
   11.1423   12.7124    7.7440 N   0  0  0  0  0  0  0  0  0  0  0  0
   11.1485   12.0762    6.5381 C   0  0  0  0  0  0  0  0  0  0  0  0
   11.4786   10.7586    6.2886 C   0  0  0  0  0  0  0  0  0  0  0  0
   11.8620    9.9151    7.3669 C   0  0  0  0  0  0  0  0  0  0  0  0
   12.1906    8.7225    7.3729 O   0  0  0  0  0  0  0  0  0  0  0  0
   11.3543   10.5280    4.9473 N   0  0  0  0  0  0  0  0  0  0  0  0
   10.9504   11.6922    4.3880 C   0  0  0  0  0  0  0  0  0  0  0  0
   10.8146   12.6720    5.3478 N   0  0  0  0  0  0  0  0  0  0  0  0
  1  2  1  0  0  0  0
  1  6  1  0  0  0  0
  2  3  2  0  0  0  0
  3  4  1  0  0  0  0
  4  5  2  0  0  0  0
  4 10  1  0  0  0  0
  5  6  1  0  0  0  0
  5  8  1  0  0  0  0
  6  7  2  0  0  0  0
  8  9  1  0  0  0  0
  9 10  2  0  0  0  0
M  END
>  <CHROM.1>
11.44301720,11.11572457,6.74781848,0.51640640,-1.27017236,1.09978794

>  <Name>
ligand

>  <RI>
0

>  <Rbt.Current_Directory>
/home/itssahil/PROJECTS/Mol_Feturizer/Test_systems_manuscript/rnas/4fe5

>  <Rbt.Executable>
rbdock ($Id: //depot/dev/client3/rdock/2013.1/src/exe/rbdock.cxx#4 $)

>  <Rbt.Library>
libRbt.so (2013.1, Build901 2013/11/27)

>  <Rbt.Parameter_File>
/export/apps/rDock/src/rDock_2013.1_src/data/scripts/dock_solv.prm

>  <Rbt.Receptor>
prm/blind_docking_20.prm

>  <SCORE>
-17.181

>  <SCORE.INTER>
-17.1814

>  <SCORE.INTER.CONST>
1

>  <SCORE.INTER.POLAR>
0

>  <SCORE.INTER.ROT>
0

>  <SCORE.INTER.SOLV>
3.53943

>  <SCORE.INTER.VDW>
-16.2341

>  <SCORE.INTER.norm>
-1.71814

>  <SCORE.INTRA>
0

>  <SCORE.INTRA.DIHEDRAL>
0

>  <SCORE.INTRA.DIHEDRAL.0>
0

>  <SCORE.INTRA.POLAR>
0

>  <SCORE.INTRA.POLAR.0>
0

>  <SCORE.INTRA.REPUL>
0

>  <SCORE.INTRA.REPUL.0>
0

>  <SCORE.INTRA.SOLV>
0

>  <SCORE.INTRA.SOLV.lig_0>
-4.28333

>  <SCORE.INTRA.VDW>
0

>  <SCORE.INTRA.VDW.0>
0

>  <SCORE.INTRA.norm>
0

>  <SCORE.RESTR>
0.000373323

>  <SCORE.RESTR.CAVITY>
0.000373323

>  <SCORE.RESTR.norm>
3.73323e-05

>  <SCORE.SYSTEM>
0

>  <SCORE.SYSTEM.CONST>
0

>  <SCORE.SYSTEM.DIHEDRAL>
0

>  <SCORE.SYSTEM.SOLV>
0

>  <SCORE.SYSTEM.norm>
0

>  <SCORE.heavy>
10

>  <SCORE.norm>
-1.7181

>  <RMSD>
0.544

$$$$
ligand
 OpenBabel02271912143D
libRbt.so/2013.1/901 2013/11/27
 10 11  0  0  0  0  0  0  0  0999 V2000
   11.8343   10.6258    8.5771 N   0  0  0  0  0  0  0  0  0  0  0  0
   11.4998   11.9476    8.7554 C   0  0  0  0  0  0  0  0  0  0  0  0
   11.1391   12.7306    7.7370 N   0  0  0  0  0  0  0  0  0  0  0  0
   11.1405   12.0900    6.5334 C   0  0  0  0  0  0  0  0  0  0  0  0
   11.4662   10.7707    6.2877 C   0  0  0  0  0  0  0  0  0  0  0  0
   11.8502    9.9299    7.3680 C   0  0  0  0  0  0  0  0  0  0  0  0
   12.1754    8.7365    7.3773 O   0  0  0  0  0  0  0  0  0  0  0  0
   11.3378   10.5357    4.9476 N   0  0  0  0  0  0  0  0  0  0  0  0
   10.9356   11.6990    4.3852 C   0  0  0  0  0  0  0  0  0  0  0  0
   10.8050   12.6825    5.3418 N   0  0  0  0  0  0  0  0  0  0  0  0
  1  2  1  0  0  0  0
  1  6  1  0  0  0  0
  2  3  2  0  0  0  0
  3  4  1  0  0  0  0
  4  5  2  0  0  0  0
  4 10  1  0  0  0  0
  5  6  1  0  0  0  0
  5  8  1  0  0  0  0
  6  7  2  0  0  0  0
  8  9  1  0  0  0  0
  9 10  2  0  0  0  0
M  END
>  <CHROM.1>
11.43283834,11.12952651,6.74570962,0.50425807,-1.27141090,1.08462858

>  <Name>
ligand

>  <RI>
0

>  <Rbt.Current_Directory>
/home/itssahil/PROJECTS/Mol_Feturizer/Test_systems_manuscript/rnas/4fe5

>  <Rbt.Executable>
rbdock ($Id: //depot/dev/client3/rdock/2013.1/src/exe/rbdock.cxx#4 $)

>  <Rbt.Library>
libRbt.so (2013.1, Build901 2013/11/27)

>  <Rbt.Parameter_File>
/export/apps/rDock/src/rDock_2013.1_src/data/scripts/dock_solv.prm

>  <Rbt.Receptor>
prm/blind_docking_20.prm

>  <SCORE>
-17.1866

>  <SCORE.INTER>
-17.1866

>  <SCORE.INTER.CONST>
1

>  <SCORE.INTER.POLAR>
0

>  <SCORE.INTER.ROT>
0

>  <SCORE.INTER.SOLV>
3.5463

>  <SCORE.INTER.VDW>
-16.2398

>  <SCORE.INTER.norm>
-1.71866

>  <SCORE.INTRA>
0

>  <SCORE.INTRA.DIHEDRAL>
0

>  <SCORE.INTRA.DIHEDRAL.0>
0

>  <SCORE.INTRA.POLAR>
0

>  <SCORE.INTRA.POLAR.0>
0

>  <SCORE.INTRA.REPUL>
0

>  <SCORE.INTRA.REPUL.0>
0

>  <SCORE.INTRA.SOLV>
0

>  <SCORE.INTRA.SOLV.lig_0>
-4.28333

>  <SCORE.INTRA.VDW>
0

>  <SCORE.INTRA.VDW.0>
0

>  <SCORE.INTRA.norm>
0

>  <SCORE.RESTR>
0

>  <SCORE.RESTR.CAVITY>
0

>  <SCORE.RESTR.norm>
0

>  <SCORE.SYSTEM>
0

>  <SCORE.SYSTEM.CONST>
0

>  <SCORE.SYSTEM.DIHEDRAL>
0

>  <SCORE.SYSTEM.SOLV>
0

>  <SCORE.SYSTEM.norm>
0

>  <SCORE.heavy>
10

>  <SCORE.norm>
-1.71866

>  <RMSD>
0.549

$$$$
ligand
 OpenBabel02271912143D
libRbt.so/2013.1/901 2013/11/27
 10 11  0  0  0  0  0  0  0  0999 V2000
   11.8278   10.6589    8.5712 N   0  0  0  0  0  0  0  0  0  0  0  0
   11.4956   11.9833    8.7335 C   0  0  0  0  0  0  0  0  0  0  0  0
   11.1406   12.7557    7.7051 N   0  0  0  0  0  0  0  0  0  0  0  0
   11.1450   12.1018    6.5087 C   0  0  0  0  0  0  0  0  0  0  0  0
   11.4687   10.7791    6.2789 C   0  0  0  0  0  0  0  0  0  0  0  0
   11.8466    9.9495    7.3700 C   0  0  0  0  0  0  0  0  0  0  0  0
   12.1691    8.7556    7.3939 O   0  0  0  0  0  0  0  0  0  0  0  0
   11.3447   10.5294    4.9411 N   0  0  0  0  0  0  0  0  0  0  0  0
   10.9474   11.6873    4.3642 C   0  0  0  0  0  0  0  0  0  0  0  0
   10.8154   12.6817    5.3093 N   0  0  0  0  0  0  0  0  0  0  0  0
  1  2  1  0  0  0  0
  1  6  1  0  0  0  0
  2  3  2  0  0  0  0
  3  4  1  0  0  0  0
  4  5  2  0  0  0  0
  4 10  1  0  0  0  0
  5  6  1  0  0  0  0
  5  8  1  0  0  0  0
  6  7  2  0  0  0  0
  8  9  1  0  0  0  0
  9 10  2  0  0  0  0
M  END
>  <CHROM.1>
11.43435924,11.14306433,6.73280259,0.51202056,-1.27519349,1.08090302

>  <Name>
ligand

>  <RI>
0

>  <Rbt.Current_Directory>
/home/itssahil/PROJECTS/Mol_Feturizer/Test_systems_manuscript/rnas/4fe5

>  <Rbt.Executable>
rbdock ($Id: //depot/dev/client3/rdock/2013.1/src/exe/rbdock.cxx#4 $)

>  <Rbt.Library>
libRbt.so (2013.1, Build901 2013/11/27)

>  <Rbt.Parameter_File>
/export/apps/rDock/src/rDock_2013.1_src/data/scripts/dock_solv.prm

>  <Rbt.Receptor>
prm/blind_docking_20.prm

>  <SCORE>
-17.2145

>  <SCORE.INTER>
-17.2145

>  <SCORE.INTER.CONST>
1

>  <SCORE.INTER.POLAR>
0

>  <SCORE.INTER.ROT>
0

>  <SCORE.INTER.SOLV>
3.56077

>  <SCORE.INTER.VDW>
-16.2633

>  <SCORE.INTER.norm>
-1.72145

>  <SCORE.INTRA>
0

>  <SCORE.INTRA.DIHEDRAL>
0

>  <SCORE.INTRA.DIHEDRAL.0>
0

>  <SCORE.INTRA.POLAR>
0

>  <SCORE.INTRA.POLAR.0>
0

>  <SCORE.INTRA.REPUL>
0

>  <SCORE.INTRA.REPUL.0>
0

>  <SCORE.INTRA.SOLV>
0

>  <SCORE.INTRA.SOLV.lig_0>
-4.28333

>  <SCORE.INTRA.VDW>
0

>  <SCORE.INTRA.VDW.0>
0

>  <SCORE.INTRA.norm>
0

>  <SCORE.RESTR>
4.53572e-05

>  <SCORE.RESTR.CAVITY>
4.53572e-05

>  <SCORE.RESTR.norm>
4.53572e-06

>  <SCORE.SYSTEM>
0

>  <SCORE.SYSTEM.CONST>
0

>  <SCORE.SYSTEM.DIHEDRAL>
0

>  <SCORE.SYSTEM.SOLV>
0

>  <SCORE.SYSTEM.norm>
0

>  <SCORE.heavy>
10

>  <SCORE.norm>
-1.72145

>  <RMSD>
0.561

$$$$
ligand
 OpenBabel02271912143D
libRbt.so/2013.1/901 2013/11/27
 10 11  0  0  0  0  0  0  0  0999 V2000
   11.8206   10.6780    8.5670 N   0  0  0  0  0  0  0  0  0  0  0  0
   11.4790   11.9967    8.7550 C   0  0  0  0  0  0  0  0  0  0  0  0
   11.1280   12.7891    7.7404 N   0  0  0  0  0  0  0  0  0  0  0  0
   11.1466   12.1612    6.5303 C   0  0  0  0  0  0  0  0  0  0  0  0
   11.4802   10.8457    6.2748 C   0  0  0  0  0  0  0  0  0  0  0  0
   11.8539    9.9950    7.3510 C   0  0  0  0  0  0  0  0  0  0  0  0
   12.1834    8.8027    7.3519 O   0  0  0  0  0  0  0  0  0  0  0  0
   11.3691   10.6243    4.9309 N   0  0  0  0  0  0  0  0  0  0  0  0
   10.9697   11.7920    4.3757 C   0  0  0  0  0  0  0  0  0  0  0  0
   10.8237   12.7650    5.3409 N   0  0  0  0  0  0  0  0  0  0  0  0
  1  2  1  0  0  0  0
  1  6  1  0  0  0  0
  2  3  2  0  0  0  0
  3  4  1  0  0  0  0
  4  5  2  0  0  0  0
  4 10  1  0  0  0  0
  5  6  1  0  0  0  0
  5  8  1  0  0  0  0
  6  7  2  0  0  0  0
  8  9  1  0  0  0  0
  9 10  2  0  0  0  0
M  END
>  <CHROM.1>
11.43984223,11.19957105,6.73616118,0.54732740,-1.27366763,1.13627038

>  <Name>
ligand

>  <RI>
0

>  <Rbt.Current_Directory>
/home/itssahil/PROJECTS/Mol_Feturizer/Test_systems_manuscript/rnas/4fe5

>  <Rbt.Executable>
rbdock ($Id: //depot/dev/client3/rdock/2013.1/src/exe/rbdock.cxx#4 $)

>  <Rbt.Library>
libRbt.so (2013.1, Build901 2013/11/27)

>  <Rbt.Parameter_File>
/export/apps/rDock/src/rDock_2013.1_src/data/scripts/dock_solv.prm

>  <Rbt.Receptor>
prm/blind_docking_20.prm

>  <SCORE>
-17.1917

>  <SCORE.INTER>
-17.1917

>  <SCORE.INTER.CONST>
1

>  <SCORE.INTER.POLAR>
0

>  <SCORE.INTER.ROT>
0

>  <SCORE.INTER.SOLV>
3.54164

>  <SCORE.INTER.VDW>
-16.2417

>  <SCORE.INTER.norm>
-1.71917

>  <SCORE.INTRA>
0

>  <SCORE.INTRA.DIHEDRAL>
0

>  <SCORE.INTRA.DIHEDRAL.0>
0

>  <SCORE.INTRA.POLAR>
0

>  <SCORE.INTRA.POLAR.0>
0

>  <SCORE.INTRA.REPUL>
0

>  <SCORE.INTRA.REPUL.0>
0

>  <SCORE.INTRA.SOLV>
0

>  <SCORE.INTRA.SOLV.lig_0>
-4.28333

>  <SCORE.INTRA.VDW>
0

>  <SCORE.INTRA.VDW.0>
0

>  <SCORE.INTRA.norm>
0

>  <SCORE.RESTR>
0

>  <SCORE.RESTR.CAVITY>
0

>  <SCORE.RESTR.norm>
0

>  <SCORE.SYSTEM>
0

>  <SCORE.SYSTEM.CONST>
0

>  <SCORE.SYSTEM.DIHEDRAL>
0

>  <SCORE.SYSTEM.SOLV>
0

>  <SCORE.SYSTEM.norm>
0

>  <SCORE.heavy>
10

>  <SCORE.norm>
-1.71917

>  <RMSD>
0.563

$$$$
ligand
 OpenBabel02271912143D
libRbt.so/2013.1/901 2013/11/27
 10 11  0  0  0  0  0  0  0  0999 V2000
   11.8396   10.6377    8.5552 N   0  0  0  0  0  0  0  0  0  0  0  0
   11.5060   11.9604    8.7295 C   0  0  0  0  0  0  0  0  0  0  0  0
   11.1436   12.7399    7.7092 N   0  0  0  0  0  0  0  0  0  0  0  0
   11.1421   12.0951    6.5078 C   0  0  0  0  0  0  0  0  0  0  0  0
   11.4667   10.7748    6.2661 C   0  0  0  0  0  0  0  0  0  0  0  0
   11.8525    9.9376    7.3485 C   0  0  0  0  0  0  0  0  0  0  0  0
   12.1772    8.7441    7.3614 O   0  0  0  0  0  0  0  0  0  0  0  0
   11.3353   10.5351    4.9271 N   0  0  0  0  0  0  0  0  0  0  0  0
   10.9325   11.6966    4.3614 C   0  0  0  0  0  0  0  0  0  0  0  0
   10.8044   12.6836    5.3148 N   0  0  0  0  0  0  0  0  0  0  0  0
  1  2  1  0  0  0  0
  1  6  1  0  0  0  0
  2  3  2  0  0  0  0
  3  4  1  0  0  0  0
  4  5  2  0  0  0  0
  4 10  1  0  0  0  0
  5  6  1  0  0  0  0
  5  8  1  0  0  0  0
  6  7  2  0  0  0  0
  8  9  1  0  0  0  0
  9 10  2  0  0  0  0
M  END
>  <CHROM.1>
11.43444424,11.13522140,6.72291102,0.49716914,-1.27084472,1.07432544

>  <Name>
ligand

>  <RI>
0

>  <Rbt.Current_Directory>
/home/itssahil/PROJECTS/Mol_Feturizer/Test_systems_manuscript/rnas/4fe5

>  <Rbt.Executable>
rbdock ($Id: //depot/dev/client3/rdock/2013.1/src/exe/rbdock.cxx#4 $)

>  <Rbt.Library>
libRbt.so (2013.1, Build901 2013/11/27)

>  <Rbt.Parameter_File>
/export/apps/rDock/src/rDock_2013.1_src/data/scripts/dock_solv.prm

>  <Rbt.Receptor>
prm/blind_docking_20.prm

>  <SCORE>
-17.2092

>  <SCORE.INTER>
-17.2093

>  <SCORE.INTER.CONST>
1

>  <SCORE.INTER.POLAR>
0

>  <SCORE.INTER.ROT>
0

>  <SCORE.INTER.SOLV>
3.54249

>  <SCORE.INTER.VDW>
-16.2537

>  <SCORE.INTER.norm>
-1.72093

>  <SCORE.INTRA>
0

>  <SCORE.INTRA.DIHEDRAL>
0

>  <SCORE.INTRA.DIHEDRAL.0>
0

>  <SCORE.INTRA.POLAR>
0

>  <SCORE.INTRA.POLAR.0>
0

>  <SCORE.INTRA.REPUL>
0

>  <SCORE.INTRA.REPUL.0>
0

>  <SCORE.INTRA.SOLV>
0

>  <SCORE.INTRA.SOLV.lig_0>
-4.28333

>  <SCORE.INTRA.VDW>
0

>  <SCORE.INTRA.VDW.0>
0

>  <SCORE.INTRA.norm>
0

>  <SCORE.RESTR>
0.000123458

>  <SCORE.RESTR.CAVITY>
0.000123458

>  <SCORE.RESTR.norm>
1.23458e-05

>  <SCORE.SYSTEM>
0

>  <SCORE.SYSTEM.CONST>
0

>  <SCORE.SYSTEM.DIHEDRAL>
0

>  <SCORE.SYSTEM.SOLV>
0

>  <SCORE.SYSTEM.norm>
0

>  <SCORE.heavy>
10

>  <SCORE.norm>
-1.72092

>  <RMSD>
0.568

$$$$
ligand
 OpenBabel02271912143D
libRbt.so/2013.1/901 2013/11/27
 10 11  0  0  0  0  0  0  0  0999 V2000
   11.8297   10.6440    8.5399 N   0  0  0  0  0  0  0  0  0  0  0  0
   11.4908   11.9633    8.7280 C   0  0  0  0  0  0  0  0  0  0  0  0
   11.1387   12.7557    7.7138 N   0  0  0  0  0  0  0  0  0  0  0  0
   11.1534   12.1272    6.5040 C   0  0  0  0  0  0  0  0  0  0  0  0
   11.4843   10.8111    6.2484 C   0  0  0  0  0  0  0  0  0  0  0  0
   11.8591    9.9602    7.3241 C   0  0  0  0  0  0  0  0  0  0  0  0
   12.1866    8.7674    7.3249 O   0  0  0  0  0  0  0  0  0  0  0  0
   11.3698   10.5892    4.9049 N   0  0  0  0  0  0  0  0  0  0  0  0
   10.9710   11.7572    4.3500 C   0  0  0  0  0  0  0  0  0  0  0  0
   10.8288   12.7309    5.3151 N   0  0  0  0  0  0  0  0  0  0  0  0
  1  2  1  0  0  0  0
  1  6  1  0  0  0  0
  2  3  2  0  0  0  0
  3  4  1  0  0  0  0
  4  5  2  0  0  0  0
  4 10  1  0  0  0  0
  5  6  1  0  0  0  0
  5  8  1  0  0  0  0
  6  7  2  0  0  0  0
  8  9  1  0  0  0  0
  9 10  2  0  0  0  0
M  END
>  <CHROM.1>
11.44559998,11.16521027,6.70967314,0.53779528,-1.27417627,1.12665731

>  <Name>
ligand

>  <RI>
0

>  <Rbt.Current_Directory>
/home/itssahil/PROJECTS/Mol_Feturizer/Test_systems_manuscript/rnas/4fe5

>  <Rbt.Executable>
rbdock ($Id: //depot/dev/client3/rdock/2013.1/src/exe/rbdock.cxx#4 $)

>  <Rbt.Library>
libRbt.so (2013.1, Build901 2013/11/27)

>  <Rbt.Parameter_File>
/export/apps/rDock/src/rDock_2013.1_src/data/scripts/dock_solv.prm

>  <Rbt.Receptor>
prm/blind_docking_20.prm

>  <SCORE>
-17.1686

>  <SCORE.INTER>
-17.1686

>  <SCORE.INTER.CONST>
1

>  <SCORE.INTER.POLAR>
0

>  <SCORE.INTER.ROT>
0

>  <SCORE.INTER.SOLV>
3.54434

>  <SCORE.INTER.VDW>
-16.2272

>  <SCORE.INTER.norm>
-1.71686

>  <SCORE.INTRA>
0

>  <SCORE.INTRA.DIHEDRAL>
0

>  <SCORE.INTRA.DIHEDRAL.0>
0

>  <SCORE.INTRA.POLAR>
0

>  <SCORE.INTRA.POLAR.0>
0

>  <SCORE.INTRA.REPUL>
0

>  <SCORE.INTRA.REPUL.0>
0

>  <SCORE.INTRA.SOLV>
0

>  <SCORE.INTRA.SOLV.lig_0>
-4.28333

>  <SCORE.INTRA.VDW>
0

>  <SCORE.INTRA.VDW.0>
0

>  <SCORE.INTRA.norm>
0

>  <SCORE.RESTR>
0

>  <SCORE.RESTR.CAVITY>
0

>  <SCORE.RESTR.norm>
0

>  <SCORE.SYSTEM>
0

>  <SCORE.SYSTEM.CONST>
0

>  <SCORE.SYSTEM.DIHEDRAL>
0

>  <SCORE.SYSTEM.SOLV>
0

>  <SCORE.SYSTEM.norm>
0

>  <SCORE.heavy>
10

>  <SCORE.norm>
-1.71686

>  <RMSD>
0.582

$$$$
ligand
 OpenBabel02271912143D
libRbt.so/2013.1/901 2013/11/27
 10 11  0  0  0  0  0  0  0  0999 V2000
   11.8341   10.6124    8.5164 N   0  0  0  0  0  0  0  0  0  0  0  0
   11.4908   11.9262    8.7331 C   0  0  0  0  0  0  0  0  0  0  0  0
   11.1388   12.7401    7.7362 N   0  0  0  0  0  0  0  0  0  0  0  0
   11.1581   12.1389    6.5126 C   0  0  0  0  0  0  0  0  0  0  0  0
   11.4935   10.8297    6.2284 C   0  0  0  0  0  0  0  0  0  0  0  0
   11.8683    9.9562    7.2857 C   0  0  0  0  0  0  0  0  0  0  0  0
   12.1994    8.7646    7.2605 O   0  0  0  0  0  0  0  0  0  0  0  0
   11.3828   10.6376    4.8800 N   0  0  0  0  0  0  0  0  0  0  0  0
   10.9817   11.8167    4.3505 C   0  0  0  0  0  0  0  0  0  0  0  0
   10.8344   12.7681    5.3367 N   0  0  0  0  0  0  0  0  0  0  0  0
  1  2  1  0  0  0  0
  1  6  1  0  0  0  0
  2  3  2  0  0  0  0
  3  4  1  0  0  0  0
  4  5  2  0  0  0  0
  4 10  1  0  0  0  0
  5  6  1  0  0  0  0
  5  8  1  0  0  0  0
  6  7  2  0  0  0  0
  8  9  1  0  0  0  0
  9 10  2  0  0  0  0
M  END
>  <CHROM.1>
11.45269268,11.17336174,6.69739013,0.54926301,-1.27246041,1.16000358

>  <Name>
ligand

>  <RI>
0

>  <Rbt.Current_Directory>
/home/itssahil/PROJECTS/Mol_Feturizer/Test_systems_manuscript/rnas/4fe5

>  <Rbt.Executable>
rbdock ($Id: //depot/dev/client3/rdock/2013.1/src/exe/rbdock.cxx#4 $)

>  <Rbt.Library>
libRbt.so (2013.1, Build901 2013/11/27)

>  <Rbt.Parameter_File>
/export/apps/rDock/src/rDock_2013.1_src/data/scripts/dock_solv.prm

>  <Rbt.Receptor>
prm/blind_docking_20.prm

>  <SCORE>
-17.1839

>  <SCORE.INTER>
-17.1846

>  <SCORE.INTER.CONST>
1

>  <SCORE.INTER.POLAR>
0

>  <SCORE.INTER.ROT>
0

>  <SCORE.INTER.SOLV>
3.53269

>  <SCORE.INTER.VDW>
-16.234

>  <SCORE.INTER.norm>
-1.71846

>  <SCORE.INTRA>
0

>  <SCORE.INTRA.DIHEDRAL>
0

>  <SCORE.INTRA.DIHEDRAL.0>
0

>  <SCORE.INTRA.POLAR>
0

>  <SCORE.INTRA.POLAR.0>
0

>  <SCORE.INTRA.REPUL>
0

>  <SCORE.INTRA.REPUL.0>
0

>  <SCORE.INTRA.SOLV>
0

>  <SCORE.INTRA.SOLV.lig_0>
-4.28333

>  <SCORE.INTRA.VDW>
0

>  <SCORE.INTRA.VDW.0>
0

>  <SCORE.INTRA.norm>
0

>  <SCORE.RESTR>
0.000699833

>  <SCORE.RESTR.CAVITY>
0.000699833

>  <SCORE.RESTR.norm>
6.99833e-05

>  <SCORE.SYSTEM>
0

>  <SCORE.SYSTEM.CONST>
0

>  <SCORE.SYSTEM.DIHEDRAL>
0

>  <SCORE.SYSTEM.SOLV>
0

>  <SCORE.SYSTEM.norm>
0

>  <SCORE.heavy>
10

>  <SCORE.norm>
-1.71839

>  <RMSD>
0.597

$$$$
ligand
 OpenBabel02271912143D
libRbt.so/2013.1/901 2013/11/27
 10 11  0  0  0  0  0  0  0  0999 V2000
   11.8280   10.6181    8.5121 N   0  0  0  0  0  0  0  0  0  0  0  0
   11.4861   11.9341    8.7173 C   0  0  0  0  0  0  0  0  0  0  0  0
   11.1423   12.7416    7.7124 N   0  0  0  0  0  0  0  0  0  0  0  0
   11.1683   12.1318    6.4932 C   0  0  0  0  0  0  0  0  0  0  0  0
   11.5028   10.8200    6.2204 C   0  0  0  0  0  0  0  0  0  0  0  0
   11.8688    9.9531    7.2863 C   0  0  0  0  0  0  0  0  0  0  0  0
   12.1976    8.7607    7.2716 O   0  0  0  0  0  0  0  0  0  0  0  0
   11.4004   10.6186    4.8727 N   0  0  0  0  0  0  0  0  0  0  0  0
   11.0053   11.7947    4.3323 C   0  0  0  0  0  0  0  0  0  0  0  0
   10.8536   12.7534    5.3108 N   0  0  0  0  0  0  0  0  0  0  0  0
  1  2  1  0  0  0  0
  1  6  1  0  0  0  0
  2  3  2  0  0  0  0
  3  4  1  0  0  0  0
  4  5  2  0  0  0  0
  4 10  1  0  0  0  0
  5  6  1  0  0  0  0
  5  8  1  0  0  0  0
  6  7  2  0  0  0  0
  8  9  1  0  0  0  0
  9 10  2  0  0  0  0
M  END
>  <CHROM.1>
11.45961584,11.16700482,6.68670502,0.56689283,-1.27695742,1.16983334

>  <Name>
ligand

>  <RI>
0

>  <Rbt.Current_Directory>
/home/itssahil/PROJECTS/Mol_Feturizer/Test_systems_manuscript/rnas/4fe5

>  <Rbt.Executable>
rbdock ($Id: //depot/dev/client3/rdock/2013.1/src/exe/rbdock.cxx#4 $)

>  <Rbt.Library>
libRbt.so (2013.1, Build901 2013/11/27)

>  <Rbt.Parameter_File>
/export/apps/rDock/src/rDock_2013.1_src/data/scripts/dock_solv.prm

>  <Rbt.Receptor>
prm/blind_docking_20.prm

>  <SCORE>
-17.1824

>  <SCORE.INTER>
-17.1824

>  <SCORE.INTER.CONST>
1

>  <SCORE.INTER.POLAR>
0

>  <SCORE.INTER.ROT>
0

>  <SCORE.INTER.SOLV>
3.54631

>  <SCORE.INTER.VDW>
-16.237

>  <SCORE.INTER.norm>
-1.71824

>  <SCORE.INTRA>
0

>  <SCORE.INTRA.DIHEDRAL>
0

>  <SCORE.INTRA.DIHEDRAL.0>
0

>  <SCORE.INTRA.POLAR>
0

>  <SCORE.INTRA.POLAR.0>
0

>  <SCORE.INTRA.REPUL>
0

>  <SCORE.INTRA.REPUL.0>
0

>  <SCORE.INTRA.SOLV>
0

>  <SCORE.INTRA.SOLV.lig_0>
-4.28333

>  <SCORE.INTRA.VDW>
0

>  <SCORE.INTRA.VDW.0>
0

>  <SCORE.INTRA.norm>
0

>  <SCORE.RESTR>
0

>  <SCORE.RESTR.CAVITY>
0

>  <SCORE.RESTR.norm>
0

>  <SCORE.SYSTEM>
0

>  <SCORE.SYSTEM.CONST>
0

>  <SCORE.SYSTEM.DIHEDRAL>
0

>  <SCORE.SYSTEM.SOLV>
0

>  <SCORE.SYSTEM.norm>
0

>  <SCORE.heavy>
10

>  <SCORE.norm>
-1.71824

>  <RMSD>
0.605

$$$$
ligand
 OpenBabel02271912143D
libRbt.so/2013.1/901 2013/11/27
 10 11  0  0  0  0  0  0  0  0999 V2000
   11.8251   10.5267    8.4918 N   0  0  0  0  0  0  0  0  0  0  0  0
   11.4983   11.8409    8.7306 C   0  0  0  0  0  0  0  0  0  0  0  0
   11.1488   12.6737    7.7485 N   0  0  0  0  0  0  0  0  0  0  0  0
   11.1529   12.0908    6.5159 C   0  0  0  0  0  0  0  0  0  0  0  0
   11.4713   10.7824    6.2098 C   0  0  0  0  0  0  0  0  0  0  0  0
   11.8433    9.8888    7.2511 C   0  0  0  0  0  0  0  0  0  0  0  0
   12.1606    8.6941    7.2058 O   0  0  0  0  0  0  0  0  0  0  0  0
   11.3491   10.6119    4.8594 N   0  0  0  0  0  0  0  0  0  0  0  0
   10.9579   11.8033    4.3505 C   0  0  0  0  0  0  0  0  0  0  0  0
   10.8283   12.7413    5.3519 N   0  0  0  0  0  0  0  0  0  0  0  0
  1  2  1  0  0  0  0
  1  6  1  0  0  0  0
  2  3  2  0  0  0  0
  3  4  1  0  0  0  0
  4  5  2  0  0  0  0
  4 10  1  0  0  0  0
  5  6  1  0  0  0  0
  5  8  1  0  0  0  0
  6  7  2  0  0  0  0
  8  9  1  0  0  0  0
  9 10  2  0  0  0  0
M  END
>  <CHROM.1>
11.43760103,11.11935806,6.68410660,0.51130269,-1.28000399,1.13872197

>  <Name>
ligand

>  <RI>
0

>  <Rbt.Current_Directory>
/home/itssahil/PROJECTS/Mol_Feturizer/Test_systems_manuscript/rnas/4fe5

>  <Rbt.Executable>
rbdock ($Id: //depot/dev/client3/rdock/2013.1/src/exe/rbdock.cxx#4 $)

>  <Rbt.Library>
libRbt.so (2013.1, Build901 2013/11/27)

>  <Rbt.Parameter_File>
/export/apps/rDock/src/rDock_2013.1_src/data/scripts/dock_solv.prm

>  <Rbt.Receptor>
prm/blind_docking_20.prm

>  <SCORE>
-17.2173

>  <SCORE.INTER>
-17.2173

>  <SCORE.INTER.CONST>
1

>  <SCORE.INTER.POLAR>
0

>  <SCORE.INTER.ROT>
0

>  <SCORE.INTER.SOLV>
3.56425

>  <SCORE.INTER.VDW>
-16.2663

>  <SCORE.INTER.norm>
-1.72173

>  <SCORE.INTRA>
0

>  <SCORE.INTRA.DIHEDRAL>
0

>  <SCORE.INTRA.DIHEDRAL.0>
0

>  <SCORE.INTRA.POLAR>
0

>  <SCORE.INTRA.POLAR.0>
0

>  <SCORE.INTRA.REPUL>
0

>  <SCORE.INTRA.REPUL.0>
0

>  <SCORE.INTRA.SOLV>
0

>  <SCORE.INTRA.SOLV.lig_0>
-4.28333

>  <SCORE.INTRA.VDW>
0

>  <SCORE.INTRA.VDW.0>
0

>  <SCORE.INTRA.norm>
0

>  <SCORE.RESTR>
0

>  <SCORE.RESTR.CAVITY>
0

>  <SCORE.RESTR.norm>
0

>  <SCORE.SYSTEM>
0

>  <SCORE.SYSTEM.CONST>
0

>  <SCORE.SYSTEM.DIHEDRAL>
0

>  <SCORE.SYSTEM.SOLV>
0

>  <SCORE.SYSTEM.norm>
0

>  <SCORE.heavy>
10

>  <SCORE.norm>
-1.72173

>  <RMSD>
0.619

$$$$
ligand
 OpenBabel02271912143D
libRbt.so/2013.1/901 2013/11/27
 10 11  0  0  0  0  0  0  0  0999 V2000
   11.8285   10.5267    8.4861 N   0  0  0  0  0  0  0  0  0  0  0  0
   11.4977   11.8401    8.7238 C   0  0  0  0  0  0  0  0  0  0  0  0
   11.1539   12.6732    7.7400 N   0  0  0  0  0  0  0  0  0  0  0  0
   11.1682   12.0917    6.5069 C   0  0  0  0  0  0  0  0  0  0  0  0
   11.4913   10.7841    6.2018 C   0  0  0  0  0  0  0  0  0  0  0  0
   11.8571    9.8901    7.2450 C   0  0  0  0  0  0  0  0  0  0  0  0
   12.1768    8.6960    7.2007 O   0  0  0  0  0  0  0  0  0  0  0  0
   11.3794   10.6149    4.8503 N   0  0  0  0  0  0  0  0  0  0  0  0
   10.9899   11.8061    4.3398 C   0  0  0  0  0  0  0  0  0  0  0  0
   10.8512   12.7429    5.3412 N   0  0  0  0  0  0  0  0  0  0  0  0
  1  2  1  0  0  0  0
  1  6  1  0  0  0  0
  2  3  2  0  0  0  0
  3  4  1  0  0  0  0
  4  5  2  0  0  0  0
  4 10  1  0  0  0  0
  5  6  1  0  0  0  0
  5  8  1  0  0  0  0
  6  7  2  0  0  0  0
  8  9  1  0  0  0  0
  9 10  2  0  0  0  0
M  END
>  <CHROM.1>
11.45344912,11.12053744,6.67620032,0.53762737,-1.28141881,1.16499906

>  <Name>
ligand

>  <RI>
0

>  <Rbt.Current_Directory>
/home/itssahil/PROJECTS/Mol_Feturizer/Test_systems_manuscript/rnas/4fe5

>  <Rbt.Executable>
rbdock ($Id: //depot/dev/client3/rdock/2013.1/src/exe/rbdock.cxx#4 $)

>  <Rbt.Library>
libRbt.so (2013.1, Build901 2013/11/27)

>  <Rbt.Parameter_File>
/export/apps/rDock/src/rDock_2013.1_src/data/scripts/dock_solv.prm

>  <Rbt.Receptor>
prm/blind_docking_20.prm

>  <SCORE>
-17.1704

>  <SCORE.INTER>
-17.1721

>  <SCORE.INTER.CONST>
1

>  <SCORE.INTER.POLAR>
0

>  <SCORE.INTER.ROT>
0

>  <SCORE.INTER.SOLV>
3.56136

>  <SCORE.INTER.VDW>
-16.2352

>  <SCORE.INTER.norm>
-1.71721

>  <SCORE.INTRA>
0

>  <SCORE.INTRA.DIHEDRAL>
0

>  <SCORE.INTRA.DIHEDRAL.0>
0

>  <SCORE.INTRA.POLAR>
0

>  <SCORE.INTRA.POLAR.0>
0

>  <SCORE.INTRA.REPUL>
0

>  <SCORE.INTRA.REPUL.0>
0

>  <SCORE.INTRA.SOLV>
0

>  <SCORE.INTRA.SOLV.lig_0>
-4.28333

>  <SCORE.INTRA.VDW>
0

>  <SCORE.INTRA.VDW.0>
0

>  <SCORE.INTRA.norm>
0

>  <SCORE.RESTR>
0.00162629

>  <SCORE.RESTR.CAVITY>
0.00162629

>  <SCORE.RESTR.norm>
0.000162629

>  <SCORE.SYSTEM>
0

>  <SCORE.SYSTEM.CONST>
0

>  <SCORE.SYSTEM.DIHEDRAL>
0

>  <SCORE.SYSTEM.SOLV>
0

>  <SCORE.SYSTEM.norm>
0

>  <SCORE.heavy>
10

>  <SCORE.norm>
-1.71704

>  <RMSD>
0.623

$$$$
ligand
 OpenBabel02271912143D
libRbt.so/2013.1/901 2013/11/27
 10 11  0  0  0  0  0  0  0  0999 V2000
   11.8068   10.5796    8.4851 N   0  0  0  0  0  0  0  0  0  0  0  0
   11.4888   11.8982    8.7111 C   0  0  0  0  0  0  0  0  0  0  0  0
   11.1446   12.7236    7.7208 N   0  0  0  0  0  0  0  0  0  0  0  0
   11.1446   12.1286    6.4941 C   0  0  0  0  0  0  0  0  0  0  0  0
   11.4543   10.8152    6.2008 C   0  0  0  0  0  0  0  0  0  0  0  0
   11.8206    9.9294    7.2508 C   0  0  0  0  0  0  0  0  0  0  0  0
   12.1299    8.7322    7.2172 O   0  0  0  0  0  0  0  0  0  0  0  0
   11.3308   10.6323    4.8521 N   0  0  0  0  0  0  0  0  0  0  0  0
   10.9474   11.8211    4.3316 C   0  0  0  0  0  0  0  0  0  0  0  0
   10.8242   12.7698    5.3237 N   0  0  0  0  0  0  0  0  0  0  0  0
  1  2  1  0  0  0  0
  1  6  1  0  0  0  0
  2  3  2  0  0  0  0
  3  4  1  0  0  0  0
  4  5  2  0  0  0  0
  4 10  1  0  0  0  0
  5  6  1  0  0  0  0
  5  8  1  0  0  0  0
  6  7  2  0  0  0  0
  8  9  1  0  0  0  0
  9 10  2  0  0  0  0
M  END
>  <CHROM.1>
11.42294330,11.15698601,6.67176431,0.50097344,-1.28594124,1.11899594

>  <Name>
ligand

>  <RI>
0

>  <Rbt.Current_Directory>
/home/itssahil/PROJECTS/Mol_Feturizer/Test_systems_manuscript/rnas/4fe5

>  <Rbt.Executable>
rbdock ($Id: //depot/dev/client3/rdock/2013.1/src/exe/rbdock.cxx#4 $)

>  <Rbt.Library>
libRbt.so (2013.1, Build901 2013/11/27)

>  <Rbt.Parameter_File>
/export/apps/rDock/src/rDock_2013.1_src/data/scripts/dock_solv.prm

>  <Rbt.Receptor>
prm/blind_docking_20.prm

>  <SCORE>
-17.2746

>  <SCORE.INTER>
-17.2746

>  <SCORE.INTER.CONST>
1

>  <SCORE.INTER.POLAR>
0

>  <SCORE.INTER.ROT>
0

>  <SCORE.INTER.SOLV>
3.59003

>  <SCORE.INTER.VDW>
-16.3131

>  <SCORE.INTER.norm>
-1.72746

>  <SCORE.INTRA>
0

>  <SCORE.INTRA.DIHEDRAL>
0

>  <SCORE.INTRA.DIHEDRAL.0>
0

>  <SCORE.INTRA.POLAR>
0

>  <SCORE.INTRA.POLAR.0>
0

>  <SCORE.INTRA.REPUL>
0

>  <SCORE.INTRA.REPUL.0>
0

>  <SCORE.INTRA.SOLV>
0

>  <SCORE.INTRA.SOLV.lig_0>
-4.28333

>  <SCORE.INTRA.VDW>
0

>  <SCORE.INTRA.VDW.0>
0

>  <SCORE.INTRA.norm>
0

>  <SCORE.RESTR>
0

>  <SCORE.RESTR.CAVITY>
0

>  <SCORE.RESTR.norm>
0

>  <SCORE.SYSTEM>
0

>  <SCORE.SYSTEM.CONST>
0

>  <SCORE.SYSTEM.DIHEDRAL>
0

>  <SCORE.SYSTEM.SOLV>
0

>  <SCORE.SYSTEM.norm>
0

>  <SCORE.heavy>
10

>  <SCORE.norm>
-1.72746

>  <RMSD>
0.633

$$$$
ligand
 OpenBabel02271912143D
libRbt.so/2013.1/901 2013/11/27
 10 11  0  0  0  0  0  0  0  0999 V2000
   11.8113   10.5600    8.4807 N   0  0  0  0  0  0  0  0  0  0  0  0
   11.4831   11.8746    8.7156 C   0  0  0  0  0  0  0  0  0  0  0  0
   11.1409   12.7062    7.7299 N   0  0  0  0  0  0  0  0  0  0  0  0
   11.1539   12.1219    6.4981 C   0  0  0  0  0  0  0  0  0  0  0  0
   11.4742   10.8130    6.1959 C   0  0  0  0  0  0  0  0  0  0  0  0
   11.8384    9.9206    7.2410 C   0  0  0  0  0  0  0  0  0  0  0  0
   12.1558    8.7257    7.1994 O   0  0  0  0  0  0  0  0  0  0  0  0
   11.3619   10.6409    4.8449 N   0  0  0  0  0  0  0  0  0  0  0  0
   10.9747   11.8318    4.3317 C   0  0  0  0  0  0  0  0  0  0  0  0
   10.8379   12.7711    5.3310 N   0  0  0  0  0  0  0  0  0  0  0  0
  1  2  1  0  0  0  0
  1  6  1  0  0  0  0
  2  3  2  0  0  0  0
  3  4  1  0  0  0  0
  4  5  2  0  0  0  0
  4 10  1  0  0  0  0
  5  6  1  0  0  0  0
  5  8  1  0  0  0  0
  6  7  2  0  0  0  0
  8  9  1  0  0  0  0
  9 10  2  0  0  0  0
M  END
>  <CHROM.1>
11.43716122,11.15054417,6.66956895,0.53441150,-1.28319176,1.15967037

>  <Name>
ligand

>  <RI>
0

>  <Rbt.Current_Directory>
/home/itssahil/PROJECTS/Mol_Feturizer/Test_systems_manuscript/rnas/4fe5

>  <Rbt.Executable>
rbdock ($Id: //depot/dev/client3/rdock/2013.1/src/exe/rbdock.cxx#4 $)

>  <Rbt.Library>
libRbt.so (2013.1, Build901 2013/11/27)

>  <Rbt.Parameter_File>
/export/apps/rDock/src/rDock_2013.1_src/data/scripts/dock_solv.prm

>  <Rbt.Receptor>
prm/blind_docking_20.prm

>  <SCORE>
-17.2089

>  <SCORE.INTER>
-17.2089

>  <SCORE.INTER.CONST>
1

>  <SCORE.INTER.POLAR>
0

>  <SCORE.INTER.ROT>
0

>  <SCORE.INTER.SOLV>
3.57495

>  <SCORE.INTER.VDW>
-16.2643

>  <SCORE.INTER.norm>
-1.72089

>  <SCORE.INTRA>
0

>  <SCORE.INTRA.DIHEDRAL>
0

>  <SCORE.INTRA.DIHEDRAL.0>
0

>  <SCORE.INTRA.POLAR>
0

>  <SCORE.INTRA.POLAR.0>
0

>  <SCORE.INTRA.REPUL>
0

>  <SCORE.INTRA.REPUL.0>
0

>  <SCORE.INTRA.SOLV>
0

>  <SCORE.INTRA.SOLV.lig_0>
-4.28333

>  <SCORE.INTRA.VDW>
0

>  <SCORE.INTRA.VDW.0>
0

>  <SCORE.INTRA.norm>
0

>  <SCORE.RESTR>
0

>  <SCORE.RESTR.CAVITY>
0

>  <SCORE.RESTR.norm>
0

>  <SCORE.SYSTEM>
0

>  <SCORE.SYSTEM.CONST>
0

>  <SCORE.SYSTEM.DIHEDRAL>
0

>  <SCORE.SYSTEM.SOLV>
0

>  <SCORE.SYSTEM.norm>
0

>  <SCORE.heavy>
10

>  <SCORE.norm>
-1.72089

>  <RMSD>
0.633

$$$$
ligand
 OpenBabel02271912143D
libRbt.so/2013.1/901 2013/11/27
 10 11  0  0  0  0  0  0  0  0999 V2000
   11.8235   10.5446    8.4789 N   0  0  0  0  0  0  0  0  0  0  0  0
   11.5022   11.8637    8.6976 C   0  0  0  0  0  0  0  0  0  0  0  0
   11.1600   12.6838    7.7024 N   0  0  0  0  0  0  0  0  0  0  0  0
   11.1656   12.0833    6.4784 C   0  0  0  0  0  0  0  0  0  0  0  0
   11.4788   10.7691    6.1922 C   0  0  0  0  0  0  0  0  0  0  0  0
   11.8430    9.8888    7.2476 C   0  0  0  0  0  0  0  0  0  0  0  0
   12.1547    8.6921    7.2205 O   0  0  0  0  0  0  0  0  0  0  0  0
   11.3605   10.5798    4.8440 N   0  0  0  0  0  0  0  0  0  0  0  0
   10.9768   11.7655    4.3166 C   0  0  0  0  0  0  0  0  0  0  0  0
   10.8481   12.7185    5.3040 N   0  0  0  0  0  0  0  0  0  0  0  0
  1  2  1  0  0  0  0
  1  6  1  0  0  0  0
  2  3  2  0  0  0  0
  3  4  1  0  0  0  0
  4  5  2  0  0  0  0
  4 10  1  0  0  0  0
  5  6  1  0  0  0  0
  5  8  1  0  0  0  0
  6  7  2  0  0  0  0
  8  9  1  0  0  0  0
  9 10  2  0  0  0  0
M  END
>  <CHROM.1>
11.44510998,11.11298578,6.66152020,0.51543223,-1.28576586,1.12829205

>  <Name>
ligand

>  <RI>
0

>  <Rbt.Current_Directory>
/home/itssahil/PROJECTS/Mol_Feturizer/Test_systems_manuscript/rnas/4fe5

>  <Rbt.Executable>
rbdock ($Id: //depot/dev/client3/rdock/2013.1/src/exe/rbdock.cxx#4 $)

>  <Rbt.Library>
libRbt.so (2013.1, Build901 2013/11/27)

>  <Rbt.Parameter_File>
/export/apps/rDock/src/rDock_2013.1_src/data/scripts/dock_solv.prm

>  <Rbt.Receptor>
prm/blind_docking_20.prm

>  <SCORE>
-17.2472

>  <SCORE.INTER>
-17.2472

>  <SCORE.INTER.CONST>
1

>  <SCORE.INTER.POLAR>
0

>  <SCORE.INTER.ROT>
0

>  <SCORE.INTER.SOLV>
3.57924

>  <SCORE.INTER.VDW>
-16.2912

>  <SCORE.INTER.norm>
-1.72472

>  <SCORE.INTRA>
0

>  <SCORE.INTRA.DIHEDRAL>
0

>  <SCORE.INTRA.DIHEDRAL.0>
0

>  <SCORE.INTRA.POLAR>
0

>  <SCORE.INTRA.POLAR.0>
0

>  <SCORE.INTRA.REPUL>
0

>  <SCORE.INTRA.REPUL.0>
0

>  <SCORE.INTRA.SOLV>
0

>  <SCORE.INTRA.SOLV.lig_0>
-4.28333

>  <SCORE.INTRA.VDW>
0

>  <SCORE.INTRA.VDW.0>
0

>  <SCORE.INTRA.norm>
0

>  <SCORE.RESTR>
0

>  <SCORE.RESTR.CAVITY>
0

>  <SCORE.RESTR.norm>
0

>  <SCORE.SYSTEM>
0

>  <SCORE.SYSTEM.CONST>
0

>  <SCORE.SYSTEM.DIHEDRAL>
0

>  <SCORE.SYSTEM.SOLV>
0

>  <SCORE.SYSTEM.norm>
0

>  <SCORE.heavy>
10

>  <SCORE.norm>
-1.72472

>  <RMSD>
0.635

$$$$
ligand
 OpenBabel02271912143D
libRbt.so/2013.1/901 2013/11/27
 10 11  0  0  0  0  0  0  0  0999 V2000
   11.8213   10.5483    8.4791 N   0  0  0  0  0  0  0  0  0  0  0  0
   11.5019   11.8682    8.6959 C   0  0  0  0  0  0  0  0  0  0  0  0
   11.1601   12.6871    7.6995 N   0  0  0  0  0  0  0  0  0  0  0  0
   11.1639   12.0844    6.4765 C   0  0  0  0  0  0  0  0  0  0  0  0
   11.4752   10.7693    6.1923 C   0  0  0  0  0  0  0  0  0  0  0  0
   11.8390    9.8904    7.2490 C   0  0  0  0  0  0  0  0  0  0  0  0
   12.1491    8.6932    7.2237 O   0  0  0  0  0  0  0  0  0  0  0  0
   11.3555   10.5779    4.8445 N   0  0  0  0  0  0  0  0  0  0  0  0
   10.9730   11.7632    4.3154 C   0  0  0  0  0  0  0  0  0  0  0  0
   10.8464   12.7180    5.3012 N   0  0  0  0  0  0  0  0  0  0  0  0
  1  2  1  0  0  0  0
  1  6  1  0  0  0  0
  2  3  2  0  0  0  0
  3  4  1  0  0  0  0
  4  5  2  0  0  0  0
  4 10  1  0  0  0  0
  5  6  1  0  0  0  0
  5  8  1  0  0  0  0
  6  7  2  0  0  0  0
  8  9  1  0  0  0  0
  9 10  2  0  0  0  0
M  END
>  <CHROM.1>
11.44227820,11.11409060,6.66108892,0.51088338,-1.28664332,1.12221357

>  <Name>
ligand

>  <RI>
0

>  <Rbt.Current_Directory>
/home/itssahil/PROJECTS/Mol_Feturizer/Test_systems_manuscript/rnas/4fe5

>  <Rbt.Executable>
rbdock ($Id: //depot/dev/client3/rdock/2013.1/src/exe/rbdock.cxx#4 $)

>  <Rbt.Library>
libRbt.so (2013.1, Build901 2013/11/27)

>  <Rbt.Parameter_File>
/export/apps/rDock/src/rDock_2013.1_src/data/scripts/dock_solv.prm

>  <Rbt.Receptor>
prm/blind_docking_20.prm

>  <SCORE>
-17.2483

>  <SCORE.INTER>
-17.2483

>  <SCORE.INTER.CONST>
1

>  <SCORE.INTER.POLAR>
0

>  <SCORE.INTER.ROT>
0

>  <SCORE.INTER.SOLV>
3.58363

>  <SCORE.INTER.VDW>
-16.2934

>  <SCORE.INTER.norm>
-1.72483

>  <SCORE.INTRA>
0

>  <SCORE.INTRA.DIHEDRAL>
0

>  <SCORE.INTRA.DIHEDRAL.0>
0

>  <SCORE.INTRA.POLAR>
0

>  <SCORE.INTRA.POLAR.0>
0

>  <SCORE.INTRA.REPUL>
0

>  <SCORE.INTRA.REPUL.0>
0

>  <SCORE.INTRA.SOLV>
0

>  <SCORE.INTRA.SOLV.lig_0>
-4.28333

>  <SCORE.INTRA.VDW>
0

>  <SCORE.INTRA.VDW.0>
0

>  <SCORE.INTRA.norm>
0

>  <SCORE.RESTR>
0

>  <SCORE.RESTR.CAVITY>
0

>  <SCORE.RESTR.norm>
0

>  <SCORE.SYSTEM>
0

>  <SCORE.SYSTEM.CONST>
0

>  <SCORE.SYSTEM.DIHEDRAL>
0

>  <SCORE.SYSTEM.SOLV>
0

>  <SCORE.SYSTEM.norm>
0

>  <SCORE.heavy>
10

>  <SCORE.norm>
-1.72483

>  <RMSD>
0.636

$$$$
ligand
 OpenBabel02271912143D
libRbt.so/2013.1/901 2013/11/27
 10 11  0  0  0  0  0  0  0  0999 V2000
   11.7898   10.5826    8.4840 N   0  0  0  0  0  0  0  0  0  0  0  0
   11.4708   11.9016    8.7062 C   0  0  0  0  0  0  0  0  0  0  0  0
   11.1373   12.7268    7.7122 N   0  0  0  0  0  0  0  0  0  0  0  0
   11.1491   12.1314    6.4857 C   0  0  0  0  0  0  0  0  0  0  0  0
   11.4604   10.8175    6.1961 C   0  0  0  0  0  0  0  0  0  0  0  0
   11.8153    9.9318    7.2502 C   0  0  0  0  0  0  0  0  0  0  0  0
   12.1238    8.7343    7.2201 O   0  0  0  0  0  0  0  0  0  0  0  0
   11.3502   10.6341    4.8464 N   0  0  0  0  0  0  0  0  0  0  0  0
   10.9732   11.8231    4.3215 C   0  0  0  0  0  0  0  0  0  0  0  0
   10.8409   12.7723    5.3120 N   0  0  0  0  0  0  0  0  0  0  0  0
  1  2  1  0  0  0  0
  1  6  1  0  0  0  0
  2  3  2  0  0  0  0
  3  4  1  0  0  0  0
  4  5  2  0  0  0  0
  4 10  1  0  0  0  0
  5  6  1  0  0  0  0
  5  8  1  0  0  0  0
  6  7  2  0  0  0  0
  8  9  1  0  0  0  0
  9 10  2  0  0  0  0
M  END
>  <CHROM.1>
11.42466327,11.15952800,6.66663469,0.53195984,-1.29103855,1.14831971

>  <Name>
ligand

>  <RI>
0

>  <Rbt.Current_Directory>
/home/itssahil/PROJECTS/Mol_Feturizer/Test_systems_manuscript/rnas/4fe5

>  <Rbt.Executable>
rbdock ($Id: //depot/dev/client3/rdock/2013.1/src/exe/rbdock.cxx#4 $)

>  <Rbt.Library>
libRbt.so (2013.1, Build901 2013/11/27)

>  <Rbt.Parameter_File>
/export/apps/rDock/src/rDock_2013.1_src/data/scripts/dock_solv.prm

>  <Rbt.Receptor>
prm/blind_docking_20.prm

>  <SCORE>
-17.2249

>  <SCORE.INTER>
-17.2249

>  <SCORE.INTER.CONST>
1

>  <SCORE.INTER.POLAR>
0

>  <SCORE.INTER.ROT>
0

>  <SCORE.INTER.SOLV>
3.60445

>  <SCORE.INTER.VDW>
-16.2847

>  <SCORE.INTER.norm>
-1.72249

>  <SCORE.INTRA>
0

>  <SCORE.INTRA.DIHEDRAL>
0

>  <SCORE.INTRA.DIHEDRAL.0>
0

>  <SCORE.INTRA.POLAR>
0

>  <SCORE.INTRA.POLAR.0>
0

>  <SCORE.INTRA.REPUL>
0

>  <SCORE.INTRA.REPUL.0>
0

>  <SCORE.INTRA.SOLV>
0

>  <SCORE.INTRA.SOLV.lig_0>
-4.28333

>  <SCORE.INTRA.VDW>
0

>  <SCORE.INTRA.VDW.0>
0

>  <SCORE.INTRA.norm>
0

>  <SCORE.RESTR>
0

>  <SCORE.RESTR.CAVITY>
0

>  <SCORE.RESTR.norm>
0

>  <SCORE.SYSTEM>
0

>  <SCORE.SYSTEM.CONST>
0

>  <SCORE.SYSTEM.DIHEDRAL>
0

>  <SCORE.SYSTEM.SOLV>
0

>  <SCORE.SYSTEM.norm>
0

>  <SCORE.heavy>
10

>  <SCORE.norm>
-1.72249

>  <RMSD>
0.639

$$$$
ligand
 OpenBabel02271912143D
libRbt.so/2013.1/901 2013/11/27
 10 11  0  0  0  0  0  0  0  0999 V2000
   11.8106   10.5716    8.4781 N   0  0  0  0  0  0  0  0  0  0  0  0
   11.4981   11.8942    8.6876 C   0  0  0  0  0  0  0  0  0  0  0  0
   11.1569   12.7085    7.6872 N   0  0  0  0  0  0  0  0  0  0  0  0
   11.1541   12.0983    6.4680 C   0  0  0  0  0  0  0  0  0  0  0  0
   11.4583   10.7800    6.1911 C   0  0  0  0  0  0  0  0  0  0  0  0
   11.8213    9.9059    7.2521 C   0  0  0  0  0  0  0  0  0  0  0  0
   12.1257    8.7072    7.2333 O   0  0  0  0  0  0  0  0  0  0  0  0
   11.3335   10.5807    4.8449 N   0  0  0  0  0  0  0  0  0  0  0  0
   10.9549   11.7645    4.3096 C   0  0  0  0  0  0  0  0  0  0  0  0
   10.8359   12.7261    5.2898 N   0  0  0  0  0  0  0  0  0  0  0  0
  1  2  1  0  0  0  0
  1  6  1  0  0  0  0
  2  3  2  0  0  0  0
  3  4  1  0  0  0  0
  4  5  2  0  0  0  0
  4 10  1  0  0  0  0
  5  6  1  0  0  0  0
  5  8  1  0  0  0  0
  6  7  2  0  0  0  0
  8  9  1  0  0  0  0
  9 10  2  0  0  0  0
M  END
>  <CHROM.1>
11.42850709,11.12780252,6.65780370,0.49337328,-1.28947765,1.09917164

>  <Name>
ligand

>  <RI>
0

>  <Rbt.Current_Directory>
/home/itssahil/PROJECTS/Mol_Feturizer/Test_systems_manuscript/rnas/4fe5

>  <Rbt.Executable>
rbdock ($Id: //depot/dev/client3/rdock/2013.1/src/exe/rbdock.cxx#4 $)

>  <Rbt.Library>
libRbt.so (2013.1, Build901 2013/11/27)

>  <Rbt.Parameter_File>
/export/apps/rDock/src/rDock_2013.1_src/data/scripts/dock_solv.prm

>  <Rbt.Receptor>
prm/blind_docking_20.prm

>  <SCORE>
-17.2786

>  <SCORE.INTER>
-17.2786

>  <SCORE.INTER.CONST>
1

>  <SCORE.INTER.POLAR>
0

>  <SCORE.INTER.ROT>
0

>  <SCORE.INTER.SOLV>
3.60098

>  <SCORE.INTER.VDW>
-16.3194

>  <SCORE.INTER.norm>
-1.72786

>  <SCORE.INTRA>
0

>  <SCORE.INTRA.DIHEDRAL>
0

>  <SCORE.INTRA.DIHEDRAL.0>
0

>  <SCORE.INTRA.POLAR>
0

>  <SCORE.INTRA.POLAR.0>
0

>  <SCORE.INTRA.REPUL>
0

>  <SCORE.INTRA.REPUL.0>
0

>  <SCORE.INTRA.SOLV>
0

>  <SCORE.INTRA.SOLV.lig_0>
-4.28333

>  <SCORE.INTRA.VDW>
0

>  <SCORE.INTRA.VDW.0>
0

>  <SCORE.INTRA.norm>
0

>  <SCORE.RESTR>
0

>  <SCORE.RESTR.CAVITY>
0

>  <SCORE.RESTR.norm>
0

>  <SCORE.SYSTEM>
0

>  <SCORE.SYSTEM.CONST>
0

>  <SCORE.SYSTEM.DIHEDRAL>
0

>  <SCORE.SYSTEM.SOLV>
0

>  <SCORE.SYSTEM.norm>
0

>  <SCORE.heavy>
10

>  <SCORE.norm>
-1.72786

>  <RMSD>
0.641

$$$$
ligand
 OpenBabel02271912143D
libRbt.so/2013.1/901 2013/11/27
 10 11  0  0  0  0  0  0  0  0999 V2000
   11.8149   10.5704    8.4740 N   0  0  0  0  0  0  0  0  0  0  0  0
   11.4983   11.8915    8.6874 C   0  0  0  0  0  0  0  0  0  0  0  0
   11.1570   12.7083    7.6892 N   0  0  0  0  0  0  0  0  0  0  0  0
   11.1583   12.1023    6.4678 C   0  0  0  0  0  0  0  0  0  0  0  0
   11.4667   10.7859    6.1870 C   0  0  0  0  0  0  0  0  0  0  0  0
   11.8299    9.9091    7.2456 C   0  0  0  0  0  0  0  0  0  0  0  0
   12.1377    8.7112    7.2233 O   0  0  0  0  0  0  0  0  0  0  0  0
   11.3453   10.5909    4.8398 N   0  0  0  0  0  0  0  0  0  0  0  0
   10.9645   11.7755    4.3079 C   0  0  0  0  0  0  0  0  0  0  0  0
   10.8408   12.7333    5.2912 N   0  0  0  0  0  0  0  0  0  0  0  0
  1  2  1  0  0  0  0
  1  6  1  0  0  0  0
  2  3  2  0  0  0  0
  3  4  1  0  0  0  0
  4  5  2  0  0  0  0
  4 10  1  0  0  0  0
  5  6  1  0  0  0  0
  5  8  1  0  0  0  0
  6  7  2  0  0  0  0
  8  9  1  0  0  0  0
  9 10  2  0  0  0  0
M  END
>  <CHROM.1>
11.43500143,11.13194649,6.65480500,0.50443433,-1.28793308,1.11328608

>  <Name>
ligand

>  <RI>
0

>  <Rbt.Current_Directory>
/home/itssahil/PROJECTS/Mol_Feturizer/Test_systems_manuscript/rnas/4fe5

>  <Rbt.Executable>
rbdock ($Id: //depot/dev/client3/rdock/2013.1/src/exe/rbdock.cxx#4 $)

>  <Rbt.Library>
libRbt.so (2013.1, Build901 2013/11/27)

>  <Rbt.Parameter_File>
/export/apps/rDock/src/rDock_2013.1_src/data/scripts/dock_solv.prm

>  <Rbt.Receptor>
prm/blind_docking_20.prm

>  <SCORE>
-17.2426

>  <SCORE.INTER>
-17.2426

>  <SCORE.INTER.CONST>
1

>  <SCORE.INTER.POLAR>
0

>  <SCORE.INTER.ROT>
0

>  <SCORE.INTER.SOLV>
3.59241

>  <SCORE.INTER.VDW>
-16.2926

>  <SCORE.INTER.norm>
-1.72426

>  <SCORE.INTRA>
0

>  <SCORE.INTRA.DIHEDRAL>
0

>  <SCORE.INTRA.DIHEDRAL.0>
0

>  <SCORE.INTRA.POLAR>
0

>  <SCORE.INTRA.POLAR.0>
0

>  <SCORE.INTRA.REPUL>
0

>  <SCORE.INTRA.REPUL.0>
0

>  <SCORE.INTRA.SOLV>
0

>  <SCORE.INTRA.SOLV.lig_0>
-4.28333

>  <SCORE.INTRA.VDW>
0

>  <SCORE.INTRA.VDW.0>
0

>  <SCORE.INTRA.norm>
0

>  <SCORE.RESTR>
3.62425e-05

>  <SCORE.RESTR.CAVITY>
3.62425e-05

>  <SCORE.RESTR.norm>
3.62425e-06

>  <SCORE.SYSTEM>
0

>  <SCORE.SYSTEM.CONST>
0

>  <SCORE.SYSTEM.DIHEDRAL>
0

>  <SCORE.SYSTEM.SOLV>
0

>  <SCORE.SYSTEM.norm>
0

>  <SCORE.heavy>
10

>  <SCORE.norm>
-1.72426

>  <RMSD>
0.643

$$$$
ligand
 OpenBabel02271912143D
libRbt.so/2013.1/901 2013/11/27
 10 11  0  0  0  0  0  0  0  0999 V2000
   11.8297   10.5594    8.4517 N   0  0  0  0  0  0  0  0  0  0  0  0
   11.5150   11.8822    8.6569 C   0  0  0  0  0  0  0  0  0  0  0  0
   11.1648   12.6907    7.6550 N   0  0  0  0  0  0  0  0  0  0  0  0
   11.1553   12.0745    6.4388 C   0  0  0  0  0  0  0  0  0  0  0  0
   11.4613   10.7558    6.1661 C   0  0  0  0  0  0  0  0  0  0  0  0
   11.8339    9.8878    7.2288 C   0  0  0  0  0  0  0  0  0  0  0  0
   12.1415    8.6898    7.2137 O   0  0  0  0  0  0  0  0  0  0  0  0
   11.3279   10.5496    4.8218 N   0  0  0  0  0  0  0  0  0  0  0  0
   10.9423   11.7298    4.2834 C   0  0  0  0  0  0  0  0  0  0  0  0
   10.8273   12.6958    5.2598 N   0  0  0  0  0  0  0  0  0  0  0  0
  1  2  1  0  0  0  0
  1  6  1  0  0  0  0
  2  3  2  0  0  0  0
  3  4  1  0  0  0  0
  4  5  2  0  0  0  0
  4 10  1  0  0  0  0
  5  6  1  0  0  0  0
  5  8  1  0  0  0  0
  6  7  2  0  0  0  0
  8  9  1  0  0  0  0
  9 10  2  0  0  0  0
M  END
>  <CHROM.1>
11.43367745,11.10574011,6.63132367,0.47632114,-1.28388448,1.07798141

>  <Name>
ligand

>  <RI>
0

>  <Rbt.Current_Directory>
/home/itssahil/PROJECTS/Mol_Feturizer/Test_systems_manuscript/rnas/4fe5

>  <Rbt.Executable>
rbdock ($Id: //depot/dev/client3/rdock/2013.1/src/exe/rbdock.cxx#4 $)

>  <Rbt.Library>
libRbt.so (2013.1, Build901 2013/11/27)

>  <Rbt.Parameter_File>
/export/apps/rDock/src/rDock_2013.1_src/data/scripts/dock_solv.prm

>  <Rbt.Receptor>
prm/blind_docking_20.prm

>  <SCORE>
-17.1707

>  <SCORE.INTER>
-17.1707

>  <SCORE.INTER.CONST>
1

>  <SCORE.INTER.POLAR>
0

>  <SCORE.INTER.ROT>
0

>  <SCORE.INTER.SOLV>
3.58874

>  <SCORE.INTER.VDW>
-16.2434

>  <SCORE.INTER.norm>
-1.71707

>  <SCORE.INTRA>
0

>  <SCORE.INTRA.DIHEDRAL>
0

>  <SCORE.INTRA.DIHEDRAL.0>
0

>  <SCORE.INTRA.POLAR>
0

>  <SCORE.INTRA.POLAR.0>
0

>  <SCORE.INTRA.REPUL>
0

>  <SCORE.INTRA.REPUL.0>
0

>  <SCORE.INTRA.SOLV>
0

>  <SCORE.INTRA.SOLV.lig_0>
-4.28333

>  <SCORE.INTRA.VDW>
0

>  <SCORE.INTRA.VDW.0>
0

>  <SCORE.INTRA.norm>
0

>  <SCORE.RESTR>
0

>  <SCORE.RESTR.CAVITY>
0

>  <SCORE.RESTR.norm>
0

>  <SCORE.SYSTEM>
0

>  <SCORE.SYSTEM.CONST>
0

>  <SCORE.SYSTEM.DIHEDRAL>
0

>  <SCORE.SYSTEM.SOLV>
0

>  <SCORE.SYSTEM.norm>
0

>  <SCORE.heavy>
10

>  <SCORE.norm>
-1.71707

>  <RMSD>
0.661

$$$$
ligand
 OpenBabel02271912143D
libRbt.so/2013.1/901 2013/11/27
 10 11  0  0  0  0  0  0  0  0999 V2000
   11.8319   10.5549    8.4505 N   0  0  0  0  0  0  0  0  0  0  0  0
   11.5231   11.8774    8.6663 C   0  0  0  0  0  0  0  0  0  0  0  0
   11.1643   12.6923    7.6726 N   0  0  0  0  0  0  0  0  0  0  0  0
   11.1400   12.0829    6.4532 C   0  0  0  0  0  0  0  0  0  0  0  0
   11.4393   10.7647    6.1702 C   0  0  0  0  0  0  0  0  0  0  0  0
   11.8209    9.8900    7.2240 C   0  0  0  0  0  0  0  0  0  0  0  0
   12.1250    8.6913    7.1991 O   0  0  0  0  0  0  0  0  0  0  0  0
   11.2908   10.5663    4.8262 N   0  0  0  0  0  0  0  0  0  0  0  0
   10.9027   11.7505    4.2985 C   0  0  0  0  0  0  0  0  0  0  0  0
   10.8010   12.7114    5.2813 N   0  0  0  0  0  0  0  0  0  0  0  0
  1  2  1  0  0  0  0
  1  6  1  0  0  0  0
  2  3  2  0  0  0  0
  3  4  1  0  0  0  0
  4  5  2  0  0  0  0
  4 10  1  0  0  0  0
  5  6  1  0  0  0  0
  5  8  1  0  0  0  0
  6  7  2  0  0  0  0
  8  9  1  0  0  0  0
  9 10  2  0  0  0  0
M  END
>  <CHROM.1>
11.41770654,11.11225698,6.63752632,0.43834809,-1.28103498,1.04701110

>  <Name>
ligand

>  <RI>
0

>  <Rbt.Current_Directory>
/home/itssahil/PROJECTS/Mol_Feturizer/Test_systems_manuscript/rnas/4fe5

>  <Rbt.Executable>
rbdock ($Id: //depot/dev/client3/rdock/2013.1/src/exe/rbdock.cxx#4 $)

>  <Rbt.Library>
libRbt.so (2013.1, Build901 2013/11/27)

>  <Rbt.Parameter_File>
/export/apps/rDock/src/rDock_2013.1_src/data/scripts/dock_solv.prm

>  <Rbt.Receptor>
prm/blind_docking_20.prm

>  <SCORE>
-17.1883

>  <SCORE.INTER>
-17.1883

>  <SCORE.INTER.CONST>
1

>  <SCORE.INTER.POLAR>
0

>  <SCORE.INTER.ROT>
0

>  <SCORE.INTER.SOLV>
3.59539

>  <SCORE.INTER.VDW>
-16.2573

>  <SCORE.INTER.norm>
-1.71883

>  <SCORE.INTRA>
0

>  <SCORE.INTRA.DIHEDRAL>
0

>  <SCORE.INTRA.DIHEDRAL.0>
0

>  <SCORE.INTRA.POLAR>
0

>  <SCORE.INTRA.POLAR.0>
0

>  <SCORE.INTRA.REPUL>
0

>  <SCORE.INTRA.REPUL.0>
0

>  <SCORE.INTRA.SOLV>
0

>  <SCORE.INTRA.SOLV.lig_0>
-4.28333

>  <SCORE.INTRA.VDW>
0

>  <SCORE.INTRA.VDW.0>
0

>  <SCORE.INTRA.norm>
0

>  <SCORE.RESTR>
0

>  <SCORE.RESTR.CAVITY>
0

>  <SCORE.RESTR.norm>
0

>  <SCORE.SYSTEM>
0

>  <SCORE.SYSTEM.CONST>
0

>  <SCORE.SYSTEM.DIHEDRAL>
0

>  <SCORE.SYSTEM.SOLV>
0

>  <SCORE.SYSTEM.norm>
0

>  <SCORE.heavy>
10

>  <SCORE.norm>
-1.71883

>  <RMSD>
0.661

$$$$
ligand
 OpenBabel02271912143D
libRbt.so/2013.1/901 2013/11/27
 10 11  0  0  0  0  0  0  0  0999 V2000
   11.9411   10.2269    8.3299 N   0  0  0  0  0  0  0  0  0  0  0  0
   11.6293   11.5245    8.6613 C   0  0  0  0  0  0  0  0  0  0  0  0
   11.2438   12.4161    7.7466 N   0  0  0  0  0  0  0  0  0  0  0  0
   11.1963   11.9096    6.4816 C   0  0  0  0  0  0  0  0  0  0  0  0
   11.4971   10.6218    6.0838 C   0  0  0  0  0  0  0  0  0  0  0  0
   11.9072    9.6658    7.0530 C   0  0  0  0  0  0  0  0  0  0  0  0
   12.2177    8.4756    6.9223 O   0  0  0  0  0  0  0  0  0  0  0  0
   11.3203   10.5342    4.7316 N   0  0  0  0  0  0  0  0  0  0  0  0
   10.9136   11.7549    4.3123 C   0  0  0  0  0  0  0  0  0  0  0  0
   10.8278   12.6303    5.3734 N   0  0  0  0  0  0  0  0  0  0  0  0
  1  2  1  0  0  0  0
  1  6  1  0  0  0  0
  2  3  2  0  0  0  0
  3  4  1  0  0  0  0
  4  5  2  0  0  0  0
  4 10  1  0  0  0  0
  5  6  1  0  0  0  0
  5  8  1  0  0  0  0
  6  7  2  0  0  0  0
  8  9  1  0  0  0  0
  9 10  2  0  0  0  0
M  END
>  <CHROM.1>
11.48380293,10.92922642,6.57877395,0.38497643,-1.26442197,1.07897932

>  <Name>
ligand

>  <RI>
0

>  <Rbt.Current_Directory>
/home/itssahil/PROJECTS/Mol_Feturizer/Test_systems_manuscript/rnas/4fe5

>  <Rbt.Executable>
rbdock ($Id: //depot/dev/client3/rdock/2013.1/src/exe/rbdock.cxx#4 $)

>  <Rbt.Library>
libRbt.so (2013.1, Build901 2013/11/27)

>  <Rbt.Parameter_File>
/export/apps/rDock/src/rDock_2013.1_src/data/scripts/dock_solv.prm

>  <Rbt.Receptor>
prm/blind_docking_20.prm

>  <SCORE>
-17.1161

>  <SCORE.INTER>
-17.1161

>  <SCORE.INTER.CONST>
1

>  <SCORE.INTER.POLAR>
0

>  <SCORE.INTER.ROT>
0

>  <SCORE.INTER.SOLV>
3.61505

>  <SCORE.INTER.VDW>
-16.2158

>  <SCORE.INTER.norm>
-1.71161

>  <SCORE.INTRA>
0

>  <SCORE.INTRA.DIHEDRAL>
0

>  <SCORE.INTRA.DIHEDRAL.0>
0

>  <SCORE.INTRA.POLAR>
0

>  <SCORE.INTRA.POLAR.0>
0

>  <SCORE.INTRA.REPUL>
0

>  <SCORE.INTRA.REPUL.0>
0

>  <SCORE.INTRA.SOLV>
0

>  <SCORE.INTRA.SOLV.lig_0>
-4.28333

>  <SCORE.INTRA.VDW>
0

>  <SCORE.INTRA.VDW.0>
0

>  <SCORE.INTRA.norm>
0

>  <SCORE.RESTR>
8.09962e-05

>  <SCORE.RESTR.CAVITY>
8.09962e-05

>  <SCORE.RESTR.norm>
8.09962e-06

>  <SCORE.SYSTEM>
0

>  <SCORE.SYSTEM.CONST>
0

>  <SCORE.SYSTEM.DIHEDRAL>
0

>  <SCORE.SYSTEM.SOLV>
0

>  <SCORE.SYSTEM.norm>
0

>  <SCORE.heavy>
10

>  <SCORE.norm>
-1.71161

>  <RMSD>
0.759

$$$$
ligand
 OpenBabel02271912143D
libRbt.so/2013.1/901 2013/11/27
 10 11  0  0  0  0  0  0  0  0999 V2000
   11.9577   10.2581    8.3092 N   0  0  0  0  0  0  0  0  0  0  0  0
   11.6677   11.5646    8.6255 C   0  0  0  0  0  0  0  0  0  0  0  0
   11.2834   12.4483    7.7027 N   0  0  0  0  0  0  0  0  0  0  0  0
   11.2135   11.9244    6.4459 C   0  0  0  0  0  0  0  0  0  0  0  0
   11.4918   10.6270    6.0631 C   0  0  0  0  0  0  0  0  0  0  0  0
   11.9005    9.6794    7.0411 C   0  0  0  0  0  0  0  0  0  0  0  0
   12.1931    8.4833    6.9238 O   0  0  0  0  0  0  0  0  0  0  0  0
   11.2972   10.5226    4.7145 N   0  0  0  0  0  0  0  0  0  0  0  0
   10.9022   11.7427    4.2826 C   0  0  0  0  0  0  0  0  0  0  0  0
   10.8414   12.6343    5.3318 N   0  0  0  0  0  0  0  0  0  0  0  0
  1  2  1  0  0  0  0
  1  6  1  0  0  0  0
  2  3  2  0  0  0  0
  3  4  1  0  0  0  0
  4  5  2  0  0  0  0
  4 10  1  0  0  0  0
  5  6  1  0  0  0  0
  5  8  1  0  0  0  0
  6  7  2  0  0  0  0
  8  9  1  0  0  0  0
  9 10  2  0  0  0  0
M  END
>  <CHROM.1>
11.48868754,10.94165383,6.55371253,0.32673837,-1.27023667,1.00902665

>  <Name>
ligand

>  <RI>
0

>  <Rbt.Current_Directory>
/home/itssahil/PROJECTS/Mol_Feturizer/Test_systems_manuscript/rnas/4fe5

>  <Rbt.Executable>
rbdock ($Id: //depot/dev/client3/rdock/2013.1/src/exe/rbdock.cxx#4 $)

>  <Rbt.Library>
libRbt.so (2013.1, Build901 2013/11/27)

>  <Rbt.Parameter_File>
/export/apps/rDock/src/rDock_2013.1_src/data/scripts/dock_solv.prm

>  <Rbt.Receptor>
prm/blind_docking_20.prm

>  <SCORE>
-17.1363

>  <SCORE.INTER>
-17.1393

>  <SCORE.INTER.CONST>
1

>  <SCORE.INTER.POLAR>
0

>  <SCORE.INTER.ROT>
0

>  <SCORE.INTER.SOLV>
3.64667

>  <SCORE.INTER.VDW>
-16.2418

>  <SCORE.INTER.norm>
-1.71393

>  <SCORE.INTRA>
0

>  <SCORE.INTRA.DIHEDRAL>
0

>  <SCORE.INTRA.DIHEDRAL.0>
0

>  <SCORE.INTRA.POLAR>
0

>  <SCORE.INTRA.POLAR.0>
0

>  <SCORE.INTRA.REPUL>
0

>  <SCORE.INTRA.REPUL.0>
0

>  <SCORE.INTRA.SOLV>
0

>  <SCORE.INTRA.SOLV.lig_0>
-4.28333

>  <SCORE.INTRA.VDW>
0

>  <SCORE.INTRA.VDW.0>
0

>  <SCORE.INTRA.norm>
0

>  <SCORE.RESTR>
0.00299692

>  <SCORE.RESTR.CAVITY>
0.00299692

>  <SCORE.RESTR.norm>
0.000299692

>  <SCORE.SYSTEM>
0

>  <SCORE.SYSTEM.CONST>
0

>  <SCORE.SYSTEM.DIHEDRAL>
0

>  <SCORE.SYSTEM.SOLV>
0

>  <SCORE.SYSTEM.norm>
0

>  <SCORE.heavy>
10

>  <SCORE.norm>
-1.71363

>  <RMSD>
0.774

$$$$
ligand
 OpenBabel02271912143D
libRbt.so/2013.1/901 2013/11/27
 10 11  0  0  0  0  0  0  0  0999 V2000
   11.9022   10.3678    8.3062 N   0  0  0  0  0  0  0  0  0  0  0  0
   11.6264   11.6858    8.5850 C   0  0  0  0  0  0  0  0  0  0  0  0
   11.2677   12.5509    7.6346 N   0  0  0  0  0  0  0  0  0  0  0  0
   11.2080   11.9960    6.3906 C   0  0  0  0  0  0  0  0  0  0  0  0
   11.4731   10.6855    6.0450 C   0  0  0  0  0  0  0  0  0  0  0  0
   11.8545    9.7576    7.0524 C   0  0  0  0  0  0  0  0  0  0  0  0
   12.1317    8.5550    6.9698 O   0  0  0  0  0  0  0  0  0  0  0  0
   11.2961   10.5493    4.6968 N   0  0  0  0  0  0  0  0  0  0  0  0
   10.9246   11.7634    4.2283 C   0  0  0  0  0  0  0  0  0  0  0  0
   10.8618   12.6823    5.2536 N   0  0  0  0  0  0  0  0  0  0  0  0
  1  2  1  0  0  0  0
  1  6  1  0  0  0  0
  2  3  2  0  0  0  0
  3  4  1  0  0  0  0
  4  5  2  0  0  0  0
  4 10  1  0  0  0  0
  5  6  1  0  0  0  0
  5  8  1  0  0  0  0
  6  7  2  0  0  0  0
  8  9  1  0  0  0  0
  9 10  2  0  0  0  0
M  END
>  <CHROM.1>
11.46763997,11.01263331,6.52729752,0.34222704,-1.28976435,0.99837123

>  <Name>
ligand

>  <RI>
0

>  <Rbt.Current_Directory>
/home/itssahil/PROJECTS/Mol_Feturizer/Test_systems_manuscript/rnas/4fe5

>  <Rbt.Executable>
rbdock ($Id: //depot/dev/client3/rdock/2013.1/src/exe/rbdock.cxx#4 $)

>  <Rbt.Library>
libRbt.so (2013.1, Build901 2013/11/27)

>  <Rbt.Parameter_File>
/export/apps/rDock/src/rDock_2013.1_src/data/scripts/dock_solv.prm

>  <Rbt.Receptor>
prm/blind_docking_20.prm

>  <SCORE>
-17.1539

>  <SCORE.INTER>
-17.1539

>  <SCORE.INTER.CONST>
1

>  <SCORE.INTER.POLAR>
0

>  <SCORE.INTER.ROT>
0

>  <SCORE.INTER.SOLV>
3.708

>  <SCORE.INTER.VDW>
-16.272

>  <SCORE.INTER.norm>
-1.71539

>  <SCORE.INTRA>
0

>  <SCORE.INTRA.DIHEDRAL>
0

>  <SCORE.INTRA.DIHEDRAL.0>
0

>  <SCORE.INTRA.POLAR>
0

>  <SCORE.INTRA.POLAR.0>
0

>  <SCORE.INTRA.REPUL>
0

>  <SCORE.INTRA.REPUL.0>
0

>  <SCORE.INTRA.SOLV>
0

>  <SCORE.INTRA.SOLV.lig_0>
-4.28333

>  <SCORE.INTRA.VDW>
0

>  <SCORE.INTRA.VDW.0>
0

>  <SCORE.INTRA.norm>
0

>  <SCORE.RESTR>
0

>  <SCORE.RESTR.CAVITY>
0

>  <SCORE.RESTR.norm>
0

>  <SCORE.SYSTEM>
0

>  <SCORE.SYSTEM.CONST>
0

>  <SCORE.SYSTEM.DIHEDRAL>
0

>  <SCORE.SYSTEM.SOLV>
0

>  <SCORE.SYSTEM.norm>
0

>  <SCORE.heavy>
10

>  <SCORE.norm>
-1.71539

>  <RMSD>
0.779

$$$$
ligand
 OpenBabel02271912143D
libRbt.so/2013.1/901 2013/11/27
 10 11  0  0  0  0  0  0  0  0999 V2000
   11.9223   10.3522    8.2975 N   0  0  0  0  0  0  0  0  0  0  0  0
   11.6455   11.6671    8.5898 C   0  0  0  0  0  0  0  0  0  0  0  0
   11.2819   12.5405    7.6490 N   0  0  0  0  0  0  0  0  0  0  0  0
   11.2185   11.9973    6.4000 C   0  0  0  0  0  0  0  0  0  0  0  0
   11.4845   10.6906    6.0410 C   0  0  0  0  0  0  0  0  0  0  0  0
   11.8710    9.7538    7.0383 C   0  0  0  0  0  0  0  0  0  0  0  0
   12.1498    8.5525    6.9432 O   0  0  0  0  0  0  0  0  0  0  0  0
   11.3027   10.5668    4.6922 N   0  0  0  0  0  0  0  0  0  0  0  0
   10.9276   11.7847    4.2367 C   0  0  0  0  0  0  0  0  0  0  0  0
   10.8670   12.6937    5.2709 N   0  0  0  0  0  0  0  0  0  0  0  0
  1  2  1  0  0  0  0
  1  6  1  0  0  0  0
  2  3  2  0  0  0  0
  3  4  1  0  0  0  0
  4  5  2  0  0  0  0
  4 10  1  0  0  0  0
  5  6  1  0  0  0  0
  5  8  1  0  0  0  0
  6  7  2  0  0  0  0
  8  9  1  0  0  0  0
  9 10  2  0  0  0  0
M  END
>  <CHROM.1>
11.48023032,11.01310187,6.52644479,0.33435009,-1.28642857,1.00027133

>  <Name>
ligand

>  <RI>
0

>  <Rbt.Current_Directory>
/home/itssahil/PROJECTS/Mol_Feturizer/Test_systems_manuscript/rnas/4fe5

>  <Rbt.Executable>
rbdock ($Id: //depot/dev/client3/rdock/2013.1/src/exe/rbdock.cxx#4 $)

>  <Rbt.Library>
libRbt.so (2013.1, Build901 2013/11/27)

>  <Rbt.Parameter_File>
/export/apps/rDock/src/rDock_2013.1_src/data/scripts/dock_solv.prm

>  <Rbt.Receptor>
prm/blind_docking_20.prm

>  <SCORE>
-17.1524

>  <SCORE.INTER>
-17.1524

>  <SCORE.INTER.CONST>
1

>  <SCORE.INTER.POLAR>
0

>  <SCORE.INTER.ROT>
0

>  <SCORE.INTER.SOLV>
3.69369

>  <SCORE.INTER.VDW>
-16.2662

>  <SCORE.INTER.norm>
-1.71524

>  <SCORE.INTRA>
0

>  <SCORE.INTRA.DIHEDRAL>
0

>  <SCORE.INTRA.DIHEDRAL.0>
0

>  <SCORE.INTRA.POLAR>
0

>  <SCORE.INTRA.POLAR.0>
0

>  <SCORE.INTRA.REPUL>
0

>  <SCORE.INTRA.REPUL.0>
0

>  <SCORE.INTRA.SOLV>
0

>  <SCORE.INTRA.SOLV.lig_0>
-4.28333

>  <SCORE.INTRA.VDW>
0

>  <SCORE.INTRA.VDW.0>
0

>  <SCORE.INTRA.norm>
0

>  <SCORE.RESTR>
4.78525e-06

>  <SCORE.RESTR.CAVITY>
4.78525e-06

>  <SCORE.RESTR.norm>
4.78525e-07

>  <SCORE.SYSTEM>
0

>  <SCORE.SYSTEM.CONST>
0

>  <SCORE.SYSTEM.DIHEDRAL>
0

>  <SCORE.SYSTEM.SOLV>
0

>  <SCORE.SYSTEM.norm>
0

>  <SCORE.heavy>
10

>  <SCORE.norm>
-1.71524

>  <RMSD>
0.781

$$$$
ligand
 OpenBabel02271912143D
libRbt.so/2013.1/901 2013/11/27
 10 11  0  0  0  0  0  0  0  0999 V2000
   11.9424   10.3016    8.2941 N   0  0  0  0  0  0  0  0  0  0  0  0
   11.6517   11.6103    8.6003 C   0  0  0  0  0  0  0  0  0  0  0  0
   11.2701   12.4874    7.6700 N   0  0  0  0  0  0  0  0  0  0  0  0
   11.2036   11.9546    6.4168 C   0  0  0  0  0  0  0  0  0  0  0  0
   11.4827   10.6544    6.0442 C   0  0  0  0  0  0  0  0  0  0  0  0
   11.8886    9.7138    7.0300 C   0  0  0  0  0  0  0  0  0  0  0  0
   12.1813    8.5168    6.9221 O   0  0  0  0  0  0  0  0  0  0  0  0
   11.2919   10.5403    4.6958 N   0  0  0  0  0  0  0  0  0  0  0  0
   10.8983   11.7574    4.2540 C   0  0  0  0  0  0  0  0  0  0  0  0
   10.8348   12.6565    5.2967 N   0  0  0  0  0  0  0  0  0  0  0  0
  1  2  1  0  0  0  0
  1  6  1  0  0  0  0
  2  3  2  0  0  0  0
  3  4  1  0  0  0  0
  4  5  2  0  0  0  0
  4 10  1  0  0  0  0
  5  6  1  0  0  0  0
  5  8  1  0  0  0  0
  6  7  2  0  0  0  0
  8  9  1  0  0  0  0
  9 10  2  0  0  0  0
M  END
>  <CHROM.1>
11.47834755,10.97257520,6.53247080,0.33442964,-1.27186205,1.00920258

>  <Name>
ligand

>  <RI>
0

>  <Rbt.Current_Directory>
/home/itssahil/PROJECTS/Mol_Feturizer/Test_systems_manuscript/rnas/4fe5

>  <Rbt.Executable>
rbdock ($Id: //depot/dev/client3/rdock/2013.1/src/exe/rbdock.cxx#4 $)

>  <Rbt.Library>
libRbt.so (2013.1, Build901 2013/11/27)

>  <Rbt.Parameter_File>
/export/apps/rDock/src/rDock_2013.1_src/data/scripts/dock_solv.prm

>  <Rbt.Receptor>
prm/blind_docking_20.prm

>  <SCORE>
-17.171

>  <SCORE.INTER>
-17.171

>  <SCORE.INTER.CONST>
1

>  <SCORE.INTER.POLAR>
0

>  <SCORE.INTER.ROT>
0

>  <SCORE.INTER.SOLV>
3.65474

>  <SCORE.INTER.VDW>
-16.2656

>  <SCORE.INTER.norm>
-1.7171

>  <SCORE.INTRA>
0

>  <SCORE.INTRA.DIHEDRAL>
0

>  <SCORE.INTRA.DIHEDRAL.0>
0

>  <SCORE.INTRA.POLAR>
0

>  <SCORE.INTRA.POLAR.0>
0

>  <SCORE.INTRA.REPUL>
0

>  <SCORE.INTRA.REPUL.0>
0

>  <SCORE.INTRA.SOLV>
0

>  <SCORE.INTRA.SOLV.lig_0>
-4.28333

>  <SCORE.INTRA.VDW>
0

>  <SCORE.INTRA.VDW.0>
0

>  <SCORE.INTRA.norm>
0

>  <SCORE.RESTR>
0

>  <SCORE.RESTR.CAVITY>
0

>  <SCORE.RESTR.norm>
0

>  <SCORE.SYSTEM>
0

>  <SCORE.SYSTEM.CONST>
0

>  <SCORE.SYSTEM.DIHEDRAL>
0

>  <SCORE.SYSTEM.SOLV>
0

>  <SCORE.SYSTEM.norm>
0

>  <SCORE.heavy>
10

>  <SCORE.norm>
-1.7171

>  <RMSD>
0.784

$$$$
ligand
 OpenBabel02271912143D
libRbt.so/2013.1/901 2013/11/27
 10 11  0  0  0  0  0  0  0  0999 V2000
   11.8481   10.5818    8.9245 N   0  0  0  0  0  0  0  0  0  0  0  0
   11.9714    9.4008    8.2310 C   0  0  0  0  0  0  0  0  0  0  0  0
   11.8105    9.3361    6.9080 N   0  0  0  0  0  0  0  0  0  0  0  0
   11.5175   10.5393    6.3377 C   0  0  0  0  0  0  0  0  0  0  0  0
   11.3787   11.7563    6.9755 C   0  0  0  0  0  0  0  0  0  0  0  0
   11.5501   11.8334    8.3848 C   0  0  0  0  0  0  0  0  0  0  0  0
   11.4755   12.8035    9.1486 O   0  0  0  0  0  0  0  0  0  0  0  0
   11.0833   12.7052    6.0376 N   0  0  0  0  0  0  0  0  0  0  0  0
   11.0456   12.0723    4.8420 C   0  0  0  0  0  0  0  0  0  0  0  0
   11.3096   10.7282    4.9944 N   0  0  0  0  0  0  0  0  0  0  0  0
  1  2  1  0  0  0  0
  1  6  1  0  0  0  0
  2  3  2  0  0  0  0
  3  4  1  0  0  0  0
  4  5  2  0  0  0  0
  4 10  1  0  0  0  0
  5  6  1  0  0  0  0
  5  8  1  0  0  0  0
  6  7  2  0  0  0  0
  8  9  1  0  0  0  0
  9 10  2  0  0  0  0
M  END
>  <CHROM.1>
11.49916929,11.20444353,7.11904530,-0.89266986,1.35080945,-2.19460106

>  <Name>
ligand

>  <RI>
0

>  <Rbt.Current_Directory>
/home/itssahil/PROJECTS/Mol_Feturizer/Test_systems_manuscript/rnas/4fe5

>  <Rbt.Executable>
rbdock ($Id: //depot/dev/client3/rdock/2013.1/src/exe/rbdock.cxx#4 $)

>  <Rbt.Library>
libRbt.so (2013.1, Build901 2013/11/27)

>  <Rbt.Parameter_File>
/export/apps/rDock/src/rDock_2013.1_src/data/scripts/dock_solv.prm

>  <Rbt.Receptor>
prm/pocket_docking_3.prm

>  <SCORE>
-17.5289

>  <SCORE.INTER>
-17.5289

>  <SCORE.INTER.CONST>
1

>  <SCORE.INTER.POLAR>
0

>  <SCORE.INTER.ROT>
0

>  <SCORE.INTER.SOLV>
3.95901

>  <SCORE.INTER.VDW>
-16.6056

>  <SCORE.INTER.norm>
-1.75289

>  <SCORE.INTRA>
0

>  <SCORE.INTRA.DIHEDRAL>
0

>  <SCORE.INTRA.DIHEDRAL.0>
0

>  <SCORE.INTRA.POLAR>
0

>  <SCORE.INTRA.POLAR.0>
0

>  <SCORE.INTRA.REPUL>
0

>  <SCORE.INTRA.REPUL.0>
0

>  <SCORE.INTRA.SOLV>
0

>  <SCORE.INTRA.SOLV.lig_0>
-4.28333

>  <SCORE.INTRA.VDW>
0

>  <SCORE.INTRA.VDW.0>
0

>  <SCORE.INTRA.norm>
0

>  <SCORE.RESTR>
0

>  <SCORE.RESTR.CAVITY>
0

>  <SCORE.RESTR.norm>
0

>  <SCORE.SYSTEM>
0

>  <SCORE.SYSTEM.CONST>
0

>  <SCORE.SYSTEM.DIHEDRAL>
0

>  <SCORE.SYSTEM.SOLV>
0

>  <SCORE.SYSTEM.norm>
0

>  <SCORE.heavy>
10

>  <SCORE.norm>
-1.75289

>  <RMSD>
2.413

$$$$
ligand
 OpenBabel02271912143D
libRbt.so/2013.1/901 2013/11/27
 10 11  0  0  0  0  0  0  0  0999 V2000
   11.8400   10.5942    8.9318 N   0  0  0  0  0  0  0  0  0  0  0  0
   11.9747    9.4105    8.2450 C   0  0  0  0  0  0  0  0  0  0  0  0
   11.8231    9.3383    6.9214 N   0  0  0  0  0  0  0  0  0  0  0  0
   11.5270   10.5370    6.3431 C   0  0  0  0  0  0  0  0  0  0  0  0
   11.3770   11.7564    6.9739 C   0  0  0  0  0  0  0  0  0  0  0  0
   11.5385   11.8414    8.3840 C   0  0  0  0  0  0  0  0  0  0  0  0
   11.4532   12.8148    9.1424 O   0  0  0  0  0  0  0  0  0  0  0  0
   11.0824   12.6989    6.0293 N   0  0  0  0  0  0  0  0  0  0  0  0
   11.0563   12.0599    4.8367 C   0  0  0  0  0  0  0  0  0  0  0  0
   11.3270   10.7181    4.9975 N   0  0  0  0  0  0  0  0  0  0  0  0
  1  2  1  0  0  0  0
  1  6  1  0  0  0  0
  2  3  2  0  0  0  0
  3  4  1  0  0  0  0
  4  5  2  0  0  0  0
  4 10  1  0  0  0  0
  5  6  1  0  0  0  0
  5  8  1  0  0  0  0
  6  7  2  0  0  0  0
  8  9  1  0  0  0  0
  9 10  2  0  0  0  0
M  END
>  <CHROM.1>
11.49961351,11.20589167,7.12098960,-0.93277123,1.34987671,-2.16042668

>  <Name>
ligand

>  <RI>
0

>  <Rbt.Current_Directory>
/home/itssahil/PROJECTS/Mol_Feturizer/Test_systems_manuscript/rnas/4fe5

>  <Rbt.Executable>
rbdock ($Id: //depot/dev/client3/rdock/2013.1/src/exe/rbdock.cxx#4 $)

>  <Rbt.Library>
libRbt.so (2013.1, Build901 2013/11/27)

>  <Rbt.Parameter_File>
/export/apps/rDock/src/rDock_2013.1_src/data/scripts/dock_solv.prm

>  <Rbt.Receptor>
prm/blind_docking_60.prm

>  <SCORE>
-17.5379

>  <SCORE.INTER>
-17.5379

>  <SCORE.INTER.CONST>
1

>  <SCORE.INTER.POLAR>
0

>  <SCORE.INTER.ROT>
0

>  <SCORE.INTER.SOLV>
3.96473

>  <SCORE.INTER.VDW>
-16.6135

>  <SCORE.INTER.norm>
-1.75379

>  <SCORE.INTRA>
0

>  <SCORE.INTRA.DIHEDRAL>
0

>  <SCORE.INTRA.DIHEDRAL.0>
0

>  <SCORE.INTRA.POLAR>
0

>  <SCORE.INTRA.POLAR.0>
0

>  <SCORE.INTRA.REPUL>
0

>  <SCORE.INTRA.REPUL.0>
0

>  <SCORE.INTRA.SOLV>
0

>  <SCORE.INTRA.SOLV.lig_0>
-4.28333

>  <SCORE.INTRA.VDW>
0

>  <SCORE.INTRA.VDW.0>
0

>  <SCORE.INTRA.norm>
0

>  <SCORE.RESTR>
0

>  <SCORE.RESTR.CAVITY>
0

>  <SCORE.RESTR.norm>
0

>  <SCORE.SYSTEM>
0

>  <SCORE.SYSTEM.CONST>
0

>  <SCORE.SYSTEM.DIHEDRAL>
0

>  <SCORE.SYSTEM.SOLV>
0

>  <SCORE.SYSTEM.norm>
0

>  <SCORE.heavy>
10

>  <SCORE.norm>
-1.75379

>  <RMSD>
2.414

$$$$
ligand
 OpenBabel02271912143D
libRbt.so/2013.1/901 2013/11/27
 10 11  0  0  0  0  0  0  0  0999 V2000
   11.8584   10.5882    8.9199 N   0  0  0  0  0  0  0  0  0  0  0  0
   11.9889    9.4059    8.2298 C   0  0  0  0  0  0  0  0  0  0  0  0
   11.8306    9.3367    6.9068 N   0  0  0  0  0  0  0  0  0  0  0  0
   11.5322   10.5368    6.3327 C   0  0  0  0  0  0  0  0  0  0  0  0
   11.3862   11.7548    6.9669 C   0  0  0  0  0  0  0  0  0  0  0  0
   11.5549   11.8367    8.3763 C   0  0  0  0  0  0  0  0  0  0  0  0
   11.4740   12.8085    9.1373 O   0  0  0  0  0  0  0  0  0  0  0  0
   11.0874   12.6996    6.0259 N   0  0  0  0  0  0  0  0  0  0  0  0
   11.0549   12.0632    4.8320 C   0  0  0  0  0  0  0  0  0  0  0  0
   11.3256   10.7209    4.9885 N   0  0  0  0  0  0  0  0  0  0  0  0
  1  2  1  0  0  0  0
  1  6  1  0  0  0  0
  2  3  2  0  0  0  0
  3  4  1  0  0  0  0
  4  5  2  0  0  0  0
  4 10  1  0  0  0  0
  5  6  1  0  0  0  0
  5  8  1  0  0  0  0
  6  7  2  0  0  0  0
  8  9  1  0  0  0  0
  9 10  2  0  0  0  0
M  END
>  <CHROM.1>
11.50921556,11.20398207,7.11215972,-0.91228300,1.34751655,-2.17822926

>  <Name>
ligand

>  <RI>
0

>  <Rbt.Current_Directory>
/home/itssahil/PROJECTS/Mol_Feturizer/Test_systems_manuscript/rnas/4fe5

>  <Rbt.Executable>
rbdock ($Id: //depot/dev/client3/rdock/2013.1/src/exe/rbdock.cxx#4 $)

>  <Rbt.Library>
libRbt.so (2013.1, Build901 2013/11/27)

>  <Rbt.Parameter_File>
/export/apps/rDock/src/rDock_2013.1_src/data/scripts/dock_solv.prm

>  <Rbt.Receptor>
prm/pocket_docking_6.prm

>  <SCORE>
-17.5093

>  <SCORE.INTER>
-17.5093

>  <SCORE.INTER.CONST>
1

>  <SCORE.INTER.POLAR>
0

>  <SCORE.INTER.ROT>
0

>  <SCORE.INTER.SOLV>
3.95454

>  <SCORE.INTER.VDW>
-16.5911

>  <SCORE.INTER.norm>
-1.75093

>  <SCORE.INTRA>
0

>  <SCORE.INTRA.DIHEDRAL>
0

>  <SCORE.INTRA.DIHEDRAL.0>
0

>  <SCORE.INTRA.POLAR>
0

>  <SCORE.INTRA.POLAR.0>
0

>  <SCORE.INTRA.REPUL>
0

>  <SCORE.INTRA.REPUL.0>
0

>  <SCORE.INTRA.SOLV>
0

>  <SCORE.INTRA.SOLV.lig_0>
-4.28333

>  <SCORE.INTRA.VDW>
0

>  <SCORE.INTRA.VDW.0>
0

>  <SCORE.INTRA.norm>
0

>  <SCORE.RESTR>
0

>  <SCORE.RESTR.CAVITY>
0

>  <SCORE.RESTR.norm>
0

>  <SCORE.SYSTEM>
0

>  <SCORE.SYSTEM.CONST>
0

>  <SCORE.SYSTEM.DIHEDRAL>
0

>  <SCORE.SYSTEM.SOLV>
0

>  <SCORE.SYSTEM.norm>
0

>  <SCORE.heavy>
10

>  <SCORE.norm>
-1.75093

>  <RMSD>
2.414

$$$$
ligand
 OpenBabel02271912143D
libRbt.so/2013.1/901 2013/11/27
 10 11  0  0  0  0  0  0  0  0999 V2000
   11.8430   10.5942    8.9267 N   0  0  0  0  0  0  0  0  0  0  0  0
   11.9885    9.4125    8.2387 C   0  0  0  0  0  0  0  0  0  0  0  0
   11.8409    9.3409    6.9145 N   0  0  0  0  0  0  0  0  0  0  0  0
   11.5371   10.5381    6.3372 C   0  0  0  0  0  0  0  0  0  0  0  0
   11.3762   11.7554    6.9692 C   0  0  0  0  0  0  0  0  0  0  0  0
   11.5334   11.8397    8.3798 C   0  0  0  0  0  0  0  0  0  0  0  0
   11.4387   12.8115    9.1393 O   0  0  0  0  0  0  0  0  0  0  0  0
   11.0769   12.6970    6.0251 N   0  0  0  0  0  0  0  0  0  0  0  0
   11.0587   12.0594    4.8316 C   0  0  0  0  0  0  0  0  0  0  0  0
   11.3393   10.7195    4.9913 N   0  0  0  0  0  0  0  0  0  0  0  0
  1  2  1  0  0  0  0
  1  6  1  0  0  0  0
  2  3  2  0  0  0  0
  3  4  1  0  0  0  0
  4  5  2  0  0  0  0
  4 10  1  0  0  0  0
  5  6  1  0  0  0  0
  5  8  1  0  0  0  0
  6  7  2  0  0  0  0
  8  9  1  0  0  0  0
  9 10  2  0  0  0  0
M  END
>  <CHROM.1>
11.50263411,11.20569306,7.11584088,-0.96133944,1.34489075,-2.13120943

>  <Name>
ligand

>  <RI>
0

>  <Rbt.Current_Directory>
/home/itssahil/PROJECTS/Mol_Feturizer/Test_systems_manuscript/rnas/4fe5

>  <Rbt.Executable>
rbdock ($Id: //depot/dev/client3/rdock/2013.1/src/exe/rbdock.cxx#4 $)

>  <Rbt.Library>
libRbt.so (2013.1, Build901 2013/11/27)

>  <Rbt.Parameter_File>
/export/apps/rDock/src/rDock_2013.1_src/data/scripts/dock_solv.prm

>  <Rbt.Receptor>
prm/blind_docking_100.prm

>  <SCORE>
-17.5495

>  <SCORE.INTER>
-17.5495

>  <SCORE.INTER.CONST>
1

>  <SCORE.INTER.POLAR>
0

>  <SCORE.INTER.ROT>
0

>  <SCORE.INTER.SOLV>
3.95032

>  <SCORE.INTER.VDW>
-16.6164

>  <SCORE.INTER.norm>
-1.75495

>  <SCORE.INTRA>
0

>  <SCORE.INTRA.DIHEDRAL>
0

>  <SCORE.INTRA.DIHEDRAL.0>
0

>  <SCORE.INTRA.POLAR>
0

>  <SCORE.INTRA.POLAR.0>
0

>  <SCORE.INTRA.REPUL>
0

>  <SCORE.INTRA.REPUL.0>
0

>  <SCORE.INTRA.SOLV>
0

>  <SCORE.INTRA.SOLV.lig_0>
-4.28333

>  <SCORE.INTRA.VDW>
0

>  <SCORE.INTRA.VDW.0>
0

>  <SCORE.INTRA.norm>
0

>  <SCORE.RESTR>
0

>  <SCORE.RESTR.CAVITY>
0

>  <SCORE.RESTR.norm>
0

>  <SCORE.SYSTEM>
0

>  <SCORE.SYSTEM.CONST>
0

>  <SCORE.SYSTEM.DIHEDRAL>
0

>  <SCORE.SYSTEM.SOLV>
0

>  <SCORE.SYSTEM.norm>
0

>  <SCORE.heavy>
10

>  <SCORE.norm>
-1.75495

>  <RMSD>
2.415

$$$$
ligand
 OpenBabel02271912143D
libRbt.so/2013.1/901 2013/11/27
 10 11  0  0  0  0  0  0  0  0999 V2000
   11.8457   10.4792    8.9152 N   0  0  0  0  0  0  0  0  0  0  0  0
   12.0131    9.3229    8.1899 C   0  0  0  0  0  0  0  0  0  0  0  0
   11.8726    9.2922    6.8634 N   0  0  0  0  0  0  0  0  0  0  0  0
   11.5525   10.5026    6.3237 C   0  0  0  0  0  0  0  0  0  0  0  0
   11.3693   11.6960    6.9941 C   0  0  0  0  0  0  0  0  0  0  0  0
   11.5187   11.7368    8.4074 C   0  0  0  0  0  0  0  0  0  0  0  0
   11.4051   12.6817    9.1976 O   0  0  0  0  0  0  0  0  0  0  0  0
   11.0593   12.6629    6.0795 N   0  0  0  0  0  0  0  0  0  0  0  0
   11.0567   12.0643    4.8659 C   0  0  0  0  0  0  0  0  0  0  0  0
   11.3579   10.7245    4.9834 N   0  0  0  0  0  0  0  0  0  0  0  0
  1  2  1  0  0  0  0
  1  6  1  0  0  0  0
  2  3  2  0  0  0  0
  3  4  1  0  0  0  0
  4  5  2  0  0  0  0
  4 10  1  0  0  0  0
  5  6  1  0  0  0  0
  5  8  1  0  0  0  0
  6  7  2  0  0  0  0
  8  9  1  0  0  0  0
  9 10  2  0  0  0  0
M  END
>  <CHROM.1>
11.50381001,11.14384693,7.12345995,-1.01376674,1.33348196,-2.04767328

>  <Name>
ligand

>  <RI>
0

>  <Rbt.Current_Directory>
/home/itssahil/PROJECTS/Mol_Feturizer/Test_systems_manuscript/rnas/4fe5

>  <Rbt.Executable>
rbdock ($Id: //depot/dev/client3/rdock/2013.1/src/exe/rbdock.cxx#4 $)

>  <Rbt.Library>
libRbt.so (2013.1, Build901 2013/11/27)

>  <Rbt.Parameter_File>
/export/apps/rDock/src/rDock_2013.1_src/data/scripts/dock_solv.prm

>  <Rbt.Receptor>
prm/blind_docking_80.prm

>  <SCORE>
-17.4314

>  <SCORE.INTER>
-17.4314

>  <SCORE.INTER.CONST>
1

>  <SCORE.INTER.POLAR>
0

>  <SCORE.INTER.ROT>
0

>  <SCORE.INTER.SOLV>
3.85701

>  <SCORE.INTER.VDW>
-16.5066

>  <SCORE.INTER.norm>
-1.74314

>  <SCORE.INTRA>
0

>  <SCORE.INTRA.DIHEDRAL>
0

>  <SCORE.INTRA.DIHEDRAL.0>
0

>  <SCORE.INTRA.POLAR>
0

>  <SCORE.INTRA.POLAR.0>
0

>  <SCORE.INTRA.REPUL>
0

>  <SCORE.INTRA.REPUL.0>
0

>  <SCORE.INTRA.SOLV>
0

>  <SCORE.INTRA.SOLV.lig_0>
-4.28333

>  <SCORE.INTRA.VDW>
0

>  <SCORE.INTRA.VDW.0>
0

>  <SCORE.INTRA.norm>
0

>  <SCORE.RESTR>
0

>  <SCORE.RESTR.CAVITY>
0

>  <SCORE.RESTR.norm>
0

>  <SCORE.SYSTEM>
0

>  <SCORE.SYSTEM.CONST>
0

>  <SCORE.SYSTEM.DIHEDRAL>
0

>  <SCORE.SYSTEM.SOLV>
0

>  <SCORE.SYSTEM.norm>
0

>  <SCORE.heavy>
10

>  <SCORE.norm>
-1.74314

>  <RMSD>
2.415

$$$$
ligand
 OpenBabel02271912143D
libRbt.so/2013.1/901 2013/11/27
 10 11  0  0  0  0  0  0  0  0999 V2000
   11.8357   10.5787    8.9310 N   0  0  0  0  0  0  0  0  0  0  0  0
   11.9748    9.3971    8.2416 C   0  0  0  0  0  0  0  0  0  0  0  0
   11.8266    9.3279    6.9174 N   0  0  0  0  0  0  0  0  0  0  0  0
   11.5292   10.5274    6.3415 C   0  0  0  0  0  0  0  0  0  0  0  0
   11.3749   11.7447    6.9750 C   0  0  0  0  0  0  0  0  0  0  0  0
   11.5328   11.8266    8.3856 C   0  0  0  0  0  0  0  0  0  0  0  0
   11.4434   12.7979    9.1462 O   0  0  0  0  0  0  0  0  0  0  0  0
   11.0805   12.6890    6.0320 N   0  0  0  0  0  0  0  0  0  0  0  0
   11.0588   12.0529    4.8377 C   0  0  0  0  0  0  0  0  0  0  0  0
   11.3322   10.7113    4.9958 N   0  0  0  0  0  0  0  0  0  0  0  0
  1  2  1  0  0  0  0
  1  6  1  0  0  0  0
  2  3  2  0  0  0  0
  3  4  1  0  0  0  0
  4  5  2  0  0  0  0
  4 10  1  0  0  0  0
  5  6  1  0  0  0  0
  5  8  1  0  0  0  0
  6  7  2  0  0  0  0
  8  9  1  0  0  0  0
  9 10  2  0  0  0  0
M  END
>  <CHROM.1>
11.49841953,11.19419202,7.12093892,-0.94780527,1.34935697,-2.14325265

>  <Name>
ligand

>  <RI>
0

>  <Rbt.Current_Directory>
/home/itssahil/PROJECTS/Mol_Feturizer/Test_systems_manuscript/rnas/4fe5

>  <Rbt.Executable>
rbdock ($Id: //depot/dev/client3/rdock/2013.1/src/exe/rbdock.cxx#4 $)

>  <Rbt.Library>
libRbt.so (2013.1, Build901 2013/11/27)

>  <Rbt.Parameter_File>
/export/apps/rDock/src/rDock_2013.1_src/data/scripts/dock_solv.prm

>  <Rbt.Receptor>
prm/blind_docking_80.prm

>  <SCORE>
-17.5391

>  <SCORE.INTER>
-17.5391

>  <SCORE.INTER.CONST>
1

>  <SCORE.INTER.POLAR>
0

>  <SCORE.INTER.ROT>
0

>  <SCORE.INTER.SOLV>
3.94973

>  <SCORE.INTER.VDW>
-16.6093

>  <SCORE.INTER.norm>
-1.75391

>  <SCORE.INTRA>
0

>  <SCORE.INTRA.DIHEDRAL>
0

>  <SCORE.INTRA.DIHEDRAL.0>
0

>  <SCORE.INTRA.POLAR>
0

>  <SCORE.INTRA.POLAR.0>
0

>  <SCORE.INTRA.REPUL>
0

>  <SCORE.INTRA.REPUL.0>
0

>  <SCORE.INTRA.SOLV>
0

>  <SCORE.INTRA.SOLV.lig_0>
-4.28333

>  <SCORE.INTRA.VDW>
0

>  <SCORE.INTRA.VDW.0>
0

>  <SCORE.INTRA.norm>
0

>  <SCORE.RESTR>
0

>  <SCORE.RESTR.CAVITY>
0

>  <SCORE.RESTR.norm>
0

>  <SCORE.SYSTEM>
0

>  <SCORE.SYSTEM.CONST>
0

>  <SCORE.SYSTEM.DIHEDRAL>
0

>  <SCORE.SYSTEM.SOLV>
0

>  <SCORE.SYSTEM.norm>
0

>  <SCORE.heavy>
10

>  <SCORE.norm>
-1.75391

>  <RMSD>
2.415

$$$$
ligand
 OpenBabel02271912143D
libRbt.so/2013.1/901 2013/11/27
 10 11  0  0  0  0  0  0  0  0999 V2000
   11.8389   10.5903    8.9310 N   0  0  0  0  0  0  0  0  0  0  0  0
   11.9768    9.4071    8.2439 C   0  0  0  0  0  0  0  0  0  0  0  0
   11.8260    9.3350    6.9202 N   0  0  0  0  0  0  0  0  0  0  0  0
   11.5274   10.5332    6.3422 C   0  0  0  0  0  0  0  0  0  0  0  0
   11.3742   11.7519    6.9732 C   0  0  0  0  0  0  0  0  0  0  0  0
   11.5348   11.8370    8.3834 C   0  0  0  0  0  0  0  0  0  0  0  0
   11.4468   12.8100    9.1420 O   0  0  0  0  0  0  0  0  0  0  0  0
   11.0779   12.6941    6.0287 N   0  0  0  0  0  0  0  0  0  0  0  0
   11.0539   12.0553    4.8359 C   0  0  0  0  0  0  0  0  0  0  0  0
   11.3277   10.7141    4.9965 N   0  0  0  0  0  0  0  0  0  0  0  0
  1  2  1  0  0  0  0
  1  6  1  0  0  0  0
  2  3  2  0  0  0  0
  3  4  1  0  0  0  0
  4  5  2  0  0  0  0
  4 10  1  0  0  0  0
  5  6  1  0  0  0  0
  5  8  1  0  0  0  0
  6  7  2  0  0  0  0
  8  9  1  0  0  0  0
  9 10  2  0  0  0  0
M  END
>  <CHROM.1>
11.49805931,11.20172729,7.12018818,-0.94065577,1.34820741,-2.15244498

>  <Name>
ligand

>  <RI>
0

>  <Rbt.Current_Directory>
/home/itssahil/PROJECTS/Mol_Feturizer/Test_systems_manuscript/rnas/4fe5

>  <Rbt.Executable>
rbdock ($Id: //depot/dev/client3/rdock/2013.1/src/exe/rbdock.cxx#4 $)

>  <Rbt.Library>
libRbt.so (2013.1, Build901 2013/11/27)

>  <Rbt.Parameter_File>
/export/apps/rDock/src/rDock_2013.1_src/data/scripts/dock_solv.prm

>  <Rbt.Receptor>
prm/pocket_docking_5.prm

>  <SCORE>
-17.539

>  <SCORE.INTER>
-17.539

>  <SCORE.INTER.CONST>
1

>  <SCORE.INTER.POLAR>
0

>  <SCORE.INTER.ROT>
0

>  <SCORE.INTER.SOLV>
3.95779

>  <SCORE.INTER.VDW>
-16.6119

>  <SCORE.INTER.norm>
-1.7539

>  <SCORE.INTRA>
0

>  <SCORE.INTRA.DIHEDRAL>
0

>  <SCORE.INTRA.DIHEDRAL.0>
0

>  <SCORE.INTRA.POLAR>
0

>  <SCORE.INTRA.POLAR.0>
0

>  <SCORE.INTRA.REPUL>
0

>  <SCORE.INTRA.REPUL.0>
0

>  <SCORE.INTRA.SOLV>
0

>  <SCORE.INTRA.SOLV.lig_0>
-4.28333

>  <SCORE.INTRA.VDW>
0

>  <SCORE.INTRA.VDW.0>
0

>  <SCORE.INTRA.norm>
0

>  <SCORE.RESTR>
0

>  <SCORE.RESTR.CAVITY>
0

>  <SCORE.RESTR.norm>
0

>  <SCORE.SYSTEM>
0

>  <SCORE.SYSTEM.CONST>
0

>  <SCORE.SYSTEM.DIHEDRAL>
0

>  <SCORE.SYSTEM.SOLV>
0

>  <SCORE.SYSTEM.norm>
0

>  <SCORE.heavy>
10

>  <SCORE.norm>
-1.7539

>  <RMSD>
2.415

$$$$
ligand
 OpenBabel02271912143D
libRbt.so/2013.1/901 2013/11/27
 10 11  0  0  0  0  0  0  0  0999 V2000
   11.8565   10.5945    8.9122 N   0  0  0  0  0  0  0  0  0  0  0  0
   11.9974    9.4127    8.2235 C   0  0  0  0  0  0  0  0  0  0  0  0
   11.8414    9.3410    6.9003 N   0  0  0  0  0  0  0  0  0  0  0  0
   11.5346   10.5382    6.3246 C   0  0  0  0  0  0  0  0  0  0  0  0
   11.3780   11.7557    6.9575 C   0  0  0  0  0  0  0  0  0  0  0  0
   11.5440   11.8401    8.3670 C   0  0  0  0  0  0  0  0  0  0  0  0
   11.4544   12.8120    9.1269 O   0  0  0  0  0  0  0  0  0  0  0  0
   11.0732   12.6972    6.0151 N   0  0  0  0  0  0  0  0  0  0  0  0
   11.0474   12.0594    4.8218 C   0  0  0  0  0  0  0  0  0  0  0  0
   11.3284   10.7194    4.9799 N   0  0  0  0  0  0  0  0  0  0  0  0
  1  2  1  0  0  0  0
  1  6  1  0  0  0  0
  2  3  2  0  0  0  0
  3  4  1  0  0  0  0
  4  5  2  0  0  0  0
  4 10  1  0  0  0  0
  5  6  1  0  0  0  0
  5  8  1  0  0  0  0
  6  7  2  0  0  0  0
  8  9  1  0  0  0  0
  9 10  2  0  0  0  0
M  END
>  <CHROM.1>
11.50515556,11.20591820,7.10338903,-0.93729699,1.34183207,-2.15478378

>  <Name>
ligand

>  <RI>
0

>  <Rbt.Current_Directory>
/home/itssahil/PROJECTS/Mol_Feturizer/Test_systems_manuscript/rnas/4fe5

>  <Rbt.Executable>
rbdock ($Id: //depot/dev/client3/rdock/2013.1/src/exe/rbdock.cxx#4 $)

>  <Rbt.Library>
libRbt.so (2013.1, Build901 2013/11/27)

>  <Rbt.Parameter_File>
/export/apps/rDock/src/rDock_2013.1_src/data/scripts/dock_solv.prm

>  <Rbt.Receptor>
prm/pocket_docking_6.prm

>  <SCORE>
-17.5572

>  <SCORE.INTER>
-17.5572

>  <SCORE.INTER.CONST>
1

>  <SCORE.INTER.POLAR>
0

>  <SCORE.INTER.ROT>
0

>  <SCORE.INTER.SOLV>
3.94557

>  <SCORE.INTER.VDW>
-16.62

>  <SCORE.INTER.norm>
-1.75572

>  <SCORE.INTRA>
0

>  <SCORE.INTRA.DIHEDRAL>
0

>  <SCORE.INTRA.DIHEDRAL.0>
0

>  <SCORE.INTRA.POLAR>
0

>  <SCORE.INTRA.POLAR.0>
0

>  <SCORE.INTRA.REPUL>
0

>  <SCORE.INTRA.REPUL.0>
0

>  <SCORE.INTRA.SOLV>
0

>  <SCORE.INTRA.SOLV.lig_0>
-4.28333

>  <SCORE.INTRA.VDW>
0

>  <SCORE.INTRA.VDW.0>
0

>  <SCORE.INTRA.norm>
0

>  <SCORE.RESTR>
0

>  <SCORE.RESTR.CAVITY>
0

>  <SCORE.RESTR.norm>
0

>  <SCORE.SYSTEM>
0

>  <SCORE.SYSTEM.CONST>
0

>  <SCORE.SYSTEM.DIHEDRAL>
0

>  <SCORE.SYSTEM.SOLV>
0

>  <SCORE.SYSTEM.norm>
0

>  <SCORE.heavy>
10

>  <SCORE.norm>
-1.75572

>  <RMSD>
2.415

$$$$
ligand
 OpenBabel02271912143D
libRbt.so/2013.1/901 2013/11/27
 10 11  0  0  0  0  0  0  0  0999 V2000
   11.8342   10.5925    8.9294 N   0  0  0  0  0  0  0  0  0  0  0  0
   11.9669    9.4080    8.2436 C   0  0  0  0  0  0  0  0  0  0  0  0
   11.8166    9.3354    6.9198 N   0  0  0  0  0  0  0  0  0  0  0  0
   11.5240   10.5344    6.3404 C   0  0  0  0  0  0  0  0  0  0  0  0
   11.3762   11.7545    6.9703 C   0  0  0  0  0  0  0  0  0  0  0  0
   11.5363   11.8400    8.3804 C   0  0  0  0  0  0  0  0  0  0  0  0
   11.4524   12.8142    9.1381 O   0  0  0  0  0  0  0  0  0  0  0  0
   11.0850   12.6971    6.0247 N   0  0  0  0  0  0  0  0  0  0  0  0
   11.0587   12.0573    4.8325 C   0  0  0  0  0  0  0  0  0  0  0  0
   11.3261   10.7150    4.9945 N   0  0  0  0  0  0  0  0  0  0  0  0
  1  2  1  0  0  0  0
  1  6  1  0  0  0  0
  2  3  2  0  0  0  0
  3  4  1  0  0  0  0
  4  5  2  0  0  0  0
  4 10  1  0  0  0  0
  5  6  1  0  0  0  0
  5  8  1  0  0  0  0
  6  7  2  0  0  0  0
  8  9  1  0  0  0  0
  9 10  2  0  0  0  0
M  END
>  <CHROM.1>
11.49736438,11.20379931,7.11781075,-0.93112881,1.35248935,-2.16268463

>  <Name>
ligand

>  <RI>
0

>  <Rbt.Current_Directory>
/home/itssahil/PROJECTS/Mol_Feturizer/Test_systems_manuscript/rnas/4fe5

>  <Rbt.Executable>
rbdock ($Id: //depot/dev/client3/rdock/2013.1/src/exe/rbdock.cxx#4 $)

>  <Rbt.Library>
libRbt.so (2013.1, Build901 2013/11/27)

>  <Rbt.Parameter_File>
/export/apps/rDock/src/rDock_2013.1_src/data/scripts/dock_solv.prm

>  <Rbt.Receptor>
prm/pocket_docking_6.prm

>  <SCORE>
-17.5391

>  <SCORE.INTER>
-17.5391

>  <SCORE.INTER.CONST>
1

>  <SCORE.INTER.POLAR>
0

>  <SCORE.INTER.ROT>
0

>  <SCORE.INTER.SOLV>
3.9686

>  <SCORE.INTER.VDW>
-16.6156

>  <SCORE.INTER.norm>
-1.75391

>  <SCORE.INTRA>
0

>  <SCORE.INTRA.DIHEDRAL>
0

>  <SCORE.INTRA.DIHEDRAL.0>
0

>  <SCORE.INTRA.POLAR>
0

>  <SCORE.INTRA.POLAR.0>
0

>  <SCORE.INTRA.REPUL>
0

>  <SCORE.INTRA.REPUL.0>
0

>  <SCORE.INTRA.SOLV>
0

>  <SCORE.INTRA.SOLV.lig_0>
-4.28333

>  <SCORE.INTRA.VDW>
0

>  <SCORE.INTRA.VDW.0>
0

>  <SCORE.INTRA.norm>
0

>  <SCORE.RESTR>
0

>  <SCORE.RESTR.CAVITY>
0

>  <SCORE.RESTR.norm>
0

>  <SCORE.SYSTEM>
0

>  <SCORE.SYSTEM.CONST>
0

>  <SCORE.SYSTEM.DIHEDRAL>
0

>  <SCORE.SYSTEM.SOLV>
0

>  <SCORE.SYSTEM.norm>
0

>  <SCORE.heavy>
10

>  <SCORE.norm>
-1.75391

>  <RMSD>
2.415

$$$$
ligand
 OpenBabel02271912143D
libRbt.so/2013.1/901 2013/11/27
 10 11  0  0  0  0  0  0  0  0999 V2000
   11.7941   10.5508    8.9648 N   0  0  0  0  0  0  0  0  0  0  0  0
   11.9645    9.3855    8.2549 C   0  0  0  0  0  0  0  0  0  0  0  0
   11.8415    9.3405    6.9271 N   0  0  0  0  0  0  0  0  0  0  0  0
   11.5355   10.5465    6.3696 C   0  0  0  0  0  0  0  0  0  0  0  0
   11.3503   11.7484    7.0240 C   0  0  0  0  0  0  0  0  0  0  0  0
   11.4812   11.8045    8.4386 C   0  0  0  0  0  0  0  0  0  0  0  0
   11.3626   12.7588    9.2165 O   0  0  0  0  0  0  0  0  0  0  0  0
   11.0580   12.7067    6.0946 N   0  0  0  0  0  0  0  0  0  0  0  0
   11.0681   12.0944    4.8878 C   0  0  0  0  0  0  0  0  0  0  0  0
   11.3600   10.7543    5.0244 N   0  0  0  0  0  0  0  0  0  0  0  0
  1  2  1  0  0  0  0
  1  6  1  0  0  0  0
  2  3  2  0  0  0  0
  3  4  1  0  0  0  0
  4  5  2  0  0  0  0
  4 10  1  0  0  0  0
  5  6  1  0  0  0  0
  5  8  1  0  0  0  0
  6  7  2  0  0  0  0
  8  9  1  0  0  0  0
  9 10  2  0  0  0  0
M  END
>  <CHROM.1>
11.47990725,11.19705526,7.16133845,-1.05450781,1.34450803,-2.01931023

>  <Name>
ligand

>  <RI>
0

>  <Rbt.Current_Directory>
/home/itssahil/PROJECTS/Mol_Feturizer/Test_systems_manuscript/rnas/4fe5

>  <Rbt.Executable>
rbdock ($Id: //depot/dev/client3/rdock/2013.1/src/exe/rbdock.cxx#4 $)

>  <Rbt.Library>
libRbt.so (2013.1, Build901 2013/11/27)

>  <Rbt.Parameter_File>
/export/apps/rDock/src/rDock_2013.1_src/data/scripts/dock_solv.prm

>  <Rbt.Receptor>
prm/blind_docking_100.prm

>  <SCORE>
-17.3887

>  <SCORE.INTER>
-17.3887

>  <SCORE.INTER.CONST>
1

>  <SCORE.INTER.POLAR>
0

>  <SCORE.INTER.ROT>
0

>  <SCORE.INTER.SOLV>
3.92634

>  <SCORE.INTER.VDW>
-16.5013

>  <SCORE.INTER.norm>
-1.73887

>  <SCORE.INTRA>
0

>  <SCORE.INTRA.DIHEDRAL>
0

>  <SCORE.INTRA.DIHEDRAL.0>
0

>  <SCORE.INTRA.POLAR>
0

>  <SCORE.INTRA.POLAR.0>
0

>  <SCORE.INTRA.REPUL>
0

>  <SCORE.INTRA.REPUL.0>
0

>  <SCORE.INTRA.SOLV>
0

>  <SCORE.INTRA.SOLV.lig_0>
-4.28333

>  <SCORE.INTRA.VDW>
0

>  <SCORE.INTRA.VDW.0>
0

>  <SCORE.INTRA.norm>
0

>  <SCORE.RESTR>
0

>  <SCORE.RESTR.CAVITY>
0

>  <SCORE.RESTR.norm>
0

>  <SCORE.SYSTEM>
0

>  <SCORE.SYSTEM.CONST>
0

>  <SCORE.SYSTEM.DIHEDRAL>
0

>  <SCORE.SYSTEM.SOLV>
0

>  <SCORE.SYSTEM.norm>
0

>  <SCORE.heavy>
10

>  <SCORE.norm>
-1.73887

>  <RMSD>
2.416

$$$$
ligand
 OpenBabel02271912143D
libRbt.so/2013.1/901 2013/11/27
 10 11  0  0  0  0  0  0  0  0999 V2000
   11.8513   10.5971    8.9122 N   0  0  0  0  0  0  0  0  0  0  0  0
   11.9947    9.4150    8.2244 C   0  0  0  0  0  0  0  0  0  0  0  0
   11.8408    9.3423    6.9010 N   0  0  0  0  0  0  0  0  0  0  0  0
   11.5332   10.5388    6.3242 C   0  0  0  0  0  0  0  0  0  0  0  0
   11.3741   11.7564    6.9561 C   0  0  0  0  0  0  0  0  0  0  0  0
   11.5380   11.8419    8.3658 C   0  0  0  0  0  0  0  0  0  0  0  0
   11.4460   12.8141    9.1250 O   0  0  0  0  0  0  0  0  0  0  0  0
   11.0694   12.6969    6.0126 N   0  0  0  0  0  0  0  0  0  0  0  0
   11.0462   12.0584    4.8197 C   0  0  0  0  0  0  0  0  0  0  0  0
   11.3288   10.7189    4.9791 N   0  0  0  0  0  0  0  0  0  0  0  0
  1  2  1  0  0  0  0
  1  6  1  0  0  0  0
  2  3  2  0  0  0  0
  3  4  1  0  0  0  0
  4  5  2  0  0  0  0
  4 10  1  0  0  0  0
  5  6  1  0  0  0  0
  5  8  1  0  0  0  0
  6  7  2  0  0  0  0
  8  9  1  0  0  0  0
  9 10  2  0  0  0  0
M  END
>  <CHROM.1>
11.50177196,11.20688364,7.10249033,-0.94578647,1.34152738,-2.14712680

>  <Name>
ligand

>  <RI>
0

>  <Rbt.Current_Directory>
/home/itssahil/PROJECTS/Mol_Feturizer/Test_systems_manuscript/rnas/4fe5

>  <Rbt.Executable>
rbdock ($Id: //depot/dev/client3/rdock/2013.1/src/exe/rbdock.cxx#4 $)

>  <Rbt.Library>
libRbt.so (2013.1, Build901 2013/11/27)

>  <Rbt.Parameter_File>
/export/apps/rDock/src/rDock_2013.1_src/data/scripts/dock_solv.prm

>  <Rbt.Receptor>
prm/blind_docking_100.prm

>  <SCORE>
-17.5586

>  <SCORE.INTER>
-17.5586

>  <SCORE.INTER.CONST>
1

>  <SCORE.INTER.POLAR>
0

>  <SCORE.INTER.ROT>
0

>  <SCORE.INTER.SOLV>
3.94646

>  <SCORE.INTER.VDW>
-16.6212

>  <SCORE.INTER.norm>
-1.75586

>  <SCORE.INTRA>
0

>  <SCORE.INTRA.DIHEDRAL>
0

>  <SCORE.INTRA.DIHEDRAL.0>
0

>  <SCORE.INTRA.POLAR>
0

>  <SCORE.INTRA.POLAR.0>
0

>  <SCORE.INTRA.REPUL>
0

>  <SCORE.INTRA.REPUL.0>
0

>  <SCORE.INTRA.SOLV>
0

>  <SCORE.INTRA.SOLV.lig_0>
-4.28333

>  <SCORE.INTRA.VDW>
0

>  <SCORE.INTRA.VDW.0>
0

>  <SCORE.INTRA.norm>
0

>  <SCORE.RESTR>
0

>  <SCORE.RESTR.CAVITY>
0

>  <SCORE.RESTR.norm>
0

>  <SCORE.SYSTEM>
0

>  <SCORE.SYSTEM.CONST>
0

>  <SCORE.SYSTEM.DIHEDRAL>
0

>  <SCORE.SYSTEM.SOLV>
0

>  <SCORE.SYSTEM.norm>
0

>  <SCORE.heavy>
10

>  <SCORE.norm>
-1.75586

>  <RMSD>
2.416

$$$$
ligand
 OpenBabel02271912143D
libRbt.so/2013.1/901 2013/11/27
 10 11  0  0  0  0  0  0  0  0999 V2000
   11.8354   10.5762    8.9012 N   0  0  0  0  0  0  0  0  0  0  0  0
   11.9761    9.4003    8.2023 C   0  0  0  0  0  0  0  0  0  0  0  0
   11.8277    9.3415    6.8776 N   0  0  0  0  0  0  0  0  0  0  0  0
   11.5282   10.5451    6.3114 C   0  0  0  0  0  0  0  0  0  0  0  0
   11.3722   11.7572    6.9547 C   0  0  0  0  0  0  0  0  0  0  0  0
   11.5303   11.8280    8.3658 C   0  0  0  0  0  0  0  0  0  0  0  0
   11.4397   12.7930    9.1343 O   0  0  0  0  0  0  0  0  0  0  0  0
   11.0761   12.7085    6.0193 N   0  0  0  0  0  0  0  0  0  0  0  0
   11.0551   12.0820    4.8200 C   0  0  0  0  0  0  0  0  0  0  0  0
   11.3306   10.7396    4.9673 N   0  0  0  0  0  0  0  0  0  0  0  0
  1  2  1  0  0  0  0
  1  6  1  0  0  0  0
  2  3  2  0  0  0  0
  3  4  1  0  0  0  0
  4  5  2  0  0  0  0
  4 10  1  0  0  0  0
  5  6  1  0  0  0  0
  5  8  1  0  0  0  0
  6  7  2  0  0  0  0
  8  9  1  0  0  0  0
  9 10  2  0  0  0  0
M  END
>  <CHROM.1>
11.49662864,11.20565129,7.09616243,-0.95063498,1.34789362,-2.13246735

>  <Name>
ligand

>  <RI>
0

>  <Rbt.Current_Directory>
/home/itssahil/PROJECTS/Mol_Feturizer/Test_systems_manuscript/rnas/4fe5

>  <Rbt.Executable>
rbdock ($Id: //depot/dev/client3/rdock/2013.1/src/exe/rbdock.cxx#4 $)

>  <Rbt.Library>
libRbt.so (2013.1, Build901 2013/11/27)

>  <Rbt.Parameter_File>
/export/apps/rDock/src/rDock_2013.1_src/data/scripts/dock_solv.prm

>  <Rbt.Receptor>
prm/blind_docking_40.prm

>  <SCORE>
-17.4979

>  <SCORE.INTER>
-17.4979

>  <SCORE.INTER.CONST>
1

>  <SCORE.INTER.POLAR>
0

>  <SCORE.INTER.ROT>
0

>  <SCORE.INTER.SOLV>
3.93521

>  <SCORE.INTER.VDW>
-16.577

>  <SCORE.INTER.norm>
-1.74979

>  <SCORE.INTRA>
0

>  <SCORE.INTRA.DIHEDRAL>
0

>  <SCORE.INTRA.DIHEDRAL.0>
0

>  <SCORE.INTRA.POLAR>
0

>  <SCORE.INTRA.POLAR.0>
0

>  <SCORE.INTRA.REPUL>
0

>  <SCORE.INTRA.REPUL.0>
0

>  <SCORE.INTRA.SOLV>
0

>  <SCORE.INTRA.SOLV.lig_0>
-4.28333

>  <SCORE.INTRA.VDW>
0

>  <SCORE.INTRA.VDW.0>
0

>  <SCORE.INTRA.norm>
0

>  <SCORE.RESTR>
0

>  <SCORE.RESTR.CAVITY>
0

>  <SCORE.RESTR.norm>
0

>  <SCORE.SYSTEM>
0

>  <SCORE.SYSTEM.CONST>
0

>  <SCORE.SYSTEM.DIHEDRAL>
0

>  <SCORE.SYSTEM.SOLV>
0

>  <SCORE.SYSTEM.norm>
0

>  <SCORE.heavy>
10

>  <SCORE.norm>
-1.74979

>  <RMSD>
2.416

$$$$
ligand
 OpenBabel02271912143D
libRbt.so/2013.1/901 2013/11/27
 10 11  0  0  0  0  0  0  0  0999 V2000
   11.8179   10.5721    8.9261 N   0  0  0  0  0  0  0  0  0  0  0  0
   11.9558    9.3915    8.2347 C   0  0  0  0  0  0  0  0  0  0  0  0
   11.8118    9.3254    6.9099 N   0  0  0  0  0  0  0  0  0  0  0  0
   11.5199   10.5269    6.3354 C   0  0  0  0  0  0  0  0  0  0  0  0
   11.3671   11.7435    6.9709 C   0  0  0  0  0  0  0  0  0  0  0  0
   11.5205   11.8220    8.3822 C   0  0  0  0  0  0  0  0  0  0  0  0
   11.4314   12.7920    9.1445 O   0  0  0  0  0  0  0  0  0  0  0  0
   11.0787   12.6905    6.0288 N   0  0  0  0  0  0  0  0  0  0  0  0
   11.0591   12.0569    4.8332 C   0  0  0  0  0  0  0  0  0  0  0  0
   11.3279   10.7142    4.9895 N   0  0  0  0  0  0  0  0  0  0  0  0
  1  2  1  0  0  0  0
  1  6  1  0  0  0  0
  2  3  2  0  0  0  0
  3  4  1  0  0  0  0
  4  5  2  0  0  0  0
  4 10  1  0  0  0  0
  5  6  1  0  0  0  0
  5  8  1  0  0  0  0
  6  7  2  0  0  0  0
  8  9  1  0  0  0  0
  9 10  2  0  0  0  0
M  END
>  <CHROM.1>
11.48848573,11.19226024,7.11613349,-0.95346572,1.35365119,-2.13567914

>  <Name>
ligand

>  <RI>
0

>  <Rbt.Current_Directory>
/home/itssahil/PROJECTS/Mol_Feturizer/Test_systems_manuscript/rnas/4fe5

>  <Rbt.Executable>
rbdock ($Id: //depot/dev/client3/rdock/2013.1/src/exe/rbdock.cxx#4 $)

>  <Rbt.Library>
libRbt.so (2013.1, Build901 2013/11/27)

>  <Rbt.Parameter_File>
/export/apps/rDock/src/rDock_2013.1_src/data/scripts/dock_solv.prm

>  <Rbt.Receptor>
prm/blind_docking_60.prm

>  <SCORE>
-17.5411

>  <SCORE.INTER>
-17.5411

>  <SCORE.INTER.CONST>
1

>  <SCORE.INTER.POLAR>
0

>  <SCORE.INTER.ROT>
0

>  <SCORE.INTER.SOLV>
3.95101

>  <SCORE.INTER.VDW>
-16.6111

>  <SCORE.INTER.norm>
-1.75411

>  <SCORE.INTRA>
0

>  <SCORE.INTRA.DIHEDRAL>
0

>  <SCORE.INTRA.DIHEDRAL.0>
0

>  <SCORE.INTRA.POLAR>
0

>  <SCORE.INTRA.POLAR.0>
0

>  <SCORE.INTRA.REPUL>
0

>  <SCORE.INTRA.REPUL.0>
0

>  <SCORE.INTRA.SOLV>
0

>  <SCORE.INTRA.SOLV.lig_0>
-4.28333

>  <SCORE.INTRA.VDW>
0

>  <SCORE.INTRA.VDW.0>
0

>  <SCORE.INTRA.norm>
0

>  <SCORE.RESTR>
0

>  <SCORE.RESTR.CAVITY>
0

>  <SCORE.RESTR.norm>
0

>  <SCORE.SYSTEM>
0

>  <SCORE.SYSTEM.CONST>
0

>  <SCORE.SYSTEM.DIHEDRAL>
0

>  <SCORE.SYSTEM.SOLV>
0

>  <SCORE.SYSTEM.norm>
0

>  <SCORE.heavy>
10

>  <SCORE.norm>
-1.75411

>  <RMSD>
2.416

$$$$
ligand
 OpenBabel02271912143D
libRbt.so/2013.1/901 2013/11/27
 10 11  0  0  0  0  0  0  0  0999 V2000
   11.8446   10.5940    8.9136 N   0  0  0  0  0  0  0  0  0  0  0  0
   11.9930    9.4135    8.2241 C   0  0  0  0  0  0  0  0  0  0  0  0
   11.8425    9.3427    6.9002 N   0  0  0  0  0  0  0  0  0  0  0  0
   11.5331   10.5393    6.3247 C   0  0  0  0  0  0  0  0  0  0  0  0
   11.3691   11.7554    6.9583 C   0  0  0  0  0  0  0  0  0  0  0  0
   11.5292   11.8389    8.3686 C   0  0  0  0  0  0  0  0  0  0  0  0
   11.4327   12.8095    9.1293 O   0  0  0  0  0  0  0  0  0  0  0  0
   11.0642   12.6968    6.0158 N   0  0  0  0  0  0  0  0  0  0  0  0
   11.0457   12.0603    4.8217 C   0  0  0  0  0  0  0  0  0  0  0  0
   11.3315   10.7213    4.9794 N   0  0  0  0  0  0  0  0  0  0  0  0
  1  2  1  0  0  0  0
  1  6  1  0  0  0  0
  2  3  2  0  0  0  0
  3  4  1  0  0  0  0
  4  5  2  0  0  0  0
  4 10  1  0  0  0  0
  5  6  1  0  0  0  0
  5  8  1  0  0  0  0
  6  7  2  0  0  0  0
  8  9  1  0  0  0  0
  9 10  2  0  0  0  0
M  END
>  <CHROM.1>
11.49789488,11.20600478,7.10411019,-0.96148044,1.34055271,-2.13008767

>  <Name>
ligand

>  <RI>
0

>  <Rbt.Current_Directory>
/home/itssahil/PROJECTS/Mol_Feturizer/Test_systems_manuscript/rnas/4fe5

>  <Rbt.Executable>
rbdock ($Id: //depot/dev/client3/rdock/2013.1/src/exe/rbdock.cxx#4 $)

>  <Rbt.Library>
libRbt.so (2013.1, Build901 2013/11/27)

>  <Rbt.Parameter_File>
/export/apps/rDock/src/rDock_2013.1_src/data/scripts/dock_solv.prm

>  <Rbt.Receptor>
prm/pocket_docking_3.prm

>  <SCORE>
-17.5598

>  <SCORE.INTER>
-17.5598

>  <SCORE.INTER.CONST>
1

>  <SCORE.INTER.POLAR>
0

>  <SCORE.INTER.ROT>
0

>  <SCORE.INTER.SOLV>
3.94012

>  <SCORE.INTER.VDW>
-16.6199

>  <SCORE.INTER.norm>
-1.75598

>  <SCORE.INTRA>
0

>  <SCORE.INTRA.DIHEDRAL>
0

>  <SCORE.INTRA.DIHEDRAL.0>
0

>  <SCORE.INTRA.POLAR>
0

>  <SCORE.INTRA.POLAR.0>
0

>  <SCORE.INTRA.REPUL>
0

>  <SCORE.INTRA.REPUL.0>
0

>  <SCORE.INTRA.SOLV>
0

>  <SCORE.INTRA.SOLV.lig_0>
-4.28333

>  <SCORE.INTRA.VDW>
0

>  <SCORE.INTRA.VDW.0>
0

>  <SCORE.INTRA.norm>
0

>  <SCORE.RESTR>
0

>  <SCORE.RESTR.CAVITY>
0

>  <SCORE.RESTR.norm>
0

>  <SCORE.SYSTEM>
0

>  <SCORE.SYSTEM.CONST>
0

>  <SCORE.SYSTEM.DIHEDRAL>
0

>  <SCORE.SYSTEM.SOLV>
0

>  <SCORE.SYSTEM.norm>
0

>  <SCORE.heavy>
10

>  <SCORE.norm>
-1.75598

>  <RMSD>
2.416

$$$$
ligand
 OpenBabel02271912143D
libRbt.so/2013.1/901 2013/11/27
 10 11  0  0  0  0  0  0  0  0999 V2000
   11.8431   10.5839    8.9153 N   0  0  0  0  0  0  0  0  0  0  0  0
   11.9988    9.4107    8.2150 C   0  0  0  0  0  0  0  0  0  0  0  0
   11.8476    9.3509    6.8907 N   0  0  0  0  0  0  0  0  0  0  0  0
   11.5294   10.5506    6.3263 C   0  0  0  0  0  0  0  0  0  0  0  0
   11.3578   11.7597    6.9711 C   0  0  0  0  0  0  0  0  0  0  0  0
   11.5186   11.8315    8.3819 C   0  0  0  0  0  0  0  0  0  0  0  0
   11.4162   12.7945    9.1515 O   0  0  0  0  0  0  0  0  0  0  0  0
   11.0455   12.7075    6.0374 N   0  0  0  0  0  0  0  0  0  0  0  0
   11.0303   12.0817    4.8376 C   0  0  0  0  0  0  0  0  0  0  0  0
   11.3254   10.7433    4.9829 N   0  0  0  0  0  0  0  0  0  0  0  0
  1  2  1  0  0  0  0
  1  6  1  0  0  0  0
  2  3  2  0  0  0  0
  3  4  1  0  0  0  0
  4  5  2  0  0  0  0
  4 10  1  0  0  0  0
  5  6  1  0  0  0  0
  5  8  1  0  0  0  0
  6  7  2  0  0  0  0
  8  9  1  0  0  0  0
  9 10  2  0  0  0  0
M  END
>  <CHROM.1>
11.49046292,11.20990929,7.11178412,-0.97348581,1.33425992,-2.10933765

>  <Name>
ligand

>  <RI>
0

>  <Rbt.Current_Directory>
/home/itssahil/PROJECTS/Mol_Feturizer/Test_systems_manuscript/rnas/4fe5

>  <Rbt.Executable>
rbdock ($Id: //depot/dev/client3/rdock/2013.1/src/exe/rbdock.cxx#4 $)

>  <Rbt.Library>
libRbt.so (2013.1, Build901 2013/11/27)

>  <Rbt.Parameter_File>
/export/apps/rDock/src/rDock_2013.1_src/data/scripts/dock_solv.prm

>  <Rbt.Receptor>
prm/pocket_docking_4.prm

>  <SCORE>
-17.5494

>  <SCORE.INTER>
-17.5494

>  <SCORE.INTER.CONST>
1

>  <SCORE.INTER.POLAR>
0

>  <SCORE.INTER.ROT>
0

>  <SCORE.INTER.SOLV>
3.91598

>  <SCORE.INTER.VDW>
-16.6049

>  <SCORE.INTER.norm>
-1.75494

>  <SCORE.INTRA>
0

>  <SCORE.INTRA.DIHEDRAL>
0

>  <SCORE.INTRA.DIHEDRAL.0>
0

>  <SCORE.INTRA.POLAR>
0

>  <SCORE.INTRA.POLAR.0>
0

>  <SCORE.INTRA.REPUL>
0

>  <SCORE.INTRA.REPUL.0>
0

>  <SCORE.INTRA.SOLV>
0

>  <SCORE.INTRA.SOLV.lig_0>
-4.28333

>  <SCORE.INTRA.VDW>
0

>  <SCORE.INTRA.VDW.0>
0

>  <SCORE.INTRA.norm>
0

>  <SCORE.RESTR>
0

>  <SCORE.RESTR.CAVITY>
0

>  <SCORE.RESTR.norm>
0

>  <SCORE.SYSTEM>
0

>  <SCORE.SYSTEM.CONST>
0

>  <SCORE.SYSTEM.DIHEDRAL>
0

>  <SCORE.SYSTEM.SOLV>
0

>  <SCORE.SYSTEM.norm>
0

>  <SCORE.heavy>
10

>  <SCORE.norm>
-1.75494

>  <RMSD>
2.416

$$$$
ligand
 OpenBabel02271912143D
libRbt.so/2013.1/901 2013/11/27
 10 11  0  0  0  0  0  0  0  0999 V2000
   11.8340   10.5662    8.9086 N   0  0  0  0  0  0  0  0  0  0  0  0
   11.9836    9.3913    8.2099 C   0  0  0  0  0  0  0  0  0  0  0  0
   11.8360    9.3312    6.8852 N   0  0  0  0  0  0  0  0  0  0  0  0
   11.5279   10.5324    6.3187 C   0  0  0  0  0  0  0  0  0  0  0  0
   11.3628   11.7434    6.9617 C   0  0  0  0  0  0  0  0  0  0  0  0
   11.5199   11.8155    8.3729 C   0  0  0  0  0  0  0  0  0  0  0  0
   11.4218   12.7800    9.1412 O   0  0  0  0  0  0  0  0  0  0  0  0
   11.0600   12.6924    6.0261 N   0  0  0  0  0  0  0  0  0  0  0  0
   11.0440   12.0655    4.8269 C   0  0  0  0  0  0  0  0  0  0  0  0
   11.3293   10.7252    4.9745 N   0  0  0  0  0  0  0  0  0  0  0  0
  1  2  1  0  0  0  0
  1  6  1  0  0  0  0
  2  3  2  0  0  0  0
  3  4  1  0  0  0  0
  4  5  2  0  0  0  0
  4 10  1  0  0  0  0
  5  6  1  0  0  0  0
  5  8  1  0  0  0  0
  6  7  2  0  0  0  0
  8  9  1  0  0  0  0
  9 10  2  0  0  0  0
M  END
>  <CHROM.1>
11.49118673,11.19281932,7.10335146,-0.96916941,1.34180070,-2.11455926

>  <Name>
ligand

>  <RI>
0

>  <Rbt.Current_Directory>
/home/itssahil/PROJECTS/Mol_Feturizer/Test_systems_manuscript/rnas/4fe5

>  <Rbt.Executable>
rbdock ($Id: //depot/dev/client3/rdock/2013.1/src/exe/rbdock.cxx#4 $)

>  <Rbt.Library>
libRbt.so (2013.1, Build901 2013/11/27)

>  <Rbt.Parameter_File>
/export/apps/rDock/src/rDock_2013.1_src/data/scripts/dock_solv.prm

>  <Rbt.Receptor>
prm/pocket_docking_8.prm

>  <SCORE>
-17.5272

>  <SCORE.INTER>
-17.5272

>  <SCORE.INTER.CONST>
1

>  <SCORE.INTER.POLAR>
0

>  <SCORE.INTER.ROT>
0

>  <SCORE.INTER.SOLV>
3.91652

>  <SCORE.INTER.VDW>
-16.5903

>  <SCORE.INTER.norm>
-1.75272

>  <SCORE.INTRA>
0

>  <SCORE.INTRA.DIHEDRAL>
0

>  <SCORE.INTRA.DIHEDRAL.0>
0

>  <SCORE.INTRA.POLAR>
0

>  <SCORE.INTRA.POLAR.0>
0

>  <SCORE.INTRA.REPUL>
0

>  <SCORE.INTRA.REPUL.0>
0

>  <SCORE.INTRA.SOLV>
0

>  <SCORE.INTRA.SOLV.lig_0>
-4.28333

>  <SCORE.INTRA.VDW>
0

>  <SCORE.INTRA.VDW.0>
0

>  <SCORE.INTRA.norm>
0

>  <SCORE.RESTR>
0

>  <SCORE.RESTR.CAVITY>
0

>  <SCORE.RESTR.norm>
0

>  <SCORE.SYSTEM>
0

>  <SCORE.SYSTEM.CONST>
0

>  <SCORE.SYSTEM.DIHEDRAL>
0

>  <SCORE.SYSTEM.SOLV>
0

>  <SCORE.SYSTEM.norm>
0

>  <SCORE.heavy>
10

>  <SCORE.norm>
-1.75272

>  <RMSD>
2.416

$$$$
ligand
 OpenBabel02271912143D
libRbt.so/2013.1/901 2013/11/27
 10 11  0  0  0  0  0  0  0  0999 V2000
   11.8394   10.5930    8.9000 N   0  0  0  0  0  0  0  0  0  0  0  0
   11.9907    9.4145    8.2077 C   0  0  0  0  0  0  0  0  0  0  0  0
   11.8454    9.3475    6.8830 N   0  0  0  0  0  0  0  0  0  0  0  0
   11.5379   10.5457    6.3097 C   0  0  0  0  0  0  0  0  0  0  0  0
   11.3712   11.7599    6.9462 C   0  0  0  0  0  0  0  0  0  0  0  0
   11.5258   11.8394    8.3573 C   0  0  0  0  0  0  0  0  0  0  0  0
   11.4261   12.8079    9.1203 O   0  0  0  0  0  0  0  0  0  0  0  0
   11.0697   12.7039    6.0051 N   0  0  0  0  0  0  0  0  0  0  0  0
   11.0560   12.0708    4.8092 C   0  0  0  0  0  0  0  0  0  0  0  0
   11.3415   10.7313    4.9642 N   0  0  0  0  0  0  0  0  0  0  0  0
  1  2  1  0  0  0  0
  1  6  1  0  0  0  0
  2  3  2  0  0  0  0
  3  4  1  0  0  0  0
  4  5  2  0  0  0  0
  4 10  1  0  0  0  0
  5  6  1  0  0  0  0
  5  8  1  0  0  0  0
  6  7  2  0  0  0  0
  8  9  1  0  0  0  0
  9 10  2  0  0  0  0
M  END
>  <CHROM.1>
11.49953574,11.21010420,7.09088933,-0.97656395,1.34239541,-2.11256668

>  <Name>
ligand

>  <RI>
0

>  <Rbt.Current_Directory>
/home/itssahil/PROJECTS/Mol_Feturizer/Test_systems_manuscript/rnas/4fe5

>  <Rbt.Executable>
rbdock ($Id: //depot/dev/client3/rdock/2013.1/src/exe/rbdock.cxx#4 $)

>  <Rbt.Library>
libRbt.so (2013.1, Build901 2013/11/27)

>  <Rbt.Parameter_File>
/export/apps/rDock/src/rDock_2013.1_src/data/scripts/dock_solv.prm

>  <Rbt.Receptor>
prm/blind_docking_100.prm

>  <SCORE>
-17.5391

>  <SCORE.INTER>
-17.5391

>  <SCORE.INTER.CONST>
1

>  <SCORE.INTER.POLAR>
0

>  <SCORE.INTER.ROT>
0

>  <SCORE.INTER.SOLV>
3.93675

>  <SCORE.INTER.VDW>
-16.605

>  <SCORE.INTER.norm>
-1.75391

>  <SCORE.INTRA>
0

>  <SCORE.INTRA.DIHEDRAL>
0

>  <SCORE.INTRA.DIHEDRAL.0>
0

>  <SCORE.INTRA.POLAR>
0

>  <SCORE.INTRA.POLAR.0>
0

>  <SCORE.INTRA.REPUL>
0

>  <SCORE.INTRA.REPUL.0>
0

>  <SCORE.INTRA.SOLV>
0

>  <SCORE.INTRA.SOLV.lig_0>
-4.28333

>  <SCORE.INTRA.VDW>
0

>  <SCORE.INTRA.VDW.0>
0

>  <SCORE.INTRA.norm>
0

>  <SCORE.RESTR>
0

>  <SCORE.RESTR.CAVITY>
0

>  <SCORE.RESTR.norm>
0

>  <SCORE.SYSTEM>
0

>  <SCORE.SYSTEM.CONST>
0

>  <SCORE.SYSTEM.DIHEDRAL>
0

>  <SCORE.SYSTEM.SOLV>
0

>  <SCORE.SYSTEM.norm>
0

>  <SCORE.heavy>
10

>  <SCORE.norm>
-1.75391

>  <RMSD>
2.417

$$$$
ligand
 OpenBabel02271912143D
libRbt.so/2013.1/901 2013/11/27
 10 11  0  0  0  0  0  0  0  0999 V2000
   11.8345   10.5777    8.9115 N   0  0  0  0  0  0  0  0  0  0  0  0
   12.0002    9.4029    8.2162 C   0  0  0  0  0  0  0  0  0  0  0  0
   11.8597    9.3383    6.8910 N   0  0  0  0  0  0  0  0  0  0  0  0
   11.5414   10.5349    6.3202 C   0  0  0  0  0  0  0  0  0  0  0  0
   11.3601   11.7454    6.9597 C   0  0  0  0  0  0  0  0  0  0  0  0
   11.5096   11.8224    8.3715 C   0  0  0  0  0  0  0  0  0  0  0  0
   11.3974   12.7875    9.1371 O   0  0  0  0  0  0  0  0  0  0  0  0
   11.0516   12.6890    6.0206 N   0  0  0  0  0  0  0  0  0  0  0  0
   11.0481   12.0594    4.8227 C   0  0  0  0  0  0  0  0  0  0  0  0
   11.3472   10.7226    4.9747 N   0  0  0  0  0  0  0  0  0  0  0  0
  1  2  1  0  0  0  0
  1  6  1  0  0  0  0
  2  3  2  0  0  0  0
  3  4  1  0  0  0  0
  4  5  2  0  0  0  0
  4 10  1  0  0  0  0
  5  6  1  0  0  0  0
  5  8  1  0  0  0  0
  6  7  2  0  0  0  0
  8  9  1  0  0  0  0
  9 10  2  0  0  0  0
M  END
>  <CHROM.1>
11.49375081,11.19661375,7.10323657,-1.01075321,1.33486212,-2.07632650

>  <Name>
ligand

>  <RI>
0

>  <Rbt.Current_Directory>
/home/itssahil/PROJECTS/Mol_Feturizer/Test_systems_manuscript/rnas/4fe5

>  <Rbt.Executable>
rbdock ($Id: //depot/dev/client3/rdock/2013.1/src/exe/rbdock.cxx#4 $)

>  <Rbt.Library>
libRbt.so (2013.1, Build901 2013/11/27)

>  <Rbt.Parameter_File>
/export/apps/rDock/src/rDock_2013.1_src/data/scripts/dock_solv.prm

>  <Rbt.Receptor>
prm/blind_docking_100.prm

>  <SCORE>
-17.5633

>  <SCORE.INTER>
-17.5633

>  <SCORE.INTER.CONST>
1

>  <SCORE.INTER.POLAR>
0

>  <SCORE.INTER.ROT>
0

>  <SCORE.INTER.SOLV>
3.91473

>  <SCORE.INTER.VDW>
-16.6138

>  <SCORE.INTER.norm>
-1.75633

>  <SCORE.INTRA>
0

>  <SCORE.INTRA.DIHEDRAL>
0

>  <SCORE.INTRA.DIHEDRAL.0>
0

>  <SCORE.INTRA.POLAR>
0

>  <SCORE.INTRA.POLAR.0>
0

>  <SCORE.INTRA.REPUL>
0

>  <SCORE.INTRA.REPUL.0>
0

>  <SCORE.INTRA.SOLV>
0

>  <SCORE.INTRA.SOLV.lig_0>
-4.28333

>  <SCORE.INTRA.VDW>
0

>  <SCORE.INTRA.VDW.0>
0

>  <SCORE.INTRA.norm>
0

>  <SCORE.RESTR>
0

>  <SCORE.RESTR.CAVITY>
0

>  <SCORE.RESTR.norm>
0

>  <SCORE.SYSTEM>
0

>  <SCORE.SYSTEM.CONST>
0

>  <SCORE.SYSTEM.DIHEDRAL>
0

>  <SCORE.SYSTEM.SOLV>
0

>  <SCORE.SYSTEM.norm>
0

>  <SCORE.heavy>
10

>  <SCORE.norm>
-1.75633

>  <RMSD>
2.417

$$$$
ligand
 OpenBabel02271912143D
libRbt.so/2013.1/901 2013/11/27
 10 11  0  0  0  0  0  0  0  0999 V2000
   11.8453   10.5787    8.9100 N   0  0  0  0  0  0  0  0  0  0  0  0
   12.0050    9.4030    8.2149 C   0  0  0  0  0  0  0  0  0  0  0  0
   11.8593    9.3378    6.8902 N   0  0  0  0  0  0  0  0  0  0  0  0
   11.5422   10.5349    6.3199 C   0  0  0  0  0  0  0  0  0  0  0  0
   11.3667   11.7464    6.9592 C   0  0  0  0  0  0  0  0  0  0  0  0
   11.5218   11.8240    8.3703 C   0  0  0  0  0  0  0  0  0  0  0  0
   11.4152   12.7899    9.1356 O   0  0  0  0  0  0  0  0  0  0  0  0
   11.0573   12.6902    6.0205 N   0  0  0  0  0  0  0  0  0  0  0  0
   11.0475   12.0597    4.8231 C   0  0  0  0  0  0  0  0  0  0  0  0
   11.3433   10.7221    4.9749 N   0  0  0  0  0  0  0  0  0  0  0  0
  1  2  1  0  0  0  0
  1  6  1  0  0  0  0
  2  3  2  0  0  0  0
  3  4  1  0  0  0  0
  4  5  2  0  0  0  0
  4 10  1  0  0  0  0
  5  6  1  0  0  0  0
  5  8  1  0  0  0  0
  6  7  2  0  0  0  0
  8  9  1  0  0  0  0
  9 10  2  0  0  0  0
M  END
>  <CHROM.1>
11.49935074,11.19729575,7.10254984,-0.99063398,1.33543533,-2.09661779

>  <Name>
ligand

>  <RI>
0

>  <Rbt.Current_Directory>
/home/itssahil/PROJECTS/Mol_Feturizer/Test_systems_manuscript/rnas/4fe5

>  <Rbt.Executable>
rbdock ($Id: //depot/dev/client3/rdock/2013.1/src/exe/rbdock.cxx#4 $)

>  <Rbt.Library>
libRbt.so (2013.1, Build901 2013/11/27)

>  <Rbt.Parameter_File>
/export/apps/rDock/src/rDock_2013.1_src/data/scripts/dock_solv.prm

>  <Rbt.Receptor>
prm/blind_docking_100.prm

>  <SCORE>
-17.5645

>  <SCORE.INTER>
-17.5645

>  <SCORE.INTER.CONST>
1

>  <SCORE.INTER.POLAR>
0

>  <SCORE.INTER.ROT>
0

>  <SCORE.INTER.SOLV>
3.91433

>  <SCORE.INTER.VDW>
-16.6144

>  <SCORE.INTER.norm>
-1.75645

>  <SCORE.INTRA>
0

>  <SCORE.INTRA.DIHEDRAL>
0

>  <SCORE.INTRA.DIHEDRAL.0>
0

>  <SCORE.INTRA.POLAR>
0

>  <SCORE.INTRA.POLAR.0>
0

>  <SCORE.INTRA.REPUL>
0

>  <SCORE.INTRA.REPUL.0>
0

>  <SCORE.INTRA.SOLV>
0

>  <SCORE.INTRA.SOLV.lig_0>
-4.28333

>  <SCORE.INTRA.VDW>
0

>  <SCORE.INTRA.VDW.0>
0

>  <SCORE.INTRA.norm>
0

>  <SCORE.RESTR>
0

>  <SCORE.RESTR.CAVITY>
0

>  <SCORE.RESTR.norm>
0

>  <SCORE.SYSTEM>
0

>  <SCORE.SYSTEM.CONST>
0

>  <SCORE.SYSTEM.DIHEDRAL>
0

>  <SCORE.SYSTEM.SOLV>
0

>  <SCORE.SYSTEM.norm>
0

>  <SCORE.heavy>
10

>  <SCORE.norm>
-1.75645

>  <RMSD>
2.417

$$$$
ligand
 OpenBabel02271912143D
libRbt.so/2013.1/901 2013/11/27
 10 11  0  0  0  0  0  0  0  0999 V2000
   11.8347   10.5775    8.9102 N   0  0  0  0  0  0  0  0  0  0  0  0
   11.9965    9.4022    8.2149 C   0  0  0  0  0  0  0  0  0  0  0  0
   11.8539    9.3377    6.8898 N   0  0  0  0  0  0  0  0  0  0  0  0
   11.5376   10.5350    6.3194 C   0  0  0  0  0  0  0  0  0  0  0  0
   11.3602   11.7460    6.9589 C   0  0  0  0  0  0  0  0  0  0  0  0
   11.5119   11.8229    8.3705 C   0  0  0  0  0  0  0  0  0  0  0  0
   11.4032   12.7883    9.1361 O   0  0  0  0  0  0  0  0  0  0  0  0
   11.0525   12.6902    6.0201 N   0  0  0  0  0  0  0  0  0  0  0  0
   11.0458   12.0603    4.8223 C   0  0  0  0  0  0  0  0  0  0  0  0
   11.3418   10.7228    4.9741 N   0  0  0  0  0  0  0  0  0  0  0  0
  1  2  1  0  0  0  0
  1  6  1  0  0  0  0
  2  3  2  0  0  0  0
  3  4  1  0  0  0  0
  4  5  2  0  0  0  0
  4 10  1  0  0  0  0
  5  6  1  0  0  0  0
  5  8  1  0  0  0  0
  6  7  2  0  0  0  0
  8  9  1  0  0  0  0
  9 10  2  0  0  0  0
M  END
>  <CHROM.1>
11.49270838,11.19687130,7.10234329,-1.00013850,1.33624117,-2.08682662

>  <Name>
ligand

>  <RI>
0

>  <Rbt.Current_Directory>
/home/itssahil/PROJECTS/Mol_Feturizer/Test_systems_manuscript/rnas/4fe5

>  <Rbt.Executable>
rbdock ($Id: //depot/dev/client3/rdock/2013.1/src/exe/rbdock.cxx#4 $)

>  <Rbt.Library>
libRbt.so (2013.1, Build901 2013/11/27)

>  <Rbt.Parameter_File>
/export/apps/rDock/src/rDock_2013.1_src/data/scripts/dock_solv.prm

>  <Rbt.Receptor>
prm/blind_docking_40.prm

>  <SCORE>
-17.5645

>  <SCORE.INTER>
-17.5645

>  <SCORE.INTER.CONST>
1

>  <SCORE.INTER.POLAR>
0

>  <SCORE.INTER.ROT>
0

>  <SCORE.INTER.SOLV>
3.91692

>  <SCORE.INTER.VDW>
-16.6153

>  <SCORE.INTER.norm>
-1.75645

>  <SCORE.INTRA>
0

>  <SCORE.INTRA.DIHEDRAL>
0

>  <SCORE.INTRA.DIHEDRAL.0>
0

>  <SCORE.INTRA.POLAR>
0

>  <SCORE.INTRA.POLAR.0>
0

>  <SCORE.INTRA.REPUL>
0

>  <SCORE.INTRA.REPUL.0>
0

>  <SCORE.INTRA.SOLV>
0

>  <SCORE.INTRA.SOLV.lig_0>
-4.28333

>  <SCORE.INTRA.VDW>
0

>  <SCORE.INTRA.VDW.0>
0

>  <SCORE.INTRA.norm>
0

>  <SCORE.RESTR>
0

>  <SCORE.RESTR.CAVITY>
0

>  <SCORE.RESTR.norm>
0

>  <SCORE.SYSTEM>
0

>  <SCORE.SYSTEM.CONST>
0

>  <SCORE.SYSTEM.DIHEDRAL>
0

>  <SCORE.SYSTEM.SOLV>
0

>  <SCORE.SYSTEM.norm>
0

>  <SCORE.heavy>
10

>  <SCORE.norm>
-1.75645

>  <RMSD>
2.417

$$$$
ligand
 OpenBabel02271912143D
libRbt.so/2013.1/901 2013/11/27
 10 11  0  0  0  0  0  0  0  0999 V2000
   11.8338   10.5739    8.9103 N   0  0  0  0  0  0  0  0  0  0  0  0
   11.9983    9.3997    8.2138 C   0  0  0  0  0  0  0  0  0  0  0  0
   11.8571    9.3365    6.8885 N   0  0  0  0  0  0  0  0  0  0  0  0
   11.5395   10.5339    6.3191 C   0  0  0  0  0  0  0  0  0  0  0  0
   11.3594   11.7439    6.9599 C   0  0  0  0  0  0  0  0  0  0  0  0
   11.5096   11.8194    8.3717 C   0  0  0  0  0  0  0  0  0  0  0  0
   11.3985   12.7838    9.1382 O   0  0  0  0  0  0  0  0  0  0  0  0
   11.0512   12.6886    6.0217 N   0  0  0  0  0  0  0  0  0  0  0  0
   11.0467   12.0601    4.8233 C   0  0  0  0  0  0  0  0  0  0  0  0
   11.3448   10.7230    4.9738 N   0  0  0  0  0  0  0  0  0  0  0  0
  1  2  1  0  0  0  0
  1  6  1  0  0  0  0
  2  3  2  0  0  0  0
  3  4  1  0  0  0  0
  4  5  2  0  0  0  0
  4 10  1  0  0  0  0
  5  6  1  0  0  0  0
  5  8  1  0  0  0  0
  6  7  2  0  0  0  0
  8  9  1  0  0  0  0
  9 10  2  0  0  0  0
M  END
>  <CHROM.1>
11.49269684,11.19481953,7.10275423,-1.00752601,1.33531112,-2.07848999

>  <Name>
ligand

>  <RI>
0

>  <Rbt.Current_Directory>
/home/itssahil/PROJECTS/Mol_Feturizer/Test_systems_manuscript/rnas/4fe5

>  <Rbt.Executable>
rbdock ($Id: //depot/dev/client3/rdock/2013.1/src/exe/rbdock.cxx#4 $)

>  <Rbt.Library>
libRbt.so (2013.1, Build901 2013/11/27)

>  <Rbt.Parameter_File>
/export/apps/rDock/src/rDock_2013.1_src/data/scripts/dock_solv.prm

>  <Rbt.Receptor>
prm/blind_docking_40.prm

>  <SCORE>
-17.5643

>  <SCORE.INTER>
-17.5643

>  <SCORE.INTER.CONST>
1

>  <SCORE.INTER.POLAR>
0

>  <SCORE.INTER.ROT>
0

>  <SCORE.INTER.SOLV>
3.91198

>  <SCORE.INTER.VDW>
-16.6135

>  <SCORE.INTER.norm>
-1.75643

>  <SCORE.INTRA>
0

>  <SCORE.INTRA.DIHEDRAL>
0

>  <SCORE.INTRA.DIHEDRAL.0>
0

>  <SCORE.INTRA.POLAR>
0

>  <SCORE.INTRA.POLAR.0>
0

>  <SCORE.INTRA.REPUL>
0

>  <SCORE.INTRA.REPUL.0>
0

>  <SCORE.INTRA.SOLV>
0

>  <SCORE.INTRA.SOLV.lig_0>
-4.28333

>  <SCORE.INTRA.VDW>
0

>  <SCORE.INTRA.VDW.0>
0

>  <SCORE.INTRA.norm>
0

>  <SCORE.RESTR>
0

>  <SCORE.RESTR.CAVITY>
0

>  <SCORE.RESTR.norm>
0

>  <SCORE.SYSTEM>
0

>  <SCORE.SYSTEM.CONST>
0

>  <SCORE.SYSTEM.DIHEDRAL>
0

>  <SCORE.SYSTEM.SOLV>
0

>  <SCORE.SYSTEM.norm>
0

>  <SCORE.heavy>
10

>  <SCORE.norm>
-1.75643

>  <RMSD>
2.417

$$$$
ligand
 OpenBabel02271912143D
libRbt.so/2013.1/901 2013/11/27
 10 11  0  0  0  0  0  0  0  0999 V2000
   11.8425   10.5908    8.9126 N   0  0  0  0  0  0  0  0  0  0  0  0
   11.9969    9.4110    8.2232 C   0  0  0  0  0  0  0  0  0  0  0  0
   11.8506    9.3400    6.8989 N   0  0  0  0  0  0  0  0  0  0  0  0
   11.5386   10.5357    6.3228 C   0  0  0  0  0  0  0  0  0  0  0  0
   11.3686   11.7510    6.9562 C   0  0  0  0  0  0  0  0  0  0  0  0
   11.5243   11.8348    8.3670 C   0  0  0  0  0  0  0  0  0  0  0  0
   11.4222   12.8049    9.1276 O   0  0  0  0  0  0  0  0  0  0  0  0
   11.0631   12.6916    6.0130 N   0  0  0  0  0  0  0  0  0  0  0  0
   11.0502   12.0553    4.8188 C   0  0  0  0  0  0  0  0  0  0  0  0
   11.3403   10.7172    4.9770 N   0  0  0  0  0  0  0  0  0  0  0  0
  1  2  1  0  0  0  0
  1  6  1  0  0  0  0
  2  3  2  0  0  0  0
  3  4  1  0  0  0  0
  4  5  2  0  0  0  0
  4 10  1  0  0  0  0
  5  6  1  0  0  0  0
  5  8  1  0  0  0  0
  6  7  2  0  0  0  0
  8  9  1  0  0  0  0
  9 10  2  0  0  0  0
M  END
>  <CHROM.1>
11.49885680,11.20206499,7.10226663,-0.98017510,1.33909083,-2.11165917

>  <Name>
ligand

>  <RI>
0

>  <Rbt.Current_Directory>
/home/itssahil/PROJECTS/Mol_Feturizer/Test_systems_manuscript/rnas/4fe5

>  <Rbt.Executable>
rbdock ($Id: //depot/dev/client3/rdock/2013.1/src/exe/rbdock.cxx#4 $)

>  <Rbt.Library>
libRbt.so (2013.1, Build901 2013/11/27)

>  <Rbt.Parameter_File>
/export/apps/rDock/src/rDock_2013.1_src/data/scripts/dock_solv.prm

>  <Rbt.Receptor>
prm/blind_docking_60.prm

>  <SCORE>
-17.5635

>  <SCORE.INTER>
-17.5635

>  <SCORE.INTER.CONST>
1

>  <SCORE.INTER.POLAR>
0

>  <SCORE.INTER.ROT>
0

>  <SCORE.INTER.SOLV>
3.93332

>  <SCORE.INTER.VDW>
-16.6201

>  <SCORE.INTER.norm>
-1.75635

>  <SCORE.INTRA>
0

>  <SCORE.INTRA.DIHEDRAL>
0

>  <SCORE.INTRA.DIHEDRAL.0>
0

>  <SCORE.INTRA.POLAR>
0

>  <SCORE.INTRA.POLAR.0>
0

>  <SCORE.INTRA.REPUL>
0

>  <SCORE.INTRA.REPUL.0>
0

>  <SCORE.INTRA.SOLV>
0

>  <SCORE.INTRA.SOLV.lig_0>
-4.28333

>  <SCORE.INTRA.VDW>
0

>  <SCORE.INTRA.VDW.0>
0

>  <SCORE.INTRA.norm>
0

>  <SCORE.RESTR>
0

>  <SCORE.RESTR.CAVITY>
0

>  <SCORE.RESTR.norm>
0

>  <SCORE.SYSTEM>
0

>  <SCORE.SYSTEM.CONST>
0

>  <SCORE.SYSTEM.DIHEDRAL>
0

>  <SCORE.SYSTEM.SOLV>
0

>  <SCORE.SYSTEM.norm>
0

>  <SCORE.heavy>
10

>  <SCORE.norm>
-1.75635

>  <RMSD>
2.417

$$$$
ligand
 OpenBabel02271912143D
libRbt.so/2013.1/901 2013/11/27
 10 11  0  0  0  0  0  0  0  0999 V2000
   11.8384   10.5822    8.9067 N   0  0  0  0  0  0  0  0  0  0  0  0
   11.9979    9.4055    8.2133 C   0  0  0  0  0  0  0  0  0  0  0  0
   11.8528    9.3386    6.8887 N   0  0  0  0  0  0  0  0  0  0  0  0
   11.5366   10.5351    6.3165 C   0  0  0  0  0  0  0  0  0  0  0  0
   11.3614   11.7475    6.9542 C   0  0  0  0  0  0  0  0  0  0  0  0
   11.5158   11.8269    8.3653 C   0  0  0  0  0  0  0  0  0  0  0  0
   11.4093   12.7939    9.1293 O   0  0  0  0  0  0  0  0  0  0  0  0
   11.0530   12.6902    6.0141 N   0  0  0  0  0  0  0  0  0  0  0  0
   11.0435   12.0582    4.8175 C   0  0  0  0  0  0  0  0  0  0  0  0
   11.3386   10.7207    4.9712 N   0  0  0  0  0  0  0  0  0  0  0  0
  1  2  1  0  0  0  0
  1  6  1  0  0  0  0
  2  3  2  0  0  0  0
  3  4  1  0  0  0  0
  4  5  2  0  0  0  0
  4 10  1  0  0  0  0
  5  6  1  0  0  0  0
  5  8  1  0  0  0  0
  6  7  2  0  0  0  0
  8  9  1  0  0  0  0
  9 10  2  0  0  0  0
M  END
>  <CHROM.1>
11.49369974,11.19855429,7.09833740,-0.99151268,1.33613997,-2.09707835

>  <Name>
ligand

>  <RI>
0

>  <Rbt.Current_Directory>
/home/itssahil/PROJECTS/Mol_Feturizer/Test_systems_manuscript/rnas/4fe5

>  <Rbt.Executable>
rbdock ($Id: //depot/dev/client3/rdock/2013.1/src/exe/rbdock.cxx#4 $)

>  <Rbt.Library>
libRbt.so (2013.1, Build901 2013/11/27)

>  <Rbt.Parameter_File>
/export/apps/rDock/src/rDock_2013.1_src/data/scripts/dock_solv.prm

>  <Rbt.Receptor>
prm/blind_docking_60.prm

>  <SCORE>
-17.5665

>  <SCORE.INTER>
-17.5665

>  <SCORE.INTER.CONST>
1

>  <SCORE.INTER.POLAR>
0

>  <SCORE.INTER.ROT>
0

>  <SCORE.INTER.SOLV>
3.921

>  <SCORE.INTER.VDW>
-16.618

>  <SCORE.INTER.norm>
-1.75665

>  <SCORE.INTRA>
0

>  <SCORE.INTRA.DIHEDRAL>
0

>  <SCORE.INTRA.DIHEDRAL.0>
0

>  <SCORE.INTRA.POLAR>
0

>  <SCORE.INTRA.POLAR.0>
0

>  <SCORE.INTRA.REPUL>
0

>  <SCORE.INTRA.REPUL.0>
0

>  <SCORE.INTRA.SOLV>
0

>  <SCORE.INTRA.SOLV.lig_0>
-4.28333

>  <SCORE.INTRA.VDW>
0

>  <SCORE.INTRA.VDW.0>
0

>  <SCORE.INTRA.norm>
0

>  <SCORE.RESTR>
0

>  <SCORE.RESTR.CAVITY>
0

>  <SCORE.RESTR.norm>
0

>  <SCORE.SYSTEM>
0

>  <SCORE.SYSTEM.CONST>
0

>  <SCORE.SYSTEM.DIHEDRAL>
0

>  <SCORE.SYSTEM.SOLV>
0

>  <SCORE.SYSTEM.norm>
0

>  <SCORE.heavy>
10

>  <SCORE.norm>
-1.75665

>  <RMSD>
2.417

$$$$
ligand
 OpenBabel02271912143D
libRbt.so/2013.1/901 2013/11/27
 10 11  0  0  0  0  0  0  0  0999 V2000
   11.8473   10.5878    8.9094 N   0  0  0  0  0  0  0  0  0  0  0  0
   12.0048    9.4100    8.2173 C   0  0  0  0  0  0  0  0  0  0  0  0
   11.8572    9.3414    6.8930 N   0  0  0  0  0  0  0  0  0  0  0  0
   11.5407   10.5373    6.3198 C   0  0  0  0  0  0  0  0  0  0  0  0
   11.3675   11.7507    6.9560 C   0  0  0  0  0  0  0  0  0  0  0  0
   11.5245   11.8319    8.3667 C   0  0  0  0  0  0  0  0  0  0  0  0
   11.4202   12.8001    9.1295 O   0  0  0  0  0  0  0  0  0  0  0  0
   11.0579   12.6922    6.0152 N   0  0  0  0  0  0  0  0  0  0  0  0
   11.0458   12.0585    4.8195 C   0  0  0  0  0  0  0  0  0  0  0  0
   11.3403   10.7210    4.9746 N   0  0  0  0  0  0  0  0  0  0  0  0
  1  2  1  0  0  0  0
  1  6  1  0  0  0  0
  2  3  2  0  0  0  0
  3  4  1  0  0  0  0
  4  5  2  0  0  0  0
  4 10  1  0  0  0  0
  5  6  1  0  0  0  0
  5  8  1  0  0  0  0
  6  7  2  0  0  0  0
  8  9  1  0  0  0  0
  9 10  2  0  0  0  0
M  END
>  <CHROM.1>
11.49970518,11.20182409,7.10071918,-0.98318403,1.33575300,-2.10660060

>  <Name>
ligand

>  <RI>
0

>  <Rbt.Current_Directory>
/home/itssahil/PROJECTS/Mol_Feturizer/Test_systems_manuscript/rnas/4fe5

>  <Rbt.Executable>
rbdock ($Id: //depot/dev/client3/rdock/2013.1/src/exe/rbdock.cxx#4 $)

>  <Rbt.Library>
libRbt.so (2013.1, Build901 2013/11/27)

>  <Rbt.Parameter_File>
/export/apps/rDock/src/rDock_2013.1_src/data/scripts/dock_solv.prm

>  <Rbt.Receptor>
prm/blind_docking_60.prm

>  <SCORE>
-17.5643

>  <SCORE.INTER>
-17.5643

>  <SCORE.INTER.CONST>
1

>  <SCORE.INTER.POLAR>
0

>  <SCORE.INTER.ROT>
0

>  <SCORE.INTER.SOLV>
3.92342

>  <SCORE.INTER.VDW>
-16.6174

>  <SCORE.INTER.norm>
-1.75643

>  <SCORE.INTRA>
0

>  <SCORE.INTRA.DIHEDRAL>
0

>  <SCORE.INTRA.DIHEDRAL.0>
0

>  <SCORE.INTRA.POLAR>
0

>  <SCORE.INTRA.POLAR.0>
0

>  <SCORE.INTRA.REPUL>
0

>  <SCORE.INTRA.REPUL.0>
0

>  <SCORE.INTRA.SOLV>
0

>  <SCORE.INTRA.SOLV.lig_0>
-4.28333

>  <SCORE.INTRA.VDW>
0

>  <SCORE.INTRA.VDW.0>
0

>  <SCORE.INTRA.norm>
0

>  <SCORE.RESTR>
0

>  <SCORE.RESTR.CAVITY>
0

>  <SCORE.RESTR.norm>
0

>  <SCORE.SYSTEM>
0

>  <SCORE.SYSTEM.CONST>
0

>  <SCORE.SYSTEM.DIHEDRAL>
0

>  <SCORE.SYSTEM.SOLV>
0

>  <SCORE.SYSTEM.norm>
0

>  <SCORE.heavy>
10

>  <SCORE.norm>
-1.75643

>  <RMSD>
2.417

$$$$
ligand
 OpenBabel02271912143D
libRbt.so/2013.1/901 2013/11/27
 10 11  0  0  0  0  0  0  0  0999 V2000
   11.8392   10.5884    8.9063 N   0  0  0  0  0  0  0  0  0  0  0  0
   11.9994    9.4110    8.2141 C   0  0  0  0  0  0  0  0  0  0  0  0
   11.8535    9.3426    6.8896 N   0  0  0  0  0  0  0  0  0  0  0  0
   11.5357   10.5381    6.3164 C   0  0  0  0  0  0  0  0  0  0  0  0
   11.3597   11.7511    6.9527 C   0  0  0  0  0  0  0  0  0  0  0  0
   11.5150   11.8321    8.3637 C   0  0  0  0  0  0  0  0  0  0  0  0
   11.4081   12.7999    9.1267 O   0  0  0  0  0  0  0  0  0  0  0  0
   11.0498   12.6924    6.0118 N   0  0  0  0  0  0  0  0  0  0  0  0
   11.0401   12.0590    4.8160 C   0  0  0  0  0  0  0  0  0  0  0  0
   11.3366   10.7220    4.9710 N   0  0  0  0  0  0  0  0  0  0  0  0
  1  2  1  0  0  0  0
  1  6  1  0  0  0  0
  2  3  2  0  0  0  0
  3  4  1  0  0  0  0
  4  5  2  0  0  0  0
  4 10  1  0  0  0  0
  5  6  1  0  0  0  0
  5  8  1  0  0  0  0
  6  7  2  0  0  0  0
  8  9  1  0  0  0  0
  9 10  2  0  0  0  0
M  END
>  <CHROM.1>
11.49270479,11.20237638,7.09744747,-0.99111021,1.33494413,-2.09859054

>  <Name>
ligand

>  <RI>
0

>  <Rbt.Current_Directory>
/home/itssahil/PROJECTS/Mol_Feturizer/Test_systems_manuscript/rnas/4fe5

>  <Rbt.Executable>
rbdock ($Id: //depot/dev/client3/rdock/2013.1/src/exe/rbdock.cxx#4 $)

>  <Rbt.Library>
libRbt.so (2013.1, Build901 2013/11/27)

>  <Rbt.Parameter_File>
/export/apps/rDock/src/rDock_2013.1_src/data/scripts/dock_solv.prm

>  <Rbt.Receptor>
prm/blind_docking_80.prm

>  <SCORE>
-17.565

>  <SCORE.INTER>
-17.565

>  <SCORE.INTER.CONST>
1

>  <SCORE.INTER.POLAR>
0

>  <SCORE.INTER.ROT>
0

>  <SCORE.INTER.SOLV>
3.92475

>  <SCORE.INTER.VDW>
-16.6182

>  <SCORE.INTER.norm>
-1.7565

>  <SCORE.INTRA>
0

>  <SCORE.INTRA.DIHEDRAL>
0

>  <SCORE.INTRA.DIHEDRAL.0>
0

>  <SCORE.INTRA.POLAR>
0

>  <SCORE.INTRA.POLAR.0>
0

>  <SCORE.INTRA.REPUL>
0

>  <SCORE.INTRA.REPUL.0>
0

>  <SCORE.INTRA.SOLV>
0

>  <SCORE.INTRA.SOLV.lig_0>
-4.28333

>  <SCORE.INTRA.VDW>
0

>  <SCORE.INTRA.VDW.0>
0

>  <SCORE.INTRA.norm>
0

>  <SCORE.RESTR>
0

>  <SCORE.RESTR.CAVITY>
0

>  <SCORE.RESTR.norm>
0

>  <SCORE.SYSTEM>
0

>  <SCORE.SYSTEM.CONST>
0

>  <SCORE.SYSTEM.DIHEDRAL>
0

>  <SCORE.SYSTEM.SOLV>
0

>  <SCORE.SYSTEM.norm>
0

>  <SCORE.heavy>
10

>  <SCORE.norm>
-1.7565

>  <RMSD>
2.417

$$$$
ligand
 OpenBabel02271912143D
libRbt.so/2013.1/901 2013/11/27
 10 11  0  0  0  0  0  0  0  0999 V2000
   11.8414   10.5861    8.9140 N   0  0  0  0  0  0  0  0  0  0  0  0
   12.0016    9.4087    8.2218 C   0  0  0  0  0  0  0  0  0  0  0  0
   11.8578    9.3406    6.8971 N   0  0  0  0  0  0  0  0  0  0  0  0
   11.5422   10.5366    6.3235 C   0  0  0  0  0  0  0  0  0  0  0  0
   11.3664   11.7496    6.9598 C   0  0  0  0  0  0  0  0  0  0  0  0
   11.5193   11.8303    8.3710 C   0  0  0  0  0  0  0  0  0  0  0  0
   11.4121   12.7980    9.1340 O   0  0  0  0  0  0  0  0  0  0  0  0
   11.0589   12.6914    6.0185 N   0  0  0  0  0  0  0  0  0  0  0  0
   11.0506   12.0582    4.8226 C   0  0  0  0  0  0  0  0  0  0  0  0
   11.3455   10.7208    4.9779 N   0  0  0  0  0  0  0  0  0  0  0  0
  1  2  1  0  0  0  0
  1  6  1  0  0  0  0
  2  3  2  0  0  0  0
  3  4  1  0  0  0  0
  4  5  2  0  0  0  0
  4 10  1  0  0  0  0
  5  6  1  0  0  0  0
  5  8  1  0  0  0  0
  6  7  2  0  0  0  0
  8  9  1  0  0  0  0
  9 10  2  0  0  0  0
M  END
>  <CHROM.1>
11.49852139,11.20075279,7.10463607,-0.99522192,1.33665058,-2.09443136

>  <Name>
ligand

>  <RI>
0

>  <Rbt.Current_Directory>
/home/itssahil/PROJECTS/Mol_Feturizer/Test_systems_manuscript/rnas/4fe5

>  <Rbt.Executable>
rbdock ($Id: //depot/dev/client3/rdock/2013.1/src/exe/rbdock.cxx#4 $)

>  <Rbt.Library>
libRbt.so (2013.1, Build901 2013/11/27)

>  <Rbt.Parameter_File>
/export/apps/rDock/src/rDock_2013.1_src/data/scripts/dock_solv.prm

>  <Rbt.Receptor>
prm/blind_docking_80.prm

>  <SCORE>
-17.5621

>  <SCORE.INTER>
-17.5621

>  <SCORE.INTER.CONST>
1

>  <SCORE.INTER.POLAR>
0

>  <SCORE.INTER.ROT>
0

>  <SCORE.INTER.SOLV>
3.92432

>  <SCORE.INTER.VDW>
-16.6162

>  <SCORE.INTER.norm>
-1.75621

>  <SCORE.INTRA>
0

>  <SCORE.INTRA.DIHEDRAL>
0

>  <SCORE.INTRA.DIHEDRAL.0>
0

>  <SCORE.INTRA.POLAR>
0

>  <SCORE.INTRA.POLAR.0>
0

>  <SCORE.INTRA.REPUL>
0

>  <SCORE.INTRA.REPUL.0>
0

>  <SCORE.INTRA.SOLV>
0

>  <SCORE.INTRA.SOLV.lig_0>
-4.28333

>  <SCORE.INTRA.VDW>
0

>  <SCORE.INTRA.VDW.0>
0

>  <SCORE.INTRA.norm>
0

>  <SCORE.RESTR>
0

>  <SCORE.RESTR.CAVITY>
0

>  <SCORE.RESTR.norm>
0

>  <SCORE.SYSTEM>
0

>  <SCORE.SYSTEM.CONST>
0

>  <SCORE.SYSTEM.DIHEDRAL>
0

>  <SCORE.SYSTEM.SOLV>
0

>  <SCORE.SYSTEM.norm>
0

>  <SCORE.heavy>
10

>  <SCORE.norm>
-1.75621

>  <RMSD>
2.417

$$$$
ligand
 OpenBabel02271912143D
libRbt.so/2013.1/901 2013/11/27
 10 11  0  0  0  0  0  0  0  0999 V2000
   11.8429   10.5826    8.9099 N   0  0  0  0  0  0  0  0  0  0  0  0
   12.0037    9.4060    8.2165 C   0  0  0  0  0  0  0  0  0  0  0  0
   11.8591    9.3392    6.8918 N   0  0  0  0  0  0  0  0  0  0  0  0
   11.5420   10.5354    6.3197 C   0  0  0  0  0  0  0  0  0  0  0  0
   11.3654   11.7476    6.9573 C   0  0  0  0  0  0  0  0  0  0  0  0
   11.5193   11.8270    8.3685 C   0  0  0  0  0  0  0  0  0  0  0  0
   11.4117   12.7938    9.1325 O   0  0  0  0  0  0  0  0  0  0  0  0
   11.0564   12.6901    6.0172 N   0  0  0  0  0  0  0  0  0  0  0  0
   11.0479   12.0581    4.8206 C   0  0  0  0  0  0  0  0  0  0  0  0
   11.3442   10.7209    4.9743 N   0  0  0  0  0  0  0  0  0  0  0  0
  1  2  1  0  0  0  0
  1  6  1  0  0  0  0
  2  3  2  0  0  0  0
  3  4  1  0  0  0  0
  4  5  2  0  0  0  0
  4 10  1  0  0  0  0
  5  6  1  0  0  0  0
  5  8  1  0  0  0  0
  6  7  2  0  0  0  0
  8  9  1  0  0  0  0
  9 10  2  0  0  0  0
M  END
>  <CHROM.1>
11.49822233,11.19873397,7.10147349,-0.99468884,1.33548450,-2.09392027

>  <Name>
ligand

>  <RI>
0

>  <Rbt.Current_Directory>
/home/itssahil/PROJECTS/Mol_Feturizer/Test_systems_manuscript/rnas/4fe5

>  <Rbt.Executable>
rbdock ($Id: //depot/dev/client3/rdock/2013.1/src/exe/rbdock.cxx#4 $)

>  <Rbt.Library>
libRbt.so (2013.1, Build901 2013/11/27)

>  <Rbt.Parameter_File>
/export/apps/rDock/src/rDock_2013.1_src/data/scripts/dock_solv.prm

>  <Rbt.Receptor>
prm/pocket_docking_3.prm

>  <SCORE>
-17.5646

>  <SCORE.INTER>
-17.5646

>  <SCORE.INTER.CONST>
1

>  <SCORE.INTER.POLAR>
0

>  <SCORE.INTER.ROT>
0

>  <SCORE.INTER.SOLV>
3.9188

>  <SCORE.INTER.VDW>
-16.616

>  <SCORE.INTER.norm>
-1.75646

>  <SCORE.INTRA>
0

>  <SCORE.INTRA.DIHEDRAL>
0

>  <SCORE.INTRA.DIHEDRAL.0>
0

>  <SCORE.INTRA.POLAR>
0

>  <SCORE.INTRA.POLAR.0>
0

>  <SCORE.INTRA.REPUL>
0

>  <SCORE.INTRA.REPUL.0>
0

>  <SCORE.INTRA.SOLV>
0

>  <SCORE.INTRA.SOLV.lig_0>
-4.28333

>  <SCORE.INTRA.VDW>
0

>  <SCORE.INTRA.VDW.0>
0

>  <SCORE.INTRA.norm>
0

>  <SCORE.RESTR>
0

>  <SCORE.RESTR.CAVITY>
0

>  <SCORE.RESTR.norm>
0

>  <SCORE.SYSTEM>
0

>  <SCORE.SYSTEM.CONST>
0

>  <SCORE.SYSTEM.DIHEDRAL>
0

>  <SCORE.SYSTEM.SOLV>
0

>  <SCORE.SYSTEM.norm>
0

>  <SCORE.heavy>
10

>  <SCORE.norm>
-1.75646

>  <RMSD>
2.417

$$$$
ligand
 OpenBabel02271912143D
libRbt.so/2013.1/901 2013/11/27
 10 11  0  0  0  0  0  0  0  0999 V2000
   11.8392   10.5865    8.9007 N   0  0  0  0  0  0  0  0  0  0  0  0
   11.9888    9.4106    8.2037 C   0  0  0  0  0  0  0  0  0  0  0  0
   11.8449    9.3494    6.8786 N   0  0  0  0  0  0  0  0  0  0  0  0
   11.5406   10.5507    6.3100 C   0  0  0  0  0  0  0  0  0  0  0  0
   11.3758   11.7625    6.9513 C   0  0  0  0  0  0  0  0  0  0  0  0
   11.5289   11.8359    8.3629 C   0  0  0  0  0  0  0  0  0  0  0  0
   11.4304   12.8013    9.1299 O   0  0  0  0  0  0  0  0  0  0  0  0
   11.0774   12.7111    6.0139 N   0  0  0  0  0  0  0  0  0  0  0  0
   11.0637   12.0831    4.8153 C   0  0  0  0  0  0  0  0  0  0  0  0
   11.3462   10.7424    4.9650 N   0  0  0  0  0  0  0  0  0  0  0  0
  1  2  1  0  0  0  0
  1  6  1  0  0  0  0
  2  3  2  0  0  0  0
  3  4  1  0  0  0  0
  4  5  2  0  0  0  0
  4 10  1  0  0  0  0
  5  6  1  0  0  0  0
  5  8  1  0  0  0  0
  6  7  2  0  0  0  0
  8  9  1  0  0  0  0
  9 10  2  0  0  0  0
M  END
>  <CHROM.1>
11.50277782,11.21190763,7.09389391,-0.97607029,1.34481298,-2.10885319

>  <Name>
ligand

>  <RI>
0

>  <Rbt.Current_Directory>
/home/itssahil/PROJECTS/Mol_Feturizer/Test_systems_manuscript/rnas/4fe5

>  <Rbt.Executable>
rbdock ($Id: //depot/dev/client3/rdock/2013.1/src/exe/rbdock.cxx#4 $)

>  <Rbt.Library>
libRbt.so (2013.1, Build901 2013/11/27)

>  <Rbt.Parameter_File>
/export/apps/rDock/src/rDock_2013.1_src/data/scripts/dock_solv.prm

>  <Rbt.Receptor>
prm/pocket_docking_3.prm

>  <SCORE>
-17.5385

>  <SCORE.INTER>
-17.5385

>  <SCORE.INTER.CONST>
1

>  <SCORE.INTER.POLAR>
0

>  <SCORE.INTER.ROT>
0

>  <SCORE.INTER.SOLV>
3.93498

>  <SCORE.INTER.VDW>
-16.604

>  <SCORE.INTER.norm>
-1.75385

>  <SCORE.INTRA>
0

>  <SCORE.INTRA.DIHEDRAL>
0

>  <SCORE.INTRA.DIHEDRAL.0>
0

>  <SCORE.INTRA.POLAR>
0

>  <SCORE.INTRA.POLAR.0>
0

>  <SCORE.INTRA.REPUL>
0

>  <SCORE.INTRA.REPUL.0>
0

>  <SCORE.INTRA.SOLV>
0

>  <SCORE.INTRA.SOLV.lig_0>
-4.28333

>  <SCORE.INTRA.VDW>
0

>  <SCORE.INTRA.VDW.0>
0

>  <SCORE.INTRA.norm>
0

>  <SCORE.RESTR>
0

>  <SCORE.RESTR.CAVITY>
0

>  <SCORE.RESTR.norm>
0

>  <SCORE.SYSTEM>
0

>  <SCORE.SYSTEM.CONST>
0

>  <SCORE.SYSTEM.DIHEDRAL>
0

>  <SCORE.SYSTEM.SOLV>
0

>  <SCORE.SYSTEM.norm>
0

>  <SCORE.heavy>
10

>  <SCORE.norm>
-1.75385

>  <RMSD>
2.417

$$$$
ligand
 OpenBabel02271912143D
libRbt.so/2013.1/901 2013/11/27
 10 11  0  0  0  0  0  0  0  0999 V2000
   11.8422   10.5835    8.9057 N   0  0  0  0  0  0  0  0  0  0  0  0
   11.9989    9.4070    8.2113 C   0  0  0  0  0  0  0  0  0  0  0  0
   11.8499    9.3410    6.8870 N   0  0  0  0  0  0  0  0  0  0  0  0
   11.5328   10.5380    6.3164 C   0  0  0  0  0  0  0  0  0  0  0  0
   11.3603   11.7501    6.9552 C   0  0  0  0  0  0  0  0  0  0  0  0
   11.5188   11.8287    8.3659 C   0  0  0  0  0  0  0  0  0  0  0  0
   11.4153   12.7953    9.1307 O   0  0  0  0  0  0  0  0  0  0  0  0
   11.0497   12.6935    6.0165 N   0  0  0  0  0  0  0  0  0  0  0  0
   11.0363   12.0621    4.8197 C   0  0  0  0  0  0  0  0  0  0  0  0
   11.3310   10.7243    4.9718 N   0  0  0  0  0  0  0  0  0  0  0  0
  1  2  1  0  0  0  0
  1  6  1  0  0  0  0
  2  3  2  0  0  0  0
  3  4  1  0  0  0  0
  4  5  2  0  0  0  0
  4 10  1  0  0  0  0
  5  6  1  0  0  0  0
  5  8  1  0  0  0  0
  6  7  2  0  0  0  0
  8  9  1  0  0  0  0
  9 10  2  0  0  0  0
M  END
>  <CHROM.1>
11.49264922,11.20101052,7.09867431,-0.97924204,1.33520248,-2.10849616

>  <Name>
ligand

>  <RI>
0

>  <Rbt.Current_Directory>
/home/itssahil/PROJECTS/Mol_Feturizer/Test_systems_manuscript/rnas/4fe5

>  <Rbt.Executable>
rbdock ($Id: //depot/dev/client3/rdock/2013.1/src/exe/rbdock.cxx#4 $)

>  <Rbt.Library>
libRbt.so (2013.1, Build901 2013/11/27)

>  <Rbt.Parameter_File>
/export/apps/rDock/src/rDock_2013.1_src/data/scripts/dock_solv.prm

>  <Rbt.Receptor>
prm/pocket_docking_3.prm

>  <SCORE>
-17.5638

>  <SCORE.INTER>
-17.5638

>  <SCORE.INTER.CONST>
1

>  <SCORE.INTER.POLAR>
0

>  <SCORE.INTER.ROT>
0

>  <SCORE.INTER.SOLV>
3.91997

>  <SCORE.INTER.VDW>
-16.6159

>  <SCORE.INTER.norm>
-1.75638

>  <SCORE.INTRA>
0

>  <SCORE.INTRA.DIHEDRAL>
0

>  <SCORE.INTRA.DIHEDRAL.0>
0

>  <SCORE.INTRA.POLAR>
0

>  <SCORE.INTRA.POLAR.0>
0

>  <SCORE.INTRA.REPUL>
0

>  <SCORE.INTRA.REPUL.0>
0

>  <SCORE.INTRA.SOLV>
0

>  <SCORE.INTRA.SOLV.lig_0>
-4.28333

>  <SCORE.INTRA.VDW>
0

>  <SCORE.INTRA.VDW.0>
0

>  <SCORE.INTRA.norm>
0

>  <SCORE.RESTR>
0

>  <SCORE.RESTR.CAVITY>
0

>  <SCORE.RESTR.norm>
0

>  <SCORE.SYSTEM>
0

>  <SCORE.SYSTEM.CONST>
0

>  <SCORE.SYSTEM.DIHEDRAL>
0

>  <SCORE.SYSTEM.SOLV>
0

>  <SCORE.SYSTEM.norm>
0

>  <SCORE.heavy>
10

>  <SCORE.norm>
-1.75638

>  <RMSD>
2.417

$$$$
ligand
 OpenBabel02271912143D
libRbt.so/2013.1/901 2013/11/27
 10 11  0  0  0  0  0  0  0  0999 V2000
   11.8412   10.5842    8.9077 N   0  0  0  0  0  0  0  0  0  0  0  0
   12.0022    9.4072    8.2150 C   0  0  0  0  0  0  0  0  0  0  0  0
   11.8567    9.3393    6.8905 N   0  0  0  0  0  0  0  0  0  0  0  0
   11.5386   10.5350    6.3177 C   0  0  0  0  0  0  0  0  0  0  0  0
   11.3618   11.7475    6.9546 C   0  0  0  0  0  0  0  0  0  0  0  0
   11.5165   11.8280    8.3656 C   0  0  0  0  0  0  0  0  0  0  0  0
   11.4089   12.7953    9.1290 O   0  0  0  0  0  0  0  0  0  0  0  0
   11.0516   12.6891    6.0140 N   0  0  0  0  0  0  0  0  0  0  0  0
   11.0426   12.0563    4.8179 C   0  0  0  0  0  0  0  0  0  0  0  0
   11.3398   10.7193    4.9723 N   0  0  0  0  0  0  0  0  0  0  0  0
  1  2  1  0  0  0  0
  1  6  1  0  0  0  0
  2  3  2  0  0  0  0
  3  4  1  0  0  0  0
  4  5  2  0  0  0  0
  4 10  1  0  0  0  0
  5  6  1  0  0  0  0
  5  8  1  0  0  0  0
  6  7  2  0  0  0  0
  8  9  1  0  0  0  0
  9 10  2  0  0  0  0
M  END
>  <CHROM.1>
11.49494549,11.19881541,7.09906392,-0.99340029,1.33467663,-2.09589302

>  <Name>
ligand

>  <RI>
0

>  <Rbt.Current_Directory>
/home/itssahil/PROJECTS/Mol_Feturizer/Test_systems_manuscript/rnas/4fe5

>  <Rbt.Executable>
rbdock ($Id: //depot/dev/client3/rdock/2013.1/src/exe/rbdock.cxx#4 $)

>  <Rbt.Library>
libRbt.so (2013.1, Build901 2013/11/27)

>  <Rbt.Parameter_File>
/export/apps/rDock/src/rDock_2013.1_src/data/scripts/dock_solv.prm

>  <Rbt.Receptor>
prm/pocket_docking_4.prm

>  <SCORE>
-17.5646

>  <SCORE.INTER>
-17.5646

>  <SCORE.INTER.CONST>
1

>  <SCORE.INTER.POLAR>
0

>  <SCORE.INTER.ROT>
0

>  <SCORE.INTER.SOLV>
3.92027

>  <SCORE.INTER.VDW>
-16.6165

>  <SCORE.INTER.norm>
-1.75646

>  <SCORE.INTRA>
0

>  <SCORE.INTRA.DIHEDRAL>
0

>  <SCORE.INTRA.DIHEDRAL.0>
0

>  <SCORE.INTRA.POLAR>
0

>  <SCORE.INTRA.POLAR.0>
0

>  <SCORE.INTRA.REPUL>
0

>  <SCORE.INTRA.REPUL.0>
0

>  <SCORE.INTRA.SOLV>
0

>  <SCORE.INTRA.SOLV.lig_0>
-4.28333

>  <SCORE.INTRA.VDW>
0

>  <SCORE.INTRA.VDW.0>
0

>  <SCORE.INTRA.norm>
0

>  <SCORE.RESTR>
0

>  <SCORE.RESTR.CAVITY>
0

>  <SCORE.RESTR.norm>
0

>  <SCORE.SYSTEM>
0

>  <SCORE.SYSTEM.CONST>
0

>  <SCORE.SYSTEM.DIHEDRAL>
0

>  <SCORE.SYSTEM.SOLV>
0

>  <SCORE.SYSTEM.norm>
0

>  <SCORE.heavy>
10

>  <SCORE.norm>
-1.75646

>  <RMSD>
2.417

$$$$
ligand
 OpenBabel02271912143D
libRbt.so/2013.1/901 2013/11/27
 10 11  0  0  0  0  0  0  0  0999 V2000
   11.8444   10.5984    8.9126 N   0  0  0  0  0  0  0  0  0  0  0  0
   12.0005    9.4181    8.2245 C   0  0  0  0  0  0  0  0  0  0  0  0
   11.8533    9.3454    6.9003 N   0  0  0  0  0  0  0  0  0  0  0  0
   11.5386   10.5398    6.3231 C   0  0  0  0  0  0  0  0  0  0  0  0
   11.3667   11.7555    6.9553 C   0  0  0  0  0  0  0  0  0  0  0  0
   11.5234   11.8412    8.3658 C   0  0  0  0  0  0  0  0  0  0  0  0
   11.4201   12.8119    9.1254 O   0  0  0  0  0  0  0  0  0  0  0  0
   11.0588   12.6944    6.0113 N   0  0  0  0  0  0  0  0  0  0  0  0
   11.0462   12.0568    4.8177 C   0  0  0  0  0  0  0  0  0  0  0  0
   11.3389   10.7195    4.9773 N   0  0  0  0  0  0  0  0  0  0  0  0
  1  2  1  0  0  0  0
  1  6  1  0  0  0  0
  2  3  2  0  0  0  0
  3  4  1  0  0  0  0
  4  5  2  0  0  0  0
  4 10  1  0  0  0  0
  5  6  1  0  0  0  0
  5  8  1  0  0  0  0
  6  7  2  0  0  0  0
  8  9  1  0  0  0  0
  9 10  2  0  0  0  0
M  END
>  <CHROM.1>
11.49819346,11.20699029,7.10185697,-0.98155327,1.33707993,-2.11144020

>  <Name>
ligand

>  <RI>
0

>  <Rbt.Current_Directory>
/home/itssahil/PROJECTS/Mol_Feturizer/Test_systems_manuscript/rnas/4fe5

>  <Rbt.Executable>
rbdock ($Id: //depot/dev/client3/rdock/2013.1/src/exe/rbdock.cxx#4 $)

>  <Rbt.Library>
libRbt.so (2013.1, Build901 2013/11/27)

>  <Rbt.Parameter_File>
/export/apps/rDock/src/rDock_2013.1_src/data/scripts/dock_solv.prm

>  <Rbt.Receptor>
prm/pocket_docking_4.prm

>  <SCORE>
-17.5613

>  <SCORE.INTER>
-17.5613

>  <SCORE.INTER.CONST>
1

>  <SCORE.INTER.POLAR>
0

>  <SCORE.INTER.ROT>
0

>  <SCORE.INTER.SOLV>
3.93666

>  <SCORE.INTER.VDW>
-16.6198

>  <SCORE.INTER.norm>
-1.75613

>  <SCORE.INTRA>
0

>  <SCORE.INTRA.DIHEDRAL>
0

>  <SCORE.INTRA.DIHEDRAL.0>
0

>  <SCORE.INTRA.POLAR>
0

>  <SCORE.INTRA.POLAR.0>
0

>  <SCORE.INTRA.REPUL>
0

>  <SCORE.INTRA.REPUL.0>
0

>  <SCORE.INTRA.SOLV>
0

>  <SCORE.INTRA.SOLV.lig_0>
-4.28333

>  <SCORE.INTRA.VDW>
0

>  <SCORE.INTRA.VDW.0>
0

>  <SCORE.INTRA.norm>
0

>  <SCORE.RESTR>
0

>  <SCORE.RESTR.CAVITY>
0

>  <SCORE.RESTR.norm>
0

>  <SCORE.SYSTEM>
0

>  <SCORE.SYSTEM.CONST>
0

>  <SCORE.SYSTEM.DIHEDRAL>
0

>  <SCORE.SYSTEM.SOLV>
0

>  <SCORE.SYSTEM.norm>
0

>  <SCORE.heavy>
10

>  <SCORE.norm>
-1.75613

>  <RMSD>
2.417

$$$$
ligand
 OpenBabel02271912143D
libRbt.so/2013.1/901 2013/11/27
 10 11  0  0  0  0  0  0  0  0999 V2000
   11.8356   10.5815    8.9099 N   0  0  0  0  0  0  0  0  0  0  0  0
   11.9942    9.4041    8.2174 C   0  0  0  0  0  0  0  0  0  0  0  0
   11.8500    9.3366    6.8927 N   0  0  0  0  0  0  0  0  0  0  0  0
   11.5357   10.5331    6.3195 C   0  0  0  0  0  0  0  0  0  0  0  0
   11.3616   11.7461    6.9562 C   0  0  0  0  0  0  0  0  0  0  0  0
   11.5149   11.8262    8.3675 C   0  0  0  0  0  0  0  0  0  0  0  0
   11.4091   12.7938    9.1307 O   0  0  0  0  0  0  0  0  0  0  0  0
   11.0550   12.6886    6.0153 N   0  0  0  0  0  0  0  0  0  0  0  0
   11.0457   12.0558    4.8192 C   0  0  0  0  0  0  0  0  0  0  0  0
   11.3390   10.7181    4.9740 N   0  0  0  0  0  0  0  0  0  0  0  0
  1  2  1  0  0  0  0
  1  6  1  0  0  0  0
  2  3  2  0  0  0  0
  3  4  1  0  0  0  0
  4  5  2  0  0  0  0
  4 10  1  0  0  0  0
  5  6  1  0  0  0  0
  5  8  1  0  0  0  0
  6  7  2  0  0  0  0
  8  9  1  0  0  0  0
  9 10  2  0  0  0  0
M  END
>  <CHROM.1>
11.49307315,11.19710166,7.10087458,-0.99165764,1.33759780,-2.09757067

>  <Name>
ligand

>  <RI>
0

>  <Rbt.Current_Directory>
/home/itssahil/PROJECTS/Mol_Feturizer/Test_systems_manuscript/rnas/4fe5

>  <Rbt.Executable>
rbdock ($Id: //depot/dev/client3/rdock/2013.1/src/exe/rbdock.cxx#4 $)

>  <Rbt.Library>
libRbt.so (2013.1, Build901 2013/11/27)

>  <Rbt.Parameter_File>
/export/apps/rDock/src/rDock_2013.1_src/data/scripts/dock_solv.prm

>  <Rbt.Receptor>
prm/pocket_docking_4.prm

>  <SCORE>
-17.5645

>  <SCORE.INTER>
-17.5645

>  <SCORE.INTER.CONST>
1

>  <SCORE.INTER.POLAR>
0

>  <SCORE.INTER.ROT>
0

>  <SCORE.INTER.SOLV>
3.9239

>  <SCORE.INTER.VDW>
-16.6176

>  <SCORE.INTER.norm>
-1.75645

>  <SCORE.INTRA>
0

>  <SCORE.INTRA.DIHEDRAL>
0

>  <SCORE.INTRA.DIHEDRAL.0>
0

>  <SCORE.INTRA.POLAR>
0

>  <SCORE.INTRA.POLAR.0>
0

>  <SCORE.INTRA.REPUL>
0

>  <SCORE.INTRA.REPUL.0>
0

>  <SCORE.INTRA.SOLV>
0

>  <SCORE.INTRA.SOLV.lig_0>
-4.28333

>  <SCORE.INTRA.VDW>
0

>  <SCORE.INTRA.VDW.0>
0

>  <SCORE.INTRA.norm>
0

>  <SCORE.RESTR>
0

>  <SCORE.RESTR.CAVITY>
0

>  <SCORE.RESTR.norm>
0

>  <SCORE.SYSTEM>
0

>  <SCORE.SYSTEM.CONST>
0

>  <SCORE.SYSTEM.DIHEDRAL>
0

>  <SCORE.SYSTEM.SOLV>
0

>  <SCORE.SYSTEM.norm>
0

>  <SCORE.heavy>
10

>  <SCORE.norm>
-1.75645

>  <RMSD>
2.417

$$$$
ligand
 OpenBabel02271912143D
libRbt.so/2013.1/901 2013/11/27
 10 11  0  0  0  0  0  0  0  0999 V2000
   11.8359   10.5695    8.9061 N   0  0  0  0  0  0  0  0  0  0  0  0
   12.0018    9.3970    8.2070 C   0  0  0  0  0  0  0  0  0  0  0  0
   11.8595    9.3363    6.8818 N   0  0  0  0  0  0  0  0  0  0  0  0
   11.5393   10.5343    6.3151 C   0  0  0  0  0  0  0  0  0  0  0  0
   11.3577   11.7427    6.9585 C   0  0  0  0  0  0  0  0  0  0  0  0
   11.5091   11.8156    8.3703 C   0  0  0  0  0  0  0  0  0  0  0  0
   11.3970   12.7782    9.1390 O   0  0  0  0  0  0  0  0  0  0  0  0
   11.0471   12.6888    6.0226 N   0  0  0  0  0  0  0  0  0  0  0  0
   11.0426   12.0628    4.8229 C   0  0  0  0  0  0  0  0  0  0  0  0
   11.3431   10.7258    4.9704 N   0  0  0  0  0  0  0  0  0  0  0  0
  1  2  1  0  0  0  0
  1  6  1  0  0  0  0
  2  3  2  0  0  0  0
  3  4  1  0  0  0  0
  4  5  2  0  0  0  0
  4 10  1  0  0  0  0
  5  6  1  0  0  0  0
  5  8  1  0  0  0  0
  6  7  2  0  0  0  0
  8  9  1  0  0  0  0
  9 10  2  0  0  0  0
M  END
>  <CHROM.1>
11.49211097,11.19357758,7.10015942,-1.00767962,1.33339255,-2.07629580

>  <Name>
ligand

>  <RI>
0

>  <Rbt.Current_Directory>
/home/itssahil/PROJECTS/Mol_Feturizer/Test_systems_manuscript/rnas/4fe5

>  <Rbt.Executable>
rbdock ($Id: //depot/dev/client3/rdock/2013.1/src/exe/rbdock.cxx#4 $)

>  <Rbt.Library>
libRbt.so (2013.1, Build901 2013/11/27)

>  <Rbt.Parameter_File>
/export/apps/rDock/src/rDock_2013.1_src/data/scripts/dock_solv.prm

>  <Rbt.Receptor>
prm/pocket_docking_4.prm

>  <SCORE>
-17.5659

>  <SCORE.INTER>
-17.5659

>  <SCORE.INTER.CONST>
1

>  <SCORE.INTER.POLAR>
0

>  <SCORE.INTER.ROT>
0

>  <SCORE.INTER.SOLV>
3.9037

>  <SCORE.INTER.VDW>
-16.6118

>  <SCORE.INTER.norm>
-1.75659

>  <SCORE.INTRA>
0

>  <SCORE.INTRA.DIHEDRAL>
0

>  <SCORE.INTRA.DIHEDRAL.0>
0

>  <SCORE.INTRA.POLAR>
0

>  <SCORE.INTRA.POLAR.0>
0

>  <SCORE.INTRA.REPUL>
0

>  <SCORE.INTRA.REPUL.0>
0

>  <SCORE.INTRA.SOLV>
0

>  <SCORE.INTRA.SOLV.lig_0>
-4.28333

>  <SCORE.INTRA.VDW>
0

>  <SCORE.INTRA.VDW.0>
0

>  <SCORE.INTRA.norm>
0

>  <SCORE.RESTR>
0

>  <SCORE.RESTR.CAVITY>
0

>  <SCORE.RESTR.norm>
0

>  <SCORE.SYSTEM>
0

>  <SCORE.SYSTEM.CONST>
0

>  <SCORE.SYSTEM.DIHEDRAL>
0

>  <SCORE.SYSTEM.SOLV>
0

>  <SCORE.SYSTEM.norm>
0

>  <SCORE.heavy>
10

>  <SCORE.norm>
-1.75659

>  <RMSD>
2.417

$$$$
ligand
 OpenBabel02271912143D
libRbt.so/2013.1/901 2013/11/27
 10 11  0  0  0  0  0  0  0  0999 V2000
   11.8377   10.5759    8.9075 N   0  0  0  0  0  0  0  0  0  0  0  0
   11.9984    9.4007    8.2117 C   0  0  0  0  0  0  0  0  0  0  0  0
   11.8541    9.3365    6.8869 N   0  0  0  0  0  0  0  0  0  0  0  0
   11.5376   10.5340    6.3170 C   0  0  0  0  0  0  0  0  0  0  0  0
   11.3613   11.7450    6.9570 C   0  0  0  0  0  0  0  0  0  0  0  0
   11.5147   11.8215    8.3684 C   0  0  0  0  0  0  0  0  0  0  0  0
   11.4073   12.7868    9.1343 O   0  0  0  0  0  0  0  0  0  0  0  0
   11.0529   12.6894    6.0187 N   0  0  0  0  0  0  0  0  0  0  0  0
   11.0445   12.0598    4.8209 C   0  0  0  0  0  0  0  0  0  0  0  0
   11.3403   10.7222    4.9720 N   0  0  0  0  0  0  0  0  0  0  0  0
  1  2  1  0  0  0  0
  1  6  1  0  0  0  0
  2  3  2  0  0  0  0
  3  4  1  0  0  0  0
  4  5  2  0  0  0  0
  4 10  1  0  0  0  0
  5  6  1  0  0  0  0
  5  8  1  0  0  0  0
  6  7  2  0  0  0  0
  8  9  1  0  0  0  0
  9 10  2  0  0  0  0
M  END
>  <CHROM.1>
11.49381194,11.19579517,7.10016197,-0.99502570,1.33593707,-2.09159394

>  <Name>
ligand

>  <RI>
0

>  <Rbt.Current_Directory>
/home/itssahil/PROJECTS/Mol_Feturizer/Test_systems_manuscript/rnas/4fe5

>  <Rbt.Executable>
rbdock ($Id: //depot/dev/client3/rdock/2013.1/src/exe/rbdock.cxx#4 $)

>  <Rbt.Library>
libRbt.so (2013.1, Build901 2013/11/27)

>  <Rbt.Parameter_File>
/export/apps/rDock/src/rDock_2013.1_src/data/scripts/dock_solv.prm

>  <Rbt.Receptor>
prm/pocket_docking_4.prm

>  <SCORE>
-17.5662

>  <SCORE.INTER>
-17.5662

>  <SCORE.INTER.CONST>
1

>  <SCORE.INTER.POLAR>
0

>  <SCORE.INTER.ROT>
0

>  <SCORE.INTER.SOLV>
3.9144

>  <SCORE.INTER.VDW>
-16.6156

>  <SCORE.INTER.norm>
-1.75662

>  <SCORE.INTRA>
0

>  <SCORE.INTRA.DIHEDRAL>
0

>  <SCORE.INTRA.DIHEDRAL.0>
0

>  <SCORE.INTRA.POLAR>
0

>  <SCORE.INTRA.POLAR.0>
0

>  <SCORE.INTRA.REPUL>
0

>  <SCORE.INTRA.REPUL.0>
0

>  <SCORE.INTRA.SOLV>
0

>  <SCORE.INTRA.SOLV.lig_0>
-4.28333

>  <SCORE.INTRA.VDW>
0

>  <SCORE.INTRA.VDW.0>
0

>  <SCORE.INTRA.norm>
0

>  <SCORE.RESTR>
0

>  <SCORE.RESTR.CAVITY>
0

>  <SCORE.RESTR.norm>
0

>  <SCORE.SYSTEM>
0

>  <SCORE.SYSTEM.CONST>
0

>  <SCORE.SYSTEM.DIHEDRAL>
0

>  <SCORE.SYSTEM.SOLV>
0

>  <SCORE.SYSTEM.norm>
0

>  <SCORE.heavy>
10

>  <SCORE.norm>
-1.75662

>  <RMSD>
2.417

$$$$
ligand
 OpenBabel02271912143D
libRbt.so/2013.1/901 2013/11/27
 10 11  0  0  0  0  0  0  0  0999 V2000
   11.8356   10.5815    8.9028 N   0  0  0  0  0  0  0  0  0  0  0  0
   11.9939    9.4054    8.2082 C   0  0  0  0  0  0  0  0  0  0  0  0
   11.8470    9.3397    6.8837 N   0  0  0  0  0  0  0  0  0  0  0  0
   11.5302   10.5367    6.3130 C   0  0  0  0  0  0  0  0  0  0  0  0
   11.3560   11.7486    6.9519 C   0  0  0  0  0  0  0  0  0  0  0  0
   11.5124   11.8267    8.3629 C   0  0  0  0  0  0  0  0  0  0  0  0
   11.4071   12.7931    9.1278 O   0  0  0  0  0  0  0  0  0  0  0  0
   11.0464   12.6921    6.0130 N   0  0  0  0  0  0  0  0  0  0  0  0
   11.0352   12.0610    4.8160 C   0  0  0  0  0  0  0  0  0  0  0  0
   11.3304   10.7234    4.9681 N   0  0  0  0  0  0  0  0  0  0  0  0
  1  2  1  0  0  0  0
  1  6  1  0  0  0  0
  2  3  2  0  0  0  0
  3  4  1  0  0  0  0
  4  5  2  0  0  0  0
  4 10  1  0  0  0  0
  5  6  1  0  0  0  0
  5  8  1  0  0  0  0
  6  7  2  0  0  0  0
  8  9  1  0  0  0  0
  9 10  2  0  0  0  0
M  END
>  <CHROM.1>
11.48847918,11.19945934,7.09540090,-0.98607238,1.33556381,-2.10152757

>  <Name>
ligand

>  <RI>
0

>  <Rbt.Current_Directory>
/home/itssahil/PROJECTS/Mol_Feturizer/Test_systems_manuscript/rnas/4fe5

>  <Rbt.Executable>
rbdock ($Id: //depot/dev/client3/rdock/2013.1/src/exe/rbdock.cxx#4 $)

>  <Rbt.Library>
libRbt.so (2013.1, Build901 2013/11/27)

>  <Rbt.Parameter_File>
/export/apps/rDock/src/rDock_2013.1_src/data/scripts/dock_solv.prm

>  <Rbt.Receptor>
prm/pocket_docking_4.prm

>  <SCORE>
-17.5657

>  <SCORE.INTER>
-17.5657

>  <SCORE.INTER.CONST>
1

>  <SCORE.INTER.POLAR>
0

>  <SCORE.INTER.ROT>
0

>  <SCORE.INTER.SOLV>
3.92028

>  <SCORE.INTER.VDW>
-16.6173

>  <SCORE.INTER.norm>
-1.75657

>  <SCORE.INTRA>
0

>  <SCORE.INTRA.DIHEDRAL>
0

>  <SCORE.INTRA.DIHEDRAL.0>
0

>  <SCORE.INTRA.POLAR>
0

>  <SCORE.INTRA.POLAR.0>
0

>  <SCORE.INTRA.REPUL>
0

>  <SCORE.INTRA.REPUL.0>
0

>  <SCORE.INTRA.SOLV>
0

>  <SCORE.INTRA.SOLV.lig_0>
-4.28333

>  <SCORE.INTRA.VDW>
0

>  <SCORE.INTRA.VDW.0>
0

>  <SCORE.INTRA.norm>
0

>  <SCORE.RESTR>
0

>  <SCORE.RESTR.CAVITY>
0

>  <SCORE.RESTR.norm>
0

>  <SCORE.SYSTEM>
0

>  <SCORE.SYSTEM.CONST>
0

>  <SCORE.SYSTEM.DIHEDRAL>
0

>  <SCORE.SYSTEM.SOLV>
0

>  <SCORE.SYSTEM.norm>
0

>  <SCORE.heavy>
10

>  <SCORE.norm>
-1.75657

>  <RMSD>
2.417

$$$$
ligand
 OpenBabel02271912143D
libRbt.so/2013.1/901 2013/11/27
 10 11  0  0  0  0  0  0  0  0999 V2000
   11.8373   10.5716    8.9058 N   0  0  0  0  0  0  0  0  0  0  0  0
   12.0038    9.3986    8.2076 C   0  0  0  0  0  0  0  0  0  0  0  0
   11.8604    9.3366    6.8825 N   0  0  0  0  0  0  0  0  0  0  0  0
   11.5384   10.5338    6.3151 C   0  0  0  0  0  0  0  0  0  0  0  0
   11.3561   11.7426    6.9576 C   0  0  0  0  0  0  0  0  0  0  0  0
   11.5086   11.8168    8.3692 C   0  0  0  0  0  0  0  0  0  0  0  0
   11.3963   12.7799    9.1372 O   0  0  0  0  0  0  0  0  0  0  0  0
   11.0437   12.6876    6.0212 N   0  0  0  0  0  0  0  0  0  0  0  0
   11.0388   12.0605    4.8220 C   0  0  0  0  0  0  0  0  0  0  0  0
   11.3408   10.7240    4.9704 N   0  0  0  0  0  0  0  0  0  0  0  0
  1  2  1  0  0  0  0
  1  6  1  0  0  0  0
  2  3  2  0  0  0  0
  3  4  1  0  0  0  0
  4  5  2  0  0  0  0
  4 10  1  0  0  0  0
  5  6  1  0  0  0  0
  5  8  1  0  0  0  0
  6  7  2  0  0  0  0
  8  9  1  0  0  0  0
  9 10  2  0  0  0  0
M  END
>  <CHROM.1>
11.49121084,11.19369180,7.09960770,-1.00654599,1.33203346,-2.07824730

>  <Name>
ligand

>  <RI>
0

>  <Rbt.Current_Directory>
/home/itssahil/PROJECTS/Mol_Feturizer/Test_systems_manuscript/rnas/4fe5

>  <Rbt.Executable>
rbdock ($Id: //depot/dev/client3/rdock/2013.1/src/exe/rbdock.cxx#4 $)

>  <Rbt.Library>
libRbt.so (2013.1, Build901 2013/11/27)

>  <Rbt.Parameter_File>
/export/apps/rDock/src/rDock_2013.1_src/data/scripts/dock_solv.prm

>  <Rbt.Receptor>
prm/pocket_docking_4.prm

>  <SCORE>
-17.5641

>  <SCORE.INTER>
-17.5641

>  <SCORE.INTER.CONST>
1

>  <SCORE.INTER.POLAR>
0

>  <SCORE.INTER.ROT>
0

>  <SCORE.INTER.SOLV>
3.904

>  <SCORE.INTER.VDW>
-16.6107

>  <SCORE.INTER.norm>
-1.75641

>  <SCORE.INTRA>
0

>  <SCORE.INTRA.DIHEDRAL>
0

>  <SCORE.INTRA.DIHEDRAL.0>
0

>  <SCORE.INTRA.POLAR>
0

>  <SCORE.INTRA.POLAR.0>
0

>  <SCORE.INTRA.REPUL>
0

>  <SCORE.INTRA.REPUL.0>
0

>  <SCORE.INTRA.SOLV>
0

>  <SCORE.INTRA.SOLV.lig_0>
-4.28333

>  <SCORE.INTRA.VDW>
0

>  <SCORE.INTRA.VDW.0>
0

>  <SCORE.INTRA.norm>
0

>  <SCORE.RESTR>
0

>  <SCORE.RESTR.CAVITY>
0

>  <SCORE.RESTR.norm>
0

>  <SCORE.SYSTEM>
0

>  <SCORE.SYSTEM.CONST>
0

>  <SCORE.SYSTEM.DIHEDRAL>
0

>  <SCORE.SYSTEM.SOLV>
0

>  <SCORE.SYSTEM.norm>
0

>  <SCORE.heavy>
10

>  <SCORE.norm>
-1.75641

>  <RMSD>
2.417

$$$$
ligand
 OpenBabel02271912143D
libRbt.so/2013.1/901 2013/11/27
 10 11  0  0  0  0  0  0  0  0999 V2000
   11.8420   10.5804    8.9090 N   0  0  0  0  0  0  0  0  0  0  0  0
   12.0025    9.4054    8.2130 C   0  0  0  0  0  0  0  0  0  0  0  0
   11.8565    9.3411    6.8883 N   0  0  0  0  0  0  0  0  0  0  0  0
   11.5383   10.5384    6.3190 C   0  0  0  0  0  0  0  0  0  0  0  0
   11.3620   11.7492    6.9593 C   0  0  0  0  0  0  0  0  0  0  0  0
   11.5174   11.8258    8.3704 C   0  0  0  0  0  0  0  0  0  0  0  0
   11.4103   12.7911    9.1365 O   0  0  0  0  0  0  0  0  0  0  0  0
   11.0517   12.6935    6.0214 N   0  0  0  0  0  0  0  0  0  0  0  0
   11.0420   12.0640    4.8236 C   0  0  0  0  0  0  0  0  0  0  0  0
   11.3390   10.7265    4.9742 N   0  0  0  0  0  0  0  0  0  0  0  0
  1  2  1  0  0  0  0
  1  6  1  0  0  0  0
  2  3  2  0  0  0  0
  3  4  1  0  0  0  0
  4  5  2  0  0  0  0
  4 10  1  0  0  0  0
  5  6  1  0  0  0  0
  5  8  1  0  0  0  0
  6  7  2  0  0  0  0
  8  9  1  0  0  0  0
  9 10  2  0  0  0  0
M  END
>  <CHROM.1>
11.49516151,11.20014119,7.10218248,-0.99136463,1.33463500,-2.09511961

>  <Name>
ligand

>  <RI>
0

>  <Rbt.Current_Directory>
/home/itssahil/PROJECTS/Mol_Feturizer/Test_systems_manuscript/rnas/4fe5

>  <Rbt.Executable>
rbdock ($Id: //depot/dev/client3/rdock/2013.1/src/exe/rbdock.cxx#4 $)

>  <Rbt.Library>
libRbt.so (2013.1, Build901 2013/11/27)

>  <Rbt.Parameter_File>
/export/apps/rDock/src/rDock_2013.1_src/data/scripts/dock_solv.prm

>  <Rbt.Receptor>
prm/pocket_docking_5.prm

>  <SCORE>
-17.5637

>  <SCORE.INTER>
-17.5637

>  <SCORE.INTER.CONST>
1

>  <SCORE.INTER.POLAR>
0

>  <SCORE.INTER.ROT>
0

>  <SCORE.INTER.SOLV>
3.91499

>  <SCORE.INTER.VDW>
-16.6142

>  <SCORE.INTER.norm>
-1.75637

>  <SCORE.INTRA>
0

>  <SCORE.INTRA.DIHEDRAL>
0

>  <SCORE.INTRA.DIHEDRAL.0>
0

>  <SCORE.INTRA.POLAR>
0

>  <SCORE.INTRA.POLAR.0>
0

>  <SCORE.INTRA.REPUL>
0

>  <SCORE.INTRA.REPUL.0>
0

>  <SCORE.INTRA.SOLV>
0

>  <SCORE.INTRA.SOLV.lig_0>
-4.28333

>  <SCORE.INTRA.VDW>
0

>  <SCORE.INTRA.VDW.0>
0

>  <SCORE.INTRA.norm>
0

>  <SCORE.RESTR>
0

>  <SCORE.RESTR.CAVITY>
0

>  <SCORE.RESTR.norm>
0

>  <SCORE.SYSTEM>
0

>  <SCORE.SYSTEM.CONST>
0

>  <SCORE.SYSTEM.DIHEDRAL>
0

>  <SCORE.SYSTEM.SOLV>
0

>  <SCORE.SYSTEM.norm>
0

>  <SCORE.heavy>
10

>  <SCORE.norm>
-1.75637

>  <RMSD>
2.417

$$$$
ligand
 OpenBabel02271912143D
libRbt.so/2013.1/901 2013/11/27
 10 11  0  0  0  0  0  0  0  0999 V2000
   11.8366   10.5808    8.8999 N   0  0  0  0  0  0  0  0  0  0  0  0
   11.9911    9.4053    8.2032 C   0  0  0  0  0  0  0  0  0  0  0  0
   11.8501    9.3436    6.8778 N   0  0  0  0  0  0  0  0  0  0  0  0
   11.5435   10.5440    6.3085 C   0  0  0  0  0  0  0  0  0  0  0  0
   11.3738   11.7554    6.9494 C   0  0  0  0  0  0  0  0  0  0  0  0
   11.5238   11.8292    8.3613 C   0  0  0  0  0  0  0  0  0  0  0  0
   11.4209   12.7944    9.1281 O   0  0  0  0  0  0  0  0  0  0  0  0
   11.0747   12.7031    6.0113 N   0  0  0  0  0  0  0  0  0  0  0  0
   11.0653   12.0749    4.8127 C   0  0  0  0  0  0  0  0  0  0  0  0
   11.3513   10.7351    4.9631 N   0  0  0  0  0  0  0  0  0  0  0  0
  1  2  1  0  0  0  0
  1  6  1  0  0  0  0
  2  3  2  0  0  0  0
  3  4  1  0  0  0  0
  4  5  2  0  0  0  0
  4 10  1  0  0  0  0
  5  6  1  0  0  0  0
  5  8  1  0  0  0  0
  6  7  2  0  0  0  0
  8  9  1  0  0  0  0
  9 10  2  0  0  0  0
M  END
>  <CHROM.1>
11.50215948,11.20513441,7.09228351,-0.99055698,1.34337784,-2.09478257

>  <Name>
ligand

>  <RI>
0

>  <Rbt.Current_Directory>
/home/itssahil/PROJECTS/Mol_Feturizer/Test_systems_manuscript/rnas/4fe5

>  <Rbt.Executable>
rbdock ($Id: //depot/dev/client3/rdock/2013.1/src/exe/rbdock.cxx#4 $)

>  <Rbt.Library>
libRbt.so (2013.1, Build901 2013/11/27)

>  <Rbt.Parameter_File>
/export/apps/rDock/src/rDock_2013.1_src/data/scripts/dock_solv.prm

>  <Rbt.Receptor>
prm/pocket_docking_6.prm

>  <SCORE>
-17.5405

>  <SCORE.INTER>
-17.5405

>  <SCORE.INTER.CONST>
1

>  <SCORE.INTER.POLAR>
0

>  <SCORE.INTER.ROT>
0

>  <SCORE.INTER.SOLV>
3.92688

>  <SCORE.INTER.VDW>
-16.6026

>  <SCORE.INTER.norm>
-1.75405

>  <SCORE.INTRA>
0

>  <SCORE.INTRA.DIHEDRAL>
0

>  <SCORE.INTRA.DIHEDRAL.0>
0

>  <SCORE.INTRA.POLAR>
0

>  <SCORE.INTRA.POLAR.0>
0

>  <SCORE.INTRA.REPUL>
0

>  <SCORE.INTRA.REPUL.0>
0

>  <SCORE.INTRA.SOLV>
0

>  <SCORE.INTRA.SOLV.lig_0>
-4.28333

>  <SCORE.INTRA.VDW>
0

>  <SCORE.INTRA.VDW.0>
0

>  <SCORE.INTRA.norm>
0

>  <SCORE.RESTR>
0

>  <SCORE.RESTR.CAVITY>
0

>  <SCORE.RESTR.norm>
0

>  <SCORE.SYSTEM>
0

>  <SCORE.SYSTEM.CONST>
0

>  <SCORE.SYSTEM.DIHEDRAL>
0

>  <SCORE.SYSTEM.SOLV>
0

>  <SCORE.SYSTEM.norm>
0

>  <SCORE.heavy>
10

>  <SCORE.norm>
-1.75405

>  <RMSD>
2.417

$$$$
ligand
 OpenBabel02271912143D
libRbt.so/2013.1/901 2013/11/27
 10 11  0  0  0  0  0  0  0  0999 V2000
   11.8379   10.5707    8.9076 N   0  0  0  0  0  0  0  0  0  0  0  0
   12.0053    9.3981    8.2090 C   0  0  0  0  0  0  0  0  0  0  0  0
   11.8631    9.3366    6.8838 N   0  0  0  0  0  0  0  0  0  0  0  0
   11.5414   10.5340    6.3166 C   0  0  0  0  0  0  0  0  0  0  0  0
   11.3582   11.7424    6.9594 C   0  0  0  0  0  0  0  0  0  0  0  0
   11.5094   11.8161    8.3712 C   0  0  0  0  0  0  0  0  0  0  0  0
   11.3961   12.7789    9.1395 O   0  0  0  0  0  0  0  0  0  0  0  0
   11.0463   12.6877    6.0231 N   0  0  0  0  0  0  0  0  0  0  0  0
   11.0427   12.0612    4.8237 C   0  0  0  0  0  0  0  0  0  0  0  0
   11.3449   10.7246    4.9718 N   0  0  0  0  0  0  0  0  0  0  0  0
  1  2  1  0  0  0  0
  1  6  1  0  0  0  0
  2  3  2  0  0  0  0
  3  4  1  0  0  0  0
  4  5  2  0  0  0  0
  4 10  1  0  0  0  0
  5  6  1  0  0  0  0
  5  8  1  0  0  0  0
  6  7  2  0  0  0  0
  8  9  1  0  0  0  0
  9 10  2  0  0  0  0
M  END
>  <CHROM.1>
11.49327180,11.19351595,7.10134895,-1.01041866,1.33225616,-2.07406836

>  <Name>
ligand

>  <RI>
0

>  <Rbt.Current_Directory>
/home/itssahil/PROJECTS/Mol_Feturizer/Test_systems_manuscript/rnas/4fe5

>  <Rbt.Executable>
rbdock ($Id: //depot/dev/client3/rdock/2013.1/src/exe/rbdock.cxx#4 $)

>  <Rbt.Library>
libRbt.so (2013.1, Build901 2013/11/27)

>  <Rbt.Parameter_File>
/export/apps/rDock/src/rDock_2013.1_src/data/scripts/dock_solv.prm

>  <Rbt.Receptor>
prm/pocket_docking_6.prm

>  <SCORE>
-17.564

>  <SCORE.INTER>
-17.564

>  <SCORE.INTER.CONST>
1

>  <SCORE.INTER.POLAR>
0

>  <SCORE.INTER.ROT>
0

>  <SCORE.INTER.SOLV>
3.90287

>  <SCORE.INTER.VDW>
-16.6103

>  <SCORE.INTER.norm>
-1.7564

>  <SCORE.INTRA>
0

>  <SCORE.INTRA.DIHEDRAL>
0

>  <SCORE.INTRA.DIHEDRAL.0>
0

>  <SCORE.INTRA.POLAR>
0

>  <SCORE.INTRA.POLAR.0>
0

>  <SCORE.INTRA.REPUL>
0

>  <SCORE.INTRA.REPUL.0>
0

>  <SCORE.INTRA.SOLV>
0

>  <SCORE.INTRA.SOLV.lig_0>
-4.28333

>  <SCORE.INTRA.VDW>
0

>  <SCORE.INTRA.VDW.0>
0

>  <SCORE.INTRA.norm>
0

>  <SCORE.RESTR>
0

>  <SCORE.RESTR.CAVITY>
0

>  <SCORE.RESTR.norm>
0

>  <SCORE.SYSTEM>
0

>  <SCORE.SYSTEM.CONST>
0

>  <SCORE.SYSTEM.DIHEDRAL>
0

>  <SCORE.SYSTEM.SOLV>
0

>  <SCORE.SYSTEM.norm>
0

>  <SCORE.heavy>
10

>  <SCORE.norm>
-1.7564

>  <RMSD>
2.417

$$$$
ligand
 OpenBabel02271912143D
libRbt.so/2013.1/901 2013/11/27
 10 11  0  0  0  0  0  0  0  0999 V2000
   11.8368   10.5851    8.9000 N   0  0  0  0  0  0  0  0  0  0  0  0
   11.9924    9.4100    8.2029 C   0  0  0  0  0  0  0  0  0  0  0  0
   11.8523    9.3487    6.8775 N   0  0  0  0  0  0  0  0  0  0  0  0
   11.5452   10.5491    6.3084 C   0  0  0  0  0  0  0  0  0  0  0  0
   11.3744   11.7601    6.9497 C   0  0  0  0  0  0  0  0  0  0  0  0
   11.5235   11.8335    8.3617 C   0  0  0  0  0  0  0  0  0  0  0  0
   11.4196   12.7984    9.1288 O   0  0  0  0  0  0  0  0  0  0  0  0
   11.0751   12.7079    6.0118 N   0  0  0  0  0  0  0  0  0  0  0  0
   11.0668   12.0802    4.8130 C   0  0  0  0  0  0  0  0  0  0  0  0
   11.3537   10.7406    4.9630 N   0  0  0  0  0  0  0  0  0  0  0  0
  1  2  1  0  0  0  0
  1  6  1  0  0  0  0
  2  3  2  0  0  0  0
  3  4  1  0  0  0  0
  4  5  2  0  0  0  0
  4 10  1  0  0  0  0
  5  6  1  0  0  0  0
  5  8  1  0  0  0  0
  6  7  2  0  0  0  0
  8  9  1  0  0  0  0
  9 10  2  0  0  0  0
M  END
>  <CHROM.1>
11.50298167,11.20990355,7.09243457,-0.99420345,1.34309575,-2.09086094

>  <Name>
ligand

>  <RI>
0

>  <Rbt.Current_Directory>
/home/itssahil/PROJECTS/Mol_Feturizer/Test_systems_manuscript/rnas/4fe5

>  <Rbt.Executable>
rbdock ($Id: //depot/dev/client3/rdock/2013.1/src/exe/rbdock.cxx#4 $)

>  <Rbt.Library>
libRbt.so (2013.1, Build901 2013/11/27)

>  <Rbt.Parameter_File>
/export/apps/rDock/src/rDock_2013.1_src/data/scripts/dock_solv.prm

>  <Rbt.Receptor>
prm/pocket_docking_6.prm

>  <SCORE>
-17.5393

>  <SCORE.INTER>
-17.5393

>  <SCORE.INTER.CONST>
1

>  <SCORE.INTER.POLAR>
0

>  <SCORE.INTER.ROT>
0

>  <SCORE.INTER.SOLV>
3.92963

>  <SCORE.INTER.VDW>
-16.6028

>  <SCORE.INTER.norm>
-1.75393

>  <SCORE.INTRA>
0

>  <SCORE.INTRA.DIHEDRAL>
0

>  <SCORE.INTRA.DIHEDRAL.0>
0

>  <SCORE.INTRA.POLAR>
0

>  <SCORE.INTRA.POLAR.0>
0

>  <SCORE.INTRA.REPUL>
0

>  <SCORE.INTRA.REPUL.0>
0

>  <SCORE.INTRA.SOLV>
0

>  <SCORE.INTRA.SOLV.lig_0>
-4.28333

>  <SCORE.INTRA.VDW>
0

>  <SCORE.INTRA.VDW.0>
0

>  <SCORE.INTRA.norm>
0

>  <SCORE.RESTR>
0

>  <SCORE.RESTR.CAVITY>
0

>  <SCORE.RESTR.norm>
0

>  <SCORE.SYSTEM>
0

>  <SCORE.SYSTEM.CONST>
0

>  <SCORE.SYSTEM.DIHEDRAL>
0

>  <SCORE.SYSTEM.SOLV>
0

>  <SCORE.SYSTEM.norm>
0

>  <SCORE.heavy>
10

>  <SCORE.norm>
-1.75393

>  <RMSD>
2.417

$$$$
ligand
 OpenBabel02271912143D
libRbt.so/2013.1/901 2013/11/27
 10 11  0  0  0  0  0  0  0  0999 V2000
   11.8462   10.5836    8.9151 N   0  0  0  0  0  0  0  0  0  0  0  0
   12.0085    9.4073    8.2216 C   0  0  0  0  0  0  0  0  0  0  0  0
   11.8649    9.3404    6.8968 N   0  0  0  0  0  0  0  0  0  0  0  0
   11.5471   10.5365    6.3246 C   0  0  0  0  0  0  0  0  0  0  0  0
   11.3691   11.7484    6.9622 C   0  0  0  0  0  0  0  0  0  0  0  0
   11.5219   11.8278    8.3735 C   0  0  0  0  0  0  0  0  0  0  0  0
   11.4129   12.7944    9.1376 O   0  0  0  0  0  0  0  0  0  0  0  0
   11.0599   12.6907    6.0220 N   0  0  0  0  0  0  0  0  0  0  0  0
   11.0528   12.0589    4.8253 C   0  0  0  0  0  0  0  0  0  0  0  0
   11.3501   10.7219    4.9791 N   0  0  0  0  0  0  0  0  0  0  0  0
  1  2  1  0  0  0  0
  1  6  1  0  0  0  0
  2  3  2  0  0  0  0
  3  4  1  0  0  0  0
  4  5  2  0  0  0  0
  4 10  1  0  0  0  0
  5  6  1  0  0  0  0
  5  8  1  0  0  0  0
  6  7  2  0  0  0  0
  8  9  1  0  0  0  0
  9 10  2  0  0  0  0
M  END
>  <CHROM.1>
11.50224193,11.19964217,7.10642391,-0.99913215,1.33508142,-2.08948377

>  <Name>
ligand

>  <RI>
0

>  <Rbt.Current_Directory>
/home/itssahil/PROJECTS/Mol_Feturizer/Test_systems_manuscript/rnas/4fe5

>  <Rbt.Executable>
rbdock ($Id: //depot/dev/client3/rdock/2013.1/src/exe/rbdock.cxx#4 $)

>  <Rbt.Library>
libRbt.so (2013.1, Build901 2013/11/27)

>  <Rbt.Parameter_File>
/export/apps/rDock/src/rDock_2013.1_src/data/scripts/dock_solv.prm

>  <Rbt.Receptor>
prm/pocket_docking_6.prm

>  <SCORE>
-17.5601

>  <SCORE.INTER>
-17.5601

>  <SCORE.INTER.CONST>
1

>  <SCORE.INTER.POLAR>
0

>  <SCORE.INTER.ROT>
0

>  <SCORE.INTER.SOLV>
3.91805

>  <SCORE.INTER.VDW>
-16.6128

>  <SCORE.INTER.norm>
-1.75601

>  <SCORE.INTRA>
0

>  <SCORE.INTRA.DIHEDRAL>
0

>  <SCORE.INTRA.DIHEDRAL.0>
0

>  <SCORE.INTRA.POLAR>
0

>  <SCORE.INTRA.POLAR.0>
0

>  <SCORE.INTRA.REPUL>
0

>  <SCORE.INTRA.REPUL.0>
0

>  <SCORE.INTRA.SOLV>
0

>  <SCORE.INTRA.SOLV.lig_0>
-4.28333

>  <SCORE.INTRA.VDW>
0

>  <SCORE.INTRA.VDW.0>
0

>  <SCORE.INTRA.norm>
0

>  <SCORE.RESTR>
0

>  <SCORE.RESTR.CAVITY>
0

>  <SCORE.RESTR.norm>
0

>  <SCORE.SYSTEM>
0

>  <SCORE.SYSTEM.CONST>
0

>  <SCORE.SYSTEM.DIHEDRAL>
0

>  <SCORE.SYSTEM.SOLV>
0

>  <SCORE.SYSTEM.norm>
0

>  <SCORE.heavy>
10

>  <SCORE.norm>
-1.75601

>  <RMSD>
2.417

$$$$
ligand
 OpenBabel02271912143D
libRbt.so/2013.1/901 2013/11/27
 10 11  0  0  0  0  0  0  0  0999 V2000
   11.8308   10.5812    8.9089 N   0  0  0  0  0  0  0  0  0  0  0  0
   11.9822    9.4062    8.2108 C   0  0  0  0  0  0  0  0  0  0  0  0
   11.8411    9.3465    6.8854 N   0  0  0  0  0  0  0  0  0  0  0  0
   11.5376   10.5483    6.3175 C   0  0  0  0  0  0  0  0  0  0  0  0
   11.3710   11.7594    6.9599 C   0  0  0  0  0  0  0  0  0  0  0  0
   11.5212   11.8311    8.3719 C   0  0  0  0  0  0  0  0  0  0  0  0
   11.4207   12.7956    9.1398 O   0  0  0  0  0  0  0  0  0  0  0  0
   11.0743   12.7089    6.0230 N   0  0  0  0  0  0  0  0  0  0  0  0
   11.0634   12.0823    4.8236 C   0  0  0  0  0  0  0  0  0  0  0  0
   11.3460   10.7415    4.9724 N   0  0  0  0  0  0  0  0  0  0  0  0
  1  2  1  0  0  0  0
  1  6  1  0  0  0  0
  2  3  2  0  0  0  0
  3  4  1  0  0  0  0
  4  5  2  0  0  0  0
  4 10  1  0  0  0  0
  5  6  1  0  0  0  0
  5  8  1  0  0  0  0
  6  7  2  0  0  0  0
  8  9  1  0  0  0  0
  9 10  2  0  0  0  0
M  END
>  <CHROM.1>
11.49793070,11.20860734,7.10212548,-0.98494409,1.34560697,-2.09903444

>  <Name>
ligand

>  <RI>
0

>  <Rbt.Current_Directory>
/home/itssahil/PROJECTS/Mol_Feturizer/Test_systems_manuscript/rnas/4fe5

>  <Rbt.Executable>
rbdock ($Id: //depot/dev/client3/rdock/2013.1/src/exe/rbdock.cxx#4 $)

>  <Rbt.Library>
libRbt.so (2013.1, Build901 2013/11/27)

>  <Rbt.Parameter_File>
/export/apps/rDock/src/rDock_2013.1_src/data/scripts/dock_solv.prm

>  <Rbt.Receptor>
prm/pocket_docking_6.prm

>  <SCORE>
-17.5337

>  <SCORE.INTER>
-17.5337

>  <SCORE.INTER.CONST>
1

>  <SCORE.INTER.POLAR>
0

>  <SCORE.INTER.ROT>
0

>  <SCORE.INTER.SOLV>
3.93296

>  <SCORE.INTER.VDW>
-16.6001

>  <SCORE.INTER.norm>
-1.75337

>  <SCORE.INTRA>
0

>  <SCORE.INTRA.DIHEDRAL>
0

>  <SCORE.INTRA.DIHEDRAL.0>
0

>  <SCORE.INTRA.POLAR>
0

>  <SCORE.INTRA.POLAR.0>
0

>  <SCORE.INTRA.REPUL>
0

>  <SCORE.INTRA.REPUL.0>
0

>  <SCORE.INTRA.SOLV>
0

>  <SCORE.INTRA.SOLV.lig_0>
-4.28333

>  <SCORE.INTRA.VDW>
0

>  <SCORE.INTRA.VDW.0>
0

>  <SCORE.INTRA.norm>
0

>  <SCORE.RESTR>
0

>  <SCORE.RESTR.CAVITY>
0

>  <SCORE.RESTR.norm>
0

>  <SCORE.SYSTEM>
0

>  <SCORE.SYSTEM.CONST>
0

>  <SCORE.SYSTEM.DIHEDRAL>
0

>  <SCORE.SYSTEM.SOLV>
0

>  <SCORE.SYSTEM.norm>
0

>  <SCORE.heavy>
10

>  <SCORE.norm>
-1.75337

>  <RMSD>
2.417

$$$$
ligand
 OpenBabel02271912143D
libRbt.so/2013.1/901 2013/11/27
 10 11  0  0  0  0  0  0  0  0999 V2000
   11.8379   10.5755    8.9118 N   0  0  0  0  0  0  0  0  0  0  0  0
   12.0031    9.4010    8.2158 C   0  0  0  0  0  0  0  0  0  0  0  0
   11.8621    9.3371    6.8906 N   0  0  0  0  0  0  0  0  0  0  0  0
   11.5439   10.5341    6.3206 C   0  0  0  0  0  0  0  0  0  0  0  0
   11.3630   11.7443    6.9608 C   0  0  0  0  0  0  0  0  0  0  0  0
   11.5130   11.8205    8.3726 C   0  0  0  0  0  0  0  0  0  0  0  0
   11.4013   12.7852    9.1387 O   0  0  0  0  0  0  0  0  0  0  0  0
   11.0544   12.6884    6.0222 N   0  0  0  0  0  0  0  0  0  0  0  0
   11.0505   12.0594    4.8240 C   0  0  0  0  0  0  0  0  0  0  0  0
   11.3493   10.7225    4.9752 N   0  0  0  0  0  0  0  0  0  0  0  0
  1  2  1  0  0  0  0
  1  6  1  0  0  0  0
  2  3  2  0  0  0  0
  3  4  1  0  0  0  0
  4  5  2  0  0  0  0
  4 10  1  0  0  0  0
  5  6  1  0  0  0  0
  5  8  1  0  0  0  0
  6  7  2  0  0  0  0
  8  9  1  0  0  0  0
  9 10  2  0  0  0  0
M  END
>  <CHROM.1>
11.49663942,11.19538659,7.10395860,-1.00912144,1.33488818,-2.07739684

>  <Name>
ligand

>  <RI>
0

>  <Rbt.Current_Directory>
/home/itssahil/PROJECTS/Mol_Feturizer/Test_systems_manuscript/rnas/4fe5

>  <Rbt.Executable>
rbdock ($Id: //depot/dev/client3/rdock/2013.1/src/exe/rbdock.cxx#4 $)

>  <Rbt.Library>
libRbt.so (2013.1, Build901 2013/11/27)

>  <Rbt.Parameter_File>
/export/apps/rDock/src/rDock_2013.1_src/data/scripts/dock_solv.prm

>  <Rbt.Receptor>
prm/pocket_docking_6.prm

>  <SCORE>
-17.5634

>  <SCORE.INTER>
-17.5634

>  <SCORE.INTER.CONST>
1

>  <SCORE.INTER.POLAR>
0

>  <SCORE.INTER.ROT>
0

>  <SCORE.INTER.SOLV>
3.9117

>  <SCORE.INTER.VDW>
-16.6128

>  <SCORE.INTER.norm>
-1.75634

>  <SCORE.INTRA>
0

>  <SCORE.INTRA.DIHEDRAL>
0

>  <SCORE.INTRA.DIHEDRAL.0>
0

>  <SCORE.INTRA.POLAR>
0

>  <SCORE.INTRA.POLAR.0>
0

>  <SCORE.INTRA.REPUL>
0

>  <SCORE.INTRA.REPUL.0>
0

>  <SCORE.INTRA.SOLV>
0

>  <SCORE.INTRA.SOLV.lig_0>
-4.28333

>  <SCORE.INTRA.VDW>
0

>  <SCORE.INTRA.VDW.0>
0

>  <SCORE.INTRA.norm>
0

>  <SCORE.RESTR>
0

>  <SCORE.RESTR.CAVITY>
0

>  <SCORE.RESTR.norm>
0

>  <SCORE.SYSTEM>
0

>  <SCORE.SYSTEM.CONST>
0

>  <SCORE.SYSTEM.DIHEDRAL>
0

>  <SCORE.SYSTEM.SOLV>
0

>  <SCORE.SYSTEM.norm>
0

>  <SCORE.heavy>
10

>  <SCORE.norm>
-1.75634

>  <RMSD>
2.417

$$$$
ligand
 OpenBabel02271912143D
libRbt.so/2013.1/901 2013/11/27
 10 11  0  0  0  0  0  0  0  0999 V2000
   11.8365   10.5687    8.9063 N   0  0  0  0  0  0  0  0  0  0  0  0
   11.9989    9.3963    8.2064 C   0  0  0  0  0  0  0  0  0  0  0  0
   11.8543    9.3365    6.8813 N   0  0  0  0  0  0  0  0  0  0  0  0
   11.5356   10.5354    6.3158 C   0  0  0  0  0  0  0  0  0  0  0  0
   11.3575   11.7439    6.9601 C   0  0  0  0  0  0  0  0  0  0  0  0
   11.5113   11.8157    8.3717 C   0  0  0  0  0  0  0  0  0  0  0  0
   11.4025   12.7782    9.1410 O   0  0  0  0  0  0  0  0  0  0  0  0
   11.0472   12.6911    6.0252 N   0  0  0  0  0  0  0  0  0  0  0  0
   11.0395   12.0657    4.8251 C   0  0  0  0  0  0  0  0  0  0  0  0
   11.3376   10.7280    4.9715 N   0  0  0  0  0  0  0  0  0  0  0  0
  1  2  1  0  0  0  0
  1  6  1  0  0  0  0
  2  3  2  0  0  0  0
  3  4  1  0  0  0  0
  4  5  2  0  0  0  0
  4 10  1  0  0  0  0
  5  6  1  0  0  0  0
  5  8  1  0  0  0  0
  6  7  2  0  0  0  0
  8  9  1  0  0  0  0
  9 10  2  0  0  0  0
M  END
>  <CHROM.1>
11.49101085,11.19439217,7.10124360,-0.99736039,1.33433496,-2.08581693

>  <Name>
ligand

>  <RI>
0

>  <Rbt.Current_Directory>
/home/itssahil/PROJECTS/Mol_Feturizer/Test_systems_manuscript/rnas/4fe5

>  <Rbt.Executable>
rbdock ($Id: //depot/dev/client3/rdock/2013.1/src/exe/rbdock.cxx#4 $)

>  <Rbt.Library>
libRbt.so (2013.1, Build901 2013/11/27)

>  <Rbt.Parameter_File>
/export/apps/rDock/src/rDock_2013.1_src/data/scripts/dock_solv.prm

>  <Rbt.Receptor>
prm/pocket_docking_7.prm

>  <SCORE>
-17.5649

>  <SCORE.INTER>
-17.5649

>  <SCORE.INTER.CONST>
1

>  <SCORE.INTER.POLAR>
0

>  <SCORE.INTER.ROT>
0

>  <SCORE.INTER.SOLV>
3.90434

>  <SCORE.INTER.VDW>
-16.6113

>  <SCORE.INTER.norm>
-1.75649

>  <SCORE.INTRA>
0

>  <SCORE.INTRA.DIHEDRAL>
0

>  <SCORE.INTRA.DIHEDRAL.0>
0

>  <SCORE.INTRA.POLAR>
0

>  <SCORE.INTRA.POLAR.0>
0

>  <SCORE.INTRA.REPUL>
0

>  <SCORE.INTRA.REPUL.0>
0

>  <SCORE.INTRA.SOLV>
0

>  <SCORE.INTRA.SOLV.lig_0>
-4.28333

>  <SCORE.INTRA.VDW>
0

>  <SCORE.INTRA.VDW.0>
0

>  <SCORE.INTRA.norm>
0

>  <SCORE.RESTR>
0

>  <SCORE.RESTR.CAVITY>
0

>  <SCORE.RESTR.norm>
0

>  <SCORE.SYSTEM>
0

>  <SCORE.SYSTEM.CONST>
0

>  <SCORE.SYSTEM.DIHEDRAL>
0

>  <SCORE.SYSTEM.SOLV>
0

>  <SCORE.SYSTEM.norm>
0

>  <SCORE.heavy>
10

>  <SCORE.norm>
-1.75649

>  <RMSD>
2.417

$$$$
ligand
 OpenBabel02271912143D
libRbt.so/2013.1/901 2013/11/27
 10 11  0  0  0  0  0  0  0  0999 V2000
   11.8321   10.5732    8.9079 N   0  0  0  0  0  0  0  0  0  0  0  0
   11.9955    9.3992    8.2107 C   0  0  0  0  0  0  0  0  0  0  0  0
   11.8534    9.3367    6.8855 N   0  0  0  0  0  0  0  0  0  0  0  0
   11.5359   10.5345    6.3169 C   0  0  0  0  0  0  0  0  0  0  0  0
   11.3568   11.7443    6.9583 C   0  0  0  0  0  0  0  0  0  0  0  0
   11.5080   11.8191    8.3700 C   0  0  0  0  0  0  0  0  0  0  0  0
   11.3980   12.7832    9.1371 O   0  0  0  0  0  0  0  0  0  0  0  0
   11.0484   12.6896    6.0208 N   0  0  0  0  0  0  0  0  0  0  0  0
   11.0427   12.0616    4.8221 C   0  0  0  0  0  0  0  0  0  0  0  0
   11.3403   10.7243    4.9718 N   0  0  0  0  0  0  0  0  0  0  0  0
  1  2  1  0  0  0  0
  1  6  1  0  0  0  0
  2  3  2  0  0  0  0
  3  4  1  0  0  0  0
  4  5  2  0  0  0  0
  4 10  1  0  0  0  0
  5  6  1  0  0  0  0
  5  8  1  0  0  0  0
  6  7  2  0  0  0  0
  8  9  1  0  0  0  0
  9 10  2  0  0  0  0
M  END
>  <CHROM.1>
11.48995132,11.19508655,7.10086772,-1.00383059,1.33537851,-2.08163951

>  <Name>
ligand

>  <RI>
0

>  <Rbt.Current_Directory>
/home/itssahil/PROJECTS/Mol_Feturizer/Test_systems_manuscript/rnas/4fe5

>  <Rbt.Executable>
rbdock ($Id: //depot/dev/client3/rdock/2013.1/src/exe/rbdock.cxx#4 $)

>  <Rbt.Library>
libRbt.so (2013.1, Build901 2013/11/27)

>  <Rbt.Parameter_File>
/export/apps/rDock/src/rDock_2013.1_src/data/scripts/dock_solv.prm

>  <Rbt.Receptor>
prm/pocket_docking_7.prm

>  <SCORE>
-17.5652

>  <SCORE.INTER>
-17.5652

>  <SCORE.INTER.CONST>
1

>  <SCORE.INTER.POLAR>
0

>  <SCORE.INTER.ROT>
0

>  <SCORE.INTER.SOLV>
3.9119

>  <SCORE.INTER.VDW>
-16.6141

>  <SCORE.INTER.norm>
-1.75652

>  <SCORE.INTRA>
0

>  <SCORE.INTRA.DIHEDRAL>
0

>  <SCORE.INTRA.DIHEDRAL.0>
0

>  <SCORE.INTRA.POLAR>
0

>  <SCORE.INTRA.POLAR.0>
0

>  <SCORE.INTRA.REPUL>
0

>  <SCORE.INTRA.REPUL.0>
0

>  <SCORE.INTRA.SOLV>
0

>  <SCORE.INTRA.SOLV.lig_0>
-4.28333

>  <SCORE.INTRA.VDW>
0

>  <SCORE.INTRA.VDW.0>
0

>  <SCORE.INTRA.norm>
0

>  <SCORE.RESTR>
0

>  <SCORE.RESTR.CAVITY>
0

>  <SCORE.RESTR.norm>
0

>  <SCORE.SYSTEM>
0

>  <SCORE.SYSTEM.CONST>
0

>  <SCORE.SYSTEM.DIHEDRAL>
0

>  <SCORE.SYSTEM.SOLV>
0

>  <SCORE.SYSTEM.norm>
0

>  <SCORE.heavy>
10

>  <SCORE.norm>
-1.75652

>  <RMSD>
2.417

$$$$
ligand
 OpenBabel02271912143D
libRbt.so/2013.1/901 2013/11/27
 10 11  0  0  0  0  0  0  0  0999 V2000
   11.8387   10.5851    8.9074 N   0  0  0  0  0  0  0  0  0  0  0  0
   11.9986    9.4079    8.2148 C   0  0  0  0  0  0  0  0  0  0  0  0
   11.8530    9.3399    6.8903 N   0  0  0  0  0  0  0  0  0  0  0  0
   11.5358   10.5358    6.3174 C   0  0  0  0  0  0  0  0  0  0  0  0
   11.3602   11.7486    6.9541 C   0  0  0  0  0  0  0  0  0  0  0  0
   11.5151   11.8291    8.3651 C   0  0  0  0  0  0  0  0  0  0  0  0
   11.4084   12.7966    9.1284 O   0  0  0  0  0  0  0  0  0  0  0  0
   11.0507   12.6904    6.0134 N   0  0  0  0  0  0  0  0  0  0  0  0
   11.0411   12.0574    4.8174 C   0  0  0  0  0  0  0  0  0  0  0  0
   11.3371   10.7202    4.9720 N   0  0  0  0  0  0  0  0  0  0  0  0
  1  2  1  0  0  0  0
  1  6  1  0  0  0  0
  2  3  2  0  0  0  0
  3  4  1  0  0  0  0
  4  5  2  0  0  0  0
  4 10  1  0  0  0  0
  5  6  1  0  0  0  0
  5  8  1  0  0  0  0
  6  7  2  0  0  0  0
  8  9  1  0  0  0  0
  9 10  2  0  0  0  0
M  END
>  <CHROM.1>
11.49286197,11.19981307,7.09865580,-0.99121197,1.33539808,-2.09814468

>  <Name>
ligand

>  <RI>
0

>  <Rbt.Current_Directory>
/home/itssahil/PROJECTS/Mol_Feturizer/Test_systems_manuscript/rnas/4fe5

>  <Rbt.Executable>
rbdock ($Id: //depot/dev/client3/rdock/2013.1/src/exe/rbdock.cxx#4 $)

>  <Rbt.Library>
libRbt.so (2013.1, Build901 2013/11/27)

>  <Rbt.Parameter_File>
/export/apps/rDock/src/rDock_2013.1_src/data/scripts/dock_solv.prm

>  <Rbt.Receptor>
prm/pocket_docking_8.prm

>  <SCORE>
-17.5647

>  <SCORE.INTER>
-17.5647

>  <SCORE.INTER.CONST>
1

>  <SCORE.INTER.POLAR>
0

>  <SCORE.INTER.ROT>
0

>  <SCORE.INTER.SOLV>
3.92288

>  <SCORE.INTER.VDW>
-16.6174

>  <SCORE.INTER.norm>
-1.75647

>  <SCORE.INTRA>
0

>  <SCORE.INTRA.DIHEDRAL>
0

>  <SCORE.INTRA.DIHEDRAL.0>
0

>  <SCORE.INTRA.POLAR>
0

>  <SCORE.INTRA.POLAR.0>
0

>  <SCORE.INTRA.REPUL>
0

>  <SCORE.INTRA.REPUL.0>
0

>  <SCORE.INTRA.SOLV>
0

>  <SCORE.INTRA.SOLV.lig_0>
-4.28333

>  <SCORE.INTRA.VDW>
0

>  <SCORE.INTRA.VDW.0>
0

>  <SCORE.INTRA.norm>
0

>  <SCORE.RESTR>
0

>  <SCORE.RESTR.CAVITY>
0

>  <SCORE.RESTR.norm>
0

>  <SCORE.SYSTEM>
0

>  <SCORE.SYSTEM.CONST>
0

>  <SCORE.SYSTEM.DIHEDRAL>
0

>  <SCORE.SYSTEM.SOLV>
0

>  <SCORE.SYSTEM.norm>
0

>  <SCORE.heavy>
10

>  <SCORE.norm>
-1.75647

>  <RMSD>
2.417

$$$$
ligand
 OpenBabel02271912143D
libRbt.so/2013.1/901 2013/11/27
 10 11  0  0  0  0  0  0  0  0999 V2000
   11.8379   10.5712    8.9091 N   0  0  0  0  0  0  0  0  0  0  0  0
   11.9973    9.3981    8.2096 C   0  0  0  0  0  0  0  0  0  0  0  0
   11.8511    9.3380    6.8847 N   0  0  0  0  0  0  0  0  0  0  0  0
   11.5341   10.5373    6.3190 C   0  0  0  0  0  0  0  0  0  0  0  0
   11.3589   11.7463    6.9629 C   0  0  0  0  0  0  0  0  0  0  0  0
   11.5144   11.8185    8.3743 C   0  0  0  0  0  0  0  0  0  0  0  0
   11.4083   12.7816    9.1432 O   0  0  0  0  0  0  0  0  0  0  0  0
   11.0494   12.6937    6.0278 N   0  0  0  0  0  0  0  0  0  0  0  0
   11.0392   12.0677    4.8281 C   0  0  0  0  0  0  0  0  0  0  0  0
   11.3349   10.7296    4.9748 N   0  0  0  0  0  0  0  0  0  0  0  0
  1  2  1  0  0  0  0
  1  6  1  0  0  0  0
  2  3  2  0  0  0  0
  3  4  1  0  0  0  0
  4  5  2  0  0  0  0
  4 10  1  0  0  0  0
  5  6  1  0  0  0  0
  5  8  1  0  0  0  0
  6  7  2  0  0  0  0
  8  9  1  0  0  0  0
  9 10  2  0  0  0  0
M  END
>  <CHROM.1>
11.49157058,11.19666928,7.10414647,-0.98927545,1.33542994,-2.09416318

>  <Name>
ligand

>  <RI>
0

>  <Rbt.Current_Directory>
/home/itssahil/PROJECTS/Mol_Feturizer/Test_systems_manuscript/rnas/4fe5

>  <Rbt.Executable>
rbdock ($Id: //depot/dev/client3/rdock/2013.1/src/exe/rbdock.cxx#4 $)

>  <Rbt.Library>
libRbt.so (2013.1, Build901 2013/11/27)

>  <Rbt.Parameter_File>
/export/apps/rDock/src/rDock_2013.1_src/data/scripts/dock_solv.prm

>  <Rbt.Receptor>
prm/pocket_docking_8.prm

>  <SCORE>
-17.5625

>  <SCORE.INTER>
-17.5625

>  <SCORE.INTER.CONST>
1

>  <SCORE.INTER.POLAR>
0

>  <SCORE.INTER.ROT>
0

>  <SCORE.INTER.SOLV>
3.90818

>  <SCORE.INTER.VDW>
-16.611

>  <SCORE.INTER.norm>
-1.75625

>  <SCORE.INTRA>
0

>  <SCORE.INTRA.DIHEDRAL>
0

>  <SCORE.INTRA.DIHEDRAL.0>
0

>  <SCORE.INTRA.POLAR>
0

>  <SCORE.INTRA.POLAR.0>
0

>  <SCORE.INTRA.REPUL>
0

>  <SCORE.INTRA.REPUL.0>
0

>  <SCORE.INTRA.SOLV>
0

>  <SCORE.INTRA.SOLV.lig_0>
-4.28333

>  <SCORE.INTRA.VDW>
0

>  <SCORE.INTRA.VDW.0>
0

>  <SCORE.INTRA.norm>
0

>  <SCORE.RESTR>
0

>  <SCORE.RESTR.CAVITY>
0

>  <SCORE.RESTR.norm>
0

>  <SCORE.SYSTEM>
0

>  <SCORE.SYSTEM.CONST>
0

>  <SCORE.SYSTEM.DIHEDRAL>
0

>  <SCORE.SYSTEM.SOLV>
0

>  <SCORE.SYSTEM.norm>
0

>  <SCORE.heavy>
10

>  <SCORE.norm>
-1.75625

>  <RMSD>
2.417

$$$$
ligand
 OpenBabel02271912143D
libRbt.so/2013.1/901 2013/11/27
 10 11  0  0  0  0  0  0  0  0999 V2000
   11.8574   10.5595    8.9024 N   0  0  0  0  0  0  0  0  0  0  0  0
   12.0320    9.3933    8.1949 C   0  0  0  0  0  0  0  0  0  0  0  0
   11.8862    9.3401    6.8697 N   0  0  0  0  0  0  0  0  0  0  0  0
   11.5532   10.5389    6.3121 C   0  0  0  0  0  0  0  0  0  0  0  0
   11.3624   11.7412    6.9642 C   0  0  0  0  0  0  0  0  0  0  0  0
   11.5174   11.8060    8.3760 C   0  0  0  0  0  0  0  0  0  0  0  0
   11.3989   12.7624    9.1515 O   0  0  0  0  0  0  0  0  0  0  0  0
   11.0401   12.6907    6.0356 N   0  0  0  0  0  0  0  0  0  0  0  0
   11.0377   12.0727    4.8317 C   0  0  0  0  0  0  0  0  0  0  0  0
   11.3510   10.7376    4.9693 N   0  0  0  0  0  0  0  0  0  0  0  0
  1  2  1  0  0  0  0
  1  6  1  0  0  0  0
  2  3  2  0  0  0  0
  3  4  1  0  0  0  0
  4  5  2  0  0  0  0
  4 10  1  0  0  0  0
  5  6  1  0  0  0  0
  5  8  1  0  0  0  0
  6  7  2  0  0  0  0
  8  9  1  0  0  0  0
  9 10  2  0  0  0  0
M  END
>  <CHROM.1>
11.50229058,11.19243156,7.10172882,-1.01492513,1.32379766,-2.06253298

>  <Name>
ligand

>  <RI>
0

>  <Rbt.Current_Directory>
/home/itssahil/PROJECTS/Mol_Feturizer/Test_systems_manuscript/rnas/4fe5

>  <Rbt.Executable>
rbdock ($Id: //depot/dev/client3/rdock/2013.1/src/exe/rbdock.cxx#4 $)

>  <Rbt.Library>
libRbt.so (2013.1, Build901 2013/11/27)

>  <Rbt.Parameter_File>
/export/apps/rDock/src/rDock_2013.1_src/data/scripts/dock_solv.prm

>  <Rbt.Receptor>
prm/pocket_docking_8.prm

>  <SCORE>
-17.5225

>  <SCORE.INTER>
-17.5225

>  <SCORE.INTER.CONST>
1

>  <SCORE.INTER.POLAR>
0

>  <SCORE.INTER.ROT>
0

>  <SCORE.INTER.SOLV>
3.87073

>  <SCORE.INTER.VDW>
-16.5719

>  <SCORE.INTER.norm>
-1.75225

>  <SCORE.INTRA>
0

>  <SCORE.INTRA.DIHEDRAL>
0

>  <SCORE.INTRA.DIHEDRAL.0>
0

>  <SCORE.INTRA.POLAR>
0

>  <SCORE.INTRA.POLAR.0>
0

>  <SCORE.INTRA.REPUL>
0

>  <SCORE.INTRA.REPUL.0>
0

>  <SCORE.INTRA.SOLV>
0

>  <SCORE.INTRA.SOLV.lig_0>
-4.28333

>  <SCORE.INTRA.VDW>
0

>  <SCORE.INTRA.VDW.0>
0

>  <SCORE.INTRA.norm>
0

>  <SCORE.RESTR>
0

>  <SCORE.RESTR.CAVITY>
0

>  <SCORE.RESTR.norm>
0

>  <SCORE.SYSTEM>
0

>  <SCORE.SYSTEM.CONST>
0

>  <SCORE.SYSTEM.DIHEDRAL>
0

>  <SCORE.SYSTEM.SOLV>
0

>  <SCORE.SYSTEM.norm>
0

>  <SCORE.heavy>
10

>  <SCORE.norm>
-1.75225

>  <RMSD>
2.417

$$$$
ligand
 OpenBabel02271912143D
libRbt.so/2013.1/901 2013/11/27
 10 11  0  0  0  0  0  0  0  0999 V2000
   11.8412   10.5948    8.8977 N   0  0  0  0  0  0  0  0  0  0  0  0
   12.0050    9.4181    8.2054 C   0  0  0  0  0  0  0  0  0  0  0  0
   11.8652    9.3505    6.8802 N   0  0  0  0  0  0  0  0  0  0  0  0
   11.5497   10.5464    6.3064 C   0  0  0  0  0  0  0  0  0  0  0  0
   11.3703   11.7588    6.9429 C   0  0  0  0  0  0  0  0  0  0  0  0
   11.5191   11.8389    8.3546 C   0  0  0  0  0  0  0  0  0  0  0  0
   11.4083   12.8060    9.1178 O   0  0  0  0  0  0  0  0  0  0  0  0
   11.0643   12.7007    6.0012 N   0  0  0  0  0  0  0  0  0  0  0  0
   11.0604   12.0682    4.8049 C   0  0  0  0  0  0  0  0  0  0  0  0
   11.3567   10.7312    4.9603 N   0  0  0  0  0  0  0  0  0  0  0  0
  1  2  1  0  0  0  0
  1  6  1  0  0  0  0
  2  3  2  0  0  0  0
  3  4  1  0  0  0  0
  4  5  2  0  0  0  0
  4 10  1  0  0  0  0
  5  6  1  0  0  0  0
  5  8  1  0  0  0  0
  6  7  2  0  0  0  0
  8  9  1  0  0  0  0
  9 10  2  0  0  0  0
M  END
>  <CHROM.1>
11.50280734,11.21004924,7.08777007,-1.00902001,1.33690781,-2.08042290

>  <Name>
ligand

>  <RI>
0

>  <Rbt.Current_Directory>
/home/itssahil/PROJECTS/Mol_Feturizer/Test_systems_manuscript/rnas/4fe5

>  <Rbt.Executable>
rbdock ($Id: //depot/dev/client3/rdock/2013.1/src/exe/rbdock.cxx#4 $)

>  <Rbt.Library>
libRbt.so (2013.1, Build901 2013/11/27)

>  <Rbt.Parameter_File>
/export/apps/rDock/src/rDock_2013.1_src/data/scripts/dock_solv.prm

>  <Rbt.Receptor>
prm/blind_docking_100.prm

>  <SCORE>
-17.5364

>  <SCORE.INTER>
-17.5364

>  <SCORE.INTER.CONST>
1

>  <SCORE.INTER.POLAR>
0

>  <SCORE.INTER.ROT>
0

>  <SCORE.INTER.SOLV>
3.92847

>  <SCORE.INTER.VDW>
-16.6004

>  <SCORE.INTER.norm>
-1.75364

>  <SCORE.INTRA>
0

>  <SCORE.INTRA.DIHEDRAL>
0

>  <SCORE.INTRA.DIHEDRAL.0>
0

>  <SCORE.INTRA.POLAR>
0

>  <SCORE.INTRA.POLAR.0>
0

>  <SCORE.INTRA.REPUL>
0

>  <SCORE.INTRA.REPUL.0>
0

>  <SCORE.INTRA.SOLV>
0

>  <SCORE.INTRA.SOLV.lig_0>
-4.28333

>  <SCORE.INTRA.VDW>
0

>  <SCORE.INTRA.VDW.0>
0

>  <SCORE.INTRA.norm>
0

>  <SCORE.RESTR>
0

>  <SCORE.RESTR.CAVITY>
0

>  <SCORE.RESTR.norm>
0

>  <SCORE.SYSTEM>
0

>  <SCORE.SYSTEM.CONST>
0

>  <SCORE.SYSTEM.DIHEDRAL>
0

>  <SCORE.SYSTEM.SOLV>
0

>  <SCORE.SYSTEM.norm>
0

>  <SCORE.heavy>
10

>  <SCORE.norm>
-1.75364

>  <RMSD>
2.418

$$$$
ligand
 OpenBabel02271912143D
libRbt.so/2013.1/901 2013/11/27
 10 11  0  0  0  0  0  0  0  0999 V2000
   11.8373   10.5826    8.9016 N   0  0  0  0  0  0  0  0  0  0  0  0
   11.9996    9.4071    8.2067 C   0  0  0  0  0  0  0  0  0  0  0  0
   11.8536    9.3413    6.8821 N   0  0  0  0  0  0  0  0  0  0  0  0
   11.5336   10.5375    6.3116 C   0  0  0  0  0  0  0  0  0  0  0  0
   11.3554   11.7487    6.9507 C   0  0  0  0  0  0  0  0  0  0  0  0
   11.5107   11.8270    8.3618 C   0  0  0  0  0  0  0  0  0  0  0  0
   11.4021   12.7928    9.1269 O   0  0  0  0  0  0  0  0  0  0  0  0
   11.0435   12.6916    6.0119 N   0  0  0  0  0  0  0  0  0  0  0  0
   11.0349   12.0608    4.8147 C   0  0  0  0  0  0  0  0  0  0  0  0
   11.3339   10.7240    4.9666 N   0  0  0  0  0  0  0  0  0  0  0  0
  1  2  1  0  0  0  0
  1  6  1  0  0  0  0
  2  3  2  0  0  0  0
  3  4  1  0  0  0  0
  4  5  2  0  0  0  0
  4 10  1  0  0  0  0
  5  6  1  0  0  0  0
  5  8  1  0  0  0  0
  6  7  2  0  0  0  0
  8  9  1  0  0  0  0
  9 10  2  0  0  0  0
M  END
>  <CHROM.1>
11.48940169,11.19996961,7.09413891,-0.99466737,1.33325195,-2.09290386

>  <Name>
ligand

>  <RI>
0

>  <Rbt.Current_Directory>
/home/itssahil/PROJECTS/Mol_Feturizer/Test_systems_manuscript/rnas/4fe5

>  <Rbt.Executable>
rbdock ($Id: //depot/dev/client3/rdock/2013.1/src/exe/rbdock.cxx#4 $)

>  <Rbt.Library>
libRbt.so (2013.1, Build901 2013/11/27)

>  <Rbt.Parameter_File>
/export/apps/rDock/src/rDock_2013.1_src/data/scripts/dock_solv.prm

>  <Rbt.Receptor>
prm/blind_docking_100.prm

>  <SCORE>
-17.5662

>  <SCORE.INTER>
-17.5662

>  <SCORE.INTER.CONST>
1

>  <SCORE.INTER.POLAR>
0

>  <SCORE.INTER.ROT>
0

>  <SCORE.INTER.SOLV>
3.91678

>  <SCORE.INTER.VDW>
-16.6164

>  <SCORE.INTER.norm>
-1.75662

>  <SCORE.INTRA>
0

>  <SCORE.INTRA.DIHEDRAL>
0

>  <SCORE.INTRA.DIHEDRAL.0>
0

>  <SCORE.INTRA.POLAR>
0

>  <SCORE.INTRA.POLAR.0>
0

>  <SCORE.INTRA.REPUL>
0

>  <SCORE.INTRA.REPUL.0>
0

>  <SCORE.INTRA.SOLV>
0

>  <SCORE.INTRA.SOLV.lig_0>
-4.28333

>  <SCORE.INTRA.VDW>
0

>  <SCORE.INTRA.VDW.0>
0

>  <SCORE.INTRA.norm>
0

>  <SCORE.RESTR>
0

>  <SCORE.RESTR.CAVITY>
0

>  <SCORE.RESTR.norm>
0

>  <SCORE.SYSTEM>
0

>  <SCORE.SYSTEM.CONST>
0

>  <SCORE.SYSTEM.DIHEDRAL>
0

>  <SCORE.SYSTEM.SOLV>
0

>  <SCORE.SYSTEM.norm>
0

>  <SCORE.heavy>
10

>  <SCORE.norm>
-1.75662

>  <RMSD>
2.418

$$$$
ligand
 OpenBabel02271912143D
libRbt.so/2013.1/901 2013/11/27
 10 11  0  0  0  0  0  0  0  0999 V2000
   11.8328   10.5746    8.9082 N   0  0  0  0  0  0  0  0  0  0  0  0
   12.0056    9.4019    8.2111 C   0  0  0  0  0  0  0  0  0  0  0  0
   11.8675    9.3389    6.8855 N   0  0  0  0  0  0  0  0  0  0  0  0
   11.5441   10.5349    6.3164 C   0  0  0  0  0  0  0  0  0  0  0  0
   11.3557   11.7434    6.9577 C   0  0  0  0  0  0  0  0  0  0  0  0
   11.5024   11.8186    8.3699 C   0  0  0  0  0  0  0  0  0  0  0  0
   11.3842   12.7817    9.1370 O   0  0  0  0  0  0  0  0  0  0  0  0
   11.0440   12.6870    6.0197 N   0  0  0  0  0  0  0  0  0  0  0  0
   11.0456   12.0595    4.8208 C   0  0  0  0  0  0  0  0  0  0  0  0
   11.3512   10.7239    4.9709 N   0  0  0  0  0  0  0  0  0  0  0  0
  1  2  1  0  0  0  0
  1  6  1  0  0  0  0
  2  3  2  0  0  0  0
  3  4  1  0  0  0  0
  4  5  2  0  0  0  0
  4 10  1  0  0  0  0
  5  6  1  0  0  0  0
  5  8  1  0  0  0  0
  6  7  2  0  0  0  0
  8  9  1  0  0  0  0
  9 10  2  0  0  0  0
M  END
>  <CHROM.1>
11.49185459,11.19495397,7.10048245,-1.02709547,1.33121361,-2.05868508

>  <Name>
ligand

>  <RI>
0

>  <Rbt.Current_Directory>
/home/itssahil/PROJECTS/Mol_Feturizer/Test_systems_manuscript/rnas/4fe5

>  <Rbt.Executable>
rbdock ($Id: //depot/dev/client3/rdock/2013.1/src/exe/rbdock.cxx#4 $)

>  <Rbt.Library>
libRbt.so (2013.1, Build901 2013/11/27)

>  <Rbt.Parameter_File>
/export/apps/rDock/src/rDock_2013.1_src/data/scripts/dock_solv.prm

>  <Rbt.Receptor>
prm/blind_docking_100.prm

>  <SCORE>
-17.563

>  <SCORE.INTER>
-17.563

>  <SCORE.INTER.CONST>
1

>  <SCORE.INTER.POLAR>
0

>  <SCORE.INTER.ROT>
0

>  <SCORE.INTER.SOLV>
3.90585

>  <SCORE.INTER.VDW>
-16.6106

>  <SCORE.INTER.norm>
-1.7563

>  <SCORE.INTRA>
0

>  <SCORE.INTRA.DIHEDRAL>
0

>  <SCORE.INTRA.DIHEDRAL.0>
0

>  <SCORE.INTRA.POLAR>
0

>  <SCORE.INTRA.POLAR.0>
0

>  <SCORE.INTRA.REPUL>
0

>  <SCORE.INTRA.REPUL.0>
0

>  <SCORE.INTRA.SOLV>
0

>  <SCORE.INTRA.SOLV.lig_0>
-4.28333

>  <SCORE.INTRA.VDW>
0

>  <SCORE.INTRA.VDW.0>
0

>  <SCORE.INTRA.norm>
0

>  <SCORE.RESTR>
0

>  <SCORE.RESTR.CAVITY>
0

>  <SCORE.RESTR.norm>
0

>  <SCORE.SYSTEM>
0

>  <SCORE.SYSTEM.CONST>
0

>  <SCORE.SYSTEM.DIHEDRAL>
0

>  <SCORE.SYSTEM.SOLV>
0

>  <SCORE.SYSTEM.norm>
0

>  <SCORE.heavy>
10

>  <SCORE.norm>
-1.7563

>  <RMSD>
2.418

$$$$
ligand
 OpenBabel02271912143D
libRbt.so/2013.1/901 2013/11/27
 10 11  0  0  0  0  0  0  0  0999 V2000
   11.8376   10.5879    8.9111 N   0  0  0  0  0  0  0  0  0  0  0  0
   12.0046    9.4107    8.2203 C   0  0  0  0  0  0  0  0  0  0  0  0
   11.8641    9.3408    6.8953 N   0  0  0  0  0  0  0  0  0  0  0  0
   11.5444   10.5349    6.3200 C   0  0  0  0  0  0  0  0  0  0  0  0
   11.3616   11.7476    6.9549 C   0  0  0  0  0  0  0  0  0  0  0  0
   11.5111   11.8301    8.3664 C   0  0  0  0  0  0  0  0  0  0  0  0
   11.3978   12.7980    9.1283 O   0  0  0  0  0  0  0  0  0  0  0  0
   11.0520   12.6872    6.0121 N   0  0  0  0  0  0  0  0  0  0  0  0
   11.0492   12.0530    4.8167 C   0  0  0  0  0  0  0  0  0  0  0  0
   11.3499   10.7171    4.9737 N   0  0  0  0  0  0  0  0  0  0  0  0
  1  2  1  0  0  0  0
  1  6  1  0  0  0  0
  2  3  2  0  0  0  0
  3  4  1  0  0  0  0
  4  5  2  0  0  0  0
  4 10  1  0  0  0  0
  5  6  1  0  0  0  0
  5  8  1  0  0  0  0
  6  7  2  0  0  0  0
  8  9  1  0  0  0  0
  9 10  2  0  0  0  0
M  END
>  <CHROM.1>
11.49595514,11.19946886,7.10046376,-1.01307545,1.33379679,-2.07789735

>  <Name>
ligand

>  <RI>
0

>  <Rbt.Current_Directory>
/home/itssahil/PROJECTS/Mol_Feturizer/Test_systems_manuscript/rnas/4fe5

>  <Rbt.Executable>
rbdock ($Id: //depot/dev/client3/rdock/2013.1/src/exe/rbdock.cxx#4 $)

>  <Rbt.Library>
libRbt.so (2013.1, Build901 2013/11/27)

>  <Rbt.Parameter_File>
/export/apps/rDock/src/rDock_2013.1_src/data/scripts/dock_solv.prm

>  <Rbt.Receptor>
prm/blind_docking_40.prm

>  <SCORE>
-17.5621

>  <SCORE.INTER>
-17.5621

>  <SCORE.INTER.CONST>
1

>  <SCORE.INTER.POLAR>
0

>  <SCORE.INTER.ROT>
0

>  <SCORE.INTER.SOLV>
3.92283

>  <SCORE.INTER.VDW>
-16.6157

>  <SCORE.INTER.norm>
-1.75621

>  <SCORE.INTRA>
0

>  <SCORE.INTRA.DIHEDRAL>
0

>  <SCORE.INTRA.DIHEDRAL.0>
0

>  <SCORE.INTRA.POLAR>
0

>  <SCORE.INTRA.POLAR.0>
0

>  <SCORE.INTRA.REPUL>
0

>  <SCORE.INTRA.REPUL.0>
0

>  <SCORE.INTRA.SOLV>
0

>  <SCORE.INTRA.SOLV.lig_0>
-4.28333

>  <SCORE.INTRA.VDW>
0

>  <SCORE.INTRA.VDW.0>
0

>  <SCORE.INTRA.norm>
0

>  <SCORE.RESTR>
0

>  <SCORE.RESTR.CAVITY>
0

>  <SCORE.RESTR.norm>
0

>  <SCORE.SYSTEM>
0

>  <SCORE.SYSTEM.CONST>
0

>  <SCORE.SYSTEM.DIHEDRAL>
0

>  <SCORE.SYSTEM.SOLV>
0

>  <SCORE.SYSTEM.norm>
0

>  <SCORE.heavy>
10

>  <SCORE.norm>
-1.75621

>  <RMSD>
2.418

$$$$
ligand
 OpenBabel02271912143D
libRbt.so/2013.1/901 2013/11/27
 10 11  0  0  0  0  0  0  0  0999 V2000
   11.8310   10.5867    8.9101 N   0  0  0  0  0  0  0  0  0  0  0  0
   11.9906    9.4084    8.2193 C   0  0  0  0  0  0  0  0  0  0  0  0
   11.8480    9.3391    6.8945 N   0  0  0  0  0  0  0  0  0  0  0  0
   11.5344   10.5349    6.3194 C   0  0  0  0  0  0  0  0  0  0  0  0
   11.3593   11.7487    6.9543 C   0  0  0  0  0  0  0  0  0  0  0  0
   11.5110   11.8307    8.3656 C   0  0  0  0  0  0  0  0  0  0  0  0
   11.4041   12.7993    9.1274 O   0  0  0  0  0  0  0  0  0  0  0  0
   11.0539   12.6899    6.0117 N   0  0  0  0  0  0  0  0  0  0  0  0
   11.0461   12.0555    4.8164 C   0  0  0  0  0  0  0  0  0  0  0  0
   11.3393   10.7180    4.9734 N   0  0  0  0  0  0  0  0  0  0  0  0
  1  2  1  0  0  0  0
  1  6  1  0  0  0  0
  2  3  2  0  0  0  0
  3  4  1  0  0  0  0
  4  5  2  0  0  0  0
  4 10  1  0  0  0  0
  5  6  1  0  0  0  0
  5  8  1  0  0  0  0
  6  7  2  0  0  0  0
  8  9  1  0  0  0  0
  9 10  2  0  0  0  0
M  END
>  <CHROM.1>
11.49071651,11.19986868,7.09981911,-0.99650410,1.33815705,-2.09419267

>  <Name>
ligand

>  <RI>
0

>  <Rbt.Current_Directory>
/home/itssahil/PROJECTS/Mol_Feturizer/Test_systems_manuscript/rnas/4fe5

>  <Rbt.Executable>
rbdock ($Id: //depot/dev/client3/rdock/2013.1/src/exe/rbdock.cxx#4 $)

>  <Rbt.Library>
libRbt.so (2013.1, Build901 2013/11/27)

>  <Rbt.Parameter_File>
/export/apps/rDock/src/rDock_2013.1_src/data/scripts/dock_solv.prm

>  <Rbt.Receptor>
prm/blind_docking_40.prm

>  <SCORE>
-17.5644

>  <SCORE.INTER>
-17.5644

>  <SCORE.INTER.CONST>
1

>  <SCORE.INTER.POLAR>
0

>  <SCORE.INTER.ROT>
0

>  <SCORE.INTER.SOLV>
3.93065

>  <SCORE.INTER.VDW>
-16.6198

>  <SCORE.INTER.norm>
-1.75644

>  <SCORE.INTRA>
0

>  <SCORE.INTRA.DIHEDRAL>
0

>  <SCORE.INTRA.DIHEDRAL.0>
0

>  <SCORE.INTRA.POLAR>
0

>  <SCORE.INTRA.POLAR.0>
0

>  <SCORE.INTRA.REPUL>
0

>  <SCORE.INTRA.REPUL.0>
0

>  <SCORE.INTRA.SOLV>
0

>  <SCORE.INTRA.SOLV.lig_0>
-4.28333

>  <SCORE.INTRA.VDW>
0

>  <SCORE.INTRA.VDW.0>
0

>  <SCORE.INTRA.norm>
0

>  <SCORE.RESTR>
0

>  <SCORE.RESTR.CAVITY>
0

>  <SCORE.RESTR.norm>
0

>  <SCORE.SYSTEM>
0

>  <SCORE.SYSTEM.CONST>
0

>  <SCORE.SYSTEM.DIHEDRAL>
0

>  <SCORE.SYSTEM.SOLV>
0

>  <SCORE.SYSTEM.norm>
0

>  <SCORE.heavy>
10

>  <SCORE.norm>
-1.75644

>  <RMSD>
2.418

$$$$
ligand
 OpenBabel02271912143D
libRbt.so/2013.1/901 2013/11/27
 10 11  0  0  0  0  0  0  0  0999 V2000
   11.8317   10.5760    8.9092 N   0  0  0  0  0  0  0  0  0  0  0  0
   11.9998    9.4016    8.2138 C   0  0  0  0  0  0  0  0  0  0  0  0
   11.8607    9.3371    6.8884 N   0  0  0  0  0  0  0  0  0  0  0  0
   11.5412   10.5333    6.3177 C   0  0  0  0  0  0  0  0  0  0  0  0
   11.3575   11.7434    6.9572 C   0  0  0  0  0  0  0  0  0  0  0  0
   11.5055   11.8204    8.3692 C   0  0  0  0  0  0  0  0  0  0  0  0
   11.3912   12.7851    9.1348 O   0  0  0  0  0  0  0  0  0  0  0  0
   11.0485   12.6868    6.0179 N   0  0  0  0  0  0  0  0  0  0  0  0
   11.0472   12.0574    4.8200 C   0  0  0  0  0  0  0  0  0  0  0  0
   11.3480   10.7210    4.9719 N   0  0  0  0  0  0  0  0  0  0  0  0
  1  2  1  0  0  0  0
  1  6  1  0  0  0  0
  2  3  2  0  0  0  0
  3  4  1  0  0  0  0
  4  5  2  0  0  0  0
  4 10  1  0  0  0  0
  5  6  1  0  0  0  0
  5  8  1  0  0  0  0
  6  7  2  0  0  0  0
  8  9  1  0  0  0  0
  9 10  2  0  0  0  0
M  END
>  <CHROM.1>
11.49180653,11.19478590,7.10072900,-1.01742889,1.33405960,-2.06963445

>  <Name>
ligand

>  <RI>
0

>  <Rbt.Current_Directory>
/home/itssahil/PROJECTS/Mol_Feturizer/Test_systems_manuscript/rnas/4fe5

>  <Rbt.Executable>
rbdock ($Id: //depot/dev/client3/rdock/2013.1/src/exe/rbdock.cxx#4 $)

>  <Rbt.Library>
libRbt.so (2013.1, Build901 2013/11/27)

>  <Rbt.Parameter_File>
/export/apps/rDock/src/rDock_2013.1_src/data/scripts/dock_solv.prm

>  <Rbt.Receptor>
prm/blind_docking_40.prm

>  <SCORE>
-17.5644

>  <SCORE.INTER>
-17.5644

>  <SCORE.INTER.CONST>
1

>  <SCORE.INTER.POLAR>
0

>  <SCORE.INTER.ROT>
0

>  <SCORE.INTER.SOLV>
3.91266

>  <SCORE.INTER.VDW>
-16.6138

>  <SCORE.INTER.norm>
-1.75644

>  <SCORE.INTRA>
0

>  <SCORE.INTRA.DIHEDRAL>
0

>  <SCORE.INTRA.DIHEDRAL.0>
0

>  <SCORE.INTRA.POLAR>
0

>  <SCORE.INTRA.POLAR.0>
0

>  <SCORE.INTRA.REPUL>
0

>  <SCORE.INTRA.REPUL.0>
0

>  <SCORE.INTRA.SOLV>
0

>  <SCORE.INTRA.SOLV.lig_0>
-4.28333

>  <SCORE.INTRA.VDW>
0

>  <SCORE.INTRA.VDW.0>
0

>  <SCORE.INTRA.norm>
0

>  <SCORE.RESTR>
0

>  <SCORE.RESTR.CAVITY>
0

>  <SCORE.RESTR.norm>
0

>  <SCORE.SYSTEM>
0

>  <SCORE.SYSTEM.CONST>
0

>  <SCORE.SYSTEM.DIHEDRAL>
0

>  <SCORE.SYSTEM.SOLV>
0

>  <SCORE.SYSTEM.norm>
0

>  <SCORE.heavy>
10

>  <SCORE.norm>
-1.75644

>  <RMSD>
2.418

$$$$
ligand
 OpenBabel02271912143D
libRbt.so/2013.1/901 2013/11/27
 10 11  0  0  0  0  0  0  0  0999 V2000
   11.8379   10.5822    8.9105 N   0  0  0  0  0  0  0  0  0  0  0  0
   12.0061    9.4068    8.2168 C   0  0  0  0  0  0  0  0  0  0  0  0
   11.8657    9.3401    6.8916 N   0  0  0  0  0  0  0  0  0  0  0  0
   11.5450   10.5353    6.3193 C   0  0  0  0  0  0  0  0  0  0  0  0
   11.3611   11.7463    6.9571 C   0  0  0  0  0  0  0  0  0  0  0  0
   11.5104   11.8255    8.3688 C   0  0  0  0  0  0  0  0  0  0  0  0
   11.3962   12.7914    9.1330 O   0  0  0  0  0  0  0  0  0  0  0  0
   11.0507   12.6879    6.0166 N   0  0  0  0  0  0  0  0  0  0  0  0
   11.0485   12.0567    4.8196 C   0  0  0  0  0  0  0  0  0  0  0  0
   11.3504   10.7207    4.9734 N   0  0  0  0  0  0  0  0  0  0  0  0
  1  2  1  0  0  0  0
  1  6  1  0  0  0  0
  2  3  2  0  0  0  0
  3  4  1  0  0  0  0
  4  5  2  0  0  0  0
  4 10  1  0  0  0  0
  5  6  1  0  0  0  0
  5  8  1  0  0  0  0
  6  7  2  0  0  0  0
  8  9  1  0  0  0  0
  9 10  2  0  0  0  0
M  END
>  <CHROM.1>
11.49590623,11.19793840,7.10133515,-1.01516603,1.33304472,-2.07340488

>  <Name>
ligand

>  <RI>
0

>  <Rbt.Current_Directory>
/home/itssahil/PROJECTS/Mol_Feturizer/Test_systems_manuscript/rnas/4fe5

>  <Rbt.Executable>
rbdock ($Id: //depot/dev/client3/rdock/2013.1/src/exe/rbdock.cxx#4 $)

>  <Rbt.Library>
libRbt.so (2013.1, Build901 2013/11/27)

>  <Rbt.Parameter_File>
/export/apps/rDock/src/rDock_2013.1_src/data/scripts/dock_solv.prm

>  <Rbt.Receptor>
prm/blind_docking_40.prm

>  <SCORE>
-17.5627

>  <SCORE.INTER>
-17.5627

>  <SCORE.INTER.CONST>
1

>  <SCORE.INTER.POLAR>
0

>  <SCORE.INTER.ROT>
0

>  <SCORE.INTER.SOLV>
3.91548

>  <SCORE.INTER.VDW>
-16.6136

>  <SCORE.INTER.norm>
-1.75627

>  <SCORE.INTRA>
0

>  <SCORE.INTRA.DIHEDRAL>
0

>  <SCORE.INTRA.DIHEDRAL.0>
0

>  <SCORE.INTRA.POLAR>
0

>  <SCORE.INTRA.POLAR.0>
0

>  <SCORE.INTRA.REPUL>
0

>  <SCORE.INTRA.REPUL.0>
0

>  <SCORE.INTRA.SOLV>
0

>  <SCORE.INTRA.SOLV.lig_0>
-4.28333

>  <SCORE.INTRA.VDW>
0

>  <SCORE.INTRA.VDW.0>
0

>  <SCORE.INTRA.norm>
0

>  <SCORE.RESTR>
0

>  <SCORE.RESTR.CAVITY>
0

>  <SCORE.RESTR.norm>
0

>  <SCORE.SYSTEM>
0

>  <SCORE.SYSTEM.CONST>
0

>  <SCORE.SYSTEM.DIHEDRAL>
0

>  <SCORE.SYSTEM.SOLV>
0

>  <SCORE.SYSTEM.norm>
0

>  <SCORE.heavy>
10

>  <SCORE.norm>
-1.75627

>  <RMSD>
2.418

$$$$
ligand
 OpenBabel02271912143D
libRbt.so/2013.1/901 2013/11/27
 10 11  0  0  0  0  0  0  0  0999 V2000
   11.8318   10.5672    8.9055 N   0  0  0  0  0  0  0  0  0  0  0  0
   12.0071    9.3972    8.2044 C   0  0  0  0  0  0  0  0  0  0  0  0
   11.8688    9.3384    6.8786 N   0  0  0  0  0  0  0  0  0  0  0  0
   11.5425   10.5355    6.3136 C   0  0  0  0  0  0  0  0  0  0  0  0
   11.3514   11.7414    6.9590 C   0  0  0  0  0  0  0  0  0  0  0  0
   11.4984   11.8122    8.3714 C   0  0  0  0  0  0  0  0  0  0  0  0
   11.3781   12.7725    9.1417 O   0  0  0  0  0  0  0  0  0  0  0  0
   11.0373   12.6875    6.0242 N   0  0  0  0  0  0  0  0  0  0  0  0
   11.0401   12.0639    4.8232 C   0  0  0  0  0  0  0  0  0  0  0  0
   11.3488   10.7286    4.9687 N   0  0  0  0  0  0  0  0  0  0  0  0
  1  2  1  0  0  0  0
  1  6  1  0  0  0  0
  2  3  2  0  0  0  0
  3  4  1  0  0  0  0
  4  5  2  0  0  0  0
  4 10  1  0  0  0  0
  5  6  1  0  0  0  0
  5  8  1  0  0  0  0
  6  7  2  0  0  0  0
  8  9  1  0  0  0  0
  9 10  2  0  0  0  0
M  END
>  <CHROM.1>
11.48894391,11.19282117,7.09988663,-1.03063182,1.32905571,-2.05190606

>  <Name>
ligand

>  <RI>
0

>  <Rbt.Current_Directory>
/home/itssahil/PROJECTS/Mol_Feturizer/Test_systems_manuscript/rnas/4fe5

>  <Rbt.Executable>
rbdock ($Id: //depot/dev/client3/rdock/2013.1/src/exe/rbdock.cxx#4 $)

>  <Rbt.Library>
libRbt.so (2013.1, Build901 2013/11/27)

>  <Rbt.Parameter_File>
/export/apps/rDock/src/rDock_2013.1_src/data/scripts/dock_solv.prm

>  <Rbt.Receptor>
prm/blind_docking_40.prm

>  <SCORE>
-17.5625

>  <SCORE.INTER>
-17.5625

>  <SCORE.INTER.CONST>
1

>  <SCORE.INTER.POLAR>
0

>  <SCORE.INTER.ROT>
0

>  <SCORE.INTER.SOLV>
3.89482

>  <SCORE.INTER.VDW>
-16.6066

>  <SCORE.INTER.norm>
-1.75625

>  <SCORE.INTRA>
0

>  <SCORE.INTRA.DIHEDRAL>
0

>  <SCORE.INTRA.DIHEDRAL.0>
0

>  <SCORE.INTRA.POLAR>
0

>  <SCORE.INTRA.POLAR.0>
0

>  <SCORE.INTRA.REPUL>
0

>  <SCORE.INTRA.REPUL.0>
0

>  <SCORE.INTRA.SOLV>
0

>  <SCORE.INTRA.SOLV.lig_0>
-4.28333

>  <SCORE.INTRA.VDW>
0

>  <SCORE.INTRA.VDW.0>
0

>  <SCORE.INTRA.norm>
0

>  <SCORE.RESTR>
0

>  <SCORE.RESTR.CAVITY>
0

>  <SCORE.RESTR.norm>
0

>  <SCORE.SYSTEM>
0

>  <SCORE.SYSTEM.CONST>
0

>  <SCORE.SYSTEM.DIHEDRAL>
0

>  <SCORE.SYSTEM.SOLV>
0

>  <SCORE.SYSTEM.norm>
0

>  <SCORE.heavy>
10

>  <SCORE.norm>
-1.75625

>  <RMSD>
2.418

$$$$
ligand
 OpenBabel02271912143D
libRbt.so/2013.1/901 2013/11/27
 10 11  0  0  0  0  0  0  0  0999 V2000
   11.8331   10.5775    8.9038 N   0  0  0  0  0  0  0  0  0  0  0  0
   12.0087    9.4052    8.2068 C   0  0  0  0  0  0  0  0  0  0  0  0
   11.8698    9.3415    6.8813 N   0  0  0  0  0  0  0  0  0  0  0  0
   11.5426   10.5365    6.3122 C   0  0  0  0  0  0  0  0  0  0  0  0
   11.3512   11.7445    6.9535 C   0  0  0  0  0  0  0  0  0  0  0  0
   11.4988   11.8205    8.3655 C   0  0  0  0  0  0  0  0  0  0  0  0
   11.3784   12.7834    9.1325 O   0  0  0  0  0  0  0  0  0  0  0  0
   11.0361   12.6871    6.0155 N   0  0  0  0  0  0  0  0  0  0  0  0
   11.0386   12.0594    4.8167 C   0  0  0  0  0  0  0  0  0  0  0  0
   11.3481   10.7247    4.9668 N   0  0  0  0  0  0  0  0  0  0  0  0
  1  2  1  0  0  0  0
  1  6  1  0  0  0  0
  2  3  2  0  0  0  0
  3  4  1  0  0  0  0
  4  5  2  0  0  0  0
  4 10  1  0  0  0  0
  5  6  1  0  0  0  0
  5  8  1  0  0  0  0
  6  7  2  0  0  0  0
  8  9  1  0  0  0  0
  9 10  2  0  0  0  0
M  END
>  <CHROM.1>
11.48905082,11.19656059,7.09621425,-1.02980932,1.32834900,-2.05624721

>  <Name>
ligand

>  <RI>
0

>  <Rbt.Current_Directory>
/home/itssahil/PROJECTS/Mol_Feturizer/Test_systems_manuscript/rnas/4fe5

>  <Rbt.Executable>
rbdock ($Id: //depot/dev/client3/rdock/2013.1/src/exe/rbdock.cxx#4 $)

>  <Rbt.Library>
libRbt.so (2013.1, Build901 2013/11/27)

>  <Rbt.Parameter_File>
/export/apps/rDock/src/rDock_2013.1_src/data/scripts/dock_solv.prm

>  <Rbt.Receptor>
prm/blind_docking_40.prm

>  <SCORE>
-17.5627

>  <SCORE.INTER>
-17.5627

>  <SCORE.INTER.CONST>
1

>  <SCORE.INTER.POLAR>
0

>  <SCORE.INTER.ROT>
0

>  <SCORE.INTER.SOLV>
3.90395

>  <SCORE.INTER.VDW>
-16.6098

>  <SCORE.INTER.norm>
-1.75627

>  <SCORE.INTRA>
0

>  <SCORE.INTRA.DIHEDRAL>
0

>  <SCORE.INTRA.DIHEDRAL.0>
0

>  <SCORE.INTRA.POLAR>
0

>  <SCORE.INTRA.POLAR.0>
0

>  <SCORE.INTRA.REPUL>
0

>  <SCORE.INTRA.REPUL.0>
0

>  <SCORE.INTRA.SOLV>
0

>  <SCORE.INTRA.SOLV.lig_0>
-4.28333

>  <SCORE.INTRA.VDW>
0

>  <SCORE.INTRA.VDW.0>
0

>  <SCORE.INTRA.norm>
0

>  <SCORE.RESTR>
0

>  <SCORE.RESTR.CAVITY>
0

>  <SCORE.RESTR.norm>
0

>  <SCORE.SYSTEM>
0

>  <SCORE.SYSTEM.CONST>
0

>  <SCORE.SYSTEM.DIHEDRAL>
0

>  <SCORE.SYSTEM.SOLV>
0

>  <SCORE.SYSTEM.norm>
0

>  <SCORE.heavy>
10

>  <SCORE.norm>
-1.75627

>  <RMSD>
2.418

$$$$
ligand
 OpenBabel02271912143D
libRbt.so/2013.1/901 2013/11/27
 10 11  0  0  0  0  0  0  0  0999 V2000
   11.8269   10.5752    8.9134 N   0  0  0  0  0  0  0  0  0  0  0  0
   11.9953    9.4007    8.2183 C   0  0  0  0  0  0  0  0  0  0  0  0
   11.8587    9.3364    6.8927 N   0  0  0  0  0  0  0  0  0  0  0  0
   11.5415   10.5330    6.3213 C   0  0  0  0  0  0  0  0  0  0  0  0
   11.3577   11.7432    6.9606 C   0  0  0  0  0  0  0  0  0  0  0  0
   11.5029   11.8199    8.3728 C   0  0  0  0  0  0  0  0  0  0  0  0
   11.3880   12.7847    9.1383 O   0  0  0  0  0  0  0  0  0  0  0  0
   11.0515   12.6869    6.0207 N   0  0  0  0  0  0  0  0  0  0  0  0
   11.0519   12.0575    4.8227 C   0  0  0  0  0  0  0  0  0  0  0  0
   11.3512   10.7209    4.9752 N   0  0  0  0  0  0  0  0  0  0  0  0
  1  2  1  0  0  0  0
  1  6  1  0  0  0  0
  2  3  2  0  0  0  0
  3  4  1  0  0  0  0
  4  5  2  0  0  0  0
  4 10  1  0  0  0  0
  5  6  1  0  0  0  0
  5  8  1  0  0  0  0
  6  7  2  0  0  0  0
  8  9  1  0  0  0  0
  9 10  2  0  0  0  0
M  END
>  <CHROM.1>
11.49119028,11.19442563,7.10432062,-1.02298969,1.33582499,-2.06417240

>  <Name>
ligand

>  <RI>
0

>  <Rbt.Current_Directory>
/home/itssahil/PROJECTS/Mol_Feturizer/Test_systems_manuscript/rnas/4fe5

>  <Rbt.Executable>
rbdock ($Id: //depot/dev/client3/rdock/2013.1/src/exe/rbdock.cxx#4 $)

>  <Rbt.Library>
libRbt.so (2013.1, Build901 2013/11/27)

>  <Rbt.Parameter_File>
/export/apps/rDock/src/rDock_2013.1_src/data/scripts/dock_solv.prm

>  <Rbt.Receptor>
prm/blind_docking_40.prm

>  <SCORE>
-17.5623

>  <SCORE.INTER>
-17.5623

>  <SCORE.INTER.CONST>
1

>  <SCORE.INTER.POLAR>
0

>  <SCORE.INTER.ROT>
0

>  <SCORE.INTER.SOLV>
3.91576

>  <SCORE.INTER.VDW>
-16.6134

>  <SCORE.INTER.norm>
-1.75623

>  <SCORE.INTRA>
0

>  <SCORE.INTRA.DIHEDRAL>
0

>  <SCORE.INTRA.DIHEDRAL.0>
0

>  <SCORE.INTRA.POLAR>
0

>  <SCORE.INTRA.POLAR.0>
0

>  <SCORE.INTRA.REPUL>
0

>  <SCORE.INTRA.REPUL.0>
0

>  <SCORE.INTRA.SOLV>
0

>  <SCORE.INTRA.SOLV.lig_0>
-4.28333

>  <SCORE.INTRA.VDW>
0

>  <SCORE.INTRA.VDW.0>
0

>  <SCORE.INTRA.norm>
0

>  <SCORE.RESTR>
0

>  <SCORE.RESTR.CAVITY>
0

>  <SCORE.RESTR.norm>
0

>  <SCORE.SYSTEM>
0

>  <SCORE.SYSTEM.CONST>
0

>  <SCORE.SYSTEM.DIHEDRAL>
0

>  <SCORE.SYSTEM.SOLV>
0

>  <SCORE.SYSTEM.norm>
0

>  <SCORE.heavy>
10

>  <SCORE.norm>
-1.75623

>  <RMSD>
2.418

$$$$
ligand
 OpenBabel02271912143D
libRbt.so/2013.1/901 2013/11/27
 10 11  0  0  0  0  0  0  0  0999 V2000
   11.8377   10.5825    8.9066 N   0  0  0  0  0  0  0  0  0  0  0  0
   12.0087    9.4078    8.2124 C   0  0  0  0  0  0  0  0  0  0  0  0
   11.8684    9.3412    6.8873 N   0  0  0  0  0  0  0  0  0  0  0  0
   11.5447   10.5358    6.3154 C   0  0  0  0  0  0  0  0  0  0  0  0
   11.3579   11.7461    6.9537 C   0  0  0  0  0  0  0  0  0  0  0  0
   11.5071   11.8251    8.3654 C   0  0  0  0  0  0  0  0  0  0  0  0
   11.3906   12.7904    9.1300 O   0  0  0  0  0  0  0  0  0  0  0  0
   11.0451   12.6874    6.0136 N   0  0  0  0  0  0  0  0  0  0  0  0
   11.0445   12.0565    4.8164 C   0  0  0  0  0  0  0  0  0  0  0  0
   11.3496   10.7212    4.9696 N   0  0  0  0  0  0  0  0  0  0  0  0
  1  2  1  0  0  0  0
  1  6  1  0  0  0  0
  2  3  2  0  0  0  0
  3  4  1  0  0  0  0
  4  5  2  0  0  0  0
  4 10  1  0  0  0  0
  5  6  1  0  0  0  0
  5  8  1  0  0  0  0
  6  7  2  0  0  0  0
  8  9  1  0  0  0  0
  9 10  2  0  0  0  0
M  END
>  <CHROM.1>
11.49404447,11.19802953,7.09771051,-1.01988521,1.33088600,-2.06843951

>  <Name>
ligand

>  <RI>
0

>  <Rbt.Current_Directory>
/home/itssahil/PROJECTS/Mol_Feturizer/Test_systems_manuscript/rnas/4fe5

>  <Rbt.Executable>
rbdock ($Id: //depot/dev/client3/rdock/2013.1/src/exe/rbdock.cxx#4 $)

>  <Rbt.Library>
libRbt.so (2013.1, Build901 2013/11/27)

>  <Rbt.Parameter_File>
/export/apps/rDock/src/rDock_2013.1_src/data/scripts/dock_solv.prm

>  <Rbt.Receptor>
prm/blind_docking_40.prm

>  <SCORE>
-17.5636

>  <SCORE.INTER>
-17.5636

>  <SCORE.INTER.CONST>
1

>  <SCORE.INTER.POLAR>
0

>  <SCORE.INTER.ROT>
0

>  <SCORE.INTER.SOLV>
3.91217

>  <SCORE.INTER.VDW>
-16.6131

>  <SCORE.INTER.norm>
-1.75636

>  <SCORE.INTRA>
0

>  <SCORE.INTRA.DIHEDRAL>
0

>  <SCORE.INTRA.DIHEDRAL.0>
0

>  <SCORE.INTRA.POLAR>
0

>  <SCORE.INTRA.POLAR.0>
0

>  <SCORE.INTRA.REPUL>
0

>  <SCORE.INTRA.REPUL.0>
0

>  <SCORE.INTRA.SOLV>
0

>  <SCORE.INTRA.SOLV.lig_0>
-4.28333

>  <SCORE.INTRA.VDW>
0

>  <SCORE.INTRA.VDW.0>
0

>  <SCORE.INTRA.norm>
0

>  <SCORE.RESTR>
0

>  <SCORE.RESTR.CAVITY>
0

>  <SCORE.RESTR.norm>
0

>  <SCORE.SYSTEM>
0

>  <SCORE.SYSTEM.CONST>
0

>  <SCORE.SYSTEM.DIHEDRAL>
0

>  <SCORE.SYSTEM.SOLV>
0

>  <SCORE.SYSTEM.norm>
0

>  <SCORE.heavy>
10

>  <SCORE.norm>
-1.75636

>  <RMSD>
2.418

$$$$
ligand
 OpenBabel02271912143D
libRbt.so/2013.1/901 2013/11/27
 10 11  0  0  0  0  0  0  0  0999 V2000
   11.8351   10.5796    8.9046 N   0  0  0  0  0  0  0  0  0  0  0  0
   12.0055    9.4056    8.2091 C   0  0  0  0  0  0  0  0  0  0  0  0
   11.8647    9.3405    6.8839 N   0  0  0  0  0  0  0  0  0  0  0  0
   11.5412   10.5359    6.3134 C   0  0  0  0  0  0  0  0  0  0  0  0
   11.3551   11.7456    6.9531 C   0  0  0  0  0  0  0  0  0  0  0  0
   11.5048   11.8230    8.3649 C   0  0  0  0  0  0  0  0  0  0  0  0
   11.3889   12.7875    9.1306 O   0  0  0  0  0  0  0  0  0  0  0  0
   11.0423   12.6879    6.0142 N   0  0  0  0  0  0  0  0  0  0  0  0
   11.0410   12.0584    4.8163 C   0  0  0  0  0  0  0  0  0  0  0  0
   11.3457   10.7228    4.9680 N   0  0  0  0  0  0  0  0  0  0  0  0
  1  2  1  0  0  0  0
  1  6  1  0  0  0  0
  2  3  2  0  0  0  0
  3  4  1  0  0  0  0
  4  5  2  0  0  0  0
  4 10  1  0  0  0  0
  5  6  1  0  0  0  0
  5  8  1  0  0  0  0
  6  7  2  0  0  0  0
  8  9  1  0  0  0  0
  9 10  2  0  0  0  0
M  END
>  <CHROM.1>
11.49107726,11.19727545,7.09652588,-1.01780879,1.33103174,-2.06937082

>  <Name>
ligand

>  <RI>
0

>  <Rbt.Current_Directory>
/home/itssahil/PROJECTS/Mol_Feturizer/Test_systems_manuscript/rnas/4fe5

>  <Rbt.Executable>
rbdock ($Id: //depot/dev/client3/rdock/2013.1/src/exe/rbdock.cxx#4 $)

>  <Rbt.Library>
libRbt.so (2013.1, Build901 2013/11/27)

>  <Rbt.Parameter_File>
/export/apps/rDock/src/rDock_2013.1_src/data/scripts/dock_solv.prm

>  <Rbt.Receptor>
prm/blind_docking_60.prm

>  <SCORE>
-17.5649

>  <SCORE.INTER>
-17.5649

>  <SCORE.INTER.CONST>
1

>  <SCORE.INTER.POLAR>
0

>  <SCORE.INTER.ROT>
0

>  <SCORE.INTER.SOLV>
3.91025

>  <SCORE.INTER.VDW>
-16.6134

>  <SCORE.INTER.norm>
-1.75649

>  <SCORE.INTRA>
0

>  <SCORE.INTRA.DIHEDRAL>
0

>  <SCORE.INTRA.DIHEDRAL.0>
0

>  <SCORE.INTRA.POLAR>
0

>  <SCORE.INTRA.POLAR.0>
0

>  <SCORE.INTRA.REPUL>
0

>  <SCORE.INTRA.REPUL.0>
0

>  <SCORE.INTRA.SOLV>
0

>  <SCORE.INTRA.SOLV.lig_0>
-4.28333

>  <SCORE.INTRA.VDW>
0

>  <SCORE.INTRA.VDW.0>
0

>  <SCORE.INTRA.norm>
0

>  <SCORE.RESTR>
0

>  <SCORE.RESTR.CAVITY>
0

>  <SCORE.RESTR.norm>
0

>  <SCORE.SYSTEM>
0

>  <SCORE.SYSTEM.CONST>
0

>  <SCORE.SYSTEM.DIHEDRAL>
0

>  <SCORE.SYSTEM.SOLV>
0

>  <SCORE.SYSTEM.norm>
0

>  <SCORE.heavy>
10

>  <SCORE.norm>
-1.75649

>  <RMSD>
2.418

$$$$
ligand
 OpenBabel02271912143D
libRbt.so/2013.1/901 2013/11/27
 10 11  0  0  0  0  0  0  0  0999 V2000
   11.8288   10.5827    8.9110 N   0  0  0  0  0  0  0  0  0  0  0  0
   12.0012    9.4073    8.2185 C   0  0  0  0  0  0  0  0  0  0  0  0
   11.8651    9.3397    6.8929 N   0  0  0  0  0  0  0  0  0  0  0  0
   11.5440   10.5340    6.3190 C   0  0  0  0  0  0  0  0  0  0  0  0
   11.3560   11.7450    6.9556 C   0  0  0  0  0  0  0  0  0  0  0  0
   11.5007   11.8251    8.3677 C   0  0  0  0  0  0  0  0  0  0  0  0
   11.3824   12.7912    9.1311 O   0  0  0  0  0  0  0  0  0  0  0  0
   11.0468   12.6856    6.0137 N   0  0  0  0  0  0  0  0  0  0  0  0
   11.0496   12.0537    4.8170 C   0  0  0  0  0  0  0  0  0  0  0  0
   11.3533   10.7183    4.9724 N   0  0  0  0  0  0  0  0  0  0  0  0
  1  2  1  0  0  0  0
  1  6  1  0  0  0  0
  2  3  2  0  0  0  0
  3  4  1  0  0  0  0
  4  5  2  0  0  0  0
  4 10  1  0  0  0  0
  5  6  1  0  0  0  0
  5  8  1  0  0  0  0
  6  7  2  0  0  0  0
  8  9  1  0  0  0  0
  9 10  2  0  0  0  0
M  END
>  <CHROM.1>
11.49131727,11.19692333,7.10055065,-1.03050412,1.33296702,-2.05899917

>  <Name>
ligand

>  <RI>
0

>  <Rbt.Current_Directory>
/home/itssahil/PROJECTS/Mol_Feturizer/Test_systems_manuscript/rnas/4fe5

>  <Rbt.Executable>
rbdock ($Id: //depot/dev/client3/rdock/2013.1/src/exe/rbdock.cxx#4 $)

>  <Rbt.Library>
libRbt.so (2013.1, Build901 2013/11/27)

>  <Rbt.Parameter_File>
/export/apps/rDock/src/rDock_2013.1_src/data/scripts/dock_solv.prm

>  <Rbt.Receptor>
prm/blind_docking_60.prm

>  <SCORE>
-17.5615

>  <SCORE.INTER>
-17.5615

>  <SCORE.INTER.CONST>
1

>  <SCORE.INTER.POLAR>
0

>  <SCORE.INTER.ROT>
0

>  <SCORE.INTER.SOLV>
3.91824

>  <SCORE.INTER.VDW>
-16.6138

>  <SCORE.INTER.norm>
-1.75615

>  <SCORE.INTRA>
0

>  <SCORE.INTRA.DIHEDRAL>
0

>  <SCORE.INTRA.DIHEDRAL.0>
0

>  <SCORE.INTRA.POLAR>
0

>  <SCORE.INTRA.POLAR.0>
0

>  <SCORE.INTRA.REPUL>
0

>  <SCORE.INTRA.REPUL.0>
0

>  <SCORE.INTRA.SOLV>
0

>  <SCORE.INTRA.SOLV.lig_0>
-4.28333

>  <SCORE.INTRA.VDW>
0

>  <SCORE.INTRA.VDW.0>
0

>  <SCORE.INTRA.norm>
0

>  <SCORE.RESTR>
0

>  <SCORE.RESTR.CAVITY>
0

>  <SCORE.RESTR.norm>
0

>  <SCORE.SYSTEM>
0

>  <SCORE.SYSTEM.CONST>
0

>  <SCORE.SYSTEM.DIHEDRAL>
0

>  <SCORE.SYSTEM.SOLV>
0

>  <SCORE.SYSTEM.norm>
0

>  <SCORE.heavy>
10

>  <SCORE.norm>
-1.75615

>  <RMSD>
2.418

$$$$
ligand
 OpenBabel02271912143D
libRbt.so/2013.1/901 2013/11/27
 10 11  0  0  0  0  0  0  0  0999 V2000
   11.8349   10.5810    8.9019 N   0  0  0  0  0  0  0  0  0  0  0  0
   12.0056    9.4100    8.2014 C   0  0  0  0  0  0  0  0  0  0  0  0
   11.8707    9.3518    6.8753 N   0  0  0  0  0  0  0  0  0  0  0  0
   11.5527   10.5507    6.3092 C   0  0  0  0  0  0  0  0  0  0  0  0
   11.3666   11.7577    6.9540 C   0  0  0  0  0  0  0  0  0  0  0  0
   11.5100   11.8278    8.3668 C   0  0  0  0  0  0  0  0  0  0  0  0
   11.3930   12.7889    9.1367 O   0  0  0  0  0  0  0  0  0  0  0  0
   11.0604   12.7054    6.0183 N   0  0  0  0  0  0  0  0  0  0  0  0
   11.0631   12.0818    4.8173 C   0  0  0  0  0  0  0  0  0  0  0  0
   11.3639   10.7447    4.9638 N   0  0  0  0  0  0  0  0  0  0  0  0
  1  2  1  0  0  0  0
  1  6  1  0  0  0  0
  2  3  2  0  0  0  0
  3  4  1  0  0  0  0
  4  5  2  0  0  0  0
  4 10  1  0  0  0  0
  5  6  1  0  0  0  0
  5  8  1  0  0  0  0
  6  7  2  0  0  0  0
  8  9  1  0  0  0  0
  9 10  2  0  0  0  0
M  END
>  <CHROM.1>
11.50062853,11.20836248,7.09530883,-1.03018618,1.33533293,-2.05243325

>  <Name>
ligand

>  <RI>
0

>  <Rbt.Current_Directory>
/home/itssahil/PROJECTS/Mol_Feturizer/Test_systems_manuscript/rnas/4fe5

>  <Rbt.Executable>
rbdock ($Id: //depot/dev/client3/rdock/2013.1/src/exe/rbdock.cxx#4 $)

>  <Rbt.Library>
libRbt.so (2013.1, Build901 2013/11/27)

>  <Rbt.Parameter_File>
/export/apps/rDock/src/rDock_2013.1_src/data/scripts/dock_solv.prm

>  <Rbt.Receptor>
prm/blind_docking_60.prm

>  <SCORE>
-17.5316

>  <SCORE.INTER>
-17.5316

>  <SCORE.INTER.CONST>
1

>  <SCORE.INTER.POLAR>
0

>  <SCORE.INTER.ROT>
0

>  <SCORE.INTER.SOLV>
3.91353

>  <SCORE.INTER.VDW>
-16.5922

>  <SCORE.INTER.norm>
-1.75316

>  <SCORE.INTRA>
0

>  <SCORE.INTRA.DIHEDRAL>
0

>  <SCORE.INTRA.DIHEDRAL.0>
0

>  <SCORE.INTRA.POLAR>
0

>  <SCORE.INTRA.POLAR.0>
0

>  <SCORE.INTRA.REPUL>
0

>  <SCORE.INTRA.REPUL.0>
0

>  <SCORE.INTRA.SOLV>
0

>  <SCORE.INTRA.SOLV.lig_0>
-4.28333

>  <SCORE.INTRA.VDW>
0

>  <SCORE.INTRA.VDW.0>
0

>  <SCORE.INTRA.norm>
0

>  <SCORE.RESTR>
0

>  <SCORE.RESTR.CAVITY>
0

>  <SCORE.RESTR.norm>
0

>  <SCORE.SYSTEM>
0

>  <SCORE.SYSTEM.CONST>
0

>  <SCORE.SYSTEM.DIHEDRAL>
0

>  <SCORE.SYSTEM.SOLV>
0

>  <SCORE.SYSTEM.norm>
0

>  <SCORE.heavy>
10

>  <SCORE.norm>
-1.75316

>  <RMSD>
2.418

$$$$
ligand
 OpenBabel02271912143D
libRbt.so/2013.1/901 2013/11/27
 10 11  0  0  0  0  0  0  0  0999 V2000
   11.8299   10.5709    8.9106 N   0  0  0  0  0  0  0  0  0  0  0  0
   12.0011    9.3980    8.2134 C   0  0  0  0  0  0  0  0  0  0  0  0
   11.8643    9.3358    6.8876 N   0  0  0  0  0  0  0  0  0  0  0  0
   11.5439   10.5326    6.3185 C   0  0  0  0  0  0  0  0  0  0  0  0
   11.3572   11.7412    6.9600 C   0  0  0  0  0  0  0  0  0  0  0  0
   11.5026   11.8157    8.3724 C   0  0  0  0  0  0  0  0  0  0  0  0
   11.3855   12.7788    9.1397 O   0  0  0  0  0  0  0  0  0  0  0  0
   11.0484   12.6858    6.0220 N   0  0  0  0  0  0  0  0  0  0  0  0
   11.0501   12.0587    4.8228 C   0  0  0  0  0  0  0  0  0  0  0  0
   11.3528   10.7225    4.9728 N   0  0  0  0  0  0  0  0  0  0  0  0
  1  2  1  0  0  0  0
  1  6  1  0  0  0  0
  2  3  2  0  0  0  0
  3  4  1  0  0  0  0
  4  5  2  0  0  0  0
  4 10  1  0  0  0  0
  5  6  1  0  0  0  0
  5  8  1  0  0  0  0
  6  7  2  0  0  0  0
  8  9  1  0  0  0  0
  9 10  2  0  0  0  0
M  END
>  <CHROM.1>
11.49214666,11.19250734,7.10274751,-1.02707815,1.33349136,-2.05836780

>  <Name>
ligand

>  <RI>
0

>  <Rbt.Current_Directory>
/home/itssahil/PROJECTS/Mol_Feturizer/Test_systems_manuscript/rnas/4fe5

>  <Rbt.Executable>
rbdock ($Id: //depot/dev/client3/rdock/2013.1/src/exe/rbdock.cxx#4 $)

>  <Rbt.Library>
libRbt.so (2013.1, Build901 2013/11/27)

>  <Rbt.Parameter_File>
/export/apps/rDock/src/rDock_2013.1_src/data/scripts/dock_solv.prm

>  <Rbt.Receptor>
prm/blind_docking_80.prm

>  <SCORE>
-17.5632

>  <SCORE.INTER>
-17.5632

>  <SCORE.INTER.CONST>
1

>  <SCORE.INTER.POLAR>
0

>  <SCORE.INTER.ROT>
0

>  <SCORE.INTER.SOLV>
3.90673

>  <SCORE.INTER.VDW>
-16.611

>  <SCORE.INTER.norm>
-1.75632

>  <SCORE.INTRA>
0

>  <SCORE.INTRA.DIHEDRAL>
0

>  <SCORE.INTRA.DIHEDRAL.0>
0

>  <SCORE.INTRA.POLAR>
0

>  <SCORE.INTRA.POLAR.0>
0

>  <SCORE.INTRA.REPUL>
0

>  <SCORE.INTRA.REPUL.0>
0

>  <SCORE.INTRA.SOLV>
0

>  <SCORE.INTRA.SOLV.lig_0>
-4.28333

>  <SCORE.INTRA.VDW>
0

>  <SCORE.INTRA.VDW.0>
0

>  <SCORE.INTRA.norm>
0

>  <SCORE.RESTR>
0

>  <SCORE.RESTR.CAVITY>
0

>  <SCORE.RESTR.norm>
0

>  <SCORE.SYSTEM>
0

>  <SCORE.SYSTEM.CONST>
0

>  <SCORE.SYSTEM.DIHEDRAL>
0

>  <SCORE.SYSTEM.SOLV>
0

>  <SCORE.SYSTEM.norm>
0

>  <SCORE.heavy>
10

>  <SCORE.norm>
-1.75632

>  <RMSD>
2.418

$$$$
ligand
 OpenBabel02271912143D
libRbt.so/2013.1/901 2013/11/27
 10 11  0  0  0  0  0  0  0  0999 V2000
   11.8380   10.5908    8.8995 N   0  0  0  0  0  0  0  0  0  0  0  0
   11.9928    9.4143    8.2045 C   0  0  0  0  0  0  0  0  0  0  0  0
   11.8509    9.3505    6.8793 N   0  0  0  0  0  0  0  0  0  0  0  0
   11.5429   10.5497    6.3084 C   0  0  0  0  0  0  0  0  0  0  0  0
   11.3727   11.7620    6.9476 C   0  0  0  0  0  0  0  0  0  0  0  0
   11.5238   11.8381    8.3593 C   0  0  0  0  0  0  0  0  0  0  0  0
   11.4208   12.8044    9.1247 O   0  0  0  0  0  0  0  0  0  0  0  0
   11.0721   12.7080    6.0083 N   0  0  0  0  0  0  0  0  0  0  0  0
   11.0622   12.0780    4.8107 C   0  0  0  0  0  0  0  0  0  0  0  0
   11.3495   10.7386    4.9629 N   0  0  0  0  0  0  0  0  0  0  0  0
  1  2  1  0  0  0  0
  1  6  1  0  0  0  0
  2  3  2  0  0  0  0
  3  4  1  0  0  0  0
  4  5  2  0  0  0  0
  4 10  1  0  0  0  0
  5  6  1  0  0  0  0
  5  8  1  0  0  0  0
  6  7  2  0  0  0  0
  8  9  1  0  0  0  0
  9 10  2  0  0  0  0
M  END
>  <CHROM.1>
11.50161462,11.21206926,7.09123611,-0.98924759,1.34229369,-2.09759097

>  <Name>
ligand

>  <RI>
0

>  <Rbt.Current_Directory>
/home/itssahil/PROJECTS/Mol_Feturizer/Test_systems_manuscript/rnas/4fe5

>  <Rbt.Executable>
rbdock ($Id: //depot/dev/client3/rdock/2013.1/src/exe/rbdock.cxx#4 $)

>  <Rbt.Library>
libRbt.so (2013.1, Build901 2013/11/27)

>  <Rbt.Parameter_File>
/export/apps/rDock/src/rDock_2013.1_src/data/scripts/dock_solv.prm

>  <Rbt.Receptor>
prm/blind_docking_80.prm

>  <SCORE>
-17.5393

>  <SCORE.INTER>
-17.5393

>  <SCORE.INTER.CONST>
1

>  <SCORE.INTER.POLAR>
0

>  <SCORE.INTER.ROT>
0

>  <SCORE.INTER.SOLV>
3.9336

>  <SCORE.INTER.VDW>
-16.6041

>  <SCORE.INTER.norm>
-1.75393

>  <SCORE.INTRA>
0

>  <SCORE.INTRA.DIHEDRAL>
0

>  <SCORE.INTRA.DIHEDRAL.0>
0

>  <SCORE.INTRA.POLAR>
0

>  <SCORE.INTRA.POLAR.0>
0

>  <SCORE.INTRA.REPUL>
0

>  <SCORE.INTRA.REPUL.0>
0

>  <SCORE.INTRA.SOLV>
0

>  <SCORE.INTRA.SOLV.lig_0>
-4.28333

>  <SCORE.INTRA.VDW>
0

>  <SCORE.INTRA.VDW.0>
0

>  <SCORE.INTRA.norm>
0

>  <SCORE.RESTR>
0

>  <SCORE.RESTR.CAVITY>
0

>  <SCORE.RESTR.norm>
0

>  <SCORE.SYSTEM>
0

>  <SCORE.SYSTEM.CONST>
0

>  <SCORE.SYSTEM.DIHEDRAL>
0

>  <SCORE.SYSTEM.SOLV>
0

>  <SCORE.SYSTEM.norm>
0

>  <SCORE.heavy>
10

>  <SCORE.norm>
-1.75393

>  <RMSD>
2.418

$$$$
ligand
 OpenBabel02271912143D
libRbt.so/2013.1/901 2013/11/27
 10 11  0  0  0  0  0  0  0  0999 V2000
   11.8318   10.5702    8.9053 N   0  0  0  0  0  0  0  0  0  0  0  0
   11.9984    9.3991    8.2040 C   0  0  0  0  0  0  0  0  0  0  0  0
   11.8642    9.3426    6.8777 N   0  0  0  0  0  0  0  0  0  0  0  0
   11.5512   10.5433    6.3125 C   0  0  0  0  0  0  0  0  0  0  0  0
   11.3694   11.7504    6.9582 C   0  0  0  0  0  0  0  0  0  0  0  0
   11.5122   11.8187    8.3711 C   0  0  0  0  0  0  0  0  0  0  0  0
   11.3984   12.7795    9.1419 O   0  0  0  0  0  0  0  0  0  0  0  0
   11.0675   12.7002    6.0231 N   0  0  0  0  0  0  0  0  0  0  0  0
   11.0685   12.0776    4.8216 C   0  0  0  0  0  0  0  0  0  0  0  0
   11.3640   10.7392    4.9671 N   0  0  0  0  0  0  0  0  0  0  0  0
  1  2  1  0  0  0  0
  1  6  1  0  0  0  0
  2  3  2  0  0  0  0
  3  4  1  0  0  0  0
  4  5  2  0  0  0  0
  4 10  1  0  0  0  0
  5  6  1  0  0  0  0
  5  8  1  0  0  0  0
  6  7  2  0  0  0  0
  8  9  1  0  0  0  0
  9 10  2  0  0  0  0
M  END
>  <CHROM.1>
11.50118420,11.20043836,7.09911702,-1.02476552,1.33908004,-2.05680831

>  <Name>
ligand

>  <RI>
0

>  <Rbt.Current_Directory>
/home/itssahil/PROJECTS/Mol_Feturizer/Test_systems_manuscript/rnas/4fe5

>  <Rbt.Executable>
rbdock ($Id: //depot/dev/client3/rdock/2013.1/src/exe/rbdock.cxx#4 $)

>  <Rbt.Library>
libRbt.so (2013.1, Build901 2013/11/27)

>  <Rbt.Parameter_File>
/export/apps/rDock/src/rDock_2013.1_src/data/scripts/dock_solv.prm

>  <Rbt.Receptor>
prm/pocket_docking_3.prm

>  <SCORE>
-17.5331

>  <SCORE.INTER>
-17.5331

>  <SCORE.INTER.CONST>
1

>  <SCORE.INTER.POLAR>
0

>  <SCORE.INTER.ROT>
0

>  <SCORE.INTER.SOLV>
3.91121

>  <SCORE.INTER.VDW>
-16.5924

>  <SCORE.INTER.norm>
-1.75331

>  <SCORE.INTRA>
0

>  <SCORE.INTRA.DIHEDRAL>
0

>  <SCORE.INTRA.DIHEDRAL.0>
0

>  <SCORE.INTRA.POLAR>
0

>  <SCORE.INTRA.POLAR.0>
0

>  <SCORE.INTRA.REPUL>
0

>  <SCORE.INTRA.REPUL.0>
0

>  <SCORE.INTRA.SOLV>
0

>  <SCORE.INTRA.SOLV.lig_0>
-4.28333

>  <SCORE.INTRA.VDW>
0

>  <SCORE.INTRA.VDW.0>
0

>  <SCORE.INTRA.norm>
0

>  <SCORE.RESTR>
0

>  <SCORE.RESTR.CAVITY>
0

>  <SCORE.RESTR.norm>
0

>  <SCORE.SYSTEM>
0

>  <SCORE.SYSTEM.CONST>
0

>  <SCORE.SYSTEM.DIHEDRAL>
0

>  <SCORE.SYSTEM.SOLV>
0

>  <SCORE.SYSTEM.norm>
0

>  <SCORE.heavy>
10

>  <SCORE.norm>
-1.75331

>  <RMSD>
2.418

$$$$
ligand
 OpenBabel02271912143D
libRbt.so/2013.1/901 2013/11/27
 10 11  0  0  0  0  0  0  0  0999 V2000
   11.8360   10.5717    8.9072 N   0  0  0  0  0  0  0  0  0  0  0  0
   12.0050    9.3990    8.2091 C   0  0  0  0  0  0  0  0  0  0  0  0
   11.8642    9.3370    6.8838 N   0  0  0  0  0  0  0  0  0  0  0  0
   11.5421   10.5340    6.3159 C   0  0  0  0  0  0  0  0  0  0  0  0
   11.3573   11.7425    6.9583 C   0  0  0  0  0  0  0  0  0  0  0  0
   11.5071   11.8166    8.3702 C   0  0  0  0  0  0  0  0  0  0  0  0
   11.3923   12.7796    9.1380 O   0  0  0  0  0  0  0  0  0  0  0  0
   11.0456   12.6873    6.0214 N   0  0  0  0  0  0  0  0  0  0  0  0
   11.0437   12.0604    4.8221 C   0  0  0  0  0  0  0  0  0  0  0  0
   11.3468   10.7241    4.9709 N   0  0  0  0  0  0  0  0  0  0  0  0
  1  2  1  0  0  0  0
  1  6  1  0  0  0  0
  2  3  2  0  0  0  0
  3  4  1  0  0  0  0
  4  5  2  0  0  0  0
  4 10  1  0  0  0  0
  5  6  1  0  0  0  0
  5  8  1  0  0  0  0
  6  7  2  0  0  0  0
  8  9  1  0  0  0  0
  9 10  2  0  0  0  0
M  END
>  <CHROM.1>
11.49268178,11.19371831,7.10045801,-1.01563680,1.33204880,-2.06928155

>  <Name>
ligand

>  <RI>
0

>  <Rbt.Current_Directory>
/home/itssahil/PROJECTS/Mol_Feturizer/Test_systems_manuscript/rnas/4fe5

>  <Rbt.Executable>
rbdock ($Id: //depot/dev/client3/rdock/2013.1/src/exe/rbdock.cxx#4 $)

>  <Rbt.Library>
libRbt.so (2013.1, Build901 2013/11/27)

>  <Rbt.Parameter_File>
/export/apps/rDock/src/rDock_2013.1_src/data/scripts/dock_solv.prm

>  <Rbt.Receptor>
prm/pocket_docking_3.prm

>  <SCORE>
-17.5644

>  <SCORE.INTER>
-17.5644

>  <SCORE.INTER.CONST>
1

>  <SCORE.INTER.POLAR>
0

>  <SCORE.INTER.ROT>
0

>  <SCORE.INTER.SOLV>
3.90384

>  <SCORE.INTER.VDW>
-16.6109

>  <SCORE.INTER.norm>
-1.75644

>  <SCORE.INTRA>
0

>  <SCORE.INTRA.DIHEDRAL>
0

>  <SCORE.INTRA.DIHEDRAL.0>
0

>  <SCORE.INTRA.POLAR>
0

>  <SCORE.INTRA.POLAR.0>
0

>  <SCORE.INTRA.REPUL>
0

>  <SCORE.INTRA.REPUL.0>
0

>  <SCORE.INTRA.SOLV>
0

>  <SCORE.INTRA.SOLV.lig_0>
-4.28333

>  <SCORE.INTRA.VDW>
0

>  <SCORE.INTRA.VDW.0>
0

>  <SCORE.INTRA.norm>
0

>  <SCORE.RESTR>
0

>  <SCORE.RESTR.CAVITY>
0

>  <SCORE.RESTR.norm>
0

>  <SCORE.SYSTEM>
0

>  <SCORE.SYSTEM.CONST>
0

>  <SCORE.SYSTEM.DIHEDRAL>
0

>  <SCORE.SYSTEM.SOLV>
0

>  <SCORE.SYSTEM.norm>
0

>  <SCORE.heavy>
10

>  <SCORE.norm>
-1.75644

>  <RMSD>
2.418

$$$$
ligand
 OpenBabel02271912143D
libRbt.so/2013.1/901 2013/11/27
 10 11  0  0  0  0  0  0  0  0999 V2000
   11.8318   10.5775    8.9070 N   0  0  0  0  0  0  0  0  0  0  0  0
   11.9946    9.4025    8.2114 C   0  0  0  0  0  0  0  0  0  0  0  0
   11.8516    9.3380    6.8864 N   0  0  0  0  0  0  0  0  0  0  0  0
   11.5339   10.5351    6.3163 C   0  0  0  0  0  0  0  0  0  0  0  0
   11.3554   11.7458    6.9561 C   0  0  0  0  0  0  0  0  0  0  0  0
   11.5076   11.8226    8.3677 C   0  0  0  0  0  0  0  0  0  0  0  0
   11.3982   12.7878    9.1335 O   0  0  0  0  0  0  0  0  0  0  0  0
   11.0465   12.6898    6.0175 N   0  0  0  0  0  0  0  0  0  0  0  0
   11.0399   12.0602    4.8197 C   0  0  0  0  0  0  0  0  0  0  0  0
   11.3374   10.7230    4.9711 N   0  0  0  0  0  0  0  0  0  0  0  0
  1  2  1  0  0  0  0
  1  6  1  0  0  0  0
  2  3  2  0  0  0  0
  3  4  1  0  0  0  0
  4  5  2  0  0  0  0
  4 10  1  0  0  0  0
  5  6  1  0  0  0  0
  5  8  1  0  0  0  0
  6  7  2  0  0  0  0
  8  9  1  0  0  0  0
  9 10  2  0  0  0  0
M  END
>  <CHROM.1>
11.48856976,11.19682705,7.09938459,-1.00104400,1.33516123,-2.08576632

>  <Name>
ligand

>  <RI>
0

>  <Rbt.Current_Directory>
/home/itssahil/PROJECTS/Mol_Feturizer/Test_systems_manuscript/rnas/4fe5

>  <Rbt.Executable>
rbdock ($Id: //depot/dev/client3/rdock/2013.1/src/exe/rbdock.cxx#4 $)

>  <Rbt.Library>
libRbt.so (2013.1, Build901 2013/11/27)

>  <Rbt.Parameter_File>
/export/apps/rDock/src/rDock_2013.1_src/data/scripts/dock_solv.prm

>  <Rbt.Receptor>
prm/pocket_docking_3.prm

>  <SCORE>
-17.5646

>  <SCORE.INTER>
-17.5646

>  <SCORE.INTER.CONST>
1

>  <SCORE.INTER.POLAR>
0

>  <SCORE.INTER.ROT>
0

>  <SCORE.INTER.SOLV>
3.91627

>  <SCORE.INTER.VDW>
-16.6151

>  <SCORE.INTER.norm>
-1.75646

>  <SCORE.INTRA>
0

>  <SCORE.INTRA.DIHEDRAL>
0

>  <SCORE.INTRA.DIHEDRAL.0>
0

>  <SCORE.INTRA.POLAR>
0

>  <SCORE.INTRA.POLAR.0>
0

>  <SCORE.INTRA.REPUL>
0

>  <SCORE.INTRA.REPUL.0>
0

>  <SCORE.INTRA.SOLV>
0

>  <SCORE.INTRA.SOLV.lig_0>
-4.28333

>  <SCORE.INTRA.VDW>
0

>  <SCORE.INTRA.VDW.0>
0

>  <SCORE.INTRA.norm>
0

>  <SCORE.RESTR>
0

>  <SCORE.RESTR.CAVITY>
0

>  <SCORE.RESTR.norm>
0

>  <SCORE.SYSTEM>
0

>  <SCORE.SYSTEM.CONST>
0

>  <SCORE.SYSTEM.DIHEDRAL>
0

>  <SCORE.SYSTEM.SOLV>
0

>  <SCORE.SYSTEM.norm>
0

>  <SCORE.heavy>
10

>  <SCORE.norm>
-1.75646

>  <RMSD>
2.418

$$$$
ligand
 OpenBabel02271912143D
libRbt.so/2013.1/901 2013/11/27
 10 11  0  0  0  0  0  0  0  0999 V2000
   11.8348   10.5717    8.9064 N   0  0  0  0  0  0  0  0  0  0  0  0
   12.0114    9.4014    8.2063 C   0  0  0  0  0  0  0  0  0  0  0  0
   11.8729    9.3412    6.8806 N   0  0  0  0  0  0  0  0  0  0  0  0
   11.5450   10.5375    6.3146 C   0  0  0  0  0  0  0  0  0  0  0  0
   11.3526   11.7436    6.9590 C   0  0  0  0  0  0  0  0  0  0  0  0
   11.4998   11.8159    8.3713 C   0  0  0  0  0  0  0  0  0  0  0  0
   11.3784   12.7767    9.1409 O   0  0  0  0  0  0  0  0  0  0  0  0
   11.0371   12.6885    6.0235 N   0  0  0  0  0  0  0  0  0  0  0  0
   11.0404   12.0640    4.8230 C   0  0  0  0  0  0  0  0  0  0  0  0
   11.3508   10.7292    4.9696 N   0  0  0  0  0  0  0  0  0  0  0  0
  1  2  1  0  0  0  0
  1  6  1  0  0  0  0
  2  3  2  0  0  0  0
  3  4  1  0  0  0  0
  4  5  2  0  0  0  0
  4 10  1  0  0  0  0
  5  6  1  0  0  0  0
  5  8  1  0  0  0  0
  6  7  2  0  0  0  0
  8  9  1  0  0  0  0
  9 10  2  0  0  0  0
M  END
>  <CHROM.1>
11.49078097,11.19537834,7.10037135,-1.03225221,1.32785946,-2.05118589

>  <Name>
ligand

>  <RI>
0

>  <Rbt.Current_Directory>
/home/itssahil/PROJECTS/Mol_Feturizer/Test_systems_manuscript/rnas/4fe5

>  <Rbt.Executable>
rbdock ($Id: //depot/dev/client3/rdock/2013.1/src/exe/rbdock.cxx#4 $)

>  <Rbt.Library>
libRbt.so (2013.1, Build901 2013/11/27)

>  <Rbt.Parameter_File>
/export/apps/rDock/src/rDock_2013.1_src/data/scripts/dock_solv.prm

>  <Rbt.Receptor>
prm/pocket_docking_3.prm

>  <SCORE>
-17.5606

>  <SCORE.INTER>
-17.5606

>  <SCORE.INTER.CONST>
1

>  <SCORE.INTER.POLAR>
0

>  <SCORE.INTER.ROT>
0

>  <SCORE.INTER.SOLV>
3.89642

>  <SCORE.INTER.VDW>
-16.6059

>  <SCORE.INTER.norm>
-1.75606

>  <SCORE.INTRA>
0

>  <SCORE.INTRA.DIHEDRAL>
0

>  <SCORE.INTRA.DIHEDRAL.0>
0

>  <SCORE.INTRA.POLAR>
0

>  <SCORE.INTRA.POLAR.0>
0

>  <SCORE.INTRA.REPUL>
0

>  <SCORE.INTRA.REPUL.0>
0

>  <SCORE.INTRA.SOLV>
0

>  <SCORE.INTRA.SOLV.lig_0>
-4.28333

>  <SCORE.INTRA.VDW>
0

>  <SCORE.INTRA.VDW.0>
0

>  <SCORE.INTRA.norm>
0

>  <SCORE.RESTR>
0

>  <SCORE.RESTR.CAVITY>
0

>  <SCORE.RESTR.norm>
0

>  <SCORE.SYSTEM>
0

>  <SCORE.SYSTEM.CONST>
0

>  <SCORE.SYSTEM.DIHEDRAL>
0

>  <SCORE.SYSTEM.SOLV>
0

>  <SCORE.SYSTEM.norm>
0

>  <SCORE.heavy>
10

>  <SCORE.norm>
-1.75606

>  <RMSD>
2.418

$$$$
ligand
 OpenBabel02271912143D
libRbt.so/2013.1/901 2013/11/27
 10 11  0  0  0  0  0  0  0  0999 V2000
   11.8329   10.5968    8.9090 N   0  0  0  0  0  0  0  0  0  0  0  0
   11.9933    9.4164    8.2221 C   0  0  0  0  0  0  0  0  0  0  0  0
   11.8504    9.3426    6.8976 N   0  0  0  0  0  0  0  0  0  0  0  0
   11.5355   10.5361    6.3186 C   0  0  0  0  0  0  0  0  0  0  0  0
   11.3594   11.7519    6.9495 C   0  0  0  0  0  0  0  0  0  0  0  0
   11.5114   11.8387    8.3604 C   0  0  0  0  0  0  0  0  0  0  0  0
   11.4039   12.8097    9.1191 O   0  0  0  0  0  0  0  0  0  0  0  0
   11.0528   12.6896    6.0039 N   0  0  0  0  0  0  0  0  0  0  0  0
   11.0452   12.0512    4.8107 C   0  0  0  0  0  0  0  0  0  0  0  0
   11.3398   10.7145    4.9720 N   0  0  0  0  0  0  0  0  0  0  0  0
  1  2  1  0  0  0  0
  1  6  1  0  0  0  0
  2  3  2  0  0  0  0
  3  4  1  0  0  0  0
  4  5  2  0  0  0  0
  4 10  1  0  0  0  0
  5  6  1  0  0  0  0
  5  8  1  0  0  0  0
  6  7  2  0  0  0  0
  8  9  1  0  0  0  0
  9 10  2  0  0  0  0
M  END
>  <CHROM.1>
11.49139488,11.20364532,7.09680049,-0.99735917,1.33716717,-2.09668946

>  <Name>
ligand

>  <RI>
0

>  <Rbt.Current_Directory>
/home/itssahil/PROJECTS/Mol_Feturizer/Test_systems_manuscript/rnas/4fe5

>  <Rbt.Executable>
rbdock ($Id: //depot/dev/client3/rdock/2013.1/src/exe/rbdock.cxx#4 $)

>  <Rbt.Library>
libRbt.so (2013.1, Build901 2013/11/27)

>  <Rbt.Parameter_File>
/export/apps/rDock/src/rDock_2013.1_src/data/scripts/dock_solv.prm

>  <Rbt.Receptor>
prm/pocket_docking_3.prm

>  <SCORE>
-17.5636

>  <SCORE.INTER>
-17.5636

>  <SCORE.INTER.CONST>
1

>  <SCORE.INTER.POLAR>
0

>  <SCORE.INTER.ROT>
0

>  <SCORE.INTER.SOLV>
3.93875

>  <SCORE.INTER.VDW>
-16.622

>  <SCORE.INTER.norm>
-1.75636

>  <SCORE.INTRA>
0

>  <SCORE.INTRA.DIHEDRAL>
0

>  <SCORE.INTRA.DIHEDRAL.0>
0

>  <SCORE.INTRA.POLAR>
0

>  <SCORE.INTRA.POLAR.0>
0

>  <SCORE.INTRA.REPUL>
0

>  <SCORE.INTRA.REPUL.0>
0

>  <SCORE.INTRA.SOLV>
0

>  <SCORE.INTRA.SOLV.lig_0>
-4.28333

>  <SCORE.INTRA.VDW>
0

>  <SCORE.INTRA.VDW.0>
0

>  <SCORE.INTRA.norm>
0

>  <SCORE.RESTR>
0

>  <SCORE.RESTR.CAVITY>
0

>  <SCORE.RESTR.norm>
0

>  <SCORE.SYSTEM>
0

>  <SCORE.SYSTEM.CONST>
0

>  <SCORE.SYSTEM.DIHEDRAL>
0

>  <SCORE.SYSTEM.SOLV>
0

>  <SCORE.SYSTEM.norm>
0

>  <SCORE.heavy>
10

>  <SCORE.norm>
-1.75636

>  <RMSD>
2.418

$$$$
ligand
 OpenBabel02271912143D
libRbt.so/2013.1/901 2013/11/27
 10 11  0  0  0  0  0  0  0  0999 V2000
   11.8298   10.5736    8.9084 N   0  0  0  0  0  0  0  0  0  0  0  0
   12.0024    9.4007    8.2115 C   0  0  0  0  0  0  0  0  0  0  0  0
   11.8647    9.3376    6.8859 N   0  0  0  0  0  0  0  0  0  0  0  0
   11.5418   10.5336    6.3165 C   0  0  0  0  0  0  0  0  0  0  0  0
   11.3536   11.7422    6.9576 C   0  0  0  0  0  0  0  0  0  0  0  0
   11.5000   11.8176    8.3698 C   0  0  0  0  0  0  0  0  0  0  0  0
   11.3819   12.7809    9.1367 O   0  0  0  0  0  0  0  0  0  0  0  0
   11.0424   12.6858    6.0194 N   0  0  0  0  0  0  0  0  0  0  0  0
   11.0442   12.0581    4.8205 C   0  0  0  0  0  0  0  0  0  0  0  0
   11.3492   10.7225    4.9709 N   0  0  0  0  0  0  0  0  0  0  0  0
  1  2  1  0  0  0  0
  1  6  1  0  0  0  0
  2  3  2  0  0  0  0
  3  4  1  0  0  0  0
  4  5  2  0  0  0  0
  4 10  1  0  0  0  0
  5  6  1  0  0  0  0
  5  8  1  0  0  0  0
  6  7  2  0  0  0  0
  8  9  1  0  0  0  0
  9 10  2  0  0  0  0
M  END
>  <CHROM.1>
11.48954782,11.19378666,7.10047164,-1.02737485,1.33162031,-2.05856608

>  <Name>
ligand

>  <RI>
0

>  <Rbt.Current_Directory>
/home/itssahil/PROJECTS/Mol_Feturizer/Test_systems_manuscript/rnas/4fe5

>  <Rbt.Executable>
rbdock ($Id: //depot/dev/client3/rdock/2013.1/src/exe/rbdock.cxx#4 $)

>  <Rbt.Library>
libRbt.so (2013.1, Build901 2013/11/27)

>  <Rbt.Parameter_File>
/export/apps/rDock/src/rDock_2013.1_src/data/scripts/dock_solv.prm

>  <Rbt.Receptor>
prm/pocket_docking_3.prm

>  <SCORE>
-17.5628

>  <SCORE.INTER>
-17.5628

>  <SCORE.INTER.CONST>
1

>  <SCORE.INTER.POLAR>
0

>  <SCORE.INTER.ROT>
0

>  <SCORE.INTER.SOLV>
3.90668

>  <SCORE.INTER.VDW>
-16.6108

>  <SCORE.INTER.norm>
-1.75628

>  <SCORE.INTRA>
0

>  <SCORE.INTRA.DIHEDRAL>
0

>  <SCORE.INTRA.DIHEDRAL.0>
0

>  <SCORE.INTRA.POLAR>
0

>  <SCORE.INTRA.POLAR.0>
0

>  <SCORE.INTRA.REPUL>
0

>  <SCORE.INTRA.REPUL.0>
0

>  <SCORE.INTRA.SOLV>
0

>  <SCORE.INTRA.SOLV.lig_0>
-4.28333

>  <SCORE.INTRA.VDW>
0

>  <SCORE.INTRA.VDW.0>
0

>  <SCORE.INTRA.norm>
0

>  <SCORE.RESTR>
0

>  <SCORE.RESTR.CAVITY>
0

>  <SCORE.RESTR.norm>
0

>  <SCORE.SYSTEM>
0

>  <SCORE.SYSTEM.CONST>
0

>  <SCORE.SYSTEM.DIHEDRAL>
0

>  <SCORE.SYSTEM.SOLV>
0

>  <SCORE.SYSTEM.norm>
0

>  <SCORE.heavy>
10

>  <SCORE.norm>
-1.75628

>  <RMSD>
2.418

$$$$
ligand
 OpenBabel02271912143D
libRbt.so/2013.1/901 2013/11/27
 10 11  0  0  0  0  0  0  0  0999 V2000
   11.8363   10.5897    8.9027 N   0  0  0  0  0  0  0  0  0  0  0  0
   11.9977    9.4119    8.2116 C   0  0  0  0  0  0  0  0  0  0  0  0
   11.8519    9.3420    6.8872 N   0  0  0  0  0  0  0  0  0  0  0  0
   11.5330   10.5367    6.3128 C   0  0  0  0  0  0  0  0  0  0  0  0
   11.3557   11.7501    6.9480 C   0  0  0  0  0  0  0  0  0  0  0  0
   11.5109   11.8327    8.3589 C   0  0  0  0  0  0  0  0  0  0  0  0
   11.4030   12.8010    9.1210 O   0  0  0  0  0  0  0  0  0  0  0  0
   11.0448   12.6902    6.0062 N   0  0  0  0  0  0  0  0  0  0  0  0
   11.0358   12.0556    4.8110 C   0  0  0  0  0  0  0  0  0  0  0  0
   11.3337   10.7191    4.9673 N   0  0  0  0  0  0  0  0  0  0  0  0
  1  2  1  0  0  0  0
  1  6  1  0  0  0  0
  2  3  2  0  0  0  0
  3  4  1  0  0  0  0
  4  5  2  0  0  0  0
  4 10  1  0  0  0  0
  5  6  1  0  0  0  0
  5  8  1  0  0  0  0
  6  7  2  0  0  0  0
  8  9  1  0  0  0  0
  9 10  2  0  0  0  0
M  END
>  <CHROM.1>
11.48924233,11.20166102,7.09327081,-0.99339544,1.33409602,-2.09731991

>  <Name>
ligand

>  <RI>
0

>  <Rbt.Current_Directory>
/home/itssahil/PROJECTS/Mol_Feturizer/Test_systems_manuscript/rnas/4fe5

>  <Rbt.Executable>
rbdock ($Id: //depot/dev/client3/rdock/2013.1/src/exe/rbdock.cxx#4 $)

>  <Rbt.Library>
libRbt.so (2013.1, Build901 2013/11/27)

>  <Rbt.Parameter_File>
/export/apps/rDock/src/rDock_2013.1_src/data/scripts/dock_solv.prm

>  <Rbt.Receptor>
prm/pocket_docking_4.prm

>  <SCORE>
-17.5654

>  <SCORE.INTER>
-17.5654

>  <SCORE.INTER.CONST>
1

>  <SCORE.INTER.POLAR>
0

>  <SCORE.INTER.ROT>
0

>  <SCORE.INTER.SOLV>
3.92617

>  <SCORE.INTER.VDW>
-16.619

>  <SCORE.INTER.norm>
-1.75654

>  <SCORE.INTRA>
0

>  <SCORE.INTRA.DIHEDRAL>
0

>  <SCORE.INTRA.DIHEDRAL.0>
0

>  <SCORE.INTRA.POLAR>
0

>  <SCORE.INTRA.POLAR.0>
0

>  <SCORE.INTRA.REPUL>
0

>  <SCORE.INTRA.REPUL.0>
0

>  <SCORE.INTRA.SOLV>
0

>  <SCORE.INTRA.SOLV.lig_0>
-4.28333

>  <SCORE.INTRA.VDW>
0

>  <SCORE.INTRA.VDW.0>
0

>  <SCORE.INTRA.norm>
0

>  <SCORE.RESTR>
0

>  <SCORE.RESTR.CAVITY>
0

>  <SCORE.RESTR.norm>
0

>  <SCORE.SYSTEM>
0

>  <SCORE.SYSTEM.CONST>
0

>  <SCORE.SYSTEM.DIHEDRAL>
0

>  <SCORE.SYSTEM.SOLV>
0

>  <SCORE.SYSTEM.norm>
0

>  <SCORE.heavy>
10

>  <SCORE.norm>
-1.75654

>  <RMSD>
2.418

$$$$
ligand
 OpenBabel02271912143D
libRbt.so/2013.1/901 2013/11/27
 10 11  0  0  0  0  0  0  0  0999 V2000
   11.8324   10.5738    8.9036 N   0  0  0  0  0  0  0  0  0  0  0  0
   11.9992    9.4016    8.2043 C   0  0  0  0  0  0  0  0  0  0  0  0
   11.8631    9.3423    6.8783 N   0  0  0  0  0  0  0  0  0  0  0  0
   11.5480   10.5415    6.3112 C   0  0  0  0  0  0  0  0  0  0  0  0
   11.3658   11.7497    6.9549 C   0  0  0  0  0  0  0  0  0  0  0  0
   11.5106   11.8210    8.3675 C   0  0  0  0  0  0  0  0  0  0  0  0
   11.3969   12.7831    9.1365 O   0  0  0  0  0  0  0  0  0  0  0  0
   11.0615   12.6973    6.0184 N   0  0  0  0  0  0  0  0  0  0  0  0
   11.0614   12.0723    4.8181 C   0  0  0  0  0  0  0  0  0  0  0  0
   11.3585   10.7346    4.9658 N   0  0  0  0  0  0  0  0  0  0  0  0
  1  2  1  0  0  0  0
  1  6  1  0  0  0  0
  2  3  2  0  0  0  0
  3  4  1  0  0  0  0
  4  5  2  0  0  0  0
  4 10  1  0  0  0  0
  5  6  1  0  0  0  0
  5  8  1  0  0  0  0
  6  7  2  0  0  0  0
  8  9  1  0  0  0  0
  9 10  2  0  0  0  0
M  END
>  <CHROM.1>
11.49839616,11.20015620,7.09666138,-1.02126117,1.33740965,-2.06218027

>  <Name>
ligand

>  <RI>
0

>  <Rbt.Current_Directory>
/home/itssahil/PROJECTS/Mol_Feturizer/Test_systems_manuscript/rnas/4fe5

>  <Rbt.Executable>
rbdock ($Id: //depot/dev/client3/rdock/2013.1/src/exe/rbdock.cxx#4 $)

>  <Rbt.Library>
libRbt.so (2013.1, Build901 2013/11/27)

>  <Rbt.Parameter_File>
/export/apps/rDock/src/rDock_2013.1_src/data/scripts/dock_solv.prm

>  <Rbt.Receptor>
prm/pocket_docking_4.prm

>  <SCORE>
-17.5346

>  <SCORE.INTER>
-17.5346

>  <SCORE.INTER.CONST>
1

>  <SCORE.INTER.POLAR>
0

>  <SCORE.INTER.ROT>
0

>  <SCORE.INTER.SOLV>
3.91236

>  <SCORE.INTER.VDW>
-16.5939

>  <SCORE.INTER.norm>
-1.75346

>  <SCORE.INTRA>
0

>  <SCORE.INTRA.DIHEDRAL>
0

>  <SCORE.INTRA.DIHEDRAL.0>
0

>  <SCORE.INTRA.POLAR>
0

>  <SCORE.INTRA.POLAR.0>
0

>  <SCORE.INTRA.REPUL>
0

>  <SCORE.INTRA.REPUL.0>
0

>  <SCORE.INTRA.SOLV>
0

>  <SCORE.INTRA.SOLV.lig_0>
-4.28333

>  <SCORE.INTRA.VDW>
0

>  <SCORE.INTRA.VDW.0>
0

>  <SCORE.INTRA.norm>
0

>  <SCORE.RESTR>
0

>  <SCORE.RESTR.CAVITY>
0

>  <SCORE.RESTR.norm>
0

>  <SCORE.SYSTEM>
0

>  <SCORE.SYSTEM.CONST>
0

>  <SCORE.SYSTEM.DIHEDRAL>
0

>  <SCORE.SYSTEM.SOLV>
0

>  <SCORE.SYSTEM.norm>
0

>  <SCORE.heavy>
10

>  <SCORE.norm>
-1.75346

>  <RMSD>
2.418

$$$$
ligand
 OpenBabel02271912143D
libRbt.so/2013.1/901 2013/11/27
 10 11  0  0  0  0  0  0  0  0999 V2000
   11.7809   10.5430    8.9484 N   0  0  0  0  0  0  0  0  0  0  0  0
   11.9648    9.3794    8.2391 C   0  0  0  0  0  0  0  0  0  0  0  0
   11.8503    9.3340    6.9105 N   0  0  0  0  0  0  0  0  0  0  0  0
   11.5385   10.5378    6.3515 C   0  0  0  0  0  0  0  0  0  0  0  0
   11.3400   11.7380    7.0053 C   0  0  0  0  0  0  0  0  0  0  0  0
   11.4616   11.7945    8.4207 C   0  0  0  0  0  0  0  0  0  0  0  0
   11.3308   12.7476    9.1982 O   0  0  0  0  0  0  0  0  0  0  0  0
   11.0461   12.6943    6.0743 N   0  0  0  0  0  0  0  0  0  0  0  0
   11.0685   12.0826    4.8674 C   0  0  0  0  0  0  0  0  0  0  0  0
   11.3698   10.7448    5.0054 N   0  0  0  0  0  0  0  0  0  0  0  0
  1  2  1  0  0  0  0
  1  6  1  0  0  0  0
  2  3  2  0  0  0  0
  3  4  1  0  0  0  0
  4  5  2  0  0  0  0
  4 10  1  0  0  0  0
  5  6  1  0  0  0  0
  5  8  1  0  0  0  0
  6  7  2  0  0  0  0
  8  9  1  0  0  0  0
  9 10  2  0  0  0  0
M  END
>  <CHROM.1>
11.47298048,11.18757817,7.14317345,-1.09371628,1.34008421,-1.98073449

>  <Name>
ligand

>  <RI>
0

>  <Rbt.Current_Directory>
/home/itssahil/PROJECTS/Mol_Feturizer/Test_systems_manuscript/rnas/4fe5

>  <Rbt.Executable>
rbdock ($Id: //depot/dev/client3/rdock/2013.1/src/exe/rbdock.cxx#4 $)

>  <Rbt.Library>
libRbt.so (2013.1, Build901 2013/11/27)

>  <Rbt.Parameter_File>
/export/apps/rDock/src/rDock_2013.1_src/data/scripts/dock_solv.prm

>  <Rbt.Receptor>
prm/pocket_docking_4.prm

>  <SCORE>
-17.4459

>  <SCORE.INTER>
-17.4459

>  <SCORE.INTER.CONST>
1

>  <SCORE.INTER.POLAR>
0

>  <SCORE.INTER.ROT>
0

>  <SCORE.INTER.SOLV>
3.91461

>  <SCORE.INTER.VDW>
-16.5354

>  <SCORE.INTER.norm>
-1.74459

>  <SCORE.INTRA>
0

>  <SCORE.INTRA.DIHEDRAL>
0

>  <SCORE.INTRA.DIHEDRAL.0>
0

>  <SCORE.INTRA.POLAR>
0

>  <SCORE.INTRA.POLAR.0>
0

>  <SCORE.INTRA.REPUL>
0

>  <SCORE.INTRA.REPUL.0>
0

>  <SCORE.INTRA.SOLV>
0

>  <SCORE.INTRA.SOLV.lig_0>
-4.28333

>  <SCORE.INTRA.VDW>
0

>  <SCORE.INTRA.VDW.0>
0

>  <SCORE.INTRA.norm>
0

>  <SCORE.RESTR>
0

>  <SCORE.RESTR.CAVITY>
0

>  <SCORE.RESTR.norm>
0

>  <SCORE.SYSTEM>
0

>  <SCORE.SYSTEM.CONST>
0

>  <SCORE.SYSTEM.DIHEDRAL>
0

>  <SCORE.SYSTEM.SOLV>
0

>  <SCORE.SYSTEM.norm>
0

>  <SCORE.heavy>
10

>  <SCORE.norm>
-1.74459

>  <RMSD>
2.418

$$$$
ligand
 OpenBabel02271912143D
libRbt.so/2013.1/901 2013/11/27
 10 11  0  0  0  0  0  0  0  0999 V2000
   11.8332   10.5735    8.9029 N   0  0  0  0  0  0  0  0  0  0  0  0
   12.0031    9.4012    8.2046 C   0  0  0  0  0  0  0  0  0  0  0  0
   11.8616    9.3392    6.8793 N   0  0  0  0  0  0  0  0  0  0  0  0
   11.5381   10.5360    6.3118 C   0  0  0  0  0  0  0  0  0  0  0  0
   11.3524   11.7442    6.9544 C   0  0  0  0  0  0  0  0  0  0  0  0
   11.5028   11.8182    8.3663 C   0  0  0  0  0  0  0  0  0  0  0  0
   11.3874   12.7809    9.1344 O   0  0  0  0  0  0  0  0  0  0  0  0
   11.0393   12.6888    6.0179 N   0  0  0  0  0  0  0  0  0  0  0  0
   11.0373   12.0621    4.8185 C   0  0  0  0  0  0  0  0  0  0  0  0
   11.3419   10.7261    4.9669 N   0  0  0  0  0  0  0  0  0  0  0  0
  1  2  1  0  0  0  0
  1  6  1  0  0  0  0
  2  3  2  0  0  0  0
  3  4  1  0  0  0  0
  4  5  2  0  0  0  0
  4 10  1  0  0  0  0
  5  6  1  0  0  0  0
  5  8  1  0  0  0  0
  6  7  2  0  0  0  0
  8  9  1  0  0  0  0
  9 10  2  0  0  0  0
M  END
>  <CHROM.1>
11.48839341,11.19551752,7.09645440,-1.01581283,1.33091928,-2.06894040

>  <Name>
ligand

>  <RI>
0

>  <Rbt.Current_Directory>
/home/itssahil/PROJECTS/Mol_Feturizer/Test_systems_manuscript/rnas/4fe5

>  <Rbt.Executable>
rbdock ($Id: //depot/dev/client3/rdock/2013.1/src/exe/rbdock.cxx#4 $)

>  <Rbt.Library>
libRbt.so (2013.1, Build901 2013/11/27)

>  <Rbt.Parameter_File>
/export/apps/rDock/src/rDock_2013.1_src/data/scripts/dock_solv.prm

>  <Rbt.Receptor>
prm/pocket_docking_4.prm

>  <SCORE>
-17.5653

>  <SCORE.INTER>
-17.5653

>  <SCORE.INTER.CONST>
1

>  <SCORE.INTER.POLAR>
0

>  <SCORE.INTER.ROT>
0

>  <SCORE.INTER.SOLV>
3.9043

>  <SCORE.INTER.VDW>
-16.6117

>  <SCORE.INTER.norm>
-1.75653

>  <SCORE.INTRA>
0

>  <SCORE.INTRA.DIHEDRAL>
0

>  <SCORE.INTRA.DIHEDRAL.0>
0

>  <SCORE.INTRA.POLAR>
0

>  <SCORE.INTRA.POLAR.0>
0

>  <SCORE.INTRA.REPUL>
0

>  <SCORE.INTRA.REPUL.0>
0

>  <SCORE.INTRA.SOLV>
0

>  <SCORE.INTRA.SOLV.lig_0>
-4.28333

>  <SCORE.INTRA.VDW>
0

>  <SCORE.INTRA.VDW.0>
0

>  <SCORE.INTRA.norm>
0

>  <SCORE.RESTR>
0

>  <SCORE.RESTR.CAVITY>
0

>  <SCORE.RESTR.norm>
0

>  <SCORE.SYSTEM>
0

>  <SCORE.SYSTEM.CONST>
0

>  <SCORE.SYSTEM.DIHEDRAL>
0

>  <SCORE.SYSTEM.SOLV>
0

>  <SCORE.SYSTEM.norm>
0

>  <SCORE.heavy>
10

>  <SCORE.norm>
-1.75653

>  <RMSD>
2.418

$$$$
ligand
 OpenBabel02271912143D
libRbt.so/2013.1/901 2013/11/27
 10 11  0  0  0  0  0  0  0  0999 V2000
   11.8306   10.5908    8.9155 N   0  0  0  0  0  0  0  0  0  0  0  0
   12.0005    9.4137    8.2253 C   0  0  0  0  0  0  0  0  0  0  0  0
   11.8635    9.3436    6.8999 N   0  0  0  0  0  0  0  0  0  0  0  0
   11.5440   10.5373    6.3238 C   0  0  0  0  0  0  0  0  0  0  0  0
   11.3585   11.7499    6.9581 C   0  0  0  0  0  0  0  0  0  0  0  0
   11.5043   11.8327    8.3699 C   0  0  0  0  0  0  0  0  0  0  0  0
   11.3882   12.8004    9.1315 O   0  0  0  0  0  0  0  0  0  0  0  0
   11.0503   12.6891    6.0145 N   0  0  0  0  0  0  0  0  0  0  0  0
   11.0512   12.0548    4.8191 C   0  0  0  0  0  0  0  0  0  0  0  0
   11.3527   10.7193    4.9770 N   0  0  0  0  0  0  0  0  0  0  0  0
  1  2  1  0  0  0  0
  1  6  1  0  0  0  0
  2  3  2  0  0  0  0
  3  4  1  0  0  0  0
  4  5  2  0  0  0  0
  4 10  1  0  0  0  0
  5  6  1  0  0  0  0
  5  8  1  0  0  0  0
  6  7  2  0  0  0  0
  8  9  1  0  0  0  0
  9 10  2  0  0  0  0
M  END
>  <CHROM.1>
11.49298948,11.20189133,7.10403832,-1.02449205,1.33417175,-2.06686710

>  <Name>
ligand

>  <RI>
0

>  <Rbt.Current_Directory>
/home/itssahil/PROJECTS/Mol_Feturizer/Test_systems_manuscript/rnas/4fe5

>  <Rbt.Executable>
rbdock ($Id: //depot/dev/client3/rdock/2013.1/src/exe/rbdock.cxx#4 $)

>  <Rbt.Library>
libRbt.so (2013.1, Build901 2013/11/27)

>  <Rbt.Parameter_File>
/export/apps/rDock/src/rDock_2013.1_src/data/scripts/dock_solv.prm

>  <Rbt.Receptor>
prm/pocket_docking_4.prm

>  <SCORE>
-17.5582

>  <SCORE.INTER>
-17.5582

>  <SCORE.INTER.CONST>
1

>  <SCORE.INTER.POLAR>
0

>  <SCORE.INTER.ROT>
0

>  <SCORE.INTER.SOLV>
3.92737

>  <SCORE.INTER.VDW>
-16.6146

>  <SCORE.INTER.norm>
-1.75582

>  <SCORE.INTRA>
0

>  <SCORE.INTRA.DIHEDRAL>
0

>  <SCORE.INTRA.DIHEDRAL.0>
0

>  <SCORE.INTRA.POLAR>
0

>  <SCORE.INTRA.POLAR.0>
0

>  <SCORE.INTRA.REPUL>
0

>  <SCORE.INTRA.REPUL.0>
0

>  <SCORE.INTRA.SOLV>
0

>  <SCORE.INTRA.SOLV.lig_0>
-4.28333

>  <SCORE.INTRA.VDW>
0

>  <SCORE.INTRA.VDW.0>
0

>  <SCORE.INTRA.norm>
0

>  <SCORE.RESTR>
0

>  <SCORE.RESTR.CAVITY>
0

>  <SCORE.RESTR.norm>
0

>  <SCORE.SYSTEM>
0

>  <SCORE.SYSTEM.CONST>
0

>  <SCORE.SYSTEM.DIHEDRAL>
0

>  <SCORE.SYSTEM.SOLV>
0

>  <SCORE.SYSTEM.norm>
0

>  <SCORE.heavy>
10

>  <SCORE.norm>
-1.75582

>  <RMSD>
2.418

$$$$
ligand
 OpenBabel02271912143D
libRbt.so/2013.1/901 2013/11/27
 10 11  0  0  0  0  0  0  0  0999 V2000
   11.8350   10.5916    8.9095 N   0  0  0  0  0  0  0  0  0  0  0  0
   11.9991    9.4137    8.2192 C   0  0  0  0  0  0  0  0  0  0  0  0
   11.8570    9.3432    6.8944 N   0  0  0  0  0  0  0  0  0  0  0  0
   11.5388   10.5375    6.3188 C   0  0  0  0  0  0  0  0  0  0  0  0
   11.3589   11.7509    6.9531 C   0  0  0  0  0  0  0  0  0  0  0  0
   11.5101   11.8341    8.3643 C   0  0  0  0  0  0  0  0  0  0  0  0
   11.3994   12.8026    9.1257 O   0  0  0  0  0  0  0  0  0  0  0  0
   11.0499   12.6905    6.0101 N   0  0  0  0  0  0  0  0  0  0  0  0
   11.0446   12.0555    4.8150 C   0  0  0  0  0  0  0  0  0  0  0  0
   11.3431   10.7192    4.9726 N   0  0  0  0  0  0  0  0  0  0  0  0
  1  2  1  0  0  0  0
  1  6  1  0  0  0  0
  2  3  2  0  0  0  0
  3  4  1  0  0  0  0
  4  5  2  0  0  0  0
  4 10  1  0  0  0  0
  5  6  1  0  0  0  0
  5  8  1  0  0  0  0
  6  7  2  0  0  0  0
  8  9  1  0  0  0  0
  9 10  2  0  0  0  0
M  END
>  <CHROM.1>
11.49240530,11.20265437,7.09885367,-1.00512835,1.33480709,-2.08625906

>  <Name>
ligand

>  <RI>
0

>  <Rbt.Current_Directory>
/home/itssahil/PROJECTS/Mol_Feturizer/Test_systems_manuscript/rnas/4fe5

>  <Rbt.Executable>
rbdock ($Id: //depot/dev/client3/rdock/2013.1/src/exe/rbdock.cxx#4 $)

>  <Rbt.Library>
libRbt.so (2013.1, Build901 2013/11/27)

>  <Rbt.Parameter_File>
/export/apps/rDock/src/rDock_2013.1_src/data/scripts/dock_solv.prm

>  <Rbt.Receptor>
prm/pocket_docking_4.prm

>  <SCORE>
-17.5632

>  <SCORE.INTER>
-17.5632

>  <SCORE.INTER.CONST>
1

>  <SCORE.INTER.POLAR>
0

>  <SCORE.INTER.ROT>
0

>  <SCORE.INTER.SOLV>
3.92862

>  <SCORE.INTER.VDW>
-16.6183

>  <SCORE.INTER.norm>
-1.75632

>  <SCORE.INTRA>
0

>  <SCORE.INTRA.DIHEDRAL>
0

>  <SCORE.INTRA.DIHEDRAL.0>
0

>  <SCORE.INTRA.POLAR>
0

>  <SCORE.INTRA.POLAR.0>
0

>  <SCORE.INTRA.REPUL>
0

>  <SCORE.INTRA.REPUL.0>
0

>  <SCORE.INTRA.SOLV>
0

>  <SCORE.INTRA.SOLV.lig_0>
-4.28333

>  <SCORE.INTRA.VDW>
0

>  <SCORE.INTRA.VDW.0>
0

>  <SCORE.INTRA.norm>
0

>  <SCORE.RESTR>
0

>  <SCORE.RESTR.CAVITY>
0

>  <SCORE.RESTR.norm>
0

>  <SCORE.SYSTEM>
0

>  <SCORE.SYSTEM.CONST>
0

>  <SCORE.SYSTEM.DIHEDRAL>
0

>  <SCORE.SYSTEM.SOLV>
0

>  <SCORE.SYSTEM.norm>
0

>  <SCORE.heavy>
10

>  <SCORE.norm>
-1.75632

>  <RMSD>
2.418

$$$$
ligand
 OpenBabel02271912143D
libRbt.so/2013.1/901 2013/11/27
 10 11  0  0  0  0  0  0  0  0999 V2000
   11.8315   10.5912    8.9111 N   0  0  0  0  0  0  0  0  0  0  0  0
   11.9952    9.4125    8.2219 C   0  0  0  0  0  0  0  0  0  0  0  0
   11.8543    9.3413    6.8970 N   0  0  0  0  0  0  0  0  0  0  0  0
   11.5379   10.5354    6.3201 C   0  0  0  0  0  0  0  0  0  0  0  0
   11.3586   11.7495    6.9534 C   0  0  0  0  0  0  0  0  0  0  0  0
   11.5084   11.8336    8.3647 C   0  0  0  0  0  0  0  0  0  0  0  0
   11.3980   12.8028    9.1253 O   0  0  0  0  0  0  0  0  0  0  0  0
   11.0515   12.6887    6.0094 N   0  0  0  0  0  0  0  0  0  0  0  0
   11.0468   12.0529    4.8148 C   0  0  0  0  0  0  0  0  0  0  0  0
   11.3438   10.7164    4.9736 N   0  0  0  0  0  0  0  0  0  0  0  0
  1  2  1  0  0  0  0
  1  6  1  0  0  0  0
  2  3  2  0  0  0  0
  3  4  1  0  0  0  0
  4  5  2  0  0  0  0
  4 10  1  0  0  0  0
  5  6  1  0  0  0  0
  5  8  1  0  0  0  0
  6  7  2  0  0  0  0
  8  9  1  0  0  0  0
  9 10  2  0  0  0  0
M  END
>  <CHROM.1>
11.49141986,11.20124066,7.09969243,-1.00681157,1.33620472,-2.08534521

>  <Name>
ligand

>  <RI>
0

>  <Rbt.Current_Directory>
/home/itssahil/PROJECTS/Mol_Feturizer/Test_systems_manuscript/rnas/4fe5

>  <Rbt.Executable>
rbdock ($Id: //depot/dev/client3/rdock/2013.1/src/exe/rbdock.cxx#4 $)

>  <Rbt.Library>
libRbt.so (2013.1, Build901 2013/11/27)

>  <Rbt.Parameter_File>
/export/apps/rDock/src/rDock_2013.1_src/data/scripts/dock_solv.prm

>  <Rbt.Receptor>
prm/pocket_docking_5.prm

>  <SCORE>
-17.5627

>  <SCORE.INTER>
-17.5627

>  <SCORE.INTER.CONST>
1

>  <SCORE.INTER.POLAR>
0

>  <SCORE.INTER.ROT>
0

>  <SCORE.INTER.SOLV>
3.93174

>  <SCORE.INTER.VDW>
-16.619

>  <SCORE.INTER.norm>
-1.75627

>  <SCORE.INTRA>
0

>  <SCORE.INTRA.DIHEDRAL>
0

>  <SCORE.INTRA.DIHEDRAL.0>
0

>  <SCORE.INTRA.POLAR>
0

>  <SCORE.INTRA.POLAR.0>
0

>  <SCORE.INTRA.REPUL>
0

>  <SCORE.INTRA.REPUL.0>
0

>  <SCORE.INTRA.SOLV>
0

>  <SCORE.INTRA.SOLV.lig_0>
-4.28333

>  <SCORE.INTRA.VDW>
0

>  <SCORE.INTRA.VDW.0>
0

>  <SCORE.INTRA.norm>
0

>  <SCORE.RESTR>
0

>  <SCORE.RESTR.CAVITY>
0

>  <SCORE.RESTR.norm>
0

>  <SCORE.SYSTEM>
0

>  <SCORE.SYSTEM.CONST>
0

>  <SCORE.SYSTEM.DIHEDRAL>
0

>  <SCORE.SYSTEM.SOLV>
0

>  <SCORE.SYSTEM.norm>
0

>  <SCORE.heavy>
10

>  <SCORE.norm>
-1.75627

>  <RMSD>
2.418

$$$$
ligand
 OpenBabel02271912143D
libRbt.so/2013.1/901 2013/11/27
 10 11  0  0  0  0  0  0  0  0999 V2000
   11.8326   10.5711    8.9082 N   0  0  0  0  0  0  0  0  0  0  0  0
   12.0005    9.3983    8.2101 C   0  0  0  0  0  0  0  0  0  0  0  0
   11.8604    9.3366    6.8847 N   0  0  0  0  0  0  0  0  0  0  0  0
   11.5401   10.5340    6.3168 C   0  0  0  0  0  0  0  0  0  0  0  0
   11.3564   11.7427    6.9591 C   0  0  0  0  0  0  0  0  0  0  0  0
   11.5055   11.8165    8.3711 C   0  0  0  0  0  0  0  0  0  0  0  0
   11.3915   12.7795    9.1390 O   0  0  0  0  0  0  0  0  0  0  0  0
   11.0464   12.6880    6.0222 N   0  0  0  0  0  0  0  0  0  0  0  0
   11.0443   12.0612    4.8228 C   0  0  0  0  0  0  0  0  0  0  0  0
   11.3458   10.7246    4.9716 N   0  0  0  0  0  0  0  0  0  0  0  0
  1  2  1  0  0  0  0
  1  6  1  0  0  0  0
  2  3  2  0  0  0  0
  3  4  1  0  0  0  0
  4  5  2  0  0  0  0
  4 10  1  0  0  0  0
  5  6  1  0  0  0  0
  5  8  1  0  0  0  0
  6  7  2  0  0  0  0
  8  9  1  0  0  0  0
  9 10  2  0  0  0  0
M  END
>  <CHROM.1>
11.49105093,11.19374561,7.10133655,-1.01521920,1.33338864,-2.06958238

>  <Name>
ligand

>  <RI>
0

>  <Rbt.Current_Directory>
/home/itssahil/PROJECTS/Mol_Feturizer/Test_systems_manuscript/rnas/4fe5

>  <Rbt.Executable>
rbdock ($Id: //depot/dev/client3/rdock/2013.1/src/exe/rbdock.cxx#4 $)

>  <Rbt.Library>
libRbt.so (2013.1, Build901 2013/11/27)

>  <Rbt.Parameter_File>
/export/apps/rDock/src/rDock_2013.1_src/data/scripts/dock_solv.prm

>  <Rbt.Receptor>
prm/pocket_docking_5.prm

>  <SCORE>
-17.5645

>  <SCORE.INTER>
-17.5645

>  <SCORE.INTER.CONST>
1

>  <SCORE.INTER.POLAR>
0

>  <SCORE.INTER.ROT>
0

>  <SCORE.INTER.SOLV>
3.90618

>  <SCORE.INTER.VDW>
-16.6117

>  <SCORE.INTER.norm>
-1.75645

>  <SCORE.INTRA>
0

>  <SCORE.INTRA.DIHEDRAL>
0

>  <SCORE.INTRA.DIHEDRAL.0>
0

>  <SCORE.INTRA.POLAR>
0

>  <SCORE.INTRA.POLAR.0>
0

>  <SCORE.INTRA.REPUL>
0

>  <SCORE.INTRA.REPUL.0>
0

>  <SCORE.INTRA.SOLV>
0

>  <SCORE.INTRA.SOLV.lig_0>
-4.28333

>  <SCORE.INTRA.VDW>
0

>  <SCORE.INTRA.VDW.0>
0

>  <SCORE.INTRA.norm>
0

>  <SCORE.RESTR>
0

>  <SCORE.RESTR.CAVITY>
0

>  <SCORE.RESTR.norm>
0

>  <SCORE.SYSTEM>
0

>  <SCORE.SYSTEM.CONST>
0

>  <SCORE.SYSTEM.DIHEDRAL>
0

>  <SCORE.SYSTEM.SOLV>
0

>  <SCORE.SYSTEM.norm>
0

>  <SCORE.heavy>
10

>  <SCORE.norm>
-1.75645

>  <RMSD>
2.418

$$$$
ligand
 OpenBabel02271912143D
libRbt.so/2013.1/901 2013/11/27
 10 11  0  0  0  0  0  0  0  0999 V2000
   11.8343   10.5793    8.9041 N   0  0  0  0  0  0  0  0  0  0  0  0
   12.0081    9.4062    8.2081 C   0  0  0  0  0  0  0  0  0  0  0  0
   11.8686    9.3416    6.8827 N   0  0  0  0  0  0  0  0  0  0  0  0
   11.5428   10.5365    6.3127 C   0  0  0  0  0  0  0  0  0  0  0  0
   11.3532   11.7453    6.9529 C   0  0  0  0  0  0  0  0  0  0  0  0
   11.5015   11.8223    8.3648 C   0  0  0  0  0  0  0  0  0  0  0  0
   11.3826   12.7860    9.1310 O   0  0  0  0  0  0  0  0  0  0  0  0
   11.0390   12.6875    6.0142 N   0  0  0  0  0  0  0  0  0  0  0  0
   11.0403   12.0587    4.8160 C   0  0  0  0  0  0  0  0  0  0  0  0
   11.3481   10.7238    4.9671 N   0  0  0  0  0  0  0  0  0  0  0  0
  1  2  1  0  0  0  0
  1  6  1  0  0  0  0
  2  3  2  0  0  0  0
  3  4  1  0  0  0  0
  4  5  2  0  0  0  0
  4 10  1  0  0  0  0
  5  6  1  0  0  0  0
  5  8  1  0  0  0  0
  6  7  2  0  0  0  0
  8  9  1  0  0  0  0
  9 10  2  0  0  0  0
M  END
>  <CHROM.1>
11.49040920,11.19726142,7.09609595,-1.02593631,1.32935575,-2.06087775

>  <Name>
ligand

>  <RI>
0

>  <Rbt.Current_Directory>
/home/itssahil/PROJECTS/Mol_Feturizer/Test_systems_manuscript/rnas/4fe5

>  <Rbt.Executable>
rbdock ($Id: //depot/dev/client3/rdock/2013.1/src/exe/rbdock.cxx#4 $)

>  <Rbt.Library>
libRbt.so (2013.1, Build901 2013/11/27)

>  <Rbt.Parameter_File>
/export/apps/rDock/src/rDock_2013.1_src/data/scripts/dock_solv.prm

>  <Rbt.Receptor>
prm/pocket_docking_5.prm

>  <SCORE>
-17.5637

>  <SCORE.INTER>
-17.5637

>  <SCORE.INTER.CONST>
1

>  <SCORE.INTER.POLAR>
0

>  <SCORE.INTER.ROT>
0

>  <SCORE.INTER.SOLV>
3.90714

>  <SCORE.INTER.VDW>
-16.6115

>  <SCORE.INTER.norm>
-1.75637

>  <SCORE.INTRA>
0

>  <SCORE.INTRA.DIHEDRAL>
0

>  <SCORE.INTRA.DIHEDRAL.0>
0

>  <SCORE.INTRA.POLAR>
0

>  <SCORE.INTRA.POLAR.0>
0

>  <SCORE.INTRA.REPUL>
0

>  <SCORE.INTRA.REPUL.0>
0

>  <SCORE.INTRA.SOLV>
0

>  <SCORE.INTRA.SOLV.lig_0>
-4.28333

>  <SCORE.INTRA.VDW>
0

>  <SCORE.INTRA.VDW.0>
0

>  <SCORE.INTRA.norm>
0

>  <SCORE.RESTR>
0

>  <SCORE.RESTR.CAVITY>
0

>  <SCORE.RESTR.norm>
0

>  <SCORE.SYSTEM>
0

>  <SCORE.SYSTEM.CONST>
0

>  <SCORE.SYSTEM.DIHEDRAL>
0

>  <SCORE.SYSTEM.SOLV>
0

>  <SCORE.SYSTEM.norm>
0

>  <SCORE.heavy>
10

>  <SCORE.norm>
-1.75637

>  <RMSD>
2.418

$$$$
ligand
 OpenBabel02271912143D
libRbt.so/2013.1/901 2013/11/27
 10 11  0  0  0  0  0  0  0  0999 V2000
   11.8355   10.5802    8.9077 N   0  0  0  0  0  0  0  0  0  0  0  0
   12.0068    9.4058    8.2131 C   0  0  0  0  0  0  0  0  0  0  0  0
   11.8677    9.3400    6.8877 N   0  0  0  0  0  0  0  0  0  0  0  0
   11.5447   10.5349    6.3162 C   0  0  0  0  0  0  0  0  0  0  0  0
   11.3576   11.7450    6.9549 C   0  0  0  0  0  0  0  0  0  0  0  0
   11.5056   11.8233    8.3668 C   0  0  0  0  0  0  0  0  0  0  0  0
   11.3886   12.7882    9.1318 O   0  0  0  0  0  0  0  0  0  0  0  0
   11.0459   12.6867    6.0150 N   0  0  0  0  0  0  0  0  0  0  0  0
   11.0462   12.0565    4.8175 C   0  0  0  0  0  0  0  0  0  0  0  0
   11.3508   10.7211    4.9704 N   0  0  0  0  0  0  0  0  0  0  0  0
  1  2  1  0  0  0  0
  1  6  1  0  0  0  0
  2  3  2  0  0  0  0
  3  4  1  0  0  0  0
  4  5  2  0  0  0  0
  4 10  1  0  0  0  0
  5  6  1  0  0  0  0
  5  8  1  0  0  0  0
  6  7  2  0  0  0  0
  8  9  1  0  0  0  0
  9 10  2  0  0  0  0
M  END
>  <CHROM.1>
11.49354953,11.19677549,7.09881189,-1.02270365,1.33149419,-2.06519692

>  <Name>
ligand

>  <RI>
0

>  <Rbt.Current_Directory>
/home/itssahil/PROJECTS/Mol_Feturizer/Test_systems_manuscript/rnas/4fe5

>  <Rbt.Executable>
rbdock ($Id: //depot/dev/client3/rdock/2013.1/src/exe/rbdock.cxx#4 $)

>  <Rbt.Library>
libRbt.so (2013.1, Build901 2013/11/27)

>  <Rbt.Parameter_File>
/export/apps/rDock/src/rDock_2013.1_src/data/scripts/dock_solv.prm

>  <Rbt.Receptor>
prm/pocket_docking_6.prm

>  <SCORE>
-17.5635

>  <SCORE.INTER>
-17.5635

>  <SCORE.INTER.CONST>
1

>  <SCORE.INTER.POLAR>
0

>  <SCORE.INTER.ROT>
0

>  <SCORE.INTER.SOLV>
3.91151

>  <SCORE.INTER.VDW>
-16.6128

>  <SCORE.INTER.norm>
-1.75635

>  <SCORE.INTRA>
0

>  <SCORE.INTRA.DIHEDRAL>
0

>  <SCORE.INTRA.DIHEDRAL.0>
0

>  <SCORE.INTRA.POLAR>
0

>  <SCORE.INTRA.POLAR.0>
0

>  <SCORE.INTRA.REPUL>
0

>  <SCORE.INTRA.REPUL.0>
0

>  <SCORE.INTRA.SOLV>
0

>  <SCORE.INTRA.SOLV.lig_0>
-4.28333

>  <SCORE.INTRA.VDW>
0

>  <SCORE.INTRA.VDW.0>
0

>  <SCORE.INTRA.norm>
0

>  <SCORE.RESTR>
0

>  <SCORE.RESTR.CAVITY>
0

>  <SCORE.RESTR.norm>
0

>  <SCORE.SYSTEM>
0

>  <SCORE.SYSTEM.CONST>
0

>  <SCORE.SYSTEM.DIHEDRAL>
0

>  <SCORE.SYSTEM.SOLV>
0

>  <SCORE.SYSTEM.norm>
0

>  <SCORE.heavy>
10

>  <SCORE.norm>
-1.75635

>  <RMSD>
2.418

$$$$
ligand
 OpenBabel02271912143D
libRbt.so/2013.1/901 2013/11/27
 10 11  0  0  0  0  0  0  0  0999 V2000
   11.8301   10.5708    8.9069 N   0  0  0  0  0  0  0  0  0  0  0  0
   12.0050    9.3994    8.2083 C   0  0  0  0  0  0  0  0  0  0  0  0
   11.8680    9.3381    6.8825 N   0  0  0  0  0  0  0  0  0  0  0  0
   11.5433   10.5345    6.3148 C   0  0  0  0  0  0  0  0  0  0  0  0
   11.3527   11.7417    6.9578 C   0  0  0  0  0  0  0  0  0  0  0  0
   11.4984   11.8152    8.3701 C   0  0  0  0  0  0  0  0  0  0  0  0
   11.3783   12.7770    9.1385 O   0  0  0  0  0  0  0  0  0  0  0  0
   11.0403   12.6863    6.0209 N   0  0  0  0  0  0  0  0  0  0  0  0
   11.0437   12.0605    4.8210 C   0  0  0  0  0  0  0  0  0  0  0  0
   11.3510   10.7252    4.9694 N   0  0  0  0  0  0  0  0  0  0  0  0
  1  2  1  0  0  0  0
  1  6  1  0  0  0  0
  2  3  2  0  0  0  0
  3  4  1  0  0  0  0
  4  5  2  0  0  0  0
  4 10  1  0  0  0  0
  5  6  1  0  0  0  0
  5  8  1  0  0  0  0
  6  7  2  0  0  0  0
  8  9  1  0  0  0  0
  9 10  2  0  0  0  0
M  END
>  <CHROM.1>
11.48955542,11.19332134,7.09981295,-1.03235596,1.33029321,-2.05214597

>  <Name>
ligand

>  <RI>
0

>  <Rbt.Current_Directory>
/home/itssahil/PROJECTS/Mol_Feturizer/Test_systems_manuscript/rnas/4fe5

>  <Rbt.Executable>
rbdock ($Id: //depot/dev/client3/rdock/2013.1/src/exe/rbdock.cxx#4 $)

>  <Rbt.Library>
libRbt.so (2013.1, Build901 2013/11/27)

>  <Rbt.Parameter_File>
/export/apps/rDock/src/rDock_2013.1_src/data/scripts/dock_solv.prm

>  <Rbt.Receptor>
prm/pocket_docking_6.prm

>  <SCORE>
-17.563

>  <SCORE.INTER>
-17.563

>  <SCORE.INTER.CONST>
1

>  <SCORE.INTER.POLAR>
0

>  <SCORE.INTER.ROT>
0

>  <SCORE.INTER.SOLV>
3.90118

>  <SCORE.INTER.VDW>
-16.6091

>  <SCORE.INTER.norm>
-1.7563

>  <SCORE.INTRA>
0

>  <SCORE.INTRA.DIHEDRAL>
0

>  <SCORE.INTRA.DIHEDRAL.0>
0

>  <SCORE.INTRA.POLAR>
0

>  <SCORE.INTRA.POLAR.0>
0

>  <SCORE.INTRA.REPUL>
0

>  <SCORE.INTRA.REPUL.0>
0

>  <SCORE.INTRA.SOLV>
0

>  <SCORE.INTRA.SOLV.lig_0>
-4.28333

>  <SCORE.INTRA.VDW>
0

>  <SCORE.INTRA.VDW.0>
0

>  <SCORE.INTRA.norm>
0

>  <SCORE.RESTR>
0

>  <SCORE.RESTR.CAVITY>
0

>  <SCORE.RESTR.norm>
0

>  <SCORE.SYSTEM>
0

>  <SCORE.SYSTEM.CONST>
0

>  <SCORE.SYSTEM.DIHEDRAL>
0

>  <SCORE.SYSTEM.SOLV>
0

>  <SCORE.SYSTEM.norm>
0

>  <SCORE.heavy>
10

>  <SCORE.norm>
-1.7563

>  <RMSD>
2.418

$$$$
ligand
 OpenBabel02271912143D
libRbt.so/2013.1/901 2013/11/27
 10 11  0  0  0  0  0  0  0  0999 V2000
   11.8348   10.5693    8.9064 N   0  0  0  0  0  0  0  0  0  0  0  0
   12.0108    9.3991    8.2060 C   0  0  0  0  0  0  0  0  0  0  0  0
   11.8726    9.3395    6.8802 N   0  0  0  0  0  0  0  0  0  0  0  0
   11.5456   10.5361    6.3146 C   0  0  0  0  0  0  0  0  0  0  0  0
   11.3537   11.7422    6.9593 C   0  0  0  0  0  0  0  0  0  0  0  0
   11.5006   11.8139    8.3717 C   0  0  0  0  0  0  0  0  0  0  0  0
   11.3797   12.7745    9.1415 O   0  0  0  0  0  0  0  0  0  0  0  0
   11.0389   12.6876    6.0241 N   0  0  0  0  0  0  0  0  0  0  0  0
   11.0422   12.0634    4.8234 C   0  0  0  0  0  0  0  0  0  0  0  0
   11.3517   10.7284    4.9696 N   0  0  0  0  0  0  0  0  0  0  0  0
  1  2  1  0  0  0  0
  1  6  1  0  0  0  0
  2  3  2  0  0  0  0
  3  4  1  0  0  0  0
  4  5  2  0  0  0  0
  4 10  1  0  0  0  0
  5  6  1  0  0  0  0
  5  8  1  0  0  0  0
  6  7  2  0  0  0  0
  8  9  1  0  0  0  0
  9 10  2  0  0  0  0
M  END
>  <CHROM.1>
11.49154007,11.19379236,7.10050850,-1.03192121,1.32847572,-2.05116713

>  <Name>
ligand

>  <RI>
0

>  <Rbt.Current_Directory>
/home/itssahil/PROJECTS/Mol_Feturizer/Test_systems_manuscript/rnas/4fe5

>  <Rbt.Executable>
rbdock ($Id: //depot/dev/client3/rdock/2013.1/src/exe/rbdock.cxx#4 $)

>  <Rbt.Library>
libRbt.so (2013.1, Build901 2013/11/27)

>  <Rbt.Parameter_File>
/export/apps/rDock/src/rDock_2013.1_src/data/scripts/dock_solv.prm

>  <Rbt.Receptor>
prm/pocket_docking_6.prm

>  <SCORE>
-17.5616

>  <SCORE.INTER>
-17.5616

>  <SCORE.INTER.CONST>
1

>  <SCORE.INTER.POLAR>
0

>  <SCORE.INTER.ROT>
0

>  <SCORE.INTER.SOLV>
3.89512

>  <SCORE.INTER.VDW>
-16.6061

>  <SCORE.INTER.norm>
-1.75616

>  <SCORE.INTRA>
0

>  <SCORE.INTRA.DIHEDRAL>
0

>  <SCORE.INTRA.DIHEDRAL.0>
0

>  <SCORE.INTRA.POLAR>
0

>  <SCORE.INTRA.POLAR.0>
0

>  <SCORE.INTRA.REPUL>
0

>  <SCORE.INTRA.REPUL.0>
0

>  <SCORE.INTRA.SOLV>
0

>  <SCORE.INTRA.SOLV.lig_0>
-4.28333

>  <SCORE.INTRA.VDW>
0

>  <SCORE.INTRA.VDW.0>
0

>  <SCORE.INTRA.norm>
0

>  <SCORE.RESTR>
0

>  <SCORE.RESTR.CAVITY>
0

>  <SCORE.RESTR.norm>
0

>  <SCORE.SYSTEM>
0

>  <SCORE.SYSTEM.CONST>
0

>  <SCORE.SYSTEM.DIHEDRAL>
0

>  <SCORE.SYSTEM.SOLV>
0

>  <SCORE.SYSTEM.norm>
0

>  <SCORE.heavy>
10

>  <SCORE.norm>
-1.75616

>  <RMSD>
2.418

$$$$
ligand
 OpenBabel02271912143D
libRbt.so/2013.1/901 2013/11/27
 10 11  0  0  0  0  0  0  0  0999 V2000
   11.8358   10.5765    8.9065 N   0  0  0  0  0  0  0  0  0  0  0  0
   12.0143    9.4054    8.2083 C   0  0  0  0  0  0  0  0  0  0  0  0
   11.8759    9.3428    6.8827 N   0  0  0  0  0  0  0  0  0  0  0  0
   11.5460   10.5376    6.3148 C   0  0  0  0  0  0  0  0  0  0  0  0
   11.3515   11.7445    6.9572 C   0  0  0  0  0  0  0  0  0  0  0  0
   11.4987   11.8193    8.3694 C   0  0  0  0  0  0  0  0  0  0  0  0
   11.3758   12.7811    9.1374 O   0  0  0  0  0  0  0  0  0  0  0  0
   11.0344   12.6873    6.0202 N   0  0  0  0  0  0  0  0  0  0  0  0
   11.0387   12.0608    4.8207 C   0  0  0  0  0  0  0  0  0  0  0  0
   11.3513   10.7267    4.9695 N   0  0  0  0  0  0  0  0  0  0  0  0
  1  2  1  0  0  0  0
  1  6  1  0  0  0  0
  2  3  2  0  0  0  0
  3  4  1  0  0  0  0
  4  5  2  0  0  0  0
  4 10  1  0  0  0  0
  5  6  1  0  0  0  0
  5  8  1  0  0  0  0
  6  7  2  0  0  0  0
  8  9  1  0  0  0  0
  9 10  2  0  0  0  0
M  END
>  <CHROM.1>
11.49066362,11.19666245,7.09945296,-1.03523935,1.32633283,-2.04992446

>  <Name>
ligand

>  <RI>
0

>  <Rbt.Current_Directory>
/home/itssahil/PROJECTS/Mol_Feturizer/Test_systems_manuscript/rnas/4fe5

>  <Rbt.Executable>
rbdock ($Id: //depot/dev/client3/rdock/2013.1/src/exe/rbdock.cxx#4 $)

>  <Rbt.Library>
libRbt.so (2013.1, Build901 2013/11/27)

>  <Rbt.Parameter_File>
/export/apps/rDock/src/rDock_2013.1_src/data/scripts/dock_solv.prm

>  <Rbt.Receptor>
prm/pocket_docking_6.prm

>  <SCORE>
-17.5584

>  <SCORE.INTER>
-17.5584

>  <SCORE.INTER.CONST>
1

>  <SCORE.INTER.POLAR>
0

>  <SCORE.INTER.ROT>
0

>  <SCORE.INTER.SOLV>
3.89892

>  <SCORE.INTER.VDW>
-16.6052

>  <SCORE.INTER.norm>
-1.75584

>  <SCORE.INTRA>
0

>  <SCORE.INTRA.DIHEDRAL>
0

>  <SCORE.INTRA.DIHEDRAL.0>
0

>  <SCORE.INTRA.POLAR>
0

>  <SCORE.INTRA.POLAR.0>
0

>  <SCORE.INTRA.REPUL>
0

>  <SCORE.INTRA.REPUL.0>
0

>  <SCORE.INTRA.SOLV>
0

>  <SCORE.INTRA.SOLV.lig_0>
-4.28333

>  <SCORE.INTRA.VDW>
0

>  <SCORE.INTRA.VDW.0>
0

>  <SCORE.INTRA.norm>
0

>  <SCORE.RESTR>
0

>  <SCORE.RESTR.CAVITY>
0

>  <SCORE.RESTR.norm>
0

>  <SCORE.SYSTEM>
0

>  <SCORE.SYSTEM.CONST>
0

>  <SCORE.SYSTEM.DIHEDRAL>
0

>  <SCORE.SYSTEM.SOLV>
0

>  <SCORE.SYSTEM.norm>
0

>  <SCORE.heavy>
10

>  <SCORE.norm>
-1.75584

>  <RMSD>
2.418

$$$$
ligand
 OpenBabel02271912143D
libRbt.so/2013.1/901 2013/11/27
 10 11  0  0  0  0  0  0  0  0999 V2000
   11.8300   10.5763    8.9102 N   0  0  0  0  0  0  0  0  0  0  0  0
   12.0057    9.4031    8.2146 C   0  0  0  0  0  0  0  0  0  0  0  0
   11.8696    9.3385    6.8889 N   0  0  0  0  0  0  0  0  0  0  0  0
   11.5451   10.5334    6.3180 C   0  0  0  0  0  0  0  0  0  0  0  0
   11.3537   11.7422    6.9578 C   0  0  0  0  0  0  0  0  0  0  0  0
   11.4984   11.8192    8.3701 C   0  0  0  0  0  0  0  0  0  0  0  0
   11.3774   12.7829    9.1360 O   0  0  0  0  0  0  0  0  0  0  0  0
   11.0417   12.6844    6.0184 N   0  0  0  0  0  0  0  0  0  0  0  0
   11.0461   12.0556    4.8201 C   0  0  0  0  0  0  0  0  0  0  0  0
   11.3537   10.7207    4.9720 N   0  0  0  0  0  0  0  0  0  0  0  0
  1  2  1  0  0  0  0
  1  6  1  0  0  0  0
  2  3  2  0  0  0  0
  3  4  1  0  0  0  0
  4  5  2  0  0  0  0
  4 10  1  0  0  0  0
  5  6  1  0  0  0  0
  5  8  1  0  0  0  0
  6  7  2  0  0  0  0
  8  9  1  0  0  0  0
  9 10  2  0  0  0  0
M  END
>  <CHROM.1>
11.49059062,11.19418079,7.10133172,-1.03555169,1.33039416,-2.05151580

>  <Name>
ligand

>  <RI>
0

>  <Rbt.Current_Directory>
/home/itssahil/PROJECTS/Mol_Feturizer/Test_systems_manuscript/rnas/4fe5

>  <Rbt.Executable>
rbdock ($Id: //depot/dev/client3/rdock/2013.1/src/exe/rbdock.cxx#4 $)

>  <Rbt.Library>
libRbt.so (2013.1, Build901 2013/11/27)

>  <Rbt.Parameter_File>
/export/apps/rDock/src/rDock_2013.1_src/data/scripts/dock_solv.prm

>  <Rbt.Receptor>
prm/pocket_docking_6.prm

>  <SCORE>
-17.5601

>  <SCORE.INTER>
-17.5601

>  <SCORE.INTER.CONST>
1

>  <SCORE.INTER.POLAR>
0

>  <SCORE.INTER.ROT>
0

>  <SCORE.INTER.SOLV>
3.90748

>  <SCORE.INTER.VDW>
-16.6093

>  <SCORE.INTER.norm>
-1.75601

>  <SCORE.INTRA>
0

>  <SCORE.INTRA.DIHEDRAL>
0

>  <SCORE.INTRA.DIHEDRAL.0>
0

>  <SCORE.INTRA.POLAR>
0

>  <SCORE.INTRA.POLAR.0>
0

>  <SCORE.INTRA.REPUL>
0

>  <SCORE.INTRA.REPUL.0>
0

>  <SCORE.INTRA.SOLV>
0

>  <SCORE.INTRA.SOLV.lig_0>
-4.28333

>  <SCORE.INTRA.VDW>
0

>  <SCORE.INTRA.VDW.0>
0

>  <SCORE.INTRA.norm>
0

>  <SCORE.RESTR>
0

>  <SCORE.RESTR.CAVITY>
0

>  <SCORE.RESTR.norm>
0

>  <SCORE.SYSTEM>
0

>  <SCORE.SYSTEM.CONST>
0

>  <SCORE.SYSTEM.DIHEDRAL>
0

>  <SCORE.SYSTEM.SOLV>
0

>  <SCORE.SYSTEM.norm>
0

>  <SCORE.heavy>
10

>  <SCORE.norm>
-1.75601

>  <RMSD>
2.418

$$$$
ligand
 OpenBabel02271912143D
libRbt.so/2013.1/901 2013/11/27
 10 11  0  0  0  0  0  0  0  0999 V2000
   11.8326   10.5845    8.9127 N   0  0  0  0  0  0  0  0  0  0  0  0
   12.0025    9.4087    8.2200 C   0  0  0  0  0  0  0  0  0  0  0  0
   11.8638    9.3410    6.8947 N   0  0  0  0  0  0  0  0  0  0  0  0
   11.5427   10.5355    6.3212 C   0  0  0  0  0  0  0  0  0  0  0  0
   11.3571   11.7468    6.9579 C   0  0  0  0  0  0  0  0  0  0  0  0
   11.5047   11.8271    8.3697 C   0  0  0  0  0  0  0  0  0  0  0  0
   11.3889   12.7934    9.1332 O   0  0  0  0  0  0  0  0  0  0  0  0
   11.0471   12.6875    6.0164 N   0  0  0  0  0  0  0  0  0  0  0  0
   11.0468   12.0554    4.8199 C   0  0  0  0  0  0  0  0  0  0  0  0
   11.3495   10.7197    4.9750 N   0  0  0  0  0  0  0  0  0  0  0  0
  1  2  1  0  0  0  0
  1  6  1  0  0  0  0
  2  3  2  0  0  0  0
  3  4  1  0  0  0  0
  4  5  2  0  0  0  0
  4 10  1  0  0  0  0
  5  6  1  0  0  0  0
  5  8  1  0  0  0  0
  6  7  2  0  0  0  0
  8  9  1  0  0  0  0
  9 10  2  0  0  0  0
M  END
>  <CHROM.1>
11.49221621,11.19861941,7.10272063,-1.02106455,1.33291529,-2.06838764

>  <Name>
ligand

>  <RI>
0

>  <Rbt.Current_Directory>
/home/itssahil/PROJECTS/Mol_Feturizer/Test_systems_manuscript/rnas/4fe5

>  <Rbt.Executable>
rbdock ($Id: //depot/dev/client3/rdock/2013.1/src/exe/rbdock.cxx#4 $)

>  <Rbt.Library>
libRbt.so (2013.1, Build901 2013/11/27)

>  <Rbt.Parameter_File>
/export/apps/rDock/src/rDock_2013.1_src/data/scripts/dock_solv.prm

>  <Rbt.Receptor>
prm/pocket_docking_6.prm

>  <SCORE>
-17.56

>  <SCORE.INTER>
-17.56

>  <SCORE.INTER.CONST>
1

>  <SCORE.INTER.POLAR>
0

>  <SCORE.INTER.ROT>
0

>  <SCORE.INTER.SOLV>
3.91912

>  <SCORE.INTER.VDW>
-16.6131

>  <SCORE.INTER.norm>
-1.756

>  <SCORE.INTRA>
0

>  <SCORE.INTRA.DIHEDRAL>
0

>  <SCORE.INTRA.DIHEDRAL.0>
0

>  <SCORE.INTRA.POLAR>
0

>  <SCORE.INTRA.POLAR.0>
0

>  <SCORE.INTRA.REPUL>
0

>  <SCORE.INTRA.REPUL.0>
0

>  <SCORE.INTRA.SOLV>
0

>  <SCORE.INTRA.SOLV.lig_0>
-4.28333

>  <SCORE.INTRA.VDW>
0

>  <SCORE.INTRA.VDW.0>
0

>  <SCORE.INTRA.norm>
0

>  <SCORE.RESTR>
0

>  <SCORE.RESTR.CAVITY>
0

>  <SCORE.RESTR.norm>
0

>  <SCORE.SYSTEM>
0

>  <SCORE.SYSTEM.CONST>
0

>  <SCORE.SYSTEM.DIHEDRAL>
0

>  <SCORE.SYSTEM.SOLV>
0

>  <SCORE.SYSTEM.norm>
0

>  <SCORE.heavy>
10

>  <SCORE.norm>
-1.756

>  <RMSD>
2.418

$$$$
ligand
 OpenBabel02271912143D
libRbt.so/2013.1/901 2013/11/27
 10 11  0  0  0  0  0  0  0  0999 V2000
   11.8330   10.5940    8.9102 N   0  0  0  0  0  0  0  0  0  0  0  0
   12.0033    9.4163    8.2212 C   0  0  0  0  0  0  0  0  0  0  0  0
   11.8647    9.3445    6.8961 N   0  0  0  0  0  0  0  0  0  0  0  0
   11.5434   10.5372    6.3189 C   0  0  0  0  0  0  0  0  0  0  0  0
   11.3573   11.7503    6.9520 C   0  0  0  0  0  0  0  0  0  0  0  0
   11.5048   11.8349    8.3635 C   0  0  0  0  0  0  0  0  0  0  0  0
   11.3885   12.8035    9.1241 O   0  0  0  0  0  0  0  0  0  0  0  0
   11.0471   12.6881    6.0076 N   0  0  0  0  0  0  0  0  0  0  0  0
   11.0472   12.0524    4.8130 C   0  0  0  0  0  0  0  0  0  0  0  0
   11.3503   10.7173    4.9721 N   0  0  0  0  0  0  0  0  0  0  0  0
  1  2  1  0  0  0  0
  1  6  1  0  0  0  0
  2  3  2  0  0  0  0
  3  4  1  0  0  0  0
  4  5  2  0  0  0  0
  4 10  1  0  0  0  0
  5  6  1  0  0  0  0
  5  8  1  0  0  0  0
  6  7  2  0  0  0  0
  8  9  1  0  0  0  0
  9 10  2  0  0  0  0
M  END
>  <CHROM.1>
11.49256842,11.20265288,7.09841752,-1.02210320,1.33269123,-2.07038115

>  <Name>
ligand

>  <RI>
0

>  <Rbt.Current_Directory>
/home/itssahil/PROJECTS/Mol_Feturizer/Test_systems_manuscript/rnas/4fe5

>  <Rbt.Executable>
rbdock ($Id: //depot/dev/client3/rdock/2013.1/src/exe/rbdock.cxx#4 $)

>  <Rbt.Library>
libRbt.so (2013.1, Build901 2013/11/27)

>  <Rbt.Parameter_File>
/export/apps/rDock/src/rDock_2013.1_src/data/scripts/dock_solv.prm

>  <Rbt.Receptor>
prm/pocket_docking_6.prm

>  <SCORE>
-17.5608

>  <SCORE.INTER>
-17.5608

>  <SCORE.INTER.CONST>
1

>  <SCORE.INTER.POLAR>
0

>  <SCORE.INTER.ROT>
0

>  <SCORE.INTER.SOLV>
3.9278

>  <SCORE.INTER.VDW>
-16.6164

>  <SCORE.INTER.norm>
-1.75608

>  <SCORE.INTRA>
0

>  <SCORE.INTRA.DIHEDRAL>
0

>  <SCORE.INTRA.DIHEDRAL.0>
0

>  <SCORE.INTRA.POLAR>
0

>  <SCORE.INTRA.POLAR.0>
0

>  <SCORE.INTRA.REPUL>
0

>  <SCORE.INTRA.REPUL.0>
0

>  <SCORE.INTRA.SOLV>
0

>  <SCORE.INTRA.SOLV.lig_0>
-4.28333

>  <SCORE.INTRA.VDW>
0

>  <SCORE.INTRA.VDW.0>
0

>  <SCORE.INTRA.norm>
0

>  <SCORE.RESTR>
0

>  <SCORE.RESTR.CAVITY>
0

>  <SCORE.RESTR.norm>
0

>  <SCORE.SYSTEM>
0

>  <SCORE.SYSTEM.CONST>
0

>  <SCORE.SYSTEM.DIHEDRAL>
0

>  <SCORE.SYSTEM.SOLV>
0

>  <SCORE.SYSTEM.norm>
0

>  <SCORE.heavy>
10

>  <SCORE.norm>
-1.75608

>  <RMSD>
2.418

$$$$
ligand
 OpenBabel02271912143D
libRbt.so/2013.1/901 2013/11/27
 10 11  0  0  0  0  0  0  0  0999 V2000
   11.8367   10.5828    8.8990 N   0  0  0  0  0  0  0  0  0  0  0  0
   11.9934    9.4079    8.2019 C   0  0  0  0  0  0  0  0  0  0  0  0
   11.8546    9.3467    6.8763 N   0  0  0  0  0  0  0  0  0  0  0  0
   11.5475   10.5470    6.3072 C   0  0  0  0  0  0  0  0  0  0  0  0
   11.3755   11.7579    6.9484 C   0  0  0  0  0  0  0  0  0  0  0  0
   11.5233   11.8312    8.3606 C   0  0  0  0  0  0  0  0  0  0  0  0
   11.4182   12.7959    9.1277 O   0  0  0  0  0  0  0  0  0  0  0  0
   11.0767   12.7057    6.0104 N   0  0  0  0  0  0  0  0  0  0  0  0
   11.0698   12.0782    4.8115 C   0  0  0  0  0  0  0  0  0  0  0  0
   11.3571   10.7386    4.9616 N   0  0  0  0  0  0  0  0  0  0  0  0
  1  2  1  0  0  0  0
  1  6  1  0  0  0  0
  2  3  2  0  0  0  0
  3  4  1  0  0  0  0
  4  5  2  0  0  0  0
  4 10  1  0  0  0  0
  5  6  1  0  0  0  0
  5  8  1  0  0  0  0
  6  7  2  0  0  0  0
  8  9  1  0  0  0  0
  9 10  2  0  0  0  0
M  END
>  <CHROM.1>
11.50422186,11.20772991,7.09120611,-0.99880375,1.34316983,-2.08624689

>  <Name>
ligand

>  <RI>
0

>  <Rbt.Current_Directory>
/home/itssahil/PROJECTS/Mol_Feturizer/Test_systems_manuscript/rnas/4fe5

>  <Rbt.Executable>
rbdock ($Id: //depot/dev/client3/rdock/2013.1/src/exe/rbdock.cxx#4 $)

>  <Rbt.Library>
libRbt.so (2013.1, Build901 2013/11/27)

>  <Rbt.Parameter_File>
/export/apps/rDock/src/rDock_2013.1_src/data/scripts/dock_solv.prm

>  <Rbt.Receptor>
prm/pocket_docking_7.prm

>  <SCORE>
-17.5397

>  <SCORE.INTER>
-17.5397

>  <SCORE.INTER.CONST>
1

>  <SCORE.INTER.POLAR>
0

>  <SCORE.INTER.ROT>
0

>  <SCORE.INTER.SOLV>
3.92766

>  <SCORE.INTER.VDW>
-16.6024

>  <SCORE.INTER.norm>
-1.75397

>  <SCORE.INTRA>
0

>  <SCORE.INTRA.DIHEDRAL>
0

>  <SCORE.INTRA.DIHEDRAL.0>
0

>  <SCORE.INTRA.POLAR>
0

>  <SCORE.INTRA.POLAR.0>
0

>  <SCORE.INTRA.REPUL>
0

>  <SCORE.INTRA.REPUL.0>
0

>  <SCORE.INTRA.SOLV>
0

>  <SCORE.INTRA.SOLV.lig_0>
-4.28333

>  <SCORE.INTRA.VDW>
0

>  <SCORE.INTRA.VDW.0>
0

>  <SCORE.INTRA.norm>
0

>  <SCORE.RESTR>
0

>  <SCORE.RESTR.CAVITY>
0

>  <SCORE.RESTR.norm>
0

>  <SCORE.SYSTEM>
0

>  <SCORE.SYSTEM.CONST>
0

>  <SCORE.SYSTEM.DIHEDRAL>
0

>  <SCORE.SYSTEM.SOLV>
0

>  <SCORE.SYSTEM.norm>
0

>  <SCORE.heavy>
10

>  <SCORE.norm>
-1.75397

>  <RMSD>
2.418

$$$$
ligand
 OpenBabel02271912143D
libRbt.so/2013.1/901 2013/11/27
 10 11  0  0  0  0  0  0  0  0999 V2000
   11.8347   10.5750    8.9061 N   0  0  0  0  0  0  0  0  0  0  0  0
   12.0049    9.4020    8.2088 C   0  0  0  0  0  0  0  0  0  0  0  0
   11.8647    9.3391    6.8834 N   0  0  0  0  0  0  0  0  0  0  0  0
   11.5418   10.5355    6.3147 C   0  0  0  0  0  0  0  0  0  0  0  0
   11.3558   11.7442    6.9563 C   0  0  0  0  0  0  0  0  0  0  0  0
   11.5049   11.8193    8.3682 C   0  0  0  0  0  0  0  0  0  0  0  0
   11.3890   12.7826    9.1355 O   0  0  0  0  0  0  0  0  0  0  0  0
   11.0436   12.6881    6.0187 N   0  0  0  0  0  0  0  0  0  0  0  0
   11.0426   12.0605    4.8198 C   0  0  0  0  0  0  0  0  0  0  0  0
   11.3469   10.7246    4.9695 N   0  0  0  0  0  0  0  0  0  0  0  0
  1  2  1  0  0  0  0
  1  6  1  0  0  0  0
  2  3  2  0  0  0  0
  3  4  1  0  0  0  0
  4  5  2  0  0  0  0
  4 10  1  0  0  0  0
  5  6  1  0  0  0  0
  5  8  1  0  0  0  0
  6  7  2  0  0  0  0
  8  9  1  0  0  0  0
  9 10  2  0  0  0  0
M  END
>  <CHROM.1>
11.49154208,11.19562243,7.09886124,-1.01875162,1.33148612,-2.06685462

>  <Name>
ligand

>  <RI>
0

>  <Rbt.Current_Directory>
/home/itssahil/PROJECTS/Mol_Feturizer/Test_systems_manuscript/rnas/4fe5

>  <Rbt.Executable>
rbdock ($Id: //depot/dev/client3/rdock/2013.1/src/exe/rbdock.cxx#4 $)

>  <Rbt.Library>
libRbt.so (2013.1, Build901 2013/11/27)

>  <Rbt.Parameter_File>
/export/apps/rDock/src/rDock_2013.1_src/data/scripts/dock_solv.prm

>  <Rbt.Receptor>
prm/pocket_docking_7.prm

>  <SCORE>
-17.5647

>  <SCORE.INTER>
-17.5647

>  <SCORE.INTER.CONST>
1

>  <SCORE.INTER.POLAR>
0

>  <SCORE.INTER.ROT>
0

>  <SCORE.INTER.SOLV>
3.90622

>  <SCORE.INTER.VDW>
-16.6118

>  <SCORE.INTER.norm>
-1.75647

>  <SCORE.INTRA>
0

>  <SCORE.INTRA.DIHEDRAL>
0

>  <SCORE.INTRA.DIHEDRAL.0>
0

>  <SCORE.INTRA.POLAR>
0

>  <SCORE.INTRA.POLAR.0>
0

>  <SCORE.INTRA.REPUL>
0

>  <SCORE.INTRA.REPUL.0>
0

>  <SCORE.INTRA.SOLV>
0

>  <SCORE.INTRA.SOLV.lig_0>
-4.28333

>  <SCORE.INTRA.VDW>
0

>  <SCORE.INTRA.VDW.0>
0

>  <SCORE.INTRA.norm>
0

>  <SCORE.RESTR>
0

>  <SCORE.RESTR.CAVITY>
0

>  <SCORE.RESTR.norm>
0

>  <SCORE.SYSTEM>
0

>  <SCORE.SYSTEM.CONST>
0

>  <SCORE.SYSTEM.DIHEDRAL>
0

>  <SCORE.SYSTEM.SOLV>
0

>  <SCORE.SYSTEM.norm>
0

>  <SCORE.heavy>
10

>  <SCORE.norm>
-1.75647

>  <RMSD>
2.418

$$$$
ligand
 OpenBabel02271912143D
libRbt.so/2013.1/901 2013/11/27
 10 11  0  0  0  0  0  0  0  0999 V2000
   11.8370   10.5753    8.9034 N   0  0  0  0  0  0  0  0  0  0  0  0
   12.0090    9.4040    8.2039 C   0  0  0  0  0  0  0  0  0  0  0  0
   11.8668    9.3429    6.8786 N   0  0  0  0  0  0  0  0  0  0  0  0
   11.5401   10.5394    6.3125 C   0  0  0  0  0  0  0  0  0  0  0  0
   11.3521   11.7466    6.9563 C   0  0  0  0  0  0  0  0  0  0  0  0
   11.5034   11.8198    8.3681 C   0  0  0  0  0  0  0  0  0  0  0  0
   11.3863   12.7815    9.1372 O   0  0  0  0  0  0  0  0  0  0  0  0
   11.0362   12.6914    6.0208 N   0  0  0  0  0  0  0  0  0  0  0  0
   11.0348   12.0658    4.8209 C   0  0  0  0  0  0  0  0  0  0  0  0
   11.3425   10.7304    4.9679 N   0  0  0  0  0  0  0  0  0  0  0  0
  1  2  1  0  0  0  0
  1  6  1  0  0  0  0
  2  3  2  0  0  0  0
  3  4  1  0  0  0  0
  4  5  2  0  0  0  0
  4 10  1  0  0  0  0
  5  6  1  0  0  0  0
  5  8  1  0  0  0  0
  6  7  2  0  0  0  0
  8  9  1  0  0  0  0
  9 10  2  0  0  0  0
M  END
>  <CHROM.1>
11.48947768,11.19816566,7.09776870,-1.01771061,1.32858263,-2.06619756

>  <Name>
ligand

>  <RI>
0

>  <Rbt.Current_Directory>
/home/itssahil/PROJECTS/Mol_Feturizer/Test_systems_manuscript/rnas/4fe5

>  <Rbt.Executable>
rbdock ($Id: //depot/dev/client3/rdock/2013.1/src/exe/rbdock.cxx#4 $)

>  <Rbt.Library>
libRbt.so (2013.1, Build901 2013/11/27)

>  <Rbt.Parameter_File>
/export/apps/rDock/src/rDock_2013.1_src/data/scripts/dock_solv.prm

>  <Rbt.Receptor>
prm/pocket_docking_7.prm

>  <SCORE>
-17.5623

>  <SCORE.INTER>
-17.5623

>  <SCORE.INTER.CONST>
1

>  <SCORE.INTER.POLAR>
0

>  <SCORE.INTER.ROT>
0

>  <SCORE.INTER.SOLV>
3.90064

>  <SCORE.INTER.VDW>
-16.6084

>  <SCORE.INTER.norm>
-1.75623

>  <SCORE.INTRA>
0

>  <SCORE.INTRA.DIHEDRAL>
0

>  <SCORE.INTRA.DIHEDRAL.0>
0

>  <SCORE.INTRA.POLAR>
0

>  <SCORE.INTRA.POLAR.0>
0

>  <SCORE.INTRA.REPUL>
0

>  <SCORE.INTRA.REPUL.0>
0

>  <SCORE.INTRA.SOLV>
0

>  <SCORE.INTRA.SOLV.lig_0>
-4.28333

>  <SCORE.INTRA.VDW>
0

>  <SCORE.INTRA.VDW.0>
0

>  <SCORE.INTRA.norm>
0

>  <SCORE.RESTR>
0

>  <SCORE.RESTR.CAVITY>
0

>  <SCORE.RESTR.norm>
0

>  <SCORE.SYSTEM>
0

>  <SCORE.SYSTEM.CONST>
0

>  <SCORE.SYSTEM.DIHEDRAL>
0

>  <SCORE.SYSTEM.SOLV>
0

>  <SCORE.SYSTEM.norm>
0

>  <SCORE.heavy>
10

>  <SCORE.norm>
-1.75623

>  <RMSD>
2.418

$$$$
ligand
 OpenBabel02271912143D
libRbt.so/2013.1/901 2013/11/27
 10 11  0  0  0  0  0  0  0  0999 V2000
   11.8375   10.5773    8.9142 N   0  0  0  0  0  0  0  0  0  0  0  0
   12.0118    9.4040    8.2186 C   0  0  0  0  0  0  0  0  0  0  0  0
   11.8753    9.3395    6.8929 N   0  0  0  0  0  0  0  0  0  0  0  0
   11.5519   10.5348    6.3221 C   0  0  0  0  0  0  0  0  0  0  0  0
   11.3619   11.7437    6.9620 C   0  0  0  0  0  0  0  0  0  0  0  0
   11.5070   11.8205    8.3742 C   0  0  0  0  0  0  0  0  0  0  0  0
   11.3873   12.7844    9.1402 O   0  0  0  0  0  0  0  0  0  0  0  0
   11.0508   12.6863    6.0226 N   0  0  0  0  0  0  0  0  0  0  0  0
   11.0542   12.0575    4.8243 C   0  0  0  0  0  0  0  0  0  0  0  0
   11.3603   10.7223    4.9762 N   0  0  0  0  0  0  0  0  0  0  0  0
  1  2  1  0  0  0  0
  1  6  1  0  0  0  0
  2  3  2  0  0  0  0
  3  4  1  0  0  0  0
  4  5  2  0  0  0  0
  4 10  1  0  0  0  0
  5  6  1  0  0  0  0
  5  8  1  0  0  0  0
  6  7  2  0  0  0  0
  8  9  1  0  0  0  0
  9 10  2  0  0  0  0
M  END
>  <CHROM.1>
11.49828055,11.19557393,7.10545554,-1.03254996,1.33123407,-2.05441858

>  <Name>
ligand

>  <RI>
0

>  <Rbt.Current_Directory>
/home/itssahil/PROJECTS/Mol_Feturizer/Test_systems_manuscript/rnas/4fe5

>  <Rbt.Executable>
rbdock ($Id: //depot/dev/client3/rdock/2013.1/src/exe/rbdock.cxx#4 $)

>  <Rbt.Library>
libRbt.so (2013.1, Build901 2013/11/27)

>  <Rbt.Parameter_File>
/export/apps/rDock/src/rDock_2013.1_src/data/scripts/dock_solv.prm

>  <Rbt.Receptor>
prm/pocket_docking_7.prm

>  <SCORE>
-17.5575

>  <SCORE.INTER>
-17.5575

>  <SCORE.INTER.CONST>
1

>  <SCORE.INTER.POLAR>
0

>  <SCORE.INTER.ROT>
0

>  <SCORE.INTER.SOLV>
3.90746

>  <SCORE.INTER.VDW>
-16.6075

>  <SCORE.INTER.norm>
-1.75575

>  <SCORE.INTRA>
0

>  <SCORE.INTRA.DIHEDRAL>
0

>  <SCORE.INTRA.DIHEDRAL.0>
0

>  <SCORE.INTRA.POLAR>
0

>  <SCORE.INTRA.POLAR.0>
0

>  <SCORE.INTRA.REPUL>
0

>  <SCORE.INTRA.REPUL.0>
0

>  <SCORE.INTRA.SOLV>
0

>  <SCORE.INTRA.SOLV.lig_0>
-4.28333

>  <SCORE.INTRA.VDW>
0

>  <SCORE.INTRA.VDW.0>
0

>  <SCORE.INTRA.norm>
0

>  <SCORE.RESTR>
0

>  <SCORE.RESTR.CAVITY>
0

>  <SCORE.RESTR.norm>
0

>  <SCORE.SYSTEM>
0

>  <SCORE.SYSTEM.CONST>
0

>  <SCORE.SYSTEM.DIHEDRAL>
0

>  <SCORE.SYSTEM.SOLV>
0

>  <SCORE.SYSTEM.norm>
0

>  <SCORE.heavy>
10

>  <SCORE.norm>
-1.75575

>  <RMSD>
2.418

$$$$
ligand
 OpenBabel02271912143D
libRbt.so/2013.1/901 2013/11/27
 10 11  0  0  0  0  0  0  0  0999 V2000
   11.8372   10.5887    8.9040 N   0  0  0  0  0  0  0  0  0  0  0  0
   11.9985    9.4115    8.2118 C   0  0  0  0  0  0  0  0  0  0  0  0
   11.8522    9.3428    6.8874 N   0  0  0  0  0  0  0  0  0  0  0  0
   11.5329   10.5380    6.3142 C   0  0  0  0  0  0  0  0  0  0  0  0
   11.3558   11.7507    6.9505 C   0  0  0  0  0  0  0  0  0  0  0  0
   11.5114   11.8321    8.3614 C   0  0  0  0  0  0  0  0  0  0  0  0
   11.4037   12.7997    9.1243 O   0  0  0  0  0  0  0  0  0  0  0  0
   11.0444   12.6917    6.0096 N   0  0  0  0  0  0  0  0  0  0  0  0
   11.0351   12.0582    4.8139 C   0  0  0  0  0  0  0  0  0  0  0  0
   11.3332   10.7215    4.9688 N   0  0  0  0  0  0  0  0  0  0  0  0
  1  2  1  0  0  0  0
  1  6  1  0  0  0  0
  2  3  2  0  0  0  0
  3  4  1  0  0  0  0
  4  5  2  0  0  0  0
  4 10  1  0  0  0  0
  5  6  1  0  0  0  0
  5  8  1  0  0  0  0
  6  7  2  0  0  0  0
  8  9  1  0  0  0  0
  9 10  2  0  0  0  0
M  END
>  <CHROM.1>
11.48940843,11.20221200,7.09520983,-0.99229229,1.33382065,-2.09750355

>  <Name>
ligand

>  <RI>
0

>  <Rbt.Current_Directory>
/home/itssahil/PROJECTS/Mol_Feturizer/Test_systems_manuscript/rnas/4fe5

>  <Rbt.Executable>
rbdock ($Id: //depot/dev/client3/rdock/2013.1/src/exe/rbdock.cxx#4 $)

>  <Rbt.Library>
libRbt.so (2013.1, Build901 2013/11/27)

>  <Rbt.Parameter_File>
/export/apps/rDock/src/rDock_2013.1_src/data/scripts/dock_solv.prm

>  <Rbt.Receptor>
prm/pocket_docking_7.prm

>  <SCORE>
-17.5641

>  <SCORE.INTER>
-17.5641

>  <SCORE.INTER.CONST>
1

>  <SCORE.INTER.POLAR>
0

>  <SCORE.INTER.ROT>
0

>  <SCORE.INTER.SOLV>
3.92424

>  <SCORE.INTER.VDW>
-16.6175

>  <SCORE.INTER.norm>
-1.75641

>  <SCORE.INTRA>
0

>  <SCORE.INTRA.DIHEDRAL>
0

>  <SCORE.INTRA.DIHEDRAL.0>
0

>  <SCORE.INTRA.POLAR>
0

>  <SCORE.INTRA.POLAR.0>
0

>  <SCORE.INTRA.REPUL>
0

>  <SCORE.INTRA.REPUL.0>
0

>  <SCORE.INTRA.SOLV>
0

>  <SCORE.INTRA.SOLV.lig_0>
-4.28333

>  <SCORE.INTRA.VDW>
0

>  <SCORE.INTRA.VDW.0>
0

>  <SCORE.INTRA.norm>
0

>  <SCORE.RESTR>
0

>  <SCORE.RESTR.CAVITY>
0

>  <SCORE.RESTR.norm>
0

>  <SCORE.SYSTEM>
0

>  <SCORE.SYSTEM.CONST>
0

>  <SCORE.SYSTEM.DIHEDRAL>
0

>  <SCORE.SYSTEM.SOLV>
0

>  <SCORE.SYSTEM.norm>
0

>  <SCORE.heavy>
10

>  <SCORE.norm>
-1.75641

>  <RMSD>
2.418

$$$$
ligand
 OpenBabel02271912143D
libRbt.so/2013.1/901 2013/11/27
 10 11  0  0  0  0  0  0  0  0999 V2000
   11.8211   10.5746    8.9018 N   0  0  0  0  0  0  0  0  0  0  0  0
   11.9829    9.4018    8.2024 C   0  0  0  0  0  0  0  0  0  0  0  0
   11.8493    9.3437    6.8761 N   0  0  0  0  0  0  0  0  0  0  0  0
   11.5419   10.5448    6.3088 C   0  0  0  0  0  0  0  0  0  0  0  0
   11.3650   11.7538    6.9525 C   0  0  0  0  0  0  0  0  0  0  0  0
   11.5072   11.8237    8.3654 C   0  0  0  0  0  0  0  0  0  0  0  0
   11.3972   12.7862    9.1346 O   0  0  0  0  0  0  0  0  0  0  0  0
   11.0679   12.7034    6.0158 N   0  0  0  0  0  0  0  0  0  0  0  0
   11.0669   12.0789    4.8152 C   0  0  0  0  0  0  0  0  0  0  0  0
   11.3564   10.7395    4.9631 N   0  0  0  0  0  0  0  0  0  0  0  0
  1  2  1  0  0  0  0
  1  6  1  0  0  0  0
  2  3  2  0  0  0  0
  3  4  1  0  0  0  0
  4  5  2  0  0  0  0
  4 10  1  0  0  0  0
  5  6  1  0  0  0  0
  5  8  1  0  0  0  0
  6  7  2  0  0  0  0
  8  9  1  0  0  0  0
  9 10  2  0  0  0  0
M  END
>  <CHROM.1>
11.49429333,11.20346624,7.09439935,-1.01808617,1.34324070,-2.06490369

>  <Name>
ligand

>  <RI>
0

>  <Rbt.Current_Directory>
/home/itssahil/PROJECTS/Mol_Feturizer/Test_systems_manuscript/rnas/4fe5

>  <Rbt.Executable>
rbdock ($Id: //depot/dev/client3/rdock/2013.1/src/exe/rbdock.cxx#4 $)

>  <Rbt.Library>
libRbt.so (2013.1, Build901 2013/11/27)

>  <Rbt.Parameter_File>
/export/apps/rDock/src/rDock_2013.1_src/data/scripts/dock_solv.prm

>  <Rbt.Receptor>
prm/pocket_docking_7.prm

>  <SCORE>
-17.5036

>  <SCORE.INTER>
-17.5036

>  <SCORE.INTER.CONST>
1

>  <SCORE.INTER.POLAR>
0

>  <SCORE.INTER.ROT>
0

>  <SCORE.INTER.SOLV>
3.924

>  <SCORE.INTER.VDW>
-16.5771

>  <SCORE.INTER.norm>
-1.75036

>  <SCORE.INTRA>
0

>  <SCORE.INTRA.DIHEDRAL>
0

>  <SCORE.INTRA.DIHEDRAL.0>
0

>  <SCORE.INTRA.POLAR>
0

>  <SCORE.INTRA.POLAR.0>
0

>  <SCORE.INTRA.REPUL>
0

>  <SCORE.INTRA.REPUL.0>
0

>  <SCORE.INTRA.SOLV>
0

>  <SCORE.INTRA.SOLV.lig_0>
-4.28333

>  <SCORE.INTRA.VDW>
0

>  <SCORE.INTRA.VDW.0>
0

>  <SCORE.INTRA.norm>
0

>  <SCORE.RESTR>
0

>  <SCORE.RESTR.CAVITY>
0

>  <SCORE.RESTR.norm>
0

>  <SCORE.SYSTEM>
0

>  <SCORE.SYSTEM.CONST>
0

>  <SCORE.SYSTEM.DIHEDRAL>
0

>  <SCORE.SYSTEM.SOLV>
0

>  <SCORE.SYSTEM.norm>
0

>  <SCORE.heavy>
10

>  <SCORE.norm>
-1.75036

>  <RMSD>
2.418

$$$$
ligand
 OpenBabel02271912143D
libRbt.so/2013.1/901 2013/11/27
 10 11  0  0  0  0  0  0  0  0999 V2000
   11.8363   10.5766    8.9020 N   0  0  0  0  0  0  0  0  0  0  0  0
   12.0016    9.4027    8.2052 C   0  0  0  0  0  0  0  0  0  0  0  0
   11.8573    9.3392    6.8803 N   0  0  0  0  0  0  0  0  0  0  0  0
   11.5358   10.5359    6.3116 C   0  0  0  0  0  0  0  0  0  0  0  0
   11.3547   11.7456    6.9528 C   0  0  0  0  0  0  0  0  0  0  0  0
   11.5082   11.8214    8.3642 C   0  0  0  0  0  0  0  0  0  0  0  0
   11.3969   12.7856    9.1310 O   0  0  0  0  0  0  0  0  0  0  0  0
   11.0423   12.6896    6.0154 N   0  0  0  0  0  0  0  0  0  0  0  0
   11.0362   12.0611    4.8170 C   0  0  0  0  0  0  0  0  0  0  0  0
   11.3374   10.7245    4.9668 N   0  0  0  0  0  0  0  0  0  0  0  0
  1  2  1  0  0  0  0
  1  6  1  0  0  0  0
  2  3  2  0  0  0  0
  3  4  1  0  0  0  0
  4  5  2  0  0  0  0
  4 10  1  0  0  0  0
  5  6  1  0  0  0  0
  5  8  1  0  0  0  0
  6  7  2  0  0  0  0
  8  9  1  0  0  0  0
  9 10  2  0  0  0  0
M  END
>  <CHROM.1>
11.48951403,11.19677071,7.09535874,-1.00280137,1.33230357,-2.08311021

>  <Name>
ligand

>  <RI>
0

>  <Rbt.Current_Directory>
/home/itssahil/PROJECTS/Mol_Feturizer/Test_systems_manuscript/rnas/4fe5

>  <Rbt.Executable>
rbdock ($Id: //depot/dev/client3/rdock/2013.1/src/exe/rbdock.cxx#4 $)

>  <Rbt.Library>
libRbt.so (2013.1, Build901 2013/11/27)

>  <Rbt.Parameter_File>
/export/apps/rDock/src/rDock_2013.1_src/data/scripts/dock_solv.prm

>  <Rbt.Receptor>
prm/pocket_docking_7.prm

>  <SCORE>
-17.5663

>  <SCORE.INTER>
-17.5663

>  <SCORE.INTER.CONST>
1

>  <SCORE.INTER.POLAR>
0

>  <SCORE.INTER.ROT>
0

>  <SCORE.INTER.SOLV>
3.90942

>  <SCORE.INTER.VDW>
-16.614

>  <SCORE.INTER.norm>
-1.75663

>  <SCORE.INTRA>
0

>  <SCORE.INTRA.DIHEDRAL>
0

>  <SCORE.INTRA.DIHEDRAL.0>
0

>  <SCORE.INTRA.POLAR>
0

>  <SCORE.INTRA.POLAR.0>
0

>  <SCORE.INTRA.REPUL>
0

>  <SCORE.INTRA.REPUL.0>
0

>  <SCORE.INTRA.SOLV>
0

>  <SCORE.INTRA.SOLV.lig_0>
-4.28333

>  <SCORE.INTRA.VDW>
0

>  <SCORE.INTRA.VDW.0>
0

>  <SCORE.INTRA.norm>
0

>  <SCORE.RESTR>
0

>  <SCORE.RESTR.CAVITY>
0

>  <SCORE.RESTR.norm>
0

>  <SCORE.SYSTEM>
0

>  <SCORE.SYSTEM.CONST>
0

>  <SCORE.SYSTEM.DIHEDRAL>
0

>  <SCORE.SYSTEM.SOLV>
0

>  <SCORE.SYSTEM.norm>
0

>  <SCORE.heavy>
10

>  <SCORE.norm>
-1.75663

>  <RMSD>
2.418

$$$$
ligand
 OpenBabel02271912143D
libRbt.so/2013.1/901 2013/11/27
 10 11  0  0  0  0  0  0  0  0999 V2000
   11.8363   10.5791    8.9030 N   0  0  0  0  0  0  0  0  0  0  0  0
   12.0050    9.4051    8.2072 C   0  0  0  0  0  0  0  0  0  0  0  0
   11.8626    9.3403    6.8821 N   0  0  0  0  0  0  0  0  0  0  0  0
   11.5391   10.5359    6.3123 C   0  0  0  0  0  0  0  0  0  0  0  0
   11.3545   11.7456    6.9524 C   0  0  0  0  0  0  0  0  0  0  0  0
   11.5061   11.8227    8.3639 C   0  0  0  0  0  0  0  0  0  0  0  0
   11.3917   12.7872    9.1299 O   0  0  0  0  0  0  0  0  0  0  0  0
   11.0412   12.6883    6.0139 N   0  0  0  0  0  0  0  0  0  0  0  0
   11.0380   12.0590    4.8159 C   0  0  0  0  0  0  0  0  0  0  0  0
   11.3420   10.7232    4.9671 N   0  0  0  0  0  0  0  0  0  0  0  0
  1  2  1  0  0  0  0
  1  6  1  0  0  0  0
  2  3  2  0  0  0  0
  3  4  1  0  0  0  0
  4  5  2  0  0  0  0
  4 10  1  0  0  0  0
  5  6  1  0  0  0  0
  5  8  1  0  0  0  0
  6  7  2  0  0  0  0
  8  9  1  0  0  0  0
  9 10  2  0  0  0  0
M  END
>  <CHROM.1>
11.49039258,11.19720733,7.09549551,-1.01199406,1.33097797,-2.07487031

>  <Name>
ligand

>  <RI>
0

>  <Rbt.Current_Directory>
/home/itssahil/PROJECTS/Mol_Feturizer/Test_systems_manuscript/rnas/4fe5

>  <Rbt.Executable>
rbdock ($Id: //depot/dev/client3/rdock/2013.1/src/exe/rbdock.cxx#4 $)

>  <Rbt.Library>
libRbt.so (2013.1, Build901 2013/11/27)

>  <Rbt.Parameter_File>
/export/apps/rDock/src/rDock_2013.1_src/data/scripts/dock_solv.prm

>  <Rbt.Receptor>
prm/pocket_docking_8.prm

>  <SCORE>
-17.5654

>  <SCORE.INTER>
-17.5654

>  <SCORE.INTER.CONST>
1

>  <SCORE.INTER.POLAR>
0

>  <SCORE.INTER.ROT>
0

>  <SCORE.INTER.SOLV>
3.90961

>  <SCORE.INTER.VDW>
-16.6134

>  <SCORE.INTER.norm>
-1.75654

>  <SCORE.INTRA>
0

>  <SCORE.INTRA.DIHEDRAL>
0

>  <SCORE.INTRA.DIHEDRAL.0>
0

>  <SCORE.INTRA.POLAR>
0

>  <SCORE.INTRA.POLAR.0>
0

>  <SCORE.INTRA.REPUL>
0

>  <SCORE.INTRA.REPUL.0>
0

>  <SCORE.INTRA.SOLV>
0

>  <SCORE.INTRA.SOLV.lig_0>
-4.28333

>  <SCORE.INTRA.VDW>
0

>  <SCORE.INTRA.VDW.0>
0

>  <SCORE.INTRA.norm>
0

>  <SCORE.RESTR>
0

>  <SCORE.RESTR.CAVITY>
0

>  <SCORE.RESTR.norm>
0

>  <SCORE.SYSTEM>
0

>  <SCORE.SYSTEM.CONST>
0

>  <SCORE.SYSTEM.DIHEDRAL>
0

>  <SCORE.SYSTEM.SOLV>
0

>  <SCORE.SYSTEM.norm>
0

>  <SCORE.heavy>
10

>  <SCORE.norm>
-1.75654

>  <RMSD>
2.418

$$$$
ligand
 OpenBabel02271912143D
libRbt.so/2013.1/901 2013/11/27
 10 11  0  0  0  0  0  0  0  0999 V2000
   11.8433   10.5413    8.8828 N   0  0  0  0  0  0  0  0  0  0  0  0
   12.0280    9.3865    8.1594 C   0  0  0  0  0  0  0  0  0  0  0  0
   11.8946    9.3529    6.8323 N   0  0  0  0  0  0  0  0  0  0  0  0
   11.5629   10.5590    6.2898 C   0  0  0  0  0  0  0  0  0  0  0  0
   11.3623   11.7507    6.9582 C   0  0  0  0  0  0  0  0  0  0  0  0
   11.5041   11.7946    8.3722 C   0  0  0  0  0  0  0  0  0  0  0  0
   11.3754   12.7387    9.1609 O   0  0  0  0  0  0  0  0  0  0  0  0
   11.0455   12.7131    6.0412 N   0  0  0  0  0  0  0  0  0  0  0  0
   11.0561   12.1135    4.8281 C   0  0  0  0  0  0  0  0  0  0  0  0
   11.3724   10.7774    4.9484 N   0  0  0  0  0  0  0  0  0  0  0  0
  1  2  1  0  0  0  0
  1  6  1  0  0  0  0
  2  3  2  0  0  0  0
  3  4  1  0  0  0  0
  4  5  2  0  0  0  0
  4 10  1  0  0  0  0
  5  6  1  0  0  0  0
  5  8  1  0  0  0  0
  6  7  2  0  0  0  0
  8  9  1  0  0  0  0
  9 10  2  0  0  0  0
M  END
>  <CHROM.1>
11.50263221,11.20032970,7.08872031,-1.05435522,1.32510736,-2.00916819

>  <Name>
ligand

>  <RI>
0

>  <Rbt.Current_Directory>
/home/itssahil/PROJECTS/Mol_Feturizer/Test_systems_manuscript/rnas/4fe5

>  <Rbt.Executable>
rbdock ($Id: //depot/dev/client3/rdock/2013.1/src/exe/rbdock.cxx#4 $)

>  <Rbt.Library>
libRbt.so (2013.1, Build901 2013/11/27)

>  <Rbt.Parameter_File>
/export/apps/rDock/src/rDock_2013.1_src/data/scripts/dock_solv.prm

>  <Rbt.Receptor>
prm/pocket_docking_8.prm

>  <SCORE>
-17.4731

>  <SCORE.INTER>
-17.4731

>  <SCORE.INTER.CONST>
1

>  <SCORE.INTER.POLAR>
0

>  <SCORE.INTER.ROT>
0

>  <SCORE.INTER.SOLV>
3.85132

>  <SCORE.INTER.VDW>
-16.5325

>  <SCORE.INTER.norm>
-1.74731

>  <SCORE.INTRA>
0

>  <SCORE.INTRA.DIHEDRAL>
0

>  <SCORE.INTRA.DIHEDRAL.0>
0

>  <SCORE.INTRA.POLAR>
0

>  <SCORE.INTRA.POLAR.0>
0

>  <SCORE.INTRA.REPUL>
0

>  <SCORE.INTRA.REPUL.0>
0

>  <SCORE.INTRA.SOLV>
0

>  <SCORE.INTRA.SOLV.lig_0>
-4.28333

>  <SCORE.INTRA.VDW>
0

>  <SCORE.INTRA.VDW.0>
0

>  <SCORE.INTRA.norm>
0

>  <SCORE.RESTR>
0

>  <SCORE.RESTR.CAVITY>
0

>  <SCORE.RESTR.norm>
0

>  <SCORE.SYSTEM>
0

>  <SCORE.SYSTEM.CONST>
0

>  <SCORE.SYSTEM.DIHEDRAL>
0

>  <SCORE.SYSTEM.SOLV>
0

>  <SCORE.SYSTEM.norm>
0

>  <SCORE.heavy>
10

>  <SCORE.norm>
-1.74731

>  <RMSD>
2.418

$$$$
ligand
 OpenBabel02271912143D
libRbt.so/2013.1/901 2013/11/27
 10 11  0  0  0  0  0  0  0  0999 V2000
   11.8328   10.5717    8.9048 N   0  0  0  0  0  0  0  0  0  0  0  0
   12.0008    9.4016    8.2022 C   0  0  0  0  0  0  0  0  0  0  0  0
   11.8667    9.3464    6.8758 N   0  0  0  0  0  0  0  0  0  0  0  0
   11.5523   10.5473    6.3120 C   0  0  0  0  0  0  0  0  0  0  0  0
   11.3690   11.7535    6.9590 C   0  0  0  0  0  0  0  0  0  0  0  0
   11.5116   11.8204    8.3720 C   0  0  0  0  0  0  0  0  0  0  0  0
   11.3966   12.7802    9.1438 O   0  0  0  0  0  0  0  0  0  0  0  0
   11.0659   12.7039    6.0250 N   0  0  0  0  0  0  0  0  0  0  0  0
   11.0677   12.0827    4.8228 C   0  0  0  0  0  0  0  0  0  0  0  0
   11.3648   10.7445    4.9668 N   0  0  0  0  0  0  0  0  0  0  0  0
  1  2  1  0  0  0  0
  1  6  1  0  0  0  0
  2  3  2  0  0  0  0
  3  4  1  0  0  0  0
  4  5  2  0  0  0  0
  4 10  1  0  0  0  0
  5  6  1  0  0  0  0
  5  8  1  0  0  0  0
  6  7  2  0  0  0  0
  8  9  1  0  0  0  0
  9 10  2  0  0  0  0
M  END
>  <CHROM.1>
11.50140795,11.20353714,7.09931675,-1.02730337,1.33801071,-2.05323274

>  <Name>
ligand

>  <RI>
0

>  <Rbt.Current_Directory>
/home/itssahil/PROJECTS/Mol_Feturizer/Test_systems_manuscript/rnas/4fe5

>  <Rbt.Executable>
rbdock ($Id: //depot/dev/client3/rdock/2013.1/src/exe/rbdock.cxx#4 $)

>  <Rbt.Library>
libRbt.so (2013.1, Build901 2013/11/27)

>  <Rbt.Parameter_File>
/export/apps/rDock/src/rDock_2013.1_src/data/scripts/dock_solv.prm

>  <Rbt.Receptor>
prm/pocket_docking_8.prm

>  <SCORE>
-17.5321

>  <SCORE.INTER>
-17.5321

>  <SCORE.INTER.CONST>
1

>  <SCORE.INTER.POLAR>
0

>  <SCORE.INTER.ROT>
0

>  <SCORE.INTER.SOLV>
3.90994

>  <SCORE.INTER.VDW>
-16.5914

>  <SCORE.INTER.norm>
-1.75321

>  <SCORE.INTRA>
0

>  <SCORE.INTRA.DIHEDRAL>
0

>  <SCORE.INTRA.DIHEDRAL.0>
0

>  <SCORE.INTRA.POLAR>
0

>  <SCORE.INTRA.POLAR.0>
0

>  <SCORE.INTRA.REPUL>
0

>  <SCORE.INTRA.REPUL.0>
0

>  <SCORE.INTRA.SOLV>
0

>  <SCORE.INTRA.SOLV.lig_0>
-4.28333

>  <SCORE.INTRA.VDW>
0

>  <SCORE.INTRA.VDW.0>
0

>  <SCORE.INTRA.norm>
0

>  <SCORE.RESTR>
0

>  <SCORE.RESTR.CAVITY>
0

>  <SCORE.RESTR.norm>
0

>  <SCORE.SYSTEM>
0

>  <SCORE.SYSTEM.CONST>
0

>  <SCORE.SYSTEM.DIHEDRAL>
0

>  <SCORE.SYSTEM.SOLV>
0

>  <SCORE.SYSTEM.norm>
0

>  <SCORE.heavy>
10

>  <SCORE.norm>
-1.75321

>  <RMSD>
2.418

$$$$
ligand
 OpenBabel02271912143D
libRbt.so/2013.1/901 2013/11/27
 10 11  0  0  0  0  0  0  0  0999 V2000
   11.8375   10.5936    8.9039 N   0  0  0  0  0  0  0  0  0  0  0  0
   12.0074    9.4164    8.2137 C   0  0  0  0  0  0  0  0  0  0  0  0
   11.8657    9.3453    6.8889 N   0  0  0  0  0  0  0  0  0  0  0  0
   11.5416   10.5379    6.3132 C   0  0  0  0  0  0  0  0  0  0  0  0
   11.3557   11.7505    6.9475 C   0  0  0  0  0  0  0  0  0  0  0  0
   11.5065   11.8344    8.3588 C   0  0  0  0  0  0  0  0  0  0  0  0
   11.3910   12.8024    9.1201 O   0  0  0  0  0  0  0  0  0  0  0  0
   11.0421   12.6885    6.0045 N   0  0  0  0  0  0  0  0  0  0  0  0
   11.0400   12.0535    4.8095 C   0  0  0  0  0  0  0  0  0  0  0  0
   11.3450   10.7187    4.9671 N   0  0  0  0  0  0  0  0  0  0  0  0
  1  2  1  0  0  0  0
  1  6  1  0  0  0  0
  2  3  2  0  0  0  0
  3  4  1  0  0  0  0
  4  5  2  0  0  0  0
  4 10  1  0  0  0  0
  5  6  1  0  0  0  0
  5  8  1  0  0  0  0
  6  7  2  0  0  0  0
  8  9  1  0  0  0  0
  9 10  2  0  0  0  0
M  END
>  <CHROM.1>
11.49192965,11.20289631,7.09328990,-1.01536990,1.33052859,-2.07632576

>  <Name>
ligand

>  <RI>
0

>  <Rbt.Current_Directory>
/home/itssahil/PROJECTS/Mol_Feturizer/Test_systems_manuscript/rnas/4fe5

>  <Rbt.Executable>
rbdock ($Id: //depot/dev/client3/rdock/2013.1/src/exe/rbdock.cxx#4 $)

>  <Rbt.Library>
libRbt.so (2013.1, Build901 2013/11/27)

>  <Rbt.Parameter_File>
/export/apps/rDock/src/rDock_2013.1_src/data/scripts/dock_solv.prm

>  <Rbt.Receptor>
prm/pocket_docking_8.prm

>  <SCORE>
-17.5633

>  <SCORE.INTER>
-17.5633

>  <SCORE.INTER.CONST>
1

>  <SCORE.INTER.POLAR>
0

>  <SCORE.INTER.ROT>
0

>  <SCORE.INTER.SOLV>
3.92295

>  <SCORE.INTER.VDW>
-16.6165

>  <SCORE.INTER.norm>
-1.75633

>  <SCORE.INTRA>
0

>  <SCORE.INTRA.DIHEDRAL>
0

>  <SCORE.INTRA.DIHEDRAL.0>
0

>  <SCORE.INTRA.POLAR>
0

>  <SCORE.INTRA.POLAR.0>
0

>  <SCORE.INTRA.REPUL>
0

>  <SCORE.INTRA.REPUL.0>
0

>  <SCORE.INTRA.SOLV>
0

>  <SCORE.INTRA.SOLV.lig_0>
-4.28333

>  <SCORE.INTRA.VDW>
0

>  <SCORE.INTRA.VDW.0>
0

>  <SCORE.INTRA.norm>
0

>  <SCORE.RESTR>
0

>  <SCORE.RESTR.CAVITY>
0

>  <SCORE.RESTR.norm>
0

>  <SCORE.SYSTEM>
0

>  <SCORE.SYSTEM.CONST>
0

>  <SCORE.SYSTEM.DIHEDRAL>
0

>  <SCORE.SYSTEM.SOLV>
0

>  <SCORE.SYSTEM.norm>
0

>  <SCORE.heavy>
10

>  <SCORE.norm>
-1.75633

>  <RMSD>
2.418

$$$$
ligand
 OpenBabel02271912143D
libRbt.so/2013.1/901 2013/11/27
 10 11  0  0  0  0  0  0  0  0999 V2000
   11.8225   10.5666    8.8963 N   0  0  0  0  0  0  0  0  0  0  0  0
   11.9973    9.3992    8.1909 C   0  0  0  0  0  0  0  0  0  0  0  0
   11.8656    9.3467    6.8642 N   0  0  0  0  0  0  0  0  0  0  0  0
   11.5464   10.5475    6.3029 C   0  0  0  0  0  0  0  0  0  0  0  0
   11.3562   11.7512    6.9527 C   0  0  0  0  0  0  0  0  0  0  0  0
   11.4962   11.8152    8.3661 C   0  0  0  0  0  0  0  0  0  0  0  0
   11.3754   12.7725    9.1401 O   0  0  0  0  0  0  0  0  0  0  0  0
   11.0501   12.7025    6.0205 N   0  0  0  0  0  0  0  0  0  0  0  0
   11.0569   12.0843    4.8168 C   0  0  0  0  0  0  0  0  0  0  0  0
   11.3601   10.7473    4.9579 N   0  0  0  0  0  0  0  0  0  0  0  0
  1  2  1  0  0  0  0
  1  6  1  0  0  0  0
  2  3  2  0  0  0  0
  3  4  1  0  0  0  0
  4  5  2  0  0  0  0
  4 10  1  0  0  0  0
  5  6  1  0  0  0  0
  5  8  1  0  0  0  0
  6  7  2  0  0  0  0
  8  9  1  0  0  0  0
  9 10  2  0  0  0  0
M  END
>  <CHROM.1>
11.49105097,11.20149526,7.09179607,-1.04303915,1.33449685,-2.03539540

>  <Name>
ligand

>  <RI>
0

>  <Rbt.Current_Directory>
/home/itssahil/PROJECTS/Mol_Feturizer/Test_systems_manuscript/rnas/4fe5

>  <Rbt.Executable>
rbdock ($Id: //depot/dev/client3/rdock/2013.1/src/exe/rbdock.cxx#4 $)

>  <Rbt.Library>
libRbt.so (2013.1, Build901 2013/11/27)

>  <Rbt.Parameter_File>
/export/apps/rDock/src/rDock_2013.1_src/data/scripts/dock_solv.prm

>  <Rbt.Receptor>
prm/blind_docking_40.prm

>  <SCORE>
-17.4648

>  <SCORE.INTER>
-17.4648

>  <SCORE.INTER.CONST>
1

>  <SCORE.INTER.POLAR>
0

>  <SCORE.INTER.ROT>
0

>  <SCORE.INTER.SOLV>
3.90041

>  <SCORE.INTER.VDW>
-16.5434

>  <SCORE.INTER.norm>
-1.74648

>  <SCORE.INTRA>
0

>  <SCORE.INTRA.DIHEDRAL>
0

>  <SCORE.INTRA.DIHEDRAL.0>
0

>  <SCORE.INTRA.POLAR>
0

>  <SCORE.INTRA.POLAR.0>
0

>  <SCORE.INTRA.REPUL>
0

>  <SCORE.INTRA.REPUL.0>
0

>  <SCORE.INTRA.SOLV>
0

>  <SCORE.INTRA.SOLV.lig_0>
-4.28333

>  <SCORE.INTRA.VDW>
0

>  <SCORE.INTRA.VDW.0>
0

>  <SCORE.INTRA.norm>
0

>  <SCORE.RESTR>
0

>  <SCORE.RESTR.CAVITY>
0

>  <SCORE.RESTR.norm>
0

>  <SCORE.SYSTEM>
0

>  <SCORE.SYSTEM.CONST>
0

>  <SCORE.SYSTEM.DIHEDRAL>
0

>  <SCORE.SYSTEM.SOLV>
0

>  <SCORE.SYSTEM.norm>
0

>  <SCORE.heavy>
10

>  <SCORE.norm>
-1.74648

>  <RMSD>
2.419

$$$$
ligand
 OpenBabel02271912143D
libRbt.so/2013.1/901 2013/11/27
 10 11  0  0  0  0  0  0  0  0999 V2000
   11.8149   10.4872    8.9280 N   0  0  0  0  0  0  0  0  0  0  0  0
   11.9681    9.3083    8.2369 C   0  0  0  0  0  0  0  0  0  0  0  0
   11.8380    9.2427    6.9106 N   0  0  0  0  0  0  0  0  0  0  0  0
   11.5435   10.4427    6.3344 C   0  0  0  0  0  0  0  0  0  0  0  0
   11.3757   11.6575    6.9695 C   0  0  0  0  0  0  0  0  0  0  0  0
   11.5142   11.7355    8.3824 C   0  0  0  0  0  0  0  0  0  0  0  0
   11.4106   12.7041    9.1448 O   0  0  0  0  0  0  0  0  0  0  0  0
   11.0902   12.6035    6.0256 N   0  0  0  0  0  0  0  0  0  0  0  0
   11.0872   11.9711    4.8292 C   0  0  0  0  0  0  0  0  0  0  0  0
   11.3639   10.6301    4.9868 N   0  0  0  0  0  0  0  0  0  0  0  0
  1  2  1  0  0  0  0
  1  6  1  0  0  0  0
  2  3  2  0  0  0  0
  3  4  1  0  0  0  0
  4  5  2  0  0  0  0
  4 10  1  0  0  0  0
  5  6  1  0  0  0  0
  5  8  1  0  0  0  0
  6  7  2  0  0  0  0
  8  9  1  0  0  0  0
  9 10  2  0  0  0  0
M  END
>  <CHROM.1>
11.49946676,11.10697821,7.11542729,-1.01050187,1.35278946,-2.07893293

>  <Name>
ligand

>  <RI>
0

>  <Rbt.Current_Directory>
/home/itssahil/PROJECTS/Mol_Feturizer/Test_systems_manuscript/rnas/4fe5

>  <Rbt.Executable>
rbdock ($Id: //depot/dev/client3/rdock/2013.1/src/exe/rbdock.cxx#4 $)

>  <Rbt.Library>
libRbt.so (2013.1, Build901 2013/11/27)

>  <Rbt.Parameter_File>
/export/apps/rDock/src/rDock_2013.1_src/data/scripts/dock_solv.prm

>  <Rbt.Receptor>
prm/blind_docking_40.prm

>  <SCORE>
-17.4383

>  <SCORE.INTER>
-17.4383

>  <SCORE.INTER.CONST>
1

>  <SCORE.INTER.POLAR>
0

>  <SCORE.INTER.ROT>
0

>  <SCORE.INTER.SOLV>
3.89458

>  <SCORE.INTER.VDW>
-16.5237

>  <SCORE.INTER.norm>
-1.74383

>  <SCORE.INTRA>
0

>  <SCORE.INTRA.DIHEDRAL>
0

>  <SCORE.INTRA.DIHEDRAL.0>
0

>  <SCORE.INTRA.POLAR>
0

>  <SCORE.INTRA.POLAR.0>
0

>  <SCORE.INTRA.REPUL>
0

>  <SCORE.INTRA.REPUL.0>
0

>  <SCORE.INTRA.SOLV>
0

>  <SCORE.INTRA.SOLV.lig_0>
-4.28333

>  <SCORE.INTRA.VDW>
0

>  <SCORE.INTRA.VDW.0>
0

>  <SCORE.INTRA.norm>
0

>  <SCORE.RESTR>
0

>  <SCORE.RESTR.CAVITY>
0

>  <SCORE.RESTR.norm>
0

>  <SCORE.SYSTEM>
0

>  <SCORE.SYSTEM.CONST>
0

>  <SCORE.SYSTEM.DIHEDRAL>
0

>  <SCORE.SYSTEM.SOLV>
0

>  <SCORE.SYSTEM.norm>
0

>  <SCORE.heavy>
10

>  <SCORE.norm>
-1.74383

>  <RMSD>
2.419

$$$$
ligand
 OpenBabel02271912143D
libRbt.so/2013.1/901 2013/11/27
 10 11  0  0  0  0  0  0  0  0999 V2000
   11.8323   10.5757    8.9042 N   0  0  0  0  0  0  0  0  0  0  0  0
   12.0093    9.4039    8.2066 C   0  0  0  0  0  0  0  0  0  0  0  0
   11.8710    9.3408    6.8810 N   0  0  0  0  0  0  0  0  0  0  0  0
   11.5428   10.5358    6.3125 C   0  0  0  0  0  0  0  0  0  0  0  0
   11.3499   11.7433    6.9543 C   0  0  0  0  0  0  0  0  0  0  0  0
   11.4970   11.8186    8.3664 C   0  0  0  0  0  0  0  0  0  0  0  0
   11.3753   12.7810    9.1339 O   0  0  0  0  0  0  0  0  0  0  0  0
   11.0343   12.6861    6.0167 N   0  0  0  0  0  0  0  0  0  0  0  0
   11.0379   12.0590    4.8175 C   0  0  0  0  0  0  0  0  0  0  0  0
   11.3486   10.7245    4.9670 N   0  0  0  0  0  0  0  0  0  0  0  0
  1  2  1  0  0  0  0
  1  6  1  0  0  0  0
  2  3  2  0  0  0  0
  3  4  1  0  0  0  0
  4  5  2  0  0  0  0
  4 10  1  0  0  0  0
  5  6  1  0  0  0  0
  5  8  1  0  0  0  0
  6  7  2  0  0  0  0
  8  9  1  0  0  0  0
  9 10  2  0  0  0  0
M  END
>  <CHROM.1>
11.48829408,11.19536810,7.09677447,-1.03310012,1.32764664,-2.05251028

>  <Name>
ligand

>  <RI>
0

>  <Rbt.Current_Directory>
/home/itssahil/PROJECTS/Mol_Feturizer/Test_systems_manuscript/rnas/4fe5

>  <Rbt.Executable>
rbdock ($Id: //depot/dev/client3/rdock/2013.1/src/exe/rbdock.cxx#4 $)

>  <Rbt.Library>
libRbt.so (2013.1, Build901 2013/11/27)

>  <Rbt.Parameter_File>
/export/apps/rDock/src/rDock_2013.1_src/data/scripts/dock_solv.prm

>  <Rbt.Receptor>
prm/blind_docking_60.prm

>  <SCORE>
-17.5616

>  <SCORE.INTER>
-17.5616

>  <SCORE.INTER.CONST>
1

>  <SCORE.INTER.POLAR>
0

>  <SCORE.INTER.ROT>
0

>  <SCORE.INTER.SOLV>
3.90137

>  <SCORE.INTER.VDW>
-16.6082

>  <SCORE.INTER.norm>
-1.75616

>  <SCORE.INTRA>
0

>  <SCORE.INTRA.DIHEDRAL>
0

>  <SCORE.INTRA.DIHEDRAL.0>
0

>  <SCORE.INTRA.POLAR>
0

>  <SCORE.INTRA.POLAR.0>
0

>  <SCORE.INTRA.REPUL>
0

>  <SCORE.INTRA.REPUL.0>
0

>  <SCORE.INTRA.SOLV>
0

>  <SCORE.INTRA.SOLV.lig_0>
-4.28333

>  <SCORE.INTRA.VDW>
0

>  <SCORE.INTRA.VDW.0>
0

>  <SCORE.INTRA.norm>
0

>  <SCORE.RESTR>
0

>  <SCORE.RESTR.CAVITY>
0

>  <SCORE.RESTR.norm>
0

>  <SCORE.SYSTEM>
0

>  <SCORE.SYSTEM.CONST>
0

>  <SCORE.SYSTEM.DIHEDRAL>
0

>  <SCORE.SYSTEM.SOLV>
0

>  <SCORE.SYSTEM.norm>
0

>  <SCORE.heavy>
10

>  <SCORE.norm>
-1.75616

>  <RMSD>
2.419

$$$$
ligand
 OpenBabel02271912143D
libRbt.so/2013.1/901 2013/11/27
 10 11  0  0  0  0  0  0  0  0999 V2000
   11.8101   10.5747    8.9026 N   0  0  0  0  0  0  0  0  0  0  0  0
   11.9767    9.3998    8.2077 C   0  0  0  0  0  0  0  0  0  0  0  0
   11.8397    9.3354    6.8820 N   0  0  0  0  0  0  0  0  0  0  0  0
   11.5240   10.5323    6.3105 C   0  0  0  0  0  0  0  0  0  0  0  0
   11.3420   11.7430    6.9496 C   0  0  0  0  0  0  0  0  0  0  0  0
   11.4877   11.8197    8.3618 C   0  0  0  0  0  0  0  0  0  0  0  0
   11.3743   12.7849    9.1271 O   0  0  0  0  0  0  0  0  0  0  0  0
   11.0369   12.6869    6.0096 N   0  0  0  0  0  0  0  0  0  0  0  0
   11.0361   12.0573    4.8117 C   0  0  0  0  0  0  0  0  0  0  0  0
   11.3336   10.7202    4.9644 N   0  0  0  0  0  0  0  0  0  0  0  0
  1  2  1  0  0  0  0
  1  6  1  0  0  0  0
  2  3  2  0  0  0  0
  3  4  1  0  0  0  0
  4  5  2  0  0  0  0
  4 10  1  0  0  0  0
  5  6  1  0  0  0  0
  5  8  1  0  0  0  0
  6  7  2  0  0  0  0
  8  9  1  0  0  0  0
  9 10  2  0  0  0  0
M  END
>  <CHROM.1>
11.47477822,11.19401127,7.09341513,-1.01922853,1.33692926,-2.06803830

>  <Name>
ligand

>  <RI>
0

>  <Rbt.Current_Directory>
/home/itssahil/PROJECTS/Mol_Feturizer/Test_systems_manuscript/rnas/4fe5

>  <Rbt.Executable>
rbdock ($Id: //depot/dev/client3/rdock/2013.1/src/exe/rbdock.cxx#4 $)

>  <Rbt.Library>
libRbt.so (2013.1, Build901 2013/11/27)

>  <Rbt.Parameter_File>
/export/apps/rDock/src/rDock_2013.1_src/data/scripts/dock_solv.prm

>  <Rbt.Receptor>
prm/blind_docking_60.prm

>  <SCORE>
-17.4923

>  <SCORE.INTER>
-17.4923

>  <SCORE.INTER.CONST>
1

>  <SCORE.INTER.POLAR>
0

>  <SCORE.INTER.ROT>
0

>  <SCORE.INTER.SOLV>
3.92317

>  <SCORE.INTER.VDW>
-16.5693

>  <SCORE.INTER.norm>
-1.74923

>  <SCORE.INTRA>
0

>  <SCORE.INTRA.DIHEDRAL>
0

>  <SCORE.INTRA.DIHEDRAL.0>
0

>  <SCORE.INTRA.POLAR>
0

>  <SCORE.INTRA.POLAR.0>
0

>  <SCORE.INTRA.REPUL>
0

>  <SCORE.INTRA.REPUL.0>
0

>  <SCORE.INTRA.SOLV>
0

>  <SCORE.INTRA.SOLV.lig_0>
-4.28333

>  <SCORE.INTRA.VDW>
0

>  <SCORE.INTRA.VDW.0>
0

>  <SCORE.INTRA.norm>
0

>  <SCORE.RESTR>
0

>  <SCORE.RESTR.CAVITY>
0

>  <SCORE.RESTR.norm>
0

>  <SCORE.SYSTEM>
0

>  <SCORE.SYSTEM.CONST>
0

>  <SCORE.SYSTEM.DIHEDRAL>
0

>  <SCORE.SYSTEM.SOLV>
0

>  <SCORE.SYSTEM.norm>
0

>  <SCORE.heavy>
10

>  <SCORE.norm>
-1.74923

>  <RMSD>
2.419

$$$$
ligand
 OpenBabel02271912143D
libRbt.so/2013.1/901 2013/11/27
 10 11  0  0  0  0  0  0  0  0999 V2000
   11.7803   10.5505    8.9236 N   0  0  0  0  0  0  0  0  0  0  0  0
   11.9440    9.3781    8.2239 C   0  0  0  0  0  0  0  0  0  0  0  0
   11.8161    9.3213    6.8970 N   0  0  0  0  0  0  0  0  0  0  0  0
   11.5125   10.5232    6.3294 C   0  0  0  0  0  0  0  0  0  0  0  0
   11.3340   11.7317    6.9733 C   0  0  0  0  0  0  0  0  0  0  0  0
   11.4700   11.8004    8.3869 C   0  0  0  0  0  0  0  0  0  0  0  0
   11.3576   12.7623    9.1563 O   0  0  0  0  0  0  0  0  0  0  0  0
   11.0419   12.6824    6.0360 N   0  0  0  0  0  0  0  0  0  0  0  0
   11.0455   12.0589    4.8350 C   0  0  0  0  0  0  0  0  0  0  0  0
   11.3330   10.7191    4.9829 N   0  0  0  0  0  0  0  0  0  0  0  0
  1  2  1  0  0  0  0
  1  6  1  0  0  0  0
  2  3  2  0  0  0  0
  3  4  1  0  0  0  0
  4  5  2  0  0  0  0
  4 10  1  0  0  0  0
  5  6  1  0  0  0  0
  5  8  1  0  0  0  0
  6  7  2  0  0  0  0
  8  9  1  0  0  0  0
  9 10  2  0  0  0  0
M  END
>  <CHROM.1>
11.46206000,11.18118799,7.11526625,-1.03330069,1.34618498,-2.04924045

>  <Name>
ligand

>  <RI>
0

>  <Rbt.Current_Directory>
/home/itssahil/PROJECTS/Mol_Feturizer/Test_systems_manuscript/rnas/4fe5

>  <Rbt.Executable>
rbdock ($Id: //depot/dev/client3/rdock/2013.1/src/exe/rbdock.cxx#4 $)

>  <Rbt.Library>
libRbt.so (2013.1, Build901 2013/11/27)

>  <Rbt.Parameter_File>
/export/apps/rDock/src/rDock_2013.1_src/data/scripts/dock_solv.prm

>  <Rbt.Receptor>
prm/blind_docking_80.prm

>  <SCORE>
-17.4587

>  <SCORE.INTER>
-17.4587

>  <SCORE.INTER.CONST>
1

>  <SCORE.INTER.POLAR>
0

>  <SCORE.INTER.ROT>
0

>  <SCORE.INTER.SOLV>
3.92542

>  <SCORE.INTER.VDW>
-16.5476

>  <SCORE.INTER.norm>
-1.74587

>  <SCORE.INTRA>
0

>  <SCORE.INTRA.DIHEDRAL>
0

>  <SCORE.INTRA.DIHEDRAL.0>
0

>  <SCORE.INTRA.POLAR>
0

>  <SCORE.INTRA.POLAR.0>
0

>  <SCORE.INTRA.REPUL>
0

>  <SCORE.INTRA.REPUL.0>
0

>  <SCORE.INTRA.SOLV>
0

>  <SCORE.INTRA.SOLV.lig_0>
-4.28333

>  <SCORE.INTRA.VDW>
0

>  <SCORE.INTRA.VDW.0>
0

>  <SCORE.INTRA.norm>
0

>  <SCORE.RESTR>
0

>  <SCORE.RESTR.CAVITY>
0

>  <SCORE.RESTR.norm>
0

>  <SCORE.SYSTEM>
0

>  <SCORE.SYSTEM.CONST>
0

>  <SCORE.SYSTEM.DIHEDRAL>
0

>  <SCORE.SYSTEM.SOLV>
0

>  <SCORE.SYSTEM.norm>
0

>  <SCORE.heavy>
10

>  <SCORE.norm>
-1.74587

>  <RMSD>
2.419

$$$$
ligand
 OpenBabel02271912143D
libRbt.so/2013.1/901 2013/11/27
 10 11  0  0  0  0  0  0  0  0999 V2000
   11.8338   10.5792    8.9061 N   0  0  0  0  0  0  0  0  0  0  0  0
   12.0142    9.4069    8.2102 C   0  0  0  0  0  0  0  0  0  0  0  0
   11.8780    9.3420    6.8845 N   0  0  0  0  0  0  0  0  0  0  0  0
   11.5482   10.5356    6.3140 C   0  0  0  0  0  0  0  0  0  0  0  0
   11.3519   11.7435    6.9541 C   0  0  0  0  0  0  0  0  0  0  0  0
   11.4967   11.8208    8.3664 C   0  0  0  0  0  0  0  0  0  0  0  0
   11.3719   12.7838    9.1326 O   0  0  0  0  0  0  0  0  0  0  0  0
   11.0357   12.6845    6.0150 N   0  0  0  0  0  0  0  0  0  0  0  0
   11.0423   12.0560    4.8166 C   0  0  0  0  0  0  0  0  0  0  0  0
   11.3556   10.7224    4.9681 N   0  0  0  0  0  0  0  0  0  0  0  0
  1  2  1  0  0  0  0
  1  6  1  0  0  0  0
  2  3  2  0  0  0  0
  3  4  1  0  0  0  0
  4  5  2  0  0  0  0
  4 10  1  0  0  0  0
  5  6  1  0  0  0  0
  5  8  1  0  0  0  0
  6  7  2  0  0  0  0
  8  9  1  0  0  0  0
  9 10  2  0  0  0  0
M  END
>  <CHROM.1>
11.49115707,11.19601901,7.09750277,-1.04244680,1.32650402,-2.04462826

>  <Name>
ligand

>  <RI>
0

>  <Rbt.Current_Directory>
/home/itssahil/PROJECTS/Mol_Feturizer/Test_systems_manuscript/rnas/4fe5

>  <Rbt.Executable>
rbdock ($Id: //depot/dev/client3/rdock/2013.1/src/exe/rbdock.cxx#4 $)

>  <Rbt.Library>
libRbt.so (2013.1, Build901 2013/11/27)

>  <Rbt.Parameter_File>
/export/apps/rDock/src/rDock_2013.1_src/data/scripts/dock_solv.prm

>  <Rbt.Receptor>
prm/blind_docking_80.prm

>  <SCORE>
-17.5588

>  <SCORE.INTER>
-17.5588

>  <SCORE.INTER.CONST>
1

>  <SCORE.INTER.POLAR>
0

>  <SCORE.INTER.ROT>
0

>  <SCORE.INTER.SOLV>
3.90262

>  <SCORE.INTER.VDW>
-16.6067

>  <SCORE.INTER.norm>
-1.75588

>  <SCORE.INTRA>
0

>  <SCORE.INTRA.DIHEDRAL>
0

>  <SCORE.INTRA.DIHEDRAL.0>
0

>  <SCORE.INTRA.POLAR>
0

>  <SCORE.INTRA.POLAR.0>
0

>  <SCORE.INTRA.REPUL>
0

>  <SCORE.INTRA.REPUL.0>
0

>  <SCORE.INTRA.SOLV>
0

>  <SCORE.INTRA.SOLV.lig_0>
-4.28333

>  <SCORE.INTRA.VDW>
0

>  <SCORE.INTRA.VDW.0>
0

>  <SCORE.INTRA.norm>
0

>  <SCORE.RESTR>
0

>  <SCORE.RESTR.CAVITY>
0

>  <SCORE.RESTR.norm>
0

>  <SCORE.SYSTEM>
0

>  <SCORE.SYSTEM.CONST>
0

>  <SCORE.SYSTEM.DIHEDRAL>
0

>  <SCORE.SYSTEM.SOLV>
0

>  <SCORE.SYSTEM.norm>
0

>  <SCORE.heavy>
10

>  <SCORE.norm>
-1.75588

>  <RMSD>
2.419

$$$$
ligand
 OpenBabel02271912143D
libRbt.so/2013.1/901 2013/11/27
 10 11  0  0  0  0  0  0  0  0999 V2000
   11.8378   10.5885    8.9023 N   0  0  0  0  0  0  0  0  0  0  0  0
   12.0221    9.4157    8.2085 C   0  0  0  0  0  0  0  0  0  0  0  0
   11.8850    9.3478    6.8830 N   0  0  0  0  0  0  0  0  0  0  0  0
   11.5502   10.5391    6.3106 C   0  0  0  0  0  0  0  0  0  0  0  0
   11.3498   11.7473    6.9486 C   0  0  0  0  0  0  0  0  0  0  0  0
   11.4955   11.8278    8.3606 C   0  0  0  0  0  0  0  0  0  0  0  0
   11.3676   12.7918    9.1250 O   0  0  0  0  0  0  0  0  0  0  0  0
   11.0292   12.6854    6.0079 N   0  0  0  0  0  0  0  0  0  0  0  0
   11.0373   12.0547    4.8107 C   0  0  0  0  0  0  0  0  0  0  0  0
   11.3558   10.7226    4.9645 N   0  0  0  0  0  0  0  0  0  0  0  0
  1  2  1  0  0  0  0
  1  6  1  0  0  0  0
  2  3  2  0  0  0  0
  3  4  1  0  0  0  0
  4  5  2  0  0  0  0
  4 10  1  0  0  0  0
  5  6  1  0  0  0  0
  5  8  1  0  0  0  0
  6  7  2  0  0  0  0
  8  9  1  0  0  0  0
  9 10  2  0  0  0  0
M  END
>  <CHROM.1>
11.49128161,11.20065784,7.09283803,-1.04662972,1.32269741,-2.04242157

>  <Name>
ligand

>  <RI>
0

>  <Rbt.Current_Directory>
/home/itssahil/PROJECTS/Mol_Feturizer/Test_systems_manuscript/rnas/4fe5

>  <Rbt.Executable>
rbdock ($Id: //depot/dev/client3/rdock/2013.1/src/exe/rbdock.cxx#4 $)

>  <Rbt.Library>
libRbt.so (2013.1, Build901 2013/11/27)

>  <Rbt.Parameter_File>
/export/apps/rDock/src/rDock_2013.1_src/data/scripts/dock_solv.prm

>  <Rbt.Receptor>
prm/pocket_docking_4.prm

>  <SCORE>
-17.555

>  <SCORE.INTER>
-17.555

>  <SCORE.INTER.CONST>
1

>  <SCORE.INTER.POLAR>
0

>  <SCORE.INTER.ROT>
0

>  <SCORE.INTER.SOLV>
3.90416

>  <SCORE.INTER.VDW>
-16.6047

>  <SCORE.INTER.norm>
-1.7555

>  <SCORE.INTRA>
0

>  <SCORE.INTRA.DIHEDRAL>
0

>  <SCORE.INTRA.DIHEDRAL.0>
0

>  <SCORE.INTRA.POLAR>
0

>  <SCORE.INTRA.POLAR.0>
0

>  <SCORE.INTRA.REPUL>
0

>  <SCORE.INTRA.REPUL.0>
0

>  <SCORE.INTRA.SOLV>
0

>  <SCORE.INTRA.SOLV.lig_0>
-4.28333

>  <SCORE.INTRA.VDW>
0

>  <SCORE.INTRA.VDW.0>
0

>  <SCORE.INTRA.norm>
0

>  <SCORE.RESTR>
0

>  <SCORE.RESTR.CAVITY>
0

>  <SCORE.RESTR.norm>
0

>  <SCORE.SYSTEM>
0

>  <SCORE.SYSTEM.CONST>
0

>  <SCORE.SYSTEM.DIHEDRAL>
0

>  <SCORE.SYSTEM.SOLV>
0

>  <SCORE.SYSTEM.norm>
0

>  <SCORE.heavy>
10

>  <SCORE.norm>
-1.7555

>  <RMSD>
2.419

$$$$
ligand
 OpenBabel02271912143D
libRbt.so/2013.1/901 2013/11/27
 10 11  0  0  0  0  0  0  0  0999 V2000
   11.8241   10.5376    8.9122 N   0  0  0  0  0  0  0  0  0  0  0  0
   12.0235    9.3791    8.1986 C   0  0  0  0  0  0  0  0  0  0  0  0
   11.8971    9.3342    6.8711 N   0  0  0  0  0  0  0  0  0  0  0  0
   11.5567   10.5329    6.3178 C   0  0  0  0  0  0  0  0  0  0  0  0
   11.3413   11.7277    6.9761 C   0  0  0  0  0  0  0  0  0  0  0  0
   11.4755   11.7836    8.3904 C   0  0  0  0  0  0  0  0  0  0  0  0
   11.3338   12.7325    9.1712 O   0  0  0  0  0  0  0  0  0  0  0  0
   11.0200   12.6801    6.0502 N   0  0  0  0  0  0  0  0  0  0  0  0
   11.0425   12.0713    4.8418 C   0  0  0  0  0  0  0  0  0  0  0  0
   11.3710   10.7393    4.9738 N   0  0  0  0  0  0  0  0  0  0  0  0
  1  2  1  0  0  0  0
  1  6  1  0  0  0  0
  2  3  2  0  0  0  0
  3  4  1  0  0  0  0
  4  5  2  0  0  0  0
  4 10  1  0  0  0  0
  5  6  1  0  0  0  0
  5  8  1  0  0  0  0
  6  7  2  0  0  0  0
  8  9  1  0  0  0  0
  9 10  2  0  0  0  0
M  END
>  <CHROM.1>
11.48626926,11.17967202,7.11149963,-1.08905208,1.31849614,-1.98314524

>  <Name>
ligand

>  <RI>
0

>  <Rbt.Current_Directory>
/home/itssahil/PROJECTS/Mol_Feturizer/Test_systems_manuscript/rnas/4fe5

>  <Rbt.Executable>
rbdock ($Id: //depot/dev/client3/rdock/2013.1/src/exe/rbdock.cxx#4 $)

>  <Rbt.Library>
libRbt.so (2013.1, Build901 2013/11/27)

>  <Rbt.Parameter_File>
/export/apps/rDock/src/rDock_2013.1_src/data/scripts/dock_solv.prm

>  <Rbt.Receptor>
prm/pocket_docking_5.prm

>  <SCORE>
-17.5297

>  <SCORE.INTER>
-17.5297

>  <SCORE.INTER.CONST>
1

>  <SCORE.INTER.POLAR>
0

>  <SCORE.INTER.ROT>
0

>  <SCORE.INTER.SOLV>
3.85907

>  <SCORE.INTER.VDW>
-16.5728

>  <SCORE.INTER.norm>
-1.75297

>  <SCORE.INTRA>
0

>  <SCORE.INTRA.DIHEDRAL>
0

>  <SCORE.INTRA.DIHEDRAL.0>
0

>  <SCORE.INTRA.POLAR>
0

>  <SCORE.INTRA.POLAR.0>
0

>  <SCORE.INTRA.REPUL>
0

>  <SCORE.INTRA.REPUL.0>
0

>  <SCORE.INTRA.SOLV>
0

>  <SCORE.INTRA.SOLV.lig_0>
-4.28333

>  <SCORE.INTRA.VDW>
0

>  <SCORE.INTRA.VDW.0>
0

>  <SCORE.INTRA.norm>
0

>  <SCORE.RESTR>
0

>  <SCORE.RESTR.CAVITY>
0

>  <SCORE.RESTR.norm>
0

>  <SCORE.SYSTEM>
0

>  <SCORE.SYSTEM.CONST>
0

>  <SCORE.SYSTEM.DIHEDRAL>
0

>  <SCORE.SYSTEM.SOLV>
0

>  <SCORE.SYSTEM.norm>
0

>  <SCORE.heavy>
10

>  <SCORE.norm>
-1.75297

>  <RMSD>
2.419

$$$$
ligand
 OpenBabel02271912143D
libRbt.so/2013.1/901 2013/11/27
 10 11  0  0  0  0  0  0  0  0999 V2000
   11.7848   10.5227    8.9181 N   0  0  0  0  0  0  0  0  0  0  0  0
   11.9576    9.3587    8.2065 C   0  0  0  0  0  0  0  0  0  0  0  0
   11.8350    9.3155    6.8786 N   0  0  0  0  0  0  0  0  0  0  0  0
   11.5269   10.5218    6.3227 C   0  0  0  0  0  0  0  0  0  0  0  0
   11.3393   11.7224    6.9789 C   0  0  0  0  0  0  0  0  0  0  0  0
   11.4697   11.7765    8.3937 C   0  0  0  0  0  0  0  0  0  0  0  0
   11.3491   12.7295    9.1730 O   0  0  0  0  0  0  0  0  0  0  0  0
   11.0455   12.6814    6.0508 N   0  0  0  0  0  0  0  0  0  0  0  0
   11.0571   12.0710    4.8432 C   0  0  0  0  0  0  0  0  0  0  0  0
   11.3514   10.7312    4.9778 N   0  0  0  0  0  0  0  0  0  0  0  0
  1  2  1  0  0  0  0
  1  6  1  0  0  0  0
  2  3  2  0  0  0  0
  3  4  1  0  0  0  0
  4  5  2  0  0  0  0
  4 10  1  0  0  0  0
  5  6  1  0  0  0  0
  5  8  1  0  0  0  0
  6  7  2  0  0  0  0
  8  9  1  0  0  0  0
  9 10  2  0  0  0  0
M  END
>  <CHROM.1>
11.46988842,11.17102085,7.11545349,-1.05920369,1.34294795,-2.01324387

>  <Name>
ligand

>  <RI>
0

>  <Rbt.Current_Directory>
/home/itssahil/PROJECTS/Mol_Feturizer/Test_systems_manuscript/rnas/4fe5

>  <Rbt.Executable>
rbdock ($Id: //depot/dev/client3/rdock/2013.1/src/exe/rbdock.cxx#4 $)

>  <Rbt.Library>
libRbt.so (2013.1, Build901 2013/11/27)

>  <Rbt.Parameter_File>
/export/apps/rDock/src/rDock_2013.1_src/data/scripts/dock_solv.prm

>  <Rbt.Receptor>
prm/pocket_docking_5.prm

>  <SCORE>
-17.47

>  <SCORE.INTER>
-17.47

>  <SCORE.INTER.CONST>
1

>  <SCORE.INTER.POLAR>
0

>  <SCORE.INTER.ROT>
0

>  <SCORE.INTER.SOLV>
3.89651

>  <SCORE.INTER.VDW>
-16.5455

>  <SCORE.INTER.norm>
-1.747

>  <SCORE.INTRA>
0

>  <SCORE.INTRA.DIHEDRAL>
0

>  <SCORE.INTRA.DIHEDRAL.0>
0

>  <SCORE.INTRA.POLAR>
0

>  <SCORE.INTRA.POLAR.0>
0

>  <SCORE.INTRA.REPUL>
0

>  <SCORE.INTRA.REPUL.0>
0

>  <SCORE.INTRA.SOLV>
0

>  <SCORE.INTRA.SOLV.lig_0>
-4.28333

>  <SCORE.INTRA.VDW>
0

>  <SCORE.INTRA.VDW.0>
0

>  <SCORE.INTRA.norm>
0

>  <SCORE.RESTR>
0

>  <SCORE.RESTR.CAVITY>
0

>  <SCORE.RESTR.norm>
0

>  <SCORE.SYSTEM>
0

>  <SCORE.SYSTEM.CONST>
0

>  <SCORE.SYSTEM.DIHEDRAL>
0

>  <SCORE.SYSTEM.SOLV>
0

>  <SCORE.SYSTEM.norm>
0

>  <SCORE.heavy>
10

>  <SCORE.norm>
-1.747

>  <RMSD>
2.419

$$$$
ligand
 OpenBabel02271912143D
libRbt.so/2013.1/901 2013/11/27
 10 11  0  0  0  0  0  0  0  0999 V2000
   11.8339   10.5787    8.9062 N   0  0  0  0  0  0  0  0  0  0  0  0
   12.0172    9.4075    8.2093 C   0  0  0  0  0  0  0  0  0  0  0  0
   11.8823    9.3438    6.8834 N   0  0  0  0  0  0  0  0  0  0  0  0
   11.5506   10.5373    6.3139 C   0  0  0  0  0  0  0  0  0  0  0  0
   11.3514   11.7441    6.9551 C   0  0  0  0  0  0  0  0  0  0  0  0
   11.4948   11.8202    8.3676 C   0  0  0  0  0  0  0  0  0  0  0  0
   11.3674   12.7821    9.1346 O   0  0  0  0  0  0  0  0  0  0  0  0
   11.0341   12.6855    6.0167 N   0  0  0  0  0  0  0  0  0  0  0  0
   11.0430   12.0583    4.8176 C   0  0  0  0  0  0  0  0  0  0  0  0
   11.3588   10.7251    4.9680 N   0  0  0  0  0  0  0  0  0  0  0  0
  1  2  1  0  0  0  0
  1  6  1  0  0  0  0
  2  3  2  0  0  0  0
  3  4  1  0  0  0  0
  4  5  2  0  0  0  0
  4 10  1  0  0  0  0
  5  6  1  0  0  0  0
  5  8  1  0  0  0  0
  6  7  2  0  0  0  0
  8  9  1  0  0  0  0
  9 10  2  0  0  0  0
M  END
>  <CHROM.1>
11.49158999,11.19675674,7.09798027,-1.04937343,1.32511958,-2.03683499

>  <Name>
ligand

>  <RI>
0

>  <Rbt.Current_Directory>
/home/itssahil/PROJECTS/Mol_Feturizer/Test_systems_manuscript/rnas/4fe5

>  <Rbt.Executable>
rbdock ($Id: //depot/dev/client3/rdock/2013.1/src/exe/rbdock.cxx#4 $)

>  <Rbt.Library>
libRbt.so (2013.1, Build901 2013/11/27)

>  <Rbt.Parameter_File>
/export/apps/rDock/src/rDock_2013.1_src/data/scripts/dock_solv.prm

>  <Rbt.Receptor>
prm/pocket_docking_6.prm

>  <SCORE>
-17.5568

>  <SCORE.INTER>
-17.5568

>  <SCORE.INTER.CONST>
1

>  <SCORE.INTER.POLAR>
0

>  <SCORE.INTER.ROT>
0

>  <SCORE.INTER.SOLV>
3.89918

>  <SCORE.INTER.VDW>
-16.6042

>  <SCORE.INTER.norm>
-1.75568

>  <SCORE.INTRA>
0

>  <SCORE.INTRA.DIHEDRAL>
0

>  <SCORE.INTRA.DIHEDRAL.0>
0

>  <SCORE.INTRA.POLAR>
0

>  <SCORE.INTRA.POLAR.0>
0

>  <SCORE.INTRA.REPUL>
0

>  <SCORE.INTRA.REPUL.0>
0

>  <SCORE.INTRA.SOLV>
0

>  <SCORE.INTRA.SOLV.lig_0>
-4.28333

>  <SCORE.INTRA.VDW>
0

>  <SCORE.INTRA.VDW.0>
0

>  <SCORE.INTRA.norm>
0

>  <SCORE.RESTR>
0

>  <SCORE.RESTR.CAVITY>
0

>  <SCORE.RESTR.norm>
0

>  <SCORE.SYSTEM>
0

>  <SCORE.SYSTEM.CONST>
0

>  <SCORE.SYSTEM.DIHEDRAL>
0

>  <SCORE.SYSTEM.SOLV>
0

>  <SCORE.SYSTEM.norm>
0

>  <SCORE.heavy>
10

>  <SCORE.norm>
-1.75568

>  <RMSD>
2.419

$$$$
ligand
 OpenBabel02271912143D
libRbt.so/2013.1/901 2013/11/27
 10 11  0  0  0  0  0  0  0  0999 V2000
   11.8125   10.5812    8.8984 N   0  0  0  0  0  0  0  0  0  0  0  0
   11.9754    9.4058    8.2035 C   0  0  0  0  0  0  0  0  0  0  0  0
   11.8425    9.3426    6.8774 N   0  0  0  0  0  0  0  0  0  0  0  0
   11.5348   10.5414    6.3054 C   0  0  0  0  0  0  0  0  0  0  0  0
   11.3568   11.7526    6.9444 C   0  0  0  0  0  0  0  0  0  0  0  0
   11.4982   11.8280    8.3571 C   0  0  0  0  0  0  0  0  0  0  0  0
   11.3871   12.7934    9.1225 O   0  0  0  0  0  0  0  0  0  0  0  0
   11.0596   12.6985    6.0039 N   0  0  0  0  0  0  0  0  0  0  0  0
   11.0596   12.0695    4.8057 C   0  0  0  0  0  0  0  0  0  0  0  0
   11.3498   10.7309    4.9588 N   0  0  0  0  0  0  0  0  0  0  0  0
  1  2  1  0  0  0  0
  1  6  1  0  0  0  0
  2  3  2  0  0  0  0
  3  4  1  0  0  0  0
  4  5  2  0  0  0  0
  4 10  1  0  0  0  0
  5  6  1  0  0  0  0
  5  8  1  0  0  0  0
  6  7  2  0  0  0  0
  8  9  1  0  0  0  0
  9 10  2  0  0  0  0
M  END
>  <CHROM.1>
11.48631362,11.20296905,7.08840888,-1.02147602,1.34297276,-2.06537730

>  <Name>
ligand

>  <RI>
0

>  <Rbt.Current_Directory>
/home/itssahil/PROJECTS/Mol_Feturizer/Test_systems_manuscript/rnas/4fe5

>  <Rbt.Executable>
rbdock ($Id: //depot/dev/client3/rdock/2013.1/src/exe/rbdock.cxx#4 $)

>  <Rbt.Library>
libRbt.so (2013.1, Build901 2013/11/27)

>  <Rbt.Parameter_File>
/export/apps/rDock/src/rDock_2013.1_src/data/scripts/dock_solv.prm

>  <Rbt.Receptor>
prm/pocket_docking_6.prm

>  <SCORE>
-17.5052

>  <SCORE.INTER>
-17.5052

>  <SCORE.INTER.CONST>
1

>  <SCORE.INTER.POLAR>
0

>  <SCORE.INTER.ROT>
0

>  <SCORE.INTER.SOLV>
3.93213

>  <SCORE.INTER.VDW>
-16.5808

>  <SCORE.INTER.norm>
-1.75052

>  <SCORE.INTRA>
0

>  <SCORE.INTRA.DIHEDRAL>
0

>  <SCORE.INTRA.DIHEDRAL.0>
0

>  <SCORE.INTRA.POLAR>
0

>  <SCORE.INTRA.POLAR.0>
0

>  <SCORE.INTRA.REPUL>
0

>  <SCORE.INTRA.REPUL.0>
0

>  <SCORE.INTRA.SOLV>
0

>  <SCORE.INTRA.SOLV.lig_0>
-4.28333

>  <SCORE.INTRA.VDW>
0

>  <SCORE.INTRA.VDW.0>
0

>  <SCORE.INTRA.norm>
0

>  <SCORE.RESTR>
0

>  <SCORE.RESTR.CAVITY>
0

>  <SCORE.RESTR.norm>
0

>  <SCORE.SYSTEM>
0

>  <SCORE.SYSTEM.CONST>
0

>  <SCORE.SYSTEM.DIHEDRAL>
0

>  <SCORE.SYSTEM.SOLV>
0

>  <SCORE.SYSTEM.norm>
0

>  <SCORE.heavy>
10

>  <SCORE.norm>
-1.75052

>  <RMSD>
2.419

$$$$
ligand
 OpenBabel02271912143D
libRbt.so/2013.1/901 2013/11/27
 10 11  0  0  0  0  0  0  0  0999 V2000
   11.8261   10.5484    8.9131 N   0  0  0  0  0  0  0  0  0  0  0  0
   12.0275    9.3879    8.2036 C   0  0  0  0  0  0  0  0  0  0  0  0
   11.9031    9.3386    6.8760 N   0  0  0  0  0  0  0  0  0  0  0  0
   11.5625   10.5353    6.3184 C   0  0  0  0  0  0  0  0  0  0  0  0
   11.3453   11.7320    6.9725 C   0  0  0  0  0  0  0  0  0  0  0  0
   11.4774   11.7925    8.3868 C   0  0  0  0  0  0  0  0  0  0  0  0
   11.3338   12.7438    9.1644 O   0  0  0  0  0  0  0  0  0  0  0  0
   11.0246   12.6811    6.0431 N   0  0  0  0  0  0  0  0  0  0  0  0
   11.0493   12.0686    4.8367 C   0  0  0  0  0  0  0  0  0  0  0  0
   11.3786   10.7372    4.9734 N   0  0  0  0  0  0  0  0  0  0  0  0
  1  2  1  0  0  0  0
  1  6  1  0  0  0  0
  2  3  2  0  0  0  0
  3  4  1  0  0  0  0
  4  5  2  0  0  0  0
  4 10  1  0  0  0  0
  5  6  1  0  0  0  0
  5  8  1  0  0  0  0
  6  7  2  0  0  0  0
  8  9  1  0  0  0  0
  9 10  2  0  0  0  0
M  END
>  <CHROM.1>
11.49045868,11.18452156,7.10988313,-1.09565669,1.31835892,-1.97994479

>  <Name>
ligand

>  <RI>
0

>  <Rbt.Current_Directory>
/home/itssahil/PROJECTS/Mol_Feturizer/Test_systems_manuscript/rnas/4fe5

>  <Rbt.Executable>
rbdock ($Id: //depot/dev/client3/rdock/2013.1/src/exe/rbdock.cxx#4 $)

>  <Rbt.Library>
libRbt.so (2013.1, Build901 2013/11/27)

>  <Rbt.Parameter_File>
/export/apps/rDock/src/rDock_2013.1_src/data/scripts/dock_solv.prm

>  <Rbt.Receptor>
prm/pocket_docking_7.prm

>  <SCORE>
-17.5299

>  <SCORE.INTER>
-17.5299

>  <SCORE.INTER.CONST>
1

>  <SCORE.INTER.POLAR>
0

>  <SCORE.INTER.ROT>
0

>  <SCORE.INTER.SOLV>
3.86555

>  <SCORE.INTER.VDW>
-16.5751

>  <SCORE.INTER.norm>
-1.75299

>  <SCORE.INTRA>
0

>  <SCORE.INTRA.DIHEDRAL>
0

>  <SCORE.INTRA.DIHEDRAL.0>
0

>  <SCORE.INTRA.POLAR>
0

>  <SCORE.INTRA.POLAR.0>
0

>  <SCORE.INTRA.REPUL>
0

>  <SCORE.INTRA.REPUL.0>
0

>  <SCORE.INTRA.SOLV>
0

>  <SCORE.INTRA.SOLV.lig_0>
-4.28333

>  <SCORE.INTRA.VDW>
0

>  <SCORE.INTRA.VDW.0>
0

>  <SCORE.INTRA.norm>
0

>  <SCORE.RESTR>
0

>  <SCORE.RESTR.CAVITY>
0

>  <SCORE.RESTR.norm>
0

>  <SCORE.SYSTEM>
0

>  <SCORE.SYSTEM.CONST>
0

>  <SCORE.SYSTEM.DIHEDRAL>
0

>  <SCORE.SYSTEM.SOLV>
0

>  <SCORE.SYSTEM.norm>
0

>  <SCORE.heavy>
10

>  <SCORE.norm>
-1.75299

>  <RMSD>
2.419

$$$$
ligand
 OpenBabel02271912143D
libRbt.so/2013.1/901 2013/11/27
 10 11  0  0  0  0  0  0  0  0999 V2000
   11.8125   10.5847    8.9000 N   0  0  0  0  0  0  0  0  0  0  0  0
   11.9701    9.4089    8.2046 C   0  0  0  0  0  0  0  0  0  0  0  0
   11.8368    9.3469    6.8784 N   0  0  0  0  0  0  0  0  0  0  0  0
   11.5343   10.5473    6.3070 C   0  0  0  0  0  0  0  0  0  0  0  0
   11.3618   11.7591    6.9466 C   0  0  0  0  0  0  0  0  0  0  0  0
   11.5037   11.8332    8.3593 C   0  0  0  0  0  0  0  0  0  0  0  0
   11.3971   12.7987    9.1252 O   0  0  0  0  0  0  0  0  0  0  0  0
   11.0687   12.7067    6.0065 N   0  0  0  0  0  0  0  0  0  0  0  0
   11.0658   12.0782    4.8081 C   0  0  0  0  0  0  0  0  0  0  0  0
   11.3501   10.7382    4.9605 N   0  0  0  0  0  0  0  0  0  0  0  0
  1  2  1  0  0  0  0
  1  6  1  0  0  0  0
  2  3  2  0  0  0  0
  3  4  1  0  0  0  0
  4  5  2  0  0  0  0
  4 10  1  0  0  0  0
  5  6  1  0  0  0  0
  5  8  1  0  0  0  0
  6  7  2  0  0  0  0
  8  9  1  0  0  0  0
  9 10  2  0  0  0  0
M  END
>  <CHROM.1>
11.48891423,11.20874310,7.09035428,-1.01148431,1.34683659,-2.07467966

>  <Name>
ligand

>  <RI>
0

>  <Rbt.Current_Directory>
/home/itssahil/PROJECTS/Mol_Feturizer/Test_systems_manuscript/rnas/4fe5

>  <Rbt.Executable>
rbdock ($Id: //depot/dev/client3/rdock/2013.1/src/exe/rbdock.cxx#4 $)

>  <Rbt.Library>
libRbt.so (2013.1, Build901 2013/11/27)

>  <Rbt.Parameter_File>
/export/apps/rDock/src/rDock_2013.1_src/data/scripts/dock_solv.prm

>  <Rbt.Receptor>
prm/pocket_docking_7.prm

>  <SCORE>
-17.5046

>  <SCORE.INTER>
-17.5046

>  <SCORE.INTER.CONST>
1

>  <SCORE.INTER.POLAR>
0

>  <SCORE.INTER.ROT>
0

>  <SCORE.INTER.SOLV>
3.94074

>  <SCORE.INTER.VDW>
-16.5833

>  <SCORE.INTER.norm>
-1.75046

>  <SCORE.INTRA>
0

>  <SCORE.INTRA.DIHEDRAL>
0

>  <SCORE.INTRA.DIHEDRAL.0>
0

>  <SCORE.INTRA.POLAR>
0

>  <SCORE.INTRA.POLAR.0>
0

>  <SCORE.INTRA.REPUL>
0

>  <SCORE.INTRA.REPUL.0>
0

>  <SCORE.INTRA.SOLV>
0

>  <SCORE.INTRA.SOLV.lig_0>
-4.28333

>  <SCORE.INTRA.VDW>
0

>  <SCORE.INTRA.VDW.0>
0

>  <SCORE.INTRA.norm>
0

>  <SCORE.RESTR>
0

>  <SCORE.RESTR.CAVITY>
0

>  <SCORE.RESTR.norm>
0

>  <SCORE.SYSTEM>
0

>  <SCORE.SYSTEM.CONST>
0

>  <SCORE.SYSTEM.DIHEDRAL>
0

>  <SCORE.SYSTEM.SOLV>
0

>  <SCORE.SYSTEM.norm>
0

>  <SCORE.heavy>
10

>  <SCORE.norm>
-1.75046

>  <RMSD>
2.419

$$$$
ligand
 OpenBabel02271912143D
libRbt.so/2013.1/901 2013/11/27
 10 11  0  0  0  0  0  0  0  0999 V2000
   11.8337   10.5756    8.9021 N   0  0  0  0  0  0  0  0  0  0  0  0
   12.0202    9.4070    8.2018 C   0  0  0  0  0  0  0  0  0  0  0  0
   11.8872    9.3471    6.8755 N   0  0  0  0  0  0  0  0  0  0  0  0
   11.5540   10.5417    6.3092 C   0  0  0  0  0  0  0  0  0  0  0  0
   11.3516   11.7461    6.9539 C   0  0  0  0  0  0  0  0  0  0  0  0
   11.4929   11.8181    8.3668 C   0  0  0  0  0  0  0  0  0  0  0  0
   11.3627   12.7775    9.1366 O   0  0  0  0  0  0  0  0  0  0  0  0
   11.0337   12.6898    6.0179 N   0  0  0  0  0  0  0  0  0  0  0  0
   11.0455   12.0663    4.8170 C   0  0  0  0  0  0  0  0  0  0  0  0
   11.3636   10.7333    4.9637 N   0  0  0  0  0  0  0  0  0  0  0  0
  1  2  1  0  0  0  0
  1  6  1  0  0  0  0
  2  3  2  0  0  0  0
  3  4  1  0  0  0  0
  4  5  2  0  0  0  0
  4 10  1  0  0  0  0
  5  6  1  0  0  0  0
  5  8  1  0  0  0  0
  6  7  2  0  0  0  0
  8  9  1  0  0  0  0
  9 10  2  0  0  0  0
M  END
>  <CHROM.1>
11.49265079,11.19862572,7.09528743,-1.05783449,1.32398848,-2.02554350

>  <Name>
ligand

>  <RI>
0

>  <Rbt.Current_Directory>
/home/itssahil/PROJECTS/Mol_Feturizer/Test_systems_manuscript/rnas/4fe5

>  <Rbt.Executable>
rbdock ($Id: //depot/dev/client3/rdock/2013.1/src/exe/rbdock.cxx#4 $)

>  <Rbt.Library>
libRbt.so (2013.1, Build901 2013/11/27)

>  <Rbt.Parameter_File>
/export/apps/rDock/src/rDock_2013.1_src/data/scripts/dock_solv.prm

>  <Rbt.Receptor>
prm/pocket_docking_7.prm

>  <SCORE>
-17.5205

>  <SCORE.INTER>
-17.5205

>  <SCORE.INTER.CONST>
1

>  <SCORE.INTER.POLAR>
0

>  <SCORE.INTER.ROT>
0

>  <SCORE.INTER.SOLV>
3.89209

>  <SCORE.INTER.VDW>
-16.5777

>  <SCORE.INTER.norm>
-1.75205

>  <SCORE.INTRA>
0

>  <SCORE.INTRA.DIHEDRAL>
0

>  <SCORE.INTRA.DIHEDRAL.0>
0

>  <SCORE.INTRA.POLAR>
0

>  <SCORE.INTRA.POLAR.0>
0

>  <SCORE.INTRA.REPUL>
0

>  <SCORE.INTRA.REPUL.0>
0

>  <SCORE.INTRA.SOLV>
0

>  <SCORE.INTRA.SOLV.lig_0>
-4.28333

>  <SCORE.INTRA.VDW>
0

>  <SCORE.INTRA.VDW.0>
0

>  <SCORE.INTRA.norm>
0

>  <SCORE.RESTR>
0

>  <SCORE.RESTR.CAVITY>
0

>  <SCORE.RESTR.norm>
0

>  <SCORE.SYSTEM>
0

>  <SCORE.SYSTEM.CONST>
0

>  <SCORE.SYSTEM.DIHEDRAL>
0

>  <SCORE.SYSTEM.SOLV>
0

>  <SCORE.SYSTEM.norm>
0

>  <SCORE.heavy>
10

>  <SCORE.norm>
-1.75205

>  <RMSD>
2.419

$$$$
ligand
 OpenBabel02271912143D
libRbt.so/2013.1/901 2013/11/27
 10 11  0  0  0  0  0  0  0  0999 V2000
   11.8079   10.5639    8.8869 N   0  0  0  0  0  0  0  0  0  0  0  0
   11.9714    9.3987    8.1751 C   0  0  0  0  0  0  0  0  0  0  0  0
   11.8391    9.3548    6.8482 N   0  0  0  0  0  0  0  0  0  0  0  0
   11.5315   10.5617    6.2935 C   0  0  0  0  0  0  0  0  0  0  0  0
   11.3530   11.7635    6.9499 C   0  0  0  0  0  0  0  0  0  0  0  0
   11.4937   11.8184    8.3636 C   0  0  0  0  0  0  0  0  0  0  0  0
   11.3822   12.7726    9.1429 O   0  0  0  0  0  0  0  0  0  0  0  0
   11.0561   12.7228    6.0230 N   0  0  0  0  0  0  0  0  0  0  0  0
   11.0569   12.1112    4.8159 C   0  0  0  0  0  0  0  0  0  0  0  0
   11.3472   10.7706    4.9496 N   0  0  0  0  0  0  0  0  0  0  0  0
  1  2  1  0  0  0  0
  1  6  1  0  0  0  0
  2  3  2  0  0  0  0
  3  4  1  0  0  0  0
  4  5  2  0  0  0  0
  4 10  1  0  0  0  0
  5  6  1  0  0  0  0
  5  8  1  0  0  0  0
  6  7  2  0  0  0  0
  8  9  1  0  0  0  0
  9 10  2  0  0  0  0
M  END
>  <CHROM.1>
11.48255961,11.21180550,7.08597725,-1.02367697,1.34307600,-2.04875062

>  <Name>
ligand

>  <RI>
0

>  <Rbt.Current_Directory>
/home/itssahil/PROJECTS/Mol_Feturizer/Test_systems_manuscript/rnas/4fe5

>  <Rbt.Executable>
rbdock ($Id: //depot/dev/client3/rdock/2013.1/src/exe/rbdock.cxx#4 $)

>  <Rbt.Library>
libRbt.so (2013.1, Build901 2013/11/27)

>  <Rbt.Parameter_File>
/export/apps/rDock/src/rDock_2013.1_src/data/scripts/dock_solv.prm

>  <Rbt.Receptor>
prm/pocket_docking_8.prm

>  <SCORE>
-17.5036

>  <SCORE.INTER>
-17.5036

>  <SCORE.INTER.CONST>
1

>  <SCORE.INTER.POLAR>
0

>  <SCORE.INTER.ROT>
0

>  <SCORE.INTER.SOLV>
3.9101

>  <SCORE.INTER.VDW>
-16.5724

>  <SCORE.INTER.norm>
-1.75036

>  <SCORE.INTRA>
0

>  <SCORE.INTRA.DIHEDRAL>
0

>  <SCORE.INTRA.DIHEDRAL.0>
0

>  <SCORE.INTRA.POLAR>
0

>  <SCORE.INTRA.POLAR.0>
0

>  <SCORE.INTRA.REPUL>
0

>  <SCORE.INTRA.REPUL.0>
0

>  <SCORE.INTRA.SOLV>
0

>  <SCORE.INTRA.SOLV.lig_0>
-4.28333

>  <SCORE.INTRA.VDW>
0

>  <SCORE.INTRA.VDW.0>
0

>  <SCORE.INTRA.norm>
0

>  <SCORE.RESTR>
0

>  <SCORE.RESTR.CAVITY>
0

>  <SCORE.RESTR.norm>
0

>  <SCORE.SYSTEM>
0

>  <SCORE.SYSTEM.CONST>
0

>  <SCORE.SYSTEM.DIHEDRAL>
0

>  <SCORE.SYSTEM.SOLV>
0

>  <SCORE.SYSTEM.norm>
0

>  <SCORE.heavy>
10

>  <SCORE.norm>
-1.75036

>  <RMSD>
2.419

$$$$
ligand
 OpenBabel02271912143D
libRbt.so/2013.1/901 2013/11/27
 10 11  0  0  0  0  0  0  0  0999 V2000
   11.8117   10.5856    8.8963 N   0  0  0  0  0  0  0  0  0  0  0  0
   11.9821    9.4108    8.2023 C   0  0  0  0  0  0  0  0  0  0  0  0
   11.8525    9.3465    6.8759 N   0  0  0  0  0  0  0  0  0  0  0  0
   11.5400   10.5434    6.3027 C   0  0  0  0  0  0  0  0  0  0  0  0
   11.3544   11.7540    6.9408 C   0  0  0  0  0  0  0  0  0  0  0  0
   11.4923   11.8307    8.3538 C   0  0  0  0  0  0  0  0  0  0  0  0
   11.3747   12.7957    9.1186 O   0  0  0  0  0  0  0  0  0  0  0  0
   11.0545   12.6980    5.9993 N   0  0  0  0  0  0  0  0  0  0  0  0
   11.0604   12.0685    4.8014 C   0  0  0  0  0  0  0  0  0  0  0  0
   11.3570   10.7314    4.9556 N   0  0  0  0  0  0  0  0  0  0  0  0
  1  2  1  0  0  0  0
  1  6  1  0  0  0  0
  2  3  2  0  0  0  0
  3  4  1  0  0  0  0
  4  5  2  0  0  0  0
  4 10  1  0  0  0  0
  5  6  1  0  0  0  0
  5  8  1  0  0  0  0
  6  7  2  0  0  0  0
  8  9  1  0  0  0  0
  9 10  2  0  0  0  0
M  END
>  <CHROM.1>
11.48640244,11.20505075,7.08536362,-1.04044886,1.33953927,-2.04730850

>  <Name>
ligand

>  <RI>
0

>  <Rbt.Current_Directory>
/home/itssahil/PROJECTS/Mol_Feturizer/Test_systems_manuscript/rnas/4fe5

>  <Rbt.Executable>
rbdock ($Id: //depot/dev/client3/rdock/2013.1/src/exe/rbdock.cxx#4 $)

>  <Rbt.Library>
libRbt.so (2013.1, Build901 2013/11/27)

>  <Rbt.Parameter_File>
/export/apps/rDock/src/rDock_2013.1_src/data/scripts/dock_solv.prm

>  <Rbt.Receptor>
prm/blind_docking_100.prm

>  <SCORE>
-17.5039

>  <SCORE.INTER>
-17.5039

>  <SCORE.INTER.CONST>
1

>  <SCORE.INTER.POLAR>
0

>  <SCORE.INTER.ROT>
0

>  <SCORE.INTER.SOLV>
3.93036

>  <SCORE.INTER.VDW>
-16.5794

>  <SCORE.INTER.norm>
-1.75039

>  <SCORE.INTRA>
0

>  <SCORE.INTRA.DIHEDRAL>
0

>  <SCORE.INTRA.DIHEDRAL.0>
0

>  <SCORE.INTRA.POLAR>
0

>  <SCORE.INTRA.POLAR.0>
0

>  <SCORE.INTRA.REPUL>
0

>  <SCORE.INTRA.REPUL.0>
0

>  <SCORE.INTRA.SOLV>
0

>  <SCORE.INTRA.SOLV.lig_0>
-4.28333

>  <SCORE.INTRA.VDW>
0

>  <SCORE.INTRA.VDW.0>
0

>  <SCORE.INTRA.norm>
0

>  <SCORE.RESTR>
0

>  <SCORE.RESTR.CAVITY>
0

>  <SCORE.RESTR.norm>
0

>  <SCORE.SYSTEM>
0

>  <SCORE.SYSTEM.CONST>
0

>  <SCORE.SYSTEM.DIHEDRAL>
0

>  <SCORE.SYSTEM.SOLV>
0

>  <SCORE.SYSTEM.norm>
0

>  <SCORE.heavy>
10

>  <SCORE.norm>
-1.75039

>  <RMSD>
2.420

$$$$
ligand
 OpenBabel02271912143D
libRbt.so/2013.1/901 2013/11/27
 10 11  0  0  0  0  0  0  0  0999 V2000
   11.8097   10.5888    8.8979 N   0  0  0  0  0  0  0  0  0  0  0  0
   11.9808    9.4144    8.2032 C   0  0  0  0  0  0  0  0  0  0  0  0
   11.8522    9.3509    6.8767 N   0  0  0  0  0  0  0  0  0  0  0  0
   11.5398   10.5481    6.3041 C   0  0  0  0  0  0  0  0  0  0  0  0
   11.3536   11.7583    6.9428 C   0  0  0  0  0  0  0  0  0  0  0  0
   11.4904   11.8341    8.3559 C   0  0  0  0  0  0  0  0  0  0  0  0
   11.3721   12.7987    9.1212 O   0  0  0  0  0  0  0  0  0  0  0  0
   11.0542   12.7027    6.0016 N   0  0  0  0  0  0  0  0  0  0  0  0
   11.0611   12.0740    4.8033 C   0  0  0  0  0  0  0  0  0  0  0  0
   11.3578   10.7369    4.9569 N   0  0  0  0  0  0  0  0  0  0  0  0
  1  2  1  0  0  0  0
  1  6  1  0  0  0  0
  2  3  2  0  0  0  0
  3  4  1  0  0  0  0
  4  5  2  0  0  0  0
  4 10  1  0  0  0  0
  5  6  1  0  0  0  0
  5  8  1  0  0  0  0
  6  7  2  0  0  0  0
  8  9  1  0  0  0  0
  9 10  2  0  0  0  0
M  END
>  <CHROM.1>
11.48558736,11.20924043,7.08707155,-1.04365962,1.33970079,-2.04358064

>  <Name>
ligand

>  <RI>
0

>  <Rbt.Current_Directory>
/home/itssahil/PROJECTS/Mol_Feturizer/Test_systems_manuscript/rnas/4fe5

>  <Rbt.Executable>
rbdock ($Id: //depot/dev/client3/rdock/2013.1/src/exe/rbdock.cxx#4 $)

>  <Rbt.Library>
libRbt.so (2013.1, Build901 2013/11/27)

>  <Rbt.Parameter_File>
/export/apps/rDock/src/rDock_2013.1_src/data/scripts/dock_solv.prm

>  <Rbt.Receptor>
prm/blind_docking_100.prm

>  <SCORE>
-17.5016

>  <SCORE.INTER>
-17.5016

>  <SCORE.INTER.CONST>
1

>  <SCORE.INTER.POLAR>
0

>  <SCORE.INTER.ROT>
0

>  <SCORE.INTER.SOLV>
3.93351

>  <SCORE.INTER.VDW>
-16.5789

>  <SCORE.INTER.norm>
-1.75016

>  <SCORE.INTRA>
0

>  <SCORE.INTRA.DIHEDRAL>
0

>  <SCORE.INTRA.DIHEDRAL.0>
0

>  <SCORE.INTRA.POLAR>
0

>  <SCORE.INTRA.POLAR.0>
0

>  <SCORE.INTRA.REPUL>
0

>  <SCORE.INTRA.REPUL.0>
0

>  <SCORE.INTRA.SOLV>
0

>  <SCORE.INTRA.SOLV.lig_0>
-4.28333

>  <SCORE.INTRA.VDW>
0

>  <SCORE.INTRA.VDW.0>
0

>  <SCORE.INTRA.norm>
0

>  <SCORE.RESTR>
0

>  <SCORE.RESTR.CAVITY>
0

>  <SCORE.RESTR.norm>
0

>  <SCORE.SYSTEM>
0

>  <SCORE.SYSTEM.CONST>
0

>  <SCORE.SYSTEM.DIHEDRAL>
0

>  <SCORE.SYSTEM.SOLV>
0

>  <SCORE.SYSTEM.norm>
0

>  <SCORE.heavy>
10

>  <SCORE.norm>
-1.75016

>  <RMSD>
2.420

$$$$
ligand
 OpenBabel02271912143D
libRbt.so/2013.1/901 2013/11/27
 10 11  0  0  0  0  0  0  0  0999 V2000
   11.8111   10.5720    8.9030 N   0  0  0  0  0  0  0  0  0  0  0  0
   11.9903    9.3986    8.2088 C   0  0  0  0  0  0  0  0  0  0  0  0
   11.8606    9.3333    6.8825 N   0  0  0  0  0  0  0  0  0  0  0  0
   11.5385   10.5278    6.3095 C   0  0  0  0  0  0  0  0  0  0  0  0
   11.3438   11.7369    6.9478 C   0  0  0  0  0  0  0  0  0  0  0  0
   11.4818   11.8146    8.3608 C   0  0  0  0  0  0  0  0  0  0  0  0
   11.3570   12.7786    9.1256 O   0  0  0  0  0  0  0  0  0  0  0  0
   11.0362   12.6785    6.0064 N   0  0  0  0  0  0  0  0  0  0  0  0
   11.0464   12.0492    4.8085 C   0  0  0  0  0  0  0  0  0  0  0  0
   11.3535   10.7144    4.9625 N   0  0  0  0  0  0  0  0  0  0  0  0
  1  2  1  0  0  0  0
  1  6  1  0  0  0  0
  2  3  2  0  0  0  0
  3  4  1  0  0  0  0
  4  5  2  0  0  0  0
  4 10  1  0  0  0  0
  5  6  1  0  0  0  0
  5  8  1  0  0  0  0
  6  7  2  0  0  0  0
  8  9  1  0  0  0  0
  9 10  2  0  0  0  0
M  END
>  <CHROM.1>
11.48016685,11.18896148,7.09225752,-1.05380647,1.33239340,-2.03427163

>  <Name>
ligand

>  <RI>
0

>  <Rbt.Current_Directory>
/home/itssahil/PROJECTS/Mol_Feturizer/Test_systems_manuscript/rnas/4fe5

>  <Rbt.Executable>
rbdock ($Id: //depot/dev/client3/rdock/2013.1/src/exe/rbdock.cxx#4 $)

>  <Rbt.Library>
libRbt.so (2013.1, Build901 2013/11/27)

>  <Rbt.Parameter_File>
/export/apps/rDock/src/rDock_2013.1_src/data/scripts/dock_solv.prm

>  <Rbt.Receptor>
prm/blind_docking_40.prm

>  <SCORE>
-17.4893

>  <SCORE.INTER>
-17.4893

>  <SCORE.INTER.CONST>
1

>  <SCORE.INTER.POLAR>
0

>  <SCORE.INTER.ROT>
0

>  <SCORE.INTER.SOLV>
3.91332

>  <SCORE.INTER.VDW>
-16.564

>  <SCORE.INTER.norm>
-1.74893

>  <SCORE.INTRA>
0

>  <SCORE.INTRA.DIHEDRAL>
0

>  <SCORE.INTRA.DIHEDRAL.0>
0

>  <SCORE.INTRA.POLAR>
0

>  <SCORE.INTRA.POLAR.0>
0

>  <SCORE.INTRA.REPUL>
0

>  <SCORE.INTRA.REPUL.0>
0

>  <SCORE.INTRA.SOLV>
0

>  <SCORE.INTRA.SOLV.lig_0>
-4.28333

>  <SCORE.INTRA.VDW>
0

>  <SCORE.INTRA.VDW.0>
0

>  <SCORE.INTRA.norm>
0

>  <SCORE.RESTR>
0

>  <SCORE.RESTR.CAVITY>
0

>  <SCORE.RESTR.norm>
0

>  <SCORE.SYSTEM>
0

>  <SCORE.SYSTEM.CONST>
0

>  <SCORE.SYSTEM.DIHEDRAL>
0

>  <SCORE.SYSTEM.SOLV>
0

>  <SCORE.SYSTEM.norm>
0

>  <SCORE.heavy>
10

>  <SCORE.norm>
-1.74893

>  <RMSD>
2.420

$$$$
ligand
 OpenBabel02271912143D
libRbt.so/2013.1/901 2013/11/27
 10 11  0  0  0  0  0  0  0  0999 V2000
   11.7727   10.5563    8.9267 N   0  0  0  0  0  0  0  0  0  0  0  0
   11.9365    9.3822    8.2299 C   0  0  0  0  0  0  0  0  0  0  0  0
   11.8135    9.3231    6.9026 N   0  0  0  0  0  0  0  0  0  0  0  0
   11.5145   10.5245    6.3315 C   0  0  0  0  0  0  0  0  0  0  0  0
   11.3362   11.7347    6.9725 C   0  0  0  0  0  0  0  0  0  0  0  0
   11.4671   11.8058    8.3864 C   0  0  0  0  0  0  0  0  0  0  0  0
   11.3538   12.7695    9.1536 O   0  0  0  0  0  0  0  0  0  0  0  0
   11.0496   12.6842    6.0323 N   0  0  0  0  0  0  0  0  0  0  0  0
   11.0564   12.0584    4.8324 C   0  0  0  0  0  0  0  0  0  0  0  0
   11.3405   10.7183    4.9841 N   0  0  0  0  0  0  0  0  0  0  0  0
  1  2  1  0  0  0  0
  1  6  1  0  0  0  0
  2  3  2  0  0  0  0
  3  4  1  0  0  0  0
  4  5  2  0  0  0  0
  4 10  1  0  0  0  0
  5  6  1  0  0  0  0
  5  8  1  0  0  0  0
  6  7  2  0  0  0  0
  8  9  1  0  0  0  0
  9 10  2  0  0  0  0
M  END
>  <CHROM.1>
11.46256480,11.18417835,7.11597495,-1.04390142,1.34976884,-2.04083947

>  <Name>
ligand

>  <RI>
0

>  <Rbt.Current_Directory>
/home/itssahil/PROJECTS/Mol_Feturizer/Test_systems_manuscript/rnas/4fe5

>  <Rbt.Executable>
rbdock ($Id: //depot/dev/client3/rdock/2013.1/src/exe/rbdock.cxx#4 $)

>  <Rbt.Library>
libRbt.so (2013.1, Build901 2013/11/27)

>  <Rbt.Parameter_File>
/export/apps/rDock/src/rDock_2013.1_src/data/scripts/dock_solv.prm

>  <Rbt.Receptor>
prm/blind_docking_40.prm

>  <SCORE>
-17.4589

>  <SCORE.INTER>
-17.4589

>  <SCORE.INTER.CONST>
1

>  <SCORE.INTER.POLAR>
0

>  <SCORE.INTER.ROT>
0

>  <SCORE.INTER.SOLV>
3.93736

>  <SCORE.INTER.VDW>
-16.5517

>  <SCORE.INTER.norm>
-1.74589

>  <SCORE.INTRA>
0

>  <SCORE.INTRA.DIHEDRAL>
0

>  <SCORE.INTRA.DIHEDRAL.0>
0

>  <SCORE.INTRA.POLAR>
0

>  <SCORE.INTRA.POLAR.0>
0

>  <SCORE.INTRA.REPUL>
0

>  <SCORE.INTRA.REPUL.0>
0

>  <SCORE.INTRA.SOLV>
0

>  <SCORE.INTRA.SOLV.lig_0>
-4.28333

>  <SCORE.INTRA.VDW>
0

>  <SCORE.INTRA.VDW.0>
0

>  <SCORE.INTRA.norm>
0

>  <SCORE.RESTR>
0

>  <SCORE.RESTR.CAVITY>
0

>  <SCORE.RESTR.norm>
0

>  <SCORE.SYSTEM>
0

>  <SCORE.SYSTEM.CONST>
0

>  <SCORE.SYSTEM.DIHEDRAL>
0

>  <SCORE.SYSTEM.SOLV>
0

>  <SCORE.SYSTEM.norm>
0

>  <SCORE.heavy>
10

>  <SCORE.norm>
-1.74589

>  <RMSD>
2.420

$$$$
ligand
 OpenBabel02271912143D
libRbt.so/2013.1/901 2013/11/27
 10 11  0  0  0  0  0  0  0  0999 V2000
   11.7981   10.5709    8.9148 N   0  0  0  0  0  0  0  0  0  0  0  0
   11.9809    9.3990    8.2190 C   0  0  0  0  0  0  0  0  0  0  0  0
   11.8569    9.3364    6.8919 N   0  0  0  0  0  0  0  0  0  0  0  0
   11.5367   10.5319    6.3201 C   0  0  0  0  0  0  0  0  0  0  0  0
   11.3387   11.7396    6.9600 C   0  0  0  0  0  0  0  0  0  0  0  0
   11.4705   11.8144    8.3737 C   0  0  0  0  0  0  0  0  0  0  0  0
   11.3420   12.7768    9.1400 O   0  0  0  0  0  0  0  0  0  0  0  0
   11.0346   12.6830    6.0193 N   0  0  0  0  0  0  0  0  0  0  0  0
   11.0503   12.0561    4.8201 C   0  0  0  0  0  0  0  0  0  0  0  0
   11.3574   10.7212    4.9727 N   0  0  0  0  0  0  0  0  0  0  0  0
  1  2  1  0  0  0  0
  1  6  1  0  0  0  0
  2  3  2  0  0  0  0
  3  4  1  0  0  0  0
  4  5  2  0  0  0  0
  4 10  1  0  0  0  0
  5  6  1  0  0  0  0
  5  8  1  0  0  0  0
  6  7  2  0  0  0  0
  8  9  1  0  0  0  0
  9 10  2  0  0  0  0
M  END
>  <CHROM.1>
11.47468154,11.19141819,7.10390257,-1.07115999,1.33383193,-2.01533582

>  <Name>
ligand

>  <RI>
0

>  <Rbt.Current_Directory>
/home/itssahil/PROJECTS/Mol_Feturizer/Test_systems_manuscript/rnas/4fe5

>  <Rbt.Executable>
rbdock ($Id: //depot/dev/client3/rdock/2013.1/src/exe/rbdock.cxx#4 $)

>  <Rbt.Library>
libRbt.so (2013.1, Build901 2013/11/27)

>  <Rbt.Parameter_File>
/export/apps/rDock/src/rDock_2013.1_src/data/scripts/dock_solv.prm

>  <Rbt.Receptor>
prm/blind_docking_40.prm

>  <SCORE>
-17.4798

>  <SCORE.INTER>
-17.4798

>  <SCORE.INTER.CONST>
1

>  <SCORE.INTER.POLAR>
0

>  <SCORE.INTER.ROT>
0

>  <SCORE.INTER.SOLV>
3.9166

>  <SCORE.INTER.VDW>
-16.5587

>  <SCORE.INTER.norm>
-1.74798

>  <SCORE.INTRA>
0

>  <SCORE.INTRA.DIHEDRAL>
0

>  <SCORE.INTRA.DIHEDRAL.0>
0

>  <SCORE.INTRA.POLAR>
0

>  <SCORE.INTRA.POLAR.0>
0

>  <SCORE.INTRA.REPUL>
0

>  <SCORE.INTRA.REPUL.0>
0

>  <SCORE.INTRA.SOLV>
0

>  <SCORE.INTRA.SOLV.lig_0>
-4.28333

>  <SCORE.INTRA.VDW>
0

>  <SCORE.INTRA.VDW.0>
0

>  <SCORE.INTRA.norm>
0

>  <SCORE.RESTR>
0

>  <SCORE.RESTR.CAVITY>
0

>  <SCORE.RESTR.norm>
0

>  <SCORE.SYSTEM>
0

>  <SCORE.SYSTEM.CONST>
0

>  <SCORE.SYSTEM.DIHEDRAL>
0

>  <SCORE.SYSTEM.SOLV>
0

>  <SCORE.SYSTEM.norm>
0

>  <SCORE.heavy>
10

>  <SCORE.norm>
-1.74798

>  <RMSD>
2.420

$$$$
ligand
 OpenBabel02271912143D
libRbt.so/2013.1/901 2013/11/27
 10 11  0  0  0  0  0  0  0  0999 V2000
   11.7990   10.5330    8.9097 N   0  0  0  0  0  0  0  0  0  0  0  0
   12.0002    9.3742    8.1972 C   0  0  0  0  0  0  0  0  0  0  0  0
   11.8822    9.3298    6.8689 N   0  0  0  0  0  0  0  0  0  0  0  0
   11.5483   10.5295    6.3137 C   0  0  0  0  0  0  0  0  0  0  0  0
   11.3316   11.7246    6.9707 C   0  0  0  0  0  0  0  0  0  0  0  0
   11.4569   11.7800    8.3859 C   0  0  0  0  0  0  0  0  0  0  0  0
   11.3124   12.7290    9.1660 O   0  0  0  0  0  0  0  0  0  0  0  0
   11.0186   12.6779    6.0429 N   0  0  0  0  0  0  0  0  0  0  0  0
   11.0473   12.0693    4.8346 C   0  0  0  0  0  0  0  0  0  0  0  0
   11.3717   10.7365    4.9685 N   0  0  0  0  0  0  0  0  0  0  0  0
  1  2  1  0  0  0  0
  1  6  1  0  0  0  0
  2  3  2  0  0  0  0
  3  4  1  0  0  0  0
  4  5  2  0  0  0  0
  4 10  1  0  0  0  0
  5  6  1  0  0  0  0
  5  8  1  0  0  0  0
  6  7  2  0  0  0  0
  8  9  1  0  0  0  0
  9 10  2  0  0  0  0
M  END
>  <CHROM.1>
11.47434212,11.17623684,7.10697800,-1.10908671,1.32323051,-1.96355721

>  <Name>
ligand

>  <RI>
0

>  <Rbt.Current_Directory>
/home/itssahil/PROJECTS/Mol_Feturizer/Test_systems_manuscript/rnas/4fe5

>  <Rbt.Executable>
rbdock ($Id: //depot/dev/client3/rdock/2013.1/src/exe/rbdock.cxx#4 $)

>  <Rbt.Library>
libRbt.so (2013.1, Build901 2013/11/27)

>  <Rbt.Parameter_File>
/export/apps/rDock/src/rDock_2013.1_src/data/scripts/dock_solv.prm

>  <Rbt.Receptor>
prm/blind_docking_60.prm

>  <SCORE>
-17.506

>  <SCORE.INTER>
-17.506

>  <SCORE.INTER.CONST>
1

>  <SCORE.INTER.POLAR>
0

>  <SCORE.INTER.ROT>
0

>  <SCORE.INTER.SOLV>
3.87083

>  <SCORE.INTER.VDW>
-16.5609

>  <SCORE.INTER.norm>
-1.7506

>  <SCORE.INTRA>
0

>  <SCORE.INTRA.DIHEDRAL>
0

>  <SCORE.INTRA.DIHEDRAL.0>
0

>  <SCORE.INTRA.POLAR>
0

>  <SCORE.INTRA.POLAR.0>
0

>  <SCORE.INTRA.REPUL>
0

>  <SCORE.INTRA.REPUL.0>
0

>  <SCORE.INTRA.SOLV>
0

>  <SCORE.INTRA.SOLV.lig_0>
-4.28333

>  <SCORE.INTRA.VDW>
0

>  <SCORE.INTRA.VDW.0>
0

>  <SCORE.INTRA.norm>
0

>  <SCORE.RESTR>
0

>  <SCORE.RESTR.CAVITY>
0

>  <SCORE.RESTR.norm>
0

>  <SCORE.SYSTEM>
0

>  <SCORE.SYSTEM.CONST>
0

>  <SCORE.SYSTEM.DIHEDRAL>
0

>  <SCORE.SYSTEM.SOLV>
0

>  <SCORE.SYSTEM.norm>
0

>  <SCORE.heavy>
10

>  <SCORE.norm>
-1.7506

>  <RMSD>
2.420

$$$$
ligand
 OpenBabel02271912143D
libRbt.so/2013.1/901 2013/11/27
 10 11  0  0  0  0  0  0  0  0999 V2000
   11.7764   10.5786    8.9321 N   0  0  0  0  0  0  0  0  0  0  0  0
   11.9486    9.4021    8.2414 C   0  0  0  0  0  0  0  0  0  0  0  0
   11.8267    9.3355    6.9144 N   0  0  0  0  0  0  0  0  0  0  0  0
   11.5201   10.5319    6.3370 C   0  0  0  0  0  0  0  0  0  0  0  0
   11.3332   11.7441    6.9717 C   0  0  0  0  0  0  0  0  0  0  0  0
   11.4628   11.8233    8.3853 C   0  0  0  0  0  0  0  0  0  0  0  0
   11.3426   12.7901    9.1475 O   0  0  0  0  0  0  0  0  0  0  0  0
   11.0409   12.6869    6.0265 N   0  0  0  0  0  0  0  0  0  0  0  0
   11.0526   12.0550    4.8299 C   0  0  0  0  0  0  0  0  0  0  0  0
   11.3456   10.7177    4.9885 N   0  0  0  0  0  0  0  0  0  0  0  0
  1  2  1  0  0  0  0
  1  6  1  0  0  0  0
  2  3  2  0  0  0  0
  3  4  1  0  0  0  0
  4  5  2  0  0  0  0
  4 10  1  0  0  0  0
  5  6  1  0  0  0  0
  5  8  1  0  0  0  0
  6  7  2  0  0  0  0
  8  9  1  0  0  0  0
  9 10  2  0  0  0  0
M  END
>  <CHROM.1>
11.46319994,11.19519180,7.11807107,-1.05990394,1.34404524,-2.03030342

>  <Name>
ligand

>  <RI>
0

>  <Rbt.Current_Directory>
/home/itssahil/PROJECTS/Mol_Feturizer/Test_systems_manuscript/rnas/4fe5

>  <Rbt.Executable>
rbdock ($Id: //depot/dev/client3/rdock/2013.1/src/exe/rbdock.cxx#4 $)

>  <Rbt.Library>
libRbt.so (2013.1, Build901 2013/11/27)

>  <Rbt.Parameter_File>
/export/apps/rDock/src/rDock_2013.1_src/data/scripts/dock_solv.prm

>  <Rbt.Receptor>
prm/blind_docking_80.prm

>  <SCORE>
-17.4594

>  <SCORE.INTER>
-17.4594

>  <SCORE.INTER.CONST>
1

>  <SCORE.INTER.POLAR>
0

>  <SCORE.INTER.ROT>
0

>  <SCORE.INTER.SOLV>
3.9469

>  <SCORE.INTER.VDW>
-16.5552

>  <SCORE.INTER.norm>
-1.74594

>  <SCORE.INTRA>
0

>  <SCORE.INTRA.DIHEDRAL>
0

>  <SCORE.INTRA.DIHEDRAL.0>
0

>  <SCORE.INTRA.POLAR>
0

>  <SCORE.INTRA.POLAR.0>
0

>  <SCORE.INTRA.REPUL>
0

>  <SCORE.INTRA.REPUL.0>
0

>  <SCORE.INTRA.SOLV>
0

>  <SCORE.INTRA.SOLV.lig_0>
-4.28333

>  <SCORE.INTRA.VDW>
0

>  <SCORE.INTRA.VDW.0>
0

>  <SCORE.INTRA.norm>
0

>  <SCORE.RESTR>
0

>  <SCORE.RESTR.CAVITY>
0

>  <SCORE.RESTR.norm>
0

>  <SCORE.SYSTEM>
0

>  <SCORE.SYSTEM.CONST>
0

>  <SCORE.SYSTEM.DIHEDRAL>
0

>  <SCORE.SYSTEM.SOLV>
0

>  <SCORE.SYSTEM.norm>
0

>  <SCORE.heavy>
10

>  <SCORE.norm>
-1.74594

>  <RMSD>
2.420

$$$$
ligand
 OpenBabel02271912143D
libRbt.so/2013.1/901 2013/11/27
 10 11  0  0  0  0  0  0  0  0999 V2000
   11.8096   10.5763    8.8997 N   0  0  0  0  0  0  0  0  0  0  0  0
   11.9770    9.4033    8.2018 C   0  0  0  0  0  0  0  0  0  0  0  0
   11.8495    9.3441    6.8750 N   0  0  0  0  0  0  0  0  0  0  0  0
   11.5423   10.5442    6.3055 C   0  0  0  0  0  0  0  0  0  0  0  0
   11.3600   11.7532    6.9476 C   0  0  0  0  0  0  0  0  0  0  0  0
   11.4957   11.8244    8.3611 C   0  0  0  0  0  0  0  0  0  0  0  0
   11.3802   12.7872    9.1290 O   0  0  0  0  0  0  0  0  0  0  0  0
   11.0652   12.7015    6.0088 N   0  0  0  0  0  0  0  0  0  0  0  0
   11.0709   12.0762    4.8087 C   0  0  0  0  0  0  0  0  0  0  0  0
   11.3624   10.7375    4.9588 N   0  0  0  0  0  0  0  0  0  0  0  0
  1  2  1  0  0  0  0
  1  6  1  0  0  0  0
  2  3  2  0  0  0  0
  3  4  1  0  0  0  0
  4  5  2  0  0  0  0
  4 10  1  0  0  0  0
  5  6  1  0  0  0  0
  5  8  1  0  0  0  0
  6  7  2  0  0  0  0
  8  9  1  0  0  0  0
  9 10  2  0  0  0  0
M  END
>  <CHROM.1>
11.48975775,11.20322785,7.09039875,-1.04005032,1.34355869,-2.04418497

>  <Name>
ligand

>  <RI>
0

>  <Rbt.Current_Directory>
/home/itssahil/PROJECTS/Mol_Feturizer/Test_systems_manuscript/rnas/4fe5

>  <Rbt.Executable>
rbdock ($Id: //depot/dev/client3/rdock/2013.1/src/exe/rbdock.cxx#4 $)

>  <Rbt.Library>
libRbt.so (2013.1, Build901 2013/11/27)

>  <Rbt.Parameter_File>
/export/apps/rDock/src/rDock_2013.1_src/data/scripts/dock_solv.prm

>  <Rbt.Receptor>
prm/blind_docking_80.prm

>  <SCORE>
-17.5032

>  <SCORE.INTER>
-17.5032

>  <SCORE.INTER.CONST>
1

>  <SCORE.INTER.POLAR>
0

>  <SCORE.INTER.ROT>
0

>  <SCORE.INTER.SOLV>
3.92824

>  <SCORE.INTER.VDW>
-16.5782

>  <SCORE.INTER.norm>
-1.75032

>  <SCORE.INTRA>
0

>  <SCORE.INTRA.DIHEDRAL>
0

>  <SCORE.INTRA.DIHEDRAL.0>
0

>  <SCORE.INTRA.POLAR>
0

>  <SCORE.INTRA.POLAR.0>
0

>  <SCORE.INTRA.REPUL>
0

>  <SCORE.INTRA.REPUL.0>
0

>  <SCORE.INTRA.SOLV>
0

>  <SCORE.INTRA.SOLV.lig_0>
-4.28333

>  <SCORE.INTRA.VDW>
0

>  <SCORE.INTRA.VDW.0>
0

>  <SCORE.INTRA.norm>
0

>  <SCORE.RESTR>
0

>  <SCORE.RESTR.CAVITY>
0

>  <SCORE.RESTR.norm>
0

>  <SCORE.SYSTEM>
0

>  <SCORE.SYSTEM.CONST>
0

>  <SCORE.SYSTEM.DIHEDRAL>
0

>  <SCORE.SYSTEM.SOLV>
0

>  <SCORE.SYSTEM.norm>
0

>  <SCORE.heavy>
10

>  <SCORE.norm>
-1.75032

>  <RMSD>
2.420

$$$$
ligand
 OpenBabel02271912143D
libRbt.so/2013.1/901 2013/11/27
 10 11  0  0  0  0  0  0  0  0999 V2000
   11.8121   10.5822    8.9006 N   0  0  0  0  0  0  0  0  0  0  0  0
   11.9845    9.4099    8.2028 C   0  0  0  0  0  0  0  0  0  0  0  0
   11.8561    9.3498    6.8761 N   0  0  0  0  0  0  0  0  0  0  0  0
   11.5427   10.5483    6.3066 C   0  0  0  0  0  0  0  0  0  0  0  0
   11.3552   11.7565    6.9486 C   0  0  0  0  0  0  0  0  0  0  0  0
   11.4917   11.8287    8.3620 C   0  0  0  0  0  0  0  0  0  0  0  0
   11.3723   12.7911    9.1298 O   0  0  0  0  0  0  0  0  0  0  0  0
   11.0550   12.7033    6.0099 N   0  0  0  0  0  0  0  0  0  0  0  0
   11.0626   12.0778    4.8099 C   0  0  0  0  0  0  0  0  0  0  0  0
   11.3607   10.7405    4.9600 N   0  0  0  0  0  0  0  0  0  0  0  0
  1  2  1  0  0  0  0
  1  6  1  0  0  0  0
  2  3  2  0  0  0  0
  3  4  1  0  0  0  0
  4  5  2  0  0  0  0
  4 10  1  0  0  0  0
  5  6  1  0  0  0  0
  5  8  1  0  0  0  0
  6  7  2  0  0  0  0
  8  9  1  0  0  0  0
  9 10  2  0  0  0  0
M  END
>  <CHROM.1>
11.48766872,11.20727011,7.09142759,-1.04611796,1.33888174,-2.03848786

>  <Name>
ligand

>  <RI>
0

>  <Rbt.Current_Directory>
/home/itssahil/PROJECTS/Mol_Feturizer/Test_systems_manuscript/rnas/4fe5

>  <Rbt.Executable>
rbdock ($Id: //depot/dev/client3/rdock/2013.1/src/exe/rbdock.cxx#4 $)

>  <Rbt.Library>
libRbt.so (2013.1, Build901 2013/11/27)

>  <Rbt.Parameter_File>
/export/apps/rDock/src/rDock_2013.1_src/data/scripts/dock_solv.prm

>  <Rbt.Receptor>
prm/pocket_docking_3.prm

>  <SCORE>
-17.5002

>  <SCORE.INTER>
-17.5002

>  <SCORE.INTER.CONST>
1

>  <SCORE.INTER.POLAR>
0

>  <SCORE.INTER.ROT>
0

>  <SCORE.INTER.SOLV>
3.92567

>  <SCORE.INTER.VDW>
-16.5753

>  <SCORE.INTER.norm>
-1.75002

>  <SCORE.INTRA>
0

>  <SCORE.INTRA.DIHEDRAL>
0

>  <SCORE.INTRA.DIHEDRAL.0>
0

>  <SCORE.INTRA.POLAR>
0

>  <SCORE.INTRA.POLAR.0>
0

>  <SCORE.INTRA.REPUL>
0

>  <SCORE.INTRA.REPUL.0>
0

>  <SCORE.INTRA.SOLV>
0

>  <SCORE.INTRA.SOLV.lig_0>
-4.28333

>  <SCORE.INTRA.VDW>
0

>  <SCORE.INTRA.VDW.0>
0

>  <SCORE.INTRA.norm>
0

>  <SCORE.RESTR>
0

>  <SCORE.RESTR.CAVITY>
0

>  <SCORE.RESTR.norm>
0

>  <SCORE.SYSTEM>
0

>  <SCORE.SYSTEM.CONST>
0

>  <SCORE.SYSTEM.DIHEDRAL>
0

>  <SCORE.SYSTEM.SOLV>
0

>  <SCORE.SYSTEM.norm>
0

>  <SCORE.heavy>
10

>  <SCORE.norm>
-1.75002

>  <RMSD>
2.420

$$$$
ligand
 OpenBabel02271912143D
libRbt.so/2013.1/901 2013/11/27
 10 11  0  0  0  0  0  0  0  0999 V2000
   11.7952   10.5537    8.9103 N   0  0  0  0  0  0  0  0  0  0  0  0
   11.9695    9.3837    8.2092 C   0  0  0  0  0  0  0  0  0  0  0  0
   11.8423    9.3273    6.8822 N   0  0  0  0  0  0  0  0  0  0  0  0
   11.5281   10.5272    6.3160 C   0  0  0  0  0  0  0  0  0  0  0  0
   11.3387   11.7333    6.9614 C   0  0  0  0  0  0  0  0  0  0  0  0
   11.4739   11.8014    8.3750 C   0  0  0  0  0  0  0  0  0  0  0  0
   11.3527   12.7614    9.1456 O   0  0  0  0  0  0  0  0  0  0  0  0
   11.0383   12.6824    6.0252 N   0  0  0  0  0  0  0  0  0  0  0  0
   11.0477   12.0605    4.8234 C   0  0  0  0  0  0  0  0  0  0  0  0
   11.3471   10.7231    4.9698 N   0  0  0  0  0  0  0  0  0  0  0  0
  1  2  1  0  0  0  0
  1  6  1  0  0  0  0
  2  3  2  0  0  0  0
  3  4  1  0  0  0  0
  4  5  2  0  0  0  0
  4 10  1  0  0  0  0
  5  6  1  0  0  0  0
  5  8  1  0  0  0  0
  6  7  2  0  0  0  0
  8  9  1  0  0  0  0
  9 10  2  0  0  0  0
M  END
>  <CHROM.1>
11.47165601,11.18374218,7.10268163,-1.05179116,1.33829446,-2.03002068

>  <Name>
ligand

>  <RI>
0

>  <Rbt.Current_Directory>
/home/itssahil/PROJECTS/Mol_Feturizer/Test_systems_manuscript/rnas/4fe5

>  <Rbt.Executable>
rbdock ($Id: //depot/dev/client3/rdock/2013.1/src/exe/rbdock.cxx#4 $)

>  <Rbt.Library>
libRbt.so (2013.1, Build901 2013/11/27)

>  <Rbt.Parameter_File>
/export/apps/rDock/src/rDock_2013.1_src/data/scripts/dock_solv.prm

>  <Rbt.Receptor>
prm/pocket_docking_4.prm

>  <SCORE>
-17.4473

>  <SCORE.INTER>
-17.4473

>  <SCORE.INTER.CONST>
1

>  <SCORE.INTER.POLAR>
0

>  <SCORE.INTER.ROT>
0

>  <SCORE.INTER.SOLV>
3.90859

>  <SCORE.INTER.VDW>
-16.5344

>  <SCORE.INTER.norm>
-1.74473

>  <SCORE.INTRA>
0

>  <SCORE.INTRA.DIHEDRAL>
0

>  <SCORE.INTRA.DIHEDRAL.0>
0

>  <SCORE.INTRA.POLAR>
0

>  <SCORE.INTRA.POLAR.0>
0

>  <SCORE.INTRA.REPUL>
0

>  <SCORE.INTRA.REPUL.0>
0

>  <SCORE.INTRA.SOLV>
0

>  <SCORE.INTRA.SOLV.lig_0>
-4.28333

>  <SCORE.INTRA.VDW>
0

>  <SCORE.INTRA.VDW.0>
0

>  <SCORE.INTRA.norm>
0

>  <SCORE.RESTR>
0

>  <SCORE.RESTR.CAVITY>
0

>  <SCORE.RESTR.norm>
0

>  <SCORE.SYSTEM>
0

>  <SCORE.SYSTEM.CONST>
0

>  <SCORE.SYSTEM.DIHEDRAL>
0

>  <SCORE.SYSTEM.SOLV>
0

>  <SCORE.SYSTEM.norm>
0

>  <SCORE.heavy>
10

>  <SCORE.norm>
-1.74473

>  <RMSD>
2.420

$$$$
ligand
 OpenBabel02271912143D
libRbt.so/2013.1/901 2013/11/27
 10 11  0  0  0  0  0  0  0  0999 V2000
   11.8215   10.5635    8.9015 N   0  0  0  0  0  0  0  0  0  0  0  0
   12.0180    9.3989    8.1972 C   0  0  0  0  0  0  0  0  0  0  0  0
   11.8892    9.3432    6.8703 N   0  0  0  0  0  0  0  0  0  0  0  0
   11.5494   10.5378    6.3077 C   0  0  0  0  0  0  0  0  0  0  0  0
   11.3369   11.7382    6.9564 C   0  0  0  0  0  0  0  0  0  0  0  0
   11.4738   11.8057    8.3700 C   0  0  0  0  0  0  0  0  0  0  0  0
   11.3348   12.7611    9.1432 O   0  0  0  0  0  0  0  0  0  0  0  0
   11.0153   12.6833    6.0232 N   0  0  0  0  0  0  0  0  0  0  0  0
   11.0347   12.0646    4.8199 C   0  0  0  0  0  0  0  0  0  0  0  0
   11.3616   10.7333    4.9624 N   0  0  0  0  0  0  0  0  0  0  0  0
  1  2  1  0  0  0  0
  1  6  1  0  0  0  0
  2  3  2  0  0  0  0
  3  4  1  0  0  0  0
  4  5  2  0  0  0  0
  4 10  1  0  0  0  0
  5  6  1  0  0  0  0
  5  8  1  0  0  0  0
  6  7  2  0  0  0  0
  8  9  1  0  0  0  0
  9 10  2  0  0  0  0
M  END
>  <CHROM.1>
11.48133665,11.19114851,7.09611931,-1.08019273,1.31903209,-2.00000503

>  <Name>
ligand

>  <RI>
0

>  <Rbt.Current_Directory>
/home/itssahil/PROJECTS/Mol_Feturizer/Test_systems_manuscript/rnas/4fe5

>  <Rbt.Executable>
rbdock ($Id: //depot/dev/client3/rdock/2013.1/src/exe/rbdock.cxx#4 $)

>  <Rbt.Library>
libRbt.so (2013.1, Build901 2013/11/27)

>  <Rbt.Parameter_File>
/export/apps/rDock/src/rDock_2013.1_src/data/scripts/dock_solv.prm

>  <Rbt.Receptor>
prm/pocket_docking_5.prm

>  <SCORE>
-17.5089

>  <SCORE.INTER>
-17.5089

>  <SCORE.INTER.CONST>
1

>  <SCORE.INTER.POLAR>
0

>  <SCORE.INTER.ROT>
0

>  <SCORE.INTER.SOLV>
3.87991

>  <SCORE.INTER.VDW>
-16.5659

>  <SCORE.INTER.norm>
-1.75089

>  <SCORE.INTRA>
0

>  <SCORE.INTRA.DIHEDRAL>
0

>  <SCORE.INTRA.DIHEDRAL.0>
0

>  <SCORE.INTRA.POLAR>
0

>  <SCORE.INTRA.POLAR.0>
0

>  <SCORE.INTRA.REPUL>
0

>  <SCORE.INTRA.REPUL.0>
0

>  <SCORE.INTRA.SOLV>
0

>  <SCORE.INTRA.SOLV.lig_0>
-4.28333

>  <SCORE.INTRA.VDW>
0

>  <SCORE.INTRA.VDW.0>
0

>  <SCORE.INTRA.norm>
0

>  <SCORE.RESTR>
0

>  <SCORE.RESTR.CAVITY>
0

>  <SCORE.RESTR.norm>
0

>  <SCORE.SYSTEM>
0

>  <SCORE.SYSTEM.CONST>
0

>  <SCORE.SYSTEM.DIHEDRAL>
0

>  <SCORE.SYSTEM.SOLV>
0

>  <SCORE.SYSTEM.norm>
0

>  <SCORE.heavy>
10

>  <SCORE.norm>
-1.75089

>  <RMSD>
2.420

$$$$
ligand
 OpenBabel02271912143D
libRbt.so/2013.1/901 2013/11/27
 10 11  0  0  0  0  0  0  0  0999 V2000
   11.8189   10.5958    8.9032 N   0  0  0  0  0  0  0  0  0  0  0  0
   12.0016    9.4198    8.2142 C   0  0  0  0  0  0  0  0  0  0  0  0
   11.8690    9.3477    6.8885 N   0  0  0  0  0  0  0  0  0  0  0  0
   11.5403   10.5380    6.3107 C   0  0  0  0  0  0  0  0  0  0  0  0
   11.3419   11.7493    6.9436 C   0  0  0  0  0  0  0  0  0  0  0  0
   11.4828   11.8343    8.3559 C   0  0  0  0  0  0  0  0  0  0  0  0
   11.3556   12.8014    9.1164 O   0  0  0  0  0  0  0  0  0  0  0  0
   11.0278   12.6851    5.9985 N   0  0  0  0  0  0  0  0  0  0  0  0
   11.0380   12.0500    4.8036 C   0  0  0  0  0  0  0  0  0  0  0  0
   11.3513   10.7174    4.9632 N   0  0  0  0  0  0  0  0  0  0  0  0
  1  2  1  0  0  0  0
  1  6  1  0  0  0  0
  2  3  2  0  0  0  0
  3  4  1  0  0  0  0
  4  5  2  0  0  0  0
  4 10  1  0  0  0  0
  5  6  1  0  0  0  0
  5  8  1  0  0  0  0
  6  7  2  0  0  0  0
  8  9  1  0  0  0  0
  9 10  2  0  0  0  0
M  END
>  <CHROM.1>
11.48093700,11.20262512,7.09036145,-1.05323061,1.32740236,-2.03958978

>  <Name>
ligand

>  <RI>
0

>  <Rbt.Current_Directory>
/home/itssahil/PROJECTS/Mol_Feturizer/Test_systems_manuscript/rnas/4fe5

>  <Rbt.Executable>
rbdock ($Id: //depot/dev/client3/rdock/2013.1/src/exe/rbdock.cxx#4 $)

>  <Rbt.Library>
libRbt.so (2013.1, Build901 2013/11/27)

>  <Rbt.Parameter_File>
/export/apps/rDock/src/rDock_2013.1_src/data/scripts/dock_solv.prm

>  <Rbt.Receptor>
prm/pocket_docking_5.prm

>  <SCORE>
-17.522

>  <SCORE.INTER>
-17.522

>  <SCORE.INTER.CONST>
1

>  <SCORE.INTER.POLAR>
0

>  <SCORE.INTER.ROT>
0

>  <SCORE.INTER.SOLV>
3.92466

>  <SCORE.INTER.VDW>
-16.5895

>  <SCORE.INTER.norm>
-1.7522

>  <SCORE.INTRA>
0

>  <SCORE.INTRA.DIHEDRAL>
0

>  <SCORE.INTRA.DIHEDRAL.0>
0

>  <SCORE.INTRA.POLAR>
0

>  <SCORE.INTRA.POLAR.0>
0

>  <SCORE.INTRA.REPUL>
0

>  <SCORE.INTRA.REPUL.0>
0

>  <SCORE.INTRA.SOLV>
0

>  <SCORE.INTRA.SOLV.lig_0>
-4.28333

>  <SCORE.INTRA.VDW>
0

>  <SCORE.INTRA.VDW.0>
0

>  <SCORE.INTRA.norm>
0

>  <SCORE.RESTR>
0

>  <SCORE.RESTR.CAVITY>
0

>  <SCORE.RESTR.norm>
0

>  <SCORE.SYSTEM>
0

>  <SCORE.SYSTEM.CONST>
0

>  <SCORE.SYSTEM.DIHEDRAL>
0

>  <SCORE.SYSTEM.SOLV>
0

>  <SCORE.SYSTEM.norm>
0

>  <SCORE.heavy>
10

>  <SCORE.norm>
-1.7522

>  <RMSD>
2.420

$$$$
ligand
 OpenBabel02271912143D
libRbt.so/2013.1/901 2013/11/27
 10 11  0  0  0  0  0  0  0  0999 V2000
   11.7924   10.5619    8.9138 N   0  0  0  0  0  0  0  0  0  0  0  0
   11.9776    9.3932    8.2131 C   0  0  0  0  0  0  0  0  0  0  0  0
   11.8545    9.3360    6.8858 N   0  0  0  0  0  0  0  0  0  0  0  0
   11.5328   10.5334    6.3187 C   0  0  0  0  0  0  0  0  0  0  0  0
   11.3323   11.7380    6.9636 C   0  0  0  0  0  0  0  0  0  0  0  0
   11.4631   11.8071    8.3777 C   0  0  0  0  0  0  0  0  0  0  0  0
   11.3325   12.7661    9.1479 O   0  0  0  0  0  0  0  0  0  0  0  0
   11.0274   12.6849    6.0266 N   0  0  0  0  0  0  0  0  0  0  0  0
   11.0449   12.0631    4.8248 C   0  0  0  0  0  0  0  0  0  0  0  0
   11.3540   10.7280    4.9720 N   0  0  0  0  0  0  0  0  0  0  0  0
  1  2  1  0  0  0  0
  1  6  1  0  0  0  0
  2  3  2  0  0  0  0
  3  4  1  0  0  0  0
  4  5  2  0  0  0  0
  4 10  1  0  0  0  0
  5  6  1  0  0  0  0
  5  8  1  0  0  0  0
  6  7  2  0  0  0  0
  8  9  1  0  0  0  0
  9 10  2  0  0  0  0
M  END
>  <CHROM.1>
11.46912366,11.18949172,7.10527567,-1.07670559,1.33263763,-2.00575364

>  <Name>
ligand

>  <RI>
0

>  <Rbt.Current_Directory>
/home/itssahil/PROJECTS/Mol_Feturizer/Test_systems_manuscript/rnas/4fe5

>  <Rbt.Executable>
rbdock ($Id: //depot/dev/client3/rdock/2013.1/src/exe/rbdock.cxx#4 $)

>  <Rbt.Library>
libRbt.so (2013.1, Build901 2013/11/27)

>  <Rbt.Parameter_File>
/export/apps/rDock/src/rDock_2013.1_src/data/scripts/dock_solv.prm

>  <Rbt.Receptor>
prm/pocket_docking_6.prm

>  <SCORE>
-17.4765

>  <SCORE.INTER>
-17.4765

>  <SCORE.INTER.CONST>
1

>  <SCORE.INTER.POLAR>
0

>  <SCORE.INTER.ROT>
0

>  <SCORE.INTER.SOLV>
3.90947

>  <SCORE.INTER.VDW>
-16.5542

>  <SCORE.INTER.norm>
-1.74765

>  <SCORE.INTRA>
0

>  <SCORE.INTRA.DIHEDRAL>
0

>  <SCORE.INTRA.DIHEDRAL.0>
0

>  <SCORE.INTRA.POLAR>
0

>  <SCORE.INTRA.POLAR.0>
0

>  <SCORE.INTRA.REPUL>
0

>  <SCORE.INTRA.REPUL.0>
0

>  <SCORE.INTRA.SOLV>
0

>  <SCORE.INTRA.SOLV.lig_0>
-4.28333

>  <SCORE.INTRA.VDW>
0

>  <SCORE.INTRA.VDW.0>
0

>  <SCORE.INTRA.norm>
0

>  <SCORE.RESTR>
0

>  <SCORE.RESTR.CAVITY>
0

>  <SCORE.RESTR.norm>
0

>  <SCORE.SYSTEM>
0

>  <SCORE.SYSTEM.CONST>
0

>  <SCORE.SYSTEM.DIHEDRAL>
0

>  <SCORE.SYSTEM.SOLV>
0

>  <SCORE.SYSTEM.norm>
0

>  <SCORE.heavy>
10

>  <SCORE.norm>
-1.74765

>  <RMSD>
2.420

$$$$
ligand
 OpenBabel02271912143D
libRbt.so/2013.1/901 2013/11/27
 10 11  0  0  0  0  0  0  0  0999 V2000
   11.7685   10.5309    8.9269 N   0  0  0  0  0  0  0  0  0  0  0  0
   11.9428    9.3628    8.2225 C   0  0  0  0  0  0  0  0  0  0  0  0
   11.8243    9.3120    6.8945 N   0  0  0  0  0  0  0  0  0  0  0  0
   11.5186   10.5152    6.3308 C   0  0  0  0  0  0  0  0  0  0  0  0
   11.3296   11.7196    6.9795 C   0  0  0  0  0  0  0  0  0  0  0  0
   11.4557   11.7819    8.3943 C   0  0  0  0  0  0  0  0  0  0  0  0
   11.3332   12.7394    9.1677 O   0  0  0  0  0  0  0  0  0  0  0  0
   11.0392   12.6735    6.0449 N   0  0  0  0  0  0  0  0  0  0  0  0
   11.0542   12.0560    4.8409 C   0  0  0  0  0  0  0  0  0  0  0  0
   11.3473   10.7169    4.9842 N   0  0  0  0  0  0  0  0  0  0  0  0
  1  2  1  0  0  0  0
  1  6  1  0  0  0  0
  2  3  2  0  0  0  0
  3  4  1  0  0  0  0
  4  5  2  0  0  0  0
  4 10  1  0  0  0  0
  5  6  1  0  0  0  0
  5  8  1  0  0  0  0
  6  7  2  0  0  0  0
  8  9  1  0  0  0  0
  9 10  2  0  0  0  0
M  END
>  <CHROM.1>
11.45949220,11.16899201,7.11958252,-1.07053956,1.34476510,-2.00796761

>  <Name>
ligand

>  <RI>
0

>  <Rbt.Current_Directory>
/home/itssahil/PROJECTS/Mol_Feturizer/Test_systems_manuscript/rnas/4fe5

>  <Rbt.Executable>
rbdock ($Id: //depot/dev/client3/rdock/2013.1/src/exe/rbdock.cxx#4 $)

>  <Rbt.Library>
libRbt.so (2013.1, Build901 2013/11/27)

>  <Rbt.Parameter_File>
/export/apps/rDock/src/rDock_2013.1_src/data/scripts/dock_solv.prm

>  <Rbt.Receptor>
prm/pocket_docking_6.prm

>  <SCORE>
-17.4524

>  <SCORE.INTER>
-17.4524

>  <SCORE.INTER.CONST>
1

>  <SCORE.INTER.POLAR>
0

>  <SCORE.INTER.ROT>
0

>  <SCORE.INTER.SOLV>
3.91344

>  <SCORE.INTER.VDW>
-16.5394

>  <SCORE.INTER.norm>
-1.74524

>  <SCORE.INTRA>
0

>  <SCORE.INTRA.DIHEDRAL>
0

>  <SCORE.INTRA.DIHEDRAL.0>
0

>  <SCORE.INTRA.POLAR>
0

>  <SCORE.INTRA.POLAR.0>
0

>  <SCORE.INTRA.REPUL>
0

>  <SCORE.INTRA.REPUL.0>
0

>  <SCORE.INTRA.SOLV>
0

>  <SCORE.INTRA.SOLV.lig_0>
-4.28333

>  <SCORE.INTRA.VDW>
0

>  <SCORE.INTRA.VDW.0>
0

>  <SCORE.INTRA.norm>
0

>  <SCORE.RESTR>
0

>  <SCORE.RESTR.CAVITY>
0

>  <SCORE.RESTR.norm>
0

>  <SCORE.SYSTEM>
0

>  <SCORE.SYSTEM.CONST>
0

>  <SCORE.SYSTEM.DIHEDRAL>
0

>  <SCORE.SYSTEM.SOLV>
0

>  <SCORE.SYSTEM.norm>
0

>  <SCORE.heavy>
10

>  <SCORE.norm>
-1.74524

>  <RMSD>
2.420

$$$$
ligand
 OpenBabel02271912143D
libRbt.so/2013.1/901 2013/11/27
 10 11  0  0  0  0  0  0  0  0999 V2000
   11.8079   10.5559    8.9066 N   0  0  0  0  0  0  0  0  0  0  0  0
   11.9932    9.3895    8.2022 C   0  0  0  0  0  0  0  0  0  0  0  0
   11.8650    9.3354    6.8752 N   0  0  0  0  0  0  0  0  0  0  0  0
   11.5380   10.5335    6.3125 C   0  0  0  0  0  0  0  0  0  0  0  0
   11.3371   11.7359    6.9613 C   0  0  0  0  0  0  0  0  0  0  0  0
   11.4733   11.8017    8.3751 C   0  0  0  0  0  0  0  0  0  0  0  0
   11.3433   12.7583    9.1483 O   0  0  0  0  0  0  0  0  0  0  0  0
   11.0260   12.6845    6.0281 N   0  0  0  0  0  0  0  0  0  0  0  0
   11.0403   12.0658    4.8246 C   0  0  0  0  0  0  0  0  0  0  0  0
   11.3534   10.7312    4.9671 N   0  0  0  0  0  0  0  0  0  0  0  0
  1  2  1  0  0  0  0
  1  6  1  0  0  0  0
  2  3  2  0  0  0  0
  3  4  1  0  0  0  0
  4  5  2  0  0  0  0
  4 10  1  0  0  0  0
  5  6  1  0  0  0  0
  5  8  1  0  0  0  0
  6  7  2  0  0  0  0
  8  9  1  0  0  0  0
  9 10  2  0  0  0  0
M  END
>  <CHROM.1>
11.47580404,11.18738006,7.10104148,-1.06611293,1.32864690,-2.01342403

>  <Name>
ligand

>  <RI>
0

>  <Rbt.Current_Directory>
/home/itssahil/PROJECTS/Mol_Feturizer/Test_systems_manuscript/rnas/4fe5

>  <Rbt.Executable>
rbdock ($Id: //depot/dev/client3/rdock/2013.1/src/exe/rbdock.cxx#4 $)

>  <Rbt.Library>
libRbt.so (2013.1, Build901 2013/11/27)

>  <Rbt.Parameter_File>
/export/apps/rDock/src/rDock_2013.1_src/data/scripts/dock_solv.prm

>  <Rbt.Receptor>
prm/pocket_docking_7.prm

>  <SCORE>
-17.4818

>  <SCORE.INTER>
-17.4818

>  <SCORE.INTER.CONST>
1

>  <SCORE.INTER.POLAR>
0

>  <SCORE.INTER.ROT>
0

>  <SCORE.INTER.SOLV>
3.89212

>  <SCORE.INTER.VDW>
-16.5519

>  <SCORE.INTER.norm>
-1.74818

>  <SCORE.INTRA>
0

>  <SCORE.INTRA.DIHEDRAL>
0

>  <SCORE.INTRA.DIHEDRAL.0>
0

>  <SCORE.INTRA.POLAR>
0

>  <SCORE.INTRA.POLAR.0>
0

>  <SCORE.INTRA.REPUL>
0

>  <SCORE.INTRA.REPUL.0>
0

>  <SCORE.INTRA.SOLV>
0

>  <SCORE.INTRA.SOLV.lig_0>
-4.28333

>  <SCORE.INTRA.VDW>
0

>  <SCORE.INTRA.VDW.0>
0

>  <SCORE.INTRA.norm>
0

>  <SCORE.RESTR>
0

>  <SCORE.RESTR.CAVITY>
0

>  <SCORE.RESTR.norm>
0

>  <SCORE.SYSTEM>
0

>  <SCORE.SYSTEM.CONST>
0

>  <SCORE.SYSTEM.DIHEDRAL>
0

>  <SCORE.SYSTEM.SOLV>
0

>  <SCORE.SYSTEM.norm>
0

>  <SCORE.heavy>
10

>  <SCORE.norm>
-1.74818

>  <RMSD>
2.420

$$$$
ligand
 OpenBabel02271912143D
libRbt.so/2013.1/901 2013/11/27
 10 11  0  0  0  0  0  0  0  0999 V2000
   11.8095   10.5598    8.8871 N   0  0  0  0  0  0  0  0  0  0  0  0
   11.9880    9.3949    8.1785 C   0  0  0  0  0  0  0  0  0  0  0  0
   11.8558    9.3455    6.8518 N   0  0  0  0  0  0  0  0  0  0  0  0
   11.5320   10.5466    6.2938 C   0  0  0  0  0  0  0  0  0  0  0  0
   11.3379   11.7478    6.9469 C   0  0  0  0  0  0  0  0  0  0  0  0
   11.4785   11.8086    8.3604 C   0  0  0  0  0  0  0  0  0  0  0  0
   11.3546   12.7634    9.1370 O   0  0  0  0  0  0  0  0  0  0  0  0
   11.0279   12.7005    6.0175 N   0  0  0  0  0  0  0  0  0  0  0  0
   11.0362   12.0856    4.8120 C   0  0  0  0  0  0  0  0  0  0  0  0
   11.3443   10.7492    4.9495 N   0  0  0  0  0  0  0  0  0  0  0  0
  1  2  1  0  0  0  0
  1  6  1  0  0  0  0
  2  3  2  0  0  0  0
  3  4  1  0  0  0  0
  4  5  2  0  0  0  0
  4 10  1  0  0  0  0
  5  6  1  0  0  0  0
  5  8  1  0  0  0  0
  6  7  2  0  0  0  0
  8  9  1  0  0  0  0
  9 10  2  0  0  0  0
M  END
>  <CHROM.1>
11.47477808,11.19826369,7.08448391,-1.04765227,1.33104132,-2.02825582

>  <Name>
ligand

>  <RI>
0

>  <Rbt.Current_Directory>
/home/itssahil/PROJECTS/Mol_Feturizer/Test_systems_manuscript/rnas/4fe5

>  <Rbt.Executable>
rbdock ($Id: //depot/dev/client3/rdock/2013.1/src/exe/rbdock.cxx#4 $)

>  <Rbt.Library>
libRbt.so (2013.1, Build901 2013/11/27)

>  <Rbt.Parameter_File>
/export/apps/rDock/src/rDock_2013.1_src/data/scripts/dock_solv.prm

>  <Rbt.Receptor>
prm/pocket_docking_7.prm

>  <SCORE>
-17.4983

>  <SCORE.INTER>
-17.4983

>  <SCORE.INTER.CONST>
1

>  <SCORE.INTER.POLAR>
0

>  <SCORE.INTER.ROT>
0

>  <SCORE.INTER.SOLV>
3.89087

>  <SCORE.INTER.VDW>
-16.5625

>  <SCORE.INTER.norm>
-1.74983

>  <SCORE.INTRA>
0

>  <SCORE.INTRA.DIHEDRAL>
0

>  <SCORE.INTRA.DIHEDRAL.0>
0

>  <SCORE.INTRA.POLAR>
0

>  <SCORE.INTRA.POLAR.0>
0

>  <SCORE.INTRA.REPUL>
0

>  <SCORE.INTRA.REPUL.0>
0

>  <SCORE.INTRA.SOLV>
0

>  <SCORE.INTRA.SOLV.lig_0>
-4.28333

>  <SCORE.INTRA.VDW>
0

>  <SCORE.INTRA.VDW.0>
0

>  <SCORE.INTRA.norm>
0

>  <SCORE.RESTR>
0

>  <SCORE.RESTR.CAVITY>
0

>  <SCORE.RESTR.norm>
0

>  <SCORE.SYSTEM>
0

>  <SCORE.SYSTEM.CONST>
0

>  <SCORE.SYSTEM.DIHEDRAL>
0

>  <SCORE.SYSTEM.SOLV>
0

>  <SCORE.SYSTEM.norm>
0

>  <SCORE.heavy>
10

>  <SCORE.norm>
-1.74983

>  <RMSD>
2.420

$$$$
ligand
 OpenBabel02271912143D
libRbt.so/2013.1/901 2013/11/27
 10 11  0  0  0  0  0  0  0  0999 V2000
   11.8054   10.5834    8.8837 N   0  0  0  0  0  0  0  0  0  0  0  0
   11.9673    9.4157    8.1757 C   0  0  0  0  0  0  0  0  0  0  0  0
   11.8313    9.3671    6.8492 N   0  0  0  0  0  0  0  0  0  0  0  0
   11.5217   10.5719    6.2911 C   0  0  0  0  0  0  0  0  0  0  0  0
   11.3446   11.7759    6.9438 C   0  0  0  0  0  0  0  0  0  0  0  0
   11.4892   11.8360    8.3569 C   0  0  0  0  0  0  0  0  0  0  0  0
   11.3795   12.7928    9.1331 O   0  0  0  0  0  0  0  0  0  0  0  0
   11.0448   12.7319    6.0143 N   0  0  0  0  0  0  0  0  0  0  0  0
   11.0424   12.1160    4.8094 C   0  0  0  0  0  0  0  0  0  0  0  0
   11.3335   10.7759    4.9471 N   0  0  0  0  0  0  0  0  0  0  0  0
  1  2  1  0  0  0  0
  1  6  1  0  0  0  0
  2  3  2  0  0  0  0
  3  4  1  0  0  0  0
  4  5  2  0  0  0  0
  4 10  1  0  0  0  0
  5  6  1  0  0  0  0
  5  8  1  0  0  0  0
  6  7  2  0  0  0  0
  8  9  1  0  0  0  0
  9 10  2  0  0  0  0
M  END
>  <CHROM.1>
11.47474764,11.22478940,7.08145259,-1.01350321,1.34144067,-2.06220627

>  <Name>
ligand

>  <RI>
0

>  <Rbt.Current_Directory>
/home/itssahil/PROJECTS/Mol_Feturizer/Test_systems_manuscript/rnas/4fe5

>  <Rbt.Executable>
rbdock ($Id: //depot/dev/client3/rdock/2013.1/src/exe/rbdock.cxx#4 $)

>  <Rbt.Library>
libRbt.so (2013.1, Build901 2013/11/27)

>  <Rbt.Parameter_File>
/export/apps/rDock/src/rDock_2013.1_src/data/scripts/dock_solv.prm

>  <Rbt.Receptor>
prm/pocket_docking_8.prm

>  <SCORE>
-17.4935

>  <SCORE.INTER>
-17.4935

>  <SCORE.INTER.CONST>
1

>  <SCORE.INTER.POLAR>
0

>  <SCORE.INTER.ROT>
0

>  <SCORE.INTER.SOLV>
3.92535

>  <SCORE.INTER.VDW>
-16.5708

>  <SCORE.INTER.norm>
-1.74935

>  <SCORE.INTRA>
0

>  <SCORE.INTRA.DIHEDRAL>
0

>  <SCORE.INTRA.DIHEDRAL.0>
0

>  <SCORE.INTRA.POLAR>
0

>  <SCORE.INTRA.POLAR.0>
0

>  <SCORE.INTRA.REPUL>
0

>  <SCORE.INTRA.REPUL.0>
0

>  <SCORE.INTRA.SOLV>
0

>  <SCORE.INTRA.SOLV.lig_0>
-4.28333

>  <SCORE.INTRA.VDW>
0

>  <SCORE.INTRA.VDW.0>
0

>  <SCORE.INTRA.norm>
0

>  <SCORE.RESTR>
0

>  <SCORE.RESTR.CAVITY>
0

>  <SCORE.RESTR.norm>
0

>  <SCORE.SYSTEM>
0

>  <SCORE.SYSTEM.CONST>
0

>  <SCORE.SYSTEM.DIHEDRAL>
0

>  <SCORE.SYSTEM.SOLV>
0

>  <SCORE.SYSTEM.norm>
0

>  <SCORE.heavy>
10

>  <SCORE.norm>
-1.74935

>  <RMSD>
2.420

$$$$
ligand
 OpenBabel02271912143D
libRbt.so/2013.1/901 2013/11/27
 10 11  0  0  0  0  0  0  0  0999 V2000
   11.8046   10.5772    8.8863 N   0  0  0  0  0  0  0  0  0  0  0  0
   11.9713    9.4099    8.1786 C   0  0  0  0  0  0  0  0  0  0  0  0
   11.8401    9.3612    6.8517 N   0  0  0  0  0  0  0  0  0  0  0  0
   11.5301   10.5655    6.2927 C   0  0  0  0  0  0  0  0  0  0  0  0
   11.3483   11.7691    6.9449 C   0  0  0  0  0  0  0  0  0  0  0  0
   11.4878   11.8292    8.3585 C   0  0  0  0  0  0  0  0  0  0  0  0
   11.3734   12.7857    9.1344 O   0  0  0  0  0  0  0  0  0  0  0  0
   11.0498   12.7246    6.0145 N   0  0  0  0  0  0  0  0  0  0  0  0
   11.0529   12.1089    4.8095 C   0  0  0  0  0  0  0  0  0  0  0  0
   11.3462   10.7694    4.9480 N   0  0  0  0  0  0  0  0  0  0  0  0
  1  2  1  0  0  0  0
  1  6  1  0  0  0  0
  2  3  2  0  0  0  0
  3  4  1  0  0  0  0
  4  5  2  0  0  0  0
  4 10  1  0  0  0  0
  5  6  1  0  0  0  0
  5  8  1  0  0  0  0
  6  7  2  0  0  0  0
  8  9  1  0  0  0  0
  9 10  2  0  0  0  0
M  END
>  <CHROM.1>
11.47900738,11.21818047,7.08293792,-1.03132044,1.34133242,-2.04470396

>  <Name>
ligand

>  <RI>
0

>  <Rbt.Current_Directory>
/home/itssahil/PROJECTS/Mol_Feturizer/Test_systems_manuscript/rnas/4fe5

>  <Rbt.Executable>
rbdock ($Id: //depot/dev/client3/rdock/2013.1/src/exe/rbdock.cxx#4 $)

>  <Rbt.Library>
libRbt.so (2013.1, Build901 2013/11/27)

>  <Rbt.Parameter_File>
/export/apps/rDock/src/rDock_2013.1_src/data/scripts/dock_solv.prm

>  <Rbt.Receptor>
prm/pocket_docking_8.prm

>  <SCORE>
-17.5006

>  <SCORE.INTER>
-17.5006

>  <SCORE.INTER.CONST>
1

>  <SCORE.INTER.POLAR>
0

>  <SCORE.INTER.ROT>
0

>  <SCORE.INTER.SOLV>
3.92065

>  <SCORE.INTER.VDW>
-16.5739

>  <SCORE.INTER.norm>
-1.75006

>  <SCORE.INTRA>
0

>  <SCORE.INTRA.DIHEDRAL>
0

>  <SCORE.INTRA.DIHEDRAL.0>
0

>  <SCORE.INTRA.POLAR>
0

>  <SCORE.INTRA.POLAR.0>
0

>  <SCORE.INTRA.REPUL>
0

>  <SCORE.INTRA.REPUL.0>
0

>  <SCORE.INTRA.SOLV>
0

>  <SCORE.INTRA.SOLV.lig_0>
-4.28333

>  <SCORE.INTRA.VDW>
0

>  <SCORE.INTRA.VDW.0>
0

>  <SCORE.INTRA.norm>
0

>  <SCORE.RESTR>
0

>  <SCORE.RESTR.CAVITY>
0

>  <SCORE.RESTR.norm>
0

>  <SCORE.SYSTEM>
0

>  <SCORE.SYSTEM.CONST>
0

>  <SCORE.SYSTEM.DIHEDRAL>
0

>  <SCORE.SYSTEM.SOLV>
0

>  <SCORE.SYSTEM.norm>
0

>  <SCORE.heavy>
10

>  <SCORE.norm>
-1.75006

>  <RMSD>
2.420

$$$$
ligand
 OpenBabel02271912143D
libRbt.so/2013.1/901 2013/11/27
 10 11  0  0  0  0  0  0  0  0999 V2000
   11.8150   10.5902    8.9054 N   0  0  0  0  0  0  0  0  0  0  0  0
   11.9965    9.4151    8.2146 C   0  0  0  0  0  0  0  0  0  0  0  0
   11.8649    9.3454    6.8887 N   0  0  0  0  0  0  0  0  0  0  0  0
   11.5384   10.5372    6.3126 C   0  0  0  0  0  0  0  0  0  0  0  0
   11.3412   11.7477    6.9474 C   0  0  0  0  0  0  0  0  0  0  0  0
   11.4811   11.8301    8.3599 C   0  0  0  0  0  0  0  0  0  0  0  0
   11.3547   12.7961    9.1220 O   0  0  0  0  0  0  0  0  0  0  0  0
   11.0293   12.6855    6.0037 N   0  0  0  0  0  0  0  0  0  0  0  0
   11.0395   12.0525    4.8076 C   0  0  0  0  0  0  0  0  0  0  0  0
   11.3507   10.7191    4.9653 N   0  0  0  0  0  0  0  0  0  0  0  0
  1  2  1  0  0  0  0
  1  6  1  0  0  0  0
  2  3  2  0  0  0  0
  3  4  1  0  0  0  0
  4  5  2  0  0  0  0
  4 10  1  0  0  0  0
  5  6  1  0  0  0  0
  5  8  1  0  0  0  0
  6  7  2  0  0  0  0
  8  9  1  0  0  0  0
  9 10  2  0  0  0  0
M  END
>  <CHROM.1>
11.47935916,11.20058415,7.09332672,-1.05347314,1.32905404,-2.03766399

>  <Name>
ligand

>  <RI>
0

>  <Rbt.Current_Directory>
/home/itssahil/PROJECTS/Mol_Feturizer/Test_systems_manuscript/rnas/4fe5

>  <Rbt.Executable>
rbdock ($Id: //depot/dev/client3/rdock/2013.1/src/exe/rbdock.cxx#4 $)

>  <Rbt.Library>
libRbt.so (2013.1, Build901 2013/11/27)

>  <Rbt.Parameter_File>
/export/apps/rDock/src/rDock_2013.1_src/data/scripts/dock_solv.prm

>  <Rbt.Receptor>
prm/pocket_docking_8.prm

>  <SCORE>
-17.523

>  <SCORE.INTER>
-17.523

>  <SCORE.INTER.CONST>
1

>  <SCORE.INTER.POLAR>
0

>  <SCORE.INTER.ROT>
0

>  <SCORE.INTER.SOLV>
3.92278

>  <SCORE.INTER.VDW>
-16.5896

>  <SCORE.INTER.norm>
-1.7523

>  <SCORE.INTRA>
0

>  <SCORE.INTRA.DIHEDRAL>
0

>  <SCORE.INTRA.DIHEDRAL.0>
0

>  <SCORE.INTRA.POLAR>
0

>  <SCORE.INTRA.POLAR.0>
0

>  <SCORE.INTRA.REPUL>
0

>  <SCORE.INTRA.REPUL.0>
0

>  <SCORE.INTRA.SOLV>
0

>  <SCORE.INTRA.SOLV.lig_0>
-4.28333

>  <SCORE.INTRA.VDW>
0

>  <SCORE.INTRA.VDW.0>
0

>  <SCORE.INTRA.norm>
0

>  <SCORE.RESTR>
0

>  <SCORE.RESTR.CAVITY>
0

>  <SCORE.RESTR.norm>
0

>  <SCORE.SYSTEM>
0

>  <SCORE.SYSTEM.CONST>
0

>  <SCORE.SYSTEM.DIHEDRAL>
0

>  <SCORE.SYSTEM.SOLV>
0

>  <SCORE.SYSTEM.norm>
0

>  <SCORE.heavy>
10

>  <SCORE.norm>
-1.7523

>  <RMSD>
2.420

$$$$
ligand
 OpenBabel02271912143D
libRbt.so/2013.1/901 2013/11/27
 10 11  0  0  0  0  0  0  0  0999 V2000
   11.7869   10.5488    8.8931 N   0  0  0  0  0  0  0  0  0  0  0  0
   11.9654    9.3875    8.1788 C   0  0  0  0  0  0  0  0  0  0  0  0
   11.8470    9.3476    6.8504 N   0  0  0  0  0  0  0  0  0  0  0  0
   11.5369   10.5545    6.2970 C   0  0  0  0  0  0  0  0  0  0  0  0
   11.3437   11.7526    6.9560 C   0  0  0  0  0  0  0  0  0  0  0  0
   11.4696   11.8032    8.3713 C   0  0  0  0  0  0  0  0  0  0  0  0
   11.3437   12.7536    9.1529 O   0  0  0  0  0  0  0  0  0  0  0  0
   11.0498   12.7134    6.0297 N   0  0  0  0  0  0  0  0  0  0  0  0
   11.0669   12.1064    4.8204 C   0  0  0  0  0  0  0  0  0  0  0  0
   11.3649   10.7672    4.9522 N   0  0  0  0  0  0  0  0  0  0  0  0
  1  2  1  0  0  0  0
  1  6  1  0  0  0  0
  2  3  2  0  0  0  0
  3  4  1  0  0  0  0
  4  5  2  0  0  0  0
  4 10  1  0  0  0  0
  5  6  1  0  0  0  0
  5  8  1  0  0  0  0
  6  7  2  0  0  0  0
  8  9  1  0  0  0  0
  9 10  2  0  0  0  0
M  END
>  <CHROM.1>
11.47553902,11.20130753,7.09137795,-1.07714182,1.34146126,-1.99295746

>  <Name>
ligand

>  <RI>
0

>  <Rbt.Current_Directory>
/home/itssahil/PROJECTS/Mol_Feturizer/Test_systems_manuscript/rnas/4fe5

>  <Rbt.Executable>
rbdock ($Id: //depot/dev/client3/rdock/2013.1/src/exe/rbdock.cxx#4 $)

>  <Rbt.Library>
libRbt.so (2013.1, Build901 2013/11/27)

>  <Rbt.Parameter_File>
/export/apps/rDock/src/rDock_2013.1_src/data/scripts/dock_solv.prm

>  <Rbt.Receptor>
prm/blind_docking_100.prm

>  <SCORE>
-17.456

>  <SCORE.INTER>
-17.456

>  <SCORE.INTER.CONST>
1

>  <SCORE.INTER.POLAR>
0

>  <SCORE.INTER.ROT>
0

>  <SCORE.INTER.SOLV>
3.90114

>  <SCORE.INTER.VDW>
-16.5377

>  <SCORE.INTER.norm>
-1.7456

>  <SCORE.INTRA>
0

>  <SCORE.INTRA.DIHEDRAL>
0

>  <SCORE.INTRA.DIHEDRAL.0>
0

>  <SCORE.INTRA.POLAR>
0

>  <SCORE.INTRA.POLAR.0>
0

>  <SCORE.INTRA.REPUL>
0

>  <SCORE.INTRA.REPUL.0>
0

>  <SCORE.INTRA.SOLV>
0

>  <SCORE.INTRA.SOLV.lig_0>
-4.28333

>  <SCORE.INTRA.VDW>
0

>  <SCORE.INTRA.VDW.0>
0

>  <SCORE.INTRA.norm>
0

>  <SCORE.RESTR>
0

>  <SCORE.RESTR.CAVITY>
0

>  <SCORE.RESTR.norm>
0

>  <SCORE.SYSTEM>
0

>  <SCORE.SYSTEM.CONST>
0

>  <SCORE.SYSTEM.DIHEDRAL>
0

>  <SCORE.SYSTEM.SOLV>
0

>  <SCORE.SYSTEM.norm>
0

>  <SCORE.heavy>
10

>  <SCORE.norm>
-1.7456

>  <RMSD>
2.421

$$$$
ligand
 OpenBabel02271912143D
libRbt.so/2013.1/901 2013/11/27
 10 11  0  0  0  0  0  0  0  0999 V2000
   11.7905   10.5482    8.9087 N   0  0  0  0  0  0  0  0  0  0  0  0
   11.9864    9.3843    8.2032 C   0  0  0  0  0  0  0  0  0  0  0  0
   11.8679    9.3324    6.8752 N   0  0  0  0  0  0  0  0  0  0  0  0
   11.5391   10.5302    6.3128 C   0  0  0  0  0  0  0  0  0  0  0  0
   11.3279   11.7302    6.9627 C   0  0  0  0  0  0  0  0  0  0  0  0
   11.4538   11.7936    8.3775 C   0  0  0  0  0  0  0  0  0  0  0  0
   11.3138   12.7479    9.1519 O   0  0  0  0  0  0  0  0  0  0  0  0
   11.0189   12.6793    6.0293 N   0  0  0  0  0  0  0  0  0  0  0  0
   11.0447   12.0633    4.8246 C   0  0  0  0  0  0  0  0  0  0  0  0
   11.3631   10.7299    4.9665 N   0  0  0  0  0  0  0  0  0  0  0  0
  1  2  1  0  0  0  0
  1  6  1  0  0  0  0
  2  3  2  0  0  0  0
  3  4  1  0  0  0  0
  4  5  2  0  0  0  0
  4 10  1  0  0  0  0
  5  6  1  0  0  0  0
  5  8  1  0  0  0  0
  6  7  2  0  0  0  0
  8  9  1  0  0  0  0
  9 10  2  0  0  0  0
M  END
>  <CHROM.1>
11.46825407,11.18203398,7.10224434,-1.10102895,1.32724696,-1.97740234

>  <Name>
ligand

>  <RI>
0

>  <Rbt.Current_Directory>
/home/itssahil/PROJECTS/Mol_Feturizer/Test_systems_manuscript/rnas/4fe5

>  <Rbt.Executable>
rbdock ($Id: //depot/dev/client3/rdock/2013.1/src/exe/rbdock.cxx#4 $)

>  <Rbt.Library>
libRbt.so (2013.1, Build901 2013/11/27)

>  <Rbt.Parameter_File>
/export/apps/rDock/src/rDock_2013.1_src/data/scripts/dock_solv.prm

>  <Rbt.Receptor>
prm/blind_docking_40.prm

>  <SCORE>
-17.4729

>  <SCORE.INTER>
-17.4729

>  <SCORE.INTER.CONST>
1

>  <SCORE.INTER.POLAR>
0

>  <SCORE.INTER.ROT>
0

>  <SCORE.INTER.SOLV>
3.89206

>  <SCORE.INTER.VDW>
-16.5459

>  <SCORE.INTER.norm>
-1.74729

>  <SCORE.INTRA>
0

>  <SCORE.INTRA.DIHEDRAL>
0

>  <SCORE.INTRA.DIHEDRAL.0>
0

>  <SCORE.INTRA.POLAR>
0

>  <SCORE.INTRA.POLAR.0>
0

>  <SCORE.INTRA.REPUL>
0

>  <SCORE.INTRA.REPUL.0>
0

>  <SCORE.INTRA.SOLV>
0

>  <SCORE.INTRA.SOLV.lig_0>
-4.28333

>  <SCORE.INTRA.VDW>
0

>  <SCORE.INTRA.VDW.0>
0

>  <SCORE.INTRA.norm>
0

>  <SCORE.RESTR>
0

>  <SCORE.RESTR.CAVITY>
0

>  <SCORE.RESTR.norm>
0

>  <SCORE.SYSTEM>
0

>  <SCORE.SYSTEM.CONST>
0

>  <SCORE.SYSTEM.DIHEDRAL>
0

>  <SCORE.SYSTEM.SOLV>
0

>  <SCORE.SYSTEM.norm>
0

>  <SCORE.heavy>
10

>  <SCORE.norm>
-1.74729

>  <RMSD>
2.421

$$$$
ligand
 OpenBabel02271912143D
libRbt.so/2013.1/901 2013/11/27
 10 11  0  0  0  0  0  0  0  0999 V2000
   11.7876   10.5385    8.9112 N   0  0  0  0  0  0  0  0  0  0  0  0
   11.9929    9.3781    8.2024 C   0  0  0  0  0  0  0  0  0  0  0  0
   11.8797    9.3303    6.8738 N   0  0  0  0  0  0  0  0  0  0  0  0
   11.5461   10.5280    6.3143 C   0  0  0  0  0  0  0  0  0  0  0  0
   11.3255   11.7246    6.9676 C   0  0  0  0  0  0  0  0  0  0  0  0
   11.4457   11.7837    8.3831 C   0  0  0  0  0  0  0  0  0  0  0  0
   11.2972   12.7345    9.1602 O   0  0  0  0  0  0  0  0  0  0  0  0
   11.0145   12.6751    6.0363 N   0  0  0  0  0  0  0  0  0  0  0  0
   11.0483   12.0635    4.8296 C   0  0  0  0  0  0  0  0  0  0  0  0
   11.3740   10.7315    4.9680 N   0  0  0  0  0  0  0  0  0  0  0  0
  1  2  1  0  0  0  0
  1  6  1  0  0  0  0
  2  3  2  0  0  0  0
  3  4  1  0  0  0  0
  4  5  2  0  0  0  0
  4 10  1  0  0  0  0
  5  6  1  0  0  0  0
  5  8  1  0  0  0  0
  6  7  2  0  0  0  0
  8  9  1  0  0  0  0
  9 10  2  0  0  0  0
M  END
>  <CHROM.1>
11.46846823,11.17672584,7.10574818,-1.12455946,1.32333181,-1.95107821

>  <Name>
ligand

>  <RI>
0

>  <Rbt.Current_Directory>
/home/itssahil/PROJECTS/Mol_Feturizer/Test_systems_manuscript/rnas/4fe5

>  <Rbt.Executable>
rbdock ($Id: //depot/dev/client3/rdock/2013.1/src/exe/rbdock.cxx#4 $)

>  <Rbt.Library>
libRbt.so (2013.1, Build901 2013/11/27)

>  <Rbt.Parameter_File>
/export/apps/rDock/src/rDock_2013.1_src/data/scripts/dock_solv.prm

>  <Rbt.Receptor>
prm/blind_docking_40.prm

>  <SCORE>
-17.5027

>  <SCORE.INTER>
-17.5027

>  <SCORE.INTER.CONST>
1

>  <SCORE.INTER.POLAR>
0

>  <SCORE.INTER.ROT>
0

>  <SCORE.INTER.SOLV>
3.88098

>  <SCORE.INTER.VDW>
-16.5621

>  <SCORE.INTER.norm>
-1.75027

>  <SCORE.INTRA>
0

>  <SCORE.INTRA.DIHEDRAL>
0

>  <SCORE.INTRA.DIHEDRAL.0>
0

>  <SCORE.INTRA.POLAR>
0

>  <SCORE.INTRA.POLAR.0>
0

>  <SCORE.INTRA.REPUL>
0

>  <SCORE.INTRA.REPUL.0>
0

>  <SCORE.INTRA.SOLV>
0

>  <SCORE.INTRA.SOLV.lig_0>
-4.28333

>  <SCORE.INTRA.VDW>
0

>  <SCORE.INTRA.VDW.0>
0

>  <SCORE.INTRA.norm>
0

>  <SCORE.RESTR>
0

>  <SCORE.RESTR.CAVITY>
0

>  <SCORE.RESTR.norm>
0

>  <SCORE.SYSTEM>
0

>  <SCORE.SYSTEM.CONST>
0

>  <SCORE.SYSTEM.DIHEDRAL>
0

>  <SCORE.SYSTEM.SOLV>
0

>  <SCORE.SYSTEM.norm>
0

>  <SCORE.heavy>
10

>  <SCORE.norm>
-1.75027

>  <RMSD>
2.421

$$$$
ligand
 OpenBabel02271912143D
libRbt.so/2013.1/901 2013/11/27
 10 11  0  0  0  0  0  0  0  0999 V2000
   11.8054   10.5929    8.8979 N   0  0  0  0  0  0  0  0  0  0  0  0
   11.9774    9.4180    8.2042 C   0  0  0  0  0  0  0  0  0  0  0  0
   11.8491    9.3533    6.8777 N   0  0  0  0  0  0  0  0  0  0  0  0
   11.5362   10.5500    6.3040 C   0  0  0  0  0  0  0  0  0  0  0  0
   11.3491   11.7605    6.9417 C   0  0  0  0  0  0  0  0  0  0  0  0
   11.4856   11.8376    8.3548 C   0  0  0  0  0  0  0  0  0  0  0  0
   11.3665   12.8027    9.1193 O   0  0  0  0  0  0  0  0  0  0  0  0
   11.0494   12.7041    5.9997 N   0  0  0  0  0  0  0  0  0  0  0  0
   11.0570   12.0743    4.8019 C   0  0  0  0  0  0  0  0  0  0  0  0
   11.3545   10.7375    4.9567 N   0  0  0  0  0  0  0  0  0  0  0  0
  1  2  1  0  0  0  0
  1  6  1  0  0  0  0
  2  3  2  0  0  0  0
  3  4  1  0  0  0  0
  4  5  2  0  0  0  0
  4 10  1  0  0  0  0
  5  6  1  0  0  0  0
  5  8  1  0  0  0  0
  6  7  2  0  0  0  0
  8  9  1  0  0  0  0
  9 10  2  0  0  0  0
M  END
>  <CHROM.1>
11.48141417,11.21168464,7.08650061,-1.04580439,1.33929878,-2.04230220

>  <Name>
ligand

>  <RI>
0

>  <Rbt.Current_Directory>
/home/itssahil/PROJECTS/Mol_Feturizer/Test_systems_manuscript/rnas/4fe5

>  <Rbt.Executable>
rbdock ($Id: //depot/dev/client3/rdock/2013.1/src/exe/rbdock.cxx#4 $)

>  <Rbt.Library>
libRbt.so (2013.1, Build901 2013/11/27)

>  <Rbt.Parameter_File>
/export/apps/rDock/src/rDock_2013.1_src/data/scripts/dock_solv.prm

>  <Rbt.Receptor>
prm/blind_docking_80.prm

>  <SCORE>
-17.4998

>  <SCORE.INTER>
-17.4998

>  <SCORE.INTER.CONST>
1

>  <SCORE.INTER.POLAR>
0

>  <SCORE.INTER.ROT>
0

>  <SCORE.INTER.SOLV>
3.93746

>  <SCORE.INTER.VDW>
-16.579

>  <SCORE.INTER.norm>
-1.74998

>  <SCORE.INTRA>
0

>  <SCORE.INTRA.DIHEDRAL>
0

>  <SCORE.INTRA.DIHEDRAL.0>
0

>  <SCORE.INTRA.POLAR>
0

>  <SCORE.INTRA.POLAR.0>
0

>  <SCORE.INTRA.REPUL>
0

>  <SCORE.INTRA.REPUL.0>
0

>  <SCORE.INTRA.SOLV>
0

>  <SCORE.INTRA.SOLV.lig_0>
-4.28333

>  <SCORE.INTRA.VDW>
0

>  <SCORE.INTRA.VDW.0>
0

>  <SCORE.INTRA.norm>
0

>  <SCORE.RESTR>
0

>  <SCORE.RESTR.CAVITY>
0

>  <SCORE.RESTR.norm>
0

>  <SCORE.SYSTEM>
0

>  <SCORE.SYSTEM.CONST>
0

>  <SCORE.SYSTEM.DIHEDRAL>
0

>  <SCORE.SYSTEM.SOLV>
0

>  <SCORE.SYSTEM.norm>
0

>  <SCORE.heavy>
10

>  <SCORE.norm>
-1.74998

>  <RMSD>
2.421

$$$$
ligand
 OpenBabel02271912143D
libRbt.so/2013.1/901 2013/11/27
 10 11  0  0  0  0  0  0  0  0999 V2000
   11.7854   10.5378    8.9130 N   0  0  0  0  0  0  0  0  0  0  0  0
   11.9851    9.3763    8.2043 C   0  0  0  0  0  0  0  0  0  0  0  0
   11.8708    9.3286    6.8758 N   0  0  0  0  0  0  0  0  0  0  0  0
   11.5422   10.5277    6.3162 C   0  0  0  0  0  0  0  0  0  0  0  0
   11.3273   11.7254    6.9693 C   0  0  0  0  0  0  0  0  0  0  0  0
   11.4487   11.7843    8.3847 C   0  0  0  0  0  0  0  0  0  0  0  0
   11.3049   12.7360    9.1617 O   0  0  0  0  0  0  0  0  0  0  0  0
   11.0200   12.6770    6.0380 N   0  0  0  0  0  0  0  0  0  0  0  0
   11.0503   12.0649    4.8314 C   0  0  0  0  0  0  0  0  0  0  0  0
   11.3702   10.7315    4.9700 N   0  0  0  0  0  0  0  0  0  0  0  0
  1  2  1  0  0  0  0
  1  6  1  0  0  0  0
  2  3  2  0  0  0  0
  3  4  1  0  0  0  0
  4  5  2  0  0  0  0
  4 10  1  0  0  0  0
  5  6  1  0  0  0  0
  5  8  1  0  0  0  0
  6  7  2  0  0  0  0
  8  9  1  0  0  0  0
  9 10  2  0  0  0  0
M  END
>  <CHROM.1>
11.46796446,11.17691853,7.10752186,-1.11528308,1.32721503,-1.96035827

>  <Name>
ligand

>  <RI>
0

>  <Rbt.Current_Directory>
/home/itssahil/PROJECTS/Mol_Feturizer/Test_systems_manuscript/rnas/4fe5

>  <Rbt.Executable>
rbdock ($Id: //depot/dev/client3/rdock/2013.1/src/exe/rbdock.cxx#4 $)

>  <Rbt.Library>
libRbt.so (2013.1, Build901 2013/11/27)

>  <Rbt.Parameter_File>
/export/apps/rDock/src/rDock_2013.1_src/data/scripts/dock_solv.prm

>  <Rbt.Receptor>
prm/pocket_docking_3.prm

>  <SCORE>
-17.5061

>  <SCORE.INTER>
-17.5061

>  <SCORE.INTER.CONST>
1

>  <SCORE.INTER.POLAR>
0

>  <SCORE.INTER.ROT>
0

>  <SCORE.INTER.SOLV>
3.88619

>  <SCORE.INTER.VDW>
-16.5662

>  <SCORE.INTER.norm>
-1.75061

>  <SCORE.INTRA>
0

>  <SCORE.INTRA.DIHEDRAL>
0

>  <SCORE.INTRA.DIHEDRAL.0>
0

>  <SCORE.INTRA.POLAR>
0

>  <SCORE.INTRA.POLAR.0>
0

>  <SCORE.INTRA.REPUL>
0

>  <SCORE.INTRA.REPUL.0>
0

>  <SCORE.INTRA.SOLV>
0

>  <SCORE.INTRA.SOLV.lig_0>
-4.28333

>  <SCORE.INTRA.VDW>
0

>  <SCORE.INTRA.VDW.0>
0

>  <SCORE.INTRA.norm>
0

>  <SCORE.RESTR>
0

>  <SCORE.RESTR.CAVITY>
0

>  <SCORE.RESTR.norm>
0

>  <SCORE.SYSTEM>
0

>  <SCORE.SYSTEM.CONST>
0

>  <SCORE.SYSTEM.DIHEDRAL>
0

>  <SCORE.SYSTEM.SOLV>
0

>  <SCORE.SYSTEM.norm>
0

>  <SCORE.heavy>
10

>  <SCORE.norm>
-1.75061

>  <RMSD>
2.421

$$$$
ligand
 OpenBabel02271912143D
libRbt.so/2013.1/901 2013/11/27
 10 11  0  0  0  0  0  0  0  0999 V2000
   11.8031   10.5700    8.8754 N   0  0  0  0  0  0  0  0  0  0  0  0
   11.9790    9.4056    8.1654 C   0  0  0  0  0  0  0  0  0  0  0  0
   11.8559    9.3600    6.8376 N   0  0  0  0  0  0  0  0  0  0  0  0
   11.5440   10.5645    6.2801 C   0  0  0  0  0  0  0  0  0  0  0  0
   11.3531   11.7655    6.9346 C   0  0  0  0  0  0  0  0  0  0  0  0
   11.4840   11.8222    8.3492 C   0  0  0  0  0  0  0  0  0  0  0  0
   11.3610   12.7760    9.1271 O   0  0  0  0  0  0  0  0  0  0  0  0
   11.0561   12.7223    6.0052 N   0  0  0  0  0  0  0  0  0  0  0  0
   11.0689   12.1100    4.7984 C   0  0  0  0  0  0  0  0  0  0  0  0
   11.3672   10.7714    4.9350 N   0  0  0  0  0  0  0  0  0  0  0  0
  1  2  1  0  0  0  0
  1  6  1  0  0  0  0
  2  3  2  0  0  0  0
  3  4  1  0  0  0  0
  4  5  2  0  0  0  0
  4 10  1  0  0  0  0
  5  6  1  0  0  0  0
  5  8  1  0  0  0  0
  6  7  2  0  0  0  0
  8  9  1  0  0  0  0
  9 10  2  0  0  0  0
M  END
>  <CHROM.1>
11.48541131,11.21473359,7.07190745,-1.06289443,1.34008408,-2.01116138

>  <Name>
ligand

>  <RI>
0

>  <Rbt.Current_Directory>
/home/itssahil/PROJECTS/Mol_Feturizer/Test_systems_manuscript/rnas/4fe5

>  <Rbt.Executable>
rbdock ($Id: //depot/dev/client3/rdock/2013.1/src/exe/rbdock.cxx#4 $)

>  <Rbt.Library>
libRbt.so (2013.1, Build901 2013/11/27)

>  <Rbt.Parameter_File>
/export/apps/rDock/src/rDock_2013.1_src/data/scripts/dock_solv.prm

>  <Rbt.Receptor>
prm/pocket_docking_3.prm

>  <SCORE>
-17.4888

>  <SCORE.INTER>
-17.4888

>  <SCORE.INTER.CONST>
1

>  <SCORE.INTER.POLAR>
0

>  <SCORE.INTER.ROT>
0

>  <SCORE.INTER.SOLV>
3.90976

>  <SCORE.INTER.VDW>
-16.5625

>  <SCORE.INTER.norm>
-1.74888

>  <SCORE.INTRA>
0

>  <SCORE.INTRA.DIHEDRAL>
0

>  <SCORE.INTRA.DIHEDRAL.0>
0

>  <SCORE.INTRA.POLAR>
0

>  <SCORE.INTRA.POLAR.0>
0

>  <SCORE.INTRA.REPUL>
0

>  <SCORE.INTRA.REPUL.0>
0

>  <SCORE.INTRA.SOLV>
0

>  <SCORE.INTRA.SOLV.lig_0>
-4.28333

>  <SCORE.INTRA.VDW>
0

>  <SCORE.INTRA.VDW.0>
0

>  <SCORE.INTRA.norm>
0

>  <SCORE.RESTR>
0

>  <SCORE.RESTR.CAVITY>
0

>  <SCORE.RESTR.norm>
0

>  <SCORE.SYSTEM>
0

>  <SCORE.SYSTEM.CONST>
0

>  <SCORE.SYSTEM.DIHEDRAL>
0

>  <SCORE.SYSTEM.SOLV>
0

>  <SCORE.SYSTEM.norm>
0

>  <SCORE.heavy>
10

>  <SCORE.norm>
-1.74888

>  <RMSD>
2.421

$$$$
ligand
 OpenBabel02271912143D
libRbt.so/2013.1/901 2013/11/27
 10 11  0  0  0  0  0  0  0  0999 V2000
   11.7920   10.5735    8.9125 N   0  0  0  0  0  0  0  0  0  0  0  0
   11.9788    9.4013    8.2182 C   0  0  0  0  0  0  0  0  0  0  0  0
   11.8575    9.3371    6.8910 N   0  0  0  0  0  0  0  0  0  0  0  0
   11.5357   10.5313    6.3173 C   0  0  0  0  0  0  0  0  0  0  0  0
   11.3338   11.7392    6.9556 C   0  0  0  0  0  0  0  0  0  0  0  0
   11.4627   11.8157    8.3695 C   0  0  0  0  0  0  0  0  0  0  0  0
   11.3305   12.7786    9.1346 O   0  0  0  0  0  0  0  0  0  0  0  0
   11.0294   12.6810    6.0133 N   0  0  0  0  0  0  0  0  0  0  0  0
   11.0489   12.0529    4.8148 C   0  0  0  0  0  0  0  0  0  0  0  0
   11.3586   10.7188    4.9694 N   0  0  0  0  0  0  0  0  0  0  0  0
  1  2  1  0  0  0  0
  1  6  1  0  0  0  0
  2  3  2  0  0  0  0
  3  4  1  0  0  0  0
  4  5  2  0  0  0  0
  4 10  1  0  0  0  0
  5  6  1  0  0  0  0
  5  8  1  0  0  0  0
  6  7  2  0  0  0  0
  8  9  1  0  0  0  0
  9 10  2  0  0  0  0
M  END
>  <CHROM.1>
11.47071922,11.19145628,7.10034535,-1.08266517,1.33263720,-2.00517934

>  <Name>
ligand

>  <RI>
0

>  <Rbt.Current_Directory>
/home/itssahil/PROJECTS/Mol_Feturizer/Test_systems_manuscript/rnas/4fe5

>  <Rbt.Executable>
rbdock ($Id: //depot/dev/client3/rdock/2013.1/src/exe/rbdock.cxx#4 $)

>  <Rbt.Library>
libRbt.so (2013.1, Build901 2013/11/27)

>  <Rbt.Parameter_File>
/export/apps/rDock/src/rDock_2013.1_src/data/scripts/dock_solv.prm

>  <Rbt.Receptor>
prm/pocket_docking_5.prm

>  <SCORE>
-17.478

>  <SCORE.INTER>
-17.478

>  <SCORE.INTER.CONST>
1

>  <SCORE.INTER.POLAR>
0

>  <SCORE.INTER.ROT>
0

>  <SCORE.INTER.SOLV>
3.91976

>  <SCORE.INTER.VDW>
-16.5586

>  <SCORE.INTER.norm>
-1.7478

>  <SCORE.INTRA>
0

>  <SCORE.INTRA.DIHEDRAL>
0

>  <SCORE.INTRA.DIHEDRAL.0>
0

>  <SCORE.INTRA.POLAR>
0

>  <SCORE.INTRA.POLAR.0>
0

>  <SCORE.INTRA.REPUL>
0

>  <SCORE.INTRA.REPUL.0>
0

>  <SCORE.INTRA.SOLV>
0

>  <SCORE.INTRA.SOLV.lig_0>
-4.28333

>  <SCORE.INTRA.VDW>
0

>  <SCORE.INTRA.VDW.0>
0

>  <SCORE.INTRA.norm>
0

>  <SCORE.RESTR>
0

>  <SCORE.RESTR.CAVITY>
0

>  <SCORE.RESTR.norm>
0

>  <SCORE.SYSTEM>
0

>  <SCORE.SYSTEM.CONST>
0

>  <SCORE.SYSTEM.DIHEDRAL>
0

>  <SCORE.SYSTEM.SOLV>
0

>  <SCORE.SYSTEM.norm>
0

>  <SCORE.heavy>
10

>  <SCORE.norm>
-1.7478

>  <RMSD>
2.421

$$$$
ligand
 OpenBabel02271912143D
libRbt.so/2013.1/901 2013/11/27
 10 11  0  0  0  0  0  0  0  0999 V2000
   11.7903   10.5635    8.9129 N   0  0  0  0  0  0  0  0  0  0  0  0
   11.9809    9.3940    8.2152 C   0  0  0  0  0  0  0  0  0  0  0  0
   11.8622    9.3338    6.8876 N   0  0  0  0  0  0  0  0  0  0  0  0
   11.5389   10.5292    6.3171 C   0  0  0  0  0  0  0  0  0  0  0  0
   11.3331   11.7345    6.9590 C   0  0  0  0  0  0  0  0  0  0  0  0
   11.4592   11.8067    8.3733 C   0  0  0  0  0  0  0  0  0  0  0  0
   11.3235   12.7669    9.1413 O   0  0  0  0  0  0  0  0  0  0  0  0
   11.0284   12.6787    6.0192 N   0  0  0  0  0  0  0  0  0  0  0  0
   11.0514   12.0546    4.8187 C   0  0  0  0  0  0  0  0  0  0  0  0
   11.3638   10.7207    4.9695 N   0  0  0  0  0  0  0  0  0  0  0  0
  1  2  1  0  0  0  0
  1  6  1  0  0  0  0
  2  3  2  0  0  0  0
  3  4  1  0  0  0  0
  4  5  2  0  0  0  0
  4 10  1  0  0  0  0
  5  6  1  0  0  0  0
  5  8  1  0  0  0  0
  6  7  2  0  0  0  0
  8  9  1  0  0  0  0
  9 10  2  0  0  0  0
M  END
>  <CHROM.1>
11.47094500,11.18663186,7.10216303,-1.09366195,1.33137930,-1.99124545

>  <Name>
ligand

>  <RI>
0

>  <Rbt.Current_Directory>
/home/itssahil/PROJECTS/Mol_Feturizer/Test_systems_manuscript/rnas/4fe5

>  <Rbt.Executable>
rbdock ($Id: //depot/dev/client3/rdock/2013.1/src/exe/rbdock.cxx#4 $)

>  <Rbt.Library>
libRbt.so (2013.1, Build901 2013/11/27)

>  <Rbt.Parameter_File>
/export/apps/rDock/src/rDock_2013.1_src/data/scripts/dock_solv.prm

>  <Rbt.Receptor>
prm/pocket_docking_5.prm

>  <SCORE>
-17.4757

>  <SCORE.INTER>
-17.4757

>  <SCORE.INTER.CONST>
1

>  <SCORE.INTER.POLAR>
0

>  <SCORE.INTER.ROT>
0

>  <SCORE.INTER.SOLV>
3.91089

>  <SCORE.INTER.VDW>
-16.5541

>  <SCORE.INTER.norm>
-1.74757

>  <SCORE.INTRA>
0

>  <SCORE.INTRA.DIHEDRAL>
0

>  <SCORE.INTRA.DIHEDRAL.0>
0

>  <SCORE.INTRA.POLAR>
0

>  <SCORE.INTRA.POLAR.0>
0

>  <SCORE.INTRA.REPUL>
0

>  <SCORE.INTRA.REPUL.0>
0

>  <SCORE.INTRA.SOLV>
0

>  <SCORE.INTRA.SOLV.lig_0>
-4.28333

>  <SCORE.INTRA.VDW>
0

>  <SCORE.INTRA.VDW.0>
0

>  <SCORE.INTRA.norm>
0

>  <SCORE.RESTR>
0

>  <SCORE.RESTR.CAVITY>
0

>  <SCORE.RESTR.norm>
0

>  <SCORE.SYSTEM>
0

>  <SCORE.SYSTEM.CONST>
0

>  <SCORE.SYSTEM.DIHEDRAL>
0

>  <SCORE.SYSTEM.SOLV>
0

>  <SCORE.SYSTEM.norm>
0

>  <SCORE.heavy>
10

>  <SCORE.norm>
-1.74757

>  <RMSD>
2.421

$$$$
ligand
 OpenBabel02271912143D
libRbt.so/2013.1/901 2013/11/27
 10 11  0  0  0  0  0  0  0  0999 V2000
   11.8024   10.5904    8.8952 N   0  0  0  0  0  0  0  0  0  0  0  0
   11.9762    9.4148    8.2034 C   0  0  0  0  0  0  0  0  0  0  0  0
   11.8509    9.3484    6.8767 N   0  0  0  0  0  0  0  0  0  0  0  0
   11.5390   10.5443    6.3009 C   0  0  0  0  0  0  0  0  0  0  0  0
   11.3502   11.7555    6.9367 C   0  0  0  0  0  0  0  0  0  0  0  0
   11.4835   11.8344    8.3500 C   0  0  0  0  0  0  0  0  0  0  0  0
   11.3625   12.8004    9.1130 O   0  0  0  0  0  0  0  0  0  0  0  0
   11.0524   12.6979    5.9928 N   0  0  0  0  0  0  0  0  0  0  0  0
   11.0627   12.0667    4.7958 C   0  0  0  0  0  0  0  0  0  0  0  0
   11.3602   10.7301    4.9529 N   0  0  0  0  0  0  0  0  0  0  0  0
  1  2  1  0  0  0  0
  1  6  1  0  0  0  0
  2  3  2  0  0  0  0
  3  4  1  0  0  0  0
  4  5  2  0  0  0  0
  4 10  1  0  0  0  0
  5  6  1  0  0  0  0
  5  8  1  0  0  0  0
  6  7  2  0  0  0  0
  8  9  1  0  0  0  0
  9 10  2  0  0  0  0
M  END
>  <CHROM.1>
11.48228151,11.20692874,7.08239494,-1.05486687,1.34008073,-2.03470179

>  <Name>
ligand

>  <RI>
0

>  <Rbt.Current_Directory>
/home/itssahil/PROJECTS/Mol_Feturizer/Test_systems_manuscript/rnas/4fe5

>  <Rbt.Executable>
rbdock ($Id: //depot/dev/client3/rdock/2013.1/src/exe/rbdock.cxx#4 $)

>  <Rbt.Library>
libRbt.so (2013.1, Build901 2013/11/27)

>  <Rbt.Parameter_File>
/export/apps/rDock/src/rDock_2013.1_src/data/scripts/dock_solv.prm

>  <Rbt.Receptor>
prm/pocket_docking_5.prm

>  <SCORE>
-17.5016

>  <SCORE.INTER>
-17.5016

>  <SCORE.INTER.CONST>
1

>  <SCORE.INTER.POLAR>
0

>  <SCORE.INTER.ROT>
0

>  <SCORE.INTER.SOLV>
3.93731

>  <SCORE.INTER.VDW>
-16.5802

>  <SCORE.INTER.norm>
-1.75016

>  <SCORE.INTRA>
0

>  <SCORE.INTRA.DIHEDRAL>
0

>  <SCORE.INTRA.DIHEDRAL.0>
0

>  <SCORE.INTRA.POLAR>
0

>  <SCORE.INTRA.POLAR.0>
0

>  <SCORE.INTRA.REPUL>
0

>  <SCORE.INTRA.REPUL.0>
0

>  <SCORE.INTRA.SOLV>
0

>  <SCORE.INTRA.SOLV.lig_0>
-4.28333

>  <SCORE.INTRA.VDW>
0

>  <SCORE.INTRA.VDW.0>
0

>  <SCORE.INTRA.norm>
0

>  <SCORE.RESTR>
0

>  <SCORE.RESTR.CAVITY>
0

>  <SCORE.RESTR.norm>
0

>  <SCORE.SYSTEM>
0

>  <SCORE.SYSTEM.CONST>
0

>  <SCORE.SYSTEM.DIHEDRAL>
0

>  <SCORE.SYSTEM.SOLV>
0

>  <SCORE.SYSTEM.norm>
0

>  <SCORE.heavy>
10

>  <SCORE.norm>
-1.75016

>  <RMSD>
2.421

$$$$
ligand
 OpenBabel02271912143D
libRbt.so/2013.1/901 2013/11/27
 10 11  0  0  0  0  0  0  0  0999 V2000
   11.8039   10.5918    8.8966 N   0  0  0  0  0  0  0  0  0  0  0  0
   11.9754    9.4158    8.2047 C   0  0  0  0  0  0  0  0  0  0  0  0
   11.8489    9.3496    6.8781 N   0  0  0  0  0  0  0  0  0  0  0  0
   11.5384   10.5459    6.3024 C   0  0  0  0  0  0  0  0  0  0  0  0
   11.3519   11.7575    6.9383 C   0  0  0  0  0  0  0  0  0  0  0  0
   11.4865   11.8362    8.3515 C   0  0  0  0  0  0  0  0  0  0  0  0
   11.3676   12.8025    9.1145 O   0  0  0  0  0  0  0  0  0  0  0  0
   11.0548   12.7002    5.9946 N   0  0  0  0  0  0  0  0  0  0  0  0
   11.0632   12.0689    4.7976 C   0  0  0  0  0  0  0  0  0  0  0  0
   11.3588   10.7319    4.9546 N   0  0  0  0  0  0  0  0  0  0  0  0
  1  2  1  0  0  0  0
  1  6  1  0  0  0  0
  2  3  2  0  0  0  0
  3  4  1  0  0  0  0
  4  5  2  0  0  0  0
  4 10  1  0  0  0  0
  5  6  1  0  0  0  0
  5  8  1  0  0  0  0
  6  7  2  0  0  0  0
  8  9  1  0  0  0  0
  9 10  2  0  0  0  0
M  END
>  <CHROM.1>
11.48329734,11.20867543,7.08395230,-1.04870508,1.34110480,-2.04077785

>  <Name>
ligand

>  <RI>
0

>  <Rbt.Current_Directory>
/home/itssahil/PROJECTS/Mol_Feturizer/Test_systems_manuscript/rnas/4fe5

>  <Rbt.Executable>
rbdock ($Id: //depot/dev/client3/rdock/2013.1/src/exe/rbdock.cxx#4 $)

>  <Rbt.Library>
libRbt.so (2013.1, Build901 2013/11/27)

>  <Rbt.Parameter_File>
/export/apps/rDock/src/rDock_2013.1_src/data/scripts/dock_solv.prm

>  <Rbt.Receptor>
prm/pocket_docking_5.prm

>  <SCORE>
-17.5017

>  <SCORE.INTER>
-17.5017

>  <SCORE.INTER.CONST>
1

>  <SCORE.INTER.POLAR>
0

>  <SCORE.INTER.ROT>
0

>  <SCORE.INTER.SOLV>
3.93994

>  <SCORE.INTER.VDW>
-16.5811

>  <SCORE.INTER.norm>
-1.75017

>  <SCORE.INTRA>
0

>  <SCORE.INTRA.DIHEDRAL>
0

>  <SCORE.INTRA.DIHEDRAL.0>
0

>  <SCORE.INTRA.POLAR>
0

>  <SCORE.INTRA.POLAR.0>
0

>  <SCORE.INTRA.REPUL>
0

>  <SCORE.INTRA.REPUL.0>
0

>  <SCORE.INTRA.SOLV>
0

>  <SCORE.INTRA.SOLV.lig_0>
-4.28333

>  <SCORE.INTRA.VDW>
0

>  <SCORE.INTRA.VDW.0>
0

>  <SCORE.INTRA.norm>
0

>  <SCORE.RESTR>
0

>  <SCORE.RESTR.CAVITY>
0

>  <SCORE.RESTR.norm>
0

>  <SCORE.SYSTEM>
0

>  <SCORE.SYSTEM.CONST>
0

>  <SCORE.SYSTEM.DIHEDRAL>
0

>  <SCORE.SYSTEM.SOLV>
0

>  <SCORE.SYSTEM.norm>
0

>  <SCORE.heavy>
10

>  <SCORE.norm>
-1.75017

>  <RMSD>
2.421

$$$$
ligand
 OpenBabel02271912143D
libRbt.so/2013.1/901 2013/11/27
 10 11  0  0  0  0  0  0  0  0999 V2000
   11.7955   10.5756    8.9062 N   0  0  0  0  0  0  0  0  0  0  0  0
   11.9877    9.4043    8.2119 C   0  0  0  0  0  0  0  0  0  0  0  0
   11.8662    9.3394    6.8848 N   0  0  0  0  0  0  0  0  0  0  0  0
   11.5383   10.5320    6.3111 C   0  0  0  0  0  0  0  0  0  0  0  0
   11.3307   11.7389    6.9494 C   0  0  0  0  0  0  0  0  0  0  0  0
   11.4598   11.8162    8.3632 C   0  0  0  0  0  0  0  0  0  0  0  0
   11.3232   12.7785    9.1283 O   0  0  0  0  0  0  0  0  0  0  0  0
   11.0213   12.6791    6.0072 N   0  0  0  0  0  0  0  0  0  0  0  0
   11.0433   12.0511    4.8087 C   0  0  0  0  0  0  0  0  0  0  0  0
   11.3597   10.7185    4.9632 N   0  0  0  0  0  0  0  0  0  0  0  0
  1  2  1  0  0  0  0
  1  6  1  0  0  0  0
  2  3  2  0  0  0  0
  3  4  1  0  0  0  0
  4  5  2  0  0  0  0
  4 10  1  0  0  0  0
  5  6  1  0  0  0  0
  5  8  1  0  0  0  0
  6  7  2  0  0  0  0
  8  9  1  0  0  0  0
  9 10  2  0  0  0  0
M  END
>  <CHROM.1>
11.47034803,11.19189019,7.09410538,-1.08966871,1.32799263,-1.99845333

>  <Name>
ligand

>  <RI>
0

>  <Rbt.Current_Directory>
/home/itssahil/PROJECTS/Mol_Feturizer/Test_systems_manuscript/rnas/4fe5

>  <Rbt.Executable>
rbdock ($Id: //depot/dev/client3/rdock/2013.1/src/exe/rbdock.cxx#4 $)

>  <Rbt.Library>
libRbt.so (2013.1, Build901 2013/11/27)

>  <Rbt.Parameter_File>
/export/apps/rDock/src/rDock_2013.1_src/data/scripts/dock_solv.prm

>  <Rbt.Receptor>
prm/blind_docking_100.prm

>  <SCORE>
-17.4781

>  <SCORE.INTER>
-17.4781

>  <SCORE.INTER.CONST>
1

>  <SCORE.INTER.POLAR>
0

>  <SCORE.INTER.ROT>
0

>  <SCORE.INTER.SOLV>
3.91402

>  <SCORE.INTER.VDW>
-16.5567

>  <SCORE.INTER.norm>
-1.74781

>  <SCORE.INTRA>
0

>  <SCORE.INTRA.DIHEDRAL>
0

>  <SCORE.INTRA.DIHEDRAL.0>
0

>  <SCORE.INTRA.POLAR>
0

>  <SCORE.INTRA.POLAR.0>
0

>  <SCORE.INTRA.REPUL>
0

>  <SCORE.INTRA.REPUL.0>
0

>  <SCORE.INTRA.SOLV>
0

>  <SCORE.INTRA.SOLV.lig_0>
-4.28333

>  <SCORE.INTRA.VDW>
0

>  <SCORE.INTRA.VDW.0>
0

>  <SCORE.INTRA.norm>
0

>  <SCORE.RESTR>
0

>  <SCORE.RESTR.CAVITY>
0

>  <SCORE.RESTR.norm>
0

>  <SCORE.SYSTEM>
0

>  <SCORE.SYSTEM.CONST>
0

>  <SCORE.SYSTEM.DIHEDRAL>
0

>  <SCORE.SYSTEM.SOLV>
0

>  <SCORE.SYSTEM.norm>
0

>  <SCORE.heavy>
10

>  <SCORE.norm>
-1.74781

>  <RMSD>
2.422

$$$$
ligand
 OpenBabel02271912143D
libRbt.so/2013.1/901 2013/11/27
 10 11  0  0  0  0  0  0  0  0999 V2000
   11.7890   10.5737    8.9080 N   0  0  0  0  0  0  0  0  0  0  0  0
   11.9859    9.4047    8.2112 C   0  0  0  0  0  0  0  0  0  0  0  0
   11.8668    9.3426    6.8837 N   0  0  0  0  0  0  0  0  0  0  0  0
   11.5363   10.5356    6.3124 C   0  0  0  0  0  0  0  0  0  0  0  0
   11.3240   11.7403    6.9533 C   0  0  0  0  0  0  0  0  0  0  0  0
   11.4505   11.8146    8.3674 C   0  0  0  0  0  0  0  0  0  0  0  0
   11.3098   12.7746    9.1346 O   0  0  0  0  0  0  0  0  0  0  0  0
   11.0134   12.6819    6.0128 N   0  0  0  0  0  0  0  0  0  0  0  0
   11.0392   12.0568    4.8128 C   0  0  0  0  0  0  0  0  0  0  0  0
   11.3594   10.7249    4.9647 N   0  0  0  0  0  0  0  0  0  0  0  0
  1  2  1  0  0  0  0
  1  6  1  0  0  0  0
  2  3  2  0  0  0  0
  3  4  1  0  0  0  0
  4  5  2  0  0  0  0
  4 10  1  0  0  0  0
  5  6  1  0  0  0  0
  5  8  1  0  0  0  0
  6  7  2  0  0  0  0
  8  9  1  0  0  0  0
  9 10  2  0  0  0  0
M  END
>  <CHROM.1>
11.46507039,11.19340126,7.09687330,-1.10106354,1.32593478,-1.98497327

>  <Name>
ligand

>  <RI>
0

>  <Rbt.Current_Directory>
/home/itssahil/PROJECTS/Mol_Feturizer/Test_systems_manuscript/rnas/4fe5

>  <Rbt.Executable>
rbdock ($Id: //depot/dev/client3/rdock/2013.1/src/exe/rbdock.cxx#4 $)

>  <Rbt.Library>
libRbt.so (2013.1, Build901 2013/11/27)

>  <Rbt.Parameter_File>
/export/apps/rDock/src/rDock_2013.1_src/data/scripts/dock_solv.prm

>  <Rbt.Receptor>
prm/blind_docking_40.prm

>  <SCORE>
-17.4711

>  <SCORE.INTER>
-17.4711

>  <SCORE.INTER.CONST>
1

>  <SCORE.INTER.POLAR>
0

>  <SCORE.INTER.ROT>
0

>  <SCORE.INTER.SOLV>
3.91227

>  <SCORE.INTER.VDW>
-16.5515

>  <SCORE.INTER.norm>
-1.74711

>  <SCORE.INTRA>
0

>  <SCORE.INTRA.DIHEDRAL>
0

>  <SCORE.INTRA.DIHEDRAL.0>
0

>  <SCORE.INTRA.POLAR>
0

>  <SCORE.INTRA.POLAR.0>
0

>  <SCORE.INTRA.REPUL>
0

>  <SCORE.INTRA.REPUL.0>
0

>  <SCORE.INTRA.SOLV>
0

>  <SCORE.INTRA.SOLV.lig_0>
-4.28333

>  <SCORE.INTRA.VDW>
0

>  <SCORE.INTRA.VDW.0>
0

>  <SCORE.INTRA.norm>
0

>  <SCORE.RESTR>
0

>  <SCORE.RESTR.CAVITY>
0

>  <SCORE.RESTR.norm>
0

>  <SCORE.SYSTEM>
0

>  <SCORE.SYSTEM.CONST>
0

>  <SCORE.SYSTEM.DIHEDRAL>
0

>  <SCORE.SYSTEM.SOLV>
0

>  <SCORE.SYSTEM.norm>
0

>  <SCORE.heavy>
10

>  <SCORE.norm>
-1.74711

>  <RMSD>
2.422

$$$$
ligand
 OpenBabel02271912143D
libRbt.so/2013.1/901 2013/11/27
 10 11  0  0  0  0  0  0  0  0999 V2000
   11.7739   10.5525    8.8965 N   0  0  0  0  0  0  0  0  0  0  0  0
   11.9602    9.3932    8.1808 C   0  0  0  0  0  0  0  0  0  0  0  0
   11.8500    9.3559    6.8517 N   0  0  0  0  0  0  0  0  0  0  0  0
   11.5397   10.5630    6.2990 C   0  0  0  0  0  0  0  0  0  0  0  0
   11.3389   11.7591    6.9593 C   0  0  0  0  0  0  0  0  0  0  0  0
   11.4561   11.8071    8.3754 C   0  0  0  0  0  0  0  0  0  0  0  0
   11.3226   12.7555    9.1582 O   0  0  0  0  0  0  0  0  0  0  0  0
   11.0478   12.7211    6.0333 N   0  0  0  0  0  0  0  0  0  0  0  0
   11.0741   12.1166    4.8228 C   0  0  0  0  0  0  0  0  0  0  0  0
   11.3752   10.7780    4.9536 N   0  0  0  0  0  0  0  0  0  0  0  0
  1  2  1  0  0  0  0
  1  6  1  0  0  0  0
  2  3  2  0  0  0  0
  3  4  1  0  0  0  0
  4  5  2  0  0  0  0
  4 10  1  0  0  0  0
  5  6  1  0  0  0  0
  5  8  1  0  0  0  0
  6  7  2  0  0  0  0
  8  9  1  0  0  0  0
  9 10  2  0  0  0  0
M  END
>  <CHROM.1>
11.47156055,11.20792530,7.09431265,-1.10674479,1.34115997,-1.96200890

>  <Name>
ligand

>  <RI>
0

>  <Rbt.Current_Directory>
/home/itssahil/PROJECTS/Mol_Feturizer/Test_systems_manuscript/rnas/4fe5

>  <Rbt.Executable>
rbdock ($Id: //depot/dev/client3/rdock/2013.1/src/exe/rbdock.cxx#4 $)

>  <Rbt.Library>
libRbt.so (2013.1, Build901 2013/11/27)

>  <Rbt.Parameter_File>
/export/apps/rDock/src/rDock_2013.1_src/data/scripts/dock_solv.prm

>  <Rbt.Receptor>
prm/blind_docking_40.prm

>  <SCORE>
-17.4703

>  <SCORE.INTER>
-17.4703

>  <SCORE.INTER.CONST>
1

>  <SCORE.INTER.POLAR>
0

>  <SCORE.INTER.ROT>
0

>  <SCORE.INTER.SOLV>
3.90805

>  <SCORE.INTER.VDW>
-16.5496

>  <SCORE.INTER.norm>
-1.74703

>  <SCORE.INTRA>
0

>  <SCORE.INTRA.DIHEDRAL>
0

>  <SCORE.INTRA.DIHEDRAL.0>
0

>  <SCORE.INTRA.POLAR>
0

>  <SCORE.INTRA.POLAR.0>
0

>  <SCORE.INTRA.REPUL>
0

>  <SCORE.INTRA.REPUL.0>
0

>  <SCORE.INTRA.SOLV>
0

>  <SCORE.INTRA.SOLV.lig_0>
-4.28333

>  <SCORE.INTRA.VDW>
0

>  <SCORE.INTRA.VDW.0>
0

>  <SCORE.INTRA.norm>
0

>  <SCORE.RESTR>
0

>  <SCORE.RESTR.CAVITY>
0

>  <SCORE.RESTR.norm>
0

>  <SCORE.SYSTEM>
0

>  <SCORE.SYSTEM.CONST>
0

>  <SCORE.SYSTEM.DIHEDRAL>
0

>  <SCORE.SYSTEM.SOLV>
0

>  <SCORE.SYSTEM.norm>
0

>  <SCORE.heavy>
10

>  <SCORE.norm>
-1.74703

>  <RMSD>
2.422

$$$$
ligand
 OpenBabel02271912143D
libRbt.so/2013.1/901 2013/11/27
 10 11  0  0  0  0  0  0  0  0999 V2000
   11.7979   10.5596    8.8740 N   0  0  0  0  0  0  0  0  0  0  0  0
   11.9778    9.3997    8.1577 C   0  0  0  0  0  0  0  0  0  0  0  0
   11.8561    9.3612    6.8295 N   0  0  0  0  0  0  0  0  0  0  0  0
   11.5415   10.5680    6.2785 C   0  0  0  0  0  0  0  0  0  0  0  0
   11.3467   11.7648    6.9395 C   0  0  0  0  0  0  0  0  0  0  0  0
   11.4760   11.8138    8.3546 C   0  0  0  0  0  0  0  0  0  0  0  0
   11.3495   12.7629    9.1377 O   0  0  0  0  0  0  0  0  0  0  0  0
   11.0480   12.7260    6.0152 N   0  0  0  0  0  0  0  0  0  0  0  0
   11.0638   12.1206    4.8051 C   0  0  0  0  0  0  0  0  0  0  0  0
   11.3656   10.7820    4.9344 N   0  0  0  0  0  0  0  0  0  0  0  0
  1  2  1  0  0  0  0
  1  6  1  0  0  0  0
  2  3  2  0  0  0  0
  3  4  1  0  0  0  0
  4  5  2  0  0  0  0
  4 10  1  0  0  0  0
  5  6  1  0  0  0  0
  5  8  1  0  0  0  0
  6  7  2  0  0  0  0
  8  9  1  0  0  0  0
  9 10  2  0  0  0  0
M  END
>  <CHROM.1>
11.48038543,11.21363033,7.07387086,-1.07198700,1.33803709,-1.99666984

>  <Name>
ligand

>  <RI>
0

>  <Rbt.Current_Directory>
/home/itssahil/PROJECTS/Mol_Feturizer/Test_systems_manuscript/rnas/4fe5

>  <Rbt.Executable>
rbdock ($Id: //depot/dev/client3/rdock/2013.1/src/exe/rbdock.cxx#4 $)

>  <Rbt.Library>
libRbt.so (2013.1, Build901 2013/11/27)

>  <Rbt.Parameter_File>
/export/apps/rDock/src/rDock_2013.1_src/data/scripts/dock_solv.prm

>  <Rbt.Receptor>
prm/blind_docking_80.prm

>  <SCORE>
-17.4853

>  <SCORE.INTER>
-17.4853

>  <SCORE.INTER.CONST>
1

>  <SCORE.INTER.POLAR>
0

>  <SCORE.INTER.ROT>
0

>  <SCORE.INTER.SOLV>
3.89577

>  <SCORE.INTER.VDW>
-16.5555

>  <SCORE.INTER.norm>
-1.74853

>  <SCORE.INTRA>
0

>  <SCORE.INTRA.DIHEDRAL>
0

>  <SCORE.INTRA.DIHEDRAL.0>
0

>  <SCORE.INTRA.POLAR>
0

>  <SCORE.INTRA.POLAR.0>
0

>  <SCORE.INTRA.REPUL>
0

>  <SCORE.INTRA.REPUL.0>
0

>  <SCORE.INTRA.SOLV>
0

>  <SCORE.INTRA.SOLV.lig_0>
-4.28333

>  <SCORE.INTRA.VDW>
0

>  <SCORE.INTRA.VDW.0>
0

>  <SCORE.INTRA.norm>
0

>  <SCORE.RESTR>
0

>  <SCORE.RESTR.CAVITY>
0

>  <SCORE.RESTR.norm>
0

>  <SCORE.SYSTEM>
0

>  <SCORE.SYSTEM.CONST>
0

>  <SCORE.SYSTEM.DIHEDRAL>
0

>  <SCORE.SYSTEM.SOLV>
0

>  <SCORE.SYSTEM.norm>
0

>  <SCORE.heavy>
10

>  <SCORE.norm>
-1.74853

>  <RMSD>
2.422

$$$$
ligand
 OpenBabel02271912143D
libRbt.so/2013.1/901 2013/11/27
 10 11  0  0  0  0  0  0  0  0999 V2000
   11.7765   10.5168    8.8840 N   0  0  0  0  0  0  0  0  0  0  0  0
   11.9683    9.3658    8.1565 C   0  0  0  0  0  0  0  0  0  0  0  0
   11.8576    9.3414    6.8271 N   0  0  0  0  0  0  0  0  0  0  0  0
   11.5410   10.5524    6.2868 C   0  0  0  0  0  0  0  0  0  0  0  0
   11.3344   11.7408    6.9593 C   0  0  0  0  0  0  0  0  0  0  0  0
   11.4520   11.7750    8.3758 C   0  0  0  0  0  0  0  0  0  0  0  0
   11.3142   12.7147    9.1682 O   0  0  0  0  0  0  0  0  0  0  0  0
   11.0380   12.7106    6.0432 N   0  0  0  0  0  0  0  0  0  0  0  0
   11.0668   12.1186    4.8266 C   0  0  0  0  0  0  0  0  0  0  0  0
   11.3747   10.7803    4.9437 N   0  0  0  0  0  0  0  0  0  0  0  0
  1  2  1  0  0  0  0
  1  6  1  0  0  0  0
  2  3  2  0  0  0  0
  3  4  1  0  0  0  0
  4  5  2  0  0  0  0
  4 10  1  0  0  0  0
  5  6  1  0  0  0  0
  5  8  1  0  0  0  0
  6  7  2  0  0  0  0
  8  9  1  0  0  0  0
  9 10  2  0  0  0  0
M  END
>  <CHROM.1>
11.46995901,11.18892558,7.08864007,-1.11314372,1.33629432,-1.94563567

>  <Name>
ligand

>  <RI>
0

>  <Rbt.Current_Directory>
/home/itssahil/PROJECTS/Mol_Feturizer/Test_systems_manuscript/rnas/4fe5

>  <Rbt.Executable>
rbdock ($Id: //depot/dev/client3/rdock/2013.1/src/exe/rbdock.cxx#4 $)

>  <Rbt.Library>
libRbt.so (2013.1, Build901 2013/11/27)

>  <Rbt.Parameter_File>
/export/apps/rDock/src/rDock_2013.1_src/data/scripts/dock_solv.prm

>  <Rbt.Receptor>
prm/pocket_docking_3.prm

>  <SCORE>
-17.4685

>  <SCORE.INTER>
-17.4685

>  <SCORE.INTER.CONST>
1

>  <SCORE.INTER.POLAR>
0

>  <SCORE.INTER.ROT>
0

>  <SCORE.INTER.SOLV>
3.87293

>  <SCORE.INTER.VDW>
-16.5367

>  <SCORE.INTER.norm>
-1.74685

>  <SCORE.INTRA>
0

>  <SCORE.INTRA.DIHEDRAL>
0

>  <SCORE.INTRA.DIHEDRAL.0>
0

>  <SCORE.INTRA.POLAR>
0

>  <SCORE.INTRA.POLAR.0>
0

>  <SCORE.INTRA.REPUL>
0

>  <SCORE.INTRA.REPUL.0>
0

>  <SCORE.INTRA.SOLV>
0

>  <SCORE.INTRA.SOLV.lig_0>
-4.28333

>  <SCORE.INTRA.VDW>
0

>  <SCORE.INTRA.VDW.0>
0

>  <SCORE.INTRA.norm>
0

>  <SCORE.RESTR>
0

>  <SCORE.RESTR.CAVITY>
0

>  <SCORE.RESTR.norm>
0

>  <SCORE.SYSTEM>
0

>  <SCORE.SYSTEM.CONST>
0

>  <SCORE.SYSTEM.DIHEDRAL>
0

>  <SCORE.SYSTEM.SOLV>
0

>  <SCORE.SYSTEM.norm>
0

>  <SCORE.heavy>
10

>  <SCORE.norm>
-1.74685

>  <RMSD>
2.422

$$$$
ligand
 OpenBabel02271912143D
libRbt.so/2013.1/901 2013/11/27
 10 11  0  0  0  0  0  0  0  0999 V2000
   11.7908   10.5548    8.8738 N   0  0  0  0  0  0  0  0  0  0  0  0
   11.9708    9.3933    8.1601 C   0  0  0  0  0  0  0  0  0  0  0  0
   11.8523    9.3525    6.8318 N   0  0  0  0  0  0  0  0  0  0  0  0
   11.5406   10.5586    6.2777 C   0  0  0  0  0  0  0  0  0  0  0  0
   11.3457   11.7568    6.9360 C   0  0  0  0  0  0  0  0  0  0  0  0
   11.4717   11.8084    8.3512 C   0  0  0  0  0  0  0  0  0  0  0  0
   11.3445   12.7592    9.1322 O   0  0  0  0  0  0  0  0  0  0  0  0
   11.0504   12.7167    6.0091 N   0  0  0  0  0  0  0  0  0  0  0  0
   11.0683   12.1089    4.8001 C   0  0  0  0  0  0  0  0  0  0  0  0
   11.3681   10.7702    4.9327 N   0  0  0  0  0  0  0  0  0  0  0  0
  1  2  1  0  0  0  0
  1  6  1  0  0  0  0
  2  3  2  0  0  0  0
  3  4  1  0  0  0  0
  4  5  2  0  0  0  0
  4 10  1  0  0  0  0
  5  6  1  0  0  0  0
  5  8  1  0  0  0  0
  6  7  2  0  0  0  0
  8  9  1  0  0  0  0
  9 10  2  0  0  0  0
M  END
>  <CHROM.1>
11.47835164,11.20578075,7.07167386,-1.07924348,1.34017800,-1.99151935

>  <Name>
ligand

>  <RI>
0

>  <Rbt.Current_Directory>
/home/itssahil/PROJECTS/Mol_Feturizer/Test_systems_manuscript/rnas/4fe5

>  <Rbt.Executable>
rbdock ($Id: //depot/dev/client3/rdock/2013.1/src/exe/rbdock.cxx#4 $)

>  <Rbt.Library>
libRbt.so (2013.1, Build901 2013/11/27)

>  <Rbt.Parameter_File>
/export/apps/rDock/src/rDock_2013.1_src/data/scripts/dock_solv.prm

>  <Rbt.Receptor>
prm/pocket_docking_4.prm

>  <SCORE>
-17.4892

>  <SCORE.INTER>
-17.4892

>  <SCORE.INTER.CONST>
1

>  <SCORE.INTER.POLAR>
0

>  <SCORE.INTER.ROT>
0

>  <SCORE.INTER.SOLV>
3.8982

>  <SCORE.INTER.VDW>
-16.5589

>  <SCORE.INTER.norm>
-1.74892

>  <SCORE.INTRA>
0

>  <SCORE.INTRA.DIHEDRAL>
0

>  <SCORE.INTRA.DIHEDRAL.0>
0

>  <SCORE.INTRA.POLAR>
0

>  <SCORE.INTRA.POLAR.0>
0

>  <SCORE.INTRA.REPUL>
0

>  <SCORE.INTRA.REPUL.0>
0

>  <SCORE.INTRA.SOLV>
0

>  <SCORE.INTRA.SOLV.lig_0>
-4.28333

>  <SCORE.INTRA.VDW>
0

>  <SCORE.INTRA.VDW.0>
0

>  <SCORE.INTRA.norm>
0

>  <SCORE.RESTR>
0

>  <SCORE.RESTR.CAVITY>
0

>  <SCORE.RESTR.norm>
0

>  <SCORE.SYSTEM>
0

>  <SCORE.SYSTEM.CONST>
0

>  <SCORE.SYSTEM.DIHEDRAL>
0

>  <SCORE.SYSTEM.SOLV>
0

>  <SCORE.SYSTEM.norm>
0

>  <SCORE.heavy>
10

>  <SCORE.norm>
-1.74892

>  <RMSD>
2.422

$$$$
ligand
 OpenBabel02271912143D
libRbt.so/2013.1/901 2013/11/27
 10 11  0  0  0  0  0  0  0  0999 V2000
   11.9309   10.5558    8.8074 N   0  0  0  0  0  0  0  0  0  0  0  0
   12.0676    9.3701    8.1244 C   0  0  0  0  0  0  0  0  0  0  0  0
   11.8818    9.2868    6.8058 N   0  0  0  0  0  0  0  0  0  0  0  0
   11.5498   10.4765    6.2285 C   0  0  0  0  0  0  0  0  0  0  0  0
   11.3957   11.6971    6.8557 C   0  0  0  0  0  0  0  0  0  0  0  0
   11.5933   11.7940    8.2604 C   0  0  0  0  0  0  0  0  0  0  0  0
   11.5116   12.7708    9.0149 O   0  0  0  0  0  0  0  0  0  0  0  0
   11.0597   12.6283    5.9137 N   0  0  0  0  0  0  0  0  0  0  0  0
   11.0128   11.9812    4.7261 C   0  0  0  0  0  0  0  0  0  0  0  0
   11.3108   10.6453    4.8876 N   0  0  0  0  0  0  0  0  0  0  0  0
  1  2  1  0  0  0  0
  1  6  1  0  0  0  0
  2  3  2  0  0  0  0
  3  4  1  0  0  0  0
  4  5  2  0  0  0  0
  4 10  1  0  0  0  0
  5  6  1  0  0  0  0
  5  8  1  0  0  0  0
  6  7  2  0  0  0  0
  8  9  1  0  0  0  0
  9 10  2  0  0  0  0
M  END
>  <CHROM.1>
11.53167357,11.14977748,7.00274766,-0.88178334,1.32035825,-2.21628126

>  <Name>
ligand

>  <RI>
0

>  <Rbt.Current_Directory>
/home/itssahil/PROJECTS/Mol_Feturizer/Test_systems_manuscript/rnas/4fe5

>  <Rbt.Executable>
rbdock ($Id: //depot/dev/client3/rdock/2013.1/src/exe/rbdock.cxx#4 $)

>  <Rbt.Library>
libRbt.so (2013.1, Build901 2013/11/27)

>  <Rbt.Parameter_File>
/export/apps/rDock/src/rDock_2013.1_src/data/scripts/dock_solv.prm

>  <Rbt.Receptor>
prm/pocket_docking_4.prm

>  <SCORE>
-17.4159

>  <SCORE.INTER>
-17.4159

>  <SCORE.INTER.CONST>
1

>  <SCORE.INTER.POLAR>
0

>  <SCORE.INTER.ROT>
0

>  <SCORE.INTER.SOLV>
3.88627

>  <SCORE.INTER.VDW>
-16.506

>  <SCORE.INTER.norm>
-1.74159

>  <SCORE.INTRA>
0

>  <SCORE.INTRA.DIHEDRAL>
0

>  <SCORE.INTRA.DIHEDRAL.0>
0

>  <SCORE.INTRA.POLAR>
0

>  <SCORE.INTRA.POLAR.0>
0

>  <SCORE.INTRA.REPUL>
0

>  <SCORE.INTRA.REPUL.0>
0

>  <SCORE.INTRA.SOLV>
0

>  <SCORE.INTRA.SOLV.lig_0>
-4.28333

>  <SCORE.INTRA.VDW>
0

>  <SCORE.INTRA.VDW.0>
0

>  <SCORE.INTRA.norm>
0

>  <SCORE.RESTR>
0

>  <SCORE.RESTR.CAVITY>
0

>  <SCORE.RESTR.norm>
0

>  <SCORE.SYSTEM>
0

>  <SCORE.SYSTEM.CONST>
0

>  <SCORE.SYSTEM.DIHEDRAL>
0

>  <SCORE.SYSTEM.SOLV>
0

>  <SCORE.SYSTEM.norm>
0

>  <SCORE.heavy>
10

>  <SCORE.norm>
-1.74159

>  <RMSD>
2.422

$$$$
ligand
 OpenBabel02271912143D
libRbt.so/2013.1/901 2013/11/27
 10 11  0  0  0  0  0  0  0  0999 V2000
   11.7730   10.5433    8.9088 N   0  0  0  0  0  0  0  0  0  0  0  0
   11.9770    9.3811    8.2026 C   0  0  0  0  0  0  0  0  0  0  0  0
   11.8651    9.3307    6.8740 N   0  0  0  0  0  0  0  0  0  0  0  0
   11.5341   10.5278    6.3117 C   0  0  0  0  0  0  0  0  0  0  0  0
   11.3149   11.7261    6.9622 C   0  0  0  0  0  0  0  0  0  0  0  0
   11.4338   11.7880    8.3777 C   0  0  0  0  0  0  0  0  0  0  0  0
   11.2862   12.7407    9.1527 O   0  0  0  0  0  0  0  0  0  0  0  0
   11.0065   12.6752    6.0286 N   0  0  0  0  0  0  0  0  0  0  0  0
   11.0405   12.0611    4.8232 C   0  0  0  0  0  0  0  0  0  0  0  0
   11.3638   10.7287    4.9648 N   0  0  0  0  0  0  0  0  0  0  0  0
  1  2  1  0  0  0  0
  1  6  1  0  0  0  0
  2  3  2  0  0  0  0
  3  4  1  0  0  0  0
  4  5  2  0  0  0  0
  4 10  1  0  0  0  0
  5  6  1  0  0  0  0
  5  8  1  0  0  0  0
  6  7  2  0  0  0  0
  8  9  1  0  0  0  0
  9 10  2  0  0  0  0
M  END
>  <CHROM.1>
11.45683242,11.17831095,7.10163919,-1.12577852,1.32531357,-1.95199022

>  <Name>
ligand

>  <RI>
0

>  <Rbt.Current_Directory>
/home/itssahil/PROJECTS/Mol_Feturizer/Test_systems_manuscript/rnas/4fe5

>  <Rbt.Executable>
rbdock ($Id: //depot/dev/client3/rdock/2013.1/src/exe/rbdock.cxx#4 $)

>  <Rbt.Library>
libRbt.so (2013.1, Build901 2013/11/27)

>  <Rbt.Parameter_File>
/export/apps/rDock/src/rDock_2013.1_src/data/scripts/dock_solv.prm

>  <Rbt.Receptor>
prm/pocket_docking_8.prm

>  <SCORE>
-17.5018

>  <SCORE.INTER>
-17.5018

>  <SCORE.INTER.CONST>
1

>  <SCORE.INTER.POLAR>
0

>  <SCORE.INTER.ROT>
0

>  <SCORE.INTER.SOLV>
3.89374

>  <SCORE.INTER.VDW>
-16.5658

>  <SCORE.INTER.norm>
-1.75018

>  <SCORE.INTRA>
0

>  <SCORE.INTRA.DIHEDRAL>
0

>  <SCORE.INTRA.DIHEDRAL.0>
0

>  <SCORE.INTRA.POLAR>
0

>  <SCORE.INTRA.POLAR.0>
0

>  <SCORE.INTRA.REPUL>
0

>  <SCORE.INTRA.REPUL.0>
0

>  <SCORE.INTRA.SOLV>
0

>  <SCORE.INTRA.SOLV.lig_0>
-4.28333

>  <SCORE.INTRA.VDW>
0

>  <SCORE.INTRA.VDW.0>
0

>  <SCORE.INTRA.norm>
0

>  <SCORE.RESTR>
0

>  <SCORE.RESTR.CAVITY>
0

>  <SCORE.RESTR.norm>
0

>  <SCORE.SYSTEM>
0

>  <SCORE.SYSTEM.CONST>
0

>  <SCORE.SYSTEM.DIHEDRAL>
0

>  <SCORE.SYSTEM.SOLV>
0

>  <SCORE.SYSTEM.norm>
0

>  <SCORE.heavy>
10

>  <SCORE.norm>
-1.75018

>  <RMSD>
2.422

$$$$
ligand
 OpenBabel02271912143D
libRbt.so/2013.1/901 2013/11/27
 10 11  0  0  0  0  0  0  0  0999 V2000
   11.7958   10.5676    8.8735 N   0  0  0  0  0  0  0  0  0  0  0  0
   11.9681    9.4007    8.1666 C   0  0  0  0  0  0  0  0  0  0  0  0
   11.8419    9.3514    6.8393 N   0  0  0  0  0  0  0  0  0  0  0  0
   11.5308   10.5547    6.2789 C   0  0  0  0  0  0  0  0  0  0  0  0
   11.3434   11.7580    6.9302 C   0  0  0  0  0  0  0  0  0  0  0  0
   11.4776   11.8187    8.3443 C   0  0  0  0  0  0  0  0  0  0  0  0
   11.3579   12.7750    9.1197 O   0  0  0  0  0  0  0  0  0  0  0  0
   11.0458   12.7125    5.9986 N   0  0  0  0  0  0  0  0  0  0  0  0
   11.0549   12.0966    4.7937 C   0  0  0  0  0  0  0  0  0  0  0  0
   11.3513   10.7579    4.9335 N   0  0  0  0  0  0  0  0  0  0  0  0
  1  2  1  0  0  0  0
  1  6  1  0  0  0  0
  2  3  2  0  0  0  0
  3  4  1  0  0  0  0
  4  5  2  0  0  0  0
  4 10  1  0  0  0  0
  5  6  1  0  0  0  0
  5  8  1  0  0  0  0
  6  7  2  0  0  0  0
  8  9  1  0  0  0  0
  9 10  2  0  0  0  0
M  END
>  <CHROM.1>
11.47509786,11.20743276,7.06883970,-1.05079717,1.34059763,-2.02591615

>  <Name>
ligand

>  <RI>
0

>  <Rbt.Current_Directory>
/home/itssahil/PROJECTS/Mol_Feturizer/Test_systems_manuscript/rnas/4fe5

>  <Rbt.Executable>
rbdock ($Id: //depot/dev/client3/rdock/2013.1/src/exe/rbdock.cxx#4 $)

>  <Rbt.Library>
libRbt.so (2013.1, Build901 2013/11/27)

>  <Rbt.Parameter_File>
/export/apps/rDock/src/rDock_2013.1_src/data/scripts/dock_solv.prm

>  <Rbt.Receptor>
prm/pocket_docking_8.prm

>  <SCORE>
-17.4685

>  <SCORE.INTER>
-17.4685

>  <SCORE.INTER.CONST>
1

>  <SCORE.INTER.POLAR>
0

>  <SCORE.INTER.ROT>
0

>  <SCORE.INTER.SOLV>
3.91228

>  <SCORE.INTER.VDW>
-16.5497

>  <SCORE.INTER.norm>
-1.74685

>  <SCORE.INTRA>
0

>  <SCORE.INTRA.DIHEDRAL>
0

>  <SCORE.INTRA.DIHEDRAL.0>
0

>  <SCORE.INTRA.POLAR>
0

>  <SCORE.INTRA.POLAR.0>
0

>  <SCORE.INTRA.REPUL>
0

>  <SCORE.INTRA.REPUL.0>
0

>  <SCORE.INTRA.SOLV>
0

>  <SCORE.INTRA.SOLV.lig_0>
-4.28333

>  <SCORE.INTRA.VDW>
0

>  <SCORE.INTRA.VDW.0>
0

>  <SCORE.INTRA.norm>
0

>  <SCORE.RESTR>
0

>  <SCORE.RESTR.CAVITY>
0

>  <SCORE.RESTR.norm>
0

>  <SCORE.SYSTEM>
0

>  <SCORE.SYSTEM.CONST>
0

>  <SCORE.SYSTEM.DIHEDRAL>
0

>  <SCORE.SYSTEM.SOLV>
0

>  <SCORE.SYSTEM.norm>
0

>  <SCORE.heavy>
10

>  <SCORE.norm>
-1.74685

>  <RMSD>
2.422

$$$$
ligand
 OpenBabel02271912143D
libRbt.so/2013.1/901 2013/11/27
 10 11  0  0  0  0  0  0  0  0999 V2000
   11.9095   10.5550    8.8047 N   0  0  0  0  0  0  0  0  0  0  0  0
   12.0531    9.3717    8.1190 C   0  0  0  0  0  0  0  0  0  0  0  0
   11.8718    9.2911    6.7996 N   0  0  0  0  0  0  0  0  0  0  0  0
   11.5369   10.4810    6.2244 C   0  0  0  0  0  0  0  0  0  0  0  0
   11.3760   11.6994    6.8544 C   0  0  0  0  0  0  0  0  0  0  0  0
   11.5689   11.7934    8.2599 C   0  0  0  0  0  0  0  0  0  0  0  0
   11.4809   12.7678    9.0168 O   0  0  0  0  0  0  0  0  0  0  0  0
   11.0394   12.6318    5.9137 N   0  0  0  0  0  0  0  0  0  0  0  0
   10.9988   11.9877    4.7243 C   0  0  0  0  0  0  0  0  0  0  0  0
   11.3015   10.6525    4.8833 N   0  0  0  0  0  0  0  0  0  0  0  0
  1  2  1  0  0  0  0
  1  6  1  0  0  0  0
  2  3  2  0  0  0  0
  3  4  1  0  0  0  0
  4  5  2  0  0  0  0
  4 10  1  0  0  0  0
  5  6  1  0  0  0  0
  5  8  1  0  0  0  0
  6  7  2  0  0  0  0
  8  9  1  0  0  0  0
  9 10  2  0  0  0  0
M  END
>  <CHROM.1>
11.51370709,11.15222262,7.00038939,-0.90146739,1.31907510,-2.19455011

>  <Name>
ligand

>  <RI>
0

>  <Rbt.Current_Directory>
/home/itssahil/PROJECTS/Mol_Feturizer/Test_systems_manuscript/rnas/4fe5

>  <Rbt.Executable>
rbdock ($Id: //depot/dev/client3/rdock/2013.1/src/exe/rbdock.cxx#4 $)

>  <Rbt.Library>
libRbt.so (2013.1, Build901 2013/11/27)

>  <Rbt.Parameter_File>
/export/apps/rDock/src/rDock_2013.1_src/data/scripts/dock_solv.prm

>  <Rbt.Receptor>
prm/blind_docking_100.prm

>  <SCORE>
-17.4285

>  <SCORE.INTER>
-17.4285

>  <SCORE.INTER.CONST>
1

>  <SCORE.INTER.POLAR>
0

>  <SCORE.INTER.ROT>
0

>  <SCORE.INTER.SOLV>
3.87832

>  <SCORE.INTER.VDW>
-16.5118

>  <SCORE.INTER.norm>
-1.74285

>  <SCORE.INTRA>
0

>  <SCORE.INTRA.DIHEDRAL>
0

>  <SCORE.INTRA.DIHEDRAL.0>
0

>  <SCORE.INTRA.POLAR>
0

>  <SCORE.INTRA.POLAR.0>
0

>  <SCORE.INTRA.REPUL>
0

>  <SCORE.INTRA.REPUL.0>
0

>  <SCORE.INTRA.SOLV>
0

>  <SCORE.INTRA.SOLV.lig_0>
-4.28333

>  <SCORE.INTRA.VDW>
0

>  <SCORE.INTRA.VDW.0>
0

>  <SCORE.INTRA.norm>
0

>  <SCORE.RESTR>
0

>  <SCORE.RESTR.CAVITY>
0

>  <SCORE.RESTR.norm>
0

>  <SCORE.SYSTEM>
0

>  <SCORE.SYSTEM.CONST>
0

>  <SCORE.SYSTEM.DIHEDRAL>
0

>  <SCORE.SYSTEM.SOLV>
0

>  <SCORE.SYSTEM.norm>
0

>  <SCORE.heavy>
10

>  <SCORE.norm>
-1.74285

>  <RMSD>
2.423

$$$$
ligand
 OpenBabel02271912143D
libRbt.so/2013.1/901 2013/11/27
 10 11  0  0  0  0  0  0  0  0999 V2000
   11.7521   10.5001    8.9098 N   0  0  0  0  0  0  0  0  0  0  0  0
   11.9443    9.3393    8.1980 C   0  0  0  0  0  0  0  0  0  0  0  0
   11.8396    9.2981    6.8685 N   0  0  0  0  0  0  0  0  0  0  0  0
   11.5285   10.5030    6.3112 C   0  0  0  0  0  0  0  0  0  0  0  0
   11.3220   11.7004    6.9675 C   0  0  0  0  0  0  0  0  0  0  0  0
   11.4332   11.7524    8.3839 C   0  0  0  0  0  0  0  0  0  0  0  0
   11.2941   12.7026    9.1636 O   0  0  0  0  0  0  0  0  0  0  0  0
   11.0323   12.6590    6.0377 N   0  0  0  0  0  0  0  0  0  0  0  0
   11.0650   12.0514    4.8289 C   0  0  0  0  0  0  0  0  0  0  0  0
   11.3690   10.7140    4.9646 N   0  0  0  0  0  0  0  0  0  0  0  0
  1  2  1  0  0  0  0
  1  6  1  0  0  0  0
  2  3  2  0  0  0  0
  3  4  1  0  0  0  0
  4  5  2  0  0  0  0
  4 10  1  0  0  0  0
  5  6  1  0  0  0  0
  5  8  1  0  0  0  0
  6  7  2  0  0  0  0
  8  9  1  0  0  0  0
  9 10  2  0  0  0  0
M  END
>  <CHROM.1>
11.45549374,11.14986923,7.10454047,-1.12761718,1.34032744,-1.94439500

>  <Name>
ligand

>  <RI>
0

>  <Rbt.Current_Directory>
/home/itssahil/PROJECTS/Mol_Feturizer/Test_systems_manuscript/rnas/4fe5

>  <Rbt.Executable>
rbdock ($Id: //depot/dev/client3/rdock/2013.1/src/exe/rbdock.cxx#4 $)

>  <Rbt.Library>
libRbt.so (2013.1, Build901 2013/11/27)

>  <Rbt.Parameter_File>
/export/apps/rDock/src/rDock_2013.1_src/data/scripts/dock_solv.prm

>  <Rbt.Receptor>
prm/blind_docking_100.prm

>  <SCORE>
-17.4363

>  <SCORE.INTER>
-17.4363

>  <SCORE.INTER.CONST>
1

>  <SCORE.INTER.POLAR>
0

>  <SCORE.INTER.ROT>
0

>  <SCORE.INTER.SOLV>
3.89232

>  <SCORE.INTER.VDW>
-16.5216

>  <SCORE.INTER.norm>
-1.74363

>  <SCORE.INTRA>
0

>  <SCORE.INTRA.DIHEDRAL>
0

>  <SCORE.INTRA.DIHEDRAL.0>
0

>  <SCORE.INTRA.POLAR>
0

>  <SCORE.INTRA.POLAR.0>
0

>  <SCORE.INTRA.REPUL>
0

>  <SCORE.INTRA.REPUL.0>
0

>  <SCORE.INTRA.SOLV>
0

>  <SCORE.INTRA.SOLV.lig_0>
-4.28333

>  <SCORE.INTRA.VDW>
0

>  <SCORE.INTRA.VDW.0>
0

>  <SCORE.INTRA.norm>
0

>  <SCORE.RESTR>
0

>  <SCORE.RESTR.CAVITY>
0

>  <SCORE.RESTR.norm>
0

>  <SCORE.SYSTEM>
0

>  <SCORE.SYSTEM.CONST>
0

>  <SCORE.SYSTEM.DIHEDRAL>
0

>  <SCORE.SYSTEM.SOLV>
0

>  <SCORE.SYSTEM.norm>
0

>  <SCORE.heavy>
10

>  <SCORE.norm>
-1.74363

>  <RMSD>
2.423

$$$$
ligand
 OpenBabel02271912143D
libRbt.so/2013.1/901 2013/11/27
 10 11  0  0  0  0  0  0  0  0999 V2000
   11.7668   10.5304    8.8967 N   0  0  0  0  0  0  0  0  0  0  0  0
   11.9675    9.3758    8.1773 C   0  0  0  0  0  0  0  0  0  0  0  0
   11.8610    9.3421    6.8477 N   0  0  0  0  0  0  0  0  0  0  0  0
   11.5388   10.5478    6.2986 C   0  0  0  0  0  0  0  0  0  0  0  0
   11.3233   11.7393    6.9628 C   0  0  0  0  0  0  0  0  0  0  0  0
   11.4365   11.7833    8.3794 C   0  0  0  0  0  0  0  0  0  0  0  0
   11.2907   12.7273    9.1653 O   0  0  0  0  0  0  0  0  0  0  0  0
   11.0239   12.7013    6.0395 N   0  0  0  0  0  0  0  0  0  0  0  0
   11.0598   12.1016    4.8269 C   0  0  0  0  0  0  0  0  0  0  0  0
   11.3752   10.7660    4.9536 N   0  0  0  0  0  0  0  0  0  0  0  0
  1  2  1  0  0  0  0
  1  6  1  0  0  0  0
  2  3  2  0  0  0  0
  3  4  1  0  0  0  0
  4  5  2  0  0  0  0
  4 10  1  0  0  0  0
  5  6  1  0  0  0  0
  5  8  1  0  0  0  0
  6  7  2  0  0  0  0
  8  9  1  0  0  0  0
  9 10  2  0  0  0  0
M  END
>  <CHROM.1>
11.46167616,11.18905110,7.09613979,-1.13398267,1.33185975,-1.93188183

>  <Name>
ligand

>  <RI>
0

>  <Rbt.Current_Directory>
/home/itssahil/PROJECTS/Mol_Feturizer/Test_systems_manuscript/rnas/4fe5

>  <Rbt.Executable>
rbdock ($Id: //depot/dev/client3/rdock/2013.1/src/exe/rbdock.cxx#4 $)

>  <Rbt.Library>
libRbt.so (2013.1, Build901 2013/11/27)

>  <Rbt.Parameter_File>
/export/apps/rDock/src/rDock_2013.1_src/data/scripts/dock_solv.prm

>  <Rbt.Receptor>
prm/blind_docking_60.prm

>  <SCORE>
-17.4742

>  <SCORE.INTER>
-17.4742

>  <SCORE.INTER.CONST>
1

>  <SCORE.INTER.POLAR>
0

>  <SCORE.INTER.ROT>
0

>  <SCORE.INTER.SOLV>
3.88568

>  <SCORE.INTER.VDW>
-16.5447

>  <SCORE.INTER.norm>
-1.74742

>  <SCORE.INTRA>
0

>  <SCORE.INTRA.DIHEDRAL>
0

>  <SCORE.INTRA.DIHEDRAL.0>
0

>  <SCORE.INTRA.POLAR>
0

>  <SCORE.INTRA.POLAR.0>
0

>  <SCORE.INTRA.REPUL>
0

>  <SCORE.INTRA.REPUL.0>
0

>  <SCORE.INTRA.SOLV>
0

>  <SCORE.INTRA.SOLV.lig_0>
-4.28333

>  <SCORE.INTRA.VDW>
0

>  <SCORE.INTRA.VDW.0>
0

>  <SCORE.INTRA.norm>
0

>  <SCORE.RESTR>
0

>  <SCORE.RESTR.CAVITY>
0

>  <SCORE.RESTR.norm>
0

>  <SCORE.SYSTEM>
0

>  <SCORE.SYSTEM.CONST>
0

>  <SCORE.SYSTEM.DIHEDRAL>
0

>  <SCORE.SYSTEM.SOLV>
0

>  <SCORE.SYSTEM.norm>
0

>  <SCORE.heavy>
10

>  <SCORE.norm>
-1.74742

>  <RMSD>
2.423

$$$$
ligand
 OpenBabel02271912143D
libRbt.so/2013.1/901 2013/11/27
 10 11  0  0  0  0  0  0  0  0999 V2000
   11.7680   10.5391    8.9096 N   0  0  0  0  0  0  0  0  0  0  0  0
   11.9702    9.3782    8.2007 C   0  0  0  0  0  0  0  0  0  0  0  0
   11.8659    9.3327    6.8713 N   0  0  0  0  0  0  0  0  0  0  0  0
   11.5444   10.5334    6.3111 C   0  0  0  0  0  0  0  0  0  0  0  0
   11.3275   11.7307    6.9643 C   0  0  0  0  0  0  0  0  0  0  0  0
   11.4383   11.7873    8.3806 C   0  0  0  0  0  0  0  0  0  0  0  0
   11.2910   12.7382    9.1579 O   0  0  0  0  0  0  0  0  0  0  0  0
   11.0295   12.6844    6.0320 N   0  0  0  0  0  0  0  0  0  0  0  0
   11.0675   12.0741    4.8248 C   0  0  0  0  0  0  0  0  0  0  0  0
   11.3830   10.7396    4.9639 N   0  0  0  0  0  0  0  0  0  0  0  0
  1  2  1  0  0  0  0
  1  6  1  0  0  0  0
  2  3  2  0  0  0  0
  3  4  1  0  0  0  0
  4  5  2  0  0  0  0
  4 10  1  0  0  0  0
  5  6  1  0  0  0  0
  5  8  1  0  0  0  0
  6  7  2  0  0  0  0
  8  9  1  0  0  0  0
  9 10  2  0  0  0  0
M  END
>  <CHROM.1>
11.46578512,11.18169692,7.10272487,-1.14091902,1.33226615,-1.93398911

>  <Name>
ligand

>  <RI>
0

>  <Rbt.Current_Directory>
/home/itssahil/PROJECTS/Mol_Feturizer/Test_systems_manuscript/rnas/4fe5

>  <Rbt.Executable>
rbdock ($Id: //depot/dev/client3/rdock/2013.1/src/exe/rbdock.cxx#4 $)

>  <Rbt.Library>
libRbt.so (2013.1, Build901 2013/11/27)

>  <Rbt.Parameter_File>
/export/apps/rDock/src/rDock_2013.1_src/data/scripts/dock_solv.prm

>  <Rbt.Receptor>
prm/blind_docking_80.prm

>  <SCORE>
-17.4699

>  <SCORE.INTER>
-17.4699

>  <SCORE.INTER.CONST>
1

>  <SCORE.INTER.POLAR>
0

>  <SCORE.INTER.ROT>
0

>  <SCORE.INTER.SOLV>
3.89827

>  <SCORE.INTER.VDW>
-16.546

>  <SCORE.INTER.norm>
-1.74699

>  <SCORE.INTRA>
0

>  <SCORE.INTRA.DIHEDRAL>
0

>  <SCORE.INTRA.DIHEDRAL.0>
0

>  <SCORE.INTRA.POLAR>
0

>  <SCORE.INTRA.POLAR.0>
0

>  <SCORE.INTRA.REPUL>
0

>  <SCORE.INTRA.REPUL.0>
0

>  <SCORE.INTRA.SOLV>
0

>  <SCORE.INTRA.SOLV.lig_0>
-4.28333

>  <SCORE.INTRA.VDW>
0

>  <SCORE.INTRA.VDW.0>
0

>  <SCORE.INTRA.norm>
0

>  <SCORE.RESTR>
0

>  <SCORE.RESTR.CAVITY>
0

>  <SCORE.RESTR.norm>
0

>  <SCORE.SYSTEM>
0

>  <SCORE.SYSTEM.CONST>
0

>  <SCORE.SYSTEM.DIHEDRAL>
0

>  <SCORE.SYSTEM.SOLV>
0

>  <SCORE.SYSTEM.norm>
0

>  <SCORE.heavy>
10

>  <SCORE.norm>
-1.74699

>  <RMSD>
2.423

$$$$
ligand
 OpenBabel02271912143D
libRbt.so/2013.1/901 2013/11/27
 10 11  0  0  0  0  0  0  0  0999 V2000
   11.7879   10.5567    8.8677 N   0  0  0  0  0  0  0  0  0  0  0  0
   11.9697    9.3955    8.1539 C   0  0  0  0  0  0  0  0  0  0  0  0
   11.8522    9.3549    6.8254 N   0  0  0  0  0  0  0  0  0  0  0  0
   11.5395   10.5608    6.2714 C   0  0  0  0  0  0  0  0  0  0  0  0
   11.3430   11.7587    6.9299 C   0  0  0  0  0  0  0  0  0  0  0  0
   11.4679   11.8101    8.3452 C   0  0  0  0  0  0  0  0  0  0  0  0
   11.3392   12.7605    9.1264 O   0  0  0  0  0  0  0  0  0  0  0  0
   11.0473   12.7185    6.0031 N   0  0  0  0  0  0  0  0  0  0  0  0
   11.0667   12.1111    4.7940 C   0  0  0  0  0  0  0  0  0  0  0  0
   11.3678   10.7726    4.9264 N   0  0  0  0  0  0  0  0  0  0  0  0
  1  2  1  0  0  0  0
  1  6  1  0  0  0  0
  2  3  2  0  0  0  0
  3  4  1  0  0  0  0
  4  5  2  0  0  0  0
  4 10  1  0  0  0  0
  5  6  1  0  0  0  0
  5  8  1  0  0  0  0
  6  7  2  0  0  0  0
  8  9  1  0  0  0  0
  9 10  2  0  0  0  0
M  END
>  <CHROM.1>
11.47607797,11.20778069,7.06554480,-1.08386850,1.33949346,-1.98676281

>  <Name>
ligand

>  <RI>
0

>  <Rbt.Current_Directory>
/home/itssahil/PROJECTS/Mol_Feturizer/Test_systems_manuscript/rnas/4fe5

>  <Rbt.Executable>
rbdock ($Id: //depot/dev/client3/rdock/2013.1/src/exe/rbdock.cxx#4 $)

>  <Rbt.Library>
libRbt.so (2013.1, Build901 2013/11/27)

>  <Rbt.Parameter_File>
/export/apps/rDock/src/rDock_2013.1_src/data/scripts/dock_solv.prm

>  <Rbt.Receptor>
prm/pocket_docking_3.prm

>  <SCORE>
-17.4881

>  <SCORE.INTER>
-17.4881

>  <SCORE.INTER.CONST>
1

>  <SCORE.INTER.POLAR>
0

>  <SCORE.INTER.ROT>
0

>  <SCORE.INTER.SOLV>
3.89837

>  <SCORE.INTER.VDW>
-16.5582

>  <SCORE.INTER.norm>
-1.74881

>  <SCORE.INTRA>
0

>  <SCORE.INTRA.DIHEDRAL>
0

>  <SCORE.INTRA.DIHEDRAL.0>
0

>  <SCORE.INTRA.POLAR>
0

>  <SCORE.INTRA.POLAR.0>
0

>  <SCORE.INTRA.REPUL>
0

>  <SCORE.INTRA.REPUL.0>
0

>  <SCORE.INTRA.SOLV>
0

>  <SCORE.INTRA.SOLV.lig_0>
-4.28333

>  <SCORE.INTRA.VDW>
0

>  <SCORE.INTRA.VDW.0>
0

>  <SCORE.INTRA.norm>
0

>  <SCORE.RESTR>
0

>  <SCORE.RESTR.CAVITY>
0

>  <SCORE.RESTR.norm>
0

>  <SCORE.SYSTEM>
0

>  <SCORE.SYSTEM.CONST>
0

>  <SCORE.SYSTEM.DIHEDRAL>
0

>  <SCORE.SYSTEM.SOLV>
0

>  <SCORE.SYSTEM.norm>
0

>  <SCORE.heavy>
10

>  <SCORE.norm>
-1.74881

>  <RMSD>
2.423

$$$$
ligand
 OpenBabel02271912143D
libRbt.so/2013.1/901 2013/11/27
 10 11  0  0  0  0  0  0  0  0999 V2000
   11.7699   10.5414    8.9084 N   0  0  0  0  0  0  0  0  0  0  0  0
   11.9716    9.3790    8.2019 C   0  0  0  0  0  0  0  0  0  0  0  0
   11.8604    9.3294    6.8732 N   0  0  0  0  0  0  0  0  0  0  0  0
   11.5327   10.5276    6.3111 C   0  0  0  0  0  0  0  0  0  0  0  0
   11.3159   11.7261    6.9621 C   0  0  0  0  0  0  0  0  0  0  0  0
   11.4339   11.7871    8.3776 C   0  0  0  0  0  0  0  0  0  0  0  0
   11.2881   12.7398    9.1529 O   0  0  0  0  0  0  0  0  0  0  0  0
   11.0103   12.6764    6.0287 N   0  0  0  0  0  0  0  0  0  0  0  0
   11.0437   12.0626    4.8231 C   0  0  0  0  0  0  0  0  0  0  0  0
   11.3636   10.7295    4.9642 N   0  0  0  0  0  0  0  0  0  0  0  0
  1  2  1  0  0  0  0
  1  6  1  0  0  0  0
  2  3  2  0  0  0  0
  3  4  1  0  0  0  0
  4  5  2  0  0  0  0
  4 10  1  0  0  0  0
  5  6  1  0  0  0  0
  5  8  1  0  0  0  0
  6  7  2  0  0  0  0
  8  9  1  0  0  0  0
  9 10  2  0  0  0  0
M  END
>  <CHROM.1>
11.45639575,11.17792919,7.10135714,-1.12465383,1.32774002,-1.95265323

>  <Name>
ligand

>  <RI>
0

>  <Rbt.Current_Directory>
/home/itssahil/PROJECTS/Mol_Feturizer/Test_systems_manuscript/rnas/4fe5

>  <Rbt.Executable>
rbdock ($Id: //depot/dev/client3/rdock/2013.1/src/exe/rbdock.cxx#4 $)

>  <Rbt.Library>
libRbt.so (2013.1, Build901 2013/11/27)

>  <Rbt.Parameter_File>
/export/apps/rDock/src/rDock_2013.1_src/data/scripts/dock_solv.prm

>  <Rbt.Receptor>
prm/pocket_docking_3.prm

>  <SCORE>
-17.4679

>  <SCORE.INTER>
-17.4679

>  <SCORE.INTER.CONST>
1

>  <SCORE.INTER.POLAR>
0

>  <SCORE.INTER.ROT>
0

>  <SCORE.INTER.SOLV>
3.89589

>  <SCORE.INTER.VDW>
-16.5439

>  <SCORE.INTER.norm>
-1.74679

>  <SCORE.INTRA>
0

>  <SCORE.INTRA.DIHEDRAL>
0

>  <SCORE.INTRA.DIHEDRAL.0>
0

>  <SCORE.INTRA.POLAR>
0

>  <SCORE.INTRA.POLAR.0>
0

>  <SCORE.INTRA.REPUL>
0

>  <SCORE.INTRA.REPUL.0>
0

>  <SCORE.INTRA.SOLV>
0

>  <SCORE.INTRA.SOLV.lig_0>
-4.28333

>  <SCORE.INTRA.VDW>
0

>  <SCORE.INTRA.VDW.0>
0

>  <SCORE.INTRA.norm>
0

>  <SCORE.RESTR>
0

>  <SCORE.RESTR.CAVITY>
0

>  <SCORE.RESTR.norm>
0

>  <SCORE.SYSTEM>
0

>  <SCORE.SYSTEM.CONST>
0

>  <SCORE.SYSTEM.DIHEDRAL>
0

>  <SCORE.SYSTEM.SOLV>
0

>  <SCORE.SYSTEM.norm>
0

>  <SCORE.heavy>
10

>  <SCORE.norm>
-1.74679

>  <RMSD>
2.423

$$$$
ligand
 OpenBabel02271912143D
libRbt.so/2013.1/901 2013/11/27
 10 11  0  0  0  0  0  0  0  0999 V2000
   11.7884   10.5286    8.8841 N   0  0  0  0  0  0  0  0  0  0  0  0
   11.9908    9.3553    8.1962 C   0  0  0  0  0  0  0  0  0  0  0  0
   11.8656    9.2811    6.8700 N   0  0  0  0  0  0  0  0  0  0  0  0
   11.5231   10.4666    6.2903 C   0  0  0  0  0  0  0  0  0  0  0  0
   11.3047   11.6751    6.9220 C   0  0  0  0  0  0  0  0  0  0  0  0
   11.4377   11.7622    8.3349 C   0  0  0  0  0  0  0  0  0  0  0  0
   11.2934   12.7276    9.0946 O   0  0  0  0  0  0  0  0  0  0  0  0
   10.9821   12.6062    5.9752 N   0  0  0  0  0  0  0  0  0  0  0  0
   11.0068   11.9712    4.7805 C   0  0  0  0  0  0  0  0  0  0  0  0
   11.3380   10.6431    4.9419 N   0  0  0  0  0  0  0  0  0  0  0  0
  1  2  1  0  0  0  0
  1  6  1  0  0  0  0
  2  3  2  0  0  0  0
  3  4  1  0  0  0  0
  4  5  2  0  0  0  0
  4 10  1  0  0  0  0
  5  6  1  0  0  0  0
  5  8  1  0  0  0  0
  6  7  2  0  0  0  0
  8  9  1  0  0  0  0
  9 10  2  0  0  0  0
M  END
>  <CHROM.1>
11.45067347,11.13045532,7.06953581,-1.09525937,1.31686884,-1.99903791

>  <Name>
ligand

>  <RI>
0

>  <Rbt.Current_Directory>
/home/itssahil/PROJECTS/Mol_Feturizer/Test_systems_manuscript/rnas/4fe5

>  <Rbt.Executable>
rbdock ($Id: //depot/dev/client3/rdock/2013.1/src/exe/rbdock.cxx#4 $)

>  <Rbt.Library>
libRbt.so (2013.1, Build901 2013/11/27)

>  <Rbt.Parameter_File>
/export/apps/rDock/src/rDock_2013.1_src/data/scripts/dock_solv.prm

>  <Rbt.Receptor>
prm/blind_docking_100.prm

>  <SCORE>
-17.4376

>  <SCORE.INTER>
-17.4376

>  <SCORE.INTER.CONST>
1

>  <SCORE.INTER.POLAR>
0

>  <SCORE.INTER.ROT>
0

>  <SCORE.INTER.SOLV>
3.88406

>  <SCORE.INTER.VDW>
-16.5198

>  <SCORE.INTER.norm>
-1.74376

>  <SCORE.INTRA>
0

>  <SCORE.INTRA.DIHEDRAL>
0

>  <SCORE.INTRA.DIHEDRAL.0>
0

>  <SCORE.INTRA.POLAR>
0

>  <SCORE.INTRA.POLAR.0>
0

>  <SCORE.INTRA.REPUL>
0

>  <SCORE.INTRA.REPUL.0>
0

>  <SCORE.INTRA.SOLV>
0

>  <SCORE.INTRA.SOLV.lig_0>
-4.28333

>  <SCORE.INTRA.VDW>
0

>  <SCORE.INTRA.VDW.0>
0

>  <SCORE.INTRA.norm>
0

>  <SCORE.RESTR>
0

>  <SCORE.RESTR.CAVITY>
0

>  <SCORE.RESTR.norm>
0

>  <SCORE.SYSTEM>
0

>  <SCORE.SYSTEM.CONST>
0

>  <SCORE.SYSTEM.DIHEDRAL>
0

>  <SCORE.SYSTEM.SOLV>
0

>  <SCORE.SYSTEM.norm>
0

>  <SCORE.heavy>
10

>  <SCORE.norm>
-1.74376

>  <RMSD>
2.426

$$$$
ligand
 OpenBabel02271912143D
libRbt.so/2013.1/901 2013/11/27
 10 11  0  0  0  0  0  0  0  0999 V2000
   11.7798   10.5480    8.8692 N   0  0  0  0  0  0  0  0  0  0  0  0
   11.9565    9.3627    8.1948 C   0  0  0  0  0  0  0  0  0  0  0  0
   11.8238    9.2748    6.8701 N   0  0  0  0  0  0  0  0  0  0  0  0
   11.5015   10.4597    6.2775 C   0  0  0  0  0  0  0  0  0  0  0  0
   11.3093   11.6797    6.8954 C   0  0  0  0  0  0  0  0  0  0  0  0
   11.4504   11.7814    8.3065 C   0  0  0  0  0  0  0  0  0  0  0  0
   11.3281   12.7586    9.0550 O   0  0  0  0  0  0  0  0  0  0  0  0
   11.0004   12.6054    5.9387 N   0  0  0  0  0  0  0  0  0  0  0  0
   11.0075   11.9556    4.7517 C   0  0  0  0  0  0  0  0  0  0  0  0
   11.3137   10.6234    4.9279 N   0  0  0  0  0  0  0  0  0  0  0  0
  1  2  1  0  0  0  0
  1  6  1  0  0  0  0
  2  3  2  0  0  0  0
  3  4  1  0  0  0  0
  4  5  2  0  0  0  0
  4 10  1  0  0  0  0
  5  6  1  0  0  0  0
  5  8  1  0  0  0  0
  6  7  2  0  0  0  0
  8  9  1  0  0  0  0
  9 10  2  0  0  0  0
M  END
>  <CHROM.1>
11.44546387,11.13418495,7.04886620,-1.04390636,1.33218777,-2.06101653

>  <Name>
ligand

>  <RI>
0

>  <Rbt.Current_Directory>
/home/itssahil/PROJECTS/Mol_Feturizer/Test_systems_manuscript/rnas/4fe5

>  <Rbt.Executable>
rbdock ($Id: //depot/dev/client3/rdock/2013.1/src/exe/rbdock.cxx#4 $)

>  <Rbt.Library>
libRbt.so (2013.1, Build901 2013/11/27)

>  <Rbt.Parameter_File>
/export/apps/rDock/src/rDock_2013.1_src/data/scripts/dock_solv.prm

>  <Rbt.Receptor>
prm/blind_docking_40.prm

>  <SCORE>
-17.4333

>  <SCORE.INTER>
-17.4333

>  <SCORE.INTER.CONST>
1

>  <SCORE.INTER.POLAR>
0

>  <SCORE.INTER.ROT>
0

>  <SCORE.INTER.SOLV>
3.93103

>  <SCORE.INTER.VDW>
-16.5325

>  <SCORE.INTER.norm>
-1.74333

>  <SCORE.INTRA>
0

>  <SCORE.INTRA.DIHEDRAL>
0

>  <SCORE.INTRA.DIHEDRAL.0>
0

>  <SCORE.INTRA.POLAR>
0

>  <SCORE.INTRA.POLAR.0>
0

>  <SCORE.INTRA.REPUL>
0

>  <SCORE.INTRA.REPUL.0>
0

>  <SCORE.INTRA.SOLV>
0

>  <SCORE.INTRA.SOLV.lig_0>
-4.28333

>  <SCORE.INTRA.VDW>
0

>  <SCORE.INTRA.VDW.0>
0

>  <SCORE.INTRA.norm>
0

>  <SCORE.RESTR>
0

>  <SCORE.RESTR.CAVITY>
0

>  <SCORE.RESTR.norm>
0

>  <SCORE.SYSTEM>
0

>  <SCORE.SYSTEM.CONST>
0

>  <SCORE.SYSTEM.DIHEDRAL>
0

>  <SCORE.SYSTEM.SOLV>
0

>  <SCORE.SYSTEM.norm>
0

>  <SCORE.heavy>
10

>  <SCORE.norm>
-1.74333

>  <RMSD>
2.427

$$$$
ligand
 OpenBabel02271912143D
libRbt.so/2013.1/901 2013/11/27
 10 11  0  0  0  0  0  0  0  0999 V2000
   11.7571   10.4856    8.8910 N   0  0  0  0  0  0  0  0  0  0  0  0
   11.9685    9.3201    8.1927 C   0  0  0  0  0  0  0  0  0  0  0  0
   11.8614    9.2610    6.8640 N   0  0  0  0  0  0  0  0  0  0  0  0
   11.5273   10.4533    6.2932 C   0  0  0  0  0  0  0  0  0  0  0  0
   11.3008   11.6546    6.9357 C   0  0  0  0  0  0  0  0  0  0  0  0
   11.4144   11.7256    8.3511 C   0  0  0  0  0  0  0  0  0  0  0  0
   11.2601   12.6824    9.1198 O   0  0  0  0  0  0  0  0  0  0  0  0
   10.9916   12.5966    5.9952 N   0  0  0  0  0  0  0  0  0  0  0  0
   11.0324   11.9753    4.7937 C   0  0  0  0  0  0  0  0  0  0  0  0
   11.3608   10.6452    4.9446 N   0  0  0  0  0  0  0  0  0  0  0  0
  1  2  1  0  0  0  0
  1  6  1  0  0  0  0
  2  3  2  0  0  0  0
  3  4  1  0  0  0  0
  4  5  2  0  0  0  0
  4 10  1  0  0  0  0
  5  6  1  0  0  0  0
  5  8  1  0  0  0  0
  6  7  2  0  0  0  0
  8  9  1  0  0  0  0
  9 10  2  0  0  0  0
M  END
>  <CHROM.1>
11.44452026,11.10824049,7.07894723,-1.14537008,1.32263272,-1.93911837

>  <Name>
ligand

>  <RI>
0

>  <Rbt.Current_Directory>
/home/itssahil/PROJECTS/Mol_Feturizer/Test_systems_manuscript/rnas/4fe5

>  <Rbt.Executable>
rbdock ($Id: //depot/dev/client3/rdock/2013.1/src/exe/rbdock.cxx#4 $)

>  <Rbt.Library>
libRbt.so (2013.1, Build901 2013/11/27)

>  <Rbt.Parameter_File>
/export/apps/rDock/src/rDock_2013.1_src/data/scripts/dock_solv.prm

>  <Rbt.Receptor>
prm/pocket_docking_5.prm

>  <SCORE>
-17.4327

>  <SCORE.INTER>
-17.4327

>  <SCORE.INTER.CONST>
1

>  <SCORE.INTER.POLAR>
0

>  <SCORE.INTER.ROT>
0

>  <SCORE.INTER.SOLV>
3.87319

>  <SCORE.INTER.VDW>
-16.5129

>  <SCORE.INTER.norm>
-1.74327

>  <SCORE.INTRA>
0

>  <SCORE.INTRA.DIHEDRAL>
0

>  <SCORE.INTRA.DIHEDRAL.0>
0

>  <SCORE.INTRA.POLAR>
0

>  <SCORE.INTRA.POLAR.0>
0

>  <SCORE.INTRA.REPUL>
0

>  <SCORE.INTRA.REPUL.0>
0

>  <SCORE.INTRA.SOLV>
0

>  <SCORE.INTRA.SOLV.lig_0>
-4.28333

>  <SCORE.INTRA.VDW>
0

>  <SCORE.INTRA.VDW.0>
0

>  <SCORE.INTRA.norm>
0

>  <SCORE.RESTR>
0

>  <SCORE.RESTR.CAVITY>
0

>  <SCORE.RESTR.norm>
0

>  <SCORE.SYSTEM>
0

>  <SCORE.SYSTEM.CONST>
0

>  <SCORE.SYSTEM.DIHEDRAL>
0

>  <SCORE.SYSTEM.SOLV>
0

>  <SCORE.SYSTEM.norm>
0

>  <SCORE.heavy>
10

>  <SCORE.norm>
-1.74327

>  <RMSD>
2.427

$$$$
ligand
 OpenBabel02271912143D
libRbt.so/2013.1/901 2013/11/27
 10 11  0  0  0  0  0  0  0  0999 V2000
   11.7719   10.5152    8.8828 N   0  0  0  0  0  0  0  0  0  0  0  0
   11.9817    9.3471    8.1882 C   0  0  0  0  0  0  0  0  0  0  0  0
   11.8630    9.2812    6.8609 N   0  0  0  0  0  0  0  0  0  0  0  0
   11.5191   10.4694    6.2874 C   0  0  0  0  0  0  0  0  0  0  0  0
   11.2935   11.6729    6.9261 C   0  0  0  0  0  0  0  0  0  0  0  0
   11.4195   11.7512    8.3401 C   0  0  0  0  0  0  0  0  0  0  0  0
   11.2682   12.7110    9.1055 O   0  0  0  0  0  0  0  0  0  0  0  0
   10.9722   12.6092    5.9839 N   0  0  0  0  0  0  0  0  0  0  0  0
   11.0048   11.9821    4.7851 C   0  0  0  0  0  0  0  0  0  0  0  0
   11.3398   10.6541    4.9394 N   0  0  0  0  0  0  0  0  0  0  0  0
  1  2  1  0  0  0  0
  1  6  1  0  0  0  0
  2  3  2  0  0  0  0
  3  4  1  0  0  0  0
  4  5  2  0  0  0  0
  4 10  1  0  0  0  0
  5  6  1  0  0  0  0
  5  8  1  0  0  0  0
  6  7  2  0  0  0  0
  8  9  1  0  0  0  0
  9 10  2  0  0  0  0
M  END
>  <CHROM.1>
11.44067117,11.12780176,7.07065524,-1.11810772,1.31561276,-1.97033506

>  <Name>
ligand

>  <RI>
0

>  <Rbt.Current_Directory>
/home/itssahil/PROJECTS/Mol_Feturizer/Test_systems_manuscript/rnas/4fe5

>  <Rbt.Executable>
rbdock ($Id: //depot/dev/client3/rdock/2013.1/src/exe/rbdock.cxx#4 $)

>  <Rbt.Library>
libRbt.so (2013.1, Build901 2013/11/27)

>  <Rbt.Parameter_File>
/export/apps/rDock/src/rDock_2013.1_src/data/scripts/dock_solv.prm

>  <Rbt.Receptor>
prm/pocket_docking_6.prm

>  <SCORE>
-17.4296

>  <SCORE.INTER>
-17.4296

>  <SCORE.INTER.CONST>
1

>  <SCORE.INTER.POLAR>
0

>  <SCORE.INTER.ROT>
0

>  <SCORE.INTER.SOLV>
3.87817

>  <SCORE.INTER.VDW>
-16.5124

>  <SCORE.INTER.norm>
-1.74296

>  <SCORE.INTRA>
0

>  <SCORE.INTRA.DIHEDRAL>
0

>  <SCORE.INTRA.DIHEDRAL.0>
0

>  <SCORE.INTRA.POLAR>
0

>  <SCORE.INTRA.POLAR.0>
0

>  <SCORE.INTRA.REPUL>
0

>  <SCORE.INTRA.REPUL.0>
0

>  <SCORE.INTRA.SOLV>
0

>  <SCORE.INTRA.SOLV.lig_0>
-4.28333

>  <SCORE.INTRA.VDW>
0

>  <SCORE.INTRA.VDW.0>
0

>  <SCORE.INTRA.norm>
0

>  <SCORE.RESTR>
0

>  <SCORE.RESTR.CAVITY>
0

>  <SCORE.RESTR.norm>
0

>  <SCORE.SYSTEM>
0

>  <SCORE.SYSTEM.CONST>
0

>  <SCORE.SYSTEM.DIHEDRAL>
0

>  <SCORE.SYSTEM.SOLV>
0

>  <SCORE.SYSTEM.norm>
0

>  <SCORE.heavy>
10

>  <SCORE.norm>
-1.74296

>  <RMSD>
2.427

$$$$
ligand
 OpenBabel02271912143D
libRbt.so/2013.1/901 2013/11/27
 10 11  0  0  0  0  0  0  0  0999 V2000
   11.7953   10.4859    8.8415 N   0  0  0  0  0  0  0  0  0  0  0  0
   11.9981    9.3241    8.1344 C   0  0  0  0  0  0  0  0  0  0  0  0
   11.8703    9.2710    6.8074 N   0  0  0  0  0  0  0  0  0  0  0  0
   11.5248   10.4652    6.2475 C   0  0  0  0  0  0  0  0  0  0  0  0
   11.3058   11.6630    6.8991 C   0  0  0  0  0  0  0  0  0  0  0  0
   11.4415   11.7276    8.3129 C   0  0  0  0  0  0  0  0  0  0  0  0
   11.2973   12.6805    9.0884 O   0  0  0  0  0  0  0  0  0  0  0  0
   10.9799   12.6088    5.9681 N   0  0  0  0  0  0  0  0  0  0  0  0
   11.0032   11.9931    4.7632 C   0  0  0  0  0  0  0  0  0  0  0  0
   11.3367   10.6631    4.9026 N   0  0  0  0  0  0  0  0  0  0  0  0
  1  2  1  0  0  0  0
  1  6  1  0  0  0  0
  2  3  2  0  0  0  0
  3  4  1  0  0  0  0
  4  5  2  0  0  0  0
  4 10  1  0  0  0  0
  5  6  1  0  0  0  0
  5  8  1  0  0  0  0
  6  7  2  0  0  0  0
  8  9  1  0  0  0  0
  9 10  2  0  0  0  0
M  END
>  <CHROM.1>
11.45295049,11.11631122,7.03753523,-1.09051459,1.31461757,-1.98753242

>  <Name>
ligand

>  <RI>
0

>  <Rbt.Current_Directory>
/home/itssahil/PROJECTS/Mol_Feturizer/Test_systems_manuscript/rnas/4fe5

>  <Rbt.Executable>
rbdock ($Id: //depot/dev/client3/rdock/2013.1/src/exe/rbdock.cxx#4 $)

>  <Rbt.Library>
libRbt.so (2013.1, Build901 2013/11/27)

>  <Rbt.Parameter_File>
/export/apps/rDock/src/rDock_2013.1_src/data/scripts/dock_solv.prm

>  <Rbt.Receptor>
prm/pocket_docking_7.prm

>  <SCORE>
-17.4616

>  <SCORE.INTER>
-17.4616

>  <SCORE.INTER.CONST>
1

>  <SCORE.INTER.POLAR>
0

>  <SCORE.INTER.ROT>
0

>  <SCORE.INTER.SOLV>
3.83387

>  <SCORE.INTER.VDW>
-16.519

>  <SCORE.INTER.norm>
-1.74616

>  <SCORE.INTRA>
0

>  <SCORE.INTRA.DIHEDRAL>
0

>  <SCORE.INTRA.DIHEDRAL.0>
0

>  <SCORE.INTRA.POLAR>
0

>  <SCORE.INTRA.POLAR.0>
0

>  <SCORE.INTRA.REPUL>
0

>  <SCORE.INTRA.REPUL.0>
0

>  <SCORE.INTRA.SOLV>
0

>  <SCORE.INTRA.SOLV.lig_0>
-4.28333

>  <SCORE.INTRA.VDW>
0

>  <SCORE.INTRA.VDW.0>
0

>  <SCORE.INTRA.norm>
0

>  <SCORE.RESTR>
0

>  <SCORE.RESTR.CAVITY>
0

>  <SCORE.RESTR.norm>
0

>  <SCORE.SYSTEM>
0

>  <SCORE.SYSTEM.CONST>
0

>  <SCORE.SYSTEM.DIHEDRAL>
0

>  <SCORE.SYSTEM.SOLV>
0

>  <SCORE.SYSTEM.norm>
0

>  <SCORE.heavy>
10

>  <SCORE.norm>
-1.74616

>  <RMSD>
2.428

$$$$
ligand
 OpenBabel02271912143D
libRbt.so/2013.1/901 2013/11/27
 10 11  0  0  0  0  0  0  0  0999 V2000
   11.7716   10.5339    8.8322 N   0  0  0  0  0  0  0  0  0  0  0  0
   11.9820    9.3630    8.1425 C   0  0  0  0  0  0  0  0  0  0  0  0
   11.8648    9.2918    6.8153 N   0  0  0  0  0  0  0  0  0  0  0  0
   11.5218   10.4777    6.2367 C   0  0  0  0  0  0  0  0  0  0  0  0
   11.2957   11.6838    6.8702 C   0  0  0  0  0  0  0  0  0  0  0  0
   11.4200   11.7678    8.2841 C   0  0  0  0  0  0  0  0  0  0  0  0
   11.2680   12.7307    9.0454 O   0  0  0  0  0  0  0  0  0  0  0  0
   10.9757   12.6164    5.9239 N   0  0  0  0  0  0  0  0  0  0  0  0
   11.0096   11.9845    4.7277 C   0  0  0  0  0  0  0  0  0  0  0  0
   11.3442   10.6571    4.8877 N   0  0  0  0  0  0  0  0  0  0  0  0
  1  2  1  0  0  0  0
  1  6  1  0  0  0  0
  2  3  2  0  0  0  0
  3  4  1  0  0  0  0
  4  5  2  0  0  0  0
  4 10  1  0  0  0  0
  5  6  1  0  0  0  0
  5  8  1  0  0  0  0
  6  7  2  0  0  0  0
  8  9  1  0  0  0  0
  9 10  2  0  0  0  0
M  END
>  <CHROM.1>
11.44260805,11.13931113,7.01719186,-1.12218648,1.31623442,-1.97040574

>  <Name>
ligand

>  <RI>
0

>  <Rbt.Current_Directory>
/home/itssahil/PROJECTS/Mol_Feturizer/Test_systems_manuscript/rnas/4fe5

>  <Rbt.Executable>
rbdock ($Id: //depot/dev/client3/rdock/2013.1/src/exe/rbdock.cxx#4 $)

>  <Rbt.Library>
libRbt.so (2013.1, Build901 2013/11/27)

>  <Rbt.Parameter_File>
/export/apps/rDock/src/rDock_2013.1_src/data/scripts/dock_solv.prm

>  <Rbt.Receptor>
prm/pocket_docking_4.prm

>  <SCORE>
-17.4545

>  <SCORE.INTER>
-17.4545

>  <SCORE.INTER.CONST>
1

>  <SCORE.INTER.POLAR>
0

>  <SCORE.INTER.ROT>
0

>  <SCORE.INTER.SOLV>
3.88269

>  <SCORE.INTER.VDW>
-16.5306

>  <SCORE.INTER.norm>
-1.74545

>  <SCORE.INTRA>
0

>  <SCORE.INTRA.DIHEDRAL>
0

>  <SCORE.INTRA.DIHEDRAL.0>
0

>  <SCORE.INTRA.POLAR>
0

>  <SCORE.INTRA.POLAR.0>
0

>  <SCORE.INTRA.REPUL>
0

>  <SCORE.INTRA.REPUL.0>
0

>  <SCORE.INTRA.SOLV>
0

>  <SCORE.INTRA.SOLV.lig_0>
-4.28333

>  <SCORE.INTRA.VDW>
0

>  <SCORE.INTRA.VDW.0>
0

>  <SCORE.INTRA.norm>
0

>  <SCORE.RESTR>
0

>  <SCORE.RESTR.CAVITY>
0

>  <SCORE.RESTR.norm>
0

>  <SCORE.SYSTEM>
0

>  <SCORE.SYSTEM.CONST>
0

>  <SCORE.SYSTEM.DIHEDRAL>
0

>  <SCORE.SYSTEM.SOLV>
0

>  <SCORE.SYSTEM.norm>
0

>  <SCORE.heavy>
10

>  <SCORE.norm>
-1.74545

>  <RMSD>
2.432

$$$$
ligand
 OpenBabel02271912143D
libRbt.so/2013.1/901 2013/11/27
 10 11  0  0  0  0  0  0  0  0999 V2000
   11.6128   10.6957    8.5672 N   0  0  0  0  0  0  0  0  0  0  0  0
   11.9035    9.4951    7.9630 C   0  0  0  0  0  0  0  0  0  0  0  0
   11.8409    9.3345    6.6399 N   0  0  0  0  0  0  0  0  0  0  0  0
   11.4660   10.4633    5.9736 C   0  0  0  0  0  0  0  0  0  0  0  0
   11.1601   11.6946    6.5190 C   0  0  0  0  0  0  0  0  0  0  0  0
   11.2259   11.8738    7.9279 C   0  0  0  0  0  0  0  0  0  0  0  0
   11.0004   12.8745    8.6192 O   0  0  0  0  0  0  0  0  0  0  0  0
   10.8340   12.5488    5.5034 N   0  0  0  0  0  0  0  0  0  0  0  0
   10.9431   11.8450    4.3527 C   0  0  0  0  0  0  0  0  0  0  0  0
   11.3322   10.5482    4.6104 N   0  0  0  0  0  0  0  0  0  0  0  0
  1  2  1  0  0  0  0
  1  6  1  0  0  0  0
  2  3  2  0  0  0  0
  3  4  1  0  0  0  0
  4  5  2  0  0  0  0
  4 10  1  0  0  0  0
  5  6  1  0  0  0  0
  5  8  1  0  0  0  0
  6  7  2  0  0  0  0
  8  9  1  0  0  0  0
  9 10  2  0  0  0  0
M  END
>  <CHROM.1>
11.32628881,11.16831046,6.70618245,-1.31199917,1.28367992,-1.85167907

>  <Name>
ligand

>  <RI>
0

>  <Rbt.Current_Directory>
/home/itssahil/PROJECTS/Mol_Feturizer/Test_systems_manuscript/rnas/4fe5

>  <Rbt.Executable>
rbdock ($Id: //depot/dev/client3/rdock/2013.1/src/exe/rbdock.cxx#4 $)

>  <Rbt.Library>
libRbt.so (2013.1, Build901 2013/11/27)

>  <Rbt.Parameter_File>
/export/apps/rDock/src/rDock_2013.1_src/data/scripts/dock_solv.prm

>  <Rbt.Receptor>
prm/blind_docking_20.prm

>  <SCORE>
-16.3515

>  <SCORE.INTER>
-16.371

>  <SCORE.INTER.CONST>
1

>  <SCORE.INTER.POLAR>
0

>  <SCORE.INTER.ROT>
0

>  <SCORE.INTER.SOLV>
4.06274

>  <SCORE.INTER.VDW>
-15.8683

>  <SCORE.INTER.norm>
-1.6371

>  <SCORE.INTRA>
0

>  <SCORE.INTRA.DIHEDRAL>
0

>  <SCORE.INTRA.DIHEDRAL.0>
0

>  <SCORE.INTRA.POLAR>
0

>  <SCORE.INTRA.POLAR.0>
0

>  <SCORE.INTRA.REPUL>
0

>  <SCORE.INTRA.REPUL.0>
0

>  <SCORE.INTRA.SOLV>
0

>  <SCORE.INTRA.SOLV.lig_0>
-4.28333

>  <SCORE.INTRA.VDW>
0

>  <SCORE.INTRA.VDW.0>
0

>  <SCORE.INTRA.norm>
0

>  <SCORE.RESTR>
0.0194903

>  <SCORE.RESTR.CAVITY>
0.0194903

>  <SCORE.RESTR.norm>
0.00194903

>  <SCORE.SYSTEM>
0

>  <SCORE.SYSTEM.CONST>
0

>  <SCORE.SYSTEM.DIHEDRAL>
0

>  <SCORE.SYSTEM.SOLV>
0

>  <SCORE.SYSTEM.norm>
0

>  <SCORE.heavy>
10

>  <SCORE.norm>
-1.63515

>  <RMSD>
2.502

$$$$
ligand
 OpenBabel02271912143D
libRbt.so/2013.1/901 2013/11/27
 10 11  0  0  0  0  0  0  0  0999 V2000
   11.6200   10.6954    8.5666 N   0  0  0  0  0  0  0  0  0  0  0  0
   11.9097    9.4939    7.9638 C   0  0  0  0  0  0  0  0  0  0  0  0
   11.8372    9.3290    6.6418 N   0  0  0  0  0  0  0  0  0  0  0  0
   11.4532   10.4546    5.9750 C   0  0  0  0  0  0  0  0  0  0  0  0
   11.1477   11.6866    6.5191 C   0  0  0  0  0  0  0  0  0  0  0  0
   11.2241   11.8703    7.9268 C   0  0  0  0  0  0  0  0  0  0  0  0
   11.0008   12.8724    8.6168 O   0  0  0  0  0  0  0  0  0  0  0  0
   10.8106   12.5366    5.5034 N   0  0  0  0  0  0  0  0  0  0  0  0
   10.9129   11.8296    4.3541 C   0  0  0  0  0  0  0  0  0  0  0  0
   11.3083   10.5348    4.6126 N   0  0  0  0  0  0  0  0  0  0  0  0
  1  2  1  0  0  0  0
  1  6  1  0  0  0  0
  2  3  2  0  0  0  0
  3  4  1  0  0  0  0
  4  5  2  0  0  0  0
  4 10  1  0  0  0  0
  5  6  1  0  0  0  0
  5  8  1  0  0  0  0
  6  7  2  0  0  0  0
  8  9  1  0  0  0  0
  9 10  2  0  0  0  0
M  END
>  <CHROM.1>
11.31706528,11.16140083,6.70650064,-1.28858809,1.27824546,-1.87718515

>  <Name>
ligand

>  <RI>
0

>  <Rbt.Current_Directory>
/home/itssahil/PROJECTS/Mol_Feturizer/Test_systems_manuscript/rnas/4fe5

>  <Rbt.Executable>
rbdock ($Id: //depot/dev/client3/rdock/2013.1/src/exe/rbdock.cxx#4 $)

>  <Rbt.Library>
libRbt.so (2013.1, Build901 2013/11/27)

>  <Rbt.Parameter_File>
/export/apps/rDock/src/rDock_2013.1_src/data/scripts/dock_solv.prm

>  <Rbt.Receptor>
prm/blind_docking_20.prm

>  <SCORE>
-16.3492

>  <SCORE.INTER>
-16.3667

>  <SCORE.INTER.CONST>
1

>  <SCORE.INTER.POLAR>
0

>  <SCORE.INTER.ROT>
0

>  <SCORE.INTER.SOLV>
4.05552

>  <SCORE.INTER.VDW>
-15.863

>  <SCORE.INTER.norm>
-1.63667

>  <SCORE.INTRA>
0

>  <SCORE.INTRA.DIHEDRAL>
0

>  <SCORE.INTRA.DIHEDRAL.0>
0

>  <SCORE.INTRA.POLAR>
0

>  <SCORE.INTRA.POLAR.0>
0

>  <SCORE.INTRA.REPUL>
0

>  <SCORE.INTRA.REPUL.0>
0

>  <SCORE.INTRA.SOLV>
0

>  <SCORE.INTRA.SOLV.lig_0>
-4.28333

>  <SCORE.INTRA.VDW>
0

>  <SCORE.INTRA.VDW.0>
0

>  <SCORE.INTRA.norm>
0

>  <SCORE.RESTR>
0.0174986

>  <SCORE.RESTR.CAVITY>
0.0174986

>  <SCORE.RESTR.norm>
0.00174986

>  <SCORE.SYSTEM>
0

>  <SCORE.SYSTEM.CONST>
0

>  <SCORE.SYSTEM.DIHEDRAL>
0

>  <SCORE.SYSTEM.SOLV>
0

>  <SCORE.SYSTEM.norm>
0

>  <SCORE.heavy>
10

>  <SCORE.norm>
-1.63492

>  <RMSD>
2.502

$$$$
ligand
 OpenBabel02271912143D
libRbt.so/2013.1/901 2013/11/27
 10 11  0  0  0  0  0  0  0  0999 V2000
   11.6078   10.6982    8.5545 N   0  0  0  0  0  0  0  0  0  0  0  0
   11.8907    9.4937    7.9545 C   0  0  0  0  0  0  0  0  0  0  0  0
   11.8147    9.3255    6.6330 N   0  0  0  0  0  0  0  0  0  0  0  0
   11.4347   10.4511    5.9639 C   0  0  0  0  0  0  0  0  0  0  0  0
   11.1361   11.6860    6.5051 C   0  0  0  0  0  0  0  0  0  0  0  0
   11.2162   11.8732    7.9123 C   0  0  0  0  0  0  0  0  0  0  0  0
   10.9990   12.8782    8.5999 O   0  0  0  0  0  0  0  0  0  0  0  0
   10.8011   12.5347    5.4878 N   0  0  0  0  0  0  0  0  0  0  0  0
   10.8977   11.8240    4.3403 C   0  0  0  0  0  0  0  0  0  0  0  0
   11.2875   10.5282    4.6016 N   0  0  0  0  0  0  0  0  0  0  0  0
  1  2  1  0  0  0  0
  1  6  1  0  0  0  0
  2  3  2  0  0  0  0
  3  4  1  0  0  0  0
  4  5  2  0  0  0  0
  4 10  1  0  0  0  0
  5  6  1  0  0  0  0
  5  8  1  0  0  0  0
  6  7  2  0  0  0  0
  8  9  1  0  0  0  0
  9 10  2  0  0  0  0
M  END
>  <CHROM.1>
11.30338459,11.16049484,6.69370468,-1.27692811,1.28212195,-1.89112649

>  <Name>
ligand

>  <RI>
0

>  <Rbt.Current_Directory>
/home/itssahil/PROJECTS/Mol_Feturizer/Test_systems_manuscript/rnas/4fe5

>  <Rbt.Executable>
rbdock ($Id: //depot/dev/client3/rdock/2013.1/src/exe/rbdock.cxx#4 $)

>  <Rbt.Library>
libRbt.so (2013.1, Build901 2013/11/27)

>  <Rbt.Parameter_File>
/export/apps/rDock/src/rDock_2013.1_src/data/scripts/dock_solv.prm

>  <Rbt.Receptor>
prm/blind_docking_20.prm

>  <SCORE>
-16.282

>  <SCORE.INTER>
-16.282

>  <SCORE.INTER.CONST>
1

>  <SCORE.INTER.POLAR>
0

>  <SCORE.INTER.ROT>
0

>  <SCORE.INTER.SOLV>
4.07306

>  <SCORE.INTER.VDW>
-15.8124

>  <SCORE.INTER.norm>
-1.6282

>  <SCORE.INTRA>
0

>  <SCORE.INTRA.DIHEDRAL>
0

>  <SCORE.INTRA.DIHEDRAL.0>
0

>  <SCORE.INTRA.POLAR>
0

>  <SCORE.INTRA.POLAR.0>
0

>  <SCORE.INTRA.REPUL>
0

>  <SCORE.INTRA.REPUL.0>
0

>  <SCORE.INTRA.SOLV>
0

>  <SCORE.INTRA.SOLV.lig_0>
-4.28333

>  <SCORE.INTRA.VDW>
0

>  <SCORE.INTRA.VDW.0>
0

>  <SCORE.INTRA.norm>
0

>  <SCORE.RESTR>
0

>  <SCORE.RESTR.CAVITY>
0

>  <SCORE.RESTR.norm>
0

>  <SCORE.SYSTEM>
0

>  <SCORE.SYSTEM.CONST>
0

>  <SCORE.SYSTEM.DIHEDRAL>
0

>  <SCORE.SYSTEM.SOLV>
0

>  <SCORE.SYSTEM.norm>
0

>  <SCORE.heavy>
10

>  <SCORE.norm>
-1.6282

>  <RMSD>
2.506

$$$$
ligand
 OpenBabel02271912143D
libRbt.so/2013.1/901 2013/11/27
 10 11  0  0  0  0  0  0  0  0999 V2000
   11.6195   10.7013    8.5526 N   0  0  0  0  0  0  0  0  0  0  0  0
   11.9062    9.4979    7.9521 C   0  0  0  0  0  0  0  0  0  0  0  0
   11.8273    9.3289    6.6309 N   0  0  0  0  0  0  0  0  0  0  0  0
   11.4403   10.4525    5.9625 C   0  0  0  0  0  0  0  0  0  0  0  0
   11.1375   11.6862    6.5042 C   0  0  0  0  0  0  0  0  0  0  0  0
   11.2208   11.8743    7.9110 C   0  0  0  0  0  0  0  0  0  0  0  0
   11.0009   12.8785    8.5990 O   0  0  0  0  0  0  0  0  0  0  0  0
   10.7958   12.5331    5.4876 N   0  0  0  0  0  0  0  0  0  0  0  0
   10.8924   11.8225    4.3399 C   0  0  0  0  0  0  0  0  0  0  0  0
   11.2889   10.5285    4.6006 N   0  0  0  0  0  0  0  0  0  0  0  0
  1  2  1  0  0  0  0
  1  6  1  0  0  0  0
  2  3  2  0  0  0  0
  3  4  1  0  0  0  0
  4  5  2  0  0  0  0
  4 10  1  0  0  0  0
  5  6  1  0  0  0  0
  5  8  1  0  0  0  0
  6  7  2  0  0  0  0
  8  9  1  0  0  0  0
  9 10  2  0  0  0  0
M  END
>  <CHROM.1>
11.30775038,11.16155659,6.69245375,-1.27268320,1.27690397,-1.89550008

>  <Name>
ligand

>  <RI>
0

>  <Rbt.Current_Directory>
/home/itssahil/PROJECTS/Mol_Feturizer/Test_systems_manuscript/rnas/4fe5

>  <Rbt.Executable>
rbdock ($Id: //depot/dev/client3/rdock/2013.1/src/exe/rbdock.cxx#4 $)

>  <Rbt.Library>
libRbt.so (2013.1, Build901 2013/11/27)

>  <Rbt.Parameter_File>
/export/apps/rDock/src/rDock_2013.1_src/data/scripts/dock_solv.prm

>  <Rbt.Receptor>
prm/blind_docking_20.prm

>  <SCORE>
-16.2876

>  <SCORE.INTER>
-16.2876

>  <SCORE.INTER.CONST>
1

>  <SCORE.INTER.POLAR>
0

>  <SCORE.INTER.ROT>
0

>  <SCORE.INTER.SOLV>
4.06267

>  <SCORE.INTER.VDW>
-15.8126

>  <SCORE.INTER.norm>
-1.62876

>  <SCORE.INTRA>
0

>  <SCORE.INTRA.DIHEDRAL>
0

>  <SCORE.INTRA.DIHEDRAL.0>
0

>  <SCORE.INTRA.POLAR>
0

>  <SCORE.INTRA.POLAR.0>
0

>  <SCORE.INTRA.REPUL>
0

>  <SCORE.INTRA.REPUL.0>
0

>  <SCORE.INTRA.SOLV>
0

>  <SCORE.INTRA.SOLV.lig_0>
-4.28333

>  <SCORE.INTRA.VDW>
0

>  <SCORE.INTRA.VDW.0>
0

>  <SCORE.INTRA.norm>
0

>  <SCORE.RESTR>
0

>  <SCORE.RESTR.CAVITY>
0

>  <SCORE.RESTR.norm>
0

>  <SCORE.SYSTEM>
0

>  <SCORE.SYSTEM.CONST>
0

>  <SCORE.SYSTEM.DIHEDRAL>
0

>  <SCORE.SYSTEM.SOLV>
0

>  <SCORE.SYSTEM.norm>
0

>  <SCORE.heavy>
10

>  <SCORE.norm>
-1.62876

>  <RMSD>
2.506

$$$$
ligand
 OpenBabel02271912143D
libRbt.so/2013.1/901 2013/11/27
 10 11  0  0  0  0  0  0  0  0999 V2000
   11.6345   10.6743    8.5404 N   0  0  0  0  0  0  0  0  0  0  0  0
   11.9307    9.4770    7.9322 C   0  0  0  0  0  0  0  0  0  0  0  0
   11.8547    9.3163    6.6099 N   0  0  0  0  0  0  0  0  0  0  0  0
   11.4605   10.4416    5.9485 C   0  0  0  0  0  0  0  0  0  0  0  0
   11.1481   11.6694    6.4980 C   0  0  0  0  0  0  0  0  0  0  0  0
   11.2282   11.8486    7.9061 C   0  0  0  0  0  0  0  0  0  0  0  0
   11.0002   12.8466    8.6005 O   0  0  0  0  0  0  0  0  0  0  0  0
   10.8016   12.5206    5.4866 N   0  0  0  0  0  0  0  0  0  0  0  0
   10.9048   11.8184    4.3344 C   0  0  0  0  0  0  0  0  0  0  0  0
   11.3103   10.5256    4.5869 N   0  0  0  0  0  0  0  0  0  0  0  0
  1  2  1  0  0  0  0
  1  6  1  0  0  0  0
  2  3  2  0  0  0  0
  3  4  1  0  0  0  0
  4  5  2  0  0  0  0
  4 10  1  0  0  0  0
  5  6  1  0  0  0  0
  5  8  1  0  0  0  0
  6  7  2  0  0  0  0
  8  9  1  0  0  0  0
  9 10  2  0  0  0  0
M  END
>  <CHROM.1>
11.32187115,11.14473243,6.68295957,-1.28460441,1.27047062,-1.87741559

>  <Name>
ligand

>  <RI>
0

>  <Rbt.Current_Directory>
/home/itssahil/PROJECTS/Mol_Feturizer/Test_systems_manuscript/rnas/4fe5

>  <Rbt.Executable>
rbdock ($Id: //depot/dev/client3/rdock/2013.1/src/exe/rbdock.cxx#4 $)

>  <Rbt.Library>
libRbt.so (2013.1, Build901 2013/11/27)

>  <Rbt.Parameter_File>
/export/apps/rDock/src/rDock_2013.1_src/data/scripts/dock_solv.prm

>  <Rbt.Receptor>
prm/blind_docking_20.prm

>  <SCORE>
-16.2497

>  <SCORE.INTER>
-16.2504

>  <SCORE.INTER.CONST>
1

>  <SCORE.INTER.POLAR>
0

>  <SCORE.INTER.ROT>
0

>  <SCORE.INTER.SOLV>
4.03099

>  <SCORE.INTER.VDW>
-15.7773

>  <SCORE.INTER.norm>
-1.62504

>  <SCORE.INTRA>
0

>  <SCORE.INTRA.DIHEDRAL>
0

>  <SCORE.INTRA.DIHEDRAL.0>
0

>  <SCORE.INTRA.POLAR>
0

>  <SCORE.INTRA.POLAR.0>
0

>  <SCORE.INTRA.REPUL>
0

>  <SCORE.INTRA.REPUL.0>
0

>  <SCORE.INTRA.SOLV>
0

>  <SCORE.INTRA.SOLV.lig_0>
-4.28333

>  <SCORE.INTRA.VDW>
0

>  <SCORE.INTRA.VDW.0>
0

>  <SCORE.INTRA.norm>
0

>  <SCORE.RESTR>
0.000642321

>  <SCORE.RESTR.CAVITY>
0.000642321

>  <SCORE.RESTR.norm>
6.42321e-05

>  <SCORE.SYSTEM>
0

>  <SCORE.SYSTEM.CONST>
0

>  <SCORE.SYSTEM.DIHEDRAL>
0

>  <SCORE.SYSTEM.SOLV>
0

>  <SCORE.SYSTEM.norm>
0

>  <SCORE.heavy>
10

>  <SCORE.norm>
-1.62497

>  <RMSD>
2.506

$$$$
ligand
 OpenBabel02271912143D
libRbt.so/2013.1/901 2013/11/27
 10 11  0  0  0  0  0  0  0  0999 V2000
   11.6091   10.6986    8.5514 N   0  0  0  0  0  0  0  0  0  0  0  0
   11.8911    9.4946    7.9499 C   0  0  0  0  0  0  0  0  0  0  0  0
   11.8133    9.3275    6.6285 N   0  0  0  0  0  0  0  0  0  0  0  0
   11.4325   10.4536    5.9608 C   0  0  0  0  0  0  0  0  0  0  0  0
   11.1347   11.6881    6.5035 C   0  0  0  0  0  0  0  0  0  0  0  0
   11.2168   11.8742    7.9106 C   0  0  0  0  0  0  0  0  0  0  0  0
   11.0006   12.8786    8.5994 O   0  0  0  0  0  0  0  0  0  0  0  0
   10.7984   12.5377    5.4873 N   0  0  0  0  0  0  0  0  0  0  0  0
   10.8934   11.8280    4.3390 C   0  0  0  0  0  0  0  0  0  0  0  0
   11.2835   10.5319    4.5988 N   0  0  0  0  0  0  0  0  0  0  0  0
  1  2  1  0  0  0  0
  1  6  1  0  0  0  0
  2  3  2  0  0  0  0
  3  4  1  0  0  0  0
  4  5  2  0  0  0  0
  4 10  1  0  0  0  0
  5  6  1  0  0  0  0
  5  8  1  0  0  0  0
  6  7  2  0  0  0  0
  8  9  1  0  0  0  0
  9 10  2  0  0  0  0
M  END
>  <CHROM.1>
11.30224812,11.16247148,6.69138092,-1.27226274,1.28177436,-1.89475909

>  <Name>
ligand

>  <RI>
0

>  <Rbt.Current_Directory>
/home/itssahil/PROJECTS/Mol_Feturizer/Test_systems_manuscript/rnas/4fe5

>  <Rbt.Executable>
rbdock ($Id: //depot/dev/client3/rdock/2013.1/src/exe/rbdock.cxx#4 $)

>  <Rbt.Library>
libRbt.so (2013.1, Build901 2013/11/27)

>  <Rbt.Parameter_File>
/export/apps/rDock/src/rDock_2013.1_src/data/scripts/dock_solv.prm

>  <Rbt.Receptor>
prm/blind_docking_20.prm

>  <SCORE>
-16.2831

>  <SCORE.INTER>
-16.2831

>  <SCORE.INTER.CONST>
1

>  <SCORE.INTER.POLAR>
0

>  <SCORE.INTER.ROT>
0

>  <SCORE.INTER.SOLV>
4.07136

>  <SCORE.INTER.VDW>
-15.8125

>  <SCORE.INTER.norm>
-1.62831

>  <SCORE.INTRA>
0

>  <SCORE.INTRA.DIHEDRAL>
0

>  <SCORE.INTRA.DIHEDRAL.0>
0

>  <SCORE.INTRA.POLAR>
0

>  <SCORE.INTRA.POLAR.0>
0

>  <SCORE.INTRA.REPUL>
0

>  <SCORE.INTRA.REPUL.0>
0

>  <SCORE.INTRA.SOLV>
0

>  <SCORE.INTRA.SOLV.lig_0>
-4.28333

>  <SCORE.INTRA.VDW>
0

>  <SCORE.INTRA.VDW.0>
0

>  <SCORE.INTRA.norm>
0

>  <SCORE.RESTR>
0

>  <SCORE.RESTR.CAVITY>
0

>  <SCORE.RESTR.norm>
0

>  <SCORE.SYSTEM>
0

>  <SCORE.SYSTEM.CONST>
0

>  <SCORE.SYSTEM.DIHEDRAL>
0

>  <SCORE.SYSTEM.SOLV>
0

>  <SCORE.SYSTEM.norm>
0

>  <SCORE.heavy>
10

>  <SCORE.norm>
-1.62831

>  <RMSD>
2.507

$$$$
ligand
 OpenBabel02271912143D
libRbt.so/2013.1/901 2013/11/27
 10 11  0  0  0  0  0  0  0  0999 V2000
   11.6202   10.7015    8.5389 N   0  0  0  0  0  0  0  0  0  0  0  0
   11.9124    9.5037    7.9299 C   0  0  0  0  0  0  0  0  0  0  0  0
   11.8450    9.3468    6.6067 N   0  0  0  0  0  0  0  0  0  0  0  0
   11.4637   10.4764    5.9452 C   0  0  0  0  0  0  0  0  0  0  0  0
   11.1560   11.7050    6.4955 C   0  0  0  0  0  0  0  0  0  0  0  0
   11.2268   11.8802    7.9046 C   0  0  0  0  0  0  0  0  0  0  0  0
   11.0007   12.8781    8.5998 O   0  0  0  0  0  0  0  0  0  0  0  0
   10.8229   12.5611    5.4837 N   0  0  0  0  0  0  0  0  0  0  0  0
   10.9297   11.8611    4.3305 C   0  0  0  0  0  0  0  0  0  0  0  0
   11.3242   10.5648    4.5828 N   0  0  0  0  0  0  0  0  0  0  0  0
  1  2  1  0  0  0  0
  1  6  1  0  0  0  0
  2  3  2  0  0  0  0
  3  4  1  0  0  0  0
  4  5  2  0  0  0  0
  4 10  1  0  0  0  0
  5  6  1  0  0  0  0
  5  8  1  0  0  0  0
  6  7  2  0  0  0  0
  8  9  1  0  0  0  0
  9 10  2  0  0  0  0
M  END
>  <CHROM.1>
11.32463255,11.17869451,6.68041163,-1.30177506,1.27938768,-1.85850525

>  <Name>
ligand

>  <RI>
0

>  <Rbt.Current_Directory>
/home/itssahil/PROJECTS/Mol_Feturizer/Test_systems_manuscript/rnas/4fe5

>  <Rbt.Executable>
rbdock ($Id: //depot/dev/client3/rdock/2013.1/src/exe/rbdock.cxx#4 $)

>  <Rbt.Library>
libRbt.so (2013.1, Build901 2013/11/27)

>  <Rbt.Parameter_File>
/export/apps/rDock/src/rDock_2013.1_src/data/scripts/dock_solv.prm

>  <Rbt.Receptor>
prm/blind_docking_20.prm

>  <SCORE>
-16.2613

>  <SCORE.INTER>
-16.2617

>  <SCORE.INTER.CONST>
1

>  <SCORE.INTER.POLAR>
0

>  <SCORE.INTER.ROT>
0

>  <SCORE.INTER.SOLV>
4.06023

>  <SCORE.INTER.VDW>
-15.7945

>  <SCORE.INTER.norm>
-1.62617

>  <SCORE.INTRA>
0

>  <SCORE.INTRA.DIHEDRAL>
0

>  <SCORE.INTRA.DIHEDRAL.0>
0

>  <SCORE.INTRA.POLAR>
0

>  <SCORE.INTRA.POLAR.0>
0

>  <SCORE.INTRA.REPUL>
0

>  <SCORE.INTRA.REPUL.0>
0

>  <SCORE.INTRA.SOLV>
0

>  <SCORE.INTRA.SOLV.lig_0>
-4.28333

>  <SCORE.INTRA.VDW>
0

>  <SCORE.INTRA.VDW.0>
0

>  <SCORE.INTRA.norm>
0

>  <SCORE.RESTR>
0.000430967

>  <SCORE.RESTR.CAVITY>
0.000430967

>  <SCORE.RESTR.norm>
4.30967e-05

>  <SCORE.SYSTEM>
0

>  <SCORE.SYSTEM.CONST>
0

>  <SCORE.SYSTEM.DIHEDRAL>
0

>  <SCORE.SYSTEM.SOLV>
0

>  <SCORE.SYSTEM.norm>
0

>  <SCORE.heavy>
10

>  <SCORE.norm>
-1.62613

>  <RMSD>
2.507

$$$$
ligand
 OpenBabel02271912143D
libRbt.so/2013.1/901 2013/11/27
 10 11  0  0  0  0  0  0  0  0999 V2000
   11.2946   13.0660    7.8460 N   0  0  0  0  0  0  0  0  0  0  0  0
   11.4268   12.6335    9.1446 C   0  0  0  0  0  0  0  0  0  0  0  0
   11.6994   11.3620    9.4435 N   0  0  0  0  0  0  0  0  0  0  0  0
   11.8276   10.5625    8.3466 C   0  0  0  0  0  0  0  0  0  0  0  0
   11.7057   10.9329    7.0218 C   0  0  0  0  0  0  0  0  0  0  0  0
   11.4167   12.2863    6.6955 C   0  0  0  0  0  0  0  0  0  0  0  0
   11.2692   12.8305    5.5946 O   0  0  0  0  0  0  0  0  0  0  0  0
   11.9070    9.8281    6.2432 N   0  0  0  0  0  0  0  0  0  0  0  0
   12.1514    8.7976    7.0856 C   0  0  0  0  0  0  0  0  0  0  0  0
   12.1083    9.2200    8.3968 N   0  0  0  0  0  0  0  0  0  0  0  0
  1  2  1  0  0  0  0
  1  6  1  0  0  0  0
  2  3  2  0  0  0  0
  3  4  1  0  0  0  0
  4  5  2  0  0  0  0
  4 10  1  0  0  0  0
  5  6  1  0  0  0  0
  5  8  1  0  0  0  0
  6  7  2  0  0  0  0
  8  9  1  0  0  0  0
  9 10  2  0  0  0  0
M  END
>  <CHROM.1>
11.67258127,11.18552254,7.54603794,-3.11824803,1.36466237,-1.73148036

>  <Name>
ligand

>  <RI>
0

>  <Rbt.Current_Directory>
/home/itssahil/PROJECTS/Mol_Feturizer/Test_systems_manuscript/rnas/4fe5

>  <Rbt.Executable>
rbdock ($Id: //depot/dev/client3/rdock/2013.1/src/exe/rbdock.cxx#4 $)

>  <Rbt.Library>
libRbt.so (2013.1, Build901 2013/11/27)

>  <Rbt.Parameter_File>
/export/apps/rDock/src/rDock_2013.1_src/data/scripts/dock_solv.prm

>  <Rbt.Receptor>
prm/blind_docking_60.prm

>  <SCORE>
-15.017

>  <SCORE.INTER>
-15.017

>  <SCORE.INTER.CONST>
1

>  <SCORE.INTER.POLAR>
0

>  <SCORE.INTER.ROT>
0

>  <SCORE.INTER.SOLV>
4.39325

>  <SCORE.INTER.VDW>
-15.0758

>  <SCORE.INTER.norm>
-1.5017

>  <SCORE.INTRA>
0

>  <SCORE.INTRA.DIHEDRAL>
0

>  <SCORE.INTRA.DIHEDRAL.0>
0

>  <SCORE.INTRA.POLAR>
0

>  <SCORE.INTRA.POLAR.0>
0

>  <SCORE.INTRA.REPUL>
0

>  <SCORE.INTRA.REPUL.0>
0

>  <SCORE.INTRA.SOLV>
0

>  <SCORE.INTRA.SOLV.lig_0>
-4.28333

>  <SCORE.INTRA.VDW>
0

>  <SCORE.INTRA.VDW.0>
0

>  <SCORE.INTRA.norm>
0

>  <SCORE.RESTR>
0

>  <SCORE.RESTR.CAVITY>
0

>  <SCORE.RESTR.norm>
0

>  <SCORE.SYSTEM>
0

>  <SCORE.SYSTEM.CONST>
0

>  <SCORE.SYSTEM.DIHEDRAL>
0

>  <SCORE.SYSTEM.SOLV>
0

>  <SCORE.SYSTEM.norm>
0

>  <SCORE.heavy>
10

>  <SCORE.norm>
-1.5017

>  <RMSD>
2.852

$$$$
ligand
 OpenBabel02271912143D
libRbt.so/2013.1/901 2013/11/27
 10 11  0  0  0  0  0  0  0  0999 V2000
   11.3355   13.1140    7.8516 N   0  0  0  0  0  0  0  0  0  0  0  0
   11.5102   12.6804    9.1449 C   0  0  0  0  0  0  0  0  0  0  0  0
   11.7947   11.4091    9.4334 N   0  0  0  0  0  0  0  0  0  0  0  0
   11.8891   10.6110    8.3321 C   0  0  0  0  0  0  0  0  0  0  0  0
   11.7240   10.9826    7.0123 C   0  0  0  0  0  0  0  0  0  0  0  0
   11.4222   12.3357    6.6970 C   0  0  0  0  0  0  0  0  0  0  0  0
   11.2384   12.8809    5.6019 O   0  0  0  0  0  0  0  0  0  0  0  0
   11.9024    9.8790    6.2264 N   0  0  0  0  0  0  0  0  0  0  0  0
   12.1757    8.8480    7.0594 C   0  0  0  0  0  0  0  0  0  0  0  0
   12.1738    9.2690    8.3718 N   0  0  0  0  0  0  0  0  0  0  0  0
  1  2  1  0  0  0  0
  1  6  1  0  0  0  0
  2  3  2  0  0  0  0
  3  4  1  0  0  0  0
  4  5  2  0  0  0  0
  4 10  1  0  0  0  0
  5  6  1  0  0  0  0
  5  8  1  0  0  0  0
  6  7  2  0  0  0  0
  8  9  1  0  0  0  0
  9 10  2  0  0  0  0
M  END
>  <CHROM.1>
11.70728992,11.23458771,7.53758128,-2.97097755,1.35539094,-1.87441179

>  <Name>
ligand

>  <RI>
0

>  <Rbt.Current_Directory>
/home/itssahil/PROJECTS/Mol_Feturizer/Test_systems_manuscript/rnas/4fe5

>  <Rbt.Executable>
rbdock ($Id: //depot/dev/client3/rdock/2013.1/src/exe/rbdock.cxx#4 $)

>  <Rbt.Library>
libRbt.so (2013.1, Build901 2013/11/27)

>  <Rbt.Parameter_File>
/export/apps/rDock/src/rDock_2013.1_src/data/scripts/dock_solv.prm

>  <Rbt.Receptor>
prm/blind_docking_60.prm

>  <SCORE>
-15.1183

>  <SCORE.INTER>
-15.1183

>  <SCORE.INTER.CONST>
1

>  <SCORE.INTER.POLAR>
0

>  <SCORE.INTER.ROT>
0

>  <SCORE.INTER.SOLV>
4.36789

>  <SCORE.INTER.VDW>
-15.1348

>  <SCORE.INTER.norm>
-1.51183

>  <SCORE.INTRA>
0

>  <SCORE.INTRA.DIHEDRAL>
0

>  <SCORE.INTRA.DIHEDRAL.0>
0

>  <SCORE.INTRA.POLAR>
0

>  <SCORE.INTRA.POLAR.0>
0

>  <SCORE.INTRA.REPUL>
0

>  <SCORE.INTRA.REPUL.0>
0

>  <SCORE.INTRA.SOLV>
0

>  <SCORE.INTRA.SOLV.lig_0>
-4.28333

>  <SCORE.INTRA.VDW>
0

>  <SCORE.INTRA.VDW.0>
0

>  <SCORE.INTRA.norm>
0

>  <SCORE.RESTR>
0

>  <SCORE.RESTR.CAVITY>
0

>  <SCORE.RESTR.norm>
0

>  <SCORE.SYSTEM>
0

>  <SCORE.SYSTEM.CONST>
0

>  <SCORE.SYSTEM.DIHEDRAL>
0

>  <SCORE.SYSTEM.SOLV>
0

>  <SCORE.SYSTEM.norm>
0

>  <SCORE.heavy>
10

>  <SCORE.norm>
-1.51183

>  <RMSD>
2.852

$$$$
ligand
 OpenBabel02271912143D
libRbt.so/2013.1/901 2013/11/27
 10 11  0  0  0  0  0  0  0  0999 V2000
   11.3379   13.1141    7.8619 N   0  0  0  0  0  0  0  0  0  0  0  0
   11.4959   12.6759    9.1557 C   0  0  0  0  0  0  0  0  0  0  0  0
   11.7783   11.4040    9.4433 N   0  0  0  0  0  0  0  0  0  0  0  0
   11.8887   10.6101    8.3403 C   0  0  0  0  0  0  0  0  0  0  0  0
   11.7408   10.9865    7.0199 C   0  0  0  0  0  0  0  0  0  0  0  0
   11.4412   12.3403    6.7056 C   0  0  0  0  0  0  0  0  0  0  0  0
   11.2713   12.8893    5.6102 O   0  0  0  0  0  0  0  0  0  0  0  0
   11.9312    9.8860    6.2323 N   0  0  0  0  0  0  0  0  0  0  0  0
   12.1949    8.8524    7.0650 C   0  0  0  0  0  0  0  0  0  0  0  0
   12.1748    9.2684    8.3788 N   0  0  0  0  0  0  0  0  0  0  0  0
  1  2  1  0  0  0  0
  1  6  1  0  0  0  0
  2  3  2  0  0  0  0
  3  4  1  0  0  0  0
  4  5  2  0  0  0  0
  4 10  1  0  0  0  0
  5  6  1  0  0  0  0
  5  8  1  0  0  0  0
  6  7  2  0  0  0  0
  8  9  1  0  0  0  0
  9 10  2  0  0  0  0
M  END
>  <CHROM.1>
11.71661458,11.23645630,7.54580641,-3.03351556,1.35758500,-1.80956927

>  <Name>
ligand

>  <RI>
0

>  <Rbt.Current_Directory>
/home/itssahil/PROJECTS/Mol_Feturizer/Test_systems_manuscript/rnas/4fe5

>  <Rbt.Executable>
rbdock ($Id: //depot/dev/client3/rdock/2013.1/src/exe/rbdock.cxx#4 $)

>  <Rbt.Library>
libRbt.so (2013.1, Build901 2013/11/27)

>  <Rbt.Parameter_File>
/export/apps/rDock/src/rDock_2013.1_src/data/scripts/dock_solv.prm

>  <Rbt.Receptor>
prm/blind_docking_60.prm

>  <SCORE>
-15.1182

>  <SCORE.INTER>
-15.1182

>  <SCORE.INTER.CONST>
1

>  <SCORE.INTER.POLAR>
0

>  <SCORE.INTER.ROT>
0

>  <SCORE.INTER.SOLV>
4.39198

>  <SCORE.INTER.VDW>
-15.1428

>  <SCORE.INTER.norm>
-1.51182

>  <SCORE.INTRA>
0

>  <SCORE.INTRA.DIHEDRAL>
0

>  <SCORE.INTRA.DIHEDRAL.0>
0

>  <SCORE.INTRA.POLAR>
0

>  <SCORE.INTRA.POLAR.0>
0

>  <SCORE.INTRA.REPUL>
0

>  <SCORE.INTRA.REPUL.0>
0

>  <SCORE.INTRA.SOLV>
0

>  <SCORE.INTRA.SOLV.lig_0>
-4.28333

>  <SCORE.INTRA.VDW>
0

>  <SCORE.INTRA.VDW.0>
0

>  <SCORE.INTRA.norm>
0

>  <SCORE.RESTR>
0

>  <SCORE.RESTR.CAVITY>
0

>  <SCORE.RESTR.norm>
0

>  <SCORE.SYSTEM>
0

>  <SCORE.SYSTEM.CONST>
0

>  <SCORE.SYSTEM.DIHEDRAL>
0

>  <SCORE.SYSTEM.SOLV>
0

>  <SCORE.SYSTEM.norm>
0

>  <SCORE.heavy>
10

>  <SCORE.norm>
-1.51182

>  <RMSD>
2.853

$$$$
ligand
 OpenBabel02271912143D
libRbt.so/2013.1/901 2013/11/27
 10 11  0  0  0  0  0  0  0  0999 V2000
   11.3365   13.1154    7.8568 N   0  0  0  0  0  0  0  0  0  0  0  0
   11.4892   12.6777    9.1514 C   0  0  0  0  0  0  0  0  0  0  0  0
   11.7709   11.4059    9.4405 N   0  0  0  0  0  0  0  0  0  0  0  0
   11.8861   10.6117    8.3383 C   0  0  0  0  0  0  0  0  0  0  0  0
   11.7436   10.9877    7.0171 C   0  0  0  0  0  0  0  0  0  0  0  0
   11.4449   12.3413    6.7012 C   0  0  0  0  0  0  0  0  0  0  0  0
   11.2794   12.8899    5.6049 O   0  0  0  0  0  0  0  0  0  0  0  0
   11.9377    9.8870    6.2307 N   0  0  0  0  0  0  0  0  0  0  0  0
   12.1982    8.8537    7.0648 C   0  0  0  0  0  0  0  0  0  0  0  0
   12.1725    9.2702    8.3784 N   0  0  0  0  0  0  0  0  0  0  0  0
  1  2  1  0  0  0  0
  1  6  1  0  0  0  0
  2  3  2  0  0  0  0
  3  4  1  0  0  0  0
  4  5  2  0  0  0  0
  4 10  1  0  0  0  0
  5  6  1  0  0  0  0
  5  8  1  0  0  0  0
  6  7  2  0  0  0  0
  8  9  1  0  0  0  0
  9 10  2  0  0  0  0
M  END
>  <CHROM.1>
11.71716437,11.23776813,7.54288846,-3.05318003,1.35822315,-1.79065168

>  <Name>
ligand

>  <RI>
0

>  <Rbt.Current_Directory>
/home/itssahil/PROJECTS/Mol_Feturizer/Test_systems_manuscript/rnas/4fe5

>  <Rbt.Executable>
rbdock ($Id: //depot/dev/client3/rdock/2013.1/src/exe/rbdock.cxx#4 $)

>  <Rbt.Library>
libRbt.so (2013.1, Build901 2013/11/27)

>  <Rbt.Parameter_File>
/export/apps/rDock/src/rDock_2013.1_src/data/scripts/dock_solv.prm

>  <Rbt.Receptor>
prm/blind_docking_60.prm

>  <SCORE>
-15.1141

>  <SCORE.INTER>
-15.1141

>  <SCORE.INTER.CONST>
1

>  <SCORE.INTER.POLAR>
0

>  <SCORE.INTER.ROT>
0

>  <SCORE.INTER.SOLV>
4.3979

>  <SCORE.INTER.VDW>
-15.1421

>  <SCORE.INTER.norm>
-1.51141

>  <SCORE.INTRA>
0

>  <SCORE.INTRA.DIHEDRAL>
0

>  <SCORE.INTRA.DIHEDRAL.0>
0

>  <SCORE.INTRA.POLAR>
0

>  <SCORE.INTRA.POLAR.0>
0

>  <SCORE.INTRA.REPUL>
0

>  <SCORE.INTRA.REPUL.0>
0

>  <SCORE.INTRA.SOLV>
0

>  <SCORE.INTRA.SOLV.lig_0>
-4.28333

>  <SCORE.INTRA.VDW>
0

>  <SCORE.INTRA.VDW.0>
0

>  <SCORE.INTRA.norm>
0

>  <SCORE.RESTR>
0

>  <SCORE.RESTR.CAVITY>
0

>  <SCORE.RESTR.norm>
0

>  <SCORE.SYSTEM>
0

>  <SCORE.SYSTEM.CONST>
0

>  <SCORE.SYSTEM.DIHEDRAL>
0

>  <SCORE.SYSTEM.SOLV>
0

>  <SCORE.SYSTEM.norm>
0

>  <SCORE.heavy>
10

>  <SCORE.norm>
-1.51141

>  <RMSD>
2.853

$$$$
ligand
 OpenBabel02271912143D
libRbt.so/2013.1/901 2013/11/27
 10 11  0  0  0  0  0  0  0  0999 V2000
   11.3315   13.1054    7.8772 N   0  0  0  0  0  0  0  0  0  0  0  0
   11.5237   12.6874    9.1731 C   0  0  0  0  0  0  0  0  0  0  0  0
   11.8478   11.4277    9.4703 N   0  0  0  0  0  0  0  0  0  0  0  0
   11.9628   10.6242    8.3748 C   0  0  0  0  0  0  0  0  0  0  0  0
   11.7819   10.9804    7.0529 C   0  0  0  0  0  0  0  0  0  0  0  0
   11.4379   12.3212    6.7282 C   0  0  0  0  0  0  0  0  0  0  0  0
   11.2338   12.8519    5.6297 O   0  0  0  0  0  0  0  0  0  0  0  0
   11.9912    9.8766    6.2748 N   0  0  0  0  0  0  0  0  0  0  0  0
   12.2986    8.8610    7.1146 C   0  0  0  0  0  0  0  0  0  0  0  0
   12.2884    9.2919    8.4238 N   0  0  0  0  0  0  0  0  0  0  0  0
  1  2  1  0  0  0  0
  1  6  1  0  0  0  0
  2  3  2  0  0  0  0
  3  4  1  0  0  0  0
  4  5  2  0  0  0  0
  4 10  1  0  0  0  0
  5  6  1  0  0  0  0
  5  8  1  0  0  0  0
  6  7  2  0  0  0  0
  8  9  1  0  0  0  0
  9 10  2  0  0  0  0
M  END
>  <CHROM.1>
11.75931633,11.23581696,7.57622777,-2.99502972,1.32517507,-1.85873033

>  <Name>
ligand

>  <RI>
0

>  <Rbt.Current_Directory>
/home/itssahil/PROJECTS/Mol_Feturizer/Test_systems_manuscript/rnas/4fe5

>  <Rbt.Executable>
rbdock ($Id: //depot/dev/client3/rdock/2013.1/src/exe/rbdock.cxx#4 $)

>  <Rbt.Library>
libRbt.so (2013.1, Build901 2013/11/27)

>  <Rbt.Parameter_File>
/export/apps/rDock/src/rDock_2013.1_src/data/scripts/dock_solv.prm

>  <Rbt.Receptor>
prm/blind_docking_60.prm

>  <SCORE>
-15.0822

>  <SCORE.INTER>
-15.0822

>  <SCORE.INTER.CONST>
1

>  <SCORE.INTER.POLAR>
0

>  <SCORE.INTER.ROT>
0

>  <SCORE.INTER.SOLV>
4.28478

>  <SCORE.INTER.VDW>
-15.083

>  <SCORE.INTER.norm>
-1.50822

>  <SCORE.INTRA>
0

>  <SCORE.INTRA.DIHEDRAL>
0

>  <SCORE.INTRA.DIHEDRAL.0>
0

>  <SCORE.INTRA.POLAR>
0

>  <SCORE.INTRA.POLAR.0>
0

>  <SCORE.INTRA.REPUL>
0

>  <SCORE.INTRA.REPUL.0>
0

>  <SCORE.INTRA.SOLV>
0

>  <SCORE.INTRA.SOLV.lig_0>
-4.28333

>  <SCORE.INTRA.VDW>
0

>  <SCORE.INTRA.VDW.0>
0

>  <SCORE.INTRA.norm>
0

>  <SCORE.RESTR>
0

>  <SCORE.RESTR.CAVITY>
0

>  <SCORE.RESTR.norm>
0

>  <SCORE.SYSTEM>
0

>  <SCORE.SYSTEM.CONST>
0

>  <SCORE.SYSTEM.DIHEDRAL>
0

>  <SCORE.SYSTEM.SOLV>
0

>  <SCORE.SYSTEM.norm>
0

>  <SCORE.heavy>
10

>  <SCORE.norm>
-1.50822

>  <RMSD>
2.866

$$$$
ligand
 OpenBabel02271912143D
libRbt.so/2013.1/901 2013/11/27
 10 11  0  0  0  0  0  0  0  0999 V2000
   11.5070   10.5704    5.5542 N   0  0  0  0  0  0  0  0  0  0  0  0
   11.1710   11.8863    5.3386 C   0  0  0  0  0  0  0  0  0  0  0  0
   11.0831   12.7676    6.3365 N   0  0  0  0  0  0  0  0  0  0  0  0
   11.3557   12.2308    7.5598 C   0  0  0  0  0  0  0  0  0  0  0  0
   11.6963   10.9228    7.8429 C   0  0  0  0  0  0  0  0  0  0  0  0
   11.7933    9.9783    6.7846 C   0  0  0  0  0  0  0  0  0  0  0  0
   12.0810    8.7755    6.8087 O   0  0  0  0  0  0  0  0  0  0  0  0
   11.8843   10.8067    9.1915 N   0  0  0  0  0  0  0  0  0  0  0  0
   11.6630   12.0318    9.7221 C   0  0  0  0  0  0  0  0  0  0  0  0
   11.3323   12.9366    8.7365 N   0  0  0  0  0  0  0  0  0  0  0  0
  1  2  1  0  0  0  0
  1  6  1  0  0  0  0
  2  3  2  0  0  0  0
  3  4  1  0  0  0  0
  4  5  2  0  0  0  0
  4 10  1  0  0  0  0
  5  6  1  0  0  0  0
  5  8  1  0  0  0  0
  6  7  2  0  0  0  0
  8  9  1  0  0  0  0
  9 10  2  0  0  0  0
M  END
>  <CHROM.1>
11.56617487,11.24369798,7.37411192,1.40144333,1.31264114,-2.04109896

>  <Name>
ligand

>  <RI>
0

>  <Rbt.Current_Directory>
/home/itssahil/PROJECTS/Mol_Feturizer/Test_systems_manuscript/rnas/4fe5

>  <Rbt.Executable>
rbdock ($Id: //depot/dev/client3/rdock/2013.1/src/exe/rbdock.cxx#4 $)

>  <Rbt.Library>
libRbt.so (2013.1, Build901 2013/11/27)

>  <Rbt.Parameter_File>
/export/apps/rDock/src/rDock_2013.1_src/data/scripts/dock_solv.prm

>  <Rbt.Receptor>
prm/blind_docking_100.prm

>  <SCORE>
-16.6559

>  <SCORE.INTER>
-16.6559

>  <SCORE.INTER.CONST>
1

>  <SCORE.INTER.POLAR>
0

>  <SCORE.INTER.ROT>
0

>  <SCORE.INTER.SOLV>
3.81734

>  <SCORE.INTER.VDW>
-15.9764

>  <SCORE.INTER.norm>
-1.66559

>  <SCORE.INTRA>
0

>  <SCORE.INTRA.DIHEDRAL>
0

>  <SCORE.INTRA.DIHEDRAL.0>
0

>  <SCORE.INTRA.POLAR>
0

>  <SCORE.INTRA.POLAR.0>
0

>  <SCORE.INTRA.REPUL>
0

>  <SCORE.INTRA.REPUL.0>
0

>  <SCORE.INTRA.SOLV>
0

>  <SCORE.INTRA.SOLV.lig_0>
-4.28333

>  <SCORE.INTRA.VDW>
0

>  <SCORE.INTRA.VDW.0>
0

>  <SCORE.INTRA.norm>
0

>  <SCORE.RESTR>
0

>  <SCORE.RESTR.CAVITY>
0

>  <SCORE.RESTR.norm>
0

>  <SCORE.SYSTEM>
0

>  <SCORE.SYSTEM.CONST>
0

>  <SCORE.SYSTEM.DIHEDRAL>
0

>  <SCORE.SYSTEM.SOLV>
0

>  <SCORE.SYSTEM.norm>
0

>  <SCORE.heavy>
10

>  <SCORE.norm>
-1.66559

>  <RMSD>
2.878

$$$$
ligand
 OpenBabel02271912143D
libRbt.so/2013.1/901 2013/11/27
 10 11  0  0  0  0  0  0  0  0999 V2000
   11.5275   10.5607    5.5883 N   0  0  0  0  0  0  0  0  0  0  0  0
   11.1601   11.8678    5.3704 C   0  0  0  0  0  0  0  0  0  0  0  0
   11.0653   12.7522    6.3650 N   0  0  0  0  0  0  0  0  0  0  0  0
   11.3648   12.2279    7.5874 C   0  0  0  0  0  0  0  0  0  0  0  0
   11.7375   10.9291    7.8727 C   0  0  0  0  0  0  0  0  0  0  0  0
   11.8420    9.9815    6.8180 C   0  0  0  0  0  0  0  0  0  0  0  0
   12.1563    8.7854    6.8445 O   0  0  0  0  0  0  0  0  0  0  0  0
   11.9447   10.8243    9.2194 N   0  0  0  0  0  0  0  0  0  0  0  0
   11.7033   12.0470    9.7467 C   0  0  0  0  0  0  0  0  0  0  0  0
   11.3405   12.9392    8.7609 N   0  0  0  0  0  0  0  0  0  0  0  0
  1  2  1  0  0  0  0
  1  6  1  0  0  0  0
  2  3  2  0  0  0  0
  3  4  1  0  0  0  0
  4  5  2  0  0  0  0
  4 10  1  0  0  0  0
  5  6  1  0  0  0  0
  5  8  1  0  0  0  0
  6  7  2  0  0  0  0
  8  9  1  0  0  0  0
  9 10  2  0  0  0  0
M  END
>  <CHROM.1>
11.59456182,11.24471269,7.40402863,1.40554046,1.28745231,-2.05013662

>  <Name>
ligand

>  <RI>
0

>  <Rbt.Current_Directory>
/home/itssahil/PROJECTS/Mol_Feturizer/Test_systems_manuscript/rnas/4fe5

>  <Rbt.Executable>
rbdock ($Id: //depot/dev/client3/rdock/2013.1/src/exe/rbdock.cxx#4 $)

>  <Rbt.Library>
libRbt.so (2013.1, Build901 2013/11/27)

>  <Rbt.Parameter_File>
/export/apps/rDock/src/rDock_2013.1_src/data/scripts/dock_solv.prm

>  <Rbt.Receptor>
prm/blind_docking_40.prm

>  <SCORE>
-16.7238

>  <SCORE.INTER>
-16.7238

>  <SCORE.INTER.CONST>
1

>  <SCORE.INTER.POLAR>
0

>  <SCORE.INTER.ROT>
0

>  <SCORE.INTER.SOLV>
3.69883

>  <SCORE.INTER.VDW>
-15.9821

>  <SCORE.INTER.norm>
-1.67238

>  <SCORE.INTRA>
0

>  <SCORE.INTRA.DIHEDRAL>
0

>  <SCORE.INTRA.DIHEDRAL.0>
0

>  <SCORE.INTRA.POLAR>
0

>  <SCORE.INTRA.POLAR.0>
0

>  <SCORE.INTRA.REPUL>
0

>  <SCORE.INTRA.REPUL.0>
0

>  <SCORE.INTRA.SOLV>
0

>  <SCORE.INTRA.SOLV.lig_0>
-4.28333

>  <SCORE.INTRA.VDW>
0

>  <SCORE.INTRA.VDW.0>
0

>  <SCORE.INTRA.norm>
0

>  <SCORE.RESTR>
0

>  <SCORE.RESTR.CAVITY>
0

>  <SCORE.RESTR.norm>
0

>  <SCORE.SYSTEM>
0

>  <SCORE.SYSTEM.CONST>
0

>  <SCORE.SYSTEM.DIHEDRAL>
0

>  <SCORE.SYSTEM.SOLV>
0

>  <SCORE.SYSTEM.norm>
0

>  <SCORE.heavy>
10

>  <SCORE.norm>
-1.67238

>  <RMSD>
2.878

$$$$
ligand
 OpenBabel02271912143D
libRbt.so/2013.1/901 2013/11/27
 10 11  0  0  0  0  0  0  0  0999 V2000
   11.4882   10.5826    5.5408 N   0  0  0  0  0  0  0  0  0  0  0  0
   11.1380   11.8938    5.3194 C   0  0  0  0  0  0  0  0  0  0  0  0
   11.0644   12.7843    6.3103 N   0  0  0  0  0  0  0  0  0  0  0  0
   11.3664   12.2617    7.5328 C   0  0  0  0  0  0  0  0  0  0  0  0
   11.7225   10.9590    7.8215 C   0  0  0  0  0  0  0  0  0  0  0  0
   11.8045   10.0048    6.7707 C   0  0  0  0  0  0  0  0  0  0  0  0
   12.1015    8.8044    6.8006 O   0  0  0  0  0  0  0  0  0  0  0  0
   11.9394   10.8578    9.1670 N   0  0  0  0  0  0  0  0  0  0  0  0
   11.7201   12.0864    9.6901 C   0  0  0  0  0  0  0  0  0  0  0  0
   11.3622   12.9790    8.7029 N   0  0  0  0  0  0  0  0  0  0  0  0
  1  2  1  0  0  0  0
  1  6  1  0  0  0  0
  2  3  2  0  0  0  0
  3  4  1  0  0  0  0
  4  5  2  0  0  0  0
  4 10  1  0  0  0  0
  5  6  1  0  0  0  0
  5  8  1  0  0  0  0
  6  7  2  0  0  0  0
  8  9  1  0  0  0  0
  9 10  2  0  0  0  0
M  END
>  <CHROM.1>
11.58028388,11.27435919,7.35246072,1.45755731,1.29616813,-2.10508734

>  <Name>
ligand

>  <RI>
0

>  <Rbt.Current_Directory>
/home/itssahil/PROJECTS/Mol_Feturizer/Test_systems_manuscript/rnas/4fe5

>  <Rbt.Executable>
rbdock ($Id: //depot/dev/client3/rdock/2013.1/src/exe/rbdock.cxx#4 $)

>  <Rbt.Library>
libRbt.so (2013.1, Build901 2013/11/27)

>  <Rbt.Parameter_File>
/export/apps/rDock/src/rDock_2013.1_src/data/scripts/dock_solv.prm

>  <Rbt.Receptor>
prm/blind_docking_80.prm

>  <SCORE>
-16.6448

>  <SCORE.INTER>
-16.6448

>  <SCORE.INTER.CONST>
1

>  <SCORE.INTER.POLAR>
0

>  <SCORE.INTER.ROT>
0

>  <SCORE.INTER.SOLV>
3.7728

>  <SCORE.INTER.VDW>
-15.9542

>  <SCORE.INTER.norm>
-1.66448

>  <SCORE.INTRA>
0

>  <SCORE.INTRA.DIHEDRAL>
0

>  <SCORE.INTRA.DIHEDRAL.0>
0

>  <SCORE.INTRA.POLAR>
0

>  <SCORE.INTRA.POLAR.0>
0

>  <SCORE.INTRA.REPUL>
0

>  <SCORE.INTRA.REPUL.0>
0

>  <SCORE.INTRA.SOLV>
0

>  <SCORE.INTRA.SOLV.lig_0>
-4.28333

>  <SCORE.INTRA.VDW>
0

>  <SCORE.INTRA.VDW.0>
0

>  <SCORE.INTRA.norm>
0

>  <SCORE.RESTR>
0

>  <SCORE.RESTR.CAVITY>
0

>  <SCORE.RESTR.norm>
0

>  <SCORE.SYSTEM>
0

>  <SCORE.SYSTEM.CONST>
0

>  <SCORE.SYSTEM.DIHEDRAL>
0

>  <SCORE.SYSTEM.SOLV>
0

>  <SCORE.SYSTEM.norm>
0

>  <SCORE.heavy>
10

>  <SCORE.norm>
-1.66448

>  <RMSD>
2.878

$$$$
ligand
 OpenBabel02271912143D
libRbt.so/2013.1/901 2013/11/27
 10 11  0  0  0  0  0  0  0  0999 V2000
   11.4923   10.5728    5.5381 N   0  0  0  0  0  0  0  0  0  0  0  0
   11.1587   11.8880    5.3148 C   0  0  0  0  0  0  0  0  0  0  0  0
   11.0872   12.7787    6.3056 N   0  0  0  0  0  0  0  0  0  0  0  0
   11.3735   12.2520    7.5302 C   0  0  0  0  0  0  0  0  0  0  0  0
   11.7126   10.9452    7.8208 C   0  0  0  0  0  0  0  0  0  0  0  0
   11.7922    9.9907    6.7701 C   0  0  0  0  0  0  0  0  0  0  0  0
   12.0755    8.7871    6.8015 O   0  0  0  0  0  0  0  0  0  0  0  0
   11.9176   10.8407    9.1679 N   0  0  0  0  0  0  0  0  0  0  0  0
   11.7080   12.0714    9.6901 C   0  0  0  0  0  0  0  0  0  0  0  0
   11.3680   12.9686    8.7006 N   0  0  0  0  0  0  0  0  0  0  0  0
  1  2  1  0  0  0  0
  1  6  1  0  0  0  0
  2  3  2  0  0  0  0
  3  4  1  0  0  0  0
  4  5  2  0  0  0  0
  4 10  1  0  0  0  0
  5  6  1  0  0  0  0
  5  8  1  0  0  0  0
  6  7  2  0  0  0  0
  8  9  1  0  0  0  0
  9 10  2  0  0  0  0
M  END
>  <CHROM.1>
11.57769546,11.26239798,7.35086201,1.45304691,1.30994170,-2.10009924

>  <Name>
ligand

>  <RI>
0

>  <Rbt.Current_Directory>
/home/itssahil/PROJECTS/Mol_Feturizer/Test_systems_manuscript/rnas/4fe5

>  <Rbt.Executable>
rbdock ($Id: //depot/dev/client3/rdock/2013.1/src/exe/rbdock.cxx#4 $)

>  <Rbt.Library>
libRbt.so (2013.1, Build901 2013/11/27)

>  <Rbt.Parameter_File>
/export/apps/rDock/src/rDock_2013.1_src/data/scripts/dock_solv.prm

>  <Rbt.Receptor>
prm/pocket_docking_8.prm

>  <SCORE>
-16.6244

>  <SCORE.INTER>
-16.6244

>  <SCORE.INTER.CONST>
1

>  <SCORE.INTER.POLAR>
0

>  <SCORE.INTER.ROT>
0

>  <SCORE.INTER.SOLV>
3.8125

>  <SCORE.INTER.VDW>
-15.9538

>  <SCORE.INTER.norm>
-1.66244

>  <SCORE.INTRA>
0

>  <SCORE.INTRA.DIHEDRAL>
0

>  <SCORE.INTRA.DIHEDRAL.0>
0

>  <SCORE.INTRA.POLAR>
0

>  <SCORE.INTRA.POLAR.0>
0

>  <SCORE.INTRA.REPUL>
0

>  <SCORE.INTRA.REPUL.0>
0

>  <SCORE.INTRA.SOLV>
0

>  <SCORE.INTRA.SOLV.lig_0>
-4.28333

>  <SCORE.INTRA.VDW>
0

>  <SCORE.INTRA.VDW.0>
0

>  <SCORE.INTRA.norm>
0

>  <SCORE.RESTR>
0

>  <SCORE.RESTR.CAVITY>
0

>  <SCORE.RESTR.norm>
0

>  <SCORE.SYSTEM>
0

>  <SCORE.SYSTEM.CONST>
0

>  <SCORE.SYSTEM.DIHEDRAL>
0

>  <SCORE.SYSTEM.SOLV>
0

>  <SCORE.SYSTEM.norm>
0

>  <SCORE.heavy>
10

>  <SCORE.norm>
-1.66244

>  <RMSD>
2.878

$$$$
ligand
 OpenBabel02271912143D
libRbt.so/2013.1/901 2013/11/27
 10 11  0  0  0  0  0  0  0  0999 V2000
   11.5356   10.5682    5.5883 N   0  0  0  0  0  0  0  0  0  0  0  0
   11.1765   11.8776    5.3707 C   0  0  0  0  0  0  0  0  0  0  0  0
   11.0825   12.7611    6.3661 N   0  0  0  0  0  0  0  0  0  0  0  0
   11.3738   12.2335    7.5891 C   0  0  0  0  0  0  0  0  0  0  0  0
   11.7379   10.9322    7.8741 C   0  0  0  0  0  0  0  0  0  0  0  0
   11.8416    9.9854    6.8185 C   0  0  0  0  0  0  0  0  0  0  0  0
   12.1490    8.7876    6.8446 O   0  0  0  0  0  0  0  0  0  0  0  0
   11.9388   10.8243    9.2215 N   0  0  0  0  0  0  0  0  0  0  0  0
   11.7020   12.0476    9.7495 C   0  0  0  0  0  0  0  0  0  0  0  0
   11.3485   12.9432    8.7634 N   0  0  0  0  0  0  0  0  0  0  0  0
  1  2  1  0  0  0  0
  1  6  1  0  0  0  0
  2  3  2  0  0  0  0
  3  4  1  0  0  0  0
  4  5  2  0  0  0  0
  4 10  1  0  0  0  0
  5  6  1  0  0  0  0
  5  8  1  0  0  0  0
  6  7  2  0  0  0  0
  8  9  1  0  0  0  0
  9 10  2  0  0  0  0
M  END
>  <CHROM.1>
11.59874169,11.24922031,7.40526115,1.40122564,1.29442968,-2.04457288

>  <Name>
ligand

>  <RI>
0

>  <Rbt.Current_Directory>
/home/itssahil/PROJECTS/Mol_Feturizer/Test_systems_manuscript/rnas/4fe5

>  <Rbt.Executable>
rbdock ($Id: //depot/dev/client3/rdock/2013.1/src/exe/rbdock.cxx#4 $)

>  <Rbt.Library>
libRbt.so (2013.1, Build901 2013/11/27)

>  <Rbt.Parameter_File>
/export/apps/rDock/src/rDock_2013.1_src/data/scripts/dock_solv.prm

>  <Rbt.Receptor>
prm/blind_docking_100.prm

>  <SCORE>
-16.7306

>  <SCORE.INTER>
-16.7306

>  <SCORE.INTER.CONST>
1

>  <SCORE.INTER.POLAR>
0

>  <SCORE.INTER.ROT>
0

>  <SCORE.INTER.SOLV>
3.71416

>  <SCORE.INTER.VDW>
-15.9918

>  <SCORE.INTER.norm>
-1.67306

>  <SCORE.INTRA>
0

>  <SCORE.INTRA.DIHEDRAL>
0

>  <SCORE.INTRA.DIHEDRAL.0>
0

>  <SCORE.INTRA.POLAR>
0

>  <SCORE.INTRA.POLAR.0>
0

>  <SCORE.INTRA.REPUL>
0

>  <SCORE.INTRA.REPUL.0>
0

>  <SCORE.INTRA.SOLV>
0

>  <SCORE.INTRA.SOLV.lig_0>
-4.28333

>  <SCORE.INTRA.VDW>
0

>  <SCORE.INTRA.VDW.0>
0

>  <SCORE.INTRA.norm>
0

>  <SCORE.RESTR>
0

>  <SCORE.RESTR.CAVITY>
0

>  <SCORE.RESTR.norm>
0

>  <SCORE.SYSTEM>
0

>  <SCORE.SYSTEM.CONST>
0

>  <SCORE.SYSTEM.DIHEDRAL>
0

>  <SCORE.SYSTEM.SOLV>
0

>  <SCORE.SYSTEM.norm>
0

>  <SCORE.heavy>
10

>  <SCORE.norm>
-1.67306

>  <RMSD>
2.879

$$$$
ligand
 OpenBabel02271912143D
libRbt.so/2013.1/901 2013/11/27
 10 11  0  0  0  0  0  0  0  0999 V2000
   11.5126   10.5613    5.5587 N   0  0  0  0  0  0  0  0  0  0  0  0
   11.1843   11.8794    5.3445 C   0  0  0  0  0  0  0  0  0  0  0  0
   11.1075   12.7614    6.3427 N   0  0  0  0  0  0  0  0  0  0  0  0
   11.3828   12.2231    7.5647 C   0  0  0  0  0  0  0  0  0  0  0  0
   11.7160   10.9128    7.8463 C   0  0  0  0  0  0  0  0  0  0  0  0
   11.8013    9.9675    6.7877 C   0  0  0  0  0  0  0  0  0  0  0  0
   12.0811    8.7628    6.8106 O   0  0  0  0  0  0  0  0  0  0  0  0
   11.9102   10.7957    9.1939 N   0  0  0  0  0  0  0  0  0  0  0  0
   11.6999   12.0223    9.7255 C   0  0  0  0  0  0  0  0  0  0  0  0
   11.3701   12.9292    8.7414 N   0  0  0  0  0  0  0  0  0  0  0  0
  1  2  1  0  0  0  0
  1  6  1  0  0  0  0
  2  3  2  0  0  0  0
  3  4  1  0  0  0  0
  4  5  2  0  0  0  0
  4 10  1  0  0  0  0
  5  6  1  0  0  0  0
  5  8  1  0  0  0  0
  6  7  2  0  0  0  0
  8  9  1  0  0  0  0
  9 10  2  0  0  0  0
M  END
>  <CHROM.1>
11.58567427,11.23454007,7.37813233,1.43172575,1.31614501,-2.07055763

>  <Name>
ligand

>  <RI>
0

>  <Rbt.Current_Directory>
/home/itssahil/PROJECTS/Mol_Feturizer/Test_systems_manuscript/rnas/4fe5

>  <Rbt.Executable>
rbdock ($Id: //depot/dev/client3/rdock/2013.1/src/exe/rbdock.cxx#4 $)

>  <Rbt.Library>
libRbt.so (2013.1, Build901 2013/11/27)

>  <Rbt.Parameter_File>
/export/apps/rDock/src/rDock_2013.1_src/data/scripts/dock_solv.prm

>  <Rbt.Receptor>
prm/pocket_docking_7.prm

>  <SCORE>
-16.6633

>  <SCORE.INTER>
-16.6633

>  <SCORE.INTER.CONST>
1

>  <SCORE.INTER.POLAR>
0

>  <SCORE.INTER.ROT>
0

>  <SCORE.INTER.SOLV>
3.81617

>  <SCORE.INTER.VDW>
-15.9809

>  <SCORE.INTER.norm>
-1.66633

>  <SCORE.INTRA>
0

>  <SCORE.INTRA.DIHEDRAL>
0

>  <SCORE.INTRA.DIHEDRAL.0>
0

>  <SCORE.INTRA.POLAR>
0

>  <SCORE.INTRA.POLAR.0>
0

>  <SCORE.INTRA.REPUL>
0

>  <SCORE.INTRA.REPUL.0>
0

>  <SCORE.INTRA.SOLV>
0

>  <SCORE.INTRA.SOLV.lig_0>
-4.28333

>  <SCORE.INTRA.VDW>
0

>  <SCORE.INTRA.VDW.0>
0

>  <SCORE.INTRA.norm>
0

>  <SCORE.RESTR>
0

>  <SCORE.RESTR.CAVITY>
0

>  <SCORE.RESTR.norm>
0

>  <SCORE.SYSTEM>
0

>  <SCORE.SYSTEM.CONST>
0

>  <SCORE.SYSTEM.DIHEDRAL>
0

>  <SCORE.SYSTEM.SOLV>
0

>  <SCORE.SYSTEM.norm>
0

>  <SCORE.heavy>
10

>  <SCORE.norm>
-1.66633

>  <RMSD>
2.879

$$$$
ligand
 OpenBabel02271912143D
libRbt.so/2013.1/901 2013/11/27
 10 11  0  0  0  0  0  0  0  0999 V2000
   11.5127   10.5739    5.5607 N   0  0  0  0  0  0  0  0  0  0  0  0
   11.1818   11.8909    5.3437 C   0  0  0  0  0  0  0  0  0  0  0  0
   11.0993   12.7740    6.3404 N   0  0  0  0  0  0  0  0  0  0  0  0
   11.3717   12.2380    7.5641 C   0  0  0  0  0  0  0  0  0  0  0  0
   11.7074   10.9289    7.8485 C   0  0  0  0  0  0  0  0  0  0  0  0
   11.7987    9.9825    6.7915 C   0  0  0  0  0  0  0  0  0  0  0  0
   12.0814    8.7786    6.8169 O   0  0  0  0  0  0  0  0  0  0  0  0
   11.8971   10.8141    9.1970 N   0  0  0  0  0  0  0  0  0  0  0  0
   11.6818   12.0409    9.7262 C   0  0  0  0  0  0  0  0  0  0  0  0
   11.3532   12.9456    8.7398 N   0  0  0  0  0  0  0  0  0  0  0  0
  1  2  1  0  0  0  0
  1  6  1  0  0  0  0
  2  3  2  0  0  0  0
  3  4  1  0  0  0  0
  4  5  2  0  0  0  0
  4 10  1  0  0  0  0
  5  6  1  0  0  0  0
  5  8  1  0  0  0  0
  6  7  2  0  0  0  0
  8  9  1  0  0  0  0
  9 10  2  0  0  0  0
M  END
>  <CHROM.1>
11.57778475,11.24972282,7.37950391,1.41483934,1.31554027,-2.05553676

>  <Name>
ligand

>  <RI>
0

>  <Rbt.Current_Directory>
/home/itssahil/PROJECTS/Mol_Feturizer/Test_systems_manuscript/rnas/4fe5

>  <Rbt.Executable>
rbdock ($Id: //depot/dev/client3/rdock/2013.1/src/exe/rbdock.cxx#4 $)

>  <Rbt.Library>
libRbt.so (2013.1, Build901 2013/11/27)

>  <Rbt.Parameter_File>
/export/apps/rDock/src/rDock_2013.1_src/data/scripts/dock_solv.prm

>  <Rbt.Receptor>
prm/pocket_docking_7.prm

>  <SCORE>
-16.667

>  <SCORE.INTER>
-16.667

>  <SCORE.INTER.CONST>
1

>  <SCORE.INTER.POLAR>
0

>  <SCORE.INTER.ROT>
0

>  <SCORE.INTER.SOLV>
3.81361

>  <SCORE.INTER.VDW>
-15.9826

>  <SCORE.INTER.norm>
-1.6667

>  <SCORE.INTRA>
0

>  <SCORE.INTRA.DIHEDRAL>
0

>  <SCORE.INTRA.DIHEDRAL.0>
0

>  <SCORE.INTRA.POLAR>
0

>  <SCORE.INTRA.POLAR.0>
0

>  <SCORE.INTRA.REPUL>
0

>  <SCORE.INTRA.REPUL.0>
0

>  <SCORE.INTRA.SOLV>
0

>  <SCORE.INTRA.SOLV.lig_0>
-4.28333

>  <SCORE.INTRA.VDW>
0

>  <SCORE.INTRA.VDW.0>
0

>  <SCORE.INTRA.norm>
0

>  <SCORE.RESTR>
0

>  <SCORE.RESTR.CAVITY>
0

>  <SCORE.RESTR.norm>
0

>  <SCORE.SYSTEM>
0

>  <SCORE.SYSTEM.CONST>
0

>  <SCORE.SYSTEM.DIHEDRAL>
0

>  <SCORE.SYSTEM.SOLV>
0

>  <SCORE.SYSTEM.norm>
0

>  <SCORE.heavy>
10

>  <SCORE.norm>
-1.6667

>  <RMSD>
2.879

$$$$
ligand
 OpenBabel02271912143D
libRbt.so/2013.1/901 2013/11/27
 10 11  0  0  0  0  0  0  0  0999 V2000
   11.5098   10.5671    5.5831 N   0  0  0  0  0  0  0  0  0  0  0  0
   11.1448   11.8756    5.3695 C   0  0  0  0  0  0  0  0  0  0  0  0
   11.0628   12.7597    6.3654 N   0  0  0  0  0  0  0  0  0  0  0  0
   11.3722   12.2337    7.5846 C   0  0  0  0  0  0  0  0  0  0  0  0
   11.7431   10.9334    7.8656 C   0  0  0  0  0  0  0  0  0  0  0  0
   11.8341    9.9860    6.8093 C   0  0  0  0  0  0  0  0  0  0  0  0
   12.1445    8.7889    6.8321 O   0  0  0  0  0  0  0  0  0  0  0  0
   11.9631   10.8271    9.2101 N   0  0  0  0  0  0  0  0  0  0  0  0
   11.7310   12.0503    9.7404 C   0  0  0  0  0  0  0  0  0  0  0  0
   11.3618   12.9444    8.7586 N   0  0  0  0  0  0  0  0  0  0  0  0
  1  2  1  0  0  0  0
  1  6  1  0  0  0  0
  2  3  2  0  0  0  0
  3  4  1  0  0  0  0
  4  5  2  0  0  0  0
  4 10  1  0  0  0  0
  5  6  1  0  0  0  0
  5  8  1  0  0  0  0
  6  7  2  0  0  0  0
  8  9  1  0  0  0  0
  9 10  2  0  0  0  0
M  END
>  <CHROM.1>
11.59676212,11.24978060,7.39845995,1.44187693,1.28589768,-2.08444280

>  <Name>
ligand

>  <RI>
0

>  <Rbt.Current_Directory>
/home/itssahil/PROJECTS/Mol_Feturizer/Test_systems_manuscript/rnas/4fe5

>  <Rbt.Executable>
rbdock ($Id: //depot/dev/client3/rdock/2013.1/src/exe/rbdock.cxx#4 $)

>  <Rbt.Library>
libRbt.so (2013.1, Build901 2013/11/27)

>  <Rbt.Parameter_File>
/export/apps/rDock/src/rDock_2013.1_src/data/scripts/dock_solv.prm

>  <Rbt.Receptor>
prm/blind_docking_60.prm

>  <SCORE>
-16.6687

>  <SCORE.INTER>
-16.6687

>  <SCORE.INTER.CONST>
1

>  <SCORE.INTER.POLAR>
0

>  <SCORE.INTER.ROT>
0

>  <SCORE.INTER.SOLV>
3.71001

>  <SCORE.INTER.VDW>
-15.9491

>  <SCORE.INTER.norm>
-1.66687

>  <SCORE.INTRA>
0

>  <SCORE.INTRA.DIHEDRAL>
0

>  <SCORE.INTRA.DIHEDRAL.0>
0

>  <SCORE.INTRA.POLAR>
0

>  <SCORE.INTRA.POLAR.0>
0

>  <SCORE.INTRA.REPUL>
0

>  <SCORE.INTRA.REPUL.0>
0

>  <SCORE.INTRA.SOLV>
0

>  <SCORE.INTRA.SOLV.lig_0>
-4.28333

>  <SCORE.INTRA.VDW>
0

>  <SCORE.INTRA.VDW.0>
0

>  <SCORE.INTRA.norm>
0

>  <SCORE.RESTR>
0

>  <SCORE.RESTR.CAVITY>
0

>  <SCORE.RESTR.norm>
0

>  <SCORE.SYSTEM>
0

>  <SCORE.SYSTEM.CONST>
0

>  <SCORE.SYSTEM.DIHEDRAL>
0

>  <SCORE.SYSTEM.SOLV>
0

>  <SCORE.SYSTEM.norm>
0

>  <SCORE.heavy>
10

>  <SCORE.norm>
-1.66687

>  <RMSD>
2.880

$$$$
ligand
 OpenBabel02271912143D
libRbt.so/2013.1/901 2013/11/27
 10 11  0  0  0  0  0  0  0  0999 V2000
   11.5115   10.5762    5.5480 N   0  0  0  0  0  0  0  0  0  0  0  0
   11.1690   11.8921    5.3430 C   0  0  0  0  0  0  0  0  0  0  0  0
   11.0878   12.7675    6.3466 N   0  0  0  0  0  0  0  0  0  0  0  0
   11.3740   12.2249    7.5642 C   0  0  0  0  0  0  0  0  0  0  0  0
   11.7218   10.9165    7.8367 C   0  0  0  0  0  0  0  0  0  0  0  0
   11.8118    9.9782    6.7722 C   0  0  0  0  0  0  0  0  0  0  0  0
   12.1038    8.7763    6.7868 O   0  0  0  0  0  0  0  0  0  0  0  0
   11.9232   10.7936    9.1827 N   0  0  0  0  0  0  0  0  0  0  0  0
   11.7029   12.0149    9.7223 C   0  0  0  0  0  0  0  0  0  0  0  0
   11.3596   12.9241    8.7450 N   0  0  0  0  0  0  0  0  0  0  0  0
  1  2  1  0  0  0  0
  1  6  1  0  0  0  0
  2  3  2  0  0  0  0
  3  4  1  0  0  0  0
  4  5  2  0  0  0  0
  4 10  1  0  0  0  0
  5  6  1  0  0  0  0
  5  8  1  0  0  0  0
  6  7  2  0  0  0  0
  8  9  1  0  0  0  0
  9 10  2  0  0  0  0
M  END
>  <CHROM.1>
11.58605165,11.23956190,7.37098173,1.42843134,1.30512654,-2.06158084

>  <Name>
ligand

>  <RI>
0

>  <Rbt.Current_Directory>
/home/itssahil/PROJECTS/Mol_Feturizer/Test_systems_manuscript/rnas/4fe5

>  <Rbt.Executable>
rbdock ($Id: //depot/dev/client3/rdock/2013.1/src/exe/rbdock.cxx#4 $)

>  <Rbt.Library>
libRbt.so (2013.1, Build901 2013/11/27)

>  <Rbt.Parameter_File>
/export/apps/rDock/src/rDock_2013.1_src/data/scripts/dock_solv.prm

>  <Rbt.Receptor>
prm/blind_docking_80.prm

>  <SCORE>
-16.6855

>  <SCORE.INTER>
-16.6855

>  <SCORE.INTER.CONST>
1

>  <SCORE.INTER.POLAR>
0

>  <SCORE.INTER.ROT>
0

>  <SCORE.INTER.SOLV>
3.79058

>  <SCORE.INTER.VDW>
-15.9872

>  <SCORE.INTER.norm>
-1.66855

>  <SCORE.INTRA>
0

>  <SCORE.INTRA.DIHEDRAL>
0

>  <SCORE.INTRA.DIHEDRAL.0>
0

>  <SCORE.INTRA.POLAR>
0

>  <SCORE.INTRA.POLAR.0>
0

>  <SCORE.INTRA.REPUL>
0

>  <SCORE.INTRA.REPUL.0>
0

>  <SCORE.INTRA.SOLV>
0

>  <SCORE.INTRA.SOLV.lig_0>
-4.28333

>  <SCORE.INTRA.VDW>
0

>  <SCORE.INTRA.VDW.0>
0

>  <SCORE.INTRA.norm>
0

>  <SCORE.RESTR>
0

>  <SCORE.RESTR.CAVITY>
0

>  <SCORE.RESTR.norm>
0

>  <SCORE.SYSTEM>
0

>  <SCORE.SYSTEM.CONST>
0

>  <SCORE.SYSTEM.DIHEDRAL>
0

>  <SCORE.SYSTEM.SOLV>
0

>  <SCORE.SYSTEM.norm>
0

>  <SCORE.heavy>
10

>  <SCORE.norm>
-1.66855

>  <RMSD>
2.880

$$$$
ligand
 OpenBabel02271912143D
libRbt.so/2013.1/901 2013/11/27
 10 11  0  0  0  0  0  0  0  0999 V2000
   11.5204   10.5677    5.5612 N   0  0  0  0  0  0  0  0  0  0  0  0
   11.1880   11.8848    5.3475 C   0  0  0  0  0  0  0  0  0  0  0  0
   11.1086   12.7664    6.3459 N   0  0  0  0  0  0  0  0  0  0  0  0
   11.3858   12.2286    7.5677 C   0  0  0  0  0  0  0  0  0  0  0  0
   11.7232   10.9193    7.8489 C   0  0  0  0  0  0  0  0  0  0  0  0
   11.8111    9.9745    6.7901 C   0  0  0  0  0  0  0  0  0  0  0  0
   12.0947    8.7707    6.8126 O   0  0  0  0  0  0  0  0  0  0  0  0
   11.9179   10.8025    9.1965 N   0  0  0  0  0  0  0  0  0  0  0  0
   11.7039   12.0283    9.7284 C   0  0  0  0  0  0  0  0  0  0  0  0
   11.3711   12.9344    8.7446 N   0  0  0  0  0  0  0  0  0  0  0  0
  1  2  1  0  0  0  0
  1  6  1  0  0  0  0
  2  3  2  0  0  0  0
  3  4  1  0  0  0  0
  4  5  2  0  0  0  0
  4 10  1  0  0  0  0
  5  6  1  0  0  0  0
  5  8  1  0  0  0  0
  6  7  2  0  0  0  0
  8  9  1  0  0  0  0
  9 10  2  0  0  0  0
M  END
>  <CHROM.1>
11.59170898,11.24073539,7.38085300,1.42653267,1.31333888,-2.06529896

>  <Name>
ligand

>  <RI>
0

>  <Rbt.Current_Directory>
/home/itssahil/PROJECTS/Mol_Feturizer/Test_systems_manuscript/rnas/4fe5

>  <Rbt.Executable>
rbdock ($Id: //depot/dev/client3/rdock/2013.1/src/exe/rbdock.cxx#4 $)

>  <Rbt.Library>
libRbt.so (2013.1, Build901 2013/11/27)

>  <Rbt.Parameter_File>
/export/apps/rDock/src/rDock_2013.1_src/data/scripts/dock_solv.prm

>  <Rbt.Receptor>
prm/pocket_docking_5.prm

>  <SCORE>
-16.6633

>  <SCORE.INTER>
-16.6633

>  <SCORE.INTER.CONST>
1

>  <SCORE.INTER.POLAR>
0

>  <SCORE.INTER.ROT>
0

>  <SCORE.INTER.SOLV>
3.79837

>  <SCORE.INTER.VDW>
-15.975

>  <SCORE.INTER.norm>
-1.66633

>  <SCORE.INTRA>
0

>  <SCORE.INTRA.DIHEDRAL>
0

>  <SCORE.INTRA.DIHEDRAL.0>
0

>  <SCORE.INTRA.POLAR>
0

>  <SCORE.INTRA.POLAR.0>
0

>  <SCORE.INTRA.REPUL>
0

>  <SCORE.INTRA.REPUL.0>
0

>  <SCORE.INTRA.SOLV>
0

>  <SCORE.INTRA.SOLV.lig_0>
-4.28333

>  <SCORE.INTRA.VDW>
0

>  <SCORE.INTRA.VDW.0>
0

>  <SCORE.INTRA.norm>
0

>  <SCORE.RESTR>
0

>  <SCORE.RESTR.CAVITY>
0

>  <SCORE.RESTR.norm>
0

>  <SCORE.SYSTEM>
0

>  <SCORE.SYSTEM.CONST>
0

>  <SCORE.SYSTEM.DIHEDRAL>
0

>  <SCORE.SYSTEM.SOLV>
0

>  <SCORE.SYSTEM.norm>
0

>  <SCORE.heavy>
10

>  <SCORE.norm>
-1.66633

>  <RMSD>
2.880

$$$$
ligand
 OpenBabel02271912143D
libRbt.so/2013.1/901 2013/11/27
 10 11  0  0  0  0  0  0  0  0999 V2000
   11.5119   10.5771    5.5594 N   0  0  0  0  0  0  0  0  0  0  0  0
   11.1768   11.8941    5.3494 C   0  0  0  0  0  0  0  0  0  0  0  0
   11.0965   12.7729    6.3502 N   0  0  0  0  0  0  0  0  0  0  0  0
   11.3758   12.2323    7.5704 C   0  0  0  0  0  0  0  0  0  0  0  0
   11.7159   10.9230    7.8478 C   0  0  0  0  0  0  0  0  0  0  0  0
   11.8048    9.9812    6.7864 C   0  0  0  0  0  0  0  0  0  0  0  0
   12.0907    8.7779    6.8056 O   0  0  0  0  0  0  0  0  0  0  0  0
   11.9120   10.8030    9.1949 N   0  0  0  0  0  0  0  0  0  0  0  0
   11.6960   12.0270    9.7302 C   0  0  0  0  0  0  0  0  0  0  0  0
   11.3607   12.9350    8.7491 N   0  0  0  0  0  0  0  0  0  0  0  0
  1  2  1  0  0  0  0
  1  6  1  0  0  0  0
  2  3  2  0  0  0  0
  3  4  1  0  0  0  0
  4  5  2  0  0  0  0
  4 10  1  0  0  0  0
  5  6  1  0  0  0  0
  5  8  1  0  0  0  0
  6  7  2  0  0  0  0
  8  9  1  0  0  0  0
  9 10  2  0  0  0  0
M  END
>  <CHROM.1>
11.58345236,11.24539664,7.38075047,1.42578695,1.31125046,-2.06193503

>  <Name>
ligand

>  <RI>
0

>  <Rbt.Current_Directory>
/home/itssahil/PROJECTS/Mol_Feturizer/Test_systems_manuscript/rnas/4fe5

>  <Rbt.Executable>
rbdock ($Id: //depot/dev/client3/rdock/2013.1/src/exe/rbdock.cxx#4 $)

>  <Rbt.Library>
libRbt.so (2013.1, Build901 2013/11/27)

>  <Rbt.Parameter_File>
/export/apps/rDock/src/rDock_2013.1_src/data/scripts/dock_solv.prm

>  <Rbt.Receptor>
prm/pocket_docking_7.prm

>  <SCORE>
-16.6939

>  <SCORE.INTER>
-16.6939

>  <SCORE.INTER.CONST>
1

>  <SCORE.INTER.POLAR>
0

>  <SCORE.INTER.ROT>
0

>  <SCORE.INTER.SOLV>
3.80323

>  <SCORE.INTER.VDW>
-15.997

>  <SCORE.INTER.norm>
-1.66939

>  <SCORE.INTRA>
0

>  <SCORE.INTRA.DIHEDRAL>
0

>  <SCORE.INTRA.DIHEDRAL.0>
0

>  <SCORE.INTRA.POLAR>
0

>  <SCORE.INTRA.POLAR.0>
0

>  <SCORE.INTRA.REPUL>
0

>  <SCORE.INTRA.REPUL.0>
0

>  <SCORE.INTRA.SOLV>
0

>  <SCORE.INTRA.SOLV.lig_0>
-4.28333

>  <SCORE.INTRA.VDW>
0

>  <SCORE.INTRA.VDW.0>
0

>  <SCORE.INTRA.norm>
0

>  <SCORE.RESTR>
0

>  <SCORE.RESTR.CAVITY>
0

>  <SCORE.RESTR.norm>
0

>  <SCORE.SYSTEM>
0

>  <SCORE.SYSTEM.CONST>
0

>  <SCORE.SYSTEM.DIHEDRAL>
0

>  <SCORE.SYSTEM.SOLV>
0

>  <SCORE.SYSTEM.norm>
0

>  <SCORE.heavy>
10

>  <SCORE.norm>
-1.66939

>  <RMSD>
2.880

$$$$
ligand
 OpenBabel02271912143D
libRbt.so/2013.1/901 2013/11/27
 10 11  0  0  0  0  0  0  0  0999 V2000
   11.4884   10.5794    5.5571 N   0  0  0  0  0  0  0  0  0  0  0  0
   11.1323   11.8911    5.3481 C   0  0  0  0  0  0  0  0  0  0  0  0
   11.0555   12.7720    6.3473 N   0  0  0  0  0  0  0  0  0  0  0  0
   11.3607   12.2394    7.5647 C   0  0  0  0  0  0  0  0  0  0  0  0
   11.7227   10.9357    7.8410 C   0  0  0  0  0  0  0  0  0  0  0  0
   11.8080    9.9916    6.7814 C   0  0  0  0  0  0  0  0  0  0  0  0
   12.1104    8.7923    6.7999 O   0  0  0  0  0  0  0  0  0  0  0  0
   11.9410   10.8229    9.1853 N   0  0  0  0  0  0  0  0  0  0  0  0
   11.7167   12.0457    9.7200 C   0  0  0  0  0  0  0  0  0  0  0  0
   11.3542   12.9458    8.7413 N   0  0  0  0  0  0  0  0  0  0  0  0
  1  2  1  0  0  0  0
  1  6  1  0  0  0  0
  2  3  2  0  0  0  0
  3  4  1  0  0  0  0
  4  5  2  0  0  0  0
  4 10  1  0  0  0  0
  5  6  1  0  0  0  0
  5  8  1  0  0  0  0
  6  7  2  0  0  0  0
  8  9  1  0  0  0  0
  9 10  2  0  0  0  0
M  END
>  <CHROM.1>
11.57872357,11.25474294,7.37500392,1.45172748,1.29204181,-2.09019814

>  <Name>
ligand

>  <RI>
0

>  <Rbt.Current_Directory>
/home/itssahil/PROJECTS/Mol_Feturizer/Test_systems_manuscript/rnas/4fe5

>  <Rbt.Executable>
rbdock ($Id: //depot/dev/client3/rdock/2013.1/src/exe/rbdock.cxx#4 $)

>  <Rbt.Library>
libRbt.so (2013.1, Build901 2013/11/27)

>  <Rbt.Parameter_File>
/export/apps/rDock/src/rDock_2013.1_src/data/scripts/dock_solv.prm

>  <Rbt.Receptor>
prm/pocket_docking_8.prm

>  <SCORE>
-16.6821

>  <SCORE.INTER>
-16.6821

>  <SCORE.INTER.CONST>
1

>  <SCORE.INTER.POLAR>
0

>  <SCORE.INTER.ROT>
0

>  <SCORE.INTER.SOLV>
3.76055

>  <SCORE.INTER.VDW>
-15.9749

>  <SCORE.INTER.norm>
-1.66821

>  <SCORE.INTRA>
0

>  <SCORE.INTRA.DIHEDRAL>
0

>  <SCORE.INTRA.DIHEDRAL.0>
0

>  <SCORE.INTRA.POLAR>
0

>  <SCORE.INTRA.POLAR.0>
0

>  <SCORE.INTRA.REPUL>
0

>  <SCORE.INTRA.REPUL.0>
0

>  <SCORE.INTRA.SOLV>
0

>  <SCORE.INTRA.SOLV.lig_0>
-4.28333

>  <SCORE.INTRA.VDW>
0

>  <SCORE.INTRA.VDW.0>
0

>  <SCORE.INTRA.norm>
0

>  <SCORE.RESTR>
0

>  <SCORE.RESTR.CAVITY>
0

>  <SCORE.RESTR.norm>
0

>  <SCORE.SYSTEM>
0

>  <SCORE.SYSTEM.CONST>
0

>  <SCORE.SYSTEM.DIHEDRAL>
0

>  <SCORE.SYSTEM.SOLV>
0

>  <SCORE.SYSTEM.norm>
0

>  <SCORE.heavy>
10

>  <SCORE.norm>
-1.66821

>  <RMSD>
2.880

$$$$
ligand
 OpenBabel02271912143D
libRbt.so/2013.1/901 2013/11/27
 10 11  0  0  0  0  0  0  0  0999 V2000
   11.5153   10.5715    5.5714 N   0  0  0  0  0  0  0  0  0  0  0  0
   11.1824   11.8878    5.3536 C   0  0  0  0  0  0  0  0  0  0  0  0
   11.1005   12.7719    6.3495 N   0  0  0  0  0  0  0  0  0  0  0  0
   11.3756   12.2375    7.5733 C   0  0  0  0  0  0  0  0  0  0  0  0
   11.7133   10.9291    7.8586 C   0  0  0  0  0  0  0  0  0  0  0  0
   11.8039    9.9817    6.8024 C   0  0  0  0  0  0  0  0  0  0  0  0
   12.0882    8.7781    6.8287 O   0  0  0  0  0  0  0  0  0  0  0  0
   11.9055   10.8160    9.2068 N   0  0  0  0  0  0  0  0  0  0  0  0
   11.6896   12.0431    9.7351 C   0  0  0  0  0  0  0  0  0  0  0  0
   11.3582   12.9464    8.7482 N   0  0  0  0  0  0  0  0  0  0  0  0
  1  2  1  0  0  0  0
  1  6  1  0  0  0  0
  2  3  2  0  0  0  0
  3  4  1  0  0  0  0
  4  5  2  0  0  0  0
  4 10  1  0  0  0  0
  5  6  1  0  0  0  0
  5  8  1  0  0  0  0
  6  7  2  0  0  0  0
  8  9  1  0  0  0  0
  9 10  2  0  0  0  0
M  END
>  <CHROM.1>
11.58255157,11.24926954,7.38941203,1.41850727,1.31371539,-2.06016335

>  <Name>
ligand

>  <RI>
0

>  <Rbt.Current_Directory>
/home/itssahil/PROJECTS/Mol_Feturizer/Test_systems_manuscript/rnas/4fe5

>  <Rbt.Executable>
rbdock ($Id: //depot/dev/client3/rdock/2013.1/src/exe/rbdock.cxx#4 $)

>  <Rbt.Library>
libRbt.so (2013.1, Build901 2013/11/27)

>  <Rbt.Parameter_File>
/export/apps/rDock/src/rDock_2013.1_src/data/scripts/dock_solv.prm

>  <Rbt.Receptor>
prm/pocket_docking_8.prm

>  <SCORE>
-16.6954

>  <SCORE.INTER>
-16.6954

>  <SCORE.INTER.CONST>
1

>  <SCORE.INTER.POLAR>
0

>  <SCORE.INTER.ROT>
0

>  <SCORE.INTER.SOLV>
3.79972

>  <SCORE.INTER.VDW>
-15.9969

>  <SCORE.INTER.norm>
-1.66954

>  <SCORE.INTRA>
0

>  <SCORE.INTRA.DIHEDRAL>
0

>  <SCORE.INTRA.DIHEDRAL.0>
0

>  <SCORE.INTRA.POLAR>
0

>  <SCORE.INTRA.POLAR.0>
0

>  <SCORE.INTRA.REPUL>
0

>  <SCORE.INTRA.REPUL.0>
0

>  <SCORE.INTRA.SOLV>
0

>  <SCORE.INTRA.SOLV.lig_0>
-4.28333

>  <SCORE.INTRA.VDW>
0

>  <SCORE.INTRA.VDW.0>
0

>  <SCORE.INTRA.norm>
0

>  <SCORE.RESTR>
0

>  <SCORE.RESTR.CAVITY>
0

>  <SCORE.RESTR.norm>
0

>  <SCORE.SYSTEM>
0

>  <SCORE.SYSTEM.CONST>
0

>  <SCORE.SYSTEM.DIHEDRAL>
0

>  <SCORE.SYSTEM.SOLV>
0

>  <SCORE.SYSTEM.norm>
0

>  <SCORE.heavy>
10

>  <SCORE.norm>
-1.66954

>  <RMSD>
2.880

$$$$
ligand
 OpenBabel02271912143D
libRbt.so/2013.1/901 2013/11/27
 10 11  0  0  0  0  0  0  0  0999 V2000
   11.5050   10.5752    5.5604 N   0  0  0  0  0  0  0  0  0  0  0  0
   11.1770   11.8938    5.3491 C   0  0  0  0  0  0  0  0  0  0  0  0
   11.1025   12.7741    6.3490 N   0  0  0  0  0  0  0  0  0  0  0  0
   11.3797   12.2334    7.5696 C   0  0  0  0  0  0  0  0  0  0  0  0
   11.7128   10.9225    7.8482 C   0  0  0  0  0  0  0  0  0  0  0  0
   11.7956    9.9790    6.7878 C   0  0  0  0  0  0  0  0  0  0  0  0
   12.0748    8.7742    6.8081 O   0  0  0  0  0  0  0  0  0  0  0  0
   11.9093   10.8029    9.1953 N   0  0  0  0  0  0  0  0  0  0  0  0
   11.7006   12.0287    9.7294 C   0  0  0  0  0  0  0  0  0  0  0  0
   11.3695   12.9375    8.7475 N   0  0  0  0  0  0  0  0  0  0  0  0
  1  2  1  0  0  0  0
  1  6  1  0  0  0  0
  2  3  2  0  0  0  0
  3  4  1  0  0  0  0
  4  5  2  0  0  0  0
  4 10  1  0  0  0  0
  5  6  1  0  0  0  0
  5  8  1  0  0  0  0
  6  7  2  0  0  0  0
  8  9  1  0  0  0  0
  9 10  2  0  0  0  0
M  END
>  <CHROM.1>
11.58173299,11.24511418,7.38087130,1.43902145,1.31575606,-2.07585260

>  <Name>
ligand

>  <RI>
0

>  <Rbt.Current_Directory>
/home/itssahil/PROJECTS/Mol_Feturizer/Test_systems_manuscript/rnas/4fe5

>  <Rbt.Executable>
rbdock ($Id: //depot/dev/client3/rdock/2013.1/src/exe/rbdock.cxx#4 $)

>  <Rbt.Library>
libRbt.so (2013.1, Build901 2013/11/27)

>  <Rbt.Parameter_File>
/export/apps/rDock/src/rDock_2013.1_src/data/scripts/dock_solv.prm

>  <Rbt.Receptor>
prm/blind_docking_100.prm

>  <SCORE>
-16.6982

>  <SCORE.INTER>
-16.6982

>  <SCORE.INTER.CONST>
1

>  <SCORE.INTER.POLAR>
0

>  <SCORE.INTER.ROT>
0

>  <SCORE.INTER.SOLV>
3.82136

>  <SCORE.INTER.VDW>
-16.0059

>  <SCORE.INTER.norm>
-1.66982

>  <SCORE.INTRA>
0

>  <SCORE.INTRA.DIHEDRAL>
0

>  <SCORE.INTRA.DIHEDRAL.0>
0

>  <SCORE.INTRA.POLAR>
0

>  <SCORE.INTRA.POLAR.0>
0

>  <SCORE.INTRA.REPUL>
0

>  <SCORE.INTRA.REPUL.0>
0

>  <SCORE.INTRA.SOLV>
0

>  <SCORE.INTRA.SOLV.lig_0>
-4.28333

>  <SCORE.INTRA.VDW>
0

>  <SCORE.INTRA.VDW.0>
0

>  <SCORE.INTRA.norm>
0

>  <SCORE.RESTR>
0

>  <SCORE.RESTR.CAVITY>
0

>  <SCORE.RESTR.norm>
0

>  <SCORE.SYSTEM>
0

>  <SCORE.SYSTEM.CONST>
0

>  <SCORE.SYSTEM.DIHEDRAL>
0

>  <SCORE.SYSTEM.SOLV>
0

>  <SCORE.SYSTEM.norm>
0

>  <SCORE.heavy>
10

>  <SCORE.norm>
-1.66982

>  <RMSD>
2.881

$$$$
ligand
 OpenBabel02271912143D
libRbt.so/2013.1/901 2013/11/27
 10 11  0  0  0  0  0  0  0  0999 V2000
   11.4932   10.5708    5.5763 N   0  0  0  0  0  0  0  0  0  0  0  0
   11.1578   11.8872    5.3627 C   0  0  0  0  0  0  0  0  0  0  0  0
   11.0811   12.7695    6.3607 N   0  0  0  0  0  0  0  0  0  0  0  0
   11.3641   12.2332    7.5818 C   0  0  0  0  0  0  0  0  0  0  0  0
   11.7048   10.9247    7.8628 C   0  0  0  0  0  0  0  0  0  0  0  0
   11.7899    9.9792    6.8044 C   0  0  0  0  0  0  0  0  0  0  0  0
   12.0755    8.7759    6.8269 O   0  0  0  0  0  0  0  0  0  0  0  0
   11.9052   10.8095    9.2096 N   0  0  0  0  0  0  0  0  0  0  0  0
   11.6914   12.0354    9.7413 C   0  0  0  0  0  0  0  0  0  0  0  0
   11.3532   12.9401    8.7581 N   0  0  0  0  0  0  0  0  0  0  0  0
  1  2  1  0  0  0  0
  1  6  1  0  0  0  0
  2  3  2  0  0  0  0
  3  4  1  0  0  0  0
  4  5  2  0  0  0  0
  4 10  1  0  0  0  0
  5  6  1  0  0  0  0
  5  8  1  0  0  0  0
  6  7  2  0  0  0  0
  8  9  1  0  0  0  0
  9 10  2  0  0  0  0
M  END
>  <CHROM.1>
11.57089873,11.24556248,7.39498346,1.43751266,1.30998713,-2.07679232

>  <Name>
ligand

>  <RI>
0

>  <Rbt.Current_Directory>
/home/itssahil/PROJECTS/Mol_Feturizer/Test_systems_manuscript/rnas/4fe5

>  <Rbt.Executable>
rbdock ($Id: //depot/dev/client3/rdock/2013.1/src/exe/rbdock.cxx#4 $)

>  <Rbt.Library>
libRbt.so (2013.1, Build901 2013/11/27)

>  <Rbt.Parameter_File>
/export/apps/rDock/src/rDock_2013.1_src/data/scripts/dock_solv.prm

>  <Rbt.Receptor>
prm/blind_docking_40.prm

>  <SCORE>
-16.7114

>  <SCORE.INTER>
-16.7114

>  <SCORE.INTER.CONST>
1

>  <SCORE.INTER.POLAR>
0

>  <SCORE.INTER.ROT>
0

>  <SCORE.INTER.SOLV>
3.80736

>  <SCORE.INTER.VDW>
-16.01

>  <SCORE.INTER.norm>
-1.67114

>  <SCORE.INTRA>
0

>  <SCORE.INTRA.DIHEDRAL>
0

>  <SCORE.INTRA.DIHEDRAL.0>
0

>  <SCORE.INTRA.POLAR>
0

>  <SCORE.INTRA.POLAR.0>
0

>  <SCORE.INTRA.REPUL>
0

>  <SCORE.INTRA.REPUL.0>
0

>  <SCORE.INTRA.SOLV>
0

>  <SCORE.INTRA.SOLV.lig_0>
-4.28333

>  <SCORE.INTRA.VDW>
0

>  <SCORE.INTRA.VDW.0>
0

>  <SCORE.INTRA.norm>
0

>  <SCORE.RESTR>
0

>  <SCORE.RESTR.CAVITY>
0

>  <SCORE.RESTR.norm>
0

>  <SCORE.SYSTEM>
0

>  <SCORE.SYSTEM.CONST>
0

>  <SCORE.SYSTEM.DIHEDRAL>
0

>  <SCORE.SYSTEM.SOLV>
0

>  <SCORE.SYSTEM.norm>
0

>  <SCORE.heavy>
10

>  <SCORE.norm>
-1.67114

>  <RMSD>
2.881

$$$$
ligand
 OpenBabel02271912143D
libRbt.so/2013.1/901 2013/11/27
 10 11  0  0  0  0  0  0  0  0999 V2000
   11.5004   10.5799    5.5681 N   0  0  0  0  0  0  0  0  0  0  0  0
   11.1618   11.8960    5.3578 C   0  0  0  0  0  0  0  0  0  0  0  0
   11.0818   12.7754    6.3581 N   0  0  0  0  0  0  0  0  0  0  0  0
   11.3652   12.2365    7.5780 C   0  0  0  0  0  0  0  0  0  0  0  0
   11.7090   10.9282    7.8558 C   0  0  0  0  0  0  0  0  0  0  0  0
   11.7976    9.9857    6.7949 C   0  0  0  0  0  0  0  0  0  0  0  0
   12.0863    8.7831    6.8144 O   0  0  0  0  0  0  0  0  0  0  0  0
   11.9086   10.8098    9.2025 N   0  0  0  0  0  0  0  0  0  0  0  0
   11.6911   12.0337    9.7373 C   0  0  0  0  0  0  0  0  0  0  0  0
   11.3514   12.9401    8.7563 N   0  0  0  0  0  0  0  0  0  0  0  0
  1  2  1  0  0  0  0
  1  6  1  0  0  0  0
  2  3  2  0  0  0  0
  3  4  1  0  0  0  0
  4  5  2  0  0  0  0
  4 10  1  0  0  0  0
  5  6  1  0  0  0  0
  5  8  1  0  0  0  0
  6  7  2  0  0  0  0
  8  9  1  0  0  0  0
  9 10  2  0  0  0  0
M  END
>  <CHROM.1>
11.57473634,11.24988712,7.38874191,1.42964211,1.30808566,-2.06648502

>  <Name>
ligand

>  <RI>
0

>  <Rbt.Current_Directory>
/home/itssahil/PROJECTS/Mol_Feturizer/Test_systems_manuscript/rnas/4fe5

>  <Rbt.Executable>
rbdock ($Id: //depot/dev/client3/rdock/2013.1/src/exe/rbdock.cxx#4 $)

>  <Rbt.Library>
libRbt.so (2013.1, Build901 2013/11/27)

>  <Rbt.Parameter_File>
/export/apps/rDock/src/rDock_2013.1_src/data/scripts/dock_solv.prm

>  <Rbt.Receptor>
prm/blind_docking_60.prm

>  <SCORE>
-16.7176

>  <SCORE.INTER>
-16.7176

>  <SCORE.INTER.CONST>
1

>  <SCORE.INTER.POLAR>
0

>  <SCORE.INTER.ROT>
0

>  <SCORE.INTER.SOLV>
3.79993

>  <SCORE.INTER.VDW>
-16.0117

>  <SCORE.INTER.norm>
-1.67176

>  <SCORE.INTRA>
0

>  <SCORE.INTRA.DIHEDRAL>
0

>  <SCORE.INTRA.DIHEDRAL.0>
0

>  <SCORE.INTRA.POLAR>
0

>  <SCORE.INTRA.POLAR.0>
0

>  <SCORE.INTRA.REPUL>
0

>  <SCORE.INTRA.REPUL.0>
0

>  <SCORE.INTRA.SOLV>
0

>  <SCORE.INTRA.SOLV.lig_0>
-4.28333

>  <SCORE.INTRA.VDW>
0

>  <SCORE.INTRA.VDW.0>
0

>  <SCORE.INTRA.norm>
0

>  <SCORE.RESTR>
0

>  <SCORE.RESTR.CAVITY>
0

>  <SCORE.RESTR.norm>
0

>  <SCORE.SYSTEM>
0

>  <SCORE.SYSTEM.CONST>
0

>  <SCORE.SYSTEM.DIHEDRAL>
0

>  <SCORE.SYSTEM.SOLV>
0

>  <SCORE.SYSTEM.norm>
0

>  <SCORE.heavy>
10

>  <SCORE.norm>
-1.67176

>  <RMSD>
2.881

$$$$
ligand
 OpenBabel02271912143D
libRbt.so/2013.1/901 2013/11/27
 10 11  0  0  0  0  0  0  0  0999 V2000
   11.5020   10.5655    5.5952 N   0  0  0  0  0  0  0  0  0  0  0  0
   11.1525   11.8778    5.3792 C   0  0  0  0  0  0  0  0  0  0  0  0
   11.0765   12.7636    6.3742 N   0  0  0  0  0  0  0  0  0  0  0  0
   11.3753   12.2351    7.5949 C   0  0  0  0  0  0  0  0  0  0  0  0
   11.7306   10.9310    7.8782 C   0  0  0  0  0  0  0  0  0  0  0  0
   11.8151    9.9818    6.8231 C   0  0  0  0  0  0  0  0  0  0  0  0
   12.1121    8.7813    6.8480 O   0  0  0  0  0  0  0  0  0  0  0  0
   11.9441   10.8233    9.2237 N   0  0  0  0  0  0  0  0  0  0  0  0
   11.7236   12.0494    9.7522 C   0  0  0  0  0  0  0  0  0  0  0  0
   11.3682   12.9467    8.7684 N   0  0  0  0  0  0  0  0  0  0  0  0
  1  2  1  0  0  0  0
  1  6  1  0  0  0  0
  2  3  2  0  0  0  0
  3  4  1  0  0  0  0
  4  5  2  0  0  0  0
  4 10  1  0  0  0  0
  5  6  1  0  0  0  0
  5  8  1  0  0  0  0
  6  7  2  0  0  0  0
  8  9  1  0  0  0  0
  9 10  2  0  0  0  0
M  END
>  <CHROM.1>
11.58958479,11.24858517,7.41035863,1.44963244,1.29750586,-2.09265248

>  <Name>
ligand

>  <RI>
0

>  <Rbt.Current_Directory>
/home/itssahil/PROJECTS/Mol_Feturizer/Test_systems_manuscript/rnas/4fe5

>  <Rbt.Executable>
rbdock ($Id: //depot/dev/client3/rdock/2013.1/src/exe/rbdock.cxx#4 $)

>  <Rbt.Library>
libRbt.so (2013.1, Build901 2013/11/27)

>  <Rbt.Parameter_File>
/export/apps/rDock/src/rDock_2013.1_src/data/scripts/dock_solv.prm

>  <Rbt.Receptor>
prm/blind_docking_80.prm

>  <SCORE>
-16.6932

>  <SCORE.INTER>
-16.6932

>  <SCORE.INTER.CONST>
1

>  <SCORE.INTER.POLAR>
0

>  <SCORE.INTER.ROT>
0

>  <SCORE.INTER.SOLV>
3.74787

>  <SCORE.INTER.VDW>
-15.9781

>  <SCORE.INTER.norm>
-1.66932

>  <SCORE.INTRA>
0

>  <SCORE.INTRA.DIHEDRAL>
0

>  <SCORE.INTRA.DIHEDRAL.0>
0

>  <SCORE.INTRA.POLAR>
0

>  <SCORE.INTRA.POLAR.0>
0

>  <SCORE.INTRA.REPUL>
0

>  <SCORE.INTRA.REPUL.0>
0

>  <SCORE.INTRA.SOLV>
0

>  <SCORE.INTRA.SOLV.lig_0>
-4.28333

>  <SCORE.INTRA.VDW>
0

>  <SCORE.INTRA.VDW.0>
0

>  <SCORE.INTRA.norm>
0

>  <SCORE.RESTR>
0

>  <SCORE.RESTR.CAVITY>
0

>  <SCORE.RESTR.norm>
0

>  <SCORE.SYSTEM>
0

>  <SCORE.SYSTEM.CONST>
0

>  <SCORE.SYSTEM.DIHEDRAL>
0

>  <SCORE.SYSTEM.SOLV>
0

>  <SCORE.SYSTEM.norm>
0

>  <SCORE.heavy>
10

>  <SCORE.norm>
-1.66932

>  <RMSD>
2.881

$$$$
ligand
 OpenBabel02271912143D
libRbt.so/2013.1/901 2013/11/27
 10 11  0  0  0  0  0  0  0  0999 V2000
   11.4971   10.5731    5.5577 N   0  0  0  0  0  0  0  0  0  0  0  0
   11.1730   11.8927    5.3470 C   0  0  0  0  0  0  0  0  0  0  0  0
   11.1025   12.7732    6.3470 N   0  0  0  0  0  0  0  0  0  0  0  0
   11.3797   12.2316    7.5671 C   0  0  0  0  0  0  0  0  0  0  0  0
   11.7091   10.9196    7.8453 C   0  0  0  0  0  0  0  0  0  0  0  0
   11.7875    9.9759    6.7847 C   0  0  0  0  0  0  0  0  0  0  0  0
   12.0629    8.7702    6.8045 O   0  0  0  0  0  0  0  0  0  0  0  0
   11.9071   10.7994    9.1921 N   0  0  0  0  0  0  0  0  0  0  0  0
   11.7029   12.0258    9.7265 C   0  0  0  0  0  0  0  0  0  0  0  0
   11.3734   12.9356    8.7451 N   0  0  0  0  0  0  0  0  0  0  0  0
  1  2  1  0  0  0  0
  1  6  1  0  0  0  0
  2  3  2  0  0  0  0
  3  4  1  0  0  0  0
  4  5  2  0  0  0  0
  4 10  1  0  0  0  0
  5  6  1  0  0  0  0
  5  8  1  0  0  0  0
  6  7  2  0  0  0  0
  8  9  1  0  0  0  0
  9 10  2  0  0  0  0
M  END
>  <CHROM.1>
11.57839743,11.24267776,7.37811017,1.44984039,1.31782584,-2.08627843

>  <Name>
ligand

>  <RI>
0

>  <Rbt.Current_Directory>
/home/itssahil/PROJECTS/Mol_Feturizer/Test_systems_manuscript/rnas/4fe5

>  <Rbt.Executable>
rbdock ($Id: //depot/dev/client3/rdock/2013.1/src/exe/rbdock.cxx#4 $)

>  <Rbt.Library>
libRbt.so (2013.1, Build901 2013/11/27)

>  <Rbt.Parameter_File>
/export/apps/rDock/src/rDock_2013.1_src/data/scripts/dock_solv.prm

>  <Rbt.Receptor>
prm/pocket_docking_3.prm

>  <SCORE>
-16.698

>  <SCORE.INTER>
-16.698

>  <SCORE.INTER.CONST>
1

>  <SCORE.INTER.POLAR>
0

>  <SCORE.INTER.ROT>
0

>  <SCORE.INTER.SOLV>
3.83576

>  <SCORE.INTER.VDW>
-16.0106

>  <SCORE.INTER.norm>
-1.6698

>  <SCORE.INTRA>
0

>  <SCORE.INTRA.DIHEDRAL>
0

>  <SCORE.INTRA.DIHEDRAL.0>
0

>  <SCORE.INTRA.POLAR>
0

>  <SCORE.INTRA.POLAR.0>
0

>  <SCORE.INTRA.REPUL>
0

>  <SCORE.INTRA.REPUL.0>
0

>  <SCORE.INTRA.SOLV>
0

>  <SCORE.INTRA.SOLV.lig_0>
-4.28333

>  <SCORE.INTRA.VDW>
0

>  <SCORE.INTRA.VDW.0>
0

>  <SCORE.INTRA.norm>
0

>  <SCORE.RESTR>
0

>  <SCORE.RESTR.CAVITY>
0

>  <SCORE.RESTR.norm>
0

>  <SCORE.SYSTEM>
0

>  <SCORE.SYSTEM.CONST>
0

>  <SCORE.SYSTEM.DIHEDRAL>
0

>  <SCORE.SYSTEM.SOLV>
0

>  <SCORE.SYSTEM.norm>
0

>  <SCORE.heavy>
10

>  <SCORE.norm>
-1.6698

>  <RMSD>
2.881

$$$$
ligand
 OpenBabel02271912143D
libRbt.so/2013.1/901 2013/11/27
 10 11  0  0  0  0  0  0  0  0999 V2000
   11.4961   10.5792    5.5532 N   0  0  0  0  0  0  0  0  0  0  0  0
   11.1670   11.8984    5.3475 C   0  0  0  0  0  0  0  0  0  0  0  0
   11.0982   12.7759    6.3503 N   0  0  0  0  0  0  0  0  0  0  0  0
   11.3823   12.2318    7.5677 C   0  0  0  0  0  0  0  0  0  0  0  0
   11.7168   10.9201    7.8408 C   0  0  0  0  0  0  0  0  0  0  0  0
   11.7936    9.9796    6.7773 C   0  0  0  0  0  0  0  0  0  0  0  0
   12.0727    8.7747    6.7926 O   0  0  0  0  0  0  0  0  0  0  0  0
   11.9210   10.7967    9.1864 N   0  0  0  0  0  0  0  0  0  0  0  0
   11.7154   12.0210    9.7251 C   0  0  0  0  0  0  0  0  0  0  0  0
   11.3789   12.9326    8.7477 N   0  0  0  0  0  0  0  0  0  0  0  0
  1  2  1  0  0  0  0
  1  6  1  0  0  0  0
  2  3  2  0  0  0  0
  3  4  1  0  0  0  0
  4  5  2  0  0  0  0
  4 10  1  0  0  0  0
  5  6  1  0  0  0  0
  5  8  1  0  0  0  0
  6  7  2  0  0  0  0
  8  9  1  0  0  0  0
  9 10  2  0  0  0  0
M  END
>  <CHROM.1>
11.58317462,11.24402673,7.37509382,1.45870752,1.31302551,-2.09209588

>  <Name>
ligand

>  <RI>
0

>  <Rbt.Current_Directory>
/home/itssahil/PROJECTS/Mol_Feturizer/Test_systems_manuscript/rnas/4fe5

>  <Rbt.Executable>
rbdock ($Id: //depot/dev/client3/rdock/2013.1/src/exe/rbdock.cxx#4 $)

>  <Rbt.Library>
libRbt.so (2013.1, Build901 2013/11/27)

>  <Rbt.Parameter_File>
/export/apps/rDock/src/rDock_2013.1_src/data/scripts/dock_solv.prm

>  <Rbt.Receptor>
prm/pocket_docking_4.prm

>  <SCORE>
-16.6572

>  <SCORE.INTER>
-16.6572

>  <SCORE.INTER.CONST>
1

>  <SCORE.INTER.POLAR>
0

>  <SCORE.INTER.ROT>
0

>  <SCORE.INTER.SOLV>
3.82372

>  <SCORE.INTER.VDW>
-15.9794

>  <SCORE.INTER.norm>
-1.66572

>  <SCORE.INTRA>
0

>  <SCORE.INTRA.DIHEDRAL>
0

>  <SCORE.INTRA.DIHEDRAL.0>
0

>  <SCORE.INTRA.POLAR>
0

>  <SCORE.INTRA.POLAR.0>
0

>  <SCORE.INTRA.REPUL>
0

>  <SCORE.INTRA.REPUL.0>
0

>  <SCORE.INTRA.SOLV>
0

>  <SCORE.INTRA.SOLV.lig_0>
-4.28333

>  <SCORE.INTRA.VDW>
0

>  <SCORE.INTRA.VDW.0>
0

>  <SCORE.INTRA.norm>
0

>  <SCORE.RESTR>
0

>  <SCORE.RESTR.CAVITY>
0

>  <SCORE.RESTR.norm>
0

>  <SCORE.SYSTEM>
0

>  <SCORE.SYSTEM.CONST>
0

>  <SCORE.SYSTEM.DIHEDRAL>
0

>  <SCORE.SYSTEM.SOLV>
0

>  <SCORE.SYSTEM.norm>
0

>  <SCORE.heavy>
10

>  <SCORE.norm>
-1.66572

>  <RMSD>
2.881

$$$$
ligand
 OpenBabel02271912143D
libRbt.so/2013.1/901 2013/11/27
 10 11  0  0  0  0  0  0  0  0999 V2000
   11.4957   10.5775    5.5724 N   0  0  0  0  0  0  0  0  0  0  0  0
   11.1624   11.8946    5.3598 C   0  0  0  0  0  0  0  0  0  0  0  0
   11.0878   12.7764    6.3583 N   0  0  0  0  0  0  0  0  0  0  0  0
   11.3705   12.2389    7.5790 C   0  0  0  0  0  0  0  0  0  0  0  0
   11.7091   10.9297    7.8590 C   0  0  0  0  0  0  0  0  0  0  0  0
   11.7920    9.9846    6.8001 C   0  0  0  0  0  0  0  0  0  0  0  0
   12.0755    8.7808    6.8216 O   0  0  0  0  0  0  0  0  0  0  0  0
   11.9101   10.8132    9.2057 N   0  0  0  0  0  0  0  0  0  0  0  0
   11.6986   12.0392    9.7382 C   0  0  0  0  0  0  0  0  0  0  0  0
   11.3614   12.9451    8.7558 N   0  0  0  0  0  0  0  0  0  0  0  0
  1  2  1  0  0  0  0
  1  6  1  0  0  0  0
  2  3  2  0  0  0  0
  3  4  1  0  0  0  0
  4  5  2  0  0  0  0
  4 10  1  0  0  0  0
  5  6  1  0  0  0  0
  5  8  1  0  0  0  0
  6  7  2  0  0  0  0
  8  9  1  0  0  0  0
  9 10  2  0  0  0  0
M  END
>  <CHROM.1>
11.57549120,11.25098891,7.39149688,1.44264207,1.31120805,-2.08115402

>  <Name>
ligand

>  <RI>
0

>  <Rbt.Current_Directory>
/home/itssahil/PROJECTS/Mol_Feturizer/Test_systems_manuscript/rnas/4fe5

>  <Rbt.Executable>
rbdock ($Id: //depot/dev/client3/rdock/2013.1/src/exe/rbdock.cxx#4 $)

>  <Rbt.Library>
libRbt.so (2013.1, Build901 2013/11/27)

>  <Rbt.Parameter_File>
/export/apps/rDock/src/rDock_2013.1_src/data/scripts/dock_solv.prm

>  <Rbt.Receptor>
prm/pocket_docking_6.prm

>  <SCORE>
-16.7208

>  <SCORE.INTER>
-16.7208

>  <SCORE.INTER.CONST>
1

>  <SCORE.INTER.POLAR>
0

>  <SCORE.INTER.ROT>
0

>  <SCORE.INTER.SOLV>
3.80955

>  <SCORE.INTER.VDW>
-16.017

>  <SCORE.INTER.norm>
-1.67208

>  <SCORE.INTRA>
0

>  <SCORE.INTRA.DIHEDRAL>
0

>  <SCORE.INTRA.DIHEDRAL.0>
0

>  <SCORE.INTRA.POLAR>
0

>  <SCORE.INTRA.POLAR.0>
0

>  <SCORE.INTRA.REPUL>
0

>  <SCORE.INTRA.REPUL.0>
0

>  <SCORE.INTRA.SOLV>
0

>  <SCORE.INTRA.SOLV.lig_0>
-4.28333

>  <SCORE.INTRA.VDW>
0

>  <SCORE.INTRA.VDW.0>
0

>  <SCORE.INTRA.norm>
0

>  <SCORE.RESTR>
0

>  <SCORE.RESTR.CAVITY>
0

>  <SCORE.RESTR.norm>
0

>  <SCORE.SYSTEM>
0

>  <SCORE.SYSTEM.CONST>
0

>  <SCORE.SYSTEM.DIHEDRAL>
0

>  <SCORE.SYSTEM.SOLV>
0

>  <SCORE.SYSTEM.norm>
0

>  <SCORE.heavy>
10

>  <SCORE.norm>
-1.67208

>  <RMSD>
2.881

$$$$
ligand
 OpenBabel02271912143D
libRbt.so/2013.1/901 2013/11/27
 10 11  0  0  0  0  0  0  0  0999 V2000
   11.5049   10.5749    5.5742 N   0  0  0  0  0  0  0  0  0  0  0  0
   11.1690   11.8911    5.3601 C   0  0  0  0  0  0  0  0  0  0  0  0
   11.0903   12.7734    6.3579 N   0  0  0  0  0  0  0  0  0  0  0  0
   11.3718   12.2373    7.5795 C   0  0  0  0  0  0  0  0  0  0  0  0
   11.7128   10.9290    7.8610 C   0  0  0  0  0  0  0  0  0  0  0  0
   11.8001    9.9834    6.8029 C   0  0  0  0  0  0  0  0  0  0  0  0
   12.0862    8.7803    6.8258 O   0  0  0  0  0  0  0  0  0  0  0  0
   11.9113   10.8139    9.2082 N   0  0  0  0  0  0  0  0  0  0  0  0
   11.6960   12.0397    9.7395 C   0  0  0  0  0  0  0  0  0  0  0  0
   11.3587   12.9442    8.7558 N   0  0  0  0  0  0  0  0  0  0  0  0
  1  2  1  0  0  0  0
  1  6  1  0  0  0  0
  2  3  2  0  0  0  0
  3  4  1  0  0  0  0
  4  5  2  0  0  0  0
  4 10  1  0  0  0  0
  5  6  1  0  0  0  0
  5  8  1  0  0  0  0
  6  7  2  0  0  0  0
  8  9  1  0  0  0  0
  9 10  2  0  0  0  0
M  END
>  <CHROM.1>
11.57942665,11.24969626,7.39304850,1.43139574,1.31020303,-2.07092011

>  <Name>
ligand

>  <RI>
0

>  <Rbt.Current_Directory>
/home/itssahil/PROJECTS/Mol_Feturizer/Test_systems_manuscript/rnas/4fe5

>  <Rbt.Executable>
rbdock ($Id: //depot/dev/client3/rdock/2013.1/src/exe/rbdock.cxx#4 $)

>  <Rbt.Library>
libRbt.so (2013.1, Build901 2013/11/27)

>  <Rbt.Parameter_File>
/export/apps/rDock/src/rDock_2013.1_src/data/scripts/dock_solv.prm

>  <Rbt.Receptor>
prm/pocket_docking_6.prm

>  <SCORE>
-16.7212

>  <SCORE.INTER>
-16.7212

>  <SCORE.INTER.CONST>
1

>  <SCORE.INTER.POLAR>
0

>  <SCORE.INTER.ROT>
0

>  <SCORE.INTER.SOLV>
3.79773

>  <SCORE.INTER.VDW>
-16.0134

>  <SCORE.INTER.norm>
-1.67212

>  <SCORE.INTRA>
0

>  <SCORE.INTRA.DIHEDRAL>
0

>  <SCORE.INTRA.DIHEDRAL.0>
0

>  <SCORE.INTRA.POLAR>
0

>  <SCORE.INTRA.POLAR.0>
0

>  <SCORE.INTRA.REPUL>
0

>  <SCORE.INTRA.REPUL.0>
0

>  <SCORE.INTRA.SOLV>
0

>  <SCORE.INTRA.SOLV.lig_0>
-4.28333

>  <SCORE.INTRA.VDW>
0

>  <SCORE.INTRA.VDW.0>
0

>  <SCORE.INTRA.norm>
0

>  <SCORE.RESTR>
0

>  <SCORE.RESTR.CAVITY>
0

>  <SCORE.RESTR.norm>
0

>  <SCORE.SYSTEM>
0

>  <SCORE.SYSTEM.CONST>
0

>  <SCORE.SYSTEM.DIHEDRAL>
0

>  <SCORE.SYSTEM.SOLV>
0

>  <SCORE.SYSTEM.norm>
0

>  <SCORE.heavy>
10

>  <SCORE.norm>
-1.67212

>  <RMSD>
2.881

$$$$
ligand
 OpenBabel02271912143D
libRbt.so/2013.1/901 2013/11/27
 10 11  0  0  0  0  0  0  0  0999 V2000
   11.5403   10.6147    5.5582 N   0  0  0  0  0  0  0  0  0  0  0  0
   11.2354   11.9401    5.3552 C   0  0  0  0  0  0  0  0  0  0  0  0
   11.1387   12.8073    6.3646 N   0  0  0  0  0  0  0  0  0  0  0  0
   11.3690   12.2463    7.5857 C   0  0  0  0  0  0  0  0  0  0  0  0
   11.6769   10.9276    7.8564 C   0  0  0  0  0  0  0  0  0  0  0  0
   11.7831    9.9979    6.7859 C   0  0  0  0  0  0  0  0  0  0  0  0
   12.0468    8.7895    6.7980 O   0  0  0  0  0  0  0  0  0  0  0  0
   11.8275   10.7869    9.2073 N   0  0  0  0  0  0  0  0  0  0  0  0
   11.6162   12.0076    9.7517 C   0  0  0  0  0  0  0  0  0  0  0  0
   11.3287   12.9341    8.7727 N   0  0  0  0  0  0  0  0  0  0  0  0
  1  2  1  0  0  0  0
  1  6  1  0  0  0  0
  2  3  2  0  0  0  0
  3  4  1  0  0  0  0
  4  5  2  0  0  0  0
  4 10  1  0  0  0  0
  5  6  1  0  0  0  0
  5  8  1  0  0  0  0
  6  7  2  0  0  0  0
  8  9  1  0  0  0  0
  9 10  2  0  0  0  0
M  END
>  <CHROM.1>
11.56517903,11.25827738,7.38964739,1.33816774,1.34116624,-1.96385224

>  <Name>
ligand

>  <RI>
0

>  <Rbt.Current_Directory>
/home/itssahil/PROJECTS/Mol_Feturizer/Test_systems_manuscript/rnas/4fe5

>  <Rbt.Executable>
rbdock ($Id: //depot/dev/client3/rdock/2013.1/src/exe/rbdock.cxx#4 $)

>  <Rbt.Library>
libRbt.so (2013.1, Build901 2013/11/27)

>  <Rbt.Parameter_File>
/export/apps/rDock/src/rDock_2013.1_src/data/scripts/dock_solv.prm

>  <Rbt.Receptor>
prm/blind_docking_40.prm

>  <SCORE>
-16.6166

>  <SCORE.INTER>
-16.6166

>  <SCORE.INTER.CONST>
1

>  <SCORE.INTER.POLAR>
0

>  <SCORE.INTER.ROT>
0

>  <SCORE.INTER.SOLV>
3.89367

>  <SCORE.INTER.VDW>
-15.9756

>  <SCORE.INTER.norm>
-1.66166

>  <SCORE.INTRA>
0

>  <SCORE.INTRA.DIHEDRAL>
0

>  <SCORE.INTRA.DIHEDRAL.0>
0

>  <SCORE.INTRA.POLAR>
0

>  <SCORE.INTRA.POLAR.0>
0

>  <SCORE.INTRA.REPUL>
0

>  <SCORE.INTRA.REPUL.0>
0

>  <SCORE.INTRA.SOLV>
0

>  <SCORE.INTRA.SOLV.lig_0>
-4.28333

>  <SCORE.INTRA.VDW>
0

>  <SCORE.INTRA.VDW.0>
0

>  <SCORE.INTRA.norm>
0

>  <SCORE.RESTR>
0

>  <SCORE.RESTR.CAVITY>
0

>  <SCORE.RESTR.norm>
0

>  <SCORE.SYSTEM>
0

>  <SCORE.SYSTEM.CONST>
0

>  <SCORE.SYSTEM.DIHEDRAL>
0

>  <SCORE.SYSTEM.SOLV>
0

>  <SCORE.SYSTEM.norm>
0

>  <SCORE.heavy>
10

>  <SCORE.norm>
-1.66166

>  <RMSD>
2.882

$$$$
ligand
 OpenBabel02271912143D
libRbt.so/2013.1/901 2013/11/27
 10 11  0  0  0  0  0  0  0  0999 V2000
   11.4987   10.5700    5.5775 N   0  0  0  0  0  0  0  0  0  0  0  0
   11.1698   11.8876    5.3615 C   0  0  0  0  0  0  0  0  0  0  0  0
   11.1081   12.7745    6.3565 N   0  0  0  0  0  0  0  0  0  0  0  0
   11.3991   12.2414    7.5772 C   0  0  0  0  0  0  0  0  0  0  0  0
   11.7339   10.9319    7.8604 C   0  0  0  0  0  0  0  0  0  0  0  0
   11.8031    9.9815    6.8053 C   0  0  0  0  0  0  0  0  0  0  0  0
   12.0811    8.7764    6.8301 O   0  0  0  0  0  0  0  0  0  0  0  0
   11.9462   10.8209    9.2058 N   0  0  0  0  0  0  0  0  0  0  0  0
   11.7452   12.0504    9.7343 C   0  0  0  0  0  0  0  0  0  0  0  0
   11.4036   12.9532    8.7505 N   0  0  0  0  0  0  0  0  0  0  0  0
  1  2  1  0  0  0  0
  1  6  1  0  0  0  0
  2  3  2  0  0  0  0
  3  4  1  0  0  0  0
  4  5  2  0  0  0  0
  4 10  1  0  0  0  0
  5  6  1  0  0  0  0
  5  8  1  0  0  0  0
  6  7  2  0  0  0  0
  8  9  1  0  0  0  0
  9 10  2  0  0  0  0
M  END
>  <CHROM.1>
11.59772872,11.25167727,7.39255227,1.48143918,1.31080548,-2.12339664

>  <Name>
ligand

>  <RI>
0

>  <Rbt.Current_Directory>
/home/itssahil/PROJECTS/Mol_Feturizer/Test_systems_manuscript/rnas/4fe5

>  <Rbt.Executable>
rbdock ($Id: //depot/dev/client3/rdock/2013.1/src/exe/rbdock.cxx#4 $)

>  <Rbt.Library>
libRbt.so (2013.1, Build901 2013/11/27)

>  <Rbt.Parameter_File>
/export/apps/rDock/src/rDock_2013.1_src/data/scripts/dock_solv.prm

>  <Rbt.Receptor>
prm/blind_docking_60.prm

>  <SCORE>
-16.6589

>  <SCORE.INTER>
-16.6589

>  <SCORE.INTER.CONST>
1

>  <SCORE.INTER.POLAR>
0

>  <SCORE.INTER.ROT>
0

>  <SCORE.INTER.SOLV>
3.79759

>  <SCORE.INTER.VDW>
-15.9718

>  <SCORE.INTER.norm>
-1.66589

>  <SCORE.INTRA>
0

>  <SCORE.INTRA.DIHEDRAL>
0

>  <SCORE.INTRA.DIHEDRAL.0>
0

>  <SCORE.INTRA.POLAR>
0

>  <SCORE.INTRA.POLAR.0>
0

>  <SCORE.INTRA.REPUL>
0

>  <SCORE.INTRA.REPUL.0>
0

>  <SCORE.INTRA.SOLV>
0

>  <SCORE.INTRA.SOLV.lig_0>
-4.28333

>  <SCORE.INTRA.VDW>
0

>  <SCORE.INTRA.VDW.0>
0

>  <SCORE.INTRA.norm>
0

>  <SCORE.RESTR>
0

>  <SCORE.RESTR.CAVITY>
0

>  <SCORE.RESTR.norm>
0

>  <SCORE.SYSTEM>
0

>  <SCORE.SYSTEM.CONST>
0

>  <SCORE.SYSTEM.DIHEDRAL>
0

>  <SCORE.SYSTEM.SOLV>
0

>  <SCORE.SYSTEM.norm>
0

>  <SCORE.heavy>
10

>  <SCORE.norm>
-1.66589

>  <RMSD>
2.882

$$$$
ligand
 OpenBabel02271912143D
libRbt.so/2013.1/901 2013/11/27
 10 11  0  0  0  0  0  0  0  0999 V2000
   11.4857   10.5964    5.5529 N   0  0  0  0  0  0  0  0  0  0  0  0
   11.1390   11.9123    5.3551 C   0  0  0  0  0  0  0  0  0  0  0  0
   11.0816   12.7884    6.3598 N   0  0  0  0  0  0  0  0  0  0  0  0
   11.3961   12.2465    7.5707 C   0  0  0  0  0  0  0  0  0  0  0  0
   11.7497   10.9381    7.8358 C   0  0  0  0  0  0  0  0  0  0  0  0
   11.8143    9.9991    6.7702 C   0  0  0  0  0  0  0  0  0  0  0  0
   12.1062    8.7971    6.7788 O   0  0  0  0  0  0  0  0  0  0  0  0
   11.9826   10.8160    9.1769 N   0  0  0  0  0  0  0  0  0  0  0  0
   11.7755   12.0378    9.7207 C   0  0  0  0  0  0  0  0  0  0  0  0
   11.4096   12.9465    8.7511 N   0  0  0  0  0  0  0  0  0  0  0  0
  1  2  1  0  0  0  0
  1  6  1  0  0  0  0
  2  3  2  0  0  0  0
  3  4  1  0  0  0  0
  4  5  2  0  0  0  0
  4 10  1  0  0  0  0
  5  6  1  0  0  0  0
  5  8  1  0  0  0  0
  6  7  2  0  0  0  0
  8  9  1  0  0  0  0
  9 10  2  0  0  0  0
M  END
>  <CHROM.1>
11.60319973,11.26095751,7.37324324,1.50475288,1.29364538,-2.13576697

>  <Name>
ligand

>  <RI>
0

>  <Rbt.Current_Directory>
/home/itssahil/PROJECTS/Mol_Feturizer/Test_systems_manuscript/rnas/4fe5

>  <Rbt.Executable>
rbdock ($Id: //depot/dev/client3/rdock/2013.1/src/exe/rbdock.cxx#4 $)

>  <Rbt.Library>
libRbt.so (2013.1, Build901 2013/11/27)

>  <Rbt.Parameter_File>
/export/apps/rDock/src/rDock_2013.1_src/data/scripts/dock_solv.prm

>  <Rbt.Receptor>
prm/blind_docking_40.prm

>  <SCORE>
-16.6001

>  <SCORE.INTER>
-16.6001

>  <SCORE.INTER.CONST>
1

>  <SCORE.INTER.POLAR>
0

>  <SCORE.INTER.ROT>
0

>  <SCORE.INTER.SOLV>
3.77103

>  <SCORE.INTER.VDW>
-15.9237

>  <SCORE.INTER.norm>
-1.66001

>  <SCORE.INTRA>
0

>  <SCORE.INTRA.DIHEDRAL>
0

>  <SCORE.INTRA.DIHEDRAL.0>
0

>  <SCORE.INTRA.POLAR>
0

>  <SCORE.INTRA.POLAR.0>
0

>  <SCORE.INTRA.REPUL>
0

>  <SCORE.INTRA.REPUL.0>
0

>  <SCORE.INTRA.SOLV>
0

>  <SCORE.INTRA.SOLV.lig_0>
-4.28333

>  <SCORE.INTRA.VDW>
0

>  <SCORE.INTRA.VDW.0>
0

>  <SCORE.INTRA.norm>
0

>  <SCORE.RESTR>
0

>  <SCORE.RESTR.CAVITY>
0

>  <SCORE.RESTR.norm>
0

>  <SCORE.SYSTEM>
0

>  <SCORE.SYSTEM.CONST>
0

>  <SCORE.SYSTEM.DIHEDRAL>
0

>  <SCORE.SYSTEM.SOLV>
0

>  <SCORE.SYSTEM.norm>
0

>  <SCORE.heavy>
10

>  <SCORE.norm>
-1.66001

>  <RMSD>
2.883

$$$$
ligand
 OpenBabel02271912143D
libRbt.so/2013.1/901 2013/11/27
 10 11  0  0  0  0  0  0  0  0999 V2000
   11.5203   10.6385    5.5553 N   0  0  0  0  0  0  0  0  0  0  0  0
   11.2009   11.9607    5.3537 C   0  0  0  0  0  0  0  0  0  0  0  0
   11.1281   12.8333    6.3604 N   0  0  0  0  0  0  0  0  0  0  0  0
   11.3977   12.2811    7.5775 C   0  0  0  0  0  0  0  0  0  0  0  0
   11.7220   10.9660    7.8466 C   0  0  0  0  0  0  0  0  0  0  0  0
   11.8030   10.0307    6.7788 C   0  0  0  0  0  0  0  0  0  0  0  0
   12.0749    8.8241    6.7903 O   0  0  0  0  0  0  0  0  0  0  0  0
   11.9131   10.8343    9.1933 N   0  0  0  0  0  0  0  0  0  0  0  0
   11.7097   12.0569    9.7367 C   0  0  0  0  0  0  0  0  0  0  0  0
   11.3876   12.9756    8.7611 N   0  0  0  0  0  0  0  0  0  0  0  0
  1  2  1  0  0  0  0
  1  6  1  0  0  0  0
  2  3  2  0  0  0  0
  3  4  1  0  0  0  0
  4  5  2  0  0  0  0
  4 10  1  0  0  0  0
  5  6  1  0  0  0  0
  5  8  1  0  0  0  0
  6  7  2  0  0  0  0
  8  9  1  0  0  0  0
  9 10  2  0  0  0  0
M  END
>  <CHROM.1>
11.59454463,11.29317302,7.38144668,1.43809163,1.32266850,-2.06682265

>  <Name>
ligand

>  <RI>
0

>  <Rbt.Current_Directory>
/home/itssahil/PROJECTS/Mol_Feturizer/Test_systems_manuscript/rnas/4fe5

>  <Rbt.Executable>
rbdock ($Id: //depot/dev/client3/rdock/2013.1/src/exe/rbdock.cxx#4 $)

>  <Rbt.Library>
libRbt.so (2013.1, Build901 2013/11/27)

>  <Rbt.Parameter_File>
/export/apps/rDock/src/rDock_2013.1_src/data/scripts/dock_solv.prm

>  <Rbt.Receptor>
prm/blind_docking_80.prm

>  <SCORE>
-16.626

>  <SCORE.INTER>
-16.626

>  <SCORE.INTER.CONST>
1

>  <SCORE.INTER.POLAR>
0

>  <SCORE.INTER.ROT>
0

>  <SCORE.INTER.SOLV>
3.82895

>  <SCORE.INTER.VDW>
-15.9603

>  <SCORE.INTER.norm>
-1.6626

>  <SCORE.INTRA>
0

>  <SCORE.INTRA.DIHEDRAL>
0

>  <SCORE.INTRA.DIHEDRAL.0>
0

>  <SCORE.INTRA.POLAR>
0

>  <SCORE.INTRA.POLAR.0>
0

>  <SCORE.INTRA.REPUL>
0

>  <SCORE.INTRA.REPUL.0>
0

>  <SCORE.INTRA.SOLV>
0

>  <SCORE.INTRA.SOLV.lig_0>
-4.28333

>  <SCORE.INTRA.VDW>
0

>  <SCORE.INTRA.VDW.0>
0

>  <SCORE.INTRA.norm>
0

>  <SCORE.RESTR>
0

>  <SCORE.RESTR.CAVITY>
0

>  <SCORE.RESTR.norm>
0

>  <SCORE.SYSTEM>
0

>  <SCORE.SYSTEM.CONST>
0

>  <SCORE.SYSTEM.DIHEDRAL>
0

>  <SCORE.SYSTEM.SOLV>
0

>  <SCORE.SYSTEM.norm>
0

>  <SCORE.heavy>
10

>  <SCORE.norm>
-1.6626

>  <RMSD>
2.885

$$$$
ligand
 OpenBabel02271912143D
libRbt.so/2013.1/901 2013/11/27
 10 11  0  0  0  0  0  0  0  0999 V2000
   11.5351   10.6490    5.5783 N   0  0  0  0  0  0  0  0  0  0  0  0
   11.2203   11.9730    5.3815 C   0  0  0  0  0  0  0  0  0  0  0  0
   11.1502   12.8421    6.3915 N   0  0  0  0  0  0  0  0  0  0  0  0
   11.4177   12.2844    7.6065 C   0  0  0  0  0  0  0  0  0  0  0  0
   11.7375   10.9672    7.8709 C   0  0  0  0  0  0  0  0  0  0  0  0
   11.8154   10.0356    6.7996 C   0  0  0  0  0  0  0  0  0  0  0  0
   12.0833    8.8281    6.8066 O   0  0  0  0  0  0  0  0  0  0  0  0
   11.9278   10.8299    9.2171 N   0  0  0  0  0  0  0  0  0  0  0  0
   11.7285   12.0512    9.7650 C   0  0  0  0  0  0  0  0  0  0  0  0
   11.4097   12.9746    8.7927 N   0  0  0  0  0  0  0  0  0  0  0  0
  1  2  1  0  0  0  0
  1  6  1  0  0  0  0
  2  3  2  0  0  0  0
  3  4  1  0  0  0  0
  4  5  2  0  0  0  0
  4 10  1  0  0  0  0
  5  6  1  0  0  0  0
  5  8  1  0  0  0  0
  6  7  2  0  0  0  0
  8  9  1  0  0  0  0
  9 10  2  0  0  0  0
M  END
>  <CHROM.1>
11.61122020,11.29659683,7.40689935,1.44408644,1.32577364,-2.06891665

>  <Name>
ligand

>  <RI>
0

>  <Rbt.Current_Directory>
/home/itssahil/PROJECTS/Mol_Feturizer/Test_systems_manuscript/rnas/4fe5

>  <Rbt.Executable>
rbdock ($Id: //depot/dev/client3/rdock/2013.1/src/exe/rbdock.cxx#4 $)

>  <Rbt.Library>
libRbt.so (2013.1, Build901 2013/11/27)

>  <Rbt.Parameter_File>
/export/apps/rDock/src/rDock_2013.1_src/data/scripts/dock_solv.prm

>  <Rbt.Receptor>
prm/blind_docking_100.prm

>  <SCORE>
-16.6637

>  <SCORE.INTER>
-16.6637

>  <SCORE.INTER.CONST>
1

>  <SCORE.INTER.POLAR>
0

>  <SCORE.INTER.ROT>
0

>  <SCORE.INTER.SOLV>
3.817

>  <SCORE.INTER.VDW>
-15.9815

>  <SCORE.INTER.norm>
-1.66637

>  <SCORE.INTRA>
0

>  <SCORE.INTRA.DIHEDRAL>
0

>  <SCORE.INTRA.DIHEDRAL.0>
0

>  <SCORE.INTRA.POLAR>
0

>  <SCORE.INTRA.POLAR.0>
0

>  <SCORE.INTRA.REPUL>
0

>  <SCORE.INTRA.REPUL.0>
0

>  <SCORE.INTRA.SOLV>
0

>  <SCORE.INTRA.SOLV.lig_0>
-4.28333

>  <SCORE.INTRA.VDW>
0

>  <SCORE.INTRA.VDW.0>
0

>  <SCORE.INTRA.norm>
0

>  <SCORE.RESTR>
0

>  <SCORE.RESTR.CAVITY>
0

>  <SCORE.RESTR.norm>
0

>  <SCORE.SYSTEM>
0

>  <SCORE.SYSTEM.CONST>
0

>  <SCORE.SYSTEM.DIHEDRAL>
0

>  <SCORE.SYSTEM.SOLV>
0

>  <SCORE.SYSTEM.norm>
0

>  <SCORE.heavy>
10

>  <SCORE.norm>
-1.66637

>  <RMSD>
2.888

$$$$
ligand
 OpenBabel02271912143D
libRbt.so/2013.1/901 2013/11/27
 10 11  0  0  0  0  0  0  0  0999 V2000
   11.0682   12.4826    5.6891 N   0  0  0  0  0  0  0  0  0  0  0  0
   11.1091   13.0397    6.9456 C   0  0  0  0  0  0  0  0  0  0  0  0
   11.3964   12.3189    8.0310 N   0  0  0  0  0  0  0  0  0  0  0  0
   11.6372   11.0043    7.7611 C   0  0  0  0  0  0  0  0  0  0  0  0
   11.6106   10.3847    6.5272 C   0  0  0  0  0  0  0  0  0  0  0  0
   11.3067   11.1465    5.3659 C   0  0  0  0  0  0  0  0  0  0  0  0
   11.2313   10.8029    4.1800 O   0  0  0  0  0  0  0  0  0  0  0  0
   11.9083    9.0622    6.7007 N   0  0  0  0  0  0  0  0  0  0  0  0
   12.1162    8.8806    8.0255 C   0  0  0  0  0  0  0  0  0  0  0  0
   11.9547   10.0656    8.7105 N   0  0  0  0  0  0  0  0  0  0  0  0
  1  2  1  0  0  0  0
  1  6  1  0  0  0  0
  2  3  2  0  0  0  0
  3  4  1  0  0  0  0
  4  5  2  0  0  0  0
  4 10  1  0  0  0  0
  5  6  1  0  0  0  0
  5  8  1  0  0  0  0
  6  7  2  0  0  0  0
  8  9  1  0  0  0  0
  9 10  2  0  0  0  0
M  END
>  <CHROM.1>
11.52763933,10.91913353,6.74430173,2.80118536,1.33152038,-2.11182277

>  <Name>
ligand

>  <RI>
0

>  <Rbt.Current_Directory>
/home/itssahil/PROJECTS/Mol_Feturizer/Test_systems_manuscript/rnas/4fe5

>  <Rbt.Executable>
rbdock ($Id: //depot/dev/client3/rdock/2013.1/src/exe/rbdock.cxx#4 $)

>  <Rbt.Library>
libRbt.so (2013.1, Build901 2013/11/27)

>  <Rbt.Parameter_File>
/export/apps/rDock/src/rDock_2013.1_src/data/scripts/dock_solv.prm

>  <Rbt.Receptor>
prm/blind_docking_100.prm

>  <SCORE>
-15.4963

>  <SCORE.INTER>
-15.4963

>  <SCORE.INTER.CONST>
1

>  <SCORE.INTER.POLAR>
0

>  <SCORE.INTER.ROT>
0

>  <SCORE.INTER.SOLV>
4.97

>  <SCORE.INTER.VDW>
-15.5876

>  <SCORE.INTER.norm>
-1.54963

>  <SCORE.INTRA>
0

>  <SCORE.INTRA.DIHEDRAL>
0

>  <SCORE.INTRA.DIHEDRAL.0>
0

>  <SCORE.INTRA.POLAR>
0

>  <SCORE.INTRA.POLAR.0>
0

>  <SCORE.INTRA.REPUL>
0

>  <SCORE.INTRA.REPUL.0>
0

>  <SCORE.INTRA.SOLV>
0

>  <SCORE.INTRA.SOLV.lig_0>
-4.28333

>  <SCORE.INTRA.VDW>
0

>  <SCORE.INTRA.VDW.0>
0

>  <SCORE.INTRA.norm>
0

>  <SCORE.RESTR>
0

>  <SCORE.RESTR.CAVITY>
0

>  <SCORE.RESTR.norm>
0

>  <SCORE.SYSTEM>
0

>  <SCORE.SYSTEM.CONST>
0

>  <SCORE.SYSTEM.DIHEDRAL>
0

>  <SCORE.SYSTEM.SOLV>
0

>  <SCORE.SYSTEM.norm>
0

>  <SCORE.heavy>
10

>  <SCORE.norm>
-1.54963

>  <RMSD>
3.011

$$$$
ligand
 OpenBabel02271912143D
libRbt.so/2013.1/901 2013/11/27
 10 11  0  0  0  0  0  0  0  0999 V2000
   11.0221   12.4468    5.7025 N   0  0  0  0  0  0  0  0  0  0  0  0
   11.0432   13.0048    6.9592 C   0  0  0  0  0  0  0  0  0  0  0  0
   11.3354   12.2895    8.0469 N   0  0  0  0  0  0  0  0  0  0  0  0
   11.6024   10.9796    7.7792 C   0  0  0  0  0  0  0  0  0  0  0  0
   11.5966   10.3593    6.5453 C   0  0  0  0  0  0  0  0  0  0  0  0
   11.2876   11.1153    5.3815 C   0  0  0  0  0  0  0  0  0  0  0  0
   11.2275   10.7703    4.1952 O   0  0  0  0  0  0  0  0  0  0  0  0
   11.9172    9.0426    6.7214 N   0  0  0  0  0  0  0  0  0  0  0  0
   12.1184    8.8650    8.0478 C   0  0  0  0  0  0  0  0  0  0  0  0
   11.9298   10.0469    8.7312 N   0  0  0  0  0  0  0  0  0  0  0  0
  1  2  1  0  0  0  0
  1  6  1  0  0  0  0
  2  3  2  0  0  0  0
  3  4  1  0  0  0  0
  4  5  2  0  0  0  0
  4 10  1  0  0  0  0
  5  6  1  0  0  0  0
  5  8  1  0  0  0  0
  6  7  2  0  0  0  0
  8  9  1  0  0  0  0
  9 10  2  0  0  0  0
M  END
>  <CHROM.1>
11.50214051,10.89223344,6.76161539,2.73686530,1.31917309,-2.04961437

>  <Name>
ligand

>  <RI>
0

>  <Rbt.Current_Directory>
/home/itssahil/PROJECTS/Mol_Feturizer/Test_systems_manuscript/rnas/4fe5

>  <Rbt.Executable>
rbdock ($Id: //depot/dev/client3/rdock/2013.1/src/exe/rbdock.cxx#4 $)

>  <Rbt.Library>
libRbt.so (2013.1, Build901 2013/11/27)

>  <Rbt.Parameter_File>
/export/apps/rDock/src/rDock_2013.1_src/data/scripts/dock_solv.prm

>  <Rbt.Receptor>
prm/blind_docking_80.prm

>  <SCORE>
-15.4783

>  <SCORE.INTER>
-15.4783

>  <SCORE.INTER.CONST>
1

>  <SCORE.INTER.POLAR>
0

>  <SCORE.INTER.ROT>
0

>  <SCORE.INTER.SOLV>
4.97318

>  <SCORE.INTER.VDW>
-15.5766

>  <SCORE.INTER.norm>
-1.54783

>  <SCORE.INTRA>
0

>  <SCORE.INTRA.DIHEDRAL>
0

>  <SCORE.INTRA.DIHEDRAL.0>
0

>  <SCORE.INTRA.POLAR>
0

>  <SCORE.INTRA.POLAR.0>
0

>  <SCORE.INTRA.REPUL>
0

>  <SCORE.INTRA.REPUL.0>
0

>  <SCORE.INTRA.SOLV>
0

>  <SCORE.INTRA.SOLV.lig_0>
-4.28333

>  <SCORE.INTRA.VDW>
0

>  <SCORE.INTRA.VDW.0>
0

>  <SCORE.INTRA.norm>
0

>  <SCORE.RESTR>
0

>  <SCORE.RESTR.CAVITY>
0

>  <SCORE.RESTR.norm>
0

>  <SCORE.SYSTEM>
0

>  <SCORE.SYSTEM.CONST>
0

>  <SCORE.SYSTEM.DIHEDRAL>
0

>  <SCORE.SYSTEM.SOLV>
0

>  <SCORE.SYSTEM.norm>
0

>  <SCORE.heavy>
10

>  <SCORE.norm>
-1.54783

>  <RMSD>
3.011

$$$$
ligand
 OpenBabel02271912143D
libRbt.so/2013.1/901 2013/11/27
 10 11  0  0  0  0  0  0  0  0999 V2000
   10.9291   12.4149    5.7624 N   0  0  0  0  0  0  0  0  0  0  0  0
   10.9220   12.9342    7.0357 C   0  0  0  0  0  0  0  0  0  0  0  0
   11.2475   12.2007    8.1017 N   0  0  0  0  0  0  0  0  0  0  0  0
   11.5780   10.9142    7.7944 C   0  0  0  0  0  0  0  0  0  0  0  0
   11.6034   10.3327    6.5421 C   0  0  0  0  0  0  0  0  0  0  0  0
   11.2592   11.1084    5.4013 C   0  0  0  0  0  0  0  0  0  0  0  0
   11.2170   10.7976    4.2048 O   0  0  0  0  0  0  0  0  0  0  0  0
   11.9873    9.0283    6.6783 N   0  0  0  0  0  0  0  0  0  0  0  0
   12.1957    8.8198    7.9991 C   0  0  0  0  0  0  0  0  0  0  0  0
   11.9494    9.9695    8.7181 N   0  0  0  0  0  0  0  0  0  0  0  0
  1  2  1  0  0  0  0
  1  6  1  0  0  0  0
  2  3  2  0  0  0  0
  3  4  1  0  0  0  0
  4  5  2  0  0  0  0
  4 10  1  0  0  0  0
  5  6  1  0  0  0  0
  5  8  1  0  0  0  0
  6  7  2  0  0  0  0
  8  9  1  0  0  0  0
  9 10  2  0  0  0  0
M  END
>  <CHROM.1>
11.48303762,10.85349041,6.77439937,2.65711725,1.27564665,-1.94199524

>  <Name>
ligand

>  <RI>
0

>  <Rbt.Current_Directory>
/home/itssahil/PROJECTS/Mol_Feturizer/Test_systems_manuscript/rnas/4fe5

>  <Rbt.Executable>
rbdock ($Id: //depot/dev/client3/rdock/2013.1/src/exe/rbdock.cxx#4 $)

>  <Rbt.Library>
libRbt.so (2013.1, Build901 2013/11/27)

>  <Rbt.Parameter_File>
/export/apps/rDock/src/rDock_2013.1_src/data/scripts/dock_solv.prm

>  <Rbt.Receptor>
prm/blind_docking_20.prm

>  <SCORE>
-15.4171

>  <SCORE.INTER>
-15.4171

>  <SCORE.INTER.CONST>
1

>  <SCORE.INTER.POLAR>
0

>  <SCORE.INTER.ROT>
0

>  <SCORE.INTER.SOLV>
4.92139

>  <SCORE.INTER.VDW>
-15.5186

>  <SCORE.INTER.norm>
-1.54171

>  <SCORE.INTRA>
0

>  <SCORE.INTRA.DIHEDRAL>
0

>  <SCORE.INTRA.DIHEDRAL.0>
0

>  <SCORE.INTRA.POLAR>
0

>  <SCORE.INTRA.POLAR.0>
0

>  <SCORE.INTRA.REPUL>
0

>  <SCORE.INTRA.REPUL.0>
0

>  <SCORE.INTRA.SOLV>
0

>  <SCORE.INTRA.SOLV.lig_0>
-4.28333

>  <SCORE.INTRA.VDW>
0

>  <SCORE.INTRA.VDW.0>
0

>  <SCORE.INTRA.norm>
0

>  <SCORE.RESTR>
0

>  <SCORE.RESTR.CAVITY>
0

>  <SCORE.RESTR.norm>
0

>  <SCORE.SYSTEM>
0

>  <SCORE.SYSTEM.CONST>
0

>  <SCORE.SYSTEM.DIHEDRAL>
0

>  <SCORE.SYSTEM.SOLV>
0

>  <SCORE.SYSTEM.norm>
0

>  <SCORE.heavy>
10

>  <SCORE.norm>
-1.54171

>  <RMSD>
3.014

$$$$
ligand
 OpenBabel02271912143D
libRbt.so/2013.1/901 2013/11/27
 10 11  0  0  0  0  0  0  0  0999 V2000
   10.9681   12.4241    5.6985 N   0  0  0  0  0  0  0  0  0  0  0  0
   10.9291   12.9536    6.9670 C   0  0  0  0  0  0  0  0  0  0  0  0
   11.2133   12.2248    8.0479 N   0  0  0  0  0  0  0  0  0  0  0  0
   11.5368   10.9319    7.7606 C   0  0  0  0  0  0  0  0  0  0  0  0
   11.5927   10.3401    6.5141 C   0  0  0  0  0  0  0  0  0  0  0  0
   11.2925   11.1107    5.3576 C   0  0  0  0  0  0  0  0  0  0  0  0
   11.2825   10.7908    4.1627 O   0  0  0  0  0  0  0  0  0  0  0  0
   11.9561    9.0322    6.6719 N   0  0  0  0  0  0  0  0  0  0  0  0
   12.1220    8.8318    7.9999 C   0  0  0  0  0  0  0  0  0  0  0  0
   11.8685    9.9903    8.7023 N   0  0  0  0  0  0  0  0  0  0  0  0
  1  2  1  0  0  0  0
  1  6  1  0  0  0  0
  2  3  2  0  0  0  0
  3  4  1  0  0  0  0
  4  5  2  0  0  0  0
  4 10  1  0  0  0  0
  5  6  1  0  0  0  0
  5  8  1  0  0  0  0
  6  7  2  0  0  0  0
  8  9  1  0  0  0  0
  9 10  2  0  0  0  0
M  END
>  <CHROM.1>
11.47184022,10.86416615,6.73870680,2.57005107,1.29716173,-1.86627865

>  <Name>
ligand

>  <RI>
0

>  <Rbt.Current_Directory>
/home/itssahil/PROJECTS/Mol_Feturizer/Test_systems_manuscript/rnas/4fe5

>  <Rbt.Executable>
rbdock ($Id: //depot/dev/client3/rdock/2013.1/src/exe/rbdock.cxx#4 $)

>  <Rbt.Library>
libRbt.so (2013.1, Build901 2013/11/27)

>  <Rbt.Parameter_File>
/export/apps/rDock/src/rDock_2013.1_src/data/scripts/dock_solv.prm

>  <Rbt.Receptor>
prm/blind_docking_20.prm

>  <SCORE>
-15.3691

>  <SCORE.INTER>
-15.3691

>  <SCORE.INTER.CONST>
1

>  <SCORE.INTER.POLAR>
0

>  <SCORE.INTER.ROT>
0

>  <SCORE.INTER.SOLV>
4.96726

>  <SCORE.INTER.VDW>
-15.5019

>  <SCORE.INTER.norm>
-1.53691

>  <SCORE.INTRA>
0

>  <SCORE.INTRA.DIHEDRAL>
0

>  <SCORE.INTRA.DIHEDRAL.0>
0

>  <SCORE.INTRA.POLAR>
0

>  <SCORE.INTRA.POLAR.0>
0

>  <SCORE.INTRA.REPUL>
0

>  <SCORE.INTRA.REPUL.0>
0

>  <SCORE.INTRA.SOLV>
0

>  <SCORE.INTRA.SOLV.lig_0>
-4.28333

>  <SCORE.INTRA.VDW>
0

>  <SCORE.INTRA.VDW.0>
0

>  <SCORE.INTRA.norm>
0

>  <SCORE.RESTR>
0

>  <SCORE.RESTR.CAVITY>
0

>  <SCORE.RESTR.norm>
0

>  <SCORE.SYSTEM>
0

>  <SCORE.SYSTEM.CONST>
0

>  <SCORE.SYSTEM.DIHEDRAL>
0

>  <SCORE.SYSTEM.SOLV>
0

>  <SCORE.SYSTEM.norm>
0

>  <SCORE.heavy>
10

>  <SCORE.norm>
-1.53691

>  <RMSD>
3.017

$$$$
ligand
 OpenBabel02271912143D
libRbt.so/2013.1/901 2013/11/27
 10 11  0  0  0  0  0  0  0  0999 V2000
   11.0966   13.0048    7.0399 N   0  0  0  0  0  0  0  0  0  0  0  0
   11.1916   12.5240    5.7551 C   0  0  0  0  0  0  0  0  0  0  0  0
   11.5077   11.2539    5.4957 N   0  0  0  0  0  0  0  0  0  0  0  0
   11.7208   10.5081    6.6170 C   0  0  0  0  0  0  0  0  0  0  0  0
   11.6431   10.9294    7.9298 C   0  0  0  0  0  0  0  0  0  0  0  0
   11.3054   12.2809    8.2141 C   0  0  0  0  0  0  0  0  0  0  0  0
   11.1791   12.8637    9.2978 O   0  0  0  0  0  0  0  0  0  0  0  0
   11.9299    9.8687    8.7424 N   0  0  0  0  0  0  0  0  0  0  0  0
   12.1766    8.8133    7.9321 C   0  0  0  0  0  0  0  0  0  0  0  0
   12.0559    9.1773    6.6083 N   0  0  0  0  0  0  0  0  0  0  0  0
  1  2  1  0  0  0  0
  1  6  1  0  0  0  0
  2  3  2  0  0  0  0
  3  4  1  0  0  0  0
  4  5  2  0  0  0  0
  4 10  1  0  0  0  0
  5  6  1  0  0  0  0
  5  8  1  0  0  0  0
  6  7  2  0  0  0  0
  8  9  1  0  0  0  0
  9 10  2  0  0  0  0
M  END
>  <CHROM.1>
11.57257761,11.15708044,7.39798199,2.95663359,-1.32176418,1.48693125

>  <Name>
ligand

>  <RI>
0

>  <Rbt.Current_Directory>
/home/itssahil/PROJECTS/Mol_Feturizer/Test_systems_manuscript/rnas/4fe5

>  <Rbt.Executable>
rbdock ($Id: //depot/dev/client3/rdock/2013.1/src/exe/rbdock.cxx#4 $)

>  <Rbt.Library>
libRbt.so (2013.1, Build901 2013/11/27)

>  <Rbt.Parameter_File>
/export/apps/rDock/src/rDock_2013.1_src/data/scripts/dock_solv.prm

>  <Rbt.Receptor>
prm/blind_docking_60.prm

>  <SCORE>
-15.8775

>  <SCORE.INTER>
-15.8775

>  <SCORE.INTER.CONST>
1

>  <SCORE.INTER.POLAR>
0

>  <SCORE.INTER.ROT>
0

>  <SCORE.INTER.SOLV>
4.21547

>  <SCORE.INTER.VDW>
-15.5901

>  <SCORE.INTER.norm>
-1.58775

>  <SCORE.INTRA>
0

>  <SCORE.INTRA.DIHEDRAL>
0

>  <SCORE.INTRA.DIHEDRAL.0>
0

>  <SCORE.INTRA.POLAR>
0

>  <SCORE.INTRA.POLAR.0>
0

>  <SCORE.INTRA.REPUL>
0

>  <SCORE.INTRA.REPUL.0>
0

>  <SCORE.INTRA.SOLV>
0

>  <SCORE.INTRA.SOLV.lig_0>
-4.28333

>  <SCORE.INTRA.VDW>
0

>  <SCORE.INTRA.VDW.0>
0

>  <SCORE.INTRA.norm>
0

>  <SCORE.RESTR>
0

>  <SCORE.RESTR.CAVITY>
0

>  <SCORE.RESTR.norm>
0

>  <SCORE.SYSTEM>
0

>  <SCORE.SYSTEM.CONST>
0

>  <SCORE.SYSTEM.DIHEDRAL>
0

>  <SCORE.SYSTEM.SOLV>
0

>  <SCORE.SYSTEM.norm>
0

>  <SCORE.heavy>
10

>  <SCORE.norm>
-1.58775

>  <RMSD>
3.267

$$$$
ligand
 OpenBabel02271912143D
libRbt.so/2013.1/901 2013/11/27
 10 11  0  0  0  0  0  0  0  0999 V2000
   11.1025   12.9880    7.0284 N   0  0  0  0  0  0  0  0  0  0  0  0
   11.1417   12.4845    5.7494 C   0  0  0  0  0  0  0  0  0  0  0  0
   11.4247   11.2046    5.5003 N   0  0  0  0  0  0  0  0  0  0  0  0
   11.6647   10.4732    6.6257 C   0  0  0  0  0  0  0  0  0  0  0  0
   11.6427   10.9173    7.9331 C   0  0  0  0  0  0  0  0  0  0  0  0
   11.3405   12.2794    8.2064 C   0  0  0  0  0  0  0  0  0  0  0  0
   11.2645   12.8821    9.2839 O   0  0  0  0  0  0  0  0  0  0  0  0
   11.9393    9.8647    8.7526 N   0  0  0  0  0  0  0  0  0  0  0  0
   12.1368    8.7917    7.9521 C   0  0  0  0  0  0  0  0  0  0  0  0
   11.9747    9.1363    6.6275 N   0  0  0  0  0  0  0  0  0  0  0  0
  1  2  1  0  0  0  0
  1  6  1  0  0  0  0
  2  3  2  0  0  0  0
  3  4  1  0  0  0  0
  4  5  2  0  0  0  0
  4 10  1  0  0  0  0
  5  6  1  0  0  0  0
  5  8  1  0  0  0  0
  6  7  2  0  0  0  0
  8  9  1  0  0  0  0
  9 10  2  0  0  0  0
M  END
>  <CHROM.1>
11.55702392,11.13758651,7.40036488,2.79454738,-1.33409775,1.31293048

>  <Name>
ligand

>  <RI>
0

>  <Rbt.Current_Directory>
/home/itssahil/PROJECTS/Mol_Feturizer/Test_systems_manuscript/rnas/4fe5

>  <Rbt.Executable>
rbdock ($Id: //depot/dev/client3/rdock/2013.1/src/exe/rbdock.cxx#4 $)

>  <Rbt.Library>
libRbt.so (2013.1, Build901 2013/11/27)

>  <Rbt.Parameter_File>
/export/apps/rDock/src/rDock_2013.1_src/data/scripts/dock_solv.prm

>  <Rbt.Receptor>
prm/blind_docking_60.prm

>  <SCORE>
-15.9241

>  <SCORE.INTER>
-15.9241

>  <SCORE.INTER.CONST>
1

>  <SCORE.INTER.POLAR>
0

>  <SCORE.INTER.ROT>
0

>  <SCORE.INTER.SOLV>
4.24162

>  <SCORE.INTER.VDW>
-15.6299

>  <SCORE.INTER.norm>
-1.59241

>  <SCORE.INTRA>
0

>  <SCORE.INTRA.DIHEDRAL>
0

>  <SCORE.INTRA.DIHEDRAL.0>
0

>  <SCORE.INTRA.POLAR>
0

>  <SCORE.INTRA.POLAR.0>
0

>  <SCORE.INTRA.REPUL>
0

>  <SCORE.INTRA.REPUL.0>
0

>  <SCORE.INTRA.SOLV>
0

>  <SCORE.INTRA.SOLV.lig_0>
-4.28333

>  <SCORE.INTRA.VDW>
0

>  <SCORE.INTRA.VDW.0>
0

>  <SCORE.INTRA.norm>
0

>  <SCORE.RESTR>
0

>  <SCORE.RESTR.CAVITY>
0

>  <SCORE.RESTR.norm>
0

>  <SCORE.SYSTEM>
0

>  <SCORE.SYSTEM.CONST>
0

>  <SCORE.SYSTEM.DIHEDRAL>
0

>  <SCORE.SYSTEM.SOLV>
0

>  <SCORE.SYSTEM.norm>
0

>  <SCORE.heavy>
10

>  <SCORE.norm>
-1.59241

>  <RMSD>
3.271

$$$$
ligand
 OpenBabel02271912143D
libRbt.so/2013.1/901 2013/11/27
 10 11  0  0  0  0  0  0  0  0999 V2000
   11.0999   13.0099    6.9994 N   0  0  0  0  0  0  0  0  0  0  0  0
   11.1485   12.4977    5.7241 C   0  0  0  0  0  0  0  0  0  0  0  0
   11.4342   11.2164    5.4859 N   0  0  0  0  0  0  0  0  0  0  0  0
   11.6666   10.4929    6.6179 C   0  0  0  0  0  0  0  0  0  0  0  0
   11.6350   10.9459    7.9221 C   0  0  0  0  0  0  0  0  0  0  0  0
   11.3300   12.3096    8.1839 C   0  0  0  0  0  0  0  0  0  0  0  0
   11.2460   12.9196    9.2567 O   0  0  0  0  0  0  0  0  0  0  0  0
   11.9265    9.8991    8.7509 N   0  0  0  0  0  0  0  0  0  0  0  0
   12.1303    8.8208    7.9591 C   0  0  0  0  0  0  0  0  0  0  0  0
   11.9775    9.1562    6.6311 N   0  0  0  0  0  0  0  0  0  0  0  0
  1  2  1  0  0  0  0
  1  6  1  0  0  0  0
  2  3  2  0  0  0  0
  3  4  1  0  0  0  0
  4  5  2  0  0  0  0
  4 10  1  0  0  0  0
  5  6  1  0  0  0  0
  5  8  1  0  0  0  0
  6  7  2  0  0  0  0
  8  9  1  0  0  0  0
  9 10  2  0  0  0  0
M  END
>  <CHROM.1>
11.55299720,11.16243836,7.38725576,2.82468599,-1.33518977,1.33537840

>  <Name>
ligand

>  <RI>
0

>  <Rbt.Current_Directory>
/home/itssahil/PROJECTS/Mol_Feturizer/Test_systems_manuscript/rnas/4fe5

>  <Rbt.Executable>
rbdock ($Id: //depot/dev/client3/rdock/2013.1/src/exe/rbdock.cxx#4 $)

>  <Rbt.Library>
libRbt.so (2013.1, Build901 2013/11/27)

>  <Rbt.Parameter_File>
/export/apps/rDock/src/rDock_2013.1_src/data/scripts/dock_solv.prm

>  <Rbt.Receptor>
prm/blind_docking_60.prm

>  <SCORE>
-15.887

>  <SCORE.INTER>
-15.887

>  <SCORE.INTER.CONST>
1

>  <SCORE.INTER.POLAR>
0

>  <SCORE.INTER.ROT>
0

>  <SCORE.INTER.SOLV>
4.27126

>  <SCORE.INTER.VDW>
-15.6151

>  <SCORE.INTER.norm>
-1.5887

>  <SCORE.INTRA>
0

>  <SCORE.INTRA.DIHEDRAL>
0

>  <SCORE.INTRA.DIHEDRAL.0>
0

>  <SCORE.INTRA.POLAR>
0

>  <SCORE.INTRA.POLAR.0>
0

>  <SCORE.INTRA.REPUL>
0

>  <SCORE.INTRA.REPUL.0>
0

>  <SCORE.INTRA.SOLV>
0

>  <SCORE.INTRA.SOLV.lig_0>
-4.28333

>  <SCORE.INTRA.VDW>
0

>  <SCORE.INTRA.VDW.0>
0

>  <SCORE.INTRA.norm>
0

>  <SCORE.RESTR>
0

>  <SCORE.RESTR.CAVITY>
0

>  <SCORE.RESTR.norm>
0

>  <SCORE.SYSTEM>
0

>  <SCORE.SYSTEM.CONST>
0

>  <SCORE.SYSTEM.DIHEDRAL>
0

>  <SCORE.SYSTEM.SOLV>
0

>  <SCORE.SYSTEM.norm>
0

>  <SCORE.heavy>
10

>  <SCORE.norm>
-1.5887

>  <RMSD>
3.279

$$$$
ligand
 OpenBabel02271912143D
libRbt.so/2013.1/901 2013/11/27
 10 11  0  0  0  0  0  0  0  0999 V2000
   11.0951   13.0202    7.0081 N   0  0  0  0  0  0  0  0  0  0  0  0
   11.1587   12.5117    5.7320 C   0  0  0  0  0  0  0  0  0  0  0  0
   11.4676   11.2359    5.4925 N   0  0  0  0  0  0  0  0  0  0  0  0
   11.7069   10.5141    6.6241 C   0  0  0  0  0  0  0  0  0  0  0  0
   11.6612   10.9636    7.9290 C   0  0  0  0  0  0  0  0  0  0  0  0
   11.3314   12.3213    8.1922 C   0  0  0  0  0  0  0  0  0  0  0  0
   11.2316   12.9274    9.2659 O   0  0  0  0  0  0  0  0  0  0  0  0
   11.9666    9.9202    8.7571 N   0  0  0  0  0  0  0  0  0  0  0  0
   12.1928    8.8473    7.9641 C   0  0  0  0  0  0  0  0  0  0  0  0
   12.0407    9.1829    6.6360 N   0  0  0  0  0  0  0  0  0  0  0  0
  1  2  1  0  0  0  0
  1  6  1  0  0  0  0
  2  3  2  0  0  0  0
  3  4  1  0  0  0  0
  4  5  2  0  0  0  0
  4 10  1  0  0  0  0
  5  6  1  0  0  0  0
  5  8  1  0  0  0  0
  6  7  2  0  0  0  0
  8  9  1  0  0  0  0
  9 10  2  0  0  0  0
M  END
>  <CHROM.1>
11.57803678,11.17988362,7.39427854,2.85998857,-1.31941084,1.37179948

>  <Name>
ligand

>  <RI>
0

>  <Rbt.Current_Directory>
/home/itssahil/PROJECTS/Mol_Feturizer/Test_systems_manuscript/rnas/4fe5

>  <Rbt.Executable>
rbdock ($Id: //depot/dev/client3/rdock/2013.1/src/exe/rbdock.cxx#4 $)

>  <Rbt.Library>
libRbt.so (2013.1, Build901 2013/11/27)

>  <Rbt.Parameter_File>
/export/apps/rDock/src/rDock_2013.1_src/data/scripts/dock_solv.prm

>  <Rbt.Receptor>
prm/blind_docking_60.prm

>  <SCORE>
-15.8947

>  <SCORE.INTER>
-15.8947

>  <SCORE.INTER.CONST>
1

>  <SCORE.INTER.POLAR>
0

>  <SCORE.INTER.ROT>
0

>  <SCORE.INTER.SOLV>
4.25383

>  <SCORE.INTER.VDW>
-15.6144

>  <SCORE.INTER.norm>
-1.58947

>  <SCORE.INTRA>
0

>  <SCORE.INTRA.DIHEDRAL>
0

>  <SCORE.INTRA.DIHEDRAL.0>
0

>  <SCORE.INTRA.POLAR>
0

>  <SCORE.INTRA.POLAR.0>
0

>  <SCORE.INTRA.REPUL>
0

>  <SCORE.INTRA.REPUL.0>
0

>  <SCORE.INTRA.SOLV>
0

>  <SCORE.INTRA.SOLV.lig_0>
-4.28333

>  <SCORE.INTRA.VDW>
0

>  <SCORE.INTRA.VDW.0>
0

>  <SCORE.INTRA.norm>
0

>  <SCORE.RESTR>
0

>  <SCORE.RESTR.CAVITY>
0

>  <SCORE.RESTR.norm>
0

>  <SCORE.SYSTEM>
0

>  <SCORE.SYSTEM.CONST>
0

>  <SCORE.SYSTEM.DIHEDRAL>
0

>  <SCORE.SYSTEM.SOLV>
0

>  <SCORE.SYSTEM.norm>
0

>  <SCORE.heavy>
10

>  <SCORE.norm>
-1.58947

>  <RMSD>
3.281

$$$$
ligand
 OpenBabel02271912143D
libRbt.so/2013.1/901 2013/11/27
 10 11  0  0  0  0  0  0  0  0999 V2000
   11.1195   13.0319    6.9148 N   0  0  0  0  0  0  0  0  0  0  0  0
   11.1152   12.4846    5.6533 C   0  0  0  0  0  0  0  0  0  0  0  0
   11.3727   11.1928    5.4408 N   0  0  0  0  0  0  0  0  0  0  0  0
   11.6341   10.4966    6.5836 C   0  0  0  0  0  0  0  0  0  0  0  0
   11.6556   10.9853    7.8750 C   0  0  0  0  0  0  0  0  0  0  0  0
   11.3807   12.3604    8.1095 C   0  0  0  0  0  0  0  0  0  0  0  0
   11.3440   13.0005    9.1673 O   0  0  0  0  0  0  0  0  0  0  0  0
   11.9603    9.9569    8.7218 N   0  0  0  0  0  0  0  0  0  0  0  0
   12.1196    8.8543    7.9536 C   0  0  0  0  0  0  0  0  0  0  0  0
   11.9250    9.1559    6.6229 N   0  0  0  0  0  0  0  0  0  0  0  0
  1  2  1  0  0  0  0
  1  6  1  0  0  0  0
  2  3  2  0  0  0  0
  3  4  1  0  0  0  0
  4  5  2  0  0  0  0
  4 10  1  0  0  0  0
  5  6  1  0  0  0  0
  5  8  1  0  0  0  0
  6  7  2  0  0  0  0
  8  9  1  0  0  0  0
  9 10  2  0  0  0  0
M  END
>  <CHROM.1>
11.55798143,11.18854347,7.33761540,2.65894411,-1.33859574,1.14670985

>  <Name>
ligand

>  <RI>
0

>  <Rbt.Current_Directory>
/home/itssahil/PROJECTS/Mol_Feturizer/Test_systems_manuscript/rnas/4fe5

>  <Rbt.Executable>
rbdock ($Id: //depot/dev/client3/rdock/2013.1/src/exe/rbdock.cxx#4 $)

>  <Rbt.Library>
libRbt.so (2013.1, Build901 2013/11/27)

>  <Rbt.Parameter_File>
/export/apps/rDock/src/rDock_2013.1_src/data/scripts/dock_solv.prm

>  <Rbt.Receptor>
prm/blind_docking_80.prm

>  <SCORE>
-15.8707

>  <SCORE.INTER>
-15.8707

>  <SCORE.INTER.CONST>
1

>  <SCORE.INTER.POLAR>
0

>  <SCORE.INTER.ROT>
0

>  <SCORE.INTER.SOLV>
4.34357

>  <SCORE.INTER.VDW>
-15.6283

>  <SCORE.INTER.norm>
-1.58707

>  <SCORE.INTRA>
0

>  <SCORE.INTRA.DIHEDRAL>
0

>  <SCORE.INTRA.DIHEDRAL.0>
0

>  <SCORE.INTRA.POLAR>
0

>  <SCORE.INTRA.POLAR.0>
0

>  <SCORE.INTRA.REPUL>
0

>  <SCORE.INTRA.REPUL.0>
0

>  <SCORE.INTRA.SOLV>
0

>  <SCORE.INTRA.SOLV.lig_0>
-4.28333

>  <SCORE.INTRA.VDW>
0

>  <SCORE.INTRA.VDW.0>
0

>  <SCORE.INTRA.norm>
0

>  <SCORE.RESTR>
0

>  <SCORE.RESTR.CAVITY>
0

>  <SCORE.RESTR.norm>
0

>  <SCORE.SYSTEM>
0

>  <SCORE.SYSTEM.CONST>
0

>  <SCORE.SYSTEM.DIHEDRAL>
0

>  <SCORE.SYSTEM.SOLV>
0

>  <SCORE.SYSTEM.norm>
0

>  <SCORE.heavy>
10

>  <SCORE.norm>
-1.58707

>  <RMSD>
3.291

$$$$
ligand
 OpenBabel02271912143D
libRbt.so/2013.1/901 2013/11/27
 10 11  0  0  0  0  0  0  0  0999 V2000
   11.1268   12.9754    6.9138 N   0  0  0  0  0  0  0  0  0  0  0  0
   11.1873   12.4417    5.6479 C   0  0  0  0  0  0  0  0  0  0  0  0
   11.4755   11.1566    5.4340 N   0  0  0  0  0  0  0  0  0  0  0  0
   11.6978   10.4525    6.5802 C   0  0  0  0  0  0  0  0  0  0  0  0
   11.6542   10.9275    7.8762 C   0  0  0  0  0  0  0  0  0  0  0  0
   11.3463   12.2954    8.1121 C   0  0  0  0  0  0  0  0  0  0  0  0
   11.2523   12.9234    9.1736 O   0  0  0  0  0  0  0  0  0  0  0  0
   11.9384    9.8951    8.7252 N   0  0  0  0  0  0  0  0  0  0  0  0
   12.1499    8.8036    7.9537 C   0  0  0  0  0  0  0  0  0  0  0  0
   12.0090    9.1164    6.6188 N   0  0  0  0  0  0  0  0  0  0  0  0
  1  2  1  0  0  0  0
  1  6  1  0  0  0  0
  2  3  2  0  0  0  0
  3  4  1  0  0  0  0
  4  5  2  0  0  0  0
  4 10  1  0  0  0  0
  5  6  1  0  0  0  0
  5  8  1  0  0  0  0
  6  7  2  0  0  0  0
  8  9  1  0  0  0  0
  9 10  2  0  0  0  0
M  END
>  <CHROM.1>
11.57698041,11.13496080,7.33701135,2.86337059,-1.33681043,1.35607351

>  <Name>
ligand

>  <RI>
0

>  <Rbt.Current_Directory>
/home/itssahil/PROJECTS/Mol_Feturizer/Test_systems_manuscript/rnas/4fe5

>  <Rbt.Executable>
rbdock ($Id: //depot/dev/client3/rdock/2013.1/src/exe/rbdock.cxx#4 $)

>  <Rbt.Library>
libRbt.so (2013.1, Build901 2013/11/27)

>  <Rbt.Parameter_File>
/export/apps/rDock/src/rDock_2013.1_src/data/scripts/dock_solv.prm

>  <Rbt.Receptor>
prm/blind_docking_80.prm

>  <SCORE>
-15.8518

>  <SCORE.INTER>
-15.8518

>  <SCORE.INTER.CONST>
1

>  <SCORE.INTER.POLAR>
0

>  <SCORE.INTER.ROT>
0

>  <SCORE.INTER.SOLV>
4.2788

>  <SCORE.INTER.VDW>
-15.5942

>  <SCORE.INTER.norm>
-1.58518

>  <SCORE.INTRA>
0

>  <SCORE.INTRA.DIHEDRAL>
0

>  <SCORE.INTRA.DIHEDRAL.0>
0

>  <SCORE.INTRA.POLAR>
0

>  <SCORE.INTRA.POLAR.0>
0

>  <SCORE.INTRA.REPUL>
0

>  <SCORE.INTRA.REPUL.0>
0

>  <SCORE.INTRA.SOLV>
0

>  <SCORE.INTRA.SOLV.lig_0>
-4.28333

>  <SCORE.INTRA.VDW>
0

>  <SCORE.INTRA.VDW.0>
0

>  <SCORE.INTRA.norm>
0

>  <SCORE.RESTR>
0

>  <SCORE.RESTR.CAVITY>
0

>  <SCORE.RESTR.norm>
0

>  <SCORE.SYSTEM>
0

>  <SCORE.SYSTEM.CONST>
0

>  <SCORE.SYSTEM.DIHEDRAL>
0

>  <SCORE.SYSTEM.SOLV>
0

>  <SCORE.SYSTEM.norm>
0

>  <SCORE.heavy>
10

>  <SCORE.norm>
-1.58518

>  <RMSD>
3.295

$$$$
ligand
 OpenBabel02271912143D
libRbt.so/2013.1/901 2013/11/27
 10 11  0  0  0  0  0  0  0  0999 V2000
   11.1306   12.9803    6.8978 N   0  0  0  0  0  0  0  0  0  0  0  0
   11.1979   12.4431    5.6338 C   0  0  0  0  0  0  0  0  0  0  0  0
   11.4763   11.1549    5.4255 N   0  0  0  0  0  0  0  0  0  0  0  0
   11.6814   10.4515    6.5753 C   0  0  0  0  0  0  0  0  0  0  0  0
   11.6300   10.9299    7.8697 C   0  0  0  0  0  0  0  0  0  0  0  0
   11.3326   12.3011    8.0996 C   0  0  0  0  0  0  0  0  0  0  0  0
   11.2345   12.9325    9.1588 O   0  0  0  0  0  0  0  0  0  0  0  0
   11.8968    9.8969    8.7238 N   0  0  0  0  0  0  0  0  0  0  0  0
   12.1053    8.8017    7.9568 C   0  0  0  0  0  0  0  0  0  0  0  0
   11.9799    9.1127    6.6199 N   0  0  0  0  0  0  0  0  0  0  0  0
  1  2  1  0  0  0  0
  1  6  1  0  0  0  0
  2  3  2  0  0  0  0
  3  4  1  0  0  0  0
  4  5  2  0  0  0  0
  4 10  1  0  0  0  0
  5  6  1  0  0  0  0
  5  8  1  0  0  0  0
  6  7  2  0  0  0  0
  8  9  1  0  0  0  0
  9 10  2  0  0  0  0
M  END
>  <CHROM.1>
11.55978860,11.13677886,7.32943084,2.89574673,-1.34770683,1.38528581

>  <Name>
ligand

>  <RI>
0

>  <Rbt.Current_Directory>
/home/itssahil/PROJECTS/Mol_Feturizer/Test_systems_manuscript/rnas/4fe5

>  <Rbt.Executable>
rbdock ($Id: //depot/dev/client3/rdock/2013.1/src/exe/rbdock.cxx#4 $)

>  <Rbt.Library>
libRbt.so (2013.1, Build901 2013/11/27)

>  <Rbt.Parameter_File>
/export/apps/rDock/src/rDock_2013.1_src/data/scripts/dock_solv.prm

>  <Rbt.Receptor>
prm/pocket_docking_7.prm

>  <SCORE>
-15.8468

>  <SCORE.INTER>
-15.8468

>  <SCORE.INTER.CONST>
1

>  <SCORE.INTER.POLAR>
0

>  <SCORE.INTER.ROT>
0

>  <SCORE.INTER.SOLV>
4.30468

>  <SCORE.INTER.VDW>
-15.5995

>  <SCORE.INTER.norm>
-1.58468

>  <SCORE.INTRA>
0

>  <SCORE.INTRA.DIHEDRAL>
0

>  <SCORE.INTRA.DIHEDRAL.0>
0

>  <SCORE.INTRA.POLAR>
0

>  <SCORE.INTRA.POLAR.0>
0

>  <SCORE.INTRA.REPUL>
0

>  <SCORE.INTRA.REPUL.0>
0

>  <SCORE.INTRA.SOLV>
0

>  <SCORE.INTRA.SOLV.lig_0>
-4.28333

>  <SCORE.INTRA.VDW>
0

>  <SCORE.INTRA.VDW.0>
0

>  <SCORE.INTRA.norm>
0

>  <SCORE.RESTR>
0

>  <SCORE.RESTR.CAVITY>
0

>  <SCORE.RESTR.norm>
0

>  <SCORE.SYSTEM>
0

>  <SCORE.SYSTEM.CONST>
0

>  <SCORE.SYSTEM.DIHEDRAL>
0

>  <SCORE.SYSTEM.SOLV>
0

>  <SCORE.SYSTEM.norm>
0

>  <SCORE.heavy>
10

>  <SCORE.norm>
-1.58468

>  <RMSD>
3.298

$$$$
ligand
 OpenBabel02271912143D
libRbt.so/2013.1/901 2013/11/27
 10 11  0  0  0  0  0  0  0  0999 V2000
   11.6750   10.1375    5.9195 N   0  0  0  0  0  0  0  0  0  0  0  0
   11.9132    9.1959    6.8929 C   0  0  0  0  0  0  0  0  0  0  0  0
   11.9487    9.5104    8.1891 N   0  0  0  0  0  0  0  0  0  0  0  0
   11.7289   10.8339    8.4324 C   0  0  0  0  0  0  0  0  0  0  0  0
   11.4863   11.8267    7.5036 C   0  0  0  0  0  0  0  0  0  0  0  0
   11.4456   11.4989    6.1207 C   0  0  0  0  0  0  0  0  0  0  0  0
   11.2453   12.2166    5.1333 O   0  0  0  0  0  0  0  0  0  0  0  0
   11.3221   13.0097    8.1677 N   0  0  0  0  0  0  0  0  0  0  0  0
   11.4607   12.7384    9.4862 C   0  0  0  0  0  0  0  0  0  0  0  0
   11.7147   11.3982    9.6833 N   0  0  0  0  0  0  0  0  0  0  0  0
  1  2  1  0  0  0  0
  1  6  1  0  0  0  0
  2  3  2  0  0  0  0
  3  4  1  0  0  0  0
  4  5  2  0  0  0  0
  4 10  1  0  0  0  0
  5  6  1  0  0  0  0
  5  8  1  0  0  0  0
  6  7  2  0  0  0  0
  8  9  1  0  0  0  0
  9 10  2  0  0  0  0
M  END
>  <CHROM.1>
11.58781608,11.25275583,7.50622756,-1.62018377,-1.38040823,1.19383262

>  <Name>
ligand

>  <RI>
0

>  <Rbt.Current_Directory>
/home/itssahil/PROJECTS/Mol_Feturizer/Test_systems_manuscript/rnas/4fe5

>  <Rbt.Executable>
rbdock ($Id: //depot/dev/client3/rdock/2013.1/src/exe/rbdock.cxx#4 $)

>  <Rbt.Library>
libRbt.so (2013.1, Build901 2013/11/27)

>  <Rbt.Parameter_File>
/export/apps/rDock/src/rDock_2013.1_src/data/scripts/dock_solv.prm

>  <Rbt.Receptor>
prm/blind_docking_60.prm

>  <SCORE>
-15.9183

>  <SCORE.INTER>
-15.9184

>  <SCORE.INTER.CONST>
1

>  <SCORE.INTER.POLAR>
0

>  <SCORE.INTER.ROT>
0

>  <SCORE.INTER.SOLV>
4.12445

>  <SCORE.INTER.VDW>
-15.5871

>  <SCORE.INTER.norm>
-1.59184

>  <SCORE.INTRA>
0

>  <SCORE.INTRA.DIHEDRAL>
0

>  <SCORE.INTRA.DIHEDRAL.0>
0

>  <SCORE.INTRA.POLAR>
0

>  <SCORE.INTRA.POLAR.0>
0

>  <SCORE.INTRA.REPUL>
0

>  <SCORE.INTRA.REPUL.0>
0

>  <SCORE.INTRA.SOLV>
0

>  <SCORE.INTRA.SOLV.lig_0>
-4.28333

>  <SCORE.INTRA.VDW>
0

>  <SCORE.INTRA.VDW.0>
0

>  <SCORE.INTRA.norm>
0

>  <SCORE.RESTR>
1.00079e-05

>  <SCORE.RESTR.CAVITY>
1.00079e-05

>  <SCORE.RESTR.norm>
1.00079e-06

>  <SCORE.SYSTEM>
0

>  <SCORE.SYSTEM.CONST>
0

>  <SCORE.SYSTEM.DIHEDRAL>
0

>  <SCORE.SYSTEM.SOLV>
0

>  <SCORE.SYSTEM.norm>
0

>  <SCORE.heavy>
10

>  <SCORE.norm>
-1.59183

>  <RMSD>
3.467

$$$$
ligand
 OpenBabel02271912143D
libRbt.so/2013.1/901 2013/11/27
 10 11  0  0  0  0  0  0  0  0999 V2000
   11.6908   10.1475    5.8997 N   0  0  0  0  0  0  0  0  0  0  0  0
   11.9450    9.2045    6.8677 C   0  0  0  0  0  0  0  0  0  0  0  0
   11.9858    9.5141    8.1649 N   0  0  0  0  0  0  0  0  0  0  0  0
   11.7542   10.8342    8.4150 C   0  0  0  0  0  0  0  0  0  0  0  0
   11.4954   11.8282    7.4919 C   0  0  0  0  0  0  0  0  0  0  0  0
   11.4489   11.5057    6.1080 C   0  0  0  0  0  0  0  0  0  0  0  0
   11.2348   12.2252    5.1249 O   0  0  0  0  0  0  0  0  0  0  0  0
   11.3235   13.0068    8.1619 N   0  0  0  0  0  0  0  0  0  0  0  0
   11.4736   12.7317    9.4784 C   0  0  0  0  0  0  0  0  0  0  0  0
   11.7424   11.3933    9.6683 N   0  0  0  0  0  0  0  0  0  0  0  0
  1  2  1  0  0  0  0
  1  6  1  0  0  0  0
  2  3  2  0  0  0  0
  3  4  1  0  0  0  0
  4  5  2  0  0  0  0
  4 10  1  0  0  0  0
  5  6  1  0  0  0  0
  5  8  1  0  0  0  0
  6  7  2  0  0  0  0
  8  9  1  0  0  0  0
  9 10  2  0  0  0  0
M  END
>  <CHROM.1>
11.60272007,11.25537794,7.49153425,-1.63202567,-1.36851668,1.18627391

>  <Name>
ligand

>  <RI>
0

>  <Rbt.Current_Directory>
/home/itssahil/PROJECTS/Mol_Feturizer/Test_systems_manuscript/rnas/4fe5

>  <Rbt.Executable>
rbdock ($Id: //depot/dev/client3/rdock/2013.1/src/exe/rbdock.cxx#4 $)

>  <Rbt.Library>
libRbt.so (2013.1, Build901 2013/11/27)

>  <Rbt.Parameter_File>
/export/apps/rDock/src/rDock_2013.1_src/data/scripts/dock_solv.prm

>  <Rbt.Receptor>
prm/blind_docking_100.prm

>  <SCORE>
-15.9217

>  <SCORE.INTER>
-15.9218

>  <SCORE.INTER.CONST>
1

>  <SCORE.INTER.POLAR>
0

>  <SCORE.INTER.ROT>
0

>  <SCORE.INTER.SOLV>
4.10335

>  <SCORE.INTER.VDW>
-15.5823

>  <SCORE.INTER.norm>
-1.59218

>  <SCORE.INTRA>
0

>  <SCORE.INTRA.DIHEDRAL>
0

>  <SCORE.INTRA.DIHEDRAL.0>
0

>  <SCORE.INTRA.POLAR>
0

>  <SCORE.INTRA.POLAR.0>
0

>  <SCORE.INTRA.REPUL>
0

>  <SCORE.INTRA.REPUL.0>
0

>  <SCORE.INTRA.SOLV>
0

>  <SCORE.INTRA.SOLV.lig_0>
-4.28333

>  <SCORE.INTRA.VDW>
0

>  <SCORE.INTRA.VDW.0>
0

>  <SCORE.INTRA.norm>
0

>  <SCORE.RESTR>
0.000110384

>  <SCORE.RESTR.CAVITY>
0.000110384

>  <SCORE.RESTR.norm>
1.10384e-05

>  <SCORE.SYSTEM>
0

>  <SCORE.SYSTEM.CONST>
0

>  <SCORE.SYSTEM.DIHEDRAL>
0

>  <SCORE.SYSTEM.SOLV>
0

>  <SCORE.SYSTEM.norm>
0

>  <SCORE.heavy>
10

>  <SCORE.norm>
-1.59217

>  <RMSD>
3.470

$$$$
ligand
 OpenBabel02271912143D
libRbt.so/2013.1/901 2013/11/27
 10 11  0  0  0  0  0  0  0  0999 V2000
   11.6973   10.1528    5.9015 N   0  0  0  0  0  0  0  0  0  0  0  0
   11.9313    9.2022    6.8672 C   0  0  0  0  0  0  0  0  0  0  0  0
   11.9571    9.5039    8.1667 N   0  0  0  0  0  0  0  0  0  0  0  0
   11.7326   10.8244    8.4215 C   0  0  0  0  0  0  0  0  0  0  0  0
   11.4938   11.8257    7.5009 C   0  0  0  0  0  0  0  0  0  0  0  0
   11.4633   11.5116    6.1146 C   0  0  0  0  0  0  0  0  0  0  0  0
   11.2679   12.2384    5.1330 O   0  0  0  0  0  0  0  0  0  0  0  0
   11.3223   13.0017    8.1755 N   0  0  0  0  0  0  0  0  0  0  0  0
   11.4526   12.7178    9.4921 C   0  0  0  0  0  0  0  0  0  0  0  0
   11.7085   11.3763    9.6778 N   0  0  0  0  0  0  0  0  0  0  0  0
  1  2  1  0  0  0  0
  1  6  1  0  0  0  0
  2  3  2  0  0  0  0
  3  4  1  0  0  0  0
  4  5  2  0  0  0  0
  4 10  1  0  0  0  0
  5  6  1  0  0  0  0
  5  8  1  0  0  0  0
  6  7  2  0  0  0  0
  8  9  1  0  0  0  0
  9 10  2  0  0  0  0
M  END
>  <CHROM.1>
11.59671252,11.25205110,7.49852826,-1.58217454,-1.38051815,1.24101965

>  <Name>
ligand

>  <RI>
0

>  <Rbt.Current_Directory>
/home/itssahil/PROJECTS/Mol_Feturizer/Test_systems_manuscript/rnas/4fe5

>  <Rbt.Executable>
rbdock ($Id: //depot/dev/client3/rdock/2013.1/src/exe/rbdock.cxx#4 $)

>  <Rbt.Library>
libRbt.so (2013.1, Build901 2013/11/27)

>  <Rbt.Parameter_File>
/export/apps/rDock/src/rDock_2013.1_src/data/scripts/dock_solv.prm

>  <Rbt.Receptor>
prm/blind_docking_40.prm

>  <SCORE>
-15.8881

>  <SCORE.INTER>
-15.8881

>  <SCORE.INTER.CONST>
1

>  <SCORE.INTER.POLAR>
0

>  <SCORE.INTER.ROT>
0

>  <SCORE.INTER.SOLV>
4.13681

>  <SCORE.INTER.VDW>
-15.571

>  <SCORE.INTER.norm>
-1.58881

>  <SCORE.INTRA>
0

>  <SCORE.INTRA.DIHEDRAL>
0

>  <SCORE.INTRA.DIHEDRAL.0>
0

>  <SCORE.INTRA.POLAR>
0

>  <SCORE.INTRA.POLAR.0>
0

>  <SCORE.INTRA.REPUL>
0

>  <SCORE.INTRA.REPUL.0>
0

>  <SCORE.INTRA.SOLV>
0

>  <SCORE.INTRA.SOLV.lig_0>
-4.28333

>  <SCORE.INTRA.VDW>
0

>  <SCORE.INTRA.VDW.0>
0

>  <SCORE.INTRA.norm>
0

>  <SCORE.RESTR>
0

>  <SCORE.RESTR.CAVITY>
0

>  <SCORE.RESTR.norm>
0

>  <SCORE.SYSTEM>
0

>  <SCORE.SYSTEM.CONST>
0

>  <SCORE.SYSTEM.DIHEDRAL>
0

>  <SCORE.SYSTEM.SOLV>
0

>  <SCORE.SYSTEM.norm>
0

>  <SCORE.heavy>
10

>  <SCORE.norm>
-1.58881

>  <RMSD>
3.472

$$$$
ligand
 OpenBabel02271912143D
libRbt.so/2013.1/901 2013/11/27
 10 11  0  0  0  0  0  0  0  0999 V2000
   11.6974   10.1707    5.9026 N   0  0  0  0  0  0  0  0  0  0  0  0
   11.9155    9.2109    6.8629 C   0  0  0  0  0  0  0  0  0  0  0  0
   11.9312    9.5022    8.1649 N   0  0  0  0  0  0  0  0  0  0  0  0
   11.7134   10.8221    8.4280 C   0  0  0  0  0  0  0  0  0  0  0  0
   11.4904   11.8323    7.5133 C   0  0  0  0  0  0  0  0  0  0  0  0
   11.4708   11.5293    6.1243 C   0  0  0  0  0  0  0  0  0  0  0  0
   11.2897   12.2653    5.1467 O   0  0  0  0  0  0  0  0  0  0  0  0
   11.3206   13.0042    8.1955 N   0  0  0  0  0  0  0  0  0  0  0  0
   11.4365   12.7089    9.5111 C   0  0  0  0  0  0  0  0  0  0  0  0
   11.6813   11.3642    9.6884 N   0  0  0  0  0  0  0  0  0  0  0  0
  1  2  1  0  0  0  0
  1  6  1  0  0  0  0
  2  3  2  0  0  0  0
  3  4  1  0  0  0  0
  4  5  2  0  0  0  0
  4 10  1  0  0  0  0
  5  6  1  0  0  0  0
  5  8  1  0  0  0  0
  6  7  2  0  0  0  0
  8  9  1  0  0  0  0
  9 10  2  0  0  0  0
M  END
>  <CHROM.1>
11.58926947,11.25800830,7.50731404,-1.54488812,-1.39002589,1.28558715

>  <Name>
ligand

>  <RI>
0

>  <Rbt.Current_Directory>
/home/itssahil/PROJECTS/Mol_Feturizer/Test_systems_manuscript/rnas/4fe5

>  <Rbt.Executable>
rbdock ($Id: //depot/dev/client3/rdock/2013.1/src/exe/rbdock.cxx#4 $)

>  <Rbt.Library>
libRbt.so (2013.1, Build901 2013/11/27)

>  <Rbt.Parameter_File>
/export/apps/rDock/src/rDock_2013.1_src/data/scripts/dock_solv.prm

>  <Rbt.Receptor>
prm/pocket_docking_8.prm

>  <SCORE>
-15.8755

>  <SCORE.INTER>
-15.8764

>  <SCORE.INTER.CONST>
1

>  <SCORE.INTER.POLAR>
0

>  <SCORE.INTER.ROT>
0

>  <SCORE.INTER.SOLV>
4.16804

>  <SCORE.INTER.VDW>
-15.5736

>  <SCORE.INTER.norm>
-1.58764

>  <SCORE.INTRA>
0

>  <SCORE.INTRA.DIHEDRAL>
0

>  <SCORE.INTRA.DIHEDRAL.0>
0

>  <SCORE.INTRA.POLAR>
0

>  <SCORE.INTRA.POLAR.0>
0

>  <SCORE.INTRA.REPUL>
0

>  <SCORE.INTRA.REPUL.0>
0

>  <SCORE.INTRA.SOLV>
0

>  <SCORE.INTRA.SOLV.lig_0>
-4.28333

>  <SCORE.INTRA.VDW>
0

>  <SCORE.INTRA.VDW.0>
0

>  <SCORE.INTRA.norm>
0

>  <SCORE.RESTR>
0.000917285

>  <SCORE.RESTR.CAVITY>
0.000917285

>  <SCORE.RESTR.norm>
9.17285e-05

>  <SCORE.SYSTEM>
0

>  <SCORE.SYSTEM.CONST>
0

>  <SCORE.SYSTEM.DIHEDRAL>
0

>  <SCORE.SYSTEM.SOLV>
0

>  <SCORE.SYSTEM.norm>
0

>  <SCORE.heavy>
10

>  <SCORE.norm>
-1.58755

>  <RMSD>
3.477

$$$$
ligand
 OpenBabel02271912143D
libRbt.so/2013.1/901 2013/11/27
 10 11  0  0  0  0  0  0  0  0999 V2000
   11.6793   10.1666    5.8737 N   0  0  0  0  0  0  0  0  0  0  0  0
   11.9011    9.1990    6.8254 C   0  0  0  0  0  0  0  0  0  0  0  0
   11.9230    9.4800    8.1295 N   0  0  0  0  0  0  0  0  0  0  0  0
   11.7075   10.7980    8.4041 C   0  0  0  0  0  0  0  0  0  0  0  0
   11.4811   11.8156    7.4984 C   0  0  0  0  0  0  0  0  0  0  0  0
   11.4548   11.5236    6.1072 C   0  0  0  0  0  0  0  0  0  0  0  0
   11.2699   12.2675    5.1363 O   0  0  0  0  0  0  0  0  0  0  0  0
   11.3155   12.9821    8.1907 N   0  0  0  0  0  0  0  0  0  0  0  0
   11.4372   12.6764    9.5033 C   0  0  0  0  0  0  0  0  0  0  0  0
   11.6817   11.3301    9.6689 N   0  0  0  0  0  0  0  0  0  0  0  0
  1  2  1  0  0  0  0
  1  6  1  0  0  0  0
  2  3  2  0  0  0  0
  3  4  1  0  0  0  0
  4  5  2  0  0  0  0
  4 10  1  0  0  0  0
  5  6  1  0  0  0  0
  5  8  1  0  0  0  0
  6  7  2  0  0  0  0
  8  9  1  0  0  0  0
  9 10  2  0  0  0  0
M  END
>  <CHROM.1>
11.57950992,11.24126449,7.48746549,-1.57077912,-1.38947066,1.26804184

>  <Name>
ligand

>  <RI>
0

>  <Rbt.Current_Directory>
/home/itssahil/PROJECTS/Mol_Feturizer/Test_systems_manuscript/rnas/4fe5

>  <Rbt.Executable>
rbdock ($Id: //depot/dev/client3/rdock/2013.1/src/exe/rbdock.cxx#4 $)

>  <Rbt.Library>
libRbt.so (2013.1, Build901 2013/11/27)

>  <Rbt.Parameter_File>
/export/apps/rDock/src/rDock_2013.1_src/data/scripts/dock_solv.prm

>  <Rbt.Receptor>
prm/pocket_docking_5.prm

>  <SCORE>
-15.9007

>  <SCORE.INTER>
-15.9007

>  <SCORE.INTER.CONST>
1

>  <SCORE.INTER.POLAR>
0

>  <SCORE.INTER.ROT>
0

>  <SCORE.INTER.SOLV>
4.15561

>  <SCORE.INTER.VDW>
-15.5857

>  <SCORE.INTER.norm>
-1.59007

>  <SCORE.INTRA>
0

>  <SCORE.INTRA.DIHEDRAL>
0

>  <SCORE.INTRA.DIHEDRAL.0>
0

>  <SCORE.INTRA.POLAR>
0

>  <SCORE.INTRA.POLAR.0>
0

>  <SCORE.INTRA.REPUL>
0

>  <SCORE.INTRA.REPUL.0>
0

>  <SCORE.INTRA.SOLV>
0

>  <SCORE.INTRA.SOLV.lig_0>
-4.28333

>  <SCORE.INTRA.VDW>
0

>  <SCORE.INTRA.VDW.0>
0

>  <SCORE.INTRA.norm>
0

>  <SCORE.RESTR>
0

>  <SCORE.RESTR.CAVITY>
0

>  <SCORE.RESTR.norm>
0

>  <SCORE.SYSTEM>
0

>  <SCORE.SYSTEM.CONST>
0

>  <SCORE.SYSTEM.DIHEDRAL>
0

>  <SCORE.SYSTEM.SOLV>
0

>  <SCORE.SYSTEM.norm>
0

>  <SCORE.heavy>
10

>  <SCORE.norm>
-1.59007

>  <RMSD>
3.482

$$$$
ligand
 OpenBabel02271912143D
libRbt.so/2013.1/901 2013/11/27
 10 11  0  0  0  0  0  0  0  0999 V2000
   11.6818   10.1919    5.8623 N   0  0  0  0  0  0  0  0  0  0  0  0
   11.9071    9.2169    6.8055 C   0  0  0  0  0  0  0  0  0  0  0  0
   11.9303    9.4871    8.1119 N   0  0  0  0  0  0  0  0  0  0  0  0
   11.7123   10.8022    8.3979 C   0  0  0  0  0  0  0  0  0  0  0  0
   11.4823   11.8269    7.5010 C   0  0  0  0  0  0  0  0  0  0  0  0
   11.4547   11.5465    6.1075 C   0  0  0  0  0  0  0  0  0  0  0  0
   11.2667   12.2980    5.1431 O   0  0  0  0  0  0  0  0  0  0  0  0
   11.3151   12.9872    8.2033 N   0  0  0  0  0  0  0  0  0  0  0  0
   11.4394   12.6707    9.5132 C   0  0  0  0  0  0  0  0  0  0  0  0
   11.6871   11.3237    9.6671 N   0  0  0  0  0  0  0  0  0  0  0  0
  1  2  1  0  0  0  0
  1  6  1  0  0  0  0
  2  3  2  0  0  0  0
  3  4  1  0  0  0  0
  4  5  2  0  0  0  0
  4 10  1  0  0  0  0
  5  6  1  0  0  0  0
  5  8  1  0  0  0  0
  6  7  2  0  0  0  0
  8  9  1  0  0  0  0
  9 10  2  0  0  0  0
M  END
>  <CHROM.1>
11.58196055,11.25284886,7.48514276,-1.57479873,-1.38691669,1.27245975

>  <Name>
ligand

>  <RI>
0

>  <Rbt.Current_Directory>
/home/itssahil/PROJECTS/Mol_Feturizer/Test_systems_manuscript/rnas/4fe5

>  <Rbt.Executable>
rbdock ($Id: //depot/dev/client3/rdock/2013.1/src/exe/rbdock.cxx#4 $)

>  <Rbt.Library>
libRbt.so (2013.1, Build901 2013/11/27)

>  <Rbt.Parameter_File>
/export/apps/rDock/src/rDock_2013.1_src/data/scripts/dock_solv.prm

>  <Rbt.Receptor>
prm/blind_docking_100.prm

>  <SCORE>
-15.901

>  <SCORE.INTER>
-15.901

>  <SCORE.INTER.CONST>
1

>  <SCORE.INTER.POLAR>
0

>  <SCORE.INTER.ROT>
0

>  <SCORE.INTER.SOLV>
4.15943

>  <SCORE.INTER.VDW>
-15.5871

>  <SCORE.INTER.norm>
-1.5901

>  <SCORE.INTRA>
0

>  <SCORE.INTRA.DIHEDRAL>
0

>  <SCORE.INTRA.DIHEDRAL.0>
0

>  <SCORE.INTRA.POLAR>
0

>  <SCORE.INTRA.POLAR.0>
0

>  <SCORE.INTRA.REPUL>
0

>  <SCORE.INTRA.REPUL.0>
0

>  <SCORE.INTRA.SOLV>
0

>  <SCORE.INTRA.SOLV.lig_0>
-4.28333

>  <SCORE.INTRA.VDW>
0

>  <SCORE.INTRA.VDW.0>
0

>  <SCORE.INTRA.norm>
0

>  <SCORE.RESTR>
0

>  <SCORE.RESTR.CAVITY>
0

>  <SCORE.RESTR.norm>
0

>  <SCORE.SYSTEM>
0

>  <SCORE.SYSTEM.CONST>
0

>  <SCORE.SYSTEM.DIHEDRAL>
0

>  <SCORE.SYSTEM.SOLV>
0

>  <SCORE.SYSTEM.norm>
0

>  <SCORE.heavy>
10

>  <SCORE.norm>
-1.5901

>  <RMSD>
3.489

$$$$
ligand
 OpenBabel02271912143D
libRbt.so/2013.1/901 2013/11/27
 10 11  0  0  0  0  0  0  0  0999 V2000
   10.1944   11.6078    4.7878 N   0  0  0  0  0  0  0  0  0  0  0  0
   11.2782   10.7642    4.7192 C   0  0  0  0  0  0  0  0  0  0  0  0
   12.0688   10.5398    5.7703 N   0  0  0  0  0  0  0  0  0  0  0  0
   11.6918   11.2230    6.8883 C   0  0  0  0  0  0  0  0  0  0  0  0
   10.6196   12.0831    7.0220 C   0  0  0  0  0  0  0  0  0  0  0  0
    9.7718   12.3260    5.9068 C   0  0  0  0  0  0  0  0  0  0  0  0
    8.7704   13.0448    5.8039 O   0  0  0  0  0  0  0  0  0  0  0  0
   10.6005   12.5547    8.3044 N   0  0  0  0  0  0  0  0  0  0  0  0
   11.6482   11.9853    8.9443 C   0  0  0  0  0  0  0  0  0  0  0  0
   12.3453   11.1549    8.0932 N   0  0  0  0  0  0  0  0  0  0  0  0
  1  2  1  0  0  0  0
  1  6  1  0  0  0  0
  2  3  2  0  0  0  0
  3  4  1  0  0  0  0
  4  5  2  0  0  0  0
  4 10  1  0  0  0  0
  5  6  1  0  0  0  0
  5  8  1  0  0  0  0
  6  7  2  0  0  0  0
  8  9  1  0  0  0  0
  9 10  2  0  0  0  0
M  END
>  <CHROM.1>
10.85900316,11.75216573,6.60619387,-2.29382301,-0.61922072,1.22897714

>  <Name>
ligand

>  <RI>
0

>  <Rbt.Current_Directory>
/home/itssahil/PROJECTS/Mol_Feturizer/Test_systems_manuscript/rnas/4fe5

>  <Rbt.Executable>
rbdock ($Id: //depot/dev/client3/rdock/2013.1/src/exe/rbdock.cxx#4 $)

>  <Rbt.Library>
libRbt.so (2013.1, Build901 2013/11/27)

>  <Rbt.Parameter_File>
/export/apps/rDock/src/rDock_2013.1_src/data/scripts/dock_solv.prm

>  <Rbt.Receptor>
prm/blind_docking_40.prm

>  <SCORE>
-13.6684

>  <SCORE.INTER>
-13.6684

>  <SCORE.INTER.CONST>
1

>  <SCORE.INTER.POLAR>
0

>  <SCORE.INTER.ROT>
0

>  <SCORE.INTER.SOLV>
4.18658

>  <SCORE.INTER.VDW>
-14.1078

>  <SCORE.INTER.norm>
-1.36684

>  <SCORE.INTRA>
0

>  <SCORE.INTRA.DIHEDRAL>
0

>  <SCORE.INTRA.DIHEDRAL.0>
0

>  <SCORE.INTRA.POLAR>
0

>  <SCORE.INTRA.POLAR.0>
0

>  <SCORE.INTRA.REPUL>
0

>  <SCORE.INTRA.REPUL.0>
0

>  <SCORE.INTRA.SOLV>
0

>  <SCORE.INTRA.SOLV.lig_0>
-4.28333

>  <SCORE.INTRA.VDW>
0

>  <SCORE.INTRA.VDW.0>
0

>  <SCORE.INTRA.norm>
0

>  <SCORE.RESTR>
0

>  <SCORE.RESTR.CAVITY>
0

>  <SCORE.RESTR.norm>
0

>  <SCORE.SYSTEM>
0

>  <SCORE.SYSTEM.CONST>
0

>  <SCORE.SYSTEM.DIHEDRAL>
0

>  <SCORE.SYSTEM.SOLV>
0

>  <SCORE.SYSTEM.norm>
0

>  <SCORE.heavy>
10

>  <SCORE.norm>
-1.36684

>  <RMSD>
3.894

$$$$
ligand
 OpenBabel02271912143D
libRbt.so/2013.1/901 2013/11/27
 10 11  0  0  0  0  0  0  0  0999 V2000
   12.3003    7.9206    7.4494 N   0  0  0  0  0  0  0  0  0  0  0  0
   12.6369    9.1811    7.8839 C   0  0  0  0  0  0  0  0  0  0  0  0
   13.8195    9.7335    7.6069 N   0  0  0  0  0  0  0  0  0  0  0  0
   14.6337    8.9291    6.8660 C   0  0  0  0  0  0  0  0  0  0  0  0
   14.3572    7.6583    6.4014 C   0  0  0  0  0  0  0  0  0  0  0  0
   13.0987    7.0637    6.6913 C   0  0  0  0  0  0  0  0  0  0  0  0
   12.6456    5.9560    6.3788 O   0  0  0  0  0  0  0  0  0  0  0  0
   15.4420    7.2074    5.7032 N   0  0  0  0  0  0  0  0  0  0  0  0
   16.3669    8.1945    5.7407 C   0  0  0  0  0  0  0  0  0  0  0  0
   15.8965    9.2753    6.4550 N   0  0  0  0  0  0  0  0  0  0  0  0
  1  2  1  0  0  0  0
  1  6  1  0  0  0  0
  2  3  2  0  0  0  0
  3  4  1  0  0  0  0
  4  5  2  0  0  0  0
  4 10  1  0  0  0  0
  5  6  1  0  0  0  0
  5  8  1  0  0  0  0
  6  7  2  0  0  0  0
  8  9  1  0  0  0  0
  9 10  2  0  0  0  0
M  END
>  <CHROM.1>
14.09000239,8.07236552,6.71262199,2.94156207,-0.38832024,-2.70650882

>  <Name>
ligand

>  <RI>
0

>  <Rbt.Current_Directory>
/home/itssahil/PROJECTS/Mol_Feturizer/Test_systems_manuscript/rnas/4fe5

>  <Rbt.Executable>
rbdock ($Id: //depot/dev/client3/rdock/2013.1/src/exe/rbdock.cxx#4 $)

>  <Rbt.Library>
libRbt.so (2013.1, Build901 2013/11/27)

>  <Rbt.Parameter_File>
/export/apps/rDock/src/rDock_2013.1_src/data/scripts/dock_solv.prm

>  <Rbt.Receptor>
prm/blind_docking_40.prm

>  <SCORE>
-12.0534

>  <SCORE.INTER>
-12.0534

>  <SCORE.INTER.CONST>
1

>  <SCORE.INTER.POLAR>
0

>  <SCORE.INTER.ROT>
0

>  <SCORE.INTER.SOLV>
3.86429

>  <SCORE.INTER.VDW>
-12.9237

>  <SCORE.INTER.norm>
-1.20534

>  <SCORE.INTRA>
0

>  <SCORE.INTRA.DIHEDRAL>
0

>  <SCORE.INTRA.DIHEDRAL.0>
0

>  <SCORE.INTRA.POLAR>
0

>  <SCORE.INTRA.POLAR.0>
0

>  <SCORE.INTRA.REPUL>
0

>  <SCORE.INTRA.REPUL.0>
0

>  <SCORE.INTRA.SOLV>
0

>  <SCORE.INTRA.SOLV.lig_0>
-4.28333

>  <SCORE.INTRA.VDW>
0

>  <SCORE.INTRA.VDW.0>
0

>  <SCORE.INTRA.norm>
0

>  <SCORE.RESTR>
0

>  <SCORE.RESTR.CAVITY>
0

>  <SCORE.RESTR.norm>
0

>  <SCORE.SYSTEM>
0

>  <SCORE.SYSTEM.CONST>
0

>  <SCORE.SYSTEM.DIHEDRAL>
0

>  <SCORE.SYSTEM.SOLV>
0

>  <SCORE.SYSTEM.norm>
0

>  <SCORE.heavy>
10

>  <SCORE.norm>
-1.20534

>  <RMSD>
4.498

$$$$
ligand
 OpenBabel02271912143D
libRbt.so/2013.1/901 2013/11/27
 10 11  0  0  0  0  0  0  0  0999 V2000
   12.4105    7.8540    7.3761 N   0  0  0  0  0  0  0  0  0  0  0  0
   12.7047    9.1073    7.8594 C   0  0  0  0  0  0  0  0  0  0  0  0
   13.8714    9.7058    7.6127 N   0  0  0  0  0  0  0  0  0  0  0  0
   14.7155    8.9550    6.8493 C   0  0  0  0  0  0  0  0  0  0  0  0
   14.4820    7.6944    6.3360 C   0  0  0  0  0  0  0  0  0  0  0  0
   13.2406    7.0509    6.5935 C   0  0  0  0  0  0  0  0  0  0  0  0
   12.8244    5.9420    6.2367 O   0  0  0  0  0  0  0  0  0  0  0  0
   15.5852    7.3033    5.6306 N   0  0  0  0  0  0  0  0  0  0  0  0
   16.4786    8.3165    5.7120 C   0  0  0  0  0  0  0  0  0  0  0  0
   15.9698    9.3550    6.4618 N   0  0  0  0  0  0  0  0  0  0  0  0
  1  2  1  0  0  0  0
  1  6  1  0  0  0  0
  2  3  2  0  0  0  0
  3  4  1  0  0  0  0
  4  5  2  0  0  0  0
  4 10  1  0  0  0  0
  5  6  1  0  0  0  0
  5  8  1  0  0  0  0
  6  7  2  0  0  0  0
  8  9  1  0  0  0  0
  9 10  2  0  0  0  0
M  END
>  <CHROM.1>
14.19983417,8.08815996,6.66008092,2.90773338,-0.39485866,-2.68244753

>  <Name>
ligand

>  <RI>
0

>  <Rbt.Current_Directory>
/home/itssahil/PROJECTS/Mol_Feturizer/Test_systems_manuscript/rnas/4fe5

>  <Rbt.Executable>
rbdock ($Id: //depot/dev/client3/rdock/2013.1/src/exe/rbdock.cxx#4 $)

>  <Rbt.Library>
libRbt.so (2013.1, Build901 2013/11/27)

>  <Rbt.Parameter_File>
/export/apps/rDock/src/rDock_2013.1_src/data/scripts/dock_solv.prm

>  <Rbt.Receptor>
prm/blind_docking_100.prm

>  <SCORE>
-12.0525

>  <SCORE.INTER>
-12.0525

>  <SCORE.INTER.CONST>
1

>  <SCORE.INTER.POLAR>
0

>  <SCORE.INTER.ROT>
0

>  <SCORE.INTER.SOLV>
3.89592

>  <SCORE.INTER.VDW>
-12.9337

>  <SCORE.INTER.norm>
-1.20525

>  <SCORE.INTRA>
0

>  <SCORE.INTRA.DIHEDRAL>
0

>  <SCORE.INTRA.DIHEDRAL.0>
0

>  <SCORE.INTRA.POLAR>
0

>  <SCORE.INTRA.POLAR.0>
0

>  <SCORE.INTRA.REPUL>
0

>  <SCORE.INTRA.REPUL.0>
0

>  <SCORE.INTRA.SOLV>
0

>  <SCORE.INTRA.SOLV.lig_0>
-4.28333

>  <SCORE.INTRA.VDW>
0

>  <SCORE.INTRA.VDW.0>
0

>  <SCORE.INTRA.norm>
0

>  <SCORE.RESTR>
0

>  <SCORE.RESTR.CAVITY>
0

>  <SCORE.RESTR.norm>
0

>  <SCORE.SYSTEM>
0

>  <SCORE.SYSTEM.CONST>
0

>  <SCORE.SYSTEM.DIHEDRAL>
0

>  <SCORE.SYSTEM.SOLV>
0

>  <SCORE.SYSTEM.norm>
0

>  <SCORE.heavy>
10

>  <SCORE.norm>
-1.20525

>  <RMSD>
4.553

$$$$
ligand
 OpenBabel02271912143D
libRbt.so/2013.1/901 2013/11/27
 10 11  0  0  0  0  0  0  0  0999 V2000
   14.9654    6.6844    6.0459 N   0  0  0  0  0  0  0  0  0  0  0  0
   15.8663    7.7229    6.0141 C   0  0  0  0  0  0  0  0  0  0  0  0
   15.5660    8.9358    6.4821 N   0  0  0  0  0  0  0  0  0  0  0  0
   14.3003    9.0267    6.9807 C   0  0  0  0  0  0  0  0  0  0  0  0
   13.3502    8.0262    7.0403 C   0  0  0  0  0  0  0  0  0  0  0  0
   13.6634    6.7308    6.5449 C   0  0  0  0  0  0  0  0  0  0  0  0
   12.9770    5.7028    6.5012 O   0  0  0  0  0  0  0  0  0  0  0  0
   12.2188    8.5373    7.6116 N   0  0  0  0  0  0  0  0  0  0  0  0
   12.4793    9.8338    7.8986 C   0  0  0  0  0  0  0  0  0  0  0  0
   13.7613   10.1684    7.5187 N   0  0  0  0  0  0  0  0  0  0  0  0
  1  2  1  0  0  0  0
  1  6  1  0  0  0  0
  2  3  2  0  0  0  0
  3  4  1  0  0  0  0
  4  5  2  0  0  0  0
  4 10  1  0  0  0  0
  5  6  1  0  0  0  0
  5  8  1  0  0  0  0
  6  7  2  0  0  0  0
  8  9  1  0  0  0  0
  9 10  2  0  0  0  0
M  END
>  <CHROM.1>
13.89935129,8.09026363,6.85593572,-1.23730301,0.34371606,0.28535889

>  <Name>
ligand

>  <RI>
0

>  <Rbt.Current_Directory>
/home/itssahil/PROJECTS/Mol_Feturizer/Test_systems_manuscript/rnas/4fe5

>  <Rbt.Executable>
rbdock ($Id: //depot/dev/client3/rdock/2013.1/src/exe/rbdock.cxx#4 $)

>  <Rbt.Library>
libRbt.so (2013.1, Build901 2013/11/27)

>  <Rbt.Parameter_File>
/export/apps/rDock/src/rDock_2013.1_src/data/scripts/dock_solv.prm

>  <Rbt.Receptor>
prm/blind_docking_60.prm

>  <SCORE>
-11.7136

>  <SCORE.INTER>
-11.7136

>  <SCORE.INTER.CONST>
1

>  <SCORE.INTER.POLAR>
0

>  <SCORE.INTER.ROT>
0

>  <SCORE.INTER.SOLV>
3.27568

>  <SCORE.INTER.VDW>
-12.5009

>  <SCORE.INTER.norm>
-1.17136

>  <SCORE.INTRA>
0

>  <SCORE.INTRA.DIHEDRAL>
0

>  <SCORE.INTRA.DIHEDRAL.0>
0

>  <SCORE.INTRA.POLAR>
0

>  <SCORE.INTRA.POLAR.0>
0

>  <SCORE.INTRA.REPUL>
0

>  <SCORE.INTRA.REPUL.0>
0

>  <SCORE.INTRA.SOLV>
0

>  <SCORE.INTRA.SOLV.lig_0>
-4.28333

>  <SCORE.INTRA.VDW>
0

>  <SCORE.INTRA.VDW.0>
0

>  <SCORE.INTRA.norm>
0

>  <SCORE.RESTR>
0

>  <SCORE.RESTR.CAVITY>
0

>  <SCORE.RESTR.norm>
0

>  <SCORE.SYSTEM>
0

>  <SCORE.SYSTEM.CONST>
0

>  <SCORE.SYSTEM.DIHEDRAL>
0

>  <SCORE.SYSTEM.SOLV>
0

>  <SCORE.SYSTEM.norm>
0

>  <SCORE.heavy>
10

>  <SCORE.norm>
-1.17136

>  <RMSD>
4.603

$$$$
ligand
 OpenBabel02271912143D
libRbt.so/2013.1/901 2013/11/27
 10 11  0  0  0  0  0  0  0  0999 V2000
   16.4531    9.2153    6.3441 N   0  0  0  0  0  0  0  0  0  0  0  0
   15.9581    8.1036    5.7036 C   0  0  0  0  0  0  0  0  0  0  0  0
   14.6900    7.7124    5.8419 N   0  0  0  0  0  0  0  0  0  0  0  0
   13.9612    8.5164    6.6673 C   0  0  0  0  0  0  0  0  0  0  0  0
   14.3973    9.6415    7.3391 C   0  0  0  0  0  0  0  0  0  0  0  0
   15.7468   10.0653    7.1955 C   0  0  0  0  0  0  0  0  0  0  0  0
   16.3407   11.0290    7.6942 O   0  0  0  0  0  0  0  0  0  0  0  0
   13.3511   10.1498    8.0564 N   0  0  0  0  0  0  0  0  0  0  0  0
   12.2897    9.3439    7.8211 C   0  0  0  0  0  0  0  0  0  0  0  0
   12.6357    8.3211    6.9645 N   0  0  0  0  0  0  0  0  0  0  0  0
  1  2  1  0  0  0  0
  1  6  1  0  0  0  0
  2  3  2  0  0  0  0
  3  4  1  0  0  0  0
  4  5  2  0  0  0  0
  4 10  1  0  0  0  0
  5  6  1  0  0  0  0
  5  8  1  0  0  0  0
  6  7  2  0  0  0  0
  8  9  1  0  0  0  0
  9 10  2  0  0  0  0
M  END
>  <CHROM.1>
14.61735591,9.24300070,6.97512967,-0.08549608,-0.26319637,-2.51443640

>  <Name>
ligand

>  <RI>
0

>  <Rbt.Current_Directory>
/home/itssahil/PROJECTS/Mol_Feturizer/Test_systems_manuscript/rnas/4fe5

>  <Rbt.Executable>
rbdock ($Id: //depot/dev/client3/rdock/2013.1/src/exe/rbdock.cxx#4 $)

>  <Rbt.Library>
libRbt.so (2013.1, Build901 2013/11/27)

>  <Rbt.Parameter_File>
/export/apps/rDock/src/rDock_2013.1_src/data/scripts/dock_solv.prm

>  <Rbt.Receptor>
prm/blind_docking_40.prm

>  <SCORE>
-10.7402

>  <SCORE.INTER>
-10.7402

>  <SCORE.INTER.CONST>
1

>  <SCORE.INTER.POLAR>
0

>  <SCORE.INTER.ROT>
0

>  <SCORE.INTER.SOLV>
3.83377

>  <SCORE.INTER.VDW>
-12.0381

>  <SCORE.INTER.norm>
-1.07402

>  <SCORE.INTRA>
0

>  <SCORE.INTRA.DIHEDRAL>
0

>  <SCORE.INTRA.DIHEDRAL.0>
0

>  <SCORE.INTRA.POLAR>
0

>  <SCORE.INTRA.POLAR.0>
0

>  <SCORE.INTRA.REPUL>
0

>  <SCORE.INTRA.REPUL.0>
0

>  <SCORE.INTRA.SOLV>
0

>  <SCORE.INTRA.SOLV.lig_0>
-4.28333

>  <SCORE.INTRA.VDW>
0

>  <SCORE.INTRA.VDW.0>
0

>  <SCORE.INTRA.norm>
0

>  <SCORE.RESTR>
0

>  <SCORE.RESTR.CAVITY>
0

>  <SCORE.RESTR.norm>
0

>  <SCORE.SYSTEM>
0

>  <SCORE.SYSTEM.CONST>
0

>  <SCORE.SYSTEM.DIHEDRAL>
0

>  <SCORE.SYSTEM.SOLV>
0

>  <SCORE.SYSTEM.norm>
0

>  <SCORE.heavy>
10

>  <SCORE.norm>
-1.07402

>  <RMSD>
4.762

$$$$
ligand
 OpenBabel02271912143D
libRbt.so/2013.1/901 2013/11/27
 10 11  0  0  0  0  0  0  0  0999 V2000
   16.4760    9.1486    6.2316 N   0  0  0  0  0  0  0  0  0  0  0  0
   16.0248    8.0117    5.6032 C   0  0  0  0  0  0  0  0  0  0  0  0
   14.7849    7.5508    5.7772 N   0  0  0  0  0  0  0  0  0  0  0  0
   14.0371    8.3125    6.6254 C   0  0  0  0  0  0  0  0  0  0  0  0
   14.4296    9.4595    7.2870 C   0  0  0  0  0  0  0  0  0  0  0  0
   15.7488    9.9575    7.1053 C   0  0  0  0  0  0  0  0  0  0  0  0
   16.3027   10.9522    7.5889 O   0  0  0  0  0  0  0  0  0  0  0  0
   13.3782    9.9084    8.0356 N   0  0  0  0  0  0  0  0  0  0  0  0
   12.3567    9.0452    7.8293 C   0  0  0  0  0  0  0  0  0  0  0  0
   12.7336    8.0438    6.9605 N   0  0  0  0  0  0  0  0  0  0  0  0
  1  2  1  0  0  0  0
  1  6  1  0  0  0  0
  2  3  2  0  0  0  0
  3  4  1  0  0  0  0
  4  5  2  0  0  0  0
  4 10  1  0  0  0  0
  5  6  1  0  0  0  0
  5  8  1  0  0  0  0
  6  7  2  0  0  0  0
  8  9  1  0  0  0  0
  9 10  2  0  0  0  0
M  END
>  <CHROM.1>
14.66065692,9.07406855,6.91582157,-0.11469510,-0.31918326,-2.52120421

>  <Name>
ligand

>  <RI>
0

>  <Rbt.Current_Directory>
/home/itssahil/PROJECTS/Mol_Feturizer/Test_systems_manuscript/rnas/4fe5

>  <Rbt.Executable>
rbdock ($Id: //depot/dev/client3/rdock/2013.1/src/exe/rbdock.cxx#4 $)

>  <Rbt.Library>
libRbt.so (2013.1, Build901 2013/11/27)

>  <Rbt.Parameter_File>
/export/apps/rDock/src/rDock_2013.1_src/data/scripts/dock_solv.prm

>  <Rbt.Receptor>
prm/blind_docking_80.prm

>  <SCORE>
-10.7403

>  <SCORE.INTER>
-10.7403

>  <SCORE.INTER.CONST>
1

>  <SCORE.INTER.POLAR>
0

>  <SCORE.INTER.ROT>
0

>  <SCORE.INTER.SOLV>
3.93968

>  <SCORE.INTER.VDW>
-12.0735

>  <SCORE.INTER.norm>
-1.07403

>  <SCORE.INTRA>
0

>  <SCORE.INTRA.DIHEDRAL>
0

>  <SCORE.INTRA.DIHEDRAL.0>
0

>  <SCORE.INTRA.POLAR>
0

>  <SCORE.INTRA.POLAR.0>
0

>  <SCORE.INTRA.REPUL>
0

>  <SCORE.INTRA.REPUL.0>
0

>  <SCORE.INTRA.SOLV>
0

>  <SCORE.INTRA.SOLV.lig_0>
-4.28333

>  <SCORE.INTRA.VDW>
0

>  <SCORE.INTRA.VDW.0>
0

>  <SCORE.INTRA.norm>
0

>  <SCORE.RESTR>
0

>  <SCORE.RESTR.CAVITY>
0

>  <SCORE.RESTR.norm>
0

>  <SCORE.SYSTEM>
0

>  <SCORE.SYSTEM.CONST>
0

>  <SCORE.SYSTEM.DIHEDRAL>
0

>  <SCORE.SYSTEM.SOLV>
0

>  <SCORE.SYSTEM.norm>
0

>  <SCORE.heavy>
10

>  <SCORE.norm>
-1.07403

>  <RMSD>
4.891

$$$$
ligand
 OpenBabel02271912143D
libRbt.so/2013.1/901 2013/11/27
 10 11  0  0  0  0  0  0  0  0999 V2000
   14.4000    7.4058    5.9387 N   0  0  0  0  0  0  0  0  0  0  0  0
   15.7182    7.5499    5.5746 C   0  0  0  0  0  0  0  0  0  0  0  0
   16.4642    8.5694    6.0039 N   0  0  0  0  0  0  0  0  0  0  0  0
   15.7905    9.4284    6.8208 C   0  0  0  0  0  0  0  0  0  0  0  0
   14.4719    9.3414    7.2218 C   0  0  0  0  0  0  0  0  0  0  0  0
   13.6711    8.2571    6.7696 C   0  0  0  0  0  0  0  0  0  0  0  0
   12.4870    7.9850    7.0017 O   0  0  0  0  0  0  0  0  0  0  0  0
   14.1964   10.4036    8.0363 N   0  0  0  0  0  0  0  0  0  0  0  0
   15.3361   11.1269    8.1316 C   0  0  0  0  0  0  0  0  0  0  0  0
   16.3428   10.5491    7.3885 N   0  0  0  0  0  0  0  0  0  0  0  0
  1  2  1  0  0  0  0
  1  6  1  0  0  0  0
  2  3  2  0  0  0  0
  3  4  1  0  0  0  0
  4  5  2  0  0  0  0
  4 10  1  0  0  0  0
  5  6  1  0  0  0  0
  5  8  1  0  0  0  0
  6  7  2  0  0  0  0
  8  9  1  0  0  0  0
  9 10  2  0  0  0  0
M  END
>  <CHROM.1>
14.84329035,9.03945269,6.88932771,-2.10004726,0.28196189,0.59504003

>  <Name>
ligand

>  <RI>
0

>  <Rbt.Current_Directory>
/home/itssahil/PROJECTS/Mol_Feturizer/Test_systems_manuscript/rnas/4fe5

>  <Rbt.Executable>
rbdock ($Id: //depot/dev/client3/rdock/2013.1/src/exe/rbdock.cxx#4 $)

>  <Rbt.Library>
libRbt.so (2013.1, Build901 2013/11/27)

>  <Rbt.Parameter_File>
/export/apps/rDock/src/rDock_2013.1_src/data/scripts/dock_solv.prm

>  <Rbt.Receptor>
prm/blind_docking_80.prm

>  <SCORE>
-8.38944

>  <SCORE.INTER>
-8.38944

>  <SCORE.INTER.CONST>
1

>  <SCORE.INTER.POLAR>
0

>  <SCORE.INTER.ROT>
0

>  <SCORE.INTER.SOLV>
3.96161

>  <SCORE.INTER.VDW>
-10.5135

>  <SCORE.INTER.norm>
-0.838944

>  <SCORE.INTRA>
0

>  <SCORE.INTRA.DIHEDRAL>
0

>  <SCORE.INTRA.DIHEDRAL.0>
0

>  <SCORE.INTRA.POLAR>
0

>  <SCORE.INTRA.POLAR.0>
0

>  <SCORE.INTRA.REPUL>
0

>  <SCORE.INTRA.REPUL.0>
0

>  <SCORE.INTRA.SOLV>
0

>  <SCORE.INTRA.SOLV.lig_0>
-4.28333

>  <SCORE.INTRA.VDW>
0

>  <SCORE.INTRA.VDW.0>
0

>  <SCORE.INTRA.norm>
0

>  <SCORE.RESTR>
0

>  <SCORE.RESTR.CAVITY>
0

>  <SCORE.RESTR.norm>
0

>  <SCORE.SYSTEM>
0

>  <SCORE.SYSTEM.CONST>
0

>  <SCORE.SYSTEM.DIHEDRAL>
0

>  <SCORE.SYSTEM.SOLV>
0

>  <SCORE.SYSTEM.norm>
0

>  <SCORE.heavy>
10

>  <SCORE.norm>
-0.838944

>  <RMSD>
5.018

$$$$
ligand
 OpenBabel02271912143D
libRbt.so/2013.1/901 2013/11/27
 10 11  0  0  0  0  0  0  0  0999 V2000
   12.4000    7.9864    7.4522 N   0  0  0  0  0  0  0  0  0  0  0  0
   12.5908    6.8426    6.7130 C   0  0  0  0  0  0  0  0  0  0  0  0
   13.7283    6.6045    6.0575 N   0  0  0  0  0  0  0  0  0  0  0  0
   14.6536    7.5958    6.1989 C   0  0  0  0  0  0  0  0  0  0  0  0
   14.5240    8.7648    6.9225 C   0  0  0  0  0  0  0  0  0  0  0  0
   13.3154    9.0249    7.6248 C   0  0  0  0  0  0  0  0  0  0  0  0
   12.9887    9.9901    8.3259 O   0  0  0  0  0  0  0  0  0  0  0  0
   15.6818    9.4803    6.7998 N   0  0  0  0  0  0  0  0  0  0  0  0
   16.5074    8.7527    6.0123 C   0  0  0  0  0  0  0  0  0  0  0  0
   15.8989    7.5791    5.6223 N   0  0  0  0  0  0  0  0  0  0  0  0
  1  2  1  0  0  0  0
  1  6  1  0  0  0  0
  2  3  2  0  0  0  0
  3  4  1  0  0  0  0
  4  5  2  0  0  0  0
  4 10  1  0  0  0  0
  5  6  1  0  0  0  0
  5  8  1  0  0  0  0
  6  7  2  0  0  0  0
  8  9  1  0  0  0  0
  9 10  2  0  0  0  0
M  END
>  <CHROM.1>
14.20342747,8.29318032,6.80231485,2.82402337,0.37815756,0.51770102

>  <Name>
ligand

>  <RI>
0

>  <Rbt.Current_Directory>
/home/itssahil/PROJECTS/Mol_Feturizer/Test_systems_manuscript/rnas/4fe5

>  <Rbt.Executable>
rbdock ($Id: //depot/dev/client3/rdock/2013.1/src/exe/rbdock.cxx#4 $)

>  <Rbt.Library>
libRbt.so (2013.1, Build901 2013/11/27)

>  <Rbt.Parameter_File>
/export/apps/rDock/src/rDock_2013.1_src/data/scripts/dock_solv.prm

>  <Rbt.Receptor>
prm/pocket_docking_8.prm

>  <SCORE>
-12.1498

>  <SCORE.INTER>
-12.1498

>  <SCORE.INTER.CONST>
1

>  <SCORE.INTER.POLAR>
0

>  <SCORE.INTER.ROT>
0

>  <SCORE.INTER.SOLV>
3.60593

>  <SCORE.INTER.VDW>
-12.9018

>  <SCORE.INTER.norm>
-1.21498

>  <SCORE.INTRA>
0

>  <SCORE.INTRA.DIHEDRAL>
0

>  <SCORE.INTRA.DIHEDRAL.0>
0

>  <SCORE.INTRA.POLAR>
0

>  <SCORE.INTRA.POLAR.0>
0

>  <SCORE.INTRA.REPUL>
0

>  <SCORE.INTRA.REPUL.0>
0

>  <SCORE.INTRA.SOLV>
0

>  <SCORE.INTRA.SOLV.lig_0>
-4.28333

>  <SCORE.INTRA.VDW>
0

>  <SCORE.INTRA.VDW.0>
0

>  <SCORE.INTRA.norm>
0

>  <SCORE.RESTR>
0

>  <SCORE.RESTR.CAVITY>
0

>  <SCORE.RESTR.norm>
0

>  <SCORE.SYSTEM>
0

>  <SCORE.SYSTEM.CONST>
0

>  <SCORE.SYSTEM.DIHEDRAL>
0

>  <SCORE.SYSTEM.SOLV>
0

>  <SCORE.SYSTEM.norm>
0

>  <SCORE.heavy>
10

>  <SCORE.norm>
-1.21498

>  <RMSD>
5.025

$$$$
ligand
 OpenBabel02271912143D
libRbt.so/2013.1/901 2013/11/27
 10 11  0  0  0  0  0  0  0  0999 V2000
    2.3638   12.2388    0.6386 N   0  0  0  0  0  0  0  0  0  0  0  0
    2.0294   13.3409    1.3899 C   0  0  0  0  0  0  0  0  0  0  0  0
    1.7754   13.2565    2.6971 N   0  0  0  0  0  0  0  0  0  0  0  0
    1.8812   11.9895    3.1895 C   0  0  0  0  0  0  0  0  0  0  0  0
    2.2101   10.8447    2.4908 C   0  0  0  0  0  0  0  0  0  0  0  0
    2.4835   10.9269    1.0980 C   0  0  0  0  0  0  0  0  0  0  0  0
    2.7950   10.0440    0.2897 O   0  0  0  0  0  0  0  0  0  0  0  0
    2.2034    9.7903    3.3602 N   0  0  0  0  0  0  0  0  0  0  0  0
    1.8766   10.2893    4.5748 C   0  0  0  0  0  0  0  0  0  0  0  0
    1.6695   11.6500    4.5023 N   0  0  0  0  0  0  0  0  0  0  0  0
  1  2  1  0  0  0  0
  1  6  1  0  0  0  0
  2  3  2  0  0  0  0
  3  4  1  0  0  0  0
  4  5  2  0  0  0  0
  4 10  1  0  0  0  0
  5  6  1  0  0  0  0
  5  8  1  0  0  0  0
  6  7  2  0  0  0  0
  8  9  1  0  0  0  0
  9 10  2  0  0  0  0
M  END
>  <CHROM.1>
2.14131248,11.41294987,2.38140266,0.81267153,1.31452592,-0.67264120

>  <Name>
ligand

>  <RI>
0

>  <Rbt.Current_Directory>
/home/itssahil/PROJECTS/Mol_Feturizer/Test_systems_manuscript/rnas/4fe5

>  <Rbt.Executable>
rbdock ($Id: //depot/dev/client3/rdock/2013.1/src/exe/rbdock.cxx#4 $)

>  <Rbt.Library>
libRbt.so (2013.1, Build901 2013/11/27)

>  <Rbt.Parameter_File>
/export/apps/rDock/src/rDock_2013.1_src/data/scripts/dock_solv.prm

>  <Rbt.Receptor>
prm/blind_docking_40.prm

>  <SCORE>
-11.2527

>  <SCORE.INTER>
-11.2527

>  <SCORE.INTER.CONST>
1

>  <SCORE.INTER.POLAR>
0

>  <SCORE.INTER.ROT>
0

>  <SCORE.INTER.SOLV>
1.74756

>  <SCORE.INTER.VDW>
-11.6843

>  <SCORE.INTER.norm>
-1.12527

>  <SCORE.INTRA>
0

>  <SCORE.INTRA.DIHEDRAL>
0

>  <SCORE.INTRA.DIHEDRAL.0>
0

>  <SCORE.INTRA.POLAR>
0

>  <SCORE.INTRA.POLAR.0>
0

>  <SCORE.INTRA.REPUL>
0

>  <SCORE.INTRA.REPUL.0>
0

>  <SCORE.INTRA.SOLV>
0

>  <SCORE.INTRA.SOLV.lig_0>
-4.28333

>  <SCORE.INTRA.VDW>
0

>  <SCORE.INTRA.VDW.0>
0

>  <SCORE.INTRA.norm>
0

>  <SCORE.RESTR>
0

>  <SCORE.RESTR.CAVITY>
0

>  <SCORE.RESTR.norm>
0

>  <SCORE.SYSTEM>
0

>  <SCORE.SYSTEM.CONST>
0

>  <SCORE.SYSTEM.DIHEDRAL>
0

>  <SCORE.SYSTEM.SOLV>
0

>  <SCORE.SYSTEM.norm>
0

>  <SCORE.heavy>
10

>  <SCORE.norm>
-1.12527

>  <RMSD>
11.012

$$$$
ligand
 OpenBabel02271912143D
libRbt.so/2013.1/901 2013/11/27
 10 11  0  0  0  0  0  0  0  0999 V2000
   36.9648   18.6429    9.6426 N   0  0  0  0  0  0  0  0  0  0  0  0
   36.4569   19.8934    9.3793 C   0  0  0  0  0  0  0  0  0  0  0  0
   35.1813   20.0821    9.0368 N   0  0  0  0  0  0  0  0  0  0  0  0
   34.4588   18.9273    8.9783 C   0  0  0  0  0  0  0  0  0  0  0  0
   34.9077   17.6455    9.2284 C   0  0  0  0  0  0  0  0  0  0  0  0
   36.2654   17.4367    9.5953 C   0  0  0  0  0  0  0  0  0  0  0  0
   36.8710   16.3917    9.8624 O   0  0  0  0  0  0  0  0  0  0  0  0
   33.8639   16.7803    9.0569 N   0  0  0  0  0  0  0  0  0  0  0  0
   32.7913   17.5285    8.7090 C   0  0  0  0  0  0  0  0  0  0  0  0
   33.1276   18.8638    8.6506 N   0  0  0  0  0  0  0  0  0  0  0  0
  1  2  1  0  0  0  0
  1  6  1  0  0  0  0
  2  3  2  0  0  0  0
  3  4  1  0  0  0  0
  4  5  2  0  0  0  0
  4 10  1  0  0  0  0
  5  6  1  0  0  0  0
  5  8  1  0  0  0  0
  6  7  2  0  0  0  0
  8  9  1  0  0  0  0
  9 10  2  0  0  0  0
M  END
>  <CHROM.1>
35.12429697,18.18658324,9.22646684,-0.07682136,-0.24616666,-0.10711097

>  <Name>
ligand

>  <RI>
0

>  <Rbt.Current_Directory>
/home/itssahil/PROJECTS/Mol_Feturizer/Test_systems_manuscript/rnas/4fe5

>  <Rbt.Executable>
rbdock ($Id: //depot/dev/client3/rdock/2013.1/src/exe/rbdock.cxx#4 $)

>  <Rbt.Library>
libRbt.so (2013.1, Build901 2013/11/27)

>  <Rbt.Parameter_File>
/export/apps/rDock/src/rDock_2013.1_src/data/scripts/dock_solv.prm

>  <Rbt.Receptor>
prm/blind_docking_80.prm

>  <SCORE>
-10.7538

>  <SCORE.INTER>
-10.7538

>  <SCORE.INTER.CONST>
1

>  <SCORE.INTER.POLAR>
0

>  <SCORE.INTER.ROT>
0

>  <SCORE.INTER.SOLV>
3.80892

>  <SCORE.INTER.VDW>
-12.0389

>  <SCORE.INTER.norm>
-1.07538

>  <SCORE.INTRA>
0

>  <SCORE.INTRA.DIHEDRAL>
0

>  <SCORE.INTRA.DIHEDRAL.0>
0

>  <SCORE.INTRA.POLAR>
0

>  <SCORE.INTRA.POLAR.0>
0

>  <SCORE.INTRA.REPUL>
0

>  <SCORE.INTRA.REPUL.0>
0

>  <SCORE.INTRA.SOLV>
0

>  <SCORE.INTRA.SOLV.lig_0>
-4.28333

>  <SCORE.INTRA.VDW>
0

>  <SCORE.INTRA.VDW.0>
0

>  <SCORE.INTRA.norm>
0

>  <SCORE.RESTR>
0

>  <SCORE.RESTR.CAVITY>
0

>  <SCORE.RESTR.norm>
0

>  <SCORE.SYSTEM>
0

>  <SCORE.SYSTEM.CONST>
0

>  <SCORE.SYSTEM.DIHEDRAL>
0

>  <SCORE.SYSTEM.SOLV>
0

>  <SCORE.SYSTEM.norm>
0

>  <SCORE.heavy>
10

>  <SCORE.norm>
-1.07538

>  <RMSD>
24.664

$$$$
ligand
 OpenBabel02271912143D
libRbt.so/2013.1/901 2013/11/27
 10 11  0  0  0  0  0  0  0  0999 V2000
   37.0179   18.5055    9.8236 N   0  0  0  0  0  0  0  0  0  0  0  0
   36.5669   19.7936    9.6551 C   0  0  0  0  0  0  0  0  0  0  0  0
   35.3123   20.0627    9.2894 N   0  0  0  0  0  0  0  0  0  0  0  0
   34.5496   18.9474    9.1061 C   0  0  0  0  0  0  0  0  0  0  0  0
   34.9411   17.6317    9.2569 C   0  0  0  0  0  0  0  0  0  0  0  0
   36.2760   17.3372    9.6477 C   0  0  0  0  0  0  0  0  0  0  0  0
   36.8321   16.2494    9.8412 O   0  0  0  0  0  0  0  0  0  0  0  0
   33.8724   16.8275    8.9763 N   0  0  0  0  0  0  0  0  0  0  0  0
   32.8417   17.6457    8.6610 C   0  0  0  0  0  0  0  0  0  0  0  0
   33.2296   18.9664    8.7313 N   0  0  0  0  0  0  0  0  0  0  0  0
  1  2  1  0  0  0  0
  1  6  1  0  0  0  0
  2  3  2  0  0  0  0
  3  4  1  0  0  0  0
  4  5  2  0  0  0  0
  4 10  1  0  0  0  0
  5  6  1  0  0  0  0
  5  8  1  0  0  0  0
  6  7  2  0  0  0  0
  8  9  1  0  0  0  0
  9 10  2  0  0  0  0
M  END
>  <CHROM.1>
35.17764818,18.16170976,9.30956811,-0.11950409,-0.27750649,-0.03065337

>  <Name>
ligand

>  <RI>
0

>  <Rbt.Current_Directory>
/home/itssahil/PROJECTS/Mol_Feturizer/Test_systems_manuscript/rnas/4fe5

>  <Rbt.Executable>
rbdock ($Id: //depot/dev/client3/rdock/2013.1/src/exe/rbdock.cxx#4 $)

>  <Rbt.Library>
libRbt.so (2013.1, Build901 2013/11/27)

>  <Rbt.Parameter_File>
/export/apps/rDock/src/rDock_2013.1_src/data/scripts/dock_solv.prm

>  <Rbt.Receptor>
prm/blind_docking_60.prm

>  <SCORE>
-10.8291

>  <SCORE.INTER>
-10.8291

>  <SCORE.INTER.CONST>
1

>  <SCORE.INTER.POLAR>
0

>  <SCORE.INTER.ROT>
0

>  <SCORE.INTER.SOLV>
3.9413

>  <SCORE.INTER.VDW>
-12.1331

>  <SCORE.INTER.norm>
-1.08291

>  <SCORE.INTRA>
0

>  <SCORE.INTRA.DIHEDRAL>
0

>  <SCORE.INTRA.DIHEDRAL.0>
0

>  <SCORE.INTRA.POLAR>
0

>  <SCORE.INTRA.POLAR.0>
0

>  <SCORE.INTRA.REPUL>
0

>  <SCORE.INTRA.REPUL.0>
0

>  <SCORE.INTRA.SOLV>
0

>  <SCORE.INTRA.SOLV.lig_0>
-4.28333

>  <SCORE.INTRA.VDW>
0

>  <SCORE.INTRA.VDW.0>
0

>  <SCORE.INTRA.norm>
0

>  <SCORE.RESTR>
0

>  <SCORE.RESTR.CAVITY>
0

>  <SCORE.RESTR.norm>
0

>  <SCORE.SYSTEM>
0

>  <SCORE.SYSTEM.CONST>
0

>  <SCORE.SYSTEM.DIHEDRAL>
0

>  <SCORE.SYSTEM.SOLV>
0

>  <SCORE.SYSTEM.norm>
0

>  <SCORE.heavy>
10

>  <SCORE.norm>
-1.08291

>  <RMSD>
24.711

$$$$
ligand
 OpenBabel02271912143D
libRbt.so/2013.1/901 2013/11/27
 10 11  0  0  0  0  0  0  0  0999 V2000
   34.5125   16.6324    9.2357 N   0  0  0  0  0  0  0  0  0  0  0  0
   33.3654   17.3868    9.1588 C   0  0  0  0  0  0  0  0  0  0  0  0
   33.3958   18.7010    8.9305 N   0  0  0  0  0  0  0  0  0  0  0  0
   34.6574   19.1976    8.7869 C   0  0  0  0  0  0  0  0  0  0  0  0
   35.8455   18.4968    8.8542 C   0  0  0  0  0  0  0  0  0  0  0  0
   35.8210   17.0959    9.0958 C   0  0  0  0  0  0  0  0  0  0  0  0
   36.7489   16.2836    9.1915 O   0  0  0  0  0  0  0  0  0  0  0  0
   36.8760   19.3722    8.6564 N   0  0  0  0  0  0  0  0  0  0  0  0
   36.3202   20.5916    8.4681 C   0  0  0  0  0  0  0  0  0  0  0  0
   34.9460   20.5171    8.5440 N   0  0  0  0  0  0  0  0  0  0  0  0
  1  2  1  0  0  0  0
  1  6  1  0  0  0  0
  2  3  2  0  0  0  0
  3  4  1  0  0  0  0
  4  5  2  0  0  0  0
  4 10  1  0  0  0  0
  5  6  1  0  0  0  0
  5  8  1  0  0  0  0
  6  7  2  0  0  0  0
  8  9  1  0  0  0  0
  9 10  2  0  0  0  0
M  END
>  <CHROM.1>
35.27505217,18.38562265,8.89818990,1.68565805,-0.04535100,2.97072905

>  <Name>
ligand

>  <RI>
0

>  <Rbt.Current_Directory>
/home/itssahil/PROJECTS/Mol_Feturizer/Test_systems_manuscript/rnas/4fe5

>  <Rbt.Executable>
rbdock ($Id: //depot/dev/client3/rdock/2013.1/src/exe/rbdock.cxx#4 $)

>  <Rbt.Library>
libRbt.so (2013.1, Build901 2013/11/27)

>  <Rbt.Parameter_File>
/export/apps/rDock/src/rDock_2013.1_src/data/scripts/dock_solv.prm

>  <Rbt.Receptor>
prm/blind_docking_80.prm

>  <SCORE>
-10.7933

>  <SCORE.INTER>
-10.8011

>  <SCORE.INTER.CONST>
1

>  <SCORE.INTER.POLAR>
0

>  <SCORE.INTER.ROT>
0

>  <SCORE.INTER.SOLV>
3.48245

>  <SCORE.INTER.VDW>
-11.9615

>  <SCORE.INTER.norm>
-1.08011

>  <SCORE.INTRA>
0

>  <SCORE.INTRA.DIHEDRAL>
0

>  <SCORE.INTRA.DIHEDRAL.0>
0

>  <SCORE.INTRA.POLAR>
0

>  <SCORE.INTRA.POLAR.0>
0

>  <SCORE.INTRA.REPUL>
0

>  <SCORE.INTRA.REPUL.0>
0

>  <SCORE.INTRA.SOLV>
0

>  <SCORE.INTRA.SOLV.lig_0>
-4.28333

>  <SCORE.INTRA.VDW>
0

>  <SCORE.INTRA.VDW.0>
0

>  <SCORE.INTRA.norm>
0

>  <SCORE.RESTR>
0.0077305

>  <SCORE.RESTR.CAVITY>
0.0077305

>  <SCORE.RESTR.norm>
0.00077305

>  <SCORE.SYSTEM>
0

>  <SCORE.SYSTEM.CONST>
0

>  <SCORE.SYSTEM.DIHEDRAL>
0

>  <SCORE.SYSTEM.SOLV>
0

>  <SCORE.SYSTEM.norm>
0

>  <SCORE.heavy>
10

>  <SCORE.norm>
-1.07933

>  <RMSD>
24.880

$$$$
ligand
 OpenBabel02271912143D
libRbt.so/2013.1/901 2013/11/27
 10 11  0  0  0  0  0  0  0  0999 V2000
   35.5155   19.8341   10.5492 N   0  0  0  0  0  0  0  0  0  0  0  0
   35.7143   20.3691    9.2981 C   0  0  0  0  0  0  0  0  0  0  0  0
   36.0886   19.6206    8.2590 N   0  0  0  0  0  0  0  0  0  0  0  0
   36.2480   18.3026    8.5693 C   0  0  0  0  0  0  0  0  0  0  0  0
   36.0665   17.7047    9.8008 C   0  0  0  0  0  0  0  0  0  0  0  0
   35.6663   18.4955   10.9125 C   0  0  0  0  0  0  0  0  0  0  0  0
   35.4468   18.1736   12.0865 O   0  0  0  0  0  0  0  0  0  0  0  0
   36.3309   16.3697    9.6769 N   0  0  0  0  0  0  0  0  0  0  0  0
   36.6669   16.1579    8.3832 C   0  0  0  0  0  0  0  0  0  0  0  0
   36.6260   17.3368    7.6704 N   0  0  0  0  0  0  0  0  0  0  0  0
  1  2  1  0  0  0  0
  1  6  1  0  0  0  0
  2  3  2  0  0  0  0
  3  4  1  0  0  0  0
  4  5  2  0  0  0  0
  4 10  1  0  0  0  0
  5  6  1  0  0  0  0
  5  8  1  0  0  0  0
  6  7  2  0  0  0  0
  8  9  1  0  0  0  0
  9 10  2  0  0  0  0
M  END
>  <CHROM.1>
36.02538401,18.23779963,9.56895719,-3.06955231,-1.28625783,2.49655320

>  <Name>
ligand

>  <RI>
0

>  <Rbt.Current_Directory>
/home/itssahil/PROJECTS/Mol_Feturizer/Test_systems_manuscript/rnas/4fe5

>  <Rbt.Executable>
rbdock ($Id: //depot/dev/client3/rdock/2013.1/src/exe/rbdock.cxx#4 $)

>  <Rbt.Library>
libRbt.so (2013.1, Build901 2013/11/27)

>  <Rbt.Parameter_File>
/export/apps/rDock/src/rDock_2013.1_src/data/scripts/dock_solv.prm

>  <Rbt.Receptor>
prm/blind_docking_80.prm

>  <SCORE>
-12.3143

>  <SCORE.INTER>
-12.3812

>  <SCORE.INTER.CONST>
1

>  <SCORE.INTER.POLAR>
0

>  <SCORE.INTER.ROT>
0

>  <SCORE.INTER.SOLV>
4.4619

>  <SCORE.INTER.VDW>
-13.3414

>  <SCORE.INTER.norm>
-1.23812

>  <SCORE.INTRA>
0

>  <SCORE.INTRA.DIHEDRAL>
0

>  <SCORE.INTRA.DIHEDRAL.0>
0

>  <SCORE.INTRA.POLAR>
0

>  <SCORE.INTRA.POLAR.0>
0

>  <SCORE.INTRA.REPUL>
0

>  <SCORE.INTRA.REPUL.0>
0

>  <SCORE.INTRA.SOLV>
0

>  <SCORE.INTRA.SOLV.lig_0>
-4.28333

>  <SCORE.INTRA.VDW>
0

>  <SCORE.INTRA.VDW.0>
0

>  <SCORE.INTRA.norm>
0

>  <SCORE.RESTR>
0.0668766

>  <SCORE.RESTR.CAVITY>
0.0668766

>  <SCORE.RESTR.norm>
0.00668766

>  <SCORE.SYSTEM>
0

>  <SCORE.SYSTEM.CONST>
0

>  <SCORE.SYSTEM.DIHEDRAL>
0

>  <SCORE.SYSTEM.SOLV>
0

>  <SCORE.SYSTEM.norm>
0

>  <SCORE.heavy>
10

>  <SCORE.norm>
-1.23143

>  <RMSD>
25.656

$$$$
ligand
 OpenBabel02271912143D
libRbt.so/2013.1/901 2013/11/27
 10 11  0  0  0  0  0  0  0  0999 V2000
   35.8802   19.9156   10.3082 N   0  0  0  0  0  0  0  0  0  0  0  0
   36.0219   19.0727   11.3854 C   0  0  0  0  0  0  0  0  0  0  0  0
   36.3181   17.7800   11.2390 N   0  0  0  0  0  0  0  0  0  0  0  0
   36.4596   17.3999    9.9373 C   0  0  0  0  0  0  0  0  0  0  0  0
   36.3293   18.1935    8.8147 C   0  0  0  0  0  0  0  0  0  0  0  0
   36.0153   19.5722    8.9627 C   0  0  0  0  0  0  0  0  0  0  0  0
   35.8565   20.4534    8.1093 O   0  0  0  0  0  0  0  0  0  0  0  0
   36.5500   17.4200    7.7099 N   0  0  0  0  0  0  0  0  0  0  0  0
   36.8142   16.1701    8.1564 C   0  0  0  0  0  0  0  0  0  0  0  0
   36.7649   16.1244    9.5330 N   0  0  0  0  0  0  0  0  0  0  0  0
  1  2  1  0  0  0  0
  1  6  1  0  0  0  0
  2  3  2  0  0  0  0
  3  4  1  0  0  0  0
  4  5  2  0  0  0  0
  4 10  1  0  0  0  0
  5  6  1  0  0  0  0
  5  8  1  0  0  0  0
  6  7  2  0  0  0  0
  8  9  1  0  0  0  0
  9 10  2  0  0  0  0
M  END
>  <CHROM.1>
36.29225166,18.25374301,9.39318719,-3.12615762,1.34637845,-1.37948858

>  <Name>
ligand

>  <RI>
0

>  <Rbt.Current_Directory>
/home/itssahil/PROJECTS/Mol_Feturizer/Test_systems_manuscript/rnas/4fe5

>  <Rbt.Executable>
rbdock ($Id: //depot/dev/client3/rdock/2013.1/src/exe/rbdock.cxx#4 $)

>  <Rbt.Library>
libRbt.so (2013.1, Build901 2013/11/27)

>  <Rbt.Parameter_File>
/export/apps/rDock/src/rDock_2013.1_src/data/scripts/dock_solv.prm

>  <Rbt.Receptor>
prm/blind_docking_60.prm

>  <SCORE>
-12.2292

>  <SCORE.INTER>
-12.2292

>  <SCORE.INTER.CONST>
1

>  <SCORE.INTER.POLAR>
0

>  <SCORE.INTER.ROT>
0

>  <SCORE.INTER.SOLV>
3.5315

>  <SCORE.INTER.VDW>
-12.9299

>  <SCORE.INTER.norm>
-1.22292

>  <SCORE.INTRA>
0

>  <SCORE.INTRA.DIHEDRAL>
0

>  <SCORE.INTRA.DIHEDRAL.0>
0

>  <SCORE.INTRA.POLAR>
0

>  <SCORE.INTRA.POLAR.0>
0

>  <SCORE.INTRA.REPUL>
0

>  <SCORE.INTRA.REPUL.0>
0

>  <SCORE.INTRA.SOLV>
0

>  <SCORE.INTRA.SOLV.lig_0>
-4.28333

>  <SCORE.INTRA.VDW>
0

>  <SCORE.INTRA.VDW.0>
0

>  <SCORE.INTRA.norm>
0

>  <SCORE.RESTR>
0

>  <SCORE.RESTR.CAVITY>
0

>  <SCORE.RESTR.norm>
0

>  <SCORE.SYSTEM>
0

>  <SCORE.SYSTEM.CONST>
0

>  <SCORE.SYSTEM.DIHEDRAL>
0

>  <SCORE.SYSTEM.SOLV>
0

>  <SCORE.SYSTEM.norm>
0

>  <SCORE.heavy>
10

>  <SCORE.norm>
-1.22292

>  <RMSD>
25.927

$$$$
ligand
 OpenBabel02271912143D
libRbt.so/2013.1/901 2013/11/27
 10 11  0  0  0  0  0  0  0  0999 V2000
   36.1158   19.9086   10.3208 N   0  0  0  0  0  0  0  0  0  0  0  0
   36.2610   19.0668   11.3984 C   0  0  0  0  0  0  0  0  0  0  0  0
   36.4958   17.7617   11.2510 N   0  0  0  0  0  0  0  0  0  0  0  0
   36.5725   17.3680    9.9479 C   0  0  0  0  0  0  0  0  0  0  0  0
   36.4348   18.1598    8.8248 C   0  0  0  0  0  0  0  0  0  0  0  0
   36.1859   19.5516    8.9739 C   0  0  0  0  0  0  0  0  0  0  0  0
   36.0336   20.4337    8.1202 O   0  0  0  0  0  0  0  0  0  0  0  0
   36.5809   17.3708    7.7186 N   0  0  0  0  0  0  0  0  0  0  0  0
   36.8076   16.1134    8.1646 C   0  0  0  0  0  0  0  0  0  0  0  0
   36.8075   16.0781    9.5424 N   0  0  0  0  0  0  0  0  0  0  0  0
  1  2  1  0  0  0  0
  1  6  1  0  0  0  0
  2  3  2  0  0  0  0
  3  4  1  0  0  0  0
  4  5  2  0  0  0  0
  4 10  1  0  0  0  0
  5  6  1  0  0  0  0
  5  8  1  0  0  0  0
  6  7  2  0  0  0  0
  8  9  1  0  0  0  0
  9 10  2  0  0  0  0
M  END
>  <CHROM.1>
36.42186503,18.22500524,9.40384872,-2.96526850,1.39337674,-1.54401914

>  <Name>
ligand

>  <RI>
0

>  <Rbt.Current_Directory>
/home/itssahil/PROJECTS/Mol_Feturizer/Test_systems_manuscript/rnas/4fe5

>  <Rbt.Executable>
rbdock ($Id: //depot/dev/client3/rdock/2013.1/src/exe/rbdock.cxx#4 $)

>  <Rbt.Library>
libRbt.so (2013.1, Build901 2013/11/27)

>  <Rbt.Parameter_File>
/export/apps/rDock/src/rDock_2013.1_src/data/scripts/dock_solv.prm

>  <Rbt.Receptor>
prm/blind_docking_60.prm

>  <SCORE>
-12.2996

>  <SCORE.INTER>
-12.2996

>  <SCORE.INTER.CONST>
1

>  <SCORE.INTER.POLAR>
0

>  <SCORE.INTER.ROT>
0

>  <SCORE.INTER.SOLV>
3.68779

>  <SCORE.INTER.VDW>
-13.029

>  <SCORE.INTER.norm>
-1.22996

>  <SCORE.INTRA>
0

>  <SCORE.INTRA.DIHEDRAL>
0

>  <SCORE.INTRA.DIHEDRAL.0>
0

>  <SCORE.INTRA.POLAR>
0

>  <SCORE.INTRA.POLAR.0>
0

>  <SCORE.INTRA.REPUL>
0

>  <SCORE.INTRA.REPUL.0>
0

>  <SCORE.INTRA.SOLV>
0

>  <SCORE.INTRA.SOLV.lig_0>
-4.28333

>  <SCORE.INTRA.VDW>
0

>  <SCORE.INTRA.VDW.0>
0

>  <SCORE.INTRA.norm>
0

>  <SCORE.RESTR>
0

>  <SCORE.RESTR.CAVITY>
0

>  <SCORE.RESTR.norm>
0

>  <SCORE.SYSTEM>
0

>  <SCORE.SYSTEM.CONST>
0

>  <SCORE.SYSTEM.DIHEDRAL>
0

>  <SCORE.SYSTEM.SOLV>
0

>  <SCORE.SYSTEM.norm>
0

>  <SCORE.heavy>
10

>  <SCORE.norm>
-1.22996

>  <RMSD>
26.042

$$$$
ligand
 OpenBabel02271912143D
libRbt.so/2013.1/901 2013/11/27
 10 11  0  0  0  0  0  0  0  0999 V2000
   36.2777   19.9618   10.2972 N   0  0  0  0  0  0  0  0  0  0  0  0
   36.3097   19.1027   11.3705 C   0  0  0  0  0  0  0  0  0  0  0  0
   36.4222   17.7820   11.2176 N   0  0  0  0  0  0  0  0  0  0  0  0
   36.4989   17.3915    9.9136 C   0  0  0  0  0  0  0  0  0  0  0  0
   36.4709   18.2003    8.7946 C   0  0  0  0  0  0  0  0  0  0  0  0
   36.3527   19.6087    8.9496 C   0  0  0  0  0  0  0  0  0  0  0  0
   36.3110   20.5069    8.1002 O   0  0  0  0  0  0  0  0  0  0  0  0
   36.5729   17.4083    7.6856 N   0  0  0  0  0  0  0  0  0  0  0  0
   36.6646   16.1320    8.1259 C   0  0  0  0  0  0  0  0  0  0  0  0
   36.6206   16.0877    9.5027 N   0  0  0  0  0  0  0  0  0  0  0  0
  1  2  1  0  0  0  0
  1  6  1  0  0  0  0
  2  3  2  0  0  0  0
  3  4  1  0  0  0  0
  4  5  2  0  0  0  0
  4 10  1  0  0  0  0
  5  6  1  0  0  0  0
  5  8  1  0  0  0  0
  6  7  2  0  0  0  0
  8  9  1  0  0  0  0
  9 10  2  0  0  0  0
M  END
>  <CHROM.1>
36.44731701,18.26263925,9.37353829,2.94594602,1.48288243,-1.16680898

>  <Name>
ligand

>  <RI>
0

>  <Rbt.Current_Directory>
/home/itssahil/PROJECTS/Mol_Feturizer/Test_systems_manuscript/rnas/4fe5

>  <Rbt.Executable>
rbdock ($Id: //depot/dev/client3/rdock/2013.1/src/exe/rbdock.cxx#4 $)

>  <Rbt.Library>
libRbt.so (2013.1, Build901 2013/11/27)

>  <Rbt.Parameter_File>
/export/apps/rDock/src/rDock_2013.1_src/data/scripts/dock_solv.prm

>  <Rbt.Receptor>
prm/blind_docking_100.prm

>  <SCORE>
-11.6019

>  <SCORE.INTER>
-11.6664

>  <SCORE.INTER.CONST>
1

>  <SCORE.INTER.POLAR>
0

>  <SCORE.INTER.ROT>
0

>  <SCORE.INTER.SOLV>
3.66313

>  <SCORE.INTER.VDW>
-12.5987

>  <SCORE.INTER.norm>
-1.16664

>  <SCORE.INTRA>
0

>  <SCORE.INTRA.DIHEDRAL>
0

>  <SCORE.INTRA.DIHEDRAL.0>
0

>  <SCORE.INTRA.POLAR>
0

>  <SCORE.INTRA.POLAR.0>
0

>  <SCORE.INTRA.REPUL>
0

>  <SCORE.INTRA.REPUL.0>
0

>  <SCORE.INTRA.SOLV>
0

>  <SCORE.INTRA.SOLV.lig_0>
-4.28333

>  <SCORE.INTRA.VDW>
0

>  <SCORE.INTRA.VDW.0>
0

>  <SCORE.INTRA.norm>
0

>  <SCORE.RESTR>
0.064552

>  <SCORE.RESTR.CAVITY>
0.064552

>  <SCORE.RESTR.norm>
0.0064552

>  <SCORE.SYSTEM>
0

>  <SCORE.SYSTEM.CONST>
0

>  <SCORE.SYSTEM.DIHEDRAL>
0

>  <SCORE.SYSTEM.SOLV>
0

>  <SCORE.SYSTEM.norm>
0

>  <SCORE.heavy>
10

>  <SCORE.norm>
-1.16019

>  <RMSD>
26.066

$$$$
ligand
 OpenBabel02271912143D
libRbt.so/2013.1/901 2013/11/27
 10 11  0  0  0  0  0  0  0  0999 V2000
   36.1816   19.9051   10.3430 N   0  0  0  0  0  0  0  0  0  0  0  0
   36.3514   19.0512   11.4074 C   0  0  0  0  0  0  0  0  0  0  0  0
   36.5748   17.7464   11.2400 N   0  0  0  0  0  0  0  0  0  0  0  0
   36.6138   17.3662    9.9312 C   0  0  0  0  0  0  0  0  0  0  0  0
   36.4501   18.1706    8.8207 C   0  0  0  0  0  0  0  0  0  0  0  0
   36.2131   19.5621    8.9911 C   0  0  0  0  0  0  0  0  0  0  0  0
   36.0426   20.4540    8.1511 O   0  0  0  0  0  0  0  0  0  0  0  0
   36.5616   17.3927    7.7027 N   0  0  0  0  0  0  0  0  0  0  0  0
   36.7934   16.1294    8.1291 C   0  0  0  0  0  0  0  0  0  0  0  0
   36.8305   16.0795    9.5059 N   0  0  0  0  0  0  0  0  0  0  0  0
  1  2  1  0  0  0  0
  1  6  1  0  0  0  0
  2  3  2  0  0  0  0
  3  4  1  0  0  0  0
  4  5  2  0  0  0  0
  4 10  1  0  0  0  0
  5  6  1  0  0  0  0
  5  8  1  0  0  0  0
  6  7  2  0  0  0  0
  8  9  1  0  0  0  0
  9 10  2  0  0  0  0
M  END
>  <CHROM.1>
36.45324500,18.22976901,9.40049879,-2.80780203,1.39760050,-1.68851766

>  <Name>
ligand

>  <RI>
0

>  <Rbt.Current_Directory>
/home/itssahil/PROJECTS/Mol_Feturizer/Test_systems_manuscript/rnas/4fe5

>  <Rbt.Executable>
rbdock ($Id: //depot/dev/client3/rdock/2013.1/src/exe/rbdock.cxx#4 $)

>  <Rbt.Library>
libRbt.so (2013.1, Build901 2013/11/27)

>  <Rbt.Parameter_File>
/export/apps/rDock/src/rDock_2013.1_src/data/scripts/dock_solv.prm

>  <Rbt.Receptor>
prm/blind_docking_60.prm

>  <SCORE>
-12.2291

>  <SCORE.INTER>
-12.2291

>  <SCORE.INTER.CONST>
1

>  <SCORE.INTER.POLAR>
0

>  <SCORE.INTER.ROT>
0

>  <SCORE.INTER.SOLV>
3.75106

>  <SCORE.INTER.VDW>
-13.0031

>  <SCORE.INTER.norm>
-1.22291

>  <SCORE.INTRA>
0

>  <SCORE.INTRA.DIHEDRAL>
0

>  <SCORE.INTRA.DIHEDRAL.0>
0

>  <SCORE.INTRA.POLAR>
0

>  <SCORE.INTRA.POLAR.0>
0

>  <SCORE.INTRA.REPUL>
0

>  <SCORE.INTRA.REPUL.0>
0

>  <SCORE.INTRA.SOLV>
0

>  <SCORE.INTRA.SOLV.lig_0>
-4.28333

>  <SCORE.INTRA.VDW>
0

>  <SCORE.INTRA.VDW.0>
0

>  <SCORE.INTRA.norm>
0

>  <SCORE.RESTR>
0

>  <SCORE.RESTR.CAVITY>
0

>  <SCORE.RESTR.norm>
0

>  <SCORE.SYSTEM>
0

>  <SCORE.SYSTEM.CONST>
0

>  <SCORE.SYSTEM.DIHEDRAL>
0

>  <SCORE.SYSTEM.SOLV>
0

>  <SCORE.SYSTEM.norm>
0

>  <SCORE.heavy>
10

>  <SCORE.norm>
-1.22291

>  <RMSD>
26.072

$$$$
ligand
 OpenBabel02271912143D
libRbt.so/2013.1/901 2013/11/27
 10 11  0  0  0  0  0  0  0  0999 V2000
   36.6351   16.8511   10.3329 N   0  0  0  0  0  0  0  0  0  0  0  0
   36.6322   17.7928   11.3350 C   0  0  0  0  0  0  0  0  0  0  0  0
   36.5844   19.1011   11.0774 N   0  0  0  0  0  0  0  0  0  0  0  0
   36.5407   19.3905    9.7458 C   0  0  0  0  0  0  0  0  0  0  0  0
   36.5424   18.4954    8.6941 C   0  0  0  0  0  0  0  0  0  0  0  0
   36.5918   17.0998    8.9608 C   0  0  0  0  0  0  0  0  0  0  0  0
   36.6000   16.1362    8.1852 O   0  0  0  0  0  0  0  0  0  0  0  0
   36.4904   19.2012    7.5251 N   0  0  0  0  0  0  0  0  0  0  0  0
   36.4547   20.5112    7.8626 C   0  0  0  0  0  0  0  0  0  0  0  0
   36.4856   20.6620    9.2322 N   0  0  0  0  0  0  0  0  0  0  0  0
  1  2  1  0  0  0  0
  1  6  1  0  0  0  0
  2  3  2  0  0  0  0
  3  4  1  0  0  0  0
  4  5  2  0  0  0  0
  4 10  1  0  0  0  0
  5  6  1  0  0  0  0
  5  8  1  0  0  0  0
  6  7  2  0  0  0  0
  8  9  1  0  0  0  0
  9 10  2  0  0  0  0
M  END
>  <CHROM.1>
36.55663717,18.47799202,9.27649667,-0.40817447,-1.53003424,0.87583520

>  <Name>
ligand

>  <RI>
0

>  <Rbt.Current_Directory>
/home/itssahil/PROJECTS/Mol_Feturizer/Test_systems_manuscript/rnas/4fe5

>  <Rbt.Executable>
rbdock ($Id: //depot/dev/client3/rdock/2013.1/src/exe/rbdock.cxx#4 $)

>  <Rbt.Library>
libRbt.so (2013.1, Build901 2013/11/27)

>  <Rbt.Parameter_File>
/export/apps/rDock/src/rDock_2013.1_src/data/scripts/dock_solv.prm

>  <Rbt.Receptor>
prm/blind_docking_80.prm

>  <SCORE>
-11.4065

>  <SCORE.INTER>
-11.4066

>  <SCORE.INTER.CONST>
1

>  <SCORE.INTER.POLAR>
0

>  <SCORE.INTER.ROT>
0

>  <SCORE.INTER.SOLV>
5.22352

>  <SCORE.INTER.VDW>
-12.9455

>  <SCORE.INTER.norm>
-1.14066

>  <SCORE.INTRA>
0

>  <SCORE.INTRA.DIHEDRAL>
0

>  <SCORE.INTRA.DIHEDRAL.0>
0

>  <SCORE.INTRA.POLAR>
0

>  <SCORE.INTRA.POLAR.0>
0

>  <SCORE.INTRA.REPUL>
0

>  <SCORE.INTRA.REPUL.0>
0

>  <SCORE.INTRA.SOLV>
0

>  <SCORE.INTRA.SOLV.lig_0>
-4.28333

>  <SCORE.INTRA.VDW>
0

>  <SCORE.INTRA.VDW.0>
0

>  <SCORE.INTRA.norm>
0

>  <SCORE.RESTR>
2.96563e-05

>  <SCORE.RESTR.CAVITY>
2.96563e-05

>  <SCORE.RESTR.norm>
2.96563e-06

>  <SCORE.SYSTEM>
0

>  <SCORE.SYSTEM.CONST>
0

>  <SCORE.SYSTEM.DIHEDRAL>
0

>  <SCORE.SYSTEM.SOLV>
0

>  <SCORE.SYSTEM.norm>
0

>  <SCORE.heavy>
10

>  <SCORE.norm>
-1.14065

>  <RMSD>
26.142

$$$$
ligand
 OpenBabel02271912143D
libRbt.so/2013.1/901 2013/11/27
 10 11  0  0  0  0  0  0  0  0999 V2000
   36.6702   16.6313   10.1942 N   0  0  0  0  0  0  0  0  0  0  0  0
   36.6518   16.3098    8.8574 C   0  0  0  0  0  0  0  0  0  0  0  0
   36.5787   17.2420    7.9056 N   0  0  0  0  0  0  0  0  0  0  0  0
   36.5250   18.5135    8.3947 C   0  0  0  0  0  0  0  0  0  0  0  0
   36.5381   18.9019    9.7199 C   0  0  0  0  0  0  0  0  0  0  0  0
   36.6173   17.9143   10.7396 C   0  0  0  0  0  0  0  0  0  0  0  0
   36.6447   18.0347   11.9704 O   0  0  0  0  0  0  0  0  0  0  0  0
   36.4678   20.2657    9.7718 N   0  0  0  0  0  0  0  0  0  0  0  0
   36.4153   20.7018    8.4918 C   0  0  0  0  0  0  0  0  0  0  0  0
   36.4480   19.6397    7.6141 N   0  0  0  0  0  0  0  0  0  0  0  0
  1  2  1  0  0  0  0
  1  6  1  0  0  0  0
  2  3  2  0  0  0  0
  3  4  1  0  0  0  0
  4  5  2  0  0  0  0
  4 10  1  0  0  0  0
  5  6  1  0  0  0  0
  5  8  1  0  0  0  0
  6  7  2  0  0  0  0
  8  9  1  0  0  0  0
  9 10  2  0  0  0  0
M  END
>  <CHROM.1>
36.55750136,18.40573092,9.41471939,-0.24042569,1.51267450,-2.03359629

>  <Name>
ligand

>  <RI>
0

>  <Rbt.Current_Directory>
/home/itssahil/PROJECTS/Mol_Feturizer/Test_systems_manuscript/rnas/4fe5

>  <Rbt.Executable>
rbdock ($Id: //depot/dev/client3/rdock/2013.1/src/exe/rbdock.cxx#4 $)

>  <Rbt.Library>
libRbt.so (2013.1, Build901 2013/11/27)

>  <Rbt.Parameter_File>
/export/apps/rDock/src/rDock_2013.1_src/data/scripts/dock_solv.prm

>  <Rbt.Receptor>
prm/blind_docking_100.prm

>  <SCORE>
-13.1535

>  <SCORE.INTER>
-13.1535

>  <SCORE.INTER.CONST>
1

>  <SCORE.INTER.POLAR>
0

>  <SCORE.INTER.ROT>
0

>  <SCORE.INTER.SOLV>
4.9903

>  <SCORE.INTER.VDW>
-14.0324

>  <SCORE.INTER.norm>
-1.31535

>  <SCORE.INTRA>
0

>  <SCORE.INTRA.DIHEDRAL>
0

>  <SCORE.INTRA.DIHEDRAL.0>
0

>  <SCORE.INTRA.POLAR>
0

>  <SCORE.INTRA.POLAR.0>
0

>  <SCORE.INTRA.REPUL>
0

>  <SCORE.INTRA.REPUL.0>
0

>  <SCORE.INTRA.SOLV>
0

>  <SCORE.INTRA.SOLV.lig_0>
-4.28333

>  <SCORE.INTRA.VDW>
0

>  <SCORE.INTRA.VDW.0>
0

>  <SCORE.INTRA.norm>
0

>  <SCORE.RESTR>
0

>  <SCORE.RESTR.CAVITY>
0

>  <SCORE.RESTR.norm>
0

>  <SCORE.SYSTEM>
0

>  <SCORE.SYSTEM.CONST>
0

>  <SCORE.SYSTEM.DIHEDRAL>
0

>  <SCORE.SYSTEM.SOLV>
0

>  <SCORE.SYSTEM.norm>
0

>  <SCORE.heavy>
10

>  <SCORE.norm>
-1.31535

>  <RMSD>
26.195

$$$$
ligand
 OpenBabel02271912143D
libRbt.so/2013.1/901 2013/11/27
 10 11  0  0  0  0  0  0  0  0999 V2000
   36.6728   16.6348   10.1966 N   0  0  0  0  0  0  0  0  0  0  0  0
   36.6436   16.3158    8.8593 C   0  0  0  0  0  0  0  0  0  0  0  0
   36.5697   17.2502    7.9097 N   0  0  0  0  0  0  0  0  0  0  0  0
   36.5268   18.5212    8.4014 C   0  0  0  0  0  0  0  0  0  0  0  0
   36.5510   18.9070    9.7272 C   0  0  0  0  0  0  0  0  0  0  0  0
   36.6311   17.9171   10.7446 C   0  0  0  0  0  0  0  0  0  0  0  0
   36.6674   18.0351   11.9754 O   0  0  0  0  0  0  0  0  0  0  0  0
   36.4892   20.2711    9.7821 N   0  0  0  0  0  0  0  0  0  0  0  0
   36.4308   20.7098    8.5033 C   0  0  0  0  0  0  0  0  0  0  0  0
   36.4513   19.6492    7.6234 N   0  0  0  0  0  0  0  0  0  0  0  0
  1  2  1  0  0  0  0
  1  6  1  0  0  0  0
  2  3  2  0  0  0  0
  3  4  1  0  0  0  0
  4  5  2  0  0  0  0
  4 10  1  0  0  0  0
  5  6  1  0  0  0  0
  5  8  1  0  0  0  0
  6  7  2  0  0  0  0
  8  9  1  0  0  0  0
  9 10  2  0  0  0  0
M  END
>  <CHROM.1>
36.56544445,18.41128555,9.42102825,-0.08727005,1.51436174,-2.18468265

>  <Name>
ligand

>  <RI>
0

>  <Rbt.Current_Directory>
/home/itssahil/PROJECTS/Mol_Feturizer/Test_systems_manuscript/rnas/4fe5

>  <Rbt.Executable>
rbdock ($Id: //depot/dev/client3/rdock/2013.1/src/exe/rbdock.cxx#4 $)

>  <Rbt.Library>
libRbt.so (2013.1, Build901 2013/11/27)

>  <Rbt.Parameter_File>
/export/apps/rDock/src/rDock_2013.1_src/data/scripts/dock_solv.prm

>  <Rbt.Receptor>
prm/blind_docking_80.prm

>  <SCORE>
-13.1766

>  <SCORE.INTER>
-13.1766

>  <SCORE.INTER.CONST>
1

>  <SCORE.INTER.POLAR>
0

>  <SCORE.INTER.ROT>
0

>  <SCORE.INTER.SOLV>
5.01309

>  <SCORE.INTER.VDW>
-14.0555

>  <SCORE.INTER.norm>
-1.31766

>  <SCORE.INTRA>
0

>  <SCORE.INTRA.DIHEDRAL>
0

>  <SCORE.INTRA.DIHEDRAL.0>
0

>  <SCORE.INTRA.POLAR>
0

>  <SCORE.INTRA.POLAR.0>
0

>  <SCORE.INTRA.REPUL>
0

>  <SCORE.INTRA.REPUL.0>
0

>  <SCORE.INTRA.SOLV>
0

>  <SCORE.INTRA.SOLV.lig_0>
-4.28333

>  <SCORE.INTRA.VDW>
0

>  <SCORE.INTRA.VDW.0>
0

>  <SCORE.INTRA.norm>
0

>  <SCORE.RESTR>
0

>  <SCORE.RESTR.CAVITY>
0

>  <SCORE.RESTR.norm>
0

>  <SCORE.SYSTEM>
0

>  <SCORE.SYSTEM.CONST>
0

>  <SCORE.SYSTEM.DIHEDRAL>
0

>  <SCORE.SYSTEM.SOLV>
0

>  <SCORE.SYSTEM.norm>
0

>  <SCORE.heavy>
10

>  <SCORE.norm>
-1.31766

>  <RMSD>
26.204

$$$$
ligand
 OpenBabel02271912143D
libRbt.so/2013.1/901 2013/11/27
 10 11  0  0  0  0  0  0  0  0999 V2000
   36.6686   16.6385   10.1992 N   0  0  0  0  0  0  0  0  0  0  0  0
   36.6363   16.3175    8.8624 C   0  0  0  0  0  0  0  0  0  0  0  0
   36.5628   17.2506    7.9115 N   0  0  0  0  0  0  0  0  0  0  0  0
   36.5237   18.5224    8.4013 C   0  0  0  0  0  0  0  0  0  0  0  0
   36.5511   18.9102    9.7264 C   0  0  0  0  0  0  0  0  0  0  0  0
   36.6308   17.9218   10.7453 C   0  0  0  0  0  0  0  0  0  0  0  0
   36.6695   18.0416   11.9758 O   0  0  0  0  0  0  0  0  0  0  0  0
   36.4923   20.2745    9.7792 N   0  0  0  0  0  0  0  0  0  0  0  0
   36.4326   20.7114    8.4998 C   0  0  0  0  0  0  0  0  0  0  0  0
   36.4492   19.6493    7.6216 N   0  0  0  0  0  0  0  0  0  0  0  0
  1  2  1  0  0  0  0
  1  6  1  0  0  0  0
  2  3  2  0  0  0  0
  3  4  1  0  0  0  0
  4  5  2  0  0  0  0
  4 10  1  0  0  0  0
  5  6  1  0  0  0  0
  5  8  1  0  0  0  0
  6  7  2  0  0  0  0
  8  9  1  0  0  0  0
  9 10  2  0  0  0  0
M  END
>  <CHROM.1>
36.56382349,18.41400711,9.42100045,-0.03807838,1.51509612,-2.23538104

>  <Name>
ligand

>  <RI>
0

>  <Rbt.Current_Directory>
/home/itssahil/PROJECTS/Mol_Feturizer/Test_systems_manuscript/rnas/4fe5

>  <Rbt.Executable>
rbdock ($Id: //depot/dev/client3/rdock/2013.1/src/exe/rbdock.cxx#4 $)

>  <Rbt.Library>
libRbt.so (2013.1, Build901 2013/11/27)

>  <Rbt.Parameter_File>
/export/apps/rDock/src/rDock_2013.1_src/data/scripts/dock_solv.prm

>  <Rbt.Receptor>
prm/blind_docking_80.prm

>  <SCORE>
-13.1703

>  <SCORE.INTER>
-13.1703

>  <SCORE.INTER.CONST>
1

>  <SCORE.INTER.POLAR>
0

>  <SCORE.INTER.ROT>
0

>  <SCORE.INTER.SOLV>
5.01344

>  <SCORE.INTER.VDW>
-14.0514

>  <SCORE.INTER.norm>
-1.31703

>  <SCORE.INTRA>
0

>  <SCORE.INTRA.DIHEDRAL>
0

>  <SCORE.INTRA.DIHEDRAL.0>
0

>  <SCORE.INTRA.POLAR>
0

>  <SCORE.INTRA.POLAR.0>
0

>  <SCORE.INTRA.REPUL>
0

>  <SCORE.INTRA.REPUL.0>
0

>  <SCORE.INTRA.SOLV>
0

>  <SCORE.INTRA.SOLV.lig_0>
-4.28333

>  <SCORE.INTRA.VDW>
0

>  <SCORE.INTRA.VDW.0>
0

>  <SCORE.INTRA.norm>
0

>  <SCORE.RESTR>
0

>  <SCORE.RESTR.CAVITY>
0

>  <SCORE.RESTR.norm>
0

>  <SCORE.SYSTEM>
0

>  <SCORE.SYSTEM.CONST>
0

>  <SCORE.SYSTEM.DIHEDRAL>
0

>  <SCORE.SYSTEM.SOLV>
0

>  <SCORE.SYSTEM.norm>
0

>  <SCORE.heavy>
10

>  <SCORE.norm>
-1.31703

>  <RMSD>
26.204

$$$$
ligand
 OpenBabel02271912143D
libRbt.so/2013.1/901 2013/11/27
 10 11  0  0  0  0  0  0  0  0999 V2000
   36.6732   16.6552   10.2175 N   0  0  0  0  0  0  0  0  0  0  0  0
   36.6452   16.3254    8.8828 C   0  0  0  0  0  0  0  0  0  0  0  0
   36.5725   17.2521    7.9256 N   0  0  0  0  0  0  0  0  0  0  0  0
   36.5296   18.5270    8.4069 C   0  0  0  0  0  0  0  0  0  0  0  0
   36.5525   18.9236    9.7295 C   0  0  0  0  0  0  0  0  0  0  0  0
   36.6313   17.9420   10.7551 C   0  0  0  0  0  0  0  0  0  0  0  0
   36.6664   18.0699   11.9849 O   0  0  0  0  0  0  0  0  0  0  0  0
   36.4910   20.2881    9.7732 N   0  0  0  0  0  0  0  0  0  0  0  0
   36.4340   20.7164    8.4908 C   0  0  0  0  0  0  0  0  0  0  0  0
   36.4551   19.6486    7.6196 N   0  0  0  0  0  0  0  0  0  0  0  0
  1  2  1  0  0  0  0
  1  6  1  0  0  0  0
  2  3  2  0  0  0  0
  3  4  1  0  0  0  0
  4  5  2  0  0  0  0
  4 10  1  0  0  0  0
  5  6  1  0  0  0  0
  5  8  1  0  0  0  0
  6  7  2  0  0  0  0
  8  9  1  0  0  0  0
  9 10  2  0  0  0  0
M  END
>  <CHROM.1>
36.56710969,18.42538036,9.42740798,-0.09899547,1.51518705,-2.18110667

>  <Name>
ligand

>  <RI>
0

>  <Rbt.Current_Directory>
/home/itssahil/PROJECTS/Mol_Feturizer/Test_systems_manuscript/rnas/4fe5

>  <Rbt.Executable>
rbdock ($Id: //depot/dev/client3/rdock/2013.1/src/exe/rbdock.cxx#4 $)

>  <Rbt.Library>
libRbt.so (2013.1, Build901 2013/11/27)

>  <Rbt.Parameter_File>
/export/apps/rDock/src/rDock_2013.1_src/data/scripts/dock_solv.prm

>  <Rbt.Receptor>
prm/blind_docking_100.prm

>  <SCORE>
-13.1611

>  <SCORE.INTER>
-13.1611

>  <SCORE.INTER.CONST>
1

>  <SCORE.INTER.POLAR>
0

>  <SCORE.INTER.ROT>
0

>  <SCORE.INTER.SOLV>
5.01734

>  <SCORE.INTER.VDW>
-14.0465

>  <SCORE.INTER.norm>
-1.31611

>  <SCORE.INTRA>
0

>  <SCORE.INTRA.DIHEDRAL>
0

>  <SCORE.INTRA.DIHEDRAL.0>
0

>  <SCORE.INTRA.POLAR>
0

>  <SCORE.INTRA.POLAR.0>
0

>  <SCORE.INTRA.REPUL>
0

>  <SCORE.INTRA.REPUL.0>
0

>  <SCORE.INTRA.SOLV>
0

>  <SCORE.INTRA.SOLV.lig_0>
-4.28333

>  <SCORE.INTRA.VDW>
0

>  <SCORE.INTRA.VDW.0>
0

>  <SCORE.INTRA.norm>
0

>  <SCORE.RESTR>
0

>  <SCORE.RESTR.CAVITY>
0

>  <SCORE.RESTR.norm>
0

>  <SCORE.SYSTEM>
0

>  <SCORE.SYSTEM.CONST>
0

>  <SCORE.SYSTEM.DIHEDRAL>
0

>  <SCORE.SYSTEM.SOLV>
0

>  <SCORE.SYSTEM.norm>
0

>  <SCORE.heavy>
10

>  <SCORE.norm>
-1.31611

>  <RMSD>
26.210

$$$$
ligand
 OpenBabel02271912143D
libRbt.so/2013.1/901 2013/11/27
 10 11  0  0  0  0  0  0  0  0999 V2000
   36.3361   18.0962    7.6939 N   0  0  0  0  0  0  0  0  0  0  0  0
   36.6881   16.8061    8.0141 C   0  0  0  0  0  0  0  0  0  0  0  0
   36.9008   16.4218    9.2740 N   0  0  0  0  0  0  0  0  0  0  0  0
   36.7351   17.4250   10.1824 C   0  0  0  0  0  0  0  0  0  0  0  0
   36.3854   18.7363    9.9268 C   0  0  0  0  0  0  0  0  0  0  0  0
   36.1557   19.1528    8.5869 C   0  0  0  0  0  0  0  0  0  0  0  0
   35.8361   20.2594    8.1361 O   0  0  0  0  0  0  0  0  0  0  0  0
   36.3288   19.4085   11.1153 N   0  0  0  0  0  0  0  0  0  0  0  0
   36.6381   18.5147   12.0831 C   0  0  0  0  0  0  0  0  0  0  0  0
   36.8962   17.2758   11.5371 N   0  0  0  0  0  0  0  0  0  0  0  0
  1  2  1  0  0  0  0
  1  6  1  0  0  0  0
  2  3  2  0  0  0  0
  3  4  1  0  0  0  0
  4  5  2  0  0  0  0
  4 10  1  0  0  0  0
  5  6  1  0  0  0  0
  5  8  1  0  0  0  0
  6  7  2  0  0  0  0
  8  9  1  0  0  0  0
  9 10  2  0  0  0  0
M  END
>  <CHROM.1>
36.47787206,18.24683706,9.62421391,-2.14772980,-1.31063113,1.21440392

>  <Name>
ligand

>  <RI>
0

>  <Rbt.Current_Directory>
/home/itssahil/PROJECTS/Mol_Feturizer/Test_systems_manuscript/rnas/4fe5

>  <Rbt.Executable>
rbdock ($Id: //depot/dev/client3/rdock/2013.1/src/exe/rbdock.cxx#4 $)

>  <Rbt.Library>
libRbt.so (2013.1, Build901 2013/11/27)

>  <Rbt.Parameter_File>
/export/apps/rDock/src/rDock_2013.1_src/data/scripts/dock_solv.prm

>  <Rbt.Receptor>
prm/blind_docking_100.prm

>  <SCORE>
-11.6727

>  <SCORE.INTER>
-11.6727

>  <SCORE.INTER.CONST>
1

>  <SCORE.INTER.POLAR>
0

>  <SCORE.INTER.ROT>
0

>  <SCORE.INTER.SOLV>
4.16719

>  <SCORE.INTER.VDW>
-12.7708

>  <SCORE.INTER.norm>
-1.16727

>  <SCORE.INTRA>
0

>  <SCORE.INTRA.DIHEDRAL>
0

>  <SCORE.INTRA.DIHEDRAL.0>
0

>  <SCORE.INTRA.POLAR>
0

>  <SCORE.INTRA.POLAR.0>
0

>  <SCORE.INTRA.REPUL>
0

>  <SCORE.INTRA.REPUL.0>
0

>  <SCORE.INTRA.SOLV>
0

>  <SCORE.INTRA.SOLV.lig_0>
-4.28333

>  <SCORE.INTRA.VDW>
0

>  <SCORE.INTRA.VDW.0>
0

>  <SCORE.INTRA.norm>
0

>  <SCORE.RESTR>
0

>  <SCORE.RESTR.CAVITY>
0

>  <SCORE.RESTR.norm>
0

>  <SCORE.SYSTEM>
0

>  <SCORE.SYSTEM.CONST>
0

>  <SCORE.SYSTEM.DIHEDRAL>
0

>  <SCORE.SYSTEM.SOLV>
0

>  <SCORE.SYSTEM.norm>
0

>  <SCORE.heavy>
10

>  <SCORE.norm>
-1.16727

>  <RMSD>
26.255

$$$$
ligand
 OpenBabel02271912143D
libRbt.so/2013.1/901 2013/11/27
 10 11  0  0  0  0  0  0  0  0999 V2000
   36.3417   18.0406    7.7181 N   0  0  0  0  0  0  0  0  0  0  0  0
   36.6965   16.7558    8.0563 C   0  0  0  0  0  0  0  0  0  0  0  0
   36.9109   16.3899    9.3214 N   0  0  0  0  0  0  0  0  0  0  0  0
   36.7440   17.4055   10.2155 C   0  0  0  0  0  0  0  0  0  0  0  0
   36.3917   18.7124    9.9417 C   0  0  0  0  0  0  0  0  0  0  0  0
   36.1602   19.1094    8.5962 C   0  0  0  0  0  0  0  0  0  0  0  0
   35.8381   20.2089    8.1300 O   0  0  0  0  0  0  0  0  0  0  0  0
   36.3348   19.4013   11.1205 N   0  0  0  0  0  0  0  0  0  0  0  0
   36.6465   18.5220   12.1007 C   0  0  0  0  0  0  0  0  0  0  0  0
   36.9065   17.2759   11.5721 N   0  0  0  0  0  0  0  0  0  0  0  0
  1  2  1  0  0  0  0
  1  6  1  0  0  0  0
  2  3  2  0  0  0  0
  3  4  1  0  0  0  0
  4  5  2  0  0  0  0
  4 10  1  0  0  0  0
  5  6  1  0  0  0  0
  5  8  1  0  0  0  0
  6  7  2  0  0  0  0
  8  9  1  0  0  0  0
  9 10  2  0  0  0  0
M  END
>  <CHROM.1>
36.48483126,18.21887672,9.64598678,-2.14817313,-1.30860482,1.19975804

>  <Name>
ligand

>  <RI>
0

>  <Rbt.Current_Directory>
/home/itssahil/PROJECTS/Mol_Feturizer/Test_systems_manuscript/rnas/4fe5

>  <Rbt.Executable>
rbdock ($Id: //depot/dev/client3/rdock/2013.1/src/exe/rbdock.cxx#4 $)

>  <Rbt.Library>
libRbt.so (2013.1, Build901 2013/11/27)

>  <Rbt.Parameter_File>
/export/apps/rDock/src/rDock_2013.1_src/data/scripts/dock_solv.prm

>  <Rbt.Receptor>
prm/blind_docking_100.prm

>  <SCORE>
-11.6817

>  <SCORE.INTER>
-11.6817

>  <SCORE.INTER.CONST>
1

>  <SCORE.INTER.POLAR>
0

>  <SCORE.INTER.ROT>
0

>  <SCORE.INTER.SOLV>
4.18533

>  <SCORE.INTER.VDW>
-12.7829

>  <SCORE.INTER.norm>
-1.16817

>  <SCORE.INTRA>
0

>  <SCORE.INTRA.DIHEDRAL>
0

>  <SCORE.INTRA.DIHEDRAL.0>
0

>  <SCORE.INTRA.POLAR>
0

>  <SCORE.INTRA.POLAR.0>
0

>  <SCORE.INTRA.REPUL>
0

>  <SCORE.INTRA.REPUL.0>
0

>  <SCORE.INTRA.SOLV>
0

>  <SCORE.INTRA.SOLV.lig_0>
-4.28333

>  <SCORE.INTRA.VDW>
0

>  <SCORE.INTRA.VDW.0>
0

>  <SCORE.INTRA.norm>
0

>  <SCORE.RESTR>
0

>  <SCORE.RESTR.CAVITY>
0

>  <SCORE.RESTR.norm>
0

>  <SCORE.SYSTEM>
0

>  <SCORE.SYSTEM.CONST>
0

>  <SCORE.SYSTEM.DIHEDRAL>
0

>  <SCORE.SYSTEM.SOLV>
0

>  <SCORE.SYSTEM.norm>
0

>  <SCORE.heavy>
10

>  <SCORE.norm>
-1.16817

>  <RMSD>
26.256

$$$$
