@<TRIPOS>MOLECULE
4fe5_rdock.pdb
 1422 1589 0 0 0
SMALL
GASTEIGER

@<TRIPOS>ATOM
      1  C5'        4.8930    3.7800   22.2330 C.3    15  G15         0.2141
      2  O5'        3.7940    4.3340   21.5050 O.3    15  G15        -0.2176
      3  C4'        4.9800    2.2760   22.1100 C.3    15  G15         0.1802
      4  O4'        3.7220    1.6810   22.5490 O.3    15  G15        -0.3306
      5  C3'        5.1670    1.7420   20.6990 C.3    15  G15         0.1861
      6  O3'        6.5200    1.8490   20.2410 O.3    15  G15        -0.3112
      7  C2'        4.6030    0.3330   20.8310 C.3    15  G15         0.2309
      8  O2'        5.4330   -0.5710   21.5310 O.3    15  G15        -0.2156
      9  C1'        3.3620    0.6170   21.6760 C.3    15  G15         0.2408
     10  N1        -0.4190   -0.8150   18.5990 N.ar   15  G15        -0.1709
     11  C2         0.5150   -1.5840   19.2470 C.ar   15  G15         0.2606
     12  N2         0.4290   -2.9060   19.0460 N.pl3  15  G15        -0.0859
     13  N3         1.4600   -1.0940   20.0340 N.ar   15  G15        -0.1918
     14  C4         1.3920    0.2510   20.1260 C.ar   15  G15         0.1723
     15  C5         0.4980    1.1110   19.5230 C.ar   15  G15         0.1748
     16  C6        -0.5090    0.5700   18.6770 C.ar   15  G15         0.3023
     17  O6        -1.3940    1.1660   18.0500 O.2    15  G15        -0.2633
     18  N7         0.7630    2.4260   19.8790 N.ar   15  G15        -0.2173
     19  C8         1.7940    2.3450   20.6750 C.ar   15  G15         0.1817
     20  N9         2.2300    1.0550   20.8640 N.ar   15  G15        -0.2693
     21  P          7.6440    0.8220   20.7630 P.3    16  G16         0.2141
     22  C5'        7.8800   -1.7700   20.4260 C.3    16  G16         0.1812
     23  O5'        7.3070   -0.5370   20.0030 O.3    16  G16        -0.3114
     24  C4'        7.2910   -2.9220   19.6450 C.3    16  G16         0.1773
     25  O4'        5.8420   -2.9060   19.7440 O.3    16  G16        -0.3307
     26  C3'        7.5240   -2.8930   18.1470 C.3    16  G16         0.1860
     27  O3'        8.8260   -3.3600   17.8200 O.3    16  G16        -0.3112
     28  C2'        6.4510   -3.8570   17.6550 C.3    16  G16         0.2309
     29  O2'        6.8160   -5.2140   17.8000 O.3    16  G16        -0.2156
     30  C1'        5.2870   -3.5180   18.5880 C.3    16  G16         0.2408
     31  N1         1.1910   -3.0100   15.6360 N.ar   16  G16        -0.1709
     32  C2         1.8280   -4.1520   16.0530 C.ar   16  G16         0.2606
     33  N2         1.3090   -5.3100   15.6190 N.pl3  16  G16        -0.0859
     34  N3         2.8930   -4.1600   16.8370 N.ar   16  G16        -0.1918
     35  C4         3.2770   -2.9110   17.1770 C.ar   16  G16         0.1723
     36  C5         2.7100   -1.7070   16.8160 C.ar   16  G16         0.1748
     37  C6         1.5670   -1.7150   15.9740 C.ar   16  G16         0.3023
     38  O6         0.9200   -0.7530   15.5410 O.2    16  G16        -0.2633
     39  N7         3.4060   -0.6460   17.3780 N.ar   16  G16        -0.2173
     40  C8         4.3680   -1.2130   18.0540 C.ar   16  G16         0.1817
     41  N9         4.3500   -2.5840   17.9720 N.ar   16  G16        -0.2693
     42  OP1        7.4640    0.6030   22.2210 O.3    16  G16        -0.4373
     43  OP2        8.9500    1.3130   20.2530 O.co2  16  G16        -0.5172
     44  P          9.4410   -3.0410   16.3710 P.3    17  A17         0.2141
     45  C5'        8.6950   -5.4160   15.5310 C.3    17  A17         0.1812
     46  O5'        8.6300   -4.0000   15.3900 O.3    17  A17        -0.3114
     47  C4'        7.7140   -6.0800   14.5940 C.3    17  A17         0.1773
     48  O4'        6.3630   -5.7090   14.9730 O.3    17  A17        -0.3307
     49  C3'        7.8270   -5.6660   13.1360 C.3    17  A17         0.1860
     50  O3'        8.8010   -6.4670   12.4770 O.3    17  A17        -0.3112
     51  C2'        6.4270   -5.9540   12.6060 C.3    17  A17         0.2309
     52  O2'        6.2400   -7.3090   12.2510 O.3    17  A17        -0.2156
     53  C1'        5.5570   -5.5980   13.8140 C.3    17  A17         0.2408
     54  N1         1.8480   -2.5740   11.9400 N.ar   17  A17        -0.2040
     55  C2         2.1010   -3.8810   11.8000 C.ar   17  A17         0.2016
     56  N3         3.0880   -4.6080   12.3160 N.ar   17  A17        -0.2048
     57  C4         3.8960   -3.8430   13.0700 C.ar   17  A17         0.1692
     58  C5         3.7680   -2.4870   13.3090 C.ar   17  A17         0.1518
     59  C6         2.6800   -1.8330   12.7040 C.ar   17  A17         0.1919
     60  N6         2.4280   -0.5290   12.8440 N.pl3  17  A17        -0.1054
     61  N7         4.7880   -2.0360   14.1350 N.ar   17  A17        -0.2193
     62  C8         5.4990   -3.1110   14.3730 C.ar   17  A17         0.1816
     63  N9         5.0160   -4.2410   13.7600 N.ar   17  A17        -0.2693
     64  OP1       10.8680   -3.4530   16.3660 O.3    17  A17        -0.4373
     65  OP2        9.0800   -1.6390   16.0380 O.co2  17  A17        -0.5172
     66  P          9.9730   -5.7620   11.6310 P.3    18  C18         0.2141
     67  C5'        8.4130   -4.5170    9.9370 C.3    18  C18         0.1812
     68  O5'        9.3400   -5.5640   10.1850 O.3    18  C18        -0.3114
     69  C4'        7.3600   -4.9730    8.9560 C.3    18  C18         0.1773
     70  O4'        6.0610   -4.9230    9.6100 O.3    18  C18        -0.3307
     71  C3'        7.2370   -4.0960    7.7160 C.3    18  C18         0.1860
     72  O3'        7.9890   -4.6430    6.6390 O.3    18  C18        -0.3112
     73  C2'        5.7400   -4.1200    7.4280 C.3    18  C18         0.2309
     74  O2'        5.3370   -5.2780    6.7250 O.3    18  C18        -0.2156
     75  C1'        5.1690   -4.1360    8.8440 C.3    18  C18         0.2420
     76  N1         5.0900   -2.7990    9.4570 N.ar   18  C18        -0.2535
     77  C2         4.0640   -1.9350    9.0620 C.ar   18  C18         0.3532
     78  O2         3.2530   -2.3190    8.2060 O.2    18  C18        -0.2443
     79  N3         3.9830   -0.7060    9.6240 N.ar   18  C18        -0.1739
     80  C4         4.8740   -0.3330   10.5450 C.ar   18  C18         0.1759
     81  N4         4.7510    0.8830   11.0780 N.pl3  18  C18        -0.1070
     82  C5         5.9300   -1.1930   10.9620 C.ar   18  C18         0.0566
     83  C6         5.9990   -2.4050   10.3990 C.ar   18  C18         0.0850
     84  OP1       11.1120   -6.7100   11.5180 O.2    18  C18        -0.5172
     85  OP2       10.1930   -4.4140   12.2130 O.co2  18  C18        -0.4373
     86  P          8.8110   -3.6620    5.6720 P.3    19  A19         0.2141
     87  C5'        6.6780   -3.4320    4.1620 C.3    19  A19         0.1812
     88  O5'        7.6790   -2.8020    4.9570 O.3    19  A19        -0.3114
     89  C4'        5.7370   -2.3970    3.5950 C.3    19  A19         0.1773
     90  O4'        4.8300   -1.9450    4.6360 O.3    19  A19        -0.3307
     91  C3'        6.3970   -1.1170    3.1120 C.3    19  A19         0.1860
     92  O3'        6.9000   -1.2670    1.7930 O.3    19  A19        -0.3112
     93  C2'        5.2370   -0.1350    3.1560 C.3    19  A19         0.2309
     94  O2'        4.3700   -0.2650    2.0470 O.3    19  A19        -0.2156
     95  C1'        4.5260   -0.5740    4.4360 C.3    19  A19         0.2408
     96  N1         3.8530    3.6660    7.2540 N.ar   19  A19        -0.2040
     97  C2         3.2710    3.2260    6.1320 C.ar   19  A19         0.2016
     98  N3         3.4990    2.1080    5.4470 N.ar   19  A19        -0.2048
     99  C4         4.4670    1.3820    6.0320 C.ar   19  A19         0.1692
    100  C5         5.1610    1.7010    7.1850 C.ar   19  A19         0.1518
    101  C6         4.8180    2.9100    7.8210 C.ar   19  A19         0.1919
    102  N6         5.3880    3.3420    8.9490 N.pl3  19  A19        -0.1054
    103  N7         6.0900    0.7140    7.4860 N.ar   19  A19        -0.2193
    104  C8         5.9350   -0.1680    6.5270 C.ar   19  A19         0.1816
    105  N9         4.9660    0.1720    5.6150 N.ar   19  A19        -0.2693
    106  OP1        9.5060   -4.4730    4.6400 O.2    19  A19        -0.5172
    107  OP2        9.5950   -2.7510    6.5410 O.co2  19  A19        -0.4373
    108  P          8.1070   -0.3320    1.2970 P.3    20  U20         0.2141
    109  C5'        6.3600    1.3370    0.2860 C.3    20  U20         0.1812
    110  O5'        7.4470    1.1110    1.1780 O.3    20  U20        -0.3114
    111  C4'        5.8370    2.7430    0.4420 C.3    20  U20         0.1773
    112  O4'        5.1850    2.8750    1.7310 O.3    20  U20        -0.3307
    113  C3'        6.8850    3.8410    0.4700 C.3    20  U20         0.1860
    114  O3'        7.2950    4.1950   -0.8420 O.3    20  U20        -0.3112
    115  C2'        6.1190    4.9750    1.1340 C.3    20  U20         0.2309
    116  O2'        5.2360    5.6410    0.2530 O.3    20  U20        -0.2156
    117  C1'        5.3230    4.2100    2.1920 C.3    20  U20         0.2420
    118  N1         6.0090    4.1870    3.4880 N.ar   20  U20        -0.2534
    119  C2         5.8250    5.2720    4.3190 C.ar   20  U20         0.3546
    120  O2         5.1240    6.2230    4.0160 O.2    20  U20        -0.2443
    121  N3         6.4910    5.2040    5.5160 N.ar   20  U20        -0.1530
    122  C4         7.3070    4.1820    5.9550 C.ar   20  U20         0.2846
    123  O4         7.8410    4.2690    7.0590 O.2    20  U20        -0.2650
    124  C5         7.4480    3.0930    5.0350 C.ar   20  U20         0.0814
    125  C6         6.8070    3.1330    3.8610 C.ar   20  U20         0.0870
    126  OP1        8.5090   -0.7730   -0.0650 O.2    20  U20        -0.5172
    127  OP2        9.1170   -0.2850    2.3840 O.co2  20  U20        -0.4373
    128  P          8.8100    4.6600   -1.0980 P.3    21  A21         0.2141
    129  C5'        8.3110    7.2030   -0.7420 C.3    21  A21         0.1812
    130  O5'        8.9410    6.0180   -0.2750 O.3    21  A21        -0.3114
    131  C4'        8.4830    8.3240    0.2540 C.3    21  A21         0.1773
    132  O4'        7.8930    7.9760    1.5250 O.3    21  A21        -0.3307
    133  C3'        9.9070    8.6640    0.6500 C.3    21  A21         0.1860
    134  O3'       10.5330    9.4240   -0.3730 O.3    21  A21        -0.3112
    135  C2'        9.6800    9.4950    1.9090 C.3    21  A21         0.2309
    136  O2'        9.3700   10.8430    1.6230 O.3    21  A21        -0.2156
    137  C1'        8.4650    8.7950    2.5310 C.3    21  A21         0.2408
    138  N1         9.0330    8.6130    7.6200 N.ar   21  A21        -0.2040
    139  C2         8.5680    9.5600    6.7960 C.ar   21  A21         0.2016
    140  N3         8.4310    9.5320    5.4730 N.ar   21  A21        -0.2048
    141  C4         8.8310    8.3460    4.9810 C.ar   21  A21         0.1692
    142  C5         9.3220    7.2710    5.6990 C.ar   21  A21         0.1518
    143  C6         9.4290    7.4330    7.0930 C.ar   21  A21         0.1919
    144  N6         9.9030    6.4950    7.9160 N.pl3  21  A21        -0.1054
    145  N7         9.6250    6.2140    4.8530 N.ar   21  A21        -0.2193
    146  C8         9.3200    6.6690    3.6610 C.ar   21  A21         0.1816
    147  N9         8.8480    7.9570    3.6640 N.ar   21  A21        -0.2693
    148  OP1        8.9510    4.9790   -2.5400 O.2    21  A21        -0.5172
    149  OP2        9.7080    3.6520   -0.4740 O.co2  21  A21        -0.4373
    150  P         11.8160    8.8290   -1.1320 P.3    22  U22         0.2141
    151  C5'       14.0220    7.9040   -0.0370 C.3    22  U22         0.1812
    152  O5'       12.9410    8.8310   -0.0060 O.3    22  U22        -0.3114
    153  C4'       14.5820    7.7250    1.3540 C.3    22  U22         0.1773
    154  O4'       14.9860    9.0340    1.8510 O.3    22  U22        -0.3307
    155  C3'       13.5750    7.1920    2.3700 C.3    22  U22         0.1860
    156  O3'       14.2220    6.4570    3.4030 O.3    22  U22        -0.3112
    157  C2'       12.9880    8.4730    2.9470 C.3    22  U22         0.2309
    158  O2'       12.4360    8.2910    4.2330 O.3    22  U22        -0.2156
    159  C1'       14.2280    9.3660    2.9990 C.3    22  U22         0.2420
    160  N1        13.9000   10.7970    2.9380 N.ar   22  U22        -0.2534
    161  C2        14.1870   11.5740    4.0460 C.ar   22  U22         0.3546
    162  O2        14.7400   11.1340    5.0410 O.2    22  U22        -0.2443
    163  N3        13.8020   12.8880    3.9450 N.ar   22  U22        -0.1530
    164  C4        13.1860   13.4950    2.8690 C.ar   22  U22         0.2846
    165  O4        12.8250   14.6690    2.9630 O.2    22  U22        -0.2650
    166  C5        12.9530   12.6330    1.7520 C.ar   22  U22         0.0814
    167  C6        13.3080   11.3460    1.8230 C.ar   22  U22         0.0870
    168  OP1       12.2030    9.7970   -2.1850 O.2    22  U22        -0.5172
    169  OP2       11.5270    7.4180   -1.5010 O.co2  22  U22        -0.4373
    170  P         14.5240    4.8890    3.2110 P.3    23  A23         0.2141
    171  C5'       17.0320    5.5190    3.6580 C.3    23  A23         0.1812
    172  O5'       16.0700    4.8540    2.8340 O.3    23  A23        -0.3114
    173  C4'       18.2450    5.9110    2.8460 C.3    23  A23         0.1773
    174  O4'       17.8250    6.5850    1.6370 O.3    23  A23        -0.3307
    175  C3'       19.1690    6.9250    3.5030 C.3    23  A23         0.1860
    176  O3'       20.0750    6.2790    4.3910 O.3    23  A23        -0.3112
    177  C2'       19.9190    7.5100    2.3110 C.3    23  A23         0.2309
    178  O2'       21.0560    6.7410    1.9680 O.3    23  A23        -0.2156
    179  C1'       18.8690    7.4330    1.1960 C.3    23  A23         0.2408
    180  N1        17.1110   12.0500    2.7220 N.ar   23  A23        -0.2040
    181  C2        17.5990   11.0090    3.4100 C.ar   23  A23         0.2016
    182  N3        18.0370    9.8330    2.9620 N.ar   23  A23        -0.2048
    183  C4        17.9380    9.7690    1.6230 C.ar   23  A23         0.1692
    184  C5        17.4530   10.7550    0.7820 C.ar   23  A23         0.1518
    185  C6        17.0210   11.9510    1.3790 C.ar   23  A23         0.1919
    186  N6        16.5300   12.9870    0.6930 N.pl3  23  A23        -0.1054
    187  N7        17.4980   10.3370   -0.5410 N.ar   23  A23        -0.2193
    188  C8        17.9990    9.1300   -0.4730 C.ar   23  A23         0.1816
    189  N9        18.2920    8.7200    0.8050 N.ar   23  A23        -0.2693
    190  OP1       13.7380    4.3940    2.0460 O.2    23  A23        -0.5172
    191  OP2       14.3610    4.2370    4.5320 O.co2  23  A23        -0.4373
    192  P         19.9280    6.4930    5.9770 P.3    24  A24         0.2141
    193  C5'       19.7740    9.1160    5.8150 C.3    24  A24         0.1812
    194  O5'       20.4890    7.9630    6.2390 O.3    24  A24        -0.3114
    195  C4'       19.5690   10.0520    6.9790 C.3    24  A24         0.1773
    196  O4'       18.6240    9.4570    7.8990 O.3    24  A24        -0.3307
    197  C3'       20.7900   10.3100    7.8480 C.3    24  A24         0.1860
    198  O3'       21.5840   11.3440    7.2750 O.3    24  A24        -0.3112
    199  C2'       20.1460   10.7890    9.1460 C.3    24  A24         0.2309
    200  O2'       19.7580   12.1460    9.0710 O.3    24  A24        -0.2156
    201  C1'       18.8900    9.9170    9.2110 C.3    24  A24         0.2408
    202  N1        19.2150    8.2640   14.0670 N.ar   24  A24        -0.2040
    203  C2        19.1710    9.4930   13.5360 C.ar   24  A24         0.2016
    204  N3        19.1060    9.8560   12.2580 N.ar   24  A24        -0.2048
    205  C4        19.0830    8.7750   11.4610 C.ar   24  A24         0.1692
    206  C5        19.1260    7.4500   11.8570 C.ar   24  A24         0.1518
    207  C6        19.1960    7.1990   13.2370 C.ar   24  A24         0.1919
    208  N6        19.2400    5.9760   13.7670 N.pl3  24  A24        -0.1054
    209  N7        19.0850    6.6060   10.7550 N.ar   24  A24        -0.2193
    210  C8        19.0170    7.4260    9.7350 C.ar   24  A24         0.1816
    211  N9        19.0000    8.7540   10.0910 N.ar   24  A24        -0.2693
    212  OP1       20.8540    5.5490    6.6490 O.3    24  A24        -0.4373
    213  OP2       18.4780    6.4590    6.3110 O.co2  24  A24        -0.5172
    214  P         23.1370   11.0790    6.9370 P.3    25  U25         0.2141
    215  C5'       23.0770   10.1260    4.4800 C.3    25  U25         0.1812
    216  O5'       23.2180   11.2420    5.3530 O.3    25  U25        -0.3114
    217  C4'       22.5100   10.5700    3.1460 C.3    25  U25         0.1773
    218  O4'       21.1160   10.9460    3.3220 O.3    25  U25        -0.3307
    219  C3'       23.1310   11.7960    2.4870 C.3    25  U25         0.1860
    220  O3'       24.2960   11.4640    1.7360 O.3    25  U25        -0.3112
    221  C2'       22.0140   12.2250    1.5490 C.3    25  U25         0.2309
    222  O2'       21.9110   11.3860    0.4160 O.3    25  U25        -0.2156
    223  C1'       20.7900   12.0080    2.4390 C.3    25  U25         0.2420
    224  N1        20.4590   13.1970    3.2350 N.ar   25  U25        -0.2534
    225  C2        19.9210   14.2810    2.5670 C.ar   25  U25         0.3546
    226  O2        19.7020   14.2780    1.3680 O.2    25  U25        -0.2443
    227  N3        19.6460   15.3690    3.3530 N.ar   25  U25        -0.1530
    228  C4        19.8470   15.4820    4.7090 C.ar   25  U25         0.2846
    229  O4        19.5600   16.5360    5.2750 O.2    25  U25        -0.2650
    230  C5        20.3980   14.3170    5.3310 C.ar   25  U25         0.0814
    231  C6        20.6780   13.2390    4.5890 C.ar   25  U25         0.0870
    232  OP1       23.4970    9.6960    7.3370 O.2    25  U25        -0.5172
    233  OP2       23.8910   12.2240    7.5200 O.co2  25  U25        -0.4373
    234  P         25.3890   12.6010    1.4110 P.3    26  C26         0.2141
    235  C5'       24.6630   12.9130   -1.0970 C.3    26  C26         0.1812
    236  O5'       24.7540   13.4480    0.2200 O.3    26  C26        -0.3114
    237  C4'       24.1720   13.9720   -2.0610 C.3    26  C26         0.1773
    238  O4'       22.8050   14.3540   -1.7370 O.3    26  C26        -0.3307
    239  C3'       24.9090   15.3000   -2.0310 C.3    26  C26         0.1860
    240  O3'       26.1360   15.2360   -2.7400 O.3    26  C26        -0.3112
    241  C2'       23.8980   16.2030   -2.7200 C.3    26  C26         0.2309
    242  O2'       23.8230   15.9810   -4.1150 O.3    26  C26        -0.2156
    243  C1'       22.6090   15.7320   -2.0500 C.3    26  C26         0.2420
    244  N1        22.3690   16.4670   -0.7990 N.ar   26  C26        -0.2535
    245  C2        21.8070   17.7450   -0.8710 C.ar   26  C26         0.3532
    246  O2        21.5270   18.2170   -1.9860 O.2    26  C26        -0.2443
    247  N3        21.5850   18.4350    0.2700 N.ar   26  C26        -0.1739
    248  C4        21.9070   17.8980    1.4490 C.ar   26  C26         0.1759
    249  N4        21.6690   18.6160    2.5480 N.pl3  26  C26        -0.1070
    250  C5        22.4840   16.6000    1.5520 C.ar   26  C26         0.0566
    251  C6        22.6930   15.9240    0.4130 C.ar   26  C26         0.0850
    252  OP1       26.6050   11.9100    0.9040 O.2    26  C26        -0.5172
    253  OP2       25.4940   13.4950    2.5920 O.co2  26  C26        -0.4373
    254  P         27.3790   16.1300   -2.2480 P.3    27  G27         0.2141
    255  C5'       26.5140   18.0310   -3.8260 C.3    27  G27         0.1812
    256  O5'       26.8930   17.6230   -2.5170 O.3    27  G27        -0.3114
    257  C4'       26.1340   19.4910   -3.8340 C.3    27  G27         0.1773
    258  O4'       24.8700   19.6760   -3.1470 O.3    27  G27        -0.3307
    259  C3'       27.0680   20.4230   -3.0890 C.3    27  G27         0.1860
    260  O3'       28.2250   20.6970   -3.8630 O.3    27  G27        -0.3112
    261  C2'       26.1780   21.6440   -2.9010 C.3    27  G27         0.2309
    262  O2'       26.0540   22.4220   -4.0740 O.3    27  G27        -0.2156
    263  C1'       24.8340   20.9810   -2.5830 C.3    27  G27         0.2408
    264  N1        23.3680   23.3780    1.6350 N.ar   27  G27        -0.1709
    265  C2        23.4280   23.8370    0.3420 C.ar   27  G27         0.2606
    266  N2        23.0660   25.1170    0.1460 N.pl3  27  G27        -0.0859
    267  N3        23.8160   23.1000   -0.6870 N.ar   27  G27        -0.1918
    268  C4        24.1470   21.8460   -0.3150 C.ar   27  G27         0.1723
    269  C5        24.1210   21.2850    0.9430 C.ar   27  G27         0.1748
    270  C6        23.7000   22.0870    2.0420 C.ar   27  G27         0.3023
    271  O6        23.6080   21.7730    3.2370 O.2    27  G27        -0.2633
    272  N7        24.5470   19.9640    0.9020 N.ar   27  G27        -0.2173
    273  C8        24.8210   19.7530   -0.3580 C.ar   27  G27         0.1817
    274  N9        24.6070   20.8570   -1.1480 N.ar   27  G27        -0.2693
    275  OP1       28.5160   15.8310   -3.1520 O.2    27  G27        -0.5172
    276  OP2       27.5370   15.9520   -0.7830 O.co2  27  G27        -0.4373
    277  P         29.5540   21.2320   -3.1400 P.3    28  C28         0.2141
    278  C5'       29.5680   23.1930   -1.3970 C.3    28  C28         0.1812
    279  O5'       29.0830   22.6520   -2.6070 O.3    28  C28        -0.3114
    280  C4'       28.8830   24.5060   -1.1480 C.3    28  C28         0.1773
    281  O4'       27.4820   24.2740   -0.8430 O.3    28  C28        -0.3307
    282  C3'       29.3970   25.3300    0.0140 C.3    28  C28         0.1860
    283  O3'       30.5300   26.0750   -0.3960 O.3    28  C28        -0.3112
    284  C2'       28.1900   26.2110    0.2980 C.3    28  C28         0.2309
    285  O2'       28.0390   27.2440   -0.6630 O.3    28  C28        -0.2156
    286  C1'       27.0590   25.1890    0.1550 C.3    28  C28         0.2420
    287  N1        26.8340   24.4370    1.4000 N.ar   28  C28        -0.2535
    288  C2        26.2470   25.0980    2.4700 C.ar   28  C28         0.3532
    289  O2        25.8940   26.2730    2.3110 O.2    28  C28        -0.2443
    290  N3        26.0720   24.4470    3.6420 N.ar   28  C28        -0.1739
    291  C4        26.4530   23.1730    3.7590 C.ar   28  C28         0.1759
    292  N4        26.2820   22.5790    4.9390 N.pl3  28  C28        -0.1070
    293  C5        27.0310   22.4580    2.6680 C.ar   28  C28         0.0566
    294  C6        27.2010   23.1230    1.5170 C.ar   28  C28         0.0850
    295  OP1       30.5830   21.4630   -4.1870 O.2    28  C28        -0.5172
    296  OP2       29.8680   20.3470   -1.9810 O.co2  28  C28        -0.4373
    297  P         31.6440   26.4720    0.6820 P.3    29  G29         0.2141
    298  C5'       30.6380   28.8900    0.7450 C.3    29  G29         0.1812
    299  O5'       31.0070   27.7120    1.4450 O.3    29  G29        -0.3114
    300  C4'       29.9840   29.8480    1.6990 C.3    29  G29         0.1773
    301  O4'       28.7230   29.2680    2.1330 O.3    29  G29        -0.3307
    302  C3'       30.7550   30.0730    2.9910 C.3    29  G29         0.1860
    303  O3'       31.7230   31.1020    2.8190 O.3    29  G29        -0.3112
    304  C2'       29.6410   30.4930    3.9360 C.3    29  G29         0.2309
    305  O2'       29.2130   31.8240    3.7070 O.3    29  G29        -0.2156
    306  C1'       28.5250   29.5420    3.5090 C.3    29  G29         0.2408
    307  N1        27.4110   27.2790    7.8800 N.ar   29  G29        -0.1709
    308  C2        27.2660   28.5980    7.5070 C.ar   29  G29         0.2606
    309  N2        26.7510   29.4260    8.4310 N.pl3  29  G29        -0.0859
    310  N3        27.6040   29.0650    6.3220 N.ar   29  G29        -0.1918
    311  C4        28.1180   28.1030    5.5260 C.ar   29  G29         0.1723
    312  C5        28.3150   26.7680    5.8020 C.ar   29  G29         0.1748
    313  C6        27.9320   26.2710    7.0740 C.ar   29  G29         0.3023
    314  O6        28.0040   25.1150    7.5070 O.2    29  G29        -0.2633
    315  N7        28.8900   26.1230    4.7130 N.ar   29  G29        -0.2173
    316  C8        29.0130   27.0610    3.8120 C.ar   29  G29         0.1817
    317  N9        28.5570   28.2850    4.2450 N.ar   29  G29        -0.2693
    318  OP1       32.8580   26.9470   -0.0240 O.2    29  G29        -0.5172
    319  OP2       31.7580   25.3790    1.6830 O.co2  29  G29        -0.4373
    320  P         33.2020   30.9170    3.4140 P.3    30  U30         0.2141
    321  C5'       32.7760   32.6170    5.3620 C.3    30  U30         0.1812
    322  O5'       33.0520   31.2820    4.9550 O.3    30  U30        -0.3114
    323  C4'       32.3840   32.6420    6.8160 C.3    30  U30         0.1773
    324  O4'       31.1260   31.9310    6.9930 O.3    30  U30        -0.3307
    325  C3'       33.3170   31.8990    7.7570 C.3    30  U30         0.1860
    326  O3'       34.5170   32.6100    8.0500 O.3    30  U30        -0.3112
    327  C2'       32.4110   31.7230    8.9630 C.3    30  U30         0.2309
    328  O2'       32.2050   32.9380    9.6710 O.3    30  U30        -0.2156
    329  C1'       31.1130   31.3050    8.2700 C.3    30  U30         0.2420
    330  N1        31.0480   29.8490    8.0790 N.ar   30  U30        -0.2534
    331  C2        30.6220   29.1060    9.1560 C.ar   30  U30         0.3546
    332  O2        30.2800   29.6130   10.2090 O.2    30  U30        -0.2443
    333  N3        30.6200   27.7460    8.9590 N.ar   30  U30        -0.1530
    334  C4        31.0000   27.0720    7.8170 C.ar   30  U30         0.2846
    335  O4        31.0270   25.8360    7.8240 O.2    30  U30        -0.2650
    336  C5        31.4060   27.9140    6.7330 C.ar   30  U30         0.0814
    337  C6        31.4130   29.2460    6.8960 C.ar   30  U30         0.0870
    338  OP1       34.0790   31.9260    2.7570 O.2    30  U30        -0.5172
    339  OP2       33.5800   29.4730    3.3750 O.co2  30  U30        -0.4373
    340  P         35.8770   31.7910    8.3380 P.3    31  G31         0.2141
    341  C5'       35.5780   32.1600   10.9060 C.3    31  G31         0.1812
    342  O5'       35.6930   31.2510    9.8190 O.3    31  G31        -0.3114
    343  C4'       34.9640   31.4700   12.0910 C.3    31  G31         0.1773
    344  O4'       33.7020   30.8640   11.7000 O.3    31  G31        -0.3307
    345  C3'       35.7520   30.3020   12.6630 C.3    31  G31         0.1860
    346  O3'       36.8110   30.7530   13.5010 O.3    31  G31        -0.3112
    347  C2'       34.6580   29.6140   13.4620 C.3    31  G31         0.2309
    348  O2'       34.3220   30.3230   14.6380 O.3    31  G31        -0.2156
    349  C1'       33.5000   29.6840   12.4640 C.3    31  G31         0.2408
    350  N1        32.9830   24.6890   12.2120 N.ar   31  G31        -0.1709
    351  C2        32.7980   25.5430   13.2690 C.ar   31  G31         0.2606
    352  N2        32.4520   24.9950   14.4410 N.pl3  31  G31        -0.0859
    353  N3        32.9430   26.8520   13.1870 N.ar   31  G31        -0.1918
    354  C4        33.2990   27.2460   11.9490 C.ar   31  G31         0.1723
    355  C5        33.5070   26.4810   10.8260 C.ar   31  G31         0.1748
    356  C6        33.3460   25.0740   10.9230 C.ar   31  G31         0.3023
    357  O6        33.4920   24.2190   10.0380 O.2    31  G31        -0.2633
    358  N7        33.8650   27.2790    9.7460 N.ar   31  G31        -0.2173
    359  C8        33.8710   28.4930   10.2330 C.ar   31  G31         0.1817
    360  N9        33.5480   28.5360   11.5700 N.ar   31  G31        -0.2693
    361  OP1       37.0200   32.7360    8.3430 O.3    31  G31        -0.4373
    362  OP2       35.9040   30.6090    7.4360 O.co2  31  G31        -0.5172
    363  P         38.1130   29.8340   13.7250 P.3    32  G32         0.2141
    364  C5'       37.0030   28.7360   15.8360 C.3    32  G32         0.1812
    365  O5'       37.5790   28.5760   14.5460 O.3    32  G32        -0.3114
    366  C4'       36.5890   27.3940   16.3820 C.3    32  G32         0.1773
    367  O4'       35.5310   26.8430   15.5550 O.3    32  G32        -0.3307
    368  C3'       37.6600   26.3230   16.3340 C.3    32  G32         0.1860
    369  O3'       38.5450   26.4510   17.4320 O.3    32  G32        -0.3112
    370  C2'       36.8180   25.0600   16.4100 C.3    32  G32         0.2309
    371  O2'       36.2770   24.8050   17.6930 O.3    32  G32        -0.2156
    372  C1'       35.6900   25.4330   15.4540 C.3    32  G32         0.2408
    373  N1        36.2150   21.7590   12.0020 N.ar   32  G32        -0.1709
    374  C2        35.9250   21.6610   13.3370 C.ar   32  G32         0.2606
    375  N2        35.7400   20.4170   13.8150 N.pl3  32  G32        -0.0859
    376  N3        35.8260   22.6980   14.1490 N.ar   32  G32        -0.1918
    377  C4        36.0570   23.8620   13.5060 C.ar   32  G32         0.1723
    378  C5        36.3670   24.0650   12.1810 C.ar   32  G32         0.1748
    379  C6        36.4570   22.9460   11.3200 C.ar   32  G32         0.3023
    380  O6        36.7070   22.9220   10.1100 O.2    32  G32        -0.2633
    381  N7        36.5420   25.4190   11.9160 N.ar   32  G32        -0.2173
    382  C8        36.3320   26.0010   13.0650 C.ar   32  G32         0.1817
    383  N9        36.0190   25.1160   14.0700 N.ar   32  G32        -0.2693
    384  OP1       39.0340   30.5960   14.6120 O.3    32  G32        -0.4373
    385  OP2       38.6070   29.3210   12.4280 O.co2  32  G32        -0.5172
    386  P         40.0480   25.9390   17.2920 P.3    33  A33         0.2141
    387  C5'       39.3530   23.7620   18.5670 C.3    33  A33         0.1812
    388  O5'       39.9350   24.3500   17.4150 O.3    33  A33        -0.3114
    389  C4'       39.2800   22.2640   18.4050 C.3    33  A33         0.1773
    390  O4'       38.3840   21.9290   17.3160 O.3    33  A33        -0.3307
    391  C3'       40.5620   21.5750   17.9800 C.3    33  A33         0.1860
    392  O3'       41.4630   21.4600   19.0700 O.3    33  A33        -0.3112
    393  C2'       40.0220   20.2270   17.5240 C.3    33  A33         0.2309
    394  O2'       39.6450   19.4050   18.6140 O.3    33  A33        -0.2156
    395  C1'       38.7620   20.6680   16.7790 C.3    33  A33         0.2408
    396  N1        39.4070   18.1680   12.3550 N.ar   33  A33        -0.2040
    397  C2        39.2970   17.7520   13.6200 C.ar   33  A33         0.2016
    398  N3        39.1430   18.4650   14.7300 N.ar   33  A33        -0.2048
    399  C4        39.1100   19.7800   14.4480 C.ar   33  A33         0.1692
    400  C5        39.2110   20.3620   13.1990 C.ar   33  A33         0.1518
    401  C6        39.3580   19.4960   12.1030 C.ar   33  A33         0.1919
    402  N6        39.4390   19.9080   10.8350 N.pl3  33  A33        -0.1054
    403  N7        39.1510   21.7470   13.2970 N.ar   33  A33        -0.2193
    404  C8        39.0030   21.9670   14.5810 C.ar   33  A33         0.1816
    405  N9        38.9560   20.8160   15.3360 N.ar   33  A33        -0.2693
    406  OP1       40.7750   26.4460   18.4820 O.3    33  A33        -0.4373
    407  OP2       40.5730   26.2220   15.9430 O.co2  33  A33        -0.5172
    408  P         43.0390   21.5660   18.8100 P.3    34  U34         0.2141
    409  C5'       42.9820   18.9500   18.6170 C.3    34  U34         0.1812
    410  O5'       43.4080   20.1980   18.0850 O.3    34  U34        -0.3114
    411  C4'       43.1920   17.8620   17.5960 C.3    34  U34         0.1773
    412  O4'       42.4100   18.1710   16.4120 O.3    34  U34        -0.3307
    413  C3'       44.6330   17.6900   17.1280 C.3    34  U34         0.1860
    414  O3'       44.9490   16.3160   17.0460 O.3    34  U34        -0.3112
    415  C2'       44.6360   18.2950   15.7300 C.3    34  U34         0.2309
    416  O2'       45.5580   17.7010   14.8430 O.3    34  U34        -0.2156
    417  C1'       43.2130   18.0110   15.2640 C.3    34  U34         0.2420
    418  N1        42.8250   19.0240   14.2760 N.ar   34  U34        -0.2534
    419  C2        42.6940   18.6430   12.9560 C.ar   34  U34         0.3546
    420  O2        42.7890   17.4800   12.5790 O.2    34  U34        -0.2443
    421  N3        42.4450   19.6740   12.0850 N.ar   34  U34        -0.1530
    422  C4        42.3020   21.0090   12.4010 C.ar   34  U34         0.2846
    423  O4        42.1620   21.8320   11.4970 O.2    34  U34        -0.2650
    424  C5        42.4000   21.3060   13.7920 C.ar   34  U34         0.0814
    425  C6        42.6460   20.3270   14.6590 C.ar   34  U34         0.0870
    426  OP1       43.6990   21.5890   20.1390 O.3    34  U34        -0.4373
    427  OP2       43.3120   22.6590   17.8350 O.co2  34  U34        -0.5172
    428  P         46.0210   15.6890   18.0530 P.3    35  A35         0.2141
    429  C5'       44.5440   13.5280   18.2060 C.3    35  A35         0.1812
    430  O5'       45.7930   14.1260   17.8870 O.3    35  A35        -0.3114
    431  C4'       44.6390   12.0400   18.0090 C.3    35  A35         0.1773
    432  O4'       44.5460   11.7530   16.5900 O.3    35  A35        -0.3307
    433  C3'       45.9630   11.4560   18.4830 C.3    35  A35         0.1860
    434  O3'       45.7720   10.1800   19.0830 O.3    35  A35        -0.3112
    435  C2'       46.8050   11.3890   17.2120 C.3    35  A35         0.2309
    436  O2'       47.7460   10.3360   17.2290 O.3    35  A35        -0.2156
    437  C1'       45.7470   11.1610   16.1320 C.3    35  A35         0.2408
    438  N1        47.9360   10.6070   11.4880 N.ar   35  A35        -0.2040
    439  C2        47.7420    9.7430   12.4920 C.ar   35  A35         0.2016
    440  N3        47.1590    9.9410   13.6750 N.ar   35  A35        -0.2048
    441  C4        46.7340   11.2130   13.7870 C.ar   35  A35         0.1692
    442  C5        46.8560   12.2120   12.8380 C.ar   35  A35         0.1518
    443  C6        47.4960   11.8780   11.6340 C.ar   35  A35         0.1919
    444  N6        47.6910   12.7450   10.6350 N.pl3  35  A35        -0.1054
    445  N7        46.2910   13.3940   13.2920 N.ar   35  A35        -0.2193
    446  C8        45.8530   13.0940   14.4890 C.ar   35  A35         0.1816
    447  N9        46.0940   11.7920   14.8580 N.ar   35  A35        -0.2693
    448  OP1       45.6430   16.0960   19.4250 O.3    35  A35        -0.4373
    449  OP2       47.3790   15.9890   17.5550 O.co2  35  A35        -0.5172
    450  P         45.7290   10.0570   20.6830 P.3    36  U36         0.2141
    451  C5'       43.1990   10.3370   21.3810 C.3    36  U36         0.1812
    452  O5'       44.4690   10.9380   21.1070 O.3    36  U36        -0.3114
    453  C4'       42.4420   11.1510   22.4130 C.3    36  U36         0.1773
    454  O4'       43.2050   11.2130   23.6510 O.3    36  U36        -0.3307
    455  C3'       42.1580   12.6020   22.0370 C.3    36  U36         0.1860
    456  O3'       40.9380   12.9990   22.6380 O.3    36  U36        -0.3112
    457  C2'       43.2940   13.3410   22.7270 C.3    36  U36         0.2309
    458  O2'       42.9910   14.7020   22.9700 O.3    36  U36        -0.2156
    459  C1'       43.3730   12.5650   24.0390 C.3    36  U36         0.2420
    460  N1        44.6710   12.6820   24.7190 N.ar   36  U36        -0.2534
    461  C2        44.6910   13.2610   25.9800 C.ar   36  U36         0.3546
    462  O2        43.6860   13.6540   26.5410 O.2    36  U36        -0.2443
    463  N3        45.9350   13.3490   26.5560 N.ar   36  U36        -0.1530
    464  C4        47.1280   12.9190   26.0190 C.ar   36  U36         0.2846
    465  O4        48.1670   13.0480   26.6700 O.2    36  U36        -0.2650
    466  C5        47.0220   12.3280   24.7200 C.ar   36  U36         0.0814
    467  C6        45.8280   12.2340   24.1280 C.ar   36  U36         0.0870
    468  OP1       46.9430   10.7200   21.2060 O.3    36  U36        -0.4373
    469  OP2       45.4610    8.6270   21.0190 O.co2  36  U36        -0.5172
    470  P         39.5490   12.7700   21.8700 P.3    37  G37         0.2141
    471  C5'       39.5250   15.2470   20.9890 C.3    37  G37         0.1812
    472  O5'       39.5620   13.8570   20.7020 O.3    37  G37        -0.3114
    473  C4'       39.4380   16.0250   19.6990 C.3    37  G37         0.1773
    474  O4'       40.6790   15.8530   18.9630 O.3    37  G37        -0.3307
    475  C3'       38.3640   15.5250   18.7430 C.3    37  G37         0.1860
    476  O3'       37.1200   16.1500   19.0240 O.3    37  G37        -0.3112
    477  C2'       38.9170   15.9570   17.3900 C.3    37  G37         0.2309
    478  O2'       38.7460   17.3520   17.1780 O.3    37  G37        -0.2156
    479  C1'       40.4050   15.6630   17.5810 C.3    37  G37         0.2408
    480  N1        42.2630   12.6140   13.9630 N.ar   37  G37        -0.1709
    481  C2        42.0100   13.9610   13.9180 C.ar   37  G37         0.2606
    482  N2        42.2940   14.5680   12.7570 N.pl3  37  G37        -0.0859
    483  N3        41.5170   14.6570   14.9340 N.ar   37  G37        -0.1918
    484  C4        41.2950   13.8810   16.0180 C.ar   37  G37         0.1723
    485  C5        41.5140   12.5270   16.1630 C.ar   37  G37         0.1748
    486  C6        42.0400   11.7970   15.0660 C.ar   37  G37         0.3023
    487  O6        42.3000   10.5890   14.9980 O.2    37  G37        -0.2633
    488  N7        41.1570   12.1030   17.4350 N.ar   37  G37        -0.2173
    489  C8        40.7330   13.1830   18.0300 C.ar   37  G37         0.1817
    490  N9        40.7920   14.3000   17.2250 N.ar   37  G37        -0.2693
    491  OP1       38.4710   13.1030   22.8200 O.3    37  G37        -0.4373
    492  OP2       39.5530   11.4310   21.2100 O.co2  37  G37        -0.5172
    493  P         35.7540   15.3620   18.7370 P.3    38  G38         0.2141
    494  C5'       35.4640   16.5450   16.4150 C.3    38  G38         0.1812
    495  O5'       35.6580   15.3410   17.1490 O.3    38  G38        -0.3114
    496  C4'       35.6590   16.2820   14.9430 C.3    38  G38         0.1773
    497  O4'       37.0350   15.9020   14.7070 O.3    38  G38        -0.3307
    498  C3'       34.8380   15.1330   14.3820 C.3    38  G38         0.1860
    499  O3'       33.5420   15.5910   14.0220 O.3    38  G38        -0.3112
    500  C2'       35.6590   14.7270   13.1630 C.3    38  G38         0.2309
    501  O2'       35.4170   15.5090   12.0100 O.3    38  G38        -0.2156
    502  C1'       37.0910   14.9480   13.6620 C.3    38  G38         0.2408
    503  N1        39.8270   10.8370   12.5930 N.ar   38  G38        -0.1709
    504  C2        39.6410   11.9800   11.8530 C.ar   38  G38         0.2606
    505  N2        40.2080   11.9910   10.6390 N.pl3  38  G38        -0.0859
    506  N3        38.9500   13.0260   12.2760 N.ar   38  G38        -0.1918
    507  C4        38.4530   12.8360   13.5150 C.ar   38  G38         0.1723
    508  C5        38.5930   11.7420   14.3430 C.ar   38  G38         0.1748
    509  C6        39.3240   10.6220   13.8720 C.ar   38  G38         0.3023
    510  O6        39.5280    9.5470   14.4410 O.2    38  G38        -0.2633
    511  N7        37.9420   11.9500   15.5510 N.ar   38  G38        -0.2173
    512  C8        37.4080   13.1380   15.4270 C.ar   38  G38         0.1817
    513  N9        37.6440   13.7060   14.1960 N.ar   38  G38        -0.2693
    514  OP1       34.6290   16.1580   19.2770 O.3    38  G38        -0.4373
    515  OP2       35.9390   13.9480   19.1780 O.co2  38  G38        -0.5172
    516  P         32.2470   14.7320   14.4220 P.3    39  C39         0.2141
    517  C5'       30.6450   16.6580   15.1960 C.3    39  C39         0.1812
    518  O5'       31.5060   15.5820   15.5450 O.3    39  C39        -0.3114
    519  C4'       30.9950   17.8690   16.0160 C.3    39  C39         0.1773
    520  O4'       32.3240   18.3210   15.6500 O.3    39  C39        -0.3307
    521  C3'       30.0850   19.0660   15.7980 C.3    39  C39         0.1860
    522  O3'       28.9940   18.9920   16.7060 O.3    39  C39        -0.3112
    523  C2'       31.0090   20.2240   16.1480 C.3    39  C39         0.2309
    524  O2'       31.1420   20.4000   17.5420 O.3    39  C39        -0.2156
    525  C1'       32.3370   19.7370   15.5680 C.3    39  C39         0.2420
    526  N1        32.5230   20.1270   14.1630 N.ar   39  C39        -0.2535
    527  C2        32.6210   21.4800   13.8710 C.ar   39  C39         0.3532
    528  O2        32.5590   22.2890   14.8040 O.2    39  C39        -0.2443
    529  N3        32.7800   21.8740   12.5890 N.ar   39  C39        -0.1739
    530  C4        32.8450   20.9650   11.6160 C.ar   39  C39         0.1759
    531  N4        33.0020   21.4020   10.3610 N.pl3  39  C39        -0.1070
    532  C5        32.7550   19.5690   11.8860 C.ar   39  C39         0.0566
    533  C6        32.5970   19.1980   13.1630 C.ar   39  C39         0.0850
    534  OP1       32.7040   13.4680   15.0630 O.3    39  C39        -0.4373
    535  OP2       31.3670   14.6800   13.2290 O.co2  39  C39        -0.5172
    536  P         27.5990   19.6910   16.3400 P.3    40  A40         0.2141
    537  C5'       28.0190   21.8670   17.7440 C.3    40  A40         0.1812
    538  O5'       27.9110   21.2490   16.4710 O.3    40  A40        -0.3114
    539  C4'       28.0570   23.3630   17.5780 C.3    40  A40         0.1773
    540  O4'       29.2810   23.7310   16.8910 O.3    40  A40        -0.3307
    541  C3'       26.9620   23.9500   16.7020 C.3    40  A40         0.1860
    542  O3'       25.7570   24.1170   17.4350 O.3    40  A40        -0.3112
    543  C2'       27.5860   25.2800   16.3150 C.3    40  A40         0.2309
    544  O2'       27.5750   26.2060   17.3890 O.3    40  A40        -0.2156
    545  C1'       29.0170   24.8330   16.0310 C.3    40  A40         0.2408
    546  N1        29.9670   26.2690   11.2040 N.ar   40  A40        -0.2040
    547  C2        29.7770   26.9670   12.3320 C.ar   40  A40         0.2016
    548  N3        29.5090   26.5280   13.5570 N.ar   40  A40        -0.2048
    549  C4        29.4310   25.1850   13.5690 C.ar   40  A40         0.1692
    550  C5        29.5970   24.3320   12.4950 C.ar   40  A40         0.1518
    551  C6        29.8930   24.9220   11.2530 C.ar   40  A40         0.1919
    552  N6        30.1150   24.2410   10.1270 N.pl3  40  A40        -0.1054
    553  N7        29.4300   23.0110   12.8900 N.ar   40  A40        -0.2193
    554  C8        29.1860   23.0940   14.1750 C.ar   40  A40         0.1816
    555  N9        29.1930   24.3820   14.6550 N.ar   40  A40        -0.2693
    556  OP1       26.6090   19.3430   17.3900 O.3    40  A40        -0.4373
    557  OP2       27.2930   19.4290   14.9220 O.co2  40  A40        -0.5172
    558  P         24.3460   23.9970   16.6920 P.3    41  C41         0.2141
    559  C5'       24.1860   26.6040   16.4910 C.3    41  C41         0.1812
    560  O5'       24.2560   25.3400   15.8410 O.3    41  C41        -0.3114
    561  C4'       24.3890   27.7070   15.4860 C.3    41  C41         0.1773
    562  O4'       25.7250   27.6140   14.9170 O.3    41  C41        -0.3307
    563  C3'       23.5130   27.6540   14.2480 C.3    41  C41         0.1860
    564  O3'       22.1900   28.1010   14.5030 O.3    41  C41        -0.3112
    565  C2'       24.2770   28.5980   13.3360 C.3    41  C41         0.2309
    566  O2'       24.1680   29.9470   13.7650 O.3    41  C41        -0.2156
    567  C1'       25.7030   28.1060   13.5800 C.3    41  C41         0.2420
    568  N1        26.0080   27.0060   12.6490 N.ar   41  C41        -0.2535
    569  C2        26.4150   27.3440   11.3640 C.ar   41  C41         0.3532
    570  O2        26.5190   28.5470   11.0720 O.2    41  C41        -0.2443
    571  N3        26.6770   26.3690   10.4690 N.ar   41  C41        -0.1739
    572  C4        26.5460   25.0890   10.8220 C.ar   41  C41         0.1759
    573  N4        26.8120   24.1640    9.9020 N.pl3  41  C41        -0.1070
    574  C5        26.1360   24.7080   12.1320 C.ar   41  C41         0.0566
    575  C6        25.8820   25.6900   13.0120 C.ar   41  C41         0.0850
    576  OP1       23.3080   24.0330   17.7460 O.3    41  C41        -0.4373
    577  OP2       24.3690   22.8730   15.7180 O.co2  41  C41        -0.5172
    578  P         20.9680   27.4520   13.6970 P.3    42  G42         0.2141
    579  C5'       20.9970   29.4780   12.0550 C.3    42  G42         0.1812
    580  O5'       21.0910   28.0700   12.2390 O.3    42  G42        -0.3114
    581  C4'       21.4840   29.8610   10.6830 C.3    42  G42         0.1773
    582  O4'       22.8520   29.4140   10.5000 O.3    42  G42        -0.3307
    583  C3'       20.7750   29.2140    9.5090 C.3    42  G42         0.1860
    584  O3'       19.5200   29.8250    9.2510 O.3    42  G42        -0.3112
    585  C2'       21.7750   29.4930    8.4000 C.3    42  G42         0.2309
    586  O2'       21.7720   30.8540    8.0100 O.3    42  G42        -0.2156
    587  C1'       23.0860   29.1800    9.1210 C.3    42  G42         0.2408
    588  N1        24.9180   25.7790    5.8690 N.ar   42  G42        -0.1709
    589  C2        24.6920   27.1240    5.7000 C.ar   42  G42         0.2606
    590  N2        24.9630   27.6250    4.4870 N.pl3  42  G42        -0.0859
    591  N3        24.2250   27.9150    6.6500 N.ar   42  G42        -0.1918
    592  C4        23.9800   27.2430    7.7940 C.ar   42  G42         0.1723
    593  C5        24.1610   25.9040    8.0650 C.ar   42  G42         0.1748
    594  C6        24.6790   25.0670    7.0390 C.ar   42  G42         0.3023
    595  O6        24.9240   23.8580    7.0790 O.2    42  G42        -0.2633
    596  N7        23.7800   25.6110    9.3690 N.ar   42  G42        -0.2173
    597  C8        23.3820   26.7570    9.8550 C.ar   42  G42         0.1817
    598  N9        23.4690   27.7840    8.9430 N.ar   42  G42        -0.2693
    599  OP1       19.7100   27.9200   14.3140 O.3    42  G42        -0.4373
    600  OP2       21.2280   25.9780   13.5810 O.co2  42  G42        -0.5172
    601  P         18.4270   29.0510    8.3660 P.3    43  C43         0.2141
    602  C5'       19.1970   30.3710    6.2310 C.3    43  C43         0.1812
    603  O5'       19.0050   29.1180    6.8830 O.3    43  C43        -0.3114
    604  C4'       19.7560   30.1610    4.8440 C.3    43  C43         0.1773
    605  O4'       21.0640   29.5360    4.9260 O.3    43  C43        -0.3307
    606  C3'       18.9760   29.2120    3.9520 C.3    43  C43         0.1860
    607  O3'       17.8490   29.8590    3.3810 O.3    43  C43        -0.3112
    608  C2'       20.0230   28.8640    2.9040 C.3    43  C43         0.2309
    609  O2'       20.2220   29.8910    1.9530 O.3    43  C43        -0.2156
    610  C1'       21.2730   28.7300    3.7750 C.3    43  C43         0.2420
    611  N1        21.5130   27.3450    4.2080 N.ar   43  C43        -0.2535
    612  C2        22.1130   26.4590    3.3080 C.ar   43  C43         0.3532
    613  O2        22.4140   26.8680    2.1760 O.2    43  C43        -0.2443
    614  N3        22.3500   25.1840    3.6940 N.ar   43  C43        -0.1739
    615  C4        22.0150   24.7850    4.9220 C.ar   43  C43         0.1759
    616  N4        22.2900   23.5190    5.2670 N.pl3  43  C43        -0.1070
    617  C5        21.3920   25.6650    5.8560 C.ar   43  C43         0.0566
    618  C6        21.1620   26.9250    5.4600 C.ar   43  C43         0.0850
    619  OP1       17.1670   29.8380    8.4150 O.2    43  C43        -0.5172
    620  OP2       18.4230   27.6270    8.7980 O.co2  43  C43        -0.4373
    621  P         16.5210   29.0100    3.0610 P.3    44  A44         0.2141
    622  C5'       17.1100   28.5880    0.5380 C.3    44  A44         0.1812
    623  O5'       16.9490   28.0630    1.8510 O.3    44  A44        -0.3114
    624  C4'       17.7130   27.5460   -0.3790 C.3    44  A44         0.1773
    625  O4'       19.0230   27.1480    0.1180 O.3    44  A44        -0.3307
    626  C3'       16.9840   26.2180   -0.4960 C.3    44  A44         0.1860
    627  O3'       15.8490   26.2820   -1.3540 O.3    44  A44        -0.3112
    628  C2'       18.0840   25.3510   -1.0870 C.3    44  A44         0.2309
    629  O2'       18.3520   25.6600   -2.4400 O.3    44  A44        -0.2156
    630  C1'       19.2660   25.7880   -0.2240 C.3    44  A44         0.2408
    631  N1        20.5170   21.2840    1.9000 N.ar   44  A44        -0.2040
    632  C2        20.6130   21.7440    0.6480 C.ar   44  A44         0.2016
    633  N3        20.2790   22.9360    0.1610 N.ar   44  A44        -0.2048
    634  C4        19.7840   23.7220    1.1330 C.ar   44  A44         0.1692
    635  C5        19.6260   23.3920    2.4650 C.ar   44  A44         0.1518
    636  C6        20.0190   22.1010    2.8540 C.ar   44  A44         0.1919
    637  N6        19.9280   21.6450    4.1060 N.pl3  44  A44        -0.1054
    638  N7        19.0860   24.4550    3.1740 N.ar   44  A44        -0.2193
    639  C8        18.9320   25.3900    2.2690 C.ar   44  A44         0.1816
    640  N9        19.3280   25.0100    1.0100 N.ar   44  A44        -0.2693
    641  OP1       15.4910   29.9620    2.5660 O.2    44  A44        -0.5172
    642  OP2       16.2190   28.1510    4.2320 O.co2  44  A44        -0.4373
    643  P         14.6180   25.2720   -1.1180 P.3    45  A45         0.2141
    644  C5'       15.5470   23.6550   -2.9590 C.3    45  A45         0.1812
    645  O5'       15.1720   23.8590   -1.6030 O.3    45  A45        -0.3114
    646  C4'       16.2350   22.3220   -3.1200 C.3    45  A45         0.1773
    647  O4'       17.2950   22.1890   -2.1400 O.3    45  A45        -0.3307
    648  C3'       15.3830   21.0950   -2.8610 C.3    45  A45         0.1860
    649  O3'       14.5830   20.7960   -3.9950 O.3    45  A45        -0.3112
    650  C2'       16.4470   20.0260   -2.6420 C.3    45  A45         0.2309
    651  O2'       16.9910   19.5420   -3.8530 O.3    45  A45        -0.2156
    652  C1'       17.5180   20.8130   -1.8820 C.3    45  A45         0.2408
    653  N1        18.5440   17.5530    1.9460 N.ar   45  A45        -0.2040
    654  C2        18.6620   17.4480    0.6180 C.ar   45  A45         0.2016
    655  N3        18.3670   18.3380   -0.3270 N.ar   45  A45        -0.2048
    656  C4        17.8830   19.4660    0.2210 C.ar   45  A45         0.1692
    657  C5        17.6960   19.7210    1.5660 C.ar   45  A45         0.1518
    658  C6        18.0600   18.7010    2.4650 C.ar   45  A45         0.1919
    659  N6        17.9590   18.8090    3.7920 N.pl3  45  A45        -0.1054
    660  N7        17.1700   20.9910    1.7560 N.ar   45  A45        -0.2193
    661  C8        17.0590   21.4700    0.5400 C.ar   45  A45         0.1816
    662  N9        17.4790   20.6020   -0.4360 N.ar   45  A45        -0.2693
    663  OP1       13.5080   25.6670   -2.0230 O.2    45  A45        -0.5172
    664  OP2       14.3770   25.1840    0.3450 O.co2  45  A45        -0.4373
    665  P         13.1970   20.0080   -3.8040 P.3    46  G46         0.2141
    666  C5'       14.2660   17.6220   -4.0320 C.3    46  G46         0.1812
    667  O5'       13.6290   18.5940   -3.2110 O.3    46  G46        -0.3114
    668  C4'       14.6400   16.4110   -3.2110 C.3    46  G46         0.1773
    669  O4'       15.5560   16.8110   -2.1570 O.3    46  G46        -0.3307
    670  C3'       13.4970   15.7360   -2.4690 C.3    46  G46         0.1860
    671  O3'       12.8300   14.8110   -3.3210 O.3    46  G46        -0.3112
    672  C2'       14.2390   15.0080   -1.3530 C.3    46  G46         0.2309
    673  O2'       14.8530   13.8100   -1.7850 O.3    46  G46        -0.2156
    674  C1'       15.3290   16.0200   -1.0020 C.3    46  G46         0.2408
    675  N1        15.5120   16.8110    4.0130 N.ar   46  G46        -0.1709
    676  C2        15.9730   15.7420    3.2840 C.ar   46  G46         0.2606
    677  N2        16.5680   14.7660    3.9850 N.pl3  46  G46        -0.0859
    678  N3        15.8550   15.6390    1.9670 N.ar   46  G46        -0.1918
    679  C4        15.2290   16.7090    1.4320 C.ar   46  G46         0.1723
    680  C5        14.7310   17.8240    2.0720 C.ar   46  G46         0.1748
    681  C6        14.8680   17.9240    3.4820 C.ar   46  G46         0.3023
    682  O6        14.5030   18.8390    4.2290 O.2    46  G46        -0.2633
    683  N7        14.1550   18.6990    1.1600 N.ar   46  G46        -0.2173
    684  C8        14.3160   18.1150    0.0050 C.ar   46  G46         0.1817
    685  N9        14.9680   16.9090    0.0960 N.ar   46  G46        -0.2693
    686  OP1       12.6160   19.7960   -5.1550 O.2    46  G46        -0.5172
    687  OP2       12.4020   20.7060   -2.7640 O.co2  46  G46        -0.4373
    688  P         11.2740   15.0260   -3.6710 P.3    47  U47         0.2141
    689  C5'       10.6180   12.9000   -2.2820 C.3    47  U47         0.1812
    690  O5'       10.5050   14.3060   -2.4780 O.3    47  U47        -0.3114
    691  C4'        9.6750   12.4470   -1.1940 C.3    47  U47         0.1773
    692  O4'       10.1320   12.9710    0.0840 O.3    47  U47        -0.3307
    693  C3'        8.2290   12.9060   -1.3460 C.3    47  U47         0.1860
    694  O3'        7.3580   11.8980   -0.8490 O.3    47  U47        -0.3112
    695  C2'        8.1720   14.1310   -0.4410 C.3    47  U47         0.2309
    696  O2'        6.8710   14.4060    0.0400 O.3    47  U47        -0.2156
    697  C1'        9.0830   13.6880    0.7020 C.3    47  U47         0.2420
    698  N1         9.6650   14.8080    1.4560 N.ar   47  U47        -0.2534
    699  C2         9.6420   14.7330    2.8350 C.ar   47  U47         0.3546
    700  O2         9.2000   13.7730    3.4370 O.2    47  U47        -0.2443
    701  N3        10.1670   15.8230    3.4830 N.ar   47  U47        -0.1530
    702  C4        10.7100   16.9510    2.9050 C.ar   47  U47         0.2846
    703  O4        11.1210   17.8620    3.6260 O.2    47  U47        -0.2650
    704  C5        10.7160   16.9450    1.4750 C.ar   47  U47         0.0814
    705  C6        10.2050   15.8990    0.8160 C.ar   47  U47         0.0870
    706  OP1       11.0000   14.2680   -4.9190 O.2    47  U47        -0.5172
    707  OP2       10.9590   16.4740   -3.6100 O.co2  47  U47        -0.4373
    708  P          6.5260   10.9820   -1.8730 P.3    48  U48         0.2141
    709  C5'        4.4970   12.6330   -1.6560 C.3    48  U48         0.1812
    710  O5'        5.4460   11.9790   -2.4900 O.3    48  U48        -0.3114
    711  C4'        3.7760   13.7130   -2.4290 C.3    48  U48         0.1773
    712  O4'        2.9220   13.0960   -3.4310 O.3    48  U48        -0.3307
    713  C3'        2.8740   14.6090   -1.5820 C.3    48  U48         0.1860
    714  O3'        3.0630   15.9790   -1.9200 O.3    48  U48        -0.3112
    715  C2'        1.4630   14.1410   -1.9390 C.3    48  U48         0.2309
    716  O2'        0.4970   15.1690   -1.8690 O.3    48  U48        -0.2156
    717  C1'        1.6440   13.6910   -3.3860 C.3    48  U48         0.2420
    718  N1         0.6500   12.6930   -3.8070 N.ar   48  U48        -0.2534
    719  C2        -0.2410   13.0510   -4.8040 C.ar   48  U48         0.3546
    720  O2        -0.2260   14.1430   -5.3450 O.2    48  U48        -0.2443
    721  N3        -1.1530   12.0820   -5.1410 N.ar   48  U48        -0.1530
    722  C4        -1.2630   10.8200   -4.5980 C.ar   48  U48         0.2846
    723  O4        -2.1490   10.0620   -5.0020 O.2    48  U48        -0.2650
    724  C5        -0.3010   10.5230   -3.5800 C.ar   48  U48         0.0814
    725  C6         0.6010   11.4480   -3.2290 C.ar   48  U48         0.0870
    726  OP1        5.8240    9.9780   -1.0370 O.3    48  U48        -0.4373
    727  OP2        7.4110   10.5280   -2.9750 O.co2  48  U48        -0.5172
    728  P          4.3540   16.7680   -1.3740 P.3    49  U49         0.2141
    729  C5'        3.3330   16.8760    1.0410 C.3    49  U49         0.1812
    730  O5'        4.3810   16.4420    0.1830 O.3    49  U49        -0.3114
    731  C4'        3.7340   16.6890    2.4830 C.3    49  U49         0.1773
    732  O4'        3.6050   15.2890    2.8410 O.3    49  U49        -0.3307
    733  C3'        5.1730   17.0860    2.8130 C.3    49  U49         0.1860
    734  O3'        5.1920   17.8880    3.9860 O.3    49  U49        -0.3112
    735  C2'        5.8690   15.7480    3.0610 C.3    49  U49         0.2309
    736  O2'        6.9060   15.8300    4.0180 O.3    49  U49        -0.2156
    737  C1'        4.7190   14.9130    3.6140 C.3    49  U49         0.2420
    738  N1         4.8990   13.4600    3.4970 N.ar   49  U49        -0.2534
    739  C2         4.5800   12.6950    4.6000 C.ar   49  U49         0.3546
    740  O2         4.1780   13.1790    5.6420 O.2    49  U49        -0.2443
    741  N3         4.7480   11.3440    4.4390 N.ar   49  U49        -0.1530
    742  C4         5.1930   10.6940    3.3090 C.ar   49  U49         0.2846
    743  O4         5.2570    9.4640    3.3060 O.2    49  U49        -0.2650
    744  C5         5.5140   11.5550    2.2120 C.ar   49  U49         0.0814
    745  C6         5.3590   12.8780    2.3410 C.ar   49  U49         0.0870
    746  OP1        4.0880   18.2210   -1.5380 O.3    49  U49        -0.4373
    747  OP2        5.5690   16.1700   -1.9870 O.co2  49  U49        -0.5172
    748  P          6.3360   19.0000    4.1720 P.3    50  C50         0.2141
    749  C5'        4.9340   20.1910    6.0380 C.3    50  C50         0.1812
    750  O5'        6.1260   19.5090    5.6640 O.3    50  C50        -0.3114
    751  C4'        4.6290   19.9410    7.4920 C.3    50  C50         0.1773
    752  O4'        4.0950   18.6000    7.6470 O.3    50  C50        -0.3307
    753  C3'        5.8360   19.9730    8.4130 C.3    50  C50         0.1860
    754  O3'        6.1060   21.3090    8.8180 O.3    50  C50        -0.3112
    755  C2'        5.3640   19.1220    9.5860 C.3    50  C50         0.2309
    756  O2'        4.5490   19.8350   10.4920 O.3    50  C50        -0.2156
    757  C1'        4.5380   18.0490    8.8740 C.3    50  C50         0.2420
    758  N1         5.3030   16.8260    8.5870 N.ar   50  C50        -0.2535
    759  C2         5.7650   16.0600    9.6580 C.ar   50  C50         0.3532
    760  O2         5.5260   16.4400   10.8120 O.2    50  C50        -0.2443
    761  N3         6.4600   14.9260    9.4110 N.ar   50  C50        -0.1739
    762  C4         6.7010   14.5520    8.1520 C.ar   50  C50         0.1759
    763  N4         7.3870   13.4210    7.9530 N.pl3  50  C50        -0.1070
    764  C5         6.2490   15.3200    7.0390 C.ar   50  C50         0.0566
    765  C6         5.5580   16.4400    7.3000 C.ar   50  C50         0.0850
    766  OP1        6.0390   20.1230    3.2460 O.2    50  C50        -0.5172
    767  OP2        7.6520   18.3140    4.0970 O.co2  50  C50        -0.4373
    768  P          7.6120   21.8640    8.7770 P.3    51  U51         0.2141
    769  C5'        8.2820   20.9690   11.1480 C.3    51  U51         0.1812
    770  O5'        8.4130   20.8750    9.7340 O.3    51  U51        -0.3114
    771  C4'        8.8380   19.7310   11.8080 C.3    51  U51         0.1773
    772  O4'        8.1990   18.5500   11.2540 O.3    51  U51        -0.3307
    773  C3'       10.3130   19.4540   11.5800 C.3    51  U51         0.1860
    774  O3'       11.1320   20.2500   12.4280 O.3    51  U51        -0.3112
    775  C2'       10.3910   17.9790   11.9480 C.3    51  U51         0.2309
    776  O2'       10.3490   17.7620   13.3430 O.3    51  U51        -0.2156
    777  C1'        9.1000   17.4540   11.3180 C.3    51  U51         0.2420
    778  N1         9.3020   16.9370    9.9580 N.ar   51  U51        -0.2534
    779  C2         9.8640   15.6820    9.8320 C.ar   51  U51         0.3546
    780  O2        10.2090   15.0140   10.7890 O.2    51  U51        -0.2443
    781  N3        10.0110   15.2400    8.5410 N.ar   51  U51        -0.1530
    782  C4         9.6650   15.9100    7.3890 C.ar   51  U51         0.2846
    783  O4         9.8250   15.3610    6.2980 O.2    51  U51        -0.2650
    784  C5         9.1010   17.2080    7.6020 C.ar   51  U51         0.0814
    785  C6         8.9430   17.6660    8.8490 C.ar   51  U51         0.0870
    786  OP1        7.6210   23.2150    9.3970 O.3    51  U51        -0.4373
    787  OP2        8.1230   21.6880    7.3950 O.co2  51  U51        -0.5172
    788  P         12.6500   20.5570   12.0050 P.3    52  A52         0.2141
    789  C5'       13.4640   18.4560   13.3610 C.3    52  A52         0.1812
    790  O5'       13.3770   19.1430   12.1160 O.3    52  A52        -0.3114
    791  C4'       14.0460   17.0780   13.1510 C.3    52  A52         0.1773
    792  O4'       13.1700   16.3400   12.2610 O.3    52  A52        -0.3307
    793  C3'       15.4210   17.0490   12.4960 C.3    52  A52         0.1860
    794  O3'       16.4290   17.0510   13.5050 O.3    52  A52        -0.3112
    795  C2'       15.4120   15.7220   11.7380 C.3    52  A52         0.2309
    796  O2'       15.7870   14.6240   12.5460 O.3    52  A52        -0.2156
    797  C1'       13.9390   15.5860   11.3460 C.3    52  A52         0.2408
    798  N1        13.8760   14.3540    6.3600 N.ar   52  A52        -0.2040
    799  C2        14.2920   13.6930    7.4460 C.ar   52  A52         0.2016
    800  N3        14.2910   14.0780    8.7180 N.ar   52  A52        -0.2048
    801  C4        13.7870   15.3170    8.8370 C.ar   52  A52         0.1692
    802  C5        13.3250   16.1270    7.8140 C.ar   52  A52         0.1518
    803  C6        13.3780   15.6000    6.5110 C.ar   52  A52         0.1919
    804  N6        12.9700   16.2570    5.4230 N.pl3  52  A52        -0.1054
    805  N7        12.8870   17.3460    8.3130 N.ar   52  A52        -0.2193
    806  C8        13.0850   17.2460    9.6060 C.ar   52  A52         0.1816
    807  N9        13.6200   16.0410    9.9930 N.ar   52  A52        -0.2693
    808  OP1       13.2410   21.4680   13.0170 O.3    52  A52        -0.4373
    809  OP2       12.6580   20.9490   10.5740 O.co2  52  A52        -0.5172
    810  P         17.6890   18.0450   13.3790 P.3    53  C53         0.2141
    811  C5'       19.2350   16.0800   12.5920 C.3    53  C53         0.1812
    812  O5'       18.6430   17.3420   12.3180 O.3    53  C53        -0.3114
    813  C4'       19.6210   15.4080   11.3020 C.3    53  C53         0.1773
    814  O4'       18.4090   15.1460   10.5410 O.3    53  C53        -0.3307
    815  C3'       20.4740   16.2520   10.3680 C.3    53  C53         0.1860
    816  O3'       21.8640   16.1400   10.6870 O.3    53  C53        -0.3112
    817  C2'       20.1630   15.6260    9.0120 C.3    53  C53         0.2309
    818  O2'       20.8880   14.4330    8.7930 O.3    53  C53        -0.2156
    819  C1'       18.6740   15.2970    9.1570 C.3    53  C53         0.2420
    820  N1        17.7740   16.3330    8.6170 N.ar   53  C53        -0.2535
    821  C2        17.1640   16.1210    7.3690 C.ar   53  C53         0.3532
    822  O2        17.3800   15.0590    6.7630 O.2    53  C53        -0.2443
    823  N3        16.3540   17.0770    6.8580 N.ar   53  C53        -0.1739
    824  C4        16.1380   18.2030    7.5400 C.ar   53  C53         0.1759
    825  N4        15.3410   19.1220    6.9880 N.pl3  53  C53        -0.1070
    826  C5        16.7320   18.4390    8.8160 C.ar   53  C53         0.0566
    827  C6        17.5350   17.4860    9.3120 C.ar   53  C53         0.0850
    828  OP1       18.3860   18.0630   14.6890 O.3    53  C53        -0.4373
    829  OP2       17.2250   19.3170   12.7740 O.co2  53  C53        -0.5172
    830  P         22.6140   17.3420   11.4650 P.3    54  C54         0.2141
    831  C5'       23.5780   15.9580   13.4740 C.3    54  C54         0.1812
    832  O5'       22.6080   16.8850   12.9880 O.3    54  C54        -0.3114
    833  C4'       22.9310   14.9910   14.4280 C.3    54  C54         0.1773
    834  O4'       21.9940   14.1770   13.6770 O.3    54  C54        -0.3307
    835  C3'       23.8610   13.9820   15.0900 C.3    54  C54         0.1860
    836  O3'       24.4080   14.4990   16.3020 O.3    54  C54        -0.3112
    837  C2'       22.9060   12.8480   15.4230 C.3    54  C54         0.2309
    838  O2'       22.1810   13.0950   16.6080 O.3    54  C54        -0.2156
    839  C1'       21.9680   12.8690   14.2150 C.3    54  C54         0.2420
    840  N1        22.3620   11.9180   13.1660 N.ar   54  C54        -0.2535
    841  C2        22.3110   10.5650   13.4680 C.ar   54  C54         0.3532
    842  O2        21.9500   10.2320   14.5960 O.2    54  C54        -0.2443
    843  N3        22.6530    9.6560   12.5250 N.ar   54  C54        -0.1739
    844  C4        23.0380   10.0640   11.3180 C.ar   54  C54         0.1759
    845  N4        23.3590    9.1320   10.4150 N.pl3  54  C54        -0.1070
    846  C5        23.1090   11.4490   10.9790 C.ar   54  C54         0.0566
    847  C6        22.7640   12.3350   11.9290 C.ar   54  C54         0.0850
    848  OP1       21.7770   18.5710   11.3620 O.3    54  C54        -0.4373
    849  OP2       24.0210   17.3810   11.0120 O.co2  54  C54        -0.5172
    850  P         25.8410   13.9750   16.8190 P.3    55  G55         0.2141
    851  C5'       25.0110   12.4300   18.7680 C.3    55  G55         0.1812
    852  O5'       25.5540   12.5410   17.4570 O.3    55  G55        -0.3114
    853  C4'       25.0340   10.9910   19.2310 C.3    55  G55         0.1773
    854  O4'       24.1730   10.1900   18.3760 O.3    55  G55        -0.3307
    855  C3'       26.3730   10.2750   19.1730 C.3    55  G55         0.1860
    856  O3'       27.1500   10.5470   20.3320 O.3    55  G55        -0.3112
    857  C2'       25.9270    8.8230   19.1690 C.3    55  G55         0.2309
    858  O2'       25.4770    8.4130   20.4440 O.3    55  G55        -0.2156
    859  C1'       24.7330    8.8960   18.2170 C.3    55  G55         0.2408
    860  N1        25.5110    5.5490   14.4850 N.ar   55  G55        -0.1709
    861  C2        25.3010    5.3310   15.8230 C.ar   55  G55         0.2606
    862  N2        25.2530    4.0540   16.2180 N.pl3  55  G55        -0.0859
    863  N3        25.1450    6.2950   16.7150 N.ar   55  G55        -0.1918
    864  C4        25.2250    7.5150   16.1530 C.ar   55  G55         0.1723
    865  C5        25.4430    7.8440   14.8310 C.ar   55  G55         0.1748
    866  C6        25.5910    6.7970   13.8780 C.ar   55  G55         0.3023
    867  O6        25.7580    6.8810   12.6510 O.2    55  G55        -0.2633
    868  N7        25.4690    9.2230   14.6640 N.ar   55  G55        -0.2173
    869  C8        25.2520    9.6960   15.8620 C.ar   55  G55         0.1817
    870  N9        25.0690    8.7160   16.8070 N.ar   55  G55        -0.2693
    871  OP1       26.2710   14.8800   17.9140 O.3    55  G55        -0.4373
    872  OP2       26.6950   13.8150   15.6280 O.co2  55  G55        -0.5172
    873  P         28.7430   10.6600   20.2040 P.3    56  G56         0.2141
    874  C5'       29.3340    8.3730   21.3430 C.3    56  G56         0.1812
    875  O5'       29.2530    9.1520   20.1630 O.3    56  G56        -0.3114
    876  C4'       29.3850    6.9090   20.9840 C.3    56  G56         0.1773
    877  O4'       28.2770    6.5920   20.0980 O.3    56  G56        -0.3307
    878  C3'       30.5900    6.4550   20.1780 C.3    56  G56         0.1860
    879  O3'       31.7250    6.2570   21.0070 O.3    56  G56        -0.3112
    880  C2'       30.0690    5.1440   19.6200 C.3    56  G56         0.2309
    881  O2'       29.9610    4.1620   20.6290 O.3    56  G56        -0.2156
    882  C1'       28.6730    5.5780   19.1830 C.3    56  G56         0.2408
    883  N1        28.7550    4.5420   14.2360 N.ar   56  G56        -0.1709
    884  C2        28.7010    3.6890   15.3080 C.ar   56  G56         0.2606
    885  N2        28.6960    2.3770   15.0190 N.pl3  56  G56        -0.0859
    886  N3        28.6630    4.0850   16.5660 N.ar   56  G56        -0.1918
    887  C4        28.6970    5.4310   16.6700 C.ar   56  G56         0.1723
    888  C5        28.7560    6.3710   15.6640 C.ar   56  G56         0.1748
    889  C6        28.7880    5.9310   14.3210 C.ar   56  G56         0.3023
    890  O6        28.8380    6.6050   13.2880 O.2    56  G56        -0.2633
    891  N7        28.7790    7.6550   16.1910 N.ar   56  G56        -0.2173
    892  C8        28.7350    7.4740   17.4840 C.ar   56  G56         0.1817
    893  N9        28.6930    6.1440   17.8390 N.ar   56  G56        -0.2693
    894  OP1       29.2500   11.3340   21.4280 O.3    56  G56        -0.4373
    895  OP2       29.0680   11.2040   18.8770 O.co2  56  G56        -0.5172
    896  P         33.1820    6.1800   20.3500 P.3    57  G57         0.2141
    897  C5'       33.1730    3.5500   20.3440 C.3    57  G57         0.1812
    898  O5'       33.2150    4.7690   19.6090 O.3    57  G57        -0.3114
    899  C4'       33.1180    2.3780   19.3950 C.3    57  G57         0.1773
    900  O4'       31.9590    2.5100   18.5210 O.3    57  G57        -0.3307
    901  C3'       34.2770    2.2800   18.4220 C.3    57  G57         0.1860
    902  O3'       35.4130    1.6660   19.0190 O.3    57  G57        -0.3112
    903  C2'       33.6790    1.4010   17.3370 C.3    57  G57         0.2309
    904  O2'       33.6160    0.0460   17.7450 O.3    57  G57        -0.2156
    905  C1'       32.2730    1.9920   17.2350 C.3    57  G57         0.2408
    906  N1        32.1480    3.2300   12.3160 N.ar   57  G57        -0.1709
    907  C2        32.2620    1.9930   12.9010 C.ar   57  G57         0.2606
    908  N2        32.3720    0.9520   12.0590 N.pl3  57  G57        -0.0859
    909  N3        32.2730    1.7960   14.2090 N.ar   57  G57        -0.1918
    910  C4        32.1860    2.9530   14.8980 C.ar   57  G57         0.1723
    911  C5        32.0820    4.2370   14.4100 C.ar   57  G57         0.1748
    912  C6        32.0420    4.4330   13.0080 C.ar   57  G57         0.3023
    913  O6        31.9200    5.4950   12.3840 O.2    57  G57        -0.2633
    914  N7        32.0370    5.1570   15.4480 N.ar   57  G57        -0.2173
    915  C8        32.1050    4.4270   16.5300 C.ar   57  G57         0.1817
    916  N9        32.1920    3.0810   16.2650 N.ar   57  G57        -0.2693
    917  OP1       34.1660    6.1760   21.4570 O.3    57  G57        -0.4373
    918  OP2       33.2800    7.2190   19.2840 O.co2  57  G57        -0.5172
    919  P         36.8810    2.1830   18.6390 P.3    58  C58         0.2141
    920  C5'       37.1740    0.4340   16.7180 C.3    58  C58         0.1812
    921  O5'       37.0260    1.7910   17.1030 O.3    58  C58        -0.3114
    922  C4'       37.0470    0.3000   15.2230 C.3    58  C58         0.1773
    923  O4'       35.7600    0.8140   14.7800 O.3    58  C58        -0.3307
    924  C3'       38.0330    1.0940   14.3870 C.3    58  C58         0.1860
    925  O3'       39.2960    0.4580   14.3180 O.3    58  C58        -0.3112
    926  C2'       37.3300    1.0740   13.0420 C.3    58  C58         0.2309
    927  O2'       37.3610   -0.1970   12.4270 O.3    58  C58        -0.2156
    928  C1'       35.9010    1.3730   13.4810 C.3    58  C58         0.2420
    929  N1        35.6570    2.8210   13.5570 N.ar   58  C58        -0.2535
    930  C2        35.3890    3.4960   12.3710 C.ar   58  C58         0.3532
    931  O2        35.3990    2.8530   11.3150 O.2    58  C58        -0.2443
    932  N3        35.1360    4.8260   12.4040 N.ar   58  C58        -0.1739
    933  C4        35.1560    5.4800   13.5680 C.ar   58  C58         0.1759
    934  N4        34.8850    6.7950   13.5540 N.pl3  58  C58        -0.1070
    935  C5        35.4470    4.8180   14.8000 C.ar   58  C58         0.0566
    936  C6        35.6890    3.4970   14.7480 C.ar   58  C58         0.0850
    937  OP1       37.8820    1.3990   19.4100 O.3    58  C58        -0.4373
    938  OP2       36.8880    3.6660   18.7270 O.co2  58  C58        -0.5172
    939  P         40.6210    1.3410   14.1270 P.3    59  A59         0.2141
    940  C5'       40.6300    0.8030   11.5530 C.3    59  A59         0.1812
    941  O5'       40.5820    1.7760   12.5940 O.3    59  A59        -0.3114
    942  C4'       40.2440    1.4330   10.2340 C.3    59  A59         0.1773
    943  O4'       38.9650    2.1020   10.3830 O.3    59  A59        -0.3307
    944  C3'       41.1800    2.5230    9.7360 C.3    59  A59         0.1860
    945  O3'       42.2330    1.9500    8.9820 O.3    59  A59        -0.3112
    946  C2'       40.2710    3.3470    8.8340 C.3    59  A59         0.2309
    947  O2'       40.1120    2.8130    7.5330 O.3    59  A59        -0.2156
    948  C1'       38.9470    3.2750    9.5870 C.3    59  A59         0.2408
    949  N1        37.7470    8.2550    9.8780 N.ar   59  A59        -0.2040
    950  C2        37.9740    7.4540    8.8390 C.ar   59  A59         0.2016
    951  N3        38.3160    6.1680    8.8270 N.ar   59  A59        -0.2048
    952  C4        38.4340    5.7000   10.0820 C.ar   59  A59         0.1692
    953  C5        38.2440    6.4100   11.2500 C.ar   59  A59         0.1518
    954  C6        37.8680    7.7550   11.1240 C.ar   59  A59         0.1919
    955  N6        37.6180    8.5570   12.1620 N.pl3  59  A59        -0.1054
    956  N7        38.4620    5.5990   12.3570 N.ar   59  A59        -0.2193
    957  C8        38.7530    4.4320   11.8380 C.ar   59  A59         0.1816
    958  N9        38.7330    4.4160   10.4700 N.ar   59  A59        -0.2693
    959  OP1       41.7800    0.4320   14.3340 O.2    59  A59        -0.5172
    960  OP2       40.5070    2.5780   14.9380 O.co2  59  A59        -0.4373
    961  P         43.6540    2.6880    8.9120 P.3    60  C60         0.2141
    962  C5'       43.0280    4.2750    6.8970 C.3    60  C60         0.1812
    963  O5'       43.3380    4.1190    8.2780 O.3    60  C60        -0.3114
    964  C4'       42.6680    5.7160    6.6120 C.3    60  C60         0.1773
    965  O4'       41.4720    6.0700    7.3630 O.3    60  C60        -0.3307
    966  C3'       43.6910    6.7320    7.0870 C.3    60  C60         0.1860
    967  O3'       44.7360    6.8850    6.1420 O.3    60  C60        -0.3112
    968  C2'       42.8430    7.9900    7.1960 C.3    60  C60         0.2309
    969  O2'       42.5300    8.5470    5.9340 O.3    60  C60        -0.2156
    970  C1'       41.5700    7.4190    7.8110 C.3    60  C60         0.2420
    971  N1        41.5620    7.4300    9.2850 N.ar   60  C60        -0.2535
    972  C2        41.1330    8.5880    9.9440 C.ar   60  C60         0.3532
    973  O2        40.8710    9.5960    9.2730 O.2    60  C60        -0.2443
    974  N3        41.0290    8.5840   11.2880 N.ar   60  C60        -0.1739
    975  C4        41.3690    7.4900   11.9810 C.ar   60  C60         0.1759
    976  N4        41.2180    7.5200   13.3060 N.pl3  60  C60        -0.1070
    977  C5        41.8670    6.3160   11.3400 C.ar   60  C60         0.0566
    978  C6        41.9420    6.3280   10.0040 C.ar   60  C60         0.0850
    979  OP1       44.4940    1.9180    7.9590 O.2    60  C60        -0.5172
    980  OP2       44.1450    2.9510   10.2780 O.co2  60  C60        -0.4373
    981  P         46.1850    7.3640    6.6380 P.3    61  C61         0.2141
    982  C5'       45.5540    9.7470    5.7270 C.3    61  C61         0.1812
    983  O5'       46.0490    8.9450    6.7950 O.3    61  C61        -0.3114
    984  C4'       45.1690   11.1160    6.2370 C.3    61  C61         0.1773
    985  O4'       44.0480   10.9920    7.1500 O.3    61  C61        -0.3307
    986  C3'       46.2300   11.8290    7.0570 C.3    61  C61         0.1860
    987  O3'       47.1300   12.5100    6.1920 O.3    61  C61        -0.3112
    988  C2'       45.3910   12.8150    7.8600 C.3    61  C61         0.2309
    989  O2'       45.0160   13.9330    7.0760 O.3    61  C61        -0.2156
    990  C1'       44.1520   11.9730    8.1650 C.3    61  C61         0.2420
    991  N1        44.1850   11.2860    9.4630 N.ar   61  C61        -0.2535
    992  C2        43.7310   11.9690   10.5910 C.ar   61  C61         0.3532
    993  O2        43.3990   13.1650   10.4750 O.2    61  C61        -0.2443
    994  N3        43.6680   11.3200   11.7780 N.ar   61  C61        -0.1739
    995  C4        44.0570   10.0440   11.8600 C.ar   61  C61         0.1759
    996  N4        43.9390    9.4350   13.0400 N.pl3  61  C61        -0.1070
    997  C5        44.5740    9.3400   10.7340 C.ar   61  C61         0.0566
    998  C6        44.6190    9.9930    9.5640 C.ar   61  C61         0.0850
    999  OP1       47.1580    7.0930    5.5480 O.2    61  C61        -0.5172
   1000  OP2       46.4290    6.8170    7.9960 O.co2  61  C61        -0.4373
   1001  P         48.7010   12.1900    6.2680 P.3    62  G62         0.2141
   1002  C5'       50.6050   13.4600    7.5450 C.3    62  G62         0.1812
   1003  O5'       49.2220   13.1530    7.4200 O.3    62  G62        -0.3114
   1004  C4'       50.8940   13.9820    8.9300 C.3    62  G62         0.1773
   1005  O4'       50.6140   12.9330    9.8980 O.3    62  G62        -0.3307
   1006  C3'       52.3360   14.4070    9.1860 C.3    62  G62         0.1860
   1007  O3'       52.3340   15.4700   10.1310 O.3    62  G62        -0.3112
   1008  C2'       52.9420   13.1530    9.8050 C.3    62  G62         0.2309
   1009  O2'       54.0600   13.4280   10.6230 O.3    62  G62        -0.2156
   1010  C1'       51.7740   12.6680   10.6580 C.3    62  G62         0.2408
   1011  N1        50.6610    9.2070   14.1740 N.ar   62  G62        -0.1709
   1012  C2        50.5220   10.5720   14.2130 C.ar   62  G62         0.2606
   1013  N2        50.0080   11.0870   15.3390 N.pl3  62  G62        -0.0859
   1014  N3        50.8600   11.3760   13.2220 N.ar   62  G62        -0.1918
   1015  C4        51.3580   10.6960   12.1680 C.ar   62  G62         0.1723
   1016  C5        51.5410    9.3380   12.0260 C.ar   62  G62         0.1748
   1017  C6        51.1720    8.4840   13.1000 C.ar   62  G62         0.3023
   1018  O6        51.2510    7.2490   13.1720 O.2    62  G62        -0.2633
   1019  N7        52.0830    9.0420   10.7830 N.ar   62  G62        -0.2173
   1020  C8        52.2160   10.2040   10.2030 C.ar   62  G62         0.1817
   1021  N9        51.7890   11.2480   10.9890 N.ar   62  G62        -0.2693
   1022  OP1       49.3070   12.6150    4.9810 O.2    62  G62        -0.5172
   1023  OP2       48.8730   10.7910    6.7360 O.co2  62  G62        -0.4373
   1024  P         53.1620   16.8110    9.8280 P.3    63  U63         0.2141
   1025  C5'       51.0080   18.2630    9.4230 C.3    63  U63         0.1812
   1026  O5'       52.1600   17.9880   10.2150 O.3    63  U63        -0.3114
   1027  C4'       50.0010   19.0400   10.2330 C.3    63  U63         0.1773
   1028  O4'       49.1820   18.1020   10.9900 O.3    63  U63        -0.3307
   1029  C3'       50.6110   19.9850   11.2640 C.3    63  U63         0.1860
   1030  O3'       49.7780   21.1250   11.4450 O.3    63  U63        -0.3112
   1031  C2'       50.6060   19.1360   12.5280 C.3    63  U63         0.2309
   1032  O2'       50.6090   19.9130   13.7100 O.3    63  U63        -0.2156
   1033  C1'       49.2770   18.4020   12.3680 C.3    63  U63         0.2420
   1034  N1        49.1800   17.1450   13.1230 N.ar   63  U63        -0.2534
   1035  C2        48.5560   17.1870   14.3550 C.ar   63  U63         0.3546
   1036  O2        48.0840   18.2100   14.8200 O.2    63  U63        -0.2443
   1037  N3        48.5050   15.9880   15.0200 N.ar   63  U63        -0.1530
   1038  C4        49.0010   14.7780   14.5870 C.ar   63  U63         0.2846
   1039  O4        48.9120   13.7920   15.3180 O.2    63  U63        -0.2650
   1040  C5        49.6240   14.8140   13.3000 C.ar   63  U63         0.0814
   1041  C6        49.6910   15.9690   12.6280 C.ar   63  U63         0.0870
   1042  OP1       53.4110   16.8700    8.3660 O.2    63  U63        -0.5172
   1043  OP2       54.3100   16.8570   10.7710 O.co2  63  U63        -0.4373
   1044  P         50.2140   22.5410   10.8250 P.3    64  A64         0.2141
   1045  C5'       48.0920   22.7270    9.3000 C.3    64  A64         0.1812
   1046  O5'       49.5020   22.5750    9.4010 O.3    64  A64        -0.3114
   1047  C4'       47.5940   22.1390    8.0030 C.3    64  A64         0.1773
   1048  O4'       47.8830   20.7170    7.9730 O.3    64  A64        -0.3307
   1049  C3'       46.0970   22.2940    7.7740 C.3    64  A64         0.1860
   1050  O3'       45.8880   23.4060    6.9080 O.3    64  A64        -0.3112
   1051  C2'       45.7010   20.9800    7.1020 C.3    64  A64         0.2309
   1052  O2'       45.8690   21.0210    5.6980 O.3    64  A64        -0.2156
   1053  C1'       46.7020   19.9930    7.7010 C.3    64  A64         0.2408
   1054  N1        46.7020   15.5770   10.3320 N.ar   64  A64        -0.2040
   1055  C2        47.1090   15.8880    9.0950 C.ar   64  A64         0.2016
   1056  N3        47.0530   17.0570    8.4590 N.ar   64  A64        -0.2048
   1057  C4        46.4950   17.9980    9.2410 C.ar   64  A64         0.1692
   1058  C5        46.0240   17.8290   10.5310 C.ar   64  A64         0.1518
   1059  C6        46.1460   16.5450   11.0940 C.ar   64  A64         0.1919
   1060  N6        45.7480   16.2360   12.3320 N.pl3  64  A64        -0.1054
   1061  N7        45.5050   19.0200   11.0230 N.ar   64  A64        -0.2193
   1062  C8        45.6810   19.8710   10.0400 C.ar   64  A64         0.1816
   1063  N9        46.2940   19.3260    8.9380 N.ar   64  A64        -0.2693
   1064  OP1       51.6830   22.5070   10.6070 O.2    64  A64        -0.5172
   1065  OP2       49.6200   23.6030   11.6710 O.co2  64  A64        -0.4373
   1066  P         44.5950   24.3380    7.1000 P.3    65  A65         0.2141
   1067  C5'       43.5010   23.2730    4.9690 C.3    65  A65         0.1812
   1068  O5'       43.4350   23.5290    6.3700 O.3    65  A65        -0.3114
   1069  C4'       42.5250   22.1850    4.5870 C.3    65  A65         0.1773
   1070  O4'       42.8590   20.9610    5.3170 O.3    65  A65        -0.3307
   1071  C3'       41.0600   22.4680    4.9200 C.3    65  A65         0.1860
   1072  O3'       40.2510   21.7850    3.9640 O.3    65  A65        -0.3112
   1073  C2'       40.9290   21.7860    6.2780 C.3    65  A65         0.2309
   1074  O2'       39.6020   21.5080    6.6750 O.3    65  A65        -0.2156
   1075  C1'       41.7040   20.5060    5.9900 C.3    65  A65         0.2408
   1076  N1        43.2260   15.9040    7.6580 N.ar   65  A65        -0.2040
   1077  C2        43.0020   16.3910    6.4310 C.ar   65  A65         0.2016
   1078  N3        42.6350   17.6180    6.0660 N.ar   65  A65        -0.2048
   1079  C4        42.4970   18.4100    7.1430 C.ar   65  A65         0.1692
   1080  C5        42.7000   18.0570    8.4630 C.ar   65  A65         0.1518
   1081  C6        43.0760   16.7280    8.7170 C.ar   65  A65         0.1919
   1082  N6        43.2800   16.2400    9.9410 N.pl3  65  A65        -0.1054
   1083  N7        42.4650   19.1370    9.3030 N.ar   65  A65        -0.2193
   1084  C8        42.1210   20.1040    8.4830 C.ar   65  A65         0.1816
   1085  N9        42.1000   19.7270    7.1630 N.ar   65  A65        -0.2693
   1086  OP1       44.8260   25.5900    6.3300 O.2    65  A65        -0.5172
   1087  OP2       44.2860   24.4160    8.5510 O.co2  65  A65        -0.4373
   1088  P         38.9760   22.5090    3.3030 P.3    66  A66         0.2141
   1089  C5'       37.5550   20.5570    4.3190 C.3    66  A66         0.1812
   1090  O5'       37.9020   21.3410    3.1850 O.3    66  A66        -0.3114
   1091  C4'       37.8500   19.1080    4.0430 C.3    66  A66         0.1773
   1092  O4'       39.1730   18.7720    4.5480 O.3    66  A66        -0.3307
   1093  C3'       36.9750   18.1150    4.7750 C.3    66  A66         0.1860
   1094  O3'       35.6700   18.0050    4.2300 O.3    66  A66        -0.3112
   1095  C2'       37.8000   16.8570    4.6120 C.3    66  A66         0.2309
   1096  O2'       37.7530   16.3420    3.2960 O.3    66  A66        -0.2156
   1097  C1'       39.1840   17.4040    4.9570 C.3    66  A66         0.2408
   1098  N1        39.9900   14.2920    8.9270 N.ar   66  A66        -0.2040
   1099  C2        39.9970   14.0930    7.6070 C.ar   66  A66         0.2016
   1100  N3        39.8160   14.9690    6.6230 N.ar   66  A66        -0.2048
   1101  C4        39.6140   16.2010    7.1180 C.ar   66  A66         0.1692
   1102  C5        39.5870   16.5660    8.4500 C.ar   66  A66         0.1518
   1103  C6        39.7750   15.5420    9.3940 C.ar   66  A66         0.1919
   1104  N6        39.7380   15.7300   10.7120 N.pl3  66  A66        -0.1054
   1105  N7        39.3600   17.9300    8.5800 N.ar   66  A66        -0.2193
   1106  C8        39.2420   18.3480    7.3400 C.ar   66  A66         0.1816
   1107  N9        39.3560   17.3480    6.4080 N.ar   66  A66        -0.2693
   1108  OP1       39.3270   22.9220    1.9140 O.2    66  A66        -0.5172
   1109  OP2       38.4560   23.5200    4.2540 O.co2  66  A66        -0.4373
   1110  P         34.4160   18.0430    5.2190 P.3    67  U67         0.2141
   1111  C5'       34.0800   15.5810    6.1120 C.3    67  U67         0.1812
   1112  O5'       34.7110   16.8540    6.2420 O.3    67  U67        -0.3114
   1113  C4'       35.0140   14.5860    5.4560 C.3    67  U67         0.1773
   1114  O4'       36.2470   14.4270    6.2190 O.3    67  U67        -0.3307
   1115  C3'       34.4470   13.1800    5.3750 C.3    67  U67         0.1860
   1116  O3'       33.6080   13.0770    4.2310 O.3    67  U67        -0.3112
   1117  C2'       35.7100   12.3400    5.2440 C.3    67  U67         0.2309
   1118  O2'       36.2500   12.3720    3.9380 O.3    67  U67        -0.2156
   1119  C1'       36.6500   13.0610    6.2120 C.3    67  U67         0.2420
   1120  N1        36.6040   12.5670    7.5970 N.ar   67  U67        -0.2534
   1121  C2        37.0700   11.2870    7.8540 C.ar   67  U67         0.3546
   1122  O2        37.5200   10.5510    6.9870 O.2    67  U67        -0.2443
   1123  N3        36.9980   10.9010    9.1720 N.ar   67  U67        -0.1530
   1124  C4        36.5260   11.6420   10.2360 C.ar   67  U67         0.2846
   1125  O4        36.5050   11.1450   11.3670 O.2    67  U67        -0.2650
   1126  C5        36.0690   12.9480    9.8920 C.ar   67  U67         0.0814
   1127  C6        36.1170   13.3570    8.6180 C.ar   67  U67         0.0870
   1128  OP1       33.1620   17.7810    4.4820 O.2    67  U67        -0.5172
   1129  OP2       34.5530   19.2930    6.0150 O.co2  67  U67        -0.4373
   1130  P         32.2780   12.1910    4.3000 P.3    68  G68         0.2141
   1131  C5'       33.3650   10.1750    3.0360 C.3    68  G68         0.1812
   1132  O5'       32.8160   10.6920    4.2390 O.3    68  G68        -0.3114
   1133  C4'       33.9770    8.8240    3.2880 C.3    68  G68         0.1773
   1134  O4'       34.9740    8.9510    4.3330 O.3    68  G68        -0.3307
   1135  C3'       33.0200    7.7670    3.8210 C.3    68  G68         0.1860
   1136  O3'       32.3510    7.1240    2.7490 O.3    68  G68        -0.3112
   1137  C2'       33.9830    6.8010    4.4860 C.3    68  G68         0.2309
   1138  O2'       34.6310    5.9920    3.5290 O.3    68  G68        -0.2156
   1139  C1'       34.9750    7.7720    5.1250 C.3    68  G68         0.2408
   1140  N1        34.8630    6.1860    9.9170 N.ar   68  G68        -0.1709
   1141  C2        35.2040    5.5070    8.7730 C.ar   68  G68         0.2606
   1142  N2        35.5840    4.2280    8.9240 N.pl3  68  G68        -0.0859
   1143  N3        35.1720    6.0360    7.5650 N.ar   68  G68        -0.1918
   1144  C4        34.7520    7.3190    7.5880 C.ar   68  G68         0.1723
   1145  C5        34.3740    8.0830    8.6680 C.ar   68  G68         0.1748
   1146  C6        34.4270    7.5090    9.9650 C.ar   68  G68         0.3023
   1147  O6        34.1460    8.0280   11.0500 O.2    68  G68        -0.2633
   1148  N7        33.9830    9.3530    8.2560 N.ar   68  G68        -0.2173
   1149  C8        34.1450    9.3330    6.9610 C.ar   68  G68         0.1817
   1150  N9        34.6280    8.1340    6.4940 N.ar   68  G68        -0.2693
   1151  OP1       31.5150   12.4590    3.0590 O.2    68  G68        -0.5172
   1152  OP2       31.6280   12.3920    5.6120 O.co2  68  G68        -0.4373
   1153  P         30.8770    6.5230    2.9620 P.3    69  U69         0.2141
   1154  C5'       31.9220    4.1550    3.4390 C.3    69  U69         0.1812
   1155  O5'       31.0870    5.2260    3.8680 O.3    69  U69        -0.3114
   1156  C4'       32.1750    3.2090    4.5900 C.3    69  U69         0.1773
   1157  O4'       32.9810    3.8830    5.5950 O.3    69  U69        -0.3307
   1158  C3'       30.9370    2.7630    5.3530 C.3    69  U69         0.1860
   1159  O3'       30.3120    1.6630    4.7000 O.3    69  U69        -0.3112
   1160  C2'       31.5370    2.3610    6.6950 C.3    69  U69         0.2309
   1161  O2'       32.1990    1.1070    6.6560 O.3    69  U69        -0.2156
   1162  C1'       32.5740    3.4660    6.8890 C.3    69  U69         0.2420
   1163  N1        32.0580    4.6330    7.6210 N.ar   69  U69        -0.2534
   1164  C2        32.0430    4.5550    8.9920 C.ar   69  U69         0.3546
   1165  O2        32.3790    3.5520    9.5880 O.2    69  U69        -0.2443
   1166  N3        31.6150    5.6850    9.6400 N.ar   69  U69        -0.1530
   1167  C4        31.1900    6.8630    9.0610 C.ar   69  U69         0.2846
   1168  O4        30.9240    7.8300    9.7820 O.2    69  U69        -0.2650
   1169  C5        31.1970    6.8590    7.6310 C.ar   69  U69         0.0814
   1170  C6        31.6210    5.7710    6.9720 C.ar   69  U69         0.0870
   1171  OP1       30.3920    6.1030    1.6250 O.2    69  U69        -0.5172
   1172  OP2       30.0750    7.4770    3.7700 O.co2  69  U69        -0.4373
   1173  P         28.7170    1.4890    4.7640 P.3    70  C70         0.2141
   1174  C5'       28.9690   -0.5620    6.3820 C.3    70  C70         0.1812
   1175  O5'       28.4560    0.7500    6.1520 O.3    70  C70        -0.3114
   1176  C4'       29.0350   -0.8520    7.8650 C.3    70  C70         0.1773
   1177  O4'       29.8640    0.1300    8.5340 O.3    70  C70        -0.3307
   1178  C3'       27.7210   -0.7950    8.6260 C.3    70  C70         0.1860
   1179  O3'       26.9970   -2.0100    8.4450 O.3    70  C70        -0.3112
   1180  C2'       28.2090   -0.6260   10.0610 C.3    70  C70         0.2309
   1181  O2'       28.6790   -1.8310   10.6440 O.3    70  C70        -0.2156
   1182  C1'       29.4020    0.3110    9.8630 C.3    70  C70         0.2420
   1183  N1        29.0730    1.7340   10.0390 N.ar   70  C70        -0.2535
   1184  C2        29.0320    2.2630   11.3290 C.ar   70  C70         0.3532
   1185  O2        29.1900    1.5020   12.2940 O.2    70  C70        -0.2443
   1186  N3        28.8130    3.5870   11.4950 N.ar   70  C70        -0.1739
   1187  C4        28.6250    4.3690   10.4270 C.ar   70  C70         0.1759
   1188  N4        28.4560    5.6770   10.6350 N.pl3  70  C70        -0.1070
   1189  C5        28.6130    3.8460    9.1010 C.ar   70  C70         0.0566
   1190  C6        28.8370    2.5340    8.9550 C.ar   70  C70         0.0850
   1191  OP1       28.3480    0.5830    3.6470 O.2    70  C70        -0.5172
   1192  OP2       28.0770    2.8360    4.8600 O.co2  70  C70        -0.4373
   1193  P         25.4310   -1.9660    8.1150 P.3    71  C71         0.2141
   1194  C5'       24.7840   -2.8740   10.4750 C.3    71  C71         0.1812
   1195  O5'       24.7410   -1.8040    9.5340 O.3    71  C71        -0.3114
   1196  C4'       24.7460   -2.3440   11.8850 C.3    71  C71         0.1773
   1197  O4'       25.8330   -1.4020   12.0970 O.3    71  C71        -0.3307
   1198  C3'       23.5200   -1.5380   12.2710 C.3    71  C71         0.1860
   1199  O3'       22.4020   -2.3680   12.5620 O.3    71  C71        -0.3112
   1200  C2'       24.0330   -0.8440   13.5190 C.3    71  C71         0.2309
   1201  O2'       24.1340   -1.7410   14.6090 O.3    71  C71        -0.2156
   1202  C1'       25.4280   -0.4290   13.0520 C.3    71  C71         0.2420
   1203  N1        25.4160    0.8940   12.4040 N.ar   71  C71        -0.2535
   1204  C2        25.4510    2.0170   13.2200 C.ar   71  C71         0.3532
   1205  O2        25.4860    1.8580   14.4430 O.2    71  C71        -0.2443
   1206  N3        25.4420    3.2450   12.6560 N.ar   71  C71        -0.1739
   1207  C4        25.4000    3.3720   11.3290 C.ar   71  C71         0.1759
   1208  N4        25.4030    4.6110   10.8200 N.pl3  71  C71        -0.1070
   1209  C5        25.3550    2.2390   10.4630 C.ar   71  C71         0.0566
   1210  C6        25.3650    1.0260   11.0420 C.ar   71  C71         0.0850
   1211  OP1       25.0790   -3.3120    7.5800 O.3    71  C71        -0.4373
   1212  OP2       25.1200   -0.7480    7.3150 O.co2  71  C71        -0.5172
   1213  P         20.9190   -1.7680   12.4590 P.3    72  G72         0.2141
   1214  C5'       20.9260   -0.9340   14.9330 C.3    72  G72         0.1812
   1215  O5'       20.9140   -0.6110   13.5530 O.3    72  G72        -0.3114
   1216  C4'       20.8910    0.3250   15.7510 C.3    72  G72         0.1773
   1217  O4'       22.0610    1.1170   15.4310 O.3    72  G72        -0.3307
   1218  C3'       19.7350    1.2600   15.4460 C.3    72  G72         0.1860
   1219  O3'       18.5810    0.8360   16.1610 O.3    72  G72        -0.3112
   1220  C2'       20.2770    2.5770   15.9850 C.3    72  G72         0.2309
   1221  O2'       20.1870    2.6440   17.3930 O.3    72  G72        -0.2156
   1222  C1'       21.7460    2.4940   15.5570 C.3    72  G72         0.2408
   1223  N1        22.4230    6.9270   13.2390 N.ar   72  G72        -0.1709
   1224  C2        22.2900    6.6440   14.5730 C.ar   72  G72         0.2606
   1225  N2        22.3080    7.6930   15.4090 N.pl3  72  G72        -0.0859
   1226  N3        22.1490    5.4300   15.0580 N.ar   72  G72        -0.1918
   1227  C4        22.1470    4.4950   14.0850 C.ar   72  G72         0.1723
   1228  C5        22.2770    4.6640   12.7250 C.ar   72  G72         0.1748
   1229  C6        22.4260    5.9880   12.2150 C.ar   72  G72         0.3023
   1230  O6        22.5420    6.3630   11.0440 O.2    72  G72        -0.2633
   1231  N7        22.2270    3.4370   12.0700 N.ar   72  G72        -0.2173
   1232  C8        22.0630    2.5680   13.0310 C.ar   72  G72         0.1817
   1233  N9        21.9860    3.1470   14.2750 N.ar   72  G72        -0.2693
   1234  OP1       19.9740   -2.8300   12.8900 O.3    72  G72        -0.4373
   1235  OP2       20.7560   -1.1340   11.1300 O.co2  72  G72        -0.5172
   1236  P         17.1160    1.2310   15.6300 P.3    73  A73         0.2141
   1237  C5'       15.6850    3.3970   15.9700 C.3    73  A73         0.1812
   1238  O5'       16.9210    2.7210   16.1550 O.3    73  A73        -0.3114
   1239  C4'       15.8090    4.8240   16.4330 C.3    73  A73         0.1773
   1240  O4'       16.7650    5.5140   15.5860 O.3    73  A73        -0.3307
   1241  C3'       14.5410    5.6520   16.3270 C.3    73  A73         0.1860
   1242  O3'       13.7550    5.4910   17.4960 O.3    73  A73        -0.3112
   1243  C2'       15.1020    7.0620   16.2360 C.3    73  A73         0.2309
   1244  O2'       15.5380    7.5380   17.4950 O.3    73  A73        -0.2156
   1245  C1'       16.3150    6.8350   15.3370 C.3    73  A73         0.2408
   1246  N1        15.6960   10.1310   11.4530 N.ar   73  A73        -0.2040
   1247  C2        15.8650   10.3030   12.7670 C.ar   73  A73         0.2016
   1248  N3        15.9940    9.3940   13.7280 N.ar   73  A73        -0.2048
   1249  C4        15.9300    8.1530   13.2190 C.ar   73  A73         0.1692
   1250  C5        15.7510    7.8090   11.8930 C.ar   73  A73         0.1518
   1251  C6        15.6360    8.8700   10.9690 C.ar   73  A73         0.1919
   1252  N6        15.4800    8.7050    9.6520 N.pl3  73  A73        -0.1054
   1253  N7        15.7300    6.4260   11.7450 N.ar   73  A73        -0.2193
   1254  C8        15.9030    5.9770   12.9650 C.ar   73  A73         0.1816
   1255  N9        16.0510    6.9690   13.9040 N.ar   73  A73        -0.2693
   1256  OP1       16.1230    0.3660   16.3210 O.3    73  A73        -0.4373
   1257  OP2       17.1340    1.2860   14.1520 O.co2  73  A73        -0.5172
   1258  P         12.1570    5.6240   17.4000 P.3    74  C74         0.2141
   1259  C5'       12.3510    8.1990   17.8460 C.3    74  C74         0.1812
   1260  O5'       11.9240    7.1450   16.9940 O.3    74  C74        -0.3114
   1261  C4'       12.2610    9.5190   17.1240 C.3    74  C74         0.1773
   1262  O4'       13.2030    9.5380   16.0200 O.3    74  C74        -0.3307
   1263  C3'       10.9310    9.8130   16.4530 C.3    74  C74         0.1860
   1264  O3'       10.0010   10.3240   17.3960 O.3    74  C74        -0.3112
   1265  C2'       11.3350   10.8750   15.4430 C.3    74  C74         0.2309
   1266  O2'       11.5410   12.1400   16.0380 O.3    74  C74        -0.2156
   1267  C1'       12.6740   10.3190   14.9600 C.3    74  C74         0.2420
   1268  N1        12.5500    9.4650   13.7700 N.ar   74  C74        -0.2535
   1269  C2        12.5190   10.0720   12.5200 C.ar   74  C74         0.3532
   1270  O2        12.5500   11.3060   12.4580 O.2    74  C74        -0.2443
   1271  N3        12.4550    9.3060   11.4100 N.ar   74  C74        -0.1739
   1272  C4        12.4120    7.9790   11.5210 C.ar   74  C74         0.1759
   1273  N4        12.3770    7.2630   10.3940 N.pl3  74  C74        -0.1070
   1274  C5        12.4120    7.3290   12.7890 C.ar   74  C74         0.0566
   1275  C6        12.4820    8.1040   13.8790 C.ar   74  C74         0.0850
   1276  OP1       11.6130    5.4060   18.7620 O.3    74  C74        -0.4373
   1277  OP2       11.6880    4.7760   16.2760 O.co2  74  C74        -0.5172
   1278  P          8.4300   10.0920   17.1670 P.3    75  U75         0.2141
   1279  C5'        8.2070   12.3680   15.8820 C.3    75  U75         0.1812
   1280  O5'        8.0980   10.9490   15.8670 O.3    75  U75        -0.3114
   1281  C4'        7.9840   12.9220   14.4970 C.3    75  U75         0.1773
   1282  O4'        9.0710   12.5040   13.6240 O.3    75  U75        -0.3307
   1283  C3'        6.7480   12.4130   13.7770 C.3    75  U75         0.1860
   1284  O3'        5.5780   13.0990   14.2030 O.3    75  U75        -0.3112
   1285  C2'        7.1020   12.7280   12.3330 C.3    75  U75         0.2309
   1286  O2'        6.9950   14.1050   12.0310 O.3    75  U75        -0.2156
   1287  C1'        8.5730   12.3120   12.3060 C.3    75  U75         0.2420
   1288  N1         8.7470   10.8990   11.9360 N.ar   75  U75        -0.2534
   1289  C2         8.7830   10.6010   10.5890 C.ar   75  U75         0.3546
   1290  O2         8.6600   11.4500    9.7230 O.2    75  U75        -0.2443
   1291  N3         8.9650    9.2720   10.2930 N.ar   75  U75        -0.1530
   1292  C4         9.0980    8.2320   11.1890 C.ar   75  U75         0.2846
   1293  O4         9.2810    7.0880   10.7690 O.2    75  U75        -0.2650
   1294  C5         9.0350    8.6190   12.5640 C.ar   75  U75         0.0814
   1295  C6         8.8690    9.9080   12.8830 C.ar   75  U75         0.0870
   1296  OP1        7.7300   10.7040   18.3260 O.3    75  U75        -0.4373
   1297  OP2        8.2110    8.6580   16.8510 O.co2  75  U75        -0.5172
   1298  P          4.1590   12.3480   14.1580 P.3    76  A76         0.2141
   1299  C5'        3.5470   13.5760   11.9240 C.3    76  A76         0.1812
   1300  O5'        3.7730   12.3530   12.6140 O.3    76  A76        -0.3114
   1301  C4'        3.2420   13.3050   10.4710 C.3    76  A76         0.1773
   1302  O4'        4.4470   12.8480    9.7990 O.3    76  A76        -0.3307
   1303  C3'        2.2450   12.1900   10.2050 C.3    76  A76         0.1860
   1304  O3'        0.9090   12.6600   10.3350 O.3    76  A76        -0.3112
   1305  C2'        2.5740   11.8340    8.7640 C.3    76  A76         0.2309
   1306  O2'        2.0600   12.7840    7.8530 O.3    76  A76        -0.2156
   1307  C1'        4.1020   11.9110    8.7890 C.3    76  A76         0.2408
   1308  N1         5.9830    7.4880    6.9570 N.ar   76  A76        -0.2040
   1309  C2         5.4260    8.5450    6.3560 C.ar   76  A76         0.2016
   1310  N3         4.9540    9.6690    6.8930 N.ar   76  A76        -0.2048
   1311  C4         5.0970    9.6520    8.2290 C.ar   76  A76         0.1692
   1312  C5         5.6490    8.6380    8.9900 C.ar   76  A76         0.1518
   1313  C6         6.1140    7.5030    8.3020 C.ar   76  A76         0.1919
   1314  N6         6.6750    6.4480    8.9030 N.pl3  76  A76        -0.1054
   1315  N7         5.6280    8.9700   10.3380 N.ar   76  A76        -0.2193
   1316  C8         5.0750   10.1580   10.3610 C.ar   76  A76         0.1816
   1317  N9         4.7300   10.6330    9.1190 N.ar   76  A76        -0.2693
   1318  OP1        3.1720   13.1880   14.8860 O.3    76  A76        -0.4373
   1319  OP2        4.3720   10.9380   14.5760 O.co2  76  A76        -0.5172
   1320  P         -0.2040   11.7110   11.0000 P.3    77  U77         0.2141
   1321  C5'       -1.1540   11.1750    8.6150 C.3    77  U77         0.1812
   1322  O5'       -0.5960   10.6990    9.8350 O.3    77  U77        -0.3114
   1323  C4'       -1.1240   10.0880    7.5680 C.3    77  U77         0.1773
   1324  O4'        0.2560    9.7780    7.2310 O.3    77  U77        -0.3307
   1325  C3'       -1.6840    8.7450    8.0010 C.3    77  U77         0.1860
   1326  O3'       -3.1050    8.7190    7.9160 O.3    77  U77        -0.3112
   1327  C2'       -1.0470    7.8080    6.9870 C.3    77  U77         0.2309
   1328  O2'       -1.6980    7.8360    5.7330 O.3    77  U77        -0.2156
   1329  C1'        0.3570    8.4080    6.8710 C.3    77  U77         0.2420
   1330  N1         1.3150    7.7550    7.7740 N.ar   77  U77        -0.2534
   1331  C2         1.9370    6.6110    7.3180 C.ar   77  U77         0.3546
   1332  O2         1.7360    6.1500    6.2090 O.2    77  U77        -0.2443
   1333  N3         2.8030    6.0260    8.2080 N.ar   77  U77        -0.1530
   1334  C4         3.1030    6.4590    9.4810 C.ar   77  U77         0.2846
   1335  O4         3.8810    5.8010   10.1760 O.2    77  U77        -0.2650
   1336  C5         2.4260    7.6580    9.8790 C.ar   77  U77         0.0814
   1337  C6         1.5780    8.2510    9.0310 C.ar   77  U77         0.0870
   1338  OP1       -1.3940   12.5430   11.3180 O.2    77  U77        -0.5172
   1339  OP2        0.4560   10.9350   12.0790 O.co2  77  U77        -0.4373
   1340  P         -3.9270    7.6420    8.7810 P.3    78  G78         0.2141
   1341  C5'       -4.1480    6.0880    6.6820 C.3    78  G78         0.1812
   1342  O5'       -3.6810    6.2680    8.0150 O.3    78  G78        -0.3114
   1343  C4'       -3.6140    4.7980    6.1090 C.3    78  G78         0.1773
   1344  O4'       -2.1650    4.8540    6.0340 O.3    78  G78        -0.3307
   1345  C3'       -3.8810    3.5520    6.9350 C.3    78  G78         0.1860
   1346  O3'       -5.1940    3.0620    6.6910 O.3    78  G78        -0.3112
   1347  C2'       -2.8180    2.6050    6.3960 C.3    78  G78         0.2309
   1348  O2'       -3.1610    2.0630    5.1370 O.3    78  G78        -0.2156
   1349  C1'       -1.6310    3.5560    6.2380 C.3    78  G78         0.2408
   1350  N1         2.0400    1.2060    8.8290 N.ar   78  G78        -0.1709
   1351  C2         1.4260    0.8370    7.6580 C.ar   78  G78         0.2606
   1352  N2         1.8440   -0.3110    7.1070 N.pl3  78  G78        -0.0859
   1353  N3         0.4740    1.5410    7.0710 N.ar   78  G78        -0.1918
   1354  C4         0.1730    2.6590    7.7640 C.ar   78  G78         0.1723
   1355  C5         0.7230    3.1160    8.9430 C.ar   78  G78         0.1748
   1356  C6         1.7500    2.3560    9.5580 C.ar   78  G78         0.3023
   1357  O6         2.3710    2.5980   10.6010 O.2    78  G78        -0.2633
   1358  N7         0.1320    4.3100    9.3310 N.ar   78  G78        -0.2173
   1359  C8        -0.7470    4.5540    8.3990 C.ar   78  G78         0.1817
   1360  N9        -0.7740    3.5920    7.4180 N.ar   78  G78        -0.2693
   1361  OP1       -5.3740    7.9750    8.6980 O.2    78  G78        -0.5172
   1362  OP2       -3.2690    7.5540   10.1090 O.co2  78  G78        -0.4373
   1363  P         -5.9060    2.1200    7.7800 P.3    79  U79         0.2141
   1364  C5'       -5.1870   -0.0240    6.4490 C.3    79  U79         0.1812
   1365  O5'       -5.1310    0.7350    7.6530 O.3    79  U79        -0.3114
   1366  C4'       -4.4080   -1.3090    6.6030 C.3    79  U79         0.1773
   1367  O4'       -2.9910   -1.0040    6.6810 O.3    79  U79        -0.3307
   1368  C3'       -4.6840   -2.0910    7.8770 C.3    79  U79         0.1860
   1369  O3'       -5.8250   -2.9240    7.7210 O.3    79  U79        -0.3112
   1370  C2'       -3.4160   -2.9210    8.0180 C.3    79  U79         0.2309
   1371  O2'       -3.4160   -4.0630    7.1870 O.3    79  U79        -0.2156
   1372  C1'       -2.3520   -1.9290    7.5460 C.3    79  U79         0.2420
   1373  N1        -1.7370   -1.1790    8.6500 N.ar   79  U79        -0.2534
   1374  C2        -0.6730   -1.7660    9.3090 C.ar   79  U79         0.3546
   1375  O2        -0.2410   -2.8680    9.0150 O.2    79  U79        -0.2443
   1376  N3        -0.1370   -1.0160   10.3260 N.ar   79  U79        -0.1530
   1377  C4        -0.5500    0.2320   10.7430 C.ar   79  U79         0.2846
   1378  O4         0.0490    0.7920   11.6620 O.2    79  U79        -0.2650
   1379  C5        -1.6590    0.7680   10.0160 C.ar   79  U79         0.0814
   1380  C6        -2.2000    0.0620    9.0180 C.ar   79  U79         0.0870
   1381  OP1       -7.3120    1.9100    7.3520 O.2    79  U79        -0.5172
   1382  OP2       -5.6280    2.6890    9.1230 O.co2  79  U79        -0.4373
   1383  P         -6.6400   -3.4010    9.0190 P.3    80  C80         0.2141
   1384  C5'       -5.3450   -5.6860    9.0270 C.3    80  C80         0.1812
   1385  O5'       -5.6830   -4.4770    9.7000 O.3    80  C80        -0.3114
   1386  C4'       -4.4450   -6.5340    9.8950 C.3    80  C80         0.1773
   1387  O4'       -3.1220   -5.9370    9.9410 O.3    80  C80        -0.3307
   1388  C3'       -4.8640   -6.6460   11.3520 C.3    80  C80         0.1860
   1389  O3'       -5.8010   -7.7060   11.5200 O.3    80  C80        -0.3112
   1390  C2'       -3.5420   -6.9660   12.0410 C.3    80  C80         0.2309
   1391  O2'       -3.1910   -8.3320   11.9520 O.3    80  C80        -0.2156
   1392  C1'       -2.5580   -6.1220   11.2290 C.3    80  C80         0.2420
   1393  N1        -2.3060   -4.7980   11.8200 N.ar   80  C80        -0.2535
   1394  C2        -1.2490   -4.6540   12.7240 C.ar   80  C80         0.3532
   1395  O2        -0.5500   -5.6420   12.9950 O.2    80  C80        -0.2443
   1396  N3        -1.0130   -3.4420   13.2770 N.ar   80  C80        -0.1739
   1397  C4        -1.7820   -2.3990   12.9520 C.ar   80  C80         0.1759
   1398  N4        -1.5070   -1.2190   13.5140 N.pl3  80  C80        -0.1070
   1399  C5        -2.8650   -2.5190   12.0340 C.ar   80  C80         0.0566
   1400  C6        -3.0900   -3.7250   11.4960 C.ar   80  C80         0.0850
   1401  OP1       -7.8760   -4.0870    8.5640 O.2    80  C80        -0.5172
   1402  OP2       -6.7400   -2.2320    9.9300 O.co2  80  C80        -0.4373
   1403  P         -6.9510   -7.5830   12.6370 P.3    81  C81         0.2141
   1404  C5'       -5.5510   -8.9370   14.3990 C.3    81  C81         0.1813
   1405  O5'       -6.1630   -7.7080   14.0170 O.3    81  C81        -0.3114
   1406  C4'       -4.6890   -8.7380   15.6240 C.3    81  C81         0.1801
   1407  O4'       -3.6440   -7.7770   15.3390 O.3    81  C81        -0.3306
   1408  C3'       -5.3740   -8.1220   16.8300 C.3    81  C81         0.2161
   1409  O3'       -6.2570   -9.0160   17.5160 O.3    81  C81        -0.2175
   1410  C2'       -4.1840   -7.6390   17.6540 C.3    81  C81         0.2338
   1411  O2'       -3.5820   -8.6640   18.4170 O.3    81  C81        -0.2155
   1412  C1'       -3.2110   -7.1940   16.5570 C.3    81  C81         0.2421
   1413  N1        -3.1580   -5.7350   16.3840 N.ar   81  C81        -0.2535
   1414  C2        -2.0560   -5.0390   16.8900 C.ar   81  C81         0.3532
   1415  O2        -1.1530   -5.6760   17.4530 O.2    81  C81        -0.2443
   1416  N3        -2.0020   -3.6950   16.7490 N.ar   81  C81        -0.1739
   1417  C4        -2.9900   -3.0490   16.1270 C.ar   81  C81         0.1759
   1418  N4        -2.8930   -1.7230   16.0080 N.pl3  81  C81        -0.1070
   1419  C5        -4.1220   -3.7340   15.5960 C.ar   81  C81         0.0566
   1420  C6        -4.1650   -5.0650   15.7460 C.ar   81  C81         0.0850
   1421  OP1       -7.8500   -8.7580   12.5060 O.2    81  C81        -0.5172
   1422  OP2       -7.5170   -6.2130   12.5430 O.co2  81  C81        -0.4373
@<TRIPOS>BOND
     1   720   719    2
     2   686   665    2
     3   721   719   ar
     4   721   722   ar
     5   723   722    2
     6   706   688    2
     7   719   718   ar
     8   722   724   ar
     9   295   277    2
    10   242   241    1
    11   262   261    1
    12   666   667    1
    13   666   668    1
    14   649   665    1
    15   649   648    1
    16   260   277    1
    17   260   259    1
    18   651   650    1
    19   257   255    1
    20   257   258    1
    21   257   259    1
    22   255   256    1
    23   718   717    1
    24   718   725   ar
    25   665   667    1
    26   665   687    1
    27   688   707    1
    28   688   671    1
    29   688   690    1
    30   724   725   ar
    31   712   717    1
    32   712   711    1
    33   717   715    1
    34   671   670    1
    35   668   670    1
    36   668   669    1
    37   275   254    2
    38   258   263    1
    39   277   279    1
    40   277   296    1
    41   646   644    1
    42   646   648    1
    43   646   647    1
    44   259   261    1
    45   727   708    2
    46   644   645    1
    47   261   263    1
    48   648   650    1
    49   240   254    1
    50   240   239    1
    51   241   243    1
    52   241   239    1
    53   650   652    1
    54   279   278    1
    55   263   274    1
    56   148   128    2
    57   256   254    1
    58   710   708    1
    59   710   709    1
    60   690   689    1
    61   670   672    1
    62   629   628    1
    63   711   709    1
    64   711   713    1
    65   689   691    1
    66   254   276    1
    67   168   150    2
    68   669   674    1
    69   647   652    1
    70   237   239    1
    71   237   238    1
    72   237   235    1
    73   243   238    1
    74   243   244    1
    75   663   643    2
    76   747   728    2
    77   246   245    2
    78   715   716    1
    79   715   713    1
    80   714   713    1
    81   714   728    1
    82   652   662    1
    83   708   726    1
    84   708   694    1
    85   673   672    1
    86   645   643    1
    87   746   728    1
    88   169   150    1
    89   278   280    1
    90   728   730    1
    91   627   643    1
    92   627   626    1
    93   672   674    1
    94   693   691    1
    95   693   694    1
    96   693   695    1
    97   691   692    1
    98   280   281    1
    99   280   282    1
   100   274   273   ar
   101   274   268   ar
   102   150   134    1
   103   150   152    1
   104   643   664    1
   105   128   114    1
   106   128   149    1
   107   128   130    1
   108   235   236    1
   109   628   626    1
   110   628   630    1
   111   674   685    1
   112   245   244   ar
   113   245   247   ar
   114   281   286    1
   115   114   113    1
   116   244   251   ar
   117   129   130    1
   118   129   131    1
   119   267   268   ar
   120   267   265   ar
   121   285   284    1
   122   187   188   ar
   123   187   184   ar
   124   626   624    1
   125   188   189   ar
   126   695   696    1
   127   695   697    1
   128   662   656   ar
   129   662   661   ar
   130   283   282    1
   131   283   297    1
   132   624   625    1
   133   624   622    1
   134   134   133    1
   135   273   272   ar
   136   655   656   ar
   137   655   654   ar
   138   268   269   ar
   139   630   625    1
   140   630   640    1
   141   126   108    2
   142   151   152    1
   143   151   153    1
   144   318   297    2
   145   684   685   ar
   146   684   683   ar
   147   282   284    1
   148   692   697    1
   149   685   679   ar
   150   266   265    1
   151   286   284    1
   152   286   287    1
   153   633   632   ar
   154   633   634   ar
   155   730   729    1
   156   236   234    1
   157   656   657   ar
   158   116   115    1
   159   131   133    1
   160   131   132    1
   161   247   248   ar
   162   109   111    1
   163   109   110    1
   164   265   264   ar
   165   251   250   ar
   166   222   221    1
   167   111   113    1
   168   111   112    1
   169   113   115    1
   170   622   623    1
   171   661   660   ar
   172   654   653   ar
   173   632   631   ar
   174   133   135    1
   175   297   299    1
   176   297   319    1
   177   186   185    1
   178   697   698    1
   179   298   299    1
   180   298   300    1
   181   184   185   ar
   182   184   183   ar
   183   189   179    1
   184   189   183   ar
   185   705   698   ar
   186   705   704   ar
   187   272   269   ar
   188   252   234    2
   189   269   270   ar
   190   640   634   ar
   191   640   639   ar
   192   729   731    1
   193   634   635   ar
   194   115   117    1
   195   683   680   ar
   196   110   108    1
   197   179   174    1
   198   179   177    1
   199   108    92    1
   200   108   127    1
   201   153   154    1
   202   153   155    1
   203   226   225    2
   204   185   180   ar
   205   287   294   ar
   206   287   288   ar
   207   234   220    1
   208   234   253    1
   209   679   678   ar
   210   679   680   ar
   211   248   250   ar
   212   248   249    1
   213   698   699   ar
   214   704   702   ar
   215   294   293   ar
   216   132   137    1
   217   221   223    1
   218   221   219    1
   219   657   660   ar
   220   657   658   ar
   221   183   182   ar
   222   136   135    1
   223  1171  1153    2
   224   264   270   ar
   225   174   173    1
   226   300   301    1
   227   300   302    1
   228   112   117    1
   229   220   219    1
   230   166   167   ar
   231   166   164   ar
   232    92    91    1
   233   167   160   ar
   234   154   159    1
   235   623   621    1
   236   631   636   ar
   237   135   137    1
   238  1108  1088    2
   239   653   658   ar
   240   609   608    1
   241   678   676   ar
   242   178   177    1
   243   270   271    2
   244   190   170    2
   245    94    93    1
   246   680   681   ar
   247   301   306    1
   248   613   612    2
   249   117   118    1
   250   744   745   ar
   251   744   742   ar
   252   639   638   ar
   253   177   175    1
   254   289   288    2
   255   745   738   ar
   256   155   157    1
   257   155   156    1
   258   223   224    1
   259   223   218    1
   260   635   636   ar
   261   635   638   ar
   262   658   659    1
   263   288   290   ar
   264   731   733    1
   265   731   732    1
   266   219   217    1
   267   137   147    1
   268   641   621    2
   269   225   224   ar
   270   225   227   ar
   271   293   291   ar
   272   180   181   ar
   273  1136  1153    1
   274  1136  1135    1
   275   338   320    2
   276   733   735    1
   277   733   734    1
   278   303   302    1
   279   303   320    1
   280   172   170    1
   281   172   171    1
   282   699   700    2
   283   699   701   ar
   284   732   737    1
   285   173   175    1
   286   173   171    1
   287   636   637    1
   288   164   165    2
   289   164   163   ar
   290   608   610    1
   291   608   606    1
   292   702   701   ar
   293   702   703    2
   294   160   159    1
   295   160   161   ar
   296   157   159    1
   297   157   158    1
   298  1153  1172    1
   299  1153  1155    1
   300   182   181   ar
   301   302   304    1
   302  1131  1133    1
   303  1131  1132    1
   304  1151  1130    2
   305   735   737    1
   306   735   736    1
   307   621   607    1
   308   621   642    1
   309    91    93    1
   310    91    89    1
   311   217   218    1
   312   217   215    1
   313    93    95    1
   314  1090  1088    1
   315  1090  1089    1
   316   170   156    1
   317   170   191    1
   318   224   231   ar
   319   766   748    2
   320   676   677    1
   321   676   675   ar
   322  1133  1135    1
   323  1133  1134    1
   324  1096  1095    1
   325  1088  1072    1
   326  1088  1109    1
   327   743   742    2
   328   612   614   ar
   329   612   611   ar
   330   742   741   ar
   331   227   228   ar
   332   339   320    1
   333   607   606    1
   334   320   322    1
   335  1154  1155    1
   336  1154  1156    1
   337   681   675   ar
   338   681   682    2
   339   118   125   ar
   340   118   119   ar
   341   738   737    1
   342   738   739   ar
   343   175   176    1
   344   306   304    1
   345   306   317    1
   346  1138  1137    1
   347    89    87    1
   348    89    90    1
   349   290   291   ar
   350  1191  1173    2
   351   146   147   ar
   352   146   145   ar
   353   147   141   ar
   354   614   615   ar
   355   305   304    1
   356   291   292    1
   357   610   611    1
   358   610   605    1
   359   316   317   ar
   360   316   315   ar
   361  1135  1137    1
   362   125   124   ar
   363  1118  1117    1
   364   163   161   ar
   365   606   604    1
   366  1072  1071    1
   367   734   748    1
   368   120   119    2
   369  1091  1089    1
   370  1091  1092    1
   371  1091  1093    1
   372   161   162    2
   373   767   748    1
   374    87    88    1
   375   748   750    1
   376   611   618   ar
   377  1094  1093    1
   378  1094  1110    1
   379  1116  1130    1
   380  1116  1115    1
   381  1132  1130    1
   382   317   311   ar
   383  1130  1152    1
   384   119   121   ar
   385  1134  1139    1
   386   176   192    1
   387    95    90    1
   388    95   105    1
   389   741   739   ar
   390   215   216    1
   391  1128  1110    2
   392  1137  1139    1
   393   590   589    1
   394  1092  1097    1
   395  1069  1071    1
   396  1069  1067    1
   397  1069  1070    1
   398   231   230   ar
   399  1156  1158    1
   400  1156  1157    1
   401   739   740    2
   402  1095  1093    1
   403  1095  1097    1
   404   106    86    2
   405  1159  1173    1
   406  1159  1158    1
   407   228   229    2
   408   228   230   ar
   409   315   312   ar
   410  1173  1192    1
   411  1173  1175    1
   412   604   605    1
   413   604   602    1
   414   145   142   ar
   415  1071  1073    1
   416   615   616    1
   417   615   617   ar
   418   322   321    1
   419  1097  1107    1
   420    88    86    1
   421  1067  1068    1
   422  1022  1001    2
   423   141   140   ar
   424   141   142   ar
   425   124   122   ar
   426  1139  1150    1
   427  1348  1347    1
   428  1110  1129    1
   429  1110  1112    1
   430  1117  1115    1
   431  1117  1119    1
   432  1070  1075    1
   433   216   214    1
   434  1158  1160    1
   435   321   323    1
   436  1115  1113    1
   437   804   803    1
   438    98    99   ar
   439    98    97   ar
   440  1113  1111    1
   441  1113  1114    1
   442   618   617   ar
   443   140   139   ar
   444   121   122   ar
   445   311   312   ar
   446   311   310   ar
   447   999   981    2
   448  1157  1162    1
   449   105    99   ar
   450   105   104   ar
   451   750   749    1
   452    86   107    1
   453    86    72    1
   454  1052  1051    1
   455   142   143   ar
   456   589   588   ar
   457   589   591   ar
   458   982   984    1
   459   982   983    1
   460  1328  1327    1
   461   312   313   ar
   462   193   194    1
   463   193   195    1
   464   588   594   ar
   465   969   968    1
   466   122   123    2
   467   192   194    1
   468   192   213    2
   469   192   212    1
   470  1075  1073    1
   471  1075  1085    1
   472    99   100   ar
   473  1344  1343    1
   474  1344  1349    1
   475   749   751    1
   476  1078  1077   ar
   477  1078  1079   ar
   478  1343  1341    1
   479  1343  1345    1
   480  1111  1112    1
   481    97    96   ar
   482   967   981    1
   483   967   966    1
   484  1175  1174    1
   485   987  1001    1
   486   987   986    1
   487  1332  1331    2
   488  1119  1114    1
   489  1119  1120    1
   490   602   603    1
   491   984   986    1
   492   984   985    1
   493  1349  1347    1
   494  1349  1360    1
   495  1001  1023    1
   496  1001  1003    1
   497  1073  1074    1
   498   783   782    2
   499   310   308   ar
   500  1086  1066    2
   501  1309  1310   ar
   502  1309  1308   ar
   503   798   803   ar
   504   798   799   ar
   505  1068  1066    1
   506  1174  1176    1
   507  1347  1345    1
   508  1107  1101   ar
   509  1107  1106   ar
   510  1077  1076   ar
   511  1364  1366    1
   512  1364  1365    1
   513  1150  1149   ar
   514  1150  1144   ar
   515   803   802   ar
   516   104   103   ar
   517  1366  1367    1
   518  1366  1368    1
   519   964   962    1
   520   964   966    1
   521   964   965    1
   522  1100  1101   ar
   523  1100  1099   ar
   524   981   983    1
   525   981  1000    1
   526    72    71    1
   527   591   592   ar
   528  1161  1160    1
   529  1367  1372    1
   530  1341  1342    1
   531  1346  1345    1
   532  1346  1363    1
   533  1160  1162    1
   534    74    73    1
   535   336   337   ar
   536   336   334   ar
   537   822   821    2
   538   139   138   ar
   539   323   324    1
   540   323   325    1
   541   823   821   ar
   542   823   824   ar
   543  1329  1327    1
   544  1329  1324    1
   545  1329  1330    1
   546   603   601    1
   547  1162  1163    1
   548  1310  1311   ar
   549   337   330   ar
   550   962   963    1
   551  1050  1066    1
   552  1050  1049    1
   553   214   198    1
   554   214   232    2
   555   214   233    1
   556  1308  1313   ar
   557  1149  1148   ar
   558  1170  1163   ar
   559  1170  1169   ar
   560   195   197    1
   561   195   196    1
   562  1122  1121    2
   563  1327  1325    1
   564   825   824    1
   565   324   329    1
   566   594   595    2
   567   594   593   ar
   568   764   765   ar
   569   764   762   ar
   570   986   988    1
   571  1353  1351   ar
   572  1353  1354   ar
   573   313   314    2
   574   313   307   ar
   575   989   988    1
   576   966   968    1
   577   143   138   ar
   578   143   144    1
   579  1066  1087    1
   580  1051  1053    1
   581  1051  1049    1
   582  1352  1351    1
   583  1101  1102   ar
   584  1079  1085   ar
   585  1079  1080   ar
   586   985   990    1
   587  1085  1084   ar
   588   100   103   ar
   589   100   101   ar
   590  1371  1370    1
   591   968   970    1
   592  1324  1323    1
   593    96   101   ar
   594   198   197    1
   595   765   758   ar
   596  1212  1193    2
   597  1331  1330   ar
   598  1331  1333   ar
   599  1106  1105   ar
   600  1381  1363    2
   601   965   970    1
   602   821   820   ar
   603   782   784   ar
   604   782   781   ar
   605   787   768    2
   606  1360  1354   ar
   607  1360  1359   ar
   608  1003  1002    1
   609    73    71    1
   610    73    75    1
   611   362   340    2
   612   799   800   ar
   613   751   752    1
   614   751   753    1
   615   308   307   ar
   616   308   309    1
   617   947   946    1
   618   824   826   ar
   619  1002  1004    1
   620  1372  1370    1
   621  1372  1373    1
   622  1143  1144   ar
   623  1143  1141   ar
   624  1323  1325    1
   625  1323  1321    1
   626  1211  1193    1
   627  1144  1145   ar
   628  1120  1121   ar
   629  1120  1127   ar
   630   784   785   ar
   631  1099  1098   ar
   632  1163  1164   ar
   633  1169  1167   ar
   634   752   757    1
   635  1365  1363    1
   636  1076  1081   ar
   637  1351  1350   ar
   638  1053  1048    1
   639  1053  1063    1
   640    71    69    1
   641  1369  1368    1
   642  1369  1383    1
   643   325   326    1
   644   325   327    1
   645  1354  1355   ar
   646  1330  1337   ar
   647  1049  1047    1
   648  1363  1382    1
   649   592   593   ar
   650   592   598   ar
   651   970   971    1
   652   802   805   ar
   653   802   801   ar
   654   334   335    2
   655   334   333   ar
   656   101   102    1
   657   197   199    1
   658  1306  1305    1
   659  1121  1123   ar
   660   988   990    1
   661  1176  1177    1
   662  1176  1178    1
   663  1368  1370    1
   664   196   201    1
   665  1326  1325    1
   666  1326  1340    1
   667   763   762    1
   668   979   961    2
   669  1048  1047    1
   670  1047  1045    1
   671   586   585    1
   672  1342  1340    1
   673   326   340    1
   674   593   596   ar
   675   330   329    1
   676   330   331   ar
   677  1193  1179    1
   678  1193  1195    1
   679   762   761   ar
   680   990   991    1
   681    78    77    2
   682  1333  1334   ar
   683  1311  1312   ar
   684  1311  1317   ar
   685  1148  1145   ar
   686   329   327    1
   687   963   961    1
   688  1313  1314    1
   689  1313  1312   ar
   690   805   806   ar
   691   340   361    1
   692   340   342    1
   693   601   619    2
   694   601   620    1
   695   601   584    1
   696  1042  1024    2
   697  1359  1358   ar
   698   585   587    1
   699   585   583    1
   700   753   754    1
   701   753   755    1
   702  1179  1178    1
   703  1102  1105   ar
   704  1102  1103   ar
   705  1056  1055   ar
   706  1056  1057   ar
   707  1080  1081   ar
   708  1080  1083   ar
   709  1084  1083   ar
   710  1177  1182    1
   711   781   779   ar
   712  1401  1383    2
   713   758   757    1
   714   758   759   ar
   715  1321  1322    1
   716   820   819    1
   717   820   827   ar
   718  1127  1126   ar
   719  1178  1180    1
   720  1373  1380   ar
   721  1373  1374   ar
   722  1145  1146   ar
   723  1361  1340    2
   724  1081  1082    1
   725   800   801   ar
   726  1305  1307    1
   727  1305  1303    1
   728  1141  1142    1
   729  1141  1140   ar
   730   768   754    1
   731   768   786    1
   732   768   770    1
   733  1340  1362    1
   734  1307  1317    1
   735  1307  1302    1
   736   818   817    1
   737   826   827   ar
   738   951   950   ar
   739   951   952   ar
   740  1350  1356   ar
   741   946   948    1
   742   946   944    1
   743   801   807   ar
   744   950   949   ar
   745    75    76    1
   746    75    70    1
   747   785   778   ar
   748   757   755    1
   749   961   945    1
   750   961   980    1
   751  1098  1103   ar
   752  1004  1006    1
   753  1004  1005    1
   754  1063  1057   ar
   755  1063  1062   ar
   756  1355  1358   ar
   757  1355  1356   ar
   758   598   587    1
   759   598   597   ar
   760  1190  1189   ar
   761  1190  1183   ar
   762    69    70    1
   763    69    67    1
   764   333   331   ar
   765   327   328    1
   766   945   944    1
   767  1312  1315   ar
   768  1164  1165    2
   769  1164  1166   ar
   770   817   819    1
   771   817   815    1
   772  1375  1374    2
   773  1380  1379   ar
   774  1383  1385    1
   775  1383  1402    1
   776  1384  1385    1
   777  1384  1386    1
   778  1337  1336   ar
   779  1167  1166   ar
   780  1167  1168    2
   781    77    76   ar
   782    77    79   ar
   783   200   199    1
   784  1055  1054   ar
   785  1189  1187   ar
   786  1317  1316   ar
   787   587   582    1
   788   199   201    1
   789   331   332    2
   790   819   814    1
   791  1123  1124   ar
   792  1006  1008    1
   793  1006  1007    1
   794   201   211    1
   795  1057  1058   ar
   796   584   583    1
   797   973   972    2
   798   971   972   ar
   799   971   978   ar
   800  1045  1046    1
   801  1374  1376   ar
   802   596   597   ar
   803  1103  1104    1
   804  1046  1044    1
   805   761   759   ar
   806  1025  1026    1
   807  1025  1027    1
   808    76    83   ar
   809   991   998   ar
   810   991   992   ar
   811  1334  1336   ar
   812  1334  1335    2
   813   583   581    1
   814  1195  1194    1
   815  1356  1357    2
   816   998   997   ar
   817   755   756    1
   818   948   943    1
   819   948   958    1
   820   806   807   ar
   821    79    80   ar
   822  1252  1251    1
   823   759   760    2
   824  1290  1289    2
   825   770   769    1
   826   210   211   ar
   827   210   209   ar
   828   944   942    1
   829   358   359   ar
   830   358   355   ar
   831  1302  1301    1
   832  1008  1009    1
   833  1008  1010    1
   834   342   341    1
   835  1024  1007    1
   836  1024  1026    1
   837  1024  1043    1
   838   779   778   ar
   839   779   780    2
   840  1322  1320    1
   841  1182  1183    1
   842  1182  1180    1
   843   949   954   ar
   844  1126  1124   ar
   845  1386  1387    1
   846  1386  1388    1
   847  1005  1010    1
   848   573   572    1
   849  1140  1146   ar
   850    67    68    1
   851  1387  1392    1
   852   972   974   ar
   853   778   777    1
   854  1146  1147    2
   855   807   797    1
   856   978   977   ar
   857  1379  1377   ar
   858   357   356    2
   859  1183  1184   ar
   860  1062  1061   ar
   861  1180  1181    1
   862   952   958   ar
   863   952   953   ar
   864   211   205   ar
   865   380   379    2
   866   552   551    1
   867    68    66    1
   868  1020  1019   ar
   869  1020  1021   ar
   870  1303  1304    1
   871  1303  1301    1
   872  1027  1028    1
   873  1027  1029    1
   874   359   360   ar
   875   942   943    1
   876   942   940    1
   877  1124  1125    2
   878  1291  1289   ar
   879  1291  1292   ar
   880  1376  1377   ar
   881  1054  1059   ar
   882  1304  1320    1
   883  1315  1316   ar
   884   531   530    1
   885   815   816    1
   886   815   813    1
   887  1273  1272    1
   888    83    82   ar
   889   845   844    1
   890  1187  1188    1
   891  1187  1186   ar
   892  1209  1210   ar
   893  1209  1207   ar
   894   571   572   ar
   895   571   569   ar
   896   958   957   ar
   897  1301  1299    1
   898   993   992    2
   899  1194  1196    1
   900   582   581    1
   901  1058  1061   ar
   902  1058  1059   ar
   903   814   813    1
   904    80    82   ar
   905    80    81    1
   906   809   788    2
   907  1289  1288   ar
   908   992   994   ar
   909  1064  1044    2
   910   444   443    1
   911   505   504    1
   912  1010  1021    1
   913   581   579    1
   914   816   830    1
   915   997   995   ar
   916  1377  1378    2
   917   209   206   ar
   918  1293  1292    2
   919  1019  1016   ar
   920  1208  1207    1
   921   572   574   ar
   922  1044  1030    1
   923  1044  1065    1
   924   355   356   ar
   925   355   354   ar
   926   402   401    1
   927   341   343    1
   928   356   350   ar
   929  1251  1246   ar
   930  1251  1250   ar
   931   846   844   ar
   932   846   847   ar
   933  1021  1015   ar
   934  1028  1033    1
   935  1320  1338    2
   936  1320  1339    1
   937   849   830    2
   938  1210  1203   ar
   939  1230  1229    2
   940   570   569    2
   941  1059  1060    1
   942   954   953   ar
   943   954   955    1
   944  1235  1213    2
   945   769   771    1
   946  1292  1294   ar
   947   546   551   ar
   948   546   547   ar
   949  1392  1393    1
   950  1392  1390    1
   951   953   956   ar
   952   551   550   ar
   953   772   777    1
   954   772   771    1
   955  1029  1030    1
   956  1029  1031    1
   957   974   975   ar
   958   813   811    1
   959   931   930    2
   960   844   843   ar
   961   777   775    1
   962   379   373   ar
   963   379   378   ar
   964  1207  1206   ar
   965  1184  1186   ar
   966  1184  1185    2
   967   977   975   ar
   968   797   795    1
   969   797   792    1
   970  1388  1389    1
   971  1388  1390    1
   972   848   830    1
   973   569   568   ar
   974  1271  1272   ar
   975  1271  1269   ar
   976  1246  1247   ar
   977   205   206   ar
   978   205   204   ar
   979   830   832    1
   980   438   443   ar
   981   438   439   ar
   982  1400  1393   ar
   983  1400  1399   ar
   984   423   422    2
   985    84    66    2
   986  1389  1403    1
   987  1272  1274   ar
   988   940   941    1
   989   360   354   ar
   990   360   349    1
   991   773   771    1
   992   773   775    1
   993   773   774    1
   994   530   532   ar
   995   530   529   ar
   996    66    85    1
   997    66    50    1
   998   443   442   ar
   999   344   343    1
  1000   344   349    1
  1001   795   793    1
  1002   795   796    1
  1003  1253  1250   ar
  1004  1253  1254   ar
  1005   994   995   ar
  1006    55    54   ar
  1007    55    56   ar
  1008  1393  1394   ar
  1009   957   956   ar
  1010   504   506   ar
  1011   504   503   ar
  1012   206   207   ar
  1013   995   996    1
  1014  1196  1197    1
  1015  1196  1198    1
  1016   532   533   ar
  1017  1250  1249   ar
  1018   381   378   ar
  1019   381   382   ar
  1020  1299  1300    1
  1021   847   840   ar
  1022  1288  1287    1
  1023  1288  1295   ar
  1024    54    59   ar
  1025   775   776    1
  1026   354   353   ar
  1027  1391  1390    1
  1028   975   976    1
  1029   373   374   ar
  1030   788   790    1
  1031   788   774    1
  1032   788   808    1
  1033   501   500    1
  1034  1016  1015   ar
  1035  1016  1017   ar
  1036  1286  1285    1
  1037  1399  1397   ar
  1038   579   580    1
  1039   908   907    1
  1040  1231  1228   ar
  1041  1231  1232   ar
  1042   421   422   ar
  1043   421   419   ar
  1044   343   345    1
  1045  1197  1202    1
  1046   401   396   ar
  1047   401   400   ar
  1048   790   789    1
  1049   574   575   ar
  1050  1015  1014   ar
  1051   378   377   ar
  1052   350   351   ar
  1053  1229  1228   ar
  1054  1229  1223   ar
  1055   580   578    1
  1056    52    51    1
  1057   204   203   ar
  1058   792   791    1
  1059  1198  1199    1
  1060  1198  1200    1
  1061   506   507   ar
  1062  1287  1285    1
  1063  1287  1282    1
  1064   906   907   ar
  1065   906   912   ar
  1066    56    57   ar
  1067   812   811    1
  1068   812   810    1
  1069   547   548   ar
  1070  1285  1283    1
  1071   396   397   ar
  1072  1033  1031    1
  1073  1033  1034    1
  1074   930   932   ar
  1075   930   929   ar
  1076   913   912    2
  1077   422   424   ar
  1078   932   933   ar
  1079  1203  1202    1
  1080  1203  1204   ar
  1081   927   926    1
  1082   385   363    2
  1083  1270  1269    2
  1084  1213  1199    1
  1085  1213  1234    1
  1086  1213  1215    1
  1087   349   347    1
  1088    50    49    1
  1089   439   440   ar
  1090   550   553   ar
  1091   550   549   ar
  1092   793   791    1
  1093   793   794    1
  1094  1421  1403    2
  1095  1269  1268   ar
  1096   843   841   ar
  1097  1031  1032    1
  1098  1422  1403    1
  1099  1294  1295   ar
  1100   420   419    2
  1101   529   527   ar
  1102   503   509   ar
  1103   941   939    1
  1104    51    49    1
  1105    51    53    1
  1106  1300  1298    1
  1107  1041  1034   ar
  1108  1041  1040   ar
  1109  1403  1405    1
  1110   568   575   ar
  1111   568   567    1
  1112   867   866    2
  1113  1206  1204   ar
  1114   345   347    1
  1115   345   346    1
  1116    59    60    1
  1117    59    58   ar
  1118  1394  1395    2
  1119  1394  1396   ar
  1120  1228  1227   ar
  1121   482   481    1
  1122  1247  1248   ar
  1123   829   810    2
  1124  1274  1275   ar
  1125   442   445   ar
  1126   442   441   ar
  1127   553   554   ar
  1128   907   909   ar
  1129  1397  1396   ar
  1130  1397  1398    1
  1131   419   418   ar
  1132  1254  1255   ar
  1133   832   831    1
  1134   912   911   ar
  1135  1232  1233   ar
  1136   926   928    1
  1137   926   924    1
  1138  1202  1200    1
  1139   382   383   ar
  1140    57    58   ar
  1141    57    63   ar
  1142  1017  1018    2
  1143  1017  1011   ar
  1144  1034  1035   ar
  1145    49    47    1
  1146   791   789    1
  1147   533   526   ar
  1148   500   502    1
  1149   500   498    1
  1150   840   841   ar
  1151   840   839    1
  1152   353   351   ar
  1153   400   403   ar
  1154   400   399   ar
  1155  1249  1248   ar
  1156  1249  1255   ar
  1157  1204  1205    2
  1158  1014  1012   ar
  1159   535   516    2
  1160   207   208    1
  1161   207   202   ar
  1162  1223  1224   ar
  1163   351   352    1
  1164   890   889    2
  1165   445   446   ar
  1166   403   404   ar
  1167  1040  1038   ar
  1168    58    61   ar
  1169   565   567    1
  1170   565   566    1
  1171   565   563    1
  1172   374   375    1
  1173   374   376   ar
  1174   810   794    1
  1175   810   828    1
  1176   347   348    1
  1177   841   842    2
  1178   831   833    1
  1179   928   929    1
  1180   928   923    1
  1181   346   363    1
  1182   377   383   ar
  1183   377   376   ar
  1184   507   513   ar
  1185   507   508   ar
  1186  1200  1201    1
  1187   203   202   ar
  1188  1215  1214    1
  1189   934   933    1
  1190   548   549   ar
  1191   929   936   ar
  1192   933   935   ar
  1193   549   555   ar
  1194   567   562    1
  1195   600   578    2
  1196   397   398   ar
  1197  1282  1281    1
  1198   502   513    1
  1199   502   497    1
  1200   440   441   ar
  1201   834   839    1
  1202   834   833    1
  1203   578   599    1
  1204   578   564    1
  1205   363   365    1
  1206   363   384    1
  1207    63    53    1
  1208    63    62   ar
  1209  1268  1275   ar
  1210  1268  1267    1
  1211  1283  1284    1
  1212  1283  1281    1
  1213   441   447   ar
  1214   424   425   ar
  1215    53    48    1
  1216   527   526   ar
  1217   527   528    2
  1218   509   508   ar
  1219   509   510    2
  1220   866   860   ar
  1221   866   865   ar
  1222  1255  1245    1
  1223   481   480   ar
  1224   481   483   ar
  1225   480   486   ar
  1226  1405  1404    1
  1227   499   498    1
  1228   499   516    1
  1229   383   372    1
  1230  1227  1233   ar
  1231  1227  1226   ar
  1232   939   925    1
  1233   939   959    2
  1234   939   960    1
  1235    61    62   ar
  1236  1257  1236    2
  1237  1298  1284    1
  1238  1298  1319    2
  1239  1298  1318    1
  1240   526   525    1
  1241  1011  1012   ar
  1242   554   555   ar
  1243   513   512   ar
  1244   909   910   ar
  1245  1012  1013    1
  1246   839   837    1
  1247   883   889   ar
  1248   883   884   ar
  1249   563   564    1
  1250   563   561    1
  1251  1233  1222    1
  1252   418   425   ar
  1253   418   417    1
  1254   925   924    1
  1255   889   888   ar
  1256   508   511   ar
  1257  1035  1036    2
  1258  1035  1037   ar
  1259   498   496    1
  1260   924   922    1
  1261  1404  1406    1
  1262   911   910   ar
  1263   911   914   ar
  1264   516   534    1
  1265   516   518    1
  1266   833   835    1
  1267   399   398   ar
  1268   399   405   ar
  1269   860   861   ar
  1270   446   447   ar
  1271  1281  1279    1
  1272   365   364    1
  1273  1224  1226   ar
  1274  1224  1225    1
  1275   404   405   ar
  1276  1038  1037   ar
  1277  1038  1039    2
  1278    47    48    1
  1279    47    45    1
  1280   555   545    1
  1281   868   865   ar
  1282   868   869   ar
  1283   497   496    1
  1284   936   935   ar
  1285   923   922    1
  1286   865   864   ar
  1287   416   415    1
  1288   447   437    1
  1289   910   916   ar
  1290   562   561    1
  1291   557   536    2
  1292  1214  1216    1
  1293   483   484   ar
  1294   496   494    1
  1295  1267  1265    1
  1296  1267  1262    1
  1297   487   486    2
  1298   885   884    1
  1299   486   485   ar
  1300   835   837    1
  1301   835   836    1
  1302   517   518    1
  1303   517   519    1
  1304   922   920    1
  1305   417   415    1
  1306   417   412    1
  1307   884   886   ar
  1308   405   395    1
  1309  1245  1240    1
  1310  1245  1243    1
  1311  1407  1406    1
  1312  1407  1412    1
  1313    46    45    1
  1314    46    44    1
  1315   837   838    1
  1316   512   511   ar
  1317  1217  1222    1
  1318  1217  1216    1
  1319  1265  1266    1
  1320  1265  1263    1
  1321  1218  1216    1
  1322  1218  1220    1
  1323  1218  1219    1
  1324   914   915   ar
  1325   372   367    1
  1326   372   370    1
  1327   561   559    1
  1328    38    37    2
  1329   367   366    1
  1330  1222  1220    1
  1331   525   520    1
  1332   525   523    1
  1333  1240  1239    1
  1334  1419  1420   ar
  1335  1419  1417   ar
  1336    33    32    1
  1337  1406  1408    1
  1338   872   850    2
  1339  1236  1238    1
  1340  1236  1219    1
  1341  1236  1256    1
  1342    31    37   ar
  1343    31    32   ar
  1344   520   519    1
  1345   888   891   ar
  1346   888   887   ar
  1347   577   558    2
  1348   415   413    1
  1349  1420  1413   ar
  1350   521   519    1
  1351   521   523    1
  1352   521   522    1
  1353   861   862    1
  1354   861   863   ar
  1355   364   366    1
  1356   560   559    1
  1357   560   558    1
  1358   869   870   ar
  1359  1280  1279    1
  1360  1280  1278    1
  1361   407   386    2
  1362  1237  1238    1
  1363  1237  1239    1
  1364    37    36   ar
  1365  1220  1221    1
  1366  1418  1417    1
  1367   484   485   ar
  1368   484   490   ar
  1369  1262  1261    1
  1370   545   543    1
  1371   545   540    1
  1372    65    44    2
  1373    32    34   ar
  1374  1417  1416   ar
  1375   437   432    1
  1376   437   435    1
  1377   523   524    1
  1378   864   863   ar
  1379   864   870   ar
  1380   485   488   ar
  1381   891   892   ar
  1382  1243  1241    1
  1383  1243  1244    1
  1384   916   915   ar
  1385   916   905    1
  1386  1277  1258    2
  1387   836   850    1
  1388   543   541    1
  1389   543   544    1
  1390  1241  1239    1
  1391  1241  1242    1
  1392   368   366    1
  1393   368   370    1
  1394   368   369    1
  1395   536   538    1
  1396   536   522    1
  1397   536   556    1
  1398    64    44    1
  1399    44    27    1
  1400  1413  1412    1
  1401  1413  1414   ar
  1402   370   371    1
  1403   412   411    1
  1404   494   495    1
  1405  1263  1261    1
  1406  1263  1264    1
  1407   538   537    1
  1408  1412  1410    1
  1409   886   887   ar
  1410   432   431    1
  1411   887   893   ar
  1412   558   542    1
  1413   558   576    1
  1414   541   542    1
  1415   541   539    1
  1416   920   921    1
  1417  1416  1414   ar
  1418   395   390    1
  1419   395   393    1
  1420   870   859    1
  1421    36    35   ar
  1422    36    39   ar
  1423   850   852    1
  1424   850   871    1
  1425  1408  1409    1
  1426  1408  1410    1
  1427    34    35   ar
  1428  1297  1278    2
  1429  1414  1415    2
  1430   540   539    1
  1431  1260  1258    1
  1432  1260  1259    1
  1433   414   413    1
  1434   414   428    1
  1435   921   919    1
  1436  1261  1259    1
  1437   413   411    1
  1438   495   493    1
  1439  1278  1264    1
  1440  1278  1296    1
  1441    35    41   ar
  1442   478   477    1
  1443   435   436    1
  1444   435   433    1
  1445   490   479    1
  1446   490   489   ar
  1447   905   903    1
  1448   905   900    1
  1449   386   388    1
  1450   386   369    1
  1451   386   406    1
  1452   390   389    1
  1453   903   904    1
  1454   903   901    1
  1455    39    40   ar
  1456   477   479    1
  1457   477   475    1
  1458  1258  1242    1
  1459  1258  1276    1
  1460   388   387    1
  1461   488   489   ar
  1462   852   851    1
  1463   892   893   ar
  1464   393   391    1
  1465   393   394    1
  1466   449   428    2
  1467   539   537    1
  1468   479   474    1
  1469   411   409    1
  1470  1410  1411    1
  1471    28    29    1
  1472    28    26    1
  1473    28    30    1
  1474    27    26    1
  1475   427   408    2
  1476   893   882    1
  1477   430   428    1
  1478   430   429    1
  1479    41    40   ar
  1480    41    30    1
  1481   391   389    1
  1482   391   392    1
  1483   431   429    1
  1484   431   433    1
  1485    17    16    2
  1486   428   448    1
  1487   410   409    1
  1488   410   408    1
  1489    26    24    1
  1490   859   854    1
  1491   859   857    1
  1492   854   853    1
  1493   389   387    1
  1494   901   902    1
  1495   901   899    1
  1496   433   434    1
  1497   900   899    1
  1498    30    25    1
  1499    10    16   ar
  1500    10    11   ar
  1501   919   938    2
  1502   919   902    1
  1503   919   937    1
  1504    16    15   ar
  1505   493   476    1
  1506   493   515    2
  1507   493   514    1
  1508   475   476    1
  1509   475   473    1
  1510   851   853    1
  1511   408   392    1
  1512   408   426    1
  1513   895   873    2
  1514   474   473    1
  1515    12    11    1
  1516   434   450    1
  1517   857   855    1
  1518   857   858    1
  1519   855   853    1
  1520   855   856    1
  1521   882   880    1
  1522   882   877    1
  1523    11    13   ar
  1524   918   896    2
  1525   899   897    1
  1526    15    18   ar
  1527    15    14   ar
  1528   898   897    1
  1529   898   896    1
  1530   880   878    1
  1531   880   881    1
  1532    24    25    1
  1533    24    22    1
  1534   473   471    1
  1535    18    19   ar
  1536    23    22    1
  1537    23    21    1
  1538    13    14   ar
  1539   877   876    1
  1540    14    20   ar
  1541   875   873    1
  1542   875   874    1
  1543   878   876    1
  1544   878   879    1
  1545   873   856    1
  1546   873   894    1
  1547     6     5    1
  1548     6    21    1
  1549    43    21    2
  1550   896   879    1
  1551   896   917    1
  1552    19    20   ar
  1553   450   469    2
  1554   450   452    1
  1555   450   468    1
  1556     5     7    1
  1557     5     3    1
  1558   472   471    1
  1559   472   470    1
  1560    21    42    1
  1561     7     8    1
  1562     7     9    1
  1563    20     9    1
  1564   876   874    1
  1565   452   451    1
  1566   492   470    2
  1567   451   453    1
  1568     2     1    1
  1569     9     4    1
  1570   470   456    1
  1571   470   491    1
  1572   455   453    1
  1573   455   456    1
  1574   455   457    1
  1575     3     1    1
  1576     3     4    1
  1577   453   454    1
  1578   457   458    1
  1579   457   459    1
  1580   454   459    1
  1581   459   460    1
  1582   467   460   ar
  1583   467   466   ar
  1584   460   461   ar
  1585   466   464   ar
  1586   461   462    2
  1587   461   463   ar
  1588   464   463   ar
  1589   464   465    2
