ligand
  PyMOL2.2          3D                             0

 29 32  0  0  0  0  0  0  0  0999 V2000
   43.0350   47.3970   44.4820 C   0  0  0  0  0  0  0  0  0  0  0  0
   37.9620   37.1520   39.9610 C   0  0  0  0  0  0  0  0  0  0  0  0
   36.8870   36.4260   40.4910 C   0  0  0  0  0  0  0  0  0  0  0  0
   36.0390   36.9950   41.3760 C   0  0  0  0  0  0  0  0  0  0  0  0
   36.2980   38.2920   41.7980 C   0  0  0  0  0  0  0  0  0  0  0  0
   37.3210   38.9960   41.2200 C   0  0  0  0  0  0  0  0  0  0  0  0
   37.6390   40.4000   41.4710 C   0  0  0  0  0  0  0  0  0  0  0  0
   39.0890   42.2000   41.2090 C   0  0  0  0  0  0  0  0  0  0  0  0
   38.8830   43.2090   40.2890 C   0  0  0  0  0  0  0  0  0  0  0  0
   39.3040   44.5030   40.6010 C   0  0  0  0  0  0  0  0  0  0  0  0
   39.8240   44.8230   41.8280 C   0  0  0  0  0  0  0  0  0  0  0  0
   40.0120   43.7690   42.7480 C   0  0  0  0  0  0  0  0  0  0  0  0
   39.7030   42.4540   42.4190 C   0  0  0  0  0  0  0  0  0  0  0  0
   40.1460   46.2640   42.2180 C   0  0  0  0  0  0  0  0  0  0  0  0
   41.5340   46.4300   42.8210 C   0  0  0  0  0  0  0  0  0  0  0  0
   41.7850   47.2250   43.9100 C   0  0  0  0  0  0  0  0  0  0  0  0
   44.0730   46.7040   43.9190 C   0  0  0  0  0  0  0  0  0  0  0  0
   43.8320   45.9240   42.8420 C   0  0  0  0  0  0  0  0  0  0  0  0
   42.5920   45.7670   42.2650 C   0  0  0  0  0  0  0  0  0  0  0  0
   46.1840   47.6680   43.8510 C   0  0  0  0  0  0  0  0  0  0  0  0
   47.5640   47.7340   44.2830 C   0  0  0  0  0  0  0  0  0  0  0  0
   48.6020   48.3590   43.5800 C   0  0  0  0  0  0  0  0  0  0  0  0
   49.8700   48.3190   44.1230 C   0  0  0  0  0  0  0  0  0  0  0  0
   50.0420   47.6940   45.3480 C   0  0  0  0  0  0  0  0  0  0  0  0
   48.9960   47.0610   45.9840 C   0  0  0  0  0  0  0  0  0  0  0  0
   38.1720   38.4280   40.3260 N   0  0  0  0  0  0  0  0  0  0  0  0
   38.7070   40.8380   40.8620 N   0  0  0  0  0  0  0  0  0  0  0  0
   45.4380   46.8050   44.4460 N   0  0  0  0  0  0  0  0  0  0  0  0
   47.7710   47.1130   45.4830 N   0  0  0  0  0  0  0  0  0  0  0  0
  1 17  4  0  0  0  0
  2  3  4  0  0  0  0
  3  4  4  0  0  0  0
  4  5  4  0  0  0  0
  5  6  4  0  0  0  0
  6  7  1  0  0  0  0
  8  9  4  0  0  0  0
  8 13  4  0  0  0  0
  9 10  4  0  0  0  0
 10 11  4  0  0  0  0
 11 12  4  0  0  0  0
 11 14  1  0  0  0  0
 12 13  4  0  0  0  0
 14 15  1  0  0  0  0
 15 16  4  0  0  0  0
 15 19  4  0  0  0  0
  1 16  4  0  0  0  0
 17 18  4  0  0  0  0
 18 19  4  0  0  0  0
 20 21  1  0  0  0  0
 21 22  4  0  0  0  0
 22 23  4  0  0  0  0
 23 24  4  0  0  0  0
 24 25  4  0  0  0  0
  2 26  4  0  0  0  0
  6 26  4  0  0  0  0
  7 27  2  0  0  0  0
  8 27  1  0  0  0  0
 17 28  1  0  0  0  0
 20 28  2  0  0  0  0
 21 29  4  0  0  0  0
 25 29  4  0  0  0  0
M  END
$$$$
