ligand
 OpenBabel11021811493D
libRbt.so/2013.1/901 2013/11/27
 29 32  0  0  0  0  0  0  0  0999 V2000
   39.6695   42.6204   40.6501 C   0  0  0  0  0  0  0  0  0  0  0  0
   49.6330   48.2684   43.7645 C   0  0  0  0  0  0  0  0  0  0  0  0
   50.1344   47.9303   45.0285 C   0  0  0  0  0  0  0  0  0  0  0  0
   49.3020   47.5479   46.0220 C   0  0  0  0  0  0  0  0  0  0  0  0
   47.9350   47.5636   45.7802 C   0  0  0  0  0  0  0  0  0  0  0  0
   47.4778   47.8424   44.5195 C   0  0  0  0  0  0  0  0  0  0  0  0
   46.0842   47.7806   44.0842 C   0  0  0  0  0  0  0  0  0  0  0  0
   44.2240   46.5091   43.5063 C   0  0  0  0  0  0  0  0  0  0  0  0
   44.0625   46.3370   42.1457 C   0  0  0  0  0  0  0  0  0  0  0  0
   42.7711   46.3278   41.6153 C   0  0  0  0  0  0  0  0  0  0  0  0
   41.6570   46.3844   42.4114 C   0  0  0  0  0  0  0  0  0  0  0  0
   41.8586   46.5506   43.7987 C   0  0  0  0  0  0  0  0  0  0  0  0
   43.1342   46.6737   44.3376 C   0  0  0  0  0  0  0  0  0  0  0  0
   40.2487   46.2257   41.8425 C   0  0  0  0  0  0  0  0  0  0  0  0
   39.7823   44.7778   41.7814 C   0  0  0  0  0  0  0  0  0  0  0  0
   40.0782   43.9413   40.7356 C   0  0  0  0  0  0  0  0  0  0  0  0
   38.9374   42.1308   41.6985 C   0  0  0  0  0  0  0  0  0  0  0  0
   38.6380   42.9528   42.7286 C   0  0  0  0  0  0  0  0  0  0  0  0
   39.0313   44.2699   42.8042 C   0  0  0  0  0  0  0  0  0  0  0  0
   37.3221   40.5588   41.1420 C   0  0  0  0  0  0  0  0  0  0  0  0
   36.7723   39.2219   41.2182 C   0  0  0  0  0  0  0  0  0  0  0  0
   36.2676   38.6203   42.3782 C   0  0  0  0  0  0  0  0  0  0  0  0
   35.7921   37.3283   42.2853 C   0  0  0  0  0  0  0  0  0  0  0  0
   35.8076   36.7088   41.0456 C   0  0  0  0  0  0  0  0  0  0  0  0
   36.3484   37.3289   39.9400 C   0  0  0  0  0  0  0  0  0  0  0  0
   48.3130   48.2221   43.5173 N   0  0  0  0  0  0  0  0  0  0  0  0
   45.5713   46.5809   44.0549 N   0  0  0  0  0  0  0  0  0  0  0  0
   38.4574   40.7451   41.7179 N   0  0  0  0  0  0  0  0  0  0  0  0
   36.7864   38.5767   40.0132 N   0  0  0  0  0  0  0  0  0  0  0  0
  1 17  2  0  0  0  0
  1 16  1  0  0  0  0
  2  3  2  0  0  0  0
  2 26  1  0  0  0  0
  3  4  1  0  0  0  0
  4  5  2  0  0  0  0
  5  6  1  0  0  0  0
  6  7  1  0  0  0  0
  6 26  2  0  0  0  0
  7 27  2  0  0  0  0
  8  9  2  0  0  0  0
  8 13  1  0  0  0  0
  8 27  1  0  0  0  0
  9 10  1  0  0  0  0
 10 11  2  0  0  0  0
 11 12  1  0  0  0  0
 11 14  1  0  0  0  0
 12 13  2  0  0  0  0
 14 15  1  0  0  0  0
 15 16  2  0  0  0  0
 15 19  1  0  0  0  0
 17 18  1  0  0  0  0
 17 28  1  0  0  0  0
 18 19  2  0  0  0  0
 20 21  1  0  0  0  0
 20 28  2  0  0  0  0
 21 22  2  0  0  0  0
 21 29  1  0  0  0  0
 22 23  1  0  0  0  0
 23 24  2  0  0  0  0
 24 25  1  0  0  0  0
 25 29  2  0  0  0  0
M  END
>  <CHROM.1>
-67.59912139,88.29685139,-84.98075415,70.21273351,88.56679780,-87.13942860
41.79803543,44.02056913,42.62867119,2.51590238,0.35565592,3.04827215

>  <Name>
ligand

>  <RI>
0

>  <Rbt.Current_Directory>
/home/itssahil/PROJECTS/Mol_Feturizer/New_Systems/rnas/4JIY

>  <Rbt.Executable>
rbdock ($Id: //depot/dev/client3/rdock/2013.1/src/exe/rbdock.cxx#4 $)

>  <Rbt.Library>
libRbt.so (2013.1, Build901 2013/11/27)

>  <Rbt.Parameter_File>
/export/apps/rDock/src/rDock_2013.1_src/data/scripts/dock_solv.prm

>  <Rbt.Receptor>
prm/pocket_docking_2.prm

>  <SCORE>
10.1592

>  <SCORE.INTER>
11.4

>  <SCORE.INTER.CONST>
1

>  <SCORE.INTER.POLAR>
0

>  <SCORE.INTER.ROT>
6

>  <SCORE.INTER.SOLV>
0

>  <SCORE.INTER.VDW>
0

>  <SCORE.INTER.norm>
0.393103

>  <SCORE.INTRA>
-1.24077

>  <SCORE.INTRA.DIHEDRAL>
0.019021

>  <SCORE.INTRA.DIHEDRAL.0>
7.2424

>  <SCORE.INTRA.POLAR>
0

>  <SCORE.INTRA.POLAR.0>
0

>  <SCORE.INTRA.REPUL>
0

>  <SCORE.INTRA.REPUL.0>
0

>  <SCORE.INTRA.SOLV>
-0.0190464

>  <SCORE.INTRA.SOLV.lig_0>
-3.36201

>  <SCORE.INTRA.VDW>
-1.24075

>  <SCORE.INTRA.VDW.0>
-0.910526

>  <SCORE.INTRA.norm>
-0.0427851

>  <SCORE.RESTR>
0

>  <SCORE.RESTR.CAVITY>
0

>  <SCORE.RESTR.norm>
0

>  <SCORE.SYSTEM>
0

>  <SCORE.SYSTEM.CONST>
0

>  <SCORE.SYSTEM.DIHEDRAL>
0

>  <SCORE.SYSTEM.SOLV>
0

>  <SCORE.SYSTEM.norm>
0

>  <SCORE.heavy>
29

>  <SCORE.norm>
0.350318

>  <RMSD>
0.801

$$$$
ligand
 OpenBabel11021811493D
libRbt.so/2013.1/901 2013/11/27
 29 32  0  0  0  0  0  0  0  0999 V2000
   42.8547   47.0954   44.7225 C   0  0  0  0  0  0  0  0  0  0  0  0
   36.7865   37.2694   41.5037 C   0  0  0  0  0  0  0  0  0  0  0  0
   37.3752   36.5230   40.4742 C   0  0  0  0  0  0  0  0  0  0  0  0
   38.1386   37.1242   39.5350 C   0  0  0  0  0  0  0  0  0  0  0  0
   38.2692   38.5058   39.5760 C   0  0  0  0  0  0  0  0  0  0  0  0
   37.7308   39.2017   40.6258 C   0  0  0  0  0  0  0  0  0  0  0  0
   37.8864   40.6342   40.8691 C   0  0  0  0  0  0  0  0  0  0  0  0
   39.2270   42.4166   41.5301 C   0  0  0  0  0  0  0  0  0  0  0  0
   39.0562   42.7891   42.8488 C   0  0  0  0  0  0  0  0  0  0  0  0
   39.1209   44.1434   43.1812 C   0  0  0  0  0  0  0  0  0  0  0  0
   39.4463   45.1042   42.2596 C   0  0  0  0  0  0  0  0  0  0  0  0
   39.6238   44.6872   40.9227 C   0  0  0  0  0  0  0  0  0  0  0  0
   39.4553   43.3591   40.5477 C   0  0  0  0  0  0  0  0  0  0  0  0
   39.6609   46.5635   42.6554 C   0  0  0  0  0  0  0  0  0  0  0  0
   41.0989   46.8779   43.0441 C   0  0  0  0  0  0  0  0  0  0  0  0
   41.5539   46.8158   44.3364 C   0  0  0  0  0  0  0  0  0  0  0  0
   43.7340   47.4370   43.7301 C   0  0  0  0  0  0  0  0  0  0  0  0
   43.2892   47.5055   42.4558 C   0  0  0  0  0  0  0  0  0  0  0  0
   41.9922   47.2431   42.0762 C   0  0  0  0  0  0  0  0  0  0  0  0
   45.9234   46.7288   44.0389 C   0  0  0  0  0  0  0  0  0  0  0  0
   47.2991   46.9821   44.4114 C   0  0  0  0  0  0  0  0  0  0  0  0
   48.2451   47.6377   43.6129 C   0  0  0  0  0  0  0  0  0  0  0  0
   49.5237   47.7857   44.1104 C   0  0  0  0  0  0  0  0  0  0  0  0
   49.7939   47.3095   45.3836 C   0  0  0  0  0  0  0  0  0  0  0  0
   48.8390   46.6384   46.1165 C   0  0  0  0  0  0  0  0  0  0  0  0
   36.9673   38.5990   41.5744 N   0  0  0  0  0  0  0  0  0  0  0  0
   39.0991   41.0110   41.1701 N   0  0  0  0  0  0  0  0  0  0  0  0
   45.1374   47.7472   44.0223 N   0  0  0  0  0  0  0  0  0  0  0  0
   47.6029   46.5110   45.6581 N   0  0  0  0  0  0  0  0  0  0  0  0
  1 17  2  0  0  0  0
  1 16  1  0  0  0  0
  2  3  2  0  0  0  0
  2 26  1  0  0  0  0
  3  4  1  0  0  0  0
  4  5  2  0  0  0  0
  5  6  1  0  0  0  0
  6  7  1  0  0  0  0
  6 26  2  0  0  0  0
  7 27  2  0  0  0  0
  8  9  2  0  0  0  0
  8 13  1  0  0  0  0
  8 27  1  0  0  0  0
  9 10  1  0  0  0  0
 10 11  2  0  0  0  0
 11 12  1  0  0  0  0
 11 14  1  0  0  0  0
 12 13  2  0  0  0  0
 14 15  1  0  0  0  0
 15 16  2  0  0  0  0
 15 19  1  0  0  0  0
 17 18  1  0  0  0  0
 17 28  1  0  0  0  0
 18 19  2  0  0  0  0
 20 21  1  0  0  0  0
 20 28  2  0  0  0  0
 21 22  2  0  0  0  0
 21 29  1  0  0  0  0
 22 23  1  0  0  0  0
 23 24  2  0  0  0  0
 24 25  1  0  0  0  0
 25 29  2  0  0  0  0
M  END
>  <CHROM.1>
-67.05439044,89.10289352,-92.36211742,-72.31014050,88.60188014,87.48660342
41.88188209,44.07563069,42.66381084,0.73656982,-0.25066533,0.16199726

>  <Name>
ligand

>  <RI>
0

>  <Rbt.Current_Directory>
/home/itssahil/PROJECTS/Mol_Feturizer/New_Systems/rnas/4JIY

>  <Rbt.Executable>
rbdock ($Id: //depot/dev/client3/rdock/2013.1/src/exe/rbdock.cxx#4 $)

>  <Rbt.Library>
libRbt.so (2013.1, Build901 2013/11/27)

>  <Rbt.Parameter_File>
/export/apps/rDock/src/rDock_2013.1_src/data/scripts/dock_solv.prm

>  <Rbt.Receptor>
prm/pocket_docking_2.prm

>  <SCORE>
10.1276

>  <SCORE.INTER>
11.4

>  <SCORE.INTER.CONST>
1

>  <SCORE.INTER.POLAR>
0

>  <SCORE.INTER.ROT>
6

>  <SCORE.INTER.SOLV>
1.77636e-15

>  <SCORE.INTER.VDW>
0

>  <SCORE.INTER.norm>
0.393103

>  <SCORE.INTRA>
-1.27238

>  <SCORE.INTRA.DIHEDRAL>
-0.00122497

>  <SCORE.INTRA.DIHEDRAL.0>
7.2424

>  <SCORE.INTRA.POLAR>
0

>  <SCORE.INTRA.POLAR.0>
0

>  <SCORE.INTRA.REPUL>
0

>  <SCORE.INTRA.REPUL.0>
0

>  <SCORE.INTRA.SOLV>
-0.0191757

>  <SCORE.INTRA.SOLV.lig_0>
-3.36201

>  <SCORE.INTRA.VDW>
-1.26218

>  <SCORE.INTRA.VDW.0>
-0.910526

>  <SCORE.INTRA.norm>
-0.0438753

>  <SCORE.RESTR>
0

>  <SCORE.RESTR.CAVITY>
0

>  <SCORE.RESTR.norm>
0

>  <SCORE.SYSTEM>
0

>  <SCORE.SYSTEM.CONST>
0

>  <SCORE.SYSTEM.DIHEDRAL>
0

>  <SCORE.SYSTEM.SOLV>
0

>  <SCORE.SYSTEM.norm>
0

>  <SCORE.heavy>
29

>  <SCORE.norm>
0.349228

>  <RMSD>
0.812

$$$$
ligand
 OpenBabel11021811493D
libRbt.so/2013.1/901 2013/11/27
 29 32  0  0  0  0  0  0  0  0999 V2000
   44.1005   46.3627   42.2090 C   0  0  0  0  0  0  0  0  0  0  0  0
   35.2299   37.8145   42.2872 C   0  0  0  0  0  0  0  0  0  0  0  0
   35.7780   36.6989   41.6401 C   0  0  0  0  0  0  0  0  0  0  0  0
   36.8387   36.8322   40.8135 C   0  0  0  0  0  0  0  0  0  0  0  0
   37.3286   38.1080   40.5689 C   0  0  0  0  0  0  0  0  0  0  0  0
   36.8106   39.1715   41.2594 C   0  0  0  0  0  0  0  0  0  0  0  0
   37.2995   40.5473   41.1996 C   0  0  0  0  0  0  0  0  0  0  0  0
   38.9401   42.1113   41.7223 C   0  0  0  0  0  0  0  0  0  0  0  0
   38.6551   42.8632   42.8449 C   0  0  0  0  0  0  0  0  0  0  0  0
   39.0227   44.2098   42.8665 C   0  0  0  0  0  0  0  0  0  0  0  0
   39.7440   44.7835   41.8521 C   0  0  0  0  0  0  0  0  0  0  0  0
   40.0265   43.9835   40.7239 C   0  0  0  0  0  0  0  0  0  0  0  0
   39.5746   42.6719   40.6320 C   0  0  0  0  0  0  0  0  0  0  0  0
   40.2712   46.2138   41.9445 C   0  0  0  0  0  0  0  0  0  0  0  0
   41.6815   46.3015   42.5113 C   0  0  0  0  0  0  0  0  0  0  0  0
   42.8049   46.2846   41.7248 C   0  0  0  0  0  0  0  0  0  0  0  0
   44.2474   46.4827   43.5649 C   0  0  0  0  0  0  0  0  0  0  0  0
   43.1438   46.4937   44.3448 C   0  0  0  0  0  0  0  0  0  0  0  0
   41.8576   46.3997   43.8631 C   0  0  0  0  0  0  0  0  0  0  0  0
   46.0510   47.7720   44.2542 C   0  0  0  0  0  0  0  0  0  0  0  0
   47.3936   47.8987   44.7803 C   0  0  0  0  0  0  0  0  0  0  0  0
   47.7574   47.7138   46.1204 C   0  0  0  0  0  0  0  0  0  0  0  0
   49.0827   47.8878   46.4633 C   0  0  0  0  0  0  0  0  0  0  0  0
   49.9863   48.2018   45.4604 C   0  0  0  0  0  0  0  0  0  0  0  0
   49.5739   48.4095   44.1619 C   0  0  0  0  0  0  0  0  0  0  0  0
   35.7474   39.0396   42.0951 N   0  0  0  0  0  0  0  0  0  0  0  0
   38.5035   40.7227   41.6717 N   0  0  0  0  0  0  0  0  0  0  0  0
   45.5720   46.5798   44.1873 N   0  0  0  0  0  0  0  0  0  0  0  0
   48.3085   48.2228   43.8179 N   0  0  0  0  0  0  0  0  0  0  0  0
  1 17  2  0  0  0  0
  1 16  1  0  0  0  0
  2  3  2  0  0  0  0
  2 26  1  0  0  0  0
  3  4  1  0  0  0  0
  4  5  2  0  0  0  0
  5  6  1  0  0  0  0
  6  7  1  0  0  0  0
  6 26  2  0  0  0  0
  7 27  2  0  0  0  0
  8  9  2  0  0  0  0
  8 13  1  0  0  0  0
  8 27  1  0  0  0  0
  9 10  1  0  0  0  0
 10 11  2  0  0  0  0
 11 12  1  0  0  0  0
 11 14  1  0  0  0  0
 12 13  2  0  0  0  0
 14 15  1  0  0  0  0
 15 16  2  0  0  0  0
 15 19  1  0  0  0  0
 17 18  1  0  0  0  0
 17 28  1  0  0  0  0
 18 19  2  0  0  0  0
 20 21  1  0  0  0  0
 20 28  2  0  0  0  0
 21 22  2  0  0  0  0
 21 29  1  0  0  0  0
 22 23  1  0  0  0  0
 23 24  2  0  0  0  0
 24 25  1  0  0  0  0
 25 29  2  0  0  0  0
M  END
>  <CHROM.1>
-65.32160478,91.95105671,91.54449360,-71.43606427,88.14658435,86.53264378
41.76695620,44.03141878,42.81081890,0.60824590,-0.40059506,-0.15597299

>  <Name>
ligand

>  <RI>
0

>  <Rbt.Current_Directory>
/home/itssahil/PROJECTS/Mol_Feturizer/New_Systems/rnas/4JIY

>  <Rbt.Executable>
rbdock ($Id: //depot/dev/client3/rdock/2013.1/src/exe/rbdock.cxx#4 $)

>  <Rbt.Library>
libRbt.so (2013.1, Build901 2013/11/27)

>  <Rbt.Parameter_File>
/export/apps/rDock/src/rDock_2013.1_src/data/scripts/dock_solv.prm

>  <Rbt.Receptor>
prm/pocket_docking_2.prm

>  <SCORE>
10.1379

>  <SCORE.INTER>
11.4

>  <SCORE.INTER.CONST>
1

>  <SCORE.INTER.POLAR>
0

>  <SCORE.INTER.ROT>
6

>  <SCORE.INTER.SOLV>
-4.44089e-16

>  <SCORE.INTER.VDW>
0

>  <SCORE.INTER.norm>
0.393103

>  <SCORE.INTRA>
-1.26215

>  <SCORE.INTRA.DIHEDRAL>
-0.0274846

>  <SCORE.INTRA.DIHEDRAL.0>
7.2424

>  <SCORE.INTRA.POLAR>
0

>  <SCORE.INTRA.POLAR.0>
0

>  <SCORE.INTRA.REPUL>
0

>  <SCORE.INTRA.REPUL.0>
0

>  <SCORE.INTRA.SOLV>
-0.0192425

>  <SCORE.INTRA.SOLV.lig_0>
-3.36201

>  <SCORE.INTRA.VDW>
-1.23878

>  <SCORE.INTRA.VDW.0>
-0.910526

>  <SCORE.INTRA.norm>
-0.0435223

>  <SCORE.RESTR>
0

>  <SCORE.RESTR.CAVITY>
0

>  <SCORE.RESTR.norm>
0

>  <SCORE.SYSTEM>
0

>  <SCORE.SYSTEM.CONST>
0

>  <SCORE.SYSTEM.DIHEDRAL>
0

>  <SCORE.SYSTEM.SOLV>
0

>  <SCORE.SYSTEM.norm>
0

>  <SCORE.heavy>
29

>  <SCORE.norm>
0.349581

>  <RMSD>
0.843

$$$$
ligand
 OpenBabel11021811493D
libRbt.so/2013.1/901 2013/11/27
 29 32  0  0  0  0  0  0  0  0999 V2000
   39.5598   42.2731   42.6352 C   0  0  0  0  0  0  0  0  0  0  0  0
   48.6832   47.8076   46.0873 C   0  0  0  0  0  0  0  0  0  0  0  0
   49.6566   48.2229   45.1688 C   0  0  0  0  0  0  0  0  0  0  0  0
   49.4183   48.1717   43.8396 C   0  0  0  0  0  0  0  0  0  0  0  0
   48.2137   47.6352   43.4053 C   0  0  0  0  0  0  0  0  0  0  0  0
   47.2594   47.2915   44.3258 C   0  0  0  0  0  0  0  0  0  0  0  0
   45.9070   46.8297   44.0208 C   0  0  0  0  0  0  0  0  0  0  0  0
   43.7458   47.3043   43.3028 C   0  0  0  0  0  0  0  0  0  0  0  0
   42.8432   47.4741   44.3340 C   0  0  0  0  0  0  0  0  0  0  0  0
   41.5367   47.0099   44.1705 C   0  0  0  0  0  0  0  0  0  0  0  0
   41.0952   46.4817   42.9854 C   0  0  0  0  0  0  0  0  0  0  0  0
   42.0419   46.3315   41.9492 C   0  0  0  0  0  0  0  0  0  0  0  0
   43.3749   46.6844   42.1265 C   0  0  0  0  0  0  0  0  0  0  0  0
   39.6304   46.1117   42.7619 C   0  0  0  0  0  0  0  0  0  0  0  0
   39.4368   44.6820   42.2759 C   0  0  0  0  0  0  0  0  0  0  0  0
   39.7247   43.5854   43.0476 C   0  0  0  0  0  0  0  0  0  0  0  0
   39.0573   42.0793   41.3764 C   0  0  0  0  0  0  0  0  0  0  0  0
   38.7778   43.1565   40.6098 C   0  0  0  0  0  0  0  0  0  0  0  0
   38.9576   44.4598   41.0153 C   0  0  0  0  0  0  0  0  0  0  0  0
   37.7187   40.1926   41.1792 C   0  0  0  0  0  0  0  0  0  0  0  0
   37.5020   38.8299   40.7417 C   0  0  0  0  0  0  0  0  0  0  0  0
   38.2954   37.7313   41.0963 C   0  0  0  0  0  0  0  0  0  0  0  0
   37.9621   36.4959   40.5794 C   0  0  0  0  0  0  0  0  0  0  0  0
   36.8433   36.4025   39.7669 C   0  0  0  0  0  0  0  0  0  0  0  0
   36.1152   37.5191   39.4167 C   0  0  0  0  0  0  0  0  0  0  0  0
   47.4944   47.3469   45.6629 N   0  0  0  0  0  0  0  0  0  0  0  0
   45.1251   47.7317   43.4931 N   0  0  0  0  0  0  0  0  0  0  0  0
   38.8353   40.7332   40.8381 N   0  0  0  0  0  0  0  0  0  0  0  0
   36.4128   38.7053   39.9252 N   0  0  0  0  0  0  0  0  0  0  0  0
  1 17  2  0  0  0  0
  1 16  1  0  0  0  0
  2  3  2  0  0  0  0
  2 26  1  0  0  0  0
  3  4  1  0  0  0  0
  4  5  2  0  0  0  0
  5  6  1  0  0  0  0
  6  7  1  0  0  0  0
  6 26  2  0  0  0  0
  7 27  2  0  0  0  0
  8  9  2  0  0  0  0
  8 13  1  0  0  0  0
  8 27  1  0  0  0  0
  9 10  1  0  0  0  0
 10 11  2  0  0  0  0
 11 12  1  0  0  0  0
 11 14  1  0  0  0  0
 12 13  2  0  0  0  0
 14 15  1  0  0  0  0
 15 16  2  0  0  0  0
 15 19  1  0  0  0  0
 17 18  1  0  0  0  0
 17 28  1  0  0  0  0
 18 19  2  0  0  0  0
 20 21  1  0  0  0  0
 20 28  2  0  0  0  0
 21 22  2  0  0  0  0
 21 29  1  0  0  0  0
 22 23  1  0  0  0  0
 23 24  2  0  0  0  0
 24 25  1  0  0  0  0
 25 29  2  0  0  0  0
M  END
>  <CHROM.1>
-68.23068737,-127.03793092,66.60856784,61.23430936,87.98497758,83.67248931
41.75912062,43.97689464,42.48949108,2.37949585,0.22842513,-2.95930365

>  <Name>
ligand

>  <RI>
0

>  <Rbt.Current_Directory>
/home/itssahil/PROJECTS/Mol_Feturizer/New_Systems/rnas/4JIY

>  <Rbt.Executable>
rbdock ($Id: //depot/dev/client3/rdock/2013.1/src/exe/rbdock.cxx#4 $)

>  <Rbt.Library>
libRbt.so (2013.1, Build901 2013/11/27)

>  <Rbt.Parameter_File>
/export/apps/rDock/src/rDock_2013.1_src/data/scripts/dock_solv.prm

>  <Rbt.Receptor>
prm/pocket_docking_2.prm

>  <SCORE>
10.315

>  <SCORE.INTER>
11.4

>  <SCORE.INTER.CONST>
1

>  <SCORE.INTER.POLAR>
0

>  <SCORE.INTER.ROT>
6

>  <SCORE.INTER.SOLV>
0

>  <SCORE.INTER.VDW>
0

>  <SCORE.INTER.norm>
0.393103

>  <SCORE.INTRA>
-1.08497

>  <SCORE.INTRA.DIHEDRAL>
0.0355553

>  <SCORE.INTRA.DIHEDRAL.0>
7.2424

>  <SCORE.INTRA.POLAR>
0

>  <SCORE.INTRA.POLAR.0>
0

>  <SCORE.INTRA.REPUL>
0

>  <SCORE.INTRA.REPUL.0>
0

>  <SCORE.INTRA.SOLV>
-0.0194708

>  <SCORE.INTRA.SOLV.lig_0>
-3.36201

>  <SCORE.INTRA.VDW>
-1.09301

>  <SCORE.INTRA.VDW.0>
-0.910526

>  <SCORE.INTRA.norm>
-0.0374126

>  <SCORE.RESTR>
0

>  <SCORE.RESTR.CAVITY>
0

>  <SCORE.RESTR.norm>
0

>  <SCORE.SYSTEM>
0

>  <SCORE.SYSTEM.CONST>
0

>  <SCORE.SYSTEM.DIHEDRAL>
0

>  <SCORE.SYSTEM.SOLV>
0

>  <SCORE.SYSTEM.norm>
0

>  <SCORE.heavy>
29

>  <SCORE.norm>
0.355691

>  <RMSD>
0.851

$$$$
ligand
 OpenBabel11021811493D
libRbt.so/2013.1/901 2013/11/27
 29 32  0  0  0  0  0  0  0  0999 V2000
   43.5877   46.0487   42.0760 C   0  0  0  0  0  0  0  0  0  0  0  0
   36.6608   37.3863   39.1652 C   0  0  0  0  0  0  0  0  0  0  0  0
   36.1483   36.5117   40.1327 C   0  0  0  0  0  0  0  0  0  0  0  0
   36.2850   36.7822   41.4496 C   0  0  0  0  0  0  0  0  0  0  0  0
   37.0034   37.9108   41.8205 C   0  0  0  0  0  0  0  0  0  0  0  0
   37.4423   38.7766   40.8541 C   0  0  0  0  0  0  0  0  0  0  0  0
   38.1027   40.0581   41.0929 C   0  0  0  0  0  0  0  0  0  0  0  0
   37.9707   42.2821   41.7621 C   0  0  0  0  0  0  0  0  0  0  0  0
   37.8502   43.1839   40.7233 C   0  0  0  0  0  0  0  0  0  0  0  0
   38.4988   44.4163   40.8209 C   0  0  0  0  0  0  0  0  0  0  0  0
   39.1679   44.7987   41.9542 C   0  0  0  0  0  0  0  0  0  0  0  0
   39.2635   43.8560   43.0005 C   0  0  0  0  0  0  0  0  0  0  0  0
   38.7202   42.5817   42.8820 C   0  0  0  0  0  0  0  0  0  0  0  0
   39.7496   46.2016   42.1143 C   0  0  0  0  0  0  0  0  0  0  0  0
   41.2037   46.2040   42.5652 C   0  0  0  0  0  0  0  0  0  0  0  0
   42.2549   46.0510   41.6978 C   0  0  0  0  0  0  0  0  0  0  0  0
   43.8529   46.2311   43.4068 C   0  0  0  0  0  0  0  0  0  0  0  0
   42.8203   46.3763   44.2665 C   0  0  0  0  0  0  0  0  0  0  0  0
   41.4959   46.3621   43.8910 C   0  0  0  0  0  0  0  0  0  0  0  0
   45.7821   47.4136   43.9264 C   0  0  0  0  0  0  0  0  0  0  0  0
   47.1682   47.4627   44.3408 C   0  0  0  0  0  0  0  0  0  0  0  0
   47.6415   47.1400   45.6191 C   0  0  0  0  0  0  0  0  0  0  0  0
   48.9958   47.2545   45.8580 C   0  0  0  0  0  0  0  0  0  0  0  0
   49.8174   47.6486   44.8137 C   0  0  0  0  0  0  0  0  0  0  0  0
   49.2998   47.9908   43.5831 C   0  0  0  0  0  0  0  0  0  0  0  0
   37.3016   38.5098   39.5293 N   0  0  0  0  0  0  0  0  0  0  0  0
   37.3465   40.9721   41.6371 N   0  0  0  0  0  0  0  0  0  0  0  0
   45.2270   46.2530   43.9191 N   0  0  0  0  0  0  0  0  0  0  0  0
   48.0048   47.8627   43.3365 N   0  0  0  0  0  0  0  0  0  0  0  0
  1 17  2  0  0  0  0
  1 16  1  0  0  0  0
  2  3  2  0  0  0  0
  2 26  1  0  0  0  0
  3  4  1  0  0  0  0
  4  5  2  0  0  0  0
  5  6  1  0  0  0  0
  6  7  1  0  0  0  0
  6 26  2  0  0  0  0
  7 27  2  0  0  0  0
  8  9  2  0  0  0  0
  8 13  1  0  0  0  0
  8 27  1  0  0  0  0
  9 10  1  0  0  0  0
 10 11  2  0  0  0  0
 11 12  1  0  0  0  0
 11 14  1  0  0  0  0
 12 13  2  0  0  0  0
 14 15  1  0  0  0  0
 15 16  2  0  0  0  0
 15 19  1  0  0  0  0
 17 18  1  0  0  0  0
 17 28  1  0  0  0  0
 18 19  2  0  0  0  0
 20 21  1  0  0  0  0
 20 28  2  0  0  0  0
 21 22  2  0  0  0  0
 21 29  1  0  0  0  0
 22 23  1  0  0  0  0
 23 24  2  0  0  0  0
 24 25  1  0  0  0  0
 25 29  2  0  0  0  0
M  END
>  <CHROM.1>
-67.43734092,-130.12088554,83.08965436,-64.59299339,89.39977393,89.24500845
41.54188094,43.81509843,42.48044716,0.69080463,-0.24781850,0.10714980

>  <Name>
ligand

>  <RI>
0

>  <Rbt.Current_Directory>
/home/itssahil/PROJECTS/Mol_Feturizer/New_Systems/rnas/4JIY

>  <Rbt.Executable>
rbdock ($Id: //depot/dev/client3/rdock/2013.1/src/exe/rbdock.cxx#4 $)

>  <Rbt.Library>
libRbt.so (2013.1, Build901 2013/11/27)

>  <Rbt.Parameter_File>
/export/apps/rDock/src/rDock_2013.1_src/data/scripts/dock_solv.prm

>  <Rbt.Receptor>
prm/pocket_docking_2.prm

>  <SCORE>
10.2901

>  <SCORE.INTER>
11.4

>  <SCORE.INTER.CONST>
1

>  <SCORE.INTER.POLAR>
0

>  <SCORE.INTER.ROT>
6

>  <SCORE.INTER.SOLV>
0

>  <SCORE.INTER.VDW>
0

>  <SCORE.INTER.norm>
0.393103

>  <SCORE.INTRA>
-1.10986

>  <SCORE.INTRA.DIHEDRAL>
0.0141625

>  <SCORE.INTRA.DIHEDRAL.0>
7.2424

>  <SCORE.INTRA.POLAR>
0

>  <SCORE.INTRA.POLAR.0>
0

>  <SCORE.INTRA.REPUL>
0

>  <SCORE.INTRA.REPUL.0>
0

>  <SCORE.INTRA.SOLV>
-0.0193317

>  <SCORE.INTRA.SOLV.lig_0>
-3.36201

>  <SCORE.INTRA.VDW>
-1.10727

>  <SCORE.INTRA.VDW.0>
-0.910526

>  <SCORE.INTRA.norm>
-0.038271

>  <SCORE.RESTR>
0

>  <SCORE.RESTR.CAVITY>
0

>  <SCORE.RESTR.norm>
0

>  <SCORE.SYSTEM>
0

>  <SCORE.SYSTEM.CONST>
0

>  <SCORE.SYSTEM.DIHEDRAL>
0

>  <SCORE.SYSTEM.SOLV>
0

>  <SCORE.SYSTEM.norm>
0

>  <SCORE.heavy>
29

>  <SCORE.norm>
0.354832

>  <RMSD>
0.854

$$$$
ligand
 OpenBabel11021811493D
libRbt.so/2013.1/901 2013/11/27
 29 32  0  0  0  0  0  0  0  0999 V2000
   38.5748   42.4627   42.6842 C   0  0  0  0  0  0  0  0  0  0  0  0
   49.2043   48.4345   43.7961 C   0  0  0  0  0  0  0  0  0  0  0  0
   49.7101   48.0643   45.0493 C   0  0  0  0  0  0  0  0  0  0  0  0
   48.8920   47.5747   46.0070 C   0  0  0  0  0  0  0  0  0  0  0  0
   47.5305   47.5113   45.7427 C   0  0  0  0  0  0  0  0  0  0  0  0
   47.0729   47.8252   44.4904 C   0  0  0  0  0  0  0  0  0  0  0  0
   45.6929   47.6930   44.0284 C   0  0  0  0  0  0  0  0  0  0  0  0
   43.9286   46.3312   43.3622 C   0  0  0  0  0  0  0  0  0  0  0  0
   43.8005   46.1801   41.9956 C   0  0  0  0  0  0  0  0  0  0  0  0
   42.5211   46.1112   41.4412 C   0  0  0  0  0  0  0  0  0  0  0  0
   41.3919   46.0889   42.2176 C   0  0  0  0  0  0  0  0  0  0  0  0
   41.5598   46.2358   43.6115 C   0  0  0  0  0  0  0  0  0  0  0  0
   42.8171   46.4173   44.1764 C   0  0  0  0  0  0  0  0  0  0  0  0
   40.0046   45.8653   41.6195 C   0  0  0  0  0  0  0  0  0  0  0  0
   39.5831   44.4025   41.6037 C   0  0  0  0  0  0  0  0  0  0  0  0
   38.9703   43.7903   42.6671 C   0  0  0  0  0  0  0  0  0  0  0  0
   38.8034   41.7349   41.5472 C   0  0  0  0  0  0  0  0  0  0  0  0
   39.4124   42.3319   40.4989 C   0  0  0  0  0  0  0  0  0  0  0  0
   39.8194   43.6470   40.4895 C   0  0  0  0  0  0  0  0  0  0  0  0
   37.2171   40.1160   41.0442 C   0  0  0  0  0  0  0  0  0  0  0  0
   36.7720   38.7388   41.0210 C   0  0  0  0  0  0  0  0  0  0  0  0
   37.2423   37.7520   40.1450 C   0  0  0  0  0  0  0  0  0  0  0  0
   36.7014   36.4861   40.2424 C   0  0  0  0  0  0  0  0  0  0  0  0
   35.7492   36.2508   41.2215 C   0  0  0  0  0  0  0  0  0  0  0  0
   35.2917   37.2639   42.0362 C   0  0  0  0  0  0  0  0  0  0  0  0
   47.8941   48.3128   43.5240 N   0  0  0  0  0  0  0  0  0  0  0  0
   45.2601   46.4651   43.9370 N   0  0  0  0  0  0  0  0  0  0  0  0
   38.4202   40.3225   41.4507 N   0  0  0  0  0  0  0  0  0  0  0  0
   35.8202   38.4764   41.9664 N   0  0  0  0  0  0  0  0  0  0  0  0
  1 17  2  0  0  0  0
  1 16  1  0  0  0  0
  2  3  2  0  0  0  0
  2 26  1  0  0  0  0
  3  4  1  0  0  0  0
  4  5  2  0  0  0  0
  5  6  1  0  0  0  0
  6  7  1  0  0  0  0
  6 26  2  0  0  0  0
  7 27  2  0  0  0  0
  8  9  2  0  0  0  0
  8 13  1  0  0  0  0
  8 27  1  0  0  0  0
  9 10  1  0  0  0  0
 10 11  2  0  0  0  0
 11 12  1  0  0  0  0
 11 14  1  0  0  0  0
 12 13  2  0  0  0  0
 14 15  1  0  0  0  0
 15 16  2  0  0  0  0
 15 19  1  0  0  0  0
 17 18  1  0  0  0  0
 17 28  1  0  0  0  0
 18 19  2  0  0  0  0
 20 21  1  0  0  0  0
 20 28  2  0  0  0  0
 21 22  2  0  0  0  0
 21 29  1  0  0  0  0
 22 23  1  0  0  0  0
 23 24  2  0  0  0  0
 24 25  1  0  0  0  0
 25 29  2  0  0  0  0
M  END
>  <CHROM.1>
-67.13047527,92.07576000,86.41152918,-69.15170774,90.03040796,87.93578299
41.57103592,43.75936633,42.53737468,2.48926582,0.38774203,3.01987955

>  <Name>
ligand

>  <RI>
0

>  <Rbt.Current_Directory>
/home/itssahil/PROJECTS/Mol_Feturizer/New_Systems/rnas/4JIY

>  <Rbt.Executable>
rbdock ($Id: //depot/dev/client3/rdock/2013.1/src/exe/rbdock.cxx#4 $)

>  <Rbt.Library>
libRbt.so (2013.1, Build901 2013/11/27)

>  <Rbt.Parameter_File>
/export/apps/rDock/src/rDock_2013.1_src/data/scripts/dock_solv.prm

>  <Rbt.Receptor>
prm/pocket_docking_2.prm

>  <SCORE>
10.1489

>  <SCORE.INTER>
11.4

>  <SCORE.INTER.CONST>
1

>  <SCORE.INTER.POLAR>
0

>  <SCORE.INTER.ROT>
6

>  <SCORE.INTER.SOLV>
1.33227e-15

>  <SCORE.INTER.VDW>
0

>  <SCORE.INTER.norm>
0.393103

>  <SCORE.INTRA>
-1.25111

>  <SCORE.INTRA.DIHEDRAL>
-0.036032

>  <SCORE.INTRA.DIHEDRAL.0>
7.2424

>  <SCORE.INTRA.POLAR>
0

>  <SCORE.INTRA.POLAR.0>
0

>  <SCORE.INTRA.REPUL>
0

>  <SCORE.INTRA.REPUL.0>
0

>  <SCORE.INTRA.SOLV>
-0.0192535

>  <SCORE.INTRA.SOLV.lig_0>
-3.36201

>  <SCORE.INTRA.VDW>
-1.22347

>  <SCORE.INTRA.VDW.0>
-0.910526

>  <SCORE.INTRA.norm>
-0.0431417

>  <SCORE.RESTR>
0

>  <SCORE.RESTR.CAVITY>
0

>  <SCORE.RESTR.norm>
0

>  <SCORE.SYSTEM>
0

>  <SCORE.SYSTEM.CONST>
0

>  <SCORE.SYSTEM.DIHEDRAL>
0

>  <SCORE.SYSTEM.SOLV>
0

>  <SCORE.SYSTEM.norm>
0

>  <SCORE.heavy>
29

>  <SCORE.norm>
0.349962

>  <RMSD>
0.865

$$$$
ligand
 OpenBabel11021811493D
libRbt.so/2013.1/901 2013/11/27
 29 32  0  0  0  0  0  0  0  0999 V2000
   38.6573   42.6045   43.0602 C   0  0  0  0  0  0  0  0  0  0  0  0
   49.4566   48.3324   43.7688 C   0  0  0  0  0  0  0  0  0  0  0  0
   49.9661   48.0179   45.0358 C   0  0  0  0  0  0  0  0  0  0  0  0
   49.1452   47.6083   46.0279 C   0  0  0  0  0  0  0  0  0  0  0  0
   47.7794   47.5720   45.7817 C   0  0  0  0  0  0  0  0  0  0  0  0
   47.3163   47.8288   44.5184 C   0  0  0  0  0  0  0  0  0  0  0  0
   45.9275   47.7132   44.0788 C   0  0  0  0  0  0  0  0  0  0  0  0
   44.1123   46.3709   43.5183 C   0  0  0  0  0  0  0  0  0  0  0  0
   43.9629   46.1637   42.1612 C   0  0  0  0  0  0  0  0  0  0  0  0
   42.6751   46.1022   41.6257 C   0  0  0  0  0  0  0  0  0  0  0  0
   41.5559   46.1414   42.4157 C   0  0  0  0  0  0  0  0  0  0  0  0
   41.7454   46.3445   43.7998 C   0  0  0  0  0  0  0  0  0  0  0  0
   43.0139   46.5195   44.3412 C   0  0  0  0  0  0  0  0  0  0  0  0
   40.1560   45.9260   41.8446 C   0  0  0  0  0  0  0  0  0  0  0  0
   39.7016   44.4738   41.8930 C   0  0  0  0  0  0  0  0  0  0  0  0
   39.0825   43.9209   42.9847 C   0  0  0  0  0  0  0  0  0  0  0  0
   38.8616   41.8246   41.9535 C   0  0  0  0  0  0  0  0  0  0  0  0
   39.4767   42.3631   40.8773 C   0  0  0  0  0  0  0  0  0  0  0  0
   39.9131   43.6670   40.8102 C   0  0  0  0  0  0  0  0  0  0  0  0
   37.2387   40.2219   41.5202 C   0  0  0  0  0  0  0  0  0  0  0  0
   36.7620   38.8557   41.5571 C   0  0  0  0  0  0  0  0  0  0  0  0
   36.4805   38.1291   42.7212 C   0  0  0  0  0  0  0  0  0  0  0  0
   36.0471   36.8261   42.5844 C   0  0  0  0  0  0  0  0  0  0  0  0
   35.8814   36.3184   41.3054 C   0  0  0  0  0  0  0  0  0  0  0  0
   36.2068   37.0607   40.1908 C   0  0  0  0  0  0  0  0  0  0  0  0
   48.1402   48.2358   43.5175 N   0  0  0  0  0  0  0  0  0  0  0  0
   45.4540   46.4971   44.0708 N   0  0  0  0  0  0  0  0  0  0  0  0
   38.4461   40.4185   41.9188 N   0  0  0  0  0  0  0  0  0  0  0  0
   36.6016   38.3194   40.3101 N   0  0  0  0  0  0  0  0  0  0  0  0
  1 17  2  0  0  0  0
  1 16  1  0  0  0  0
  2  3  2  0  0  0  0
  2 26  1  0  0  0  0
  3  4  1  0  0  0  0
  4  5  2  0  0  0  0
  5  6  1  0  0  0  0
  6  7  1  0  0  0  0
  6 26  2  0  0  0  0
  7 27  2  0  0  0  0
  8  9  2  0  0  0  0
  8 13  1  0  0  0  0
  8 27  1  0  0  0  0
  9 10  1  0  0  0  0
 10 11  2  0  0  0  0
 11 12  1  0  0  0  0
 11 14  1  0  0  0  0
 12 13  2  0  0  0  0
 14 15  1  0  0  0  0
 15 16  2  0  0  0  0
 15 19  1  0  0  0  0
 17 18  1  0  0  0  0
 17 28  1  0  0  0  0
 18 19  2  0  0  0  0
 20 21  1  0  0  0  0
 20 28  2  0  0  0  0
 21 22  2  0  0  0  0
 21 29  1  0  0  0  0
 22 23  1  0  0  0  0
 23 24  2  0  0  0  0
 24 25  1  0  0  0  0
 25 29  2  0  0  0  0
M  END
>  <CHROM.1>
-66.65993350,91.85327504,86.80718294,70.28971560,88.74289308,88.37147450
41.71637198,43.80916563,42.75342912,2.51071122,0.39071885,2.97533365

>  <Name>
ligand

>  <RI>
0

>  <Rbt.Current_Directory>
/home/itssahil/PROJECTS/Mol_Feturizer/New_Systems/rnas/4JIY

>  <Rbt.Executable>
rbdock ($Id: //depot/dev/client3/rdock/2013.1/src/exe/rbdock.cxx#4 $)

>  <Rbt.Library>
libRbt.so (2013.1, Build901 2013/11/27)

>  <Rbt.Parameter_File>
/export/apps/rDock/src/rDock_2013.1_src/data/scripts/dock_solv.prm

>  <Rbt.Receptor>
prm/pocket_docking_2.prm

>  <SCORE>
10.1456

>  <SCORE.INTER>
11.4

>  <SCORE.INTER.CONST>
1

>  <SCORE.INTER.POLAR>
0

>  <SCORE.INTER.ROT>
6

>  <SCORE.INTER.SOLV>
1.33227e-15

>  <SCORE.INTER.VDW>
0

>  <SCORE.INTER.norm>
0.393103

>  <SCORE.INTRA>
-1.25439

>  <SCORE.INTRA.DIHEDRAL>
-0.0345864

>  <SCORE.INTRA.DIHEDRAL.0>
7.2424

>  <SCORE.INTRA.POLAR>
0

>  <SCORE.INTRA.POLAR.0>
0

>  <SCORE.INTRA.REPUL>
0

>  <SCORE.INTRA.REPUL.0>
0

>  <SCORE.INTRA.SOLV>
-0.0193574

>  <SCORE.INTRA.SOLV.lig_0>
-3.36201

>  <SCORE.INTRA.VDW>
-1.22742

>  <SCORE.INTRA.VDW.0>
-0.910526

>  <SCORE.INTRA.norm>
-0.0432549

>  <SCORE.RESTR>
0

>  <SCORE.RESTR.CAVITY>
0

>  <SCORE.RESTR.norm>
0

>  <SCORE.SYSTEM>
0

>  <SCORE.SYSTEM.CONST>
0

>  <SCORE.SYSTEM.DIHEDRAL>
0

>  <SCORE.SYSTEM.SOLV>
0

>  <SCORE.SYSTEM.norm>
0

>  <SCORE.heavy>
29

>  <SCORE.norm>
0.349849

>  <RMSD>
0.888

$$$$
ligand
 OpenBabel11021811493D
libRbt.so/2013.1/901 2013/11/27
 29 32  0  0  0  0  0  0  0  0999 V2000
   43.9481   46.6469   41.8964 C   0  0  0  0  0  0  0  0  0  0  0  0
   38.1640   37.5549   39.5550 C   0  0  0  0  0  0  0  0  0  0  0  0
   37.1296   36.8979   40.2347 C   0  0  0  0  0  0  0  0  0  0  0  0
   36.5652   37.4489   41.3320 C   0  0  0  0  0  0  0  0  0  0  0  0
   37.0802   38.6471   41.8079 C   0  0  0  0  0  0  0  0  0  0  0  0
   38.0514   39.2942   41.0907 C   0  0  0  0  0  0  0  0  0  0  0  0
   38.6035   40.6119   41.3977 C   0  0  0  0  0  0  0  0  0  0  0  0
   38.3395   42.9216   41.4786 C   0  0  0  0  0  0  0  0  0  0  0  0
   38.3955   43.4545   42.7513 C   0  0  0  0  0  0  0  0  0  0  0  0
   38.8997   44.7453   42.9208 C   0  0  0  0  0  0  0  0  0  0  0  0
   39.4317   45.4611   41.8802 C   0  0  0  0  0  0  0  0  0  0  0  0
   39.3669   44.8824   40.5944 C   0  0  0  0  0  0  0  0  0  0  0  0
   38.7690   43.6449   40.3841 C   0  0  0  0  0  0  0  0  0  0  0  0
   40.1154   46.8099   42.0937 C   0  0  0  0  0  0  0  0  0  0  0  0
   41.5818   46.6880   42.4842 C   0  0  0  0  0  0  0  0  0  0  0  0
   42.6052   46.7541   41.5736 C   0  0  0  0  0  0  0  0  0  0  0  0
   44.2543   46.4826   43.2207 C   0  0  0  0  0  0  0  0  0  0  0  0
   43.2492   46.4107   44.1213 C   0  0  0  0  0  0  0  0  0  0  0  0
   41.9145   46.5012   43.7967 C   0  0  0  0  0  0  0  0  0  0  0  0
   46.2167   47.4817   43.9563 C   0  0  0  0  0  0  0  0  0  0  0  0
   47.6148   47.4141   44.3252 C   0  0  0  0  0  0  0  0  0  0  0  0
   48.6669   47.1067   43.4529 C   0  0  0  0  0  0  0  0  0  0  0  0
   49.9467   47.0676   43.9676 C   0  0  0  0  0  0  0  0  0  0  0  0
   50.1261   47.3673   45.3088 C   0  0  0  0  0  0  0  0  0  0  0  0
   49.0548   47.6281   46.1356 C   0  0  0  0  0  0  0  0  0  0  0  0
   38.6169   38.7449   39.9841 N   0  0  0  0  0  0  0  0  0  0  0  0
   37.7574   41.5998   41.2906 N   0  0  0  0  0  0  0  0  0  0  0  0
   45.6429   46.3643   43.6780 N   0  0  0  0  0  0  0  0  0  0  0  0
   47.8252   47.6905   45.6472 N   0  0  0  0  0  0  0  0  0  0  0  0
  1 17  2  0  0  0  0
  1 16  1  0  0  0  0
  2  3  2  0  0  0  0
  2 26  1  0  0  0  0
  3  4  1  0  0  0  0
  4  5  2  0  0  0  0
  5  6  1  0  0  0  0
  6  7  1  0  0  0  0
  6 26  2  0  0  0  0
  7 27  2  0  0  0  0
  8  9  2  0  0  0  0
  8 13  1  0  0  0  0
  8 27  1  0  0  0  0
  9 10  1  0  0  0  0
 10 11  2  0  0  0  0
 11 12  1  0  0  0  0
 11 14  1  0  0  0  0
 12 13  2  0  0  0  0
 14 15  1  0  0  0  0
 15 16  2  0  0  0  0
 15 19  1  0  0  0  0
 17 18  1  0  0  0  0
 17 28  1  0  0  0  0
 18 19  2  0  0  0  0
 20 21  1  0  0  0  0
 20 28  2  0  0  0  0
 21 22  2  0  0  0  0
 21 29  1  0  0  0  0
 22 23  1  0  0  0  0
 23 24  2  0  0  0  0
 24 25  1  0  0  0  0
 25 29  2  0  0  0  0
M  END
>  <CHROM.1>
-65.57602641,84.67694632,95.06761761,70.23433564,-89.11381011,88.91244882
41.99972993,44.15122607,42.49739895,0.66716701,-0.26073007,0.11297953

>  <Name>
ligand

>  <RI>
0

>  <Rbt.Current_Directory>
/home/itssahil/PROJECTS/Mol_Feturizer/New_Systems/rnas/4JIY

>  <Rbt.Executable>
rbdock ($Id: //depot/dev/client3/rdock/2013.1/src/exe/rbdock.cxx#4 $)

>  <Rbt.Library>
libRbt.so (2013.1, Build901 2013/11/27)

>  <Rbt.Parameter_File>
/export/apps/rDock/src/rDock_2013.1_src/data/scripts/dock_solv.prm

>  <Rbt.Receptor>
prm/pocket_docking_2.prm

>  <SCORE>
10.0843

>  <SCORE.INTER>
11.4

>  <SCORE.INTER.CONST>
1

>  <SCORE.INTER.POLAR>
0

>  <SCORE.INTER.ROT>
6

>  <SCORE.INTER.SOLV>
8.88178e-16

>  <SCORE.INTER.VDW>
0

>  <SCORE.INTER.norm>
0.393103

>  <SCORE.INTRA>
-1.31573

>  <SCORE.INTRA.DIHEDRAL>
-0.159206

>  <SCORE.INTRA.DIHEDRAL.0>
7.2424

>  <SCORE.INTRA.POLAR>
0

>  <SCORE.INTRA.POLAR.0>
0

>  <SCORE.INTRA.REPUL>
0

>  <SCORE.INTRA.REPUL.0>
0

>  <SCORE.INTRA.SOLV>
-0.0203679

>  <SCORE.INTRA.SOLV.lig_0>
-3.36201

>  <SCORE.INTRA.VDW>
-1.22594

>  <SCORE.INTRA.VDW.0>
-0.910526

>  <SCORE.INTRA.norm>
-0.04537

>  <SCORE.RESTR>
0

>  <SCORE.RESTR.CAVITY>
0

>  <SCORE.RESTR.norm>
0

>  <SCORE.SYSTEM>
0

>  <SCORE.SYSTEM.CONST>
0

>  <SCORE.SYSTEM.DIHEDRAL>
0

>  <SCORE.SYSTEM.SOLV>
0

>  <SCORE.SYSTEM.norm>
0

>  <SCORE.heavy>
29

>  <SCORE.norm>
0.347733

>  <RMSD>
0.898

$$$$
ligand
 OpenBabel11021811493D
libRbt.so/2013.1/901 2013/11/27
 29 32  0  0  0  0  0  0  0  0999 V2000
   38.8278   43.7230   40.1990 C   0  0  0  0  0  0  0  0  0  0  0  0
   49.0595   48.0696   46.1547 C   0  0  0  0  0  0  0  0  0  0  0  0
   50.1023   47.5611   45.3689 C   0  0  0  0  0  0  0  0  0  0  0  0
   49.8568   47.0511   44.1418 C   0  0  0  0  0  0  0  0  0  0  0  0
   48.5400   46.9814   43.7074 C   0  0  0  0  0  0  0  0  0  0  0  0
   47.5490   47.5383   44.4717 C   0  0  0  0  0  0  0  0  0  0  0  0
   46.1415   47.6492   44.0950 C   0  0  0  0  0  0  0  0  0  0  0  0
   44.1281   46.6165   43.5556 C   0  0  0  0  0  0  0  0  0  0  0  0
   43.8860   46.4370   42.2080 C   0  0  0  0  0  0  0  0  0  0  0  0
   42.5835   46.5919   41.7299 C   0  0  0  0  0  0  0  0  0  0  0  0
   41.5229   46.8181   42.5679 C   0  0  0  0  0  0  0  0  0  0  0  0
   41.8050   46.9869   43.9407 C   0  0  0  0  0  0  0  0  0  0  0  0
   43.1078   46.9471   44.4247 C   0  0  0  0  0  0  0  0  0  0  0  0
   40.0827   46.8401   42.0603 C   0  0  0  0  0  0  0  0  0  0  0  0
   39.5244   45.4540   41.7691 C   0  0  0  0  0  0  0  0  0  0  0  0
   39.3331   44.9780   40.4972 C   0  0  0  0  0  0  0  0  0  0  0  0
   38.5222   42.9119   41.2589 C   0  0  0  0  0  0  0  0  0  0  0  0
   38.7031   43.3785   42.5142 C   0  0  0  0  0  0  0  0  0  0  0  0
   39.1902   44.6320   42.8087 C   0  0  0  0  0  0  0  0  0  0  0  0
   38.8706   40.6257   41.0539 C   0  0  0  0  0  0  0  0  0  0  0  0
   38.3923   39.2888   40.7725 C   0  0  0  0  0  0  0  0  0  0  0  0
   37.5191   38.5549   41.5856 C   0  0  0  0  0  0  0  0  0  0  0  0
   37.1705   37.2824   41.1813 C   0  0  0  0  0  0  0  0  0  0  0  0
   37.6744   36.8127   39.9787 C   0  0  0  0  0  0  0  0  0  0  0  0
   38.5600   37.5586   39.2313 C   0  0  0  0  0  0  0  0  0  0  0  0
   47.7939   48.0565   45.7036 N   0  0  0  0  0  0  0  0  0  0  0  0
   45.4953   46.5163   44.0478 N   0  0  0  0  0  0  0  0  0  0  0  0
   37.9869   41.5607   41.0614 N   0  0  0  0  0  0  0  0  0  0  0  0
   38.8831   38.7895   39.5985 N   0  0  0  0  0  0  0  0  0  0  0  0
  1 17  2  0  0  0  0
  1 16  1  0  0  0  0
  2  3  2  0  0  0  0
  2 26  1  0  0  0  0
  3  4  1  0  0  0  0
  4  5  2  0  0  0  0
  5  6  1  0  0  0  0
  6  7  1  0  0  0  0
  6 26  2  0  0  0  0
  7 27  2  0  0  0  0
  8  9  2  0  0  0  0
  8 13  1  0  0  0  0
  8 27  1  0  0  0  0
  9 10  1  0  0  0  0
 10 11  2  0  0  0  0
 11 12  1  0  0  0  0
 11 14  1  0  0  0  0
 12 13  2  0  0  0  0
 14 15  1  0  0  0  0
 15 16  2  0  0  0  0
 15 19  1  0  0  0  0
 17 18  1  0  0  0  0
 17 28  1  0  0  0  0
 18 19  2  0  0  0  0
 20 21  1  0  0  0  0
 20 28  2  0  0  0  0
 21 22  2  0  0  0  0
 21 29  1  0  0  0  0
 22 23  1  0  0  0  0
 23 24  2  0  0  0  0
 24 25  1  0  0  0  0
 25 29  2  0  0  0  0
M  END
>  <CHROM.1>
69.30638218,75.65513603,-106.52359945,-65.11164646,92.33625376,93.94628043
42.09779463,44.21775473,42.47316765,2.42529746,0.26602911,-2.96828344

>  <Name>
ligand

>  <RI>
0

>  <Rbt.Current_Directory>
/home/itssahil/PROJECTS/Mol_Feturizer/New_Systems/rnas/4JIY

>  <Rbt.Executable>
rbdock ($Id: //depot/dev/client3/rdock/2013.1/src/exe/rbdock.cxx#4 $)

>  <Rbt.Library>
libRbt.so (2013.1, Build901 2013/11/27)

>  <Rbt.Parameter_File>
/export/apps/rDock/src/rDock_2013.1_src/data/scripts/dock_solv.prm

>  <Rbt.Receptor>
prm/pocket_docking_2.prm

>  <SCORE>
10.2056

>  <SCORE.INTER>
11.4

>  <SCORE.INTER.CONST>
1

>  <SCORE.INTER.POLAR>
0

>  <SCORE.INTER.ROT>
6

>  <SCORE.INTER.SOLV>
4.44089e-16

>  <SCORE.INTER.VDW>
0

>  <SCORE.INTER.norm>
0.393103

>  <SCORE.INTRA>
-1.19442

>  <SCORE.INTRA.DIHEDRAL>
-0.000758826

>  <SCORE.INTRA.DIHEDRAL.0>
7.2424

>  <SCORE.INTRA.POLAR>
0

>  <SCORE.INTRA.POLAR.0>
0

>  <SCORE.INTRA.REPUL>
0

>  <SCORE.INTRA.REPUL.0>
0

>  <SCORE.INTRA.SOLV>
-0.0191158

>  <SCORE.INTRA.SOLV.lig_0>
-3.36201

>  <SCORE.INTRA.VDW>
-1.18448

>  <SCORE.INTRA.VDW.0>
-0.910526

>  <SCORE.INTRA.norm>
-0.0411869

>  <SCORE.RESTR>
0

>  <SCORE.RESTR.CAVITY>
0

>  <SCORE.RESTR.norm>
0

>  <SCORE.SYSTEM>
0

>  <SCORE.SYSTEM.CONST>
0

>  <SCORE.SYSTEM.DIHEDRAL>
0

>  <SCORE.SYSTEM.SOLV>
0

>  <SCORE.SYSTEM.norm>
0

>  <SCORE.heavy>
29

>  <SCORE.norm>
0.351917

>  <RMSD>
0.913

$$$$
ligand
 OpenBabel11021811493D
libRbt.so/2013.1/901 2013/11/27
 29 32  0  0  0  0  0  0  0  0999 V2000
   39.9225   42.1519   42.7132 C   0  0  0  0  0  0  0  0  0  0  0  0
   49.7109   48.4895   45.7812 C   0  0  0  0  0  0  0  0  0  0  0  0
   50.7313   48.1271   44.8918 C   0  0  0  0  0  0  0  0  0  0  0  0
   50.4401   47.5502   43.7050 C   0  0  0  0  0  0  0  0  0  0  0  0
   49.1122   47.2641   43.4184 C   0  0  0  0  0  0  0  0  0  0  0  0
   48.1328   47.6818   44.2801 C   0  0  0  0  0  0  0  0  0  0  0  0
   46.6934   47.5615   44.0586 C   0  0  0  0  0  0  0  0  0  0  0  0
   44.8322   46.2159   43.6892 C   0  0  0  0  0  0  0  0  0  0  0  0
   43.8914   46.2731   44.6984 C   0  0  0  0  0  0  0  0  0  0  0  0
   42.5444   46.0978   44.3761 C   0  0  0  0  0  0  0  0  0  0  0  0
   42.1170   45.9701   43.0802 C   0  0  0  0  0  0  0  0  0  0  0  0
   43.1047   45.9251   42.0726 C   0  0  0  0  0  0  0  0  0  0  0  0
   44.4592   45.9864   42.3801 C   0  0  0  0  0  0  0  0  0  0  0  0
   40.6337   45.9268   42.7193 C   0  0  0  0  0  0  0  0  0  0  0  0
   40.1551   44.5440   42.2995 C   0  0  0  0  0  0  0  0  0  0  0  0
   40.3455   43.4230   43.0664 C   0  0  0  0  0  0  0  0  0  0  0  0
   39.2556   42.0308   41.5235 C   0  0  0  0  0  0  0  0  0  0  0  0
   39.0707   43.1313   40.7613 C   0  0  0  0  0  0  0  0  0  0  0  0
   39.5061   44.3909   41.1064 C   0  0  0  0  0  0  0  0  0  0  0  0
   37.6338   40.3699   41.5635 C   0  0  0  0  0  0  0  0  0  0  0  0
   37.1525   39.0563   41.1917 C   0  0  0  0  0  0  0  0  0  0  0  0
   35.8758   38.7760   40.6879 C   0  0  0  0  0  0  0  0  0  0  0  0
   35.5669   37.4632   40.3959 C   0  0  0  0  0  0  0  0  0  0  0  0
   36.5450   36.4994   40.5840 C   0  0  0  0  0  0  0  0  0  0  0  0
   37.7749   36.8194   41.1171 C   0  0  0  0  0  0  0  0  0  0  0  0
   48.4224   48.2667   45.4717 N   0  0  0  0  0  0  0  0  0  0  0  0
   46.2431   46.3369   44.0301 N   0  0  0  0  0  0  0  0  0  0  0  0
   38.7568   40.7345   41.0524 N   0  0  0  0  0  0  0  0  0  0  0  0
   38.0895   38.0790   41.3793 N   0  0  0  0  0  0  0  0  0  0  0  0
  1 17  2  0  0  0  0
  1 16  1  0  0  0  0
  2  3  2  0  0  0  0
  2 26  1  0  0  0  0
  3  4  1  0  0  0  0
  4  5  2  0  0  0  0
  5  6  1  0  0  0  0
  6  7  1  0  0  0  0
  6 26  2  0  0  0  0
  7 27  2  0  0  0  0
  8  9  2  0  0  0  0
  8 13  1  0  0  0  0
  8 27  1  0  0  0  0
  9 10  1  0  0  0  0
 10 11  2  0  0  0  0
 11 12  1  0  0  0  0
 11 14  1  0  0  0  0
 12 13  2  0  0  0  0
 14 15  1  0  0  0  0
 15 16  2  0  0  0  0
 15 19  1  0  0  0  0
 17 18  1  0  0  0  0
 17 28  1  0  0  0  0
 18 19  2  0  0  0  0
 20 21  1  0  0  0  0
 20 28  2  0  0  0  0
 21 22  2  0  0  0  0
 21 29  1  0  0  0  0
 22 23  1  0  0  0  0
 23 24  2  0  0  0  0
 24 25  1  0  0  0  0
 25 29  2  0  0  0  0
M  END
>  <CHROM.1>
66.09169368,-107.46639468,53.35514331,-128.21271067,-88.39004704,81.49780019
42.30336651,43.83437457,42.70017155,2.45980506,0.19633937,-3.00386063

>  <Name>
ligand

>  <RI>
0

>  <Rbt.Current_Directory>
/home/itssahil/PROJECTS/Mol_Feturizer/New_Systems/rnas/4JIY

>  <Rbt.Executable>
rbdock ($Id: //depot/dev/client3/rdock/2013.1/src/exe/rbdock.cxx#4 $)

>  <Rbt.Library>
libRbt.so (2013.1, Build901 2013/11/27)

>  <Rbt.Parameter_File>
/export/apps/rDock/src/rDock_2013.1_src/data/scripts/dock_solv.prm

>  <Rbt.Receptor>
prm/pocket_docking_2.prm

>  <SCORE>
10.6057

>  <SCORE.INTER>
11.4

>  <SCORE.INTER.CONST>
1

>  <SCORE.INTER.POLAR>
0

>  <SCORE.INTER.ROT>
6

>  <SCORE.INTER.SOLV>
4.44089e-16

>  <SCORE.INTER.VDW>
0

>  <SCORE.INTER.norm>
0.393103

>  <SCORE.INTRA>
-0.794343

>  <SCORE.INTRA.DIHEDRAL>
0.507054

>  <SCORE.INTRA.DIHEDRAL.0>
7.2424

>  <SCORE.INTRA.POLAR>
0

>  <SCORE.INTRA.POLAR.0>
0

>  <SCORE.INTRA.REPUL>
0

>  <SCORE.INTRA.REPUL.0>
0

>  <SCORE.INTRA.SOLV>
-0.0165845

>  <SCORE.INTRA.SOLV.lig_0>
-3.36201

>  <SCORE.INTRA.VDW>
-1.03958

>  <SCORE.INTRA.VDW.0>
-0.910526

>  <SCORE.INTRA.norm>
-0.0273911

>  <SCORE.RESTR>
0

>  <SCORE.RESTR.CAVITY>
0

>  <SCORE.RESTR.norm>
0

>  <SCORE.SYSTEM>
0

>  <SCORE.SYSTEM.CONST>
0

>  <SCORE.SYSTEM.DIHEDRAL>
0

>  <SCORE.SYSTEM.SOLV>
0

>  <SCORE.SYSTEM.norm>
0

>  <SCORE.heavy>
29

>  <SCORE.norm>
0.365712

>  <RMSD>
0.915

$$$$
ligand
 OpenBabel11021811493D
libRbt.so/2013.1/901 2013/11/27
 29 32  0  0  0  0  0  0  0  0999 V2000
   39.6299   42.3254   40.3496 C   0  0  0  0  0  0  0  0  0  0  0  0
   49.2815   48.3899   44.0497 C   0  0  0  0  0  0  0  0  0  0  0  0
   49.6946   48.0637   45.3483 C   0  0  0  0  0  0  0  0  0  0  0  0
   48.8022   47.6419   46.2713 C   0  0  0  0  0  0  0  0  0  0  0  0
   47.4591   47.6048   45.9220 C   0  0  0  0  0  0  0  0  0  0  0  0
   47.0922   47.8734   44.6299 C   0  0  0  0  0  0  0  0  0  0  0  0
   45.7411   47.7590   44.0852 C   0  0  0  0  0  0  0  0  0  0  0  0
   43.9811   46.4181   43.3671 C   0  0  0  0  0  0  0  0  0  0  0  0
   43.9357   46.2144   42.0021 C   0  0  0  0  0  0  0  0  0  0  0  0
   42.6926   46.1560   41.3694 C   0  0  0  0  0  0  0  0  0  0  0  0
   41.5163   46.1950   42.0716 C   0  0  0  0  0  0  0  0  0  0  0  0
   41.5995   46.3947   43.4665 C   0  0  0  0  0  0  0  0  0  0  0  0
   42.8232   46.5664   44.1039 C   0  0  0  0  0  0  0  0  0  0  0  0
   40.1639   45.9831   41.3944 C   0  0  0  0  0  0  0  0  0  0  0  0
   39.7124   44.5292   41.3905 C   0  0  0  0  0  0  0  0  0  0  0  0
   40.0249   43.6529   40.3828 C   0  0  0  0  0  0  0  0  0  0  0  0
   38.8947   41.8725   41.4121 C   0  0  0  0  0  0  0  0  0  0  0  0
   38.5790   42.7337   42.4047 C   0  0  0  0  0  0  0  0  0  0  0  0
   38.9586   44.0568   42.4281 C   0  0  0  0  0  0  0  0  0  0  0  0
   37.2944   40.2643   40.9190 C   0  0  0  0  0  0  0  0  0  0  0  0
   36.7579   38.9261   41.0477 C   0  0  0  0  0  0  0  0  0  0  0  0
   37.2879   37.7808   40.4396 C   0  0  0  0  0  0  0  0  0  0  0  0
   36.6461   36.5776   40.6507 C   0  0  0  0  0  0  0  0  0  0  0  0
   35.5345   36.5608   41.4783 C   0  0  0  0  0  0  0  0  0  0  0  0
   35.0289   37.7206   42.0247 C   0  0  0  0  0  0  0  0  0  0  0  0
   47.9882   48.2926   43.6984 N   0  0  0  0  0  0  0  0  0  0  0  0
   45.2768   46.5410   44.0210 N   0  0  0  0  0  0  0  0  0  0  0  0
   38.4283   40.4839   41.4859 N   0  0  0  0  0  0  0  0  0  0  0  0
   35.6502   38.8768   41.8471 N   0  0  0  0  0  0  0  0  0  0  0  0
  1 17  2  0  0  0  0
  1 16  1  0  0  0  0
  2  3  2  0  0  0  0
  2 26  1  0  0  0  0
  3  4  1  0  0  0  0
  4  5  2  0  0  0  0
  5  6  1  0  0  0  0
  6  7  1  0  0  0  0
  6 26  2  0  0  0  0
  7 27  2  0  0  0  0
  8  9  2  0  0  0  0
  8 13  1  0  0  0  0
  8 27  1  0  0  0  0
  9 10  1  0  0  0  0
 10 11  2  0  0  0  0
 11 12  1  0  0  0  0
 11 14  1  0  0  0  0
 12 13  2  0  0  0  0
 14 15  1  0  0  0  0
 15 16  2  0  0  0  0
 15 19  1  0  0  0  0
 17 18  1  0  0  0  0
 17 28  1  0  0  0  0
 18 19  2  0  0  0  0
 20 21  1  0  0  0  0
 20 28  2  0  0  0  0
 21 22  2  0  0  0  0
 21 29  1  0  0  0  0
 22 23  1  0  0  0  0
 23 24  2  0  0  0  0
 24 25  1  0  0  0  0
 25 29  2  0  0  0  0
M  END
>  <CHROM.1>
-67.09178702,91.20807384,-89.77142012,-69.20824272,89.67830662,-87.65702033
41.59925121,43.88301429,42.55170895,2.54764767,0.45807189,2.91595830

>  <Name>
ligand

>  <RI>
0

>  <Rbt.Current_Directory>
/home/itssahil/PROJECTS/Mol_Feturizer/New_Systems/rnas/4JIY

>  <Rbt.Executable>
rbdock ($Id: //depot/dev/client3/rdock/2013.1/src/exe/rbdock.cxx#4 $)

>  <Rbt.Library>
libRbt.so (2013.1, Build901 2013/11/27)

>  <Rbt.Parameter_File>
/export/apps/rDock/src/rDock_2013.1_src/data/scripts/dock_solv.prm

>  <Rbt.Receptor>
prm/pocket_docking_2.prm

>  <SCORE>
10.1647

>  <SCORE.INTER>
11.4

>  <SCORE.INTER.CONST>
1

>  <SCORE.INTER.POLAR>
0

>  <SCORE.INTER.ROT>
6

>  <SCORE.INTER.SOLV>
8.88178e-16

>  <SCORE.INTER.VDW>
0

>  <SCORE.INTER.norm>
0.393103

>  <SCORE.INTRA>
-1.2353

>  <SCORE.INTRA.DIHEDRAL>
0.0149885

>  <SCORE.INTRA.DIHEDRAL.0>
7.2424

>  <SCORE.INTRA.POLAR>
0

>  <SCORE.INTRA.POLAR.0>
0

>  <SCORE.INTRA.REPUL>
0

>  <SCORE.INTRA.REPUL.0>
0

>  <SCORE.INTRA.SOLV>
-0.0189638

>  <SCORE.INTRA.SOLV.lig_0>
-3.36201

>  <SCORE.INTRA.VDW>
-1.23331

>  <SCORE.INTRA.VDW.0>
-0.910526

>  <SCORE.INTRA.norm>
-0.0425964

>  <SCORE.RESTR>
0

>  <SCORE.RESTR.CAVITY>
0

>  <SCORE.RESTR.norm>
0

>  <SCORE.SYSTEM>
0

>  <SCORE.SYSTEM.CONST>
0

>  <SCORE.SYSTEM.DIHEDRAL>
0

>  <SCORE.SYSTEM.SOLV>
0

>  <SCORE.SYSTEM.norm>
0

>  <SCORE.heavy>
29

>  <SCORE.norm>
0.350507

>  <RMSD>
0.922

$$$$
ligand
 OpenBabel11021811493D
libRbt.so/2013.1/901 2013/11/27
 29 32  0  0  0  0  0  0  0  0999 V2000
   38.2982   43.1114   42.4294 C   0  0  0  0  0  0  0  0  0  0  0  0
   48.7278   47.4178   46.3305 C   0  0  0  0  0  0  0  0  0  0  0  0
   49.8240   47.6396   45.4863 C   0  0  0  0  0  0  0  0  0  0  0  0
   49.6530   47.7694   44.1521 C   0  0  0  0  0  0  0  0  0  0  0  0
   48.3756   47.6102   43.6320 C   0  0  0  0  0  0  0  0  0  0  0  0
   47.3163   47.4520   44.4858 C   0  0  0  0  0  0  0  0  0  0  0  0
   45.9089   47.3924   44.0973 C   0  0  0  0  0  0  0  0  0  0  0  0
   44.2031   46.3411   42.9157 C   0  0  0  0  0  0  0  0  0  0  0  0
   43.2232   45.7221   43.6665 C   0  0  0  0  0  0  0  0  0  0  0  0
   41.9200   45.6750   43.1681 C   0  0  0  0  0  0  0  0  0  0  0  0
   41.5618   46.3084   42.0067 C   0  0  0  0  0  0  0  0  0  0  0  0
   42.5867   46.9397   41.2692 C   0  0  0  0  0  0  0  0  0  0  0  0
   43.9114   46.9046   41.6898 C   0  0  0  0  0  0  0  0  0  0  0  0
   40.1093   46.3803   41.5406 C   0  0  0  0  0  0  0  0  0  0  0  0
   39.4444   45.0156   41.4258 C   0  0  0  0  0  0  0  0  0  0  0  0
   38.9094   44.3526   42.5006 C   0  0  0  0  0  0  0  0  0  0  0  0
   38.2167   42.5327   41.1913 C   0  0  0  0  0  0  0  0  0  0  0  0
   38.7477   43.1791   40.1299 C   0  0  0  0  0  0  0  0  0  0  0  0
   39.3691   44.4053   40.2051 C   0  0  0  0  0  0  0  0  0  0  0  0
   38.3426   40.2152   41.2518 C   0  0  0  0  0  0  0  0  0  0  0  0
   37.7847   38.9061   40.9863 C   0  0  0  0  0  0  0  0  0  0  0  0
   36.7457   38.3082   41.7109 C   0  0  0  0  0  0  0  0  0  0  0  0
   36.3384   37.0434   41.3384 C   0  0  0  0  0  0  0  0  0  0  0  0
   36.9542   36.4479   40.2489 C   0  0  0  0  0  0  0  0  0  0  0  0
   37.9978   37.0615   39.5902 C   0  0  0  0  0  0  0  0  0  0  0  0
   47.4849   47.3265   45.8281 N   0  0  0  0  0  0  0  0  0  0  0  0
   45.5753   46.3383   43.4039 N   0  0  0  0  0  0  0  0  0  0  0  0
   37.5850   41.2233   40.9967 N   0  0  0  0  0  0  0  0  0  0  0  0
   38.3810   38.2844   39.9250 N   0  0  0  0  0  0  0  0  0  0  0  0
  1 17  2  0  0  0  0
  1 16  1  0  0  0  0
  2  3  2  0  0  0  0
  2 26  1  0  0  0  0
  3  4  1  0  0  0  0
  4  5  2  0  0  0  0
  5  6  1  0  0  0  0
  6  7  1  0  0  0  0
  6 26  2  0  0  0  0
  7 27  2  0  0  0  0
  8  9  2  0  0  0  0
  8 13  1  0  0  0  0
  8 27  1  0  0  0  0
  9 10  1  0  0  0  0
 10 11  2  0  0  0  0
 11 12  1  0  0  0  0
 11 14  1  0  0  0  0
 12 13  2  0  0  0  0
 14 15  1  0  0  0  0
 15 16  2  0  0  0  0
 15 19  1  0  0  0  0
 17 18  1  0  0  0  0
 17 28  1  0  0  0  0
 18 19  2  0  0  0  0
 20 21  1  0  0  0  0
 20 28  2  0  0  0  0
 21 22  2  0  0  0  0
 21 29  1  0  0  0  0
 22 23  1  0  0  0  0
 23 24  2  0  0  0  0
 24 25  1  0  0  0  0
 25 29  2  0  0  0  0
M  END
>  <CHROM.1>
67.18146248,-55.09846315,82.03441168,-69.45268952,-93.75297681,-82.37474026
41.84569118,43.90669567,42.33321905,2.49520286,0.39067608,3.09416001

>  <Name>
ligand

>  <RI>
0

>  <Rbt.Current_Directory>
/home/itssahil/PROJECTS/Mol_Feturizer/New_Systems/rnas/4JIY

>  <Rbt.Executable>
rbdock ($Id: //depot/dev/client3/rdock/2013.1/src/exe/rbdock.cxx#4 $)

>  <Rbt.Library>
libRbt.so (2013.1, Build901 2013/11/27)

>  <Rbt.Parameter_File>
/export/apps/rDock/src/rDock_2013.1_src/data/scripts/dock_solv.prm

>  <Rbt.Receptor>
prm/pocket_docking_2.prm

>  <SCORE>
10.2858

>  <SCORE.INTER>
11.4

>  <SCORE.INTER.CONST>
1

>  <SCORE.INTER.POLAR>
0

>  <SCORE.INTER.ROT>
6

>  <SCORE.INTER.SOLV>
8.88178e-16

>  <SCORE.INTER.VDW>
0

>  <SCORE.INTER.norm>
0.393103

>  <SCORE.INTRA>
-1.11425

>  <SCORE.INTRA.DIHEDRAL>
-0.0271753

>  <SCORE.INTRA.DIHEDRAL.0>
7.2424

>  <SCORE.INTRA.POLAR>
0

>  <SCORE.INTRA.POLAR.0>
0

>  <SCORE.INTRA.REPUL>
0

>  <SCORE.INTRA.REPUL.0>
0

>  <SCORE.INTRA.SOLV>
-0.019807

>  <SCORE.INTRA.SOLV.lig_0>
-3.36201

>  <SCORE.INTRA.VDW>
-1.09076

>  <SCORE.INTRA.VDW.0>
-0.910526

>  <SCORE.INTRA.norm>
-0.0384223

>  <SCORE.RESTR>
0

>  <SCORE.RESTR.CAVITY>
0

>  <SCORE.RESTR.norm>
0

>  <SCORE.SYSTEM>
0

>  <SCORE.SYSTEM.CONST>
0

>  <SCORE.SYSTEM.DIHEDRAL>
0

>  <SCORE.SYSTEM.SOLV>
0

>  <SCORE.SYSTEM.norm>
0

>  <SCORE.heavy>
29

>  <SCORE.norm>
0.354681

>  <RMSD>
0.933

$$$$
ligand
 OpenBabel11021811493D
libRbt.so/2013.1/901 2013/11/27
 29 32  0  0  0  0  0  0  0  0999 V2000
   39.5435   42.4026   40.5761 C   0  0  0  0  0  0  0  0  0  0  0  0
   49.0817   48.1180   45.9478 C   0  0  0  0  0  0  0  0  0  0  0  0
   50.1581   47.7828   45.1156 C   0  0  0  0  0  0  0  0  0  0  0  0
   49.9447   47.2956   43.8733 C   0  0  0  0  0  0  0  0  0  0  0  0
   48.6359   47.0718   43.4679 C   0  0  0  0  0  0  0  0  0  0  0  0
   47.6040   47.4625   44.2796 C   0  0  0  0  0  0  0  0  0  0  0  0
   46.1835   47.4035   43.9419 C   0  0  0  0  0  0  0  0  0  0  0  0
   44.3195   46.1447   43.3482 C   0  0  0  0  0  0  0  0  0  0  0  0
   44.0604   46.1104   41.9923 C   0  0  0  0  0  0  0  0  0  0  0  0
   42.7335   46.1187   41.5584 C   0  0  0  0  0  0  0  0  0  0  0  0
   41.6811   46.0597   42.4344 C   0  0  0  0  0  0  0  0  0  0  0  0
   41.9823   46.0866   43.8132 C   0  0  0  0  0  0  0  0  0  0  0  0
   43.2918   46.1901   44.2687 C   0  0  0  0  0  0  0  0  0  0  0  0
   40.2379   45.9200   41.9550 C   0  0  0  0  0  0  0  0  0  0  0  0
   39.7768   44.4735   41.8426 C   0  0  0  0  0  0  0  0  0  0  0  0
   39.9511   43.7199   40.7101 C   0  0  0  0  0  0  0  0  0  0  0  0
   38.9451   41.8270   41.6648 C   0  0  0  0  0  0  0  0  0  0  0  0
   38.7655   42.5672   42.7812 C   0  0  0  0  0  0  0  0  0  0  0  0
   39.1567   43.8812   42.9069 C   0  0  0  0  0  0  0  0  0  0  0  0
   37.2853   40.2752   41.1883 C   0  0  0  0  0  0  0  0  0  0  0  0
   36.7570   38.9281   41.2298 C   0  0  0  0  0  0  0  0  0  0  0  0
   36.3947   38.2375   42.3935 C   0  0  0  0  0  0  0  0  0  0  0  0
   35.9203   36.9484   42.2623 C   0  0  0  0  0  0  0  0  0  0  0  0
   35.7957   36.4195   40.9873 C   0  0  0  0  0  0  0  0  0  0  0  0
   36.2001   37.1252   39.8748 C   0  0  0  0  0  0  0  0  0  0  0  0
   47.8157   47.9576   45.5270 N   0  0  0  0  0  0  0  0  0  0  0  0
   45.7023   46.1983   43.8026 N   0  0  0  0  0  0  0  0  0  0  0  0
   38.4797   40.4364   41.6384 N   0  0  0  0  0  0  0  0  0  0  0  0
   36.6353   38.3711   39.9875 N   0  0  0  0  0  0  0  0  0  0  0  0
  1 17  2  0  0  0  0
  1 16  1  0  0  0  0
  2  3  2  0  0  0  0
  2 26  1  0  0  0  0
  3  4  1  0  0  0  0
  4  5  2  0  0  0  0
  5  6  1  0  0  0  0
  6  7  1  0  0  0  0
  6 26  2  0  0  0  0
  7 27  2  0  0  0  0
  8  9  2  0  0  0  0
  8 13  1  0  0  0  0
  8 27  1  0  0  0  0
  9 10  1  0  0  0  0
 10 11  2  0  0  0  0
 11 12  1  0  0  0  0
 11 14  1  0  0  0  0
 12 13  2  0  0  0  0
 14 15  1  0  0  0  0
 15 16  2  0  0  0  0
 15 19  1  0  0  0  0
 17 18  1  0  0  0  0
 17 28  1  0  0  0  0
 18 19  2  0  0  0  0
 20 21  1  0  0  0  0
 20 28  2  0  0  0  0
 21 22  2  0  0  0  0
 21 29  1  0  0  0  0
 22 23  1  0  0  0  0
 23 24  2  0  0  0  0
 24 25  1  0  0  0  0
 25 29  2  0  0  0  0
M  END
>  <CHROM.1>
66.44966340,91.22813091,-88.03408968,70.36568552,89.59454682,-87.09624048
41.82680451,43.71079209,42.59826081,2.50433730,0.32037768,3.09463145

>  <Name>
ligand

>  <RI>
0

>  <Rbt.Current_Directory>
/home/itssahil/PROJECTS/Mol_Feturizer/New_Systems/rnas/4JIY

>  <Rbt.Executable>
rbdock ($Id: //depot/dev/client3/rdock/2013.1/src/exe/rbdock.cxx#4 $)

>  <Rbt.Library>
libRbt.so (2013.1, Build901 2013/11/27)

>  <Rbt.Parameter_File>
/export/apps/rDock/src/rDock_2013.1_src/data/scripts/dock_solv.prm

>  <Rbt.Receptor>
prm/pocket_docking_2.prm

>  <SCORE>
10.1935

>  <SCORE.INTER>
11.4

>  <SCORE.INTER.CONST>
1

>  <SCORE.INTER.POLAR>
0

>  <SCORE.INTER.ROT>
6

>  <SCORE.INTER.SOLV>
-8.88178e-16

>  <SCORE.INTER.VDW>
0

>  <SCORE.INTER.norm>
0.393103

>  <SCORE.INTRA>
-1.20655

>  <SCORE.INTRA.DIHEDRAL>
0.0187576

>  <SCORE.INTRA.DIHEDRAL.0>
7.2424

>  <SCORE.INTRA.POLAR>
0

>  <SCORE.INTRA.POLAR.0>
0

>  <SCORE.INTRA.REPUL>
0

>  <SCORE.INTRA.REPUL.0>
0

>  <SCORE.INTRA.SOLV>
-0.0189332

>  <SCORE.INTRA.SOLV.lig_0>
-3.36201

>  <SCORE.INTRA.VDW>
-1.20646

>  <SCORE.INTRA.VDW.0>
-0.910526

>  <SCORE.INTRA.norm>
-0.0416051

>  <SCORE.RESTR>
0

>  <SCORE.RESTR.CAVITY>
0

>  <SCORE.RESTR.norm>
0

>  <SCORE.SYSTEM>
0

>  <SCORE.SYSTEM.CONST>
0

>  <SCORE.SYSTEM.DIHEDRAL>
0

>  <SCORE.SYSTEM.SOLV>
0

>  <SCORE.SYSTEM.norm>
0

>  <SCORE.heavy>
29

>  <SCORE.norm>
0.351498

>  <RMSD>
0.935

$$$$
ligand
 OpenBabel11021811493D
libRbt.so/2013.1/901 2013/11/27
 29 32  0  0  0  0  0  0  0  0999 V2000
   39.5560   42.2935   42.5800 C   0  0  0  0  0  0  0  0  0  0  0  0
   49.3884   46.8800   44.1312 C   0  0  0  0  0  0  0  0  0  0  0  0
   49.7268   47.6743   45.2350 C   0  0  0  0  0  0  0  0  0  0  0  0
   48.7676   48.1841   46.0388 C   0  0  0  0  0  0  0  0  0  0  0  0
   47.4389   47.9584   45.7058 C   0  0  0  0  0  0  0  0  0  0  0  0
   47.1394   47.1312   44.6559 C   0  0  0  0  0  0  0  0  0  0  0  0
   45.7986   46.7050   44.2610 C   0  0  0  0  0  0  0  0  0  0  0  0
   43.6663   47.2523   43.5094 C   0  0  0  0  0  0  0  0  0  0  0  0
   42.7259   47.3343   44.5173 C   0  0  0  0  0  0  0  0  0  0  0  0
   41.4258   46.8928   44.2648 C   0  0  0  0  0  0  0  0  0  0  0  0
   41.0281   46.4741   43.0218 C   0  0  0  0  0  0  0  0  0  0  0  0
   42.0128   46.4119   42.0122 C   0  0  0  0  0  0  0  0  0  0  0  0
   43.3388   46.7411   42.2697 C   0  0  0  0  0  0  0  0  0  0  0  0
   39.5722   46.1325   42.7120 C   0  0  0  0  0  0  0  0  0  0  0  0
   39.3773   44.7007   42.2329 C   0  0  0  0  0  0  0  0  0  0  0  0
   39.7204   43.6076   42.9868 C   0  0  0  0  0  0  0  0  0  0  0  0
   38.9949   42.0937   41.3472 C   0  0  0  0  0  0  0  0  0  0  0  0
   38.6606   43.1676   40.5979 C   0  0  0  0  0  0  0  0  0  0  0  0
   38.8397   44.4728   40.9971 C   0  0  0  0  0  0  0  0  0  0  0  0
   37.6654   40.1968   41.1910 C   0  0  0  0  0  0  0  0  0  0  0  0
   37.4464   38.8318   40.7618 C   0  0  0  0  0  0  0  0  0  0  0  0
   38.2424   37.7352   41.1173 C   0  0  0  0  0  0  0  0  0  0  0  0
   37.9064   36.4971   40.6089 C   0  0  0  0  0  0  0  0  0  0  0  0
   36.7827   36.3992   39.8035 C   0  0  0  0  0  0  0  0  0  0  0  0
   36.0522   37.5137   39.4520 C   0  0  0  0  0  0  0  0  0  0  0  0
   48.1021   46.6130   43.8492 N   0  0  0  0  0  0  0  0  0  0  0  0
   45.0382   47.6544   43.7881 N   0  0  0  0  0  0  0  0  0  0  0  0
   38.7677   40.7450   40.8174 N   0  0  0  0  0  0  0  0  0  0  0  0
   36.3524   38.7026   39.9526 N   0  0  0  0  0  0  0  0  0  0  0  0
  1 17  2  0  0  0  0
  1 16  1  0  0  0  0
  2  3  2  0  0  0  0
  2 26  1  0  0  0  0
  3  4  1  0  0  0  0
  4  5  2  0  0  0  0
  5  6  1  0  0  0  0
  6  7  1  0  0  0  0
  6 26  2  0  0  0  0
  7 27  2  0  0  0  0
  8  9  2  0  0  0  0
  8 13  1  0  0  0  0
  8 27  1  0  0  0  0
  9 10  1  0  0  0  0
 10 11  2  0  0  0  0
 11 12  1  0  0  0  0
 11 14  1  0  0  0  0
 12 13  2  0  0  0  0
 14 15  1  0  0  0  0
 15 16  2  0  0  0  0
 15 19  1  0  0  0  0
 17 18  1  0  0  0  0
 17 28  1  0  0  0  0
 18 19  2  0  0  0  0
 20 21  1  0  0  0  0
 20 28  2  0  0  0  0
 21 22  2  0  0  0  0
 21 29  1  0  0  0  0
 22 23  1  0  0  0  0
 23 24  2  0  0  0  0
 24 25  1  0  0  0  0
 25 29  2  0  0  0  0
M  END
>  <CHROM.1>
67.68885211,-120.91426894,59.78516599,62.60238681,88.04548404,84.99065255
41.70418484,43.89609135,42.55758331,2.39122132,0.23726225,-2.94584160

>  <Name>
ligand

>  <RI>
0

>  <Rbt.Current_Directory>
/home/itssahil/PROJECTS/Mol_Feturizer/New_Systems/rnas/4JIY

>  <Rbt.Executable>
rbdock ($Id: //depot/dev/client3/rdock/2013.1/src/exe/rbdock.cxx#4 $)

>  <Rbt.Library>
libRbt.so (2013.1, Build901 2013/11/27)

>  <Rbt.Parameter_File>
/export/apps/rDock/src/rDock_2013.1_src/data/scripts/dock_solv.prm

>  <Rbt.Receptor>
prm/pocket_docking_2.prm

>  <SCORE>
10.3661

>  <SCORE.INTER>
11.4

>  <SCORE.INTER.CONST>
1

>  <SCORE.INTER.POLAR>
0

>  <SCORE.INTER.ROT>
6

>  <SCORE.INTER.SOLV>
0

>  <SCORE.INTER.VDW>
0

>  <SCORE.INTER.norm>
0.393103

>  <SCORE.INTRA>
-1.03392

>  <SCORE.INTRA.DIHEDRAL>
0.0813562

>  <SCORE.INTRA.DIHEDRAL.0>
7.2424

>  <SCORE.INTRA.POLAR>
0

>  <SCORE.INTRA.POLAR.0>
0

>  <SCORE.INTRA.REPUL>
0

>  <SCORE.INTRA.REPUL.0>
0

>  <SCORE.INTRA.SOLV>
-0.0193263

>  <SCORE.INTRA.SOLV.lig_0>
-3.36201

>  <SCORE.INTRA.VDW>
-1.06494

>  <SCORE.INTRA.VDW.0>
-0.910526

>  <SCORE.INTRA.norm>
-0.0356526

>  <SCORE.RESTR>
0

>  <SCORE.RESTR.CAVITY>
0

>  <SCORE.RESTR.norm>
0

>  <SCORE.SYSTEM>
0

>  <SCORE.SYSTEM.CONST>
0

>  <SCORE.SYSTEM.DIHEDRAL>
0

>  <SCORE.SYSTEM.SOLV>
0

>  <SCORE.SYSTEM.norm>
0

>  <SCORE.heavy>
29

>  <SCORE.norm>
0.357451

>  <RMSD>
0.962

$$$$
ligand
 OpenBabel11021811493D
libRbt.so/2013.1/901 2013/11/27
 29 32  0  0  0  0  0  0  0  0999 V2000
   43.0360   47.3261   42.1822 C   0  0  0  0  0  0  0  0  0  0  0  0
   37.0500   36.6667   41.9968 C   0  0  0  0  0  0  0  0  0  0  0  0
   36.9408   36.0649   40.7360 C   0  0  0  0  0  0  0  0  0  0  0  0
   36.9527   36.8129   39.6106 C   0  0  0  0  0  0  0  0  0  0  0  0
   37.0073   38.1943   39.7368 C   0  0  0  0  0  0  0  0  0  0  0  0
   37.1715   38.7507   40.9776 C   0  0  0  0  0  0  0  0  0  0  0  0
   37.3648   40.1720   41.2566 C   0  0  0  0  0  0  0  0  0  0  0  0
   38.7380   42.0492   41.2173 C   0  0  0  0  0  0  0  0  0  0  0  0
   38.3687   43.0602   40.3522 C   0  0  0  0  0  0  0  0  0  0  0  0
   38.6554   44.3822   40.6976 C   0  0  0  0  0  0  0  0  0  0  0  0
   39.2008   44.7156   41.9099 C   0  0  0  0  0  0  0  0  0  0  0  0
   39.5573   43.6578   42.7740 C   0  0  0  0  0  0  0  0  0  0  0  0
   39.3833   42.3286   42.4052 C   0  0  0  0  0  0  0  0  0  0  0  0
   39.3766   46.1691   42.3443 C   0  0  0  0  0  0  0  0  0  0  0  0
   40.8061   46.5116   42.7404 C   0  0  0  0  0  0  0  0  0  0  0  0
   41.7290   47.0048   41.8538 C   0  0  0  0  0  0  0  0  0  0  0  0
   43.4062   47.1495   43.4885 C   0  0  0  0  0  0  0  0  0  0  0  0
   42.5023   46.6581   44.3648 C   0  0  0  0  0  0  0  0  0  0  0  0
   41.2087   46.3241   44.0330 C   0  0  0  0  0  0  0  0  0  0  0  0
   45.6149   46.5097   43.8089 C   0  0  0  0  0  0  0  0  0  0  0  0
   46.9423   46.7485   44.3345 C   0  0  0  0  0  0  0  0  0  0  0  0
   47.2723   46.8212   45.6940 C   0  0  0  0  0  0  0  0  0  0  0  0
   48.5869   47.0722   46.0304 C   0  0  0  0  0  0  0  0  0  0  0  0
   49.5140   47.2045   45.0088 C   0  0  0  0  0  0  0  0  0  0  0  0
   49.1342   47.1615   43.6847 C   0  0  0  0  0  0  0  0  0  0  0  0
   37.1651   38.0006   42.1105 N   0  0  0  0  0  0  0  0  0  0  0  0
   38.4959   40.6656   40.8321 N   0  0  0  0  0  0  0  0  0  0  0  0
   44.7626   47.4630   43.9503 N   0  0  0  0  0  0  0  0  0  0  0  0
   47.8797   46.8986   43.3510 N   0  0  0  0  0  0  0  0  0  0  0  0
  1 17  2  0  0  0  0
  1 16  1  0  0  0  0
  2  3  2  0  0  0  0
  2 26  1  0  0  0  0
  3  4  1  0  0  0  0
  4  5  2  0  0  0  0
  5  6  1  0  0  0  0
  6  7  1  0  0  0  0
  6 26  2  0  0  0  0
  7 27  2  0  0  0  0
  8  9  2  0  0  0  0
  8 13  1  0  0  0  0
  8 27  1  0  0  0  0
  9 10  1  0  0  0  0
 10 11  2  0  0  0  0
 11 12  1  0  0  0  0
 11 14  1  0  0  0  0
 12 13  2  0  0  0  0
 14 15  1  0  0  0  0
 15 16  2  0  0  0  0
 15 19  1  0  0  0  0
 17 18  1  0  0  0  0
 17 28  1  0  0  0  0
 18 19  2  0  0  0  0
 20 21  1  0  0  0  0
 20 28  2  0  0  0  0
 21 22  2  0  0  0  0
 21 29  1  0  0  0  0
 22 23  1  0  0  0  0
 23 24  2  0  0  0  0
 24 25  1  0  0  0  0
 25 29  2  0  0  0  0
M  END
>  <CHROM.1>
-67.44157512,-125.18294300,91.48991342,70.33963088,-93.34474992,-86.31948595
41.51159772,43.74344268,42.53341369,0.71176472,-0.30902289,0.04476130

>  <Name>
ligand

>  <RI>
0

>  <Rbt.Current_Directory>
/home/itssahil/PROJECTS/Mol_Feturizer/New_Systems/rnas/4JIY

>  <Rbt.Executable>
rbdock ($Id: //depot/dev/client3/rdock/2013.1/src/exe/rbdock.cxx#4 $)

>  <Rbt.Library>
libRbt.so (2013.1, Build901 2013/11/27)

>  <Rbt.Parameter_File>
/export/apps/rDock/src/rDock_2013.1_src/data/scripts/dock_solv.prm

>  <Rbt.Receptor>
prm/pocket_docking_2.prm

>  <SCORE>
10.2316

>  <SCORE.INTER>
11.4

>  <SCORE.INTER.CONST>
1

>  <SCORE.INTER.POLAR>
0

>  <SCORE.INTER.ROT>
6

>  <SCORE.INTER.SOLV>
-4.44089e-16

>  <SCORE.INTER.VDW>
0

>  <SCORE.INTER.norm>
0.393103

>  <SCORE.INTRA>
-1.1684

>  <SCORE.INTRA.DIHEDRAL>
-0.0139277

>  <SCORE.INTRA.DIHEDRAL.0>
7.2424

>  <SCORE.INTRA.POLAR>
0

>  <SCORE.INTRA.POLAR.0>
0

>  <SCORE.INTRA.REPUL>
0

>  <SCORE.INTRA.REPUL.0>
0

>  <SCORE.INTRA.SOLV>
-0.0200392

>  <SCORE.INTRA.SOLV.lig_0>
-3.36201

>  <SCORE.INTRA.VDW>
-1.15142

>  <SCORE.INTRA.VDW.0>
-0.910526

>  <SCORE.INTRA.norm>
-0.0402896

>  <SCORE.RESTR>
0

>  <SCORE.RESTR.CAVITY>
0

>  <SCORE.RESTR.norm>
0

>  <SCORE.SYSTEM>
0

>  <SCORE.SYSTEM.CONST>
0

>  <SCORE.SYSTEM.DIHEDRAL>
0

>  <SCORE.SYSTEM.SOLV>
0

>  <SCORE.SYSTEM.norm>
0

>  <SCORE.heavy>
29

>  <SCORE.norm>
0.352814

>  <RMSD>
0.970

$$$$
ligand
 OpenBabel11021811493D
libRbt.so/2013.1/901 2013/11/27
 29 32  0  0  0  0  0  0  0  0999 V2000
   38.5663   43.4229   42.2165 C   0  0  0  0  0  0  0  0  0  0  0  0
   49.1569   48.1196   45.7237 C   0  0  0  0  0  0  0  0  0  0  0  0
   50.2708   47.6186   45.0369 C   0  0  0  0  0  0  0  0  0  0  0  0
   50.1366   47.0746   43.8072 C   0  0  0  0  0  0  0  0  0  0  0  0
   48.8611   46.9629   43.2706 C   0  0  0  0  0  0  0  0  0  0  0  0
   47.7995   47.5130   43.9388 C   0  0  0  0  0  0  0  0  0  0  0  0
   46.4248   47.5810   43.4478 C   0  0  0  0  0  0  0  0  0  0  0  0
   44.3574   46.5595   43.1425 C   0  0  0  0  0  0  0  0  0  0  0  0
   43.3331   47.2005   43.8110 C   0  0  0  0  0  0  0  0  0  0  0  0
   42.0469   47.1640   43.2693 C   0  0  0  0  0  0  0  0  0  0  0  0
   41.7874   46.5984   42.0482 C   0  0  0  0  0  0  0  0  0  0  0  0
   42.8594   45.9603   41.3877 C   0  0  0  0  0  0  0  0  0  0  0  0
   44.1247   45.8876   41.9593 C   0  0  0  0  0  0  0  0  0  0  0  0
   40.4115   46.6895   41.3918 C   0  0  0  0  0  0  0  0  0  0  0  0
   39.7211   45.3402   41.2484 C   0  0  0  0  0  0  0  0  0  0  0  0
   39.1998   44.6511   42.3134 C   0  0  0  0  0  0  0  0  0  0  0  0
   38.4464   42.8865   40.9624 C   0  0  0  0  0  0  0  0  0  0  0  0
   38.9638   43.5588   39.9104 C   0  0  0  0  0  0  0  0  0  0  0  0
   39.6074   44.7716   40.0107 C   0  0  0  0  0  0  0  0  0  0  0  0
   38.5196   40.5662   40.9910 C   0  0  0  0  0  0  0  0  0  0  0  0
   37.9363   39.2739   40.6990 C   0  0  0  0  0  0  0  0  0  0  0  0
   37.7218   38.7554   39.4155 C   0  0  0  0  0  0  0  0  0  0  0  0
   37.1386   37.5093   39.3079 C   0  0  0  0  0  0  0  0  0  0  0  0
   36.8286   36.8248   40.4724 C   0  0  0  0  0  0  0  0  0  0  0  0
   37.0251   37.3926   41.7127 C   0  0  0  0  0  0  0  0  0  0  0  0
   47.9324   48.0653   45.1731 N   0  0  0  0  0  0  0  0  0  0  0  0
   45.6875   46.5433   43.7356 N   0  0  0  0  0  0  0  0  0  0  0  0
   37.7884   41.5947   40.7404 N   0  0  0  0  0  0  0  0  0  0  0  0
   37.6049   38.5779   41.8279 N   0  0  0  0  0  0  0  0  0  0  0  0
  1 17  2  0  0  0  0
  1 16  1  0  0  0  0
  2  3  2  0  0  0  0
  2 26  1  0  0  0  0
  3  4  1  0  0  0  0
  4  5  2  0  0  0  0
  5  6  1  0  0  0  0
  6  7  1  0  0  0  0
  6 26  2  0  0  0  0
  7 27  2  0  0  0  0
  8  9  2  0  0  0  0
  8 13  1  0  0  0  0
  8 27  1  0  0  0  0
  9 10  1  0  0  0  0
 10 11  2  0  0  0  0
 11 12  1  0  0  0  0
 11 14  1  0  0  0  0
 12 13  2  0  0  0  0
 14 15  1  0  0  0  0
 15 16  2  0  0  0  0
 15 19  1  0  0  0  0
 17 18  1  0  0  0  0
 17 28  1  0  0  0  0
 18 19  2  0  0  0  0
 20 21  1  0  0  0  0
 20 28  2  0  0  0  0
 21 22  2  0  0  0  0
 21 29  1  0  0  0  0
 22 23  1  0  0  0  0
 23 24  2  0  0  0  0
 24 25  1  0  0  0  0
 25 29  2  0  0  0  0
M  END
>  <CHROM.1>
88.49683205,-114.72202875,72.06880420,71.95140416,-86.69003835,-79.99073728
42.07463660,44.16416123,42.18281527,2.49951315,0.32375252,-3.12853751

>  <Name>
ligand

>  <RI>
0

>  <Rbt.Current_Directory>
/home/itssahil/PROJECTS/Mol_Feturizer/New_Systems/rnas/4JIY

>  <Rbt.Executable>
rbdock ($Id: //depot/dev/client3/rdock/2013.1/src/exe/rbdock.cxx#4 $)

>  <Rbt.Library>
libRbt.so (2013.1, Build901 2013/11/27)

>  <Rbt.Parameter_File>
/export/apps/rDock/src/rDock_2013.1_src/data/scripts/dock_solv.prm

>  <Rbt.Receptor>
prm/pocket_docking_2.prm

>  <SCORE>
10.3525

>  <SCORE.INTER>
11.4

>  <SCORE.INTER.CONST>
1

>  <SCORE.INTER.POLAR>
0

>  <SCORE.INTER.ROT>
6

>  <SCORE.INTER.SOLV>
0

>  <SCORE.INTER.VDW>
0

>  <SCORE.INTER.norm>
0.393103

>  <SCORE.INTRA>
-1.04748

>  <SCORE.INTRA.DIHEDRAL>
0.284835

>  <SCORE.INTRA.DIHEDRAL.0>
7.2424

>  <SCORE.INTRA.POLAR>
0

>  <SCORE.INTRA.POLAR.0>
0

>  <SCORE.INTRA.REPUL>
0

>  <SCORE.INTRA.REPUL.0>
0

>  <SCORE.INTRA.SOLV>
-0.0189124

>  <SCORE.INTRA.SOLV.lig_0>
-3.36201

>  <SCORE.INTRA.VDW>
-1.18044

>  <SCORE.INTRA.VDW.0>
-0.910526

>  <SCORE.INTRA.norm>
-0.0361198

>  <SCORE.RESTR>
0

>  <SCORE.RESTR.CAVITY>
0

>  <SCORE.RESTR.norm>
0

>  <SCORE.SYSTEM>
0

>  <SCORE.SYSTEM.CONST>
0

>  <SCORE.SYSTEM.DIHEDRAL>
0

>  <SCORE.SYSTEM.SOLV>
0

>  <SCORE.SYSTEM.norm>
0

>  <SCORE.heavy>
29

>  <SCORE.norm>
0.356984

>  <RMSD>
0.973

$$$$
ligand
 OpenBabel11021811493D
libRbt.so/2013.1/901 2013/11/27
 29 32  0  0  0  0  0  0  0  0999 V2000
   39.5915   42.7329   40.9670 C   0  0  0  0  0  0  0  0  0  0  0  0
   49.8079   48.8268   43.1702 C   0  0  0  0  0  0  0  0  0  0  0  0
   50.5583   48.4077   44.2769 C   0  0  0  0  0  0  0  0  0  0  0  0
   49.9583   47.8199   45.3354 C   0  0  0  0  0  0  0  0  0  0  0  0
   48.5749   47.7032   45.3289 C   0  0  0  0  0  0  0  0  0  0  0  0
   47.8741   48.0686   44.2102 C   0  0  0  0  0  0  0  0  0  0  0  0
   46.4373   47.8943   44.0088 C   0  0  0  0  0  0  0  0  0  0  0  0
   44.6256   46.4814   43.6449 C   0  0  0  0  0  0  0  0  0  0  0  0
   43.7072   46.4126   44.6739 C   0  0  0  0  0  0  0  0  0  0  0  0
   42.3641   46.1888   44.3659 C   0  0  0  0  0  0  0  0  0  0  0  0
   41.9135   46.1342   43.0727 C   0  0  0  0  0  0  0  0  0  0  0  0
   42.8780   46.2176   42.0454 C   0  0  0  0  0  0  0  0  0  0  0  0
   44.2343   46.3294   42.3299 C   0  0  0  0  0  0  0  0  0  0  0  0
   40.4264   46.0373   42.7388 C   0  0  0  0  0  0  0  0  0  0  0  0
   39.9585   44.6125   42.4768 C   0  0  0  0  0  0  0  0  0  0  0  0
   40.0088   44.0258   41.2381 C   0  0  0  0  0  0  0  0  0  0  0  0
   39.1174   42.0021   42.0233 C   0  0  0  0  0  0  0  0  0  0  0  0
   39.0602   42.5777   43.2447 C   0  0  0  0  0  0  0  0  0  0  0  0
   39.4602   43.8681   43.5091 C   0  0  0  0  0  0  0  0  0  0  0  0
   37.4195   40.5029   41.5136 C   0  0  0  0  0  0  0  0  0  0  0  0
   36.9013   39.1542   41.4239 C   0  0  0  0  0  0  0  0  0  0  0  0
   36.6685   38.3038   42.5123 C   0  0  0  0  0  0  0  0  0  0  0  0
   36.1850   37.0372   42.2549 C   0  0  0  0  0  0  0  0  0  0  0  0
   35.9240   36.6872   40.9395 C   0  0  0  0  0  0  0  0  0  0  0  0
   36.2041   37.5463   39.8990 C   0  0  0  0  0  0  0  0  0  0  0  0
   48.4755   48.6550   43.1423 N   0  0  0  0  0  0  0  0  0  0  0  0
   46.0358   46.6532   43.9662 N   0  0  0  0  0  0  0  0  0  0  0  0
   38.6546   40.6206   41.8541 N   0  0  0  0  0  0  0  0  0  0  0  0
   36.6467   38.7719   40.1365 N   0  0  0  0  0  0  0  0  0  0  0  0
  1 17  2  0  0  0  0
  1 16  1  0  0  0  0
  2  3  2  0  0  0  0
  2 26  1  0  0  0  0
  3  4  1  0  0  0  0
  4  5  2  0  0  0  0
  5  6  1  0  0  0  0
  6  7  1  0  0  0  0
  6 26  2  0  0  0  0
  7 27  2  0  0  0  0
  8  9  2  0  0  0  0
  8 13  1  0  0  0  0
  8 27  1  0  0  0  0
  9 10  1  0  0  0  0
 10 11  2  0  0  0  0
 11 12  1  0  0  0  0
 11 14  1  0  0  0  0
 12 13  2  0  0  0  0
 14 15  1  0  0  0  0
 15 16  2  0  0  0  0
 15 19  1  0  0  0  0
 17 18  1  0  0  0  0
 17 28  1  0  0  0  0
 18 19  2  0  0  0  0
 20 21  1  0  0  0  0
 20 28  2  0  0  0  0
 21 22  2  0  0  0  0
 21 29  1  0  0  0  0
 22 23  1  0  0  0  0
 23 24  2  0  0  0  0
 24 25  1  0  0  0  0
 25 29  2  0  0  0  0
M  END
>  <CHROM.1>
-64.68037938,-96.71682683,-87.99819367,70.21552870,-91.80500941,-86.85748460
42.05654768,44.01442126,42.75790810,2.45265158,0.14850511,-3.02218304

>  <Name>
ligand

>  <RI>
0

>  <Rbt.Current_Directory>
/home/itssahil/PROJECTS/Mol_Feturizer/New_Systems/rnas/4JIY

>  <Rbt.Executable>
rbdock ($Id: //depot/dev/client3/rdock/2013.1/src/exe/rbdock.cxx#4 $)

>  <Rbt.Library>
libRbt.so (2013.1, Build901 2013/11/27)

>  <Rbt.Parameter_File>
/export/apps/rDock/src/rDock_2013.1_src/data/scripts/dock_solv.prm

>  <Rbt.Receptor>
prm/pocket_docking_2.prm

>  <SCORE>
10.254

>  <SCORE.INTER>
11.4

>  <SCORE.INTER.CONST>
1

>  <SCORE.INTER.POLAR>
0

>  <SCORE.INTER.ROT>
6

>  <SCORE.INTER.SOLV>
-8.88178e-16

>  <SCORE.INTER.VDW>
0

>  <SCORE.INTER.norm>
0.393103

>  <SCORE.INTRA>
-1.146

>  <SCORE.INTRA.DIHEDRAL>
0.142975

>  <SCORE.INTRA.DIHEDRAL.0>
7.2424

>  <SCORE.INTRA.POLAR>
0

>  <SCORE.INTRA.POLAR.0>
0

>  <SCORE.INTRA.REPUL>
0

>  <SCORE.INTRA.REPUL.0>
0

>  <SCORE.INTRA.SOLV>
-0.0201089

>  <SCORE.INTRA.SOLV.lig_0>
-3.36201

>  <SCORE.INTRA.VDW>
-1.20743

>  <SCORE.INTRA.VDW.0>
-0.910526

>  <SCORE.INTRA.norm>
-0.0395171

>  <SCORE.RESTR>
0

>  <SCORE.RESTR.CAVITY>
0

>  <SCORE.RESTR.norm>
0

>  <SCORE.SYSTEM>
0

>  <SCORE.SYSTEM.CONST>
0

>  <SCORE.SYSTEM.DIHEDRAL>
0

>  <SCORE.SYSTEM.SOLV>
0

>  <SCORE.SYSTEM.norm>
0

>  <SCORE.heavy>
29

>  <SCORE.norm>
0.353586

>  <RMSD>
0.976

$$$$
ligand
 OpenBabel11021811493D
libRbt.so/2013.1/901 2013/11/27
 29 32  0  0  0  0  0  0  0  0999 V2000
   38.1857   42.9230   42.2385 C   0  0  0  0  0  0  0  0  0  0  0  0
   48.8639   47.8755   46.0358 C   0  0  0  0  0  0  0  0  0  0  0  0
   49.9612   47.6662   45.1898 C   0  0  0  0  0  0  0  0  0  0  0  0
   49.7795   47.3385   43.8915 C   0  0  0  0  0  0  0  0  0  0  0  0
   48.4826   47.1482   43.4341 C   0  0  0  0  0  0  0  0  0  0  0  0
   47.4291   47.4160   44.2676 C   0  0  0  0  0  0  0  0  0  0  0  0
   46.0163   47.3786   43.8961 C   0  0  0  0  0  0  0  0  0  0  0  0
   44.1958   46.1877   43.0723 C   0  0  0  0  0  0  0  0  0  0  0  0
   43.1704   45.9593   43.9686 C   0  0  0  0  0  0  0  0  0  0  0  0
   41.8602   45.8892   43.4915 C   0  0  0  0  0  0  0  0  0  0  0  0
   41.5491   46.1379   42.1801 C   0  0  0  0  0  0  0  0  0  0  0  0
   42.6209   46.3773   41.2931 C   0  0  0  0  0  0  0  0  0  0  0  0
   43.9422   46.3423   41.7243 C   0  0  0  0  0  0  0  0  0  0  0  0
   40.1038   46.2059   41.6916 C   0  0  0  0  0  0  0  0  0  0  0  0
   39.4807   44.8365   41.4586 C   0  0  0  0  0  0  0  0  0  0  0  0
   38.7647   44.1686   42.4188 C   0  0  0  0  0  0  0  0  0  0  0  0
   38.3340   42.3450   41.0061 C   0  0  0  0  0  0  0  0  0  0  0  0
   39.0438   42.9965   40.0584 C   0  0  0  0  0  0  0  0  0  0  0  0
   39.6322   44.2270   40.2447 C   0  0  0  0  0  0  0  0  0  0  0  0
   38.4999   40.0293   41.0174 C   0  0  0  0  0  0  0  0  0  0  0  0
   38.0053   38.7193   40.6505 C   0  0  0  0  0  0  0  0  0  0  0  0
   37.9210   38.2243   39.3427 C   0  0  0  0  0  0  0  0  0  0  0  0
   37.4094   36.9557   39.1604 C   0  0  0  0  0  0  0  0  0  0  0  0
   37.0392   36.2281   40.2804 C   0  0  0  0  0  0  0  0  0  0  0  0
   37.1068   36.7725   41.5447 C   0  0  0  0  0  0  0  0  0  0  0  0
   47.6090   47.7507   45.5721 N   0  0  0  0  0  0  0  0  0  0  0  0
   45.5691   46.2002   43.5574 N   0  0  0  0  0  0  0  0  0  0  0  0
   37.7577   41.0314   40.7007 N   0  0  0  0  0  0  0  0  0  0  0  0
   37.6173   37.9801   41.7328 N   0  0  0  0  0  0  0  0  0  0  0  0
  1 17  2  0  0  0  0
  1 16  1  0  0  0  0
  2  3  2  0  0  0  0
  2 26  1  0  0  0  0
  3  4  1  0  0  0  0
  4  5  2  0  0  0  0
  5  6  1  0  0  0  0
  6  7  1  0  0  0  0
  6 26  2  0  0  0  0
  7 27  2  0  0  0  0
  8  9  2  0  0  0  0
  8 13  1  0  0  0  0
  8 27  1  0  0  0  0
  9 10  1  0  0  0  0
 10 11  2  0  0  0  0
 11 12  1  0  0  0  0
 11 14  1  0  0  0  0
 12 13  2  0  0  0  0
 14 15  1  0  0  0  0
 15 16  2  0  0  0  0
 15 19  1  0  0  0  0
 17 18  1  0  0  0  0
 17 28  1  0  0  0  0
 18 19  2  0  0  0  0
 20 21  1  0  0  0  0
 20 28  2  0  0  0  0
 21 22  2  0  0  0  0
 21 29  1  0  0  0  0
 22 23  1  0  0  0  0
 23 24  2  0  0  0  0
 24 25  1  0  0  0  0
 25 29  2  0  0  0  0
M  END
>  <CHROM.1>
64.57390873,-80.14421504,92.43005801,70.31729198,-92.36693655,-86.31195123
41.92559268,43.77088474,42.25791555,2.45545041,0.33714056,-3.10797176

>  <Name>
ligand

>  <RI>
0

>  <Rbt.Current_Directory>
/home/itssahil/PROJECTS/Mol_Feturizer/New_Systems/rnas/4JIY

>  <Rbt.Executable>
rbdock ($Id: //depot/dev/client3/rdock/2013.1/src/exe/rbdock.cxx#4 $)

>  <Rbt.Library>
libRbt.so (2013.1, Build901 2013/11/27)

>  <Rbt.Parameter_File>
/export/apps/rDock/src/rDock_2013.1_src/data/scripts/dock_solv.prm

>  <Rbt.Receptor>
prm/pocket_docking_2.prm

>  <SCORE>
10.2821

>  <SCORE.INTER>
11.4

>  <SCORE.INTER.CONST>
1

>  <SCORE.INTER.POLAR>
0

>  <SCORE.INTER.ROT>
6

>  <SCORE.INTER.SOLV>
-1.77636e-15

>  <SCORE.INTER.VDW>
0

>  <SCORE.INTER.norm>
0.393103

>  <SCORE.INTRA>
-1.11785

>  <SCORE.INTRA.DIHEDRAL>
0.115263

>  <SCORE.INTRA.DIHEDRAL.0>
7.2424

>  <SCORE.INTRA.POLAR>
0

>  <SCORE.INTRA.POLAR.0>
0

>  <SCORE.INTRA.REPUL>
0

>  <SCORE.INTRA.REPUL.0>
0

>  <SCORE.INTRA.SOLV>
-0.0199714

>  <SCORE.INTRA.SOLV.lig_0>
-3.36201

>  <SCORE.INTRA.VDW>
-1.1655

>  <SCORE.INTRA.VDW.0>
-0.910526

>  <SCORE.INTRA.norm>
-0.0385466

>  <SCORE.RESTR>
0

>  <SCORE.RESTR.CAVITY>
0

>  <SCORE.RESTR.norm>
0

>  <SCORE.SYSTEM>
0

>  <SCORE.SYSTEM.CONST>
0

>  <SCORE.SYSTEM.DIHEDRAL>
0

>  <SCORE.SYSTEM.SOLV>
0

>  <SCORE.SYSTEM.norm>
0

>  <SCORE.heavy>
29

>  <SCORE.norm>
0.354557

>  <RMSD>
0.979

$$$$
ligand
 OpenBabel11021811493D
libRbt.so/2013.1/901 2013/11/27
 29 32  0  0  0  0  0  0  0  0999 V2000
   43.3323   45.9806   44.1524 C   0  0  0  0  0  0  0  0  0  0  0  0
   36.0504   36.9692   42.9074 C   0  0  0  0  0  0  0  0  0  0  0  0
   35.8932   36.1864   41.7558 C   0  0  0  0  0  0  0  0  0  0  0  0
   36.1187   36.7085   40.5299 C   0  0  0  0  0  0  0  0  0  0  0  0
   36.4431   38.0550   40.4356 C   0  0  0  0  0  0  0  0  0  0  0  0
   36.6461   38.7800   41.5799 C   0  0  0  0  0  0  0  0  0  0  0  0
   37.1057   40.1658   41.6417 C   0  0  0  0  0  0  0  0  0  0  0  0
   38.8262   41.7144   41.4120 C   0  0  0  0  0  0  0  0  0  0  0  0
   38.7116   42.6103   40.3675 C   0  0  0  0  0  0  0  0  0  0  0  0
   39.2396   43.8939   40.5183 C   0  0  0  0  0  0  0  0  0  0  0  0
   39.7787   44.3244   41.7026 C   0  0  0  0  0  0  0  0  0  0  0  0
   39.8715   43.3855   42.7526 C   0  0  0  0  0  0  0  0  0  0  0  0
   39.4534   42.0696   42.5894 C   0  0  0  0  0  0  0  0  0  0  0  0
   40.2202   45.7715   41.9104 C   0  0  0  0  0  0  0  0  0  0  0  0
   41.6640   45.9009   42.3755 C   0  0  0  0  0  0  0  0  0  0  0  0
   42.0289   45.8658   43.6971 C   0  0  0  0  0  0  0  0  0  0  0  0
   44.3088   46.1191   43.2028 C   0  0  0  0  0  0  0  0  0  0  0  0
   43.9538   46.1603   41.8995 C   0  0  0  0  0  0  0  0  0  0  0  0
   42.6564   46.0624   41.4497 C   0  0  0  0  0  0  0  0  0  0  0  0
   46.1075   47.4392   43.8450 C   0  0  0  0  0  0  0  0  0  0  0  0
   47.5168   47.6157   44.1246 C   0  0  0  0  0  0  0  0  0  0  0  0
   48.1979   47.0704   45.2205 C   0  0  0  0  0  0  0  0  0  0  0  0
   49.5433   47.3475   45.3521 C   0  0  0  0  0  0  0  0  0  0  0  0
   50.1546   48.1202   44.3774 C   0  0  0  0  0  0  0  0  0  0  0  0
   49.4339   48.6649   43.3366 C   0  0  0  0  0  0  0  0  0  0  0  0
   36.4253   38.2561   42.8139 N   0  0  0  0  0  0  0  0  0  0  0  0
   38.3315   40.3559   41.2358 N   0  0  0  0  0  0  0  0  0  0  0  0
   45.7235   46.2425   43.5697 N   0  0  0  0  0  0  0  0  0  0  0  0
   48.1474   48.3866   43.1884 N   0  0  0  0  0  0  0  0  0  0  0  0
  1 17  2  0  0  0  0
  1 16  1  0  0  0  0
  2  3  2  0  0  0  0
  2 26  1  0  0  0  0
  3  4  1  0  0  0  0
  4  5  2  0  0  0  0
  5  6  1  0  0  0  0
  6  7  1  0  0  0  0
  6 26  2  0  0  0  0
  7 27  2  0  0  0  0
  8  9  2  0  0  0  0
  8 13  1  0  0  0  0
  8 27  1  0  0  0  0
  9 10  1  0  0  0  0
 10 11  2  0  0  0  0
 11 12  1  0  0  0  0
 11 14  1  0  0  0  0
 12 13  2  0  0  0  0
 14 15  1  0  0  0  0
 15 16  2  0  0  0  0
 15 19  1  0  0  0  0
 17 18  1  0  0  0  0
 17 28  1  0  0  0  0
 18 19  2  0  0  0  0
 20 21  1  0  0  0  0
 20 28  2  0  0  0  0
 21 22  2  0  0  0  0
 21 29  1  0  0  0  0
 22 23  1  0  0  0  0
 23 24  2  0  0  0  0
 24 25  1  0  0  0  0
 25 29  2  0  0  0  0
M  END
>  <CHROM.1>
-66.90416129,-125.64643641,-87.62309764,-65.21675608,-93.55214849,-85.48960176
41.78746285,43.66761117,42.55067623,0.57806483,-0.42984173,-0.30512371

>  <Name>
ligand

>  <RI>
0

>  <Rbt.Current_Directory>
/home/itssahil/PROJECTS/Mol_Feturizer/New_Systems/rnas/4JIY

>  <Rbt.Executable>
rbdock ($Id: //depot/dev/client3/rdock/2013.1/src/exe/rbdock.cxx#4 $)

>  <Rbt.Library>
libRbt.so (2013.1, Build901 2013/11/27)

>  <Rbt.Parameter_File>
/export/apps/rDock/src/rDock_2013.1_src/data/scripts/dock_solv.prm

>  <Rbt.Receptor>
prm/pocket_docking_2.prm

>  <SCORE>
10.2365

>  <SCORE.INTER>
11.4

>  <SCORE.INTER.CONST>
1

>  <SCORE.INTER.POLAR>
0

>  <SCORE.INTER.ROT>
6

>  <SCORE.INTER.SOLV>
-8.88178e-16

>  <SCORE.INTER.VDW>
0

>  <SCORE.INTER.norm>
0.393103

>  <SCORE.INTRA>
-1.16354

>  <SCORE.INTRA.DIHEDRAL>
-0.0281273

>  <SCORE.INTRA.DIHEDRAL.0>
7.2424

>  <SCORE.INTRA.POLAR>
0

>  <SCORE.INTRA.POLAR.0>
0

>  <SCORE.INTRA.REPUL>
0

>  <SCORE.INTRA.REPUL.0>
0

>  <SCORE.INTRA.SOLV>
-0.0200404

>  <SCORE.INTRA.SOLV.lig_0>
-3.36201

>  <SCORE.INTRA.VDW>
-1.13945

>  <SCORE.INTRA.VDW.0>
-0.910526

>  <SCORE.INTRA.norm>
-0.0401219

>  <SCORE.RESTR>
0

>  <SCORE.RESTR.CAVITY>
0

>  <SCORE.RESTR.norm>
0

>  <SCORE.SYSTEM>
0

>  <SCORE.SYSTEM.CONST>
0

>  <SCORE.SYSTEM.DIHEDRAL>
0

>  <SCORE.SYSTEM.SOLV>
0

>  <SCORE.SYSTEM.norm>
0

>  <SCORE.heavy>
29

>  <SCORE.norm>
0.352982

>  <RMSD>
0.996

$$$$
ligand
 OpenBabel11021811493D
libRbt.so/2013.1/901 2013/11/27
 29 32  0  0  0  0  0  0  0  0999 V2000
   38.6917   43.0274   42.8146 C   0  0  0  0  0  0  0  0  0  0  0  0
   49.4669   49.0003   44.9355 C   0  0  0  0  0  0  0  0  0  0  0  0
   50.3050   47.9392   45.3030 C   0  0  0  0  0  0  0  0  0  0  0  0
   49.9172   46.6577   45.1200 C   0  0  0  0  0  0  0  0  0  0  0  0
   48.6433   46.4183   44.6229 C   0  0  0  0  0  0  0  0  0  0  0  0
   47.8693   47.4737   44.2188 C   0  0  0  0  0  0  0  0  0  0  0  0
   46.5643   47.3752   43.5688 C   0  0  0  0  0  0  0  0  0  0  0  0
   44.3588   46.6369   43.6126 C   0  0  0  0  0  0  0  0  0  0  0  0
   43.3908   47.6196   43.6775 C   0  0  0  0  0  0  0  0  0  0  0  0
   42.1570   47.3930   43.0649 C   0  0  0  0  0  0  0  0  0  0  0  0
   41.9107   46.2705   42.3181 C   0  0  0  0  0  0  0  0  0  0  0  0
   42.9256   45.2908   42.2651 C   0  0  0  0  0  0  0  0  0  0  0  0
   44.1207   45.4449   42.9585 C   0  0  0  0  0  0  0  0  0  0  0  0
   40.6154   46.0936   41.5287 C   0  0  0  0  0  0  0  0  0  0  0  0
   40.0289   44.6929   41.6378 C   0  0  0  0  0  0  0  0  0  0  0  0
   39.2401   44.2931   42.6861 C   0  0  0  0  0  0  0  0  0  0  0  0
   38.9513   42.1362   41.8081 C   0  0  0  0  0  0  0  0  0  0  0  0
   39.7330   42.5234   40.7759 C   0  0  0  0  0  0  0  0  0  0  0  0
   40.2904   43.7766   40.6580 C   0  0  0  0  0  0  0  0  0  0  0  0
   37.2483   40.6372   41.3150 C   0  0  0  0  0  0  0  0  0  0  0  0
   36.6492   39.3224   41.4036 C   0  0  0  0  0  0  0  0  0  0  0  0
   36.1760   38.7274   42.5802 C   0  0  0  0  0  0  0  0  0  0  0  0
   35.6449   37.4565   42.4969 C   0  0  0  0  0  0  0  0  0  0  0  0
   35.5768   36.8520   41.2516 C   0  0  0  0  0  0  0  0  0  0  0  0
   36.0894   37.4634   40.1279 C   0  0  0  0  0  0  0  0  0  0  0  0
   48.2590   48.7631   44.3968 N   0  0  0  0  0  0  0  0  0  0  0  0
   45.6245   46.8446   44.3027 N   0  0  0  0  0  0  0  0  0  0  0  0
   38.4171   40.7705   41.8361 N   0  0  0  0  0  0  0  0  0  0  0  0
   36.5804   38.6918   40.1928 N   0  0  0  0  0  0  0  0  0  0  0  0
  1 17  2  0  0  0  0
  1 16  1  0  0  0  0
  2  3  2  0  0  0  0
  2 26  1  0  0  0  0
  3  4  1  0  0  0  0
  4  5  2  0  0  0  0
  5  6  1  0  0  0  0
  6  7  1  0  0  0  0
  6 26  2  0  0  0  0
  7 27  2  0  0  0  0
  8  9  2  0  0  0  0
  8 13  1  0  0  0  0
  8 27  1  0  0  0  0
  9 10  1  0  0  0  0
 10 11  2  0  0  0  0
 11 12  1  0  0  0  0
 11 14  1  0  0  0  0
 12 13  2  0  0  0  0
 14 15  1  0  0  0  0
 15 16  2  0  0  0  0
 15 19  1  0  0  0  0
 17 18  1  0  0  0  0
 17 28  1  0  0  0  0
 18 19  2  0  0  0  0
 20 21  1  0  0  0  0
 20 28  2  0  0  0  0
 21 22  2  0  0  0  0
 21 29  1  0  0  0  0
 22 23  1  0  0  0  0
 23 24  2  0  0  0  0
 24 25  1  0  0  0  0
 25 29  2  0  0  0  0
M  END
>  <CHROM.1>
64.44935012,-137.46349948,83.33781351,70.32217782,-92.84017776,88.03725780
41.91147724,43.99300430,42.66421817,2.53906713,0.33998402,3.03707377

>  <Name>
ligand

>  <RI>
0

>  <Rbt.Current_Directory>
/home/itssahil/PROJECTS/Mol_Feturizer/New_Systems/rnas/4JIY

>  <Rbt.Executable>
rbdock ($Id: //depot/dev/client3/rdock/2013.1/src/exe/rbdock.cxx#4 $)

>  <Rbt.Library>
libRbt.so (2013.1, Build901 2013/11/27)

>  <Rbt.Parameter_File>
/export/apps/rDock/src/rDock_2013.1_src/data/scripts/dock_solv.prm

>  <Rbt.Receptor>
prm/pocket_docking_2.prm

>  <SCORE>
10.2158

>  <SCORE.INTER>
11.4

>  <SCORE.INTER.CONST>
1

>  <SCORE.INTER.POLAR>
0

>  <SCORE.INTER.ROT>
6

>  <SCORE.INTER.SOLV>
8.88178e-16

>  <SCORE.INTER.VDW>
0

>  <SCORE.INTER.norm>
0.393103

>  <SCORE.INTRA>
-1.18415

>  <SCORE.INTRA.DIHEDRAL>
-0.131321

>  <SCORE.INTRA.DIHEDRAL.0>
7.2424

>  <SCORE.INTRA.POLAR>
0

>  <SCORE.INTRA.POLAR.0>
0

>  <SCORE.INTRA.REPUL>
0

>  <SCORE.INTRA.REPUL.0>
0

>  <SCORE.INTRA.SOLV>
-0.0202617

>  <SCORE.INTRA.SOLV.lig_0>
-3.36201

>  <SCORE.INTRA.VDW>
-1.10836

>  <SCORE.INTRA.VDW.0>
-0.910526

>  <SCORE.INTRA.norm>
-0.0408328

>  <SCORE.RESTR>
0

>  <SCORE.RESTR.CAVITY>
0

>  <SCORE.RESTR.norm>
0

>  <SCORE.SYSTEM>
0

>  <SCORE.SYSTEM.CONST>
0

>  <SCORE.SYSTEM.DIHEDRAL>
0

>  <SCORE.SYSTEM.SOLV>
0

>  <SCORE.SYSTEM.norm>
0

>  <SCORE.heavy>
29

>  <SCORE.norm>
0.352271

>  <RMSD>
1.003

$$$$
ligand
 OpenBabel11021811493D
libRbt.so/2013.1/901 2013/11/27
 29 32  0  0  0  0  0  0  0  0999 V2000
   44.0216   46.2588   44.8209 C   0  0  0  0  0  0  0  0  0  0  0  0
   35.4282   38.2879   40.9200 C   0  0  0  0  0  0  0  0  0  0  0  0
   36.2268   37.1412   40.8156 C   0  0  0  0  0  0  0  0  0  0  0  0
   37.5554   37.2009   41.0551 C   0  0  0  0  0  0  0  0  0  0  0  0
   38.1198   38.4369   41.3402 C   0  0  0  0  0  0  0  0  0  0  0  0
   37.3068   39.5287   41.4923 C   0  0  0  0  0  0  0  0  0  0  0  0
   37.7377   40.8620   41.9073 C   0  0  0  0  0  0  0  0  0  0  0  0
   39.1591   42.6819   41.6272 C   0  0  0  0  0  0  0  0  0  0  0  0
   38.6393   43.8531   41.1123 C   0  0  0  0  0  0  0  0  0  0  0  0
   39.1748   45.0716   41.5336 C   0  0  0  0  0  0  0  0  0  0  0  0
   40.1300   45.1467   42.5135 C   0  0  0  0  0  0  0  0  0  0  0  0
   40.6322   43.9305   43.0247 C   0  0  0  0  0  0  0  0  0  0  0  0
   40.1933   42.7031   42.5412 C   0  0  0  0  0  0  0  0  0  0  0  0
   40.6068   46.4841   43.0760 C   0  0  0  0  0  0  0  0  0  0  0  0
   42.1062   46.5291   43.3358 C   0  0  0  0  0  0  0  0  0  0  0  0
   42.6628   46.2275   44.5525 C   0  0  0  0  0  0  0  0  0  0  0  0
   44.8488   46.5983   43.7840 C   0  0  0  0  0  0  0  0  0  0  0  0
   44.3049   46.9023   42.5848 C   0  0  0  0  0  0  0  0  0  0  0  0
   42.9532   46.8863   42.3243 C   0  0  0  0  0  0  0  0  0  0  0  0
   46.7527   47.7818   44.3877 C   0  0  0  0  0  0  0  0  0  0  0  0
   48.1916   47.9095   44.4818 C   0  0  0  0  0  0  0  0  0  0  0  0
   49.0680   47.9990   43.3927 C   0  0  0  0  0  0  0  0  0  0  0  0
   50.4192   48.1010   43.6534 C   0  0  0  0  0  0  0  0  0  0  0  0
   50.8331   48.1437   44.9754 C   0  0  0  0  0  0  0  0  0  0  0  0
   49.9353   48.0153   46.0131 C   0  0  0  0  0  0  0  0  0  0  0  0
   35.9699   39.4705   41.2572 N   0  0  0  0  0  0  0  0  0  0  0  0
   38.6449   41.4077   41.1441 N   0  0  0  0  0  0  0  0  0  0  0  0
   46.3046   46.6572   43.9520 N   0  0  0  0  0  0  0  0  0  0  0  0
   48.6347   47.9399   45.7745 N   0  0  0  0  0  0  0  0  0  0  0  0
  1 17  2  0  0  0  0
  1 16  1  0  0  0  0
  2  3  2  0  0  0  0
  2 26  1  0  0  0  0
  3  4  1  0  0  0  0
  4  5  2  0  0  0  0
  5  6  1  0  0  0  0
  6  7  1  0  0  0  0
  6 26  2  0  0  0  0
  7 27  2  0  0  0  0
  8  9  2  0  0  0  0
  8 13  1  0  0  0  0
  8 27  1  0  0  0  0
  9 10  1  0  0  0  0
 10 11  2  0  0  0  0
 11 12  1  0  0  0  0
 11 14  1  0  0  0  0
 12 13  2  0  0  0  0
 14 15  1  0  0  0  0
 15 16  2  0  0  0  0
 15 19  1  0  0  0  0
 17 18  1  0  0  0  0
 17 28  1  0  0  0  0
 18 19  2  0  0  0  0
 20 21  1  0  0  0  0
 20 28  2  0  0  0  0
 21 22  2  0  0  0  0
 21 29  1  0  0  0  0
 22 23  1  0  0  0  0
 23 24  2  0  0  0  0
 24 25  1  0  0  0  0
 25 29  2  0  0  0  0
M  END
>  <CHROM.1>
58.06888234,-140.41368131,-93.35441342,70.29973544,-97.84544837,-86.38558046
42.28757308,44.28467251,42.88173888,0.64096711,-0.22347697,0.09009229

>  <Name>
ligand

>  <RI>
0

>  <Rbt.Current_Directory>
/home/itssahil/PROJECTS/Mol_Feturizer/New_Systems/rnas/4JIY

>  <Rbt.Executable>
rbdock ($Id: //depot/dev/client3/rdock/2013.1/src/exe/rbdock.cxx#4 $)

>  <Rbt.Library>
libRbt.so (2013.1, Build901 2013/11/27)

>  <Rbt.Parameter_File>
/export/apps/rDock/src/rDock_2013.1_src/data/scripts/dock_solv.prm

>  <Rbt.Receptor>
prm/pocket_docking_2.prm

>  <SCORE>
10.2584

>  <SCORE.INTER>
11.4

>  <SCORE.INTER.CONST>
1

>  <SCORE.INTER.POLAR>
0

>  <SCORE.INTER.ROT>
6

>  <SCORE.INTER.SOLV>
4.44089e-16

>  <SCORE.INTER.VDW>
0

>  <SCORE.INTER.norm>
0.393103

>  <SCORE.INTRA>
-1.1416

>  <SCORE.INTRA.DIHEDRAL>
-0.0960457

>  <SCORE.INTRA.DIHEDRAL.0>
7.2424

>  <SCORE.INTRA.POLAR>
0

>  <SCORE.INTRA.POLAR.0>
0

>  <SCORE.INTRA.REPUL>
0

>  <SCORE.INTRA.REPUL.0>
0

>  <SCORE.INTRA.SOLV>
-0.020101

>  <SCORE.INTRA.SOLV.lig_0>
-3.36201

>  <SCORE.INTRA.VDW>
-1.08353

>  <SCORE.INTRA.VDW.0>
-0.910526

>  <SCORE.INTRA.norm>
-0.0393655

>  <SCORE.RESTR>
0

>  <SCORE.RESTR.CAVITY>
0

>  <SCORE.RESTR.norm>
0

>  <SCORE.SYSTEM>
0

>  <SCORE.SYSTEM.CONST>
0

>  <SCORE.SYSTEM.DIHEDRAL>
0

>  <SCORE.SYSTEM.SOLV>
0

>  <SCORE.SYSTEM.norm>
0

>  <SCORE.heavy>
29

>  <SCORE.norm>
0.353738

>  <RMSD>
1.012

$$$$
ligand
 OpenBabel11021811493D
libRbt.so/2013.1/901 2013/11/27
 29 32  0  0  0  0  0  0  0  0999 V2000
   43.5790   47.0832   41.7861 C   0  0  0  0  0  0  0  0  0  0  0  0
   36.3729   37.4921   39.9031 C   0  0  0  0  0  0  0  0  0  0  0  0
   36.2789   36.6643   41.0299 C   0  0  0  0  0  0  0  0  0  0  0  0
   36.5562   37.1425   42.2630 C   0  0  0  0  0  0  0  0  0  0  0  0
   37.0011   38.4525   42.3782 C   0  0  0  0  0  0  0  0  0  0  0  0
   37.0277   39.2542   41.2679 C   0  0  0  0  0  0  0  0  0  0  0  0
   37.3551   40.6782   41.2514 C   0  0  0  0  0  0  0  0  0  0  0  0
   38.8731   42.3866   41.6852 C   0  0  0  0  0  0  0  0  0  0  0  0
   38.6882   43.0246   42.8959 C   0  0  0  0  0  0  0  0  0  0  0  0
   38.9091   44.4009   42.9741 C   0  0  0  0  0  0  0  0  0  0  0  0
   39.3982   45.1206   41.9153 C   0  0  0  0  0  0  0  0  0  0  0  0
   39.5848   44.4350   40.6955 C   0  0  0  0  0  0  0  0  0  0  0  0
   39.2665   43.0881   40.5633 C   0  0  0  0  0  0  0  0  0  0  0  0
   39.7779   46.5940   42.0466 C   0  0  0  0  0  0  0  0  0  0  0  0
   41.2390   46.8097   42.4158 C   0  0  0  0  0  0  0  0  0  0  0  0
   42.2414   46.8877   41.4830 C   0  0  0  0  0  0  0  0  0  0  0  0
   43.8987   47.2240   43.1099 C   0  0  0  0  0  0  0  0  0  0  0  0
   42.9154   47.1420   44.0334 C   0  0  0  0  0  0  0  0  0  0  0  0
   41.5889   46.9314   43.7315 C   0  0  0  0  0  0  0  0  0  0  0  0
   45.9648   46.3675   43.7326 C   0  0  0  0  0  0  0  0  0  0  0  0
   47.3063   46.5378   44.2491 C   0  0  0  0  0  0  0  0  0  0  0  0
   48.3469   47.2062   43.5913 C   0  0  0  0  0  0  0  0  0  0  0  0
   49.5762   47.2671   44.2153 C   0  0  0  0  0  0  0  0  0  0  0  0
   49.7061   46.6949   45.4709 C   0  0  0  0  0  0  0  0  0  0  0  0
   48.6625   46.0158   46.0617 C   0  0  0  0  0  0  0  0  0  0  0  0
   36.7444   38.7774   40.0275 N   0  0  0  0  0  0  0  0  0  0  0  0
   38.5843   40.9625   41.5852 N   0  0  0  0  0  0  0  0  0  0  0  0
   45.2820   47.4419   43.5460 N   0  0  0  0  0  0  0  0  0  0  0  0
   47.4724   45.9711   45.4819 N   0  0  0  0  0  0  0  0  0  0  0  0
  1 17  2  0  0  0  0
  1 16  1  0  0  0  0
  2  3  2  0  0  0  0
  2 26  1  0  0  0  0
  3  4  1  0  0  0  0
  4  5  2  0  0  0  0
  5  6  1  0  0  0  0
  6  7  1  0  0  0  0
  6 26  2  0  0  0  0
  7 27  2  0  0  0  0
  8  9  2  0  0  0  0
  8 13  1  0  0  0  0
  8 27  1  0  0  0  0
  9 10  1  0  0  0  0
 10 11  2  0  0  0  0
 11 12  1  0  0  0  0
 11 14  1  0  0  0  0
 12 13  2  0  0  0  0
 14 15  1  0  0  0  0
 15 16  2  0  0  0  0
 15 19  1  0  0  0  0
 17 18  1  0  0  0  0
 17 28  1  0  0  0  0
 18 19  2  0  0  0  0
 20 21  1  0  0  0  0
 20 28  2  0  0  0  0
 21 22  2  0  0  0  0
 21 29  1  0  0  0  0
 22 23  1  0  0  0  0
 23 24  2  0  0  0  0
 24 25  1  0  0  0  0
 25 29  2  0  0  0  0
M  END
>  <CHROM.1>
65.37148285,91.46971607,87.19060223,-63.23665329,89.72352440,-86.94878781
41.65939757,43.93120126,42.59732190,0.60619888,-0.35611098,-0.08202778

>  <Name>
ligand

>  <RI>
0

>  <Rbt.Current_Directory>
/home/itssahil/PROJECTS/Mol_Feturizer/New_Systems/rnas/4JIY

>  <Rbt.Executable>
rbdock ($Id: //depot/dev/client3/rdock/2013.1/src/exe/rbdock.cxx#4 $)

>  <Rbt.Library>
libRbt.so (2013.1, Build901 2013/11/27)

>  <Rbt.Parameter_File>
/export/apps/rDock/src/rDock_2013.1_src/data/scripts/dock_solv.prm

>  <Rbt.Receptor>
prm/pocket_docking_2.prm

>  <SCORE>
10.2228

>  <SCORE.INTER>
11.4

>  <SCORE.INTER.CONST>
1

>  <SCORE.INTER.POLAR>
0

>  <SCORE.INTER.ROT>
6

>  <SCORE.INTER.SOLV>
-8.88178e-16

>  <SCORE.INTER.VDW>
0

>  <SCORE.INTER.norm>
0.393103

>  <SCORE.INTRA>
-1.17723

>  <SCORE.INTRA.DIHEDRAL>
-0.0294994

>  <SCORE.INTRA.DIHEDRAL.0>
7.2424

>  <SCORE.INTRA.POLAR>
0

>  <SCORE.INTRA.POLAR.0>
0

>  <SCORE.INTRA.REPUL>
0

>  <SCORE.INTRA.REPUL.0>
0

>  <SCORE.INTRA.SOLV>
-0.0189803

>  <SCORE.INTRA.SOLV.lig_0>
-3.36201

>  <SCORE.INTRA.VDW>
-1.15299

>  <SCORE.INTRA.VDW.0>
-0.910526

>  <SCORE.INTRA.norm>
-0.0405942

>  <SCORE.RESTR>
0

>  <SCORE.RESTR.CAVITY>
0

>  <SCORE.RESTR.norm>
0

>  <SCORE.SYSTEM>
0

>  <SCORE.SYSTEM.CONST>
0

>  <SCORE.SYSTEM.DIHEDRAL>
0

>  <SCORE.SYSTEM.SOLV>
0

>  <SCORE.SYSTEM.norm>
0

>  <SCORE.heavy>
29

>  <SCORE.norm>
0.352509

>  <RMSD>
1.017

$$$$
ligand
 OpenBabel11021811493D
libRbt.so/2013.1/901 2013/11/27
 29 32  0  0  0  0  0  0  0  0999 V2000
   43.0138   46.2343   43.7396 C   0  0  0  0  0  0  0  0  0  0  0  0
   36.7846   37.0302   39.0771 C   0  0  0  0  0  0  0  0  0  0  0  0
   36.1632   36.2924   40.0935 C   0  0  0  0  0  0  0  0  0  0  0  0
   36.2160   36.7069   41.3786 C   0  0  0  0  0  0  0  0  0  0  0  0
   36.9569   37.8428   41.6757 C   0  0  0  0  0  0  0  0  0  0  0  0
   37.5046   38.5748   40.6557 C   0  0  0  0  0  0  0  0  0  0  0  0
   38.2044   39.8494   40.8005 C   0  0  0  0  0  0  0  0  0  0  0  0
   38.1334   42.1297   41.2546 C   0  0  0  0  0  0  0  0  0  0  0  0
   38.0982   42.9266   40.1274 C   0  0  0  0  0  0  0  0  0  0  0  0
   38.7897   44.1394   40.1365 C   0  0  0  0  0  0  0  0  0  0  0  0
   39.4187   44.6099   41.2595 C   0  0  0  0  0  0  0  0  0  0  0  0
   39.4271   43.7740   42.3970 C   0  0  0  0  0  0  0  0  0  0  0  0
   38.8400   42.5139   42.3766 C   0  0  0  0  0  0  0  0  0  0  0  0
   40.0471   46.0009   41.3106 C   0  0  0  0  0  0  0  0  0  0  0  0
   41.4620   46.0034   41.8726 C   0  0  0  0  0  0  0  0  0  0  0  0
   41.7390   46.2256   43.1973 C   0  0  0  0  0  0  0  0  0  0  0  0
   44.0518   45.9842   42.8824 C   0  0  0  0  0  0  0  0  0  0  0  0
   43.7846   45.7707   41.5750 C   0  0  0  0  0  0  0  0  0  0  0  0
   42.5183   45.7785   41.0350 C   0  0  0  0  0  0  0  0  0  0  0  0
   45.9958   47.1194   43.4504 C   0  0  0  0  0  0  0  0  0  0  0  0
   47.3951   47.1342   43.8206 C   0  0  0  0  0  0  0  0  0  0  0  0
   47.9030   46.7751   45.0758 C   0  0  0  0  0  0  0  0  0  0  0  0
   49.2662   46.8598   45.2730 C   0  0  0  0  0  0  0  0  0  0  0  0
   50.0611   47.2618   44.2113 C   0  0  0  0  0  0  0  0  0  0  0  0
   49.5110   47.6402   43.0057 C   0  0  0  0  0  0  0  0  0  0  0  0
   37.4485   38.1631   39.3621 N   0  0  0  0  0  0  0  0  0  0  0  0
   37.4645   40.8362   41.2272 N   0  0  0  0  0  0  0  0  0  0  0  0
   45.4425   45.9623   43.3478 N   0  0  0  0  0  0  0  0  0  0  0  0
   48.2065   47.5409   42.7985 N   0  0  0  0  0  0  0  0  0  0  0  0
  1 17  2  0  0  0  0
  1 16  1  0  0  0  0
  2  3  2  0  0  0  0
  2 26  1  0  0  0  0
  3  4  1  0  0  0  0
  4  5  2  0  0  0  0
  5  6  1  0  0  0  0
  6  7  1  0  0  0  0
  6 26  2  0  0  0  0
  7 27  2  0  0  0  0
  8  9  2  0  0  0  0
  8 13  1  0  0  0  0
  8 27  1  0  0  0  0
  9 10  1  0  0  0  0
 10 11  2  0  0  0  0
 11 12  1  0  0  0  0
 11 14  1  0  0  0  0
 12 13  2  0  0  0  0
 14 15  1  0  0  0  0
 15 16  2  0  0  0  0
 15 19  1  0  0  0  0
 17 18  1  0  0  0  0
 17 28  1  0  0  0  0
 18 19  2  0  0  0  0
 20 21  1  0  0  0  0
 20 28  2  0  0  0  0
 21 22  2  0  0  0  0
 21 29  1  0  0  0  0
 22 23  1  0  0  0  0
 23 24  2  0  0  0  0
 24 25  1  0  0  0  0
 25 29  2  0  0  0  0
M  END
>  <CHROM.1>
-64.98471241,-131.86860783,-93.50884959,-69.16571264,88.65620636,-82.00240097
41.72101861,43.57830274,42.00375280,0.65267603,-0.29338627,0.00488918

>  <Name>
ligand

>  <RI>
0

>  <Rbt.Current_Directory>
/home/itssahil/PROJECTS/Mol_Feturizer/New_Systems/rnas/4JIY

>  <Rbt.Executable>
rbdock ($Id: //depot/dev/client3/rdock/2013.1/src/exe/rbdock.cxx#4 $)

>  <Rbt.Library>
libRbt.so (2013.1, Build901 2013/11/27)

>  <Rbt.Parameter_File>
/export/apps/rDock/src/rDock_2013.1_src/data/scripts/dock_solv.prm

>  <Rbt.Receptor>
prm/pocket_docking_2.prm

>  <SCORE>
10.299

>  <SCORE.INTER>
11.4

>  <SCORE.INTER.CONST>
1

>  <SCORE.INTER.POLAR>
0

>  <SCORE.INTER.ROT>
6

>  <SCORE.INTER.SOLV>
0

>  <SCORE.INTER.VDW>
0

>  <SCORE.INTER.norm>
0.393103

>  <SCORE.INTRA>
-1.10096

>  <SCORE.INTRA.DIHEDRAL>
0.0656561

>  <SCORE.INTRA.DIHEDRAL.0>
7.2424

>  <SCORE.INTRA.POLAR>
0

>  <SCORE.INTRA.POLAR.0>
0

>  <SCORE.INTRA.REPUL>
0

>  <SCORE.INTRA.REPUL.0>
0

>  <SCORE.INTRA.SOLV>
-0.0190208

>  <SCORE.INTRA.SOLV.lig_0>
-3.36201

>  <SCORE.INTRA.VDW>
-1.12427

>  <SCORE.INTRA.VDW.0>
-0.910526

>  <SCORE.INTRA.norm>
-0.037964

>  <SCORE.RESTR>
0

>  <SCORE.RESTR.CAVITY>
0

>  <SCORE.RESTR.norm>
0

>  <SCORE.SYSTEM>
0

>  <SCORE.SYSTEM.CONST>
0

>  <SCORE.SYSTEM.DIHEDRAL>
0

>  <SCORE.SYSTEM.SOLV>
0

>  <SCORE.SYSTEM.norm>
0

>  <SCORE.heavy>
29

>  <SCORE.norm>
0.355139

>  <RMSD>
1.039

$$$$
ligand
 OpenBabel11021811493D
libRbt.so/2013.1/901 2013/11/27
 29 32  0  0  0  0  0  0  0  0999 V2000
   39.5645   41.8626   40.6712 C   0  0  0  0  0  0  0  0  0  0  0  0
   49.4432   47.2015   44.0056 C   0  0  0  0  0  0  0  0  0  0  0  0
   49.7442   47.6014   45.3145 C   0  0  0  0  0  0  0  0  0  0  0  0
   48.7600   47.9381   46.1772 C   0  0  0  0  0  0  0  0  0  0  0  0
   47.4508   47.9434   45.7154 C   0  0  0  0  0  0  0  0  0  0  0  0
   47.1818   47.4928   44.4501 C   0  0  0  0  0  0  0  0  0  0  0  0
   45.8516   47.3268   43.8684 C   0  0  0  0  0  0  0  0  0  0  0  0
   43.8503   46.1463   43.7578 C   0  0  0  0  0  0  0  0  0  0  0  0
   42.7229   46.7984   44.2168 C   0  0  0  0  0  0  0  0  0  0  0  0
   41.4916   46.5177   43.6217 C   0  0  0  0  0  0  0  0  0  0  0  0
   41.3808   45.6920   42.5335 C   0  0  0  0  0  0  0  0  0  0  0  0
   42.5546   45.0493   42.0844 C   0  0  0  0  0  0  0  0  0  0  0  0
   43.7728   45.2276   42.7304 C   0  0  0  0  0  0  0  0  0  0  0  0
   40.0578   45.5028   41.7945 C   0  0  0  0  0  0  0  0  0  0  0  0
   39.5973   44.0526   41.7436 C   0  0  0  0  0  0  0  0  0  0  0  0
   39.9658   43.1865   40.7461 C   0  0  0  0  0  0  0  0  0  0  0  0
   38.7612   41.4023   41.6798 C   0  0  0  0  0  0  0  0  0  0  0  0
   38.3902   42.2534   42.6619 C   0  0  0  0  0  0  0  0  0  0  0  0
   38.7769   43.5731   42.7260 C   0  0  0  0  0  0  0  0  0  0  0  0
   37.1917   39.8098   41.0546 C   0  0  0  0  0  0  0  0  0  0  0  0
   36.6381   38.4745   41.1310 C   0  0  0  0  0  0  0  0  0  0  0  0
   36.0499   37.9073   42.2688 C   0  0  0  0  0  0  0  0  0  0  0  0
   35.5828   36.6118   42.1809 C   0  0  0  0  0  0  0  0  0  0  0  0
   35.6894   35.9548   40.9652 C   0  0  0  0  0  0  0  0  0  0  0  0
   36.3097   36.5422   39.8838 C   0  0  0  0  0  0  0  0  0  0  0  0
   48.1690   47.1487   43.5823 N   0  0  0  0  0  0  0  0  0  0  0  0
   45.1260   46.3907   44.4167 N   0  0  0  0  0  0  0  0  0  0  0  0
   38.2814   40.0165   41.7065 N   0  0  0  0  0  0  0  0  0  0  0  0
   36.7408   37.7929   39.9506 N   0  0  0  0  0  0  0  0  0  0  0  0
  1 17  2  0  0  0  0
  1 16  1  0  0  0  0
  2  3  2  0  0  0  0
  2 26  1  0  0  0  0
  3  4  1  0  0  0  0
  4  5  2  0  0  0  0
  5  6  1  0  0  0  0
  6  7  1  0  0  0  0
  6 26  2  0  0  0  0
  7 27  2  0  0  0  0
  8  9  2  0  0  0  0
  8 13  1  0  0  0  0
  8 27  1  0  0  0  0
  9 10  1  0  0  0  0
 10 11  2  0  0  0  0
 11 12  1  0  0  0  0
 11 14  1  0  0  0  0
 12 13  2  0  0  0  0
 14 15  1  0  0  0  0
 15 16  2  0  0  0  0
 15 19  1  0  0  0  0
 17 18  1  0  0  0  0
 17 28  1  0  0  0  0
 18 19  2  0  0  0  0
 20 21  1  0  0  0  0
 20 28  2  0  0  0  0
 21 22  2  0  0  0  0
 21 29  1  0  0  0  0
 22 23  1  0  0  0  0
 23 24  2  0  0  0  0
 24 25  1  0  0  0  0
 25 29  2  0  0  0  0
M  END
>  <CHROM.1>
-66.95743238,-122.20558603,-88.63170495,70.19322038,-93.77209081,-86.90670497
41.55812329,43.42749171,42.66524073,2.43970122,0.26344219,-3.07654057

>  <Name>
ligand

>  <RI>
0

>  <Rbt.Current_Directory>
/home/itssahil/PROJECTS/Mol_Feturizer/New_Systems/rnas/4JIY

>  <Rbt.Executable>
rbdock ($Id: //depot/dev/client3/rdock/2013.1/src/exe/rbdock.cxx#4 $)

>  <Rbt.Library>
libRbt.so (2013.1, Build901 2013/11/27)

>  <Rbt.Parameter_File>
/export/apps/rDock/src/rDock_2013.1_src/data/scripts/dock_solv.prm

>  <Rbt.Receptor>
prm/pocket_docking_2.prm

>  <SCORE>
10.2196

>  <SCORE.INTER>
11.4

>  <SCORE.INTER.CONST>
1

>  <SCORE.INTER.POLAR>
0

>  <SCORE.INTER.ROT>
6

>  <SCORE.INTER.SOLV>
-8.88178e-16

>  <SCORE.INTER.VDW>
0

>  <SCORE.INTER.norm>
0.393103

>  <SCORE.INTRA>
-1.18043

>  <SCORE.INTRA.DIHEDRAL>
0.0181532

>  <SCORE.INTRA.DIHEDRAL.0>
7.2424

>  <SCORE.INTRA.POLAR>
0

>  <SCORE.INTRA.POLAR.0>
0

>  <SCORE.INTRA.REPUL>
0

>  <SCORE.INTRA.REPUL.0>
0

>  <SCORE.INTRA.SOLV>
-0.0200549

>  <SCORE.INTRA.SOLV.lig_0>
-3.36201

>  <SCORE.INTRA.VDW>
-1.17948

>  <SCORE.INTRA.VDW.0>
-0.910526

>  <SCORE.INTRA.norm>
-0.0407046

>  <SCORE.RESTR>
0

>  <SCORE.RESTR.CAVITY>
0

>  <SCORE.RESTR.norm>
0

>  <SCORE.SYSTEM>
0

>  <SCORE.SYSTEM.CONST>
0

>  <SCORE.SYSTEM.DIHEDRAL>
0

>  <SCORE.SYSTEM.SOLV>
0

>  <SCORE.SYSTEM.norm>
0

>  <SCORE.heavy>
29

>  <SCORE.norm>
0.352399

>  <RMSD>
1.040

$$$$
ligand
 OpenBabel11021811493D
libRbt.so/2013.1/901 2013/11/27
 29 32  0  0  0  0  0  0  0  0999 V2000
   43.5492   47.1614   44.7806 C   0  0  0  0  0  0  0  0  0  0  0  0
   37.8973   37.6388   39.2600 C   0  0  0  0  0  0  0  0  0  0  0  0
   37.1892   36.8420   40.1695 C   0  0  0  0  0  0  0  0  0  0  0  0
   36.8295   37.3272   41.3784 C   0  0  0  0  0  0  0  0  0  0  0  0
   37.2368   38.6089   41.7229 C   0  0  0  0  0  0  0  0  0  0  0  0
   37.8771   39.3843   40.7927 C   0  0  0  0  0  0  0  0  0  0  0  0
   38.2580   40.7844   40.9656 C   0  0  0  0  0  0  0  0  0  0  0  0
   39.4561   42.4018   42.1318 C   0  0  0  0  0  0  0  0  0  0  0  0
   40.4713   43.0158   41.4252 C   0  0  0  0  0  0  0  0  0  0  0  0
   40.7851   44.3454   41.7127 C   0  0  0  0  0  0  0  0  0  0  0  0
   40.0544   45.0897   42.6018 C   0  0  0  0  0  0  0  0  0  0  0  0
   39.0176   44.4332   43.2994 C   0  0  0  0  0  0  0  0  0  0  0  0
   38.7583   43.0804   43.1107 C   0  0  0  0  0  0  0  0  0  0  0  0
   40.3064   46.5822   42.8047 C   0  0  0  0  0  0  0  0  0  0  0  0
   41.7525   46.9082   43.1513 C   0  0  0  0  0  0  0  0  0  0  0  0
   42.2402   46.8707   44.4326 C   0  0  0  0  0  0  0  0  0  0  0  0
   44.4021   47.4879   43.7605 C   0  0  0  0  0  0  0  0  0  0  0  0
   43.9250   47.5321   42.4968 C   0  0  0  0  0  0  0  0  0  0  0  0
   42.6198   47.2587   42.1548 C   0  0  0  0  0  0  0  0  0  0  0  0
   46.5963   46.7895   44.0571 C   0  0  0  0  0  0  0  0  0  0  0  0
   47.9792   47.0561   44.3914 C   0  0  0  0  0  0  0  0  0  0  0  0
   48.9025   47.7006   43.5580 C   0  0  0  0  0  0  0  0  0  0  0  0
   50.1919   47.8639   44.0216 C   0  0  0  0  0  0  0  0  0  0  0  0
   50.4950   47.4133   45.2967 C   0  0  0  0  0  0  0  0  0  0  0  0
   49.5614   46.7521   46.0651 C   0  0  0  0  0  0  0  0  0  0  0  0
   38.2353   38.9007   39.5746 N   0  0  0  0  0  0  0  0  0  0  0  0
   39.1671   40.9971   41.8776 N   0  0  0  0  0  0  0  0  0  0  0  0
   45.8112   47.8078   44.0115 N   0  0  0  0  0  0  0  0  0  0  0  0
   48.3153   46.6103   45.6392 N   0  0  0  0  0  0  0  0  0  0  0  0
  1 17  2  0  0  0  0
  1 16  1  0  0  0  0
  2  3  2  0  0  0  0
  2 26  1  0  0  0  0
  3  4  1  0  0  0  0
  4  5  2  0  0  0  0
  5  6  1  0  0  0  0
  6  7  1  0  0  0  0
  6 26  2  0  0  0  0
  7 27  2  0  0  0  0
  8  9  2  0  0  0  0
  8 13  1  0  0  0  0
  8 27  1  0  0  0  0
  9 10  1  0  0  0  0
 10 11  2  0  0  0  0
 11 12  1  0  0  0  0
 11 14  1  0  0  0  0
 12 13  2  0  0  0  0
 14 15  1  0  0  0  0
 15 16  2  0  0  0  0
 15 19  1  0  0  0  0
 17 18  1  0  0  0  0
 17 28  1  0  0  0  0
 18 19  2  0  0  0  0
 20 21  1  0  0  0  0
 20 28  2  0  0  0  0
 21 22  2  0  0  0  0
 21 29  1  0  0  0  0
 22 23  1  0  0  0  0
 23 24  2  0  0  0  0
 24 25  1  0  0  0  0
 25 29  2  0  0  0  0
M  END
>  <CHROM.1>
65.78684346,-54.53043539,-85.56013274,-70.83705865,-91.76403371,85.95611060
42.34182524,44.15874516,42.77936848,0.71518077,-0.17009494,0.22914407

>  <Name>
ligand

>  <RI>
0

>  <Rbt.Current_Directory>
/home/itssahil/PROJECTS/Mol_Feturizer/New_Systems/rnas/4JIY

>  <Rbt.Executable>
rbdock ($Id: //depot/dev/client3/rdock/2013.1/src/exe/rbdock.cxx#4 $)

>  <Rbt.Library>
libRbt.so (2013.1, Build901 2013/11/27)

>  <Rbt.Parameter_File>
/export/apps/rDock/src/rDock_2013.1_src/data/scripts/dock_solv.prm

>  <Rbt.Receptor>
prm/pocket_docking_2.prm

>  <SCORE>
10.2256

>  <SCORE.INTER>
11.4

>  <SCORE.INTER.CONST>
1

>  <SCORE.INTER.POLAR>
0

>  <SCORE.INTER.ROT>
6

>  <SCORE.INTER.SOLV>
0

>  <SCORE.INTER.VDW>
0

>  <SCORE.INTER.norm>
0.393103

>  <SCORE.INTRA>
-1.1744

>  <SCORE.INTRA.DIHEDRAL>
-0.0498735

>  <SCORE.INTRA.DIHEDRAL.0>
7.2424

>  <SCORE.INTRA.POLAR>
0

>  <SCORE.INTRA.POLAR.0>
0

>  <SCORE.INTRA.REPUL>
0

>  <SCORE.INTRA.REPUL.0>
0

>  <SCORE.INTRA.SOLV>
-0.0200954

>  <SCORE.INTRA.SOLV.lig_0>
-3.36201

>  <SCORE.INTRA.VDW>
-1.13941

>  <SCORE.INTRA.VDW.0>
-0.910526

>  <SCORE.INTRA.norm>
-0.0404965

>  <SCORE.RESTR>
0

>  <SCORE.RESTR.CAVITY>
0

>  <SCORE.RESTR.norm>
0

>  <SCORE.SYSTEM>
0

>  <SCORE.SYSTEM.CONST>
0

>  <SCORE.SYSTEM.DIHEDRAL>
0

>  <SCORE.SYSTEM.SOLV>
0

>  <SCORE.SYSTEM.norm>
0

>  <SCORE.heavy>
29

>  <SCORE.norm>
0.352607

>  <RMSD>
1.043

$$$$
ligand
 OpenBabel11021811493D
libRbt.so/2013.1/901 2013/11/27
 29 32  0  0  0  0  0  0  0  0999 V2000
   38.4853   42.4694   42.4254 C   0  0  0  0  0  0  0  0  0  0  0  0
   49.1374   46.8095   44.1960 C   0  0  0  0  0  0  0  0  0  0  0  0
   49.3377   47.2713   45.5038 C   0  0  0  0  0  0  0  0  0  0  0  0
   48.2885   47.4917   46.3265 C   0  0  0  0  0  0  0  0  0  0  0  0
   47.0068   47.3147   45.8233 C   0  0  0  0  0  0  0  0  0  0  0  0
   46.8433   46.8078   44.5614 C   0  0  0  0  0  0  0  0  0  0  0  0
   45.5675   46.4559   43.9419 C   0  0  0  0  0  0  0  0  0  0  0  0
   43.4722   47.1073   43.1694 C   0  0  0  0  0  0  0  0  0  0  0  0
   42.4420   46.9087   44.0673 C   0  0  0  0  0  0  0  0  0  0  0  0
   41.1956   46.5045   43.5856 C   0  0  0  0  0  0  0  0  0  0  0  0
   40.9344   46.3947   42.2447 C   0  0  0  0  0  0  0  0  0  0  0  0
   42.0077   46.6141   41.3545 C   0  0  0  0  0  0  0  0  0  0  0  0
   43.2855   46.9092   41.8161 C   0  0  0  0  0  0  0  0  0  0  0  0
   39.5328   46.0966   41.7165 C   0  0  0  0  0  0  0  0  0  0  0  0
   39.2562   44.6093   41.5457 C   0  0  0  0  0  0  0  0  0  0  0  0
   38.7480   43.8241   42.5488 C   0  0  0  0  0  0  0  0  0  0  0  0
   38.7397   41.8990   41.2069 C   0  0  0  0  0  0  0  0  0  0  0  0
   39.2461   42.6671   40.2171 C   0  0  0  0  0  0  0  0  0  0  0  0
   39.5218   44.0097   40.3465 C   0  0  0  0  0  0  0  0  0  0  0  0
   37.2982   40.1917   40.5764 C   0  0  0  0  0  0  0  0  0  0  0  0
   36.9900   38.7873   40.4092 C   0  0  0  0  0  0  0  0  0  0  0  0
   37.4652   37.9733   39.3729 C   0  0  0  0  0  0  0  0  0  0  0  0
   37.0634   36.6534   39.3478 C   0  0  0  0  0  0  0  0  0  0  0  0
   36.2409   36.1963   40.3653 C   0  0  0  0  0  0  0  0  0  0  0  0
   35.7697   37.0451   41.3435 C   0  0  0  0  0  0  0  0  0  0  0  0
   47.8967   46.5803   43.7339 N   0  0  0  0  0  0  0  0  0  0  0  0
   44.7898   47.4692   43.6738 N   0  0  0  0  0  0  0  0  0  0  0  0
   38.4931   40.4743   40.9606 N   0  0  0  0  0  0  0  0  0  0  0  0
   36.1673   38.3077   41.3898 N   0  0  0  0  0  0  0  0  0  0  0  0
  1 17  2  0  0  0  0
  1 16  1  0  0  0  0
  2  3  2  0  0  0  0
  2 26  1  0  0  0  0
  3  4  1  0  0  0  0
  4  5  2  0  0  0  0
  5  6  1  0  0  0  0
  6  7  1  0  0  0  0
  6 26  2  0  0  0  0
  7 27  2  0  0  0  0
  8  9  2  0  0  0  0
  8 13  1  0  0  0  0
  8 27  1  0  0  0  0
  9 10  1  0  0  0  0
 10 11  2  0  0  0  0
 11 12  1  0  0  0  0
 11 14  1  0  0  0  0
 12 13  2  0  0  0  0
 14 15  1  0  0  0  0
 15 16  2  0  0  0  0
 15 19  1  0  0  0  0
 17 18  1  0  0  0  0
 17 28  1  0  0  0  0
 18 19  2  0  0  0  0
 20 21  1  0  0  0  0
 20 28  2  0  0  0  0
 21 22  2  0  0  0  0
 21 29  1  0  0  0  0
 22 23  1  0  0  0  0
 23 24  2  0  0  0  0
 24 25  1  0  0  0  0
 25 29  2  0  0  0  0
M  END
>  <CHROM.1>
68.29710009,-90.96241899,88.73764188,-72.20338452,89.76840631,87.42699382
41.42017460,43.71850078,42.33527882,2.44720816,0.34901413,-3.09641106

>  <Name>
ligand

>  <RI>
0

>  <Rbt.Current_Directory>
/home/itssahil/PROJECTS/Mol_Feturizer/New_Systems/rnas/4JIY

>  <Rbt.Executable>
rbdock ($Id: //depot/dev/client3/rdock/2013.1/src/exe/rbdock.cxx#4 $)

>  <Rbt.Library>
libRbt.so (2013.1, Build901 2013/11/27)

>  <Rbt.Parameter_File>
/export/apps/rDock/src/rDock_2013.1_src/data/scripts/dock_solv.prm

>  <Rbt.Receptor>
prm/pocket_docking_2.prm

>  <SCORE>
10.3394

>  <SCORE.INTER>
11.4

>  <SCORE.INTER.CONST>
1

>  <SCORE.INTER.POLAR>
0

>  <SCORE.INTER.ROT>
6

>  <SCORE.INTER.SOLV>
0

>  <SCORE.INTER.VDW>
0

>  <SCORE.INTER.norm>
0.393103

>  <SCORE.INTRA>
-1.06064

>  <SCORE.INTRA.DIHEDRAL>
0.255721

>  <SCORE.INTRA.DIHEDRAL.0>
7.2424

>  <SCORE.INTRA.POLAR>
0

>  <SCORE.INTRA.POLAR.0>
0

>  <SCORE.INTRA.REPUL>
0

>  <SCORE.INTRA.REPUL.0>
0

>  <SCORE.INTRA.SOLV>
-0.0190023

>  <SCORE.INTRA.SOLV.lig_0>
-3.36201

>  <SCORE.INTRA.VDW>
-1.17899

>  <SCORE.INTRA.VDW.0>
-0.910526

>  <SCORE.INTRA.norm>
-0.0365736

>  <SCORE.RESTR>
0

>  <SCORE.RESTR.CAVITY>
0

>  <SCORE.RESTR.norm>
0

>  <SCORE.SYSTEM>
0

>  <SCORE.SYSTEM.CONST>
0

>  <SCORE.SYSTEM.DIHEDRAL>
0

>  <SCORE.SYSTEM.SOLV>
0

>  <SCORE.SYSTEM.norm>
0

>  <SCORE.heavy>
29

>  <SCORE.norm>
0.35653

>  <RMSD>
1.054

$$$$
ligand
 OpenBabel11021811493D
libRbt.so/2013.1/901 2013/11/27
 29 32  0  0  0  0  0  0  0  0999 V2000
   39.6240   42.4529   42.4804 C   0  0  0  0  0  0  0  0  0  0  0  0
   49.2586   47.1176   42.9737 C   0  0  0  0  0  0  0  0  0  0  0  0
   49.7936   47.3980   44.2382 C   0  0  0  0  0  0  0  0  0  0  0  0
   48.9968   47.4534   45.3282 C   0  0  0  0  0  0  0  0  0  0  0  0
   47.6288   47.2933   45.1545 C   0  0  0  0  0  0  0  0  0  0  0  0
   47.1416   46.9633   43.9176 C   0  0  0  0  0  0  0  0  0  0  0  0
   45.7495   46.6469   43.6054 C   0  0  0  0  0  0  0  0  0  0  0  0
   43.5311   47.3282   43.4452 C   0  0  0  0  0  0  0  0  0  0  0  0
   42.9979   47.3764   42.1723 C   0  0  0  0  0  0  0  0  0  0  0  0
   41.6385   47.1095   41.9995 C   0  0  0  0  0  0  0  0  0  0  0  0
   40.8389   46.7051   43.0365 C   0  0  0  0  0  0  0  0  0  0  0  0
   41.4187   46.6574   44.3227 C   0  0  0  0  0  0  0  0  0  0  0  0
   42.7422   47.0256   44.5368 C   0  0  0  0  0  0  0  0  0  0  0  0
   39.3907   46.2722   42.8185 C   0  0  0  0  0  0  0  0  0  0  0  0
   39.2595   44.8556   42.2767 C   0  0  0  0  0  0  0  0  0  0  0  0
   39.7277   43.7537   42.9457 C   0  0  0  0  0  0  0  0  0  0  0  0
   38.9922   42.2748   41.2789 C   0  0  0  0  0  0  0  0  0  0  0  0
   38.5343   43.3579   40.6128 C   0  0  0  0  0  0  0  0  0  0  0  0
   38.6527   44.6514   41.0691 C   0  0  0  0  0  0  0  0  0  0  0  0
   37.7913   40.2945   41.1167 C   0  0  0  0  0  0  0  0  0  0  0  0
   37.6360   38.9402   40.6298 C   0  0  0  0  0  0  0  0  0  0  0  0
   38.5805   37.9159   40.7748 C   0  0  0  0  0  0  0  0  0  0  0  0
   38.2852   36.6796   40.2375 C   0  0  0  0  0  0  0  0  0  0  0  0
   37.0589   36.5085   39.6147 C   0  0  0  0  0  0  0  0  0  0  0  0
   36.1776   37.5574   39.4645 C   0  0  0  0  0  0  0  0  0  0  0  0
   47.9412   46.9018   42.8208 N   0  0  0  0  0  0  0  0  0  0  0  0
   44.9349   47.6660   43.6370 N   0  0  0  0  0  0  0  0  0  0  0  0
   38.8197   40.9413   40.6932 N   0  0  0  0  0  0  0  0  0  0  0  0
   36.4412   38.7415   39.9963 N   0  0  0  0  0  0  0  0  0  0  0  0
  1 17  2  0  0  0  0
  1 16  1  0  0  0  0
  2  3  2  0  0  0  0
  2 26  1  0  0  0  0
  3  4  1  0  0  0  0
  4  5  2  0  0  0  0
  5  6  1  0  0  0  0
  6  7  1  0  0  0  0
  6 26  2  0  0  0  0
  7 27  2  0  0  0  0
  8  9  2  0  0  0  0
  8 13  1  0  0  0  0
  8 27  1  0  0  0  0
  9 10  1  0  0  0  0
 10 11  2  0  0  0  0
 11 12  1  0  0  0  0
 11 14  1  0  0  0  0
 12 13  2  0  0  0  0
 14 15  1  0  0  0  0
 15 16  2  0  0  0  0
 15 19  1  0  0  0  0
 17 18  1  0  0  0  0
 17 28  1  0  0  0  0
 18 19  2  0  0  0  0
 20 21  1  0  0  0  0
 20 28  2  0  0  0  0
 21 22  2  0  0  0  0
 21 29  1  0  0  0  0
 22 23  1  0  0  0  0
 23 24  2  0  0  0  0
 24 25  1  0  0  0  0
 25 29  2  0  0  0  0
M  END
>  <CHROM.1>
71.53197221,78.60283113,60.30100870,57.38030169,-93.13326710,84.50667363
41.70433314,43.96138971,42.30846954,2.38408632,0.13292048,-2.88063433

>  <Name>
ligand

>  <RI>
0

>  <Rbt.Current_Directory>
/home/itssahil/PROJECTS/Mol_Feturizer/New_Systems/rnas/4JIY

>  <Rbt.Executable>
rbdock ($Id: //depot/dev/client3/rdock/2013.1/src/exe/rbdock.cxx#4 $)

>  <Rbt.Library>
libRbt.so (2013.1, Build901 2013/11/27)

>  <Rbt.Parameter_File>
/export/apps/rDock/src/rDock_2013.1_src/data/scripts/dock_solv.prm

>  <Rbt.Receptor>
prm/pocket_docking_2.prm

>  <SCORE>
10.1655

>  <SCORE.INTER>
11.4

>  <SCORE.INTER.CONST>
1

>  <SCORE.INTER.POLAR>
0

>  <SCORE.INTER.ROT>
6

>  <SCORE.INTER.SOLV>
-1.33227e-15

>  <SCORE.INTER.VDW>
0

>  <SCORE.INTER.norm>
0.393103

>  <SCORE.INTRA>
-1.2345

>  <SCORE.INTRA.DIHEDRAL>
-0.129318

>  <SCORE.INTRA.DIHEDRAL.0>
7.2424

>  <SCORE.INTRA.POLAR>
0

>  <SCORE.INTRA.POLAR.0>
0

>  <SCORE.INTRA.REPUL>
0

>  <SCORE.INTRA.REPUL.0>
0

>  <SCORE.INTRA.SOLV>
-0.0202476

>  <SCORE.INTRA.SOLV.lig_0>
-3.36201

>  <SCORE.INTRA.VDW>
-1.15971

>  <SCORE.INTRA.VDW.0>
-0.910526

>  <SCORE.INTRA.norm>
-0.0425689

>  <SCORE.RESTR>
0

>  <SCORE.RESTR.CAVITY>
0

>  <SCORE.RESTR.norm>
0

>  <SCORE.SYSTEM>
0

>  <SCORE.SYSTEM.CONST>
0

>  <SCORE.SYSTEM.DIHEDRAL>
0

>  <SCORE.SYSTEM.SOLV>
0

>  <SCORE.SYSTEM.norm>
0

>  <SCORE.heavy>
29

>  <SCORE.norm>
0.350535

>  <RMSD>
1.069

$$$$
ligand
 OpenBabel11021811493D
libRbt.so/2013.1/901 2013/11/27
 29 32  0  0  0  0  0  0  0  0999 V2000
   42.3619   46.8252   43.7338 C   0  0  0  0  0  0  0  0  0  0  0  0
   38.0253   36.7291   39.6021 C   0  0  0  0  0  0  0  0  0  0  0  0
   36.9590   36.1744   40.3226 C   0  0  0  0  0  0  0  0  0  0  0  0
   36.3481   36.8767   41.3021 C   0  0  0  0  0  0  0  0  0  0  0  0
   36.8455   38.1326   41.6223 C   0  0  0  0  0  0  0  0  0  0  0  0
   37.8503   38.6719   40.8634 C   0  0  0  0  0  0  0  0  0  0  0  0
   38.3929   40.0217   41.0011 C   0  0  0  0  0  0  0  0  0  0  0  0
   38.1578   42.3139   40.6823 C   0  0  0  0  0  0  0  0  0  0  0  0
   38.0443   43.0756   41.8285 C   0  0  0  0  0  0  0  0  0  0  0  0
   38.5521   44.3760   41.8277 C   0  0  0  0  0  0  0  0  0  0  0  0
   39.2464   44.8853   40.7614 C   0  0  0  0  0  0  0  0  0  0  0  0
   39.3519   44.0762   39.6095 C   0  0  0  0  0  0  0  0  0  0  0  0
   38.7585   42.8204   39.5473 C   0  0  0  0  0  0  0  0  0  0  0  0
   39.9270   46.2513   40.8187 C   0  0  0  0  0  0  0  0  0  0  0  0
   41.1878   46.2618   41.6720 C   0  0  0  0  0  0  0  0  0  0  0  0
   41.2319   46.7999   42.9327 C   0  0  0  0  0  0  0  0  0  0  0  0
   43.4955   46.2531   43.2217 C   0  0  0  0  0  0  0  0  0  0  0  0
   43.4588   45.7269   41.9774 C   0  0  0  0  0  0  0  0  0  0  0  0
   42.3392   45.7172   41.1764 C   0  0  0  0  0  0  0  0  0  0  0  0
   45.4340   47.3047   43.9474 C   0  0  0  0  0  0  0  0  0  0  0  0
   46.7190   47.2791   44.6133 C   0  0  0  0  0  0  0  0  0  0  0  0
   46.9100   47.2033   45.9989 C   0  0  0  0  0  0  0  0  0  0  0  0
   48.2045   47.2046   46.4769 C   0  0  0  0  0  0  0  0  0  0  0  0
   49.2442   47.2462   45.5614 C   0  0  0  0  0  0  0  0  0  0  0  0
   49.0053   47.3572   44.2086 C   0  0  0  0  0  0  0  0  0  0  0  0
   38.4629   37.9699   39.8745 N   0  0  0  0  0  0  0  0  0  0  0  0
   37.5747   40.9794   40.6595 N   0  0  0  0  0  0  0  0  0  0  0  0
   44.7480   46.2169   43.9840 N   0  0  0  0  0  0  0  0  0  0  0  0
   47.7675   47.3339   43.7379 N   0  0  0  0  0  0  0  0  0  0  0  0
  1 17  2  0  0  0  0
  1 16  1  0  0  0  0
  2  3  2  0  0  0  0
  2 26  1  0  0  0  0
  3  4  1  0  0  0  0
  4  5  2  0  0  0  0
  5  6  1  0  0  0  0
  6  7  1  0  0  0  0
  6 26  2  0  0  0  0
  7 27  2  0  0  0  0
  8  9  2  0  0  0  0
  8 13  1  0  0  0  0
  8 27  1  0  0  0  0
  9 10  1  0  0  0  0
 10 11  2  0  0  0  0
 11 12  1  0  0  0  0
 11 14  1  0  0  0  0
 12 13  2  0  0  0  0
 14 15  1  0  0  0  0
 15 16  2  0  0  0  0
 15 19  1  0  0  0  0
 17 18  1  0  0  0  0
 17 28  1  0  0  0  0
 18 19  2  0  0  0  0
 20 21  1  0  0  0  0
 20 28  2  0  0  0  0
 21 22  2  0  0  0  0
 21 29  1  0  0  0  0
 22 23  1  0  0  0  0
 23 24  2  0  0  0  0
 24 25  1  0  0  0  0
 25 29  2  0  0  0  0
M  END
>  <CHROM.1>
-68.37989242,73.32486410,-103.82491774,-69.32574609,-92.63290746,-81.03394997
41.54446576,43.72748075,42.18298079,0.66022475,-0.45696191,-0.06542974

>  <Name>
ligand

>  <RI>
0

>  <Rbt.Current_Directory>
/home/itssahil/PROJECTS/Mol_Feturizer/New_Systems/rnas/4JIY

>  <Rbt.Executable>
rbdock ($Id: //depot/dev/client3/rdock/2013.1/src/exe/rbdock.cxx#4 $)

>  <Rbt.Library>
libRbt.so (2013.1, Build901 2013/11/27)

>  <Rbt.Parameter_File>
/export/apps/rDock/src/rDock_2013.1_src/data/scripts/dock_solv.prm

>  <Rbt.Receptor>
prm/pocket_docking_2.prm

>  <SCORE>
10.0986

>  <SCORE.INTER>
11.4

>  <SCORE.INTER.CONST>
1

>  <SCORE.INTER.POLAR>
0

>  <SCORE.INTER.ROT>
6

>  <SCORE.INTER.SOLV>
-8.88178e-16

>  <SCORE.INTER.VDW>
0

>  <SCORE.INTER.norm>
0.393103

>  <SCORE.INTRA>
-1.30141

>  <SCORE.INTRA.DIHEDRAL>
-0.0632677

>  <SCORE.INTRA.DIHEDRAL.0>
7.2424

>  <SCORE.INTRA.POLAR>
0

>  <SCORE.INTRA.POLAR.0>
0

>  <SCORE.INTRA.REPUL>
0

>  <SCORE.INTRA.REPUL.0>
0

>  <SCORE.INTRA.SOLV>
-0.0199186

>  <SCORE.INTRA.SOLV.lig_0>
-3.36201

>  <SCORE.INTRA.VDW>
-1.25981

>  <SCORE.INTRA.VDW.0>
-0.910526

>  <SCORE.INTRA.norm>
-0.0448761

>  <SCORE.RESTR>
0

>  <SCORE.RESTR.CAVITY>
0

>  <SCORE.RESTR.norm>
0

>  <SCORE.SYSTEM>
0

>  <SCORE.SYSTEM.CONST>
0

>  <SCORE.SYSTEM.DIHEDRAL>
0

>  <SCORE.SYSTEM.SOLV>
0

>  <SCORE.SYSTEM.norm>
0

>  <SCORE.heavy>
29

>  <SCORE.norm>
0.348227

>  <RMSD>
1.082

$$$$
ligand
 OpenBabel11021811493D
libRbt.so/2013.1/901 2013/11/27
 29 32  0  0  0  0  0  0  0  0999 V2000
   39.5284   42.5007   40.1756 C   0  0  0  0  0  0  0  0  0  0  0  0
   49.2685   48.2787   45.3999 C   0  0  0  0  0  0  0  0  0  0  0  0
   50.2145   48.3908   44.3723 C   0  0  0  0  0  0  0  0  0  0  0  0
   49.8553   48.2180   43.0812 C   0  0  0  0  0  0  0  0  0  0  0  0
   48.5428   47.8605   42.8035 C   0  0  0  0  0  0  0  0  0  0  0  0
   47.6280   47.8149   43.8219 C   0  0  0  0  0  0  0  0  0  0  0  0
   46.1947   47.5734   43.6712 C   0  0  0  0  0  0  0  0  0  0  0  0
   44.4634   46.1985   42.9476 C   0  0  0  0  0  0  0  0  0  0  0  0
   43.6671   45.6528   43.9350 C   0  0  0  0  0  0  0  0  0  0  0  0
   42.3196   45.4132   43.6596 C   0  0  0  0  0  0  0  0  0  0  0  0
   41.7399   45.7929   42.4772 C   0  0  0  0  0  0  0  0  0  0  0  0
   42.5811   46.3566   41.4937 C   0  0  0  0  0  0  0  0  0  0  0  0
   43.9476   46.5031   41.7040 C   0  0  0  0  0  0  0  0  0  0  0  0
   40.2374   45.6641   42.2362 C   0  0  0  0  0  0  0  0  0  0  0  0
   39.8077   44.2572   41.8440 C   0  0  0  0  0  0  0  0  0  0  0  0
   39.9099   43.7745   40.5644 C   0  0  0  0  0  0  0  0  0  0  0  0
   39.0357   41.6778   41.1527 C   0  0  0  0  0  0  0  0  0  0  0  0
   38.9272   42.1508   42.4141 C   0  0  0  0  0  0  0  0  0  0  0  0
   39.2918   43.4224   42.7953 C   0  0  0  0  0  0  0  0  0  0  0  0
   37.3912   40.1968   40.4510 C   0  0  0  0  0  0  0  0  0  0  0  0
   36.9032   38.8513   40.2342 C   0  0  0  0  0  0  0  0  0  0  0  0
   37.4115   37.9494   39.2906 C   0  0  0  0  0  0  0  0  0  0  0  0
   36.8218   36.7052   39.1985 C   0  0  0  0  0  0  0  0  0  0  0  0
   35.7834   36.4031   40.0652 C   0  0  0  0  0  0  0  0  0  0  0  0
   35.2939   37.3374   40.9522 C   0  0  0  0  0  0  0  0  0  0  0  0
   47.9855   47.9934   45.1205 N   0  0  0  0  0  0  0  0  0  0  0  0
   45.8827   46.3927   43.2108 N   0  0  0  0  0  0  0  0  0  0  0  0
   38.6072   40.3067   40.8568 N   0  0  0  0  0  0  0  0  0  0  0  0
   35.8672   38.5262   41.0646 N   0  0  0  0  0  0  0  0  0  0  0  0
  1 17  2  0  0  0  0
  1 16  1  0  0  0  0
  2  3  2  0  0  0  0
  2 26  1  0  0  0  0
  3  4  1  0  0  0  0
  4  5  2  0  0  0  0
  5  6  1  0  0  0  0
  6  7  1  0  0  0  0
  6 26  2  0  0  0  0
  7 27  2  0  0  0  0
  8  9  2  0  0  0  0
  8 13  1  0  0  0  0
  8 27  1  0  0  0  0
  9 10  1  0  0  0  0
 10 11  2  0  0  0  0
 11 12  1  0  0  0  0
 11 14  1  0  0  0  0
 12 13  2  0  0  0  0
 14 15  1  0  0  0  0
 15 16  2  0  0  0  0
 15 19  1  0  0  0  0
 17 18  1  0  0  0  0
 17 28  1  0  0  0  0
 18 19  2  0  0  0  0
 20 21  1  0  0  0  0
 20 28  2  0  0  0  0
 21 22  2  0  0  0  0
 21 29  1  0  0  0  0
 22 23  1  0  0  0  0
 23 24  2  0  0  0  0
 24 25  1  0  0  0  0
 25 29  2  0  0  0  0
M  END
>  <CHROM.1>
64.43155674,-80.83754168,-81.62308500,-62.95756902,-92.93402779,-86.06922754
41.89449213,43.73204581,42.11394006,2.42063424,0.09954065,-2.88805732

>  <Name>
ligand

>  <RI>
0

>  <Rbt.Current_Directory>
/home/itssahil/PROJECTS/Mol_Feturizer/New_Systems/rnas/4JIY

>  <Rbt.Executable>
rbdock ($Id: //depot/dev/client3/rdock/2013.1/src/exe/rbdock.cxx#4 $)

>  <Rbt.Library>
libRbt.so (2013.1, Build901 2013/11/27)

>  <Rbt.Parameter_File>
/export/apps/rDock/src/rDock_2013.1_src/data/scripts/dock_solv.prm

>  <Rbt.Receptor>
prm/pocket_docking_2.prm

>  <SCORE>
10.2919

>  <SCORE.INTER>
11.4

>  <SCORE.INTER.CONST>
1

>  <SCORE.INTER.POLAR>
0

>  <SCORE.INTER.ROT>
6

>  <SCORE.INTER.SOLV>
8.88178e-16

>  <SCORE.INTER.VDW>
0

>  <SCORE.INTER.norm>
0.393103

>  <SCORE.INTRA>
-1.1081

>  <SCORE.INTRA.DIHEDRAL>
0.101683

>  <SCORE.INTRA.DIHEDRAL.0>
7.2424

>  <SCORE.INTRA.POLAR>
0

>  <SCORE.INTRA.POLAR.0>
0

>  <SCORE.INTRA.REPUL>
0

>  <SCORE.INTRA.REPUL.0>
0

>  <SCORE.INTRA.SOLV>
-0.0199971

>  <SCORE.INTRA.SOLV.lig_0>
-3.36201

>  <SCORE.INTRA.VDW>
-1.14894

>  <SCORE.INTRA.VDW.0>
-0.910526

>  <SCORE.INTRA.norm>
-0.0382103

>  <SCORE.RESTR>
0

>  <SCORE.RESTR.CAVITY>
0

>  <SCORE.RESTR.norm>
0

>  <SCORE.SYSTEM>
0

>  <SCORE.SYSTEM.CONST>
0

>  <SCORE.SYSTEM.DIHEDRAL>
0

>  <SCORE.SYSTEM.SOLV>
0

>  <SCORE.SYSTEM.norm>
0

>  <SCORE.heavy>
29

>  <SCORE.norm>
0.354893

>  <RMSD>
1.083

$$$$
ligand
 OpenBabel11021811493D
libRbt.so/2013.1/901 2013/11/27
 29 32  0  0  0  0  0  0  0  0999 V2000
   43.7706   46.0740   44.5770 C   0  0  0  0  0  0  0  0  0  0  0  0
   35.8605   37.3888   40.1639 C   0  0  0  0  0  0  0  0  0  0  0  0
   35.6450   36.5472   41.2633 C   0  0  0  0  0  0  0  0  0  0  0  0
   36.0040   36.9316   42.5081 C   0  0  0  0  0  0  0  0  0  0  0  0
   36.6520   38.1498   42.6614 C   0  0  0  0  0  0  0  0  0  0  0  0
   36.7970   38.9758   41.5784 C   0  0  0  0  0  0  0  0  0  0  0  0
   37.3459   40.3298   41.6055 C   0  0  0  0  0  0  0  0  0  0  0  0
   39.1346   41.7545   42.0322 C   0  0  0  0  0  0  0  0  0  0  0  0
   39.6716   42.3892   40.9296 C   0  0  0  0  0  0  0  0  0  0  0  0
   40.2191   43.6640   41.0849 C   0  0  0  0  0  0  0  0  0  0  0  0
   40.1517   44.3451   42.2723 C   0  0  0  0  0  0  0  0  0  0  0  0
   39.5876   43.6703   43.3763 C   0  0  0  0  0  0  0  0  0  0  0  0
   39.1364   42.3593   43.2731 C   0  0  0  0  0  0  0  0  0  0  0  0
   40.6181   45.7937   42.4002 C   0  0  0  0  0  0  0  0  0  0  0  0
   42.0715   45.9234   42.8342 C   0  0  0  0  0  0  0  0  0  0  0  0
   42.4580   45.9570   44.1496 C   0  0  0  0  0  0  0  0  0  0  0  0
   44.7332   46.1409   43.6056 C   0  0  0  0  0  0  0  0  0  0  0  0
   44.3571   46.1144   42.3078 C   0  0  0  0  0  0  0  0  0  0  0  0
   43.0508   46.0144   41.8850 C   0  0  0  0  0  0  0  0  0  0  0  0
   46.5763   47.4662   44.0924 C   0  0  0  0  0  0  0  0  0  0  0  0
   47.9936   47.6292   44.3371 C   0  0  0  0  0  0  0  0  0  0  0  0
   49.0070   47.4092   43.3953 C   0  0  0  0  0  0  0  0  0  0  0  0
   50.3151   47.5947   43.7938 C   0  0  0  0  0  0  0  0  0  0  0  0
   50.5539   48.0207   45.0908 C   0  0  0  0  0  0  0  0  0  0  0  0
   49.5250   48.1884   45.9922 C   0  0  0  0  0  0  0  0  0  0  0  0
   36.4321   38.5939   40.3266 N   0  0  0  0  0  0  0  0  0  0  0  0
   38.6185   40.4003   41.8867 N   0  0  0  0  0  0  0  0  0  0  0  0
   46.1558   46.2596   43.9424 N   0  0  0  0  0  0  0  0  0  0  0  0
   48.2649   48.0352   45.6139 N   0  0  0  0  0  0  0  0  0  0  0  0
  1 17  2  0  0  0  0
  1 16  1  0  0  0  0
  2  3  2  0  0  0  0
  2 26  1  0  0  0  0
  3  4  1  0  0  0  0
  4  5  2  0  0  0  0
  5  6  1  0  0  0  0
  6  7  1  0  0  0  0
  6 26  2  0  0  0  0
  7 27  2  0  0  0  0
  8  9  2  0  0  0  0
  8 13  1  0  0  0  0
  8 27  1  0  0  0  0
  9 10  1  0  0  0  0
 10 11  2  0  0  0  0
 11 12  1  0  0  0  0
 11 14  1  0  0  0  0
 12 13  2  0  0  0  0
 14 15  1  0  0  0  0
 15 16  2  0  0  0  0
 15 19  1  0  0  0  0
 17 18  1  0  0  0  0
 17 28  1  0  0  0  0
 18 19  2  0  0  0  0
 20 21  1  0  0  0  0
 20 28  2  0  0  0  0
 21 22  2  0  0  0  0
 21 29  1  0  0  0  0
 22 23  1  0  0  0  0
 23 24  2  0  0  0  0
 24 25  1  0  0  0  0
 25 29  2  0  0  0  0
M  END
>  <CHROM.1>
67.65978372,-92.41065053,-88.05007975,70.32288081,-92.12206581,-88.03329383
42.09042057,43.73180307,42.86051146,0.62603556,-0.29894118,-0.06032458

>  <Name>
ligand

>  <RI>
0

>  <Rbt.Current_Directory>
/home/itssahil/PROJECTS/Mol_Feturizer/New_Systems/rnas/4JIY

>  <Rbt.Executable>
rbdock ($Id: //depot/dev/client3/rdock/2013.1/src/exe/rbdock.cxx#4 $)

>  <Rbt.Library>
libRbt.so (2013.1, Build901 2013/11/27)

>  <Rbt.Parameter_File>
/export/apps/rDock/src/rDock_2013.1_src/data/scripts/dock_solv.prm

>  <Rbt.Receptor>
prm/pocket_docking_2.prm

>  <SCORE>
10.2748

>  <SCORE.INTER>
11.4

>  <SCORE.INTER.CONST>
1

>  <SCORE.INTER.POLAR>
0

>  <SCORE.INTER.ROT>
6

>  <SCORE.INTER.SOLV>
-8.88178e-16

>  <SCORE.INTER.VDW>
0

>  <SCORE.INTER.norm>
0.393103

>  <SCORE.INTRA>
-1.12518

>  <SCORE.INTRA.DIHEDRAL>
0.164003

>  <SCORE.INTRA.DIHEDRAL.0>
7.2424

>  <SCORE.INTRA.POLAR>
0

>  <SCORE.INTRA.POLAR.0>
0

>  <SCORE.INTRA.REPUL>
0

>  <SCORE.INTRA.REPUL.0>
0

>  <SCORE.INTRA.SOLV>
-0.0198867

>  <SCORE.INTRA.SOLV.lig_0>
-3.36201

>  <SCORE.INTRA.VDW>
-1.19724

>  <SCORE.INTRA.VDW.0>
-0.910526

>  <SCORE.INTRA.norm>
-0.0387993

>  <SCORE.RESTR>
0

>  <SCORE.RESTR.CAVITY>
0

>  <SCORE.RESTR.norm>
0

>  <SCORE.SYSTEM>
0

>  <SCORE.SYSTEM.CONST>
0

>  <SCORE.SYSTEM.DIHEDRAL>
0

>  <SCORE.SYSTEM.SOLV>
0

>  <SCORE.SYSTEM.norm>
0

>  <SCORE.heavy>
29

>  <SCORE.norm>
0.354304

>  <RMSD>
1.084

$$$$
ligand
 OpenBabel11021811493D
libRbt.so/2013.1/901 2013/11/27
 29 32  0  0  0  0  0  0  0  0999 V2000
   43.7498   45.8812   41.7979 C   0  0  0  0  0  0  0  0  0  0  0  0
   37.0756   36.7178   41.8747 C   0  0  0  0  0  0  0  0  0  0  0  0
   37.0068   36.0658   40.6363 C   0  0  0  0  0  0  0  0  0  0  0  0
   37.3858   36.6957   39.5024 C   0  0  0  0  0  0  0  0  0  0  0  0
   37.7799   38.0243   39.5856 C   0  0  0  0  0  0  0  0  0  0  0  0
   37.8924   38.6170   40.8154 C   0  0  0  0  0  0  0  0  0  0  0  0
   38.4058   39.9610   41.0710 C   0  0  0  0  0  0  0  0  0  0  0  0
   38.2282   42.2607   40.7693 C   0  0  0  0  0  0  0  0  0  0  0  0
   37.9533   42.9847   41.9126 C   0  0  0  0  0  0  0  0  0  0  0  0
   38.4546   44.2827   42.0262 C   0  0  0  0  0  0  0  0  0  0  0  0
   39.2914   44.8245   41.0858 C   0  0  0  0  0  0  0  0  0  0  0  0
   39.5591   44.0533   39.9341 C   0  0  0  0  0  0  0  0  0  0  0  0
   38.9821   42.8022   39.7475 C   0  0  0  0  0  0  0  0  0  0  0  0
   39.9553   46.1855   41.2834 C   0  0  0  0  0  0  0  0  0  0  0  0
   41.3252   46.0986   41.9419 C   0  0  0  0  0  0  0  0  0  0  0  0
   42.4891   45.9630   41.2294 C   0  0  0  0  0  0  0  0  0  0  0  0
   43.8186   45.9616   43.1630 C   0  0  0  0  0  0  0  0  0  0  0  0
   42.6740   46.0892   43.8701 C   0  0  0  0  0  0  0  0  0  0  0  0
   41.4207   46.1539   43.3042 C   0  0  0  0  0  0  0  0  0  0  0  0
   45.7282   47.0127   43.9622 C   0  0  0  0  0  0  0  0  0  0  0  0
   47.0386   46.9697   44.5759 C   0  0  0  0  0  0  0  0  0  0  0  0
   47.2882   46.7245   45.9323 C   0  0  0  0  0  0  0  0  0  0  0  0
   48.5992   46.7329   46.3630 C   0  0  0  0  0  0  0  0  0  0  0  0
   49.5981   46.9491   45.4270 C   0  0  0  0  0  0  0  0  0  0  0  0
   49.3003   47.2224   44.1095 C   0  0  0  0  0  0  0  0  0  0  0  0
   37.5169   37.9842   41.9576 N   0  0  0  0  0  0  0  0  0  0  0  0
   37.6559   40.9296   40.6207 N   0  0  0  0  0  0  0  0  0  0  0  0
   45.1009   45.8931   43.8717 N   0  0  0  0  0  0  0  0  0  0  0  0
   48.0473   47.1941   43.6811 N   0  0  0  0  0  0  0  0  0  0  0  0
  1 17  2  0  0  0  0
  1 16  1  0  0  0  0
  2  3  2  0  0  0  0
  2 26  1  0  0  0  0
  3  4  1  0  0  0  0
  4  5  2  0  0  0  0
  5  6  1  0  0  0  0
  6  7  1  0  0  0  0
  6 26  2  0  0  0  0
  7 27  2  0  0  0  0
  8  9  2  0  0  0  0
  8 13  1  0  0  0  0
  8 27  1  0  0  0  0
  9 10  1  0  0  0  0
 10 11  2  0  0  0  0
 11 12  1  0  0  0  0
 11 14  1  0  0  0  0
 12 13  2  0  0  0  0
 14 15  1  0  0  0  0
 15 16  2  0  0  0  0
 15 19  1  0  0  0  0
 17 18  1  0  0  0  0
 17 28  1  0  0  0  0
 18 19  2  0  0  0  0
 20 21  1  0  0  0  0
 20 28  2  0  0  0  0
 21 22  2  0  0  0  0
 21 29  1  0  0  0  0
 22 23  1  0  0  0  0
 23 24  2  0  0  0  0
 24 25  1  0  0  0  0
 25 29  2  0  0  0  0
M  END
>  <CHROM.1>
67.55366352,91.50104509,89.83496518,-69.64874964,-91.09625877,84.52803661
41.70142599,43.56170930,42.27908372,0.62839443,-0.43707273,-0.08618234

>  <Name>
ligand

>  <RI>
0

>  <Rbt.Current_Directory>
/home/itssahil/PROJECTS/Mol_Feturizer/New_Systems/rnas/4JIY

>  <Rbt.Executable>
rbdock ($Id: //depot/dev/client3/rdock/2013.1/src/exe/rbdock.cxx#4 $)

>  <Rbt.Library>
libRbt.so (2013.1, Build901 2013/11/27)

>  <Rbt.Parameter_File>
/export/apps/rDock/src/rDock_2013.1_src/data/scripts/dock_solv.prm

>  <Rbt.Receptor>
prm/pocket_docking_2.prm

>  <SCORE>
10.0855

>  <SCORE.INTER>
11.4

>  <SCORE.INTER.CONST>
1

>  <SCORE.INTER.POLAR>
0

>  <SCORE.INTER.ROT>
6

>  <SCORE.INTER.SOLV>
-1.33227e-15

>  <SCORE.INTER.VDW>
0

>  <SCORE.INTER.norm>
0.393103

>  <SCORE.INTRA>
-1.31448

>  <SCORE.INTRA.DIHEDRAL>
-0.149808

>  <SCORE.INTRA.DIHEDRAL.0>
7.2424

>  <SCORE.INTRA.POLAR>
0

>  <SCORE.INTRA.POLAR.0>
0

>  <SCORE.INTRA.REPUL>
0

>  <SCORE.INTRA.REPUL.0>
0

>  <SCORE.INTRA.SOLV>
-0.0200752

>  <SCORE.INTRA.SOLV.lig_0>
-3.36201

>  <SCORE.INTRA.VDW>
-1.22954

>  <SCORE.INTRA.VDW.0>
-0.910526

>  <SCORE.INTRA.norm>
-0.0453268

>  <SCORE.RESTR>
0

>  <SCORE.RESTR.CAVITY>
0

>  <SCORE.RESTR.norm>
0

>  <SCORE.SYSTEM>
0

>  <SCORE.SYSTEM.CONST>
0

>  <SCORE.SYSTEM.DIHEDRAL>
0

>  <SCORE.SYSTEM.SOLV>
0

>  <SCORE.SYSTEM.norm>
0

>  <SCORE.heavy>
29

>  <SCORE.norm>
0.347777

>  <RMSD>
1.086

$$$$
ligand
 OpenBabel11021811493D
libRbt.so/2013.1/901 2013/11/27
 29 32  0  0  0  0  0  0  0  0999 V2000
   39.1958   43.0635   43.6400 C   0  0  0  0  0  0  0  0  0  0  0  0
   50.2350   48.3964   44.0391 C   0  0  0  0  0  0  0  0  0  0  0  0
   50.8467   47.9629   45.2230 C   0  0  0  0  0  0  0  0  0  0  0  0
   50.1050   47.5067   46.2564 C   0  0  0  0  0  0  0  0  0  0  0  0
   48.7219   47.5416   46.1422 C   0  0  0  0  0  0  0  0  0  0  0  0
   48.1541   47.9157   44.9531 C   0  0  0  0  0  0  0  0  0  0  0  0
   46.7263   47.8880   44.6433 C   0  0  0  0  0  0  0  0  0  0  0  0
   44.8096   46.6646   44.1530 C   0  0  0  0  0  0  0  0  0  0  0  0
   44.5238   46.5960   42.8037 C   0  0  0  0  0  0  0  0  0  0  0  0
   43.1896   46.6269   42.3940 C   0  0  0  0  0  0  0  0  0  0  0  0
   42.1529   46.6230   43.2905 C   0  0  0  0  0  0  0  0  0  0  0  0
   42.4809   46.6838   44.6621 C   0  0  0  0  0  0  0  0  0  0  0  0
   43.8011   46.7657   45.0902 C   0  0  0  0  0  0  0  0  0  0  0  0
   40.6976   46.5079   42.8420 C   0  0  0  0  0  0  0  0  0  0  0  0
   40.2209   45.0686   42.7042 C   0  0  0  0  0  0  0  0  0  0  0  0
   39.6398   44.3725   43.7331 C   0  0  0  0  0  0  0  0  0  0  0  0
   39.3391   42.4471   42.4259 C   0  0  0  0  0  0  0  0  0  0  0  0
   39.9167   43.1267   41.4105 C   0  0  0  0  0  0  0  0  0  0  0  0
   40.3720   44.4220   41.5095 C   0  0  0  0  0  0  0  0  0  0  0  0
   37.6776   40.9412   41.8243 C   0  0  0  0  0  0  0  0  0  0  0  0
   37.1784   39.5894   41.6874 C   0  0  0  0  0  0  0  0  0  0  0  0
   36.9161   38.7133   42.7484 C   0  0  0  0  0  0  0  0  0  0  0  0
   36.4568   37.4475   42.4468 C   0  0  0  0  0  0  0  0  0  0  0  0
   36.2475   37.1230   41.1157 C   0  0  0  0  0  0  0  0  0  0  0  0
   36.5554   38.0073   40.1045 C   0  0  0  0  0  0  0  0  0  0  0  0
   48.8977   48.3698   43.9105 N   0  0  0  0  0  0  0  0  0  0  0  0
   46.2017   46.6947   44.5802 N   0  0  0  0  0  0  0  0  0  0  0  0
   38.8986   41.0648   42.2107 N   0  0  0  0  0  0  0  0  0  0  0  0
   36.9750   39.2321   40.3837 N   0  0  0  0  0  0  0  0  0  0  0  0
  1 17  2  0  0  0  0
  1 16  1  0  0  0  0
  2  3  2  0  0  0  0
  2 26  1  0  0  0  0
  3  4  1  0  0  0  0
  4  5  2  0  0  0  0
  5  6  1  0  0  0  0
  6  7  1  0  0  0  0
  6 26  2  0  0  0  0
  7 27  2  0  0  0  0
  8  9  2  0  0  0  0
  8 13  1  0  0  0  0
  8 27  1  0  0  0  0
  9 10  1  0  0  0  0
 10 11  2  0  0  0  0
 11 12  1  0  0  0  0
 11 14  1  0  0  0  0
 12 13  2  0  0  0  0
 14 15  1  0  0  0  0
 15 16  2  0  0  0  0
 15 19  1  0  0  0  0
 17 18  1  0  0  0  0
 17 28  1  0  0  0  0
 18 19  2  0  0  0  0
 20 21  1  0  0  0  0
 20 28  2  0  0  0  0
 21 22  2  0  0  0  0
 21 29  1  0  0  0  0
 22 23  1  0  0  0  0
 23 24  2  0  0  0  0
 24 25  1  0  0  0  0
 25 29  2  0  0  0  0
M  END
>  <CHROM.1>
-67.10578847,87.84407312,90.44132799,70.28631277,88.07234897,89.31533271
42.31476110,44.25823183,43.19295270,2.49764568,0.24144464,-3.08066774

>  <Name>
ligand

>  <RI>
0

>  <Rbt.Current_Directory>
/home/itssahil/PROJECTS/Mol_Feturizer/New_Systems/rnas/4JIY

>  <Rbt.Executable>
rbdock ($Id: //depot/dev/client3/rdock/2013.1/src/exe/rbdock.cxx#4 $)

>  <Rbt.Library>
libRbt.so (2013.1, Build901 2013/11/27)

>  <Rbt.Parameter_File>
/export/apps/rDock/src/rDock_2013.1_src/data/scripts/dock_solv.prm

>  <Rbt.Receptor>
prm/pocket_docking_2.prm

>  <SCORE>
10.1462

>  <SCORE.INTER>
11.4

>  <SCORE.INTER.CONST>
1

>  <SCORE.INTER.POLAR>
0

>  <SCORE.INTER.ROT>
6

>  <SCORE.INTER.SOLV>
-8.88178e-16

>  <SCORE.INTER.VDW>
0

>  <SCORE.INTER.norm>
0.393103

>  <SCORE.INTRA>
-1.25384

>  <SCORE.INTRA.DIHEDRAL>
-0.0342352

>  <SCORE.INTRA.DIHEDRAL.0>
7.2424

>  <SCORE.INTRA.POLAR>
0

>  <SCORE.INTRA.POLAR.0>
0

>  <SCORE.INTRA.REPUL>
0

>  <SCORE.INTRA.REPUL.0>
0

>  <SCORE.INTRA.SOLV>
-0.0193432

>  <SCORE.INTRA.SOLV.lig_0>
-3.36201

>  <SCORE.INTRA.VDW>
-1.22705

>  <SCORE.INTRA.VDW.0>
-0.910526

>  <SCORE.INTRA.norm>
-0.0432357

>  <SCORE.RESTR>
0

>  <SCORE.RESTR.CAVITY>
0

>  <SCORE.RESTR.norm>
0

>  <SCORE.SYSTEM>
0

>  <SCORE.SYSTEM.CONST>
0

>  <SCORE.SYSTEM.DIHEDRAL>
0

>  <SCORE.SYSTEM.SOLV>
0

>  <SCORE.SYSTEM.norm>
0

>  <SCORE.heavy>
29

>  <SCORE.norm>
0.349868

>  <RMSD>
1.110

$$$$
ligand
 OpenBabel11021811493D
libRbt.so/2013.1/901 2013/11/27
 29 32  0  0  0  0  0  0  0  0999 V2000
   38.1534   43.0662   41.6079 C   0  0  0  0  0  0  0  0  0  0  0  0
   49.2881   47.4171   44.3934 C   0  0  0  0  0  0  0  0  0  0  0  0
   49.5082   47.0798   45.7356 C   0  0  0  0  0  0  0  0  0  0  0  0
   48.4713   46.8061   46.5577 C   0  0  0  0  0  0  0  0  0  0  0  0
   47.1820   46.9331   46.0587 C   0  0  0  0  0  0  0  0  0  0  0  0
   46.9991   47.2076   44.7292 C   0  0  0  0  0  0  0  0  0  0  0  0
   45.7133   47.2532   44.0365 C   0  0  0  0  0  0  0  0  0  0  0  0
   43.8878   46.1303   43.1321 C   0  0  0  0  0  0  0  0  0  0  0  0
   43.9694   45.9119   41.7710 C   0  0  0  0  0  0  0  0  0  0  0  0
   42.8068   45.9978   41.0029 C   0  0  0  0  0  0  0  0  0  0  0  0
   41.5738   46.1935   41.5684 C   0  0  0  0  0  0  0  0  0  0  0  0
   41.5258   46.4036   42.9635 C   0  0  0  0  0  0  0  0  0  0  0  0
   42.6828   46.4327   43.7338 C   0  0  0  0  0  0  0  0  0  0  0  0
   40.2893   46.1399   40.7442 C   0  0  0  0  0  0  0  0  0  0  0  0
   39.6595   44.7547   40.6980 C   0  0  0  0  0  0  0  0  0  0  0  0
   38.7443   44.3192   41.6220 C   0  0  0  0  0  0  0  0  0  0  0  0
   38.5062   42.2280   40.5844 C   0  0  0  0  0  0  0  0  0  0  0  0
   39.4121   42.6502   39.6748 C   0  0  0  0  0  0  0  0  0  0  0  0
   40.0105   43.8897   39.6997 C   0  0  0  0  0  0  0  0  0  0  0  0
   38.5609   39.9723   41.1314 C   0  0  0  0  0  0  0  0  0  0  0  0
   38.0852   38.6148   40.9694 C   0  0  0  0  0  0  0  0  0  0  0  0
   38.2254   37.8423   39.8092 C   0  0  0  0  0  0  0  0  0  0  0  0
   37.7003   36.5662   39.8116 C   0  0  0  0  0  0  0  0  0  0  0  0
   37.0941   36.1061   40.9699 C   0  0  0  0  0  0  0  0  0  0  0  0
   36.9478   36.9171   42.0744 C   0  0  0  0  0  0  0  0  0  0  0  0
   48.0401   47.4782   43.8991 N   0  0  0  0  0  0  0  0  0  0  0  0
   45.1079   46.1022   43.9270 N   0  0  0  0  0  0  0  0  0  0  0  0
   37.9386   40.8808   40.4661 N   0  0  0  0  0  0  0  0  0  0  0  0
   37.4680   38.1351   42.0907 N   0  0  0  0  0  0  0  0  0  0  0  0
  1 17  2  0  0  0  0
  1 16  1  0  0  0  0
  2  3  2  0  0  0  0
  2 26  1  0  0  0  0
  3  4  1  0  0  0  0
  4  5  2  0  0  0  0
  5  6  1  0  0  0  0
  6  7  1  0  0  0  0
  6 26  2  0  0  0  0
  7 27  2  0  0  0  0
  8  9  2  0  0  0  0
  8 13  1  0  0  0  0
  8 27  1  0  0  0  0
  9 10  1  0  0  0  0
 10 11  2  0  0  0  0
 11 12  1  0  0  0  0
 11 14  1  0  0  0  0
 12 13  2  0  0  0  0
 14 15  1  0  0  0  0
 15 16  2  0  0  0  0
 15 19  1  0  0  0  0
 17 18  1  0  0  0  0
 17 28  1  0  0  0  0
 18 19  2  0  0  0  0
 20 21  1  0  0  0  0
 20 28  2  0  0  0  0
 21 22  2  0  0  0  0
 21 29  1  0  0  0  0
 22 23  1  0  0  0  0
 23 24  2  0  0  0  0
 24 25  1  0  0  0  0
 25 29  2  0  0  0  0
M  END
>  <CHROM.1>
-67.75904053,91.48269402,89.47502926,70.22050720,89.44105042,-86.35918950
41.84599791,43.63862710,42.25819027,2.55078699,0.52940081,2.92958666

>  <Name>
ligand

>  <RI>
0

>  <Rbt.Current_Directory>
/home/itssahil/PROJECTS/Mol_Feturizer/New_Systems/rnas/4JIY

>  <Rbt.Executable>
rbdock ($Id: //depot/dev/client3/rdock/2013.1/src/exe/rbdock.cxx#4 $)

>  <Rbt.Library>
libRbt.so (2013.1, Build901 2013/11/27)

>  <Rbt.Parameter_File>
/export/apps/rDock/src/rDock_2013.1_src/data/scripts/dock_solv.prm

>  <Rbt.Receptor>
prm/pocket_docking_2.prm

>  <SCORE>
10.1706

>  <SCORE.INTER>
11.4

>  <SCORE.INTER.CONST>
1

>  <SCORE.INTER.POLAR>
0

>  <SCORE.INTER.ROT>
6

>  <SCORE.INTER.SOLV>
1.33227e-15

>  <SCORE.INTER.VDW>
0

>  <SCORE.INTER.norm>
0.393103

>  <SCORE.INTRA>
-1.22945

>  <SCORE.INTRA.DIHEDRAL>
0.00632995

>  <SCORE.INTRA.DIHEDRAL.0>
7.2424

>  <SCORE.INTRA.POLAR>
0

>  <SCORE.INTRA.POLAR.0>
0

>  <SCORE.INTRA.REPUL>
0

>  <SCORE.INTRA.REPUL.0>
0

>  <SCORE.INTRA.SOLV>
-0.0190442

>  <SCORE.INTRA.SOLV.lig_0>
-3.36201

>  <SCORE.INTRA.VDW>
-1.22309

>  <SCORE.INTRA.VDW.0>
-0.910526

>  <SCORE.INTRA.norm>
-0.0423948

>  <SCORE.RESTR>
0

>  <SCORE.RESTR.CAVITY>
0

>  <SCORE.RESTR.norm>
0

>  <SCORE.SYSTEM>
0

>  <SCORE.SYSTEM.CONST>
0

>  <SCORE.SYSTEM.DIHEDRAL>
0

>  <SCORE.SYSTEM.SOLV>
0

>  <SCORE.SYSTEM.norm>
0

>  <SCORE.heavy>
29

>  <SCORE.norm>
0.350709

>  <RMSD>
1.112

$$$$
ligand
 OpenBabel11021811493D
libRbt.so/2013.1/901 2013/11/27
 29 32  0  0  0  0  0  0  0  0999 V2000
   37.9960   43.1483   41.6034 C   0  0  0  0  0  0  0  0  0  0  0  0
   49.2571   47.3084   44.4001 C   0  0  0  0  0  0  0  0  0  0  0  0
   49.4748   46.9532   45.7380 C   0  0  0  0  0  0  0  0  0  0  0  0
   48.4356   46.6813   46.5580 C   0  0  0  0  0  0  0  0  0  0  0  0
   47.1474   46.8282   46.0618 C   0  0  0  0  0  0  0  0  0  0  0  0
   46.9663   47.1200   44.7358 C   0  0  0  0  0  0  0  0  0  0  0  0
   45.6804   47.1876   44.0450 C   0  0  0  0  0  0  0  0  0  0  0  0
   43.8285   46.0971   43.1549 C   0  0  0  0  0  0  0  0  0  0  0  0
   43.9019   45.8605   41.7964 C   0  0  0  0  0  0  0  0  0  0  0  0
   42.7401   45.9649   41.0294 C   0  0  0  0  0  0  0  0  0  0  0  0
   41.5133   46.1967   41.5949 C   0  0  0  0  0  0  0  0  0  0  0  0
   41.4733   46.4246   42.9874 C   0  0  0  0  0  0  0  0  0  0  0  0
   42.6323   46.4353   43.7552 C   0  0  0  0  0  0  0  0  0  0  0  0
   40.2261   46.1638   40.7737 C   0  0  0  0  0  0  0  0  0  0  0  0
   39.5741   44.7889   40.7288 C   0  0  0  0  0  0  0  0  0  0  0  0
   38.6082   44.3909   41.6174 C   0  0  0  0  0  0  0  0  0  0  0  0
   38.3817   42.2803   40.6173 C   0  0  0  0  0  0  0  0  0  0  0  0
   39.3375   42.6654   39.7428 C   0  0  0  0  0  0  0  0  0  0  0  0
   39.9564   43.8948   39.7683 C   0  0  0  0  0  0  0  0  0  0  0  0
   38.3744   40.0358   41.2110 C   0  0  0  0  0  0  0  0  0  0  0  0
   37.8821   38.6833   41.0564 C   0  0  0  0  0  0  0  0  0  0  0  0
   38.0576   37.8843   39.9193 C   0  0  0  0  0  0  0  0  0  0  0  0
   37.5104   36.6175   39.9252 C   0  0  0  0  0  0  0  0  0  0  0  0
   36.8476   36.1921   41.0657 C   0  0  0  0  0  0  0  0  0  0  0  0
   36.6690   37.0287   42.1462 C   0  0  0  0  0  0  0  0  0  0  0  0
   48.0095   47.3887   43.9078 N   0  0  0  0  0  0  0  0  0  0  0  0
   45.0492   46.0494   43.9479 N   0  0  0  0  0  0  0  0  0  0  0  0
   37.7960   40.9406   40.5024 N   0  0  0  0  0  0  0  0  0  0  0  0
   37.2096   38.2378   42.1599 N   0  0  0  0  0  0  0  0  0  0  0  0
  1 17  2  0  0  0  0
  1 16  1  0  0  0  0
  2  3  2  0  0  0  0
  2 26  1  0  0  0  0
  3  4  1  0  0  0  0
  4  5  2  0  0  0  0
  5  6  1  0  0  0  0
  6  7  1  0  0  0  0
  6 26  2  0  0  0  0
  7 27  2  0  0  0  0
  8  9  2  0  0  0  0
  8 13  1  0  0  0  0
  8 27  1  0  0  0  0
  9 10  1  0  0  0  0
 10 11  2  0  0  0  0
 11 12  1  0  0  0  0
 11 14  1  0  0  0  0
 12 13  2  0  0  0  0
 14 15  1  0  0  0  0
 15 16  2  0  0  0  0
 15 19  1  0  0  0  0
 17 18  1  0  0  0  0
 17 28  1  0  0  0  0
 18 19  2  0  0  0  0
 20 21  1  0  0  0  0
 20 28  2  0  0  0  0
 21 22  2  0  0  0  0
 21 29  1  0  0  0  0
 22 23  1  0  0  0  0
 23 24  2  0  0  0  0
 24 25  1  0  0  0  0
 25 29  2  0  0  0  0
M  END
>  <CHROM.1>
-66.37173229,90.65194262,92.64912607,70.29739111,89.59296125,-86.76739359
41.74180333,43.63947725,42.29560969,2.57033379,0.52138987,2.91602376

>  <Name>
ligand

>  <RI>
0

>  <Rbt.Current_Directory>
/home/itssahil/PROJECTS/Mol_Feturizer/New_Systems/rnas/4JIY

>  <Rbt.Executable>
rbdock ($Id: //depot/dev/client3/rdock/2013.1/src/exe/rbdock.cxx#4 $)

>  <Rbt.Library>
libRbt.so (2013.1, Build901 2013/11/27)

>  <Rbt.Parameter_File>
/export/apps/rDock/src/rDock_2013.1_src/data/scripts/dock_solv.prm

>  <Rbt.Receptor>
prm/pocket_docking_2.prm

>  <SCORE>
10.171

>  <SCORE.INTER>
11.4

>  <SCORE.INTER.CONST>
1

>  <SCORE.INTER.POLAR>
0

>  <SCORE.INTER.ROT>
6

>  <SCORE.INTER.SOLV>
0

>  <SCORE.INTER.VDW>
0

>  <SCORE.INTER.norm>
0.393103

>  <SCORE.INTRA>
-1.22903

>  <SCORE.INTRA.DIHEDRAL>
0.000112647

>  <SCORE.INTRA.DIHEDRAL.0>
7.2424

>  <SCORE.INTRA.POLAR>
0

>  <SCORE.INTRA.POLAR.0>
0

>  <SCORE.INTRA.REPUL>
0

>  <SCORE.INTRA.REPUL.0>
0

>  <SCORE.INTRA.SOLV>
-0.0190789

>  <SCORE.INTRA.SOLV.lig_0>
-3.36201

>  <SCORE.INTRA.VDW>
-1.21954

>  <SCORE.INTRA.VDW.0>
-0.910526

>  <SCORE.INTRA.norm>
-0.0423803

>  <SCORE.RESTR>
0

>  <SCORE.RESTR.CAVITY>
0

>  <SCORE.RESTR.norm>
0

>  <SCORE.SYSTEM>
0

>  <SCORE.SYSTEM.CONST>
0

>  <SCORE.SYSTEM.DIHEDRAL>
0

>  <SCORE.SYSTEM.SOLV>
0

>  <SCORE.SYSTEM.norm>
0

>  <SCORE.heavy>
29

>  <SCORE.norm>
0.350723

>  <RMSD>
1.115

$$$$
ligand
 OpenBabel11021811493D
libRbt.so/2013.1/901 2013/11/27
 29 32  0  0  0  0  0  0  0  0999 V2000
   43.2977   46.1662   44.0531 C   0  0  0  0  0  0  0  0  0  0  0  0
   37.1204   37.3449   41.4116 C   0  0  0  0  0  0  0  0  0  0  0  0
   36.9695   36.7987   40.1299 C   0  0  0  0  0  0  0  0  0  0  0  0
   37.3436   37.4953   39.0341 C   0  0  0  0  0  0  0  0  0  0  0  0
   37.8171   38.7892   39.2044 C   0  0  0  0  0  0  0  0  0  0  0  0
   38.0077   39.2747   40.4709 C   0  0  0  0  0  0  0  0  0  0  0  0
   38.6072   40.5636   40.8093 C   0  0  0  0  0  0  0  0  0  0  0  0
   38.5523   42.8864   40.6955 C   0  0  0  0  0  0  0  0  0  0  0  0
   38.3866   43.5158   41.9134 C   0  0  0  0  0  0  0  0  0  0  0  0
   38.9654   44.7711   42.1086 C   0  0  0  0  0  0  0  0  0  0  0  0
   39.7740   45.3538   41.1679 C   0  0  0  0  0  0  0  0  0  0  0  0
   39.9295   44.6786   39.9380 C   0  0  0  0  0  0  0  0  0  0  0  0
   39.2735   43.4804   39.6793 C   0  0  0  0  0  0  0  0  0  0  0  0
   40.5234   46.6559   41.4418 C   0  0  0  0  0  0  0  0  0  0  0  0
   41.8879   46.4434   42.0827 C   0  0  0  0  0  0  0  0  0  0  0  0
   42.0708   46.3591   43.4393 C   0  0  0  0  0  0  0  0  0  0  0  0
   44.3857   46.0351   43.2323 C   0  0  0  0  0  0  0  0  0  0  0  0
   44.2116   46.1234   41.8950 C   0  0  0  0  0  0  0  0  0  0  0  0
   42.9938   46.3313   41.2875 C   0  0  0  0  0  0  0  0  0  0  0  0
   46.3603   46.8953   44.0988 C   0  0  0  0  0  0  0  0  0  0  0  0
   47.7255   46.7318   44.5517 C   0  0  0  0  0  0  0  0  0  0  0  0
   48.1163   46.0492   45.7108 C   0  0  0  0  0  0  0  0  0  0  0  0
   49.4621   45.9973   46.0111 C   0  0  0  0  0  0  0  0  0  0  0  0
   50.3555   46.5924   45.1344 C   0  0  0  0  0  0  0  0  0  0  0  0
   49.9196   47.2845   44.0253 C   0  0  0  0  0  0  0  0  0  0  0  0
   37.6373   38.5744   41.5748 N   0  0  0  0  0  0  0  0  0  0  0  0
   37.8988   41.6050   40.4671 N   0  0  0  0  0  0  0  0  0  0  0  0
   45.7325   45.8209   43.7721 N   0  0  0  0  0  0  0  0  0  0  0  0
   48.6323   47.3210   43.7156 N   0  0  0  0  0  0  0  0  0  0  0  0
  1 17  2  0  0  0  0
  1 16  1  0  0  0  0
  2  3  2  0  0  0  0
  2 26  1  0  0  0  0
  3  4  1  0  0  0  0
  4  5  2  0  0  0  0
  5  6  1  0  0  0  0
  6  7  1  0  0  0  0
  6 26  2  0  0  0  0
  7 27  2  0  0  0  0
  8  9  2  0  0  0  0
  8 13  1  0  0  0  0
  8 27  1  0  0  0  0
  9 10  1  0  0  0  0
 10 11  2  0  0  0  0
 11 12  1  0  0  0  0
 11 14  1  0  0  0  0
 12 13  2  0  0  0  0
 14 15  1  0  0  0  0
 15 16  2  0  0  0  0
 15 19  1  0  0  0  0
 17 18  1  0  0  0  0
 17 28  1  0  0  0  0
 18 19  2  0  0  0  0
 20 21  1  0  0  0  0
 20 28  2  0  0  0  0
 21 22  2  0  0  0  0
 21 29  1  0  0  0  0
 22 23  1  0  0  0  0
 23 24  2  0  0  0  0
 24 25  1  0  0  0  0
 25 29  2  0  0  0  0
M  END
>  <CHROM.1>
67.60703050,87.85538916,-88.11375501,-64.25094889,-89.63950569,-85.26189034
42.13690032,43.86312545,42.17643470,0.56786778,-0.39894681,-0.03519233

>  <Name>
ligand

>  <RI>
0

>  <Rbt.Current_Directory>
/home/itssahil/PROJECTS/Mol_Feturizer/New_Systems/rnas/4JIY

>  <Rbt.Executable>
rbdock ($Id: //depot/dev/client3/rdock/2013.1/src/exe/rbdock.cxx#4 $)

>  <Rbt.Library>
libRbt.so (2013.1, Build901 2013/11/27)

>  <Rbt.Parameter_File>
/export/apps/rDock/src/rDock_2013.1_src/data/scripts/dock_solv.prm

>  <Rbt.Receptor>
prm/pocket_docking_2.prm

>  <SCORE>
10.1292

>  <SCORE.INTER>
11.4

>  <SCORE.INTER.CONST>
1

>  <SCORE.INTER.POLAR>
0

>  <SCORE.INTER.ROT>
6

>  <SCORE.INTER.SOLV>
-4.44089e-16

>  <SCORE.INTER.VDW>
0

>  <SCORE.INTER.norm>
0.393103

>  <SCORE.INTRA>
-1.27075

>  <SCORE.INTRA.DIHEDRAL>
-0.12529

>  <SCORE.INTRA.DIHEDRAL.0>
7.2424

>  <SCORE.INTRA.POLAR>
0

>  <SCORE.INTRA.POLAR.0>
0

>  <SCORE.INTRA.REPUL>
0

>  <SCORE.INTRA.REPUL.0>
0

>  <SCORE.INTRA.SOLV>
-0.0198889

>  <SCORE.INTRA.SOLV.lig_0>
-3.36201

>  <SCORE.INTRA.VDW>
-1.19816

>  <SCORE.INTRA.VDW.0>
-0.910526

>  <SCORE.INTRA.norm>
-0.043819

>  <SCORE.RESTR>
0

>  <SCORE.RESTR.CAVITY>
0

>  <SCORE.RESTR.norm>
0

>  <SCORE.SYSTEM>
0

>  <SCORE.SYSTEM.CONST>
0

>  <SCORE.SYSTEM.DIHEDRAL>
0

>  <SCORE.SYSTEM.SOLV>
0

>  <SCORE.SYSTEM.norm>
0

>  <SCORE.heavy>
29

>  <SCORE.norm>
0.349284

>  <RMSD>
1.122

$$$$
ligand
 OpenBabel11021811493D
libRbt.so/2013.1/901 2013/11/27
 29 32  0  0  0  0  0  0  0  0999 V2000
   44.0745   47.5416   42.7649 C   0  0  0  0  0  0  0  0  0  0  0  0
   37.6150   37.7109   39.1629 C   0  0  0  0  0  0  0  0  0  0  0  0
   36.9798   36.8654   40.0822 C   0  0  0  0  0  0  0  0  0  0  0  0
   36.7317   37.2797   41.3443 C   0  0  0  0  0  0  0  0  0  0  0  0
   37.1814   38.5362   41.7268 C   0  0  0  0  0  0  0  0  0  0  0  0
   37.7469   39.3619   40.7917 C   0  0  0  0  0  0  0  0  0  0  0  0
   38.1567   40.7470   41.0129 C   0  0  0  0  0  0  0  0  0  0  0  0
   39.4602   42.2864   42.1715 C   0  0  0  0  0  0  0  0  0  0  0  0
   40.4320   42.9290   41.4300 C   0  0  0  0  0  0  0  0  0  0  0  0
   40.7825   44.2377   41.7668 C   0  0  0  0  0  0  0  0  0  0  0  0
   40.1251   44.9384   42.7442 C   0  0  0  0  0  0  0  0  0  0  0  0
   39.1307   44.2541   43.4759 C   0  0  0  0  0  0  0  0  0  0  0  0
   38.8412   42.9163   43.2324 C   0  0  0  0  0  0  0  0  0  0  0  0
   40.4103   46.4150   43.0100 C   0  0  0  0  0  0  0  0  0  0  0  0
   41.8656   46.6953   43.3580 C   0  0  0  0  0  0  0  0  0  0  0  0
   42.7456   47.2736   42.4793 C   0  0  0  0  0  0  0  0  0  0  0  0
   44.5146   47.2167   44.0201 C   0  0  0  0  0  0  0  0  0  0  0  0
   43.6530   46.6410   44.8876 C   0  0  0  0  0  0  0  0  0  0  0  0
   42.3370   46.3606   44.5965 C   0  0  0  0  0  0  0  0  0  0  0  0
   46.7267   46.5217   44.1367 C   0  0  0  0  0  0  0  0  0  0  0  0
   48.0857   46.6854   44.6075 C   0  0  0  0  0  0  0  0  0  0  0  0
   48.4973   46.5776   45.9421 C   0  0  0  0  0  0  0  0  0  0  0  0
   49.8323   46.7783   46.2281 C   0  0  0  0  0  0  0  0  0  0  0  0
   50.6980   47.0413   45.1782 C   0  0  0  0  0  0  0  0  0  0  0  0
   50.2391   47.1740   43.8855 C   0  0  0  0  0  0  0  0  0  0  0  0
   37.9928   38.9498   39.5206 N   0  0  0  0  0  0  0  0  0  0  0  0
   39.1358   40.9006   41.8620 N   0  0  0  0  0  0  0  0  0  0  0  0
   45.9001   47.4615   44.4343 N   0  0  0  0  0  0  0  0  0  0  0  0
   48.9641   46.9609   43.5970 N   0  0  0  0  0  0  0  0  0  0  0  0
  1 17  2  0  0  0  0
  1 16  1  0  0  0  0
  2  3  2  0  0  0  0
  2 26  1  0  0  0  0
  3  4  1  0  0  0  0
  4  5  2  0  0  0  0
  5  6  1  0  0  0  0
  6  7  1  0  0  0  0
  6 26  2  0  0  0  0
  7 27  2  0  0  0  0
  8  9  2  0  0  0  0
  8 13  1  0  0  0  0
  8 27  1  0  0  0  0
  9 10  1  0  0  0  0
 10 11  2  0  0  0  0
 11 12  1  0  0  0  0
 11 14  1  0  0  0  0
 12 13  2  0  0  0  0
 14 15  1  0  0  0  0
 15 16  2  0  0  0  0
 15 19  1  0  0  0  0
 17 18  1  0  0  0  0
 17 28  1  0  0  0  0
 18 19  2  0  0  0  0
 20 21  1  0  0  0  0
 20 28  2  0  0  0  0
 21 22  2  0  0  0  0
 21 29  1  0  0  0  0
 22 23  1  0  0  0  0
 23 24  2  0  0  0  0
 24 25  1  0  0  0  0
 25 29  2  0  0  0  0
M  END
>  <CHROM.1>
65.20273668,-58.16389422,105.06605592,71.47080744,-92.21982019,-86.17166194
42.37754516,43.97715949,42.86501395,0.69358078,-0.14289443,0.27980043

>  <Name>
ligand

>  <RI>
0

>  <Rbt.Current_Directory>
/home/itssahil/PROJECTS/Mol_Feturizer/New_Systems/rnas/4JIY

>  <Rbt.Executable>
rbdock ($Id: //depot/dev/client3/rdock/2013.1/src/exe/rbdock.cxx#4 $)

>  <Rbt.Library>
libRbt.so (2013.1, Build901 2013/11/27)

>  <Rbt.Parameter_File>
/export/apps/rDock/src/rDock_2013.1_src/data/scripts/dock_solv.prm

>  <Rbt.Receptor>
prm/pocket_docking_2.prm

>  <SCORE>
10.2575

>  <SCORE.INTER>
11.4

>  <SCORE.INTER.CONST>
1

>  <SCORE.INTER.POLAR>
0

>  <SCORE.INTER.ROT>
6

>  <SCORE.INTER.SOLV>
0

>  <SCORE.INTER.VDW>
0

>  <SCORE.INTER.norm>
0.393103

>  <SCORE.INTRA>
-1.14246

>  <SCORE.INTRA.DIHEDRAL>
-0.00322738

>  <SCORE.INTRA.DIHEDRAL.0>
7.2424

>  <SCORE.INTRA.POLAR>
0

>  <SCORE.INTRA.POLAR.0>
0

>  <SCORE.INTRA.REPUL>
0

>  <SCORE.INTRA.REPUL.0>
0

>  <SCORE.INTRA.SOLV>
-0.0199281

>  <SCORE.INTRA.SOLV.lig_0>
-3.36201

>  <SCORE.INTRA.VDW>
-1.13088

>  <SCORE.INTRA.VDW.0>
-0.910526

>  <SCORE.INTRA.norm>
-0.0393951

>  <SCORE.RESTR>
0

>  <SCORE.RESTR.CAVITY>
0

>  <SCORE.RESTR.norm>
0

>  <SCORE.SYSTEM>
0

>  <SCORE.SYSTEM.CONST>
0

>  <SCORE.SYSTEM.DIHEDRAL>
0

>  <SCORE.SYSTEM.SOLV>
0

>  <SCORE.SYSTEM.norm>
0

>  <SCORE.heavy>
29

>  <SCORE.norm>
0.353708

>  <RMSD>
1.147

$$$$
ligand
 OpenBabel11021811493D
libRbt.so/2013.1/901 2013/11/27
 29 32  0  0  0  0  0  0  0  0999 V2000
   42.9451   45.8779   44.3017 C   0  0  0  0  0  0  0  0  0  0  0  0
   36.3704   36.5374   39.5886 C   0  0  0  0  0  0  0  0  0  0  0  0
   36.3032   35.6350   40.6585 C   0  0  0  0  0  0  0  0  0  0  0  0
   36.5922   36.0334   41.9170 C   0  0  0  0  0  0  0  0  0  0  0  0
   37.0221   37.3387   42.1137 C   0  0  0  0  0  0  0  0  0  0  0  0
   37.0226   38.2131   41.0594 C   0  0  0  0  0  0  0  0  0  0  0  0
   37.3316   39.6394   41.1339 C   0  0  0  0  0  0  0  0  0  0  0  0
   38.8361   41.3352   41.6554 C   0  0  0  0  0  0  0  0  0  0  0  0
   38.6633   41.8876   42.9092 C   0  0  0  0  0  0  0  0  0  0  0  0
   38.8684   43.2583   43.0767 C   0  0  0  0  0  0  0  0  0  0  0  0
   39.3310   44.0543   42.0614 C   0  0  0  0  0  0  0  0  0  0  0  0
   39.5059   43.4550   40.7954 C   0  0  0  0  0  0  0  0  0  0  0  0
   39.2021   42.1159   40.5774 C   0  0  0  0  0  0  0  0  0  0  0  0
   39.6946   45.5205   42.2861 C   0  0  0  0  0  0  0  0  0  0  0  0
   41.1582   45.7303   42.6486 C   0  0  0  0  0  0  0  0  0  0  0  0
   41.6211   45.6913   43.9391 C   0  0  0  0  0  0  0  0  0  0  0  0
   43.8387   46.0965   43.2876 C   0  0  0  0  0  0  0  0  0  0  0  0
   43.3867   46.1419   42.0148 C   0  0  0  0  0  0  0  0  0  0  0  0
   42.0680   45.9723   41.6578 C   0  0  0  0  0  0  0  0  0  0  0  0
   45.6025   47.5195   43.7917 C   0  0  0  0  0  0  0  0  0  0  0  0
   47.0160   47.7753   43.9711 C   0  0  0  0  0  0  0  0  0  0  0  0
   47.7808   47.3544   45.0665 C   0  0  0  0  0  0  0  0  0  0  0  0
   49.1178   47.6949   45.0941 C   0  0  0  0  0  0  0  0  0  0  0  0
   49.6387   48.4037   44.0231 C   0  0  0  0  0  0  0  0  0  0  0  0
   48.8374   48.8273   42.9849 C   0  0  0  0  0  0  0  0  0  0  0  0
   36.7274   37.8165   39.7938 N   0  0  0  0  0  0  0  0  0  0  0  0
   38.5634   39.9173   41.4639 N   0  0  0  0  0  0  0  0  0  0  0  0
   45.2664   46.3005   43.5542 N   0  0  0  0  0  0  0  0  0  0  0  0
   47.5584   48.4865   42.9374 N   0  0  0  0  0  0  0  0  0  0  0  0
  1 17  2  0  0  0  0
  1 16  1  0  0  0  0
  2  3  2  0  0  0  0
  2 26  1  0  0  0  0
  3  4  1  0  0  0  0
  4  5  2  0  0  0  0
  5  6  1  0  0  0  0
  6  7  1  0  0  0  0
  6 26  2  0  0  0  0
  7 27  2  0  0  0  0
  8  9  2  0  0  0  0
  8 13  1  0  0  0  0
  8 27  1  0  0  0  0
  9 10  1  0  0  0  0
 10 11  2  0  0  0  0
 11 12  1  0  0  0  0
 11 14  1  0  0  0  0
 12 13  2  0  0  0  0
 14 15  1  0  0  0  0
 15 16  2  0  0  0  0
 15 19  1  0  0  0  0
 17 18  1  0  0  0  0
 17 28  1  0  0  0  0
 18 19  2  0  0  0  0
 20 21  1  0  0  0  0
 20 28  2  0  0  0  0
 21 22  2  0  0  0  0
 21 29  1  0  0  0  0
 22 23  1  0  0  0  0
 23 24  2  0  0  0  0
 24 25  1  0  0  0  0
 25 29  2  0  0  0  0
M  END
>  <CHROM.1>
65.64638448,91.36221224,-88.18914703,-69.62052017,89.57299402,-87.45143284
41.58043847,43.47455831,42.41488746,0.76072905,-0.21183666,0.06758836

>  <Name>
ligand

>  <RI>
0

>  <Rbt.Current_Directory>
/home/itssahil/PROJECTS/Mol_Feturizer/New_Systems/rnas/4JIY

>  <Rbt.Executable>
rbdock ($Id: //depot/dev/client3/rdock/2013.1/src/exe/rbdock.cxx#4 $)

>  <Rbt.Library>
libRbt.so (2013.1, Build901 2013/11/27)

>  <Rbt.Parameter_File>
/export/apps/rDock/src/rDock_2013.1_src/data/scripts/dock_solv.prm

>  <Rbt.Receptor>
prm/pocket_docking_2.prm

>  <SCORE>
10.1992

>  <SCORE.INTER>
11.4

>  <SCORE.INTER.CONST>
1

>  <SCORE.INTER.POLAR>
0

>  <SCORE.INTER.ROT>
6

>  <SCORE.INTER.SOLV>
-1.33227e-15

>  <SCORE.INTER.VDW>
0

>  <SCORE.INTER.norm>
0.393103

>  <SCORE.INTRA>
-1.20083

>  <SCORE.INTRA.DIHEDRAL>
0.0143417

>  <SCORE.INTRA.DIHEDRAL.0>
7.2424

>  <SCORE.INTRA.POLAR>
0

>  <SCORE.INTRA.POLAR.0>
0

>  <SCORE.INTRA.REPUL>
0

>  <SCORE.INTRA.REPUL.0>
0

>  <SCORE.INTRA.SOLV>
-0.0188509

>  <SCORE.INTRA.SOLV.lig_0>
-3.36201

>  <SCORE.INTRA.VDW>
-1.19858

>  <SCORE.INTRA.VDW.0>
-0.910526

>  <SCORE.INTRA.norm>
-0.0414081

>  <SCORE.RESTR>
0

>  <SCORE.RESTR.CAVITY>
0

>  <SCORE.RESTR.norm>
0

>  <SCORE.SYSTEM>
0

>  <SCORE.SYSTEM.CONST>
0

>  <SCORE.SYSTEM.DIHEDRAL>
0

>  <SCORE.SYSTEM.SOLV>
0

>  <SCORE.SYSTEM.norm>
0

>  <SCORE.heavy>
29

>  <SCORE.norm>
0.351695

>  <RMSD>
1.157

$$$$
ligand
 OpenBabel11021811493D
libRbt.so/2013.1/901 2013/11/27
 29 32  0  0  0  0  0  0  0  0999 V2000
   38.9937   42.6526   40.4266 C   0  0  0  0  0  0  0  0  0  0  0  0
   49.0448   48.9168   44.7672 C   0  0  0  0  0  0  0  0  0  0  0  0
   50.0735   48.3022   44.0408 C   0  0  0  0  0  0  0  0  0  0  0  0
   49.7924   47.4880   42.9996 C   0  0  0  0  0  0  0  0  0  0  0  0
   48.4608   47.2222   42.7104 C   0  0  0  0  0  0  0  0  0  0  0  0
   47.4779   47.8817   43.3997 C   0  0  0  0  0  0  0  0  0  0  0  0
   46.0441   47.7985   43.1303 C   0  0  0  0  0  0  0  0  0  0  0  0
   44.1119   46.5141   42.9626 C   0  0  0  0  0  0  0  0  0  0  0  0
   43.7989   46.1209   41.6763 C   0  0  0  0  0  0  0  0  0  0  0  0
   42.4573   46.0712   41.2935 C   0  0  0  0  0  0  0  0  0  0  0  0
   41.4385   46.3036   42.1803 C   0  0  0  0  0  0  0  0  0  0  0  0
   41.7941   46.6939   43.4894 C   0  0  0  0  0  0  0  0  0  0  0  0
   43.1233   46.8578   43.8626 C   0  0  0  0  0  0  0  0  0  0  0  0
   39.9735   46.1046   41.7977 C   0  0  0  0  0  0  0  0  0  0  0  0
   39.5640   44.6404   41.7191 C   0  0  0  0  0  0  0  0  0  0  0  0
   39.3660   43.9829   40.5319 C   0  0  0  0  0  0  0  0  0  0  0  0
   38.8355   41.9605   41.5973 C   0  0  0  0  0  0  0  0  0  0  0  0
   39.0235   42.6055   42.7700 C   0  0  0  0  0  0  0  0  0  0  0  0
   39.3777   43.9318   42.8729 C   0  0  0  0  0  0  0  0  0  0  0  0
   37.1820   40.3314   41.5503 C   0  0  0  0  0  0  0  0  0  0  0  0
   36.7567   38.9511   41.6466 C   0  0  0  0  0  0  0  0  0  0  0  0
   36.8186   38.1651   42.8045 C   0  0  0  0  0  0  0  0  0  0  0  0
   36.3861   36.8571   42.7252 C   0  0  0  0  0  0  0  0  0  0  0  0
   35.8832   36.4023   41.5165 C   0  0  0  0  0  0  0  0  0  0  0  0
   35.8768   37.2030   40.3948 C   0  0  0  0  0  0  0  0  0  0  0  0
   47.7579   48.7050   44.4437 N   0  0  0  0  0  0  0  0  0  0  0  0
   45.5124   46.6263   43.3465 N   0  0  0  0  0  0  0  0  0  0  0  0
   38.4495   40.5456   41.6057 N   0  0  0  0  0  0  0  0  0  0  0  0
   36.2682   38.4664   40.4655 N   0  0  0  0  0  0  0  0  0  0  0  0
  1 17  2  0  0  0  0
  1 16  1  0  0  0  0
  2  3  2  0  0  0  0
  2 26  1  0  0  0  0
  3  4  1  0  0  0  0
  4  5  2  0  0  0  0
  5  6  1  0  0  0  0
  6  7  1  0  0  0  0
  6 26  2  0  0  0  0
  7 27  2  0  0  0  0
  8  9  2  0  0  0  0
  8 13  1  0  0  0  0
  8 27  1  0  0  0  0
  9 10  1  0  0  0  0
 10 11  2  0  0  0  0
 11 12  1  0  0  0  0
 11 14  1  0  0  0  0
 12 13  2  0  0  0  0
 14 15  1  0  0  0  0
 15 16  2  0  0  0  0
 15 19  1  0  0  0  0
 17 18  1  0  0  0  0
 17 28  1  0  0  0  0
 18 19  2  0  0  0  0
 20 21  1  0  0  0  0
 20 28  2  0  0  0  0
 21 22  2  0  0  0  0
 21 29  1  0  0  0  0
 22 23  1  0  0  0  0
 23 24  2  0  0  0  0
 24 25  1  0  0  0  0
 25 29  2  0  0  0  0
M  END
>  <CHROM.1>
65.78386079,74.66165171,-105.20664888,70.61542668,89.36244034,-85.67422415
41.70785780,43.94636942,42.36865925,2.46437408,0.24399965,3.07200114

>  <Name>
ligand

>  <RI>
0

>  <Rbt.Current_Directory>
/home/itssahil/PROJECTS/Mol_Feturizer/New_Systems/rnas/4JIY

>  <Rbt.Executable>
rbdock ($Id: //depot/dev/client3/rdock/2013.1/src/exe/rbdock.cxx#4 $)

>  <Rbt.Library>
libRbt.so (2013.1, Build901 2013/11/27)

>  <Rbt.Parameter_File>
/export/apps/rDock/src/rDock_2013.1_src/data/scripts/dock_solv.prm

>  <Rbt.Receptor>
prm/pocket_docking_2.prm

>  <SCORE>
10.203

>  <SCORE.INTER>
11.4

>  <SCORE.INTER.CONST>
1

>  <SCORE.INTER.POLAR>
0

>  <SCORE.INTER.ROT>
6

>  <SCORE.INTER.SOLV>
-1.33227e-15

>  <SCORE.INTER.VDW>
0

>  <SCORE.INTER.norm>
0.393103

>  <SCORE.INTRA>
-1.19697

>  <SCORE.INTRA.DIHEDRAL>
0.0491044

>  <SCORE.INTRA.DIHEDRAL.0>
7.2424

>  <SCORE.INTRA.POLAR>
0

>  <SCORE.INTRA.POLAR.0>
0

>  <SCORE.INTRA.REPUL>
0

>  <SCORE.INTRA.REPUL.0>
0

>  <SCORE.INTRA.SOLV>
-0.0189465

>  <SCORE.INTRA.SOLV.lig_0>
-3.36201

>  <SCORE.INTRA.VDW>
-1.21205

>  <SCORE.INTRA.VDW.0>
-0.910526

>  <SCORE.INTRA.norm>
-0.041275

>  <SCORE.RESTR>
0

>  <SCORE.RESTR.CAVITY>
0

>  <SCORE.RESTR.norm>
0

>  <SCORE.SYSTEM>
0

>  <SCORE.SYSTEM.CONST>
0

>  <SCORE.SYSTEM.DIHEDRAL>
0

>  <SCORE.SYSTEM.SOLV>
0

>  <SCORE.SYSTEM.norm>
0

>  <SCORE.heavy>
29

>  <SCORE.norm>
0.351828

>  <RMSD>
1.167

$$$$
ligand
 OpenBabel11021811493D
libRbt.so/2013.1/901 2013/11/27
 29 32  0  0  0  0  0  0  0  0999 V2000
   43.9269   45.8298   41.7274 C   0  0  0  0  0  0  0  0  0  0  0  0
   36.9448   36.8881   41.7681 C   0  0  0  0  0  0  0  0  0  0  0  0
   36.8601   36.2164   40.5412 C   0  0  0  0  0  0  0  0  0  0  0  0
   37.2658   36.8124   39.3982 C   0  0  0  0  0  0  0  0  0  0  0  0
   37.7042   38.1282   39.4597 C   0  0  0  0  0  0  0  0  0  0  0  0
   37.8306   38.7391   40.6792 C   0  0  0  0  0  0  0  0  0  0  0  0
   38.3879   40.0695   40.9133 C   0  0  0  0  0  0  0  0  0  0  0  0
   38.3149   42.3635   40.5347 C   0  0  0  0  0  0  0  0  0  0  0  0
   38.0112   43.1423   41.6338 C   0  0  0  0  0  0  0  0  0  0  0  0
   38.5603   44.4225   41.7263 C   0  0  0  0  0  0  0  0  0  0  0  0
   39.4678   44.8927   40.8131 C   0  0  0  0  0  0  0  0  0  0  0  0
   39.7628   44.0666   39.7071 C   0  0  0  0  0  0  0  0  0  0  0  0
   39.1439   42.8335   39.5360 C   0  0  0  0  0  0  0  0  0  0  0  0
   40.1775   46.2325   40.9959 C   0  0  0  0  0  0  0  0  0  0  0  0
   41.5052   46.1165   41.7317 C   0  0  0  0  0  0  0  0  0  0  0  0
   42.7030   45.9388   41.0876 C   0  0  0  0  0  0  0  0  0  0  0  0
   43.9213   45.9268   43.0931 C   0  0  0  0  0  0  0  0  0  0  0  0
   42.7430   46.0958   43.7329 C   0  0  0  0  0  0  0  0  0  0  0  0
   41.5257   46.1877   43.0964 C   0  0  0  0  0  0  0  0  0  0  0  0
   45.8046   46.9383   43.9988 C   0  0  0  0  0  0  0  0  0  0  0  0
   47.0766   46.8685   44.6862 C   0  0  0  0  0  0  0  0  0  0  0  0
   47.2427   46.6305   46.0566 C   0  0  0  0  0  0  0  0  0  0  0  0
   48.5270   46.6103   46.5610 C   0  0  0  0  0  0  0  0  0  0  0  0
   49.5826   46.7920   45.6815 C   0  0  0  0  0  0  0  0  0  0  0  0
   49.3668   47.0596   44.3469 C   0  0  0  0  0  0  0  0  0  0  0  0
   37.4283   38.1402   41.8306 N   0  0  0  0  0  0  0  0  0  0  0  0
   37.6953   41.0518   40.4047 N   0  0  0  0  0  0  0  0  0  0  0  0
   45.1593   45.8323   43.8738 N   0  0  0  0  0  0  0  0  0  0  0  0
   48.1397   47.0586   43.8483 N   0  0  0  0  0  0  0  0  0  0  0  0
  1 17  2  0  0  0  0
  1 16  1  0  0  0  0
  2  3  2  0  0  0  0
  2 26  1  0  0  0  0
  3  4  1  0  0  0  0
  4  5  2  0  0  0  0
  5  6  1  0  0  0  0
  6  7  1  0  0  0  0
  6 26  2  0  0  0  0
  7 27  2  0  0  0  0
  8  9  2  0  0  0  0
  8 13  1  0  0  0  0
  8 27  1  0  0  0  0
  9 10  1  0  0  0  0
 10 11  2  0  0  0  0
 11 12  1  0  0  0  0
 11 14  1  0  0  0  0
 12 13  2  0  0  0  0
 14 15  1  0  0  0  0
 15 16  2  0  0  0  0
 15 19  1  0  0  0  0
 17 18  1  0  0  0  0
 17 28  1  0  0  0  0
 18 19  2  0  0  0  0
 20 21  1  0  0  0  0
 20 28  2  0  0  0  0
 21 22  2  0  0  0  0
 21 29  1  0  0  0  0
 22 23  1  0  0  0  0
 23 24  2  0  0  0  0
 24 25  1  0  0  0  0
 25 29  2  0  0  0  0
M  END
>  <CHROM.1>
65.48114360,91.44622816,91.50451283,-70.13445660,-92.05344119,85.27557395
41.75201718,43.58417930,42.18990984,0.57339426,-0.49463283,-0.15336832

>  <Name>
ligand

>  <RI>
0

>  <Rbt.Current_Directory>
/home/itssahil/PROJECTS/Mol_Feturizer/New_Systems/rnas/4JIY

>  <Rbt.Executable>
rbdock ($Id: //depot/dev/client3/rdock/2013.1/src/exe/rbdock.cxx#4 $)

>  <Rbt.Library>
libRbt.so (2013.1, Build901 2013/11/27)

>  <Rbt.Parameter_File>
/export/apps/rDock/src/rDock_2013.1_src/data/scripts/dock_solv.prm

>  <Rbt.Receptor>
prm/pocket_docking_2.prm

>  <SCORE>
10.0845

>  <SCORE.INTER>
11.4

>  <SCORE.INTER.CONST>
1

>  <SCORE.INTER.POLAR>
0

>  <SCORE.INTER.ROT>
6

>  <SCORE.INTER.SOLV>
-8.88178e-16

>  <SCORE.INTER.VDW>
0

>  <SCORE.INTER.norm>
0.393103

>  <SCORE.INTRA>
-1.31554

>  <SCORE.INTRA.DIHEDRAL>
-0.156209

>  <SCORE.INTRA.DIHEDRAL.0>
7.2424

>  <SCORE.INTRA.POLAR>
0

>  <SCORE.INTRA.POLAR.0>
0

>  <SCORE.INTRA.REPUL>
0

>  <SCORE.INTRA.REPUL.0>
0

>  <SCORE.INTRA.SOLV>
-0.0201212

>  <SCORE.INTRA.SOLV.lig_0>
-3.36201

>  <SCORE.INTRA.VDW>
-1.22738

>  <SCORE.INTRA.VDW.0>
-0.910526

>  <SCORE.INTRA.norm>
-0.0453636

>  <SCORE.RESTR>
0

>  <SCORE.RESTR.CAVITY>
0

>  <SCORE.RESTR.norm>
0

>  <SCORE.SYSTEM>
0

>  <SCORE.SYSTEM.CONST>
0

>  <SCORE.SYSTEM.DIHEDRAL>
0

>  <SCORE.SYSTEM.SOLV>
0

>  <SCORE.SYSTEM.norm>
0

>  <SCORE.heavy>
29

>  <SCORE.norm>
0.34774

>  <RMSD>
1.169

$$$$
ligand
 OpenBabel11021811493D
libRbt.so/2013.1/901 2013/11/27
 29 32  0  0  0  0  0  0  0  0999 V2000
   39.5405   41.9909   40.0811 C   0  0  0  0  0  0  0  0  0  0  0  0
   48.3284   48.0978   46.3976 C   0  0  0  0  0  0  0  0  0  0  0  0
   49.5308   47.8148   45.7359 C   0  0  0  0  0  0  0  0  0  0  0  0
   49.5275   47.3387   44.4713 C   0  0  0  0  0  0  0  0  0  0  0  0
   48.3050   47.0733   43.8692 C   0  0  0  0  0  0  0  0  0  0  0  0
   47.1475   47.4137   44.5178 C   0  0  0  0  0  0  0  0  0  0  0  0
   45.7981   47.3077   43.9672 C   0  0  0  0  0  0  0  0  0  0  0  0
   44.0786   45.9845   43.1285 C   0  0  0  0  0  0  0  0  0  0  0  0
   44.0346   45.8793   41.7523 C   0  0  0  0  0  0  0  0  0  0  0  0
   42.7916   45.8410   41.1178 C   0  0  0  0  0  0  0  0  0  0  0  0
   41.6162   45.8042   41.8217 C   0  0  0  0  0  0  0  0  0  0  0  0
   41.6982   45.9039   43.2274 C   0  0  0  0  0  0  0  0  0  0  0  0
   42.9193   46.0547   43.8747 C   0  0  0  0  0  0  0  0  0  0  0  0
   40.2671   45.6136   41.1318 C   0  0  0  0  0  0  0  0  0  0  0  0
   39.7803   44.1712   41.1469 C   0  0  0  0  0  0  0  0  0  0  0  0
   39.9706   43.3077   40.0985 C   0  0  0  0  0  0  0  0  0  0  0  0
   38.9006   41.5349   41.2024 C   0  0  0  0  0  0  0  0  0  0  0  0
   38.7051   42.3836   42.2358 C   0  0  0  0  0  0  0  0  0  0  0  0
   39.1190   43.6966   42.2448 C   0  0  0  0  0  0  0  0  0  0  0  0
   37.2052   39.9828   40.8757 C   0  0  0  0  0  0  0  0  0  0  0  0
   36.6516   38.6548   41.0355 C   0  0  0  0  0  0  0  0  0  0  0  0
   37.0584   37.5186   40.3243 C   0  0  0  0  0  0  0  0  0  0  0  0
   36.4161   36.3253   40.5846 C   0  0  0  0  0  0  0  0  0  0  0  0
   35.4290   36.3077   41.5573 C   0  0  0  0  0  0  0  0  0  0  0  0
   35.0383   37.4600   42.2045 C   0  0  0  0  0  0  0  0  0  0  0  0
   47.1482   47.8975   45.7875 N   0  0  0  0  0  0  0  0  0  0  0  0
   45.3728   46.0868   43.7887 N   0  0  0  0  0  0  0  0  0  0  0  0
   38.4082   40.1566   41.2974 N   0  0  0  0  0  0  0  0  0  0  0  0
   35.6635   38.6056   41.9787 N   0  0  0  0  0  0  0  0  0  0  0  0
  1 17  2  0  0  0  0
  1 16  1  0  0  0  0
  2  3  2  0  0  0  0
  2 26  1  0  0  0  0
  3  4  1  0  0  0  0
  4  5  2  0  0  0  0
  5  6  1  0  0  0  0
  6  7  1  0  0  0  0
  6 26  2  0  0  0  0
  7 27  2  0  0  0  0
  8  9  2  0  0  0  0
  8 13  1  0  0  0  0
  8 27  1  0  0  0  0
  9 10  1  0  0  0  0
 10 11  2  0  0  0  0
 11 12  1  0  0  0  0
 11 14  1  0  0  0  0
 12 13  2  0  0  0  0
 14 15  1  0  0  0  0
 15 16  2  0  0  0  0
 15 19  1  0  0  0  0
 17 18  1  0  0  0  0
 17 28  1  0  0  0  0
 18 19  2  0  0  0  0
 20 21  1  0  0  0  0
 20 28  2  0  0  0  0
 21 22  2  0  0  0  0
 21 29  1  0  0  0  0
 22 23  1  0  0  0  0
 23 24  2  0  0  0  0
 24 25  1  0  0  0  0
 25 29  2  0  0  0  0
M  END
>  <CHROM.1>
68.72553596,97.01312200,-96.37329554,-69.80582536,91.10587117,-89.55954960
41.59474004,43.52929160,42.47293166,2.62683771,0.53926850,2.77550306

>  <Name>
ligand

>  <RI>
0

>  <Rbt.Current_Directory>
/home/itssahil/PROJECTS/Mol_Feturizer/New_Systems/rnas/4JIY

>  <Rbt.Executable>
rbdock ($Id: //depot/dev/client3/rdock/2013.1/src/exe/rbdock.cxx#4 $)

>  <Rbt.Library>
libRbt.so (2013.1, Build901 2013/11/27)

>  <Rbt.Parameter_File>
/export/apps/rDock/src/rDock_2013.1_src/data/scripts/dock_solv.prm

>  <Rbt.Receptor>
prm/pocket_docking_2.prm

>  <SCORE>
10.2312

>  <SCORE.INTER>
11.4

>  <SCORE.INTER.CONST>
1

>  <SCORE.INTER.POLAR>
0

>  <SCORE.INTER.ROT>
6

>  <SCORE.INTER.SOLV>
1.77636e-15

>  <SCORE.INTER.VDW>
0

>  <SCORE.INTER.norm>
0.393103

>  <SCORE.INTRA>
-1.16883

>  <SCORE.INTRA.DIHEDRAL>
0.0406129

>  <SCORE.INTRA.DIHEDRAL.0>
7.2424

>  <SCORE.INTRA.POLAR>
0

>  <SCORE.INTRA.POLAR.0>
0

>  <SCORE.INTRA.REPUL>
0

>  <SCORE.INTRA.REPUL.0>
0

>  <SCORE.INTRA.SOLV>
-0.0187583

>  <SCORE.INTRA.SOLV.lig_0>
-3.36201

>  <SCORE.INTRA.VDW>
-1.17976

>  <SCORE.INTRA.VDW.0>
-0.910526

>  <SCORE.INTRA.norm>
-0.0403044

>  <SCORE.RESTR>
0

>  <SCORE.RESTR.CAVITY>
0

>  <SCORE.RESTR.norm>
0

>  <SCORE.SYSTEM>
0

>  <SCORE.SYSTEM.CONST>
0

>  <SCORE.SYSTEM.DIHEDRAL>
0

>  <SCORE.SYSTEM.SOLV>
0

>  <SCORE.SYSTEM.norm>
0

>  <SCORE.heavy>
29

>  <SCORE.norm>
0.352799

>  <RMSD>
1.172

$$$$
ligand
 OpenBabel11021811493D
libRbt.so/2013.1/901 2013/11/27
 29 32  0  0  0  0  0  0  0  0999 V2000
   38.3728   42.1464   42.7190 C   0  0  0  0  0  0  0  0  0  0  0  0
   49.2380   48.8570   43.2083 C   0  0  0  0  0  0  0  0  0  0  0  0
   50.0637   48.2110   44.1380 C   0  0  0  0  0  0  0  0  0  0  0  0
   49.5567   47.2953   44.9927 C   0  0  0  0  0  0  0  0  0  0  0  0
   48.1886   47.0604   44.9729 C   0  0  0  0  0  0  0  0  0  0  0  0
   47.4162   47.6630   44.0156 C   0  0  0  0  0  0  0  0  0  0  0  0
   45.9919   47.4236   43.7933 C   0  0  0  0  0  0  0  0  0  0  0  0
   44.2958   46.0436   42.9995 C   0  0  0  0  0  0  0  0  0  0  0  0
   43.4486   45.5063   43.9485 C   0  0  0  0  0  0  0  0  0  0  0  0
   42.1166   45.2670   43.6058 C   0  0  0  0  0  0  0  0  0  0  0  0
   41.5993   45.6390   42.3925 C   0  0  0  0  0  0  0  0  0  0  0  0
   42.4911   46.1942   41.4495 C   0  0  0  0  0  0  0  0  0  0  0  0
   43.8452   46.3399   41.7288 C   0  0  0  0  0  0  0  0  0  0  0  0
   40.1109   45.5110   42.0754 C   0  0  0  0  0  0  0  0  0  0  0  0
   39.6476   44.0684   41.9268 C   0  0  0  0  0  0  0  0  0  0  0  0
   38.8122   43.4559   42.8256 C   0  0  0  0  0  0  0  0  0  0  0  0
   38.7976   41.4388   41.6265 C   0  0  0  0  0  0  0  0  0  0  0  0
   39.6259   42.0359   40.7411 C   0  0  0  0  0  0  0  0  0  0  0  0
   40.0745   43.3323   40.8572 C   0  0  0  0  0  0  0  0  0  0  0  0
   37.3130   39.9015   40.7195 C   0  0  0  0  0  0  0  0  0  0  0  0
   36.8290   38.5468   40.5582 C   0  0  0  0  0  0  0  0  0  0  0  0
   36.2672   37.7629   41.5742 C   0  0  0  0  0  0  0  0  0  0  0  0
   35.8681   36.4801   41.2588 C   0  0  0  0  0  0  0  0  0  0  0  0
   36.0124   36.0490   39.9496 C   0  0  0  0  0  0  0  0  0  0  0  0
   36.6050   36.8448   38.9930 C   0  0  0  0  0  0  0  0  0  0  0  0
   47.9243   48.5801   43.1515 N   0  0  0  0  0  0  0  0  0  0  0  0
   45.7001   46.2373   43.3340 N   0  0  0  0  0  0  0  0  0  0  0  0
   38.3900   40.0470   41.4081 N   0  0  0  0  0  0  0  0  0  0  0  0
   36.9706   38.0852   39.2794 N   0  0  0  0  0  0  0  0  0  0  0  0
  1 17  2  0  0  0  0
  1 16  1  0  0  0  0
  2  3  2  0  0  0  0
  2 26  1  0  0  0  0
  3  4  1  0  0  0  0
  4  5  2  0  0  0  0
  5  6  1  0  0  0  0
  6  7  1  0  0  0  0
  6 26  2  0  0  0  0
  7 27  2  0  0  0  0
  8  9  2  0  0  0  0
  8 13  1  0  0  0  0
  8 27  1  0  0  0  0
  9 10  1  0  0  0  0
 10 11  2  0  0  0  0
 11 12  1  0  0  0  0
 11 14  1  0  0  0  0
 12 13  2  0  0  0  0
 14 15  1  0  0  0  0
 15 16  2  0  0  0  0
 15 19  1  0  0  0  0
 17 18  1  0  0  0  0
 17 28  1  0  0  0  0
 18 19  2  0  0  0  0
 20 21  1  0  0  0  0
 20 28  2  0  0  0  0
 21 22  2  0  0  0  0
 21 29  1  0  0  0  0
 22 23  1  0  0  0  0
 23 24  2  0  0  0  0
 24 25  1  0  0  0  0
 25 29  2  0  0  0  0
M  END
>  <CHROM.1>
-68.22577944,-70.07070354,111.26414261,70.32807780,-93.34629853,90.46997492
41.77870931,43.52379286,42.20538194,2.41868302,0.17800369,-3.00392535

>  <Name>
ligand

>  <RI>
0

>  <Rbt.Current_Directory>
/home/itssahil/PROJECTS/Mol_Feturizer/New_Systems/rnas/4JIY

>  <Rbt.Executable>
rbdock ($Id: //depot/dev/client3/rdock/2013.1/src/exe/rbdock.cxx#4 $)

>  <Rbt.Library>
libRbt.so (2013.1, Build901 2013/11/27)

>  <Rbt.Parameter_File>
/export/apps/rDock/src/rDock_2013.1_src/data/scripts/dock_solv.prm

>  <Rbt.Receptor>
prm/pocket_docking_2.prm

>  <SCORE>
10.2271

>  <SCORE.INTER>
11.4

>  <SCORE.INTER.CONST>
1

>  <SCORE.INTER.POLAR>
0

>  <SCORE.INTER.ROT>
6

>  <SCORE.INTER.SOLV>
4.44089e-16

>  <SCORE.INTER.VDW>
0

>  <SCORE.INTER.norm>
0.393103

>  <SCORE.INTRA>
-1.17292

>  <SCORE.INTRA.DIHEDRAL>
0.0443668

>  <SCORE.INTRA.DIHEDRAL.0>
7.2424

>  <SCORE.INTRA.POLAR>
0

>  <SCORE.INTRA.POLAR.0>
0

>  <SCORE.INTRA.REPUL>
0

>  <SCORE.INTRA.REPUL.0>
0

>  <SCORE.INTRA.SOLV>
-0.0203005

>  <SCORE.INTRA.SOLV.lig_0>
-3.36201

>  <SCORE.INTRA.VDW>
-1.18495

>  <SCORE.INTRA.VDW.0>
-0.910526

>  <SCORE.INTRA.norm>
-0.0404455

>  <SCORE.RESTR>
0

>  <SCORE.RESTR.CAVITY>
0

>  <SCORE.RESTR.norm>
0

>  <SCORE.SYSTEM>
0

>  <SCORE.SYSTEM.CONST>
0

>  <SCORE.SYSTEM.DIHEDRAL>
0

>  <SCORE.SYSTEM.SOLV>
0

>  <SCORE.SYSTEM.norm>
0

>  <SCORE.heavy>
29

>  <SCORE.norm>
0.352658

>  <RMSD>
1.174

$$$$
ligand
 OpenBabel11021811493D
libRbt.so/2013.1/901 2013/11/27
 29 32  0  0  0  0  0  0  0  0999 V2000
   43.1581   45.7730   43.9587 C   0  0  0  0  0  0  0  0  0  0  0  0
   35.1019   36.9333   41.7858 C   0  0  0  0  0  0  0  0  0  0  0  0
   35.6142   35.8430   41.0701 C   0  0  0  0  0  0  0  0  0  0  0  0
   36.6540   36.0011   40.2217 C   0  0  0  0  0  0  0  0  0  0  0  0
   37.1573   37.2800   40.0257 C   0  0  0  0  0  0  0  0  0  0  0  0
   36.6754   38.3158   40.7813 C   0  0  0  0  0  0  0  0  0  0  0  0
   37.1844   39.6856   40.7747 C   0  0  0  0  0  0  0  0  0  0  0  0
   38.8445   41.2052   41.3630 C   0  0  0  0  0  0  0  0  0  0  0  0
   39.5709   41.7511   40.3232 C   0  0  0  0  0  0  0  0  0  0  0  0
   40.0573   43.0535   40.4505 C   0  0  0  0  0  0  0  0  0  0  0  0
   39.7538   43.8412   41.5302 C   0  0  0  0  0  0  0  0  0  0  0  0
   39.0012   43.2545   42.5704 C   0  0  0  0  0  0  0  0  0  0  0  0
   38.5999   41.9245   42.5155 C   0  0  0  0  0  0  0  0  0  0  0  0
   40.1630   45.3110   41.5982 C   0  0  0  0  0  0  0  0  0  0  0  0
   41.5786   45.5196   42.1180 C   0  0  0  0  0  0  0  0  0  0  0  0
   41.8818   45.5845   43.4540 C   0  0  0  0  0  0  0  0  0  0  0  0
   44.1736   45.8814   43.0468 C   0  0  0  0  0  0  0  0  0  0  0  0
   43.8793   45.8242   41.7290 C   0  0  0  0  0  0  0  0  0  0  0  0
   42.6082   45.6530   41.2290 C   0  0  0  0  0  0  0  0  0  0  0  0
   45.8995   47.3014   43.6754 C   0  0  0  0  0  0  0  0  0  0  0  0
   47.2880   47.5433   44.0054 C   0  0  0  0  0  0  0  0  0  0  0  0
   48.3633   47.4214   43.1159 C   0  0  0  0  0  0  0  0  0  0  0  0
   49.6330   47.6734   43.5939 C   0  0  0  0  0  0  0  0  0  0  0  0
   49.7728   48.0657   44.9158 C   0  0  0  0  0  0  0  0  0  0  0  0
   48.6876   48.1359   45.7623 C   0  0  0  0  0  0  0  0  0  0  0  0
   35.6334   38.1587   41.6390 N   0  0  0  0  0  0  0  0  0  0  0  0
   38.3881   39.8259   41.2590 N   0  0  0  0  0  0  0  0  0  0  0  0
   45.5649   46.0765   43.4677 N   0  0  0  0  0  0  0  0  0  0  0  0
   47.4625   47.9184   45.3082 N   0  0  0  0  0  0  0  0  0  0  0  0
  1 17  2  0  0  0  0
  1 16  1  0  0  0  0
  2  3  2  0  0  0  0
  2 26  1  0  0  0  0
  3  4  1  0  0  0  0
  4  5  2  0  0  0  0
  5  6  1  0  0  0  0
  6  7  1  0  0  0  0
  6 26  2  0  0  0  0
  7 27  2  0  0  0  0
  8  9  2  0  0  0  0
  8 13  1  0  0  0  0
  8 27  1  0  0  0  0
  9 10  1  0  0  0  0
 10 11  2  0  0  0  0
 11 12  1  0  0  0  0
 11 14  1  0  0  0  0
 12 13  2  0  0  0  0
 14 15  1  0  0  0  0
 15 16  2  0  0  0  0
 15 19  1  0  0  0  0
 17 18  1  0  0  0  0
 17 28  1  0  0  0  0
 18 19  2  0  0  0  0
 20 21  1  0  0  0  0
 20 28  2  0  0  0  0
 21 22  2  0  0  0  0
 21 29  1  0  0  0  0
 22 23  1  0  0  0  0
 23 24  2  0  0  0  0
 24 25  1  0  0  0  0
 25 29  2  0  0  0  0
M  END
>  <CHROM.1>
-67.33128881,-85.00297084,-84.96120246,70.61703002,-93.29867357,-85.64371222
41.66024215,43.34077686,42.32897524,0.68360467,-0.30861149,-0.03319083

>  <Name>
ligand

>  <RI>
0

>  <Rbt.Current_Directory>
/home/itssahil/PROJECTS/Mol_Feturizer/New_Systems/rnas/4JIY

>  <Rbt.Executable>
rbdock ($Id: //depot/dev/client3/rdock/2013.1/src/exe/rbdock.cxx#4 $)

>  <Rbt.Library>
libRbt.so (2013.1, Build901 2013/11/27)

>  <Rbt.Parameter_File>
/export/apps/rDock/src/rDock_2013.1_src/data/scripts/dock_solv.prm

>  <Rbt.Receptor>
prm/pocket_docking_2.prm

>  <SCORE>
10.241

>  <SCORE.INTER>
11.4

>  <SCORE.INTER.CONST>
1

>  <SCORE.INTER.POLAR>
0

>  <SCORE.INTER.ROT>
6

>  <SCORE.INTER.SOLV>
8.88178e-16

>  <SCORE.INTER.VDW>
0

>  <SCORE.INTER.norm>
0.393103

>  <SCORE.INTRA>
-1.15898

>  <SCORE.INTRA.DIHEDRAL>
0.15443

>  <SCORE.INTRA.DIHEDRAL.0>
7.2424

>  <SCORE.INTRA.POLAR>
0

>  <SCORE.INTRA.POLAR.0>
0

>  <SCORE.INTRA.REPUL>
0

>  <SCORE.INTRA.REPUL.0>
0

>  <SCORE.INTRA.SOLV>
-0.0200364

>  <SCORE.INTRA.SOLV.lig_0>
-3.36201

>  <SCORE.INTRA.VDW>
-1.22618

>  <SCORE.INTRA.VDW.0>
-0.910526

>  <SCORE.INTRA.norm>
-0.0399648

>  <SCORE.RESTR>
0

>  <SCORE.RESTR.CAVITY>
0

>  <SCORE.RESTR.norm>
0

>  <SCORE.SYSTEM>
0

>  <SCORE.SYSTEM.CONST>
0

>  <SCORE.SYSTEM.DIHEDRAL>
0

>  <SCORE.SYSTEM.SOLV>
0

>  <SCORE.SYSTEM.norm>
0

>  <SCORE.heavy>
29

>  <SCORE.norm>
0.353139

>  <RMSD>
1.200

$$$$
ligand
 OpenBabel11021811493D
libRbt.so/2013.1/901 2013/11/27
 29 32  0  0  0  0  0  0  0  0999 V2000
   43.8792   46.9423   42.1677 C   0  0  0  0  0  0  0  0  0  0  0  0
   36.4175   38.5822   39.9122 C   0  0  0  0  0  0  0  0  0  0  0  0
   36.9833   37.3128   40.0911 C   0  0  0  0  0  0  0  0  0  0  0  0
   38.1944   37.1725   40.6738 C   0  0  0  0  0  0  0  0  0  0  0  0
   38.8928   38.3187   41.0286 C   0  0  0  0  0  0  0  0  0  0  0  0
   38.2909   39.5418   40.8949 C   0  0  0  0  0  0  0  0  0  0  0  0
   38.8483   40.8195   41.3334 C   0  0  0  0  0  0  0  0  0  0  0  0
   38.5164   42.9655   42.1675 C   0  0  0  0  0  0  0  0  0  0  0  0
   38.8959   43.2333   43.4679 C   0  0  0  0  0  0  0  0  0  0  0  0
   39.3535   44.5130   43.7874 C   0  0  0  0  0  0  0  0  0  0  0  0
   39.5318   45.4811   42.8339 C   0  0  0  0  0  0  0  0  0  0  0  0
   39.1427   45.1704   41.5130 C   0  0  0  0  0  0  0  0  0  0  0  0
   38.5809   43.9399   41.1918 C   0  0  0  0  0  0  0  0  0  0  0  0
   40.1703   46.8293   43.1611 C   0  0  0  0  0  0  0  0  0  0  0  0
   41.6902   46.7761   43.2296 C   0  0  0  0  0  0  0  0  0  0  0  0
   42.4948   46.9836   42.1385 C   0  0  0  0  0  0  0  0  0  0  0  0
   44.4647   46.6942   43.3803 C   0  0  0  0  0  0  0  0  0  0  0  0
   43.6762   46.4830   44.4574 C   0  0  0  0  0  0  0  0  0  0  0  0
   42.3002   46.5085   44.4231 C   0  0  0  0  0  0  0  0  0  0  0  0
   46.4848   47.7606   43.7952 C   0  0  0  0  0  0  0  0  0  0  0  0
   47.9308   47.7593   43.8622 C   0  0  0  0  0  0  0  0  0  0  0  0
   48.7905   47.6052   42.7670 C   0  0  0  0  0  0  0  0  0  0  0  0
   50.1501   47.6110   43.0030 C   0  0  0  0  0  0  0  0  0  0  0  0
   50.5917   47.8026   44.3026 C   0  0  0  0  0  0  0  0  0  0  0  0
   49.7061   47.9130   45.3527 C   0  0  0  0  0  0  0  0  0  0  0  0
   37.0710   39.6853   40.3141 N   0  0  0  0  0  0  0  0  0  0  0  0
   37.9808   41.6502   41.8439 N   0  0  0  0  0  0  0  0  0  0  0  0
   45.9224   46.6342   43.5303 N   0  0  0  0  0  0  0  0  0  0  0  0
   48.3998   47.9316   45.1345 N   0  0  0  0  0  0  0  0  0  0  0  0
  1 17  2  0  0  0  0
  1 16  1  0  0  0  0
  2  3  2  0  0  0  0
  2 26  1  0  0  0  0
  3  4  1  0  0  0  0
  4  5  2  0  0  0  0
  5  6  1  0  0  0  0
  6  7  1  0  0  0  0
  6 26  2  0  0  0  0
  7 27  2  0  0  0  0
  8  9  2  0  0  0  0
  8 13  1  0  0  0  0
  8 27  1  0  0  0  0
  9 10  1  0  0  0  0
 10 11  2  0  0  0  0
 11 12  1  0  0  0  0
 11 14  1  0  0  0  0
 12 13  2  0  0  0  0
 14 15  1  0  0  0  0
 15 16  2  0  0  0  0
 15 19  1  0  0  0  0
 17 18  1  0  0  0  0
 17 28  1  0  0  0  0
 18 19  2  0  0  0  0
 20 21  1  0  0  0  0
 20 28  2  0  0  0  0
 21 22  2  0  0  0  0
 21 29  1  0  0  0  0
 22 23  1  0  0  0  0
 23 24  2  0  0  0  0
 24 25  1  0  0  0  0
 25 29  2  0  0  0  0
M  END
>  <CHROM.1>
-141.54842566,79.96915240,89.45053879,70.34137065,-97.71262957,89.35125524
42.17949841,44.37092375,42.61724262,0.68474036,-0.05464017,0.30121624

>  <Name>
ligand

>  <RI>
0

>  <Rbt.Current_Directory>
/home/itssahil/PROJECTS/Mol_Feturizer/New_Systems/rnas/4JIY

>  <Rbt.Executable>
rbdock ($Id: //depot/dev/client3/rdock/2013.1/src/exe/rbdock.cxx#4 $)

>  <Rbt.Library>
libRbt.so (2013.1, Build901 2013/11/27)

>  <Rbt.Parameter_File>
/export/apps/rDock/src/rDock_2013.1_src/data/scripts/dock_solv.prm

>  <Rbt.Receptor>
prm/pocket_docking_2.prm

>  <SCORE>
10.4718

>  <SCORE.INTER>
11.4

>  <SCORE.INTER.CONST>
1

>  <SCORE.INTER.POLAR>
0

>  <SCORE.INTER.ROT>
6

>  <SCORE.INTER.SOLV>
-1.33227e-15

>  <SCORE.INTER.VDW>
0

>  <SCORE.INTER.norm>
0.393103

>  <SCORE.INTRA>
-0.928206

>  <SCORE.INTRA.DIHEDRAL>
0.200833

>  <SCORE.INTRA.DIHEDRAL.0>
7.2424

>  <SCORE.INTRA.POLAR>
0

>  <SCORE.INTRA.POLAR.0>
0

>  <SCORE.INTRA.REPUL>
0

>  <SCORE.INTRA.REPUL.0>
0

>  <SCORE.INTRA.SOLV>
-0.0148976

>  <SCORE.INTRA.SOLV.lig_0>
-3.36201

>  <SCORE.INTRA.VDW>
-1.02117

>  <SCORE.INTRA.VDW.0>
-0.910526

>  <SCORE.INTRA.norm>
-0.0320071

>  <SCORE.RESTR>
0

>  <SCORE.RESTR.CAVITY>
0

>  <SCORE.RESTR.norm>
0

>  <SCORE.SYSTEM>
0

>  <SCORE.SYSTEM.CONST>
0

>  <SCORE.SYSTEM.DIHEDRAL>
0

>  <SCORE.SYSTEM.SOLV>
0

>  <SCORE.SYSTEM.norm>
0

>  <SCORE.heavy>
29

>  <SCORE.norm>
0.361096

>  <RMSD>
1.230

$$$$
ligand
 OpenBabel11021811493D
libRbt.so/2013.1/901 2013/11/27
 29 32  0  0  0  0  0  0  0  0999 V2000
   43.5035   46.0454   41.6045 C   0  0  0  0  0  0  0  0  0  0  0  0
   36.3500   36.3617   39.6738 C   0  0  0  0  0  0  0  0  0  0  0  0
   36.2699   35.5132   40.7862 C   0  0  0  0  0  0  0  0  0  0  0  0
   36.5535   35.9710   42.0256 C   0  0  0  0  0  0  0  0  0  0  0  0
   36.9907   37.2817   42.1610 C   0  0  0  0  0  0  0  0  0  0  0  0
   37.0036   38.1033   41.0652 C   0  0  0  0  0  0  0  0  0  0  0  0
   37.3216   39.5296   41.0719 C   0  0  0  0  0  0  0  0  0  0  0  0
   38.8383   41.2385   41.5080 C   0  0  0  0  0  0  0  0  0  0  0  0
   38.6753   41.8497   42.7355 C   0  0  0  0  0  0  0  0  0  0  0  0
   38.8893   43.2254   42.8382 C   0  0  0  0  0  0  0  0  0  0  0  0
   39.3512   43.9705   41.7847 C   0  0  0  0  0  0  0  0  0  0  0  0
   39.5159   43.3121   40.5470 C   0  0  0  0  0  0  0  0  0  0  0  0
   39.2032   41.9662   40.3931 C   0  0  0  0  0  0  0  0  0  0  0  0
   39.7245   45.4433   41.9392 C   0  0  0  0  0  0  0  0  0  0  0  0
   41.1921   45.6611   42.2803 C   0  0  0  0  0  0  0  0  0  0  0  0
   42.1611   45.8450   41.3272 C   0  0  0  0  0  0  0  0  0  0  0  0
   43.8639   46.0769   42.9250 C   0  0  0  0  0  0  0  0  0  0  0  0
   42.9139   45.8901   43.8678 C   0  0  0  0  0  0  0  0  0  0  0  0
   41.5829   45.6749   43.5899 C   0  0  0  0  0  0  0  0  0  0  0  0
   45.6074   47.5225   43.4356 C   0  0  0  0  0  0  0  0  0  0  0  0
   46.9978   47.7731   43.7512 C   0  0  0  0  0  0  0  0  0  0  0  0
   47.6019   47.5290   44.9912 C   0  0  0  0  0  0  0  0  0  0  0  0
   48.9390   47.8389   45.1342 C   0  0  0  0  0  0  0  0  0  0  0  0
   49.6192   48.3417   44.0363 C   0  0  0  0  0  0  0  0  0  0  0  0
   48.9720   48.5991   42.8471 C   0  0  0  0  0  0  0  0  0  0  0  0
   36.7140   37.6470   39.8186 N   0  0  0  0  0  0  0  0  0  0  0  0
   38.5563   39.8150   41.3839 N   0  0  0  0  0  0  0  0  0  0  0  0
   45.2560   46.2889   43.3353 N   0  0  0  0  0  0  0  0  0  0  0  0
   47.6948   48.2842   42.6922 N   0  0  0  0  0  0  0  0  0  0  0  0
  1 17  2  0  0  0  0
  1 16  1  0  0  0  0
  2  3  2  0  0  0  0
  2 26  1  0  0  0  0
  3  4  1  0  0  0  0
  4  5  2  0  0  0  0
  5  6  1  0  0  0  0
  6  7  1  0  0  0  0
  6 26  2  0  0  0  0
  7 27  2  0  0  0  0
  8  9  2  0  0  0  0
  8 13  1  0  0  0  0
  8 27  1  0  0  0  0
  9 10  1  0  0  0  0
 10 11  2  0  0  0  0
 11 12  1  0  0  0  0
 11 14  1  0  0  0  0
 12 13  2  0  0  0  0
 14 15  1  0  0  0  0
 15 16  2  0  0  0  0
 15 19  1  0  0  0  0
 17 18  1  0  0  0  0
 17 28  1  0  0  0  0
 18 19  2  0  0  0  0
 20 21  1  0  0  0  0
 20 28  2  0  0  0  0
 21 22  2  0  0  0  0
 21 29  1  0  0  0  0
 22 23  1  0  0  0  0
 23 24  2  0  0  0  0
 24 25  1  0  0  0  0
 25 29  2  0  0  0  0
M  END
>  <CHROM.1>
66.25510855,91.53019810,91.18677120,-71.07013909,89.64938438,86.27156925
41.58092531,43.40343183,42.24846796,0.74413779,-0.27628882,-0.02313897

>  <Name>
ligand

>  <RI>
0

>  <Rbt.Current_Directory>
/home/itssahil/PROJECTS/Mol_Feturizer/New_Systems/rnas/4JIY

>  <Rbt.Executable>
rbdock ($Id: //depot/dev/client3/rdock/2013.1/src/exe/rbdock.cxx#4 $)

>  <Rbt.Library>
libRbt.so (2013.1, Build901 2013/11/27)

>  <Rbt.Parameter_File>
/export/apps/rDock/src/rDock_2013.1_src/data/scripts/dock_solv.prm

>  <Rbt.Receptor>
prm/pocket_docking_2.prm

>  <SCORE>
10.1705

>  <SCORE.INTER>
11.4

>  <SCORE.INTER.CONST>
1

>  <SCORE.INTER.POLAR>
0

>  <SCORE.INTER.ROT>
6

>  <SCORE.INTER.SOLV>
1.33227e-15

>  <SCORE.INTER.VDW>
0

>  <SCORE.INTER.norm>
0.393103

>  <SCORE.INTRA>
-1.22947

>  <SCORE.INTRA.DIHEDRAL>
-0.0245251

>  <SCORE.INTRA.DIHEDRAL.0>
7.2424

>  <SCORE.INTRA.POLAR>
0

>  <SCORE.INTRA.POLAR.0>
0

>  <SCORE.INTRA.REPUL>
0

>  <SCORE.INTRA.REPUL.0>
0

>  <SCORE.INTRA.SOLV>
-0.01909

>  <SCORE.INTRA.SOLV.lig_0>
-3.36201

>  <SCORE.INTRA.VDW>
-1.20766

>  <SCORE.INTRA.VDW.0>
-0.910526

>  <SCORE.INTRA.norm>
-0.0423956

>  <SCORE.RESTR>
0

>  <SCORE.RESTR.CAVITY>
0

>  <SCORE.RESTR.norm>
0

>  <SCORE.SYSTEM>
0

>  <SCORE.SYSTEM.CONST>
0

>  <SCORE.SYSTEM.DIHEDRAL>
0

>  <SCORE.SYSTEM.SOLV>
0

>  <SCORE.SYSTEM.norm>
0

>  <SCORE.heavy>
29

>  <SCORE.norm>
0.350708

>  <RMSD>
1.241

$$$$
ligand
 OpenBabel11021811493D
libRbt.so/2013.1/901 2013/11/27
 29 32  0  0  0  0  0  0  0  0999 V2000
   42.6141   46.0027   43.7125 C   0  0  0  0  0  0  0  0  0  0  0  0
   35.3214   36.8107   41.4524 C   0  0  0  0  0  0  0  0  0  0  0  0
   35.9375   35.7167   40.8301 C   0  0  0  0  0  0  0  0  0  0  0  0
   37.0006   35.8945   40.0151 C   0  0  0  0  0  0  0  0  0  0  0  0
   37.4244   37.1910   39.7565 C   0  0  0  0  0  0  0  0  0  0  0  0
   36.8406   38.2353   40.4234 C   0  0  0  0  0  0  0  0  0  0  0  0
   37.2554   39.6345   40.3480 C   0  0  0  0  0  0  0  0  0  0  0  0
   38.7965   41.2948   40.8765 C   0  0  0  0  0  0  0  0  0  0  0  0
   38.4557   42.0473   41.9831 C   0  0  0  0  0  0  0  0  0  0  0  0
   38.7490   43.4122   41.9874 C   0  0  0  0  0  0  0  0  0  0  0  0
   39.4516   44.0087   40.9731 C   0  0  0  0  0  0  0  0  0  0  0  0
   39.7924   43.2080   39.8616 C   0  0  0  0  0  0  0  0  0  0  0  0
   39.4141   41.8724   39.7853 C   0  0  0  0  0  0  0  0  0  0  0  0
   39.8986   45.4670   41.0489 C   0  0  0  0  0  0  0  0  0  0  0  0
   41.2528   45.6487   41.7204 C   0  0  0  0  0  0  0  0  0  0  0  0
   41.3975   45.8346   43.0715 C   0  0  0  0  0  0  0  0  0  0  0  0
   43.7365   45.9589   42.9296 C   0  0  0  0  0  0  0  0  0  0  0  0
   43.5989   45.7821   41.5969 C   0  0  0  0  0  0  0  0  0  0  0  0
   42.3880   45.6315   40.9595 C   0  0  0  0  0  0  0  0  0  0  0  0
   45.4902   47.3345   43.5797 C   0  0  0  0  0  0  0  0  0  0  0  0
   46.8436   47.5268   44.0558 C   0  0  0  0  0  0  0  0  0  0  0  0
   47.2791   47.2987   45.3675 C   0  0  0  0  0  0  0  0  0  0  0  0
   48.6038   47.5463   45.6641 C   0  0  0  0  0  0  0  0  0  0  0  0
   49.4381   47.9737   44.6432 C   0  0  0  0  0  0  0  0  0  0  0  0
   48.9545   48.2191   43.3762 C   0  0  0  0  0  0  0  0  0  0  0  0
   35.7748   38.0588   41.2474 N   0  0  0  0  0  0  0  0  0  0  0  0
   38.4370   39.8838   40.8430 N   0  0  0  0  0  0  0  0  0  0  0  0
   45.0775   46.1184   43.5018 N   0  0  0  0  0  0  0  0  0  0  0  0
   47.6903   47.9630   43.0753 N   0  0  0  0  0  0  0  0  0  0  0  0
  1 17  2  0  0  0  0
  1 16  1  0  0  0  0
  2  3  2  0  0  0  0
  2 26  1  0  0  0  0
  3  4  1  0  0  0  0
  4  5  2  0  0  0  0
  5  6  1  0  0  0  0
  6  7  1  0  0  0  0
  6 26  2  0  0  0  0
  7 27  2  0  0  0  0
  8  9  2  0  0  0  0
  8 13  1  0  0  0  0
  8 27  1  0  0  0  0
  9 10  1  0  0  0  0
 10 11  2  0  0  0  0
 11 12  1  0  0  0  0
 11 14  1  0  0  0  0
 12 13  2  0  0  0  0
 14 15  1  0  0  0  0
 15 16  2  0  0  0  0
 15 19  1  0  0  0  0
 17 18  1  0  0  0  0
 17 28  1  0  0  0  0
 18 19  2  0  0  0  0
 20 21  1  0  0  0  0
 20 28  2  0  0  0  0
 21 22  2  0  0  0  0
 21 29  1  0  0  0  0
 22 23  1  0  0  0  0
 23 24  2  0  0  0  0
 24 25  1  0  0  0  0
 25 29  2  0  0  0  0
M  END
>  <CHROM.1>
-65.88540808,87.93174725,-89.50696366,-69.63338391,88.70868276,-88.42095431
41.47624153,43.36913053,42.02103254,0.66956698,-0.41800318,-0.13023621

>  <Name>
ligand

>  <RI>
0

>  <Rbt.Current_Directory>
/home/itssahil/PROJECTS/Mol_Feturizer/New_Systems/rnas/4JIY

>  <Rbt.Executable>
rbdock ($Id: //depot/dev/client3/rdock/2013.1/src/exe/rbdock.cxx#4 $)

>  <Rbt.Library>
libRbt.so (2013.1, Build901 2013/11/27)

>  <Rbt.Parameter_File>
/export/apps/rDock/src/rDock_2013.1_src/data/scripts/dock_solv.prm

>  <Rbt.Receptor>
prm/pocket_docking_2.prm

>  <SCORE>
10.1655

>  <SCORE.INTER>
11.4

>  <SCORE.INTER.CONST>
1

>  <SCORE.INTER.POLAR>
0

>  <SCORE.INTER.ROT>
6

>  <SCORE.INTER.SOLV>
-1.77636e-15

>  <SCORE.INTER.VDW>
0

>  <SCORE.INTER.norm>
0.393103

>  <SCORE.INTRA>
-1.23453

>  <SCORE.INTRA.DIHEDRAL>
0.0120975

>  <SCORE.INTRA.DIHEDRAL.0>
7.2424

>  <SCORE.INTRA.POLAR>
0

>  <SCORE.INTRA.POLAR.0>
0

>  <SCORE.INTRA.REPUL>
0

>  <SCORE.INTRA.REPUL.0>
0

>  <SCORE.INTRA.SOLV>
-0.0189822

>  <SCORE.INTRA.SOLV.lig_0>
-3.36201

>  <SCORE.INTRA.VDW>
-1.23108

>  <SCORE.INTRA.VDW.0>
-0.910526

>  <SCORE.INTRA.norm>
-0.0425698

>  <SCORE.RESTR>
0

>  <SCORE.RESTR.CAVITY>
0

>  <SCORE.RESTR.norm>
0

>  <SCORE.SYSTEM>
0

>  <SCORE.SYSTEM.CONST>
0

>  <SCORE.SYSTEM.DIHEDRAL>
0

>  <SCORE.SYSTEM.SOLV>
0

>  <SCORE.SYSTEM.norm>
0

>  <SCORE.heavy>
29

>  <SCORE.norm>
0.350534

>  <RMSD>
1.249

$$$$
ligand
 OpenBabel11021811493D
libRbt.so/2013.1/901 2013/11/27
 29 32  0  0  0  0  0  0  0  0999 V2000
   42.4752   47.3289   44.3591 C   0  0  0  0  0  0  0  0  0  0  0  0
   35.5438   37.5074   40.5057 C   0  0  0  0  0  0  0  0  0  0  0  0
   35.6231   36.6627   41.6210 C   0  0  0  0  0  0  0  0  0  0  0  0
   36.1505   37.1031   42.7846 C   0  0  0  0  0  0  0  0  0  0  0  0
   36.6726   38.3888   42.8278 C   0  0  0  0  0  0  0  0  0  0  0  0
   36.5290   39.2102   41.7411 C   0  0  0  0  0  0  0  0  0  0  0  0
   36.9165   40.6177   41.6784 C   0  0  0  0  0  0  0  0  0  0  0  0
   38.5703   42.2458   41.8382 C   0  0  0  0  0  0  0  0  0  0  0  0
   38.8820   42.9065   40.6664 C   0  0  0  0  0  0  0  0  0  0  0  0
   39.2947   44.2386   40.7320 C   0  0  0  0  0  0  0  0  0  0  0  0
   39.3051   44.9400   41.9094 C   0  0  0  0  0  0  0  0  0  0  0  0
   38.9716   44.2363   43.0868 C   0  0  0  0  0  0  0  0  0  0  0  0
   38.6646   42.8806   43.0604 C   0  0  0  0  0  0  0  0  0  0  0  0
   39.6144   46.4348   41.9565 C   0  0  0  0  0  0  0  0  0  0  0  0
   40.9989   46.7473   42.5073 C   0  0  0  0  0  0  0  0  0  0  0  0
   41.2289   47.0405   43.8271 C   0  0  0  0  0  0  0  0  0  0  0  0
   43.5381   47.2957   43.4967 C   0  0  0  0  0  0  0  0  0  0  0  0
   43.3159   47.0132   42.1939 C   0  0  0  0  0  0  0  0  0  0  0  0
   42.0744   46.7429   41.6639 C   0  0  0  0  0  0  0  0  0  0  0  0
   45.5340   46.5635   44.4297 C   0  0  0  0  0  0  0  0  0  0  0  0
   46.8518   46.8200   44.9710 C   0  0  0  0  0  0  0  0  0  0  0  0
   47.1243   47.6121   46.0938 C   0  0  0  0  0  0  0  0  0  0  0  0
   48.4418   47.7700   46.4726 C   0  0  0  0  0  0  0  0  0  0  0  0
   49.4195   47.1106   45.7446 C   0  0  0  0  0  0  0  0  0  0  0  0
   49.1048   46.3717   44.6247 C   0  0  0  0  0  0  0  0  0  0  0  0
   35.9944   38.7716   40.5715 N   0  0  0  0  0  0  0  0  0  0  0  0
   38.1989   40.8387   41.7792 N   0  0  0  0  0  0  0  0  0  0  0  0
   44.9037   47.5780   43.9512 N   0  0  0  0  0  0  0  0  0  0  0  0
   47.8421   46.1951   44.2659 N   0  0  0  0  0  0  0  0  0  0  0  0
  1 17  2  0  0  0  0
  1 16  1  0  0  0  0
  2  3  2  0  0  0  0
  2 26  1  0  0  0  0
  3  4  1  0  0  0  0
  4  5  2  0  0  0  0
  5  6  1  0  0  0  0
  6  7  1  0  0  0  0
  6 26  2  0  0  0  0
  7 27  2  0  0  0  0
  8  9  2  0  0  0  0
  8 13  1  0  0  0  0
  8 27  1  0  0  0  0
  9 10  1  0  0  0  0
 10 11  2  0  0  0  0
 11 12  1  0  0  0  0
 11 14  1  0  0  0  0
 12 13  2  0  0  0  0
 14 15  1  0  0  0  0
 15 16  2  0  0  0  0
 15 19  1  0  0  0  0
 17 18  1  0  0  0  0
 17 28  1  0  0  0  0
 18 19  2  0  0  0  0
 20 21  1  0  0  0  0
 20 28  2  0  0  0  0
 21 22  2  0  0  0  0
 21 29  1  0  0  0  0
 22 23  1  0  0  0  0
 23 24  2  0  0  0  0
 24 25  1  0  0  0  0
 25 29  2  0  0  0  0
M  END
>  <CHROM.1>
65.26814016,-105.87502512,-94.25917383,64.97248291,-92.50551160,85.97036647
41.30261197,43.96924673,42.93188086,0.59272290,-0.40714611,-0.15314905

>  <Name>
ligand

>  <RI>
0

>  <Rbt.Current_Directory>
/home/itssahil/PROJECTS/Mol_Feturizer/New_Systems/rnas/4JIY

>  <Rbt.Executable>
rbdock ($Id: //depot/dev/client3/rdock/2013.1/src/exe/rbdock.cxx#4 $)

>  <Rbt.Library>
libRbt.so (2013.1, Build901 2013/11/27)

>  <Rbt.Parameter_File>
/export/apps/rDock/src/rDock_2013.1_src/data/scripts/dock_solv.prm

>  <Rbt.Receptor>
prm/pocket_docking_2.prm

>  <SCORE>
10.2522

>  <SCORE.INTER>
11.4

>  <SCORE.INTER.CONST>
1

>  <SCORE.INTER.POLAR>
0

>  <SCORE.INTER.ROT>
6

>  <SCORE.INTER.SOLV>
-8.88178e-16

>  <SCORE.INTER.VDW>
0

>  <SCORE.INTER.norm>
0.393103

>  <SCORE.INTRA>
-1.14779

>  <SCORE.INTRA.DIHEDRAL>
0.053542

>  <SCORE.INTRA.DIHEDRAL.0>
7.2424

>  <SCORE.INTRA.POLAR>
0

>  <SCORE.INTRA.POLAR.0>
0

>  <SCORE.INTRA.REPUL>
0

>  <SCORE.INTRA.REPUL.0>
0

>  <SCORE.INTRA.SOLV>
-0.0203476

>  <SCORE.INTRA.SOLV.lig_0>
-3.36201

>  <SCORE.INTRA.VDW>
-1.16439

>  <SCORE.INTRA.VDW.0>
-0.910526

>  <SCORE.INTRA.norm>
-0.039579

>  <SCORE.RESTR>
0

>  <SCORE.RESTR.CAVITY>
0

>  <SCORE.RESTR.norm>
0

>  <SCORE.SYSTEM>
0

>  <SCORE.SYSTEM.CONST>
0

>  <SCORE.SYSTEM.DIHEDRAL>
0

>  <SCORE.SYSTEM.SOLV>
0

>  <SCORE.SYSTEM.norm>
0

>  <SCORE.heavy>
29

>  <SCORE.norm>
0.353524

>  <RMSD>
1.292

$$$$
ligand
 OpenBabel11021811493D
libRbt.so/2013.1/901 2013/11/27
 29 32  0  0  0  0  0  0  0  0999 V2000
   38.4120   41.8461   42.5140 C   0  0  0  0  0  0  0  0  0  0  0  0
   48.2809   47.9567   46.3606 C   0  0  0  0  0  0  0  0  0  0  0  0
   49.4484   47.5706   45.6886 C   0  0  0  0  0  0  0  0  0  0  0  0
   49.3828   46.9695   44.4801 C   0  0  0  0  0  0  0  0  0  0  0  0
   48.1309   46.6831   43.9526 C   0  0  0  0  0  0  0  0  0  0  0  0
   47.0094   47.1235   44.6040 C   0  0  0  0  0  0  0  0  0  0  0  0
   45.6372   47.0049   44.1159 C   0  0  0  0  0  0  0  0  0  0  0  0
   43.8720   45.6602   43.4178 C   0  0  0  0  0  0  0  0  0  0  0  0
   43.7681   45.5204   42.0479 C   0  0  0  0  0  0  0  0  0  0  0  0
   42.4986   45.4639   41.4698 C   0  0  0  0  0  0  0  0  0  0  0  0
   41.3553   45.4429   42.2253 C   0  0  0  0  0  0  0  0  0  0  0  0
   41.4986   45.5781   43.6231 C   0  0  0  0  0  0  0  0  0  0  0  0
   42.7465   45.7472   44.2122 C   0  0  0  0  0  0  0  0  0  0  0  0
   39.9778   45.2326   41.6003 C   0  0  0  0  0  0  0  0  0  0  0  0
   39.5559   43.7708   41.5477 C   0  0  0  0  0  0  0  0  0  0  0  0
   38.8117   43.1724   42.5321 C   0  0  0  0  0  0  0  0  0  0  0  0
   38.7791   41.1047   41.4230 C   0  0  0  0  0  0  0  0  0  0  0  0
   39.5177   41.6881   40.4532 C   0  0  0  0  0  0  0  0  0  0  0  0
   39.9277   43.0019   40.4806 C   0  0  0  0  0  0  0  0  0  0  0  0
   37.2619   39.4841   40.7434 C   0  0  0  0  0  0  0  0  0  0  0  0
   36.8178   38.1078   40.6797 C   0  0  0  0  0  0  0  0  0  0  0  0
   36.4118   37.3378   41.7773 C   0  0  0  0  0  0  0  0  0  0  0  0
   36.0309   36.0314   41.5485 C   0  0  0  0  0  0  0  0  0  0  0  0
   36.0378   35.5626   40.2443 C   0  0  0  0  0  0  0  0  0  0  0  0
   36.4808   36.3474   39.2017 C   0  0  0  0  0  0  0  0  0  0  0  0
   47.0728   47.7329   45.8168 N   0  0  0  0  0  0  0  0  0  0  0  0
   45.1937   45.7813   44.0178 N   0  0  0  0  0  0  0  0  0  0  0  0
   38.4056   39.6922   41.2946 N   0  0  0  0  0  0  0  0  0  0  0  0
   36.8267   37.6094   39.4069 N   0  0  0  0  0  0  0  0  0  0  0  0
  1 17  2  0  0  0  0
  1 16  1  0  0  0  0
  2  3  2  0  0  0  0
  2 26  1  0  0  0  0
  3  4  1  0  0  0  0
  4  5  2  0  0  0  0
  5  6  1  0  0  0  0
  6  7  1  0  0  0  0
  6 26  2  0  0  0  0
  7 27  2  0  0  0  0
  8  9  2  0  0  0  0
  8 13  1  0  0  0  0
  8 27  1  0  0  0  0
  9 10  1  0  0  0  0
 10 11  2  0  0  0  0
 11 12  1  0  0  0  0
 11 14  1  0  0  0  0
 12 13  2  0  0  0  0
 14 15  1  0  0  0  0
 15 16  2  0  0  0  0
 15 19  1  0  0  0  0
 17 18  1  0  0  0  0
 17 28  1  0  0  0  0
 18 19  2  0  0  0  0
 20 21  1  0  0  0  0
 20 28  2  0  0  0  0
 21 22  2  0  0  0  0
 21 29  1  0  0  0  0
 22 23  1  0  0  0  0
 23 24  2  0  0  0  0
 24 25  1  0  0  0  0
 25 29  2  0  0  0  0
M  END
>  <CHROM.1>
65.59534734,91.26832478,92.97651743,70.33741870,89.46060251,87.86161001,41.55451504
43.11477399,42.46353405,2.44918257,0.38549771,3.13827163

>  <Name>
ligand

>  <RI>
0

>  <Rbt.Current_Directory>
/home/itssahil/PROJECTS/Mol_Feturizer/New_Systems/rnas/4JIY

>  <Rbt.Executable>
rbdock ($Id: //depot/dev/client3/rdock/2013.1/src/exe/rbdock.cxx#4 $)

>  <Rbt.Library>
libRbt.so (2013.1, Build901 2013/11/27)

>  <Rbt.Parameter_File>
/export/apps/rDock/src/rDock_2013.1_src/data/scripts/dock_solv.prm

>  <Rbt.Receptor>
prm/pocket_docking_2.prm

>  <SCORE>
10.1805

>  <SCORE.INTER>
11.4

>  <SCORE.INTER.CONST>
1

>  <SCORE.INTER.POLAR>
0

>  <SCORE.INTER.ROT>
6

>  <SCORE.INTER.SOLV>
-4.44089e-16

>  <SCORE.INTER.VDW>
0

>  <SCORE.INTER.norm>
0.393103

>  <SCORE.INTRA>
-1.21948

>  <SCORE.INTRA.DIHEDRAL>
-0.0365067

>  <SCORE.INTRA.DIHEDRAL.0>
7.2424

>  <SCORE.INTRA.POLAR>
0

>  <SCORE.INTRA.POLAR.0>
0

>  <SCORE.INTRA.REPUL>
0

>  <SCORE.INTRA.REPUL.0>
0

>  <SCORE.INTRA.SOLV>
-0.0192444

>  <SCORE.INTRA.SOLV.lig_0>
-3.36201

>  <SCORE.INTRA.VDW>
-1.1916

>  <SCORE.INTRA.VDW.0>
-0.910526

>  <SCORE.INTRA.norm>
-0.0420509

>  <SCORE.RESTR>
0

>  <SCORE.RESTR.CAVITY>
0

>  <SCORE.RESTR.norm>
0

>  <SCORE.SYSTEM>
0

>  <SCORE.SYSTEM.CONST>
0

>  <SCORE.SYSTEM.DIHEDRAL>
0

>  <SCORE.SYSTEM.SOLV>
0

>  <SCORE.SYSTEM.norm>
0

>  <SCORE.heavy>
29

>  <SCORE.norm>
0.351053

>  <RMSD>
1.302

$$$$
ligand
 OpenBabel11021811493D
libRbt.so/2013.1/901 2013/11/27
 29 32  0  0  0  0  0  0  0  0999 V2000
   42.0432   46.9233   44.3929 C   0  0  0  0  0  0  0  0  0  0  0  0
   36.4311   36.5059   39.7858 C   0  0  0  0  0  0  0  0  0  0  0  0
   36.4500   35.6070   40.8605 C   0  0  0  0  0  0  0  0  0  0  0  0
   36.7439   36.0303   42.1097 C   0  0  0  0  0  0  0  0  0  0  0  0
   37.0923   37.3620   42.2904 C   0  0  0  0  0  0  0  0  0  0  0  0
   37.0090   38.2287   41.2330 C   0  0  0  0  0  0  0  0  0  0  0  0
   37.2259   39.6725   41.2941 C   0  0  0  0  0  0  0  0  0  0  0  0
   38.6740   41.4659   41.6067 C   0  0  0  0  0  0  0  0  0  0  0  0
   38.7498   42.2793   40.4933 C   0  0  0  0  0  0  0  0  0  0  0  0
   39.0015   43.6413   40.6685 C   0  0  0  0  0  0  0  0  0  0  0  0
   39.0770   44.2133   41.9117 C   0  0  0  0  0  0  0  0  0  0  0  0
   38.9857   43.3541   43.0279 C   0  0  0  0  0  0  0  0  0  0  0  0
   38.8460   41.9791   42.8766 C   0  0  0  0  0  0  0  0  0  0  0  0
   39.2047   45.7235   42.0996 C   0  0  0  0  0  0  0  0  0  0  0  0
   40.5748   46.1549   42.6038 C   0  0  0  0  0  0  0  0  0  0  0  0
   40.8097   46.5261   43.9031 C   0  0  0  0  0  0  0  0  0  0  0  0
   43.0890   46.9207   43.5092 C   0  0  0  0  0  0  0  0  0  0  0  0
   42.8616   46.5616   42.2263 C   0  0  0  0  0  0  0  0  0  0  0  0
   41.6317   46.1828   41.7376 C   0  0  0  0  0  0  0  0  0  0  0  0
   45.1523   46.3679   44.4190 C   0  0  0  0  0  0  0  0  0  0  0  0
   46.4599   46.7376   44.9178 C   0  0  0  0  0  0  0  0  0  0  0  0
   46.6994   47.5565   46.0288 C   0  0  0  0  0  0  0  0  0  0  0  0
   48.0100   47.8269   46.3656 C   0  0  0  0  0  0  0  0  0  0  0  0
   49.0168   47.2478   45.6094 C   0  0  0  0  0  0  0  0  0  0  0  0
   48.7309   46.4782   44.5024 C   0  0  0  0  0  0  0  0  0  0  0  0
   36.7087   37.8067   39.9769 N   0  0  0  0  0  0  0  0  0  0  0  0
   38.4729   40.0350   41.4245 N   0  0  0  0  0  0  0  0  0  0  0  0
   44.4406   47.3161   43.9192 N   0  0  0  0  0  0  0  0  0  0  0  0
   47.4770   46.1939   44.1840 N   0  0  0  0  0  0  0  0  0  0  0  0
  1 17  2  0  0  0  0
  1 16  1  0  0  0  0
  2  3  2  0  0  0  0
  2 26  1  0  0  0  0
  3  4  1  0  0  0  0
  4  5  2  0  0  0  0
  5  6  1  0  0  0  0
  6  7  1  0  0  0  0
  6 26  2  0  0  0  0
  7 27  2  0  0  0  0
  8  9  2  0  0  0  0
  8 13  1  0  0  0  0
  8 27  1  0  0  0  0
  9 10  1  0  0  0  0
 10 11  2  0  0  0  0
 11 12  1  0  0  0  0
 11 14  1  0  0  0  0
 12 13  2  0  0  0  0
 14 15  1  0  0  0  0
 15 16  2  0  0  0  0
 15 19  1  0  0  0  0
 17 18  1  0  0  0  0
 17 28  1  0  0  0  0
 18 19  2  0  0  0  0
 20 21  1  0  0  0  0
 20 28  2  0  0  0  0
 21 22  2  0  0  0  0
 21 29  1  0  0  0  0
 22 23  1  0  0  0  0
 23 24  2  0  0  0  0
 24 25  1  0  0  0  0
 25 29  2  0  0  0  0
M  END
>  <CHROM.1>
73.84871497,-109.39001786,-103.72813056,67.05202616,-85.15642853,86.56942596
41.23049378,43.40838083,42.74628373,0.73366071,-0.37370462,0.00609388

>  <Name>
ligand

>  <RI>
0

>  <Rbt.Current_Directory>
/home/itssahil/PROJECTS/Mol_Feturizer/New_Systems/rnas/4JIY

>  <Rbt.Executable>
rbdock ($Id: //depot/dev/client3/rdock/2013.1/src/exe/rbdock.cxx#4 $)

>  <Rbt.Library>
libRbt.so (2013.1, Build901 2013/11/27)

>  <Rbt.Parameter_File>
/export/apps/rDock/src/rDock_2013.1_src/data/scripts/dock_solv.prm

>  <Rbt.Receptor>
prm/pocket_docking_2.prm

>  <SCORE>
10.2696

>  <SCORE.INTER>
11.4

>  <SCORE.INTER.CONST>
1

>  <SCORE.INTER.POLAR>
0

>  <SCORE.INTER.ROT>
6

>  <SCORE.INTER.SOLV>
-1.77636e-15

>  <SCORE.INTER.VDW>
0

>  <SCORE.INTER.norm>
0.393103

>  <SCORE.INTRA>
-1.13037

>  <SCORE.INTRA.DIHEDRAL>
0.0987466

>  <SCORE.INTRA.DIHEDRAL.0>
7.2424

>  <SCORE.INTRA.POLAR>
0

>  <SCORE.INTRA.POLAR.0>
0

>  <SCORE.INTRA.REPUL>
0

>  <SCORE.INTRA.REPUL.0>
0

>  <SCORE.INTRA.SOLV>
-0.0200196

>  <SCORE.INTRA.SOLV.lig_0>
-3.36201

>  <SCORE.INTRA.VDW>
-1.16974

>  <SCORE.INTRA.VDW.0>
-0.910526

>  <SCORE.INTRA.norm>
-0.0389784

>  <SCORE.RESTR>
0

>  <SCORE.RESTR.CAVITY>
0

>  <SCORE.RESTR.norm>
0

>  <SCORE.SYSTEM>
0

>  <SCORE.SYSTEM.CONST>
0

>  <SCORE.SYSTEM.DIHEDRAL>
0

>  <SCORE.SYSTEM.SOLV>
0

>  <SCORE.SYSTEM.norm>
0

>  <SCORE.heavy>
29

>  <SCORE.norm>
0.354125

>  <RMSD>
1.324

$$$$
ligand
 OpenBabel11021811493D
libRbt.so/2013.1/901 2013/11/27
 29 32  0  0  0  0  0  0  0  0999 V2000
   42.7474   47.5456   42.8855 C   0  0  0  0  0  0  0  0  0  0  0  0
   35.9122   36.8043   40.6313 C   0  0  0  0  0  0  0  0  0  0  0  0
   35.8625   36.1803   41.8849 C   0  0  0  0  0  0  0  0  0  0  0  0
   36.2814   36.8268   42.9952 C   0  0  0  0  0  0  0  0  0  0  0  0
   36.8241   38.0968   42.8541 C   0  0  0  0  0  0  0  0  0  0  0  0
   36.8065   38.7035   41.6262 C   0  0  0  0  0  0  0  0  0  0  0  0
   37.2284   40.0741   41.3455 C   0  0  0  0  0  0  0  0  0  0  0  0
   38.9046   41.6870   41.3291 C   0  0  0  0  0  0  0  0  0  0  0  0
   39.2145   42.1529   40.0666 C   0  0  0  0  0  0  0  0  0  0  0  0
   39.6526   43.4706   39.9224 C   0  0  0  0  0  0  0  0  0  0  0  0
   39.6901   44.3446   40.9774 C   0  0  0  0  0  0  0  0  0  0  0  0
   39.3576   43.8375   42.2521 C   0  0  0  0  0  0  0  0  0  0  0  0
   39.0253   42.5004   42.4379 C   0  0  0  0  0  0  0  0  0  0  0  0
   40.0276   45.8222   40.7906 C   0  0  0  0  0  0  0  0  0  0  0  0
   41.3809   46.2099   41.3704 C   0  0  0  0  0  0  0  0  0  0  0  0
   41.5315   47.1703   42.3378 C   0  0  0  0  0  0  0  0  0  0  0  0
   43.8593   46.8890   42.4302 C   0  0  0  0  0  0  0  0  0  0  0  0
   43.7170   45.9461   41.4726 C   0  0  0  0  0  0  0  0  0  0  0  0
   42.5096   45.5859   40.9179 C   0  0  0  0  0  0  0  0  0  0  0  0
   45.4868   46.6446   44.0678 C   0  0  0  0  0  0  0  0  0  0  0  0
   46.7636   46.9975   44.6515 C   0  0  0  0  0  0  0  0  0  0  0  0
   47.1623   48.2945   44.9994 C   0  0  0  0  0  0  0  0  0  0  0  0
   48.4234   48.4648   45.5333 C   0  0  0  0  0  0  0  0  0  0  0  0
   49.2128   47.3424   45.7280 C   0  0  0  0  0  0  0  0  0  0  0  0
   48.7901   46.0908   45.3355 C   0  0  0  0  0  0  0  0  0  0  0  0
   36.3810   38.0576   40.5091 N   0  0  0  0  0  0  0  0  0  0  0  0
   38.5064   40.2954   41.4911 N   0  0  0  0  0  0  0  0  0  0  0  0
   45.1976   47.1997   42.9438 N   0  0  0  0  0  0  0  0  0  0  0  0
   47.5733   45.9131   44.8433 N   0  0  0  0  0  0  0  0  0  0  0  0
  1 17  2  0  0  0  0
  1 16  1  0  0  0  0
  2  3  2  0  0  0  0
  2 26  1  0  0  0  0
  3  4  1  0  0  0  0
  4  5  2  0  0  0  0
  5  6  1  0  0  0  0
  6  7  1  0  0  0  0
  6 26  2  0  0  0  0
  7 27  2  0  0  0  0
  8  9  2  0  0  0  0
  8 13  1  0  0  0  0
  8 27  1  0  0  0  0
  9 10  1  0  0  0  0
 10 11  2  0  0  0  0
 11 12  1  0  0  0  0
 11 14  1  0  0  0  0
 12 13  2  0  0  0  0
 14 15  1  0  0  0  0
 15 16  2  0  0  0  0
 15 19  1  0  0  0  0
 17 18  1  0  0  0  0
 17 28  1  0  0  0  0
 18 19  2  0  0  0  0
 20 21  1  0  0  0  0
 20 28  2  0  0  0  0
 21 22  2  0  0  0  0
 21 29  1  0  0  0  0
 22 23  1  0  0  0  0
 23 24  2  0  0  0  0
 24 25  1  0  0  0  0
 25 29  2  0  0  0  0
M  END
>  <CHROM.1>
67.41053905,-110.29371568,-121.27649842,59.10636396,-88.01285179,81.03793279
41.51783264,43.61976588,42.42810013,0.52951093,-0.55160278,-0.40940354

>  <Name>
ligand

>  <RI>
0

>  <Rbt.Current_Directory>
/home/itssahil/PROJECTS/Mol_Feturizer/New_Systems/rnas/4JIY

>  <Rbt.Executable>
rbdock ($Id: //depot/dev/client3/rdock/2013.1/src/exe/rbdock.cxx#4 $)

>  <Rbt.Library>
libRbt.so (2013.1, Build901 2013/11/27)

>  <Rbt.Parameter_File>
/export/apps/rDock/src/rDock_2013.1_src/data/scripts/dock_solv.prm

>  <Rbt.Receptor>
prm/pocket_docking_2.prm

>  <SCORE>
10.3065

>  <SCORE.INTER>
11.4

>  <SCORE.INTER.CONST>
1

>  <SCORE.INTER.POLAR>
0

>  <SCORE.INTER.ROT>
6

>  <SCORE.INTER.SOLV>
0

>  <SCORE.INTER.VDW>
0

>  <SCORE.INTER.norm>
0.393103

>  <SCORE.INTRA>
-1.09355

>  <SCORE.INTRA.DIHEDRAL>
0.0274299

>  <SCORE.INTRA.DIHEDRAL.0>
7.2424

>  <SCORE.INTRA.POLAR>
0

>  <SCORE.INTRA.POLAR.0>
0

>  <SCORE.INTRA.REPUL>
0

>  <SCORE.INTRA.REPUL.0>
0

>  <SCORE.INTRA.SOLV>
-0.0203505

>  <SCORE.INTRA.SOLV.lig_0>
-3.36201

>  <SCORE.INTRA.VDW>
-1.09709

>  <SCORE.INTRA.VDW.0>
-0.910526

>  <SCORE.INTRA.norm>
-0.0377086

>  <SCORE.RESTR>
0

>  <SCORE.RESTR.CAVITY>
0

>  <SCORE.RESTR.norm>
0

>  <SCORE.SYSTEM>
0

>  <SCORE.SYSTEM.CONST>
0

>  <SCORE.SYSTEM.DIHEDRAL>
0

>  <SCORE.SYSTEM.SOLV>
0

>  <SCORE.SYSTEM.norm>
0

>  <SCORE.heavy>
29

>  <SCORE.norm>
0.355395

>  <RMSD>
1.386

$$$$
ligand
 OpenBabel11021811493D
libRbt.so/2013.1/901 2013/11/27
 29 32  0  0  0  0  0  0  0  0999 V2000
   39.2092   42.7341   42.6617 C   0  0  0  0  0  0  0  0  0  0  0  0
   49.7234   44.9004   44.4994 C   0  0  0  0  0  0  0  0  0  0  0  0
   50.6220   45.8720   44.0389 C   0  0  0  0  0  0  0  0  0  0  0  0
   50.2163   46.8393   43.1869 C   0  0  0  0  0  0  0  0  0  0  0  0
   48.9069   46.8068   42.7268 C   0  0  0  0  0  0  0  0  0  0  0  0
   48.0368   45.8808   43.2383 C   0  0  0  0  0  0  0  0  0  0  0  0
   46.6078   45.7989   42.9438 C   0  0  0  0  0  0  0  0  0  0  0  0
   44.5098   46.8033   42.9206 C   0  0  0  0  0  0  0  0  0  0  0  0
   43.9646   47.0565   41.6773 C   0  0  0  0  0  0  0  0  0  0  0  0
   42.5778   47.0051   41.5254 C   0  0  0  0  0  0  0  0  0  0  0  0
   41.7482   46.6152   42.5442 C   0  0  0  0  0  0  0  0  0  0  0  0
   42.3397   46.3545   43.7991 C   0  0  0  0  0  0  0  0  0  0  0  0
   43.7065   46.5066   44.0033 C   0  0  0  0  0  0  0  0  0  0  0  0
   40.2485   46.4176   42.3340 C   0  0  0  0  0  0  0  0  0  0  0  0
   39.8712   44.9832   41.9907 C   0  0  0  0  0  0  0  0  0  0  0  0
   39.5563   44.0459   42.9410 C   0  0  0  0  0  0  0  0  0  0  0  0
   39.1656   42.3741   41.3414 C   0  0  0  0  0  0  0  0  0  0  0  0
   39.4809   43.2924   40.4014 C   0  0  0  0  0  0  0  0  0  0  0  0
   39.8414   44.5911   40.6817 C   0  0  0  0  0  0  0  0  0  0  0  0
   37.5571   40.8440   40.6618 C   0  0  0  0  0  0  0  0  0  0  0  0
   37.1452   39.4947   40.3376 C   0  0  0  0  0  0  0  0  0  0  0  0
   37.4671   38.8129   39.1570 C   0  0  0  0  0  0  0  0  0  0  0  0
   36.9810   37.5318   38.9939 C   0  0  0  0  0  0  0  0  0  0  0  0
   36.2310   36.9769   40.0189 C   0  0  0  0  0  0  0  0  0  0  0  0
   35.9099   37.7012   41.1465 C   0  0  0  0  0  0  0  0  0  0  0  0
   48.4407   44.9103   44.0991 N   0  0  0  0  0  0  0  0  0  0  0  0
   45.9511   46.9163   43.0969 N   0  0  0  0  0  0  0  0  0  0  0  0
   38.8042   41.0138   40.9289 N   0  0  0  0  0  0  0  0  0  0  0  0
   36.3901   38.9229   41.3232 N   0  0  0  0  0  0  0  0  0  0  0  0
  1 17  2  0  0  0  0
  1 16  1  0  0  0  0
  2  3  2  0  0  0  0
  2 26  1  0  0  0  0
  3  4  1  0  0  0  0
  4  5  2  0  0  0  0
  5  6  1  0  0  0  0
  6  7  1  0  0  0  0
  6 26  2  0  0  0  0
  7 27  2  0  0  0  0
  8  9  2  0  0  0  0
  8 13  1  0  0  0  0
  8 27  1  0  0  0  0
  9 10  1  0  0  0  0
 10 11  2  0  0  0  0
 11 12  1  0  0  0  0
 11 14  1  0  0  0  0
 12 13  2  0  0  0  0
 14 15  1  0  0  0  0
 15 16  2  0  0  0  0
 15 19  1  0  0  0  0
 17 18  1  0  0  0  0
 17 28  1  0  0  0  0
 18 19  2  0  0  0  0
 20 21  1  0  0  0  0
 20 28  2  0  0  0  0
 21 22  2  0  0  0  0
 21 29  1  0  0  0  0
 22 23  1  0  0  0  0
 23 24  2  0  0  0  0
 24 25  1  0  0  0  0
 25 29  2  0  0  0  0
M  END
>  <CHROM.1>
-51.27427421,93.00751345,90.19835818,-70.80693512,-93.42155168,93.43635168
42.10645225,43.71968531,42.04944253,2.55210577,0.16678328,-2.98137837

>  <Name>
ligand

>  <RI>
0

>  <Rbt.Current_Directory>
/home/itssahil/PROJECTS/Mol_Feturizer/New_Systems/rnas/4JIY

>  <Rbt.Executable>
rbdock ($Id: //depot/dev/client3/rdock/2013.1/src/exe/rbdock.cxx#4 $)

>  <Rbt.Library>
libRbt.so (2013.1, Build901 2013/11/27)

>  <Rbt.Parameter_File>
/export/apps/rDock/src/rDock_2013.1_src/data/scripts/dock_solv.prm

>  <Rbt.Receptor>
prm/pocket_docking_3.prm

>  <SCORE>
9.52004

>  <SCORE.INTER>
10.7653

>  <SCORE.INTER.CONST>
1

>  <SCORE.INTER.POLAR>
0

>  <SCORE.INTER.ROT>
6

>  <SCORE.INTER.SOLV>
0.0224646

>  <SCORE.INTER.VDW>
-0.430623

>  <SCORE.INTER.norm>
0.371217

>  <SCORE.INTRA>
-1.24526

>  <SCORE.INTRA.DIHEDRAL>
-0.134068

>  <SCORE.INTRA.DIHEDRAL.0>
7.2424

>  <SCORE.INTRA.POLAR>
0

>  <SCORE.INTRA.POLAR.0>
0

>  <SCORE.INTRA.REPUL>
0

>  <SCORE.INTRA.REPUL.0>
0

>  <SCORE.INTRA.SOLV>
-0.0204445

>  <SCORE.INTRA.SOLV.lig_0>
-3.36201

>  <SCORE.INTRA.VDW>
-1.168

>  <SCORE.INTRA.VDW.0>
-0.910526

>  <SCORE.INTRA.norm>
-0.04294

>  <SCORE.RESTR>
0

>  <SCORE.RESTR.CAVITY>
0

>  <SCORE.RESTR.norm>
0

>  <SCORE.SYSTEM>
0

>  <SCORE.SYSTEM.CONST>
0

>  <SCORE.SYSTEM.DIHEDRAL>
0

>  <SCORE.SYSTEM.SOLV>
0

>  <SCORE.SYSTEM.norm>
0

>  <SCORE.heavy>
29

>  <SCORE.norm>
0.328277

>  <RMSD>
1.391

$$$$
ligand
 OpenBabel11021811493D
libRbt.so/2013.1/901 2013/11/27
 29 32  0  0  0  0  0  0  0  0999 V2000
   38.9517   43.4336   40.5453 C   0  0  0  0  0  0  0  0  0  0  0  0
   49.6990   46.9361   45.7286 C   0  0  0  0  0  0  0  0  0  0  0  0
   50.5012   45.8729   45.2932 C   0  0  0  0  0  0  0  0  0  0  0  0
   49.9911   44.9007   44.5054 C   0  0  0  0  0  0  0  0  0  0  0  0
   48.6387   44.9448   44.1946 C   0  0  0  0  0  0  0  0  0  0  0  0
   47.8933   46.0253   44.5857 C   0  0  0  0  0  0  0  0  0  0  0  0
   46.4965   46.2706   44.2337 C   0  0  0  0  0  0  0  0  0  0  0  0
   44.2780   45.5709   44.2469 C   0  0  0  0  0  0  0  0  0  0  0  0
   43.4202   46.3487   44.9994 C   0  0  0  0  0  0  0  0  0  0  0  0
   42.0895   46.4702   44.5952 C   0  0  0  0  0  0  0  0  0  0  0  0
   41.6320   45.9246   43.4241 C   0  0  0  0  0  0  0  0  0  0  0  0
   42.5381   45.1437   42.6746 C   0  0  0  0  0  0  0  0  0  0  0  0
   43.8376   44.9170   43.1138 C   0  0  0  0  0  0  0  0  0  0  0  0
   40.2168   46.1825   42.9115 C   0  0  0  0  0  0  0  0  0  0  0  0
   39.5302   44.9317   42.3805 C   0  0  0  0  0  0  0  0  0  0  0  0
   39.5652   44.5642   41.0597 C   0  0  0  0  0  0  0  0  0  0  0  0
   38.2863   42.6328   41.4345 C   0  0  0  0  0  0  0  0  0  0  0  0
   38.2437   42.9938   42.7362 C   0  0  0  0  0  0  0  0  0  0  0  0
   38.8403   44.1263   43.2427 C   0  0  0  0  0  0  0  0  0  0  0  0
   38.3333   40.3467   41.0321 C   0  0  0  0  0  0  0  0  0  0  0  0
   37.7249   39.1335   40.5288 C   0  0  0  0  0  0  0  0  0  0  0  0
   37.4313   38.8744   39.1839 C   0  0  0  0  0  0  0  0  0  0  0  0
   36.8343   37.6705   38.8700 C   0  0  0  0  0  0  0  0  0  0  0  0
   36.5889   36.7705   39.8950 C   0  0  0  0  0  0  0  0  0  0  0  0
   36.8624   37.0863   41.2083 C   0  0  0  0  0  0  0  0  0  0  0  0
   48.4050   47.0070   45.3735 N   0  0  0  0  0  0  0  0  0  0  0  0
   45.6509   45.3922   44.6993 N   0  0  0  0  0  0  0  0  0  0  0  0
   37.6057   41.4074   41.0028 N   0  0  0  0  0  0  0  0  0  0  0  0
   37.4561   38.2291   41.5179 N   0  0  0  0  0  0  0  0  0  0  0  0
  1 17  2  0  0  0  0
  1 16  1  0  0  0  0
  2  3  2  0  0  0  0
  2 26  1  0  0  0  0
  3  4  1  0  0  0  0
  4  5  2  0  0  0  0
  5  6  1  0  0  0  0
  6  7  1  0  0  0  0
  6 26  2  0  0  0  0
  7 27  2  0  0  0  0
  8  9  2  0  0  0  0
  8 13  1  0  0  0  0
  8 27  1  0  0  0  0
  9 10  1  0  0  0  0
 10 11  2  0  0  0  0
 11 12  1  0  0  0  0
 11 14  1  0  0  0  0
 12 13  2  0  0  0  0
 14 15  1  0  0  0  0
 15 16  2  0  0  0  0
 15 19  1  0  0  0  0
 17 18  1  0  0  0  0
 17 28  1  0  0  0  0
 18 19  2  0  0  0  0
 20 21  1  0  0  0  0
 20 28  2  0  0  0  0
 21 22  2  0  0  0  0
 21 29  1  0  0  0  0
 22 23  1  0  0  0  0
 23 24  2  0  0  0  0
 24 25  1  0  0  0  0
 25 29  2  0  0  0  0
M  END
>  <CHROM.1>
64.08007891,-136.58402223,-92.87152346,70.43327682,-91.09455759,90.19905192
41.98328895,43.45665171,42.74132386,2.52299429,0.20934396,-2.85735822

>  <Name>
ligand

>  <RI>
0

>  <Rbt.Current_Directory>
/home/itssahil/PROJECTS/Mol_Feturizer/New_Systems/rnas/4JIY

>  <Rbt.Executable>
rbdock ($Id: //depot/dev/client3/rdock/2013.1/src/exe/rbdock.cxx#4 $)

>  <Rbt.Library>
libRbt.so (2013.1, Build901 2013/11/27)

>  <Rbt.Parameter_File>
/export/apps/rDock/src/rDock_2013.1_src/data/scripts/dock_solv.prm

>  <Rbt.Receptor>
prm/pocket_docking_3.prm

>  <SCORE>
9.48999

>  <SCORE.INTER>
10.6845

>  <SCORE.INTER.CONST>
1

>  <SCORE.INTER.POLAR>
0

>  <SCORE.INTER.ROT>
6

>  <SCORE.INTER.SOLV>
0.0298805

>  <SCORE.INTER.VDW>
-0.486988

>  <SCORE.INTER.norm>
0.36843

>  <SCORE.INTRA>
-1.19447

>  <SCORE.INTRA.DIHEDRAL>
-0.113738

>  <SCORE.INTRA.DIHEDRAL.0>
7.2424

>  <SCORE.INTRA.POLAR>
0

>  <SCORE.INTRA.POLAR.0>
0

>  <SCORE.INTRA.REPUL>
0

>  <SCORE.INTRA.REPUL.0>
0

>  <SCORE.INTRA.SOLV>
-0.020262

>  <SCORE.INTRA.SOLV.lig_0>
-3.36201

>  <SCORE.INTRA.VDW>
-1.12747

>  <SCORE.INTRA.VDW.0>
-0.910526

>  <SCORE.INTRA.norm>
-0.0411886

>  <SCORE.RESTR>
0

>  <SCORE.RESTR.CAVITY>
0

>  <SCORE.RESTR.norm>
0

>  <SCORE.SYSTEM>
0

>  <SCORE.SYSTEM.CONST>
0

>  <SCORE.SYSTEM.DIHEDRAL>
0

>  <SCORE.SYSTEM.SOLV>
0

>  <SCORE.SYSTEM.norm>
0

>  <SCORE.heavy>
29

>  <SCORE.norm>
0.327241

>  <RMSD>
1.423

$$$$
ligand
 OpenBabel11021811493D
libRbt.so/2013.1/901 2013/11/27
 29 32  0  0  0  0  0  0  0  0999 V2000
   39.8721   42.7003   40.5786 C   0  0  0  0  0  0  0  0  0  0  0  0
   49.9595   44.9043   44.5148 C   0  0  0  0  0  0  0  0  0  0  0  0
   50.3080   45.5998   45.6804 C   0  0  0  0  0  0  0  0  0  0  0  0
   49.3865   46.3222   46.3549 C   0  0  0  0  0  0  0  0  0  0  0  0
   48.1050   46.4135   45.8287 C   0  0  0  0  0  0  0  0  0  0  0  0
   47.7785   45.6770   44.7209 C   0  0  0  0  0  0  0  0  0  0  0  0
   46.4480   45.5761   44.1252 C   0  0  0  0  0  0  0  0  0  0  0  0
   44.6187   46.6122   43.1295 C   0  0  0  0  0  0  0  0  0  0  0  0
   44.3912   46.3094   41.8016 C   0  0  0  0  0  0  0  0  0  0  0  0
   43.0781   46.2974   41.3275 C   0  0  0  0  0  0  0  0  0  0  0  0
   42.0030   46.4784   42.1580 C   0  0  0  0  0  0  0  0  0  0  0  0
   42.2715   46.7764   43.5114 C   0  0  0  0  0  0  0  0  0  0  0  0
   43.5733   46.9031   43.9828 C   0  0  0  0  0  0  0  0  0  0  0  0
   40.5662   46.3186   41.6659 C   0  0  0  0  0  0  0  0  0  0  0  0
   40.0864   44.8737   41.6636 C   0  0  0  0  0  0  0  0  0  0  0  0
   40.2953   44.0190   40.6116 C   0  0  0  0  0  0  0  0  0  0  0  0
   39.2194   42.2327   41.6876 C   0  0  0  0  0  0  0  0  0  0  0  0
   39.0057   43.0727   42.7246 C   0  0  0  0  0  0  0  0  0  0  0  0
   39.4128   44.3875   42.7489 C   0  0  0  0  0  0  0  0  0  0  0  0
   37.6056   40.6422   41.1818 C   0  0  0  0  0  0  0  0  0  0  0  0
   37.0485   39.3126   41.3131 C   0  0  0  0  0  0  0  0  0  0  0  0
   37.5637   38.1573   40.7113 C   0  0  0  0  0  0  0  0  0  0  0  0
   36.9030   36.9646   40.9241 C   0  0  0  0  0  0  0  0  0  0  0  0
   35.7881   36.9676   41.7473 C   0  0  0  0  0  0  0  0  0  0  0  0
   35.2977   38.1368   42.2875 C   0  0  0  0  0  0  0  0  0  0  0  0
   48.7018   44.9457   44.0437 N   0  0  0  0  0  0  0  0  0  0  0  0
   45.9906   46.6860   43.6129 N   0  0  0  0  0  0  0  0  0  0  0  0
   38.7328   40.8513   41.7658 N   0  0  0  0  0  0  0  0  0  0  0  0
   35.9370   39.2829   42.1082 N   0  0  0  0  0  0  0  0  0  0  0  0
  1 17  2  0  0  0  0
  1 16  1  0  0  0  0
  2  3  2  0  0  0  0
  2 26  1  0  0  0  0
  3  4  1  0  0  0  0
  4  5  2  0  0  0  0
  5  6  1  0  0  0  0
  6  7  1  0  0  0  0
  6 26  2  0  0  0  0
  7 27  2  0  0  0  0
  8  9  2  0  0  0  0
  8 13  1  0  0  0  0
  8 27  1  0  0  0  0
  9 10  1  0  0  0  0
 10 11  2  0  0  0  0
 11 12  1  0  0  0  0
 11 14  1  0  0  0  0
 12 13  2  0  0  0  0
 14 15  1  0  0  0  0
 15 16  2  0  0  0  0
 15 19  1  0  0  0  0
 17 18  1  0  0  0  0
 17 28  1  0  0  0  0
 18 19  2  0  0  0  0
 20 21  1  0  0  0  0
 20 28  2  0  0  0  0
 21 22  2  0  0  0  0
 21 29  1  0  0  0  0
 22 23  1  0  0  0  0
 23 24  2  0  0  0  0
 24 25  1  0  0  0  0
 25 29  2  0  0  0  0
M  END
>  <CHROM.1>
65.82992692,83.46767382,-86.52502770,-69.99977707,-93.33649005,-81.53031716
42.06459629,43.56525372,42.70507816,2.64540538,0.36088376,2.98930251

>  <Name>
ligand

>  <RI>
0

>  <Rbt.Current_Directory>
/home/itssahil/PROJECTS/Mol_Feturizer/New_Systems/rnas/4JIY

>  <Rbt.Executable>
rbdock ($Id: //depot/dev/client3/rdock/2013.1/src/exe/rbdock.cxx#4 $)

>  <Rbt.Library>
libRbt.so (2013.1, Build901 2013/11/27)

>  <Rbt.Parameter_File>
/export/apps/rDock/src/rDock_2013.1_src/data/scripts/dock_solv.prm

>  <Rbt.Receptor>
prm/pocket_docking_3.prm

>  <SCORE>
9.50909

>  <SCORE.INTER>
10.7846

>  <SCORE.INTER.CONST>
1

>  <SCORE.INTER.POLAR>
0

>  <SCORE.INTER.ROT>
6

>  <SCORE.INTER.SOLV>
0.0287298

>  <SCORE.INTER.VDW>
-0.419855

>  <SCORE.INTER.norm>
0.371882

>  <SCORE.INTRA>
-1.27549

>  <SCORE.INTRA.DIHEDRAL>
-0.101789

>  <SCORE.INTRA.DIHEDRAL.0>
7.2424

>  <SCORE.INTRA.POLAR>
0

>  <SCORE.INTRA.POLAR.0>
0

>  <SCORE.INTRA.REPUL>
0

>  <SCORE.INTRA.REPUL.0>
0

>  <SCORE.INTRA.SOLV>
-0.0198305

>  <SCORE.INTRA.SOLV.lig_0>
-3.36201

>  <SCORE.INTRA.VDW>
-1.21468

>  <SCORE.INTRA.VDW.0>
-0.910526

>  <SCORE.INTRA.norm>
-0.0439824

>  <SCORE.RESTR>
0

>  <SCORE.RESTR.CAVITY>
0

>  <SCORE.RESTR.norm>
0

>  <SCORE.SYSTEM>
0

>  <SCORE.SYSTEM.CONST>
0

>  <SCORE.SYSTEM.DIHEDRAL>
0

>  <SCORE.SYSTEM.SOLV>
0

>  <SCORE.SYSTEM.norm>
0

>  <SCORE.heavy>
29

>  <SCORE.norm>
0.3279

>  <RMSD>
1.457

$$$$
ligand
 OpenBabel11021811493D
libRbt.so/2013.1/901 2013/11/27
 29 32  0  0  0  0  0  0  0  0999 V2000
   38.9056   42.9086   39.8308 C   0  0  0  0  0  0  0  0  0  0  0  0
   49.3632   46.7521   45.8874 C   0  0  0  0  0  0  0  0  0  0  0  0
   50.2892   45.7866   45.4705 C   0  0  0  0  0  0  0  0  0  0  0  0
   49.9743   44.9020   44.4987 C   0  0  0  0  0  0  0  0  0  0  0  0
   48.6900   44.9295   43.9722 C   0  0  0  0  0  0  0  0  0  0  0  0
   47.8260   45.9201   44.3573 C   0  0  0  0  0  0  0  0  0  0  0  0
   46.4921   46.1504   43.8068 C   0  0  0  0  0  0  0  0  0  0  0  0
   44.3300   45.3860   43.4170 C   0  0  0  0  0  0  0  0  0  0  0  0
   43.4065   46.2458   43.9781 C   0  0  0  0  0  0  0  0  0  0  0  0
   42.1479   46.3644   43.3858 C   0  0  0  0  0  0  0  0  0  0  0  0
   41.8340   45.7318   42.2112 C   0  0  0  0  0  0  0  0  0  0  0  0
   42.8047   44.8679   41.6599 C   0  0  0  0  0  0  0  0  0  0  0  0
   44.0239   44.6483   42.2911 C   0  0  0  0  0  0  0  0  0  0  0  0
   40.5112   45.9790   41.4890 C   0  0  0  0  0  0  0  0  0  0  0  0
   39.6975   44.7112   41.2697 C   0  0  0  0  0  0  0  0  0  0  0  0
   39.6358   44.0628   40.0627 C   0  0  0  0  0  0  0  0  0  0  0  0
   38.2213   42.3857   40.8952 C   0  0  0  0  0  0  0  0  0  0  0  0
   38.2740   43.0242   42.0851 C   0  0  0  0  0  0  0  0  0  0  0  0
   38.9871   44.1802   42.3096 C   0  0  0  0  0  0  0  0  0  0  0  0
   38.0601   40.0720   41.0009 C   0  0  0  0  0  0  0  0  0  0  0  0
   37.3283   38.8398   40.7975 C   0  0  0  0  0  0  0  0  0  0  0  0
   36.9552   38.3175   39.5524 C   0  0  0  0  0  0  0  0  0  0  0  0
   36.2437   37.1353   39.5311 C   0  0  0  0  0  0  0  0  0  0  0  0
   35.9667   36.5120   40.7375 C   0  0  0  0  0  0  0  0  0  0  0  0
   36.3232   37.0841   41.9395 C   0  0  0  0  0  0  0  0  0  0  0  0
   48.1419   46.8141   45.3305 N   0  0  0  0  0  0  0  0  0  0  0  0
   45.6217   45.2134   44.0674 N   0  0  0  0  0  0  0  0  0  0  0  0
   37.4206   41.1636   40.7668 N   0  0  0  0  0  0  0  0  0  0  0  0
   37.0259   38.2064   41.9705 N   0  0  0  0  0  0  0  0  0  0  0  0
  1 17  2  0  0  0  0
  1 16  1  0  0  0  0
  2  3  2  0  0  0  0
  2 26  1  0  0  0  0
  3  4  1  0  0  0  0
  4  5  2  0  0  0  0
  5  6  1  0  0  0  0
  6  7  1  0  0  0  0
  6 26  2  0  0  0  0
  7 27  2  0  0  0  0
  8  9  2  0  0  0  0
  8 13  1  0  0  0  0
  8 27  1  0  0  0  0
  9 10  1  0  0  0  0
 10 11  2  0  0  0  0
 11 12  1  0  0  0  0
 11 14  1  0  0  0  0
 12 13  2  0  0  0  0
 14 15  1  0  0  0  0
 15 16  2  0  0  0  0
 15 19  1  0  0  0  0
 17 18  1  0  0  0  0
 17 28  1  0  0  0  0
 18 19  2  0  0  0  0
 20 21  1  0  0  0  0
 20 28  2  0  0  0  0
 21 22  2  0  0  0  0
 21 29  1  0  0  0  0
 22 23  1  0  0  0  0
 23 24  2  0  0  0  0
 24 25  1  0  0  0  0
 25 29  2  0  0  0  0
M  END
>  <CHROM.1>
66.99709114,-122.67617026,-102.20451064,71.27395644,-81.13234755,89.82134879
41.87776394,43.25710640,42.37470954,2.62259414,0.37004947,3.08619413

>  <Name>
ligand

>  <RI>
0

>  <Rbt.Current_Directory>
/home/itssahil/PROJECTS/Mol_Feturizer/New_Systems/rnas/4JIY

>  <Rbt.Executable>
rbdock ($Id: //depot/dev/client3/rdock/2013.1/src/exe/rbdock.cxx#4 $)

>  <Rbt.Library>
libRbt.so (2013.1, Build901 2013/11/27)

>  <Rbt.Parameter_File>
/export/apps/rDock/src/rDock_2013.1_src/data/scripts/dock_solv.prm

>  <Rbt.Receptor>
prm/pocket_docking_3.prm

>  <SCORE>
9.51228

>  <SCORE.INTER>
10.6523

>  <SCORE.INTER.CONST>
1

>  <SCORE.INTER.POLAR>
0

>  <SCORE.INTER.ROT>
6

>  <SCORE.INTER.SOLV>
0.0293655

>  <SCORE.INTER.VDW>
-0.50826

>  <SCORE.INTER.norm>
0.36732

>  <SCORE.INTRA>
-1.14002

>  <SCORE.INTRA.DIHEDRAL>
-0.00484985

>  <SCORE.INTRA.DIHEDRAL.0>
7.2424

>  <SCORE.INTRA.POLAR>
0

>  <SCORE.INTRA.POLAR.0>
0

>  <SCORE.INTRA.REPUL>
0

>  <SCORE.INTRA.REPUL.0>
0

>  <SCORE.INTRA.SOLV>
-0.0201252

>  <SCORE.INTRA.SOLV.lig_0>
-3.36201

>  <SCORE.INTRA.VDW>
-1.12753

>  <SCORE.INTRA.VDW.0>
-0.910526

>  <SCORE.INTRA.norm>
-0.039311

>  <SCORE.RESTR>
0

>  <SCORE.RESTR.CAVITY>
0

>  <SCORE.RESTR.norm>
0

>  <SCORE.SYSTEM>
0

>  <SCORE.SYSTEM.CONST>
0

>  <SCORE.SYSTEM.DIHEDRAL>
0

>  <SCORE.SYSTEM.SOLV>
0

>  <SCORE.SYSTEM.norm>
0

>  <SCORE.heavy>
29

>  <SCORE.norm>
0.32801

>  <RMSD>
1.460

$$$$
ligand
 OpenBabel11021811493D
libRbt.so/2013.1/901 2013/11/27
 29 32  0  0  0  0  0  0  0  0999 V2000
   39.3945   41.4783   40.2797 C   0  0  0  0  0  0  0  0  0  0  0  0
   48.6886   48.4807   45.0899 C   0  0  0  0  0  0  0  0  0  0  0  0
   49.8223   48.0465   44.3901 C   0  0  0  0  0  0  0  0  0  0  0  0
   49.6988   47.2957   43.2733 C   0  0  0  0  0  0  0  0  0  0  0  0
   48.4262   46.9091   42.8754 C   0  0  0  0  0  0  0  0  0  0  0  0
   47.3349   47.3960   43.5449 C   0  0  0  0  0  0  0  0  0  0  0  0
   45.9386   47.1771   43.1736 C   0  0  0  0  0  0  0  0  0  0  0  0
   44.1733   45.7072   42.8073 C   0  0  0  0  0  0  0  0  0  0  0  0
   43.1167   45.8136   43.6900 C   0  0  0  0  0  0  0  0  0  0  0  0
   41.8275   45.5280   43.2370 C   0  0  0  0  0  0  0  0  0  0  0  0
   41.5647   45.2424   41.9226 C   0  0  0  0  0  0  0  0  0  0  0  0
   42.6670   45.1511   41.0455 C   0  0  0  0  0  0  0  0  0  0  0  0
   43.9707   45.3224   41.4971 C   0  0  0  0  0  0  0  0  0  0  0  0
   40.1389   45.0760   41.4015 C   0  0  0  0  0  0  0  0  0  0  0  0
   39.6635   43.6297   41.3960 C   0  0  0  0  0  0  0  0  0  0  0  0
   39.8155   42.7977   40.3164 C   0  0  0  0  0  0  0  0  0  0  0  0
   38.8061   40.9856   41.4136 C   0  0  0  0  0  0  0  0  0  0  0  0
   38.6485   41.8032   42.4780 C   0  0  0  0  0  0  0  0  0  0  0  0
   39.0529   43.1188   42.5069 C   0  0  0  0  0  0  0  0  0  0  0  0
   37.1237   39.4219   41.0745 C   0  0  0  0  0  0  0  0  0  0  0  0
   36.5846   38.0861   41.2170 C   0  0  0  0  0  0  0  0  0  0  0  0
   36.2424   37.4779   42.4316 C   0  0  0  0  0  0  0  0  0  0  0  0
   35.7537   36.1879   42.3967 C   0  0  0  0  0  0  0  0  0  0  0  0
   35.5958   35.5770   41.1627 C   0  0  0  0  0  0  0  0  0  0  0  0
   35.9814   36.2032   39.9972 C   0  0  0  0  0  0  0  0  0  0  0  0
   47.4561   48.1553   44.6650 N   0  0  0  0  0  0  0  0  0  0  0  0
   45.5262   45.9445   43.2919 N   0  0  0  0  0  0  0  0  0  0  0  0
   38.3281   39.6011   41.4900 N   0  0  0  0  0  0  0  0  0  0  0  0
   36.4300   37.4493   40.0174 N   0  0  0  0  0  0  0  0  0  0  0  0
  1 17  2  0  0  0  0
  1 16  1  0  0  0  0
  2  3  2  0  0  0  0
  2 26  1  0  0  0  0
  3  4  1  0  0  0  0
  4  5  2  0  0  0  0
  5  6  1  0  0  0  0
  6  7  1  0  0  0  0
  6 26  2  0  0  0  0
  7 27  2  0  0  0  0
  8  9  2  0  0  0  0
  8 13  1  0  0  0  0
  8 27  1  0  0  0  0
  9 10  1  0  0  0  0
 10 11  2  0  0  0  0
 11 12  1  0  0  0  0
 11 14  1  0  0  0  0
 12 13  2  0  0  0  0
 14 15  1  0  0  0  0
 15 16  2  0  0  0  0
 15 19  1  0  0  0  0
 17 18  1  0  0  0  0
 17 28  1  0  0  0  0
 18 19  2  0  0  0  0
 20 21  1  0  0  0  0
 20 28  2  0  0  0  0
 21 22  2  0  0  0  0
 21 29  1  0  0  0  0
 22 23  1  0  0  0  0
 23 24  2  0  0  0  0
 24 25  1  0  0  0  0
 25 29  2  0  0  0  0
M  END
>  <CHROM.1>
67.23236585,-93.80045417,-91.14874752,70.18770916,-91.75852657,-87.44555014
41.64456800,43.14402553,42.20821630,2.46758818,0.32292414,3.02418283

>  <Name>
ligand

>  <RI>
0

>  <Rbt.Current_Directory>
/home/itssahil/PROJECTS/Mol_Feturizer/New_Systems/rnas/4JIY

>  <Rbt.Executable>
rbdock ($Id: //depot/dev/client3/rdock/2013.1/src/exe/rbdock.cxx#4 $)

>  <Rbt.Library>
libRbt.so (2013.1, Build901 2013/11/27)

>  <Rbt.Parameter_File>
/export/apps/rDock/src/rDock_2013.1_src/data/scripts/dock_solv.prm

>  <Rbt.Receptor>
prm/pocket_docking_2.prm

>  <SCORE>
10.2742

>  <SCORE.INTER>
11.4

>  <SCORE.INTER.CONST>
1

>  <SCORE.INTER.POLAR>
0

>  <SCORE.INTER.ROT>
6

>  <SCORE.INTER.SOLV>
0

>  <SCORE.INTER.VDW>
0

>  <SCORE.INTER.norm>
0.393103

>  <SCORE.INTRA>
-1.12579

>  <SCORE.INTRA.DIHEDRAL>
0.159898

>  <SCORE.INTRA.DIHEDRAL.0>
7.2424

>  <SCORE.INTRA.POLAR>
0

>  <SCORE.INTRA.POLAR.0>
0

>  <SCORE.INTRA.REPUL>
0

>  <SCORE.INTRA.REPUL.0>
0

>  <SCORE.INTRA.SOLV>
-0.0199024

>  <SCORE.INTRA.SOLV.lig_0>
-3.36201

>  <SCORE.INTRA.VDW>
-1.19579

>  <SCORE.INTRA.VDW.0>
-0.910526

>  <SCORE.INTRA.norm>
-0.0388203

>  <SCORE.RESTR>
0

>  <SCORE.RESTR.CAVITY>
0

>  <SCORE.RESTR.norm>
0

>  <SCORE.SYSTEM>
0

>  <SCORE.SYSTEM.CONST>
0

>  <SCORE.SYSTEM.DIHEDRAL>
0

>  <SCORE.SYSTEM.SOLV>
0

>  <SCORE.SYSTEM.norm>
0

>  <SCORE.heavy>
29

>  <SCORE.norm>
0.354283

>  <RMSD>
1.474

$$$$
ligand
 OpenBabel11021811493D
libRbt.so/2013.1/901 2013/11/27
 29 32  0  0  0  0  0  0  0  0999 V2000
   43.6805   47.2290   44.3635 C   0  0  0  0  0  0  0  0  0  0  0  0
   37.9733   37.5483   40.5063 C   0  0  0  0  0  0  0  0  0  0  0  0
   37.2304   36.8272   41.4506 C   0  0  0  0  0  0  0  0  0  0  0  0
   37.0202   37.3244   42.6894 C   0  0  0  0  0  0  0  0  0  0  0  0
   37.6143   38.5334   43.0249 C   0  0  0  0  0  0  0  0  0  0  0  0
   38.2859   39.2425   42.0645 C   0  0  0  0  0  0  0  0  0  0  0  0
   38.8576   40.5768   42.2327 C   0  0  0  0  0  0  0  0  0  0  0  0
   38.5544   42.8782   42.3832 C   0  0  0  0  0  0  0  0  0  0  0  0
   38.8502   43.4395   43.6098 C   0  0  0  0  0  0  0  0  0  0  0  0
   39.3429   44.7450   43.6533 C   0  0  0  0  0  0  0  0  0  0  0  0
   39.6356   45.4506   42.5153 C   0  0  0  0  0  0  0  0  0  0  0  0
   39.3297   44.8430   41.2784 C   0  0  0  0  0  0  0  0  0  0  0  0
   38.7357   43.5877   41.2130 C   0  0  0  0  0  0  0  0  0  0  0  0
   40.3112   46.8193   42.5648 C   0  0  0  0  0  0  0  0  0  0  0  0
   41.7962   46.7475   42.8923 C   0  0  0  0  0  0  0  0  0  0  0  0
   42.3352   47.2777   44.0366 C   0  0  0  0  0  0  0  0  0  0  0  0
   44.5083   46.5884   43.4809 C   0  0  0  0  0  0  0  0  0  0  0  0
   43.9831   46.0696   42.3489 C   0  0  0  0  0  0  0  0  0  0  0  0
   42.6483   46.1332   42.0179 C   0  0  0  0  0  0  0  0  0  0  0  0
   46.2847   45.5162   44.5225 C   0  0  0  0  0  0  0  0  0  0  0  0
   47.6889   45.4232   44.8617 C   0  0  0  0  0  0  0  0  0  0  0  0
   48.6951   44.9425   44.0139 C   0  0  0  0  0  0  0  0  0  0  0  0
   49.9873   44.9041   44.4966 C   0  0  0  0  0  0  0  0  0  0  0  0
   50.2252   45.3738   45.7786 C   0  0  0  0  0  0  0  0  0  0  0  0
   49.1960   45.8032   46.5883 C   0  0  0  0  0  0  0  0  0  0  0  0
   38.4942   38.7475   40.8165 N   0  0  0  0  0  0  0  0  0  0  0  0
   37.9826   41.5394   42.3378 N   0  0  0  0  0  0  0  0  0  0  0  0
   45.9493   46.4708   43.7278 N   0  0  0  0  0  0  0  0  0  0  0  0
   47.9559   45.8655   46.1272 N   0  0  0  0  0  0  0  0  0  0  0  0
  1 17  2  0  0  0  0
  1 16  1  0  0  0  0
  2  3  2  0  0  0  0
  2 26  1  0  0  0  0
  3  4  1  0  0  0  0
  4  5  2  0  0  0  0
  5  6  1  0  0  0  0
  6  7  1  0  0  0  0
  6 26  2  0  0  0  0
  7 27  2  0  0  0  0
  8  9  2  0  0  0  0
  8 13  1  0  0  0  0
  8 27  1  0  0  0  0
  9 10  1  0  0  0  0
 10 11  2  0  0  0  0
 11 12  1  0  0  0  0
 11 14  1  0  0  0  0
 12 13  2  0  0  0  0
 14 15  1  0  0  0  0
 15 16  2  0  0  0  0
 15 19  1  0  0  0  0
 17 18  1  0  0  0  0
 17 28  1  0  0  0  0
 18 19  2  0  0  0  0
 20 21  1  0  0  0  0
 20 28  2  0  0  0  0
 21 22  2  0  0  0  0
 21 29  1  0  0  0  0
 22 23  1  0  0  0  0
 23 24  2  0  0  0  0
 24 25  1  0  0  0  0
 25 29  2  0  0  0  0
M  END
>  <CHROM.1>
-70.25891268,74.81190072,-115.50136583,-75.03115315,-91.81989756,81.61154190
42.17867265,43.67332086,43.15851912,0.56079423,-0.28866491,0.00966691

>  <Name>
ligand

>  <RI>
0

>  <Rbt.Current_Directory>
/home/itssahil/PROJECTS/Mol_Feturizer/New_Systems/rnas/4JIY

>  <Rbt.Executable>
rbdock ($Id: //depot/dev/client3/rdock/2013.1/src/exe/rbdock.cxx#4 $)

>  <Rbt.Library>
libRbt.so (2013.1, Build901 2013/11/27)

>  <Rbt.Parameter_File>
/export/apps/rDock/src/rDock_2013.1_src/data/scripts/dock_solv.prm

>  <Rbt.Receptor>
prm/pocket_docking_3.prm

>  <SCORE>
9.32931

>  <SCORE.INTER>
10.6037

>  <SCORE.INTER.CONST>
1

>  <SCORE.INTER.POLAR>
0

>  <SCORE.INTER.ROT>
6

>  <SCORE.INTER.SOLV>
0.0295

>  <SCORE.INTER.VDW>
-0.540691

>  <SCORE.INTER.norm>
0.365645

>  <SCORE.INTRA>
-1.2744

>  <SCORE.INTRA.DIHEDRAL>
-0.0524069

>  <SCORE.INTRA.DIHEDRAL.0>
7.2424

>  <SCORE.INTRA.POLAR>
0

>  <SCORE.INTRA.POLAR.0>
0

>  <SCORE.INTRA.REPUL>
0

>  <SCORE.INTRA.REPUL.0>
0

>  <SCORE.INTRA.SOLV>
-0.0199933

>  <SCORE.INTRA.SOLV.lig_0>
-3.36201

>  <SCORE.INTRA.VDW>
-1.2382

>  <SCORE.INTRA.VDW.0>
-0.910526

>  <SCORE.INTRA.norm>
-0.043945

>  <SCORE.RESTR>
0

>  <SCORE.RESTR.CAVITY>
0

>  <SCORE.RESTR.norm>
0

>  <SCORE.SYSTEM>
0

>  <SCORE.SYSTEM.CONST>
0

>  <SCORE.SYSTEM.DIHEDRAL>
0

>  <SCORE.SYSTEM.SOLV>
0

>  <SCORE.SYSTEM.norm>
0

>  <SCORE.heavy>
29

>  <SCORE.norm>
0.3217

>  <RMSD>
1.580

$$$$
ligand
 OpenBabel11021811493D
libRbt.so/2013.1/901 2013/11/27
 29 32  0  0  0  0  0  0  0  0999 V2000
   39.5717   43.4861   39.7232 C   0  0  0  0  0  0  0  0  0  0  0  0
   49.4375   44.8919   44.8683 C   0  0  0  0  0  0  0  0  0  0  0  0
   50.4501   45.6880   44.3165 C   0  0  0  0  0  0  0  0  0  0  0  0
   50.1930   46.5070   43.2729 C   0  0  0  0  0  0  0  0  0  0  0  0
   48.9203   46.4900   42.7185 C   0  0  0  0  0  0  0  0  0  0  0  0
   47.9367   45.7459   43.3144 C   0  0  0  0  0  0  0  0  0  0  0  0
   46.5295   45.7207   42.9214 C   0  0  0  0  0  0  0  0  0  0  0  0
   44.5157   46.8463   42.6233 C   0  0  0  0  0  0  0  0  0  0  0  0
   44.0764   47.0156   41.3252 C   0  0  0  0  0  0  0  0  0  0  0  0
   42.7031   47.0344   41.0745 C   0  0  0  0  0  0  0  0  0  0  0  0
   41.7805   46.7916   42.0585 C   0  0  0  0  0  0  0  0  0  0  0  0
   42.2648   46.6131   43.3724 C   0  0  0  0  0  0  0  0  0  0  0  0
   43.6212   46.7004   43.6646 C   0  0  0  0  0  0  0  0  0  0  0  0
   40.2891   46.6666   41.7544 C   0  0  0  0  0  0  0  0  0  0  0  0
   39.8667   45.2533   41.3776 C   0  0  0  0  0  0  0  0  0  0  0  0
   39.9475   44.7657   40.0983 C   0  0  0  0  0  0  0  0  0  0  0  0
   39.1083   42.6626   40.7141 C   0  0  0  0  0  0  0  0  0  0  0  0
   39.0210   43.1403   41.9753 C   0  0  0  0  0  0  0  0  0  0  0  0
   39.3797   44.4175   42.3431 C   0  0  0  0  0  0  0  0  0  0  0  0
   37.4601   41.1584   40.0732 C   0  0  0  0  0  0  0  0  0  0  0  0
   36.9834   39.8062   39.8737 C   0  0  0  0  0  0  0  0  0  0  0  0
   37.3504   38.9681   38.8129 C   0  0  0  0  0  0  0  0  0  0  0  0
   36.7919   37.7074   38.7585 C   0  0  0  0  0  0  0  0  0  0  0  0
   35.9266   37.3265   39.7719 C   0  0  0  0  0  0  0  0  0  0  0  0
   35.5675   38.2003   40.7753 C   0  0  0  0  0  0  0  0  0  0  0  0
   48.1912   44.9255   44.3671 N   0  0  0  0  0  0  0  0  0  0  0  0
   45.9457   46.8877   42.8968 N   0  0  0  0  0  0  0  0  0  0  0  0
   38.6887   41.2856   40.4333 N   0  0  0  0  0  0  0  0  0  0  0  0
   36.1149   39.4040   40.8496 N   0  0  0  0  0  0  0  0  0  0  0  0
  1 17  2  0  0  0  0
  1 16  1  0  0  0  0
  2  3  2  0  0  0  0
  2 26  1  0  0  0  0
  3  4  1  0  0  0  0
  4  5  2  0  0  0  0
  5  6  1  0  0  0  0
  6  7  1  0  0  0  0
  6 26  2  0  0  0  0
  7 27  2  0  0  0  0
  8  9  2  0  0  0  0
  8 13  1  0  0  0  0
  8 27  1  0  0  0  0
  9 10  1  0  0  0  0
 10 11  2  0  0  0  0
 11 12  1  0  0  0  0
 11 14  1  0  0  0  0
 12 13  2  0  0  0  0
 14 15  1  0  0  0  0
 15 16  2  0  0  0  0
 15 19  1  0  0  0  0
 17 18  1  0  0  0  0
 17 28  1  0  0  0  0
 18 19  2  0  0  0  0
 20 21  1  0  0  0  0
 20 28  2  0  0  0  0
 21 22  2  0  0  0  0
 21 29  1  0  0  0  0
 22 23  1  0  0  0  0
 23 24  2  0  0  0  0
 24 25  1  0  0  0  0
 25 29  2  0  0  0  0
M  END
>  <CHROM.1>
-55.41442875,87.35170021,-85.64269526,-71.17106526,-94.84096760,-87.08273145
42.01671681,43.86262847,41.73647134,2.60221986,0.26115883,-3.06125525

>  <Name>
ligand

>  <RI>
0

>  <Rbt.Current_Directory>
/home/itssahil/PROJECTS/Mol_Feturizer/New_Systems/rnas/4JIY

>  <Rbt.Executable>
rbdock ($Id: //depot/dev/client3/rdock/2013.1/src/exe/rbdock.cxx#4 $)

>  <Rbt.Library>
libRbt.so (2013.1, Build901 2013/11/27)

>  <Rbt.Parameter_File>
/export/apps/rDock/src/rDock_2013.1_src/data/scripts/dock_solv.prm

>  <Rbt.Receptor>
prm/pocket_docking_3.prm

>  <SCORE>
9.58183

>  <SCORE.INTER>
10.8558

>  <SCORE.INTER.CONST>
1

>  <SCORE.INTER.POLAR>
0

>  <SCORE.INTER.ROT>
6

>  <SCORE.INTER.SOLV>
0.0106546

>  <SCORE.INTER.VDW>
-0.366341

>  <SCORE.INTER.norm>
0.374338

>  <SCORE.INTRA>
-1.27399

>  <SCORE.INTRA.DIHEDRAL>
-0.101037

>  <SCORE.INTRA.DIHEDRAL.0>
7.2424

>  <SCORE.INTRA.POLAR>
0

>  <SCORE.INTRA.POLAR.0>
0

>  <SCORE.INTRA.REPUL>
0

>  <SCORE.INTRA.REPUL.0>
0

>  <SCORE.INTRA.SOLV>
-0.0201232

>  <SCORE.INTRA.SOLV.lig_0>
-3.36201

>  <SCORE.INTRA.VDW>
-1.2134

>  <SCORE.INTRA.VDW.0>
-0.910526

>  <SCORE.INTRA.norm>
-0.0439305

>  <SCORE.RESTR>
0

>  <SCORE.RESTR.CAVITY>
0

>  <SCORE.RESTR.norm>
0

>  <SCORE.SYSTEM>
0

>  <SCORE.SYSTEM.CONST>
0

>  <SCORE.SYSTEM.DIHEDRAL>
0

>  <SCORE.SYSTEM.SOLV>
0

>  <SCORE.SYSTEM.norm>
0

>  <SCORE.heavy>
29

>  <SCORE.norm>
0.330408

>  <RMSD>
1.592

$$$$
ligand
 OpenBabel11021811493D
libRbt.so/2013.1/901 2013/11/27
 29 32  0  0  0  0  0  0  0  0999 V2000
   39.2091   42.6675   40.4257 C   0  0  0  0  0  0  0  0  0  0  0  0
   49.9486   47.3408   44.9993 C   0  0  0  0  0  0  0  0  0  0  0  0
   50.6645   46.1514   45.1902 C   0  0  0  0  0  0  0  0  0  0  0  0
   50.1557   44.9667   44.7857 C   0  0  0  0  0  0  0  0  0  0  0  0
   48.8796   44.9486   44.2391 C   0  0  0  0  0  0  0  0  0  0  0  0
   48.2281   46.1319   44.0120 C   0  0  0  0  0  0  0  0  0  0  0  0
   46.9399   46.2809   43.3385 C   0  0  0  0  0  0  0  0  0  0  0  0
   44.6572   45.8385   43.2673 C   0  0  0  0  0  0  0  0  0  0  0  0
   43.8092   46.9116   43.4576 C   0  0  0  0  0  0  0  0  0  0  0  0
   42.5744   46.9196   42.8063 C   0  0  0  0  0  0  0  0  0  0  0  0
   42.2189   45.9470   41.9085 C   0  0  0  0  0  0  0  0  0  0  0  0
   43.1136   44.8696   41.7309 C   0  0  0  0  0  0  0  0  0  0  0  0
   44.2994   44.7839   42.4517 C   0  0  0  0  0  0  0  0  0  0  0  0
   40.9336   46.0354   41.0885 C   0  0  0  0  0  0  0  0  0  0  0  0
   40.0385   44.8128   41.2361 C   0  0  0  0  0  0  0  0  0  0  0  0
   40.0113   43.7921   40.3205 C   0  0  0  0  0  0  0  0  0  0  0  0
   38.4109   42.5792   41.5346 C   0  0  0  0  0  0  0  0  0  0  0  0
   38.4296   43.5853   42.4368 C   0  0  0  0  0  0  0  0  0  0  0  0
   39.2154   44.7098   42.3224 C   0  0  0  0  0  0  0  0  0  0  0  0
   38.0682   40.4409   42.3714 C   0  0  0  0  0  0  0  0  0  0  0  0
   37.2545   39.2539   42.5271 C   0  0  0  0  0  0  0  0  0  0  0  0
   36.0356   39.1939   43.2149 C   0  0  0  0  0  0  0  0  0  0  0  0
   35.3891   37.9769   43.2854 C   0  0  0  0  0  0  0  0  0  0  0  0
   35.9615   36.8894   42.6446 C   0  0  0  0  0  0  0  0  0  0  0  0
   37.1814   36.9899   42.0113 C   0  0  0  0  0  0  0  0  0  0  0  0
   48.7397   47.3250   44.4129 N   0  0  0  0  0  0  0  0  0  0  0  0
   45.9194   45.7975   43.9930 N   0  0  0  0  0  0  0  0  0  0  0  0
   37.5258   41.4303   41.7531 N   0  0  0  0  0  0  0  0  0  0  0  0
   37.7991   38.1579   41.9183 N   0  0  0  0  0  0  0  0  0  0  0  0
  1 17  2  0  0  0  0
  1 16  1  0  0  0  0
  2  3  2  0  0  0  0
  2 26  1  0  0  0  0
  3  4  1  0  0  0  0
  4  5  2  0  0  0  0
  5  6  1  0  0  0  0
  6  7  1  0  0  0  0
  6 26  2  0  0  0  0
  7 27  2  0  0  0  0
  8  9  2  0  0  0  0
  8 13  1  0  0  0  0
  8 27  1  0  0  0  0
  9 10  1  0  0  0  0
 10 11  2  0  0  0  0
 11 12  1  0  0  0  0
 11 14  1  0  0  0  0
 12 13  2  0  0  0  0
 14 15  1  0  0  0  0
 15 16  2  0  0  0  0
 15 19  1  0  0  0  0
 17 18  1  0  0  0  0
 17 28  1  0  0  0  0
 18 19  2  0  0  0  0
 20 21  1  0  0  0  0
 20 28  2  0  0  0  0
 21 22  2  0  0  0  0
 21 29  1  0  0  0  0
 22 23  1  0  0  0  0
 23 24  2  0  0  0  0
 24 25  1  0  0  0  0
 25 29  2  0  0  0  0
M  END
>  <CHROM.1>
67.94404427,-125.20752018,-98.69171176,-60.96872623,-94.25096422,88.04195706
42.12823341,43.54718983,42.74505603,2.67159204,0.33207709,2.85101044

>  <Name>
ligand

>  <RI>
0

>  <Rbt.Current_Directory>
/home/itssahil/PROJECTS/Mol_Feturizer/New_Systems/rnas/4JIY

>  <Rbt.Executable>
rbdock ($Id: //depot/dev/client3/rdock/2013.1/src/exe/rbdock.cxx#4 $)

>  <Rbt.Library>
libRbt.so (2013.1, Build901 2013/11/27)

>  <Rbt.Parameter_File>
/export/apps/rDock/src/rDock_2013.1_src/data/scripts/dock_solv.prm

>  <Rbt.Receptor>
prm/pocket_docking_3.prm

>  <SCORE>
9.56549

>  <SCORE.INTER>
10.7281

>  <SCORE.INTER.CONST>
1

>  <SCORE.INTER.POLAR>
0

>  <SCORE.INTER.ROT>
6

>  <SCORE.INTER.SOLV>
0.0256795

>  <SCORE.INTER.VDW>
-0.456519

>  <SCORE.INTER.norm>
0.369933

>  <SCORE.INTRA>
-1.16257

>  <SCORE.INTRA.DIHEDRAL>
-0.0635909

>  <SCORE.INTRA.DIHEDRAL.0>
7.2424

>  <SCORE.INTRA.POLAR>
0

>  <SCORE.INTRA.POLAR.0>
0

>  <SCORE.INTRA.REPUL>
0

>  <SCORE.INTRA.REPUL.0>
0

>  <SCORE.INTRA.SOLV>
-0.0202177

>  <SCORE.INTRA.SOLV.lig_0>
-3.36201

>  <SCORE.INTRA.VDW>
-1.12067

>  <SCORE.INTRA.VDW.0>
-0.910526

>  <SCORE.INTRA.norm>
-0.0400886

>  <SCORE.RESTR>
0

>  <SCORE.RESTR.CAVITY>
0

>  <SCORE.RESTR.norm>
0

>  <SCORE.SYSTEM>
0

>  <SCORE.SYSTEM.CONST>
0

>  <SCORE.SYSTEM.DIHEDRAL>
0

>  <SCORE.SYSTEM.SOLV>
0

>  <SCORE.SYSTEM.norm>
0

>  <SCORE.heavy>
29

>  <SCORE.norm>
0.329845

>  <RMSD>
1.595

$$$$
ligand
 OpenBabel11021811493D
libRbt.so/2013.1/901 2013/11/27
 29 32  0  0  0  0  0  0  0  0999 V2000
   43.8951   45.4894   42.5959 C   0  0  0  0  0  0  0  0  0  0  0  0
   36.7101   37.2262   40.7539 C   0  0  0  0  0  0  0  0  0  0  0  0
   36.3902   37.0442   39.4018 C   0  0  0  0  0  0  0  0  0  0  0  0
   36.6203   38.0238   38.4999 C   0  0  0  0  0  0  0  0  0  0  0  0
   37.1173   39.2373   38.9559 C   0  0  0  0  0  0  0  0  0  0  0  0
   37.4744   39.3662   40.2720 C   0  0  0  0  0  0  0  0  0  0  0  0
   38.1184   40.5333   40.8709 C   0  0  0  0  0  0  0  0  0  0  0  0
   38.0734   42.8038   41.3748 C   0  0  0  0  0  0  0  0  0  0  0  0
   38.0338   43.0966   42.7237 C   0  0  0  0  0  0  0  0  0  0  0  0
   38.6419   44.2683   43.1781 C   0  0  0  0  0  0  0  0  0  0  0  0
   39.3609   45.0852   42.3449 C   0  0  0  0  0  0  0  0  0  0  0  0
   39.3887   44.7509   40.9738 C   0  0  0  0  0  0  0  0  0  0  0  0
   38.6981   43.6497   40.4805 C   0  0  0  0  0  0  0  0  0  0  0  0
   40.1470   46.2844   42.8704 C   0  0  0  0  0  0  0  0  0  0  0  0
   41.5869   45.9495   43.2341 C   0  0  0  0  0  0  0  0  0  0  0  0
   42.5768   45.7938   42.2978 C   0  0  0  0  0  0  0  0  0  0  0  0
   44.2146   45.3573   43.9207 C   0  0  0  0  0  0  0  0  0  0  0  0
   43.2414   45.5038   44.8469 C   0  0  0  0  0  0  0  0  0  0  0  0
   41.9285   45.7902   44.5479 C   0  0  0  0  0  0  0  0  0  0  0  0
   46.3492   46.0639   44.4991 C   0  0  0  0  0  0  0  0  0  0  0  0
   47.7294   45.7886   44.8376 C   0  0  0  0  0  0  0  0  0  0  0  0
   48.6379   45.0964   44.0266 C   0  0  0  0  0  0  0  0  0  0  0  0
   49.9181   44.9032   44.5042 C   0  0  0  0  0  0  0  0  0  0  0  0
   50.2454   45.4324   45.7426 C   0  0  0  0  0  0  0  0  0  0  0  0
   49.3058   46.0744   46.5199 C   0  0  0  0  0  0  0  0  0  0  0  0
   37.2491   38.3809   41.1800 N   0  0  0  0  0  0  0  0  0  0  0  0
   37.3874   41.6143   40.8891 N   0  0  0  0  0  0  0  0  0  0  0  0
   45.5805   45.0426   44.3526 N   0  0  0  0  0  0  0  0  0  0  0  0
   48.0811   46.2852   46.0616 N   0  0  0  0  0  0  0  0  0  0  0  0
  1 17  2  0  0  0  0
  1 16  1  0  0  0  0
  2  3  2  0  0  0  0
  2 26  1  0  0  0  0
  3  4  1  0  0  0  0
  4  5  2  0  0  0  0
  5  6  1  0  0  0  0
  6  7  1  0  0  0  0
  6 26  2  0  0  0  0
  7 27  2  0  0  0  0
  8  9  2  0  0  0  0
  8 13  1  0  0  0  0
  8 27  1  0  0  0  0
  9 10  1  0  0  0  0
 10 11  2  0  0  0  0
 11 12  1  0  0  0  0
 11 14  1  0  0  0  0
 12 13  2  0  0  0  0
 14 15  1  0  0  0  0
 15 16  2  0  0  0  0
 15 19  1  0  0  0  0
 17 18  1  0  0  0  0
 17 28  1  0  0  0  0
 18 19  2  0  0  0  0
 20 21  1  0  0  0  0
 20 28  2  0  0  0  0
 21 22  2  0  0  0  0
 21 29  1  0  0  0  0
 22 23  1  0  0  0  0
 23 24  2  0  0  0  0
 24 25  1  0  0  0  0
 25 29  2  0  0  0  0
M  END
>  <CHROM.1>
65.96412685,90.75174412,77.37659317,63.38216372,-90.20483619,86.56262253
41.81599348,43.44748285,42.65877996,0.57808656,-0.26723178,0.27526782

>  <Name>
ligand

>  <RI>
0

>  <Rbt.Current_Directory>
/home/itssahil/PROJECTS/Mol_Feturizer/New_Systems/rnas/4JIY

>  <Rbt.Executable>
rbdock ($Id: //depot/dev/client3/rdock/2013.1/src/exe/rbdock.cxx#4 $)

>  <Rbt.Library>
libRbt.so (2013.1, Build901 2013/11/27)

>  <Rbt.Parameter_File>
/export/apps/rDock/src/rDock_2013.1_src/data/scripts/dock_solv.prm

>  <Rbt.Receptor>
prm/pocket_docking_3.prm

>  <SCORE>
9.41759

>  <SCORE.INTER>
10.7031

>  <SCORE.INTER.CONST>
1

>  <SCORE.INTER.POLAR>
0

>  <SCORE.INTER.ROT>
6

>  <SCORE.INTER.SOLV>
0.0277943

>  <SCORE.INTER.VDW>
-0.473896

>  <SCORE.INTER.norm>
0.369071

>  <SCORE.INTRA>
-1.28546

>  <SCORE.INTRA.DIHEDRAL>
-0.185941

>  <SCORE.INTRA.DIHEDRAL.0>
7.2424

>  <SCORE.INTRA.POLAR>
0

>  <SCORE.INTRA.POLAR.0>
0

>  <SCORE.INTRA.REPUL>
0

>  <SCORE.INTRA.REPUL.0>
0

>  <SCORE.INTRA.SOLV>
-0.0203492

>  <SCORE.INTRA.SOLV.lig_0>
-3.36201

>  <SCORE.INTRA.VDW>
-1.18232

>  <SCORE.INTRA.VDW.0>
-0.910526

>  <SCORE.INTRA.norm>
-0.0443262

>  <SCORE.RESTR>
0

>  <SCORE.RESTR.CAVITY>
0

>  <SCORE.RESTR.norm>
0

>  <SCORE.SYSTEM>
0

>  <SCORE.SYSTEM.CONST>
0

>  <SCORE.SYSTEM.DIHEDRAL>
0

>  <SCORE.SYSTEM.SOLV>
0

>  <SCORE.SYSTEM.norm>
0

>  <SCORE.heavy>
29

>  <SCORE.norm>
0.324745

>  <RMSD>
1.601

$$$$
ligand
 OpenBabel11021811493D
libRbt.so/2013.1/901 2013/11/27
 29 32  0  0  0  0  0  0  0  0999 V2000
   39.4325   42.6845   39.9477 C   0  0  0  0  0  0  0  0  0  0  0  0
   49.8101   46.8367   43.2211 C   0  0  0  0  0  0  0  0  0  0  0  0
   50.5633   45.8721   43.9036 C   0  0  0  0  0  0  0  0  0  0  0  0
   49.9551   44.9047   44.6251 C   0  0  0  0  0  0  0  0  0  0  0  0
   48.5709   44.9303   44.7287 C   0  0  0  0  0  0  0  0  0  0  0  0
   47.8588   45.8493   44.0046 C   0  0  0  0  0  0  0  0  0  0  0  0
   46.4020   45.9231   43.9170 C   0  0  0  0  0  0  0  0  0  0  0  0
   44.4138   45.1634   42.9784 C   0  0  0  0  0  0  0  0  0  0  0  0
   43.9473   45.9298   41.9287 C   0  0  0  0  0  0  0  0  0  0  0  0
   42.5711   46.1202   41.7914 C   0  0  0  0  0  0  0  0  0  0  0  0
   41.6649   45.4910   42.6046 C   0  0  0  0  0  0  0  0  0  0  0  0
   42.1761   44.7073   43.6616 C   0  0  0  0  0  0  0  0  0  0  0  0
   43.5435   44.5927   43.8852 C   0  0  0  0  0  0  0  0  0  0  0  0
   40.1602   45.5834   42.3607 C   0  0  0  0  0  0  0  0  0  0  0  0
   39.5690   44.3194   41.7519 C   0  0  0  0  0  0  0  0  0  0  0  0
   39.9505   43.8305   40.5287 C   0  0  0  0  0  0  0  0  0  0  0  0
   38.4910   41.9983   40.6669 C   0  0  0  0  0  0  0  0  0  0  0  0
   38.1071   42.4792   41.8701 C   0  0  0  0  0  0  0  0  0  0  0  0
   38.6113   43.6272   42.4387 C   0  0  0  0  0  0  0  0  0  0  0  0
   38.4725   39.6824   40.5043 C   0  0  0  0  0  0  0  0  0  0  0  0
   37.9522   38.4531   39.9443 C   0  0  0  0  0  0  0  0  0  0  0  0
   38.1064   38.0421   38.6140 C   0  0  0  0  0  0  0  0  0  0  0  0
   37.5336   36.8457   38.2336 C   0  0  0  0  0  0  0  0  0  0  0  0
   36.8674   36.1003   39.1935 C   0  0  0  0  0  0  0  0  0  0  0  0
   36.7107   36.5645   40.4816 C   0  0  0  0  0  0  0  0  0  0  0  0
   48.4676   46.8199   43.2742 N   0  0  0  0  0  0  0  0  0  0  0  0
   45.8511   45.0136   43.1603 N   0  0  0  0  0  0  0  0  0  0  0  0
   37.8791   40.7684   40.1527 N   0  0  0  0  0  0  0  0  0  0  0  0
   37.2757   37.7002   40.8629 N   0  0  0  0  0  0  0  0  0  0  0  0
  1 17  2  0  0  0  0
  1 16  1  0  0  0  0
  2  3  2  0  0  0  0
  2 26  1  0  0  0  0
  3  4  1  0  0  0  0
  4  5  2  0  0  0  0
  5  6  1  0  0  0  0
  6  7  1  0  0  0  0
  6 26  2  0  0  0  0
  7 27  2  0  0  0  0
  8  9  2  0  0  0  0
  8 13  1  0  0  0  0
  8 27  1  0  0  0  0
  9 10  1  0  0  0  0
 10 11  2  0  0  0  0
 11 12  1  0  0  0  0
 11 14  1  0  0  0  0
 12 13  2  0  0  0  0
 14 15  1  0  0  0  0
 15 16  2  0  0  0  0
 15 19  1  0  0  0  0
 17 18  1  0  0  0  0
 17 28  1  0  0  0  0
 18 19  2  0  0  0  0
 20 21  1  0  0  0  0
 20 28  2  0  0  0  0
 21 22  2  0  0  0  0
 21 29  1  0  0  0  0
 22 23  1  0  0  0  0
 23 24  2  0  0  0  0
 24 25  1  0  0  0  0
 25 29  2  0  0  0  0
M  END
>  <CHROM.1>
-75.28696271,104.19618653,-61.36559848,72.65685651,89.56449401,92.22001346
42.09748188,42.99838933,41.90802495,2.49746863,0.18806360,-2.89951317

>  <Name>
ligand

>  <RI>
0

>  <Rbt.Current_Directory>
/home/itssahil/PROJECTS/Mol_Feturizer/New_Systems/rnas/4JIY

>  <Rbt.Executable>
rbdock ($Id: //depot/dev/client3/rdock/2013.1/src/exe/rbdock.cxx#4 $)

>  <Rbt.Library>
libRbt.so (2013.1, Build901 2013/11/27)

>  <Rbt.Parameter_File>
/export/apps/rDock/src/rDock_2013.1_src/data/scripts/dock_solv.prm

>  <Rbt.Receptor>
prm/pocket_docking_3.prm

>  <SCORE>
9.57785

>  <SCORE.INTER>
10.7435

>  <SCORE.INTER.CONST>
1

>  <SCORE.INTER.POLAR>
0

>  <SCORE.INTER.ROT>
6

>  <SCORE.INTER.SOLV>
0.0280569

>  <SCORE.INTER.VDW>
-0.447

>  <SCORE.INTER.norm>
0.370466

>  <SCORE.INTRA>
-1.16568

>  <SCORE.INTRA.DIHEDRAL>
0.0866163

>  <SCORE.INTRA.DIHEDRAL.0>
7.2424

>  <SCORE.INTRA.POLAR>
0

>  <SCORE.INTRA.POLAR.0>
0

>  <SCORE.INTRA.REPUL>
0

>  <SCORE.INTRA.REPUL.0>
0

>  <SCORE.INTRA.SOLV>
-0.0190123

>  <SCORE.INTRA.SOLV.lig_0>
-3.36201

>  <SCORE.INTRA.VDW>
-1.19948

>  <SCORE.INTRA.VDW.0>
-0.910526

>  <SCORE.INTRA.norm>
-0.0401958

>  <SCORE.RESTR>
0

>  <SCORE.RESTR.CAVITY>
0

>  <SCORE.RESTR.norm>
0

>  <SCORE.SYSTEM>
0

>  <SCORE.SYSTEM.CONST>
0

>  <SCORE.SYSTEM.DIHEDRAL>
0

>  <SCORE.SYSTEM.SOLV>
0

>  <SCORE.SYSTEM.norm>
0

>  <SCORE.heavy>
29

>  <SCORE.norm>
0.330271

>  <RMSD>
1.685

$$$$
ligand
 OpenBabel11021811493D
libRbt.so/2013.1/901 2013/11/27
 29 32  0  0  0  0  0  0  0  0999 V2000
   43.8697   45.5040   42.4343 C   0  0  0  0  0  0  0  0  0  0  0  0
   37.8607   37.2662   41.3671 C   0  0  0  0  0  0  0  0  0  0  0  0
   36.8846   36.6979   42.1964 C   0  0  0  0  0  0  0  0  0  0  0  0
   36.4323   37.3597   43.2843 C   0  0  0  0  0  0  0  0  0  0  0  0
   37.0060   38.5845   43.5975 C   0  0  0  0  0  0  0  0  0  0  0  0
   37.9156   39.1410   42.7378 C   0  0  0  0  0  0  0  0  0  0  0  0
   38.5124   40.4683   42.8690 C   0  0  0  0  0  0  0  0  0  0  0  0
   38.3186   42.7774   42.6649 C   0  0  0  0  0  0  0  0  0  0  0  0
   38.3921   43.4735   43.8553 C   0  0  0  0  0  0  0  0  0  0  0  0
   38.9378   44.7585   43.8530 C   0  0  0  0  0  0  0  0  0  0  0  0
   39.4924   45.3115   42.7283 C   0  0  0  0  0  0  0  0  0  0  0  0
   39.4085   44.5686   41.5309 C   0  0  0  0  0  0  0  0  0  0  0  0
   38.7709   43.3340   41.4854 C   0  0  0  0  0  0  0  0  0  0  0  0
   40.2193   46.6541   42.7626 C   0  0  0  0  0  0  0  0  0  0  0  0
   41.7209   46.5219   42.9760 C   0  0  0  0  0  0  0  0  0  0  0  0
   42.5023   45.6481   42.2643 C   0  0  0  0  0  0  0  0  0  0  0  0
   44.4648   46.3100   43.3675 C   0  0  0  0  0  0  0  0  0  0  0  0
   43.6982   47.1685   44.0758 C   0  0  0  0  0  0  0  0  0  0  0  0
   42.3370   47.2987   43.9168 C   0  0  0  0  0  0  0  0  0  0  0  0
   46.2627   45.3634   44.4907 C   0  0  0  0  0  0  0  0  0  0  0  0
   47.6671   45.3316   44.8401 C   0  0  0  0  0  0  0  0  0  0  0  0
   48.6995   44.8965   43.9993 C   0  0  0  0  0  0  0  0  0  0  0  0
   49.9886   44.9143   44.4913 C   0  0  0  0  0  0  0  0  0  0  0  0
   50.1965   45.3925   45.7755 C   0  0  0  0  0  0  0  0  0  0  0  0
   49.1435   45.7754   46.5780 C   0  0  0  0  0  0  0  0  0  0  0  0
   38.3683   38.4800   41.6404 N   0  0  0  0  0  0  0  0  0  0  0  0
   37.6940   41.4617   42.6527 N   0  0  0  0  0  0  0  0  0  0  0  0
   45.9070   46.2479   43.6268 N   0  0  0  0  0  0  0  0  0  0  0  0
   47.9053   45.7838   46.1079 N   0  0  0  0  0  0  0  0  0  0  0  0
  1 17  2  0  0  0  0
  1 16  1  0  0  0  0
  2  3  2  0  0  0  0
  2 26  1  0  0  0  0
  3  4  1  0  0  0  0
  4  5  2  0  0  0  0
  5  6  1  0  0  0  0
  6  7  1  0  0  0  0
  6 26  2  0  0  0  0
  7 27  2  0  0  0  0
  8  9  2  0  0  0  0
  8 13  1  0  0  0  0
  8 27  1  0  0  0  0
  9 10  1  0  0  0  0
 10 11  2  0  0  0  0
 11 12  1  0  0  0  0
 11 14  1  0  0  0  0
 12 13  2  0  0  0  0
 14 15  1  0  0  0  0
 15 16  2  0  0  0  0
 15 19  1  0  0  0  0
 17 18  1  0  0  0  0
 17 28  1  0  0  0  0
 18 19  2  0  0  0  0
 20 21  1  0  0  0  0
 20 28  2  0  0  0  0
 21 22  2  0  0  0  0
 21 29  1  0  0  0  0
 22 23  1  0  0  0  0
 23 24  2  0  0  0  0
 24 25  1  0  0  0  0
 25 29  2  0  0  0  0
M  END
>  <CHROM.1>
-70.27840698,92.89903141,47.88713741,-70.61314488,-90.34461514,-86.56758944
42.02180659,43.53626491,43.38603034,0.53914148,-0.25384111,-0.05055187

>  <Name>
ligand

>  <RI>
0

>  <Rbt.Current_Directory>
/home/itssahil/PROJECTS/Mol_Feturizer/New_Systems/rnas/4JIY

>  <Rbt.Executable>
rbdock ($Id: //depot/dev/client3/rdock/2013.1/src/exe/rbdock.cxx#4 $)

>  <Rbt.Library>
libRbt.so (2013.1, Build901 2013/11/27)

>  <Rbt.Parameter_File>
/export/apps/rDock/src/rDock_2013.1_src/data/scripts/dock_solv.prm

>  <Rbt.Receptor>
prm/pocket_docking_3.prm

>  <SCORE>
9.36868

>  <SCORE.INTER>
10.5865

>  <SCORE.INTER.CONST>
1

>  <SCORE.INTER.POLAR>
0

>  <SCORE.INTER.ROT>
6

>  <SCORE.INTER.SOLV>
0.0286292

>  <SCORE.INTER.VDW>
-0.551855

>  <SCORE.INTER.norm>
0.365053

>  <SCORE.INTRA>
-1.222

>  <SCORE.INTRA.DIHEDRAL>
-0.0817681

>  <SCORE.INTRA.DIHEDRAL.0>
7.2424

>  <SCORE.INTRA.POLAR>
0

>  <SCORE.INTRA.POLAR.0>
0

>  <SCORE.INTRA.REPUL>
0

>  <SCORE.INTRA.REPUL.0>
0

>  <SCORE.INTRA.SOLV>
-0.0198245

>  <SCORE.INTRA.SOLV.lig_0>
-3.36201

>  <SCORE.INTRA.VDW>
-1.1712

>  <SCORE.INTRA.VDW.0>
-0.910526

>  <SCORE.INTRA.norm>
-0.0421378

>  <SCORE.RESTR>
0.00414071

>  <SCORE.RESTR.CAVITY>
0.00414071

>  <SCORE.RESTR.norm>
0.000142783

>  <SCORE.SYSTEM>
0

>  <SCORE.SYSTEM.CONST>
0

>  <SCORE.SYSTEM.DIHEDRAL>
0

>  <SCORE.SYSTEM.SOLV>
0

>  <SCORE.SYSTEM.norm>
0

>  <SCORE.heavy>
29

>  <SCORE.norm>
0.323058

>  <RMSD>
1.746

$$$$
ligand
 OpenBabel11021811493D
libRbt.so/2013.1/901 2013/11/27
 29 32  0  0  0  0  0  0  0  0999 V2000
   38.5124   43.9501   40.5054 C   0  0  0  0  0  0  0  0  0  0  0  0
   49.4289   44.9027   44.0613 C   0  0  0  0  0  0  0  0  0  0  0  0
   49.9527   44.9068   45.3610 C   0  0  0  0  0  0  0  0  0  0  0  0
   49.2052   45.3271   46.4054 C   0  0  0  0  0  0  0  0  0  0  0  0
   47.9317   45.8176   46.1504 C   0  0  0  0  0  0  0  0  0  0  0  0
   47.4257   45.7476   44.8795 C   0  0  0  0  0  0  0  0  0  0  0  0
   46.0674   46.1103   44.4808 C   0  0  0  0  0  0  0  0  0  0  0  0
   43.7937   45.6200   44.4504 C   0  0  0  0  0  0  0  0  0  0  0  0
   42.9669   46.4398   45.1929 C   0  0  0  0  0  0  0  0  0  0  0  0
   41.6649   46.6696   44.7445 C   0  0  0  0  0  0  0  0  0  0  0  0
   41.2137   46.1891   43.5429 C   0  0  0  0  0  0  0  0  0  0  0  0
   42.0883   45.3625   42.8049 C   0  0  0  0  0  0  0  0  0  0  0  0
   43.3501   45.0293   43.2843 C   0  0  0  0  0  0  0  0  0  0  0  0
   39.8416   46.5638   42.9869 C   0  0  0  0  0  0  0  0  0  0  0  0
   39.0875   45.3815   42.3942 C   0  0  0  0  0  0  0  0  0  0  0  0
   39.1846   45.0193   41.0750 C   0  0  0  0  0  0  0  0  0  0  0  0
   37.7171   43.2068   41.3359 C   0  0  0  0  0  0  0  0  0  0  0  0
   37.6133   43.5633   42.6353 C   0  0  0  0  0  0  0  0  0  0  0  0
   38.2694   44.6359   43.1959 C   0  0  0  0  0  0  0  0  0  0  0  0
   37.5909   40.9274   40.9131 C   0  0  0  0  0  0  0  0  0  0  0  0
   36.9159   39.7754   40.3540 C   0  0  0  0  0  0  0  0  0  0  0  0
   35.7097   39.2391   40.8228 C   0  0  0  0  0  0  0  0  0  0  0  0
   35.2043   38.1238   40.1865 C   0  0  0  0  0  0  0  0  0  0  0  0
   35.8974   37.6157   39.0992 C   0  0  0  0  0  0  0  0  0  0  0  0
   37.0999   38.1565   38.6980 C   0  0  0  0  0  0  0  0  0  0  0  0
   48.1732   45.3205   43.8284 N   0  0  0  0  0  0  0  0  0  0  0  0
   45.1317   45.3289   44.9467 N   0  0  0  0  0  0  0  0  0  0  0  0
   36.9641   42.0488   40.8428 N   0  0  0  0  0  0  0  0  0  0  0  0
   37.5822   39.2404   39.2871 N   0  0  0  0  0  0  0  0  0  0  0  0
  1 17  2  0  0  0  0
  1 16  1  0  0  0  0
  2  3  2  0  0  0  0
  2 26  1  0  0  0  0
  3  4  1  0  0  0  0
  4  5  2  0  0  0  0
  5  6  1  0  0  0  0
  6  7  1  0  0  0  0
  6 26  2  0  0  0  0
  7 27  2  0  0  0  0
  8  9  2  0  0  0  0
  8 13  1  0  0  0  0
  8 27  1  0  0  0  0
  9 10  1  0  0  0  0
 10 11  2  0  0  0  0
 11 12  1  0  0  0  0
 11 14  1  0  0  0  0
 12 13  2  0  0  0  0
 14 15  1  0  0  0  0
 15 16  2  0  0  0  0
 15 19  1  0  0  0  0
 17 18  1  0  0  0  0
 17 28  1  0  0  0  0
 18 19  2  0  0  0  0
 20 21  1  0  0  0  0
 20 28  2  0  0  0  0
 21 22  2  0  0  0  0
 21 29  1  0  0  0  0
 22 23  1  0  0  0  0
 23 24  2  0  0  0  0
 24 25  1  0  0  0  0
 25 29  2  0  0  0  0
M  END
>  <CHROM.1>
-67.55955559,-136.70291653,-90.44235950,-63.66070697,-94.56202425,90.28573272
41.43896655,43.66314531,42.69661661,2.57866433,0.21770939,-2.75743839

>  <Name>
ligand

>  <RI>
0

>  <Rbt.Current_Directory>
/home/itssahil/PROJECTS/Mol_Feturizer/New_Systems/rnas/4JIY

>  <Rbt.Executable>
rbdock ($Id: //depot/dev/client3/rdock/2013.1/src/exe/rbdock.cxx#4 $)

>  <Rbt.Library>
libRbt.so (2013.1, Build901 2013/11/27)

>  <Rbt.Parameter_File>
/export/apps/rDock/src/rDock_2013.1_src/data/scripts/dock_solv.prm

>  <Rbt.Receptor>
prm/pocket_docking_3.prm

>  <SCORE>
9.49089

>  <SCORE.INTER>
10.7011

>  <SCORE.INTER.CONST>
1

>  <SCORE.INTER.POLAR>
0

>  <SCORE.INTER.ROT>
6

>  <SCORE.INTER.SOLV>
0.0273061

>  <SCORE.INTER.VDW>
-0.475021

>  <SCORE.INTER.norm>
0.369004

>  <SCORE.INTRA>
-1.21023

>  <SCORE.INTRA.DIHEDRAL>
-0.131267

>  <SCORE.INTRA.DIHEDRAL.0>
7.2424

>  <SCORE.INTRA.POLAR>
0

>  <SCORE.INTRA.POLAR.0>
0

>  <SCORE.INTRA.REPUL>
0

>  <SCORE.INTRA.REPUL.0>
0

>  <SCORE.INTRA.SOLV>
-0.0203309

>  <SCORE.INTRA.SOLV.lig_0>
-3.36201

>  <SCORE.INTRA.VDW>
-1.13443

>  <SCORE.INTRA.VDW.0>
-0.910526

>  <SCORE.INTRA.norm>
-0.0417321

>  <SCORE.RESTR>
0

>  <SCORE.RESTR.CAVITY>
0

>  <SCORE.RESTR.norm>
0

>  <SCORE.SYSTEM>
0

>  <SCORE.SYSTEM.CONST>
0

>  <SCORE.SYSTEM.DIHEDRAL>
0

>  <SCORE.SYSTEM.SOLV>
0

>  <SCORE.SYSTEM.norm>
0

>  <SCORE.heavy>
29

>  <SCORE.norm>
0.327272

>  <RMSD>
1.747

$$$$
ligand
 OpenBabel11021811493D
libRbt.so/2013.1/901 2013/11/27
 29 32  0  0  0  0  0  0  0  0999 V2000
   43.0028   46.5576   44.8915 C   0  0  0  0  0  0  0  0  0  0  0  0
   37.6946   37.2702   41.9714 C   0  0  0  0  0  0  0  0  0  0  0  0
   36.4068   36.9342   41.5330 C   0  0  0  0  0  0  0  0  0  0  0  0
   35.4511   37.8813   41.4076 C   0  0  0  0  0  0  0  0  0  0  0  0
   35.7562   39.1812   41.7878 C   0  0  0  0  0  0  0  0  0  0  0  0
   37.0384   39.4908   42.1571 C   0  0  0  0  0  0  0  0  0  0  0  0
   37.5377   40.8289   42.4663 C   0  0  0  0  0  0  0  0  0  0  0  0
   38.1651   42.9472   41.7382 C   0  0  0  0  0  0  0  0  0  0  0  0
   39.5207   43.1084   41.5297 C   0  0  0  0  0  0  0  0  0  0  0  0
   40.1132   44.3295   41.8566 C   0  0  0  0  0  0  0  0  0  0  0  0
   39.3774   45.4041   42.2836 C   0  0  0  0  0  0  0  0  0  0  0  0
   37.9930   45.2071   42.4767 C   0  0  0  0  0  0  0  0  0  0  0  0
   37.3990   43.9682   42.2636 C   0  0  0  0  0  0  0  0  0  0  0  0
   40.0059   46.7792   42.4988 C   0  0  0  0  0  0  0  0  0  0  0  0
   41.4292   46.7147   43.0351 C   0  0  0  0  0  0  0  0  0  0  0  0
   41.7200   46.6183   44.3720 C   0  0  0  0  0  0  0  0  0  0  0  0
   44.0354   46.5783   43.9926 C   0  0  0  0  0  0  0  0  0  0  0  0
   43.7543   46.6793   42.6745 C   0  0  0  0  0  0  0  0  0  0  0  0
   42.4793   46.7558   42.1612 C   0  0  0  0  0  0  0  0  0  0  0  0
   45.9546   45.3365   44.3987 C   0  0  0  0  0  0  0  0  0  0  0  0
   47.3047   45.2157   44.9066 C   0  0  0  0  0  0  0  0  0  0  0  0
   47.6717   45.3045   46.2556 C   0  0  0  0  0  0  0  0  0  0  0  0
   49.0089   45.1827   46.5739 C   0  0  0  0  0  0  0  0  0  0  0  0
   49.9107   44.9456   45.5486 C   0  0  0  0  0  0  0  0  0  0  0  0
   49.5056   44.9028   44.2320 C   0  0  0  0  0  0  0  0  0  0  0  0
   38.0027   38.5414   42.2790 N   0  0  0  0  0  0  0  0  0  0  0  0
   37.5552   41.6549   41.4561 N   0  0  0  0  0  0  0  0  0  0  0  0
   45.4340   46.5127   44.4293 N   0  0  0  0  0  0  0  0  0  0  0  0
   48.2223   44.9956   43.9176 N   0  0  0  0  0  0  0  0  0  0  0  0
  1 17  2  0  0  0  0
  1 16  1  0  0  0  0
  2  3  2  0  0  0  0
  2 26  1  0  0  0  0
  3  4  1  0  0  0  0
  4  5  2  0  0  0  0
  5  6  1  0  0  0  0
  6  7  1  0  0  0  0
  6 26  2  0  0  0  0
  7 27  2  0  0  0  0
  8  9  2  0  0  0  0
  8 13  1  0  0  0  0
  8 27  1  0  0  0  0
  9 10  1  0  0  0  0
 10 11  2  0  0  0  0
 11 12  1  0  0  0  0
 11 14  1  0  0  0  0
 12 13  2  0  0  0  0
 14 15  1  0  0  0  0
 15 16  2  0  0  0  0
 15 19  1  0  0  0  0
 17 18  1  0  0  0  0
 17 28  1  0  0  0  0
 18 19  2  0  0  0  0
 20 21  1  0  0  0  0
 20 28  2  0  0  0  0
 21 22  2  0  0  0  0
 21 29  1  0  0  0  0
 22 23  1  0  0  0  0
 23 24  2  0  0  0  0
 24 25  1  0  0  0  0
 25 29  2  0  0  0  0
M  END
>  <CHROM.1>
-66.09184401,-35.42008283,-85.94173714,71.51818660,90.09965819,96.49630540
41.64250497,43.64751302,43.13656150,0.49963830,-0.29471120,-0.01860698

>  <Name>
ligand

>  <RI>
0

>  <Rbt.Current_Directory>
/home/itssahil/PROJECTS/Mol_Feturizer/New_Systems/rnas/4JIY

>  <Rbt.Executable>
rbdock ($Id: //depot/dev/client3/rdock/2013.1/src/exe/rbdock.cxx#4 $)

>  <Rbt.Library>
libRbt.so (2013.1, Build901 2013/11/27)

>  <Rbt.Parameter_File>
/export/apps/rDock/src/rDock_2013.1_src/data/scripts/dock_solv.prm

>  <Rbt.Receptor>
prm/pocket_docking_3.prm

>  <SCORE>
9.5352

>  <SCORE.INTER>
10.6174

>  <SCORE.INTER.CONST>
1

>  <SCORE.INTER.POLAR>
0

>  <SCORE.INTER.ROT>
6

>  <SCORE.INTER.SOLV>
0.0217261

>  <SCORE.INTER.VDW>
-0.528949

>  <SCORE.INTER.norm>
0.366119

>  <SCORE.INTRA>
-1.08224

>  <SCORE.INTRA.DIHEDRAL>
-0.0116545

>  <SCORE.INTRA.DIHEDRAL.0>
7.2424

>  <SCORE.INTRA.POLAR>
0

>  <SCORE.INTRA.POLAR.0>
0

>  <SCORE.INTRA.REPUL>
0

>  <SCORE.INTRA.REPUL.0>
0

>  <SCORE.INTRA.SOLV>
-0.0193209

>  <SCORE.INTRA.SOLV.lig_0>
-3.36201

>  <SCORE.INTRA.VDW>
-1.06675

>  <SCORE.INTRA.VDW.0>
-0.910526

>  <SCORE.INTRA.norm>
-0.0373186

>  <SCORE.RESTR>
0

>  <SCORE.RESTR.CAVITY>
0

>  <SCORE.RESTR.norm>
0

>  <SCORE.SYSTEM>
0

>  <SCORE.SYSTEM.CONST>
0

>  <SCORE.SYSTEM.DIHEDRAL>
0

>  <SCORE.SYSTEM.SOLV>
0

>  <SCORE.SYSTEM.norm>
0

>  <SCORE.heavy>
29

>  <SCORE.norm>
0.3288

>  <RMSD>
1.749

$$$$
ligand
 OpenBabel11021811493D
libRbt.so/2013.1/901 2013/11/27
 29 32  0  0  0  0  0  0  0  0999 V2000
   43.6595   46.1009   44.4455 C   0  0  0  0  0  0  0  0  0  0  0  0
   37.3953   38.2301   41.6619 C   0  0  0  0  0  0  0  0  0  0  0  0
   37.1998   37.8767   40.3201 C   0  0  0  0  0  0  0  0  0  0  0  0
   37.4894   38.7469   39.3277 C   0  0  0  0  0  0  0  0  0  0  0  0
   37.9201   40.0210   39.6719 C   0  0  0  0  0  0  0  0  0  0  0  0
   38.1569   40.3186   40.9878 C   0  0  0  0  0  0  0  0  0  0  0  0
   38.7223   41.5683   41.4915 C   0  0  0  0  0  0  0  0  0  0  0  0
   38.5835   43.8796   41.7148 C   0  0  0  0  0  0  0  0  0  0  0  0
   38.4697   44.3022   43.0245 C   0  0  0  0  0  0  0  0  0  0  0  0
   39.0101   45.5382   43.3842 C   0  0  0  0  0  0  0  0  0  0  0  0
   39.7351   46.2991   42.5045 C   0  0  0  0  0  0  0  0  0  0  0  0
   39.8397   45.8326   41.1763 C   0  0  0  0  0  0  0  0  0  0  0  0
   39.2160   44.6592   40.7674 C   0  0  0  0  0  0  0  0  0  0  0  0
   40.4488   47.5772   42.9396 C   0  0  0  0  0  0  0  0  0  0  0  0
   41.9114   47.3583   43.3008 C   0  0  0  0  0  0  0  0  0  0  0  0
   42.3375   46.3273   44.0986 C   0  0  0  0  0  0  0  0  0  0  0  0
   44.5897   46.9646   43.9324 C   0  0  0  0  0  0  0  0  0  0  0  0
   44.1744   47.9858   43.1506 C   0  0  0  0  0  0  0  0  0  0  0  0
   42.8584   48.2187   42.8202 C   0  0  0  0  0  0  0  0  0  0  0  0
   46.7180   46.3118   43.2730 C   0  0  0  0  0  0  0  0  0  0  0  0
   48.1160   46.0671   43.5576 C   0  0  0  0  0  0  0  0  0  0  0  0
   48.6128   44.9886   44.3008 C   0  0  0  0  0  0  0  0  0  0  0  0
   49.9765   44.9077   44.4955 C   0  0  0  0  0  0  0  0  0  0  0  0
   50.7824   45.8762   43.9181 C   0  0  0  0  0  0  0  0  0  0  0  0
   50.2435   46.9391   43.2259 C   0  0  0  0  0  0  0  0  0  0  0  0
   37.8716   39.4436   41.9874 N   0  0  0  0  0  0  0  0  0  0  0  0
   37.9674   42.6195   41.3225 N   0  0  0  0  0  0  0  0  0  0  0  0
   46.0188   46.8168   44.2277 N   0  0  0  0  0  0  0  0  0  0  0  0
   48.9383   47.0140   43.0138 N   0  0  0  0  0  0  0  0  0  0  0  0
  1 17  2  0  0  0  0
  1 16  1  0  0  0  0
  2  3  2  0  0  0  0
  2 26  1  0  0  0  0
  3  4  1  0  0  0  0
  4  5  2  0  0  0  0
  5  6  1  0  0  0  0
  6  7  1  0  0  0  0
  6 26  2  0  0  0  0
  7 27  2  0  0  0  0
  8  9  2  0  0  0  0
  8 13  1  0  0  0  0
  8 27  1  0  0  0  0
  9 10  1  0  0  0  0
 10 11  2  0  0  0  0
 11 12  1  0  0  0  0
 11 14  1  0  0  0  0
 12 13  2  0  0  0  0
 14 15  1  0  0  0  0
 15 16  2  0  0  0  0
 15 19  1  0  0  0  0
 17 18  1  0  0  0  0
 17 28  1  0  0  0  0
 18 19  2  0  0  0  0
 20 21  1  0  0  0  0
 20 28  2  0  0  0  0
 21 22  2  0  0  0  0
 21 29  1  0  0  0  0
 22 23  1  0  0  0  0
 23 24  2  0  0  0  0
 24 25  1  0  0  0  0
 25 29  2  0  0  0  0
M  END
>  <CHROM.1>
66.40367732,94.89309366,-46.09679631,77.70086723,-87.74526382,103.47174895
42.30959476,44.44541011,42.55627256,0.54967060,-0.13694812,0.21879869

>  <Name>
ligand

>  <RI>
0

>  <Rbt.Current_Directory>
/home/itssahil/PROJECTS/Mol_Feturizer/New_Systems/rnas/4JIY

>  <Rbt.Executable>
rbdock ($Id: //depot/dev/client3/rdock/2013.1/src/exe/rbdock.cxx#4 $)

>  <Rbt.Library>
libRbt.so (2013.1, Build901 2013/11/27)

>  <Rbt.Parameter_File>
/export/apps/rDock/src/rDock_2013.1_src/data/scripts/dock_solv.prm

>  <Rbt.Receptor>
prm/pocket_docking_3.prm

>  <SCORE>
9.53628

>  <SCORE.INTER>
10.7047

>  <SCORE.INTER.CONST>
1

>  <SCORE.INTER.POLAR>
0

>  <SCORE.INTER.ROT>
6

>  <SCORE.INTER.SOLV>
0.0289097

>  <SCORE.INTER.VDW>
-0.473156

>  <SCORE.INTER.norm>
0.369128

>  <SCORE.INTRA>
-1.16845

>  <SCORE.INTRA.DIHEDRAL>
-0.0803188

>  <SCORE.INTRA.DIHEDRAL.0>
7.2424

>  <SCORE.INTRA.POLAR>
0

>  <SCORE.INTRA.POLAR.0>
0

>  <SCORE.INTRA.REPUL>
0

>  <SCORE.INTRA.REPUL.0>
0

>  <SCORE.INTRA.SOLV>
-0.0199275

>  <SCORE.INTRA.SOLV.lig_0>
-3.36201

>  <SCORE.INTRA.VDW>
-1.11832

>  <SCORE.INTRA.VDW.0>
-0.910526

>  <SCORE.INTRA.norm>
-0.0402912

>  <SCORE.RESTR>
0

>  <SCORE.RESTR.CAVITY>
0

>  <SCORE.RESTR.norm>
0

>  <SCORE.SYSTEM>
0

>  <SCORE.SYSTEM.CONST>
0

>  <SCORE.SYSTEM.DIHEDRAL>
0

>  <SCORE.SYSTEM.SOLV>
0

>  <SCORE.SYSTEM.norm>
0

>  <SCORE.heavy>
29

>  <SCORE.norm>
0.328837

>  <RMSD>
1.803

$$$$
ligand
 OpenBabel11021811493D
libRbt.so/2013.1/901 2013/11/27
 29 32  0  0  0  0  0  0  0  0999 V2000
   43.9834   46.1428   44.9980 C   0  0  0  0  0  0  0  0  0  0  0  0
   36.1957   37.6903   41.1211 C   0  0  0  0  0  0  0  0  0  0  0  0
   35.4052   37.2084   42.1730 C   0  0  0  0  0  0  0  0  0  0  0  0
   35.4878   37.7559   43.4057 C   0  0  0  0  0  0  0  0  0  0  0  0
   36.4220   38.7601   43.6205 C   0  0  0  0  0  0  0  0  0  0  0  0
   37.1392   39.2497   42.5612 C   0  0  0  0  0  0  0  0  0  0  0  0
   38.0657   40.3788   42.6072 C   0  0  0  0  0  0  0  0  0  0  0  0
   38.4173   42.6717   42.7808 C   0  0  0  0  0  0  0  0  0  0  0  0
   38.5730   43.3265   41.5750 C   0  0  0  0  0  0  0  0  0  0  0  0
   39.4861   44.3792   41.4917 C   0  0  0  0  0  0  0  0  0  0  0  0
   40.1589   44.8475   42.5901 C   0  0  0  0  0  0  0  0  0  0  0  0
   39.9689   44.1609   43.8088 C   0  0  0  0  0  0  0  0  0  0  0  0
   39.1493   43.0409   43.8913 C   0  0  0  0  0  0  0  0  0  0  0  0
   41.0434   46.0908   42.5262 C   0  0  0  0  0  0  0  0  0  0  0  0
   42.4191   45.8849   43.1450 C   0  0  0  0  0  0  0  0  0  0  0  0
   42.7423   46.3145   44.4067 C   0  0  0  0  0  0  0  0  0  0  0  0
   44.9314   45.4813   44.2642 C   0  0  0  0  0  0  0  0  0  0  0  0
   44.6197   45.0613   43.0181 C   0  0  0  0  0  0  0  0  0  0  0  0
   43.3909   45.2471   42.4260 C   0  0  0  0  0  0  0  0  0  0  0  0
   47.1375   46.1561   44.5250 C   0  0  0  0  0  0  0  0  0  0  0  0
   48.4985   45.9096   44.9520 C   0  0  0  0  0  0  0  0  0  0  0  0
   48.9501   45.9525   46.2774 C   0  0  0  0  0  0  0  0  0  0  0  0
   50.2871   45.7079   46.5159 C   0  0  0  0  0  0  0  0  0  0  0  0
   51.1024   45.4000   45.4382 C   0  0  0  0  0  0  0  0  0  0  0  0
   50.6189   45.4061   44.1476 C   0  0  0  0  0  0  0  0  0  0  0  0
   37.0542   38.7046   41.3196 N   0  0  0  0  0  0  0  0  0  0  0  0
   37.5112   41.5339   42.8556 N   0  0  0  0  0  0  0  0  0  0  0  0
   46.2777   45.2372   44.7925 N   0  0  0  0  0  0  0  0  0  0  0  0
   49.3331   45.6170   43.9098 N   0  0  0  0  0  0  0  0  0  0  0  0
  1 17  2  0  0  0  0
  1 16  1  0  0  0  0
  2  3  2  0  0  0  0
  2 26  1  0  0  0  0
  3  4  1  0  0  0  0
  4  5  2  0  0  0  0
  5  6  1  0  0  0  0
  6  7  1  0  0  0  0
  6 26  2  0  0  0  0
  7 27  2  0  0  0  0
  8  9  2  0  0  0  0
  8 13  1  0  0  0  0
  8 27  1  0  0  0  0
  9 10  1  0  0  0  0
 10 11  2  0  0  0  0
 11 12  1  0  0  0  0
 11 14  1  0  0  0  0
 12 13  2  0  0  0  0
 14 15  1  0  0  0  0
 15 16  2  0  0  0  0
 15 19  1  0  0  0  0
 17 18  1  0  0  0  0
 17 28  1  0  0  0  0
 18 19  2  0  0  0  0
 20 21  1  0  0  0  0
 20 28  2  0  0  0  0
 21 22  2  0  0  0  0
 21 29  1  0  0  0  0
 22 23  1  0  0  0  0
 23 24  2  0  0  0  0
 24 25  1  0  0  0  0
 25 29  2  0  0  0  0
M  END
>  <CHROM.1>
-66.07664698,-131.22678519,-100.27102546,-72.79827226,90.21632231,-90.70697824
42.22239512,43.42434441,43.47684860,0.45860587,-0.25933562,-0.09470416

>  <Name>
ligand

>  <RI>
0

>  <Rbt.Current_Directory>
/home/itssahil/PROJECTS/Mol_Feturizer/New_Systems/rnas/4JIY

>  <Rbt.Executable>
rbdock ($Id: //depot/dev/client3/rdock/2013.1/src/exe/rbdock.cxx#4 $)

>  <Rbt.Library>
libRbt.so (2013.1, Build901 2013/11/27)

>  <Rbt.Parameter_File>
/export/apps/rDock/src/rDock_2013.1_src/data/scripts/dock_solv.prm

>  <Rbt.Receptor>
prm/pocket_docking_3.prm

>  <SCORE>
9.89327

>  <SCORE.INTER>
10.9845

>  <SCORE.INTER.CONST>
1

>  <SCORE.INTER.POLAR>
0

>  <SCORE.INTER.ROT>
6

>  <SCORE.INTER.SOLV>
0

>  <SCORE.INTER.VDW>
-0.276971

>  <SCORE.INTER.norm>
0.378777

>  <SCORE.INTRA>
-1.09128

>  <SCORE.INTRA.DIHEDRAL>
0.0994568

>  <SCORE.INTRA.DIHEDRAL.0>
7.2424

>  <SCORE.INTRA.POLAR>
0

>  <SCORE.INTRA.POLAR.0>
0

>  <SCORE.INTRA.REPUL>
0

>  <SCORE.INTRA.REPUL.0>
0

>  <SCORE.INTRA.SOLV>
-0.0188941

>  <SCORE.INTRA.SOLV.lig_0>
-3.36201

>  <SCORE.INTRA.VDW>
-1.13156

>  <SCORE.INTRA.VDW.0>
-0.910526

>  <SCORE.INTRA.norm>
-0.0376303

>  <SCORE.RESTR>
0

>  <SCORE.RESTR.CAVITY>
0

>  <SCORE.RESTR.norm>
0

>  <SCORE.SYSTEM>
0

>  <SCORE.SYSTEM.CONST>
0

>  <SCORE.SYSTEM.DIHEDRAL>
0

>  <SCORE.SYSTEM.SOLV>
0

>  <SCORE.SYSTEM.norm>
0

>  <SCORE.heavy>
29

>  <SCORE.norm>
0.341147

>  <RMSD>
1.809

$$$$
ligand
 OpenBabel11021811493D
libRbt.so/2013.1/901 2013/11/27
 29 32  0  0  0  0  0  0  0  0999 V2000
   39.7693   43.0916   41.5271 C   0  0  0  0  0  0  0  0  0  0  0  0
   50.3615   44.9251   44.9717 C   0  0  0  0  0  0  0  0  0  0  0  0
   51.0951   45.9243   44.3183 C   0  0  0  0  0  0  0  0  0  0  0  0
   50.4847   46.7966   43.4861 C   0  0  0  0  0  0  0  0  0  0  0  0
   49.1274   46.6364   43.2421 C   0  0  0  0  0  0  0  0  0  0  0  0
   48.4259   45.6883   43.9386 C   0  0  0  0  0  0  0  0  0  0  0  0
   46.9804   45.4820   43.8797 C   0  0  0  0  0  0  0  0  0  0  0  0
   44.8329   46.2171   44.3884 C   0  0  0  0  0  0  0  0  0  0  0  0
   44.0329   46.6682   43.3572 C   0  0  0  0  0  0  0  0  0  0  0  0
   42.6530   46.4726   43.4384 C   0  0  0  0  0  0  0  0  0  0  0  0
   42.0778   45.7611   44.4588 C   0  0  0  0  0  0  0  0  0  0  0  0
   42.9261   45.3062   45.4914 C   0  0  0  0  0  0  0  0  0  0  0  0
   44.2882   45.5849   45.4880 C   0  0  0  0  0  0  0  0  0  0  0  0
   40.5887   45.4226   44.4683 C   0  0  0  0  0  0  0  0  0  0  0  0
   40.2470   44.1813   43.6558 C   0  0  0  0  0  0  0  0  0  0  0  0
   40.0800   44.2022   42.2946 C   0  0  0  0  0  0  0  0  0  0  0  0
   39.6425   41.8993   42.1881 C   0  0  0  0  0  0  0  0  0  0  0  0
   39.8001   41.8744   43.5301 C   0  0  0  0  0  0  0  0  0  0  0  0
   40.0929   42.9821   44.2932 C   0  0  0  0  0  0  0  0  0  0  0  0
   38.0735   40.4940   41.2115 C   0  0  0  0  0  0  0  0  0  0  0  0
   37.7055   39.2400   40.5892 C   0  0  0  0  0  0  0  0  0  0  0  0
   37.6848   37.9948   41.2306 C   0  0  0  0  0  0  0  0  0  0  0  0
   37.3243   36.8883   40.4889 C   0  0  0  0  0  0  0  0  0  0  0  0
   36.9701   37.0725   39.1617 C   0  0  0  0  0  0  0  0  0  0  0  0
   37.0416   38.3128   38.5652 C   0  0  0  0  0  0  0  0  0  0  0  0
   49.0363   44.8133   44.7799 N   0  0  0  0  0  0  0  0  0  0  0  0
   46.2656   46.4740   44.3361 N   0  0  0  0  0  0  0  0  0  0  0  0
   39.3219   40.6578   41.4759 N   0  0  0  0  0  0  0  0  0  0  0  0
   37.3642   39.3845   39.2735 N   0  0  0  0  0  0  0  0  0  0  0  0
  1 17  2  0  0  0  0
  1 16  1  0  0  0  0
  2  3  2  0  0  0  0
  2 26  1  0  0  0  0
  3  4  1  0  0  0  0
  4  5  2  0  0  0  0
  5  6  1  0  0  0  0
  6  7  1  0  0  0  0
  6 26  2  0  0  0  0
  7 27  2  0  0  0  0
  8  9  2  0  0  0  0
  8 13  1  0  0  0  0
  8 27  1  0  0  0  0
  9 10  1  0  0  0  0
 10 11  2  0  0  0  0
 11 12  1  0  0  0  0
 11 14  1  0  0  0  0
 12 13  2  0  0  0  0
 14 15  1  0  0  0  0
 15 16  2  0  0  0  0
 15 19  1  0  0  0  0
 17 18  1  0  0  0  0
 17 28  1  0  0  0  0
 18 19  2  0  0  0  0
 20 21  1  0  0  0  0
 20 28  2  0  0  0  0
 21 22  2  0  0  0  0
 21 29  1  0  0  0  0
 22 23  1  0  0  0  0
 23 24  2  0  0  0  0
 24 25  1  0  0  0  0
 25 29  2  0  0  0  0
M  END
>  <CHROM.1>
-64.82737327,83.40428030,-82.03798754,72.19873390,-97.37049835,-81.22630438
42.56027797,43.32471316,42.87811761,2.50371728,-0.02871115,-2.59875764

>  <Name>
ligand

>  <RI>
0

>  <Rbt.Current_Directory>
/home/itssahil/PROJECTS/Mol_Feturizer/New_Systems/rnas/4JIY

>  <Rbt.Executable>
rbdock ($Id: //depot/dev/client3/rdock/2013.1/src/exe/rbdock.cxx#4 $)

>  <Rbt.Library>
libRbt.so (2013.1, Build901 2013/11/27)

>  <Rbt.Parameter_File>
/export/apps/rDock/src/rDock_2013.1_src/data/scripts/dock_solv.prm

>  <Rbt.Receptor>
prm/pocket_docking_3.prm

>  <SCORE>
9.45018

>  <SCORE.INTER>
10.7512

>  <SCORE.INTER.CONST>
1

>  <SCORE.INTER.POLAR>
0

>  <SCORE.INTER.ROT>
6

>  <SCORE.INTER.SOLV>
0.0321359

>  <SCORE.INTER.VDW>
-0.443273

>  <SCORE.INTER.norm>
0.37073

>  <SCORE.INTRA>
-1.30098

>  <SCORE.INTRA.DIHEDRAL>
-0.0939933

>  <SCORE.INTRA.DIHEDRAL.0>
7.2424

>  <SCORE.INTRA.POLAR>
0

>  <SCORE.INTRA.POLAR.0>
0

>  <SCORE.INTRA.REPUL>
0

>  <SCORE.INTRA.REPUL.0>
0

>  <SCORE.INTRA.SOLV>
-0.0200607

>  <SCORE.INTRA.SOLV.lig_0>
-3.36201

>  <SCORE.INTRA.VDW>
-1.24395

>  <SCORE.INTRA.VDW.0>
-0.910526

>  <SCORE.INTRA.norm>
-0.0448614

>  <SCORE.RESTR>
0

>  <SCORE.RESTR.CAVITY>
0

>  <SCORE.RESTR.norm>
0

>  <SCORE.SYSTEM>
0

>  <SCORE.SYSTEM.CONST>
0

>  <SCORE.SYSTEM.DIHEDRAL>
0

>  <SCORE.SYSTEM.SOLV>
0

>  <SCORE.SYSTEM.norm>
0

>  <SCORE.heavy>
29

>  <SCORE.norm>
0.325868

>  <RMSD>
1.816

$$$$
ligand
 OpenBabel11021811493D
libRbt.so/2013.1/901 2013/11/27
 29 32  0  0  0  0  0  0  0  0999 V2000
   44.4289   45.5873   41.5106 C   0  0  0  0  0  0  0  0  0  0  0  0
   37.5098   37.7304   41.2971 C   0  0  0  0  0  0  0  0  0  0  0  0
   36.4491   37.4413   42.1660 C   0  0  0  0  0  0  0  0  0  0  0  0
   36.0396   38.3474   43.0810 C   0  0  0  0  0  0  0  0  0  0  0  0
   36.7380   39.5427   43.1846 C   0  0  0  0  0  0  0  0  0  0  0  0
   37.7324   39.8212   42.2846 C   0  0  0  0  0  0  0  0  0  0  0  0
   38.4713   41.0785   42.1914 C   0  0  0  0  0  0  0  0  0  0  0  0
   38.5421   43.3140   41.5524 C   0  0  0  0  0  0  0  0  0  0  0  0
   38.6156   44.2408   42.5735 C   0  0  0  0  0  0  0  0  0  0  0  0
   39.3026   45.4357   42.3521 C   0  0  0  0  0  0  0  0  0  0  0  0
   39.9894   45.6758   41.1906 C   0  0  0  0  0  0  0  0  0  0  0  0
   39.9008   44.7031   40.1715 C   0  0  0  0  0  0  0  0  0  0  0  0
   39.1315   43.5556   40.3277 C   0  0  0  0  0  0  0  0  0  0  0  0
   40.8602   46.9171   41.0089 C   0  0  0  0  0  0  0  0  0  0  0  0
   42.2798   46.7396   41.5295 C   0  0  0  0  0  0  0  0  0  0  0  0
   43.1328   45.7746   41.0585 C   0  0  0  0  0  0  0  0  0  0  0  0
   44.8754   46.4450   42.4800 C   0  0  0  0  0  0  0  0  0  0  0  0
   44.0366   47.3938   42.9518 C   0  0  0  0  0  0  0  0  0  0  0  0
   42.7436   47.5681   42.5127 C   0  0  0  0  0  0  0  0  0  0  0  0
   46.3753   45.4642   43.9559 C   0  0  0  0  0  0  0  0  0  0  0  0
   47.6776   45.3961   44.5842 C   0  0  0  0  0  0  0  0  0  0  0  0
   48.8487   44.9351   43.9690 C   0  0  0  0  0  0  0  0  0  0  0  0
   50.0103   44.9194   44.7137 C   0  0  0  0  0  0  0  0  0  0  0  0
   49.9637   45.3911   46.0160 C   0  0  0  0  0  0  0  0  0  0  0  0
   48.7791   45.8004   46.5892 C   0  0  0  0  0  0  0  0  0  0  0  0
   38.1427   38.9140   41.3601 N   0  0  0  0  0  0  0  0  0  0  0  0
   37.7743   42.0937   41.7590 N   0  0  0  0  0  0  0  0  0  0  0  0
   46.2320   46.3438   43.0280 N   0  0  0  0  0  0  0  0  0  0  0  0
   47.6634   45.8410   45.8766 N   0  0  0  0  0  0  0  0  0  0  0  0
  1 17  2  0  0  0  0
  1 16  1  0  0  0  0
  2  3  2  0  0  0  0
  2 26  1  0  0  0  0
  3  4  1  0  0  0  0
  4  5  2  0  0  0  0
  5  6  1  0  0  0  0
  6  7  1  0  0  0  0
  6 26  2  0  0  0  0
  7 27  2  0  0  0  0
  8  9  2  0  0  0  0
  8 13  1  0  0  0  0
  8 27  1  0  0  0  0
  9 10  1  0  0  0  0
 10 11  2  0  0  0  0
 11 12  1  0  0  0  0
 11 14  1  0  0  0  0
 12 13  2  0  0  0  0
 14 15  1  0  0  0  0
 15 16  2  0  0  0  0
 15 19  1  0  0  0  0
 17 18  1  0  0  0  0
 17 28  1  0  0  0  0
 18 19  2  0  0  0  0
 20 21  1  0  0  0  0
 20 28  2  0  0  0  0
 21 22  2  0  0  0  0
 21 29  1  0  0  0  0
 22 23  1  0  0  0  0
 23 24  2  0  0  0  0
 24 25  1  0  0  0  0
 25 29  2  0  0  0  0
M  END
>  <CHROM.1>
-69.55988258,86.13019487,59.37901991,-69.53494174,-93.32654204,-82.51004378
42.14758209,43.87705042,42.66529051,0.39000561,-0.39794490,-0.34363851

>  <Name>
ligand

>  <RI>
0

>  <Rbt.Current_Directory>
/home/itssahil/PROJECTS/Mol_Feturizer/New_Systems/rnas/4JIY

>  <Rbt.Executable>
rbdock ($Id: //depot/dev/client3/rdock/2013.1/src/exe/rbdock.cxx#4 $)

>  <Rbt.Library>
libRbt.so (2013.1, Build901 2013/11/27)

>  <Rbt.Parameter_File>
/export/apps/rDock/src/rDock_2013.1_src/data/scripts/dock_solv.prm

>  <Rbt.Receptor>
prm/pocket_docking_3.prm

>  <SCORE>
9.37011

>  <SCORE.INTER>
10.6161

>  <SCORE.INTER.CONST>
1

>  <SCORE.INTER.POLAR>
0

>  <SCORE.INTER.ROT>
6

>  <SCORE.INTER.SOLV>
0.0274463

>  <SCORE.INTER.VDW>
-0.531758

>  <SCORE.INTER.norm>
0.366072

>  <SCORE.INTRA>
-1.24598

>  <SCORE.INTRA.DIHEDRAL>
-0.0998542

>  <SCORE.INTRA.DIHEDRAL.0>
7.2424

>  <SCORE.INTRA.POLAR>
0

>  <SCORE.INTRA.POLAR.0>
0

>  <SCORE.INTRA.REPUL>
0

>  <SCORE.INTRA.REPUL.0>
0

>  <SCORE.INTRA.SOLV>
-0.0198798

>  <SCORE.INTRA.SOLV.lig_0>
-3.36201

>  <SCORE.INTRA.VDW>
-1.18611

>  <SCORE.INTRA.VDW.0>
-0.910526

>  <SCORE.INTRA.norm>
-0.0429649

>  <SCORE.RESTR>
0

>  <SCORE.RESTR.CAVITY>
0

>  <SCORE.RESTR.norm>
0

>  <SCORE.SYSTEM>
0

>  <SCORE.SYSTEM.CONST>
0

>  <SCORE.SYSTEM.DIHEDRAL>
0

>  <SCORE.SYSTEM.SOLV>
0

>  <SCORE.SYSTEM.norm>
0

>  <SCORE.heavy>
29

>  <SCORE.norm>
0.323107

>  <RMSD>
1.847

$$$$
ligand
 OpenBabel11021811493D
libRbt.so/2013.1/901 2013/11/27
 29 32  0  0  0  0  0  0  0  0999 V2000
   40.4845   42.0141   39.3044 C   0  0  0  0  0  0  0  0  0  0  0  0
   50.0855   44.9676   44.6245 C   0  0  0  0  0  0  0  0  0  0  0  0
   50.1926   45.4131   45.9488 C   0  0  0  0  0  0  0  0  0  0  0  0
   49.0953   45.7917   46.6407 C   0  0  0  0  0  0  0  0  0  0  0  0
   47.8706   45.7931   45.9868 C   0  0  0  0  0  0  0  0  0  0  0  0
   47.7879   45.2983   44.7123 C   0  0  0  0  0  0  0  0  0  0  0  0
   46.5578   45.1241   43.9429 C   0  0  0  0  0  0  0  0  0  0  0  0
   44.6916   46.0593   42.9163 C   0  0  0  0  0  0  0  0  0  0  0  0
   44.6542   45.9457   41.5406 C   0  0  0  0  0  0  0  0  0  0  0  0
   43.4156   45.8372   40.9058 C   0  0  0  0  0  0  0  0  0  0  0  0
   42.2434   45.7400   41.6093 C   0  0  0  0  0  0  0  0  0  0  0  0
   42.3191   45.8503   43.0146 C   0  0  0  0  0  0  0  0  0  0  0  0
   43.5298   46.0699   43.6618 C   0  0  0  0  0  0  0  0  0  0  0  0
   40.9071   45.4735   40.9198 C   0  0  0  0  0  0  0  0  0  0  0  0
   40.6139   43.9924   40.7244 C   0  0  0  0  0  0  0  0  0  0  0  0
   40.7431   43.3587   39.5150 C   0  0  0  0  0  0  0  0  0  0  0  0
   40.0924   41.2822   40.3931 C   0  0  0  0  0  0  0  0  0  0  0  0
   39.9577   41.9032   41.5858 C   0  0  0  0  0  0  0  0  0  0  0  0
   40.1995   43.2431   41.7897 C   0  0  0  0  0  0  0  0  0  0  0  0
   38.5733   39.5680   40.0133 C   0  0  0  0  0  0  0  0  0  0  0  0
   38.2239   38.1634   39.9898 C   0  0  0  0  0  0  0  0  0  0  0  0
   38.6454   37.2417   39.0228 C   0  0  0  0  0  0  0  0  0  0  0  0
   38.2089   35.9375   39.1352 C   0  0  0  0  0  0  0  0  0  0  0  0
   37.4070   35.6025   40.2148 C   0  0  0  0  0  0  0  0  0  0  0  0
   36.9886   36.5533   41.1205 C   0  0  0  0  0  0  0  0  0  0  0  0
   48.8888   44.9120   44.0160 N   0  0  0  0  0  0  0  0  0  0  0  0
   45.9779   46.2345   43.5766 N   0  0  0  0  0  0  0  0  0  0  0  0
   39.7983   39.8491   40.2884 N   0  0  0  0  0  0  0  0  0  0  0  0
   37.4200   37.8026   41.0348 N   0  0  0  0  0  0  0  0  0  0  0  0
  1 17  2  0  0  0  0
  1 16  1  0  0  0  0
  2  3  2  0  0  0  0
  2 26  1  0  0  0  0
  3  4  1  0  0  0  0
  4  5  2  0  0  0  0
  5  6  1  0  0  0  0
  6  7  1  0  0  0  0
  6 26  2  0  0  0  0
  7 27  2  0  0  0  0
  8  9  2  0  0  0  0
  8 13  1  0  0  0  0
  8 27  1  0  0  0  0
  9 10  1  0  0  0  0
 10 11  2  0  0  0  0
 11 12  1  0  0  0  0
 11 14  1  0  0  0  0
 12 13  2  0  0  0  0
 14 15  1  0  0  0  0
 15 16  2  0  0  0  0
 15 19  1  0  0  0  0
 17 18  1  0  0  0  0
 17 28  1  0  0  0  0
 18 19  2  0  0  0  0
 20 21  1  0  0  0  0
 20 28  2  0  0  0  0
 21 22  2  0  0  0  0
 21 29  1  0  0  0  0
 22 23  1  0  0  0  0
 23 24  2  0  0  0  0
 24 25  1  0  0  0  0
 25 29  2  0  0  0  0
M  END
>  <CHROM.1>
68.93579296,86.92583365,-103.56185550,-69.83383321,-91.37529990,-90.00260331
42.60546324,42.79317642,42.00386269,2.56742461,0.51383722,3.02767986

>  <Name>
ligand

>  <RI>
0

>  <Rbt.Current_Directory>
/home/itssahil/PROJECTS/Mol_Feturizer/New_Systems/rnas/4JIY

>  <Rbt.Executable>
rbdock ($Id: //depot/dev/client3/rdock/2013.1/src/exe/rbdock.cxx#4 $)

>  <Rbt.Library>
libRbt.so (2013.1, Build901 2013/11/27)

>  <Rbt.Parameter_File>
/export/apps/rDock/src/rDock_2013.1_src/data/scripts/dock_solv.prm

>  <Rbt.Receptor>
prm/pocket_docking_3.prm

>  <SCORE>
9.31436

>  <SCORE.INTER>
10.5654

>  <SCORE.INTER.CONST>
1

>  <SCORE.INTER.POLAR>
0

>  <SCORE.INTER.ROT>
6

>  <SCORE.INTER.SOLV>
0.0254429

>  <SCORE.INTER.VDW>
-0.564862

>  <SCORE.INTER.norm>
0.364325

>  <SCORE.INTRA>
-1.25107

>  <SCORE.INTRA.DIHEDRAL>
-0.0920725

>  <SCORE.INTRA.DIHEDRAL.0>
7.2424

>  <SCORE.INTRA.POLAR>
0

>  <SCORE.INTRA.POLAR.0>
0

>  <SCORE.INTRA.REPUL>
0

>  <SCORE.INTRA.REPUL.0>
0

>  <SCORE.INTRA.SOLV>
-0.0197349

>  <SCORE.INTRA.SOLV.lig_0>
-3.36201

>  <SCORE.INTRA.VDW>
-1.19516

>  <SCORE.INTRA.VDW.0>
-0.910526

>  <SCORE.INTRA.norm>
-0.0431402

>  <SCORE.RESTR>
0

>  <SCORE.RESTR.CAVITY>
0

>  <SCORE.RESTR.norm>
0

>  <SCORE.SYSTEM>
0

>  <SCORE.SYSTEM.CONST>
0

>  <SCORE.SYSTEM.DIHEDRAL>
0

>  <SCORE.SYSTEM.SOLV>
0

>  <SCORE.SYSTEM.norm>
0

>  <SCORE.heavy>
29

>  <SCORE.norm>
0.321185

>  <RMSD>
1.867

$$$$
ligand
 OpenBabel11021811493D
libRbt.so/2013.1/901 2013/11/27
 29 32  0  0  0  0  0  0  0  0999 V2000
   43.9283   46.6602   44.4865 C   0  0  0  0  0  0  0  0  0  0  0  0
   35.8081   39.1544   40.3257 C   0  0  0  0  0  0  0  0  0  0  0  0
   36.2701   38.4306   39.2183 C   0  0  0  0  0  0  0  0  0  0  0  0
   37.1902   38.9603   38.3822 C   0  0  0  0  0  0  0  0  0  0  0  0
   37.6153   40.2624   38.6082 C   0  0  0  0  0  0  0  0  0  0  0  0
   37.1905   40.9238   39.7300 C   0  0  0  0  0  0  0  0  0  0  0  0
   37.6411   42.2444   40.1638 C   0  0  0  0  0  0  0  0  0  0  0  0
   39.3068   43.5911   41.0710 C   0  0  0  0  0  0  0  0  0  0  0  0
   39.1602   43.8235   42.4243 C   0  0  0  0  0  0  0  0  0  0  0  0
   39.5019   45.0772   42.9346 C   0  0  0  0  0  0  0  0  0  0  0  0
   40.0703   46.0501   42.1544 C   0  0  0  0  0  0  0  0  0  0  0  0
   40.2145   45.7756   40.7773 C   0  0  0  0  0  0  0  0  0  0  0  0
   39.7793   44.5755   40.2264 C   0  0  0  0  0  0  0  0  0  0  0  0
   40.5781   47.3642   42.7440 C   0  0  0  0  0  0  0  0  0  0  0  0
   42.0651   47.3445   43.0697 C   0  0  0  0  0  0  0  0  0  0  0  0
   42.5818   46.6970   44.1627 C   0  0  0  0  0  0  0  0  0  0  0  0
   44.7863   47.3042   43.6358 C   0  0  0  0  0  0  0  0  0  0  0  0
   44.2816   47.9490   42.5607 C   0  0  0  0  0  0  0  0  0  0  0  0
   42.9415   47.9981   42.2494 C   0  0  0  0  0  0  0  0  0  0  0  0
   46.8857   46.3622   43.3266 C   0  0  0  0  0  0  0  0  0  0  0  0
   48.3028   46.2972   43.6143 C   0  0  0  0  0  0  0  0  0  0  0  0
   49.2315   47.3081   43.3350 C   0  0  0  0  0  0  0  0  0  0  0  0
   50.5538   47.0824   43.6587 C   0  0  0  0  0  0  0  0  0  0  0  0
   50.8861   45.8849   44.2723 C   0  0  0  0  0  0  0  0  0  0  0  0
   49.9421   44.9055   44.4933 C   0  0  0  0  0  0  0  0  0  0  0  0
   36.2694   40.3916   40.5752 N   0  0  0  0  0  0  0  0  0  0  0  0
   38.8936   42.3053   40.5255 N   0  0  0  0  0  0  0  0  0  0  0  0
   46.2330   47.3251   43.8764 N   0  0  0  0  0  0  0  0  0  0  0  0
   48.6669   45.1207   44.2074 N   0  0  0  0  0  0  0  0  0  0  0  0
  1 17  2  0  0  0  0
  1 16  1  0  0  0  0
  2  3  2  0  0  0  0
  2 26  1  0  0  0  0
  3  4  1  0  0  0  0
  4  5  2  0  0  0  0
  5  6  1  0  0  0  0
  6  7  1  0  0  0  0
  6 26  2  0  0  0  0
  7 27  2  0  0  0  0
  8  9  2  0  0  0  0
  8 13  1  0  0  0  0
  8 27  1  0  0  0  0
  9 10  1  0  0  0  0
 10 11  2  0  0  0  0
 11 12  1  0  0  0  0
 11 14  1  0  0  0  0
 12 13  2  0  0  0  0
 14 15  1  0  0  0  0
 15 16  2  0  0  0  0
 15 19  1  0  0  0  0
 17 18  1  0  0  0  0
 17 28  1  0  0  0  0
 18 19  2  0  0  0  0
 20 21  1  0  0  0  0
 20 28  2  0  0  0  0
 21 22  2  0  0  0  0
 21 29  1  0  0  0  0
 22 23  1  0  0  0  0
 23 24  2  0  0  0  0
 24 25  1  0  0  0  0
 25 29  2  0  0  0  0
M  END
>  <CHROM.1>
-66.51955223,94.75324830,-75.77971389,-59.10384514,88.19957037,90.88510758
42.29746134,44.58806714,42.10295149,0.54332521,-0.17699892,0.31254346

>  <Name>
ligand

>  <RI>
0

>  <Rbt.Current_Directory>
/home/itssahil/PROJECTS/Mol_Feturizer/New_Systems/rnas/4JIY

>  <Rbt.Executable>
rbdock ($Id: //depot/dev/client3/rdock/2013.1/src/exe/rbdock.cxx#4 $)

>  <Rbt.Library>
libRbt.so (2013.1, Build901 2013/11/27)

>  <Rbt.Parameter_File>
/export/apps/rDock/src/rDock_2013.1_src/data/scripts/dock_solv.prm

>  <Rbt.Receptor>
prm/pocket_docking_3.prm

>  <SCORE>
9.62875

>  <SCORE.INTER>
10.8587

>  <SCORE.INTER.CONST>
1

>  <SCORE.INTER.POLAR>
0

>  <SCORE.INTER.ROT>
6

>  <SCORE.INTER.SOLV>
0.0282465

>  <SCORE.INTER.VDW>
-0.370289

>  <SCORE.INTER.norm>
0.374438

>  <SCORE.INTRA>
-1.22994

>  <SCORE.INTRA.DIHEDRAL>
-0.0509434

>  <SCORE.INTRA.DIHEDRAL.0>
7.2424

>  <SCORE.INTRA.POLAR>
0

>  <SCORE.INTRA.POLAR.0>
0

>  <SCORE.INTRA.REPUL>
0

>  <SCORE.INTRA.REPUL.0>
0

>  <SCORE.INTRA.SOLV>
-0.0194236

>  <SCORE.INTRA.SOLV.lig_0>
-3.36201

>  <SCORE.INTRA.VDW>
-1.19475

>  <SCORE.INTRA.VDW.0>
-0.910526

>  <SCORE.INTRA.norm>
-0.0424116

>  <SCORE.RESTR>
0

>  <SCORE.RESTR.CAVITY>
0

>  <SCORE.RESTR.norm>
0

>  <SCORE.SYSTEM>
0

>  <SCORE.SYSTEM.CONST>
0

>  <SCORE.SYSTEM.DIHEDRAL>
0

>  <SCORE.SYSTEM.SOLV>
0

>  <SCORE.SYSTEM.norm>
0

>  <SCORE.heavy>
29

>  <SCORE.norm>
0.332026

>  <RMSD>
1.880

$$$$
ligand
 OpenBabel11021811493D
libRbt.so/2013.1/901 2013/11/27
 29 32  0  0  0  0  0  0  0  0999 V2000
   43.4192   45.9054   44.5982 C   0  0  0  0  0  0  0  0  0  0  0  0
   38.2425   35.6096   40.7437 C   0  0  0  0  0  0  0  0  0  0  0  0
   36.9507   35.2159   41.1180 C   0  0  0  0  0  0  0  0  0  0  0  0
   36.0682   36.1162   41.6043 C   0  0  0  0  0  0  0  0  0  0  0  0
   36.4937   37.4250   41.7874 C   0  0  0  0  0  0  0  0  0  0  0  0
   37.7417   37.7929   41.3592 C   0  0  0  0  0  0  0  0  0  0  0  0
   38.2831   39.1501   41.3737 C   0  0  0  0  0  0  0  0  0  0  0  0
   38.9604   41.0203   42.5798 C   0  0  0  0  0  0  0  0  0  0  0  0
   40.2955   41.3172   42.3889 C   0  0  0  0  0  0  0  0  0  0  0  0
   40.7083   42.6487   42.4653 C   0  0  0  0  0  0  0  0  0  0  0  0
   39.8181   43.6785   42.6246 C   0  0  0  0  0  0  0  0  0  0  0  0
   38.4600   43.3398   42.8073 C   0  0  0  0  0  0  0  0  0  0  0  0
   38.0407   42.0148   42.8457 C   0  0  0  0  0  0  0  0  0  0  0  0
   40.2543   45.1406   42.5601 C   0  0  0  0  0  0  0  0  0  0  0  0
   41.7111   45.3532   42.9476 C   0  0  0  0  0  0  0  0  0  0  0  0
   42.1035   45.7048   44.2139 C   0  0  0  0  0  0  0  0  0  0  0  0
   44.3787   45.7174   43.6397 C   0  0  0  0  0  0  0  0  0  0  0  0
   43.9969   45.3768   42.3888 C   0  0  0  0  0  0  0  0  0  0  0  0
   42.6876   45.1937   42.0047 C   0  0  0  0  0  0  0  0  0  0  0  0
   46.3832   44.8649   44.4431 C   0  0  0  0  0  0  0  0  0  0  0  0
   47.7677   45.0296   44.8321 C   0  0  0  0  0  0  0  0  0  0  0  0
   48.8667   44.9336   43.9688 C   0  0  0  0  0  0  0  0  0  0  0  0
   50.1281   45.1018   44.5024 C   0  0  0  0  0  0  0  0  0  0  0  0
   50.2382   45.3898   45.8536 C   0  0  0  0  0  0  0  0  0  0  0  0
   49.1288   45.4378   46.6699 C   0  0  0  0  0  0  0  0  0  0  0  0
   38.6293   36.8906   40.8649 N   0  0  0  0  0  0  0  0  0  0  0  0
   38.5364   39.6270   42.5619 N   0  0  0  0  0  0  0  0  0  0  0  0
   45.8040   45.8957   43.9358 N   0  0  0  0  0  0  0  0  0  0  0  0
   47.9125   45.3006   46.1640 N   0  0  0  0  0  0  0  0  0  0  0  0
  1 17  2  0  0  0  0
  1 16  1  0  0  0  0
  2  3  2  0  0  0  0
  2 26  1  0  0  0  0
  3  4  1  0  0  0  0
  4  5  2  0  0  0  0
  5  6  1  0  0  0  0
  6  7  1  0  0  0  0
  6 26  2  0  0  0  0
  7 27  2  0  0  0  0
  8  9  2  0  0  0  0
  8 13  1  0  0  0  0
  8 27  1  0  0  0  0
  9 10  1  0  0  0  0
 10 11  2  0  0  0  0
 11 12  1  0  0  0  0
 11 14  1  0  0  0  0
 12 13  2  0  0  0  0
 14 15  1  0  0  0  0
 15 16  2  0  0  0  0
 15 19  1  0  0  0  0
 17 18  1  0  0  0  0
 17 28  1  0  0  0  0
 18 19  2  0  0  0  0
 20 21  1  0  0  0  0
 20 28  2  0  0  0  0
 21 22  2  0  0  0  0
 21 29  1  0  0  0  0
 22 23  1  0  0  0  0
 23 24  2  0  0  0  0
 24 25  1  0  0  0  0
 25 29  2  0  0  0  0
M  END
>  <CHROM.1>
69.74594694,-26.61645426,-95.38954259,-82.77829391,-85.51285719,84.80671204
42.14170254,42.48910125,43.10039887,0.65760617,-0.24415928,0.10387670

>  <Name>
ligand

>  <RI>
0

>  <Rbt.Current_Directory>
/home/itssahil/PROJECTS/Mol_Feturizer/New_Systems/rnas/4JIY

>  <Rbt.Executable>
rbdock ($Id: //depot/dev/client3/rdock/2013.1/src/exe/rbdock.cxx#4 $)

>  <Rbt.Library>
libRbt.so (2013.1, Build901 2013/11/27)

>  <Rbt.Parameter_File>
/export/apps/rDock/src/rDock_2013.1_src/data/scripts/dock_solv.prm

>  <Rbt.Receptor>
prm/pocket_docking_3.prm

>  <SCORE>
9.53108

>  <SCORE.INTER>
10.543

>  <SCORE.INTER.CONST>
1

>  <SCORE.INTER.POLAR>
0

>  <SCORE.INTER.ROT>
6

>  <SCORE.INTER.SOLV>
0.014572

>  <SCORE.INTER.VDW>
-0.576188

>  <SCORE.INTER.norm>
0.363552

>  <SCORE.INTRA>
-1.01348

>  <SCORE.INTRA.DIHEDRAL>
0.00871359

>  <SCORE.INTRA.DIHEDRAL.0>
7.2424

>  <SCORE.INTRA.POLAR>
0

>  <SCORE.INTRA.POLAR.0>
0

>  <SCORE.INTRA.REPUL>
0

>  <SCORE.INTRA.REPUL.0>
0

>  <SCORE.INTRA.SOLV>
-0.0195627

>  <SCORE.INTRA.SOLV.lig_0>
-3.36201

>  <SCORE.INTRA.VDW>
-1.00805

>  <SCORE.INTRA.VDW.0>
-0.910526

>  <SCORE.INTRA.norm>
-0.0349475

>  <SCORE.RESTR>
0.00155354

>  <SCORE.RESTR.CAVITY>
0.00155354

>  <SCORE.RESTR.norm>
5.35703e-05

>  <SCORE.SYSTEM>
0

>  <SCORE.SYSTEM.CONST>
0

>  <SCORE.SYSTEM.DIHEDRAL>
0

>  <SCORE.SYSTEM.SOLV>
0

>  <SCORE.SYSTEM.norm>
0

>  <SCORE.heavy>
29

>  <SCORE.norm>
0.328658

>  <RMSD>
1.889

$$$$
ligand
 OpenBabel11021811493D
libRbt.so/2013.1/901 2013/11/27
 29 32  0  0  0  0  0  0  0  0999 V2000
   38.3217   43.2552   41.3451 C   0  0  0  0  0  0  0  0  0  0  0  0
   50.0114   47.1846   43.7422 C   0  0  0  0  0  0  0  0  0  0  0  0
   50.6551   46.0559   44.2668 C   0  0  0  0  0  0  0  0  0  0  0  0
   49.9716   44.9110   44.4864 C   0  0  0  0  0  0  0  0  0  0  0  0
   48.6047   44.9014   44.2437 C   0  0  0  0  0  0  0  0  0  0  0  0
   48.0142   45.9999   43.6773 C   0  0  0  0  0  0  0  0  0  0  0  0
   46.6185   46.0959   43.2552 C   0  0  0  0  0  0  0  0  0  0  0  0
   44.9122   45.4286   41.8220 C   0  0  0  0  0  0  0  0  0  0  0  0
   43.8830   44.7103   42.3980 C   0  0  0  0  0  0  0  0  0  0  0  0
   42.5950   44.8388   41.8750 C   0  0  0  0  0  0  0  0  0  0  0  0
   42.3015   45.7281   40.8743 C   0  0  0  0  0  0  0  0  0  0  0  0
   43.3757   46.4532   40.3148 C   0  0  0  0  0  0  0  0  0  0  0  0
   44.6839   46.2605   40.7443 C   0  0  0  0  0  0  0  0  0  0  0  0
   40.8687   45.9730   40.4060 C   0  0  0  0  0  0  0  0  0  0  0  0
   40.0207   44.7091   40.3722 C   0  0  0  0  0  0  0  0  0  0  0  0
   39.1079   44.3959   41.3466 C   0  0  0  0  0  0  0  0  0  0  0  0
   38.4676   42.4054   40.2815 C   0  0  0  0  0  0  0  0  0  0  0  0
   39.3702   42.7065   39.3217 C   0  0  0  0  0  0  0  0  0  0  0  0
   40.1621   43.8325   39.3332 C   0  0  0  0  0  0  0  0  0  0  0  0
   38.1927   40.1522   40.7690 C   0  0  0  0  0  0  0  0  0  0  0  0
   37.4935   38.8949   40.6093 C   0  0  0  0  0  0  0  0  0  0  0  0
   36.2837   38.5583   41.2302 C   0  0  0  0  0  0  0  0  0  0  0  0
   35.7539   37.3079   40.9848 C   0  0  0  0  0  0  0  0  0  0  0  0
   36.4275   36.4672   40.1128 C   0  0  0  0  0  0  0  0  0  0  0  0
   37.6343   36.8297   39.5547 C   0  0  0  0  0  0  0  0  0  0  0  0
   48.7001   47.1507   43.4506 N   0  0  0  0  0  0  0  0  0  0  0  0
   46.2672   45.2501   42.3254 N   0  0  0  0  0  0  0  0  0  0  0  0
   37.6825   41.1714   40.1723 N   0  0  0  0  0  0  0  0  0  0  0  0
   38.1400   38.0356   39.7655 N   0  0  0  0  0  0  0  0  0  0  0  0
  1 17  2  0  0  0  0
  1 16  1  0  0  0  0
  2  3  2  0  0  0  0
  2 26  1  0  0  0  0
  3  4  1  0  0  0  0
  4  5  2  0  0  0  0
  5  6  1  0  0  0  0
  6  7  1  0  0  0  0
  6 26  2  0  0  0  0
  7 27  2  0  0  0  0
  8  9  2  0  0  0  0
  8 13  1  0  0  0  0
  8 27  1  0  0  0  0
  9 10  1  0  0  0  0
 10 11  2  0  0  0  0
 11 12  1  0  0  0  0
 11 14  1  0  0  0  0
 12 13  2  0  0  0  0
 14 15  1  0  0  0  0
 15 16  2  0  0  0  0
 15 19  1  0  0  0  0
 17 18  1  0  0  0  0
 17 28  1  0  0  0  0
 18 19  2  0  0  0  0
 20 21  1  0  0  0  0
 20 28  2  0  0  0  0
 21 22  2  0  0  0  0
 21 29  1  0  0  0  0
 22 23  1  0  0  0  0
 23 24  2  0  0  0  0
 24 25  1  0  0  0  0
 25 29  2  0  0  0  0
M  END
>  <CHROM.1>
-61.23388473,-38.14496143,101.54413633,-73.83866437,-92.73876325,-86.60517159
42.22875981,43.30393594,41.48118955,2.65435140,0.38330551,2.93828154

>  <Name>
ligand

>  <RI>
0

>  <Rbt.Current_Directory>
/home/itssahil/PROJECTS/Mol_Feturizer/New_Systems/rnas/4JIY

>  <Rbt.Executable>
rbdock ($Id: //depot/dev/client3/rdock/2013.1/src/exe/rbdock.cxx#4 $)

>  <Rbt.Library>
libRbt.so (2013.1, Build901 2013/11/27)

>  <Rbt.Parameter_File>
/export/apps/rDock/src/rDock_2013.1_src/data/scripts/dock_solv.prm

>  <Rbt.Receptor>
prm/pocket_docking_3.prm

>  <SCORE>
9.53545

>  <SCORE.INTER>
10.6546

>  <SCORE.INTER.CONST>
1

>  <SCORE.INTER.POLAR>
0

>  <SCORE.INTER.ROT>
6

>  <SCORE.INTER.SOLV>
0.0285195

>  <SCORE.INTER.VDW>
-0.506407

>  <SCORE.INTER.norm>
0.367402

>  <SCORE.INTRA>
-1.11976

>  <SCORE.INTRA.DIHEDRAL>
-0.0932475

>  <SCORE.INTRA.DIHEDRAL.0>
7.2424

>  <SCORE.INTRA.POLAR>
0

>  <SCORE.INTRA.POLAR.0>
0

>  <SCORE.INTRA.REPUL>
0

>  <SCORE.INTRA.REPUL.0>
0

>  <SCORE.INTRA.SOLV>
-0.0199647

>  <SCORE.INTRA.SOLV.lig_0>
-3.36201

>  <SCORE.INTRA.VDW>
-1.06315

>  <SCORE.INTRA.VDW.0>
-0.910526

>  <SCORE.INTRA.norm>
-0.0386124

>  <SCORE.RESTR>
0.000556166

>  <SCORE.RESTR.CAVITY>
0.000556166

>  <SCORE.RESTR.norm>
1.91781e-05

>  <SCORE.SYSTEM>
0

>  <SCORE.SYSTEM.CONST>
0

>  <SCORE.SYSTEM.DIHEDRAL>
0

>  <SCORE.SYSTEM.SOLV>
0

>  <SCORE.SYSTEM.norm>
0

>  <SCORE.heavy>
29

>  <SCORE.norm>
0.328808

>  <RMSD>
1.894

$$$$
ligand
 OpenBabel11021811493D
libRbt.so/2013.1/901 2013/11/27
 29 32  0  0  0  0  0  0  0  0999 V2000
   37.8797   42.3270   43.1453 C   0  0  0  0  0  0  0  0  0  0  0  0
   49.3362   46.1719   46.4189 C   0  0  0  0  0  0  0  0  0  0  0  0
   50.3163   45.5107   45.6666 C   0  0  0  0  0  0  0  0  0  0  0  0
   50.0011   44.9096   44.4981 C   0  0  0  0  0  0  0  0  0  0  0  0
   48.6723   44.9047   44.0958 C   0  0  0  0  0  0  0  0  0  0  0  0
   47.7472   45.6077   44.8211 C   0  0  0  0  0  0  0  0  0  0  0  0
   46.3435   45.7948   44.4606 C   0  0  0  0  0  0  0  0  0  0  0  0
   44.2644   44.8733   43.9712 C   0  0  0  0  0  0  0  0  0  0  0  0
   44.0033   44.7395   42.6218 C   0  0  0  0  0  0  0  0  0  0  0  0
   42.7046   44.9624   42.1604 C   0  0  0  0  0  0  0  0  0  0  0  0
   41.6619   45.2118   43.0141 C   0  0  0  0  0  0  0  0  0  0  0  0
   41.9627   45.3326   44.3880 C   0  0  0  0  0  0  0  0  0  0  0  0
   43.2666   45.2245   44.8582 C   0  0  0  0  0  0  0  0  0  0  0  0
   40.2197   45.3086   42.5211 C   0  0  0  0  0  0  0  0  0  0  0  0
   39.5328   43.9558   42.3961 C   0  0  0  0  0  0  0  0  0  0  0  0
   38.5244   43.5500   43.2325 C   0  0  0  0  0  0  0  0  0  0  0  0
   38.2779   41.4888   42.1385 C   0  0  0  0  0  0  0  0  0  0  0  0
   39.2753   41.8814   41.3154 C   0  0  0  0  0  0  0  0  0  0  0  0
   39.9259   43.0906   41.4138 C   0  0  0  0  0  0  0  0  0  0  0  0
   36.6378   40.1633   41.1672 C   0  0  0  0  0  0  0  0  0  0  0  0
   35.9470   38.8993   41.0239 C   0  0  0  0  0  0  0  0  0  0  0  0
   36.4843   37.7466   40.4368 C   0  0  0  0  0  0  0  0  0  0  0  0
   35.6864   36.6231   40.3633 C   0  0  0  0  0  0  0  0  0  0  0  0
   34.4116   36.6848   40.9034 C   0  0  0  0  0  0  0  0  0  0  0  0
   33.9143   37.8536   41.4381 C   0  0  0  0  0  0  0  0  0  0  0  0
   48.0624   46.2175   45.9937 N   0  0  0  0  0  0  0  0  0  0  0  0
   45.6301   44.7019   44.4474 N   0  0  0  0  0  0  0  0  0  0  0  0
   37.6607   40.1721   41.9475 N   0  0  0  0  0  0  0  0  0  0  0  0
   34.6793   38.9306   41.5343 N   0  0  0  0  0  0  0  0  0  0  0  0
  1 17  2  0  0  0  0
  1 16  1  0  0  0  0
  2  3  2  0  0  0  0
  2 26  1  0  0  0  0
  3  4  1  0  0  0  0
  4  5  2  0  0  0  0
  5  6  1  0  0  0  0
  6  7  1  0  0  0  0
  6 26  2  0  0  0  0
  7 27  2  0  0  0  0
  8  9  2  0  0  0  0
  8 13  1  0  0  0  0
  8 27  1  0  0  0  0
  9 10  1  0  0  0  0
 10 11  2  0  0  0  0
 11 12  1  0  0  0  0
 11 14  1  0  0  0  0
 12 13  2  0  0  0  0
 14 15  1  0  0  0  0
 15 16  2  0  0  0  0
 15 19  1  0  0  0  0
 17 18  1  0  0  0  0
 17 28  1  0  0  0  0
 18 19  2  0  0  0  0
 20 21  1  0  0  0  0
 20 28  2  0  0  0  0
 21 22  2  0  0  0  0
 21 29  1  0  0  0  0
 22 23  1  0  0  0  0
 23 24  2  0  0  0  0
 24 25  1  0  0  0  0
 25 29  2  0  0  0  0
M  END
>  <CHROM.1>
64.99669984,84.16667732,109.96316873,-65.59636436,89.40798796,89.95746082
41.47728775,42.86313522,42.98670189,2.60468000,0.20510630,-2.96532949

>  <Name>
ligand

>  <RI>
0

>  <Rbt.Current_Directory>
/home/itssahil/PROJECTS/Mol_Feturizer/New_Systems/rnas/4JIY

>  <Rbt.Executable>
rbdock ($Id: //depot/dev/client3/rdock/2013.1/src/exe/rbdock.cxx#4 $)

>  <Rbt.Library>
libRbt.so (2013.1, Build901 2013/11/27)

>  <Rbt.Parameter_File>
/export/apps/rDock/src/rDock_2013.1_src/data/scripts/dock_solv.prm

>  <Rbt.Receptor>
prm/pocket_docking_3.prm

>  <SCORE>
9.50802

>  <SCORE.INTER>
10.648

>  <SCORE.INTER.CONST>
1

>  <SCORE.INTER.POLAR>
0

>  <SCORE.INTER.ROT>
6

>  <SCORE.INTER.SOLV>
0.0293396

>  <SCORE.INTER.VDW>
-0.511129

>  <SCORE.INTER.norm>
0.367172

>  <SCORE.INTRA>
-1.13995

>  <SCORE.INTRA.DIHEDRAL>
-0.0540765

>  <SCORE.INTRA.DIHEDRAL.0>
7.2424

>  <SCORE.INTRA.POLAR>
0

>  <SCORE.INTRA.POLAR.0>
0

>  <SCORE.INTRA.REPUL>
0

>  <SCORE.INTRA.REPUL.0>
0

>  <SCORE.INTRA.SOLV>
-0.0192352

>  <SCORE.INTRA.SOLV.lig_0>
-3.36201

>  <SCORE.INTRA.VDW>
-1.1033

>  <SCORE.INTRA.VDW.0>
-0.910526

>  <SCORE.INTRA.norm>
-0.0393087

>  <SCORE.RESTR>
0

>  <SCORE.RESTR.CAVITY>
0

>  <SCORE.RESTR.norm>
0

>  <SCORE.SYSTEM>
0

>  <SCORE.SYSTEM.CONST>
0

>  <SCORE.SYSTEM.DIHEDRAL>
0

>  <SCORE.SYSTEM.SOLV>
0

>  <SCORE.SYSTEM.norm>
0

>  <SCORE.heavy>
29

>  <SCORE.norm>
0.327863

>  <RMSD>
1.914

$$$$
ligand
 OpenBabel11021811493D
libRbt.so/2013.1/901 2013/11/27
 29 32  0  0  0  0  0  0  0  0999 V2000
   38.2152   44.0147   41.9806 C   0  0  0  0  0  0  0  0  0  0  0  0
   49.4289   44.9121   43.9938 C   0  0  0  0  0  0  0  0  0  0  0  0
   50.0563   44.9256   45.2467 C   0  0  0  0  0  0  0  0  0  0  0  0
   49.3358   45.0912   46.3779 C   0  0  0  0  0  0  0  0  0  0  0  0
   47.9704   45.3149   46.2640 C   0  0  0  0  0  0  0  0  0  0  0  0
   47.3766   45.2387   45.0320 C   0  0  0  0  0  0  0  0  0  0  0  0
   45.9422   45.3313   44.7691 C   0  0  0  0  0  0  0  0  0  0  0  0
   44.0171   46.6277   44.6126 C   0  0  0  0  0  0  0  0  0  0  0  0
   43.4680   46.6609   43.3460 C   0  0  0  0  0  0  0  0  0  0  0  0
   42.0851   46.7990   43.2134 C   0  0  0  0  0  0  0  0  0  0  0  0
   41.2470   46.8029   44.2977 C   0  0  0  0  0  0  0  0  0  0  0  0
   41.8412   46.7579   45.5774 C   0  0  0  0  0  0  0  0  0  0  0  0
   43.2221   46.7319   45.7363 C   0  0  0  0  0  0  0  0  0  0  0  0
   39.7275   46.8053   44.1442 C   0  0  0  0  0  0  0  0  0  0  0  0
   39.1642   45.4633   43.6975 C   0  0  0  0  0  0  0  0  0  0  0  0
   38.7322   45.2232   42.4182 C   0  0  0  0  0  0  0  0  0  0  0  0
   38.1569   42.9992   42.8971 C   0  0  0  0  0  0  0  0  0  0  0  0
   38.5757   43.2325   44.1607 C   0  0  0  0  0  0  0  0  0  0  0  0
   39.0741   44.4390   44.5979 C   0  0  0  0  0  0  0  0  0  0  0  0
   38.5110   40.8540   42.0830 C   0  0  0  0  0  0  0  0  0  0  0  0
   38.0184   39.5674   41.6384 C   0  0  0  0  0  0  0  0  0  0  0  0
   37.5109   38.5638   42.4735 C   0  0  0  0  0  0  0  0  0  0  0  0
   37.0949   37.3837   41.8915 C   0  0  0  0  0  0  0  0  0  0  0  0
   37.1695   37.2679   40.5124 C   0  0  0  0  0  0  0  0  0  0  0  0
   37.7109   38.2698   39.7362 C   0  0  0  0  0  0  0  0  0  0  0  0
   48.0979   45.0671   43.8934 N   0  0  0  0  0  0  0  0  0  0  0  0
   45.4644   46.5457   44.7539 N   0  0  0  0  0  0  0  0  0  0  0  0
   37.6341   41.6754   42.5430 N   0  0  0  0  0  0  0  0  0  0  0  0
   38.0918   39.4149   40.2820 N   0  0  0  0  0  0  0  0  0  0  0  0
  1 17  2  0  0  0  0
  1 16  1  0  0  0  0
  2  3  2  0  0  0  0
  2 26  1  0  0  0  0
  3  4  1  0  0  0  0
  4  5  2  0  0  0  0
  5  6  1  0  0  0  0
  6  7  1  0  0  0  0
  6 26  2  0  0  0  0
  7 27  2  0  0  0  0
  8  9  2  0  0  0  0
  8 13  1  0  0  0  0
  8 27  1  0  0  0  0
  9 10  1  0  0  0  0
 10 11  2  0  0  0  0
 11 12  1  0  0  0  0
 11 14  1  0  0  0  0
 12 13  2  0  0  0  0
 14 15  1  0  0  0  0
 15 16  2  0  0  0  0
 15 19  1  0  0  0  0
 17 18  1  0  0  0  0
 17 28  1  0  0  0  0
 18 19  2  0  0  0  0
 20 21  1  0  0  0  0
 20 28  2  0  0  0  0
 21 22  2  0  0  0  0
 21 29  1  0  0  0  0
 22 23  1  0  0  0  0
 23 24  2  0  0  0  0
 24 25  1  0  0  0  0
 25 29  2  0  0  0  0
M  END
>  <CHROM.1>
79.99208508,73.76050575,-104.36625131,-69.20792501,-88.27301979,88.94227081
41.82703757,43.72505393,43.51154430,2.54428453,0.14482110,-2.81791648

>  <Name>
ligand

>  <RI>
0

>  <Rbt.Current_Directory>
/home/itssahil/PROJECTS/Mol_Feturizer/New_Systems/rnas/4JIY

>  <Rbt.Executable>
rbdock ($Id: //depot/dev/client3/rdock/2013.1/src/exe/rbdock.cxx#4 $)

>  <Rbt.Library>
libRbt.so (2013.1, Build901 2013/11/27)

>  <Rbt.Parameter_File>
/export/apps/rDock/src/rDock_2013.1_src/data/scripts/dock_solv.prm

>  <Rbt.Receptor>
prm/pocket_docking_3.prm

>  <SCORE>
9.33938

>  <SCORE.INTER>
10.5983

>  <SCORE.INTER.CONST>
1

>  <SCORE.INTER.POLAR>
0

>  <SCORE.INTER.ROT>
6

>  <SCORE.INTER.SOLV>
0.0293208

>  <SCORE.INTER.VDW>
-0.544209

>  <SCORE.INTER.norm>
0.36546

>  <SCORE.INTRA>
-1.25897

>  <SCORE.INTRA.DIHEDRAL>
0.00411218

>  <SCORE.INTRA.DIHEDRAL.0>
7.2424

>  <SCORE.INTRA.POLAR>
0

>  <SCORE.INTRA.POLAR.0>
0

>  <SCORE.INTRA.REPUL>
0

>  <SCORE.INTRA.REPUL.0>
0

>  <SCORE.INTRA.SOLV>
-0.0196046

>  <SCORE.INTRA.SOLV.lig_0>
-3.36201

>  <SCORE.INTRA.VDW>
-1.25123

>  <SCORE.INTRA.VDW.0>
-0.910526

>  <SCORE.INTRA.norm>
-0.0434128

>  <SCORE.RESTR>
0

>  <SCORE.RESTR.CAVITY>
0

>  <SCORE.RESTR.norm>
0

>  <SCORE.SYSTEM>
0

>  <SCORE.SYSTEM.CONST>
0

>  <SCORE.SYSTEM.DIHEDRAL>
0

>  <SCORE.SYSTEM.SOLV>
0

>  <SCORE.SYSTEM.norm>
0

>  <SCORE.heavy>
29

>  <SCORE.norm>
0.322047

>  <RMSD>
1.925

$$$$
ligand
 OpenBabel11021811493D
libRbt.so/2013.1/901 2013/11/27
 29 32  0  0  0  0  0  0  0  0999 V2000
   38.0762   42.1107   43.8573 C   0  0  0  0  0  0  0  0  0  0  0  0
   49.4833   45.9572   46.5636 C   0  0  0  0  0  0  0  0  0  0  0  0
   50.4052   45.4148   45.6582 C   0  0  0  0  0  0  0  0  0  0  0  0
   49.9980   44.9355   44.4621 C   0  0  0  0  0  0  0  0  0  0  0  0
   48.6385   44.9314   44.1809 C   0  0  0  0  0  0  0  0  0  0  0  0
   47.7679   45.5201   45.0594 C   0  0  0  0  0  0  0  0  0  0  0  0
   46.3332   45.6996   44.8476 C   0  0  0  0  0  0  0  0  0  0  0  0
   44.2688   44.7975   44.2684 C   0  0  0  0  0  0  0  0  0  0  0  0
   43.8948   44.8640   42.9408 C   0  0  0  0  0  0  0  0  0  0  0  0
   42.5568   45.1111   42.6282 C   0  0  0  0  0  0  0  0  0  0  0  0
   41.5868   45.1908   43.5932 C   0  0  0  0  0  0  0  0  0  0  0  0
   42.0028   45.1090   44.9396 C   0  0  0  0  0  0  0  0  0  0  0  0
   43.3445   44.9741   45.2784 C   0  0  0  0  0  0  0  0  0  0  0  0
   40.1058   45.3134   43.2416 C   0  0  0  0  0  0  0  0  0  0  0  0
   39.4222   43.9693   43.0322 C   0  0  0  0  0  0  0  0  0  0  0  0
   38.7093   43.3327   44.0158 C   0  0  0  0  0  0  0  0  0  0  0  0
   38.1647   41.5242   42.6233 C   0  0  0  0  0  0  0  0  0  0  0  0
   38.8711   42.1445   41.6524 C   0  0  0  0  0  0  0  0  0  0  0  0
   39.5132   43.3512   41.8166 C   0  0  0  0  0  0  0  0  0  0  0  0
   38.2571   39.2045   42.5938 C   0  0  0  0  0  0  0  0  0  0  0  0
   37.6979   37.9161   42.2438 C   0  0  0  0  0  0  0  0  0  0  0  0
   36.6238   37.2970   42.8959 C   0  0  0  0  0  0  0  0  0  0  0  0
   36.2200   36.0560   42.4473 C   0  0  0  0  0  0  0  0  0  0  0  0
   36.8746   35.5052   41.3569 C   0  0  0  0  0  0  0  0  0  0  0  0
   37.9505   36.1368   40.7715 C   0  0  0  0  0  0  0  0  0  0  0  0
   48.1753   46.0076   46.2604 N   0  0  0  0  0  0  0  0  0  0  0  0
   45.6738   44.6012   44.5981 N   0  0  0  0  0  0  0  0  0  0  0  0
   37.5279   40.2337   42.3399 N   0  0  0  0  0  0  0  0  0  0  0  0
   38.3316   37.3380   41.1795 N   0  0  0  0  0  0  0  0  0  0  0  0
  1 17  2  0  0  0  0
  1 16  1  0  0  0  0
  2  3  2  0  0  0  0
  2 26  1  0  0  0  0
  3  4  1  0  0  0  0
  4  5  2  0  0  0  0
  5  6  1  0  0  0  0
  6  7  1  0  0  0  0
  6 26  2  0  0  0  0
  7 27  2  0  0  0  0
  8  9  2  0  0  0  0
  8 13  1  0  0  0  0
  8 27  1  0  0  0  0
  9 10  1  0  0  0  0
 10 11  2  0  0  0  0
 11 12  1  0  0  0  0
 11 14  1  0  0  0  0
 12 13  2  0  0  0  0
 14 15  1  0  0  0  0
 15 16  2  0  0  0  0
 15 19  1  0  0  0  0
 17 18  1  0  0  0  0
 17 28  1  0  0  0  0
 18 19  2  0  0  0  0
 20 21  1  0  0  0  0
 20 28  2  0  0  0  0
 21 22  2  0  0  0  0
 21 29  1  0  0  0  0
 22 23  1  0  0  0  0
 23 24  2  0  0  0  0
 24 25  1  0  0  0  0
 25 29  2  0  0  0  0
M  END
>  <CHROM.1>
56.31291527,87.05427501,96.41199102,-70.33381121,95.59943893,-88.66122799
41.94970150,42.57362916,43.49678303,2.51118104,0.17995071,-2.98277078

>  <Name>
ligand

>  <RI>
0

>  <Rbt.Current_Directory>
/home/itssahil/PROJECTS/Mol_Feturizer/New_Systems/rnas/4JIY

>  <Rbt.Executable>
rbdock ($Id: //depot/dev/client3/rdock/2013.1/src/exe/rbdock.cxx#4 $)

>  <Rbt.Library>
libRbt.so (2013.1, Build901 2013/11/27)

>  <Rbt.Parameter_File>
/export/apps/rDock/src/rDock_2013.1_src/data/scripts/dock_solv.prm

>  <Rbt.Receptor>
prm/pocket_docking_3.prm

>  <SCORE>
9.50876

>  <SCORE.INTER>
10.6664

>  <SCORE.INTER.CONST>
1

>  <SCORE.INTER.POLAR>
0

>  <SCORE.INTER.ROT>
6

>  <SCORE.INTER.SOLV>
0.0270061

>  <SCORE.INTER.VDW>
-0.498058

>  <SCORE.INTER.norm>
0.367807

>  <SCORE.INTRA>
-1.15765

>  <SCORE.INTRA.DIHEDRAL>
-0.00781421

>  <SCORE.INTRA.DIHEDRAL.0>
7.2424

>  <SCORE.INTRA.POLAR>
0

>  <SCORE.INTRA.POLAR.0>
0

>  <SCORE.INTRA.REPUL>
0

>  <SCORE.INTRA.REPUL.0>
0

>  <SCORE.INTRA.SOLV>
-0.0190203

>  <SCORE.INTRA.SOLV.lig_0>
-3.36201

>  <SCORE.INTRA.VDW>
-1.14424

>  <SCORE.INTRA.VDW.0>
-0.910526

>  <SCORE.INTRA.norm>
-0.0399191

>  <SCORE.RESTR>
0

>  <SCORE.RESTR.CAVITY>
0

>  <SCORE.RESTR.norm>
0

>  <SCORE.SYSTEM>
0

>  <SCORE.SYSTEM.CONST>
0

>  <SCORE.SYSTEM.DIHEDRAL>
0

>  <SCORE.SYSTEM.SOLV>
0

>  <SCORE.SYSTEM.norm>
0

>  <SCORE.heavy>
29

>  <SCORE.norm>
0.327888

>  <RMSD>
1.937

$$$$
ligand
 OpenBabel11021811493D
libRbt.so/2013.1/901 2013/11/27
 29 32  0  0  0  0  0  0  0  0999 V2000
   39.6618   42.5145   39.5498 C   0  0  0  0  0  0  0  0  0  0  0  0
   49.6827   47.1192   45.6771 C   0  0  0  0  0  0  0  0  0  0  0  0
   50.5645   46.0303   45.7008 C   0  0  0  0  0  0  0  0  0  0  0  0
   50.3385   44.9420   44.9323 C   0  0  0  0  0  0  0  0  0  0  0  0
   49.1780   44.9007   44.1715 C   0  0  0  0  0  0  0  0  0  0  0  0
   48.3652   46.0022   44.1237 C   0  0  0  0  0  0  0  0  0  0  0  0
   47.1812   46.1529   43.2807 C   0  0  0  0  0  0  0  0  0  0  0  0
   45.0105   45.5087   42.7475 C   0  0  0  0  0  0  0  0  0  0  0  0
   44.0615   46.4963   42.9237 C   0  0  0  0  0  0  0  0  0  0  0  0
   42.9430   46.5140   42.0885 C   0  0  0  0  0  0  0  0  0  0  0  0
   42.8055   45.6448   41.0378 C   0  0  0  0  0  0  0  0  0  0  0  0
   43.7988   44.6541   40.8810 C   0  0  0  0  0  0  0  0  0  0  0  0
   44.8647   44.5476   41.7674 C   0  0  0  0  0  0  0  0  0  0  0  0
   41.6565   45.7607   40.0385 C   0  0  0  0  0  0  0  0  0  0  0  0
   40.6087   44.6673   40.1945 C   0  0  0  0  0  0  0  0  0  0  0  0
   40.6000   43.5270   39.4325 C   0  0  0  0  0  0  0  0  0  0  0  0
   38.6975   42.6734   40.5088 C   0  0  0  0  0  0  0  0  0  0  0  0
   38.6981   43.7980   41.2581 C   0  0  0  0  0  0  0  0  0  0  0  0
   39.6218   44.8106   41.1292 C   0  0  0  0  0  0  0  0  0  0  0  0
   37.9728   40.7337   41.5589 C   0  0  0  0  0  0  0  0  0  0  0  0
   37.0081   39.6685   41.7323 C   0  0  0  0  0  0  0  0  0  0  0  0
   35.7573   39.8032   42.3485 C   0  0  0  0  0  0  0  0  0  0  0  0
   34.9588   38.6822   42.4486 C   0  0  0  0  0  0  0  0  0  0  0  0
   35.4212   37.4940   41.9053 C   0  0  0  0  0  0  0  0  0  0  0  0
   36.6754   37.4028   41.3412 C   0  0  0  0  0  0  0  0  0  0  0  0
   48.5928   47.0999   44.8914 N   0  0  0  0  0  0  0  0  0  0  0  0
   46.1473   45.4504   43.6562 N   0  0  0  0  0  0  0  0  0  0  0  0
   37.6576   41.6621   40.7258 N   0  0  0  0  0  0  0  0  0  0  0  0
   37.4402   38.4773   41.2196 N   0  0  0  0  0  0  0  0  0  0  0  0
  1 17  2  0  0  0  0
  1 16  1  0  0  0  0
  2  3  2  0  0  0  0
  2 26  1  0  0  0  0
  3  4  1  0  0  0  0
  4  5  2  0  0  0  0
  5  6  1  0  0  0  0
  6  7  1  0  0  0  0
  6 26  2  0  0  0  0
  7 27  2  0  0  0  0
  8  9  2  0  0  0  0
  8 13  1  0  0  0  0
  8 27  1  0  0  0  0
  9 10  1  0  0  0  0
 10 11  2  0  0  0  0
 11 12  1  0  0  0  0
 11 14  1  0  0  0  0
 12 13  2  0  0  0  0
 14 15  1  0  0  0  0
 15 16  2  0  0  0  0
 15 19  1  0  0  0  0
 17 18  1  0  0  0  0
 17 28  1  0  0  0  0
 18 19  2  0  0  0  0
 20 21  1  0  0  0  0
 20 28  2  0  0  0  0
 21 22  2  0  0  0  0
 21 29  1  0  0  0  0
 22 23  1  0  0  0  0
 23 24  2  0  0  0  0
 24 25  1  0  0  0  0
 25 29  2  0  0  0  0
M  END
>  <CHROM.1>
72.76489996,-107.65933766,-96.66836625,-69.15246798,-89.53514292,88.36172715
42.27715030,43.54636514,42.18089068,2.84635290,0.46103606,2.60888279

>  <Name>
ligand

>  <RI>
0

>  <Rbt.Current_Directory>
/home/itssahil/PROJECTS/Mol_Feturizer/New_Systems/rnas/4JIY

>  <Rbt.Executable>
rbdock ($Id: //depot/dev/client3/rdock/2013.1/src/exe/rbdock.cxx#4 $)

>  <Rbt.Library>
libRbt.so (2013.1, Build901 2013/11/27)

>  <Rbt.Parameter_File>
/export/apps/rDock/src/rDock_2013.1_src/data/scripts/dock_solv.prm

>  <Rbt.Receptor>
prm/pocket_docking_3.prm

>  <SCORE>
9.47648

>  <SCORE.INTER>
10.6034

>  <SCORE.INTER.CONST>
1

>  <SCORE.INTER.POLAR>
0

>  <SCORE.INTER.ROT>
6

>  <SCORE.INTER.SOLV>
0.0311554

>  <SCORE.INTER.VDW>
-0.541444

>  <SCORE.INTER.norm>
0.365635

>  <SCORE.INTRA>
-1.12762

>  <SCORE.INTRA.DIHEDRAL>
0.111229

>  <SCORE.INTRA.DIHEDRAL.0>
7.2424

>  <SCORE.INTRA.POLAR>
0

>  <SCORE.INTRA.POLAR.0>
0

>  <SCORE.INTRA.REPUL>
0

>  <SCORE.INTRA.REPUL.0>
0

>  <SCORE.INTRA.SOLV>
-0.0199121

>  <SCORE.INTRA.SOLV.lig_0>
-3.36201

>  <SCORE.INTRA.VDW>
-1.17328

>  <SCORE.INTRA.VDW.0>
-0.910526

>  <SCORE.INTRA.norm>
-0.0388834

>  <SCORE.RESTR>
0.000682903

>  <SCORE.RESTR.CAVITY>
0.000682903

>  <SCORE.RESTR.norm>
2.35484e-05

>  <SCORE.SYSTEM>
0

>  <SCORE.SYSTEM.CONST>
0

>  <SCORE.SYSTEM.DIHEDRAL>
0

>  <SCORE.SYSTEM.SOLV>
0

>  <SCORE.SYSTEM.norm>
0

>  <SCORE.heavy>
29

>  <SCORE.norm>
0.326775

>  <RMSD>
1.949

$$$$
ligand
 OpenBabel11021811493D
libRbt.so/2013.1/901 2013/11/27
 29 32  0  0  0  0  0  0  0  0999 V2000
   43.2809   45.8897   44.1963 C   0  0  0  0  0  0  0  0  0  0  0  0
   34.8935   36.9436   40.1725 C   0  0  0  0  0  0  0  0  0  0  0  0
   34.4478   36.3612   41.3665 C   0  0  0  0  0  0  0  0  0  0  0  0
   34.7586   36.9112   42.5611 C   0  0  0  0  0  0  0  0  0  0  0  0
   35.5851   38.0265   42.5792 C   0  0  0  0  0  0  0  0  0  0  0  0
   35.9575   38.6072   41.3959 C   0  0  0  0  0  0  0  0  0  0  0  0
   36.7203   39.8458   41.2562 C   0  0  0  0  0  0  0  0  0  0  0  0
   38.6729   41.0473   41.6494 C   0  0  0  0  0  0  0  0  0  0  0  0
   39.3648   41.3999   40.5075 C   0  0  0  0  0  0  0  0  0  0  0  0
   40.1015   42.5858   40.5040 C   0  0  0  0  0  0  0  0  0  0  0  0
   40.0801   43.4588   41.5602 C   0  0  0  0  0  0  0  0  0  0  0  0
   39.3550   43.0714   42.7077 C   0  0  0  0  0  0  0  0  0  0  0  0
   38.7045   41.8446   42.7759 C   0  0  0  0  0  0  0  0  0  0  0  0
   40.7665   44.8215   41.4959 C   0  0  0  0  0  0  0  0  0  0  0  0
   42.0207   44.9064   42.3546 C   0  0  0  0  0  0  0  0  0  0  0  0
   42.1541   45.7878   43.3968 C   0  0  0  0  0  0  0  0  0  0  0  0
   44.3124   45.0318   43.9230 C   0  0  0  0  0  0  0  0  0  0  0  0
   44.1883   44.1655   42.8931 C   0  0  0  0  0  0  0  0  0  0  0  0
   43.0741   44.0767   42.0895 C   0  0  0  0  0  0  0  0  0  0  0  0
   46.5333   45.6669   44.1564 C   0  0  0  0  0  0  0  0  0  0  0  0
   47.7980   45.6268   44.8595 C   0  0  0  0  0  0  0  0  0  0  0  0
   48.0311   46.1581   46.1345 C   0  0  0  0  0  0  0  0  0  0  0  0
   49.3026   46.0511   46.6599 C   0  0  0  0  0  0  0  0  0  0  0  0
   50.2697   45.3953   45.9146 C   0  0  0  0  0  0  0  0  0  0  0  0
   50.0013   44.9213   44.6486 C   0  0  0  0  0  0  0  0  0  0  0  0
   35.6421   38.0593   40.1932 N   0  0  0  0  0  0  0  0  0  0  0  0
   37.9537   39.7811   41.6777 N   0  0  0  0  0  0  0  0  0  0  0  0
   45.5508   45.0463   44.7086 N   0  0  0  0  0  0  0  0  0  0  0  0
   48.7790   44.9986   44.1444 N   0  0  0  0  0  0  0  0  0  0  0  0
  1 17  2  0  0  0  0
  1 16  1  0  0  0  0
  2  3  2  0  0  0  0
  2 26  1  0  0  0  0
  3  4  1  0  0  0  0
  4  5  2  0  0  0  0
  5  6  1  0  0  0  0
  6  7  1  0  0  0  0
  6 26  2  0  0  0  0
  7 27  2  0  0  0  0
  8  9  2  0  0  0  0
  8 13  1  0  0  0  0
  8 27  1  0  0  0  0
  9 10  1  0  0  0  0
 10 11  2  0  0  0  0
 11 12  1  0  0  0  0
 11 14  1  0  0  0  0
 12 13  2  0  0  0  0
 14 15  1  0  0  0  0
 15 16  2  0  0  0  0
 15 19  1  0  0  0  0
 17 18  1  0  0  0  0
 17 28  1  0  0  0  0
 18 19  2  0  0  0  0
 20 21  1  0  0  0  0
 20 28  2  0  0  0  0
 21 22  2  0  0  0  0
 21 29  1  0  0  0  0
 22 23  1  0  0  0  0
 23 24  2  0  0  0  0
 24 25  1  0  0  0  0
 25 29  2  0  0  0  0
M  END
>  <CHROM.1>
66.94117265,-108.53708931,-118.66434119,-62.50415683,-89.36865164,-100.36745354
41.66727620,42.63562436,42.83229274,0.42084764,-0.43197916,-0.27813311

>  <Name>
ligand

>  <RI>
0

>  <Rbt.Current_Directory>
/home/itssahil/PROJECTS/Mol_Feturizer/New_Systems/rnas/4JIY

>  <Rbt.Executable>
rbdock ($Id: //depot/dev/client3/rdock/2013.1/src/exe/rbdock.cxx#4 $)

>  <Rbt.Library>
libRbt.so (2013.1, Build901 2013/11/27)

>  <Rbt.Parameter_File>
/export/apps/rDock/src/rDock_2013.1_src/data/scripts/dock_solv.prm

>  <Rbt.Receptor>
prm/pocket_docking_3.prm

>  <SCORE>
9.76361

>  <SCORE.INTER>
10.8118

>  <SCORE.INTER.CONST>
1

>  <SCORE.INTER.POLAR>
0

>  <SCORE.INTER.ROT>
6

>  <SCORE.INTER.SOLV>
0.0275496

>  <SCORE.INTER.VDW>
-0.401288

>  <SCORE.INTER.norm>
0.372822

>  <SCORE.INTRA>
-1.04824

>  <SCORE.INTRA.DIHEDRAL>
0.0696846

>  <SCORE.INTRA.DIHEDRAL.0>
7.2424

>  <SCORE.INTRA.POLAR>
0

>  <SCORE.INTRA.POLAR.0>
0

>  <SCORE.INTRA.REPUL>
0

>  <SCORE.INTRA.REPUL.0>
0

>  <SCORE.INTRA.SOLV>
-0.0198876

>  <SCORE.INTRA.SOLV.lig_0>
-3.36201

>  <SCORE.INTRA.VDW>
-1.07313

>  <SCORE.INTRA.VDW.0>
-0.910526

>  <SCORE.INTRA.norm>
-0.036146

>  <SCORE.RESTR>
0

>  <SCORE.RESTR.CAVITY>
0

>  <SCORE.RESTR.norm>
0

>  <SCORE.SYSTEM>
0

>  <SCORE.SYSTEM.CONST>
0

>  <SCORE.SYSTEM.DIHEDRAL>
0

>  <SCORE.SYSTEM.SOLV>
0

>  <SCORE.SYSTEM.norm>
0

>  <SCORE.heavy>
29

>  <SCORE.norm>
0.336676

>  <RMSD>
1.954

$$$$
ligand
 OpenBabel11021811493D
libRbt.so/2013.1/901 2013/11/27
 29 32  0  0  0  0  0  0  0  0999 V2000
   38.7082   42.4593   42.8491 C   0  0  0  0  0  0  0  0  0  0  0  0
   50.0908   44.9641   44.6282 C   0  0  0  0  0  0  0  0  0  0  0  0
   50.3845   45.8550   45.6691 C   0  0  0  0  0  0  0  0  0  0  0  0
   49.5145   46.8320   46.0078 C   0  0  0  0  0  0  0  0  0  0  0  0
   48.3557   46.9735   45.2564 C   0  0  0  0  0  0  0  0  0  0  0  0
   48.0682   46.0534   44.2833 C   0  0  0  0  0  0  0  0  0  0  0  0
   46.8384   46.0004   43.4958 C   0  0  0  0  0  0  0  0  0  0  0  0
   44.5723   45.4936   43.3576 C   0  0  0  0  0  0  0  0  0  0  0  0
   44.4090   44.3262   42.6383 C   0  0  0  0  0  0  0  0  0  0  0  0
   43.2880   44.1907   41.8172 C   0  0  0  0  0  0  0  0  0  0  0  0
   42.2961   45.1356   41.7783 C   0  0  0  0  0  0  0  0  0  0  0  0
   42.4909   46.3124   42.5332 C   0  0  0  0  0  0  0  0  0  0  0  0
   43.6509   46.5179   43.2716 C   0  0  0  0  0  0  0  0  0  0  0  0
   41.0037   44.9182   40.9943 C   0  0  0  0  0  0  0  0  0  0  0  0
   40.2612   43.6509   41.3946 C   0  0  0  0  0  0  0  0  0  0  0  0
   39.3984   43.5955   42.4593 C   0  0  0  0  0  0  0  0  0  0  0  0
   38.8998   41.3313   42.0971 C   0  0  0  0  0  0  0  0  0  0  0  0
   39.7536   41.3791   41.0506 C   0  0  0  0  0  0  0  0  0  0  0  0
   40.4510   42.5049   40.6745 C   0  0  0  0  0  0  0  0  0  0  0  0
   37.1231   39.8744   41.7641 C   0  0  0  0  0  0  0  0  0  0  0  0
   36.3726   38.6868   42.1132 C   0  0  0  0  0  0  0  0  0  0  0  0
   36.8357   37.3711   41.9844 C   0  0  0  0  0  0  0  0  0  0  0  0
   35.9871   36.3456   42.3483 C   0  0  0  0  0  0  0  0  0  0  0  0
   34.7381   36.6723   42.8523 C   0  0  0  0  0  0  0  0  0  0  0  0
   34.3136   37.9814   42.9256 C   0  0  0  0  0  0  0  0  0  0  0  0
   48.9388   45.0669   43.9442 N   0  0  0  0  0  0  0  0  0  0  0  0
   45.7712   45.6634   44.1671 N   0  0  0  0  0  0  0  0  0  0  0  0
   38.2158   40.0731   42.4136 N   0  0  0  0  0  0  0  0  0  0  0  0
   35.1282   38.9740   42.6006 N   0  0  0  0  0  0  0  0  0  0  0  0
  1 17  2  0  0  0  0
  1 16  1  0  0  0  0
  2  3  2  0  0  0  0
  2 26  1  0  0  0  0
  3  4  1  0  0  0  0
  4  5  2  0  0  0  0
  5  6  1  0  0  0  0
  6  7  1  0  0  0  0
  6 26  2  0  0  0  0
  7 27  2  0  0  0  0
  8  9  2  0  0  0  0
  8 13  1  0  0  0  0
  8 27  1  0  0  0  0
  9 10  1  0  0  0  0
 10 11  2  0  0  0  0
 11 12  1  0  0  0  0
 11 14  1  0  0  0  0
 12 13  2  0  0  0  0
 14 15  1  0  0  0  0
 15 16  2  0  0  0  0
 15 19  1  0  0  0  0
 17 18  1  0  0  0  0
 17 28  1  0  0  0  0
 18 19  2  0  0  0  0
 20 21  1  0  0  0  0
 20 28  2  0  0  0  0
 21 22  2  0  0  0  0
 21 29  1  0  0  0  0
 22 23  1  0  0  0  0
 23 24  2  0  0  0  0
 24 25  1  0  0  0  0
 25 29  2  0  0  0  0
M  END
>  <CHROM.1>
-68.85304059,55.79450119,84.32011719,-61.73843658,78.71788626,94.91022731
41.92326488,42.93817738,42.87194640,2.69769888,0.38174357,2.76526300

>  <Name>
ligand

>  <RI>
0

>  <Rbt.Current_Directory>
/home/itssahil/PROJECTS/Mol_Feturizer/New_Systems/rnas/4JIY

>  <Rbt.Executable>
rbdock ($Id: //depot/dev/client3/rdock/2013.1/src/exe/rbdock.cxx#4 $)

>  <Rbt.Library>
libRbt.so (2013.1, Build901 2013/11/27)

>  <Rbt.Parameter_File>
/export/apps/rDock/src/rDock_2013.1_src/data/scripts/dock_solv.prm

>  <Rbt.Receptor>
prm/pocket_docking_3.prm

>  <SCORE>
9.75092

>  <SCORE.INTER>
10.8004

>  <SCORE.INTER.CONST>
1

>  <SCORE.INTER.POLAR>
0

>  <SCORE.INTER.ROT>
6

>  <SCORE.INTER.SOLV>
0.0258591

>  <SCORE.INTER.VDW>
-0.408366

>  <SCORE.INTER.norm>
0.372427

>  <SCORE.INTRA>
-1.05006

>  <SCORE.INTRA.DIHEDRAL>
0.0883894

>  <SCORE.INTRA.DIHEDRAL.0>
7.2424

>  <SCORE.INTRA.POLAR>
0

>  <SCORE.INTRA.POLAR.0>
0

>  <SCORE.INTRA.REPUL>
0

>  <SCORE.INTRA.REPUL.0>
0

>  <SCORE.INTRA.SOLV>
-0.0192925

>  <SCORE.INTRA.SOLV.lig_0>
-3.36201

>  <SCORE.INTRA.VDW>
-1.08461

>  <SCORE.INTRA.VDW.0>
-0.910526

>  <SCORE.INTRA.norm>
-0.036209

>  <SCORE.RESTR>
0.000597702

>  <SCORE.RESTR.CAVITY>
0.000597702

>  <SCORE.RESTR.norm>
2.06104e-05

>  <SCORE.SYSTEM>
0

>  <SCORE.SYSTEM.CONST>
0

>  <SCORE.SYSTEM.DIHEDRAL>
0

>  <SCORE.SYSTEM.SOLV>
0

>  <SCORE.SYSTEM.norm>
0

>  <SCORE.heavy>
29

>  <SCORE.norm>
0.336238

>  <RMSD>
1.964

$$$$
ligand
 OpenBabel11021811493D
libRbt.so/2013.1/901 2013/11/27
 29 32  0  0  0  0  0  0  0  0999 V2000
   44.0935   44.8583   42.2284 C   0  0  0  0  0  0  0  0  0  0  0  0
   37.7826   35.4962   41.1130 C   0  0  0  0  0  0  0  0  0  0  0  0
   37.5258   35.1341   39.7839 C   0  0  0  0  0  0  0  0  0  0  0  0
   37.6869   36.0261   38.7817 C   0  0  0  0  0  0  0  0  0  0  0  0
   38.0470   37.3267   39.1075 C   0  0  0  0  0  0  0  0  0  0  0  0
   38.3472   37.6363   40.4076 C   0  0  0  0  0  0  0  0  0  0  0  0
   38.8535   38.9218   40.8835 C   0  0  0  0  0  0  0  0  0  0  0  0
   38.5806   41.2214   41.1030 C   0  0  0  0  0  0  0  0  0  0  0  0
   38.4335   41.6739   42.3993 C   0  0  0  0  0  0  0  0  0  0  0  0
   38.9112   42.9435   42.7293 C   0  0  0  0  0  0  0  0  0  0  0  0
   39.6083   43.7136   41.8352 C   0  0  0  0  0  0  0  0  0  0  0  0
   39.7485   43.2164   40.5216 C   0  0  0  0  0  0  0  0  0  0  0  0
   39.1853   42.0040   40.1399 C   0  0  0  0  0  0  0  0  0  0  0  0
   40.2563   45.0357   42.2410 C   0  0  0  0  0  0  0  0  0  0  0  0
   41.7006   44.8844   42.6979 C   0  0  0  0  0  0  0  0  0  0  0  0
   42.7690   44.9905   41.8445 C   0  0  0  0  0  0  0  0  0  0  0  0
   44.3318   44.6244   43.5563 C   0  0  0  0  0  0  0  0  0  0  0  0
   43.2822   44.5129   44.4003 C   0  0  0  0  0  0  0  0  0  0  0  0
   41.9659   44.6285   44.0141 C   0  0  0  0  0  0  0  0  0  0  0  0
   46.3167   45.5799   44.2893 C   0  0  0  0  0  0  0  0  0  0  0  0
   47.6953   45.4724   44.7174 C   0  0  0  0  0  0  0  0  0  0  0  0
   48.7426   44.9513   43.9468 C   0  0  0  0  0  0  0  0  0  0  0  0
   50.0017   44.9042   44.5097 C   0  0  0  0  0  0  0  0  0  0  0  0
   50.1689   45.4050   45.7912 C   0  0  0  0  0  0  0  0  0  0  0  0
   49.0999   45.8741   46.5237 C   0  0  0  0  0  0  0  0  0  0  0  0
   38.1911   36.7398   41.4165 N   0  0  0  0  0  0  0  0  0  0  0  0
   38.0288   39.9232   40.7404 N   0  0  0  0  0  0  0  0  0  0  0  0
   45.6950   44.4739   44.0761 N   0  0  0  0  0  0  0  0  0  0  0  0
   47.8920   45.9449   45.9849 N   0  0  0  0  0  0  0  0  0  0  0  0
  1 17  2  0  0  0  0
  1 16  1  0  0  0  0
  2  3  2  0  0  0  0
  2 26  1  0  0  0  0
  3  4  1  0  0  0  0
  4  5  2  0  0  0  0
  5  6  1  0  0  0  0
  6  7  1  0  0  0  0
  6 26  2  0  0  0  0
  7 27  2  0  0  0  0
  8  9  2  0  0  0  0
  8 13  1  0  0  0  0
  8 27  1  0  0  0  0
  9 10  1  0  0  0  0
 10 11  2  0  0  0  0
 11 12  1  0  0  0  0
 11 14  1  0  0  0  0
 12 13  2  0  0  0  0
 14 15  1  0  0  0  0
 15 16  2  0  0  0  0
 15 19  1  0  0  0  0
 17 18  1  0  0  0  0
 17 28  1  0  0  0  0
 18 19  2  0  0  0  0
 20 21  1  0  0  0  0
 20 28  2  0  0  0  0
 21 22  2  0  0  0  0
 21 29  1  0  0  0  0
 22 23  1  0  0  0  0
 23 24  2  0  0  0  0
 24 25  1  0  0  0  0
 25 29  2  0  0  0  0
M  END
>  <CHROM.1>
64.71353917,91.57227134,91.21866233,65.21465630,-90.95453564,80.96347542
42.16823973,42.35054146,42.48745161,0.67292094,-0.32287450,0.15837680

>  <Name>
ligand

>  <RI>
0

>  <Rbt.Current_Directory>
/home/itssahil/PROJECTS/Mol_Feturizer/New_Systems/rnas/4JIY

>  <Rbt.Executable>
rbdock ($Id: //depot/dev/client3/rdock/2013.1/src/exe/rbdock.cxx#4 $)

>  <Rbt.Library>
libRbt.so (2013.1, Build901 2013/11/27)

>  <Rbt.Parameter_File>
/export/apps/rDock/src/rDock_2013.1_src/data/scripts/dock_solv.prm

>  <Rbt.Receptor>
prm/pocket_docking_3.prm

>  <SCORE>
9.31791

>  <SCORE.INTER>
10.5991

>  <SCORE.INTER.CONST>
1

>  <SCORE.INTER.POLAR>
0

>  <SCORE.INTER.ROT>
6

>  <SCORE.INTER.SOLV>
0.0298021

>  <SCORE.INTER.VDW>
-0.543895

>  <SCORE.INTER.norm>
0.365485

>  <SCORE.INTRA>
-1.28115

>  <SCORE.INTRA.DIHEDRAL>
-0.184819

>  <SCORE.INTRA.DIHEDRAL.0>
7.2424

>  <SCORE.INTRA.POLAR>
0

>  <SCORE.INTRA.POLAR.0>
0

>  <SCORE.INTRA.REPUL>
0

>  <SCORE.INTRA.REPUL.0>
0

>  <SCORE.INTRA.SOLV>
-0.0203533

>  <SCORE.INTRA.SOLV.lig_0>
-3.36201

>  <SCORE.INTRA.VDW>
-1.17856

>  <SCORE.INTRA.VDW.0>
-0.910526

>  <SCORE.INTRA.norm>
-0.0441775

>  <SCORE.RESTR>
0

>  <SCORE.RESTR.CAVITY>
0

>  <SCORE.RESTR.norm>
0

>  <SCORE.SYSTEM>
0

>  <SCORE.SYSTEM.CONST>
0

>  <SCORE.SYSTEM.DIHEDRAL>
0

>  <SCORE.SYSTEM.SOLV>
0

>  <SCORE.SYSTEM.norm>
0

>  <SCORE.heavy>
29

>  <SCORE.norm>
0.321307

>  <RMSD>
1.969

$$$$
ligand
 OpenBabel11021811493D
libRbt.so/2013.1/901 2013/11/27
 29 32  0  0  0  0  0  0  0  0999 V2000
   38.4924   44.1306   40.6701 C   0  0  0  0  0  0  0  0  0  0  0  0
   49.4507   44.9443   44.0806 C   0  0  0  0  0  0  0  0  0  0  0  0
   49.9340   44.9054   45.3953 C   0  0  0  0  0  0  0  0  0  0  0  0
   49.1927   45.3857   46.4179 C   0  0  0  0  0  0  0  0  0  0  0  0
   47.9719   45.9791   46.1264 C   0  0  0  0  0  0  0  0  0  0  0  0
   47.5000   45.9508   44.8408 C   0  0  0  0  0  0  0  0  0  0  0  0
   46.1886   46.4238   44.4028 C   0  0  0  0  0  0  0  0  0  0  0  0
   43.9479   45.9815   43.9615 C   0  0  0  0  0  0  0  0  0  0  0  0
   43.7275   45.8639   42.6033 C   0  0  0  0  0  0  0  0  0  0  0  0
   42.5250   46.3333   42.0716 C   0  0  0  0  0  0  0  0  0  0  0  0
   41.5174   46.8154   42.8657 C   0  0  0  0  0  0  0  0  0  0  0  0
   41.7728   46.9130   44.2506 C   0  0  0  0  0  0  0  0  0  0  0  0
   43.0036   46.5551   44.7891 C   0  0  0  0  0  0  0  0  0  0  0  0
   40.1501   47.1898   42.2976 C   0  0  0  0  0  0  0  0  0  0  0  0
   39.2465   45.9881   42.0586 C   0  0  0  0  0  0  0  0  0  0  0  0
   39.2997   45.2289   40.9177 C   0  0  0  0  0  0  0  0  0  0  0  0
   37.6009   43.7853   41.6503 C   0  0  0  0  0  0  0  0  0  0  0  0
   37.5403   44.5339   42.7738 C   0  0  0  0  0  0  0  0  0  0  0  0
   38.3323   45.6347   43.0111 C   0  0  0  0  0  0  0  0  0  0  0  0
   37.1802   41.5173   41.9138 C   0  0  0  0  0  0  0  0  0  0  0  0
   36.3579   40.3454   41.6997 C   0  0  0  0  0  0  0  0  0  0  0  0
   36.0987   39.7562   40.4556 C   0  0  0  0  0  0  0  0  0  0  0  0
   35.2779   38.6474   40.4207 C   0  0  0  0  0  0  0  0  0  0  0  0
   34.7828   38.1571   41.6188 C   0  0  0  0  0  0  0  0  0  0  0  0
   35.0364   38.7937   42.8145 C   0  0  0  0  0  0  0  0  0  0  0  0
   48.2410   45.4638   43.8114 N   0  0  0  0  0  0  0  0  0  0  0  0
   45.2258   45.5493   44.5104 N   0  0  0  0  0  0  0  0  0  0  0  0
   36.7011   42.6370   41.4989 N   0  0  0  0  0  0  0  0  0  0  0  0
   35.8411   39.8446   42.8619 N   0  0  0  0  0  0  0  0  0  0  0  0
  1 17  2  0  0  0  0
  1 16  1  0  0  0  0
  2  3  2  0  0  0  0
  2 26  1  0  0  0  0
  3  4  1  0  0  0  0
  4  5  2  0  0  0  0
  5  6  1  0  0  0  0
  6  7  1  0  0  0  0
  6 26  2  0  0  0  0
  7 27  2  0  0  0  0
  8  9  2  0  0  0  0
  8 13  1  0  0  0  0
  8 27  1  0  0  0  0
  9 10  1  0  0  0  0
 10 11  2  0  0  0  0
 11 12  1  0  0  0  0
 11 14  1  0  0  0  0
 12 13  2  0  0  0  0
 14 15  1  0  0  0  0
 15 16  2  0  0  0  0
 15 19  1  0  0  0  0
 17 18  1  0  0  0  0
 17 28  1  0  0  0  0
 18 19  2  0  0  0  0
 20 21  1  0  0  0  0
 20 28  2  0  0  0  0
 21 22  2  0  0  0  0
 21 29  1  0  0  0  0
 22 23  1  0  0  0  0
 23 24  2  0  0  0  0
 24 25  1  0  0  0  0
 25 29  2  0  0  0  0
M  END
>  <CHROM.1>
-85.72584639,79.50842847,-84.28085987,70.32723308,82.12391766,89.13880509
41.31477351,44.11229160,42.99374657,2.75540090,0.30191847,3.06531738

>  <Name>
ligand

>  <RI>
0

>  <Rbt.Current_Directory>
/home/itssahil/PROJECTS/Mol_Feturizer/New_Systems/rnas/4JIY

>  <Rbt.Executable>
rbdock ($Id: //depot/dev/client3/rdock/2013.1/src/exe/rbdock.cxx#4 $)

>  <Rbt.Library>
libRbt.so (2013.1, Build901 2013/11/27)

>  <Rbt.Parameter_File>
/export/apps/rDock/src/rDock_2013.1_src/data/scripts/dock_solv.prm

>  <Rbt.Receptor>
prm/pocket_docking_3.prm

>  <SCORE>
9.56816

>  <SCORE.INTER>
10.7294

>  <SCORE.INTER.CONST>
1

>  <SCORE.INTER.POLAR>
0

>  <SCORE.INTER.ROT>
6

>  <SCORE.INTER.SOLV>
0.0234606

>  <SCORE.INTER.VDW>
-0.454857

>  <SCORE.INTER.norm>
0.369981

>  <SCORE.INTRA>
-1.16129

>  <SCORE.INTRA.DIHEDRAL>
0.164382

>  <SCORE.INTRA.DIHEDRAL.0>
7.2424

>  <SCORE.INTRA.POLAR>
0

>  <SCORE.INTRA.POLAR.0>
0

>  <SCORE.INTRA.REPUL>
0

>  <SCORE.INTRA.REPUL.0>
0

>  <SCORE.INTRA.SOLV>
-0.0185672

>  <SCORE.INTRA.SOLV.lig_0>
-3.36201

>  <SCORE.INTRA.VDW>
-1.2342

>  <SCORE.INTRA.VDW.0>
-0.910526

>  <SCORE.INTRA.norm>
-0.0400445

>  <SCORE.RESTR>
0

>  <SCORE.RESTR.CAVITY>
0

>  <SCORE.RESTR.norm>
0

>  <SCORE.SYSTEM>
0

>  <SCORE.SYSTEM.CONST>
0

>  <SCORE.SYSTEM.DIHEDRAL>
0

>  <SCORE.SYSTEM.SOLV>
0

>  <SCORE.SYSTEM.norm>
0

>  <SCORE.heavy>
29

>  <SCORE.norm>
0.329936

>  <RMSD>
1.977

$$$$
ligand
 OpenBabel11021811493D
libRbt.so/2013.1/901 2013/11/27
 29 32  0  0  0  0  0  0  0  0999 V2000
   44.2743   45.5462   45.5199 C   0  0  0  0  0  0  0  0  0  0  0  0
   36.8716   37.0135   40.1025 C   0  0  0  0  0  0  0  0  0  0  0  0
   37.4371   35.8429   40.6254 C   0  0  0  0  0  0  0  0  0  0  0  0
   38.4057   35.9043   41.5657 C   0  0  0  0  0  0  0  0  0  0  0  0
   38.8735   37.1534   41.9507 C   0  0  0  0  0  0  0  0  0  0  0  0
   38.2626   38.2794   41.4658 C   0  0  0  0  0  0  0  0  0  0  0  0
   38.5614   39.6523   41.8675 C   0  0  0  0  0  0  0  0  0  0  0  0
   40.0779   41.4108   42.0052 C   0  0  0  0  0  0  0  0  0  0  0  0
   39.6575   42.5248   41.3058 C   0  0  0  0  0  0  0  0  0  0  0  0
   40.0370   43.7894   41.7594 C   0  0  0  0  0  0  0  0  0  0  0  0
   40.7285   43.9654   42.9296 C   0  0  0  0  0  0  0  0  0  0  0  0
   41.1342   42.8055   43.6243 C   0  0  0  0  0  0  0  0  0  0  0  0
   40.8635   41.5331   43.1337 C   0  0  0  0  0  0  0  0  0  0  0  0
   41.0136   45.3537   43.4984 C   0  0  0  0  0  0  0  0  0  0  0  0
   42.4737   45.5630   43.8754 C   0  0  0  0  0  0  0  0  0  0  0  0
   42.9530   45.3648   45.1450 C   0  0  0  0  0  0  0  0  0  0  0  0
   45.1479   45.9318   44.5386 C   0  0  0  0  0  0  0  0  0  0  0  0
   44.6793   46.1344   43.2873 C   0  0  0  0  0  0  0  0  0  0  0  0
   43.3628   45.9692   42.9202 C   0  0  0  0  0  0  0  0  0  0  0  0
   47.3104   45.1016   44.6952 C   0  0  0  0  0  0  0  0  0  0  0  0
   48.7055   45.2524   45.0508 C   0  0  0  0  0  0  0  0  0  0  0  0
   49.1959   45.3991   46.3547 C   0  0  0  0  0  0  0  0  0  0  0  0
   50.5574   45.5483   46.5233 C   0  0  0  0  0  0  0  0  0  0  0  0
   51.3678   45.5109   45.3996 C   0  0  0  0  0  0  0  0  0  0  0  0
   50.8346   45.4011   44.1335 C   0  0  0  0  0  0  0  0  0  0  0  0
   37.2849   38.2205   40.5242 N   0  0  0  0  0  0  0  0  0  0  0  0
   39.7355   40.0882   41.5004 N   0  0  0  0  0  0  0  0  0  0  0  0
   46.5711   46.1472   44.8200 N   0  0  0  0  0  0  0  0  0  0  0  0
   49.5319   45.2345   43.9621 N   0  0  0  0  0  0  0  0  0  0  0  0
  1 17  2  0  0  0  0
  1 16  1  0  0  0  0
  2  3  2  0  0  0  0
  2 26  1  0  0  0  0
  3  4  1  0  0  0  0
  4  5  2  0  0  0  0
  5  6  1  0  0  0  0
  6  7  1  0  0  0  0
  6 26  2  0  0  0  0
  7 27  2  0  0  0  0
  8  9  2  0  0  0  0
  8 13  1  0  0  0  0
  8 27  1  0  0  0  0
  9 10  1  0  0  0  0
 10 11  2  0  0  0  0
 11 12  1  0  0  0  0
 11 14  1  0  0  0  0
 12 13  2  0  0  0  0
 14 15  1  0  0  0  0
 15 16  2  0  0  0  0
 15 19  1  0  0  0  0
 17 18  1  0  0  0  0
 17 28  1  0  0  0  0
 18 19  2  0  0  0  0
 20 21  1  0  0  0  0
 20 28  2  0  0  0  0
 21 22  2  0  0  0  0
 21 29  1  0  0  0  0
 22 23  1  0  0  0  0
 23 24  2  0  0  0  0
 24 25  1  0  0  0  0
 25 29  2  0  0  0  0
M  END
>  <CHROM.1>
68.28847228,-130.24082644,-94.68174432,71.57008156,-85.34002680,89.09809156
42.95841280,42.81828302,43.23388206,0.64175511,-0.22560627,0.18827199

>  <Name>
ligand

>  <RI>
0

>  <Rbt.Current_Directory>
/home/itssahil/PROJECTS/Mol_Feturizer/New_Systems/rnas/4JIY

>  <Rbt.Executable>
rbdock ($Id: //depot/dev/client3/rdock/2013.1/src/exe/rbdock.cxx#4 $)

>  <Rbt.Library>
libRbt.so (2013.1, Build901 2013/11/27)

>  <Rbt.Parameter_File>
/export/apps/rDock/src/rDock_2013.1_src/data/scripts/dock_solv.prm

>  <Rbt.Receptor>
prm/pocket_docking_3.prm

>  <SCORE>
9.4878

>  <SCORE.INTER>
10.6576

>  <SCORE.INTER.CONST>
1

>  <SCORE.INTER.POLAR>
0

>  <SCORE.INTER.ROT>
6

>  <SCORE.INTER.SOLV>
8.88178e-16

>  <SCORE.INTER.VDW>
-0.494966

>  <SCORE.INTER.norm>
0.367502

>  <SCORE.INTRA>
-1.16975

>  <SCORE.INTRA.DIHEDRAL>
-0.0500843

>  <SCORE.INTRA.DIHEDRAL.0>
7.2424

>  <SCORE.INTRA.POLAR>
0

>  <SCORE.INTRA.POLAR.0>
0

>  <SCORE.INTRA.REPUL>
0

>  <SCORE.INTRA.REPUL.0>
0

>  <SCORE.INTRA.SOLV>
-0.020106

>  <SCORE.INTRA.SOLV.lig_0>
-3.36201

>  <SCORE.INTRA.VDW>
-1.13466

>  <SCORE.INTRA.VDW.0>
-0.910526

>  <SCORE.INTRA.norm>
-0.0403362

>  <SCORE.RESTR>
0

>  <SCORE.RESTR.CAVITY>
0

>  <SCORE.RESTR.norm>
0

>  <SCORE.SYSTEM>
0

>  <SCORE.SYSTEM.CONST>
0

>  <SCORE.SYSTEM.DIHEDRAL>
0

>  <SCORE.SYSTEM.SOLV>
0

>  <SCORE.SYSTEM.norm>
0

>  <SCORE.heavy>
29

>  <SCORE.norm>
0.327166

>  <RMSD>
1.977

$$$$
ligand
 OpenBabel11021811493D
libRbt.so/2013.1/901 2013/11/27
 29 32  0  0  0  0  0  0  0  0999 V2000
   43.2660   44.7295   44.6061 C   0  0  0  0  0  0  0  0  0  0  0  0
   34.5135   36.9509   41.4670 C   0  0  0  0  0  0  0  0  0  0  0  0
   35.0250   35.8085   40.8371 C   0  0  0  0  0  0  0  0  0  0  0  0
   36.1855   35.8617   40.1468 C   0  0  0  0  0  0  0  0  0  0  0  0
   36.8225   37.0888   40.0203 C   0  0  0  0  0  0  0  0  0  0  0  0
   36.3304   38.1749   40.6944 C   0  0  0  0  0  0  0  0  0  0  0  0
   36.9538   39.4952   40.7558 C   0  0  0  0  0  0  0  0  0  0  0  0
   38.6714   40.8620   41.5256 C   0  0  0  0  0  0  0  0  0  0  0  0
   38.3384   41.5942   42.6481 C   0  0  0  0  0  0  0  0  0  0  0  0
   38.8301   42.8945   42.7761 C   0  0  0  0  0  0  0  0  0  0  0  0
   39.7113   43.4313   41.8740 C   0  0  0  0  0  0  0  0  0  0  0  0
   40.0377   42.6518   40.7432 C   0  0  0  0  0  0  0  0  0  0  0  0
   39.4737   41.3977   40.5382 C   0  0  0  0  0  0  0  0  0  0  0  0
   40.3612   44.7957   42.0934 C   0  0  0  0  0  0  0  0  0  0  0  0
   41.7599   44.7090   42.6882 C   0  0  0  0  0  0  0  0  0  0  0  0
   42.0065   44.8044   44.0339 C   0  0  0  0  0  0  0  0  0  0  0  0
   44.3201   44.5284   43.7558 C   0  0  0  0  0  0  0  0  0  0  0  0
   44.0831   44.4398   42.4283 C   0  0  0  0  0  0  0  0  0  0  0  0
   42.8325   44.5307   41.8600 C   0  0  0  0  0  0  0  0  0  0  0  0
   46.3217   45.5475   44.3433 C   0  0  0  0  0  0  0  0  0  0  0  0
   47.7113   45.4799   44.7433 C   0  0  0  0  0  0  0  0  0  0  0  0
   48.7440   44.9136   43.9851 C   0  0  0  0  0  0  0  0  0  0  0  0
   50.0168   44.9149   44.5182 C   0  0  0  0  0  0  0  0  0  0  0  0
   50.2109   45.5054   45.7570 C   0  0  0  0  0  0  0  0  0  0  0  0
   49.1561   46.0171   46.4814 C   0  0  0  0  0  0  0  0  0  0  0  0
   35.1665   38.1229   41.3935 N   0  0  0  0  0  0  0  0  0  0  0  0
   38.1105   39.5282   41.3594 N   0  0  0  0  0  0  0  0  0  0  0  0
   45.6968   44.4267   44.2515 N   0  0  0  0  0  0  0  0  0  0  0  0
   47.9348   46.0414   45.9694 N   0  0  0  0  0  0  0  0  0  0  0  0
  1 17  2  0  0  0  0
  1 16  1  0  0  0  0
  2  3  2  0  0  0  0
  2 26  1  0  0  0  0
  3  4  1  0  0  0  0
  4  5  2  0  0  0  0
  5  6  1  0  0  0  0
  6  7  1  0  0  0  0
  6 26  2  0  0  0  0
  7 27  2  0  0  0  0
  8  9  2  0  0  0  0
  8 13  1  0  0  0  0
  8 27  1  0  0  0  0
  9 10  1  0  0  0  0
 10 11  2  0  0  0  0
 11 12  1  0  0  0  0
 11 14  1  0  0  0  0
 12 13  2  0  0  0  0
 14 15  1  0  0  0  0
 15 16  2  0  0  0  0
 15 19  1  0  0  0  0
 17 18  1  0  0  0  0
 17 28  1  0  0  0  0
 18 19  2  0  0  0  0
 20 21  1  0  0  0  0
 20 28  2  0  0  0  0
 21 22  2  0  0  0  0
 21 29  1  0  0  0  0
 22 23  1  0  0  0  0
 23 24  2  0  0  0  0
 24 25  1  0  0  0  0
 25 29  2  0  0  0  0
M  END
>  <CHROM.1>
-64.58638350,97.49560077,-94.75363016,66.66696872,88.05697704,-88.68638825
41.66916449,42.39409705,42.70763042,0.56357796,-0.29365999,0.06830394

>  <Name>
ligand

>  <RI>
0

>  <Rbt.Current_Directory>
/home/itssahil/PROJECTS/Mol_Feturizer/New_Systems/rnas/4JIY

>  <Rbt.Executable>
rbdock ($Id: //depot/dev/client3/rdock/2013.1/src/exe/rbdock.cxx#4 $)

>  <Rbt.Library>
libRbt.so (2013.1, Build901 2013/11/27)

>  <Rbt.Parameter_File>
/export/apps/rDock/src/rDock_2013.1_src/data/scripts/dock_solv.prm

>  <Rbt.Receptor>
prm/pocket_docking_3.prm

>  <SCORE>
9.39947

>  <SCORE.INTER>
10.5988

>  <SCORE.INTER.CONST>
1

>  <SCORE.INTER.POLAR>
0

>  <SCORE.INTER.ROT>
6

>  <SCORE.INTER.SOLV>
0.0291711

>  <SCORE.INTER.VDW>
-0.543849

>  <SCORE.INTER.norm>
0.365476

>  <SCORE.INTRA>
-1.19934

>  <SCORE.INTRA.DIHEDRAL>
0.00178381

>  <SCORE.INTRA.DIHEDRAL.0>
7.2424

>  <SCORE.INTRA.POLAR>
0

>  <SCORE.INTRA.POLAR.0>
0

>  <SCORE.INTRA.REPUL>
0

>  <SCORE.INTRA.REPUL.0>
0

>  <SCORE.INTRA.SOLV>
-0.0191916

>  <SCORE.INTRA.SOLV.lig_0>
-3.36201

>  <SCORE.INTRA.VDW>
-1.19064

>  <SCORE.INTRA.VDW.0>
-0.910526

>  <SCORE.INTRA.norm>
-0.0413567

>  <SCORE.RESTR>
0

>  <SCORE.RESTR.CAVITY>
0

>  <SCORE.RESTR.norm>
0

>  <SCORE.SYSTEM>
0

>  <SCORE.SYSTEM.CONST>
0

>  <SCORE.SYSTEM.DIHEDRAL>
0

>  <SCORE.SYSTEM.SOLV>
0

>  <SCORE.SYSTEM.norm>
0

>  <SCORE.heavy>
29

>  <SCORE.norm>
0.32412

>  <RMSD>
1.980

$$$$
ligand
 OpenBabel11021811493D
libRbt.so/2013.1/901 2013/11/27
 29 32  0  0  0  0  0  0  0  0999 V2000
   38.1855   43.6009   41.2940 C   0  0  0  0  0  0  0  0  0  0  0  0
   48.9815   46.4666   46.2196 C   0  0  0  0  0  0  0  0  0  0  0  0
   50.0638   45.6520   45.8608 C   0  0  0  0  0  0  0  0  0  0  0  0
   50.0314   44.9220   44.7241 C   0  0  0  0  0  0  0  0  0  0  0  0
   48.8747   44.9462   43.9568 C   0  0  0  0  0  0  0  0  0  0  0  0
   47.8564   45.7952   44.3013 C   0  0  0  0  0  0  0  0  0  0  0  0
   46.6351   46.0194   43.5310 C   0  0  0  0  0  0  0  0  0  0  0  0
   44.6330   45.2023   42.6737 C   0  0  0  0  0  0  0  0  0  0  0  0
   44.7050   44.7788   41.3613 C   0  0  0  0  0  0  0  0  0  0  0  0
   43.6150   45.0043   40.5186 C   0  0  0  0  0  0  0  0  0  0  0  0
   42.4404   45.5421   40.9764 C   0  0  0  0  0  0  0  0  0  0  0  0
   42.3982   45.9552   42.3256 C   0  0  0  0  0  0  0  0  0  0  0  0
   43.5084   45.8422   43.1548 C   0  0  0  0  0  0  0  0  0  0  0  0
   41.2021   45.6514   40.0893 C   0  0  0  0  0  0  0  0  0  0  0  0
   40.2131   44.5117   40.2908 C   0  0  0  0  0  0  0  0  0  0  0  0
   39.1037   44.6181   41.0900 C   0  0  0  0  0  0  0  0  0  0  0  0
   38.4086   42.4245   40.6298 C   0  0  0  0  0  0  0  0  0  0  0  0
   39.5038   42.3126   39.8459 C   0  0  0  0  0  0  0  0  0  0  0  0
   40.4238   43.3191   39.6572 C   0  0  0  0  0  0  0  0  0  0  0  0
   37.7478   40.5095   41.7639 C   0  0  0  0  0  0  0  0  0  0  0  0
   36.9276   39.3224   41.8804 C   0  0  0  0  0  0  0  0  0  0  0  0
   37.0080   38.1995   41.0468 C   0  0  0  0  0  0  0  0  0  0  0  0
   36.1403   37.1526   41.2823 C   0  0  0  0  0  0  0  0  0  0  0  0
   35.2614   37.2535   42.3492 C   0  0  0  0  0  0  0  0  0  0  0  0
   35.1948   38.3948   43.1188 C   0  0  0  0  0  0  0  0  0  0  0  0
   47.8885   46.5343   45.4409 N   0  0  0  0  0  0  0  0  0  0  0  0
   45.7911   45.0239   43.5387 N   0  0  0  0  0  0  0  0  0  0  0  0
   37.4987   41.2824   40.7659 N   0  0  0  0  0  0  0  0  0  0  0  0
   36.0381   39.3957   42.9157 N   0  0  0  0  0  0  0  0  0  0  0  0
  1 17  2  0  0  0  0
  1 16  1  0  0  0  0
  2  3  2  0  0  0  0
  2 26  1  0  0  0  0
  3  4  1  0  0  0  0
  4  5  2  0  0  0  0
  5  6  1  0  0  0  0
  6  7  1  0  0  0  0
  6 26  2  0  0  0  0
  7 27  2  0  0  0  0
  8  9  2  0  0  0  0
  8 13  1  0  0  0  0
  8 27  1  0  0  0  0
  9 10  1  0  0  0  0
 10 11  2  0  0  0  0
 11 12  1  0  0  0  0
 11 14  1  0  0  0  0
 12 13  2  0  0  0  0
 14 15  1  0  0  0  0
 15 16  2  0  0  0  0
 15 19  1  0  0  0  0
 17 18  1  0  0  0  0
 17 28  1  0  0  0  0
 18 19  2  0  0  0  0
 20 21  1  0  0  0  0
 20 28  2  0  0  0  0
 21 22  2  0  0  0  0
 21 29  1  0  0  0  0
 22 23  1  0  0  0  0
 23 24  2  0  0  0  0
 24 25  1  0  0  0  0
 25 29  2  0  0  0  0
M  END
>  <CHROM.1>
71.31405808,97.19606964,97.99941480,72.00595897,89.43006423,-86.43949611
41.93492403,43.30539438,42.30553779,2.87811333,0.48476520,2.51753933

>  <Name>
ligand

>  <RI>
0

>  <Rbt.Current_Directory>
/home/itssahil/PROJECTS/Mol_Feturizer/New_Systems/rnas/4JIY

>  <Rbt.Executable>
rbdock ($Id: //depot/dev/client3/rdock/2013.1/src/exe/rbdock.cxx#4 $)

>  <Rbt.Library>
libRbt.so (2013.1, Build901 2013/11/27)

>  <Rbt.Parameter_File>
/export/apps/rDock/src/rDock_2013.1_src/data/scripts/dock_solv.prm

>  <Rbt.Receptor>
prm/pocket_docking_3.prm

>  <SCORE>
9.42153

>  <SCORE.INTER>
10.5931

>  <SCORE.INTER.CONST>
1

>  <SCORE.INTER.POLAR>
0

>  <SCORE.INTER.ROT>
6

>  <SCORE.INTER.SOLV>
0.0276234

>  <SCORE.INTER.VDW>
-0.547145

>  <SCORE.INTER.norm>
0.365279

>  <SCORE.INTRA>
-1.17156

>  <SCORE.INTRA.DIHEDRAL>
0.0562851

>  <SCORE.INTRA.DIHEDRAL.0>
7.2424

>  <SCORE.INTRA.POLAR>
0

>  <SCORE.INTRA.POLAR.0>
0

>  <SCORE.INTRA.REPUL>
0

>  <SCORE.INTRA.REPUL.0>
0

>  <SCORE.INTRA.SOLV>
-0.0187457

>  <SCORE.INTRA.SOLV.lig_0>
-3.36201

>  <SCORE.INTRA.VDW>
-1.19033

>  <SCORE.INTRA.VDW.0>
-0.910526

>  <SCORE.INTRA.norm>
-0.0403986

>  <SCORE.RESTR>
0

>  <SCORE.RESTR.CAVITY>
0

>  <SCORE.RESTR.norm>
0

>  <SCORE.SYSTEM>
0

>  <SCORE.SYSTEM.CONST>
0

>  <SCORE.SYSTEM.DIHEDRAL>
0

>  <SCORE.SYSTEM.SOLV>
0

>  <SCORE.SYSTEM.norm>
0

>  <SCORE.heavy>
29

>  <SCORE.norm>
0.324881

>  <RMSD>
1.992

$$$$
ligand
 OpenBabel11021811493D
libRbt.so/2013.1/901 2013/11/27
 29 32  0  0  0  0  0  0  0  0999 V2000
   38.3744   45.0625   42.9970 C   0  0  0  0  0  0  0  0  0  0  0  0
   49.4971   44.9038   44.3059 C   0  0  0  0  0  0  0  0  0  0  0  0
   49.9703   45.3809   45.5355 C   0  0  0  0  0  0  0  0  0  0  0  0
   49.1847   46.1415   46.3295 C   0  0  0  0  0  0  0  0  0  0  0  0
   47.9240   46.4943   45.8674 C   0  0  0  0  0  0  0  0  0  0  0  0
   47.4671   45.9661   44.6891 C   0  0  0  0  0  0  0  0  0  0  0  0
   46.1268   46.1471   44.1358 C   0  0  0  0  0  0  0  0  0  0  0  0
   44.5108   47.5526   43.2279 C   0  0  0  0  0  0  0  0  0  0  0  0
   44.1928   47.3491   41.8996 C   0  0  0  0  0  0  0  0  0  0  0  0
   42.8904   47.6100   41.4699 C   0  0  0  0  0  0  0  0  0  0  0  0
   41.8942   47.9658   42.3414 C   0  0  0  0  0  0  0  0  0  0  0  0
   42.2522   48.1558   43.6936 C   0  0  0  0  0  0  0  0  0  0  0  0
   43.5659   48.0095   44.1245 C   0  0  0  0  0  0  0  0  0  0  0  0
   40.4411   48.1066   41.8932 C   0  0  0  0  0  0  0  0  0  0  0  0
   39.6850   46.7853   41.8739 C   0  0  0  0  0  0  0  0  0  0  0  0
   39.0695   46.2608   42.9816 C   0  0  0  0  0  0  0  0  0  0  0  0
   38.2924   44.3803   41.8128 C   0  0  0  0  0  0  0  0  0  0  0  0
   38.9023   44.8899   40.7197 C   0  0  0  0  0  0  0  0  0  0  0  0
   39.6064   46.0729   40.7102 C   0  0  0  0  0  0  0  0  0  0  0  0
   38.2879   42.0637   41.9658 C   0  0  0  0  0  0  0  0  0  0  0  0
   37.6410   40.7809   41.7887 C   0  0  0  0  0  0  0  0  0  0  0  0
   36.6102   40.2777   42.5927 C   0  0  0  0  0  0  0  0  0  0  0  0
   36.1101   39.0255   42.2990 C   0  0  0  0  0  0  0  0  0  0  0  0
   36.6293   38.3491   41.2064 C   0  0  0  0  0  0  0  0  0  0  0  0
   37.6691   38.8704   40.4672 C   0  0  0  0  0  0  0  0  0  0  0  0
   48.2531   45.1968   43.8912 N   0  0  0  0  0  0  0  0  0  0  0  0
   45.8833   47.3405   43.6668 N   0  0  0  0  0  0  0  0  0  0  0  0
   37.5761   43.1045   41.7105 N   0  0  0  0  0  0  0  0  0  0  0  0
   38.1408   40.0807   40.7265 N   0  0  0  0  0  0  0  0  0  0  0  0
  1 17  2  0  0  0  0
  1 16  1  0  0  0  0
  2  3  2  0  0  0  0
  2 26  1  0  0  0  0
  3  4  1  0  0  0  0
  4  5  2  0  0  0  0
  5  6  1  0  0  0  0
  6  7  1  0  0  0  0
  6 26  2  0  0  0  0
  7 27  2  0  0  0  0
  8  9  2  0  0  0  0
  8 13  1  0  0  0  0
  8 27  1  0  0  0  0
  9 10  1  0  0  0  0
 10 11  2  0  0  0  0
 11 12  1  0  0  0  0
 11 14  1  0  0  0  0
 12 13  2  0  0  0  0
 14 15  1  0  0  0  0
 15 16  2  0  0  0  0
 15 19  1  0  0  0  0
 17 18  1  0  0  0  0
 17 28  1  0  0  0  0
 18 19  2  0  0  0  0
 20 21  1  0  0  0  0
 20 28  2  0  0  0  0
 21 22  2  0  0  0  0
 21 29  1  0  0  0  0
 22 23  1  0  0  0  0
 23 24  2  0  0  0  0
 24 25  1  0  0  0  0
 25 29  2  0  0  0  0
M  END
>  <CHROM.1>
72.08103613,83.96363877,85.44945828,-69.21151172,-93.70019224,-88.43318816
41.95764235,44.76617283,42.78044260,2.69254525,0.31723698,3.07884638

>  <Name>
ligand

>  <RI>
0

>  <Rbt.Current_Directory>
/home/itssahil/PROJECTS/Mol_Feturizer/New_Systems/rnas/4JIY

>  <Rbt.Executable>
rbdock ($Id: //depot/dev/client3/rdock/2013.1/src/exe/rbdock.cxx#4 $)

>  <Rbt.Library>
libRbt.so (2013.1, Build901 2013/11/27)

>  <Rbt.Parameter_File>
/export/apps/rDock/src/rDock_2013.1_src/data/scripts/dock_solv.prm

>  <Rbt.Receptor>
prm/pocket_docking_3.prm

>  <SCORE>
9.61795

>  <SCORE.INTER>
10.8795

>  <SCORE.INTER.CONST>
1

>  <SCORE.INTER.POLAR>
0

>  <SCORE.INTER.ROT>
6

>  <SCORE.INTER.SOLV>
0.0146409

>  <SCORE.INTER.VDW>
-0.351883

>  <SCORE.INTER.norm>
0.375155

>  <SCORE.INTRA>
-1.26154

>  <SCORE.INTRA.DIHEDRAL>
-0.082968

>  <SCORE.INTRA.DIHEDRAL.0>
7.2424

>  <SCORE.INTRA.POLAR>
0

>  <SCORE.INTRA.POLAR.0>
0

>  <SCORE.INTRA.REPUL>
0

>  <SCORE.INTRA.REPUL.0>
0

>  <SCORE.INTRA.SOLV>
-0.0196518

>  <SCORE.INTRA.SOLV.lig_0>
-3.36201

>  <SCORE.INTRA.VDW>
-1.21023

>  <SCORE.INTRA.VDW.0>
-0.910526

>  <SCORE.INTRA.norm>
-0.0435015

>  <SCORE.RESTR>
0

>  <SCORE.RESTR.CAVITY>
0

>  <SCORE.RESTR.norm>
0

>  <SCORE.SYSTEM>
0

>  <SCORE.SYSTEM.CONST>
0

>  <SCORE.SYSTEM.DIHEDRAL>
0

>  <SCORE.SYSTEM.SOLV>
0

>  <SCORE.SYSTEM.norm>
0

>  <SCORE.heavy>
29

>  <SCORE.norm>
0.331654

>  <RMSD>
2.018

$$$$
ligand
 OpenBabel11021811493D
libRbt.so/2013.1/901 2013/11/27
 29 32  0  0  0  0  0  0  0  0999 V2000
   44.9467   45.1479   41.0058 C   0  0  0  0  0  0  0  0  0  0  0  0
   37.1473   37.4911   40.3004 C   0  0  0  0  0  0  0  0  0  0  0  0
   35.7608   37.4628   40.5012 C   0  0  0  0  0  0  0  0  0  0  0  0
   35.0877   38.5872   40.8311 C   0  0  0  0  0  0  0  0  0  0  0  0
   35.8116   39.7546   41.0323 C   0  0  0  0  0  0  0  0  0  0  0  0
   37.1565   39.7656   40.7727 C   0  0  0  0  0  0  0  0  0  0  0  0
   38.0254   40.9395   40.8219 C   0  0  0  0  0  0  0  0  0  0  0  0
   38.6546   43.0001   39.9450 C   0  0  0  0  0  0  0  0  0  0  0  0
   38.4362   44.0849   40.7712 C   0  0  0  0  0  0  0  0  0  0  0  0
   39.3031   45.1765   40.6950 C   0  0  0  0  0  0  0  0  0  0  0  0
   40.4192   45.1653   39.8996 C   0  0  0  0  0  0  0  0  0  0  0  0
   40.6171   44.0366   39.0752 C   0  0  0  0  0  0  0  0  0  0  0  0
   39.7075   42.9854   39.0523 C   0  0  0  0  0  0  0  0  0  0  0  0
   41.4434   46.2977   39.9288 C   0  0  0  0  0  0  0  0  0  0  0  0
   42.6668   45.9829   40.7784 C   0  0  0  0  0  0  0  0  0  0  0  0
   43.8175   45.4455   40.2605 C   0  0  0  0  0  0  0  0  0  0  0  0
   44.8972   45.4338   42.3439 C   0  0  0  0  0  0  0  0  0  0  0  0
   43.7635   45.9577   42.8602 C   0  0  0  0  0  0  0  0  0  0  0  0
   42.6365   46.2378   42.1208 C   0  0  0  0  0  0  0  0  0  0  0  0
   46.7856   46.1853   43.4662 C   0  0  0  0  0  0  0  0  0  0  0  0
   47.9703   45.9424   44.2617 C   0  0  0  0  0  0  0  0  0  0  0  0
   48.9991   45.0521   43.9284 C   0  0  0  0  0  0  0  0  0  0  0  0
   50.0566   44.9241   44.8058 C   0  0  0  0  0  0  0  0  0  0  0  0
   50.0609   45.7063   45.9499 C   0  0  0  0  0  0  0  0  0  0  0  0
   49.0071   46.5414   46.2525 C   0  0  0  0  0  0  0  0  0  0  0  0
   37.8349   38.6376   40.4357 N   0  0  0  0  0  0  0  0  0  0  0  0
   37.7170   41.8861   39.9781 N   0  0  0  0  0  0  0  0  0  0  0  0
   46.0366   45.1666   43.2280 N   0  0  0  0  0  0  0  0  0  0  0  0
   47.9986   46.6887   45.4066 N   0  0  0  0  0  0  0  0  0  0  0  0
  1 17  2  0  0  0  0
  1 16  1  0  0  0  0
  2  3  2  0  0  0  0
  2 26  1  0  0  0  0
  3  4  1  0  0  0  0
  4  5  2  0  0  0  0
  5  6  1  0  0  0  0
  6  7  1  0  0  0  0
  6 26  2  0  0  0  0
  7 27  2  0  0  0  0
  8  9  2  0  0  0  0
  8 13  1  0  0  0  0
  8 27  1  0  0  0  0
  9 10  1  0  0  0  0
 10 11  2  0  0  0  0
 11 12  1  0  0  0  0
 11 14  1  0  0  0  0
 12 13  2  0  0  0  0
 14 15  1  0  0  0  0
 15 16  2  0  0  0  0
 15 19  1  0  0  0  0
 17 18  1  0  0  0  0
 17 28  1  0  0  0  0
 18 19  2  0  0  0  0
 20 21  1  0  0  0  0
 20 28  2  0  0  0  0
 21 22  2  0  0  0  0
 21 29  1  0  0  0  0
 22 23  1  0  0  0  0
 23 24  2  0  0  0  0
 24 25  1  0  0  0  0
 25 29  2  0  0  0  0
M  END
>  <CHROM.1>
-61.70831806,99.05680651,93.65599087,58.99858727,-91.28320338,97.85653551
42.16678954,43.64647164,41.75200791,0.29040839,-0.50538135,-0.42382219

>  <Name>
ligand

>  <RI>
0

>  <Rbt.Current_Directory>
/home/itssahil/PROJECTS/Mol_Feturizer/New_Systems/rnas/4JIY

>  <Rbt.Executable>
rbdock ($Id: //depot/dev/client3/rdock/2013.1/src/exe/rbdock.cxx#4 $)

>  <Rbt.Library>
libRbt.so (2013.1, Build901 2013/11/27)

>  <Rbt.Parameter_File>
/export/apps/rDock/src/rDock_2013.1_src/data/scripts/dock_solv.prm

>  <Rbt.Receptor>
prm/pocket_docking_3.prm

>  <SCORE>
9.12426

>  <SCORE.INTER>
10.3841

>  <SCORE.INTER.CONST>
1

>  <SCORE.INTER.POLAR>
0

>  <SCORE.INTER.ROT>
6

>  <SCORE.INTER.SOLV>
0.0272064

>  <SCORE.INTER.VDW>
-0.686363

>  <SCORE.INTER.norm>
0.358071

>  <SCORE.INTRA>
-1.2598

>  <SCORE.INTRA.DIHEDRAL>
-0.184191

>  <SCORE.INTRA.DIHEDRAL.0>
7.2424

>  <SCORE.INTRA.POLAR>
0

>  <SCORE.INTRA.POLAR.0>
0

>  <SCORE.INTRA.REPUL>
0

>  <SCORE.INTRA.REPUL.0>
0

>  <SCORE.INTRA.SOLV>
-0.0206032

>  <SCORE.INTRA.SOLV.lig_0>
-3.36201

>  <SCORE.INTRA.VDW>
-1.1574

>  <SCORE.INTRA.VDW.0>
-0.910526

>  <SCORE.INTRA.norm>
-0.0434413

>  <SCORE.RESTR>
0

>  <SCORE.RESTR.CAVITY>
0

>  <SCORE.RESTR.norm>
0

>  <SCORE.SYSTEM>
0

>  <SCORE.SYSTEM.CONST>
0

>  <SCORE.SYSTEM.DIHEDRAL>
0

>  <SCORE.SYSTEM.SOLV>
0

>  <SCORE.SYSTEM.norm>
0

>  <SCORE.heavy>
29

>  <SCORE.norm>
0.31463

>  <RMSD>
2.022

$$$$
ligand
 OpenBabel11021811493D
libRbt.so/2013.1/901 2013/11/27
 29 32  0  0  0  0  0  0  0  0999 V2000
   43.6290   45.9289   42.5957 C   0  0  0  0  0  0  0  0  0  0  0  0
   35.7909   38.3630   42.9363 C   0  0  0  0  0  0  0  0  0  0  0  0
   35.6996   37.3738   41.9480 C   0  0  0  0  0  0  0  0  0  0  0  0
   36.3194   37.5282   40.7571 C   0  0  0  0  0  0  0  0  0  0  0  0
   36.9910   38.7183   40.5121 C   0  0  0  0  0  0  0  0  0  0  0  0
   37.1121   39.6417   41.5166 C   0  0  0  0  0  0  0  0  0  0  0  0
   37.8859   40.8794   41.4489 C   0  0  0  0  0  0  0  0  0  0  0  0
   38.2630   42.9507   40.4597 C   0  0  0  0  0  0  0  0  0  0  0  0
   38.0996   44.0082   41.3326 C   0  0  0  0  0  0  0  0  0  0  0  0
   38.8637   45.1616   41.1459 C   0  0  0  0  0  0  0  0  0  0  0  0
   39.8394   45.2407   40.1867 C   0  0  0  0  0  0  0  0  0  0  0  0
   39.9861   44.1379   39.3178 C   0  0  0  0  0  0  0  0  0  0  0  0
   39.1615   43.0227   39.4141 C   0  0  0  0  0  0  0  0  0  0  0  0
   40.7720   46.4454   40.0805 C   0  0  0  0  0  0  0  0  0  0  0  0
   42.1513   46.1947   40.6741 C   0  0  0  0  0  0  0  0  0  0  0  0
   42.3872   46.1546   42.0245 C   0  0  0  0  0  0  0  0  0  0  0  0
   44.6745   45.7159   41.7377 C   0  0  0  0  0  0  0  0  0  0  0  0
   44.4485   45.7605   40.4061 C   0  0  0  0  0  0  0  0  0  0  0  0
   43.2168   46.0010   39.8402 C   0  0  0  0  0  0  0  0  0  0  0  0
   46.6489   46.4984   42.6756 C   0  0  0  0  0  0  0  0  0  0  0  0
   48.0227   46.3040   43.0885 C   0  0  0  0  0  0  0  0  0  0  0  0
   49.1020   47.1139   42.7124 C   0  0  0  0  0  0  0  0  0  0  0  0
   50.3568   46.7823   43.1813 C   0  0  0  0  0  0  0  0  0  0  0  0
   50.4766   45.6890   44.0245 C   0  0  0  0  0  0  0  0  0  0  0  0
   49.3901   44.9007   44.3366 C   0  0  0  0  0  0  0  0  0  0  0  0
   36.4943   39.4865   42.7167 N   0  0  0  0  0  0  0  0  0  0  0  0
   37.4241   41.7702   40.6143 N   0  0  0  0  0  0  0  0  0  0  0  0
   46.0319   45.4606   42.2312 N   0  0  0  0  0  0  0  0  0  0  0  0
   48.1781   45.2231   43.9106 N   0  0  0  0  0  0  0  0  0  0  0  0
  1 17  2  0  0  0  0
  1 16  1  0  0  0  0
  2  3  2  0  0  0  0
  2 26  1  0  0  0  0
  3  4  1  0  0  0  0
  4  5  2  0  0  0  0
  5  6  1  0  0  0  0
  6  7  1  0  0  0  0
  6 26  2  0  0  0  0
  7 27  2  0  0  0  0
  8  9  2  0  0  0  0
  8 13  1  0  0  0  0
  8 27  1  0  0  0  0
  9 10  1  0  0  0  0
 10 11  2  0  0  0  0
 11 12  1  0  0  0  0
 11 14  1  0  0  0  0
 12 13  2  0  0  0  0
 14 15  1  0  0  0  0
 15 16  2  0  0  0  0
 15 19  1  0  0  0  0
 17 18  1  0  0  0  0
 17 28  1  0  0  0  0
 18 19  2  0  0  0  0
 20 21  1  0  0  0  0
 20 28  2  0  0  0  0
 21 22  2  0  0  0  0
 21 29  1  0  0  0  0
 22 23  1  0  0  0  0
 23 24  2  0  0  0  0
 24 25  1  0  0  0  0
 25 29  2  0  0  0  0
M  END
>  <CHROM.1>
67.19231220,101.32905525,-74.76353760,131.66636435,-86.95476241,-75.38501920
41.97590499,43.73798516,41.65864131,0.38922402,-0.35609669,-0.44209569

>  <Name>
ligand

>  <RI>
0

>  <Rbt.Current_Directory>
/home/itssahil/PROJECTS/Mol_Feturizer/New_Systems/rnas/4JIY

>  <Rbt.Executable>
rbdock ($Id: //depot/dev/client3/rdock/2013.1/src/exe/rbdock.cxx#4 $)

>  <Rbt.Library>
libRbt.so (2013.1, Build901 2013/11/27)

>  <Rbt.Parameter_File>
/export/apps/rDock/src/rDock_2013.1_src/data/scripts/dock_solv.prm

>  <Rbt.Receptor>
prm/pocket_docking_3.prm

>  <SCORE>
9.7482

>  <SCORE.INTER>
10.6559

>  <SCORE.INTER.CONST>
1

>  <SCORE.INTER.POLAR>
0

>  <SCORE.INTER.ROT>
6

>  <SCORE.INTER.SOLV>
0.010957

>  <SCORE.INTER.VDW>
-0.499722

>  <SCORE.INTER.norm>
0.367445

>  <SCORE.INTRA>
-0.907692

>  <SCORE.INTRA.DIHEDRAL>
0.336773

>  <SCORE.INTRA.DIHEDRAL.0>
7.2424

>  <SCORE.INTRA.POLAR>
0

>  <SCORE.INTRA.POLAR.0>
0

>  <SCORE.INTRA.REPUL>
0

>  <SCORE.INTRA.REPUL.0>
0

>  <SCORE.INTRA.SOLV>
-0.0160913

>  <SCORE.INTRA.SOLV.lig_0>
-3.36201

>  <SCORE.INTRA.VDW>
-1.06803

>  <SCORE.INTRA.VDW.0>
-0.910526

>  <SCORE.INTRA.norm>
-0.0312997

>  <SCORE.RESTR>
0

>  <SCORE.RESTR.CAVITY>
0

>  <SCORE.RESTR.norm>
0

>  <SCORE.SYSTEM>
0

>  <SCORE.SYSTEM.CONST>
0

>  <SCORE.SYSTEM.DIHEDRAL>
0

>  <SCORE.SYSTEM.SOLV>
0

>  <SCORE.SYSTEM.norm>
0

>  <SCORE.heavy>
29

>  <SCORE.norm>
0.336145

>  <RMSD>
2.023

$$$$
ligand
 OpenBabel11021811493D
libRbt.so/2013.1/901 2013/11/27
 29 32  0  0  0  0  0  0  0  0999 V2000
   43.9971   46.6799   43.1781 C   0  0  0  0  0  0  0  0  0  0  0  0
   36.9562   37.7728   41.4952 C   0  0  0  0  0  0  0  0  0  0  0  0
   35.6002   37.8831   41.8307 C   0  0  0  0  0  0  0  0  0  0  0  0
   35.0594   39.0838   42.1344 C   0  0  0  0  0  0  0  0  0  0  0  0
   35.8937   40.1928   42.1718 C   0  0  0  0  0  0  0  0  0  0  0  0
   37.2009   40.0649   41.7833 C   0  0  0  0  0  0  0  0  0  0  0  0
   38.1638   41.1566   41.6554 C   0  0  0  0  0  0  0  0  0  0  0  0
   38.9185   43.0333   40.5066 C   0  0  0  0  0  0  0  0  0  0  0  0
   38.7911   44.2504   41.1463 C   0  0  0  0  0  0  0  0  0  0  0  0
   39.7413   45.2437   40.9025 C   0  0  0  0  0  0  0  0  0  0  0  0
   40.8487   45.0168   40.1275 C   0  0  0  0  0  0  0  0  0  0  0  0
   40.9522   43.7583   39.4964 C   0  0  0  0  0  0  0  0  0  0  0  0
   39.9621   42.7923   39.6357 C   0  0  0  0  0  0  0  0  0  0  0  0
   41.9595   46.0547   39.9823 C   0  0  0  0  0  0  0  0  0  0  0  0
   43.0271   45.9511   41.0627 C   0  0  0  0  0  0  0  0  0  0  0  0
   43.0410   46.7492   42.1779 C   0  0  0  0  0  0  0  0  0  0  0  0
   44.9748   45.7323   43.0339 C   0  0  0  0  0  0  0  0  0  0  0  0
   44.9690   44.9474   41.9337 C   0  0  0  0  0  0  0  0  0  0  0  0
   44.0273   45.0287   40.9329 C   0  0  0  0  0  0  0  0  0  0  0  0
   47.1266   46.1929   43.7741 C   0  0  0  0  0  0  0  0  0  0  0  0
   48.2261   45.9811   44.6915 C   0  0  0  0  0  0  0  0  0  0  0  0
   48.2860   46.4615   46.0060 C   0  0  0  0  0  0  0  0  0  0  0  0
   49.4163   46.1846   46.7475 C   0  0  0  0  0  0  0  0  0  0  0  0
   50.4144   45.4192   46.1653 C   0  0  0  0  0  0  0  0  0  0  0  0
   50.3256   45.0002   44.8554 C   0  0  0  0  0  0  0  0  0  0  0  0
   37.7459   38.8597   41.4724 N   0  0  0  0  0  0  0  0  0  0  0  0
   37.8958   42.0166   40.7110 N   0  0  0  0  0  0  0  0  0  0  0  0
   46.0342   45.5649   44.0343 N   0  0  0  0  0  0  0  0  0  0  0  0
   49.2356   45.2409   44.1424 N   0  0  0  0  0  0  0  0  0  0  0  0
  1 17  2  0  0  0  0
  1 16  1  0  0  0  0
  2  3  2  0  0  0  0
  2 26  1  0  0  0  0
  3  4  1  0  0  0  0
  4  5  2  0  0  0  0
  5  6  1  0  0  0  0
  6  7  1  0  0  0  0
  6 26  2  0  0  0  0
  7 27  2  0  0  0  0
  8  9  2  0  0  0  0
  8 13  1  0  0  0  0
  8 27  1  0  0  0  0
  9 10  1  0  0  0  0
 10 11  2  0  0  0  0
 11 12  1  0  0  0  0
 11 14  1  0  0  0  0
 12 13  2  0  0  0  0
 14 15  1  0  0  0  0
 15 16  2  0  0  0  0
 15 19  1  0  0  0  0
 17 18  1  0  0  0  0
 17 28  1  0  0  0  0
 18 19  2  0  0  0  0
 20 21  1  0  0  0  0
 20 28  2  0  0  0  0
 21 22  2  0  0  0  0
 21 29  1  0  0  0  0
 22 23  1  0  0  0  0
 23 24  2  0  0  0  0
 24 25  1  0  0  0  0
 25 29  2  0  0  0  0
M  END
>  <CHROM.1>
-66.16211280,87.57224650,-98.19372867,-70.58629791,-94.47078635,-95.21412993
42.37918381,43.72954955,42.33201729,0.22017409,-0.48730814,-0.58543259

>  <Name>
ligand

>  <RI>
0

>  <Rbt.Current_Directory>
/home/itssahil/PROJECTS/Mol_Feturizer/New_Systems/rnas/4JIY

>  <Rbt.Executable>
rbdock ($Id: //depot/dev/client3/rdock/2013.1/src/exe/rbdock.cxx#4 $)

>  <Rbt.Library>
libRbt.so (2013.1, Build901 2013/11/27)

>  <Rbt.Parameter_File>
/export/apps/rDock/src/rDock_2013.1_src/data/scripts/dock_solv.prm

>  <Rbt.Receptor>
prm/pocket_docking_3.prm

>  <SCORE>
9.546

>  <SCORE.INTER>
10.8435

>  <SCORE.INTER.CONST>
1

>  <SCORE.INTER.POLAR>
0

>  <SCORE.INTER.ROT>
6

>  <SCORE.INTER.SOLV>
0.0248741

>  <SCORE.INTER.VDW>
-0.379287

>  <SCORE.INTER.norm>
0.373914

>  <SCORE.INTRA>
-1.29751

>  <SCORE.INTRA.DIHEDRAL>
-0.103332

>  <SCORE.INTRA.DIHEDRAL.0>
7.2424

>  <SCORE.INTRA.POLAR>
0

>  <SCORE.INTRA.POLAR.0>
0

>  <SCORE.INTRA.REPUL>
0

>  <SCORE.INTRA.REPUL.0>
0

>  <SCORE.INTRA.SOLV>
-0.0199242

>  <SCORE.INTRA.SOLV.lig_0>
-3.36201

>  <SCORE.INTRA.VDW>
-1.23588

>  <SCORE.INTRA.VDW.0>
-0.910526

>  <SCORE.INTRA.norm>
-0.0447416

>  <SCORE.RESTR>
0

>  <SCORE.RESTR.CAVITY>
0

>  <SCORE.RESTR.norm>
0

>  <SCORE.SYSTEM>
0

>  <SCORE.SYSTEM.CONST>
0

>  <SCORE.SYSTEM.DIHEDRAL>
0

>  <SCORE.SYSTEM.SOLV>
0

>  <SCORE.SYSTEM.norm>
0

>  <SCORE.heavy>
29

>  <SCORE.norm>
0.329172

>  <RMSD>
2.029

$$$$
ligand
 OpenBabel11021811493D
libRbt.so/2013.1/901 2013/11/27
 29 32  0  0  0  0  0  0  0  0999 V2000
   44.4319   44.8598   40.7410 C   0  0  0  0  0  0  0  0  0  0  0  0
   37.4649   35.7905   39.4222 C   0  0  0  0  0  0  0  0  0  0  0  0
   36.3567   35.3647   40.1667 C   0  0  0  0  0  0  0  0  0  0  0  0
   35.8826   36.1119   41.1879 C   0  0  0  0  0  0  0  0  0  0  0  0
   36.5602   37.2760   41.5241 C   0  0  0  0  0  0  0  0  0  0  0  0
   37.6040   37.6963   40.7431 C   0  0  0  0  0  0  0  0  0  0  0  0
   38.3333   38.9532   40.8978 C   0  0  0  0  0  0  0  0  0  0  0  0
   38.3878   41.2706   40.7042 C   0  0  0  0  0  0  0  0  0  0  0  0
   38.9829   41.7269   39.5446 C   0  0  0  0  0  0  0  0  0  0  0  0
   39.7582   42.8868   39.5952 C   0  0  0  0  0  0  0  0  0  0  0  0
   39.8665   43.6405   40.7348 C   0  0  0  0  0  0  0  0  0  0  0  0
   39.2377   43.1498   41.8995 C   0  0  0  0  0  0  0  0  0  0  0  0
   38.5526   41.9401   41.9002 C   0  0  0  0  0  0  0  0  0  0  0  0
   40.5926   44.9839   40.7487 C   0  0  0  0  0  0  0  0  0  0  0  0
   42.0392   44.8831   41.2120 C   0  0  0  0  0  0  0  0  0  0  0  0
   43.1053   44.9481   40.3516 C   0  0  0  0  0  0  0  0  0  0  0  0
   44.6745   44.7166   42.0809 C   0  0  0  0  0  0  0  0  0  0  0  0
   43.6273   44.6459   42.9322 C   0  0  0  0  0  0  0  0  0  0  0  0
   42.3092   44.7175   42.5416 C   0  0  0  0  0  0  0  0  0  0  0  0
   46.5862   45.7463   42.9027 C   0  0  0  0  0  0  0  0  0  0  0  0
   47.9652   45.6992   43.3405 C   0  0  0  0  0  0  0  0  0  0  0  0
   48.4555   44.9020   44.3828 C   0  0  0  0  0  0  0  0  0  0  0  0
   49.7988   44.9854   44.6872 C   0  0  0  0  0  0  0  0  0  0  0  0
   50.5954   45.8256   43.9254 C   0  0  0  0  0  0  0  0  0  0  0  0
   50.0596   46.6181   42.9334 C   0  0  0  0  0  0  0  0  0  0  0  0
   38.0796   36.9496   39.7124 N   0  0  0  0  0  0  0  0  0  0  0  0
   37.6293   40.0278   40.6679 N   0  0  0  0  0  0  0  0  0  0  0  0
   46.0401   44.6195   42.6071 N   0  0  0  0  0  0  0  0  0  0  0  0
   48.7763   46.5289   42.6180 N   0  0  0  0  0  0  0  0  0  0  0  0
  1 17  2  0  0  0  0
  1 16  1  0  0  0  0
  2  3  2  0  0  0  0
  2 26  1  0  0  0  0
  3  4  1  0  0  0  0
  4  5  2  0  0  0  0
  5  6  1  0  0  0  0
  6  7  1  0  0  0  0
  6 26  2  0  0  0  0
  7 27  2  0  0  0  0
  8  9  2  0  0  0  0
  8 13  1  0  0  0  0
  8 27  1  0  0  0  0
  9 10  1  0  0  0  0
 10 11  2  0  0  0  0
 11 12  1  0  0  0  0
 11 14  1  0  0  0  0
 12 13  2  0  0  0  0
 14 15  1  0  0  0  0
 15 16  2  0  0  0  0
 15 19  1  0  0  0  0
 17 18  1  0  0  0  0
 17 28  1  0  0  0  0
 18 19  2  0  0  0  0
 20 21  1  0  0  0  0
 20 28  2  0  0  0  0
 21 22  2  0  0  0  0
 21 29  1  0  0  0  0
 22 23  1  0  0  0  0
 23 24  2  0  0  0  0
 24 25  1  0  0  0  0
 25 29  2  0  0  0  0
M  END
>  <CHROM.1>
-65.67710086,-96.04693365,104.26436779,-53.41573601,88.91714186,89.18425039
42.13378857,42.46815635,41.60270876,0.57590626,-0.32204452,-0.11953726

>  <Name>
ligand

>  <RI>
0

>  <Rbt.Current_Directory>
/home/itssahil/PROJECTS/Mol_Feturizer/New_Systems/rnas/4JIY

>  <Rbt.Executable>
rbdock ($Id: //depot/dev/client3/rdock/2013.1/src/exe/rbdock.cxx#4 $)

>  <Rbt.Library>
libRbt.so (2013.1, Build901 2013/11/27)

>  <Rbt.Parameter_File>
/export/apps/rDock/src/rDock_2013.1_src/data/scripts/dock_solv.prm

>  <Rbt.Receptor>
prm/pocket_docking_3.prm

>  <SCORE>
9.47118

>  <SCORE.INTER>
10.4734

>  <SCORE.INTER.CONST>
1

>  <SCORE.INTER.POLAR>
0

>  <SCORE.INTER.ROT>
6

>  <SCORE.INTER.SOLV>
0.0161352

>  <SCORE.INTER.VDW>
-0.623119

>  <SCORE.INTER.norm>
0.361151

>  <SCORE.INTRA>
-1.00221

>  <SCORE.INTRA.DIHEDRAL>
0.20072

>  <SCORE.INTRA.DIHEDRAL.0>
7.2424

>  <SCORE.INTRA.POLAR>
0

>  <SCORE.INTRA.POLAR.0>
0

>  <SCORE.INTRA.REPUL>
0

>  <SCORE.INTRA.REPUL.0>
0

>  <SCORE.INTRA.SOLV>
-0.0194894

>  <SCORE.INTRA.SOLV.lig_0>
-3.36201

>  <SCORE.INTRA.VDW>
-1.09283

>  <SCORE.INTRA.VDW.0>
-0.910526

>  <SCORE.INTRA.norm>
-0.034559

>  <SCORE.RESTR>
0

>  <SCORE.RESTR.CAVITY>
0

>  <SCORE.RESTR.norm>
0

>  <SCORE.SYSTEM>
0

>  <SCORE.SYSTEM.CONST>
0

>  <SCORE.SYSTEM.DIHEDRAL>
0

>  <SCORE.SYSTEM.SOLV>
0

>  <SCORE.SYSTEM.norm>
0

>  <SCORE.heavy>
29

>  <SCORE.norm>
0.326592

>  <RMSD>
2.050

$$$$
ligand
 OpenBabel11021811493D
libRbt.so/2013.1/901 2013/11/27
 29 32  0  0  0  0  0  0  0  0999 V2000
   39.2673   41.4117   40.9262 C   0  0  0  0  0  0  0  0  0  0  0  0
   49.1274   45.8903   46.4992 C   0  0  0  0  0  0  0  0  0  0  0  0
   50.2011   45.4028   45.7422 C   0  0  0  0  0  0  0  0  0  0  0  0
   50.0092   44.9494   44.4838 C   0  0  0  0  0  0  0  0  0  0  0  0
   48.7141   44.9154   43.9849 C   0  0  0  0  0  0  0  0  0  0  0  0
   47.6937   45.4515   44.7249 C   0  0  0  0  0  0  0  0  0  0  0  0
   46.3071   45.5965   44.2870 C   0  0  0  0  0  0  0  0  0  0  0  0
   44.3148   44.6144   43.5961 C   0  0  0  0  0  0  0  0  0  0  0  0
   44.1485   44.5952   42.2254 C   0  0  0  0  0  0  0  0  0  0  0  0
   42.8706   44.7888   41.6978 C   0  0  0  0  0  0  0  0  0  0  0  0
   41.7624   44.8980   42.4968 C   0  0  0  0  0  0  0  0  0  0  0  0
   41.9674   44.9041   43.8935 C   0  0  0  0  0  0  0  0  0  0  0  0
   43.2431   44.8241   44.4406 C   0  0  0  0  0  0  0  0  0  0  0  0
   40.3512   44.9613   41.9165 C   0  0  0  0  0  0  0  0  0  0  0  0
   39.6429   43.6138   41.9042 C   0  0  0  0  0  0  0  0  0  0  0  0
   39.8939   42.6466   40.9648 C   0  0  0  0  0  0  0  0  0  0  0  0
   38.3526   41.1516   41.9113 C   0  0  0  0  0  0  0  0  0  0  0  0
   38.0972   42.1037   42.8358 C   0  0  0  0  0  0  0  0  0  0  0  0
   38.7092   43.3365   42.8631 C   0  0  0  0  0  0  0  0  0  0  0  0
   36.5635   39.8229   41.2602 C   0  0  0  0  0  0  0  0  0  0  0  0
   35.7781   38.6114   41.3638 C   0  0  0  0  0  0  0  0  0  0  0  0
   35.0090   38.2393   42.4739 C   0  0  0  0  0  0  0  0  0  0  0  0
   34.3286   37.0399   42.4198 C   0  0  0  0  0  0  0  0  0  0  0  0
   34.4150   36.2860   41.2601 C   0  0  0  0  0  0  0  0  0  0  0  0
   35.2145   36.6768   40.2078 C   0  0  0  0  0  0  0  0  0  0  0  0
   47.8847   45.9128   45.9885 N   0  0  0  0  0  0  0  0  0  0  0  0
   45.6555   44.4743   44.1478 N   0  0  0  0  0  0  0  0  0  0  0  0
   37.6336   39.8747   41.9726 N   0  0  0  0  0  0  0  0  0  0  0  0
   35.8533   37.8366   40.2402 N   0  0  0  0  0  0  0  0  0  0  0  0
  1 17  2  0  0  0  0
  1 16  1  0  0  0  0
  2  3  2  0  0  0  0
  2 26  1  0  0  0  0
  3  4  1  0  0  0  0
  4  5  2  0  0  0  0
  5  6  1  0  0  0  0
  6  7  1  0  0  0  0
  6 26  2  0  0  0  0
  7 27  2  0  0  0  0
  8  9  2  0  0  0  0
  8 13  1  0  0  0  0
  8 27  1  0  0  0  0
  9 10  1  0  0  0  0
 10 11  2  0  0  0  0
 11 12  1  0  0  0  0
 11 14  1  0  0  0  0
 12 13  2  0  0  0  0
 14 15  1  0  0  0  0
 15 16  2  0  0  0  0
 15 19  1  0  0  0  0
 17 18  1  0  0  0  0
 17 28  1  0  0  0  0
 18 19  2  0  0  0  0
 20 21  1  0  0  0  0
 20 28  2  0  0  0  0
 21 22  2  0  0  0  0
 21 29  1  0  0  0  0
 22 23  1  0  0  0  0
 23 24  2  0  0  0  0
 24 25  1  0  0  0  0
 25 29  2  0  0  0  0
M  END
>  <CHROM.1>
68.69725151,96.73286099,-78.47282619,71.79569207,88.22671655,-85.95163735
41.48254281,42.58209749,42.85223139,2.67765580,0.35179271,2.99854970

>  <Name>
ligand

>  <RI>
0

>  <Rbt.Current_Directory>
/home/itssahil/PROJECTS/Mol_Feturizer/New_Systems/rnas/4JIY

>  <Rbt.Executable>
rbdock ($Id: //depot/dev/client3/rdock/2013.1/src/exe/rbdock.cxx#4 $)

>  <Rbt.Library>
libRbt.so (2013.1, Build901 2013/11/27)

>  <Rbt.Parameter_File>
/export/apps/rDock/src/rDock_2013.1_src/data/scripts/dock_solv.prm

>  <Rbt.Receptor>
prm/pocket_docking_3.prm

>  <SCORE>
9.41392

>  <SCORE.INTER>
10.6036

>  <SCORE.INTER.CONST>
1

>  <SCORE.INTER.POLAR>
0

>  <SCORE.INTER.ROT>
6

>  <SCORE.INTER.SOLV>
0.0259599

>  <SCORE.INTER.VDW>
-0.539574

>  <SCORE.INTER.norm>
0.365642

>  <SCORE.INTRA>
-1.1897

>  <SCORE.INTRA.DIHEDRAL>
0.0488281

>  <SCORE.INTRA.DIHEDRAL.0>
7.2424

>  <SCORE.INTRA.POLAR>
0

>  <SCORE.INTRA.POLAR.0>
0

>  <SCORE.INTRA.REPUL>
0

>  <SCORE.INTRA.REPUL.0>
0

>  <SCORE.INTRA.SOLV>
-0.0188337

>  <SCORE.INTRA.SOLV.lig_0>
-3.36201

>  <SCORE.INTRA.VDW>
-1.2047

>  <SCORE.INTRA.VDW.0>
-0.910526

>  <SCORE.INTRA.norm>
-0.0410241

>  <SCORE.RESTR>
0

>  <SCORE.RESTR.CAVITY>
0

>  <SCORE.RESTR.norm>
0

>  <SCORE.SYSTEM>
0

>  <SCORE.SYSTEM.CONST>
0

>  <SCORE.SYSTEM.DIHEDRAL>
0

>  <SCORE.SYSTEM.SOLV>
0

>  <SCORE.SYSTEM.norm>
0

>  <SCORE.heavy>
29

>  <SCORE.norm>
0.324618

>  <RMSD>
2.054

$$$$
ligand
 OpenBabel11021811493D
libRbt.so/2013.1/901 2013/11/27
 29 32  0  0  0  0  0  0  0  0999 V2000
   37.6763   42.3788   41.7893 C   0  0  0  0  0  0  0  0  0  0  0  0
   48.7332   44.9172   43.9940 C   0  0  0  0  0  0  0  0  0  0  0  0
   48.9444   44.9610   45.3786 C   0  0  0  0  0  0  0  0  0  0  0  0
   47.9009   45.0311   46.2343 C   0  0  0  0  0  0  0  0  0  0  0  0
   46.6202   45.1269   45.7070 C   0  0  0  0  0  0  0  0  0  0  0  0
   46.4406   45.0234   44.3530 C   0  0  0  0  0  0  0  0  0  0  0  0
   45.1527   44.9855   43.6636 C   0  0  0  0  0  0  0  0  0  0  0  0
   43.2043   46.0721   43.0045 C   0  0  0  0  0  0  0  0  0  0  0  0
   43.0576   46.2225   41.6396 C   0  0  0  0  0  0  0  0  0  0  0  0
   41.7723   46.2210   41.0948 C   0  0  0  0  0  0  0  0  0  0  0  0
   40.6595   45.9762   41.8564 C   0  0  0  0  0  0  0  0  0  0  0  0
   40.8466   45.8174   43.2465 C   0  0  0  0  0  0  0  0  0  0  0  0
   42.1054   45.9252   43.8269 C   0  0  0  0  0  0  0  0  0  0  0  0
   39.2720   45.8288   41.2355 C   0  0  0  0  0  0  0  0  0  0  0  0
   38.8507   44.3793   41.0373 C   0  0  0  0  0  0  0  0  0  0  0  0
   38.0764   43.6965   41.9401 C   0  0  0  0  0  0  0  0  0  0  0  0
   38.0757   41.7385   40.6469 C   0  0  0  0  0  0  0  0  0  0  0  0
   38.8439   42.4050   39.7569 C   0  0  0  0  0  0  0  0  0  0  0  0
   39.2540   43.7094   39.9163 C   0  0  0  0  0  0  0  0  0  0  0  0
   36.5728   40.1913   39.7878 C   0  0  0  0  0  0  0  0  0  0  0  0
   36.1304   38.8279   39.5864 C   0  0  0  0  0  0  0  0  0  0  0  0
   36.6662   37.9342   38.6502 C   0  0  0  0  0  0  0  0  0  0  0  0
   36.1191   36.6696   38.5728 C   0  0  0  0  0  0  0  0  0  0  0  0
   35.0945   36.3412   39.4463 C   0  0  0  0  0  0  0  0  0  0  0  0
   34.5761   37.2674   40.3254 C   0  0  0  0  0  0  0  0  0  0  0  0
   47.4878   44.9476   43.4906 N   0  0  0  0  0  0  0  0  0  0  0  0
   44.5394   46.1348   43.5833 N   0  0  0  0  0  0  0  0  0  0  0  0
   37.7051   40.3449   40.3792 N   0  0  0  0  0  0  0  0  0  0  0  0
   35.1088   38.4761   40.4237 N   0  0  0  0  0  0  0  0  0  0  0  0
  1 17  2  0  0  0  0
  1 16  1  0  0  0  0
  2  3  2  0  0  0  0
  2 26  1  0  0  0  0
  3  4  1  0  0  0  0
  4  5  2  0  0  0  0
  5  6  1  0  0  0  0
  6  7  1  0  0  0  0
  6 26  2  0  0  0  0
  7 27  2  0  0  0  0
  8  9  2  0  0  0  0
  8 13  1  0  0  0  0
  8 27  1  0  0  0  0
  9 10  1  0  0  0  0
 10 11  2  0  0  0  0
 11 12  1  0  0  0  0
 11 14  1  0  0  0  0
 12 13  2  0  0  0  0
 14 15  1  0  0  0  0
 15 16  2  0  0  0  0
 15 19  1  0  0  0  0
 17 18  1  0  0  0  0
 17 28  1  0  0  0  0
 18 19  2  0  0  0  0
 20 21  1  0  0  0  0
 20 28  2  0  0  0  0
 21 22  2  0  0  0  0
 21 29  1  0  0  0  0
 22 23  1  0  0  0  0
 23 24  2  0  0  0  0
 24 25  1  0  0  0  0
 25 29  2  0  0  0  0
M  END
>  <CHROM.1>
75.09234753,98.32537696,95.77528765,-73.28931279,-90.29679184,87.26899735
40.87711512,43.02026312,41.87907813,2.58597612,0.38865037,-3.09459128

>  <Name>
ligand

>  <RI>
0

>  <Rbt.Current_Directory>
/home/itssahil/PROJECTS/Mol_Feturizer/New_Systems/rnas/4JIY

>  <Rbt.Executable>
rbdock ($Id: //depot/dev/client3/rdock/2013.1/src/exe/rbdock.cxx#4 $)

>  <Rbt.Library>
libRbt.so (2013.1, Build901 2013/11/27)

>  <Rbt.Parameter_File>
/export/apps/rDock/src/rDock_2013.1_src/data/scripts/dock_solv.prm

>  <Rbt.Receptor>
prm/pocket_docking_3.prm

>  <SCORE>
9.48882

>  <SCORE.INTER>
10.7659

>  <SCORE.INTER.CONST>
1

>  <SCORE.INTER.POLAR>
0

>  <SCORE.INTER.ROT>
6

>  <SCORE.INTER.SOLV>
-4.44089e-16

>  <SCORE.INTER.VDW>
-0.422712

>  <SCORE.INTER.norm>
0.371239

>  <SCORE.INTRA>
-1.27711

>  <SCORE.INTRA.DIHEDRAL>
-0.0532184

>  <SCORE.INTRA.DIHEDRAL.0>
7.2424

>  <SCORE.INTRA.POLAR>
0

>  <SCORE.INTRA.POLAR.0>
0

>  <SCORE.INTRA.REPUL>
0

>  <SCORE.INTRA.REPUL.0>
0

>  <SCORE.INTRA.SOLV>
-0.0197214

>  <SCORE.INTRA.SOLV.lig_0>
-3.36201

>  <SCORE.INTRA.VDW>
-1.24064

>  <SCORE.INTRA.VDW.0>
-0.910526

>  <SCORE.INTRA.norm>
-0.0440384

>  <SCORE.RESTR>
0

>  <SCORE.RESTR.CAVITY>
0

>  <SCORE.RESTR.norm>
0

>  <SCORE.SYSTEM>
0

>  <SCORE.SYSTEM.CONST>
0

>  <SCORE.SYSTEM.DIHEDRAL>
0

>  <SCORE.SYSTEM.SOLV>
0

>  <SCORE.SYSTEM.norm>
0

>  <SCORE.heavy>
29

>  <SCORE.norm>
0.327201

>  <RMSD>
2.090

$$$$
ligand
 OpenBabel11021811493D
libRbt.so/2013.1/901 2013/11/27
 29 32  0  0  0  0  0  0  0  0999 V2000
   43.6060   46.3566   42.5746 C   0  0  0  0  0  0  0  0  0  0  0  0
   35.6342   37.0301   40.8408 C   0  0  0  0  0  0  0  0  0  0  0  0
   36.0066   36.2117   41.9155 C   0  0  0  0  0  0  0  0  0  0  0  0
   37.0086   36.5759   42.7459 C   0  0  0  0  0  0  0  0  0  0  0  0
   37.7034   37.7454   42.4686 C   0  0  0  0  0  0  0  0  0  0  0  0
   37.2801   38.5533   41.4467 C   0  0  0  0  0  0  0  0  0  0  0  0
   37.8310   39.8647   41.1117 C   0  0  0  0  0  0  0  0  0  0  0  0
   39.6415   41.1607   40.4383 C   0  0  0  0  0  0  0  0  0  0  0  0
   39.4607   41.7819   39.2183 C   0  0  0  0  0  0  0  0  0  0  0  0
   40.0742   43.0153   38.9916 C   0  0  0  0  0  0  0  0  0  0  0  0
   40.7668   43.6748   39.9732 C   0  0  0  0  0  0  0  0  0  0  0  0
   40.9241   43.0153   41.2113 C   0  0  0  0  0  0  0  0  0  0  0  0
   40.4164   41.7385   41.4238 C   0  0  0  0  0  0  0  0  0  0  0  0
   41.3101   45.0874   39.7686 C   0  0  0  0  0  0  0  0  0  0  0  0
   42.5473   45.3848   40.6044 C   0  0  0  0  0  0  0  0  0  0  0  0
   42.4998   46.0702   41.7914 C   0  0  0  0  0  0  0  0  0  0  0  0
   44.8162   45.9004   42.1254 C   0  0  0  0  0  0  0  0  0  0  0  0
   44.8693   45.2297   40.9533 C   0  0  0  0  0  0  0  0  0  0  0  0
   43.7710   44.9602   40.1682 C   0  0  0  0  0  0  0  0  0  0  0  0
   46.3701   45.2084   43.7055 C   0  0  0  0  0  0  0  0  0  0  0  0
   47.5355   45.4485   44.5299 C   0  0  0  0  0  0  0  0  0  0  0  0
   47.5376   46.1521   45.7412 C   0  0  0  0  0  0  0  0  0  0  0  0
   48.7403   46.3072   46.3998 C   0  0  0  0  0  0  0  0  0  0  0  0
   49.8728   45.7309   45.8466 C   0  0  0  0  0  0  0  0  0  0  0  0
   49.8267   45.0791   44.6332 C   0  0  0  0  0  0  0  0  0  0  0  0
   36.2695   38.1921   40.6135 N   0  0  0  0  0  0  0  0  0  0  0  0
   39.0539   39.8459   40.6562 N   0  0  0  0  0  0  0  0  0  0  0  0
   46.0530   46.1398   42.8765 N   0  0  0  0  0  0  0  0  0  0  0  0
   48.6742   44.9049   44.0042 N   0  0  0  0  0  0  0  0  0  0  0  0
  1 17  2  0  0  0  0
  1 16  1  0  0  0  0
  2  3  2  0  0  0  0
  2 26  1  0  0  0  0
  3  4  1  0  0  0  0
  4  5  2  0  0  0  0
  5  6  1  0  0  0  0
  6  7  1  0  0  0  0
  6 26  2  0  0  0  0
  7 27  2  0  0  0  0
  8  9  2  0  0  0  0
  8 13  1  0  0  0  0
  8 27  1  0  0  0  0
  9 10  1  0  0  0  0
 10 11  2  0  0  0  0
 11 12  1  0  0  0  0
 11 14  1  0  0  0  0
 12 13  2  0  0  0  0
 14 15  1  0  0  0  0
 15 16  2  0  0  0  0
 15 19  1  0  0  0  0
 17 18  1  0  0  0  0
 17 28  1  0  0  0  0
 18 19  2  0  0  0  0
 20 21  1  0  0  0  0
 20 28  2  0  0  0  0
 21 22  2  0  0  0  0
 21 29  1  0  0  0  0
 22 23  1  0  0  0  0
 23 24  2  0  0  0  0
 24 25  1  0  0  0  0
 25 29  2  0  0  0  0
M  END
>  <CHROM.1>
67.39826014,-152.05331165,-98.82341647,85.05912232,-88.31794057,92.08684220
42.27809323,42.83844368,42.01658297,0.29826559,-0.59395750,-0.67046383

>  <Name>
ligand

>  <RI>
0

>  <Rbt.Current_Directory>
/home/itssahil/PROJECTS/Mol_Feturizer/New_Systems/rnas/4JIY

>  <Rbt.Executable>
rbdock ($Id: //depot/dev/client3/rdock/2013.1/src/exe/rbdock.cxx#4 $)

>  <Rbt.Library>
libRbt.so (2013.1, Build901 2013/11/27)

>  <Rbt.Parameter_File>
/export/apps/rDock/src/rDock_2013.1_src/data/scripts/dock_solv.prm

>  <Rbt.Receptor>
prm/pocket_docking_3.prm

>  <SCORE>
9.3399

>  <SCORE.INTER>
10.398

>  <SCORE.INTER.CONST>
1

>  <SCORE.INTER.POLAR>
0

>  <SCORE.INTER.ROT>
6

>  <SCORE.INTER.SOLV>
0.00884528

>  <SCORE.INTER.VDW>
-0.670959

>  <SCORE.INTER.norm>
0.358551

>  <SCORE.INTRA>
-1.05809

>  <SCORE.INTRA.DIHEDRAL>
0.00940105

>  <SCORE.INTRA.DIHEDRAL.0>
7.2424

>  <SCORE.INTRA.POLAR>
0

>  <SCORE.INTRA.POLAR.0>
0

>  <SCORE.INTRA.REPUL>
0

>  <SCORE.INTRA.REPUL.0>
0

>  <SCORE.INTRA.SOLV>
-0.019665

>  <SCORE.INTRA.SOLV.lig_0>
-3.36201

>  <SCORE.INTRA.VDW>
-1.05296

>  <SCORE.INTRA.VDW.0>
-0.910526

>  <SCORE.INTRA.norm>
-0.0364858

>  <SCORE.RESTR>
0

>  <SCORE.RESTR.CAVITY>
0

>  <SCORE.RESTR.norm>
0

>  <SCORE.SYSTEM>
0

>  <SCORE.SYSTEM.CONST>
0

>  <SCORE.SYSTEM.DIHEDRAL>
0

>  <SCORE.SYSTEM.SOLV>
0

>  <SCORE.SYSTEM.norm>
0

>  <SCORE.heavy>
29

>  <SCORE.norm>
0.322065

>  <RMSD>
2.112

$$$$
ligand
 OpenBabel11021811493D
libRbt.so/2013.1/901 2013/11/27
 29 32  0  0  0  0  0  0  0  0999 V2000
   45.4326   45.5778   40.9567 C   0  0  0  0  0  0  0  0  0  0  0  0
   36.0198   37.8092   40.7823 C   0  0  0  0  0  0  0  0  0  0  0  0
   35.2960   37.7823   41.9818 C   0  0  0  0  0  0  0  0  0  0  0  0
   35.3519   38.8202   42.8454 C   0  0  0  0  0  0  0  0  0  0  0  0
   36.1952   39.8820   42.5475 C   0  0  0  0  0  0  0  0  0  0  0  0
   36.8452   39.9073   41.3420 C   0  0  0  0  0  0  0  0  0  0  0  0
   37.6665   41.0060   40.8384 C   0  0  0  0  0  0  0  0  0  0  0  0
   39.5043   42.4090   41.0933 C   0  0  0  0  0  0  0  0  0  0  0  0
   39.2419   43.6296   41.6834 C   0  0  0  0  0  0  0  0  0  0  0  0
   39.9224   44.7600   41.2272 C   0  0  0  0  0  0  0  0  0  0  0  0
   40.9123   44.6814   40.2826 C   0  0  0  0  0  0  0  0  0  0  0  0
   41.1613   43.4167   39.7072 C   0  0  0  0  0  0  0  0  0  0  0  0
   40.4198   42.2967   40.0663 C   0  0  0  0  0  0  0  0  0  0  0  0
   41.7551   45.8939   39.8929 C   0  0  0  0  0  0  0  0  0  0  0  0
   43.0478   46.0110   40.6885 C   0  0  0  0  0  0  0  0  0  0  0  0
   44.2401   45.4883   40.2572 C   0  0  0  0  0  0  0  0  0  0  0  0
   45.4016   46.2529   42.1474 C   0  0  0  0  0  0  0  0  0  0  0  0
   44.2278   46.7645   42.5798 C   0  0  0  0  0  0  0  0  0  0  0  0
   43.0404   46.6606   41.8910 C   0  0  0  0  0  0  0  0  0  0  0  0
   46.8974   45.4013   43.7055 C   0  0  0  0  0  0  0  0  0  0  0  0
   48.0274   45.5560   44.5969 C   0  0  0  0  0  0  0  0  0  0  0  0
   48.0196   46.2857   45.7926 C   0  0  0  0  0  0  0  0  0  0  0  0
   49.1890   46.3484   46.5225 C   0  0  0  0  0  0  0  0  0  0  0  0
   50.2961   45.6597   46.0524 C   0  0  0  0  0  0  0  0  0  0  0  0
   50.2650   44.9854   44.8509 C   0  0  0  0  0  0  0  0  0  0  0  0
   36.7867   38.8674   40.4695 N   0  0  0  0  0  0  0  0  0  0  0  0
   38.7520   41.2388   41.5246 N   0  0  0  0  0  0  0  0  0  0  0  0
   46.6058   46.4150   42.9688 N   0  0  0  0  0  0  0  0  0  0  0  0
   49.1418   44.8999   44.1541 N   0  0  0  0  0  0  0  0  0  0  0  0
  1 17  2  0  0  0  0
  1 16  1  0  0  0  0
  2  3  2  0  0  0  0
  2 26  1  0  0  0  0
  3  4  1  0  0  0  0
  4  5  2  0  0  0  0
  5  6  1  0  0  0  0
  6  7  1  0  0  0  0
  6 26  2  0  0  0  0
  7 27  2  0  0  0  0
  8  9  2  0  0  0  0
  8 13  1  0  0  0  0
  8 27  1  0  0  0  0
  9 10  1  0  0  0  0
 10 11  2  0  0  0  0
 11 12  1  0  0  0  0
 11 14  1  0  0  0  0
 12 13  2  0  0  0  0
 14 15  1  0  0  0  0
 15 16  2  0  0  0  0
 15 19  1  0  0  0  0
 17 18  1  0  0  0  0
 17 28  1  0  0  0  0
 18 19  2  0  0  0  0
 20 21  1  0  0  0  0
 20 28  2  0  0  0  0
 21 22  2  0  0  0  0
 21 29  1  0  0  0  0
 22 23  1  0  0  0  0
 23 24  2  0  0  0  0
 24 25  1  0  0  0  0
 25 29  2  0  0  0  0
M  END
>  <CHROM.1>
65.09738985,92.87999619,93.10192695,75.75318330,91.56576197,-81.43983502
42.40716360,43.60434580,42.17754632,0.20882869,-0.50375096,-0.70194318

>  <Name>
ligand

>  <RI>
0

>  <Rbt.Current_Directory>
/home/itssahil/PROJECTS/Mol_Feturizer/New_Systems/rnas/4JIY

>  <Rbt.Executable>
rbdock ($Id: //depot/dev/client3/rdock/2013.1/src/exe/rbdock.cxx#4 $)

>  <Rbt.Library>
libRbt.so (2013.1, Build901 2013/11/27)

>  <Rbt.Parameter_File>
/export/apps/rDock/src/rDock_2013.1_src/data/scripts/dock_solv.prm

>  <Rbt.Receptor>
prm/pocket_docking_3.prm

>  <SCORE>
9.22072

>  <SCORE.INTER>
10.3901

>  <SCORE.INTER.CONST>
1

>  <SCORE.INTER.POLAR>
0

>  <SCORE.INTER.ROT>
6

>  <SCORE.INTER.SOLV>
0.0254647

>  <SCORE.INTER.VDW>
-0.681743

>  <SCORE.INTER.norm>
0.35828

>  <SCORE.INTRA>
-1.16947

>  <SCORE.INTRA.DIHEDRAL>
0.0412954

>  <SCORE.INTRA.DIHEDRAL.0>
7.2424

>  <SCORE.INTRA.POLAR>
0

>  <SCORE.INTRA.POLAR.0>
0

>  <SCORE.INTRA.REPUL>
0

>  <SCORE.INTRA.REPUL.0>
0

>  <SCORE.INTRA.SOLV>
-0.0188283

>  <SCORE.INTRA.SOLV.lig_0>
-3.36201

>  <SCORE.INTRA.VDW>
-1.1807

>  <SCORE.INTRA.VDW.0>
-0.910526

>  <SCORE.INTRA.norm>
-0.0403265

>  <SCORE.RESTR>
6.54174e-05

>  <SCORE.RESTR.CAVITY>
6.54174e-05

>  <SCORE.RESTR.norm>
2.25577e-06

>  <SCORE.SYSTEM>
0

>  <SCORE.SYSTEM.CONST>
0

>  <SCORE.SYSTEM.DIHEDRAL>
0

>  <SCORE.SYSTEM.SOLV>
0

>  <SCORE.SYSTEM.norm>
0

>  <SCORE.heavy>
29

>  <SCORE.norm>
0.317956

>  <RMSD>
2.141

$$$$
ligand
 OpenBabel11021811493D
libRbt.so/2013.1/901 2013/11/27
 29 32  0  0  0  0  0  0  0  0999 V2000
   43.2758   44.8827   44.1683 C   0  0  0  0  0  0  0  0  0  0  0  0
   35.4415   36.7608   38.6659 C   0  0  0  0  0  0  0  0  0  0  0  0
   34.4552   36.3585   39.5764 C   0  0  0  0  0  0  0  0  0  0  0  0
   34.2032   37.0854   40.6874 C   0  0  0  0  0  0  0  0  0  0  0  0
   34.9902   38.2011   40.9386 C   0  0  0  0  0  0  0  0  0  0  0  0
   35.9067   38.6025   40.0031 C   0  0  0  0  0  0  0  0  0  0  0  0
   36.7185   39.8157   40.0698 C   0  0  0  0  0  0  0  0  0  0  0  0
   38.3941   41.0461   41.1136 C   0  0  0  0  0  0  0  0  0  0  0  0
   39.5063   41.2715   40.3267 C   0  0  0  0  0  0  0  0  0  0  0  0
   40.2362   42.4472   40.5109 C   0  0  0  0  0  0  0  0  0  0  0  0
   39.8288   43.4285   41.3766 C   0  0  0  0  0  0  0  0  0  0  0  0
   38.6824   43.1692   42.1584 C   0  0  0  0  0  0  0  0  0  0  0  0
   38.0029   41.9594   42.0720 C   0  0  0  0  0  0  0  0  0  0  0  0
   40.5460   44.7738   41.4680 C   0  0  0  0  0  0  0  0  0  0  0  0
   41.8961   44.6914   42.1667 C   0  0  0  0  0  0  0  0  0  0  0  0
   42.0622   44.9489   43.5035 C   0  0  0  0  0  0  0  0  0  0  0  0
   44.3673   44.5161   43.4274 C   0  0  0  0  0  0  0  0  0  0  0  0
   44.2099   44.2672   42.1085 C   0  0  0  0  0  0  0  0  0  0  0  0
   43.0059   44.3493   41.4461 C   0  0  0  0  0  0  0  0  0  0  0  0
   46.3293   45.5226   44.1538 C   0  0  0  0  0  0  0  0  0  0  0  0
   47.6834   45.4463   44.6599 C   0  0  0  0  0  0  0  0  0  0  0  0
   48.7835   44.9442   43.9528 C   0  0  0  0  0  0  0  0  0  0  0  0
   50.0093   44.9264   44.5864 C   0  0  0  0  0  0  0  0  0  0  0  0
   50.0929   45.4363   45.8724 C   0  0  0  0  0  0  0  0  0  0  0  0
   48.9745   45.8858   46.5405 C   0  0  0  0  0  0  0  0  0  0  0  0
   36.1584   37.8764   38.8826 N   0  0  0  0  0  0  0  0  0  0  0  0
   37.6663   39.7931   40.9668 N   0  0  0  0  0  0  0  0  0  0  0  0
   45.7008   44.4071   44.0284 N   0  0  0  0  0  0  0  0  0  0  0  0
   47.7979   45.9285   45.9338 N   0  0  0  0  0  0  0  0  0  0  0  0
  1 17  2  0  0  0  0
  1 16  1  0  0  0  0
  2  3  2  0  0  0  0
  2 26  1  0  0  0  0
  3  4  1  0  0  0  0
  4  5  2  0  0  0  0
  5  6  1  0  0  0  0
  6  7  1  0  0  0  0
  6 26  2  0  0  0  0
  7 27  2  0  0  0  0
  8  9  2  0  0  0  0
  8 13  1  0  0  0  0
  8 27  1  0  0  0  0
  9 10  1  0  0  0  0
 10 11  2  0  0  0  0
 11 12  1  0  0  0  0
 11 14  1  0  0  0  0
 12 13  2  0  0  0  0
 14 15  1  0  0  0  0
 15 16  2  0  0  0  0
 15 19  1  0  0  0  0
 17 18  1  0  0  0  0
 17 28  1  0  0  0  0
 18 19  2  0  0  0  0
 20 21  1  0  0  0  0
 20 28  2  0  0  0  0
 21 22  2  0  0  0  0
 21 29  1  0  0  0  0
 22 23  1  0  0  0  0
 23 24  2  0  0  0  0
 24 25  1  0  0  0  0
 25 29  2  0  0  0  0
M  END
>  <CHROM.1>
71.47868450,-73.44093781,-94.83126681,71.40216205,-89.11956558,-81.45990743
41.54964990,42.51068657,42.25319400,0.53321560,-0.32643382,0.10585658

>  <Name>
ligand

>  <RI>
0

>  <Rbt.Current_Directory>
/home/itssahil/PROJECTS/Mol_Feturizer/New_Systems/rnas/4JIY

>  <Rbt.Executable>
rbdock ($Id: //depot/dev/client3/rdock/2013.1/src/exe/rbdock.cxx#4 $)

>  <Rbt.Library>
libRbt.so (2013.1, Build901 2013/11/27)

>  <Rbt.Parameter_File>
/export/apps/rDock/src/rDock_2013.1_src/data/scripts/dock_solv.prm

>  <Rbt.Receptor>
prm/pocket_docking_3.prm

>  <SCORE>
9.52655

>  <SCORE.INTER>
10.6126

>  <SCORE.INTER.CONST>
1

>  <SCORE.INTER.POLAR>
0

>  <SCORE.INTER.ROT>
6

>  <SCORE.INTER.SOLV>
0.0276536

>  <SCORE.INTER.VDW>
-0.534183

>  <SCORE.INTER.norm>
0.36595

>  <SCORE.INTRA>
-1.086

>  <SCORE.INTRA.DIHEDRAL>
0.142264

>  <SCORE.INTRA.DIHEDRAL.0>
7.2424

>  <SCORE.INTRA.POLAR>
0

>  <SCORE.INTRA.POLAR.0>
0

>  <SCORE.INTRA.REPUL>
0

>  <SCORE.INTRA.REPUL.0>
0

>  <SCORE.INTRA.SOLV>
-0.0197401

>  <SCORE.INTRA.SOLV.lig_0>
-3.36201

>  <SCORE.INTRA.VDW>
-1.14726

>  <SCORE.INTRA.VDW.0>
-0.910526

>  <SCORE.INTRA.norm>
-0.0374482

>  <SCORE.RESTR>
0

>  <SCORE.RESTR.CAVITY>
0

>  <SCORE.RESTR.norm>
0

>  <SCORE.SYSTEM>
0

>  <SCORE.SYSTEM.CONST>
0

>  <SCORE.SYSTEM.DIHEDRAL>
0

>  <SCORE.SYSTEM.SOLV>
0

>  <SCORE.SYSTEM.norm>
0

>  <SCORE.heavy>
29

>  <SCORE.norm>
0.328502

>  <RMSD>
2.148

$$$$
ligand
 OpenBabel11021811493D
libRbt.so/2013.1/901 2013/11/27
 29 32  0  0  0  0  0  0  0  0999 V2000
   39.6612   41.4060   39.6049 C   0  0  0  0  0  0  0  0  0  0  0  0
   49.9652   46.4554   42.9495 C   0  0  0  0  0  0  0  0  0  0  0  0
   50.6589   45.7001   43.9044 C   0  0  0  0  0  0  0  0  0  0  0  0
   49.9946   44.9009   44.7681 C   0  0  0  0  0  0  0  0  0  0  0  0
   48.6068   44.8985   44.7310 C   0  0  0  0  0  0  0  0  0  0  0  0
   47.9587   45.6015   43.7502 C   0  0  0  0  0  0  0  0  0  0  0  0
   46.5173   45.5998   43.5099 C   0  0  0  0  0  0  0  0  0  0  0  0
   44.6356   44.5424   42.6427 C   0  0  0  0  0  0  0  0  0  0  0  0
   44.2759   44.8506   41.3456 C   0  0  0  0  0  0  0  0  0  0  0  0
   42.9204   44.9514   41.0269 C   0  0  0  0  0  0  0  0  0  0  0  0
   41.9359   44.6576   41.9340 C   0  0  0  0  0  0  0  0  0  0  0  0
   42.3392   44.3368   43.2482 C   0  0  0  0  0  0  0  0  0  0  0  0
   43.6796   44.3384   43.6174 C   0  0  0  0  0  0  0  0  0  0  0  0
   40.4602   44.6253   41.5423 C   0  0  0  0  0  0  0  0  0  0  0  0
   39.9584   43.2304   41.1956 C   0  0  0  0  0  0  0  0  0  0  0  0
   40.1061   42.6713   39.9520 C   0  0  0  0  0  0  0  0  0  0  0  0
   39.0523   40.6736   40.5885 C   0  0  0  0  0  0  0  0  0  0  0  0
   38.8989   41.2224   41.8139 C   0  0  0  0  0  0  0  0  0  0  0  0
   39.3271   42.4862   42.1525 C   0  0  0  0  0  0  0  0  0  0  0  0
   37.3797   39.2699   39.7996 C   0  0  0  0  0  0  0  0  0  0  0  0
   36.8099   37.9518   39.6168 C   0  0  0  0  0  0  0  0  0  0  0  0
   37.3655   36.9327   38.8326 C   0  0  0  0  0  0  0  0  0  0  0  0
   36.6868   35.7341   38.7495 C   0  0  0  0  0  0  0  0  0  0  0  0
   35.5125   35.5912   39.4718 C   0  0  0  0  0  0  0  0  0  0  0  0
   34.9864   36.6360   40.2005 C   0  0  0  0  0  0  0  0  0  0  0  0
   48.6245   46.4018   42.8771 N   0  0  0  0  0  0  0  0  0  0  0  0
   46.0486   44.4969   42.9928 N   0  0  0  0  0  0  0  0  0  0  0  0
   38.5481   39.3196   40.3358 N   0  0  0  0  0  0  0  0  0  0  0  0
   35.6412   37.7826   40.3053 N   0  0  0  0  0  0  0  0  0  0  0  0
  1 17  2  0  0  0  0
  1 16  1  0  0  0  0
  2  3  2  0  0  0  0
  2 26  1  0  0  0  0
  3  4  1  0  0  0  0
  4  5  2  0  0  0  0
  5  6  1  0  0  0  0
  6  7  1  0  0  0  0
  6 26  2  0  0  0  0
  7 27  2  0  0  0  0
  8  9  2  0  0  0  0
  8 13  1  0  0  0  0
  8 27  1  0  0  0  0
  9 10  1  0  0  0  0
 10 11  2  0  0  0  0
 11 12  1  0  0  0  0
 11 14  1  0  0  0  0
 12 13  2  0  0  0  0
 14 15  1  0  0  0  0
 15 16  2  0  0  0  0
 15 19  1  0  0  0  0
 17 18  1  0  0  0  0
 17 28  1  0  0  0  0
 18 19  2  0  0  0  0
 20 21  1  0  0  0  0
 20 28  2  0  0  0  0
 21 22  2  0  0  0  0
 21 29  1  0  0  0  0
 22 23  1  0  0  0  0
 23 24  2  0  0  0  0
 24 25  1  0  0  0  0
 25 29  2  0  0  0  0
M  END
>  <CHROM.1>
-72.17151099,95.36926909,-84.13397843,-60.89190116,95.38091943,-83.00733107
42.01438203,42.32596008,41.63591911,2.53334334,0.23579894,-3.01310331

>  <Name>
ligand

>  <RI>
0

>  <Rbt.Current_Directory>
/home/itssahil/PROJECTS/Mol_Feturizer/New_Systems/rnas/4JIY

>  <Rbt.Executable>
rbdock ($Id: //depot/dev/client3/rdock/2013.1/src/exe/rbdock.cxx#4 $)

>  <Rbt.Library>
libRbt.so (2013.1, Build901 2013/11/27)

>  <Rbt.Parameter_File>
/export/apps/rDock/src/rDock_2013.1_src/data/scripts/dock_solv.prm

>  <Rbt.Receptor>
prm/pocket_docking_3.prm

>  <SCORE>
9.39944

>  <SCORE.INTER>
10.5956

>  <SCORE.INTER.CONST>
1

>  <SCORE.INTER.POLAR>
0

>  <SCORE.INTER.ROT>
6

>  <SCORE.INTER.SOLV>
0.0282351

>  <SCORE.INTER.VDW>
-0.54565

>  <SCORE.INTER.norm>
0.365367

>  <SCORE.INTRA>
-1.19621

>  <SCORE.INTRA.DIHEDRAL>
0.0176482

>  <SCORE.INTRA.DIHEDRAL.0>
7.2424

>  <SCORE.INTRA.POLAR>
0

>  <SCORE.INTRA.POLAR.0>
0

>  <SCORE.INTRA.REPUL>
0

>  <SCORE.INTRA.REPUL.0>
0

>  <SCORE.INTRA.SOLV>
-0.0189628

>  <SCORE.INTRA.SOLV.lig_0>
-3.36201

>  <SCORE.INTRA.VDW>
-1.19555

>  <SCORE.INTRA.VDW.0>
-0.910526

>  <SCORE.INTRA.norm>
-0.0412485

>  <SCORE.RESTR>
0

>  <SCORE.RESTR.CAVITY>
0

>  <SCORE.RESTR.norm>
0

>  <SCORE.SYSTEM>
0

>  <SCORE.SYSTEM.CONST>
0

>  <SCORE.SYSTEM.DIHEDRAL>
0

>  <SCORE.SYSTEM.SOLV>
0

>  <SCORE.SYSTEM.norm>
0

>  <SCORE.heavy>
29

>  <SCORE.norm>
0.324118

>  <RMSD>
2.159

$$$$
ligand
 OpenBabel11021811493D
libRbt.so/2013.1/901 2013/11/27
 29 32  0  0  0  0  0  0  0  0999 V2000
   44.2865   47.0030   42.8658 C   0  0  0  0  0  0  0  0  0  0  0  0
   38.6244   37.1672   41.6897 C   0  0  0  0  0  0  0  0  0  0  0  0
   37.4352   37.0461   42.4209 C   0  0  0  0  0  0  0  0  0  0  0  0
   36.8862   38.1207   43.0293 C   0  0  0  0  0  0  0  0  0  0  0  0
   37.5639   39.3309   42.9691 C   0  0  0  0  0  0  0  0  0  0  0  0
   38.6926   39.4324   42.1998 C   0  0  0  0  0  0  0  0  0  0  0  0
   39.4425   40.6601   41.9430 C   0  0  0  0  0  0  0  0  0  0  0  0
   39.5877   42.7335   40.8985 C   0  0  0  0  0  0  0  0  0  0  0  0
   39.5076   43.8633   41.6884 C   0  0  0  0  0  0  0  0  0  0  0  0
   40.2200   45.0029   41.3105 C   0  0  0  0  0  0  0  0  0  0  0  0
   41.0727   45.0054   40.2376 C   0  0  0  0  0  0  0  0  0  0  0  0
   41.1376   43.8307   39.4575 C   0  0  0  0  0  0  0  0  0  0  0  0
   40.3536   42.7204   39.7501 C   0  0  0  0  0  0  0  0  0  0  0  0
   41.9609   46.2050   39.9144 C   0  0  0  0  0  0  0  0  0  0  0  0
   43.1940   46.2992   40.8023 C   0  0  0  0  0  0  0  0  0  0  0  0
   43.1829   46.9010   42.0346 C   0  0  0  0  0  0  0  0  0  0  0  0
   45.4524   46.4431   42.4166 C   0  0  0  0  0  0  0  0  0  0  0  0
   45.4702   45.8542   41.2003 C   0  0  0  0  0  0  0  0  0  0  0  0
   44.3764   45.7681   40.3688 C   0  0  0  0  0  0  0  0  0  0  0  0
   46.8767   45.4557   43.9614 C   0  0  0  0  0  0  0  0  0  0  0  0
   48.0324   45.4997   44.8319 C   0  0  0  0  0  0  0  0  0  0  0  0
   48.0522   46.0447   46.1222 C   0  0  0  0  0  0  0  0  0  0  0  0
   49.2435   46.0224   46.8183 C   0  0  0  0  0  0  0  0  0  0  0  0
   50.3452   45.4328   46.2187 C   0  0  0  0  0  0  0  0  0  0  0  0
   50.2856   44.9426   44.9320 C   0  0  0  0  0  0  0  0  0  0  0  0
   39.2439   38.3548   41.5827 N   0  0  0  0  0  0  0  0  0  0  0  0
   38.7977   41.5633   41.2561 N   0  0  0  0  0  0  0  0  0  0  0  0
   46.6815   46.4858   43.2158 N   0  0  0  0  0  0  0  0  0  0  0  0
   49.1419   44.9385   44.2639 N   0  0  0  0  0  0  0  0  0  0  0  0
  1 17  2  0  0  0  0
  1 16  1  0  0  0  0
  2  3  2  0  0  0  0
  2 26  1  0  0  0  0
  3  4  1  0  0  0  0
  4  5  2  0  0  0  0
  5  6  1  0  0  0  0
  6  7  1  0  0  0  0
  6 26  2  0  0  0  0
  7 27  2  0  0  0  0
  8  9  2  0  0  0  0
  8 13  1  0  0  0  0
  8 27  1  0  0  0  0
  9 10  1  0  0  0  0
 10 11  2  0  0  0  0
 11 12  1  0  0  0  0
 11 14  1  0  0  0  0
 12 13  2  0  0  0  0
 14 15  1  0  0  0  0
 15 16  2  0  0  0  0
 15 19  1  0  0  0  0
 17 18  1  0  0  0  0
 17 28  1  0  0  0  0
 18 19  2  0  0  0  0
 20 21  1  0  0  0  0
 20 28  2  0  0  0  0
 21 22  2  0  0  0  0
 21 29  1  0  0  0  0
 22 23  1  0  0  0  0
 23 24  2  0  0  0  0
 24 25  1  0  0  0  0
 25 29  2  0  0  0  0
M  END
>  <CHROM.1>
-65.48518519,77.99551378,-85.08606758,87.44795105,-96.59265563,93.48782765
42.94366680,43.58551023,42.41983694,0.34269685,-0.52056890,-0.53599317

>  <Name>
ligand

>  <RI>
0

>  <Rbt.Current_Directory>
/home/itssahil/PROJECTS/Mol_Feturizer/New_Systems/rnas/4JIY

>  <Rbt.Executable>
rbdock ($Id: //depot/dev/client3/rdock/2013.1/src/exe/rbdock.cxx#4 $)

>  <Rbt.Library>
libRbt.so (2013.1, Build901 2013/11/27)

>  <Rbt.Parameter_File>
/export/apps/rDock/src/rDock_2013.1_src/data/scripts/dock_solv.prm

>  <Rbt.Receptor>
prm/pocket_docking_3.prm

>  <SCORE>
9.20141

>  <SCORE.INTER>
10.4626

>  <SCORE.INTER.CONST>
1

>  <SCORE.INTER.POLAR>
0

>  <SCORE.INTER.ROT>
6

>  <SCORE.INTER.SOLV>
0.02849

>  <SCORE.INTER.VDW>
-0.634418

>  <SCORE.INTER.norm>
0.36078

>  <SCORE.INTRA>
-1.2612

>  <SCORE.INTRA.DIHEDRAL>
0.051259

>  <SCORE.INTRA.DIHEDRAL.0>
7.2424

>  <SCORE.INTRA.POLAR>
0

>  <SCORE.INTRA.POLAR.0>
0

>  <SCORE.INTRA.REPUL>
0

>  <SCORE.INTRA.REPUL.0>
0

>  <SCORE.INTRA.SOLV>
-0.0197498

>  <SCORE.INTRA.SOLV.lig_0>
-3.36201

>  <SCORE.INTRA.VDW>
-1.27696

>  <SCORE.INTRA.VDW.0>
-0.910526

>  <SCORE.INTRA.norm>
-0.0434898

>  <SCORE.RESTR>
0

>  <SCORE.RESTR.CAVITY>
0

>  <SCORE.RESTR.norm>
0

>  <SCORE.SYSTEM>
0

>  <SCORE.SYSTEM.CONST>
0

>  <SCORE.SYSTEM.DIHEDRAL>
0

>  <SCORE.SYSTEM.SOLV>
0

>  <SCORE.SYSTEM.norm>
0

>  <SCORE.heavy>
29

>  <SCORE.norm>
0.31729

>  <RMSD>
2.160

$$$$
ligand
 OpenBabel11021811493D
libRbt.so/2013.1/901 2013/11/27
 29 32  0  0  0  0  0  0  0  0999 V2000
   45.5942   45.6397   41.0338 C   0  0  0  0  0  0  0  0  0  0  0  0
   35.9573   38.8883   43.7435 C   0  0  0  0  0  0  0  0  0  0  0  0
   36.1189   37.5754   43.2811 C   0  0  0  0  0  0  0  0  0  0  0  0
   36.9100   37.3102   42.2182 C   0  0  0  0  0  0  0  0  0  0  0  0
   37.5037   38.3757   41.5552 C   0  0  0  0  0  0  0  0  0  0  0  0
   37.3747   39.6409   42.0640 C   0  0  0  0  0  0  0  0  0  0  0  0
   38.0352   40.8387   41.5499 C   0  0  0  0  0  0  0  0  0  0  0  0
   39.9341   42.1762   41.4214 C   0  0  0  0  0  0  0  0  0  0  0  0
   39.8801   43.2624   42.2724 C   0  0  0  0  0  0  0  0  0  0  0  0
   40.4302   44.4754   41.8541 C   0  0  0  0  0  0  0  0  0  0  0  0
   41.1085   44.5968   40.6694 C   0  0  0  0  0  0  0  0  0  0  0  0
   41.1527   43.4642   39.8281 C   0  0  0  0  0  0  0  0  0  0  0  0
   40.5168   42.2772   40.1740 C   0  0  0  0  0  0  0  0  0  0  0  0
   41.8349   45.8832   40.2826 C   0  0  0  0  0  0  0  0  0  0  0  0
   43.1895   46.0381   40.9601 C   0  0  0  0  0  0  0  0  0  0  0  0
   44.3474   45.5163   40.4426 C   0  0  0  0  0  0  0  0  0  0  0  0
   45.6563   46.3494   42.2031 C   0  0  0  0  0  0  0  0  0  0  0  0
   44.5171   46.8604   42.7203 C   0  0  0  0  0  0  0  0  0  0  0  0
   43.2765   46.7229   42.1398 C   0  0  0  0  0  0  0  0  0  0  0  0
   47.2032   45.6453   43.7847 C   0  0  0  0  0  0  0  0  0  0  0  0
   48.4019   45.8543   44.5689 C   0  0  0  0  0  0  0  0  0  0  0  0
   48.5971   46.8960   45.4849 C   0  0  0  0  0  0  0  0  0  0  0  0
   49.8082   46.9636   46.1429 C   0  0  0  0  0  0  0  0  0  0  0  0
   50.7513   45.9804   45.8883 C   0  0  0  0  0  0  0  0  0  0  0  0
   50.5266   44.9959   44.9504 C   0  0  0  0  0  0  0  0  0  0  0  0
   36.5840   39.9097   43.1357 N   0  0  0  0  0  0  0  0  0  0  0  0
   39.3071   40.9265   41.8293 N   0  0  0  0  0  0  0  0  0  0  0  0
   46.9243   46.5492   42.9126 N   0  0  0  0  0  0  0  0  0  0  0  0
   49.3595   44.9085   44.3303 N   0  0  0  0  0  0  0  0  0  0  0  0
  1 17  2  0  0  0  0
  1 16  1  0  0  0  0
  2  3  2  0  0  0  0
  2 26  1  0  0  0  0
  3  4  1  0  0  0  0
  4  5  2  0  0  0  0
  5  6  1  0  0  0  0
  6  7  1  0  0  0  0
  6 26  2  0  0  0  0
  7 27  2  0  0  0  0
  8  9  2  0  0  0  0
  8 13  1  0  0  0  0
  8 27  1  0  0  0  0
  9 10  1  0  0  0  0
 10 11  2  0  0  0  0
 11 12  1  0  0  0  0
 11 14  1  0  0  0  0
 12 13  2  0  0  0  0
 14 15  1  0  0  0  0
 15 16  2  0  0  0  0
 15 19  1  0  0  0  0
 17 18  1  0  0  0  0
 17 28  1  0  0  0  0
 18 19  2  0  0  0  0
 20 21  1  0  0  0  0
 20 28  2  0  0  0  0
 21 22  2  0  0  0  0
 21 29  1  0  0  0  0
 22 23  1  0  0  0  0
 23 24  2  0  0  0  0
 24 25  1  0  0  0  0
 25 29  2  0  0  0  0
M  END
>  <CHROM.1>
-74.60564652,79.28102807,87.09018925,65.27096845,85.97194354,-90.37994680
42.78569056,43.60313798,42.53215371,0.29162295,-0.48162982,-0.68862117

>  <Name>
ligand

>  <RI>
0

>  <Rbt.Current_Directory>
/home/itssahil/PROJECTS/Mol_Feturizer/New_Systems/rnas/4JIY

>  <Rbt.Executable>
rbdock ($Id: //depot/dev/client3/rdock/2013.1/src/exe/rbdock.cxx#4 $)

>  <Rbt.Library>
libRbt.so (2013.1, Build901 2013/11/27)

>  <Rbt.Parameter_File>
/export/apps/rDock/src/rDock_2013.1_src/data/scripts/dock_solv.prm

>  <Rbt.Receptor>
prm/pocket_docking_3.prm

>  <SCORE>
9.35346

>  <SCORE.INTER>
10.5223

>  <SCORE.INTER.CONST>
1

>  <SCORE.INTER.POLAR>
0

>  <SCORE.INTER.ROT>
6

>  <SCORE.INTER.SOLV>
0.0356416

>  <SCORE.INTER.VDW>
-0.597026

>  <SCORE.INTER.norm>
0.362837

>  <SCORE.INTRA>
-1.16883

>  <SCORE.INTRA.DIHEDRAL>
0.0442763

>  <SCORE.INTRA.DIHEDRAL.0>
7.2424

>  <SCORE.INTRA.POLAR>
0

>  <SCORE.INTRA.POLAR.0>
0

>  <SCORE.INTRA.REPUL>
0

>  <SCORE.INTRA.REPUL.0>
0

>  <SCORE.INTRA.SOLV>
-0.0189043

>  <SCORE.INTRA.SOLV.lig_0>
-3.36201

>  <SCORE.INTRA.VDW>
-1.18151

>  <SCORE.INTRA.VDW.0>
-0.910526

>  <SCORE.INTRA.norm>
-0.0403043

>  <SCORE.RESTR>
0

>  <SCORE.RESTR.CAVITY>
0

>  <SCORE.RESTR.norm>
0

>  <SCORE.SYSTEM>
0

>  <SCORE.SYSTEM.CONST>
0

>  <SCORE.SYSTEM.DIHEDRAL>
0

>  <SCORE.SYSTEM.SOLV>
0

>  <SCORE.SYSTEM.norm>
0

>  <SCORE.heavy>
29

>  <SCORE.norm>
0.322533

>  <RMSD>
2.167

$$$$
ligand
 OpenBabel11021811493D
libRbt.so/2013.1/901 2013/11/27
 29 32  0  0  0  0  0  0  0  0999 V2000
   42.9213   44.2724   42.5270 C   0  0  0  0  0  0  0  0  0  0  0  0
   36.7405   35.9375   39.9125 C   0  0  0  0  0  0  0  0  0  0  0  0
   36.7301   35.6648   38.5380 C   0  0  0  0  0  0  0  0  0  0  0  0
   37.1117   36.6042   37.6448 C   0  0  0  0  0  0  0  0  0  0  0  0
   37.4486   37.8656   38.1168 C   0  0  0  0  0  0  0  0  0  0  0  0
   37.5052   38.0855   39.4677 C   0  0  0  0  0  0  0  0  0  0  0  0
   37.9562   39.3162   40.1136 C   0  0  0  0  0  0  0  0  0  0  0  0
   37.6826   41.5962   40.4849 C   0  0  0  0  0  0  0  0  0  0  0  0
   37.3506   41.9533   41.7768 C   0  0  0  0  0  0  0  0  0  0  0  0
   37.7936   43.1809   42.2727 C   0  0  0  0  0  0  0  0  0  0  0  0
   38.6286   43.9970   41.5549 C   0  0  0  0  0  0  0  0  0  0  0  0
   38.9557   43.5968   40.2414 C   0  0  0  0  0  0  0  0  0  0  0  0
   38.4367   42.4325   39.6864 C   0  0  0  0  0  0  0  0  0  0  0  0
   39.2295   45.2664   42.1548 C   0  0  0  0  0  0  0  0  0  0  0  0
   40.6224   45.0594   42.7335 C   0  0  0  0  0  0  0  0  0  0  0  0
   41.6442   44.4748   42.0298 C   0  0  0  0  0  0  0  0  0  0  0  0
   43.1646   44.7086   43.8018 C   0  0  0  0  0  0  0  0  0  0  0  0
   42.1593   45.2797   44.5016 C   0  0  0  0  0  0  0  0  0  0  0  0
   40.8863   45.4654   44.0115 C   0  0  0  0  0  0  0  0  0  0  0  0
   45.3706   45.3943   44.0325 C   0  0  0  0  0  0  0  0  0  0  0  0
   46.7068   45.2164   44.5601 C   0  0  0  0  0  0  0  0  0  0  0  0
   47.0369   45.1522   45.9200 C   0  0  0  0  0  0  0  0  0  0  0  0
   48.3653   44.9948   46.2589 C   0  0  0  0  0  0  0  0  0  0  0  0
   49.2952   44.8746   45.2383 C   0  0  0  0  0  0  0  0  0  0  0  0
   48.9260   44.9808   43.9147 C   0  0  0  0  0  0  0  0  0  0  0  0
   37.1271   37.1410   40.3682 N   0  0  0  0  0  0  0  0  0  0  0  0
   37.1708   40.3446   39.9436 N   0  0  0  0  0  0  0  0  0  0  0  0
   44.4817   44.5523   44.4277 N   0  0  0  0  0  0  0  0  0  0  0  0
   47.6515   45.1091   43.5780 N   0  0  0  0  0  0  0  0  0  0  0  0
  1 17  2  0  0  0  0
  1 16  1  0  0  0  0
  2  3  2  0  0  0  0
  2 26  1  0  0  0  0
  3  4  1  0  0  0  0
  4  5  2  0  0  0  0
  5  6  1  0  0  0  0
  6  7  1  0  0  0  0
  6 26  2  0  0  0  0
  7 27  2  0  0  0  0
  8  9  2  0  0  0  0
  8 13  1  0  0  0  0
  8 27  1  0  0  0  0
  9 10  1  0  0  0  0
 10 11  2  0  0  0  0
 11 12  1  0  0  0  0
 11 14  1  0  0  0  0
 12 13  2  0  0  0  0
 14 15  1  0  0  0  0
 15 16  2  0  0  0  0
 15 19  1  0  0  0  0
 17 18  1  0  0  0  0
 17 28  1  0  0  0  0
 18 19  2  0  0  0  0
 20 21  1  0  0  0  0
 20 28  2  0  0  0  0
 21 22  2  0  0  0  0
 21 29  1  0  0  0  0
 22 23  1  0  0  0  0
 23 24  2  0  0  0  0
 24 25  1  0  0  0  0
 25 29  2  0  0  0  0
M  END
>  <CHROM.1>
68.31509571,94.99245934,51.58569623,-54.72043872,-91.73722095,76.98430067
41.21059079,42.49943833,42.06345373,0.69009530,-0.27082963,0.34006078

>  <Name>
ligand

>  <RI>
0

>  <Rbt.Current_Directory>
/home/itssahil/PROJECTS/Mol_Feturizer/New_Systems/rnas/4JIY

>  <Rbt.Executable>
rbdock ($Id: //depot/dev/client3/rdock/2013.1/src/exe/rbdock.cxx#4 $)

>  <Rbt.Library>
libRbt.so (2013.1, Build901 2013/11/27)

>  <Rbt.Parameter_File>
/export/apps/rDock/src/rDock_2013.1_src/data/scripts/dock_solv.prm

>  <Rbt.Receptor>
prm/pocket_docking_3.prm

>  <SCORE>
9.58917

>  <SCORE.INTER>
10.7348

>  <SCORE.INTER.CONST>
1

>  <SCORE.INTER.POLAR>
0

>  <SCORE.INTER.ROT>
6

>  <SCORE.INTER.SOLV>
0.000545

>  <SCORE.INTER.VDW>
-0.443628

>  <SCORE.INTER.norm>
0.370167

>  <SCORE.INTRA>
-1.14817

>  <SCORE.INTRA.DIHEDRAL>
-0.150362

>  <SCORE.INTRA.DIHEDRAL.0>
7.2424

>  <SCORE.INTRA.POLAR>
0

>  <SCORE.INTRA.POLAR.0>
0

>  <SCORE.INTRA.REPUL>
0

>  <SCORE.INTRA.REPUL.0>
0

>  <SCORE.INTRA.SOLV>
-0.0202514

>  <SCORE.INTRA.SOLV.lig_0>
-3.36201

>  <SCORE.INTRA.VDW>
-1.06287

>  <SCORE.INTRA.VDW.0>
-0.910526

>  <SCORE.INTRA.norm>
-0.0395922

>  <SCORE.RESTR>
0.0025115

>  <SCORE.RESTR.CAVITY>
0.0025115

>  <SCORE.RESTR.norm>
8.66034e-05

>  <SCORE.SYSTEM>
0

>  <SCORE.SYSTEM.CONST>
0

>  <SCORE.SYSTEM.DIHEDRAL>
0

>  <SCORE.SYSTEM.SOLV>
0

>  <SCORE.SYSTEM.norm>
0

>  <SCORE.heavy>
29

>  <SCORE.norm>
0.330661

>  <RMSD>
2.189

$$$$
ligand
 OpenBabel11021811493D
libRbt.so/2013.1/901 2013/11/27
 29 32  0  0  0  0  0  0  0  0999 V2000
   44.0551   45.4026   44.9412 C   0  0  0  0  0  0  0  0  0  0  0  0
   37.9481   36.0635   39.1047 C   0  0  0  0  0  0  0  0  0  0  0  0
   38.2200   34.9668   39.9335 C   0  0  0  0  0  0  0  0  0  0  0  0
   38.7345   35.1466   41.1700 C   0  0  0  0  0  0  0  0  0  0  0  0
   39.0498   36.4373   41.5724 C   0  0  0  0  0  0  0  0  0  0  0  0
   38.7197   37.4934   40.7649 C   0  0  0  0  0  0  0  0  0  0  0  0
   38.8774   38.9066   41.1014 C   0  0  0  0  0  0  0  0  0  0  0  0
   40.2721   40.7001   41.6006 C   0  0  0  0  0  0  0  0  0  0  0  0
   40.5062   40.9416   42.9399 C   0  0  0  0  0  0  0  0  0  0  0  0
   40.5997   42.2628   43.3811 C   0  0  0  0  0  0  0  0  0  0  0  0
   40.5659   43.3236   42.5140 C   0  0  0  0  0  0  0  0  0  0  0  0
   40.3348   43.0402   41.1506 C   0  0  0  0  0  0  0  0  0  0  0  0
   40.1280   41.7399   40.7041 C   0  0  0  0  0  0  0  0  0  0  0  0
   40.8159   44.7563   42.9802 C   0  0  0  0  0  0  0  0  0  0  0  0
   42.2743   45.0356   43.3161 C   0  0  0  0  0  0  0  0  0  0  0  0
   42.7359   45.1492   44.6026 C   0  0  0  0  0  0  0  0  0  0  0  0
   44.9455   45.5264   43.9085 C   0  0  0  0  0  0  0  0  0  0  0  0
   44.4946   45.4213   42.6388 C   0  0  0  0  0  0  0  0  0  0  0  0
   43.1803   45.1857   42.3038 C   0  0  0  0  0  0  0  0  0  0  0  0
   47.0538   44.7602   44.5068 C   0  0  0  0  0  0  0  0  0  0  0  0
   48.4426   44.9954   44.8407 C   0  0  0  0  0  0  0  0  0  0  0  0
   49.4718   45.2077   43.9144 C   0  0  0  0  0  0  0  0  0  0  0  0
   50.7498   45.4021   44.3972 C   0  0  0  0  0  0  0  0  0  0  0  0
   50.9406   45.4108   45.7700 C   0  0  0  0  0  0  0  0  0  0  0  0
   49.9020   45.1605   46.6406 C   0  0  0  0  0  0  0  0  0  0  0  0
   38.1974   37.3158   39.5232 N   0  0  0  0  0  0  0  0  0  0  0  0
   40.1127   39.3251   41.1474 N   0  0  0  0  0  0  0  0  0  0  0  0
   46.3682   45.7886   44.1497 N   0  0  0  0  0  0  0  0  0  0  0  0
   48.6679   44.9955   46.1889 N   0  0  0  0  0  0  0  0  0  0  0  0
  1 17  2  0  0  0  0
  1 16  1  0  0  0  0
  2  3  2  0  0  0  0
  2 26  1  0  0  0  0
  3  4  1  0  0  0  0
  4  5  2  0  0  0  0
  5  6  1  0  0  0  0
  6  7  1  0  0  0  0
  6 26  2  0  0  0  0
  7 27  2  0  0  0  0
  8  9  2  0  0  0  0
  8 13  1  0  0  0  0
  8 27  1  0  0  0  0
  9 10  1  0  0  0  0
 10 11  2  0  0  0  0
 11 12  1  0  0  0  0
 11 14  1  0  0  0  0
 12 13  2  0  0  0  0
 14 15  1  0  0  0  0
 15 16  2  0  0  0  0
 15 19  1  0  0  0  0
 17 18  1  0  0  0  0
 17 28  1  0  0  0  0
 18 19  2  0  0  0  0
 20 21  1  0  0  0  0
 20 28  2  0  0  0  0
 21 22  2  0  0  0  0
 21 29  1  0  0  0  0
 22 23  1  0  0  0  0
 23 24  2  0  0  0  0
 24 25  1  0  0  0  0
 25 29  2  0  0  0  0
M  END
>  <CHROM.1>
70.40337783,72.77060515,-105.31201270,-76.54644338,93.46928309,78.47666090
42.97385653,42.27334335,42.81689372,0.71316690,-0.28549452,0.18792317

>  <Name>
ligand

>  <RI>
0

>  <Rbt.Current_Directory>
/home/itssahil/PROJECTS/Mol_Feturizer/New_Systems/rnas/4JIY

>  <Rbt.Executable>
rbdock ($Id: //depot/dev/client3/rdock/2013.1/src/exe/rbdock.cxx#4 $)

>  <Rbt.Library>
libRbt.so (2013.1, Build901 2013/11/27)

>  <Rbt.Parameter_File>
/export/apps/rDock/src/rDock_2013.1_src/data/scripts/dock_solv.prm

>  <Rbt.Receptor>
prm/pocket_docking_3.prm

>  <SCORE>
9.34952

>  <SCORE.INTER>
10.5108

>  <SCORE.INTER.CONST>
1

>  <SCORE.INTER.POLAR>
0

>  <SCORE.INTER.ROT>
6

>  <SCORE.INTER.SOLV>
0.00123112

>  <SCORE.INTER.VDW>
-0.593184

>  <SCORE.INTER.norm>
0.362443

>  <SCORE.INTRA>
-1.16133

>  <SCORE.INTRA.DIHEDRAL>
0.102694

>  <SCORE.INTRA.DIHEDRAL.0>
7.2424

>  <SCORE.INTRA.POLAR>
0

>  <SCORE.INTRA.POLAR.0>
0

>  <SCORE.INTRA.REPUL>
0

>  <SCORE.INTRA.REPUL.0>
0

>  <SCORE.INTRA.SOLV>
-0.0188055

>  <SCORE.INTRA.SOLV.lig_0>
-3.36201

>  <SCORE.INTRA.VDW>
-1.20327

>  <SCORE.INTRA.VDW.0>
-0.910526

>  <SCORE.INTRA.norm>
-0.0400457

>  <SCORE.RESTR>
0

>  <SCORE.RESTR.CAVITY>
0

>  <SCORE.RESTR.norm>
0

>  <SCORE.SYSTEM>
0

>  <SCORE.SYSTEM.CONST>
0

>  <SCORE.SYSTEM.DIHEDRAL>
0

>  <SCORE.SYSTEM.SOLV>
0

>  <SCORE.SYSTEM.norm>
0

>  <SCORE.heavy>
29

>  <SCORE.norm>
0.322397

>  <RMSD>
2.204

$$$$
ligand
 OpenBabel11021811493D
libRbt.so/2013.1/901 2013/11/27
 29 32  0  0  0  0  0  0  0  0999 V2000
   44.4147   46.8789   42.7039 C   0  0  0  0  0  0  0  0  0  0  0  0
   34.9609   39.2165   41.1217 C   0  0  0  0  0  0  0  0  0  0  0  0
   35.3794   37.9290   41.4834 C   0  0  0  0  0  0  0  0  0  0  0  0
   36.6883   37.5942   41.4521 C   0  0  0  0  0  0  0  0  0  0  0  0
   37.5990   38.5340   40.9888 C   0  0  0  0  0  0  0  0  0  0  0  0
   37.1686   39.8014   40.6974 C   0  0  0  0  0  0  0  0  0  0  0  0
   38.0211   40.9255   40.3167 C   0  0  0  0  0  0  0  0  0  0  0  0
   39.5592   42.5631   40.9197 C   0  0  0  0  0  0  0  0  0  0  0  0
   39.1940   43.7730   41.4760 C   0  0  0  0  0  0  0  0  0  0  0  0
   39.8851   44.9256   41.0980 C   0  0  0  0  0  0  0  0  0  0  0  0
   40.9763   44.8811   40.2700 C   0  0  0  0  0  0  0  0  0  0  0  0
   41.3279   43.6265   39.7267 C   0  0  0  0  0  0  0  0  0  0  0  0
   40.5868   42.4827   40.0014 C   0  0  0  0  0  0  0  0  0  0  0  0
   41.8185   46.1207   39.9761 C   0  0  0  0  0  0  0  0  0  0  0  0
   43.1205   46.1661   40.7638 C   0  0  0  0  0  0  0  0  0  0  0  0
   43.2454   46.8191   41.9634 C   0  0  0  0  0  0  0  0  0  0  0  0
   45.5023   46.2202   42.1961 C   0  0  0  0  0  0  0  0  0  0  0  0
   45.3861   45.5803   41.0114 C   0  0  0  0  0  0  0  0  0  0  0  0
   44.2276   45.5356   40.2690 C   0  0  0  0  0  0  0  0  0  0  0  0
   46.9275   45.2663   43.7610 C   0  0  0  0  0  0  0  0  0  0  0  0
   48.1486   45.2761   44.5384 C   0  0  0  0  0  0  0  0  0  0  0  0
   49.4127   44.9050   44.0625 C   0  0  0  0  0  0  0  0  0  0  0  0
   50.4771   44.9558   44.9393 C   0  0  0  0  0  0  0  0  0  0  0  0
   50.2454   45.4025   46.2306 C   0  0  0  0  0  0  0  0  0  0  0  0
   48.9763   45.7219   46.6628 C   0  0  0  0  0  0  0  0  0  0  0  0
   35.8538   40.1422   40.7331 N   0  0  0  0  0  0  0  0  0  0  0  0
   38.8008   41.3685   41.2649 N   0  0  0  0  0  0  0  0  0  0  0  0
   46.7899   46.2107   42.8982 N   0  0  0  0  0  0  0  0  0  0  0  0
   47.9519   45.6985   45.8235 N   0  0  0  0  0  0  0  0  0  0  0  0
  1 17  2  0  0  0  0
  1 16  1  0  0  0  0
  2  3  2  0  0  0  0
  2 26  1  0  0  0  0
  3  4  1  0  0  0  0
  4  5  2  0  0  0  0
  5  6  1  0  0  0  0
  6  7  1  0  0  0  0
  6 26  2  0  0  0  0
  7 27  2  0  0  0  0
  8  9  2  0  0  0  0
  8 13  1  0  0  0  0
  8 27  1  0  0  0  0
  9 10  1  0  0  0  0
 10 11  2  0  0  0  0
 11 12  1  0  0  0  0
 11 14  1  0  0  0  0
 12 13  2  0  0  0  0
 14 15  1  0  0  0  0
 15 16  2  0  0  0  0
 15 19  1  0  0  0  0
 17 18  1  0  0  0  0
 17 28  1  0  0  0  0
 18 19  2  0  0  0  0
 20 21  1  0  0  0  0
 20 28  2  0  0  0  0
 21 22  2  0  0  0  0
 21 29  1  0  0  0  0
 22 23  1  0  0  0  0
 23 24  2  0  0  0  0
 24 25  1  0  0  0  0
 25 29  2  0  0  0  0
M  END
>  <CHROM.1>
-68.19088357,101.68256498,-93.91855109,-74.63018157,106.79382848,87.76973970
42.49755474,43.60988938,42.04895938,0.23030950,-0.49704876,-0.56791533

>  <Name>
ligand

>  <RI>
0

>  <Rbt.Current_Directory>
/home/itssahil/PROJECTS/Mol_Feturizer/New_Systems/rnas/4JIY

>  <Rbt.Executable>
rbdock ($Id: //depot/dev/client3/rdock/2013.1/src/exe/rbdock.cxx#4 $)

>  <Rbt.Library>
libRbt.so (2013.1, Build901 2013/11/27)

>  <Rbt.Parameter_File>
/export/apps/rDock/src/rDock_2013.1_src/data/scripts/dock_solv.prm

>  <Rbt.Receptor>
prm/pocket_docking_3.prm

>  <SCORE>
9.06815

>  <SCORE.INTER>
10.2095

>  <SCORE.INTER.CONST>
1

>  <SCORE.INTER.POLAR>
0

>  <SCORE.INTER.ROT>
6

>  <SCORE.INTER.SOLV>
0.0400069

>  <SCORE.INTER.VDW>
-0.806988

>  <SCORE.INTER.norm>
0.352052

>  <SCORE.INTRA>
-1.14137

>  <SCORE.INTRA.DIHEDRAL>
0.026287

>  <SCORE.INTRA.DIHEDRAL.0>
7.2424

>  <SCORE.INTRA.POLAR>
0

>  <SCORE.INTRA.POLAR.0>
0

>  <SCORE.INTRA.REPUL>
0

>  <SCORE.INTRA.REPUL.0>
0

>  <SCORE.INTRA.SOLV>
-0.0190763

>  <SCORE.INTRA.SOLV.lig_0>
-3.36201

>  <SCORE.INTRA.VDW>
-1.14497

>  <SCORE.INTRA.VDW.0>
-0.910526

>  <SCORE.INTRA.norm>
-0.0393575

>  <SCORE.RESTR>
0

>  <SCORE.RESTR.CAVITY>
0

>  <SCORE.RESTR.norm>
0

>  <SCORE.SYSTEM>
0

>  <SCORE.SYSTEM.CONST>
0

>  <SCORE.SYSTEM.DIHEDRAL>
0

>  <SCORE.SYSTEM.SOLV>
0

>  <SCORE.SYSTEM.norm>
0

>  <SCORE.heavy>
29

>  <SCORE.norm>
0.312695

>  <RMSD>
2.210

$$$$
ligand
 OpenBabel11021811493D
libRbt.so/2013.1/901 2013/11/27
 29 32  0  0  0  0  0  0  0  0999 V2000
   44.1883   46.1722   42.7790 C   0  0  0  0  0  0  0  0  0  0  0  0
   34.6714   38.5546   42.0036 C   0  0  0  0  0  0  0  0  0  0  0  0
   34.9638   37.7547   43.1163 C   0  0  0  0  0  0  0  0  0  0  0  0
   36.0827   37.9664   43.8439 C   0  0  0  0  0  0  0  0  0  0  0  0
   36.9675   38.9498   43.4229 C   0  0  0  0  0  0  0  0  0  0  0  0
   36.6276   39.7534   42.3670 C   0  0  0  0  0  0  0  0  0  0  0  0
   37.3948   40.9004   41.8863 C   0  0  0  0  0  0  0  0  0  0  0  0
   39.4031   41.7787   41.1074 C   0  0  0  0  0  0  0  0  0  0  0  0
   39.5367   42.1094   39.7734 C   0  0  0  0  0  0  0  0  0  0  0  0
   40.3547   43.1853   39.4235 C   0  0  0  0  0  0  0  0  0  0  0  0
   40.9493   43.9837   40.3654 C   0  0  0  0  0  0  0  0  0  0  0  0
   40.7841   43.6225   41.7200 C   0  0  0  0  0  0  0  0  0  0  0  0
   40.0652   42.4906   42.0874 C   0  0  0  0  0  0  0  0  0  0  0  0
   41.7214   45.2451   39.9843 C   0  0  0  0  0  0  0  0  0  0  0  0
   43.0065   45.4292   40.7794 C   0  0  0  0  0  0  0  0  0  0  0  0
   43.0369   45.9908   42.0302 C   0  0  0  0  0  0  0  0  0  0  0  0
   45.3618   45.7383   42.2230 C   0  0  0  0  0  0  0  0  0  0  0  0
   45.3381   45.1897   40.9881 C   0  0  0  0  0  0  0  0  0  0  0  0
   44.1950   45.0251   40.2388 C   0  0  0  0  0  0  0  0  0  0  0  0
   46.9205   44.9061   43.7291 C   0  0  0  0  0  0  0  0  0  0  0  0
   48.1311   45.0456   44.5104 C   0  0  0  0  0  0  0  0  0  0  0  0
   49.4340   44.9184   44.0118 C   0  0  0  0  0  0  0  0  0  0  0  0
   50.4842   45.0654   44.8948 C   0  0  0  0  0  0  0  0  0  0  0  0
   50.1956   45.3641   46.2170 C   0  0  0  0  0  0  0  0  0  0  0  0
   48.8956   45.4432   46.6678 C   0  0  0  0  0  0  0  0  0  0  0  0
   35.5007   39.5462   41.6368 N   0  0  0  0  0  0  0  0  0  0  0  0
   38.5999   40.6195   41.4714 N   0  0  0  0  0  0  0  0  0  0  0  0
   46.6407   45.8734   42.9282 N   0  0  0  0  0  0  0  0  0  0  0  0
   47.8809   45.3264   45.8245 N   0  0  0  0  0  0  0  0  0  0  0  0
  1 17  2  0  0  0  0
  1 16  1  0  0  0  0
  2  3  2  0  0  0  0
  2 26  1  0  0  0  0
  3  4  1  0  0  0  0
  4  5  2  0  0  0  0
  5  6  1  0  0  0  0
  6  7  1  0  0  0  0
  6 26  2  0  0  0  0
  7 27  2  0  0  0  0
  8  9  2  0  0  0  0
  8 13  1  0  0  0  0
  8 27  1  0  0  0  0
  9 10  1  0  0  0  0
 10 11  2  0  0  0  0
 11 12  1  0  0  0  0
 11 14  1  0  0  0  0
 12 13  2  0  0  0  0
 14 15  1  0  0  0  0
 15 16  2  0  0  0  0
 15 19  1  0  0  0  0
 17 18  1  0  0  0  0
 17 28  1  0  0  0  0
 18 19  2  0  0  0  0
 20 21  1  0  0  0  0
 20 28  2  0  0  0  0
 21 22  2  0  0  0  0
 21 29  1  0  0  0  0
 22 23  1  0  0  0  0
 23 24  2  0  0  0  0
 24 25  1  0  0  0  0
 25 29  2  0  0  0  0
M  END
>  <CHROM.1>
61.11286727,-138.77588840,-82.98783109,-73.48043329,-100.31613443,86.47017151
42.31384376,43.17344149,42.48235298,0.13607417,-0.47814359,-0.91399327

>  <Name>
ligand

>  <RI>
0

>  <Rbt.Current_Directory>
/home/itssahil/PROJECTS/Mol_Feturizer/New_Systems/rnas/4JIY

>  <Rbt.Executable>
rbdock ($Id: //depot/dev/client3/rdock/2013.1/src/exe/rbdock.cxx#4 $)

>  <Rbt.Library>
libRbt.so (2013.1, Build901 2013/11/27)

>  <Rbt.Parameter_File>
/export/apps/rDock/src/rDock_2013.1_src/data/scripts/dock_solv.prm

>  <Rbt.Receptor>
prm/pocket_docking_3.prm

>  <SCORE>
8.91668

>  <SCORE.INTER>
10.0612

>  <SCORE.INTER.CONST>
1

>  <SCORE.INTER.POLAR>
0

>  <SCORE.INTER.ROT>
6

>  <SCORE.INTER.SOLV>
0.0316382

>  <SCORE.INTER.VDW>
-0.903071

>  <SCORE.INTER.norm>
0.346938

>  <SCORE.INTRA>
-1.14453

>  <SCORE.INTRA.DIHEDRAL>
-0.0957021

>  <SCORE.INTRA.DIHEDRAL.0>
7.2424

>  <SCORE.INTRA.POLAR>
0

>  <SCORE.INTRA.POLAR.0>
0

>  <SCORE.INTRA.REPUL>
0

>  <SCORE.INTRA.REPUL.0>
0

>  <SCORE.INTRA.SOLV>
-0.0201252

>  <SCORE.INTRA.SOLV.lig_0>
-3.36201

>  <SCORE.INTRA.VDW>
-1.08661

>  <SCORE.INTRA.VDW.0>
-0.910526

>  <SCORE.INTRA.norm>
-0.0394665

>  <SCORE.RESTR>
0

>  <SCORE.RESTR.CAVITY>
0

>  <SCORE.RESTR.norm>
0

>  <SCORE.SYSTEM>
0

>  <SCORE.SYSTEM.CONST>
0

>  <SCORE.SYSTEM.DIHEDRAL>
0

>  <SCORE.SYSTEM.SOLV>
0

>  <SCORE.SYSTEM.norm>
0

>  <SCORE.heavy>
29

>  <SCORE.norm>
0.307472

>  <RMSD>
2.421

$$$$
ligand
 OpenBabel11021811493D
libRbt.so/2013.1/901 2013/11/27
 29 32  0  0  0  0  0  0  0  0999 V2000
   43.0158   44.0028   43.6010 C   0  0  0  0  0  0  0  0  0  0  0  0
   37.9414   34.9878   41.1440 C   0  0  0  0  0  0  0  0  0  0  0  0
   36.5787   34.6750   41.2372 C   0  0  0  0  0  0  0  0  0  0  0  0
   35.6638   35.6395   41.4799 C   0  0  0  0  0  0  0  0  0  0  0  0
   36.1129   36.9342   41.7018 C   0  0  0  0  0  0  0  0  0  0  0  0
   37.4434   37.2207   41.5474 C   0  0  0  0  0  0  0  0  0  0  0  0
   38.0451   38.5499   41.6288 C   0  0  0  0  0  0  0  0  0  0  0  0
   38.3464   40.6681   40.7160 C   0  0  0  0  0  0  0  0  0  0  0  0
   37.8411   41.6950   41.4887 C   0  0  0  0  0  0  0  0  0  0  0  0
   38.4709   42.9404   41.4514 C   0  0  0  0  0  0  0  0  0  0  0  0
   39.6303   43.1488   40.7510 C   0  0  0  0  0  0  0  0  0  0  0  0
   40.1244   42.0748   39.9796 C   0  0  0  0  0  0  0  0  0  0  0  0
   39.4533   40.8590   39.9135 C   0  0  0  0  0  0  0  0  0  0  0  0
   40.3960   44.4678   40.8303 C   0  0  0  0  0  0  0  0  0  0  0  0
   41.7270   44.3497   41.5600 C   0  0  0  0  0  0  0  0  0  0  0  0
   41.8215   44.1155   42.9080 C   0  0  0  0  0  0  0  0  0  0  0  0
   44.1678   44.1179   42.8699 C   0  0  0  0  0  0  0  0  0  0  0  0
   44.0800   44.3548   41.5423 C   0  0  0  0  0  0  0  0  0  0  0  0
   42.8923   44.4826   40.8582 C   0  0  0  0  0  0  0  0  0  0  0  0
   45.8664   45.0545   44.1458 C   0  0  0  0  0  0  0  0  0  0  0  0
   47.2014   45.0195   44.7043 C   0  0  0  0  0  0  0  0  0  0  0  0
   48.3865   44.9418   43.9614 C   0  0  0  0  0  0  0  0  0  0  0  0
   49.5822   44.9013   44.6491 C   0  0  0  0  0  0  0  0  0  0  0  0
   49.5486   44.9739   46.0327 C   0  0  0  0  0  0  0  0  0  0  0  0
   48.3551   45.0124   46.7207 C   0  0  0  0  0  0  0  0  0  0  0  0
   38.3648   36.2537   41.2981 N   0  0  0  0  0  0  0  0  0  0  0  0
   37.6559   39.3858   40.7051 N   0  0  0  0  0  0  0  0  0  0  0  0
   45.4887   44.0090   43.4979 N   0  0  0  0  0  0  0  0  0  0  0  0
   47.2031   45.0747   46.0701 N   0  0  0  0  0  0  0  0  0  0  0  0
  1 17  2  0  0  0  0
  1 16  1  0  0  0  0
  2  3  2  0  0  0  0
  2 26  1  0  0  0  0
  3  4  1  0  0  0  0
  4  5  2  0  0  0  0
  5  6  1  0  0  0  0
  6  7  1  0  0  0  0
  6 26  2  0  0  0  0
  7 27  2  0  0  0  0
  8  9  2  0  0  0  0
  8 13  1  0  0  0  0
  8 27  1  0  0  0  0
  9 10  1  0  0  0  0
 10 11  2  0  0  0  0
 11 12  1  0  0  0  0
 11 14  1  0  0  0  0
 12 13  2  0  0  0  0
 14 15  1  0  0  0  0
 15 16  2  0  0  0  0
 15 19  1  0  0  0  0
 17 18  1  0  0  0  0
 17 28  1  0  0  0  0
 18 19  2  0  0  0  0
 20 21  1  0  0  0  0
 20 28  2  0  0  0  0
 21 22  2  0  0  0  0
 21 29  1  0  0  0  0
 22 23  1  0  0  0  0
 23 24  2  0  0  0  0
 24 25  1  0  0  0  0
 25 29  2  0  0  0  0
M  END
>  <CHROM.1>
-64.13292023,110.52815724,-68.86357165,63.98436597,-89.04907185,-77.06987568
41.77488754,41.85824492,42.38465753,0.49175554,-0.50856829,-0.29867319

>  <Name>
ligand

>  <RI>
0

>  <Rbt.Current_Directory>
/home/itssahil/PROJECTS/Mol_Feturizer/New_Systems/rnas/4JIY

>  <Rbt.Executable>
rbdock ($Id: //depot/dev/client3/rdock/2013.1/src/exe/rbdock.cxx#4 $)

>  <Rbt.Library>
libRbt.so (2013.1, Build901 2013/11/27)

>  <Rbt.Parameter_File>
/export/apps/rDock/src/rDock_2013.1_src/data/scripts/dock_solv.prm

>  <Rbt.Receptor>
prm/pocket_docking_3.prm

>  <SCORE>
9.37126

>  <SCORE.INTER>
10.5694

>  <SCORE.INTER.CONST>
1

>  <SCORE.INTER.POLAR>
0

>  <SCORE.INTER.ROT>
6

>  <SCORE.INTER.SOLV>
0.0170658

>  <SCORE.INTER.VDW>
-0.559447

>  <SCORE.INTER.norm>
0.364461

>  <SCORE.INTRA>
-1.1981

>  <SCORE.INTRA.DIHEDRAL>
-0.075345

>  <SCORE.INTRA.DIHEDRAL.0>
7.2424

>  <SCORE.INTRA.POLAR>
0

>  <SCORE.INTRA.POLAR.0>
0

>  <SCORE.INTRA.REPUL>
0

>  <SCORE.INTRA.REPUL.0>
0

>  <SCORE.INTRA.SOLV>
-0.0202335

>  <SCORE.INTRA.SOLV.lig_0>
-3.36201

>  <SCORE.INTRA.VDW>
-1.15031

>  <SCORE.INTRA.VDW.0>
-0.910526

>  <SCORE.INTRA.norm>
-0.0413139

>  <SCORE.RESTR>
0

>  <SCORE.RESTR.CAVITY>
0

>  <SCORE.RESTR.norm>
0

>  <SCORE.SYSTEM>
0

>  <SCORE.SYSTEM.CONST>
0

>  <SCORE.SYSTEM.DIHEDRAL>
0

>  <SCORE.SYSTEM.SOLV>
0

>  <SCORE.SYSTEM.norm>
0

>  <SCORE.heavy>
29

>  <SCORE.norm>
0.323147

>  <RMSD>
2.453

$$$$
ligand
 OpenBabel11021811493D
libRbt.so/2013.1/901 2013/11/27
 29 32  0  0  0  0  0  0  0  0999 V2000
   44.1990   46.4793   41.0950 C   0  0  0  0  0  0  0  0  0  0  0  0
   37.1884   37.2007   38.8731 C   0  0  0  0  0  0  0  0  0  0  0  0
   37.8955   36.4049   37.9618 C   0  0  0  0  0  0  0  0  0  0  0  0
   39.0712   36.8254   37.4451 C   0  0  0  0  0  0  0  0  0  0  0  0
   39.5268   38.0917   37.7863 C   0  0  0  0  0  0  0  0  0  0  0  0
   38.8448   38.8224   38.7229 C   0  0  0  0  0  0  0  0  0  0  0  0
   39.2632   40.1113   39.2697 C   0  0  0  0  0  0  0  0  0  0  0  0
   38.9267   42.4047   39.4661 C   0  0  0  0  0  0  0  0  0  0  0  0
   38.5699   42.8610   40.7197 C   0  0  0  0  0  0  0  0  0  0  0  0
   38.9805   44.1350   41.1161 C   0  0  0  0  0  0  0  0  0  0  0  0
   39.8078   44.9065   40.3424 C   0  0  0  0  0  0  0  0  0  0  0  0
   40.1609   44.4054   39.0709 C   0  0  0  0  0  0  0  0  0  0  0  0
   39.6739   43.1877   38.6093 C   0  0  0  0  0  0  0  0  0  0  0  0
   40.3739   46.2344   40.8409 C   0  0  0  0  0  0  0  0  0  0  0  0
   41.8008   46.1250   41.3602 C   0  0  0  0  0  0  0  0  0  0  0  0
   42.8894   46.5642   40.6510 C   0  0  0  0  0  0  0  0  0  0  0  0
   44.3970   45.9338   42.3351 C   0  0  0  0  0  0  0  0  0  0  0  0
   43.3282   45.4939   43.0354 C   0  0  0  0  0  0  0  0  0  0  0  0
   42.0290   45.5644   42.5857 C   0  0  0  0  0  0  0  0  0  0  0  0
   46.4327   44.8224   42.4395 C   0  0  0  0  0  0  0  0  0  0  0  0
   47.7297   44.6027   43.0437 C   0  0  0  0  0  0  0  0  0  0  0  0
   47.9483   44.0220   44.2996 C   0  0  0  0  0  0  0  0  0  0  0  0
   49.2504   43.8978   44.7396 C   0  0  0  0  0  0  0  0  0  0  0  0
   50.2710   44.3217   43.9033 C   0  0  0  0  0  0  0  0  0  0  0  0
   50.0038   44.9207   42.6912 C   0  0  0  0  0  0  0  0  0  0  0  0
   37.6651   38.3997   39.2480 N   0  0  0  0  0  0  0  0  0  0  0  0
   38.4485   41.1013   39.0256 N   0  0  0  0  0  0  0  0  0  0  0  0
   45.7403   45.8000   42.9086 N   0  0  0  0  0  0  0  0  0  0  0  0
   48.7594   45.0241   42.2495 N   0  0  0  0  0  0  0  0  0  0  0  0
  1 17  2  0  0  0  0
  1 16  1  0  0  0  0
  2  3  2  0  0  0  0
  2 26  1  0  0  0  0
  3  4  1  0  0  0  0
  4  5  2  0  0  0  0
  5  6  1  0  0  0  0
  6  7  1  0  0  0  0
  6 26  2  0  0  0  0
  7 27  2  0  0  0  0
  8  9  2  0  0  0  0
  8 13  1  0  0  0  0
  8 27  1  0  0  0  0
  9 10  1  0  0  0  0
 10 11  2  0  0  0  0
 11 12  1  0  0  0  0
 11 14  1  0  0  0  0
 12 13  2  0  0  0  0
 14 15  1  0  0  0  0
 15 16  2  0  0  0  0
 15 19  1  0  0  0  0
 17 18  1  0  0  0  0
 17 28  1  0  0  0  0
 18 19  2  0  0  0  0
 20 21  1  0  0  0  0
 20 28  2  0  0  0  0
 21 22  2  0  0  0  0
 21 29  1  0  0  0  0
 22 23  1  0  0  0  0
 23 24  2  0  0  0  0
 24 25  1  0  0  0  0
 25 29  2  0  0  0  0
M  END
>  <CHROM.1>
117.67411314,99.09964662,104.13993944,75.35787545,-92.85554253,-77.37225332
42.38265157,43.06130719,40.88965328,0.60345834,-0.31833641,0.21445604

>  <Name>
ligand

>  <RI>
0

>  <Rbt.Current_Directory>
/home/itssahil/PROJECTS/Mol_Feturizer/New_Systems/rnas/4JIY

>  <Rbt.Executable>
rbdock ($Id: //depot/dev/client3/rdock/2013.1/src/exe/rbdock.cxx#4 $)

>  <Rbt.Library>
libRbt.so (2013.1, Build901 2013/11/27)

>  <Rbt.Parameter_File>
/export/apps/rDock/src/rDock_2013.1_src/data/scripts/dock_solv.prm

>  <Rbt.Receptor>
prm/pocket_docking_4.prm

>  <SCORE>
6.82426

>  <SCORE.INTER>
7.78207

>  <SCORE.INTER.CONST>
1

>  <SCORE.INTER.POLAR>
0

>  <SCORE.INTER.ROT>
6

>  <SCORE.INTER.SOLV>
0.230278

>  <SCORE.INTER.VDW>
-2.48871

>  <SCORE.INTER.norm>
0.268347

>  <SCORE.INTRA>
-0.960029

>  <SCORE.INTRA.DIHEDRAL>
0.412398

>  <SCORE.INTRA.DIHEDRAL.0>
7.2424

>  <SCORE.INTRA.POLAR>
0

>  <SCORE.INTRA.POLAR.0>
0

>  <SCORE.INTRA.REPUL>
0

>  <SCORE.INTRA.REPUL.0>
0

>  <SCORE.INTRA.SOLV>
-0.0165538

>  <SCORE.INTRA.SOLV.lig_0>
-3.36201

>  <SCORE.INTRA.VDW>
-1.15795

>  <SCORE.INTRA.VDW.0>
-0.910526

>  <SCORE.INTRA.norm>
-0.0331044

>  <SCORE.RESTR>
0.00222151

>  <SCORE.RESTR.CAVITY>
0.00222151

>  <SCORE.RESTR.norm>
7.66037e-05

>  <SCORE.SYSTEM>
0

>  <SCORE.SYSTEM.CONST>
0

>  <SCORE.SYSTEM.DIHEDRAL>
0

>  <SCORE.SYSTEM.SOLV>
0

>  <SCORE.SYSTEM.norm>
0

>  <SCORE.heavy>
29

>  <SCORE.norm>
0.235319

>  <RMSD>
2.570

$$$$
ligand
 OpenBabel11021811503D
libRbt.so/2013.1/901 2013/11/27
 29 32  0  0  0  0  0  0  0  0999 V2000
   39.7527   43.4545   39.0234 C   0  0  0  0  0  0  0  0  0  0  0  0
   46.8742   46.0590   47.3657 C   0  0  0  0  0  0  0  0  0  0  0  0
   48.1680   46.5848   47.4815 C   0  0  0  0  0  0  0  0  0  0  0  0
   48.9256   46.8024   46.3839 C   0  0  0  0  0  0  0  0  0  0  0  0
   48.4177   46.4298   45.1468 C   0  0  0  0  0  0  0  0  0  0  0  0
   47.1295   45.9726   45.0584 C   0  0  0  0  0  0  0  0  0  0  0  0
   46.4192   45.6570   43.8209 C   0  0  0  0  0  0  0  0  0  0  0  0
   45.3641   46.3839   41.8794 C   0  0  0  0  0  0  0  0  0  0  0  0
   45.9865   45.9560   40.7234 C   0  0  0  0  0  0  0  0  0  0  0  0
   45.2117   45.7273   39.5848 C   0  0  0  0  0  0  0  0  0  0  0  0
   43.8443   45.8179   39.6049 C   0  0  0  0  0  0  0  0  0  0  0  0
   43.2401   46.2487   40.8057 C   0  0  0  0  0  0  0  0  0  0  0  0
   43.9995   46.5889   41.9195 C   0  0  0  0  0  0  0  0  0  0  0  0
   42.9909   45.4248   38.4009 C   0  0  0  0  0  0  0  0  0  0  0  0
   42.0203   44.2893   38.6945 C   0  0  0  0  0  0  0  0  0  0  0  0
   40.6617   44.4658   38.7587 C   0  0  0  0  0  0  0  0  0  0  0  0
   40.2634   42.1983   39.2125 C   0  0  0  0  0  0  0  0  0  0  0  0
   41.6019   42.0201   39.1562 C   0  0  0  0  0  0  0  0  0  0  0  0
   42.5049   43.0294   38.9092 C   0  0  0  0  0  0  0  0  0  0  0  0
   39.1697   40.8353   40.7410 C   0  0  0  0  0  0  0  0  0  0  0  0
   38.3893   39.6591   41.0621 C   0  0  0  0  0  0  0  0  0  0  0  0
   37.0172   39.5095   40.8229 C   0  0  0  0  0  0  0  0  0  0  0  0
   36.4169   38.3269   41.2043 C   0  0  0  0  0  0  0  0  0  0  0  0
   37.2080   37.3400   41.7708 C   0  0  0  0  0  0  0  0  0  0  0  0
   38.5474   37.5484   42.0197 C   0  0  0  0  0  0  0  0  0  0  0  0
   46.3636   45.7577   46.1599 N   0  0  0  0  0  0  0  0  0  0  0  0
   46.1764   46.6824   43.0508 N   0  0  0  0  0  0  0  0  0  0  0  0
   39.3938   41.0509   39.4925 N   0  0  0  0  0  0  0  0  0  0  0  0
   39.1380   38.6705   41.6370 N   0  0  0  0  0  0  0  0  0  0  0  0
  1 17  2  0  0  0  0
  1 16  1  0  0  0  0
  2  3  2  0  0  0  0
  2 26  1  0  0  0  0
  3  4  1  0  0  0  0
  4  5  2  0  0  0  0
  5  6  1  0  0  0  0
  6  7  1  0  0  0  0
  6 26  2  0  0  0  0
  7 27  2  0  0  0  0
  8  9  2  0  0  0  0
  8 13  1  0  0  0  0
  8 27  1  0  0  0  0
  9 10  1  0  0  0  0
 10 11  2  0  0  0  0
 11 12  1  0  0  0  0
 11 14  1  0  0  0  0
 12 13  2  0  0  0  0
 14 15  1  0  0  0  0
 15 16  2  0  0  0  0
 15 19  1  0  0  0  0
 17 18  1  0  0  0  0
 17 28  1  0  0  0  0
 18 19  2  0  0  0  0
 20 21  1  0  0  0  0
 20 28  2  0  0  0  0
 21 22  2  0  0  0  0
 21 29  1  0  0  0  0
 22 23  1  0  0  0  0
 23 24  2  0  0  0  0
 24 25  1  0  0  0  0
 25 29  2  0  0  0  0
M  END
>  <CHROM.1>
-66.42359960,119.19026881,110.34051027,-71.32425751,-87.40828848,-90.24809138
42.80021520,43.59886380,41.72410564,-3.09223799,0.74015471,2.05638698

>  <Name>
ligand

>  <RI>
0

>  <Rbt.Current_Directory>
/home/itssahil/PROJECTS/Mol_Feturizer/New_Systems/rnas/4JIY

>  <Rbt.Executable>
rbdock ($Id: //depot/dev/client3/rdock/2013.1/src/exe/rbdock.cxx#4 $)

>  <Rbt.Library>
libRbt.so (2013.1, Build901 2013/11/27)

>  <Rbt.Parameter_File>
/export/apps/rDock/src/rDock_2013.1_src/data/scripts/dock_solv.prm

>  <Rbt.Receptor>
prm/pocket_docking_4.prm

>  <SCORE>
7.66731

>  <SCORE.INTER>
8.83379

>  <SCORE.INTER.CONST>
1

>  <SCORE.INTER.POLAR>
0

>  <SCORE.INTER.ROT>
6

>  <SCORE.INTER.SOLV>
0.404824

>  <SCORE.INTER.VDW>
-1.84575

>  <SCORE.INTER.norm>
0.304614

>  <SCORE.INTRA>
-1.16649

>  <SCORE.INTRA.DIHEDRAL>
0.0273365

>  <SCORE.INTRA.DIHEDRAL.0>
7.2424

>  <SCORE.INTRA.POLAR>
0

>  <SCORE.INTRA.POLAR.0>
0

>  <SCORE.INTRA.REPUL>
0

>  <SCORE.INTRA.REPUL.0>
0

>  <SCORE.INTRA.SOLV>
-0.0199008

>  <SCORE.INTRA.SOLV.lig_0>
-3.36201

>  <SCORE.INTRA.VDW>
-1.1702

>  <SCORE.INTRA.VDW.0>
-0.910526

>  <SCORE.INTRA.norm>
-0.0402237

>  <SCORE.RESTR>
0

>  <SCORE.RESTR.CAVITY>
0

>  <SCORE.RESTR.norm>
0

>  <SCORE.SYSTEM>
0

>  <SCORE.SYSTEM.CONST>
0

>  <SCORE.SYSTEM.DIHEDRAL>
0

>  <SCORE.SYSTEM.SOLV>
0

>  <SCORE.SYSTEM.norm>
0

>  <SCORE.heavy>
29

>  <SCORE.norm>
0.26439

>  <RMSD>
2.762

$$$$
ligand
 OpenBabel11021811493D
libRbt.so/2013.1/901 2013/11/27
 29 32  0  0  0  0  0  0  0  0999 V2000
   39.7035   40.6411   41.5755 C   0  0  0  0  0  0  0  0  0  0  0  0
   50.0834   44.9880   42.7151 C   0  0  0  0  0  0  0  0  0  0  0  0
   50.6094   44.4806   43.9108 C   0  0  0  0  0  0  0  0  0  0  0  0
   49.8075   43.8811   44.8183 C   0  0  0  0  0  0  0  0  0  0  0  0
   48.4425   43.8408   44.5683 C   0  0  0  0  0  0  0  0  0  0  0  0
   47.9649   44.2925   43.3666 C   0  0  0  0  0  0  0  0  0  0  0  0
   46.5786   44.2063   42.9126 C   0  0  0  0  0  0  0  0  0  0  0  0
   44.3757   44.9382   43.0629 C   0  0  0  0  0  0  0  0  0  0  0  0
   43.9021   45.5478   41.9179 C   0  0  0  0  0  0  0  0  0  0  0  0
   42.5454   45.4386   41.6071 C   0  0  0  0  0  0  0  0  0  0  0  0
   41.6895   44.6648   42.3467 C   0  0  0  0  0  0  0  0  0  0  0  0
   42.2091   44.0482   43.5053 C   0  0  0  0  0  0  0  0  0  0  0  0
   43.5306   44.2328   43.8958 C   0  0  0  0  0  0  0  0  0  0  0  0
   40.2419   44.4288   41.9213 C   0  0  0  0  0  0  0  0  0  0  0  0
   39.7641   43.0051   42.1714 C   0  0  0  0  0  0  0  0  0  0  0  0
   40.1206   41.9469   41.3750 C   0  0  0  0  0  0  0  0  0  0  0  0
   38.8965   40.4092   42.6570 C   0  0  0  0  0  0  0  0  0  0  0  0
   38.5374   41.4495   43.4413 C   0  0  0  0  0  0  0  0  0  0  0  0
   38.9398   42.7491   43.2311 C   0  0  0  0  0  0  0  0  0  0  0  0
   37.2935   38.7504   42.3941 C   0  0  0  0  0  0  0  0  0  0  0  0
   36.7255   37.4666   42.7469 C   0  0  0  0  0  0  0  0  0  0  0  0
   37.2578   36.2213   42.3889 C   0  0  0  0  0  0  0  0  0  0  0  0
   36.5838   35.0868   42.7926 C   0  0  0  0  0  0  0  0  0  0  0  0
   35.4381   35.2390   43.5574 C   0  0  0  0  0  0  0  0  0  0  0  0
   34.9330   36.4867   43.8532 C   0  0  0  0  0  0  0  0  0  0  0  0
   48.7697   44.8910   42.4500 N   0  0  0  0  0  0  0  0  0  0  0  0
   45.7776   45.1016   43.4226 N   0  0  0  0  0  0  0  0  0  0  0  0
   38.4005   39.0648   42.9695 N   0  0  0  0  0  0  0  0  0  0  0  0
   35.5842   37.5815   43.4903 N   0  0  0  0  0  0  0  0  0  0  0  0
  1 17  2  0  0  0  0
  1 16  1  0  0  0  0
  2  3  2  0  0  0  0
  2 26  1  0  0  0  0
  3  4  1  0  0  0  0
  4  5  2  0  0  0  0
  5  6  1  0  0  0  0
  6  7  1  0  0  0  0
  6 26  2  0  0  0  0
  7 27  2  0  0  0  0
  8  9  2  0  0  0  0
  8 13  1  0  0  0  0
  8 27  1  0  0  0  0
  9 10  1  0  0  0  0
 10 11  2  0  0  0  0
 11 12  1  0  0  0  0
 11 14  1  0  0  0  0
 12 13  2  0  0  0  0
 14 15  1  0  0  0  0
 15 16  2  0  0  0  0
 15 19  1  0  0  0  0
 17 18  1  0  0  0  0
 17 28  1  0  0  0  0
 18 19  2  0  0  0  0
 20 21  1  0  0  0  0
 20 28  2  0  0  0  0
 21 22  2  0  0  0  0
 21 29  1  0  0  0  0
 22 23  1  0  0  0  0
 23 24  2  0  0  0  0
 24 25  1  0  0  0  0
 25 29  2  0  0  0  0
M  END
>  <CHROM.1>
78.39919794,140.70183616,-76.38995876,-69.80611844,-89.04201506,-88.20021819
41.88296142,41.90576528,42.92937705,2.59203573,0.16479274,2.93102681

>  <Name>
ligand

>  <RI>
0

>  <Rbt.Current_Directory>
/home/itssahil/PROJECTS/Mol_Feturizer/New_Systems/rnas/4JIY

>  <Rbt.Executable>
rbdock ($Id: //depot/dev/client3/rdock/2013.1/src/exe/rbdock.cxx#4 $)

>  <Rbt.Library>
libRbt.so (2013.1, Build901 2013/11/27)

>  <Rbt.Parameter_File>
/export/apps/rDock/src/rDock_2013.1_src/data/scripts/dock_solv.prm

>  <Rbt.Receptor>
prm/pocket_docking_4.prm

>  <SCORE>
6.59201

>  <SCORE.INTER>
7.58921

>  <SCORE.INTER.CONST>
1

>  <SCORE.INTER.POLAR>
0

>  <SCORE.INTER.ROT>
6

>  <SCORE.INTER.SOLV>
0.321494

>  <SCORE.INTER.VDW>
-2.64769

>  <SCORE.INTER.norm>
0.261697

>  <SCORE.INTRA>
-1.00621

>  <SCORE.INTRA.DIHEDRAL>
0.239254

>  <SCORE.INTRA.DIHEDRAL.0>
7.2424

>  <SCORE.INTRA.POLAR>
0

>  <SCORE.INTRA.POLAR.0>
0

>  <SCORE.INTRA.REPUL>
0

>  <SCORE.INTRA.REPUL.0>
0

>  <SCORE.INTRA.SOLV>
-0.0193781

>  <SCORE.INTRA.SOLV.lig_0>
-3.36201

>  <SCORE.INTRA.VDW>
-1.11615

>  <SCORE.INTRA.VDW.0>
-0.910526

>  <SCORE.INTRA.norm>
-0.034697

>  <SCORE.RESTR>
0.00900692

>  <SCORE.RESTR.CAVITY>
0.00900692

>  <SCORE.RESTR.norm>
0.000310583

>  <SCORE.SYSTEM>
0

>  <SCORE.SYSTEM.CONST>
0

>  <SCORE.SYSTEM.DIHEDRAL>
0

>  <SCORE.SYSTEM.SOLV>
0

>  <SCORE.SYSTEM.norm>
0

>  <SCORE.heavy>
29

>  <SCORE.norm>
0.227311

>  <RMSD>
2.772

$$$$
ligand
 OpenBabel11021811503D
libRbt.so/2013.1/901 2013/11/27
 29 32  0  0  0  0  0  0  0  0999 V2000
   39.7747   42.0709   37.9456 C   0  0  0  0  0  0  0  0  0  0  0  0
   49.2815   43.9120   44.2958 C   0  0  0  0  0  0  0  0  0  0  0  0
   50.1957   44.9466   44.0563 C   0  0  0  0  0  0  0  0  0  0  0  0
   49.8741   45.9781   43.2447 C   0  0  0  0  0  0  0  0  0  0  0  0
   48.6439   45.9533   42.6019 C   0  0  0  0  0  0  0  0  0  0  0  0
   47.7489   44.9601   42.8998 C   0  0  0  0  0  0  0  0  0  0  0  0
   46.3793   44.8673   42.3988 C   0  0  0  0  0  0  0  0  0  0  0  0
   44.8150   45.3629   40.7500 C   0  0  0  0  0  0  0  0  0  0  0  0
   43.9112   46.1820   41.3974 C   0  0  0  0  0  0  0  0  0  0  0  0
   42.5718   46.1521   41.0047 C   0  0  0  0  0  0  0  0  0  0  0  0
   42.1438   45.4113   39.9340 C   0  0  0  0  0  0  0  0  0  0  0  0
   43.0960   44.5927   39.2892 C   0  0  0  0  0  0  0  0  0  0  0  0
   44.4119   44.5217   39.7324 C   0  0  0  0  0  0  0  0  0  0  0  0
   40.7096   45.4943   39.4158 C   0  0  0  0  0  0  0  0  0  0  0  0
   40.0599   44.1318   39.2176 C   0  0  0  0  0  0  0  0  0  0  0  0
   40.3478   43.3147   38.1544 C   0  0  0  0  0  0  0  0  0  0  0  0
   38.8769   41.6385   38.8846 C   0  0  0  0  0  0  0  0  0  0  0  0
   38.5852   42.4425   39.9309 C   0  0  0  0  0  0  0  0  0  0  0  0
   39.1437   43.6853   40.1282 C   0  0  0  0  0  0  0  0  0  0  0  0
   38.8740   39.3479   39.2632 C   0  0  0  0  0  0  0  0  0  0  0  0
   38.2940   38.0331   39.0890 C   0  0  0  0  0  0  0  0  0  0  0  0
   37.1528   37.5593   39.7487 C   0  0  0  0  0  0  0  0  0  0  0  0
   36.7366   36.2709   39.4820 C   0  0  0  0  0  0  0  0  0  0  0  0
   37.4481   35.5285   38.5528 C   0  0  0  0  0  0  0  0  0  0  0  0
   38.5868   36.0258   37.9567 C   0  0  0  0  0  0  0  0  0  0  0  0
   48.0678   43.9245   43.7195 N   0  0  0  0  0  0  0  0  0  0  0  0
   46.2008   45.3462   41.1979 N   0  0  0  0  0  0  0  0  0  0  0  0
   38.2138   40.3354   38.7690 N   0  0  0  0  0  0  0  0  0  0  0  0
   38.9817   37.2687   38.1883 N   0  0  0  0  0  0  0  0  0  0  0  0
  1 17  2  0  0  0  0
  1 16  1  0  0  0  0
  2  3  2  0  0  0  0
  2 26  1  0  0  0  0
  3  4  1  0  0  0  0
  4  5  2  0  0  0  0
  5  6  1  0  0  0  0
  6  7  1  0  0  0  0
  6 26  2  0  0  0  0
  7 27  2  0  0  0  0
  8  9  2  0  0  0  0
  8 13  1  0  0  0  0
  8 27  1  0  0  0  0
  9 10  1  0  0  0  0
 10 11  2  0  0  0  0
 11 12  1  0  0  0  0
 11 14  1  0  0  0  0
 12 13  2  0  0  0  0
 14 15  1  0  0  0  0
 15 16  2  0  0  0  0
 15 19  1  0  0  0  0
 17 18  1  0  0  0  0
 17 28  1  0  0  0  0
 18 19  2  0  0  0  0
 20 21  1  0  0  0  0
 20 28  2  0  0  0  0
 21 22  2  0  0  0  0
 21 29  1  0  0  0  0
 22 23  1  0  0  0  0
 23 24  2  0  0  0  0
 24 25  1  0  0  0  0
 25 29  2  0  0  0  0
M  END
>  <CHROM.1>
32.36107745,-130.80246632,-76.30953370,-71.29466269,65.71969378,86.28246934
42.38637972,42.58919409,40.38672593,2.60117495,0.44620217,3.03090312

>  <Name>
ligand

>  <RI>
0

>  <Rbt.Current_Directory>
/home/itssahil/PROJECTS/Mol_Feturizer/New_Systems/rnas/4JIY

>  <Rbt.Executable>
rbdock ($Id: //depot/dev/client3/rdock/2013.1/src/exe/rbdock.cxx#4 $)

>  <Rbt.Library>
libRbt.so (2013.1, Build901 2013/11/27)

>  <Rbt.Parameter_File>
/export/apps/rDock/src/rDock_2013.1_src/data/scripts/dock_solv.prm

>  <Rbt.Receptor>
prm/pocket_docking_4.prm

>  <SCORE>
6.9585

>  <SCORE.INTER>
7.69193

>  <SCORE.INTER.CONST>
1

>  <SCORE.INTER.POLAR>
0

>  <SCORE.INTER.ROT>
6

>  <SCORE.INTER.SOLV>
0.281246

>  <SCORE.INTER.VDW>
-2.5658

>  <SCORE.INTER.norm>
0.265239

>  <SCORE.INTRA>
-0.73343

>  <SCORE.INTRA.DIHEDRAL>
0.214713

>  <SCORE.INTRA.DIHEDRAL.0>
7.2424

>  <SCORE.INTRA.POLAR>
0

>  <SCORE.INTRA.POLAR.0>
0

>  <SCORE.INTRA.REPUL>
0

>  <SCORE.INTRA.REPUL.0>
0

>  <SCORE.INTRA.SOLV>
-0.0192848

>  <SCORE.INTRA.SOLV.lig_0>
-3.36201

>  <SCORE.INTRA.VDW>
-0.831144

>  <SCORE.INTRA.VDW.0>
-0.910526

>  <SCORE.INTRA.norm>
-0.0252907

>  <SCORE.RESTR>
0

>  <SCORE.RESTR.CAVITY>
0

>  <SCORE.RESTR.norm>
0

>  <SCORE.SYSTEM>
0

>  <SCORE.SYSTEM.CONST>
0

>  <SCORE.SYSTEM.DIHEDRAL>
0

>  <SCORE.SYSTEM.SOLV>
0

>  <SCORE.SYSTEM.norm>
0

>  <SCORE.heavy>
29

>  <SCORE.norm>
0.239948

>  <RMSD>
2.918

$$$$
ligand
 OpenBabel11021811503D
libRbt.so/2013.1/901 2013/11/27
 29 32  0  0  0  0  0  0  0  0999 V2000
   44.5060   45.3172   42.2983 C   0  0  0  0  0  0  0  0  0  0  0  0
   35.4330   37.9520   39.8383 C   0  0  0  0  0  0  0  0  0  0  0  0
   35.8806   36.6658   39.5083 C   0  0  0  0  0  0  0  0  0  0  0  0
   37.1017   36.4790   38.9603 C   0  0  0  0  0  0  0  0  0  0  0  0
   37.8728   37.5965   38.6703 C   0  0  0  0  0  0  0  0  0  0  0  0
   37.4342   38.8353   39.0565 C   0  0  0  0  0  0  0  0  0  0  0  0
   38.1835   40.0834   38.9296 C   0  0  0  0  0  0  0  0  0  0  0  0
   40.0318   41.3738   39.5040 C   0  0  0  0  0  0  0  0  0  0  0  0
   40.7477   41.7278   38.3774 C   0  0  0  0  0  0  0  0  0  0  0  0
   41.4556   42.9311   38.3782 C   0  0  0  0  0  0  0  0  0  0  0  0
   41.3829   43.8174   39.4210 C   0  0  0  0  0  0  0  0  0  0  0  0
   40.6345   43.4279   40.5527 C   0  0  0  0  0  0  0  0  0  0  0  0
   40.0118   42.1866   40.6196 C   0  0  0  0  0  0  0  0  0  0  0  0
   42.0381   45.1954   39.3571 C   0  0  0  0  0  0  0  0  0  0  0  0
   43.3252   45.2895   40.1647 C   0  0  0  0  0  0  0  0  0  0  0  0
   43.3529   45.2347   41.5348 C   0  0  0  0  0  0  0  0  0  0  0  0
   45.6886   45.4434   41.6200 C   0  0  0  0  0  0  0  0  0  0  0  0
   45.6662   45.5039   40.2701 C   0  0  0  0  0  0  0  0  0  0  0  0
   44.5178   45.4380   39.5138 C   0  0  0  0  0  0  0  0  0  0  0  0
   47.5626   44.4062   42.5159 C   0  0  0  0  0  0  0  0  0  0  0  0
   48.7873   44.4431   43.2867 C   0  0  0  0  0  0  0  0  0  0  0  0
   50.0218   44.9133   42.8207 C   0  0  0  0  0  0  0  0  0  0  0  0
   51.1009   44.8656   43.6796 C   0  0  0  0  0  0  0  0  0  0  0  0
   50.8985   44.3882   44.9649 C   0  0  0  0  0  0  0  0  0  0  0  0
   49.6726   43.9023   45.3654 C   0  0  0  0  0  0  0  0  0  0  0  0
   36.2091   39.0254   39.6125 N   0  0  0  0  0  0  0  0  0  0  0  0
   39.3426   40.0910   39.5295 N   0  0  0  0  0  0  0  0  0  0  0  0
   46.9715   45.5330   42.3252 N   0  0  0  0  0  0  0  0  0  0  0  0
   48.6253   43.9645   44.5569 N   0  0  0  0  0  0  0  0  0  0  0  0
  1 17  2  0  0  0  0
  1 16  1  0  0  0  0
  2  3  2  0  0  0  0
  2 26  1  0  0  0  0
  3  4  1  0  0  0  0
  4  5  2  0  0  0  0
  5  6  1  0  0  0  0
  6  7  1  0  0  0  0
  6 26  2  0  0  0  0
  7 27  2  0  0  0  0
  8  9  2  0  0  0  0
  8 13  1  0  0  0  0
  8 27  1  0  0  0  0
  9 10  1  0  0  0  0
 10 11  2  0  0  0  0
 11 12  1  0  0  0  0
 11 14  1  0  0  0  0
 12 13  2  0  0  0  0
 14 15  1  0  0  0  0
 15 16  2  0  0  0  0
 15 19  1  0  0  0  0
 17 18  1  0  0  0  0
 17 28  1  0  0  0  0
 18 19  2  0  0  0  0
 20 21  1  0  0  0  0
 20 28  2  0  0  0  0
 21 22  2  0  0  0  0
 21 29  1  0  0  0  0
 22 23  1  0  0  0  0
 23 24  2  0  0  0  0
 24 25  1  0  0  0  0
 25 29  2  0  0  0  0
M  END
>  <CHROM.1>
-57.57939440,-104.05002643,-68.27839585,-74.51017390,-81.63130675,91.72539543
42.90442996,42.62367960,40.87487444,0.29181736,-0.50068378,-0.41765951

>  <Name>
ligand

>  <RI>
0

>  <Rbt.Current_Directory>
/home/itssahil/PROJECTS/Mol_Feturizer/New_Systems/rnas/4JIY

>  <Rbt.Executable>
rbdock ($Id: //depot/dev/client3/rdock/2013.1/src/exe/rbdock.cxx#4 $)

>  <Rbt.Library>
libRbt.so (2013.1, Build901 2013/11/27)

>  <Rbt.Parameter_File>
/export/apps/rDock/src/rDock_2013.1_src/data/scripts/dock_solv.prm

>  <Rbt.Receptor>
prm/pocket_docking_4.prm

>  <SCORE>
4.81281

>  <SCORE.INTER>
5.85382

>  <SCORE.INTER.CONST>
1

>  <SCORE.INTER.POLAR>
0

>  <SCORE.INTER.ROT>
6

>  <SCORE.INTER.SOLV>
0.564811

>  <SCORE.INTER.VDW>
-3.88572

>  <SCORE.INTER.norm>
0.201856

>  <SCORE.INTRA>
-1.05202

>  <SCORE.INTRA.DIHEDRAL>
0.119948

>  <SCORE.INTRA.DIHEDRAL.0>
7.2424

>  <SCORE.INTRA.POLAR>
0

>  <SCORE.INTRA.POLAR.0>
0

>  <SCORE.INTRA.REPUL>
0

>  <SCORE.INTRA.REPUL.0>
0

>  <SCORE.INTRA.SOLV>
-0.020242

>  <SCORE.INTRA.SOLV.lig_0>
-3.36201

>  <SCORE.INTRA.VDW>
-1.10187

>  <SCORE.INTRA.VDW.0>
-0.910526

>  <SCORE.INTRA.norm>
-0.0362764

>  <SCORE.RESTR>
0.0110071

>  <SCORE.RESTR.CAVITY>
0.0110071

>  <SCORE.RESTR.norm>
0.000379555

>  <SCORE.SYSTEM>
0

>  <SCORE.SYSTEM.CONST>
0

>  <SCORE.SYSTEM.DIHEDRAL>
0

>  <SCORE.SYSTEM.SOLV>
0

>  <SCORE.SYSTEM.norm>
0

>  <SCORE.heavy>
29

>  <SCORE.norm>
0.165959

>  <RMSD>
2.948

$$$$
ligand
 OpenBabel11021811503D
libRbt.so/2013.1/901 2013/11/27
 29 32  0  0  0  0  0  0  0  0999 V2000
   45.8425   45.4892   40.3735 C   0  0  0  0  0  0  0  0  0  0  0  0
   37.3427   36.8939   41.3501 C   0  0  0  0  0  0  0  0  0  0  0  0
   38.0562   35.7157   41.0925 C   0  0  0  0  0  0  0  0  0  0  0  0
   39.3495   35.7627   40.7036 C   0  0  0  0  0  0  0  0  0  0  0  0
   39.9328   37.0061   40.5004 C   0  0  0  0  0  0  0  0  0  0  0  0
   39.2298   38.1386   40.8155 C   0  0  0  0  0  0  0  0  0  0  0  0
   39.7474   39.5044   40.7700 C   0  0  0  0  0  0  0  0  0  0  0  0
   40.2945   41.3956   39.5310 C   0  0  0  0  0  0  0  0  0  0  0  0
   39.5836   42.5007   39.9556 C   0  0  0  0  0  0  0  0  0  0  0  0
   40.1632   43.7647   39.8312 C   0  0  0  0  0  0  0  0  0  0  0  0
   41.4510   43.9348   39.3942 C   0  0  0  0  0  0  0  0  0  0  0  0
   42.1522   42.7828   38.9772 C   0  0  0  0  0  0  0  0  0  0  0  0
   41.5568   41.5265   38.9878 C   0  0  0  0  0  0  0  0  0  0  0  0
   42.1316   45.3019   39.3988 C   0  0  0  0  0  0  0  0  0  0  0  0
   43.4136   45.3348   40.2192 C   0  0  0  0  0  0  0  0  0  0  0  0
   44.6581   45.4561   39.6556 C   0  0  0  0  0  0  0  0  0  0  0  0
   45.7413   45.4128   41.7368 C   0  0  0  0  0  0  0  0  0  0  0  0
   44.5177   45.2871   42.2967 C   0  0  0  0  0  0  0  0  0  0  0  0
   43.3429   45.2380   41.5807 C   0  0  0  0  0  0  0  0  0  0  0  0
   47.7197   44.4391   42.4636 C   0  0  0  0  0  0  0  0  0  0  0  0
   48.8563   44.3896   43.3585 C   0  0  0  0  0  0  0  0  0  0  0  0
   48.8354   43.8830   44.6643 C   0  0  0  0  0  0  0  0  0  0  0  0
   50.0054   43.9229   45.3950 C   0  0  0  0  0  0  0  0  0  0  0  0
   51.1437   44.4293   44.7878 C   0  0  0  0  0  0  0  0  0  0  0  0
   51.1056   44.9501   43.5124 C   0  0  0  0  0  0  0  0  0  0  0  0
   37.9309   38.0940   41.2118 N   0  0  0  0  0  0  0  0  0  0  0  0
   39.6689   40.0823   39.6024 N   0  0  0  0  0  0  0  0  0  0  0  0
   46.9287   45.4451   42.5971 N   0  0  0  0  0  0  0  0  0  0  0  0
   49.9938   44.8959   42.7944 N   0  0  0  0  0  0  0  0  0  0  0  0
  1 17  2  0  0  0  0
  1 16  1  0  0  0  0
  2  3  2  0  0  0  0
  2 26  1  0  0  0  0
  3  4  1  0  0  0  0
  4  5  2  0  0  0  0
  5  6  1  0  0  0  0
  6  7  1  0  0  0  0
  6 26  2  0  0  0  0
  7 27  2  0  0  0  0
  8  9  2  0  0  0  0
  8 13  1  0  0  0  0
  8 27  1  0  0  0  0
  9 10  1  0  0  0  0
 10 11  2  0  0  0  0
 11 12  1  0  0  0  0
 11 14  1  0  0  0  0
 12 13  2  0  0  0  0
 14 15  1  0  0  0  0
 15 16  2  0  0  0  0
 15 19  1  0  0  0  0
 17 18  1  0  0  0  0
 17 28  1  0  0  0  0
 18 19  2  0  0  0  0
 20 21  1  0  0  0  0
 20 28  2  0  0  0  0
 21 22  2  0  0  0  0
 21 29  1  0  0  0  0
 22 23  1  0  0  0  0
 23 24  2  0  0  0  0
 24 25  1  0  0  0  0
 25 29  2  0  0  0  0
M  END
>  <CHROM.1>
85.77045878,121.96829129,110.24975991,83.70791095,-83.32146583,-65.19324700
43.46973605,42.45376676,41.29196304,0.41738108,-0.47461012,-0.39637746

>  <Name>
ligand

>  <RI>
0

>  <Rbt.Current_Directory>
/home/itssahil/PROJECTS/Mol_Feturizer/New_Systems/rnas/4JIY

>  <Rbt.Executable>
rbdock ($Id: //depot/dev/client3/rdock/2013.1/src/exe/rbdock.cxx#4 $)

>  <Rbt.Library>
libRbt.so (2013.1, Build901 2013/11/27)

>  <Rbt.Parameter_File>
/export/apps/rDock/src/rDock_2013.1_src/data/scripts/dock_solv.prm

>  <Rbt.Receptor>
prm/pocket_docking_4.prm

>  <SCORE>
4.71683

>  <SCORE.INTER>
5.62197

>  <SCORE.INTER.CONST>
1

>  <SCORE.INTER.POLAR>
0

>  <SCORE.INTER.ROT>
6

>  <SCORE.INTER.SOLV>
0.573862

>  <SCORE.INTER.VDW>
-4.04331

>  <SCORE.INTER.norm>
0.193861

>  <SCORE.INTRA>
-0.909228

>  <SCORE.INTRA.DIHEDRAL>
0.339916

>  <SCORE.INTRA.DIHEDRAL.0>
7.2424

>  <SCORE.INTRA.POLAR>
0

>  <SCORE.INTRA.POLAR.0>
0

>  <SCORE.INTRA.REPUL>
0

>  <SCORE.INTRA.REPUL.0>
0

>  <SCORE.INTRA.SOLV>
-0.0186197

>  <SCORE.INTRA.SOLV.lig_0>
-3.36201

>  <SCORE.INTRA.VDW>
-1.06988

>  <SCORE.INTRA.VDW.0>
-0.910526

>  <SCORE.INTRA.norm>
-0.0313527

>  <SCORE.RESTR>
0.00408475

>  <SCORE.RESTR.CAVITY>
0.00408475

>  <SCORE.RESTR.norm>
0.000140854

>  <SCORE.SYSTEM>
0

>  <SCORE.SYSTEM.CONST>
0

>  <SCORE.SYSTEM.DIHEDRAL>
0

>  <SCORE.SYSTEM.SOLV>
0

>  <SCORE.SYSTEM.norm>
0

>  <SCORE.heavy>
29

>  <SCORE.norm>
0.162649

>  <RMSD>
2.998

$$$$
ligand
 OpenBabel11021811493D
libRbt.so/2013.1/901 2013/11/27
 29 32  0  0  0  0  0  0  0  0999 V2000
   39.4915   43.2269   40.2436 C   0  0  0  0  0  0  0  0  0  0  0  0
   48.3287   43.8910   46.2799 C   0  0  0  0  0  0  0  0  0  0  0  0
   49.6979   44.0473   46.0261 C   0  0  0  0  0  0  0  0  0  0  0  0
   50.1527   44.2028   44.7631 C   0  0  0  0  0  0  0  0  0  0  0  0
   49.2392   44.1360   43.7198 C   0  0  0  0  0  0  0  0  0  0  0  0
   47.9021   44.0405   44.0013 C   0  0  0  0  0  0  0  0  0  0  0  0
   46.8189   44.0803   43.0213 C   0  0  0  0  0  0  0  0  0  0  0  0
   45.6635   45.2320   41.3630 C   0  0  0  0  0  0  0  0  0  0  0  0
   45.5729   44.3653   40.2918 C   0  0  0  0  0  0  0  0  0  0  0  0
   44.5026   44.4976   39.4053 C   0  0  0  0  0  0  0  0  0  0  0  0
   43.4876   45.3935   39.6186 C   0  0  0  0  0  0  0  0  0  0  0  0
   43.6074   46.2576   40.7284 C   0  0  0  0  0  0  0  0  0  0  0  0
   44.7192   46.2190   41.5623 C   0  0  0  0  0  0  0  0  0  0  0  0
   42.2464   45.4348   38.7298 C   0  0  0  0  0  0  0  0  0  0  0  0
   41.2906   44.2753   38.9742 C   0  0  0  0  0  0  0  0  0  0  0  0
   40.3743   44.2652   39.9947 C   0  0  0  0  0  0  0  0  0  0  0  0
   39.5404   42.1564   39.3914 C   0  0  0  0  0  0  0  0  0  0  0  0
   40.4457   42.1588   38.3879 C   0  0  0  0  0  0  0  0  0  0  0  0
   41.3332   43.1844   38.1520 C   0  0  0  0  0  0  0  0  0  0  0  0
   38.9992   40.1761   40.4759 C   0  0  0  0  0  0  0  0  0  0  0  0
   38.1943   38.9804   40.6087 C   0  0  0  0  0  0  0  0  0  0  0  0
   38.2036   37.8970   39.7207 C   0  0  0  0  0  0  0  0  0  0  0  0
   37.3614   36.8357   39.9825 C   0  0  0  0  0  0  0  0  0  0  0  0
   36.5785   36.8831   41.1252 C   0  0  0  0  0  0  0  0  0  0  0  0
   36.5772   37.9878   41.9491 C   0  0  0  0  0  0  0  0  0  0  0  0
   47.4416   43.8893   45.2707 N   0  0  0  0  0  0  0  0  0  0  0  0
   46.8113   45.1365   42.2546 N   0  0  0  0  0  0  0  0  0  0  0  0
   38.6482   41.0039   39.5556 N   0  0  0  0  0  0  0  0  0  0  0  0
   37.3981   39.0016   41.7196 N   0  0  0  0  0  0  0  0  0  0  0  0
  1 17  2  0  0  0  0
  1 16  1  0  0  0  0
  2  3  2  0  0  0  0
  2 26  1  0  0  0  0
  3  4  1  0  0  0  0
  4  5  2  0  0  0  0
  5  6  1  0  0  0  0
  6  7  1  0  0  0  0
  6 26  2  0  0  0  0
  7 27  2  0  0  0  0
  8  9  2  0  0  0  0
  8 13  1  0  0  0  0
  8 27  1  0  0  0  0
  9 10  1  0  0  0  0
 10 11  2  0  0  0  0
 11 12  1  0  0  0  0
 11 14  1  0  0  0  0
 12 13  2  0  0  0  0
 14 15  1  0  0  0  0
 15 16  2  0  0  0  0
 15 19  1  0  0  0  0
 17 18  1  0  0  0  0
 17 28  1  0  0  0  0
 18 19  2  0  0  0  0
 20 21  1  0  0  0  0
 20 28  2  0  0  0  0
 21 22  2  0  0  0  0
 21 29  1  0  0  0  0
 22 23  1  0  0  0  0
 23 24  2  0  0  0  0
 24 25  1  0  0  0  0
 25 29  2  0  0  0  0
M  END
>  <CHROM.1>
-55.52912802,73.79066130,82.08318796,73.23470550,-71.32628571,-78.68300850
42.77346333,42.72084510,41.29530842,2.99304387,0.55009211,2.43438232

>  <Name>
ligand

>  <RI>
0

>  <Rbt.Current_Directory>
/home/itssahil/PROJECTS/Mol_Feturizer/New_Systems/rnas/4JIY

>  <Rbt.Executable>
rbdock ($Id: //depot/dev/client3/rdock/2013.1/src/exe/rbdock.cxx#4 $)

>  <Rbt.Library>
libRbt.so (2013.1, Build901 2013/11/27)

>  <Rbt.Parameter_File>
/export/apps/rDock/src/rDock_2013.1_src/data/scripts/dock_solv.prm

>  <Rbt.Receptor>
prm/pocket_docking_4.prm

>  <SCORE>
4.49689

>  <SCORE.INTER>
5.57511

>  <SCORE.INTER.CONST>
1

>  <SCORE.INTER.POLAR>
0

>  <SCORE.INTER.ROT>
6

>  <SCORE.INTER.SOLV>
0.650661

>  <SCORE.INTER.VDW>
-4.10015

>  <SCORE.INTER.norm>
0.192245

>  <SCORE.INTRA>
-1.07823

>  <SCORE.INTRA.DIHEDRAL>
-0.0379613

>  <SCORE.INTRA.DIHEDRAL.0>
7.2424

>  <SCORE.INTRA.POLAR>
0

>  <SCORE.INTRA.POLAR.0>
0

>  <SCORE.INTRA.REPUL>
0

>  <SCORE.INTRA.REPUL.0>
0

>  <SCORE.INTRA.SOLV>
-0.0200604

>  <SCORE.INTRA.SOLV.lig_0>
-3.36201

>  <SCORE.INTRA.VDW>
-1.04922

>  <SCORE.INTRA.VDW.0>
-0.910526

>  <SCORE.INTRA.norm>
-0.0371802

>  <SCORE.RESTR>
0

>  <SCORE.RESTR.CAVITY>
0

>  <SCORE.RESTR.norm>
0

>  <SCORE.SYSTEM>
0

>  <SCORE.SYSTEM.CONST>
0

>  <SCORE.SYSTEM.DIHEDRAL>
0

>  <SCORE.SYSTEM.SOLV>
0

>  <SCORE.SYSTEM.norm>
0

>  <SCORE.heavy>
29

>  <SCORE.norm>
0.155065

>  <RMSD>
3.003

$$$$
ligand
 OpenBabel11021811493D
libRbt.so/2013.1/901 2013/11/27
 29 32  0  0  0  0  0  0  0  0999 V2000
   44.6022   44.6777   42.1470 C   0  0  0  0  0  0  0  0  0  0  0  0
   36.4541   37.2871   40.6962 C   0  0  0  0  0  0  0  0  0  0  0  0
   35.1337   37.5730   41.0682 C   0  0  0  0  0  0  0  0  0  0  0  0
   34.6693   38.8418   41.0458 C   0  0  0  0  0  0  0  0  0  0  0  0
   35.5503   39.8612   40.7112 C   0  0  0  0  0  0  0  0  0  0  0  0
   36.8173   39.5465   40.2966 C   0  0  0  0  0  0  0  0  0  0  0  0
   37.8130   40.4943   39.8010 C   0  0  0  0  0  0  0  0  0  0  0  0
   39.7568   41.7217   40.1565 C   0  0  0  0  0  0  0  0  0  0  0  0
   39.4695   43.0432   40.4358 C   0  0  0  0  0  0  0  0  0  0  0  0
   40.3297   44.0354   39.9619 C   0  0  0  0  0  0  0  0  0  0  0  0
   41.5001   43.7356   39.3150 C   0  0  0  0  0  0  0  0  0  0  0  0
   41.7672   42.3742   39.0544 C   0  0  0  0  0  0  0  0  0  0  0  0
   40.8712   41.3756   39.4190 C   0  0  0  0  0  0  0  0  0  0  0  0
   42.5091   44.8151   38.9289 C   0  0  0  0  0  0  0  0  0  0  0  0
   43.6671   44.9368   39.9097 C   0  0  0  0  0  0  0  0  0  0  0  0
   43.5684   44.5793   41.2301 C   0  0  0  0  0  0  0  0  0  0  0  0
   45.8000   45.1485   41.6798 C   0  0  0  0  0  0  0  0  0  0  0  0
   45.9007   45.5080   40.3810 C   0  0  0  0  0  0  0  0  0  0  0  0
   44.8676   45.4247   39.4750 C   0  0  0  0  0  0  0  0  0  0  0  0
   47.7660   44.2817   42.5593 C   0  0  0  0  0  0  0  0  0  0  0  0
   48.8799   44.3437   43.4817 C   0  0  0  0  0  0  0  0  0  0  0  0
   48.8589   43.8880   44.8062 C   0  0  0  0  0  0  0  0  0  0  0  0
   50.0043   44.0350   45.5616 C   0  0  0  0  0  0  0  0  0  0  0  0
   51.1218   44.5930   44.9609 C   0  0  0  0  0  0  0  0  0  0  0  0
   51.0822   45.0601   43.6650 C   0  0  0  0  0  0  0  0  0  0  0  0
   37.2852   38.2710   40.3131 N   0  0  0  0  0  0  0  0  0  0  0  0
   38.8294   40.6883   40.5964 N   0  0  0  0  0  0  0  0  0  0  0  0
   46.9650   45.2885   42.5598 N   0  0  0  0  0  0  0  0  0  0  0  0
   49.9955   44.9032   42.9242 N   0  0  0  0  0  0  0  0  0  0  0  0
  1 17  2  0  0  0  0
  1 16  1  0  0  0  0
  2  3  2  0  0  0  0
  2 26  1  0  0  0  0
  3  4  1  0  0  0  0
  4  5  2  0  0  0  0
  5  6  1  0  0  0  0
  6  7  1  0  0  0  0
  6 26  2  0  0  0  0
  7 27  2  0  0  0  0
  8  9  2  0  0  0  0
  8 13  1  0  0  0  0
  8 27  1  0  0  0  0
  9 10  1  0  0  0  0
 10 11  2  0  0  0  0
 11 12  1  0  0  0  0
 11 14  1  0  0  0  0
 12 13  2  0  0  0  0
 14 15  1  0  0  0  0
 15 16  2  0  0  0  0
 15 19  1  0  0  0  0
 17 18  1  0  0  0  0
 17 28  1  0  0  0  0
 18 19  2  0  0  0  0
 20 21  1  0  0  0  0
 20 28  2  0  0  0  0
 21 22  2  0  0  0  0
 21 29  1  0  0  0  0
 22 23  1  0  0  0  0
 23 24  2  0  0  0  0
 24 25  1  0  0  0  0
 25 29  2  0  0  0  0
M  END
>  <CHROM.1>
110.36528887,98.74276515,-26.18997689,89.05195084,82.83811055,94.16631993
42.82987992,42.76868826,41.27405557,0.15076275,-0.44390960,-0.72407242

>  <Name>
ligand

>  <RI>
0

>  <Rbt.Current_Directory>
/home/itssahil/PROJECTS/Mol_Feturizer/New_Systems/rnas/4JIY

>  <Rbt.Executable>
rbdock ($Id: //depot/dev/client3/rdock/2013.1/src/exe/rbdock.cxx#4 $)

>  <Rbt.Library>
libRbt.so (2013.1, Build901 2013/11/27)

>  <Rbt.Parameter_File>
/export/apps/rDock/src/rDock_2013.1_src/data/scripts/dock_solv.prm

>  <Rbt.Receptor>
prm/pocket_docking_4.prm

>  <SCORE>
4.5104

>  <SCORE.INTER>
5.2802

>  <SCORE.INTER.CONST>
1

>  <SCORE.INTER.POLAR>
0

>  <SCORE.INTER.ROT>
6

>  <SCORE.INTER.SOLV>
0.734678

>  <SCORE.INTER.VDW>
-4.32476

>  <SCORE.INTER.norm>
0.182076

>  <SCORE.INTRA>
-0.772164

>  <SCORE.INTRA.DIHEDRAL>
0.625705

>  <SCORE.INTRA.DIHEDRAL.0>
7.2424

>  <SCORE.INTRA.POLAR>
0

>  <SCORE.INTRA.POLAR.0>
0

>  <SCORE.INTRA.REPUL>
0

>  <SCORE.INTRA.REPUL.0>
0

>  <SCORE.INTRA.SOLV>
-0.0159097

>  <SCORE.INTRA.SOLV.lig_0>
-3.36201

>  <SCORE.INTRA.VDW>
-1.07706

>  <SCORE.INTRA.VDW.0>
-0.910526

>  <SCORE.INTRA.norm>
-0.0266263

>  <SCORE.RESTR>
0.00236951

>  <SCORE.RESTR.CAVITY>
0.00236951

>  <SCORE.RESTR.norm>
8.17074e-05

>  <SCORE.SYSTEM>
0

>  <SCORE.SYSTEM.CONST>
0

>  <SCORE.SYSTEM.DIHEDRAL>
0

>  <SCORE.SYSTEM.SOLV>
0

>  <SCORE.SYSTEM.norm>
0

>  <SCORE.heavy>
29

>  <SCORE.norm>
0.155531

>  <RMSD>
3.021

$$$$
ligand
 OpenBabel11021811503D
libRbt.so/2013.1/901 2013/11/27
 29 32  0  0  0  0  0  0  0  0999 V2000
   39.3777   40.2813   41.9023 C   0  0  0  0  0  0  0  0  0  0  0  0
   49.4506   44.1581   44.8360 C   0  0  0  0  0  0  0  0  0  0  0  0
   50.4345   44.8665   44.1333 C   0  0  0  0  0  0  0  0  0  0  0  0
   50.2201   45.2680   42.8610 C   0  0  0  0  0  0  0  0  0  0  0  0
   49.0304   44.9034   42.2454 C   0  0  0  0  0  0  0  0  0  0  0  0
   48.0646   44.2618   42.9747 C   0  0  0  0  0  0  0  0  0  0  0  0
   46.7238   43.9225   42.5030 C   0  0  0  0  0  0  0  0  0  0  0  0
   44.6506   44.6120   41.7043 C   0  0  0  0  0  0  0  0  0  0  0  0
   43.6807   44.6390   42.6869 C   0  0  0  0  0  0  0  0  0  0  0  0
   42.3745   44.2741   42.3560 C   0  0  0  0  0  0  0  0  0  0  0  0
   42.0035   43.9861   41.0685 C   0  0  0  0  0  0  0  0  0  0  0  0
   43.0183   43.9771   40.0873 C   0  0  0  0  0  0  0  0  0  0  0  0
   44.3461   44.2289   40.4135 C   0  0  0  0  0  0  0  0  0  0  0  0
   40.5472   43.7318   40.6851 C   0  0  0  0  0  0  0  0  0  0  0  0
   40.1649   42.2585   40.7115 C   0  0  0  0  0  0  0  0  0  0  0  0
   39.7328   41.6192   41.8453 C   0  0  0  0  0  0  0  0  0  0  0  0
   39.4526   39.5716   40.7338 C   0  0  0  0  0  0  0  0  0  0  0  0
   39.8835   40.1954   39.6151 C   0  0  0  0  0  0  0  0  0  0  0  0
   40.2514   41.5210   39.5640 C   0  0  0  0  0  0  0  0  0  0  0  0
   37.8537   37.9157   40.4306 C   0  0  0  0  0  0  0  0  0  0  0  0
   37.4435   36.5277   40.4535 C   0  0  0  0  0  0  0  0  0  0  0  0
   36.2834   36.0377   41.0670 C   0  0  0  0  0  0  0  0  0  0  0  0
   36.0438   34.6798   41.0119 C   0  0  0  0  0  0  0  0  0  0  0  0
   36.9435   33.8801   40.3251 C   0  0  0  0  0  0  0  0  0  0  0  0
   38.0904   34.4040   39.7689 C   0  0  0  0  0  0  0  0  0  0  0  0
   48.2755   43.8614   44.2558 N   0  0  0  0  0  0  0  0  0  0  0  0
   46.0262   44.9326   42.0597 N   0  0  0  0  0  0  0  0  0  0  0  0
   39.0948   38.1504   40.6754 N   0  0  0  0  0  0  0  0  0  0  0  0
   38.3184   35.7085   39.7963 N   0  0  0  0  0  0  0  0  0  0  0  0
  1 17  2  0  0  0  0
  1 16  1  0  0  0  0
  2  3  2  0  0  0  0
  2 26  1  0  0  0  0
  3  4  1  0  0  0  0
  4  5  2  0  0  0  0
  5  6  1  0  0  0  0
  6  7  1  0  0  0  0
  6 26  2  0  0  0  0
  7 27  2  0  0  0  0
  8  9  2  0  0  0  0
  8 13  1  0  0  0  0
  8 27  1  0  0  0  0
  9 10  1  0  0  0  0
 10 11  2  0  0  0  0
 11 12  1  0  0  0  0
 11 14  1  0  0  0  0
 12 13  2  0  0  0  0
 14 15  1  0  0  0  0
 15 16  2  0  0  0  0
 15 19  1  0  0  0  0
 17 18  1  0  0  0  0
 17 28  1  0  0  0  0
 18 19  2  0  0  0  0
 20 21  1  0  0  0  0
 20 28  2  0  0  0  0
 21 22  2  0  0  0  0
 21 29  1  0  0  0  0
 22 23  1  0  0  0  0
 23 24  2  0  0  0  0
 24 25  1  0  0  0  0
 25 29  2  0  0  0  0
M  END
>  <CHROM.1>
-55.99457757,-93.34475920,86.62569965,135.59253601,86.12374854,88.86781696
42.34009666,41.31984181,41.47533313,2.51931071,0.33955932,3.00737179

>  <Name>
ligand

>  <RI>
0

>  <Rbt.Current_Directory>
/home/itssahil/PROJECTS/Mol_Feturizer/New_Systems/rnas/4JIY

>  <Rbt.Executable>
rbdock ($Id: //depot/dev/client3/rdock/2013.1/src/exe/rbdock.cxx#4 $)

>  <Rbt.Library>
libRbt.so (2013.1, Build901 2013/11/27)

>  <Rbt.Parameter_File>
/export/apps/rDock/src/rDock_2013.1_src/data/scripts/dock_solv.prm

>  <Rbt.Receptor>
prm/pocket_docking_4.prm

>  <SCORE>
6.1901

>  <SCORE.INTER>
6.90624

>  <SCORE.INTER.CONST>
1

>  <SCORE.INTER.POLAR>
0

>  <SCORE.INTER.ROT>
6

>  <SCORE.INTER.SOLV>
0.299672

>  <SCORE.INTER.VDW>
-3.09573

>  <SCORE.INTER.norm>
0.238146

>  <SCORE.INTRA>
-0.718261

>  <SCORE.INTRA.DIHEDRAL>
0.602413

>  <SCORE.INTRA.DIHEDRAL.0>
7.2424

>  <SCORE.INTRA.POLAR>
0

>  <SCORE.INTRA.POLAR.0>
0

>  <SCORE.INTRA.REPUL>
0

>  <SCORE.INTRA.REPUL.0>
0

>  <SCORE.INTRA.SOLV>
-0.0154403

>  <SCORE.INTRA.SOLV.lig_0>
-3.36201

>  <SCORE.INTRA.VDW>
-1.01175

>  <SCORE.INTRA.VDW.0>
-0.910526

>  <SCORE.INTRA.norm>
-0.0247676

>  <SCORE.RESTR>
0.00212011

>  <SCORE.RESTR.CAVITY>
0.00212011

>  <SCORE.RESTR.norm>
7.31071e-05

>  <SCORE.SYSTEM>
0

>  <SCORE.SYSTEM.CONST>
0

>  <SCORE.SYSTEM.DIHEDRAL>
0

>  <SCORE.SYSTEM.SOLV>
0

>  <SCORE.SYSTEM.norm>
0

>  <SCORE.heavy>
29

>  <SCORE.norm>
0.213452

>  <RMSD>
3.027

$$$$
ligand
 OpenBabel11021811503D
libRbt.so/2013.1/901 2013/11/27
 29 32  0  0  0  0  0  0  0  0999 V2000
   45.6013   44.3833   40.2591 C   0  0  0  0  0  0  0  0  0  0  0  0
   35.3733   38.6192   41.4284 C   0  0  0  0  0  0  0  0  0  0  0  0
   35.6447   37.3395   40.9263 C   0  0  0  0  0  0  0  0  0  0  0  0
   36.7764   37.0971   40.2287 C   0  0  0  0  0  0  0  0  0  0  0  0
   37.6289   38.1603   39.9639 C   0  0  0  0  0  0  0  0  0  0  0  0
   37.3672   39.3862   40.5160 C   0  0  0  0  0  0  0  0  0  0  0  0
   38.2288   40.5632   40.4277 C   0  0  0  0  0  0  0  0  0  0  0  0
   39.3517   42.1263   39.1213 C   0  0  0  0  0  0  0  0  0  0  0  0
   40.6727   41.8420   38.8368 C   0  0  0  0  0  0  0  0  0  0  0  0
   41.5956   42.8889   38.8004 C   0  0  0  0  0  0  0  0  0  0  0  0
   41.2162   44.1985   38.9394 C   0  0  0  0  0  0  0  0  0  0  0  0
   39.8565   44.4539   39.2198 C   0  0  0  0  0  0  0  0  0  0  0  0
   38.9394   43.4199   39.3705 C   0  0  0  0  0  0  0  0  0  0  0  0
   42.2024   45.3495   38.7525 C   0  0  0  0  0  0  0  0  0  0  0  0
   43.4042   45.2714   39.6838 C   0  0  0  0  0  0  0  0  0  0  0  0
   44.4933   44.4765   39.4328 C   0  0  0  0  0  0  0  0  0  0  0  0
   45.5976   45.1584   41.3878 C   0  0  0  0  0  0  0  0  0  0  0  0
   44.5242   45.9388   41.6428 C   0  0  0  0  0  0  0  0  0  0  0  0
   43.4169   46.0179   40.8287 C   0  0  0  0  0  0  0  0  0  0  0  0
   46.8378   44.0618   43.0156 C   0  0  0  0  0  0  0  0  0  0  0  0
   47.8793   44.0439   44.0207 C   0  0  0  0  0  0  0  0  0  0  0  0
   47.6693   43.9186   45.4001 C   0  0  0  0  0  0  0  0  0  0  0  0
   48.7725   43.9352   46.2289 C   0  0  0  0  0  0  0  0  0  0  0  0
   50.0280   44.0402   45.6514 C   0  0  0  0  0  0  0  0  0  0  0  0
   50.1815   44.1982   44.2910 C   0  0  0  0  0  0  0  0  0  0  0  0
   36.2327   39.6314   41.2223 N   0  0  0  0  0  0  0  0  0  0  0  0
   38.3981   41.0299   39.2207 N   0  0  0  0  0  0  0  0  0  0  0  0
   46.7206   45.1449   42.3312 N   0  0  0  0  0  0  0  0  0  0  0  0
   49.1313   44.1607   43.4847 N   0  0  0  0  0  0  0  0  0  0  0  0
  1 17  2  0  0  0  0
  1 16  1  0  0  0  0
  2  3  2  0  0  0  0
  2 26  1  0  0  0  0
  3  4  1  0  0  0  0
  4  5  2  0  0  0  0
  5  6  1  0  0  0  0
  6  7  1  0  0  0  0
  6 26  2  0  0  0  0
  7 27  2  0  0  0  0
  8  9  2  0  0  0  0
  8 13  1  0  0  0  0
  8 27  1  0  0  0  0
  9 10  1  0  0  0  0
 10 11  2  0  0  0  0
 11 12  1  0  0  0  0
 11 14  1  0  0  0  0
 12 13  2  0  0  0  0
 14 15  1  0  0  0  0
 15 16  2  0  0  0  0
 15 19  1  0  0  0  0
 17 18  1  0  0  0  0
 17 28  1  0  0  0  0
 18 19  2  0  0  0  0
 20 21  1  0  0  0  0
 20 28  2  0  0  0  0
 21 22  2  0  0  0  0
 21 29  1  0  0  0  0
 22 23  1  0  0  0  0
 23 24  2  0  0  0  0
 24 25  1  0  0  0  0
 25 29  2  0  0  0  0
M  END
>  <CHROM.1>
63.99648745,-57.81484142,81.23007937,116.69070543,92.77624114,-70.53904055
42.54260169,42.79323167,41.19175262,0.10355937,-0.50042902,-0.73438015

>  <Name>
ligand

>  <RI>
0

>  <Rbt.Current_Directory>
/home/itssahil/PROJECTS/Mol_Feturizer/New_Systems/rnas/4JIY

>  <Rbt.Executable>
rbdock ($Id: //depot/dev/client3/rdock/2013.1/src/exe/rbdock.cxx#4 $)

>  <Rbt.Library>
libRbt.so (2013.1, Build901 2013/11/27)

>  <Rbt.Parameter_File>
/export/apps/rDock/src/rDock_2013.1_src/data/scripts/dock_solv.prm

>  <Rbt.Receptor>
prm/pocket_docking_4.prm

>  <SCORE>
4.74978

>  <SCORE.INTER>
5.46519

>  <SCORE.INTER.CONST>
1

>  <SCORE.INTER.POLAR>
0

>  <SCORE.INTER.ROT>
6

>  <SCORE.INTER.SOLV>
0.671089

>  <SCORE.INTER.VDW>
-4.18024

>  <SCORE.INTER.norm>
0.188455

>  <SCORE.INTRA>
-0.716712

>  <SCORE.INTRA.DIHEDRAL>
0.548196

>  <SCORE.INTRA.DIHEDRAL.0>
7.2424

>  <SCORE.INTRA.POLAR>
0

>  <SCORE.INTRA.POLAR.0>
0

>  <SCORE.INTRA.REPUL>
0

>  <SCORE.INTRA.REPUL.0>
0

>  <SCORE.INTRA.SOLV>
-0.016416

>  <SCORE.INTRA.SOLV.lig_0>
-3.36201

>  <SCORE.INTRA.VDW>
-0.982603

>  <SCORE.INTRA.VDW.0>
-0.910526

>  <SCORE.INTRA.norm>
-0.0247142

>  <SCORE.RESTR>
0.00130211

>  <SCORE.RESTR.CAVITY>
0.00130211

>  <SCORE.RESTR.norm>
4.49005e-05

>  <SCORE.SYSTEM>
0

>  <SCORE.SYSTEM.CONST>
0

>  <SCORE.SYSTEM.DIHEDRAL>
0

>  <SCORE.SYSTEM.SOLV>
0

>  <SCORE.SYSTEM.norm>
0

>  <SCORE.heavy>
29

>  <SCORE.norm>
0.163785

>  <RMSD>
3.027

$$$$
ligand
 OpenBabel11021811503D
libRbt.so/2013.1/901 2013/11/27
 29 32  0  0  0  0  0  0  0  0999 V2000
   43.5880   43.9344   43.1756 C   0  0  0  0  0  0  0  0  0  0  0  0
   34.2738   36.9850   38.8287 C   0  0  0  0  0  0  0  0  0  0  0  0
   34.4663   35.7364   39.4350 C   0  0  0  0  0  0  0  0  0  0  0  0
   35.6325   35.4399   40.0500 C   0  0  0  0  0  0  0  0  0  0  0  0
   36.6574   36.3754   40.0077 C   0  0  0  0  0  0  0  0  0  0  0  0
   36.4211   37.6081   39.4590 C   0  0  0  0  0  0  0  0  0  0  0  0
   37.3562   38.7309   39.4487 C   0  0  0  0  0  0  0  0  0  0  0  0
   38.3892   40.4837   40.5763 C   0  0  0  0  0  0  0  0  0  0  0  0
   39.7559   40.3478   40.7201 C   0  0  0  0  0  0  0  0  0  0  0  0
   40.5492   41.4963   40.7461 C   0  0  0  0  0  0  0  0  0  0  0  0
   40.0276   42.7459   40.5344 C   0  0  0  0  0  0  0  0  0  0  0  0
   38.6280   42.8474   40.3814 C   0  0  0  0  0  0  0  0  0  0  0  0
   37.8055   41.7295   40.4626 C   0  0  0  0  0  0  0  0  0  0  0  0
   40.9158   43.9826   40.4164 C   0  0  0  0  0  0  0  0  0  0  0  0
   42.2473   43.8404   41.1407 C   0  0  0  0  0  0  0  0  0  0  0  0
   42.3917   44.0554   42.4875 C   0  0  0  0  0  0  0  0  0  0  0  0
   44.6842   43.5560   42.4477 C   0  0  0  0  0  0  0  0  0  0  0  0
   44.5485   43.3489   41.1191 C   0  0  0  0  0  0  0  0  0  0  0  0
   43.3622   43.4854   40.4341 C   0  0  0  0  0  0  0  0  0  0  0  0
   46.5578   44.4849   43.4562 C   0  0  0  0  0  0  0  0  0  0  0  0
   47.8958   44.3721   43.9968 C   0  0  0  0  0  0  0  0  0  0  0  0
   49.0765   44.3945   43.2434 C   0  0  0  0  0  0  0  0  0  0  0  0
   50.2760   44.2589   43.9120 C   0  0  0  0  0  0  0  0  0  0  0  0
   50.2504   44.1424   45.2928 C   0  0  0  0  0  0  0  0  0  0  0  0
   49.0608   44.0887   45.9866 C   0  0  0  0  0  0  0  0  0  0  0  0
   35.2476   37.9107   38.8446 N   0  0  0  0  0  0  0  0  0  0  0  0
   37.5528   39.2919   40.6106 N   0  0  0  0  0  0  0  0  0  0  0  0
   46.0004   43.3904   43.0732 N   0  0  0  0  0  0  0  0  0  0  0  0
   47.9053   44.2408   45.3574 N   0  0  0  0  0  0  0  0  0  0  0  0
  1 17  2  0  0  0  0
  1 16  1  0  0  0  0
  2  3  2  0  0  0  0
  2 26  1  0  0  0  0
  3  4  1  0  0  0  0
  4  5  2  0  0  0  0
  5  6  1  0  0  0  0
  6  7  1  0  0  0  0
  6 26  2  0  0  0  0
  7 27  2  0  0  0  0
  8  9  2  0  0  0  0
  8 13  1  0  0  0  0
  8 27  1  0  0  0  0
  9 10  1  0  0  0  0
 10 11  2  0  0  0  0
 11 12  1  0  0  0  0
 11 14  1  0  0  0  0
 12 13  2  0  0  0  0
 14 15  1  0  0  0  0
 15 16  2  0  0  0  0
 15 19  1  0  0  0  0
 17 18  1  0  0  0  0
 17 28  1  0  0  0  0
 18 19  2  0  0  0  0
 20 21  1  0  0  0  0
 20 28  2  0  0  0  0
 21 22  2  0  0  0  0
 21 29  1  0  0  0  0
 22 23  1  0  0  0  0
 23 24  2  0  0  0  0
 24 25  1  0  0  0  0
 25 29  2  0  0  0  0
M  END
>  <CHROM.1>
-70.88752597,-25.86432371,-82.27782639,86.99667251,-89.77493362,-69.89613981
41.77065661,41.63485159,41.57559657,0.38622954,-0.44751940,-0.21372301

>  <Name>
ligand

>  <RI>
0

>  <Rbt.Current_Directory>
/home/itssahil/PROJECTS/Mol_Feturizer/New_Systems/rnas/4JIY

>  <Rbt.Executable>
rbdock ($Id: //depot/dev/client3/rdock/2013.1/src/exe/rbdock.cxx#4 $)

>  <Rbt.Library>
libRbt.so (2013.1, Build901 2013/11/27)

>  <Rbt.Parameter_File>
/export/apps/rDock/src/rDock_2013.1_src/data/scripts/dock_solv.prm

>  <Rbt.Receptor>
prm/pocket_docking_4.prm

>  <SCORE>
6.52483

>  <SCORE.INTER>
7.48938

>  <SCORE.INTER.CONST>
1

>  <SCORE.INTER.POLAR>
0

>  <SCORE.INTER.ROT>
6

>  <SCORE.INTER.SOLV>
0.348037

>  <SCORE.INTER.VDW>
-2.7231

>  <SCORE.INTER.norm>
0.258254

>  <SCORE.INTRA>
-0.964543

>  <SCORE.INTRA.DIHEDRAL>
0.0830153

>  <SCORE.INTRA.DIHEDRAL.0>
7.2424

>  <SCORE.INTRA.POLAR>
0

>  <SCORE.INTRA.POLAR.0>
0

>  <SCORE.INTRA.REPUL>
0

>  <SCORE.INTRA.REPUL.0>
0

>  <SCORE.INTRA.SOLV>
-0.0193252

>  <SCORE.INTRA.SOLV.lig_0>
-3.36201

>  <SCORE.INTRA.VDW>
-0.996388

>  <SCORE.INTRA.VDW.0>
-0.910526

>  <SCORE.INTRA.norm>
-0.0332601

>  <SCORE.RESTR>
0

>  <SCORE.RESTR.CAVITY>
0

>  <SCORE.RESTR.norm>
0

>  <SCORE.SYSTEM>
0

>  <SCORE.SYSTEM.CONST>
0

>  <SCORE.SYSTEM.DIHEDRAL>
0

>  <SCORE.SYSTEM.SOLV>
0

>  <SCORE.SYSTEM.norm>
0

>  <SCORE.heavy>
29

>  <SCORE.norm>
0.224994

>  <RMSD>
3.037

$$$$
ligand
 OpenBabel11021811503D
libRbt.so/2013.1/901 2013/11/27
 29 32  0  0  0  0  0  0  0  0999 V2000
   45.5787   43.9282   40.3890 C   0  0  0  0  0  0  0  0  0  0  0  0
   38.5502   35.3031   41.9259 C   0  0  0  0  0  0  0  0  0  0  0  0
   37.1840   34.9990   41.9951 C   0  0  0  0  0  0  0  0  0  0  0  0
   36.2540   35.9182   41.6542 C   0  0  0  0  0  0  0  0  0  0  0  0
   36.6822   37.1902   41.2994 C   0  0  0  0  0  0  0  0  0  0  0  0
   38.0239   37.4409   41.1849 C   0  0  0  0  0  0  0  0  0  0  0  0
   38.6216   38.6864   40.7086 C   0  0  0  0  0  0  0  0  0  0  0  0
   40.2146   40.3633   40.9564 C   0  0  0  0  0  0  0  0  0  0  0  0
   39.8073   41.4880   41.6464 C   0  0  0  0  0  0  0  0  0  0  0  0
   40.2633   42.7390   41.2270 C   0  0  0  0  0  0  0  0  0  0  0  0
   41.1787   42.8786   40.2166 C   0  0  0  0  0  0  0  0  0  0  0  0
   41.5809   41.7074   39.5390 C   0  0  0  0  0  0  0  0  0  0  0  0
   41.0559   40.4623   39.8664 C   0  0  0  0  0  0  0  0  0  0  0  0
   41.7864   44.2332   39.8586 C   0  0  0  0  0  0  0  0  0  0  0  0
   43.1920   44.4284   40.4099 C   0  0  0  0  0  0  0  0  0  0  0  0
   44.2880   43.7726   39.9103 C   0  0  0  0  0  0  0  0  0  0  0  0
   45.7536   44.8142   41.4181 C   0  0  0  0  0  0  0  0  0  0  0  0
   44.6758   45.4584   41.9180 C   0  0  0  0  0  0  0  0  0  0  0  0
   43.3915   45.2904   41.4516 C   0  0  0  0  0  0  0  0  0  0  0  0
   47.5733   44.0741   42.6554 C   0  0  0  0  0  0  0  0  0  0  0  0
   48.8378   44.3104   43.3192 C   0  0  0  0  0  0  0  0  0  0  0  0
   49.9611   44.9051   42.7303 C   0  0  0  0  0  0  0  0  0  0  0  0
   51.0994   45.0444   43.4979 C   0  0  0  0  0  0  0  0  0  0  0  0
   51.0597   44.6209   44.8170 C   0  0  0  0  0  0  0  0  0  0  0  0
   49.9419   44.0079   45.3407 C   0  0  0  0  0  0  0  0  0  0  0  0
   38.9613   36.5170   41.5221 N   0  0  0  0  0  0  0  0  0  0  0  0
   39.6923   39.0628   41.3529 N   0  0  0  0  0  0  0  0  0  0  0  0
   47.0770   45.0632   41.9993 N   0  0  0  0  0  0  0  0  0  0  0  0
   48.8370   43.8900   44.6199 N   0  0  0  0  0  0  0  0  0  0  0  0
  1 17  2  0  0  0  0
  1 16  1  0  0  0  0
  2  3  2  0  0  0  0
  2 26  1  0  0  0  0
  3  4  1  0  0  0  0
  4  5  2  0  0  0  0
  5  6  1  0  0  0  0
  6  7  1  0  0  0  0
  6 26  2  0  0  0  0
  7 27  2  0  0  0  0
  8  9  2  0  0  0  0
  8 13  1  0  0  0  0
  8 27  1  0  0  0  0
  9 10  1  0  0  0  0
 10 11  2  0  0  0  0
 11 12  1  0  0  0  0
 11 14  1  0  0  0  0
 12 13  2  0  0  0  0
 14 15  1  0  0  0  0
 15 16  2  0  0  0  0
 15 19  1  0  0  0  0
 17 18  1  0  0  0  0
 17 28  1  0  0  0  0
 18 19  2  0  0  0  0
 20 21  1  0  0  0  0
 20 28  2  0  0  0  0
 21 22  2  0  0  0  0
 21 29  1  0  0  0  0
 22 23  1  0  0  0  0
 23 24  2  0  0  0  0
 24 25  1  0  0  0  0
 25 29  2  0  0  0  0
M  END
>  <CHROM.1>
140.66341365,101.33810219,72.11200721,-48.10385997,92.66418720,-68.43312953
43.14542314,41.80974881,41.70884951,0.44942058,-0.43916636,-0.46743678

>  <Name>
ligand

>  <RI>
0

>  <Rbt.Current_Directory>
/home/itssahil/PROJECTS/Mol_Feturizer/New_Systems/rnas/4JIY

>  <Rbt.Executable>
rbdock ($Id: //depot/dev/client3/rdock/2013.1/src/exe/rbdock.cxx#4 $)

>  <Rbt.Library>
libRbt.so (2013.1, Build901 2013/11/27)

>  <Rbt.Parameter_File>
/export/apps/rDock/src/rDock_2013.1_src/data/scripts/dock_solv.prm

>  <Rbt.Receptor>
prm/pocket_docking_4.prm

>  <SCORE>
4.95861

>  <SCORE.INTER>
5.56383

>  <SCORE.INTER.CONST>
1

>  <SCORE.INTER.POLAR>
0

>  <SCORE.INTER.ROT>
6

>  <SCORE.INTER.SOLV>
0.565032

>  <SCORE.INTER.VDW>
-4.07913

>  <SCORE.INTER.norm>
0.191856

>  <SCORE.INTRA>
-0.615055

>  <SCORE.INTRA.DIHEDRAL>
0.374609

>  <SCORE.INTRA.DIHEDRAL.0>
7.2424

>  <SCORE.INTRA.POLAR>
0

>  <SCORE.INTRA.POLAR.0>
0

>  <SCORE.INTRA.REPUL>
0

>  <SCORE.INTRA.REPUL.0>
0

>  <SCORE.INTRA.SOLV>
-0.013776

>  <SCORE.INTRA.SOLV.lig_0>
-3.36201

>  <SCORE.INTRA.VDW>
-0.795472

>  <SCORE.INTRA.VDW.0>
-0.910526

>  <SCORE.INTRA.norm>
-0.0212088

>  <SCORE.RESTR>
0.00983588

>  <SCORE.RESTR.CAVITY>
0.00983588

>  <SCORE.RESTR.norm>
0.000339168

>  <SCORE.SYSTEM>
0

>  <SCORE.SYSTEM.CONST>
0

>  <SCORE.SYSTEM.DIHEDRAL>
0

>  <SCORE.SYSTEM.SOLV>
0

>  <SCORE.SYSTEM.norm>
0

>  <SCORE.heavy>
29

>  <SCORE.norm>
0.170987

>  <RMSD>
3.042

$$$$
ligand
 OpenBabel11021811503D
libRbt.so/2013.1/901 2013/11/27
 29 32  0  0  0  0  0  0  0  0999 V2000
   44.6006   45.3360   41.9951 C   0  0  0  0  0  0  0  0  0  0  0  0
   35.2073   38.6418   42.3939 C   0  0  0  0  0  0  0  0  0  0  0  0
   34.8951   37.5804   41.5341 C   0  0  0  0  0  0  0  0  0  0  0  0
   35.6075   37.3743   40.4045 C   0  0  0  0  0  0  0  0  0  0  0  0
   36.6108   38.2783   40.0828 C   0  0  0  0  0  0  0  0  0  0  0  0
   36.9314   39.2714   40.9700 C   0  0  0  0  0  0  0  0  0  0  0  0
   38.0349   40.2189   40.8280 C   0  0  0  0  0  0  0  0  0  0  0  0
   39.0705   41.9164   39.6210 C   0  0  0  0  0  0  0  0  0  0  0  0
   40.0601   41.5076   38.7490 C   0  0  0  0  0  0  0  0  0  0  0  0
   41.1939   42.3069   38.5922 C   0  0  0  0  0  0  0  0  0  0  0  0
   41.3115   43.5300   39.1991 C   0  0  0  0  0  0  0  0  0  0  0  0
   40.2771   43.9211   40.0765 C   0  0  0  0  0  0  0  0  0  0  0  0
   39.1909   43.0924   40.3339 C   0  0  0  0  0  0  0  0  0  0  0  0
   42.4833   44.4658   38.9103 C   0  0  0  0  0  0  0  0  0  0  0  0
   43.5630   44.4293   39.9831 C   0  0  0  0  0  0  0  0  0  0  0  0
   43.6320   45.3418   41.0045 C   0  0  0  0  0  0  0  0  0  0  0  0
   45.5314   44.3332   41.9435 C   0  0  0  0  0  0  0  0  0  0  0  0
   45.4713   43.4351   40.9354 C   0  0  0  0  0  0  0  0  0  0  0  0
   44.5176   43.4520   39.9428 C   0  0  0  0  0  0  0  0  0  0  0  0
   47.7385   44.6899   42.5693 C   0  0  0  0  0  0  0  0  0  0  0  0
   48.8390   44.5207   43.4944 C   0  0  0  0  0  0  0  0  0  0  0  0
   48.7360   43.9807   44.7829 C   0  0  0  0  0  0  0  0  0  0  0  0
   49.8821   43.9026   45.5475 C   0  0  0  0  0  0  0  0  0  0  0  0
   51.0764   44.3297   44.9890 C   0  0  0  0  0  0  0  0  0  0  0  0
   51.1208   44.8879   43.7297 C   0  0  0  0  0  0  0  0  0  0  0  0
   36.2201   39.4777   42.1091 N   0  0  0  0  0  0  0  0  0  0  0  0
   37.9152   41.0553   39.8333 N   0  0  0  0  0  0  0  0  0  0  0  0
   46.5987   44.2252   42.9437 N   0  0  0  0  0  0  0  0  0  0  0  0
   50.0312   44.9467   42.9790 N   0  0  0  0  0  0  0  0  0  0  0  0
  1 17  2  0  0  0  0
  1 16  1  0  0  0  0
  2  3  2  0  0  0  0
  2 26  1  0  0  0  0
  3  4  1  0  0  0  0
  4  5  2  0  0  0  0
  5  6  1  0  0  0  0
  6  7  1  0  0  0  0
  6 26  2  0  0  0  0
  7 27  2  0  0  0  0
  8  9  2  0  0  0  0
  8 13  1  0  0  0  0
  8 27  1  0  0  0  0
  9 10  1  0  0  0  0
 10 11  2  0  0  0  0
 11 12  1  0  0  0  0
 11 14  1  0  0  0  0
 12 13  2  0  0  0  0
 14 15  1  0  0  0  0
 15 16  2  0  0  0  0
 15 19  1  0  0  0  0
 17 18  1  0  0  0  0
 17 28  1  0  0  0  0
 18 19  2  0  0  0  0
 20 21  1  0  0  0  0
 20 28  2  0  0  0  0
 21 22  2  0  0  0  0
 21 29  1  0  0  0  0
 22 23  1  0  0  0  0
 23 24  2  0  0  0  0
 24 25  1  0  0  0  0
 25 29  2  0  0  0  0
M  END
>  <CHROM.1>
66.32105570,-100.48757944,-96.69033524,-4.60718111,91.67773670,-99.61772387
42.63458481,42.57407971,41.39620814,0.08457785,-0.43874506,-0.86909011

>  <Name>
ligand

>  <RI>
0

>  <Rbt.Current_Directory>
/home/itssahil/PROJECTS/Mol_Feturizer/New_Systems/rnas/4JIY

>  <Rbt.Executable>
rbdock ($Id: //depot/dev/client3/rdock/2013.1/src/exe/rbdock.cxx#4 $)

>  <Rbt.Library>
libRbt.so (2013.1, Build901 2013/11/27)

>  <Rbt.Parameter_File>
/export/apps/rDock/src/rDock_2013.1_src/data/scripts/dock_solv.prm

>  <Rbt.Receptor>
prm/pocket_docking_4.prm

>  <SCORE>
4.82404

>  <SCORE.INTER>
5.40012

>  <SCORE.INTER.CONST>
1

>  <SCORE.INTER.POLAR>
0

>  <SCORE.INTER.ROT>
6

>  <SCORE.INTER.SOLV>
0.71068

>  <SCORE.INTER.VDW>
-4.23681

>  <SCORE.INTER.norm>
0.186211

>  <SCORE.INTRA>
-0.57807

>  <SCORE.INTRA.DIHEDRAL>
0.711653

>  <SCORE.INTRA.DIHEDRAL.0>
7.2424

>  <SCORE.INTRA.POLAR>
0

>  <SCORE.INTRA.POLAR.0>
0

>  <SCORE.INTRA.REPUL>
0

>  <SCORE.INTRA.REPUL.0>
0

>  <SCORE.INTRA.SOLV>
-0.0187858

>  <SCORE.INTRA.SOLV.lig_0>
-3.36201

>  <SCORE.INTRA.VDW>
-0.924504

>  <SCORE.INTRA.VDW.0>
-0.910526

>  <SCORE.INTRA.norm>
-0.0199335

>  <SCORE.RESTR>
0.00199311

>  <SCORE.RESTR.CAVITY>
0.00199311

>  <SCORE.RESTR.norm>
6.87278e-05

>  <SCORE.SYSTEM>
0

>  <SCORE.SYSTEM.CONST>
0

>  <SCORE.SYSTEM.DIHEDRAL>
0

>  <SCORE.SYSTEM.SOLV>
0

>  <SCORE.SYSTEM.norm>
0

>  <SCORE.heavy>
29

>  <SCORE.norm>
0.166346

>  <RMSD>
3.044

$$$$
ligand
 OpenBabel11021811493D
libRbt.so/2013.1/901 2013/11/27
 29 32  0  0  0  0  0  0  0  0999 V2000
   40.1401   40.5142   39.5811 C   0  0  0  0  0  0  0  0  0  0  0  0
   48.8631   44.1377   46.5299 C   0  0  0  0  0  0  0  0  0  0  0  0
   50.1666   44.4141   46.0962 C   0  0  0  0  0  0  0  0  0  0  0  0
   50.4682   44.4254   44.7790 C   0  0  0  0  0  0  0  0  0  0  0  0
   49.4727   44.0904   43.8711 C   0  0  0  0  0  0  0  0  0  0  0  0
   48.1955   43.8817   44.3197 C   0  0  0  0  0  0  0  0  0  0  0  0
   47.0246   43.6409   43.4792 C   0  0  0  0  0  0  0  0  0  0  0  0
   45.5825   44.3649   41.8037 C   0  0  0  0  0  0  0  0  0  0  0  0
   44.4188   44.9398   42.2750 C   0  0  0  0  0  0  0  0  0  0  0  0
   43.2278   44.7189   41.5810 C   0  0  0  0  0  0  0  0  0  0  0  0
   43.1933   44.0335   40.3947 C   0  0  0  0  0  0  0  0  0  0  0  0
   44.4027   43.4673   39.9370 C   0  0  0  0  0  0  0  0  0  0  0  0
   45.5798   43.5800   40.6681 C   0  0  0  0  0  0  0  0  0  0  0  0
   41.9167   43.9200   39.5642 C   0  0  0  0  0  0  0  0  0  0  0  0
   41.0333   42.7494   39.9727 C   0  0  0  0  0  0  0  0  0  0  0  0
   40.9339   41.5962   39.2370 C   0  0  0  0  0  0  0  0  0  0  0  0
   39.4291   40.6152   40.7468 C   0  0  0  0  0  0  0  0  0  0  0  0
   39.5188   41.7519   41.4723 C   0  0  0  0  0  0  0  0  0  0  0  0
   40.2957   42.8326   41.1204 C   0  0  0  0  0  0  0  0  0  0  0  0
   37.3923   39.5032   40.6758 C   0  0  0  0  0  0  0  0  0  0  0  0
   36.4755   38.5000   41.1744 C   0  0  0  0  0  0  0  0  0  0  0  0
   35.6239   38.6591   42.2752 C   0  0  0  0  0  0  0  0  0  0  0  0
   34.8195   37.5964   42.6326 C   0  0  0  0  0  0  0  0  0  0  0  0
   34.8722   36.4436   41.8650 C   0  0  0  0  0  0  0  0  0  0  0  0
   35.7537   36.3217   40.8126 C   0  0  0  0  0  0  0  0  0  0  0  0
   47.8883   43.8749   45.6433 N   0  0  0  0  0  0  0  0  0  0  0  0
   46.8151   44.5424   42.5590 N   0  0  0  0  0  0  0  0  0  0  0  0
   38.5613   39.5284   41.2126 N   0  0  0  0  0  0  0  0  0  0  0  0
   36.5134   37.3433   40.4471 N   0  0  0  0  0  0  0  0  0  0  0  0
  1 17  2  0  0  0  0
  1 16  1  0  0  0  0
  2  3  2  0  0  0  0
  2 26  1  0  0  0  0
  3  4  1  0  0  0  0
  4  5  2  0  0  0  0
  5  6  1  0  0  0  0
  6  7  1  0  0  0  0
  6 26  2  0  0  0  0
  7 27  2  0  0  0  0
  8  9  2  0  0  0  0
  8 13  1  0  0  0  0
  8 27  1  0  0  0  0
  9 10  1  0  0  0  0
 10 11  2  0  0  0  0
 11 12  1  0  0  0  0
 11 14  1  0  0  0  0
 12 13  2  0  0  0  0
 14 15  1  0  0  0  0
 15 16  2  0  0  0  0
 15 19  1  0  0  0  0
 17 18  1  0  0  0  0
 17 28  1  0  0  0  0
 18 19  2  0  0  0  0
 20 21  1  0  0  0  0
 20 28  2  0  0  0  0
 21 22  2  0  0  0  0
 21 29  1  0  0  0  0
 22 23  1  0  0  0  0
 23 24  2  0  0  0  0
 24 25  1  0  0  0  0
 25 29  2  0  0  0  0
M  END
>  <CHROM.1>
-54.10420825,-86.85226809,-104.97713568,87.28417308,88.53608108,-82.25377284
42.36315894,41.92623657,41.95468674,3.06301991,0.51446287,2.19365325

>  <Name>
ligand

>  <RI>
0

>  <Rbt.Current_Directory>
/home/itssahil/PROJECTS/Mol_Feturizer/New_Systems/rnas/4JIY

>  <Rbt.Executable>
rbdock ($Id: //depot/dev/client3/rdock/2013.1/src/exe/rbdock.cxx#4 $)

>  <Rbt.Library>
libRbt.so (2013.1, Build901 2013/11/27)

>  <Rbt.Parameter_File>
/export/apps/rDock/src/rDock_2013.1_src/data/scripts/dock_solv.prm

>  <Rbt.Receptor>
prm/pocket_docking_4.prm

>  <SCORE>
5.03321

>  <SCORE.INTER>
5.93453

>  <SCORE.INTER.CONST>
1

>  <SCORE.INTER.POLAR>
0

>  <SCORE.INTER.ROT>
6

>  <SCORE.INTER.SOLV>
0.581224

>  <SCORE.INTER.VDW>
-3.83739

>  <SCORE.INTER.norm>
0.204639

>  <SCORE.INTRA>
-0.901317

>  <SCORE.INTRA.DIHEDRAL>
0.446041

>  <SCORE.INTRA.DIHEDRAL.0>
7.2424

>  <SCORE.INTRA.POLAR>
0

>  <SCORE.INTRA.POLAR.0>
0

>  <SCORE.INTRA.REPUL>
0

>  <SCORE.INTRA.REPUL.0>
0

>  <SCORE.INTRA.SOLV>
-0.0186856

>  <SCORE.INTRA.SOLV.lig_0>
-3.36201

>  <SCORE.INTRA.VDW>
-1.115

>  <SCORE.INTRA.VDW.0>
-0.910526

>  <SCORE.INTRA.norm>
-0.0310799

>  <SCORE.RESTR>
0

>  <SCORE.RESTR.CAVITY>
0

>  <SCORE.RESTR.norm>
0

>  <SCORE.SYSTEM>
0

>  <SCORE.SYSTEM.CONST>
0

>  <SCORE.SYSTEM.DIHEDRAL>
0

>  <SCORE.SYSTEM.SOLV>
0

>  <SCORE.SYSTEM.norm>
0

>  <SCORE.heavy>
29

>  <SCORE.norm>
0.173559

>  <RMSD>
3.045

$$$$
ligand
 OpenBabel11021811503D
libRbt.so/2013.1/901 2013/11/27
 29 32  0  0  0  0  0  0  0  0999 V2000
   39.1195   43.5891   39.8688 C   0  0  0  0  0  0  0  0  0  0  0  0
   50.9227   44.6023   44.2040 C   0  0  0  0  0  0  0  0  0  0  0  0
   50.7789   44.1345   45.5171 C   0  0  0  0  0  0  0  0  0  0  0  0
   49.5526   43.9343   46.0483 C   0  0  0  0  0  0  0  0  0  0  0  0
   48.4409   44.2673   45.2864 C   0  0  0  0  0  0  0  0  0  0  0  0
   48.6107   44.6671   43.9873 C   0  0  0  0  0  0  0  0  0  0  0  0
   47.5396   44.9344   43.0299 C   0  0  0  0  0  0  0  0  0  0  0  0
   45.5529   44.2743   42.0158 C   0  0  0  0  0  0  0  0  0  0  0  0
   44.5881   45.2457   42.1962 C   0  0  0  0  0  0  0  0  0  0  0  0
   43.5917   45.3948   41.2298 C   0  0  0  0  0  0  0  0  0  0  0  0
   43.5970   44.6769   40.0624 C   0  0  0  0  0  0  0  0  0  0  0  0
   44.6031   43.6991   39.9065 C   0  0  0  0  0  0  0  0  0  0  0  0
   45.5405   43.4561   40.9040 C   0  0  0  0  0  0  0  0  0  0  0  0
   42.5922   44.9458   38.9442 C   0  0  0  0  0  0  0  0  0  0  0  0
   41.3558   44.0607   39.0183 C   0  0  0  0  0  0  0  0  0  0  0  0
   40.2588   44.3723   39.7800 C   0  0  0  0  0  0  0  0  0  0  0  0
   39.0998   42.4401   39.1244 C   0  0  0  0  0  0  0  0  0  0  0  0
   40.1808   42.1254   38.3769 C   0  0  0  0  0  0  0  0  0  0  0  0
   41.3185   42.8969   38.3026 C   0  0  0  0  0  0  0  0  0  0  0  0
   37.9320   40.6872   40.1011 C   0  0  0  0  0  0  0  0  0  0  0  0
   36.8536   39.7216   40.0964 C   0  0  0  0  0  0  0  0  0  0  0  0
   35.4951   40.0262   40.2515 C   0  0  0  0  0  0  0  0  0  0  0  0
   34.5906   38.9841   40.2393 C   0  0  0  0  0  0  0  0  0  0  0  0
   35.0698   37.6989   40.0406 C   0  0  0  0  0  0  0  0  0  0  0  0
   36.4198   37.4454   39.9295 C   0  0  0  0  0  0  0  0  0  0  0  0
   49.8425   44.8642   43.4489 N   0  0  0  0  0  0  0  0  0  0  0  0
   46.5577   44.0749   43.0512 N   0  0  0  0  0  0  0  0  0  0  0  0
   37.9432   41.5383   39.1363 N   0  0  0  0  0  0  0  0  0  0  0  0
   37.2943   38.4401   39.9169 N   0  0  0  0  0  0  0  0  0  0  0  0
  1 17  2  0  0  0  0
  1 16  1  0  0  0  0
  2  3  2  0  0  0  0
  2 26  1  0  0  0  0
  3  4  1  0  0  0  0
  4  5  2  0  0  0  0
  5  6  1  0  0  0  0
  6  7  1  0  0  0  0
  6 26  2  0  0  0  0
  7 27  2  0  0  0  0
  8  9  2  0  0  0  0
  8 13  1  0  0  0  0
  8 27  1  0  0  0  0
  9 10  1  0  0  0  0
 10 11  2  0  0  0  0
 11 12  1  0  0  0  0
 11 14  1  0  0  0  0
 12 13  2  0  0  0  0
 14 15  1  0  0  0  0
 15 16  2  0  0  0  0
 15 19  1  0  0  0  0
 17 18  1  0  0  0  0
 17 28  1  0  0  0  0
 18 19  2  0  0  0  0
 20 21  1  0  0  0  0
 20 28  2  0  0  0  0
 21 22  2  0  0  0  0
 21 29  1  0  0  0  0
 22 23  1  0  0  0  0
 23 24  2  0  0  0  0
 24 25  1  0  0  0  0
 25 29  2  0  0  0  0
M  END
>  <CHROM.1>
-42.11851443,-93.70156067,85.81598062,-64.97771167,-79.99640606,-84.66476225
42.60233611,42.79936316,41.16741813,3.08755318,0.48318712,2.42277730

>  <Name>
ligand

>  <RI>
0

>  <Rbt.Current_Directory>
/home/itssahil/PROJECTS/Mol_Feturizer/New_Systems/rnas/4JIY

>  <Rbt.Executable>
rbdock ($Id: //depot/dev/client3/rdock/2013.1/src/exe/rbdock.cxx#4 $)

>  <Rbt.Library>
libRbt.so (2013.1, Build901 2013/11/27)

>  <Rbt.Parameter_File>
/export/apps/rDock/src/rDock_2013.1_src/data/scripts/dock_solv.prm

>  <Rbt.Receptor>
prm/pocket_docking_4.prm

>  <SCORE>
5.26396

>  <SCORE.INTER>
6.20378

>  <SCORE.INTER.CONST>
1

>  <SCORE.INTER.POLAR>
0

>  <SCORE.INTER.ROT>
6

>  <SCORE.INTER.SOLV>
0.593056

>  <SCORE.INTER.VDW>
-3.66183

>  <SCORE.INTER.norm>
0.213923

>  <SCORE.INTRA>
-0.939824

>  <SCORE.INTRA.DIHEDRAL>
0.217107

>  <SCORE.INTRA.DIHEDRAL.0>
7.2424

>  <SCORE.INTRA.POLAR>
0

>  <SCORE.INTRA.POLAR.0>
0

>  <SCORE.INTRA.REPUL>
0

>  <SCORE.INTRA.REPUL.0>
0

>  <SCORE.INTRA.SOLV>
-0.0202645

>  <SCORE.INTRA.SOLV.lig_0>
-3.36201

>  <SCORE.INTRA.VDW>
-1.03825

>  <SCORE.INTRA.VDW.0>
-0.910526

>  <SCORE.INTRA.norm>
-0.0324077

>  <SCORE.RESTR>
0

>  <SCORE.RESTR.CAVITY>
0

>  <SCORE.RESTR.norm>
0

>  <SCORE.SYSTEM>
0

>  <SCORE.SYSTEM.CONST>
0

>  <SCORE.SYSTEM.DIHEDRAL>
0

>  <SCORE.SYSTEM.SOLV>
0

>  <SCORE.SYSTEM.norm>
0

>  <SCORE.heavy>
29

>  <SCORE.norm>
0.181516

>  <RMSD>
3.055

$$$$
ligand
 OpenBabel11021811493D
libRbt.so/2013.1/901 2013/11/27
 29 32  0  0  0  0  0  0  0  0999 V2000
   43.0799   43.6189   40.9943 C   0  0  0  0  0  0  0  0  0  0  0  0
   35.0436   35.9187   41.2976 C   0  0  0  0  0  0  0  0  0  0  0  0
   35.3901   34.8273   40.4899 C   0  0  0  0  0  0  0  0  0  0  0  0
   36.3570   34.9413   39.5528 C   0  0  0  0  0  0  0  0  0  0  0  0
   36.9503   36.1822   39.3641 C   0  0  0  0  0  0  0  0  0  0  0  0
   36.6328   37.2148   40.2064 C   0  0  0  0  0  0  0  0  0  0  0  0
   37.2571   38.5360   40.2095 C   0  0  0  0  0  0  0  0  0  0  0  0
   37.7165   40.5335   39.1095 C   0  0  0  0  0  0  0  0  0  0  0  0
   37.1578   41.6468   39.7058 C   0  0  0  0  0  0  0  0  0  0  0  0
   37.8209   42.8711   39.6043 C   0  0  0  0  0  0  0  0  0  0  0  0
   39.0549   42.9839   39.0186 C   0  0  0  0  0  0  0  0  0  0  0  0
   39.6011   41.8241   38.4276 C   0  0  0  0  0  0  0  0  0  0  0  0
   38.9089   40.6184   38.4191 C   0  0  0  0  0  0  0  0  0  0  0  0
   39.8424   44.2921   39.0395 C   0  0  0  0  0  0  0  0  0  0  0  0
   40.9197   44.3307   40.1145 C   0  0  0  0  0  0  0  0  0  0  0  0
   42.0811   43.6057   40.0343 C   0  0  0  0  0  0  0  0  0  0  0  0
   42.8835   44.4305   42.0794 C   0  0  0  0  0  0  0  0  0  0  0  0
   41.7380   45.1423   42.1661 C   0  0  0  0  0  0  0  0  0  0  0  0
   40.7393   45.1155   41.2189 C   0  0  0  0  0  0  0  0  0  0  0  0
   44.8283   45.3666   42.9349 C   0  0  0  0  0  0  0  0  0  0  0  0
   45.8765   45.4268   43.9314 C   0  0  0  0  0  0  0  0  0  0  0  0
   45.7305   45.9358   45.2283 C   0  0  0  0  0  0  0  0  0  0  0  0
   46.8362   45.9359   46.0539 C   0  0  0  0  0  0  0  0  0  0  0  0
   48.0199   45.4026   45.5690 C   0  0  0  0  0  0  0  0  0  0  0  0
   48.1237   44.9469   44.2725 C   0  0  0  0  0  0  0  0  0  0  0  0
   35.6647   37.1014   41.1529 N   0  0  0  0  0  0  0  0  0  0  0  0
   36.9972   39.2681   39.1608 N   0  0  0  0  0  0  0  0  0  0  0  0
   43.8770   44.5284   43.1538 N   0  0  0  0  0  0  0  0  0  0  0  0
   47.0633   44.9212   43.4793 N   0  0  0  0  0  0  0  0  0  0  0  0
  1 17  2  0  0  0  0
  1 16  1  0  0  0  0
  2  3  2  0  0  0  0
  2 26  1  0  0  0  0
  3  4  1  0  0  0  0
  4  5  2  0  0  0  0
  5  6  1  0  0  0  0
  6  7  1  0  0  0  0
  6 26  2  0  0  0  0
  7 27  2  0  0  0  0
  8  9  2  0  0  0  0
  8 13  1  0  0  0  0
  8 27  1  0  0  0  0
  9 10  1  0  0  0  0
 10 11  2  0  0  0  0
 11 12  1  0  0  0  0
 11 14  1  0  0  0  0
 12 13  2  0  0  0  0
 14 15  1  0  0  0  0
 15 16  2  0  0  0  0
 15 19  1  0  0  0  0
 17 18  1  0  0  0  0
 17 28  1  0  0  0  0
 18 19  2  0  0  0  0
 20 21  1  0  0  0  0
 20 28  2  0  0  0  0
 21 22  2  0  0  0  0
 21 29  1  0  0  0  0
 22 23  1  0  0  0  0
 23 24  2  0  0  0  0
 24 25  1  0  0  0  0
 25 29  2  0  0  0  0
M  END
>  <CHROM.1>
68.45335414,99.44403498,72.40539013,-69.60984205,-88.79471363,84.49933472
40.76463474,41.98271512,41.24150681,0.39885266,-0.65719426,-0.49173783

>  <Name>
ligand

>  <RI>
0

>  <Rbt.Current_Directory>
/home/itssahil/PROJECTS/Mol_Feturizer/New_Systems/rnas/4JIY

>  <Rbt.Executable>
rbdock ($Id: //depot/dev/client3/rdock/2013.1/src/exe/rbdock.cxx#4 $)

>  <Rbt.Library>
libRbt.so (2013.1, Build901 2013/11/27)

>  <Rbt.Parameter_File>
/export/apps/rDock/src/rDock_2013.1_src/data/scripts/dock_solv.prm

>  <Rbt.Receptor>
prm/pocket_docking_3.prm

>  <SCORE>
9.68543

>  <SCORE.INTER>
10.9381

>  <SCORE.INTER.CONST>
1

>  <SCORE.INTER.POLAR>
0

>  <SCORE.INTER.ROT>
6

>  <SCORE.INTER.SOLV>
8.88178e-16

>  <SCORE.INTER.VDW>
-0.307938

>  <SCORE.INTER.norm>
0.377176

>  <SCORE.INTRA>
-1.25266

>  <SCORE.INTRA.DIHEDRAL>
-0.12335

>  <SCORE.INTRA.DIHEDRAL.0>
7.2424

>  <SCORE.INTRA.POLAR>
0

>  <SCORE.INTRA.POLAR.0>
0

>  <SCORE.INTRA.REPUL>
0

>  <SCORE.INTRA.REPUL.0>
0

>  <SCORE.INTRA.SOLV>
-0.0200444

>  <SCORE.INTRA.SOLV.lig_0>
-3.36201

>  <SCORE.INTRA.VDW>
-1.18096

>  <SCORE.INTRA.VDW.0>
-0.910526

>  <SCORE.INTRA.norm>
-0.0431952

>  <SCORE.RESTR>
0

>  <SCORE.RESTR.CAVITY>
0

>  <SCORE.RESTR.norm>
0

>  <SCORE.SYSTEM>
0

>  <SCORE.SYSTEM.CONST>
0

>  <SCORE.SYSTEM.DIHEDRAL>
0

>  <SCORE.SYSTEM.SOLV>
0

>  <SCORE.SYSTEM.norm>
0

>  <SCORE.heavy>
29

>  <SCORE.norm>
0.33398

>  <RMSD>
3.057

$$$$
ligand
 OpenBabel11021811503D
libRbt.so/2013.1/901 2013/11/27
 29 32  0  0  0  0  0  0  0  0999 V2000
   39.4732   42.0449   41.6746 C   0  0  0  0  0  0  0  0  0  0  0  0
   48.7808   44.1611   46.5434 C   0  0  0  0  0  0  0  0  0  0  0  0
   50.1075   44.3605   46.1390 C   0  0  0  0  0  0  0  0  0  0  0  0
   50.4443   44.3194   44.8309 C   0  0  0  0  0  0  0  0  0  0  0  0
   49.4578   44.0081   43.9050 C   0  0  0  0  0  0  0  0  0  0  0  0
   48.1602   43.8754   44.3231 C   0  0  0  0  0  0  0  0  0  0  0  0
   47.0016   43.6688   43.4570 C   0  0  0  0  0  0  0  0  0  0  0  0
   45.5992   44.4484   41.7727 C   0  0  0  0  0  0  0  0  0  0  0  0
   45.5936   43.5921   40.6894 C   0  0  0  0  0  0  0  0  0  0  0  0
   44.4404   43.5001   39.9079 C   0  0  0  0  0  0  0  0  0  0  0  0
   43.2832   44.1558   40.2384 C   0  0  0  0  0  0  0  0  0  0  0  0
   43.3215   45.0155   41.3574 C   0  0  0  0  0  0  0  0  0  0  0  0
   44.4901   45.2084   42.0855 C   0  0  0  0  0  0  0  0  0  0  0  0
   41.9830   43.9383   39.4674 C   0  0  0  0  0  0  0  0  0  0  0  0
   41.1132   42.8336   40.0512 C   0  0  0  0  0  0  0  0  0  0  0  0
   40.2767   43.0281   41.1205 C   0  0  0  0  0  0  0  0  0  0  0  0
   39.5179   40.8077   41.0896 C   0  0  0  0  0  0  0  0  0  0  0  0
   40.3451   40.6094   40.0394 C   0  0  0  0  0  0  0  0  0  0  0  0
   41.1549   41.5834   39.5004 C   0  0  0  0  0  0  0  0  0  0  0  0
   37.4810   39.6984   41.1924 C   0  0  0  0  0  0  0  0  0  0  0  0
   36.6238   38.6657   41.7347 C   0  0  0  0  0  0  0  0  0  0  0  0
   36.1708   38.6040   43.0588 C   0  0  0  0  0  0  0  0  0  0  0  0
   35.3693   37.5410   43.4219 C   0  0  0  0  0  0  0  0  0  0  0  0
   35.0283   36.6122   42.4515 C   0  0  0  0  0  0  0  0  0  0  0  0
   35.5291   36.6959   41.1703 C   0  0  0  0  0  0  0  0  0  0  0  0
   47.8180   43.9215   45.6372 N   0  0  0  0  0  0  0  0  0  0  0  0
   46.8203   44.5929   42.5534 N   0  0  0  0  0  0  0  0  0  0  0  0
   38.7051   39.6935   41.5886 N   0  0  0  0  0  0  0  0  0  0  0  0
   36.2804   37.7239   40.8054 N   0  0  0  0  0  0  0  0  0  0  0  0
  1 17  2  0  0  0  0
  1 16  1  0  0  0  0
  2  3  2  0  0  0  0
  2 26  1  0  0  0  0
  3  4  1  0  0  0  0
  4  5  2  0  0  0  0
  5  6  1  0  0  0  0
  6  7  1  0  0  0  0
  6 26  2  0  0  0  0
  7 27  2  0  0  0  0
  8  9  2  0  0  0  0
  8 13  1  0  0  0  0
  8 27  1  0  0  0  0
  9 10  1  0  0  0  0
 10 11  2  0  0  0  0
 11 12  1  0  0  0  0
 11 14  1  0  0  0  0
 12 13  2  0  0  0  0
 14 15  1  0  0  0  0
 15 16  2  0  0  0  0
 15 19  1  0  0  0  0
 17 18  1  0  0  0  0
 17 28  1  0  0  0  0
 18 19  2  0  0  0  0
 20 21  1  0  0  0  0
 20 28  2  0  0  0  0
 21 22  2  0  0  0  0
 21 29  1  0  0  0  0
 22 23  1  0  0  0  0
 23 24  2  0  0  0  0
 24 25  1  0  0  0  0
 25 29  2  0  0  0  0
M  END
>  <CHROM.1>
-57.68342496,91.33242251,81.75894821,70.80075570,-82.91895778,80.89786041
42.42259246,42.02787771,42.12886209,3.04623680,0.49425192,2.16717868

>  <Name>
ligand

>  <RI>
0

>  <Rbt.Current_Directory>
/home/itssahil/PROJECTS/Mol_Feturizer/New_Systems/rnas/4JIY

>  <Rbt.Executable>
rbdock ($Id: //depot/dev/client3/rdock/2013.1/src/exe/rbdock.cxx#4 $)

>  <Rbt.Library>
libRbt.so (2013.1, Build901 2013/11/27)

>  <Rbt.Parameter_File>
/export/apps/rDock/src/rDock_2013.1_src/data/scripts/dock_solv.prm

>  <Rbt.Receptor>
prm/pocket_docking_4.prm

>  <SCORE>
4.65224

>  <SCORE.INTER>
5.92324

>  <SCORE.INTER.CONST>
1

>  <SCORE.INTER.POLAR>
0

>  <SCORE.INTER.ROT>
6

>  <SCORE.INTER.SOLV>
0.610466

>  <SCORE.INTER.VDW>
-3.85466

>  <SCORE.INTER.norm>
0.20425

>  <SCORE.INTRA>
-1.271

>  <SCORE.INTRA.DIHEDRAL>
-0.156308

>  <SCORE.INTRA.DIHEDRAL.0>
7.2424

>  <SCORE.INTRA.POLAR>
0

>  <SCORE.INTRA.POLAR.0>
0

>  <SCORE.INTRA.REPUL>
0

>  <SCORE.INTRA.REPUL.0>
0

>  <SCORE.INTRA.SOLV>
-0.0204787

>  <SCORE.INTRA.SOLV.lig_0>
-3.36201

>  <SCORE.INTRA.VDW>
-1.18261

>  <SCORE.INTRA.VDW.0>
-0.910526

>  <SCORE.INTRA.norm>
-0.0438276

>  <SCORE.RESTR>
0

>  <SCORE.RESTR.CAVITY>
0

>  <SCORE.RESTR.norm>
0

>  <SCORE.SYSTEM>
0

>  <SCORE.SYSTEM.CONST>
0

>  <SCORE.SYSTEM.DIHEDRAL>
0

>  <SCORE.SYSTEM.SOLV>
0

>  <SCORE.SYSTEM.norm>
0

>  <SCORE.heavy>
29

>  <SCORE.norm>
0.160422

>  <RMSD>
3.068

$$$$
ligand
 OpenBabel11021811493D
libRbt.so/2013.1/901 2013/11/27
 29 32  0  0  0  0  0  0  0  0999 V2000
   41.5929   41.4623   38.9496 C   0  0  0  0  0  0  0  0  0  0  0  0
   51.0684   44.9542   43.2508 C   0  0  0  0  0  0  0  0  0  0  0  0
   51.1910   44.4887   44.5668 C   0  0  0  0  0  0  0  0  0  0  0  0
   50.1195   43.9984   45.2284 C   0  0  0  0  0  0  0  0  0  0  0  0
   48.8832   44.0299   44.5975 C   0  0  0  0  0  0  0  0  0  0  0  0
   48.8043   44.4363   43.2918 C   0  0  0  0  0  0  0  0  0  0  0  0
   47.6020   44.4108   42.4616 C   0  0  0  0  0  0  0  0  0  0  0  0
   45.7057   45.4894   41.6544 C   0  0  0  0  0  0  0  0  0  0  0  0
   45.7302   45.4037   40.2763 C   0  0  0  0  0  0  0  0  0  0  0  0
   44.5212   45.4074   39.5783 C   0  0  0  0  0  0  0  0  0  0  0  0
   43.3104   45.3932   40.2202 C   0  0  0  0  0  0  0  0  0  0  0  0
   43.3221   45.4720   41.6296 C   0  0  0  0  0  0  0  0  0  0  0  0
   44.5116   45.5810   42.3410 C   0  0  0  0  0  0  0  0  0  0  0  0
   41.9943   45.2485   39.4591 C   0  0  0  0  0  0  0  0  0  0  0  0
   41.4310   43.8344   39.4916 C   0  0  0  0  0  0  0  0  0  0  0  0
   42.0780   42.7599   38.9368 C   0  0  0  0  0  0  0  0  0  0  0  0
   40.3945   41.2566   39.5790 C   0  0  0  0  0  0  0  0  0  0  0  0
   39.7500   42.3132   40.1219 C   0  0  0  0  0  0  0  0  0  0  0  0
   40.2259   43.6047   40.0941 C   0  0  0  0  0  0  0  0  0  0  0  0
   39.0178   39.6202   38.6749 C   0  0  0  0  0  0  0  0  0  0  0  0
   38.3314   38.3488   38.7615 C   0  0  0  0  0  0  0  0  0  0  0  0
   37.5153   37.9415   39.8247 C   0  0  0  0  0  0  0  0  0  0  0  0
   36.9441   36.6870   39.7611 C   0  0  0  0  0  0  0  0  0  0  0  0
   37.1800   35.9126   38.6362 C   0  0  0  0  0  0  0  0  0  0  0  0
   38.0204   36.3426   37.6321 C   0  0  0  0  0  0  0  0  0  0  0  0
   49.8810   44.9248   42.6225 N   0  0  0  0  0  0  0  0  0  0  0  0
   46.9662   45.5477   42.3817 N   0  0  0  0  0  0  0  0  0  0  0  0
   39.7892   39.9231   39.6591 N   0  0  0  0  0  0  0  0  0  0  0  0
   38.5553   37.5536   37.6724 N   0  0  0  0  0  0  0  0  0  0  0  0
  1 17  2  0  0  0  0
  1 16  1  0  0  0  0
  2  3  2  0  0  0  0
  2 26  1  0  0  0  0
  3  4  1  0  0  0  0
  4  5  2  0  0  0  0
  5  6  1  0  0  0  0
  6  7  1  0  0  0  0
  6 26  2  0  0  0  0
  7 27  2  0  0  0  0
  8  9  2  0  0  0  0
  8 13  1  0  0  0  0
  8 27  1  0  0  0  0
  9 10  1  0  0  0  0
 10 11  2  0  0  0  0
 11 12  1  0  0  0  0
 11 14  1  0  0  0  0
 12 13  2  0  0  0  0
 14 15  1  0  0  0  0
 15 16  2  0  0  0  0
 15 19  1  0  0  0  0
 17 18  1  0  0  0  0
 17 28  1  0  0  0  0
 18 19  2  0  0  0  0
 20 21  1  0  0  0  0
 20 28  2  0  0  0  0
 21 22  2  0  0  0  0
 21 29  1  0  0  0  0
 22 23  1  0  0  0  0
 23 24  2  0  0  0  0
 24 25  1  0  0  0  0
 25 29  2  0  0  0  0
M  END
>  <CHROM.1>
97.75690982,100.11463473,-63.26022795,54.95308429,-75.10671491,-89.18455152
43.26168216,42.49619251,40.72491782,2.68079036,0.47485841,2.97851195

>  <Name>
ligand

>  <RI>
0

>  <Rbt.Current_Directory>
/home/itssahil/PROJECTS/Mol_Feturizer/New_Systems/rnas/4JIY

>  <Rbt.Executable>
rbdock ($Id: //depot/dev/client3/rdock/2013.1/src/exe/rbdock.cxx#4 $)

>  <Rbt.Library>
libRbt.so (2013.1, Build901 2013/11/27)

>  <Rbt.Parameter_File>
/export/apps/rDock/src/rDock_2013.1_src/data/scripts/dock_solv.prm

>  <Rbt.Receptor>
prm/pocket_docking_4.prm

>  <SCORE>
4.7497

>  <SCORE.INTER>
5.70284

>  <SCORE.INTER.CONST>
1

>  <SCORE.INTER.POLAR>
0

>  <SCORE.INTER.ROT>
6

>  <SCORE.INTER.SOLV>
0.562981

>  <SCORE.INTER.VDW>
-3.98577

>  <SCORE.INTER.norm>
0.19665

>  <SCORE.INTRA>
-0.980631

>  <SCORE.INTRA.DIHEDRAL>
0.240486

>  <SCORE.INTRA.DIHEDRAL.0>
7.2424

>  <SCORE.INTRA.POLAR>
0

>  <SCORE.INTRA.POLAR.0>
0

>  <SCORE.INTRA.REPUL>
0

>  <SCORE.INTRA.REPUL.0>
0

>  <SCORE.INTRA.SOLV>
-0.0184504

>  <SCORE.INTRA.SOLV.lig_0>
-3.36201

>  <SCORE.INTRA.VDW>
-1.09165

>  <SCORE.INTRA.VDW.0>
-0.910526

>  <SCORE.INTRA.norm>
-0.0338148

>  <SCORE.RESTR>
0.0274857

>  <SCORE.RESTR.CAVITY>
0.0274857

>  <SCORE.RESTR.norm>
0.000947782

>  <SCORE.SYSTEM>
0

>  <SCORE.SYSTEM.CONST>
0

>  <SCORE.SYSTEM.DIHEDRAL>
0

>  <SCORE.SYSTEM.SOLV>
0

>  <SCORE.SYSTEM.norm>
0

>  <SCORE.heavy>
29

>  <SCORE.norm>
0.163783

>  <RMSD>
3.074

$$$$
ligand
 OpenBabel11021811493D
libRbt.so/2013.1/901 2013/11/27
 29 32  0  0  0  0  0  0  0  0999 V2000
   44.7527   44.2214   41.8874 C   0  0  0  0  0  0  0  0  0  0  0  0
   34.9470   38.7920   41.8777 C   0  0  0  0  0  0  0  0  0  0  0  0
   35.1651   37.4101   41.9588 C   0  0  0  0  0  0  0  0  0  0  0  0
   36.2790   36.8549   41.4326 C   0  0  0  0  0  0  0  0  0  0  0  0
   37.1673   37.6761   40.7515 C   0  0  0  0  0  0  0  0  0  0  0  0
   36.9574   39.0297   40.7384 C   0  0  0  0  0  0  0  0  0  0  0  0
   37.8609   40.0277   40.1700 C   0  0  0  0  0  0  0  0  0  0  0  0
   39.7965   41.3054   40.3485 C   0  0  0  0  0  0  0  0  0  0  0  0
   39.6685   42.5656   40.8986 C   0  0  0  0  0  0  0  0  0  0  0  0
   40.4321   43.6109   40.3758 C   0  0  0  0  0  0  0  0  0  0  0  0
   41.3753   43.4069   39.4026 C   0  0  0  0  0  0  0  0  0  0  0  0
   41.4864   42.1046   38.8694 C   0  0  0  0  0  0  0  0  0  0  0  0
   40.6595   41.0718   39.2968 C   0  0  0  0  0  0  0  0  0  0  0  0
   42.3103   44.5213   38.9377 C   0  0  0  0  0  0  0  0  0  0  0  0
   43.5288   44.6992   39.8329 C   0  0  0  0  0  0  0  0  0  0  0  0
   43.6580   44.0805   41.0501 C   0  0  0  0  0  0  0  0  0  0  0  0
   45.7712   45.0218   41.4437 C   0  0  0  0  0  0  0  0  0  0  0  0
   45.6460   45.6385   40.2478 C   0  0  0  0  0  0  0  0  0  0  0  0
   44.5503   45.5101   39.4243 C   0  0  0  0  0  0  0  0  0  0  0  0
   47.6421   44.1700   42.5227 C   0  0  0  0  0  0  0  0  0  0  0  0
   48.7929   44.3309   43.3859 C   0  0  0  0  0  0  0  0  0  0  0  0
   50.0092   44.9160   43.0107 C   0  0  0  0  0  0  0  0  0  0  0  0
   51.0168   44.9791   43.9515 C   0  0  0  0  0  0  0  0  0  0  0  0
   50.7608   44.4927   45.2238 C   0  0  0  0  0  0  0  0  0  0  0  0
   49.5598   43.8924   45.5345 C   0  0  0  0  0  0  0  0  0  0  0  0
   35.8408   39.5912   41.2712 N   0  0  0  0  0  0  0  0  0  0  0  0
   38.9568   40.2263   40.8503 N   0  0  0  0  0  0  0  0  0  0  0  0
   46.9810   45.2380   42.2442 N   0  0  0  0  0  0  0  0  0  0  0  0
   48.5784   43.8471   44.6462 N   0  0  0  0  0  0  0  0  0  0  0  0
  1 17  2  0  0  0  0
  1 16  1  0  0  0  0
  2  3  2  0  0  0  0
  2 26  1  0  0  0  0
  3  4  1  0  0  0  0
  4  5  2  0  0  0  0
  5  6  1  0  0  0  0
  6  7  1  0  0  0  0
  6 26  2  0  0  0  0
  7 27  2  0  0  0  0
  8  9  2  0  0  0  0
  8 13  1  0  0  0  0
  8 27  1  0  0  0  0
  9 10  1  0  0  0  0
 10 11  2  0  0  0  0
 11 12  1  0  0  0  0
 11 14  1  0  0  0  0
 12 13  2  0  0  0  0
 14 15  1  0  0  0  0
 15 16  2  0  0  0  0
 15 19  1  0  0  0  0
 17 18  1  0  0  0  0
 17 28  1  0  0  0  0
 18 19  2  0  0  0  0
 20 21  1  0  0  0  0
 20 28  2  0  0  0  0
 21 22  2  0  0  0  0
 21 29  1  0  0  0  0
 22 23  1  0  0  0  0
 23 24  2  0  0  0  0
 24 25  1  0  0  0  0
 25 29  2  0  0  0  0
M  END
>  <CHROM.1>
-71.91094615,83.08948063,-10.37788338,-72.86056117,94.77586755,59.50581163
42.75733971,42.52738437,41.43767985,0.15860272,-0.45149088,-0.81488546

>  <Name>
ligand

>  <RI>
0

>  <Rbt.Current_Directory>
/home/itssahil/PROJECTS/Mol_Feturizer/New_Systems/rnas/4JIY

>  <Rbt.Executable>
rbdock ($Id: //depot/dev/client3/rdock/2013.1/src/exe/rbdock.cxx#4 $)

>  <Rbt.Library>
libRbt.so (2013.1, Build901 2013/11/27)

>  <Rbt.Parameter_File>
/export/apps/rDock/src/rDock_2013.1_src/data/scripts/dock_solv.prm

>  <Rbt.Receptor>
prm/pocket_docking_4.prm

>  <SCORE>
4.55226

>  <SCORE.INTER>
5.34575

>  <SCORE.INTER.CONST>
1

>  <SCORE.INTER.POLAR>
0

>  <SCORE.INTER.ROT>
6

>  <SCORE.INTER.SOLV>
0.721951

>  <SCORE.INTER.VDW>
-4.27682

>  <SCORE.INTER.norm>
0.184336

>  <SCORE.INTRA>
-0.805467

>  <SCORE.INTRA.DIHEDRAL>
0.0429919

>  <SCORE.INTRA.DIHEDRAL.0>
7.2424

>  <SCORE.INTRA.POLAR>
0

>  <SCORE.INTRA.POLAR.0>
0

>  <SCORE.INTRA.REPUL>
0

>  <SCORE.INTRA.REPUL.0>
0

>  <SCORE.INTRA.SOLV>
-0.0189214

>  <SCORE.INTRA.SOLV.lig_0>
-3.36201

>  <SCORE.INTRA.VDW>
-0.817503

>  <SCORE.INTRA.VDW.0>
-0.910526

>  <SCORE.INTRA.norm>
-0.0277747

>  <SCORE.RESTR>
0.0119783

>  <SCORE.RESTR.CAVITY>
0.0119783

>  <SCORE.RESTR.norm>
0.000413046

>  <SCORE.SYSTEM>
0

>  <SCORE.SYSTEM.CONST>
0

>  <SCORE.SYSTEM.DIHEDRAL>
0

>  <SCORE.SYSTEM.SOLV>
0

>  <SCORE.SYSTEM.norm>
0

>  <SCORE.heavy>
29

>  <SCORE.norm>
0.156975

>  <RMSD>
3.077

$$$$
ligand
 OpenBabel11021811503D
libRbt.so/2013.1/901 2013/11/27
 29 32  0  0  0  0  0  0  0  0999 V2000
   45.5630   43.7499   40.5783 C   0  0  0  0  0  0  0  0  0  0  0  0
   35.7119   37.7507   42.9012 C   0  0  0  0  0  0  0  0  0  0  0  0
   34.3976   38.2177   43.0362 C   0  0  0  0  0  0  0  0  0  0  0  0
   34.0543   39.4496   42.5997 C   0  0  0  0  0  0  0  0  0  0  0  0
   35.0485   40.2654   42.0769 C   0  0  0  0  0  0  0  0  0  0  0  0
   36.3105   39.7617   41.9042 C   0  0  0  0  0  0  0  0  0  0  0  0
   37.4249   40.4541   41.2608 C   0  0  0  0  0  0  0  0  0  0  0  0
   38.9743   42.1892   41.2695 C   0  0  0  0  0  0  0  0  0  0  0  0
   40.2734   41.7210   41.2712 C   0  0  0  0  0  0  0  0  0  0  0  0
   41.2672   42.4861   40.6579 C   0  0  0  0  0  0  0  0  0  0  0  0
   40.9796   43.6357   39.9695 C   0  0  0  0  0  0  0  0  0  0  0  0
   39.6399   44.0804   39.9800 C   0  0  0  0  0  0  0  0  0  0  0  0
   38.6522   43.3939   40.6774 C   0  0  0  0  0  0  0  0  0  0  0  0
   42.0444   44.3902   39.1764 C   0  0  0  0  0  0  0  0  0  0  0  0
   43.3544   44.5583   39.9336 C   0  0  0  0  0  0  0  0  0  0  0  0
   44.3605   43.6268   39.9015 C   0  0  0  0  0  0  0  0  0  0  0  0
   45.7473   44.8938   41.3079 C   0  0  0  0  0  0  0  0  0  0  0  0
   44.7565   45.8120   41.3477 C   0  0  0  0  0  0  0  0  0  0  0  0
   43.5557   45.6805   40.6874 C   0  0  0  0  0  0  0  0  0  0  0  0
   47.5373   44.0761   42.5398 C   0  0  0  0  0  0  0  0  0  0  0  0
   48.7106   44.2798   43.3628 C   0  0  0  0  0  0  0  0  0  0  0  0
   48.8345   43.8932   44.7035 C   0  0  0  0  0  0  0  0  0  0  0  0
   50.0184   44.1756   45.3538 C   0  0  0  0  0  0  0  0  0  0  0  0
   51.0312   44.7941   44.6381 C   0  0  0  0  0  0  0  0  0  0  0  0
   50.8484   45.1884   43.3303 C   0  0  0  0  0  0  0  0  0  0  0  0
   36.6572   38.5214   42.3375 N   0  0  0  0  0  0  0  0  0  0  0  0
   37.9461   41.4241   41.9615 N   0  0  0  0  0  0  0  0  0  0  0  0
   46.9840   45.1335   42.0591 N   0  0  0  0  0  0  0  0  0  0  0  0
   49.7248   44.9020   42.6900 N   0  0  0  0  0  0  0  0  0  0  0  0
  1 17  2  0  0  0  0
  1 16  1  0  0  0  0
  2  3  2  0  0  0  0
  2 26  1  0  0  0  0
  3  4  1  0  0  0  0
  4  5  2  0  0  0  0
  5  6  1  0  0  0  0
  6  7  1  0  0  0  0
  6 26  2  0  0  0  0
  7 27  2  0  0  0  0
  8  9  2  0  0  0  0
  8 13  1  0  0  0  0
  8 27  1  0  0  0  0
  9 10  1  0  0  0  0
 10 11  2  0  0  0  0
 11 12  1  0  0  0  0
 11 14  1  0  0  0  0
 12 13  2  0  0  0  0
 14 15  1  0  0  0  0
 15 16  2  0  0  0  0
 15 19  1  0  0  0  0
 17 18  1  0  0  0  0
 17 28  1  0  0  0  0
 18 19  2  0  0  0  0
 20 21  1  0  0  0  0
 20 28  2  0  0  0  0
 21 22  2  0  0  0  0
 21 29  1  0  0  0  0
 22 23  1  0  0  0  0
 23 24  2  0  0  0  0
 24 25  1  0  0  0  0
 25 29  2  0  0  0  0
M  END
>  <CHROM.1>
72.74857129,-45.36958967,87.93879277,119.98319402,-84.35322035,-32.96596941
42.43491280,42.84265776,41.83989597,0.18077164,-0.33138696,-0.83842678

>  <Name>
ligand

>  <RI>
0

>  <Rbt.Current_Directory>
/home/itssahil/PROJECTS/Mol_Feturizer/New_Systems/rnas/4JIY

>  <Rbt.Executable>
rbdock ($Id: //depot/dev/client3/rdock/2013.1/src/exe/rbdock.cxx#4 $)

>  <Rbt.Library>
libRbt.so (2013.1, Build901 2013/11/27)

>  <Rbt.Parameter_File>
/export/apps/rDock/src/rDock_2013.1_src/data/scripts/dock_solv.prm

>  <Rbt.Receptor>
prm/pocket_docking_4.prm

>  <SCORE>
5.38635

>  <SCORE.INTER>
5.52313

>  <SCORE.INTER.CONST>
1

>  <SCORE.INTER.POLAR>
0

>  <SCORE.INTER.ROT>
6

>  <SCORE.INTER.SOLV>
0.595518

>  <SCORE.INTER.VDW>
-4.11642

>  <SCORE.INTER.norm>
0.190453

>  <SCORE.INTRA>
-0.148858

>  <SCORE.INTRA.DIHEDRAL>
0.381901

>  <SCORE.INTRA.DIHEDRAL.0>
7.2424

>  <SCORE.INTRA.POLAR>
0

>  <SCORE.INTRA.POLAR.0>
0

>  <SCORE.INTRA.REPUL>
0

>  <SCORE.INTRA.REPUL.0>
0

>  <SCORE.INTRA.SOLV>
-0.0155725

>  <SCORE.INTRA.SOLV.lig_0>
-3.36201

>  <SCORE.INTRA.VDW>
-0.332022

>  <SCORE.INTRA.VDW.0>
-0.910526

>  <SCORE.INTRA.norm>
-0.00513305

>  <SCORE.RESTR>
0.0120818

>  <SCORE.RESTR.CAVITY>
0.0120818

>  <SCORE.RESTR.norm>
0.000416614

>  <SCORE.SYSTEM>
0

>  <SCORE.SYSTEM.CONST>
0

>  <SCORE.SYSTEM.DIHEDRAL>
0

>  <SCORE.SYSTEM.SOLV>
0

>  <SCORE.SYSTEM.norm>
0

>  <SCORE.heavy>
29

>  <SCORE.norm>
0.185736

>  <RMSD>
3.079

$$$$
ligand
 OpenBabel11021811503D
libRbt.so/2013.1/901 2013/11/27
 29 32  0  0  0  0  0  0  0  0999 V2000
   44.5026   44.7060   42.1126 C   0  0  0  0  0  0  0  0  0  0  0  0
   35.7027   38.3226   41.1588 C   0  0  0  0  0  0  0  0  0  0  0  0
   36.0858   36.9940   40.9320 C   0  0  0  0  0  0  0  0  0  0  0  0
   37.3383   36.6971   40.5206 C   0  0  0  0  0  0  0  0  0  0  0  0
   38.2139   37.7433   40.2635 C   0  0  0  0  0  0  0  0  0  0  0  0
   37.8308   39.0270   40.5491 C   0  0  0  0  0  0  0  0  0  0  0  0
   38.6780   40.2132   40.4462 C   0  0  0  0  0  0  0  0  0  0  0  0
   39.8478   41.7266   39.1225 C   0  0  0  0  0  0  0  0  0  0  0  0
   41.2003   41.4537   39.0673 C   0  0  0  0  0  0  0  0  0  0  0  0
   42.1025   42.5183   39.0264 C   0  0  0  0  0  0  0  0  0  0  0  0
   41.6868   43.8214   38.9392 C   0  0  0  0  0  0  0  0  0  0  0  0
   40.2970   44.0638   38.9886 C   0  0  0  0  0  0  0  0  0  0  0  0
   39.3838   43.0266   39.1408 C   0  0  0  0  0  0  0  0  0  0  0  0
   42.6718   44.9723   38.7461 C   0  0  0  0  0  0  0  0  0  0  0  0
   43.7574   45.0226   39.8122 C   0  0  0  0  0  0  0  0  0  0  0  0
   43.5372   44.6715   41.1196 C   0  0  0  0  0  0  0  0  0  0  0  0
   45.7589   45.1026   41.7396 C   0  0  0  0  0  0  0  0  0  0  0  0
   45.9796   45.4555   40.4539 C   0  0  0  0  0  0  0  0  0  0  0  0
   45.0150   45.4360   39.4719 C   0  0  0  0  0  0  0  0  0  0  0  0
   47.2953   44.0292   43.1098 C   0  0  0  0  0  0  0  0  0  0  0  0
   48.3211   44.0548   44.1308 C   0  0  0  0  0  0  0  0  0  0  0  0
   49.6953   44.1858   43.8927 C   0  0  0  0  0  0  0  0  0  0  0  0
   50.5462   44.1765   44.9791 C   0  0  0  0  0  0  0  0  0  0  0  0
   49.9947   44.0726   46.2463 C   0  0  0  0  0  0  0  0  0  0  0  0
   48.6383   43.9089   46.4275 C   0  0  0  0  0  0  0  0  0  0  0  0
   36.5737   39.3279   40.9679 N   0  0  0  0  0  0  0  0  0  0  0  0
   38.9069   40.6198   39.2273 N   0  0  0  0  0  0  0  0  0  0  0  0
   46.8602   45.1706   42.7059 N   0  0  0  0  0  0  0  0  0  0  0  0
   47.8110   43.9394   45.3937 N   0  0  0  0  0  0  0  0  0  0  0  0
  1 17  2  0  0  0  0
  1 16  1  0  0  0  0
  2  3  2  0  0  0  0
  2 26  1  0  0  0  0
  3  4  1  0  0  0  0
  4  5  2  0  0  0  0
  5  6  1  0  0  0  0
  6  7  1  0  0  0  0
  6 26  2  0  0  0  0
  7 27  2  0  0  0  0
  8  9  2  0  0  0  0
  8 13  1  0  0  0  0
  8 27  1  0  0  0  0
  9 10  1  0  0  0  0
 10 11  2  0  0  0  0
 11 12  1  0  0  0  0
 11 14  1  0  0  0  0
 12 13  2  0  0  0  0
 14 15  1  0  0  0  0
 15 16  2  0  0  0  0
 15 19  1  0  0  0  0
 17 18  1  0  0  0  0
 17 28  1  0  0  0  0
 18 19  2  0  0  0  0
 20 21  1  0  0  0  0
 20 28  2  0  0  0  0
 21 22  2  0  0  0  0
 21 29  1  0  0  0  0
 22 23  1  0  0  0  0
 23 24  2  0  0  0  0
 24 25  1  0  0  0  0
 25 29  2  0  0  0  0
M  END
>  <CHROM.1>
74.46591472,-55.70222440,-34.72834774,-85.17620345,86.02782181,71.02133014
42.89561123,42.57181727,41.33859092,0.08282878,-0.54673343,-0.78181292

>  <Name>
ligand

>  <RI>
0

>  <Rbt.Current_Directory>
/home/itssahil/PROJECTS/Mol_Feturizer/New_Systems/rnas/4JIY

>  <Rbt.Executable>
rbdock ($Id: //depot/dev/client3/rdock/2013.1/src/exe/rbdock.cxx#4 $)

>  <Rbt.Library>
libRbt.so (2013.1, Build901 2013/11/27)

>  <Rbt.Parameter_File>
/export/apps/rDock/src/rDock_2013.1_src/data/scripts/dock_solv.prm

>  <Rbt.Receptor>
prm/pocket_docking_4.prm

>  <SCORE>
4.63307

>  <SCORE.INTER>
5.4182

>  <SCORE.INTER.CONST>
1

>  <SCORE.INTER.POLAR>
0

>  <SCORE.INTER.ROT>
6

>  <SCORE.INTER.SOLV>
0.77912

>  <SCORE.INTER.VDW>
-4.24757

>  <SCORE.INTER.norm>
0.186835

>  <SCORE.INTRA>
-0.787755

>  <SCORE.INTRA.DIHEDRAL>
0.278788

>  <SCORE.INTRA.DIHEDRAL.0>
7.2424

>  <SCORE.INTRA.POLAR>
0

>  <SCORE.INTRA.POLAR.0>
0

>  <SCORE.INTRA.REPUL>
0

>  <SCORE.INTRA.REPUL.0>
0

>  <SCORE.INTRA.SOLV>
-0.0182851

>  <SCORE.INTRA.SOLV.lig_0>
-3.36201

>  <SCORE.INTRA.VDW>
-0.918007

>  <SCORE.INTRA.VDW.0>
-0.910526

>  <SCORE.INTRA.norm>
-0.027164

>  <SCORE.RESTR>
0.00261727

>  <SCORE.RESTR.CAVITY>
0.00261727

>  <SCORE.RESTR.norm>
9.02506e-05

>  <SCORE.SYSTEM>
0

>  <SCORE.SYSTEM.CONST>
0

>  <SCORE.SYSTEM.DIHEDRAL>
0

>  <SCORE.SYSTEM.SOLV>
0

>  <SCORE.SYSTEM.norm>
0

>  <SCORE.heavy>
29

>  <SCORE.norm>
0.159761

>  <RMSD>
3.111

$$$$
ligand
 OpenBabel11021811503D
libRbt.so/2013.1/901 2013/11/27
 29 32  0  0  0  0  0  0  0  0999 V2000
   44.5279   43.8577   41.9516 C   0  0  0  0  0  0  0  0  0  0  0  0
   36.6577   36.0986   39.1266 C   0  0  0  0  0  0  0  0  0  0  0  0
   35.6815   36.1198   40.1318 C   0  0  0  0  0  0  0  0  0  0  0  0
   35.5048   37.2177   40.8996 C   0  0  0  0  0  0  0  0  0  0  0  0
   36.3576   38.2973   40.7138 C   0  0  0  0  0  0  0  0  0  0  0  0
   37.2633   38.2703   39.6865 C   0  0  0  0  0  0  0  0  0  0  0  0
   38.1401   39.3710   39.2929 C   0  0  0  0  0  0  0  0  0  0  0  0
   39.8755   40.8300   39.8138 C   0  0  0  0  0  0  0  0  0  0  0  0
   39.6356   42.0162   40.4787 C   0  0  0  0  0  0  0  0  0  0  0  0
   40.3580   43.1533   40.1122 C   0  0  0  0  0  0  0  0  0  0  0  0
   41.3652   43.1076   39.1839 C   0  0  0  0  0  0  0  0  0  0  0  0
   41.5900   41.8767   38.5304 C   0  0  0  0  0  0  0  0  0  0  0  0
   40.8091   40.7583   38.7995 C   0  0  0  0  0  0  0  0  0  0  0  0
   42.2506   44.3173   38.8924 C   0  0  0  0  0  0  0  0  0  0  0  0
   43.3916   44.4833   39.8865 C   0  0  0  0  0  0  0  0  0  0  0  0
   43.5031   43.7312   41.0279 C   0  0  0  0  0  0  0  0  0  0  0  0
   45.4940   44.7888   41.6792 C   0  0  0  0  0  0  0  0  0  0  0  0
   45.3855   45.5367   40.5588 C   0  0  0  0  0  0  0  0  0  0  0  0
   44.3577   45.4208   39.6503 C   0  0  0  0  0  0  0  0  0  0  0  0
   47.5906   44.1594   42.4528 C   0  0  0  0  0  0  0  0  0  0  0  0
   48.6888   44.2838   43.3876 C   0  0  0  0  0  0  0  0  0  0  0  0
   48.6721   43.8439   44.7174 C   0  0  0  0  0  0  0  0  0  0  0  0
   49.8000   44.0527   45.4846 C   0  0  0  0  0  0  0  0  0  0  0  0
   50.8982   44.6539   44.8902 C   0  0  0  0  0  0  0  0  0  0  0  0
   50.8536   45.1029   43.5880 C   0  0  0  0  0  0  0  0  0  0  0  0
   37.4395   37.1697   38.9096 N   0  0  0  0  0  0  0  0  0  0  0  0
   39.0807   39.6570   40.1513 N   0  0  0  0  0  0  0  0  0  0  0  0
   46.6287   45.0038   42.5833 N   0  0  0  0  0  0  0  0  0  0  0  0
   49.7845   44.8872   42.8363 N   0  0  0  0  0  0  0  0  0  0  0  0
  1 17  2  0  0  0  0
  1 16  1  0  0  0  0
  2  3  2  0  0  0  0
  2 26  1  0  0  0  0
  3  4  1  0  0  0  0
  4  5  2  0  0  0  0
  5  6  1  0  0  0  0
  6  7  1  0  0  0  0
  6 26  2  0  0  0  0
  7 27  2  0  0  0  0
  8  9  2  0  0  0  0
  8 13  1  0  0  0  0
  8 27  1  0  0  0  0
  9 10  1  0  0  0  0
 10 11  2  0  0  0  0
 11 12  1  0  0  0  0
 11 14  1  0  0  0  0
 12 13  2  0  0  0  0
 14 15  1  0  0  0  0
 15 16  2  0  0  0  0
 15 19  1  0  0  0  0
 17 18  1  0  0  0  0
 17 28  1  0  0  0  0
 18 19  2  0  0  0  0
 20 21  1  0  0  0  0
 20 28  2  0  0  0  0
 21 22  2  0  0  0  0
 21 29  1  0  0  0  0
 22 23  1  0  0  0  0
 23 24  2  0  0  0  0
 24 25  1  0  0  0  0
 25 29  2  0  0  0  0
M  END
>  <CHROM.1>
68.78896601,82.27596962,-8.33638675,77.67521439,102.89005509,81.22599941
42.81975071,42.14011086,41.00407990,0.24245800,-0.53102670,-0.61345885

>  <Name>
ligand

>  <RI>
0

>  <Rbt.Current_Directory>
/home/itssahil/PROJECTS/Mol_Feturizer/New_Systems/rnas/4JIY

>  <Rbt.Executable>
rbdock ($Id: //depot/dev/client3/rdock/2013.1/src/exe/rbdock.cxx#4 $)

>  <Rbt.Library>
libRbt.so (2013.1, Build901 2013/11/27)

>  <Rbt.Parameter_File>
/export/apps/rDock/src/rDock_2013.1_src/data/scripts/dock_solv.prm

>  <Rbt.Receptor>
prm/pocket_docking_4.prm

>  <SCORE>
4.27877

>  <SCORE.INTER>
5.16379

>  <SCORE.INTER.CONST>
1

>  <SCORE.INTER.POLAR>
0

>  <SCORE.INTER.ROT>
6

>  <SCORE.INTER.SOLV>
0.681421

>  <SCORE.INTER.VDW>
-4.38461

>  <SCORE.INTER.norm>
0.178062

>  <SCORE.INTRA>
-0.903334

>  <SCORE.INTRA.DIHEDRAL>
0.0376663

>  <SCORE.INTRA.DIHEDRAL.0>
7.2424

>  <SCORE.INTRA.POLAR>
0

>  <SCORE.INTRA.POLAR.0>
0

>  <SCORE.INTRA.REPUL>
0

>  <SCORE.INTRA.REPUL.0>
0

>  <SCORE.INTRA.SOLV>
-0.0189476

>  <SCORE.INTRA.SOLV.lig_0>
-3.36201

>  <SCORE.INTRA.VDW>
-0.912694

>  <SCORE.INTRA.VDW.0>
-0.910526

>  <SCORE.INTRA.norm>
-0.0311495

>  <SCORE.RESTR>
0.0183157

>  <SCORE.RESTR.CAVITY>
0.0183157

>  <SCORE.RESTR.norm>
0.000631575

>  <SCORE.SYSTEM>
0

>  <SCORE.SYSTEM.CONST>
0

>  <SCORE.SYSTEM.DIHEDRAL>
0

>  <SCORE.SYSTEM.SOLV>
0

>  <SCORE.SYSTEM.norm>
0

>  <SCORE.heavy>
29

>  <SCORE.norm>
0.147544

>  <RMSD>
3.124

$$$$
ligand
 OpenBabel11021811503D
libRbt.so/2013.1/901 2013/11/27
 29 32  0  0  0  0  0  0  0  0999 V2000
   41.1228   41.4891   39.1786 C   0  0  0  0  0  0  0  0  0  0  0  0
   48.7089   43.9618   46.3809 C   0  0  0  0  0  0  0  0  0  0  0  0
   50.0934   44.1277   46.2419 C   0  0  0  0  0  0  0  0  0  0  0  0
   50.6562   44.2386   45.0184 C   0  0  0  0  0  0  0  0  0  0  0  0
   49.8392   44.1165   43.9026 C   0  0  0  0  0  0  0  0  0  0  0  0
   48.4836   44.0130   44.0694 C   0  0  0  0  0  0  0  0  0  0  0  0
   47.4908   43.9976   42.9973 C   0  0  0  0  0  0  0  0  0  0  0  0
   45.8758   45.1152   41.7507 C   0  0  0  0  0  0  0  0  0  0  0  0
   46.1383   45.5132   40.4547 C   0  0  0  0  0  0  0  0  0  0  0  0
   45.0934   45.5295   39.5290 C   0  0  0  0  0  0  0  0  0  0  0  0
   43.8399   45.0698   39.8384 C   0  0  0  0  0  0  0  0  0  0  0  0
   43.6089   44.6615   41.1698 C   0  0  0  0  0  0  0  0  0  0  0  0
   44.6045   44.7407   42.1370 C   0  0  0  0  0  0  0  0  0  0  0  0
   42.7403   44.9510   38.7854 C   0  0  0  0  0  0  0  0  0  0  0  0
   41.7348   43.8479   39.0849 C   0  0  0  0  0  0  0  0  0  0  0  0
   42.0147   42.5160   38.9154 C   0  0  0  0  0  0  0  0  0  0  0  0
   39.8909   41.8478   39.6566 C   0  0  0  0  0  0  0  0  0  0  0  0
   39.6080   43.1592   39.8197 C   0  0  0  0  0  0  0  0  0  0  0  0
   40.4901   44.1791   39.5421 C   0  0  0  0  0  0  0  0  0  0  0  0
   38.8382   40.4797   41.2092 C   0  0  0  0  0  0  0  0  0  0  0  0
   37.9047   39.4259   41.5461 C   0  0  0  0  0  0  0  0  0  0  0  0
   38.1913   38.0549   41.5245 C   0  0  0  0  0  0  0  0  0  0  0  0
   37.1820   37.1753   41.8593 C   0  0  0  0  0  0  0  0  0  0  0  0
   35.9522   37.6953   42.2309 C   0  0  0  0  0  0  0  0  0  0  0  0
   35.7076   39.0512   42.2012 C   0  0  0  0  0  0  0  0  0  0  0  0
   47.9145   43.9065   45.2986 N   0  0  0  0  0  0  0  0  0  0  0  0
   46.9495   45.1556   42.7339 N   0  0  0  0  0  0  0  0  0  0  0  0
   38.8700   40.8442   39.9757 N   0  0  0  0  0  0  0  0  0  0  0  0
   36.6754   39.9050   41.9036 N   0  0  0  0  0  0  0  0  0  0  0  0
  1 17  2  0  0  0  0
  1 16  1  0  0  0  0
  2  3  2  0  0  0  0
  2 26  1  0  0  0  0
  3  4  1  0  0  0  0
  4  5  2  0  0  0  0
  5  6  1  0  0  0  0
  6  7  1  0  0  0  0
  6 26  2  0  0  0  0
  7 27  2  0  0  0  0
  8  9  2  0  0  0  0
  8 13  1  0  0  0  0
  8 27  1  0  0  0  0
  9 10  1  0  0  0  0
 10 11  2  0  0  0  0
 11 12  1  0  0  0  0
 11 14  1  0  0  0  0
 12 13  2  0  0  0  0
 14 15  1  0  0  0  0
 15 16  2  0  0  0  0
 15 19  1  0  0  0  0
 17 18  1  0  0  0  0
 17 28  1  0  0  0  0
 18 19  2  0  0  0  0
 20 21  1  0  0  0  0
 20 28  2  0  0  0  0
 21 22  2  0  0  0  0
 21 29  1  0  0  0  0
 22 23  1  0  0  0  0
 23 24  2  0  0  0  0
 24 25  1  0  0  0  0
 25 29  2  0  0  0  0
M  END
>  <CHROM.1>
-95.71638614,151.06916189,-74.79675194,90.03941020,-101.88903531,94.69369021
42.96464381,42.72016028,41.69171275,3.07032227,0.48033493,2.25311880

>  <Name>
ligand

>  <RI>
0

>  <Rbt.Current_Directory>
/home/itssahil/PROJECTS/Mol_Feturizer/New_Systems/rnas/4JIY

>  <Rbt.Executable>
rbdock ($Id: //depot/dev/client3/rdock/2013.1/src/exe/rbdock.cxx#4 $)

>  <Rbt.Library>
libRbt.so (2013.1, Build901 2013/11/27)

>  <Rbt.Parameter_File>
/export/apps/rDock/src/rDock_2013.1_src/data/scripts/dock_solv.prm

>  <Rbt.Receptor>
prm/pocket_docking_4.prm

>  <SCORE>
4.53717

>  <SCORE.INTER>
5.31468

>  <SCORE.INTER.CONST>
1

>  <SCORE.INTER.POLAR>
0

>  <SCORE.INTER.ROT>
6

>  <SCORE.INTER.SOLV>
0.81735

>  <SCORE.INTER.VDW>
-4.32933

>  <SCORE.INTER.norm>
0.183265

>  <SCORE.INTRA>
-0.777513

>  <SCORE.INTRA.DIHEDRAL>
0.636342

>  <SCORE.INTRA.DIHEDRAL.0>
7.2424

>  <SCORE.INTRA.POLAR>
0

>  <SCORE.INTRA.POLAR.0>
0

>  <SCORE.INTRA.REPUL>
0

>  <SCORE.INTRA.REPUL.0>
0

>  <SCORE.INTRA.SOLV>
-0.0181681

>  <SCORE.INTRA.SOLV.lig_0>
-3.36201

>  <SCORE.INTRA.VDW>
-1.0866

>  <SCORE.INTRA.VDW.0>
-0.910526

>  <SCORE.INTRA.norm>
-0.0268108

>  <SCORE.RESTR>
0

>  <SCORE.RESTR.CAVITY>
0

>  <SCORE.RESTR.norm>
0

>  <SCORE.SYSTEM>
0

>  <SCORE.SYSTEM.CONST>
0

>  <SCORE.SYSTEM.DIHEDRAL>
0

>  <SCORE.SYSTEM.SOLV>
0

>  <SCORE.SYSTEM.norm>
0

>  <SCORE.heavy>
29

>  <SCORE.norm>
0.156454

>  <RMSD>
3.155

$$$$
ligand
 OpenBabel11021811503D
libRbt.so/2013.1/901 2013/11/27
 29 32  0  0  0  0  0  0  0  0999 V2000
   40.3413   41.5331   39.9563 C   0  0  0  0  0  0  0  0  0  0  0  0
   50.5968   44.3271   44.3192 C   0  0  0  0  0  0  0  0  0  0  0  0
   50.5146   44.7562   45.6506 C   0  0  0  0  0  0  0  0  0  0  0  0
   49.4013   45.3679   46.1114 C   0  0  0  0  0  0  0  0  0  0  0  0
   48.3695   45.6211   45.2178 C   0  0  0  0  0  0  0  0  0  0  0  0
   48.4540   45.1393   43.9384 C   0  0  0  0  0  0  0  0  0  0  0  0
   47.4044   45.2207   42.9249 C   0  0  0  0  0  0  0  0  0  0  0  0
   45.4503   44.3661   41.9963 C   0  0  0  0  0  0  0  0  0  0  0  0
   44.3611   45.2106   42.0832 C   0  0  0  0  0  0  0  0  0  0  0  0
   43.3925   45.1681   41.0787 C   0  0  0  0  0  0  0  0  0  0  0  0
   43.5370   44.3881   39.9611 C   0  0  0  0  0  0  0  0  0  0  0  0
   44.6670   43.5442   39.9004 C   0  0  0  0  0  0  0  0  0  0  0  0
   45.5881   43.4879   40.9402 C   0  0  0  0  0  0  0  0  0  0  0  0
   42.5506   44.4538   38.7971 C   0  0  0  0  0  0  0  0  0  0  0  0
   41.5333   43.3212   38.8036 C   0  0  0  0  0  0  0  0  0  0  0  0
   41.2601   42.5692   39.9175 C   0  0  0  0  0  0  0  0  0  0  0  0
   39.6572   41.2700   38.7997 C   0  0  0  0  0  0  0  0  0  0  0  0
   39.9271   42.0043   37.6977 C   0  0  0  0  0  0  0  0  0  0  0  0
   40.8523   43.0229   37.6568 C   0  0  0  0  0  0  0  0  0  0  0  0
   37.5226   40.4844   39.2650 C   0  0  0  0  0  0  0  0  0  0  0  0
   36.5385   39.4232   39.2929 C   0  0  0  0  0  0  0  0  0  0  0  0
   36.3174   38.5540   40.3689 C   0  0  0  0  0  0  0  0  0  0  0  0
   35.3480   37.5818   40.2295 C   0  0  0  0  0  0  0  0  0  0  0  0
   34.6236   37.5391   39.0488 C   0  0  0  0  0  0  0  0  0  0  0  0
   34.9031   38.3932   38.0039 C   0  0  0  0  0  0  0  0  0  0  0  0
   49.5702   44.5192   43.4739 N   0  0  0  0  0  0  0  0  0  0  0  0
   46.4310   44.3641   43.0732 N   0  0  0  0  0  0  0  0  0  0  0  0
   38.6563   40.2004   38.7270 N   0  0  0  0  0  0  0  0  0  0  0  0
   35.8154   39.3443   38.1355 N   0  0  0  0  0  0  0  0  0  0  0  0
  1 17  2  0  0  0  0
  1 16  1  0  0  0  0
  2  3  2  0  0  0  0
  2 26  1  0  0  0  0
  3  4  1  0  0  0  0
  4  5  2  0  0  0  0
  5  6  1  0  0  0  0
  6  7  1  0  0  0  0
  6 26  2  0  0  0  0
  7 27  2  0  0  0  0
  8  9  2  0  0  0  0
  8 13  1  0  0  0  0
  8 27  1  0  0  0  0
  9 10  1  0  0  0  0
 10 11  2  0  0  0  0
 11 12  1  0  0  0  0
 11 14  1  0  0  0  0
 12 13  2  0  0  0  0
 14 15  1  0  0  0  0
 15 16  2  0  0  0  0
 15 19  1  0  0  0  0
 17 18  1  0  0  0  0
 17 28  1  0  0  0  0
 18 19  2  0  0  0  0
 20 21  1  0  0  0  0
 20 28  2  0  0  0  0
 21 22  2  0  0  0  0
 21 29  1  0  0  0  0
 22 23  1  0  0  0  0
 23 24  2  0  0  0  0
 24 25  1  0  0  0  0
 25 29  2  0  0  0  0
M  END
>  <CHROM.1>
-76.92101667,-100.33827237,18.60688386,95.20733963,-89.38811934,76.93514165
42.53884684,42.59337468,40.86391873,3.07143654,-0.56224002,-0.96590581

>  <Name>
ligand

>  <RI>
0

>  <Rbt.Current_Directory>
/home/itssahil/PROJECTS/Mol_Feturizer/New_Systems/rnas/4JIY

>  <Rbt.Executable>
rbdock ($Id: //depot/dev/client3/rdock/2013.1/src/exe/rbdock.cxx#4 $)

>  <Rbt.Library>
libRbt.so (2013.1, Build901 2013/11/27)

>  <Rbt.Parameter_File>
/export/apps/rDock/src/rDock_2013.1_src/data/scripts/dock_solv.prm

>  <Rbt.Receptor>
prm/pocket_docking_4.prm

>  <SCORE>
5.89877

>  <SCORE.INTER>
6.68034

>  <SCORE.INTER.CONST>
1

>  <SCORE.INTER.POLAR>
0

>  <SCORE.INTER.ROT>
6

>  <SCORE.INTER.SOLV>
0.608767

>  <SCORE.INTER.VDW>
-3.34937

>  <SCORE.INTER.norm>
0.230356

>  <SCORE.INTRA>
-0.781565

>  <SCORE.INTRA.DIHEDRAL>
0.457079

>  <SCORE.INTRA.DIHEDRAL.0>
7.2424

>  <SCORE.INTRA.POLAR>
0

>  <SCORE.INTRA.POLAR.0>
0

>  <SCORE.INTRA.REPUL>
0

>  <SCORE.INTRA.REPUL.0>
0

>  <SCORE.INTRA.SOLV>
-0.0189526

>  <SCORE.INTRA.SOLV.lig_0>
-3.36201

>  <SCORE.INTRA.VDW>
-1.00063

>  <SCORE.INTRA.VDW.0>
-0.910526

>  <SCORE.INTRA.norm>
-0.0269505

>  <SCORE.RESTR>
0

>  <SCORE.RESTR.CAVITY>
0

>  <SCORE.RESTR.norm>
0

>  <SCORE.SYSTEM>
0

>  <SCORE.SYSTEM.CONST>
0

>  <SCORE.SYSTEM.DIHEDRAL>
0

>  <SCORE.SYSTEM.SOLV>
0

>  <SCORE.SYSTEM.norm>
0

>  <SCORE.heavy>
29

>  <SCORE.norm>
0.203406

>  <RMSD>
3.160

$$$$
ligand
 OpenBabel11021811503D
libRbt.so/2013.1/901 2013/11/27
 29 32  0  0  0  0  0  0  0  0999 V2000
   44.1087   44.9626   42.1300 C   0  0  0  0  0  0  0  0  0  0  0  0
   37.1084   37.5016   43.9046 C   0  0  0  0  0  0  0  0  0  0  0  0
   35.7279   37.6976   44.0441 C   0  0  0  0  0  0  0  0  0  0  0  0
   35.1573   38.8693   43.6868 C   0  0  0  0  0  0  0  0  0  0  0  0
   35.9800   39.8957   43.2427 C   0  0  0  0  0  0  0  0  0  0  0  0
   37.3165   39.6563   43.0620 C   0  0  0  0  0  0  0  0  0  0  0  0
   38.2817   40.5936   42.4917 C   0  0  0  0  0  0  0  0  0  0  0  0
   39.0121   41.8574   40.6804 C   0  0  0  0  0  0  0  0  0  0  0  0
   38.9416   43.2271   40.8411 C   0  0  0  0  0  0  0  0  0  0  0  0
   39.8887   44.0309   40.2038 C   0  0  0  0  0  0  0  0  0  0  0  0
   40.9425   43.5002   39.5065 C   0  0  0  0  0  0  0  0  0  0  0  0
   40.9890   42.0960   39.3701 C   0  0  0  0  0  0  0  0  0  0  0  0
   39.9960   41.2813   39.9023 C   0  0  0  0  0  0  0  0  0  0  0  0
   42.0565   44.3755   38.9363 C   0  0  0  0  0  0  0  0  0  0  0  0
   43.2269   44.5611   39.8921 C   0  0  0  0  0  0  0  0  0  0  0  0
   43.0657   44.7897   41.2347 C   0  0  0  0  0  0  0  0  0  0  0  0
   45.3781   44.8778   41.6239 C   0  0  0  0  0  0  0  0  0  0  0  0
   45.5422   44.6588   40.3005 C   0  0  0  0  0  0  0  0  0  0  0  0
   44.5043   44.5034   39.4095 C   0  0  0  0  0  0  0  0  0  0  0  0
   46.9936   43.9488   43.0086 C   0  0  0  0  0  0  0  0  0  0  0  0
   48.1014   44.0780   43.9313 C   0  0  0  0  0  0  0  0  0  0  0  0
   49.4250   44.3611   43.5705 C   0  0  0  0  0  0  0  0  0  0  0  0
   50.3696   44.4356   44.5738 C   0  0  0  0  0  0  0  0  0  0  0  0
   49.9533   44.2607   45.8841 C   0  0  0  0  0  0  0  0  0  0  0  0
   48.6456   43.9475   46.1860 C   0  0  0  0  0  0  0  0  0  0  0  0
   37.8920   38.4774   43.4156 N   0  0  0  0  0  0  0  0  0  0  0  0
   37.9898   41.0202   41.2932 N   0  0  0  0  0  0  0  0  0  0  0  0
   46.5576   45.0381   42.4807 N   0  0  0  0  0  0  0  0  0  0  0  0
   47.7269   43.8962   45.2333 N   0  0  0  0  0  0  0  0  0  0  0  0
  1 17  2  0  0  0  0
  1 16  1  0  0  0  0
  2  3  2  0  0  0  0
  2 26  1  0  0  0  0
  3  4  1  0  0  0  0
  4  5  2  0  0  0  0
  5  6  1  0  0  0  0
  6  7  1  0  0  0  0
  6 26  2  0  0  0  0
  7 27  2  0  0  0  0
  8  9  2  0  0  0  0
  8 13  1  0  0  0  0
  8 27  1  0  0  0  0
  9 10  1  0  0  0  0
 10 11  2  0  0  0  0
 11 12  1  0  0  0  0
 11 14  1  0  0  0  0
 12 13  2  0  0  0  0
 14 15  1  0  0  0  0
 15 16  2  0  0  0  0
 15 19  1  0  0  0  0
 17 18  1  0  0  0  0
 17 28  1  0  0  0  0
 18 19  2  0  0  0  0
 20 21  1  0  0  0  0
 20 28  2  0  0  0  0
 21 22  2  0  0  0  0
 21 29  1  0  0  0  0
 22 23  1  0  0  0  0
 23 24  2  0  0  0  0
 24 25  1  0  0  0  0
 25 29  2  0  0  0  0
M  END
>  <CHROM.1>
-57.14493103,91.09521293,-42.07643141,-73.01836107,-91.89142467,89.66012960
42.44517912,42.63051061,42.21288841,0.13750704,-0.40033858,-0.98719377

>  <Name>
ligand

>  <RI>
0

>  <Rbt.Current_Directory>
/home/itssahil/PROJECTS/Mol_Feturizer/New_Systems/rnas/4JIY

>  <Rbt.Executable>
rbdock ($Id: //depot/dev/client3/rdock/2013.1/src/exe/rbdock.cxx#4 $)

>  <Rbt.Library>
libRbt.so (2013.1, Build901 2013/11/27)

>  <Rbt.Parameter_File>
/export/apps/rDock/src/rDock_2013.1_src/data/scripts/dock_solv.prm

>  <Rbt.Receptor>
prm/pocket_docking_4.prm

>  <SCORE>
4.66024

>  <SCORE.INTER>
5.87114

>  <SCORE.INTER.CONST>
1

>  <SCORE.INTER.POLAR>
0

>  <SCORE.INTER.ROT>
6

>  <SCORE.INTER.SOLV>
0.641982

>  <SCORE.INTER.VDW>
-3.8999

>  <SCORE.INTER.norm>
0.202453

>  <SCORE.INTRA>
-1.21617

>  <SCORE.INTRA.DIHEDRAL>
-0.142097

>  <SCORE.INTRA.DIHEDRAL.0>
7.2424

>  <SCORE.INTRA.POLAR>
0

>  <SCORE.INTRA.POLAR.0>
0

>  <SCORE.INTRA.REPUL>
0

>  <SCORE.INTRA.REPUL.0>
0

>  <SCORE.INTRA.SOLV>
-0.0203362

>  <SCORE.INTRA.SOLV.lig_0>
-3.36201

>  <SCORE.INTRA.VDW>
-1.13495

>  <SCORE.INTRA.VDW.0>
-0.910526

>  <SCORE.INTRA.norm>
-0.0419369

>  <SCORE.RESTR>
0.00527211

>  <SCORE.RESTR.CAVITY>
0.00527211

>  <SCORE.RESTR.norm>
0.000181797

>  <SCORE.SYSTEM>
0

>  <SCORE.SYSTEM.CONST>
0

>  <SCORE.SYSTEM.DIHEDRAL>
0

>  <SCORE.SYSTEM.SOLV>
0

>  <SCORE.SYSTEM.norm>
0

>  <SCORE.heavy>
29

>  <SCORE.norm>
0.160698

>  <RMSD>
3.171

$$$$
ligand
 OpenBabel11021811503D
libRbt.so/2013.1/901 2013/11/27
 29 32  0  0  0  0  0  0  0  0999 V2000
   38.8393   41.2728   40.0158 C   0  0  0  0  0  0  0  0  0  0  0  0
   50.0450   44.9573   42.6675 C   0  0  0  0  0  0  0  0  0  0  0  0
   50.4059   44.4624   43.9279 C   0  0  0  0  0  0  0  0  0  0  0  0
   49.4840   43.8953   44.7370 C   0  0  0  0  0  0  0  0  0  0  0  0
   48.1606   43.8763   44.3180 C   0  0  0  0  0  0  0  0  0  0  0  0
   47.8472   44.3144   43.0586 C   0  0  0  0  0  0  0  0  0  0  0  0
   46.5273   44.2460   42.4353 C   0  0  0  0  0  0  0  0  0  0  0  0
   44.4043   45.1508   42.1430 C   0  0  0  0  0  0  0  0  0  0  0  0
   44.1495   45.5268   40.8389 C   0  0  0  0  0  0  0  0  0  0  0  0
   42.8393   45.4613   40.3614 C   0  0  0  0  0  0  0  0  0  0  0  0
   41.8163   44.9431   41.1120 C   0  0  0  0  0  0  0  0  0  0  0  0
   42.1139   44.5595   42.4375 C   0  0  0  0  0  0  0  0  0  0  0  0
   43.3878   44.7188   42.9711 C   0  0  0  0  0  0  0  0  0  0  0  0
   40.4168   44.7362   40.5368 C   0  0  0  0  0  0  0  0  0  0  0  0
   40.1699   43.3162   40.0467 C   0  0  0  0  0  0  0  0  0  0  0  0
   39.0922   42.5661   40.4429 C   0  0  0  0  0  0  0  0  0  0  0  0
   39.7265   40.7316   39.1244 C   0  0  0  0  0  0  0  0  0  0  0  0
   40.7934   41.4643   38.7356 C   0  0  0  0  0  0  0  0  0  0  0  0
   41.0519   42.7436   39.1737 C   0  0  0  0  0  0  0  0  0  0  0  0
   39.7272   38.4348   39.4638 C   0  0  0  0  0  0  0  0  0  0  0  0
   39.6543   37.0778   38.9652 C   0  0  0  0  0  0  0  0  0  0  0  0
   40.7054   36.3848   38.3510 C   0  0  0  0  0  0  0  0  0  0  0  0
   40.4672   35.0972   37.9155 C   0  0  0  0  0  0  0  0  0  0  0  0
   39.2146   34.5479   38.1391 C   0  0  0  0  0  0  0  0  0  0  0  0
   38.2009   35.2828   38.7151 C   0  0  0  0  0  0  0  0  0  0  0  0
   48.7731   44.8802   42.2409 N   0  0  0  0  0  0  0  0  0  0  0  0
   45.7589   45.2761   42.6632 N   0  0  0  0  0  0  0  0  0  0  0  0
   39.5546   39.3727   38.6001 N   0  0  0  0  0  0  0  0  0  0  0  0
   38.4253   36.5110   39.1571 N   0  0  0  0  0  0  0  0  0  0  0  0
  1 17  2  0  0  0  0
  1 16  1  0  0  0  0
  2  3  2  0  0  0  0
  2 26  1  0  0  0  0
  3  4  1  0  0  0  0
  4  5  2  0  0  0  0
  5  6  1  0  0  0  0
  6  7  1  0  0  0  0
  6 26  2  0  0  0  0
  7 27  2  0  0  0  0
  8  9  2  0  0  0  0
  8 13  1  0  0  0  0
  8 27  1  0  0  0  0
  9 10  1  0  0  0  0
 10 11  2  0  0  0  0
 11 12  1  0  0  0  0
 11 14  1  0  0  0  0
 12 13  2  0  0  0  0
 14 15  1  0  0  0  0
 15 16  2  0  0  0  0
 15 19  1  0  0  0  0
 17 18  1  0  0  0  0
 17 28  1  0  0  0  0
 18 19  2  0  0  0  0
 20 21  1  0  0  0  0
 20 28  2  0  0  0  0
 21 22  2  0  0  0  0
 21 29  1  0  0  0  0
 22 23  1  0  0  0  0
 23 24  2  0  0  0  0
 24 25  1  0  0  0  0
 25 29  2  0  0  0  0
M  END
>  <CHROM.1>
88.53249098,96.47109852,127.57607865,82.93520208,-86.83091628,-68.67236969
42.81418981,41.92770371,40.79955213,2.39759784,0.32624373,-2.95356901

>  <Name>
ligand

>  <RI>
0

>  <Rbt.Current_Directory>
/home/itssahil/PROJECTS/Mol_Feturizer/New_Systems/rnas/4JIY

>  <Rbt.Executable>
rbdock ($Id: //depot/dev/client3/rdock/2013.1/src/exe/rbdock.cxx#4 $)

>  <Rbt.Library>
libRbt.so (2013.1, Build901 2013/11/27)

>  <Rbt.Parameter_File>
/export/apps/rDock/src/rDock_2013.1_src/data/scripts/dock_solv.prm

>  <Rbt.Receptor>
prm/pocket_docking_4.prm

>  <SCORE>
6.10979

>  <SCORE.INTER>
7.09434

>  <SCORE.INTER.CONST>
1

>  <SCORE.INTER.POLAR>
0

>  <SCORE.INTER.ROT>
6

>  <SCORE.INTER.SOLV>
0.306937

>  <SCORE.INTER.VDW>
-2.97275

>  <SCORE.INTER.norm>
0.244633

>  <SCORE.INTRA>
-1.00896

>  <SCORE.INTRA.DIHEDRAL>
0.229408

>  <SCORE.INTRA.DIHEDRAL.0>
7.2424

>  <SCORE.INTRA.POLAR>
0

>  <SCORE.INTRA.POLAR.0>
0

>  <SCORE.INTRA.REPUL>
0

>  <SCORE.INTRA.REPUL.0>
0

>  <SCORE.INTRA.SOLV>
-0.0185202

>  <SCORE.INTRA.SOLV.lig_0>
-3.36201

>  <SCORE.INTRA.VDW>
-1.11441

>  <SCORE.INTRA.VDW.0>
-0.910526

>  <SCORE.INTRA.norm>
-0.0347918

>  <SCORE.RESTR>
0.0244046

>  <SCORE.RESTR.CAVITY>
0.0244046

>  <SCORE.RESTR.norm>
0.000841539

>  <SCORE.SYSTEM>
0

>  <SCORE.SYSTEM.CONST>
0

>  <SCORE.SYSTEM.DIHEDRAL>
0

>  <SCORE.SYSTEM.SOLV>
0

>  <SCORE.SYSTEM.norm>
0

>  <SCORE.heavy>
29

>  <SCORE.norm>
0.210682

>  <RMSD>
3.175

$$$$
ligand
 OpenBabel11021811503D
libRbt.so/2013.1/901 2013/11/27
 29 32  0  0  0  0  0  0  0  0999 V2000
   44.9564   46.3469   41.7200 C   0  0  0  0  0  0  0  0  0  0  0  0
   37.4930   37.5188   40.2409 C   0  0  0  0  0  0  0  0  0  0  0  0
   36.4173   37.2733   39.3771 C   0  0  0  0  0  0  0  0  0  0  0  0
   36.0275   38.2038   38.4780 C   0  0  0  0  0  0  0  0  0  0  0  0
   36.6741   39.4324   38.4773 C   0  0  0  0  0  0  0  0  0  0  0  0
   37.7583   39.6226   39.2924 C   0  0  0  0  0  0  0  0  0  0  0  0
   38.6095   40.8102   39.3167 C   0  0  0  0  0  0  0  0  0  0  0  0
   40.2680   42.1028   38.3221 C   0  0  0  0  0  0  0  0  0  0  0  0
   41.5402   41.8784   38.8102 C   0  0  0  0  0  0  0  0  0  0  0  0
   42.4145   42.9592   38.9378 C   0  0  0  0  0  0  0  0  0  0  0  0
   42.0857   44.2164   38.5023 C   0  0  0  0  0  0  0  0  0  0  0  0
   40.7805   44.4084   38.0000 C   0  0  0  0  0  0  0  0  0  0  0  0
   39.8554   43.3712   37.9662 C   0  0  0  0  0  0  0  0  0  0  0  0
   43.0948   45.3627   38.5072 C   0  0  0  0  0  0  0  0  0  0  0  0
   44.0376   45.3313   39.7022 C   0  0  0  0  0  0  0  0  0  0  0  0
   44.1103   46.3451   40.6230 C   0  0  0  0  0  0  0  0  0  0  0  0
   45.7522   45.2455   41.8885 C   0  0  0  0  0  0  0  0  0  0  0  0
   45.6887   44.2465   40.9805 C   0  0  0  0  0  0  0  0  0  0  0  0
   44.8589   44.2538   39.8821 C   0  0  0  0  0  0  0  0  0  0  0  0
   47.9248   45.2507   42.7070 C   0  0  0  0  0  0  0  0  0  0  0  0
   48.8777   45.0596   43.7797 C   0  0  0  0  0  0  0  0  0  0  0  0
   48.9662   43.9194   44.5887 C   0  0  0  0  0  0  0  0  0  0  0  0
   49.9238   43.9009   45.5821 C   0  0  0  0  0  0  0  0  0  0  0  0
   50.7670   44.9941   45.7040 C   0  0  0  0  0  0  0  0  0  0  0  0
   50.6168   46.1087   44.9075 C   0  0  0  0  0  0  0  0  0  0  0  0
   38.1557   38.6868   40.1937 N   0  0  0  0  0  0  0  0  0  0  0  0
   39.3333   40.9885   38.2455 N   0  0  0  0  0  0  0  0  0  0  0  0
   46.6816   45.1363   43.0178 N   0  0  0  0  0  0  0  0  0  0  0  0
   49.7163   46.1277   43.9365 N   0  0  0  0  0  0  0  0  0  0  0  0
  1 17  2  0  0  0  0
  1 16  1  0  0  0  0
  2  3  2  0  0  0  0
  2 26  1  0  0  0  0
  3  4  1  0  0  0  0
  4  5  2  0  0  0  0
  5  6  1  0  0  0  0
  6  7  1  0  0  0  0
  6 26  2  0  0  0  0
  7 27  2  0  0  0  0
  8  9  2  0  0  0  0
  8 13  1  0  0  0  0
  8 27  1  0  0  0  0
  9 10  1  0  0  0  0
 10 11  2  0  0  0  0
 11 12  1  0  0  0  0
 11 14  1  0  0  0  0
 12 13  2  0  0  0  0
 14 15  1  0  0  0  0
 15 16  2  0  0  0  0
 15 19  1  0  0  0  0
 17 18  1  0  0  0  0
 17 28  1  0  0  0  0
 18 19  2  0  0  0  0
 20 21  1  0  0  0  0
 20 28  2  0  0  0  0
 21 22  2  0  0  0  0
 21 29  1  0  0  0  0
 22 23  1  0  0  0  0
 23 24  2  0  0  0  0
 24 25  1  0  0  0  0
 25 29  2  0  0  0  0
M  END
>  <CHROM.1>
-68.00556570,-36.48142623,-119.24591371,56.10344428,89.71396711,-108.14274347
43.22533851,43.07757449,40.75007538,0.11224700,-0.59402854,-0.65200996

>  <Name>
ligand

>  <RI>
0

>  <Rbt.Current_Directory>
/home/itssahil/PROJECTS/Mol_Feturizer/New_Systems/rnas/4JIY

>  <Rbt.Executable>
rbdock ($Id: //depot/dev/client3/rdock/2013.1/src/exe/rbdock.cxx#4 $)

>  <Rbt.Library>
libRbt.so (2013.1, Build901 2013/11/27)

>  <Rbt.Parameter_File>
/export/apps/rDock/src/rDock_2013.1_src/data/scripts/dock_solv.prm

>  <Rbt.Receptor>
prm/pocket_docking_4.prm

>  <SCORE>
5.45915

>  <SCORE.INTER>
6.09384

>  <SCORE.INTER.CONST>
1

>  <SCORE.INTER.POLAR>
0

>  <SCORE.INTER.ROT>
6

>  <SCORE.INTER.SOLV>
0.697513

>  <SCORE.INTER.VDW>
-3.76994

>  <SCORE.INTER.norm>
0.210132

>  <SCORE.INTRA>
-0.636189

>  <SCORE.INTRA.DIHEDRAL>
-0.0154444

>  <SCORE.INTRA.DIHEDRAL.0>
7.2424

>  <SCORE.INTRA.POLAR>
0

>  <SCORE.INTRA.POLAR.0>
0

>  <SCORE.INTRA.REPUL>
0

>  <SCORE.INTRA.REPUL.0>
0

>  <SCORE.INTRA.SOLV>
-0.0191434

>  <SCORE.INTRA.SOLV.lig_0>
-3.36201

>  <SCORE.INTRA.VDW>
-0.618895

>  <SCORE.INTRA.VDW.0>
-0.910526

>  <SCORE.INTRA.norm>
-0.0219375

>  <SCORE.RESTR>
0.00149867

>  <SCORE.RESTR.CAVITY>
0.00149867

>  <SCORE.RESTR.norm>
5.16783e-05

>  <SCORE.SYSTEM>
0

>  <SCORE.SYSTEM.CONST>
0

>  <SCORE.SYSTEM.DIHEDRAL>
0

>  <SCORE.SYSTEM.SOLV>
0

>  <SCORE.SYSTEM.norm>
0

>  <SCORE.heavy>
29

>  <SCORE.norm>
0.188247

>  <RMSD>
3.178

$$$$
ligand
 OpenBabel11021811503D
libRbt.so/2013.1/901 2013/11/27
 29 32  0  0  0  0  0  0  0  0999 V2000
   44.6146   45.6061   41.7188 C   0  0  0  0  0  0  0  0  0  0  0  0
   37.0811   37.0501   43.5993 C   0  0  0  0  0  0  0  0  0  0  0  0
   37.3010   35.7696   43.0745 C   0  0  0  0  0  0  0  0  0  0  0  0
   38.2097   35.5719   42.0940 C   0  0  0  0  0  0  0  0  0  0  0  0
   38.8699   36.6767   41.5735 C   0  0  0  0  0  0  0  0  0  0  0  0
   38.6773   37.9066   42.1450 C   0  0  0  0  0  0  0  0  0  0  0  0
   39.3862   39.1335   41.7883 C   0  0  0  0  0  0  0  0  0  0  0  0
   39.7639   40.8563   40.2715 C   0  0  0  0  0  0  0  0  0  0  0  0
   39.5032   42.0868   40.8415 C   0  0  0  0  0  0  0  0  0  0  0  0
   40.2182   43.2009   40.3983 C   0  0  0  0  0  0  0  0  0  0  0  0
   41.2377   43.0964   39.4884 C   0  0  0  0  0  0  0  0  0  0  0  0
   41.4837   41.8221   38.9330 C   0  0  0  0  0  0  0  0  0  0  0  0
   40.7111   40.7186   39.2769 C   0  0  0  0  0  0  0  0  0  0  0  0
   42.1141   44.2905   39.1164 C   0  0  0  0  0  0  0  0  0  0  0  0
   43.3473   44.4316   39.9979 C   0  0  0  0  0  0  0  0  0  0  0  0
   43.5059   45.4498   40.9029 C   0  0  0  0  0  0  0  0  0  0  0  0
   45.5985   44.6600   41.6125 C   0  0  0  0  0  0  0  0  0  0  0  0
   45.4497   43.6580   40.7179 C   0  0  0  0  0  0  0  0  0  0  0  0
   44.3546   43.5134   39.8964 C   0  0  0  0  0  0  0  0  0  0  0  0
   46.8630   43.8641   43.3895 C   0  0  0  0  0  0  0  0  0  0  0  0
   48.0047   43.9520   44.2751 C   0  0  0  0  0  0  0  0  0  0  0  0
   47.9542   43.8516   45.6714 C   0  0  0  0  0  0  0  0  0  0  0  0
   49.1356   43.9732   46.3742 C   0  0  0  0  0  0  0  0  0  0  0  0
   50.3102   44.1534   45.6610 C   0  0  0  0  0  0  0  0  0  0  0  0
   50.3042   44.2827   44.2889 C   0  0  0  0  0  0  0  0  0  0  0  0
   37.7680   38.1073   43.1344 N   0  0  0  0  0  0  0  0  0  0  0  0
   38.9771   39.7034   40.6877 N   0  0  0  0  0  0  0  0  0  0  0  0
   46.8136   44.7216   42.4316 N   0  0  0  0  0  0  0  0  0  0  0  0
   49.1794   44.1448   43.6032 N   0  0  0  0  0  0  0  0  0  0  0  0
  1 17  2  0  0  0  0
  1 16  1  0  0  0  0
  2  3  2  0  0  0  0
  2 26  1  0  0  0  0
  3  4  1  0  0  0  0
  4  5  2  0  0  0  0
  5  6  1  0  0  0  0
  6  7  1  0  0  0  0
  6 26  2  0  0  0  0
  7 27  2  0  0  0  0
  8  9  2  0  0  0  0
  8 13  1  0  0  0  0
  8 27  1  0  0  0  0
  9 10  1  0  0  0  0
 10 11  2  0  0  0  0
 11 12  1  0  0  0  0
 11 14  1  0  0  0  0
 12 13  2  0  0  0  0
 14 15  1  0  0  0  0
 15 16  2  0  0  0  0
 15 19  1  0  0  0  0
 17 18  1  0  0  0  0
 17 28  1  0  0  0  0
 18 19  2  0  0  0  0
 20 21  1  0  0  0  0
 20 28  2  0  0  0  0
 21 22  2  0  0  0  0
 21 29  1  0  0  0  0
 22 23  1  0  0  0  0
 23 24  2  0  0  0  0
 24 25  1  0  0  0  0
 25 29  2  0  0  0  0
M  END
>  <CHROM.1>
77.36286267,90.10436445,-110.55694277,136.62758181,-82.59495188,105.81401396
42.99108223,41.94444757,41.96291092,0.27269325,-0.53661033,-0.75542858

>  <Name>
ligand

>  <RI>
0

>  <Rbt.Current_Directory>
/home/itssahil/PROJECTS/Mol_Feturizer/New_Systems/rnas/4JIY

>  <Rbt.Executable>
rbdock ($Id: //depot/dev/client3/rdock/2013.1/src/exe/rbdock.cxx#4 $)

>  <Rbt.Library>
libRbt.so (2013.1, Build901 2013/11/27)

>  <Rbt.Parameter_File>
/export/apps/rDock/src/rDock_2013.1_src/data/scripts/dock_solv.prm

>  <Rbt.Receptor>
prm/pocket_docking_4.prm

>  <SCORE>
4.72791

>  <SCORE.INTER>
5.51409

>  <SCORE.INTER.CONST>
1

>  <SCORE.INTER.POLAR>
0

>  <SCORE.INTER.ROT>
6

>  <SCORE.INTER.SOLV>
0.633141

>  <SCORE.INTER.VDW>
-4.13499

>  <SCORE.INTER.norm>
0.190141

>  <SCORE.INTRA>
-0.793125

>  <SCORE.INTRA.DIHEDRAL>
0.323731

>  <SCORE.INTRA.DIHEDRAL.0>
7.2424

>  <SCORE.INTRA.POLAR>
0

>  <SCORE.INTRA.POLAR.0>
0

>  <SCORE.INTRA.REPUL>
0

>  <SCORE.INTRA.REPUL.0>
0

>  <SCORE.INTRA.SOLV>
-0.0155241

>  <SCORE.INTRA.SOLV.lig_0>
-3.36201

>  <SCORE.INTRA.VDW>
-0.947228

>  <SCORE.INTRA.VDW.0>
-0.910526

>  <SCORE.INTRA.norm>
-0.0273491

>  <SCORE.RESTR>
0.00694742

>  <SCORE.RESTR.CAVITY>
0.00694742

>  <SCORE.RESTR.norm>
0.000239566

>  <SCORE.SYSTEM>
0

>  <SCORE.SYSTEM.CONST>
0

>  <SCORE.SYSTEM.DIHEDRAL>
0

>  <SCORE.SYSTEM.SOLV>
0

>  <SCORE.SYSTEM.norm>
0

>  <SCORE.heavy>
29

>  <SCORE.norm>
0.163031

>  <RMSD>
3.182

$$$$
ligand
 OpenBabel11021811503D
libRbt.so/2013.1/901 2013/11/27
 29 32  0  0  0  0  0  0  0  0999 V2000
   44.4783   45.2504   42.0579 C   0  0  0  0  0  0  0  0  0  0  0  0
   35.4831   37.6882   38.0143 C   0  0  0  0  0  0  0  0  0  0  0  0
   35.3069   36.8790   39.1447 C   0  0  0  0  0  0  0  0  0  0  0  0
   36.0063   37.1129   40.2771 C   0  0  0  0  0  0  0  0  0  0  0  0
   36.9511   38.1302   40.2710 C   0  0  0  0  0  0  0  0  0  0  0  0
   37.0602   38.9406   39.1722 C   0  0  0  0  0  0  0  0  0  0  0  0
   37.9178   40.1187   39.0627 C   0  0  0  0  0  0  0  0  0  0  0  0
   40.0285   41.0300   38.7082 C   0  0  0  0  0  0  0  0  0  0  0  0
   40.8439   41.2431   39.8021 C   0  0  0  0  0  0  0  0  0  0  0  0
   41.6447   42.3861   39.8344 C   0  0  0  0  0  0  0  0  0  0  0  0
   41.7219   43.2507   38.7738 C   0  0  0  0  0  0  0  0  0  0  0  0
   40.8819   42.9977   37.6679 C   0  0  0  0  0  0  0  0  0  0  0  0
   39.9948   41.9272   37.6596 C   0  0  0  0  0  0  0  0  0  0  0  0
   42.7073   44.4172   38.7526 C   0  0  0  0  0  0  0  0  0  0  0  0
   43.6922   44.3961   39.9133 C   0  0  0  0  0  0  0  0  0  0  0  0
   43.5994   45.2443   40.9871 C   0  0  0  0  0  0  0  0  0  0  0  0
   45.4899   44.3280   42.0325 C   0  0  0  0  0  0  0  0  0  0  0  0
   45.5893   43.4940   40.9738 C   0  0  0  0  0  0  0  0  0  0  0  0
   44.7244   43.5003   39.9027 C   0  0  0  0  0  0  0  0  0  0  0  0
   47.4581   45.0633   43.0204 C   0  0  0  0  0  0  0  0  0  0  0  0
   48.4967   44.9461   44.0218 C   0  0  0  0  0  0  0  0  0  0  0  0
   49.6908   44.2300   43.8678 C   0  0  0  0  0  0  0  0  0  0  0  0
   50.5735   44.2039   44.9282 C   0  0  0  0  0  0  0  0  0  0  0  0
   50.2480   44.9138   46.0732 C   0  0  0  0  0  0  0  0  0  0  0  0
   49.0437   45.5734   46.1907 C   0  0  0  0  0  0  0  0  0  0  0  0
   36.3544   38.7109   38.0341 N   0  0  0  0  0  0  0  0  0  0  0  0
   39.1465   39.8710   38.6989 N   0  0  0  0  0  0  0  0  0  0  0  0
   46.4745   44.2394   43.1160 N   0  0  0  0  0  0  0  0  0  0  0  0
   48.1998   45.6238   45.1711 N   0  0  0  0  0  0  0  0  0  0  0  0
  1 17  2  0  0  0  0
  1 16  1  0  0  0  0
  2  3  2  0  0  0  0
  2 26  1  0  0  0  0
  3  4  1  0  0  0  0
  4  5  2  0  0  0  0
  5  6  1  0  0  0  0
  6  7  1  0  0  0  0
  6 26  2  0  0  0  0
  7 27  2  0  0  0  0
  8  9  2  0  0  0  0
  8 13  1  0  0  0  0
  8 27  1  0  0  0  0
  9 10  1  0  0  0  0
 10 11  2  0  0  0  0
 11 12  1  0  0  0  0
 11 14  1  0  0  0  0
 12 13  2  0  0  0  0
 14 15  1  0  0  0  0
 15 16  2  0  0  0  0
 15 19  1  0  0  0  0
 17 18  1  0  0  0  0
 17 28  1  0  0  0  0
 18 19  2  0  0  0  0
 20 21  1  0  0  0  0
 20 28  2  0  0  0  0
 21 22  2  0  0  0  0
 21 29  1  0  0  0  0
 22 23  1  0  0  0  0
 23 24  2  0  0  0  0
 24 25  1  0  0  0  0
 25 29  2  0  0  0  0
M  END
>  <CHROM.1>
85.39601759,7.82273399,-105.20968574,95.92957032,97.46711428,-83.71987522
42.74677121,42.40964532,40.89765613,-0.01969489,-0.62136908,-0.88046403

>  <Name>
ligand

>  <RI>
0

>  <Rbt.Current_Directory>
/home/itssahil/PROJECTS/Mol_Feturizer/New_Systems/rnas/4JIY

>  <Rbt.Executable>
rbdock ($Id: //depot/dev/client3/rdock/2013.1/src/exe/rbdock.cxx#4 $)

>  <Rbt.Library>
libRbt.so (2013.1, Build901 2013/11/27)

>  <Rbt.Parameter_File>
/export/apps/rDock/src/rDock_2013.1_src/data/scripts/dock_solv.prm

>  <Rbt.Receptor>
prm/pocket_docking_4.prm

>  <SCORE>
5.64528

>  <SCORE.INTER>
6.25145

>  <SCORE.INTER.CONST>
1

>  <SCORE.INTER.POLAR>
0

>  <SCORE.INTER.ROT>
6

>  <SCORE.INTER.SOLV>
0.703456

>  <SCORE.INTER.VDW>
-3.66685

>  <SCORE.INTER.norm>
0.215567

>  <SCORE.INTRA>
-0.606541

>  <SCORE.INTRA.DIHEDRAL>
0.659473

>  <SCORE.INTRA.DIHEDRAL.0>
7.2424

>  <SCORE.INTRA.POLAR>
0

>  <SCORE.INTRA.POLAR.0>
0

>  <SCORE.INTRA.REPUL>
0

>  <SCORE.INTRA.REPUL.0>
0

>  <SCORE.INTRA.SOLV>
-0.0170854

>  <SCORE.INTRA.SOLV.lig_0>
-3.36201

>  <SCORE.INTRA.VDW>
-0.927735

>  <SCORE.INTRA.VDW.0>
-0.910526

>  <SCORE.INTRA.norm>
-0.0209152

>  <SCORE.RESTR>
0.000363578

>  <SCORE.RESTR.CAVITY>
0.000363578

>  <SCORE.RESTR.norm>
1.25372e-05

>  <SCORE.SYSTEM>
0

>  <SCORE.SYSTEM.CONST>
0

>  <SCORE.SYSTEM.DIHEDRAL>
0

>  <SCORE.SYSTEM.SOLV>
0

>  <SCORE.SYSTEM.norm>
0

>  <SCORE.heavy>
29

>  <SCORE.norm>
0.194665

>  <RMSD>
3.197

$$$$
ligand
 OpenBabel11021811493D
libRbt.so/2013.1/901 2013/11/27
 29 32  0  0  0  0  0  0  0  0999 V2000
   40.1222   42.4441   39.2592 C   0  0  0  0  0  0  0  0  0  0  0  0
   50.3233   44.3547   44.1222 C   0  0  0  0  0  0  0  0  0  0  0  0
   50.2451   44.0955   45.4970 C   0  0  0  0  0  0  0  0  0  0  0  0
   49.0498   43.8966   46.0953 C   0  0  0  0  0  0  0  0  0  0  0  0
   47.8991   44.0225   45.3288 C   0  0  0  0  0  0  0  0  0  0  0  0
   48.0088   44.2190   43.9777 C   0  0  0  0  0  0  0  0  0  0  0  0
   46.8992   44.2515   43.0274 C   0  0  0  0  0  0  0  0  0  0  0  0
   45.8043   45.3059   41.2665 C   0  0  0  0  0  0  0  0  0  0  0  0
   45.5860   44.3280   40.3163 C   0  0  0  0  0  0  0  0  0  0  0  0
   44.5019   44.4619   39.4469 C   0  0  0  0  0  0  0  0  0  0  0  0
   43.5918   45.4792   39.5699 C   0  0  0  0  0  0  0  0  0  0  0  0
   43.8404   46.4562   40.5580 C   0  0  0  0  0  0  0  0  0  0  0  0
   44.9731   46.4039   41.3624 C   0  0  0  0  0  0  0  0  0  0  0  0
   42.3286   45.5409   38.7139 C   0  0  0  0  0  0  0  0  0  0  0  0
   41.2203   44.6209   39.2068 C   0  0  0  0  0  0  0  0  0  0  0  0
   41.1174   43.3065   38.8290 C   0  0  0  0  0  0  0  0  0  0  0  0
   39.1997   42.9522   40.1341 C   0  0  0  0  0  0  0  0  0  0  0  0
   39.2932   44.2485   40.5047 C   0  0  0  0  0  0  0  0  0  0  0  0
   40.2735   45.1084   40.0635 C   0  0  0  0  0  0  0  0  0  0  0  0
   38.3731   41.5143   41.7586 C   0  0  0  0  0  0  0  0  0  0  0  0
   37.3515   40.6209   42.2624 C   0  0  0  0  0  0  0  0  0  0  0  0
   36.0431   40.9949   42.5946 C   0  0  0  0  0  0  0  0  0  0  0  0
   35.1928   40.0217   43.0785 C   0  0  0  0  0  0  0  0  0  0  0  0
   35.6671   38.7232   43.1775 C   0  0  0  0  0  0  0  0  0  0  0  0
   36.9745   38.4114   42.8728 C   0  0  0  0  0  0  0  0  0  0  0  0
   49.2096   44.4140   43.3727 N   0  0  0  0  0  0  0  0  0  0  0  0
   46.9692   45.2009   42.1345 N   0  0  0  0  0  0  0  0  0  0  0  0
   38.1062   42.1283   40.6599 N   0  0  0  0  0  0  0  0  0  0  0  0
   37.7920   39.3328   42.3861 N   0  0  0  0  0  0  0  0  0  0  0  0
  1 17  2  0  0  0  0
  1 16  1  0  0  0  0
  2  3  2  0  0  0  0
  2 26  1  0  0  0  0
  3  4  1  0  0  0  0
  4  5  2  0  0  0  0
  5  6  1  0  0  0  0
  6  7  1  0  0  0  0
  6 26  2  0  0  0  0
  7 27  2  0  0  0  0
  8  9  2  0  0  0  0
  8 13  1  0  0  0  0
  8 27  1  0  0  0  0
  9 10  1  0  0  0  0
 10 11  2  0  0  0  0
 11 12  1  0  0  0  0
 11 14  1  0  0  0  0
 12 13  2  0  0  0  0
 14 15  1  0  0  0  0
 15 16  2  0  0  0  0
 15 19  1  0  0  0  0
 17 18  1  0  0  0  0
 17 28  1  0  0  0  0
 18 19  2  0  0  0  0
 20 21  1  0  0  0  0
 20 28  2  0  0  0  0
 21 22  2  0  0  0  0
 21 29  1  0  0  0  0
 22 23  1  0  0  0  0
 23 24  2  0  0  0  0
 24 25  1  0  0  0  0
 25 29  2  0  0  0  0
M  END
>  <CHROM.1>
136.91774034,79.22592093,-87.16739915,-59.09571310,-71.24748570,90.69084259
42.62653603,43.33707384,41.77277802,3.05109559,0.35655863,2.23853973

>  <Name>
ligand

>  <RI>
0

>  <Rbt.Current_Directory>
/home/itssahil/PROJECTS/Mol_Feturizer/New_Systems/rnas/4JIY

>  <Rbt.Executable>
rbdock ($Id: //depot/dev/client3/rdock/2013.1/src/exe/rbdock.cxx#4 $)

>  <Rbt.Library>
libRbt.so (2013.1, Build901 2013/11/27)

>  <Rbt.Parameter_File>
/export/apps/rDock/src/rDock_2013.1_src/data/scripts/dock_solv.prm

>  <Rbt.Receptor>
prm/pocket_docking_4.prm

>  <SCORE>
5.05825

>  <SCORE.INTER>
5.8683

>  <SCORE.INTER.CONST>
1

>  <SCORE.INTER.POLAR>
0

>  <SCORE.INTER.ROT>
6

>  <SCORE.INTER.SOLV>
0.584358

>  <SCORE.INTER.VDW>
-3.88259

>  <SCORE.INTER.norm>
0.202355

>  <SCORE.INTRA>
-0.811448

>  <SCORE.INTRA.DIHEDRAL>
0.255732

>  <SCORE.INTRA.DIHEDRAL.0>
7.2424

>  <SCORE.INTRA.POLAR>
0

>  <SCORE.INTRA.POLAR.0>
0

>  <SCORE.INTRA.REPUL>
0

>  <SCORE.INTRA.REPUL.0>
0

>  <SCORE.INTRA.SOLV>
-0.0151896

>  <SCORE.INTRA.SOLV.lig_0>
-3.36201

>  <SCORE.INTRA.VDW>
-0.93172

>  <SCORE.INTRA.VDW.0>
-0.910526

>  <SCORE.INTRA.norm>
-0.027981

>  <SCORE.RESTR>
0.00140047

>  <SCORE.RESTR.CAVITY>
0.00140047

>  <SCORE.RESTR.norm>
4.82921e-05

>  <SCORE.SYSTEM>
0

>  <SCORE.SYSTEM.CONST>
0

>  <SCORE.SYSTEM.DIHEDRAL>
0

>  <SCORE.SYSTEM.SOLV>
0

>  <SCORE.SYSTEM.norm>
0

>  <SCORE.heavy>
29

>  <SCORE.norm>
0.174422

>  <RMSD>
3.205

$$$$
ligand
 OpenBabel11021811503D
libRbt.so/2013.1/901 2013/11/27
 29 32  0  0  0  0  0  0  0  0999 V2000
   39.1058   42.5916   42.0933 C   0  0  0  0  0  0  0  0  0  0  0  0
   50.9163   45.1981   43.1322 C   0  0  0  0  0  0  0  0  0  0  0  0
   51.2175   44.8597   44.4582 C   0  0  0  0  0  0  0  0  0  0  0  0
   50.3101   44.2234   45.2316 C   0  0  0  0  0  0  0  0  0  0  0  0
   49.0509   43.9744   44.7025 C   0  0  0  0  0  0  0  0  0  0  0  0
   48.8047   44.2641   43.3866 C   0  0  0  0  0  0  0  0  0  0  0  0
   47.5762   43.9515   42.6596 C   0  0  0  0  0  0  0  0  0  0  0  0
   45.6638   44.6839   41.5563 C   0  0  0  0  0  0  0  0  0  0  0  0
   44.5187   45.2554   42.0750 C   0  0  0  0  0  0  0  0  0  0  0  0
   43.2839   44.9171   41.5184 C   0  0  0  0  0  0  0  0  0  0  0  0
   43.1797   44.1146   40.4123 C   0  0  0  0  0  0  0  0  0  0  0  0
   44.3710   43.5550   39.9021 C   0  0  0  0  0  0  0  0  0  0  0  0
   45.6006   43.7890   40.5072 C   0  0  0  0  0  0  0  0  0  0  0  0
   41.8425   43.8658   39.7178 C   0  0  0  0  0  0  0  0  0  0  0  0
   40.9188   42.9429   40.5005 C   0  0  0  0  0  0  0  0  0  0  0  0
   39.9611   43.4043   41.3671 C   0  0  0  0  0  0  0  0  0  0  0  0
   39.2286   41.2409   41.9055 C   0  0  0  0  0  0  0  0  0  0  0  0
   40.1749   40.7809   41.0573 C   0  0  0  0  0  0  0  0  0  0  0  0
   41.0347   41.5895   40.3488 C   0  0  0  0  0  0  0  0  0  0  0  0
   37.2607   40.0151   42.0273 C   0  0  0  0  0  0  0  0  0  0  0  0
   36.3480   39.1467   42.7402 C   0  0  0  0  0  0  0  0  0  0  0  0
   36.5069   37.7642   42.9007 C   0  0  0  0  0  0  0  0  0  0  0  0
   35.5348   37.0755   43.5971 C   0  0  0  0  0  0  0  0  0  0  0  0
   34.4737   37.7915   44.1283 C   0  0  0  0  0  0  0  0  0  0  0  0
   34.3422   39.1462   43.9122 C   0  0  0  0  0  0  0  0  0  0  0  0
   49.7170   44.8991   42.6053 N   0  0  0  0  0  0  0  0  0  0  0  0
   46.9475   44.9870   42.1740 N   0  0  0  0  0  0  0  0  0  0  0  0
   38.3716   40.2866   42.6168 N   0  0  0  0  0  0  0  0  0  0  0  0
   35.2807   39.8205   43.2650 N   0  0  0  0  0  0  0  0  0  0  0  0
  1 17  2  0  0  0  0
  1 16  1  0  0  0  0
  2  3  2  0  0  0  0
  2 26  1  0  0  0  0
  3  4  1  0  0  0  0
  4  5  2  0  0  0  0
  5  6  1  0  0  0  0
  6  7  1  0  0  0  0
  6 26  2  0  0  0  0
  7 27  2  0  0  0  0
  8  9  2  0  0  0  0
  8 13  1  0  0  0  0
  8 27  1  0  0  0  0
  9 10  1  0  0  0  0
 10 11  2  0  0  0  0
 11 12  1  0  0  0  0
 11 14  1  0  0  0  0
 12 13  2  0  0  0  0
 14 15  1  0  0  0  0
 15 16  2  0  0  0  0
 15 19  1  0  0  0  0
 17 18  1  0  0  0  0
 17 28  1  0  0  0  0
 18 19  2  0  0  0  0
 20 21  1  0  0  0  0
 20 28  2  0  0  0  0
 21 22  2  0  0  0  0
 21 29  1  0  0  0  0
 22 23  1  0  0  0  0
 23 24  2  0  0  0  0
 24 25  1  0  0  0  0
 25 29  2  0  0  0  0
M  END
>  <CHROM.1>
119.82725853,-73.33510253,93.98781949,-74.19836887,119.02860504,88.08108117
42.46571412,42.42585932,42.28719740,2.91368651,0.34159700,2.21197341

>  <Name>
ligand

>  <RI>
0

>  <Rbt.Current_Directory>
/home/itssahil/PROJECTS/Mol_Feturizer/New_Systems/rnas/4JIY

>  <Rbt.Executable>
rbdock ($Id: //depot/dev/client3/rdock/2013.1/src/exe/rbdock.cxx#4 $)

>  <Rbt.Library>
libRbt.so (2013.1, Build901 2013/11/27)

>  <Rbt.Parameter_File>
/export/apps/rDock/src/rDock_2013.1_src/data/scripts/dock_solv.prm

>  <Rbt.Receptor>
prm/pocket_docking_4.prm

>  <SCORE>
5.1394

>  <SCORE.INTER>
5.70174

>  <SCORE.INTER.CONST>
1

>  <SCORE.INTER.POLAR>
0

>  <SCORE.INTER.ROT>
6

>  <SCORE.INTER.SOLV>
0.572625

>  <SCORE.INTER.VDW>
-3.98972

>  <SCORE.INTER.norm>
0.196612

>  <SCORE.INTRA>
-0.567462

>  <SCORE.INTRA.DIHEDRAL>
0.624289

>  <SCORE.INTRA.DIHEDRAL.0>
7.2424

>  <SCORE.INTRA.POLAR>
0

>  <SCORE.INTRA.POLAR.0>
0

>  <SCORE.INTRA.REPUL>
0

>  <SCORE.INTRA.REPUL.0>
0

>  <SCORE.INTRA.SOLV>
-0.0155373

>  <SCORE.INTRA.SOLV.lig_0>
-3.36201

>  <SCORE.INTRA.VDW>
-0.871838

>  <SCORE.INTRA.VDW.0>
-0.910526

>  <SCORE.INTRA.norm>
-0.0195676

>  <SCORE.RESTR>
0.00511781

>  <SCORE.RESTR.CAVITY>
0.00511781

>  <SCORE.RESTR.norm>
0.000176476

>  <SCORE.SYSTEM>
0

>  <SCORE.SYSTEM.CONST>
0

>  <SCORE.SYSTEM.DIHEDRAL>
0

>  <SCORE.SYSTEM.SOLV>
0

>  <SCORE.SYSTEM.norm>
0

>  <SCORE.heavy>
29

>  <SCORE.norm>
0.177221

>  <RMSD>
3.224

$$$$
ligand
 OpenBabel11021811503D
libRbt.so/2013.1/901 2013/11/27
 29 32  0  0  0  0  0  0  0  0999 V2000
   41.5679   41.8845   38.9336 C   0  0  0  0  0  0  0  0  0  0  0  0
   48.8474   43.9026   46.3584 C   0  0  0  0  0  0  0  0  0  0  0  0
   50.2323   44.0831   46.2437 C   0  0  0  0  0  0  0  0  0  0  0  0
   50.8055   44.2776   45.0355 C   0  0  0  0  0  0  0  0  0  0  0  0
   49.9991   44.2266   43.9066 C   0  0  0  0  0  0  0  0  0  0  0  0
   48.6426   44.1065   44.0535 C   0  0  0  0  0  0  0  0  0  0  0  0
   47.6595   44.1582   42.9736 C   0  0  0  0  0  0  0  0  0  0  0  0
   46.0958   45.3690   41.7487 C   0  0  0  0  0  0  0  0  0  0  0  0
   44.8374   44.9252   42.1041 C   0  0  0  0  0  0  0  0  0  0  0  0
   43.8332   44.8967   41.1347 C   0  0  0  0  0  0  0  0  0  0  0  0
   44.0286   45.3872   39.8700 C   0  0  0  0  0  0  0  0  0  0  0  0
   45.3244   45.8419   39.5434 C   0  0  0  0  0  0  0  0  0  0  0  0
   46.3690   45.7770   40.4586 C   0  0  0  0  0  0  0  0  0  0  0  0
   42.8890   45.4907   38.8587 C   0  0  0  0  0  0  0  0  0  0  0  0
   41.9502   44.2924   38.8829 C   0  0  0  0  0  0  0  0  0  0  0  0
   42.3952   42.9955   38.9109 C   0  0  0  0  0  0  0  0  0  0  0  0
   40.2189   42.1185   38.9469 C   0  0  0  0  0  0  0  0  0  0  0  0
   39.7753   43.3946   38.9133 C   0  0  0  0  0  0  0  0  0  0  0  0
   40.5988   44.4971   38.8745 C   0  0  0  0  0  0  0  0  0  0  0  0
   39.0166   40.5362   40.1474 C   0  0  0  0  0  0  0  0  0  0  0  0
   38.1340   39.3905   40.2085 C   0  0  0  0  0  0  0  0  0  0  0  0
   38.4704   38.1385   40.7390 C   0  0  0  0  0  0  0  0  0  0  0  0
   37.5160   37.1423   40.7076 C   0  0  0  0  0  0  0  0  0  0  0  0
   36.2679   37.4429   40.1854 C   0  0  0  0  0  0  0  0  0  0  0  0
   35.9963   38.6797   39.6414 C   0  0  0  0  0  0  0  0  0  0  0  0
   48.0630   43.9160   45.2675 N   0  0  0  0  0  0  0  0  0  0  0  0
   47.1615   45.3420   42.7413 N   0  0  0  0  0  0  0  0  0  0  0  0
   39.2498   41.0181   38.9774 N   0  0  0  0  0  0  0  0  0  0  0  0
   36.8973   39.6494   39.6871 N   0  0  0  0  0  0  0  0  0  0  0  0
  1 17  2  0  0  0  0
  1 16  1  0  0  0  0
  2  3  2  0  0  0  0
  2 26  1  0  0  0  0
  3  4  1  0  0  0  0
  4  5  2  0  0  0  0
  5  6  1  0  0  0  0
  6  7  1  0  0  0  0
  6 26  2  0  0  0  0
  7 27  2  0  0  0  0
  8  9  2  0  0  0  0
  8 13  1  0  0  0  0
  8 27  1  0  0  0  0
  9 10  1  0  0  0  0
 10 11  2  0  0  0  0
 11 12  1  0  0  0  0
 11 14  1  0  0  0  0
 12 13  2  0  0  0  0
 14 15  1  0  0  0  0
 15 16  2  0  0  0  0
 15 19  1  0  0  0  0
 17 18  1  0  0  0  0
 17 28  1  0  0  0  0
 18 19  2  0  0  0  0
 20 21  1  0  0  0  0
 20 28  2  0  0  0  0
 21 22  2  0  0  0  0
 21 29  1  0  0  0  0
 22 23  1  0  0  0  0
 23 24  2  0  0  0  0
 24 25  1  0  0  0  0
 25 29  2  0  0  0  0
M  END
>  <CHROM.1>
-92.63894824,-40.33764218,-45.93796043,121.18596888,76.01021722,82.86636010
43.19254858,42.86148075,41.17443903,3.06534009,0.54967615,2.43038343

>  <Name>
ligand

>  <RI>
0

>  <Rbt.Current_Directory>
/home/itssahil/PROJECTS/Mol_Feturizer/New_Systems/rnas/4JIY

>  <Rbt.Executable>
rbdock ($Id: //depot/dev/client3/rdock/2013.1/src/exe/rbdock.cxx#4 $)

>  <Rbt.Library>
libRbt.so (2013.1, Build901 2013/11/27)

>  <Rbt.Parameter_File>
/export/apps/rDock/src/rDock_2013.1_src/data/scripts/dock_solv.prm

>  <Rbt.Receptor>
prm/pocket_docking_4.prm

>  <SCORE>
4.74569

>  <SCORE.INTER>
5.30724

>  <SCORE.INTER.CONST>
1

>  <SCORE.INTER.POLAR>
0

>  <SCORE.INTER.ROT>
6

>  <SCORE.INTER.SOLV>
0.786558

>  <SCORE.INTER.VDW>
-4.32402

>  <SCORE.INTER.norm>
0.183008

>  <SCORE.INTRA>
-0.561555

>  <SCORE.INTRA.DIHEDRAL>
0.690902

>  <SCORE.INTRA.DIHEDRAL.0>
7.2424

>  <SCORE.INTRA.POLAR>
0

>  <SCORE.INTRA.POLAR.0>
0

>  <SCORE.INTRA.REPUL>
0

>  <SCORE.INTRA.REPUL.0>
0

>  <SCORE.INTRA.SOLV>
-0.015192

>  <SCORE.INTRA.SOLV.lig_0>
-3.36201

>  <SCORE.INTRA.VDW>
-0.89941

>  <SCORE.INTRA.VDW.0>
-0.910526

>  <SCORE.INTRA.norm>
-0.019364

>  <SCORE.RESTR>
0

>  <SCORE.RESTR.CAVITY>
0

>  <SCORE.RESTR.norm>
0

>  <SCORE.SYSTEM>
0

>  <SCORE.SYSTEM.CONST>
0

>  <SCORE.SYSTEM.DIHEDRAL>
0

>  <SCORE.SYSTEM.SOLV>
0

>  <SCORE.SYSTEM.norm>
0

>  <SCORE.heavy>
29

>  <SCORE.norm>
0.163644

>  <RMSD>
3.234

$$$$
ligand
 OpenBabel11021811503D
libRbt.so/2013.1/901 2013/11/27
 29 32  0  0  0  0  0  0  0  0999 V2000
   40.4800   40.7706   40.9377 C   0  0  0  0  0  0  0  0  0  0  0  0
   50.5940   44.6907   44.2545 C   0  0  0  0  0  0  0  0  0  0  0  0
   50.4746   44.4660   45.6325 C   0  0  0  0  0  0  0  0  0  0  0  0
   49.3011   44.0623   46.1672 C   0  0  0  0  0  0  0  0  0  0  0  0
   48.2009   43.9414   45.3291 C   0  0  0  0  0  0  0  0  0  0  0  0
   48.3613   44.1113   43.9794 C   0  0  0  0  0  0  0  0  0  0  0  0
   47.3312   43.9008   42.9646 C   0  0  0  0  0  0  0  0  0  0  0  0
   45.3557   44.5889   41.9473 C   0  0  0  0  0  0  0  0  0  0  0  0
   45.6125   44.5862   40.5904 C   0  0  0  0  0  0  0  0  0  0  0  0
   44.5529   44.3875   39.7035 C   0  0  0  0  0  0  0  0  0  0  0  0
   43.2857   44.0969   40.1371 C   0  0  0  0  0  0  0  0  0  0  0  0
   43.0605   44.0984   41.5307 C   0  0  0  0  0  0  0  0  0  0  0  0
   44.0759   44.4027   42.4302 C   0  0  0  0  0  0  0  0  0  0  0  0
   42.1630   43.7351   39.1671 C   0  0  0  0  0  0  0  0  0  0  0  0
   41.5493   42.3683   39.4374 C   0  0  0  0  0  0  0  0  0  0  0  0
   41.0444   42.0049   40.6597 C   0  0  0  0  0  0  0  0  0  0  0  0
   40.4147   39.8741   39.9049 C   0  0  0  0  0  0  0  0  0  0  0  0
   40.9164   40.2251   38.7002 C   0  0  0  0  0  0  0  0  0  0  0  0
   41.4916   41.4464   38.4301 C   0  0  0  0  0  0  0  0  0  0  0  0
   38.5514   38.5224   40.2072 C   0  0  0  0  0  0  0  0  0  0  0  0
   37.9473   37.2343   40.4742 C   0  0  0  0  0  0  0  0  0  0  0  0
   37.8757   36.1711   39.5649 C   0  0  0  0  0  0  0  0  0  0  0  0
   37.2500   35.0102   39.9714 C   0  0  0  0  0  0  0  0  0  0  0  0
   36.7576   34.9463   41.2653 C   0  0  0  0  0  0  0  0  0  0  0  0
   36.8194   36.0325   42.1114 C   0  0  0  0  0  0  0  0  0  0  0  0
   49.5415   44.5121   43.4385 N   0  0  0  0  0  0  0  0  0  0  0  0
   46.4477   44.8570   42.8730 N   0  0  0  0  0  0  0  0  0  0  0  0
   39.8319   38.5400   40.0830 N   0  0  0  0  0  0  0  0  0  0  0  0
   37.4377   37.1432   41.7393 N   0  0  0  0  0  0  0  0  0  0  0  0
  1 17  2  0  0  0  0
  1 16  1  0  0  0  0
  2  3  2  0  0  0  0
  2 26  1  0  0  0  0
  3  4  1  0  0  0  0
  4  5  2  0  0  0  0
  5  6  1  0  0  0  0
  6  7  1  0  0  0  0
  6 26  2  0  0  0  0
  7 27  2  0  0  0  0
  8  9  2  0  0  0  0
  8 13  1  0  0  0  0
  8 27  1  0  0  0  0
  9 10  1  0  0  0  0
 10 11  2  0  0  0  0
 11 12  1  0  0  0  0
 11 14  1  0  0  0  0
 12 13  2  0  0  0  0
 14 15  1  0  0  0  0
 15 16  2  0  0  0  0
 15 19  1  0  0  0  0
 17 18  1  0  0  0  0
 17 28  1  0  0  0  0
 18 19  2  0  0  0  0
 20 21  1  0  0  0  0
 20 28  2  0  0  0  0
 21 22  2  0  0  0  0
 21 29  1  0  0  0  0
 22 23  1  0  0  0  0
 23 24  2  0  0  0  0
 24 25  1  0  0  0  0
 25 29  2  0  0  0  0
M  END
>  <CHROM.1>
77.08056817,121.72017506,54.38478426,-69.31115661,-70.82443559,72.25026372
42.99282847,41.54653632,41.50363000,2.88817325,0.62446778,2.41716721

>  <Name>
ligand

>  <RI>
0

>  <Rbt.Current_Directory>
/home/itssahil/PROJECTS/Mol_Feturizer/New_Systems/rnas/4JIY

>  <Rbt.Executable>
rbdock ($Id: //depot/dev/client3/rdock/2013.1/src/exe/rbdock.cxx#4 $)

>  <Rbt.Library>
libRbt.so (2013.1, Build901 2013/11/27)

>  <Rbt.Parameter_File>
/export/apps/rDock/src/rDock_2013.1_src/data/scripts/dock_solv.prm

>  <Rbt.Receptor>
prm/pocket_docking_4.prm

>  <SCORE>
4.76283

>  <SCORE.INTER>
5.54684

>  <SCORE.INTER.CONST>
1

>  <SCORE.INTER.POLAR>
0

>  <SCORE.INTER.ROT>
6

>  <SCORE.INTER.SOLV>
0.741743

>  <SCORE.INTER.VDW>
-4.14935

>  <SCORE.INTER.norm>
0.19127

>  <SCORE.INTRA>
-0.784013

>  <SCORE.INTRA.DIHEDRAL>
0.121155

>  <SCORE.INTRA.DIHEDRAL.0>
7.2424

>  <SCORE.INTRA.POLAR>
0

>  <SCORE.INTRA.POLAR.0>
0

>  <SCORE.INTRA.REPUL>
0

>  <SCORE.INTRA.REPUL.0>
0

>  <SCORE.INTRA.SOLV>
-0.0195835

>  <SCORE.INTRA.SOLV.lig_0>
-3.36201

>  <SCORE.INTRA.VDW>
-0.834799

>  <SCORE.INTRA.VDW.0>
-0.910526

>  <SCORE.INTRA.norm>
-0.0270349

>  <SCORE.RESTR>
0

>  <SCORE.RESTR.CAVITY>
0

>  <SCORE.RESTR.norm>
0

>  <SCORE.SYSTEM>
0

>  <SCORE.SYSTEM.CONST>
0

>  <SCORE.SYSTEM.DIHEDRAL>
0

>  <SCORE.SYSTEM.SOLV>
0

>  <SCORE.SYSTEM.norm>
0

>  <SCORE.heavy>
29

>  <SCORE.norm>
0.164236

>  <RMSD>
3.236

$$$$
ligand
 OpenBabel11021811503D
libRbt.so/2013.1/901 2013/11/27
 29 32  0  0  0  0  0  0  0  0999 V2000
   40.5664   40.8616   38.8416 C   0  0  0  0  0  0  0  0  0  0  0  0
   50.7065   44.2488   44.8457 C   0  0  0  0  0  0  0  0  0  0  0  0
   50.3417   44.0899   46.1893 C   0  0  0  0  0  0  0  0  0  0  0  0
   49.0508   43.8899   46.5353 C   0  0  0  0  0  0  0  0  0  0  0  0
   48.0882   43.9134   45.5352 C   0  0  0  0  0  0  0  0  0  0  0  0
   48.4800   44.0127   44.2264 C   0  0  0  0  0  0  0  0  0  0  0  0
   47.5989   43.9312   43.0635 C   0  0  0  0  0  0  0  0  0  0  0  0
   45.6039   44.5178   42.0208 C   0  0  0  0  0  0  0  0  0  0  0  0
   44.6280   43.5455   42.1166 C   0  0  0  0  0  0  0  0  0  0  0  0
   43.7700   43.3417   41.0343 C   0  0  0  0  0  0  0  0  0  0  0  0
   43.8008   44.1403   39.9209 C   0  0  0  0  0  0  0  0  0  0  0  0
   44.8049   45.1306   39.8602 C   0  0  0  0  0  0  0  0  0  0  0  0
   45.7406   45.2794   40.8777 C   0  0  0  0  0  0  0  0  0  0  0  0
   42.7669   44.0100   38.8045 C   0  0  0  0  0  0  0  0  0  0  0  0
   41.6500   43.0274   39.1283 C   0  0  0  0  0  0  0  0  0  0  0  0
   41.5687   41.7781   38.5682 C   0  0  0  0  0  0  0  0  0  0  0  0
   39.6129   41.2405   39.7481 C   0  0  0  0  0  0  0  0  0  0  0  0
   39.6852   42.4727   40.2983 C   0  0  0  0  0  0  0  0  0  0  0  0
   40.6729   43.3883   40.0131 C   0  0  0  0  0  0  0  0  0  0  0  0
   38.6897   39.6898   41.2087 C   0  0  0  0  0  0  0  0  0  0  0  0
   37.6627   38.7325   41.5612 C   0  0  0  0  0  0  0  0  0  0  0  0
   36.3518   39.0545   41.9356 C   0  0  0  0  0  0  0  0  0  0  0  0
   35.4962   38.0208   42.2577 C   0  0  0  0  0  0  0  0  0  0  0  0
   35.9681   36.7213   42.1610 C   0  0  0  0  0  0  0  0  0  0  0  0
   37.2778   36.4565   41.8233 C   0  0  0  0  0  0  0  0  0  0  0  0
   49.7778   44.2087   43.8753 N   0  0  0  0  0  0  0  0  0  0  0  0
   46.5397   44.6913   43.1234 N   0  0  0  0  0  0  0  0  0  0  0  0
   38.5091   40.3484   40.1183 N   0  0  0  0  0  0  0  0  0  0  0  0
   38.1006   37.4395   41.4902 N   0  0  0  0  0  0  0  0  0  0  0  0
  1 17  2  0  0  0  0
  1 16  1  0  0  0  0
  2  3  2  0  0  0  0
  2 26  1  0  0  0  0
  3  4  1  0  0  0  0
  4  5  2  0  0  0  0
  5  6  1  0  0  0  0
  6  7  1  0  0  0  0
  6 26  2  0  0  0  0
  7 27  2  0  0  0  0
  8  9  2  0  0  0  0
  8 13  1  0  0  0  0
  8 27  1  0  0  0  0
  9 10  1  0  0  0  0
 10 11  2  0  0  0  0
 11 12  1  0  0  0  0
 11 14  1  0  0  0  0
 12 13  2  0  0  0  0
 14 15  1  0  0  0  0
 15 16  2  0  0  0  0
 15 19  1  0  0  0  0
 17 18  1  0  0  0  0
 17 28  1  0  0  0  0
 18 19  2  0  0  0  0
 20 21  1  0  0  0  0
 20 28  2  0  0  0  0
 21 22  2  0  0  0  0
 21 29  1  0  0  0  0
 22 23  1  0  0  0  0
 23 24  2  0  0  0  0
 24 25  1  0  0  0  0
 25 29  2  0  0  0  0
M  END
>  <CHROM.1>
49.42256200,5.99149616,-105.10551192,-67.53095901,87.41289085,97.59615220
42.88833053,42.14235403,41.75900741,3.06784942,0.51627510,2.21861547

>  <Name>
ligand

>  <RI>
0

>  <Rbt.Current_Directory>
/home/itssahil/PROJECTS/Mol_Feturizer/New_Systems/rnas/4JIY

>  <Rbt.Executable>
rbdock ($Id: //depot/dev/client3/rdock/2013.1/src/exe/rbdock.cxx#4 $)

>  <Rbt.Library>
libRbt.so (2013.1, Build901 2013/11/27)

>  <Rbt.Parameter_File>
/export/apps/rDock/src/rDock_2013.1_src/data/scripts/dock_solv.prm

>  <Rbt.Receptor>
prm/pocket_docking_4.prm

>  <SCORE>
4.54625

>  <SCORE.INTER>
5.25639

>  <SCORE.INTER.CONST>
1

>  <SCORE.INTER.POLAR>
0

>  <SCORE.INTER.ROT>
6

>  <SCORE.INTER.SOLV>
0.952843

>  <SCORE.INTER.VDW>
-4.41335

>  <SCORE.INTER.norm>
0.181255

>  <SCORE.INTRA>
-0.723389

>  <SCORE.INTRA.DIHEDRAL>
0.165073

>  <SCORE.INTRA.DIHEDRAL.0>
7.2424

>  <SCORE.INTRA.POLAR>
0

>  <SCORE.INTRA.POLAR.0>
0

>  <SCORE.INTRA.REPUL>
0

>  <SCORE.INTRA.REPUL.0>
0

>  <SCORE.INTRA.SOLV>
-0.0194066

>  <SCORE.INTRA.SOLV.lig_0>
-3.36201

>  <SCORE.INTRA.VDW>
-0.796222

>  <SCORE.INTRA.VDW.0>
-0.910526

>  <SCORE.INTRA.norm>
-0.0249444

>  <SCORE.RESTR>
0.0132503

>  <SCORE.RESTR.CAVITY>
0.0132503

>  <SCORE.RESTR.norm>
0.000456907

>  <SCORE.SYSTEM>
0

>  <SCORE.SYSTEM.CONST>
0

>  <SCORE.SYSTEM.DIHEDRAL>
0

>  <SCORE.SYSTEM.SOLV>
0

>  <SCORE.SYSTEM.norm>
0

>  <SCORE.heavy>
29

>  <SCORE.norm>
0.156767

>  <RMSD>
3.243

$$$$
ligand
 OpenBabel11021811503D
libRbt.so/2013.1/901 2013/11/27
 29 32  0  0  0  0  0  0  0  0999 V2000
   44.9551   44.1564   40.4953 C   0  0  0  0  0  0  0  0  0  0  0  0
   38.4613   35.3188   37.3529 C   0  0  0  0  0  0  0  0  0  0  0  0
   37.2990   34.8502   37.9800 C   0  0  0  0  0  0  0  0  0  0  0  0
   36.5619   35.6657   38.7660 C   0  0  0  0  0  0  0  0  0  0  0  0
   37.0201   36.9567   38.9910 C   0  0  0  0  0  0  0  0  0  0  0  0
   38.1268   37.4045   38.3195 C   0  0  0  0  0  0  0  0  0  0  0  0
   38.6564   38.7658   38.3598 C   0  0  0  0  0  0  0  0  0  0  0  0
   39.8972   40.3974   39.4596 C   0  0  0  0  0  0  0  0  0  0  0  0
   39.2889   41.2180   40.3889 C   0  0  0  0  0  0  0  0  0  0  0  0
   39.6614   42.5621   40.4487 C   0  0  0  0  0  0  0  0  0  0  0  0
   40.6795   43.0697   39.6844 C   0  0  0  0  0  0  0  0  0  0  0  0
   41.2860   42.2008   38.7518 C   0  0  0  0  0  0  0  0  0  0  0  0
   40.8567   40.8876   38.5966 C   0  0  0  0  0  0  0  0  0  0  0  0
   41.1828   44.5011   39.8571 C   0  0  0  0  0  0  0  0  0  0  0  0
   42.5541   44.5834   40.5132 C   0  0  0  0  0  0  0  0  0  0  0  0
   43.6938   44.0971   39.9253 C   0  0  0  0  0  0  0  0  0  0  0  0
   45.0521   44.7613   41.7198 C   0  0  0  0  0  0  0  0  0  0  0  0
   43.9311   45.2366   42.3062 C   0  0  0  0  0  0  0  0  0  0  0  0
   42.6760   45.1623   41.7454 C   0  0  0  0  0  0  0  0  0  0  0  0
   46.6321   43.9013   43.1876 C   0  0  0  0  0  0  0  0  0  0  0  0
   47.8506   44.0285   43.9585 C   0  0  0  0  0  0  0  0  0  0  0  0
   49.1266   44.2470   43.4233 C   0  0  0  0  0  0  0  0  0  0  0  0
   50.1917   44.3292   44.2968 C   0  0  0  0  0  0  0  0  0  0  0  0
   49.9382   44.2255   45.6554 C   0  0  0  0  0  0  0  0  0  0  0  0
   48.6697   43.9739   46.1318 C   0  0  0  0  0  0  0  0  0  0  0  0
   38.8669   36.5883   37.5245 N   0  0  0  0  0  0  0  0  0  0  0  0
   39.4674   39.0099   39.3528 N   0  0  0  0  0  0  0  0  0  0  0  0
   46.3381   44.8863   42.4138 N   0  0  0  0  0  0  0  0  0  0  0  0
   47.6374   43.9160   45.3040 N   0  0  0  0  0  0  0  0  0  0  0  0
  1 17  2  0  0  0  0
  1 16  1  0  0  0  0
  2  3  2  0  0  0  0
  2 26  1  0  0  0  0
  3  4  1  0  0  0  0
  4  5  2  0  0  0  0
  5  6  1  0  0  0  0
  6  7  1  0  0  0  0
  6 26  2  0  0  0  0
  7 27  2  0  0  0  0
  8  9  2  0  0  0  0
  8 13  1  0  0  0  0
  8 27  1  0  0  0  0
  9 10  1  0  0  0  0
 10 11  2  0  0  0  0
 11 12  1  0  0  0  0
 11 14  1  0  0  0  0
 12 13  2  0  0  0  0
 14 15  1  0  0  0  0
 15 16  2  0  0  0  0
 15 19  1  0  0  0  0
 17 18  1  0  0  0  0
 17 28  1  0  0  0  0
 18 19  2  0  0  0  0
 20 21  1  0  0  0  0
 20 28  2  0  0  0  0
 21 22  2  0  0  0  0
 21 29  1  0  0  0  0
 22 23  1  0  0  0  0
 23 24  2  0  0  0  0
 24 25  1  0  0  0  0
 25 29  2  0  0  0  0
M  END
>  <CHROM.1>
85.69810603,107.87600897,65.22261214,-57.01815426,100.64881050,-89.73499869
42.64153581,41.75370431,40.85930295,0.53501735,-0.55731718,-0.06794060

>  <Name>
ligand

>  <RI>
0

>  <Rbt.Current_Directory>
/home/itssahil/PROJECTS/Mol_Feturizer/New_Systems/rnas/4JIY

>  <Rbt.Executable>
rbdock ($Id: //depot/dev/client3/rdock/2013.1/src/exe/rbdock.cxx#4 $)

>  <Rbt.Library>
libRbt.so (2013.1, Build901 2013/11/27)

>  <Rbt.Parameter_File>
/export/apps/rDock/src/rDock_2013.1_src/data/scripts/dock_solv.prm

>  <Rbt.Receptor>
prm/pocket_docking_4.prm

>  <SCORE>
5.53461

>  <SCORE.INTER>
6.4964

>  <SCORE.INTER.CONST>
1

>  <SCORE.INTER.POLAR>
0

>  <SCORE.INTER.ROT>
6

>  <SCORE.INTER.SOLV>
0.382499

>  <SCORE.INTER.VDW>
-3.39657

>  <SCORE.INTER.norm>
0.224014

>  <SCORE.INTRA>
-0.968484

>  <SCORE.INTRA.DIHEDRAL>
0.205371

>  <SCORE.INTRA.DIHEDRAL.0>
7.2424

>  <SCORE.INTRA.POLAR>
0

>  <SCORE.INTRA.POLAR.0>
0

>  <SCORE.INTRA.REPUL>
0

>  <SCORE.INTRA.REPUL.0>
0

>  <SCORE.INTRA.SOLV>
-0.0182248

>  <SCORE.INTRA.SOLV.lig_0>
-3.36201

>  <SCORE.INTRA.VDW>
-1.06206

>  <SCORE.INTRA.VDW.0>
-0.910526

>  <SCORE.INTRA.norm>
-0.033396

>  <SCORE.RESTR>
0.00669729

>  <SCORE.RESTR.CAVITY>
0.00669729

>  <SCORE.RESTR.norm>
0.000230941

>  <SCORE.SYSTEM>
0

>  <SCORE.SYSTEM.CONST>
0

>  <SCORE.SYSTEM.DIHEDRAL>
0

>  <SCORE.SYSTEM.SOLV>
0

>  <SCORE.SYSTEM.norm>
0

>  <SCORE.heavy>
29

>  <SCORE.norm>
0.190849

>  <RMSD>
3.244

$$$$
ligand
 OpenBabel11021811503D
libRbt.so/2013.1/901 2013/11/27
 29 32  0  0  0  0  0  0  0  0999 V2000
   40.5680   40.8334   38.9054 C   0  0  0  0  0  0  0  0  0  0  0  0
   48.7160   44.0140   46.3233 C   0  0  0  0  0  0  0  0  0  0  0  0
   50.0958   44.2448   46.2431 C   0  0  0  0  0  0  0  0  0  0  0  0
   50.7075   44.3634   45.0440 C   0  0  0  0  0  0  0  0  0  0  0  0
   49.9487   44.1836   43.8954 C   0  0  0  0  0  0  0  0  0  0  0  0
   48.5934   44.0169   44.0036 C   0  0  0  0  0  0  0  0  0  0  0  0
   47.6521   43.9358   42.8888 C   0  0  0  0  0  0  0  0  0  0  0  0
   45.6022   44.5175   41.9557 C   0  0  0  0  0  0  0  0  0  0  0  0
   45.4982   45.4765   40.9676 C   0  0  0  0  0  0  0  0  0  0  0  0
   44.5072   45.3376   39.9941 C   0  0  0  0  0  0  0  0  0  0  0  0
   43.7003   44.2317   39.9298 C   0  0  0  0  0  0  0  0  0  0  0  0
   43.8399   43.2664   40.9502 C   0  0  0  0  0  0  0  0  0  0  0  0
   44.7441   43.4369   41.9925 C   0  0  0  0  0  0  0  0  0  0  0  0
   42.7192   44.0134   38.7800 C   0  0  0  0  0  0  0  0  0  0  0  0
   41.6064   43.0299   39.1150 C   0  0  0  0  0  0  0  0  0  0  0  0
   41.5654   41.7516   38.6200 C   0  0  0  0  0  0  0  0  0  0  0  0
   39.5755   41.2430   39.7550 C   0  0  0  0  0  0  0  0  0  0  0  0
   39.6081   42.5037   40.2407 C   0  0  0  0  0  0  0  0  0  0  0  0
   40.5914   43.4200   39.9431 C   0  0  0  0  0  0  0  0  0  0  0  0
   38.7088   39.6016   41.1496 C   0  0  0  0  0  0  0  0  0  0  0  0
   37.6792   38.6457   41.4981 C   0  0  0  0  0  0  0  0  0  0  0  0
   37.9021   37.3042   41.8342 C   0  0  0  0  0  0  0  0  0  0  0  0
   36.8067   36.5176   42.1269 C   0  0  0  0  0  0  0  0  0  0  0  0
   35.5510   37.1037   42.1060 C   0  0  0  0  0  0  0  0  0  0  0  0
   35.3791   38.4193   41.7332 C   0  0  0  0  0  0  0  0  0  0  0  0
   47.9750   43.9026   45.2080 N   0  0  0  0  0  0  0  0  0  0  0  0
   46.5945   44.6911   43.0077 N   0  0  0  0  0  0  0  0  0  0  0  0
   38.4726   40.3526   40.1320 N   0  0  0  0  0  0  0  0  0  0  0  0
   36.4251   39.1889   41.4726 N   0  0  0  0  0  0  0  0  0  0  0  0
  1 17  2  0  0  0  0
  1 16  1  0  0  0  0
  2  3  2  0  0  0  0
  2 26  1  0  0  0  0
  3  4  1  0  0  0  0
  4  5  2  0  0  0  0
  5  6  1  0  0  0  0
  6  7  1  0  0  0  0
  6 26  2  0  0  0  0
  7 27  2  0  0  0  0
  8  9  2  0  0  0  0
  8 13  1  0  0  0  0
  8 27  1  0  0  0  0
  9 10  1  0  0  0  0
 10 11  2  0  0  0  0
 11 12  1  0  0  0  0
 11 14  1  0  0  0  0
 12 13  2  0  0  0  0
 14 15  1  0  0  0  0
 15 16  2  0  0  0  0
 15 19  1  0  0  0  0
 17 18  1  0  0  0  0
 17 28  1  0  0  0  0
 18 19  2  0  0  0  0
 20 21  1  0  0  0  0
 20 28  2  0  0  0  0
 21 22  2  0  0  0  0
 21 29  1  0  0  0  0
 22 23  1  0  0  0  0
 23 24  2  0  0  0  0
 24 25  1  0  0  0  0
 25 29  2  0  0  0  0
M  END
>  <CHROM.1>
-132.02128269,-159.89548673,-105.70576459,135.44362625,-104.22250328,87.30611380
42.79652421,42.19562730,41.71936076,3.06952615,0.51014531,2.21902692

>  <Name>
ligand

>  <RI>
0

>  <Rbt.Current_Directory>
/home/itssahil/PROJECTS/Mol_Feturizer/New_Systems/rnas/4JIY

>  <Rbt.Executable>
rbdock ($Id: //depot/dev/client3/rdock/2013.1/src/exe/rbdock.cxx#4 $)

>  <Rbt.Library>
libRbt.so (2013.1, Build901 2013/11/27)

>  <Rbt.Parameter_File>
/export/apps/rDock/src/rDock_2013.1_src/data/scripts/dock_solv.prm

>  <Rbt.Receptor>
prm/pocket_docking_4.prm

>  <SCORE>
4.85918

>  <SCORE.INTER>
5.23847

>  <SCORE.INTER.CONST>
1

>  <SCORE.INTER.POLAR>
0

>  <SCORE.INTER.ROT>
6

>  <SCORE.INTER.SOLV>
0.892101

>  <SCORE.INTER.VDW>
-4.40505

>  <SCORE.INTER.norm>
0.180637

>  <SCORE.INTRA>
-0.379962

>  <SCORE.INTRA.DIHEDRAL>
0.70022

>  <SCORE.INTRA.DIHEDRAL.0>
7.2424

>  <SCORE.INTRA.POLAR>
0

>  <SCORE.INTRA.POLAR.0>
0

>  <SCORE.INTRA.REPUL>
0

>  <SCORE.INTRA.REPUL.0>
0

>  <SCORE.INTRA.SOLV>
-0.0116936

>  <SCORE.INTRA.SOLV.lig_0>
-3.36201

>  <SCORE.INTRA.VDW>
-0.724226

>  <SCORE.INTRA.VDW.0>
-0.910526

>  <SCORE.INTRA.norm>
-0.0131021

>  <SCORE.RESTR>
0.000670214

>  <SCORE.RESTR.CAVITY>
0.000670214

>  <SCORE.RESTR.norm>
2.31108e-05

>  <SCORE.SYSTEM>
0

>  <SCORE.SYSTEM.CONST>
0

>  <SCORE.SYSTEM.DIHEDRAL>
0

>  <SCORE.SYSTEM.SOLV>
0

>  <SCORE.SYSTEM.norm>
0

>  <SCORE.heavy>
29

>  <SCORE.norm>
0.167558

>  <RMSD>
3.246

$$$$
ligand
 OpenBabel11021811503D
libRbt.so/2013.1/901 2013/11/27
 29 32  0  0  0  0  0  0  0  0999 V2000
   40.3976   42.8807   37.5366 C   0  0  0  0  0  0  0  0  0  0  0  0
   48.4189   43.8878   46.2208 C   0  0  0  0  0  0  0  0  0  0  0  0
   49.7870   44.0735   45.9816 C   0  0  0  0  0  0  0  0  0  0  0  0
   50.2441   44.3055   44.7313 C   0  0  0  0  0  0  0  0  0  0  0  0
   49.3349   44.2879   43.6824 C   0  0  0  0  0  0  0  0  0  0  0  0
   47.9980   44.1616   43.9528 C   0  0  0  0  0  0  0  0  0  0  0  0
   46.9177   44.2449   42.9723 C   0  0  0  0  0  0  0  0  0  0  0  0
   45.9295   45.3396   41.1733 C   0  0  0  0  0  0  0  0  0  0  0  0
   45.1937   46.5071   41.2224 C   0  0  0  0  0  0  0  0  0  0  0  0
   44.0725   46.6332   40.4001 C   0  0  0  0  0  0  0  0  0  0  0  0
   43.7367   45.6783   39.4762 C   0  0  0  0  0  0  0  0  0  0  0  0
   44.5160   44.5016   39.4465 C   0  0  0  0  0  0  0  0  0  0  0  0
   45.5701   44.3061   40.3316 C   0  0  0  0  0  0  0  0  0  0  0  0
   42.5990   45.8844   38.4784 C   0  0  0  0  0  0  0  0  0  0  0  0
   41.5429   44.7892   38.5329 C   0  0  0  0  0  0  0  0  0  0  0  0
   41.3487   43.8878   37.5177 C   0  0  0  0  0  0  0  0  0  0  0  0
   39.6218   42.7842   38.6606 C   0  0  0  0  0  0  0  0  0  0  0  0
   39.8051   43.6739   39.6613 C   0  0  0  0  0  0  0  0  0  0  0  0
   40.7399   44.6841   39.6339 C   0  0  0  0  0  0  0  0  0  0  0  0
   38.8758   40.8010   39.6097 C   0  0  0  0  0  0  0  0  0  0  0  0
   37.9200   39.7177   39.7003 C   0  0  0  0  0  0  0  0  0  0  0  0
   36.5756   39.8547   40.0693 C   0  0  0  0  0  0  0  0  0  0  0  0
   35.7977   38.7161   40.1225 C   0  0  0  0  0  0  0  0  0  0  0  0
   36.3776   37.5060   39.7759 C   0  0  0  0  0  0  0  0  0  0  0  0
   37.7148   37.4167   39.4547 C   0  0  0  0  0  0  0  0  0  0  0  0
   47.5352   43.9334   45.2096 N   0  0  0  0  0  0  0  0  0  0  0  0
   47.0633   45.1801   42.0736 N   0  0  0  0  0  0  0  0  0  0  0  0
   38.5879   41.7524   38.7927 N   0  0  0  0  0  0  0  0  0  0  0  0
   38.4646   38.5059   39.3785 N   0  0  0  0  0  0  0  0  0  0  0  0
  1 17  2  0  0  0  0
  1 16  1  0  0  0  0
  2  3  2  0  0  0  0
  2 26  1  0  0  0  0
  3  4  1  0  0  0  0
  4  5  2  0  0  0  0
  5  6  1  0  0  0  0
  6  7  1  0  0  0  0
  6 26  2  0  0  0  0
  7 27  2  0  0  0  0
  8  9  2  0  0  0  0
  8 13  1  0  0  0  0
  8 27  1  0  0  0  0
  9 10  1  0  0  0  0
 10 11  2  0  0  0  0
 11 12  1  0  0  0  0
 11 14  1  0  0  0  0
 12 13  2  0  0  0  0
 14 15  1  0  0  0  0
 15 16  2  0  0  0  0
 15 19  1  0  0  0  0
 17 18  1  0  0  0  0
 17 28  1  0  0  0  0
 18 19  2  0  0  0  0
 20 21  1  0  0  0  0
 20 28  2  0  0  0  0
 21 22  2  0  0  0  0
 21 29  1  0  0  0  0
 22 23  1  0  0  0  0
 23 24  2  0  0  0  0
 24 25  1  0  0  0  0
 25 29  2  0  0  0  0
M  END
>  <CHROM.1>
-40.95500608,-124.16045415,-111.69029710,-58.99073572,113.69730200,107.07387110
42.85147047,43.09543274,40.82223714,3.07259674,0.55935895,2.46687976

>  <Name>
ligand

>  <RI>
0

>  <Rbt.Current_Directory>
/home/itssahil/PROJECTS/Mol_Feturizer/New_Systems/rnas/4JIY

>  <Rbt.Executable>
rbdock ($Id: //depot/dev/client3/rdock/2013.1/src/exe/rbdock.cxx#4 $)

>  <Rbt.Library>
libRbt.so (2013.1, Build901 2013/11/27)

>  <Rbt.Parameter_File>
/export/apps/rDock/src/rDock_2013.1_src/data/scripts/dock_solv.prm

>  <Rbt.Receptor>
prm/pocket_docking_4.prm

>  <SCORE>
4.60411

>  <SCORE.INTER>
5.31483

>  <SCORE.INTER.CONST>
1

>  <SCORE.INTER.POLAR>
0

>  <SCORE.INTER.ROT>
6

>  <SCORE.INTER.SOLV>
0.647337

>  <SCORE.INTER.VDW>
-4.27256

>  <SCORE.INTER.norm>
0.18327

>  <SCORE.INTRA>
-0.712777

>  <SCORE.INTRA.DIHEDRAL>
0.115328

>  <SCORE.INTRA.DIHEDRAL.0>
7.2424

>  <SCORE.INTRA.POLAR>
0

>  <SCORE.INTRA.POLAR.0>
0

>  <SCORE.INTRA.REPUL>
0

>  <SCORE.INTRA.REPUL.0>
0

>  <SCORE.INTRA.SOLV>
-0.0195879

>  <SCORE.INTRA.SOLV.lig_0>
-3.36201

>  <SCORE.INTRA.VDW>
-0.760648

>  <SCORE.INTRA.VDW.0>
-0.910526

>  <SCORE.INTRA.norm>
-0.0245785

>  <SCORE.RESTR>
0.00206293

>  <SCORE.RESTR.CAVITY>
0.00206293

>  <SCORE.RESTR.norm>
7.11355e-05

>  <SCORE.SYSTEM>
0

>  <SCORE.SYSTEM.CONST>
0

>  <SCORE.SYSTEM.DIHEDRAL>
0

>  <SCORE.SYSTEM.SOLV>
0

>  <SCORE.SYSTEM.norm>
0

>  <SCORE.heavy>
29

>  <SCORE.norm>
0.158763

>  <RMSD>
3.247

$$$$
ligand
 OpenBabel11021811493D
libRbt.so/2013.1/901 2013/11/27
 29 32  0  0  0  0  0  0  0  0999 V2000
   41.0807   40.6625   38.5392 C   0  0  0  0  0  0  0  0  0  0  0  0
   49.7275   43.9700   45.4214 C   0  0  0  0  0  0  0  0  0  0  0  0
   50.8734   44.6493   44.9867 C   0  0  0  0  0  0  0  0  0  0  0  0
   50.9483   45.1440   43.7314 C   0  0  0  0  0  0  0  0  0  0  0  0
   49.8918   44.9040   42.8634 C   0  0  0  0  0  0  0  0  0  0  0  0
   48.7619   44.2882   43.3327 C   0  0  0  0  0  0  0  0  0  0  0  0
   47.5296   44.0753   42.5768 C   0  0  0  0  0  0  0  0  0  0  0  0
   45.6985   44.9591   41.4467 C   0  0  0  0  0  0  0  0  0  0  0  0
   45.6661   44.6310   40.1057 C   0  0  0  0  0  0  0  0  0  0  0  0
   44.4286   44.4970   39.4735 C   0  0  0  0  0  0  0  0  0  0  0  0
   43.2467   44.5826   40.1621 C   0  0  0  0  0  0  0  0  0  0  0  0
   43.3168   44.9099   41.5334 C   0  0  0  0  0  0  0  0  0  0  0  0
   44.5332   45.1571   42.1598 C   0  0  0  0  0  0  0  0  0  0  0  0
   41.9025   44.2900   39.4989 C   0  0  0  0  0  0  0  0  0  0  0  0
   41.4930   42.8263   39.5855 C   0  0  0  0  0  0  0  0  0  0  0  0
   41.4485   41.9973   38.4938 C   0  0  0  0  0  0  0  0  0  0  0  0
   40.7614   40.1507   39.7683 C   0  0  0  0  0  0  0  0  0  0  0  0
   40.7978   40.9650   40.8463 C   0  0  0  0  0  0  0  0  0  0  0  0
   41.1479   42.2955   40.7968 C   0  0  0  0  0  0  0  0  0  0  0  0
   39.0998   38.5308   39.8396 C   0  0  0  0  0  0  0  0  0  0  0  0
   38.6588   37.1746   40.0876 C   0  0  0  0  0  0  0  0  0  0  0  0
   38.4620   36.6074   41.3533 C   0  0  0  0  0  0  0  0  0  0  0  0
   38.0529   35.2911   41.4184 C   0  0  0  0  0  0  0  0  0  0  0  0
   37.8262   34.6128   40.2312 C   0  0  0  0  0  0  0  0  0  0  0  0
   38.0693   35.2029   39.0097 C   0  0  0  0  0  0  0  0  0  0  0  0
   48.6818   43.7945   44.5960 N   0  0  0  0  0  0  0  0  0  0  0  0
   46.9875   45.1601   42.0944 N   0  0  0  0  0  0  0  0  0  0  0  0
   40.3641   38.7489   39.9359 N   0  0  0  0  0  0  0  0  0  0  0  0
   38.4400   36.4723   38.9355 N   0  0  0  0  0  0  0  0  0  0  0  0
  1 17  2  0  0  0  0
  1 16  1  0  0  0  0
  2  3  2  0  0  0  0
  2 26  1  0  0  0  0
  3  4  1  0  0  0  0
  4  5  2  0  0  0  0
  5  6  1  0  0  0  0
  6  7  1  0  0  0  0
  6 26  2  0  0  0  0
  7 27  2  0  0  0  0
  8  9  2  0  0  0  0
  8 13  1  0  0  0  0
  8 27  1  0  0  0  0
  9 10  1  0  0  0  0
 10 11  2  0  0  0  0
 11 12  1  0  0  0  0
 11 14  1  0  0  0  0
 12 13  2  0  0  0  0
 14 15  1  0  0  0  0
 15 16  2  0  0  0  0
 15 19  1  0  0  0  0
 17 18  1  0  0  0  0
 17 28  1  0  0  0  0
 18 19  2  0  0  0  0
 20 21  1  0  0  0  0
 20 28  2  0  0  0  0
 21 22  2  0  0  0  0
 21 29  1  0  0  0  0
 22 23  1  0  0  0  0
 23 24  2  0  0  0  0
 24 25  1  0  0  0  0
 25 29  2  0  0  0  0
M  END
>  <CHROM.1>
-56.82465554,89.32557390,-110.85864937,80.72021137,-87.73408671,-90.43042050
43.37253859,41.73941573,41.12888879,2.69263320,0.56415614,2.71852694

>  <Name>
ligand

>  <RI>
0

>  <Rbt.Current_Directory>
/home/itssahil/PROJECTS/Mol_Feturizer/New_Systems/rnas/4JIY

>  <Rbt.Executable>
rbdock ($Id: //depot/dev/client3/rdock/2013.1/src/exe/rbdock.cxx#4 $)

>  <Rbt.Library>
libRbt.so (2013.1, Build901 2013/11/27)

>  <Rbt.Parameter_File>
/export/apps/rDock/src/rDock_2013.1_src/data/scripts/dock_solv.prm

>  <Rbt.Receptor>
prm/pocket_docking_4.prm

>  <SCORE>
3.89966

>  <SCORE.INTER>
5.00356

>  <SCORE.INTER.CONST>
1

>  <SCORE.INTER.POLAR>
0

>  <SCORE.INTER.ROT>
6

>  <SCORE.INTER.SOLV>
0.741304

>  <SCORE.INTER.VDW>
-4.5114

>  <SCORE.INTER.norm>
0.172536

>  <SCORE.INTRA>
-1.18672

>  <SCORE.INTRA.DIHEDRAL>
-0.0237813

>  <SCORE.INTRA.DIHEDRAL.0>
7.2424

>  <SCORE.INTRA.POLAR>
0

>  <SCORE.INTRA.POLAR.0>
0

>  <SCORE.INTRA.REPUL>
0

>  <SCORE.INTRA.REPUL.0>
0

>  <SCORE.INTRA.SOLV>
-0.019909

>  <SCORE.INTRA.SOLV.lig_0>
-3.36201

>  <SCORE.INTRA.VDW>
-1.16488

>  <SCORE.INTRA.VDW.0>
-0.910526

>  <SCORE.INTRA.norm>
-0.0409215

>  <SCORE.RESTR>
0.082827

>  <SCORE.RESTR.CAVITY>
0.082827

>  <SCORE.RESTR.norm>
0.00285611

>  <SCORE.SYSTEM>
0

>  <SCORE.SYSTEM.CONST>
0

>  <SCORE.SYSTEM.DIHEDRAL>
0

>  <SCORE.SYSTEM.SOLV>
0

>  <SCORE.SYSTEM.norm>
0

>  <SCORE.heavy>
29

>  <SCORE.norm>
0.134471

>  <RMSD>
3.251

$$$$
ligand
 OpenBabel11021811493D
libRbt.so/2013.1/901 2013/11/27
 29 32  0  0  0  0  0  0  0  0999 V2000
   44.6630   44.1822   41.5885 C   0  0  0  0  0  0  0  0  0  0  0  0
   36.6230   38.4057   42.8806 C   0  0  0  0  0  0  0  0  0  0  0  0
   35.2664   38.7369   42.9975 C   0  0  0  0  0  0  0  0  0  0  0  0
   34.8320   39.9825   42.7044 C   0  0  0  0  0  0  0  0  0  0  0  0
   35.7705   40.9426   42.3507 C   0  0  0  0  0  0  0  0  0  0  0  0
   37.0802   40.5757   42.1888 C   0  0  0  0  0  0  0  0  0  0  0  0
   38.1551   41.4404   41.7069 C   0  0  0  0  0  0  0  0  0  0  0  0
   39.1328   42.6351   39.9668 C   0  0  0  0  0  0  0  0  0  0  0  0
   39.2061   43.9888   40.2291 C   0  0  0  0  0  0  0  0  0  0  0  0
   40.2573   44.7264   39.6814 C   0  0  0  0  0  0  0  0  0  0  0  0
   41.2716   44.1338   38.9755 C   0  0  0  0  0  0  0  0  0  0  0  0
   41.1700   42.7467   38.7341 C   0  0  0  0  0  0  0  0  0  0  0  0
   40.0757   42.0111   39.1748 C   0  0  0  0  0  0  0  0  0  0  0  0
   42.4941   44.9188   38.5048 C   0  0  0  0  0  0  0  0  0  0  0  0
   43.6042   44.9870   39.5444 C   0  0  0  0  0  0  0  0  0  0  0  0
   43.6673   44.1460   40.6260 C   0  0  0  0  0  0  0  0  0  0  0  0
   45.6511   45.1151   41.4209 C   0  0  0  0  0  0  0  0  0  0  0  0
   45.5903   45.9501   40.3600 C   0  0  0  0  0  0  0  0  0  0  0  0
   44.5912   45.9234   39.4133 C   0  0  0  0  0  0  0  0  0  0  0  0
   47.5651   44.2371   42.3987 C   0  0  0  0  0  0  0  0  0  0  0  0
   48.6195   44.2820   43.3894 C   0  0  0  0  0  0  0  0  0  0  0  0
   48.5315   43.7627   44.6875 C   0  0  0  0  0  0  0  0  0  0  0  0
   49.6250   43.9013   45.5177 C   0  0  0  0  0  0  0  0  0  0  0  0
   50.7608   44.5148   45.0132 C   0  0  0  0  0  0  0  0  0  0  0  0
   50.7863   45.0426   43.7404 C   0  0  0  0  0  0  0  0  0  0  0  0
   37.5188   39.3226   42.4777 N   0  0  0  0  0  0  0  0  0  0  0  0
   38.0041   41.8745   40.4854 N   0  0  0  0  0  0  0  0  0  0  0  0
   46.7585   45.2392   42.3745 N   0  0  0  0  0  0  0  0  0  0  0  0
   49.7507   44.8949   42.9279 N   0  0  0  0  0  0  0  0  0  0  0  0
  1 17  2  0  0  0  0
  1 16  1  0  0  0  0
  2  3  2  0  0  0  0
  2 26  1  0  0  0  0
  3  4  1  0  0  0  0
  4  5  2  0  0  0  0
  5  6  1  0  0  0  0
  6  7  1  0  0  0  0
  6 26  2  0  0  0  0
  7 27  2  0  0  0  0
  8  9  2  0  0  0  0
  8 13  1  0  0  0  0
  8 27  1  0  0  0  0
  9 10  1  0  0  0  0
 10 11  2  0  0  0  0
 11 12  1  0  0  0  0
 11 14  1  0  0  0  0
 12 13  2  0  0  0  0
 14 15  1  0  0  0  0
 15 16  2  0  0  0  0
 15 19  1  0  0  0  0
 17 18  1  0  0  0  0
 17 28  1  0  0  0  0
 18 19  2  0  0  0  0
 20 21  1  0  0  0  0
 20 28  2  0  0  0  0
 21 22  2  0  0  0  0
 21 29  1  0  0  0  0
 22 23  1  0  0  0  0
 23 24  2  0  0  0  0
 24 25  1  0  0  0  0
 25 29  2  0  0  0  0
M  END
>  <CHROM.1>
-62.99129883,86.98337539,16.78645068,90.76984485,-85.64166505,67.17967020
42.66397589,43.19346127,41.58424127,0.09131327,-0.34780421,-0.94951023

>  <Name>
ligand

>  <RI>
0

>  <Rbt.Current_Directory>
/home/itssahil/PROJECTS/Mol_Feturizer/New_Systems/rnas/4JIY

>  <Rbt.Executable>
rbdock ($Id: //depot/dev/client3/rdock/2013.1/src/exe/rbdock.cxx#4 $)

>  <Rbt.Library>
libRbt.so (2013.1, Build901 2013/11/27)

>  <Rbt.Parameter_File>
/export/apps/rDock/src/rDock_2013.1_src/data/scripts/dock_solv.prm

>  <Rbt.Receptor>
prm/pocket_docking_4.prm

>  <SCORE>
4.29179

>  <SCORE.INTER>
5.1583

>  <SCORE.INTER.CONST>
1

>  <SCORE.INTER.POLAR>
0

>  <SCORE.INTER.ROT>
6

>  <SCORE.INTER.SOLV>
0.679432

>  <SCORE.INTER.VDW>
-4.38761

>  <SCORE.INTER.norm>
0.177872

>  <SCORE.INTRA>
-0.908945

>  <SCORE.INTRA.DIHEDRAL>
0.0783541

>  <SCORE.INTRA.DIHEDRAL.0>
7.2424

>  <SCORE.INTRA.POLAR>
0

>  <SCORE.INTRA.POLAR.0>
0

>  <SCORE.INTRA.REPUL>
0

>  <SCORE.INTRA.REPUL.0>
0

>  <SCORE.INTRA.SOLV>
-0.0195804

>  <SCORE.INTRA.SOLV.lig_0>
-3.36201

>  <SCORE.INTRA.VDW>
-0.938332

>  <SCORE.INTRA.VDW.0>
-0.910526

>  <SCORE.INTRA.norm>
-0.0313429

>  <SCORE.RESTR>
0.0424324

>  <SCORE.RESTR.CAVITY>
0.0424324

>  <SCORE.RESTR.norm>
0.00146319

>  <SCORE.SYSTEM>
0

>  <SCORE.SYSTEM.CONST>
0

>  <SCORE.SYSTEM.DIHEDRAL>
0

>  <SCORE.SYSTEM.SOLV>
0

>  <SCORE.SYSTEM.norm>
0

>  <SCORE.heavy>
29

>  <SCORE.norm>
0.147993

>  <RMSD>
3.301

$$$$
ligand
 OpenBabel11021811503D
libRbt.so/2013.1/901 2013/11/27
 29 32  0  0  0  0  0  0  0  0999 V2000
   39.5985   40.8974   38.0083 C   0  0  0  0  0  0  0  0  0  0  0  0
   47.7244   43.8458   45.8924 C   0  0  0  0  0  0  0  0  0  0  0  0
   49.0193   44.0911   45.4164 C   0  0  0  0  0  0  0  0  0  0  0  0
   49.2581   44.2033   44.0911 C   0  0  0  0  0  0  0  0  0  0  0  0
   48.2033   44.0024   43.2111 C   0  0  0  0  0  0  0  0  0  0  0  0
   46.9390   43.8217   43.7063 C   0  0  0  0  0  0  0  0  0  0  0  0
   45.7179   43.7178   42.9105 C   0  0  0  0  0  0  0  0  0  0  0  0
   44.2931   44.6176   41.3069 C   0  0  0  0  0  0  0  0  0  0  0  0
   44.2012   43.9039   40.1283 C   0  0  0  0  0  0  0  0  0  0  0  0
   42.9970   43.9191   39.4222 C   0  0  0  0  0  0  0  0  0  0  0  0
   41.8751   44.5368   39.9103 C   0  0  0  0  0  0  0  0  0  0  0  0
   42.0019   45.2491   41.1225 C   0  0  0  0  0  0  0  0  0  0  0  0
   43.2196   45.3405   41.7871 C   0  0  0  0  0  0  0  0  0  0  0  0
   40.5229   44.4272   39.2091 C   0  0  0  0  0  0  0  0  0  0  0  0
   39.9758   43.0070   39.1721 C   0  0  0  0  0  0  0  0  0  0  0  0
   40.0850   42.1929   38.0738 C   0  0  0  0  0  0  0  0  0  0  0  0
   38.9873   40.4092   39.1320 C   0  0  0  0  0  0  0  0  0  0  0  0
   38.8718   41.2095   40.2149 C   0  0  0  0  0  0  0  0  0  0  0  0
   39.3414   42.5023   40.2726 C   0  0  0  0  0  0  0  0  0  0  0  0
   37.2549   38.9268   38.6946 C   0  0  0  0  0  0  0  0  0  0  0  0
   36.6459   37.6181   38.8035 C   0  0  0  0  0  0  0  0  0  0  0  0
   35.7778   37.2130   39.8256 C   0  0  0  0  0  0  0  0  0  0  0  0
   35.2940   35.9211   39.7924 C   0  0  0  0  0  0  0  0  0  0  0  0
   35.6647   35.1063   38.7343 C   0  0  0  0  0  0  0  0  0  0  0  0
   36.5511   35.5388   37.7717 C   0  0  0  0  0  0  0  0  0  0  0  0
   46.6952   43.7138   45.0386 N   0  0  0  0  0  0  0  0  0  0  0  0
   45.5659   44.6541   42.0140 N   0  0  0  0  0  0  0  0  0  0  0  0
   38.4408   39.0489   39.1783 N   0  0  0  0  0  0  0  0  0  0  0  0
   37.0033   36.7837   37.7814 N   0  0  0  0  0  0  0  0  0  0  0  0
  1 17  2  0  0  0  0
  1 16  1  0  0  0  0
  2  3  2  0  0  0  0
  2 26  1  0  0  0  0
  3  4  1  0  0  0  0
  4  5  2  0  0  0  0
  5  6  1  0  0  0  0
  6  7  1  0  0  0  0
  6 26  2  0  0  0  0
  7 27  2  0  0  0  0
  8  9  2  0  0  0  0
  8 13  1  0  0  0  0
  8 27  1  0  0  0  0
  9 10  1  0  0  0  0
 10 11  2  0  0  0  0
 11 12  1  0  0  0  0
 11 14  1  0  0  0  0
 12 13  2  0  0  0  0
 14 15  1  0  0  0  0
 15 16  2  0  0  0  0
 15 19  1  0  0  0  0
 17 18  1  0  0  0  0
 17 28  1  0  0  0  0
 18 19  2  0  0  0  0
 20 21  1  0  0  0  0
 20 28  2  0  0  0  0
 21 22  2  0  0  0  0
 21 29  1  0  0  0  0
 22 23  1  0  0  0  0
 23 24  2  0  0  0  0
 24 25  1  0  0  0  0
 25 29  2  0  0  0  0
M  END
>  <CHROM.1>
-49.24510961,63.75449149,-99.26780231,95.29013691,-91.49309242,-83.86930154
41.64477279,41.73605907,40.70969552,2.80574510,0.61378760,2.73680875

>  <Name>
ligand

>  <RI>
0

>  <Rbt.Current_Directory>
/home/itssahil/PROJECTS/Mol_Feturizer/New_Systems/rnas/4JIY

>  <Rbt.Executable>
rbdock ($Id: //depot/dev/client3/rdock/2013.1/src/exe/rbdock.cxx#4 $)

>  <Rbt.Library>
libRbt.so (2013.1, Build901 2013/11/27)

>  <Rbt.Parameter_File>
/export/apps/rDock/src/rDock_2013.1_src/data/scripts/dock_solv.prm

>  <Rbt.Receptor>
prm/pocket_docking_4.prm

>  <SCORE>
5.62846

>  <SCORE.INTER>
6.65932

>  <SCORE.INTER.CONST>
1

>  <SCORE.INTER.POLAR>
0

>  <SCORE.INTER.ROT>
6

>  <SCORE.INTER.SOLV>
0.251501

>  <SCORE.INTER.VDW>
-3.24429

>  <SCORE.INTER.norm>
0.229632

>  <SCORE.INTRA>
-1.04833

>  <SCORE.INTRA.DIHEDRAL>
0.29377

>  <SCORE.INTRA.DIHEDRAL.0>
7.2424

>  <SCORE.INTRA.POLAR>
0

>  <SCORE.INTRA.POLAR.0>
0

>  <SCORE.INTRA.REPUL>
0

>  <SCORE.INTRA.REPUL.0>
0

>  <SCORE.INTRA.SOLV>
-0.0192743

>  <SCORE.INTRA.SOLV.lig_0>
-3.36201

>  <SCORE.INTRA.VDW>
-1.18558

>  <SCORE.INTRA.VDW.0>
-0.910526

>  <SCORE.INTRA.norm>
-0.0361495

>  <SCORE.RESTR>
0.0174744

>  <SCORE.RESTR.CAVITY>
0.0174744

>  <SCORE.RESTR.norm>
0.000602566

>  <SCORE.SYSTEM>
0

>  <SCORE.SYSTEM.CONST>
0

>  <SCORE.SYSTEM.DIHEDRAL>
0

>  <SCORE.SYSTEM.SOLV>
0

>  <SCORE.SYSTEM.norm>
0

>  <SCORE.heavy>
29

>  <SCORE.norm>
0.194085

>  <RMSD>
3.311

$$$$
ligand
 OpenBabel11021811493D
libRbt.so/2013.1/901 2013/11/27
 29 32  0  0  0  0  0  0  0  0999 V2000
   40.8001   40.5871   39.6912 C   0  0  0  0  0  0  0  0  0  0  0  0
   48.7244   44.0645   46.3430 C   0  0  0  0  0  0  0  0  0  0  0  0
   50.1016   44.3085   46.2564 C   0  0  0  0  0  0  0  0  0  0  0  0
   50.7095   44.4158   45.0543 C   0  0  0  0  0  0  0  0  0  0  0  0
   49.9502   44.2115   43.9101 C   0  0  0  0  0  0  0  0  0  0  0  0
   48.5970   44.0323   44.0237 C   0  0  0  0  0  0  0  0  0  0  0  0
   47.6543   43.9251   42.9123 C   0  0  0  0  0  0  0  0  0  0  0  0
   45.6013   44.4812   41.9705 C   0  0  0  0  0  0  0  0  0  0  0  0
   44.6901   43.4514   42.0976 C   0  0  0  0  0  0  0  0  0  0  0  0
   43.7773   43.2268   41.0655 C   0  0  0  0  0  0  0  0  0  0  0  0
   43.6913   44.0552   39.9771 C   0  0  0  0  0  0  0  0  0  0  0  0
   44.6318   45.1037   39.8837 C   0  0  0  0  0  0  0  0  0  0  0  0
   45.6210   45.2798   40.8446 C   0  0  0  0  0  0  0  0  0  0  0  0
   42.5969   43.8945   38.9241 C   0  0  0  0  0  0  0  0  0  0  0  0
   41.5272   42.8843   39.3150 C   0  0  0  0  0  0  0  0  0  0  0  0
   41.7512   41.5315   39.3403 C   0  0  0  0  0  0  0  0  0  0  0  0
   39.5656   41.0573   40.0511 C   0  0  0  0  0  0  0  0  0  0  0  0
   39.3380   42.3892   40.0220 C   0  0  0  0  0  0  0  0  0  0  0  0
   40.2796   43.3250   39.6575 C   0  0  0  0  0  0  0  0  0  0  0  0
   37.9085   39.5377   39.4726 C   0  0  0  0  0  0  0  0  0  0  0  0
   36.7780   38.7008   39.8146 C   0  0  0  0  0  0  0  0  0  0  0  0
   36.8317   37.5640   40.6315 C   0  0  0  0  0  0  0  0  0  0  0  0
   35.6623   36.8641   40.8477 C   0  0  0  0  0  0  0  0  0  0  0  0
   34.4941   37.3412   40.2745 C   0  0  0  0  0  0  0  0  0  0  0  0
   34.4984   38.4439   39.4479 C   0  0  0  0  0  0  0  0  0  0  0  0
   47.9823   43.9291   45.2310 N   0  0  0  0  0  0  0  0  0  0  0  0
   46.5945   44.6796   43.0171 N   0  0  0  0  0  0  0  0  0  0  0  0
   38.4845   40.1489   40.4473 N   0  0  0  0  0  0  0  0  0  0  0  0
   35.6106   39.1360   39.2522 N   0  0  0  0  0  0  0  0  0  0  0  0
  1 17  2  0  0  0  0
  1 16  1  0  0  0  0
  2  3  2  0  0  0  0
  2 26  1  0  0  0  0
  3  4  1  0  0  0  0
  4  5  2  0  0  0  0
  5  6  1  0  0  0  0
  6  7  1  0  0  0  0
  6 26  2  0  0  0  0
  7 27  2  0  0  0  0
  8  9  2  0  0  0  0
  8 13  1  0  0  0  0
  8 27  1  0  0  0  0
  9 10  1  0  0  0  0
 10 11  2  0  0  0  0
 11 12  1  0  0  0  0
 11 14  1  0  0  0  0
 12 13  2  0  0  0  0
 14 15  1  0  0  0  0
 15 16  2  0  0  0  0
 15 19  1  0  0  0  0
 17 18  1  0  0  0  0
 17 28  1  0  0  0  0
 18 19  2  0  0  0  0
 20 21  1  0  0  0  0
 20 28  2  0  0  0  0
 21 22  2  0  0  0  0
 21 29  1  0  0  0  0
 22 23  1  0  0  0  0
 23 24  2  0  0  0  0
 24 25  1  0  0  0  0
 25 29  2  0  0  0  0
M  END
>  <CHROM.1>
-131.46566529,8.52956912,-71.70340308,-63.14119413,83.46237354,-76.69087067
42.55986165,42.16084521,41.37054450,3.11872459,0.52897401,2.27274424

>  <Name>
ligand

>  <RI>
0

>  <Rbt.Current_Directory>
/home/itssahil/PROJECTS/Mol_Feturizer/New_Systems/rnas/4JIY

>  <Rbt.Executable>
rbdock ($Id: //depot/dev/client3/rdock/2013.1/src/exe/rbdock.cxx#4 $)

>  <Rbt.Library>
libRbt.so (2013.1, Build901 2013/11/27)

>  <Rbt.Parameter_File>
/export/apps/rDock/src/rDock_2013.1_src/data/scripts/dock_solv.prm

>  <Rbt.Receptor>
prm/pocket_docking_4.prm

>  <SCORE>
5.05428

>  <SCORE.INTER>
5.43776

>  <SCORE.INTER.CONST>
1

>  <SCORE.INTER.POLAR>
0

>  <SCORE.INTER.ROT>
6

>  <SCORE.INTER.SOLV>
0.81455

>  <SCORE.INTER.VDW>
-4.24635

>  <SCORE.INTER.norm>
0.187509

>  <SCORE.INTRA>
-0.384773

>  <SCORE.INTRA.DIHEDRAL>
0.610215

>  <SCORE.INTRA.DIHEDRAL.0>
7.2424

>  <SCORE.INTRA.POLAR>
0

>  <SCORE.INTRA.POLAR.0>
0

>  <SCORE.INTRA.REPUL>
0

>  <SCORE.INTRA.REPUL.0>
0

>  <SCORE.INTRA.SOLV>
-0.0145931

>  <SCORE.INTRA.SOLV.lig_0>
-3.36201

>  <SCORE.INTRA.VDW>
-0.682584

>  <SCORE.INTRA.VDW.0>
-0.910526

>  <SCORE.INTRA.norm>
-0.0132681

>  <SCORE.RESTR>
0.00129978

>  <SCORE.RESTR.CAVITY>
0.00129978

>  <SCORE.RESTR.norm>
4.482e-05

>  <SCORE.SYSTEM>
0

>  <SCORE.SYSTEM.CONST>
0

>  <SCORE.SYSTEM.DIHEDRAL>
0

>  <SCORE.SYSTEM.SOLV>
0

>  <SCORE.SYSTEM.norm>
0

>  <SCORE.heavy>
29

>  <SCORE.norm>
0.174286

>  <RMSD>
3.323

$$$$
ligand
 OpenBabel11021811503D
libRbt.so/2013.1/901 2013/11/27
 29 32  0  0  0  0  0  0  0  0999 V2000
   44.1464   43.7367   39.8937 C   0  0  0  0  0  0  0  0  0  0  0  0
   35.0673   37.8802   40.4684 C   0  0  0  0  0  0  0  0  0  0  0  0
   34.9036   36.9269   39.4545 C   0  0  0  0  0  0  0  0  0  0  0  0
   35.6077   37.0142   38.3044 C   0  0  0  0  0  0  0  0  0  0  0  0
   36.4451   38.1069   38.1246 C   0  0  0  0  0  0  0  0  0  0  0  0
   36.6286   38.9907   39.1548 C   0  0  0  0  0  0  0  0  0  0  0  0
   37.5630   40.1142   39.1588 C   0  0  0  0  0  0  0  0  0  0  0  0
   38.1804   42.2049   38.3472 C   0  0  0  0  0  0  0  0  0  0  0  0
   38.1611   43.2180   39.2853 C   0  0  0  0  0  0  0  0  0  0  0  0
   39.0703   44.2701   39.1611 C   0  0  0  0  0  0  0  0  0  0  0  0
   40.0447   44.2799   38.1973 C   0  0  0  0  0  0  0  0  0  0  0  0
   40.0413   43.2239   37.2605 C   0  0  0  0  0  0  0  0  0  0  0  0
   39.0769   42.2232   37.2976 C   0  0  0  0  0  0  0  0  0  0  0  0
   41.1280   45.3555   38.1546 C   0  0  0  0  0  0  0  0  0  0  0  0
   42.2744   45.0959   39.1221 C   0  0  0  0  0  0  0  0  0  0  0  0
   43.0958   44.0014   39.0304 C   0  0  0  0  0  0  0  0  0  0  0  0
   44.3750   44.6505   40.8874 C   0  0  0  0  0  0  0  0  0  0  0  0
   43.5647   45.7276   40.9858 C   0  0  0  0  0  0  0  0  0  0  0  0
   42.5110   45.9806   40.1367 C   0  0  0  0  0  0  0  0  0  0  0  0
   46.5804   45.0167   41.5137 C   0  0  0  0  0  0  0  0  0  0  0  0
   47.7030   44.7903   42.3991 C   0  0  0  0  0  0  0  0  0  0  0  0
   49.0182   45.2091   42.1601 C   0  0  0  0  0  0  0  0  0  0  0  0
   49.9794   44.8989   43.1004 C   0  0  0  0  0  0  0  0  0  0  0  0
   49.5869   44.2213   44.2439 C   0  0  0  0  0  0  0  0  0  0  0  0
   48.2869   43.7980   44.4169 C   0  0  0  0  0  0  0  0  0  0  0  0
   35.9259   38.9023   40.3143 N   0  0  0  0  0  0  0  0  0  0  0  0
   37.1933   41.1379   38.4386 N   0  0  0  0  0  0  0  0  0  0  0  0
   45.4638   44.4759   41.8544 N   0  0  0  0  0  0  0  0  0  0  0  0
   47.3523   44.1102   43.5317 N   0  0  0  0  0  0  0  0  0  0  0  0
  1 17  2  0  0  0  0
  1 16  1  0  0  0  0
  2  3  2  0  0  0  0
  2 26  1  0  0  0  0
  3  4  1  0  0  0  0
  4  5  2  0  0  0  0
  5  6  1  0  0  0  0
  6  7  1  0  0  0  0
  6 26  2  0  0  0  0
  7 27  2  0  0  0  0
  8  9  2  0  0  0  0
  8 13  1  0  0  0  0
  8 27  1  0  0  0  0
  9 10  1  0  0  0  0
 10 11  2  0  0  0  0
 11 12  1  0  0  0  0
 11 14  1  0  0  0  0
 12 13  2  0  0  0  0
 14 15  1  0  0  0  0
 15 16  2  0  0  0  0
 15 19  1  0  0  0  0
 17 18  1  0  0  0  0
 17 28  1  0  0  0  0
 18 19  2  0  0  0  0
 20 21  1  0  0  0  0
 20 28  2  0  0  0  0
 21 22  2  0  0  0  0
 21 29  1  0  0  0  0
 22 23  1  0  0  0  0
 23 24  2  0  0  0  0
 24 25  1  0  0  0  0
 25 29  2  0  0  0  0
M  END
>  <CHROM.1>
74.86122198,80.96738356,62.86606325,175.19775603,-90.13521896,91.02695437
41.68326659,42.74411994,40.16109915,0.21372838,-0.48914695,-0.54956662

>  <Name>
ligand

>  <RI>
0

>  <Rbt.Current_Directory>
/home/itssahil/PROJECTS/Mol_Feturizer/New_Systems/rnas/4JIY

>  <Rbt.Executable>
rbdock ($Id: //depot/dev/client3/rdock/2013.1/src/exe/rbdock.cxx#4 $)

>  <Rbt.Library>
libRbt.so (2013.1, Build901 2013/11/27)

>  <Rbt.Parameter_File>
/export/apps/rDock/src/rDock_2013.1_src/data/scripts/dock_solv.prm

>  <Rbt.Receptor>
prm/pocket_docking_4.prm

>  <SCORE>
5.35055

>  <SCORE.INTER>
6.15274

>  <SCORE.INTER.CONST>
1

>  <SCORE.INTER.POLAR>
0

>  <SCORE.INTER.ROT>
6

>  <SCORE.INTER.SOLV>
0.38306

>  <SCORE.INTER.VDW>
-3.62586

>  <SCORE.INTER.norm>
0.212163

>  <SCORE.INTRA>
-0.814991

>  <SCORE.INTRA.DIHEDRAL>
-0.105059

>  <SCORE.INTRA.DIHEDRAL.0>
7.2424

>  <SCORE.INTRA.POLAR>
0

>  <SCORE.INTRA.POLAR.0>
0

>  <SCORE.INTRA.REPUL>
0

>  <SCORE.INTRA.REPUL.0>
0

>  <SCORE.INTRA.SOLV>
-0.0101349

>  <SCORE.INTRA.SOLV.lig_0>
-3.36201

>  <SCORE.INTRA.VDW>
-0.757394

>  <SCORE.INTRA.VDW.0>
-0.910526

>  <SCORE.INTRA.norm>
-0.0281032

>  <SCORE.RESTR>
0.0127974

>  <SCORE.RESTR.CAVITY>
0.0127974

>  <SCORE.RESTR.norm>
0.00044129

>  <SCORE.SYSTEM>
0

>  <SCORE.SYSTEM.CONST>
0

>  <SCORE.SYSTEM.DIHEDRAL>
0

>  <SCORE.SYSTEM.SOLV>
0

>  <SCORE.SYSTEM.norm>
0

>  <SCORE.heavy>
29

>  <SCORE.norm>
0.184502

>  <RMSD>
3.356

$$$$
ligand
 OpenBabel11021811503D
libRbt.so/2013.1/901 2013/11/27
 29 32  0  0  0  0  0  0  0  0999 V2000
   44.0531   43.8727   42.3373 C   0  0  0  0  0  0  0  0  0  0  0  0
   34.1791   38.6964   40.4097 C   0  0  0  0  0  0  0  0  0  0  0  0
   34.2278   37.2999   40.3046 C   0  0  0  0  0  0  0  0  0  0  0  0
   35.3217   36.6827   39.8063 C   0  0  0  0  0  0  0  0  0  0  0  0
   36.3671   37.4677   39.3390 C   0  0  0  0  0  0  0  0  0  0  0  0
   36.3159   38.8261   39.5075 C   0  0  0  0  0  0  0  0  0  0  0  0
   37.3841   39.7675   39.1788 C   0  0  0  0  0  0  0  0  0  0  0  0
   39.4713   40.6728   39.6635 C   0  0  0  0  0  0  0  0  0  0  0  0
   40.5080   40.3879   38.7969 C   0  0  0  0  0  0  0  0  0  0  0  0
   41.5095   41.3418   38.6060 C   0  0  0  0  0  0  0  0  0  0  0  0
   41.4452   42.5878   39.1732 C   0  0  0  0  0  0  0  0  0  0  0  0
   40.3669   42.8485   40.0461 C   0  0  0  0  0  0  0  0  0  0  0  0
   39.4173   41.8759   40.3381 C   0  0  0  0  0  0  0  0  0  0  0  0
   42.4634   43.6778   38.8458 C   0  0  0  0  0  0  0  0  0  0  0  0
   43.4490   43.9417   39.9757 C   0  0  0  0  0  0  0  0  0  0  0  0
   43.1786   43.6453   41.2872 C   0  0  0  0  0  0  0  0  0  0  0  0
   45.2708   44.4132   42.0217 C   0  0  0  0  0  0  0  0  0  0  0  0
   45.5398   44.7127   40.7316 C   0  0  0  0  0  0  0  0  0  0  0  0
   44.6633   44.5010   39.6914 C   0  0  0  0  0  0  0  0  0  0  0  0
   47.0310   43.6922   43.3529 C   0  0  0  0  0  0  0  0  0  0  0  0
   47.9773   43.9002   44.4284 C   0  0  0  0  0  0  0  0  0  0  0  0
   47.6467   44.0156   45.7847 C   0  0  0  0  0  0  0  0  0  0  0  0
   48.6694   44.2284   46.6864 C   0  0  0  0  0  0  0  0  0  0  0  0
   49.9688   44.2822   46.2072 C   0  0  0  0  0  0  0  0  0  0  0  0
   50.2405   44.1998   44.8586 C   0  0  0  0  0  0  0  0  0  0  0  0
   35.2193   39.4490   40.0131 N   0  0  0  0  0  0  0  0  0  0  0  0
   38.4581   39.6565   39.9120 N   0  0  0  0  0  0  0  0  0  0  0  0
   46.2772   44.6905   43.0520 N   0  0  0  0  0  0  0  0  0  0  0  0
   49.2690   43.9728   43.9873 N   0  0  0  0  0  0  0  0  0  0  0  0
  1 17  2  0  0  0  0
  1 16  1  0  0  0  0
  2  3  2  0  0  0  0
  2 26  1  0  0  0  0
  3  4  1  0  0  0  0
  4  5  2  0  0  0  0
  5  6  1  0  0  0  0
  6  7  1  0  0  0  0
  6 26  2  0  0  0  0
  7 27  2  0  0  0  0
  8  9  2  0  0  0  0
  8 13  1  0  0  0  0
  8 27  1  0  0  0  0
  9 10  1  0  0  0  0
 10 11  2  0  0  0  0
 11 12  1  0  0  0  0
 11 14  1  0  0  0  0
 12 13  2  0  0  0  0
 14 15  1  0  0  0  0
 15 16  2  0  0  0  0
 15 19  1  0  0  0  0
 17 18  1  0  0  0  0
 17 28  1  0  0  0  0
 18 19  2  0  0  0  0
 20 21  1  0  0  0  0
 20 28  2  0  0  0  0
 21 22  2  0  0  0  0
 21 29  1  0  0  0  0
 22 23  1  0  0  0  0
 23 24  2  0  0  0  0
 24 25  1  0  0  0  0
 25 29  2  0  0  0  0
M  END
>  <CHROM.1>
-66.69698604,-106.75986332,-23.43880196,71.44464600,-95.79141194,85.65857488
42.27349361,42.05014037,41.31728752,-0.09166524,-0.53783628,-1.05106071

>  <Name>
ligand

>  <RI>
0

>  <Rbt.Current_Directory>
/home/itssahil/PROJECTS/Mol_Feturizer/New_Systems/rnas/4JIY

>  <Rbt.Executable>
rbdock ($Id: //depot/dev/client3/rdock/2013.1/src/exe/rbdock.cxx#4 $)

>  <Rbt.Library>
libRbt.so (2013.1, Build901 2013/11/27)

>  <Rbt.Parameter_File>
/export/apps/rDock/src/rDock_2013.1_src/data/scripts/dock_solv.prm

>  <Rbt.Receptor>
prm/pocket_docking_4.prm

>  <SCORE>
4.62463

>  <SCORE.INTER>
5.57286

>  <SCORE.INTER.CONST>
1

>  <SCORE.INTER.POLAR>
0

>  <SCORE.INTER.ROT>
6

>  <SCORE.INTER.SOLV>
0.874401

>  <SCORE.INTER.VDW>
-4.17623

>  <SCORE.INTER.norm>
0.192168

>  <SCORE.INTRA>
-0.953474

>  <SCORE.INTRA.DIHEDRAL>
0.0731417

>  <SCORE.INTRA.DIHEDRAL.0>
7.2424

>  <SCORE.INTRA.POLAR>
0

>  <SCORE.INTRA.POLAR.0>
0

>  <SCORE.INTRA.REPUL>
0

>  <SCORE.INTRA.REPUL.0>
0

>  <SCORE.INTRA.SOLV>
-0.0203214

>  <SCORE.INTRA.SOLV.lig_0>
-3.36201

>  <SCORE.INTRA.VDW>
-0.979884

>  <SCORE.INTRA.VDW.0>
-0.910526

>  <SCORE.INTRA.norm>
-0.0328784

>  <SCORE.RESTR>
0.00523666

>  <SCORE.RESTR.CAVITY>
0.00523666

>  <SCORE.RESTR.norm>
0.000180574

>  <SCORE.SYSTEM>
0

>  <SCORE.SYSTEM.CONST>
0

>  <SCORE.SYSTEM.DIHEDRAL>
0

>  <SCORE.SYSTEM.SOLV>
0

>  <SCORE.SYSTEM.norm>
0

>  <SCORE.heavy>
29

>  <SCORE.norm>
0.15947

>  <RMSD>
3.369

$$$$
ligand
 OpenBabel11021811493D
libRbt.so/2013.1/901 2013/11/27
 29 32  0  0  0  0  0  0  0  0999 V2000
   46.5208   45.7624   40.5296 C   0  0  0  0  0  0  0  0  0  0  0  0
   37.1622   37.9783   37.4534 C   0  0  0  0  0  0  0  0  0  0  0  0
   37.0072   37.0561   38.4971 C   0  0  0  0  0  0  0  0  0  0  0  0
   37.5411   37.2957   39.7152 C   0  0  0  0  0  0  0  0  0  0  0  0
   38.3027   38.4435   39.8877 C   0  0  0  0  0  0  0  0  0  0  0  0
   38.3885   39.3538   38.8678 C   0  0  0  0  0  0  0  0  0  0  0  0
   39.0488   40.6554   38.9392 C   0  0  0  0  0  0  0  0  0  0  0  0
   40.9404   41.9608   38.5801 C   0  0  0  0  0  0  0  0  0  0  0  0
   40.8547   42.9222   37.5926 C   0  0  0  0  0  0  0  0  0  0  0  0
   41.5775   44.1075   37.7401 C   0  0  0  0  0  0  0  0  0  0  0  0
   42.2892   44.3890   38.8770 C   0  0  0  0  0  0  0  0  0  0  0  0
   42.3478   43.3878   39.8705 C   0  0  0  0  0  0  0  0  0  0  0  0
   41.7272   42.1558   39.6975 C   0  0  0  0  0  0  0  0  0  0  0  0
   42.9565   45.7449   39.0973 C   0  0  0  0  0  0  0  0  0  0  0  0
   44.1271   45.6904   40.0692 C   0  0  0  0  0  0  0  0  0  0  0  0
   45.4343   45.8077   39.6712 C   0  0  0  0  0  0  0  0  0  0  0  0
   46.2493   45.6079   41.8626 C   0  0  0  0  0  0  0  0  0  0  0  0
   44.9632   45.4857   42.2593 C   0  0  0  0  0  0  0  0  0  0  0  0
   43.8856   45.5147   41.4030 C   0  0  0  0  0  0  0  0  0  0  0  0
   47.8270   44.3849   43.0482 C   0  0  0  0  0  0  0  0  0  0  0  0
   48.8253   44.2730   44.0904 C   0  0  0  0  0  0  0  0  0  0  0  0
   50.2085   44.3866   43.9003 C   0  0  0  0  0  0  0  0  0  0  0  0
   51.0293   44.2384   44.9996 C   0  0  0  0  0  0  0  0  0  0  0  0
   50.4412   44.0197   46.2354 C   0  0  0  0  0  0  0  0  0  0  0  0
   49.0765   43.8790   46.3661 C   0  0  0  0  0  0  0  0  0  0  0  0
   37.8483   39.1178   37.6437 N   0  0  0  0  0  0  0  0  0  0  0  0
   40.2369   40.6982   38.4006 N   0  0  0  0  0  0  0  0  0  0  0  0
   47.3211   45.5532   42.8623 N   0  0  0  0  0  0  0  0  0  0  0  0
   48.2784   44.0421   45.3217 N   0  0  0  0  0  0  0  0  0  0  0  0
  1 17  2  0  0  0  0
  1 16  1  0  0  0  0
  2  3  2  0  0  0  0
  2 26  1  0  0  0  0
  3  4  1  0  0  0  0
  4  5  2  0  0  0  0
  5  6  1  0  0  0  0
  6  7  1  0  0  0  0
  6 26  2  0  0  0  0
  7 27  2  0  0  0  0
  8  9  2  0  0  0  0
  8 13  1  0  0  0  0
  8 27  1  0  0  0  0
  9 10  1  0  0  0  0
 10 11  2  0  0  0  0
 11 12  1  0  0  0  0
 11 14  1  0  0  0  0
 12 13  2  0  0  0  0
 14 15  1  0  0  0  0
 15 16  2  0  0  0  0
 15 19  1  0  0  0  0
 17 18  1  0  0  0  0
 17 28  1  0  0  0  0
 18 19  2  0  0  0  0
 20 21  1  0  0  0  0
 20 28  2  0  0  0  0
 21 22  2  0  0  0  0
 21 29  1  0  0  0  0
 22 23  1  0  0  0  0
 23 24  2  0  0  0  0
 24 25  1  0  0  0  0
 25 29  2  0  0  0  0
M  END
>  <CHROM.1>
101.00684994,-156.01180142,107.74923883,-92.98246594,-94.25216821,-85.97530983
43.52543067,42.89541076,40.80654574,0.11059708,-0.64060899,-0.57525795

>  <Name>
ligand

>  <RI>
0

>  <Rbt.Current_Directory>
/home/itssahil/PROJECTS/Mol_Feturizer/New_Systems/rnas/4JIY

>  <Rbt.Executable>
rbdock ($Id: //depot/dev/client3/rdock/2013.1/src/exe/rbdock.cxx#4 $)

>  <Rbt.Library>
libRbt.so (2013.1, Build901 2013/11/27)

>  <Rbt.Parameter_File>
/export/apps/rDock/src/rDock_2013.1_src/data/scripts/dock_solv.prm

>  <Rbt.Receptor>
prm/pocket_docking_4.prm

>  <SCORE>
4.68416

>  <SCORE.INTER>
5.32605

>  <SCORE.INTER.CONST>
1

>  <SCORE.INTER.POLAR>
0

>  <SCORE.INTER.ROT>
6

>  <SCORE.INTER.SOLV>
0.735005

>  <SCORE.INTER.VDW>
-4.2943

>  <SCORE.INTER.norm>
0.183657

>  <SCORE.INTRA>
-0.659223

>  <SCORE.INTRA.DIHEDRAL>
0.511245

>  <SCORE.INTRA.DIHEDRAL.0>
7.2424

>  <SCORE.INTRA.POLAR>
0

>  <SCORE.INTRA.POLAR.0>
0

>  <SCORE.INTRA.REPUL>
0

>  <SCORE.INTRA.REPUL.0>
0

>  <SCORE.INTRA.SOLV>
-0.0170622

>  <SCORE.INTRA.SOLV.lig_0>
-3.36201

>  <SCORE.INTRA.VDW>
-0.906315

>  <SCORE.INTRA.VDW.0>
-0.910526

>  <SCORE.INTRA.norm>
-0.0227318

>  <SCORE.RESTR>
0.0173279

>  <SCORE.RESTR.CAVITY>
0.0173279

>  <SCORE.RESTR.norm>
0.000597513

>  <SCORE.SYSTEM>
0

>  <SCORE.SYSTEM.CONST>
0

>  <SCORE.SYSTEM.DIHEDRAL>
0

>  <SCORE.SYSTEM.SOLV>
0

>  <SCORE.SYSTEM.norm>
0

>  <SCORE.heavy>
29

>  <SCORE.norm>
0.161523

>  <RMSD>
3.399

$$$$
ligand
 OpenBabel11021811503D
libRbt.so/2013.1/901 2013/11/27
 29 32  0  0  0  0  0  0  0  0999 V2000
   40.6808   40.3099   38.5048 C   0  0  0  0  0  0  0  0  0  0  0  0
   49.9039   44.0248   44.9023 C   0  0  0  0  0  0  0  0  0  0  0  0
   49.7322   43.8696   46.2843 C   0  0  0  0  0  0  0  0  0  0  0  0
   48.4989   43.9055   46.8353 C   0  0  0  0  0  0  0  0  0  0  0  0
   47.4143   44.1671   46.0091 C   0  0  0  0  0  0  0  0  0  0  0  0
   47.6057   44.2570   44.6557 C   0  0  0  0  0  0  0  0  0  0  0  0
   46.5532   44.4085   43.6534 C   0  0  0  0  0  0  0  0  0  0  0  0
   45.0343   43.4344   42.1853 C   0  0  0  0  0  0  0  0  0  0  0  0
   45.4924   43.7397   40.9189 C   0  0  0  0  0  0  0  0  0  0  0  0
   44.5643   43.9335   39.8941 C   0  0  0  0  0  0  0  0  0  0  0  0
   43.2214   43.7333   40.0811 C   0  0  0  0  0  0  0  0  0  0  0  0
   42.7887   43.4126   41.3860 C   0  0  0  0  0  0  0  0  0  0  0  0
   43.6834   43.3233   42.4464 C   0  0  0  0  0  0  0  0  0  0  0  0
   42.2258   43.8016   38.9251 C   0  0  0  0  0  0  0  0  0  0  0  0
   41.2304   42.6498   38.9173 C   0  0  0  0  0  0  0  0  0  0  0  0
   41.5621   41.3787   38.5234 C   0  0  0  0  0  0  0  0  0  0  0  0
   39.4025   40.5556   38.9293 C   0  0  0  0  0  0  0  0  0  0  0  0
   39.0689   41.8078   39.3128 C   0  0  0  0  0  0  0  0  0  0  0  0
   39.9419   42.8723   39.3151 C   0  0  0  0  0  0  0  0  0  0  0  0
   38.2644   38.8978   40.0898 C   0  0  0  0  0  0  0  0  0  0  0  0
   37.3361   37.7879   40.1339 C   0  0  0  0  0  0  0  0  0  0  0  0
   35.9549   37.8805   39.9197 C   0  0  0  0  0  0  0  0  0  0  0  0
   35.2046   36.7261   40.0132 C   0  0  0  0  0  0  0  0  0  0  0  0
   35.8605   35.5346   40.2793 C   0  0  0  0  0  0  0  0  0  0  0  0
   37.2172   35.5000   40.5189 C   0  0  0  0  0  0  0  0  0  0  0  0
   48.8442   44.2160   44.0985 N   0  0  0  0  0  0  0  0  0  0  0  0
   45.9961   43.2923   43.2698 N   0  0  0  0  0  0  0  0  0  0  0  0
   38.3872   39.4974   38.9582 N   0  0  0  0  0  0  0  0  0  0  0  0
   37.9499   36.5980   40.4093 N   0  0  0  0  0  0  0  0  0  0  0  0
  1 17  2  0  0  0  0
  1 16  1  0  0  0  0
  2  3  2  0  0  0  0
  2 26  1  0  0  0  0
  3  4  1  0  0  0  0
  4  5  2  0  0  0  0
  5  6  1  0  0  0  0
  6  7  1  0  0  0  0
  6 26  2  0  0  0  0
  7 27  2  0  0  0  0
  8  9  2  0  0  0  0
  8 13  1  0  0  0  0
  8 27  1  0  0  0  0
  9 10  1  0  0  0  0
 10 11  2  0  0  0  0
 11 12  1  0  0  0  0
 11 14  1  0  0  0  0
 12 13  2  0  0  0  0
 14 15  1  0  0  0  0
 15 16  2  0  0  0  0
 15 19  1  0  0  0  0
 17 18  1  0  0  0  0
 17 28  1  0  0  0  0
 18 19  2  0  0  0  0
 20 21  1  0  0  0  0
 20 28  2  0  0  0  0
 21 22  2  0  0  0  0
 21 29  1  0  0  0  0
 22 23  1  0  0  0  0
 23 24  2  0  0  0  0
 24 25  1  0  0  0  0
 25 29  2  0  0  0  0
M  END
>  <CHROM.1>
-84.48258993,133.95834083,-75.13695020,-63.34673429,70.61381275,94.35678495
42.40848015,41.56764437,41.35409615,3.08137842,0.63723959,2.32628790

>  <Name>
ligand

>  <RI>
0

>  <Rbt.Current_Directory>
/home/itssahil/PROJECTS/Mol_Feturizer/New_Systems/rnas/4JIY

>  <Rbt.Executable>
rbdock ($Id: //depot/dev/client3/rdock/2013.1/src/exe/rbdock.cxx#4 $)

>  <Rbt.Library>
libRbt.so (2013.1, Build901 2013/11/27)

>  <Rbt.Parameter_File>
/export/apps/rDock/src/rDock_2013.1_src/data/scripts/dock_solv.prm

>  <Rbt.Receptor>
prm/pocket_docking_4.prm

>  <SCORE>
5.4603

>  <SCORE.INTER>
6.34463

>  <SCORE.INTER.CONST>
1

>  <SCORE.INTER.POLAR>
0

>  <SCORE.INTER.ROT>
6

>  <SCORE.INTER.SOLV>
0.690249

>  <SCORE.INTER.VDW>
-3.60033

>  <SCORE.INTER.norm>
0.21878

>  <SCORE.INTRA>
-0.890233

>  <SCORE.INTRA.DIHEDRAL>
0.306284

>  <SCORE.INTRA.DIHEDRAL.0>
7.2424

>  <SCORE.INTRA.POLAR>
0

>  <SCORE.INTRA.POLAR.0>
0

>  <SCORE.INTRA.REPUL>
0

>  <SCORE.INTRA.REPUL.0>
0

>  <SCORE.INTRA.SOLV>
-0.0185939

>  <SCORE.INTRA.SOLV.lig_0>
-3.36201

>  <SCORE.INTRA.VDW>
-1.03408

>  <SCORE.INTRA.VDW.0>
-0.910526

>  <SCORE.INTRA.norm>
-0.0306977

>  <SCORE.RESTR>
0.00590645

>  <SCORE.RESTR.CAVITY>
0.00590645

>  <SCORE.RESTR.norm>
0.000203671

>  <SCORE.SYSTEM>
0

>  <SCORE.SYSTEM.CONST>
0

>  <SCORE.SYSTEM.DIHEDRAL>
0

>  <SCORE.SYSTEM.SOLV>
0

>  <SCORE.SYSTEM.norm>
0

>  <SCORE.heavy>
29

>  <SCORE.norm>
0.188286

>  <RMSD>
3.402

$$$$
ligand
 OpenBabel11021811493D
libRbt.so/2013.1/901 2013/11/27
 29 32  0  0  0  0  0  0  0  0999 V2000
   45.4550   43.4101   40.8543 C   0  0  0  0  0  0  0  0  0  0  0  0
   38.0804   34.8870   40.0043 C   0  0  0  0  0  0  0  0  0  0  0  0
   36.6833   34.7945   39.9486 C   0  0  0  0  0  0  0  0  0  0  0  0
   35.9161   35.9066   39.9759 C   0  0  0  0  0  0  0  0  0  0  0  0
   36.5417   37.1365   40.1286 C   0  0  0  0  0  0  0  0  0  0  0  0
   37.9100   37.2008   40.1222 C   0  0  0  0  0  0  0  0  0  0  0  0
   38.7067   38.4253   40.1529 C   0  0  0  0  0  0  0  0  0  0  0  0
   39.4458   40.3577   39.0896 C   0  0  0  0  0  0  0  0  0  0  0  0
   39.0236   41.5356   39.6737 C   0  0  0  0  0  0  0  0  0  0  0  0
   39.8481   42.6597   39.5982 C   0  0  0  0  0  0  0  0  0  0  0  0
   41.1035   42.6059   39.0509 C   0  0  0  0  0  0  0  0  0  0  0  0
   41.5068   41.3835   38.4714 C   0  0  0  0  0  0  0  0  0  0  0  0
   40.6595   40.2818   38.4362 C   0  0  0  0  0  0  0  0  0  0  0  0
   42.0587   43.7964   39.1019 C   0  0  0  0  0  0  0  0  0  0  0  0
   43.1256   43.6680   40.1802 C   0  0  0  0  0  0  0  0  0  0  0  0
   44.4604   43.5290   39.8973 C   0  0  0  0  0  0  0  0  0  0  0  0
   45.0605   43.4550   42.1647 C   0  0  0  0  0  0  0  0  0  0  0  0
   43.7457   43.5857   42.4487 C   0  0  0  0  0  0  0  0  0  0  0  0
   42.7570   43.6875   41.4961 C   0  0  0  0  0  0  0  0  0  0  0  0
   46.8844   44.3037   43.3237 C   0  0  0  0  0  0  0  0  0  0  0  0
   47.9112   44.1859   44.3371 C   0  0  0  0  0  0  0  0  0  0  0  0
   49.2904   44.1704   44.0924 C   0  0  0  0  0  0  0  0  0  0  0  0
   50.1398   44.0353   45.1715 C   0  0  0  0  0  0  0  0  0  0  0  0
   49.5858   43.9567   46.4394 C   0  0  0  0  0  0  0  0  0  0  0  0
   48.2204   43.9393   46.6263 C   0  0  0  0  0  0  0  0  0  0  0  0
   38.6839   36.0845   40.0895 N   0  0  0  0  0  0  0  0  0  0  0  0
   38.5618   39.2004   39.1129 N   0  0  0  0  0  0  0  0  0  0  0  0
   46.0282   43.3454   43.2613 N   0  0  0  0  0  0  0  0  0  0  0  0
   47.3970   44.0913   45.6001 N   0  0  0  0  0  0  0  0  0  0  0  0
  1 17  2  0  0  0  0
  1 16  1  0  0  0  0
  2  3  2  0  0  0  0
  2 26  1  0  0  0  0
  3  4  1  0  0  0  0
  4  5  2  0  0  0  0
  5  6  1  0  0  0  0
  6  7  1  0  0  0  0
  6 26  2  0  0  0  0
  7 27  2  0  0  0  0
  8  9  2  0  0  0  0
  8 13  1  0  0  0  0
  8 27  1  0  0  0  0
  9 10  1  0  0  0  0
 10 11  2  0  0  0  0
 11 12  1  0  0  0  0
 11 14  1  0  0  0  0
 12 13  2  0  0  0  0
 14 15  1  0  0  0  0
 15 16  2  0  0  0  0
 15 19  1  0  0  0  0
 17 18  1  0  0  0  0
 17 28  1  0  0  0  0
 18 19  2  0  0  0  0
 20 21  1  0  0  0  0
 20 28  2  0  0  0  0
 21 22  2  0  0  0  0
 21 29  1  0  0  0  0
 22 23  1  0  0  0  0
 23 24  2  0  0  0  0
 24 25  1  0  0  0  0
 25 29  2  0  0  0  0
M  END
>  <CHROM.1>
-63.84159586,101.31226795,113.49675924,121.44429617,-90.06702661,63.89898101
42.57928137,41.36458805,41.34434138,0.20759672,-0.66016821,-0.62132384

>  <Name>
ligand

>  <RI>
0

>  <Rbt.Current_Directory>
/home/itssahil/PROJECTS/Mol_Feturizer/New_Systems/rnas/4JIY

>  <Rbt.Executable>
rbdock ($Id: //depot/dev/client3/rdock/2013.1/src/exe/rbdock.cxx#4 $)

>  <Rbt.Library>
libRbt.so (2013.1, Build901 2013/11/27)

>  <Rbt.Parameter_File>
/export/apps/rDock/src/rDock_2013.1_src/data/scripts/dock_solv.prm

>  <Rbt.Receptor>
prm/pocket_docking_4.prm

>  <SCORE>
5.00075

>  <SCORE.INTER>
5.87714

>  <SCORE.INTER.CONST>
1

>  <SCORE.INTER.POLAR>
0

>  <SCORE.INTER.ROT>
6

>  <SCORE.INTER.SOLV>
0.648007

>  <SCORE.INTER.VDW>
-3.89791

>  <SCORE.INTER.norm>
0.20266

>  <SCORE.INTRA>
-0.880632

>  <SCORE.INTRA.DIHEDRAL>
0.337822

>  <SCORE.INTRA.DIHEDRAL.0>
7.2424

>  <SCORE.INTRA.POLAR>
0

>  <SCORE.INTRA.POLAR.0>
0

>  <SCORE.INTRA.REPUL>
0

>  <SCORE.INTRA.REPUL.0>
0

>  <SCORE.INTRA.SOLV>
-0.0173833

>  <SCORE.INTRA.SOLV.lig_0>
-3.36201

>  <SCORE.INTRA.VDW>
-1.04085

>  <SCORE.INTRA.VDW.0>
-0.910526

>  <SCORE.INTRA.norm>
-0.0303666

>  <SCORE.RESTR>
0.00424164

>  <SCORE.RESTR.CAVITY>
0.00424164

>  <SCORE.RESTR.norm>
0.000146263

>  <SCORE.SYSTEM>
0

>  <SCORE.SYSTEM.CONST>
0

>  <SCORE.SYSTEM.DIHEDRAL>
0

>  <SCORE.SYSTEM.SOLV>
0

>  <SCORE.SYSTEM.norm>
0

>  <SCORE.heavy>
29

>  <SCORE.norm>
0.17244

>  <RMSD>
3.442

$$$$
ligand
 OpenBabel11021811503D
libRbt.so/2013.1/901 2013/11/27
 29 32  0  0  0  0  0  0  0  0999 V2000
   40.9037   40.5997   41.1224 C   0  0  0  0  0  0  0  0  0  0  0  0
   51.0331   45.1368   42.9860 C   0  0  0  0  0  0  0  0  0  0  0  0
   51.3705   44.7698   44.2956 C   0  0  0  0  0  0  0  0  0  0  0  0
   50.4660   44.1670   45.0985 C   0  0  0  0  0  0  0  0  0  0  0  0
   49.1767   43.9821   44.6180 C   0  0  0  0  0  0  0  0  0  0  0  0
   48.8922   44.2978   43.3158 C   0  0  0  0  0  0  0  0  0  0  0  0
   47.6227   44.0502   42.6357 C   0  0  0  0  0  0  0  0  0  0  0  0
   45.7120   44.8821   41.6021 C   0  0  0  0  0  0  0  0  0  0  0  0
   45.5982   44.6518   40.2453 C   0  0  0  0  0  0  0  0  0  0  0  0
   44.3267   44.4854   39.6934 C   0  0  0  0  0  0  0  0  0  0  0  0
   43.1969   44.4445   40.4681 C   0  0  0  0  0  0  0  0  0  0  0  0
   43.3506   44.6742   41.8524 C   0  0  0  0  0  0  0  0  0  0  0  0
   44.5940   44.9522   42.4088 C   0  0  0  0  0  0  0  0  0  0  0  0
   41.8261   44.1158   39.8806 C   0  0  0  0  0  0  0  0  0  0  0  0
   41.4986   42.6293   39.9084 C   0  0  0  0  0  0  0  0  0  0  0  0
   41.2057   41.9505   41.0635 C   0  0  0  0  0  0  0  0  0  0  0  0
   40.8837   39.9185   39.9349 C   0  0  0  0  0  0  0  0  0  0  0  0
   41.1776   40.5815   38.7945 C   0  0  0  0  0  0  0  0  0  0  0  0
   41.4933   41.9203   38.7399 C   0  0  0  0  0  0  0  0  0  0  0  0
   39.5098   38.1928   39.2107 C   0  0  0  0  0  0  0  0  0  0  0  0
   39.1174   36.7995   39.2054 C   0  0  0  0  0  0  0  0  0  0  0  0
   38.3376   36.1757   40.1878 C   0  0  0  0  0  0  0  0  0  0  0  0
   38.0643   34.8309   40.0427 C   0  0  0  0  0  0  0  0  0  0  0  0
   38.5458   34.1789   38.9184 C   0  0  0  0  0  0  0  0  0  0  0  0
   39.3400   34.8275   37.9976 C   0  0  0  0  0  0  0  0  0  0  0  0
   49.8013   44.8991   42.5047 N   0  0  0  0  0  0  0  0  0  0  0  0
   47.0321   45.1172   42.1710 N   0  0  0  0  0  0  0  0  0  0  0  0
   40.5703   38.4869   39.8771 N   0  0  0  0  0  0  0  0  0  0  0  0
   39.5893   36.1230   38.1154 N   0  0  0  0  0  0  0  0  0  0  0  0
  1 17  2  0  0  0  0
  1 16  1  0  0  0  0
  2  3  2  0  0  0  0
  2 26  1  0  0  0  0
  3  4  1  0  0  0  0
  4  5  2  0  0  0  0
  5  6  1  0  0  0  0
  6  7  1  0  0  0  0
  6 26  2  0  0  0  0
  7 27  2  0  0  0  0
  8  9  2  0  0  0  0
  8 13  1  0  0  0  0
  8 27  1  0  0  0  0
  9 10  1  0  0  0  0
 10 11  2  0  0  0  0
 11 12  1  0  0  0  0
 11 14  1  0  0  0  0
 12 13  2  0  0  0  0
 14 15  1  0  0  0  0
 15 16  2  0  0  0  0
 15 19  1  0  0  0  0
 17 18  1  0  0  0  0
 17 28  1  0  0  0  0
 18 19  2  0  0  0  0
 20 21  1  0  0  0  0
 20 28  2  0  0  0  0
 21 22  2  0  0  0  0
 21 29  1  0  0  0  0
 22 23  1  0  0  0  0
 23 24  2  0  0  0  0
 24 25  1  0  0  0  0
 25 29  2  0  0  0  0
M  END
>  <CHROM.1>
120.64077163,90.52824577,71.71906915,85.32653922,-93.47518206,117.35820745
43.59879411,41.58294615,40.91574709,2.52131949,0.45670284,3.04033936

>  <Name>
ligand

>  <RI>
0

>  <Rbt.Current_Directory>
/home/itssahil/PROJECTS/Mol_Feturizer/New_Systems/rnas/4JIY

>  <Rbt.Executable>
rbdock ($Id: //depot/dev/client3/rdock/2013.1/src/exe/rbdock.cxx#4 $)

>  <Rbt.Library>
libRbt.so (2013.1, Build901 2013/11/27)

>  <Rbt.Parameter_File>
/export/apps/rDock/src/rDock_2013.1_src/data/scripts/dock_solv.prm

>  <Rbt.Receptor>
prm/pocket_docking_4.prm

>  <SCORE>
4.58249

>  <SCORE.INTER>
5.28452

>  <SCORE.INTER.CONST>
1

>  <SCORE.INTER.POLAR>
0

>  <SCORE.INTER.ROT>
6

>  <SCORE.INTER.SOLV>
0.63887

>  <SCORE.INTER.VDW>
-4.28994

>  <SCORE.INTER.norm>
0.182225

>  <SCORE.INTRA>
-0.714986

>  <SCORE.INTRA.DIHEDRAL>
0.489105

>  <SCORE.INTRA.DIHEDRAL.0>
7.2424

>  <SCORE.INTRA.POLAR>
0

>  <SCORE.INTRA.POLAR.0>
0

>  <SCORE.INTRA.REPUL>
0

>  <SCORE.INTRA.REPUL.0>
0

>  <SCORE.INTRA.SOLV>
-0.0160122

>  <SCORE.INTRA.SOLV.lig_0>
-3.36201

>  <SCORE.INTRA.VDW>
-0.951532

>  <SCORE.INTRA.VDW.0>
-0.910526

>  <SCORE.INTRA.norm>
-0.0246547

>  <SCORE.RESTR>
0.0129557

>  <SCORE.RESTR.CAVITY>
0.0129557

>  <SCORE.RESTR.norm>
0.000446747

>  <SCORE.SYSTEM>
0

>  <SCORE.SYSTEM.CONST>
0

>  <SCORE.SYSTEM.DIHEDRAL>
0

>  <SCORE.SYSTEM.SOLV>
0

>  <SCORE.SYSTEM.norm>
0

>  <SCORE.heavy>
29

>  <SCORE.norm>
0.158017

>  <RMSD>
3.451

$$$$
ligand
 OpenBabel11021811503D
libRbt.so/2013.1/901 2013/11/27
 29 32  0  0  0  0  0  0  0  0999 V2000
   41.6296   41.4676   39.1119 C   0  0  0  0  0  0  0  0  0  0  0  0
   48.1562   43.8980   46.3389 C   0  0  0  0  0  0  0  0  0  0  0  0
   49.5451   44.0309   46.2090 C   0  0  0  0  0  0  0  0  0  0  0  0
   50.1162   44.1528   44.9904 C   0  0  0  0  0  0  0  0  0  0  0  0
   49.3014   44.0752   43.8690 C   0  0  0  0  0  0  0  0  0  0  0  0
   47.9428   44.0033   44.0281 C   0  0  0  0  0  0  0  0  0  0  0  0
   46.9548   44.0360   42.9519 C   0  0  0  0  0  0  0  0  0  0  0  0
   45.4290   45.2396   41.6735 C   0  0  0  0  0  0  0  0  0  0  0  0
   45.7458   45.4364   40.3440 C   0  0  0  0  0  0  0  0  0  0  0  0
   44.7128   45.5098   39.4078 C   0  0  0  0  0  0  0  0  0  0  0  0
   43.4035   45.2942   39.7506 C   0  0  0  0  0  0  0  0  0  0  0  0
   43.1162   45.0863   41.1169 C   0  0  0  0  0  0  0  0  0  0  0  0
   44.1160   45.1193   42.0825 C   0  0  0  0  0  0  0  0  0  0  0  0
   42.2944   45.2288   38.7028 C   0  0  0  0  0  0  0  0  0  0  0  0
   41.6904   43.8397   38.5494 C   0  0  0  0  0  0  0  0  0  0  0  0
   42.1565   42.7435   39.2291 C   0  0  0  0  0  0  0  0  0  0  0  0
   40.5605   41.3153   38.2701 C   0  0  0  0  0  0  0  0  0  0  0  0
   40.1013   42.3913   37.5934 C   0  0  0  0  0  0  0  0  0  0  0  0
   40.6366   43.6552   37.6988 C   0  0  0  0  0  0  0  0  0  0  0  0
   38.8661   39.8147   38.7869 C   0  0  0  0  0  0  0  0  0  0  0  0
   38.2554   38.5060   38.6878 C   0  0  0  0  0  0  0  0  0  0  0  0
   38.5114   37.4276   39.5445 C   0  0  0  0  0  0  0  0  0  0  0  0
   37.8559   36.2374   39.3037 C   0  0  0  0  0  0  0  0  0  0  0  0
   36.9562   36.1828   38.2510 C   0  0  0  0  0  0  0  0  0  0  0  0
   36.7655   37.2602   37.4131 C   0  0  0  0  0  0  0  0  0  0  0  0
   47.3656   43.8859   45.2525 N   0  0  0  0  0  0  0  0  0  0  0  0
   46.4998   45.2240   42.6607 N   0  0  0  0  0  0  0  0  0  0  0  0
   39.9186   40.0113   38.0736 N   0  0  0  0  0  0  0  0  0  0  0  0
   37.3721   38.4138   37.6488 N   0  0  0  0  0  0  0  0  0  0  0  0
  1 17  2  0  0  0  0
  1 16  1  0  0  0  0
  2  3  2  0  0  0  0
  2 26  1  0  0  0  0
  3  4  1  0  0  0  0
  4  5  2  0  0  0  0
  5  6  1  0  0  0  0
  6  7  1  0  0  0  0
  6 26  2  0  0  0  0
  7 27  2  0  0  0  0
  8  9  2  0  0  0  0
  8 13  1  0  0  0  0
  8 27  1  0  0  0  0
  9 10  1  0  0  0  0
 10 11  2  0  0  0  0
 11 12  1  0  0  0  0
 11 14  1  0  0  0  0
 12 13  2  0  0  0  0
 14 15  1  0  0  0  0
 15 16  2  0  0  0  0
 15 19  1  0  0  0  0
 17 18  1  0  0  0  0
 17 28  1  0  0  0  0
 18 19  2  0  0  0  0
 20 21  1  0  0  0  0
 20 28  2  0  0  0  0
 21 22  2  0  0  0  0
 21 29  1  0  0  0  0
 22 23  1  0  0  0  0
 23 24  2  0  0  0  0
 24 25  1  0  0  0  0
 25 29  2  0  0  0  0
M  END
>  <CHROM.1>
-92.07734860,111.67193970,-3.75556168,93.94143427,-94.47643619,97.07936897
42.95672724,42.39796260,40.60242546,2.96852954,0.69673776,2.60784145

>  <Name>
ligand

>  <RI>
0

>  <Rbt.Current_Directory>
/home/itssahil/PROJECTS/Mol_Feturizer/New_Systems/rnas/4JIY

>  <Rbt.Executable>
rbdock ($Id: //depot/dev/client3/rdock/2013.1/src/exe/rbdock.cxx#4 $)

>  <Rbt.Library>
libRbt.so (2013.1, Build901 2013/11/27)

>  <Rbt.Parameter_File>
/export/apps/rDock/src/rDock_2013.1_src/data/scripts/dock_solv.prm

>  <Rbt.Receptor>
prm/pocket_docking_4.prm

>  <SCORE>
4.43484

>  <SCORE.INTER>
5.16428

>  <SCORE.INTER.CONST>
1

>  <SCORE.INTER.POLAR>
0

>  <SCORE.INTER.ROT>
6

>  <SCORE.INTER.SOLV>
0.713906

>  <SCORE.INTER.VDW>
-4.39511

>  <SCORE.INTER.norm>
0.178079

>  <SCORE.INTRA>
-0.735677

>  <SCORE.INTRA.DIHEDRAL>
0.447065

>  <SCORE.INTRA.DIHEDRAL.0>
7.2424

>  <SCORE.INTRA.POLAR>
0

>  <SCORE.INTRA.POLAR.0>
0

>  <SCORE.INTRA.REPUL>
0

>  <SCORE.INTRA.REPUL.0>
0

>  <SCORE.INTRA.SOLV>
-0.0182029

>  <SCORE.INTRA.SOLV.lig_0>
-3.36201

>  <SCORE.INTRA.VDW>
-0.950108

>  <SCORE.INTRA.VDW.0>
-0.910526

>  <SCORE.INTRA.norm>
-0.0253682

>  <SCORE.RESTR>
0.00623163

>  <SCORE.RESTR.CAVITY>
0.00623163

>  <SCORE.RESTR.norm>
0.000214884

>  <SCORE.SYSTEM>
0

>  <SCORE.SYSTEM.CONST>
0

>  <SCORE.SYSTEM.DIHEDRAL>
0

>  <SCORE.SYSTEM.SOLV>
0

>  <SCORE.SYSTEM.norm>
0

>  <SCORE.heavy>
29

>  <SCORE.norm>
0.152925

>  <RMSD>
3.454

$$$$
ligand
 OpenBabel11021811503D
libRbt.so/2013.1/901 2013/11/27
 29 32  0  0  0  0  0  0  0  0999 V2000
   37.3585   40.9216   42.1869 C   0  0  0  0  0  0  0  0  0  0  0  0
   48.6364   43.9278   46.1390 C   0  0  0  0  0  0  0  0  0  0  0  0
   49.8250   44.0138   45.4019 C   0  0  0  0  0  0  0  0  0  0  0  0
   49.7966   44.1004   44.0537 C   0  0  0  0  0  0  0  0  0  0  0  0
   48.5664   44.0339   43.4138 C   0  0  0  0  0  0  0  0  0  0  0  0
   47.4193   44.0082   44.1620 C   0  0  0  0  0  0  0  0  0  0  0  0
   46.0567   44.0581   43.6367 C   0  0  0  0  0  0  0  0  0  0  0  0
   44.1871   42.9426   42.8171 C   0  0  0  0  0  0  0  0  0  0  0  0
   44.0803   42.6250   41.4775 C   0  0  0  0  0  0  0  0  0  0  0  0
   42.8344   42.7298   40.8564 C   0  0  0  0  0  0  0  0  0  0  0  0
   41.6971   43.0413   41.5548 C   0  0  0  0  0  0  0  0  0  0  0  0
   41.8411   43.3509   42.9245 C   0  0  0  0  0  0  0  0  0  0  0  0
   43.0878   43.3612   43.5396 C   0  0  0  0  0  0  0  0  0  0  0  0
   40.3158   43.0109   40.9041 C   0  0  0  0  0  0  0  0  0  0  0  0
   39.4618   41.8344   41.3561 C   0  0  0  0  0  0  0  0  0  0  0  0
   38.1614   41.9709   41.7701 C   0  0  0  0  0  0  0  0  0  0  0  0
   37.9131   39.6701   42.1590 C   0  0  0  0  0  0  0  0  0  0  0  0
   39.1961   39.5311   41.7576 C   0  0  0  0  0  0  0  0  0  0  0  0
   39.9976   40.5770   41.3592 C   0  0  0  0  0  0  0  0  0  0  0  0
   36.4844   37.9180   41.6307 C   0  0  0  0  0  0  0  0  0  0  0  0
   35.6513   36.7988   42.0164 C   0  0  0  0  0  0  0  0  0  0  0  0
   34.5096   36.8816   42.8239 C   0  0  0  0  0  0  0  0  0  0  0  0
   33.8327   35.7143   43.1127 C   0  0  0  0  0  0  0  0  0  0  0  0
   34.2974   34.5304   42.5621 C   0  0  0  0  0  0  0  0  0  0  0  0
   35.4472   34.4945   41.8031 C   0  0  0  0  0  0  0  0  0  0  0  0
   47.4448   43.9264   45.5180 N   0  0  0  0  0  0  0  0  0  0  0  0
   45.4965   42.8937   43.4531 N   0  0  0  0  0  0  0  0  0  0  0  0
   37.1536   38.4853   42.5718 N   0  0  0  0  0  0  0  0  0  0  0  0
   36.0914   35.6117   41.5011 N   0  0  0  0  0  0  0  0  0  0  0  0
  1 17  2  0  0  0  0
  1 16  1  0  0  0  0
  2  3  2  0  0  0  0
  2 26  1  0  0  0  0
  3  4  1  0  0  0  0
  4  5  2  0  0  0  0
  5  6  1  0  0  0  0
  6  7  1  0  0  0  0
  6 26  2  0  0  0  0
  7 27  2  0  0  0  0
  8  9  2  0  0  0  0
  8 13  1  0  0  0  0
  8 27  1  0  0  0  0
  9 10  1  0  0  0  0
 10 11  2  0  0  0  0
 11 12  1  0  0  0  0
 11 14  1  0  0  0  0
 12 13  2  0  0  0  0
 14 15  1  0  0  0  0
 15 16  2  0  0  0  0
 15 19  1  0  0  0  0
 17 18  1  0  0  0  0
 17 28  1  0  0  0  0
 18 19  2  0  0  0  0
 20 21  1  0  0  0  0
 20 28  2  0  0  0  0
 21 22  2  0  0  0  0
 21 29  1  0  0  0  0
 22 23  1  0  0  0  0
 23 24  2  0  0  0  0
 24 25  1  0  0  0  0
 25 29  2  0  0  0  0
M  END
>  <CHROM.1>
94.19379895,107.28433789,131.59529720,67.42502113,102.52373459,89.09824296
41.27117944,40.92622863,42.70744280,2.74797473,0.40503752,2.66189581

>  <Name>
ligand

>  <RI>
0

>  <Rbt.Current_Directory>
/home/itssahil/PROJECTS/Mol_Feturizer/New_Systems/rnas/4JIY

>  <Rbt.Executable>
rbdock ($Id: //depot/dev/client3/rdock/2013.1/src/exe/rbdock.cxx#4 $)

>  <Rbt.Library>
libRbt.so (2013.1, Build901 2013/11/27)

>  <Rbt.Parameter_File>
/export/apps/rDock/src/rDock_2013.1_src/data/scripts/dock_solv.prm

>  <Rbt.Receptor>
prm/pocket_docking_4.prm

>  <SCORE>
6.13476

>  <SCORE.INTER>
7.04844

>  <SCORE.INTER.CONST>
1

>  <SCORE.INTER.POLAR>
0

>  <SCORE.INTER.ROT>
6

>  <SCORE.INTER.SOLV>
0.433575

>  <SCORE.INTER.VDW>
-3.04557

>  <SCORE.INTER.norm>
0.24305

>  <SCORE.INTRA>
-0.920008

>  <SCORE.INTRA.DIHEDRAL>
0.290297

>  <SCORE.INTRA.DIHEDRAL.0>
7.2424

>  <SCORE.INTRA.POLAR>
0

>  <SCORE.INTRA.POLAR.0>
0

>  <SCORE.INTRA.REPUL>
0

>  <SCORE.INTRA.REPUL.0>
0

>  <SCORE.INTRA.SOLV>
-0.0179582

>  <SCORE.INTRA.SOLV.lig_0>
-3.36201

>  <SCORE.INTRA.VDW>
-1.05618

>  <SCORE.INTRA.VDW.0>
-0.910526

>  <SCORE.INTRA.norm>
-0.0317244

>  <SCORE.RESTR>
0.00633501

>  <SCORE.RESTR.CAVITY>
0.00633501

>  <SCORE.RESTR.norm>
0.000218449

>  <SCORE.SYSTEM>
0

>  <SCORE.SYSTEM.CONST>
0

>  <SCORE.SYSTEM.DIHEDRAL>
0

>  <SCORE.SYSTEM.SOLV>
0

>  <SCORE.SYSTEM.norm>
0

>  <SCORE.heavy>
29

>  <SCORE.norm>
0.211544

>  <RMSD>
3.517

$$$$
ligand
 OpenBabel11021811503D
libRbt.so/2013.1/901 2013/11/27
 29 32  0  0  0  0  0  0  0  0999 V2000
   45.5164   43.9955   40.5267 C   0  0  0  0  0  0  0  0  0  0  0  0
   37.5543   34.4577   39.5700 C   0  0  0  0  0  0  0  0  0  0  0  0
   37.8536   33.6539   40.6782 C   0  0  0  0  0  0  0  0  0  0  0  0
   38.5939   34.1358   41.7009 C   0  0  0  0  0  0  0  0  0  0  0  0
   39.1064   35.4217   41.5960 C   0  0  0  0  0  0  0  0  0  0  0  0
   38.7497   36.2033   40.5292 C   0  0  0  0  0  0  0  0  0  0  0  0
   39.1090   37.6073   40.3423 C   0  0  0  0  0  0  0  0  0  0  0  0
   40.7467   39.2255   40.0098 C   0  0  0  0  0  0  0  0  0  0  0  0
   40.5840   39.9087   38.8208 C   0  0  0  0  0  0  0  0  0  0  0  0
   41.0019   41.2385   38.7440 C   0  0  0  0  0  0  0  0  0  0  0  0
   41.4761   41.9165   39.8366 C   0  0  0  0  0  0  0  0  0  0  0  0
   41.6205   41.1904   41.0384 C   0  0  0  0  0  0  0  0  0  0  0  0
   41.3151   39.8359   41.1098 C   0  0  0  0  0  0  0  0  0  0  0  0
   41.7931   43.4096   39.7857 C   0  0  0  0  0  0  0  0  0  0  0  0
   43.0879   43.7760   40.4978 C   0  0  0  0  0  0  0  0  0  0  0  0
   44.3209   43.6705   39.9067 C   0  0  0  0  0  0  0  0  0  0  0  0
   45.4389   44.4691   41.8090 C   0  0  0  0  0  0  0  0  0  0  0  0
   44.2267   44.5692   42.3981 C   0  0  0  0  0  0  0  0  0  0  0  0
   43.0411   44.2304   41.7859 C   0  0  0  0  0  0  0  0  0  0  0  0
   47.5580   43.9500   42.6028 C   0  0  0  0  0  0  0  0  0  0  0  0
   48.7213   44.2537   43.4090 C   0  0  0  0  0  0  0  0  0  0  0  0
   48.8818   43.9110   44.7577 C   0  0  0  0  0  0  0  0  0  0  0  0
   50.0490   44.2893   45.3893 C   0  0  0  0  0  0  0  0  0  0  0  0
   51.0118   44.9564   44.6484 C   0  0  0  0  0  0  0  0  0  0  0  0
   50.7922   45.3037   43.3330 C   0  0  0  0  0  0  0  0  0  0  0  0
   38.0012   35.7230   39.5020 N   0  0  0  0  0  0  0  0  0  0  0  0
   40.3687   37.8205   40.0754 N   0  0  0  0  0  0  0  0  0  0  0  0
   46.6398   44.8502   42.5599 N   0  0  0  0  0  0  0  0  0  0  0  0
   49.6856   44.9256   42.7110 N   0  0  0  0  0  0  0  0  0  0  0  0
  1 17  2  0  0  0  0
  1 16  1  0  0  0  0
  2  3  2  0  0  0  0
  2 26  1  0  0  0  0
  3  4  1  0  0  0  0
  4  5  2  0  0  0  0
  5  6  1  0  0  0  0
  6  7  1  0  0  0  0
  6 26  2  0  0  0  0
  7 27  2  0  0  0  0
  8  9  2  0  0  0  0
  8 13  1  0  0  0  0
  8 27  1  0  0  0  0
  9 10  1  0  0  0  0
 10 11  2  0  0  0  0
 11 12  1  0  0  0  0
 11 14  1  0  0  0  0
 12 13  2  0  0  0  0
 14 15  1  0  0  0  0
 15 16  2  0  0  0  0
 15 19  1  0  0  0  0
 17 18  1  0  0  0  0
 17 28  1  0  0  0  0
 18 19  2  0  0  0  0
 20 21  1  0  0  0  0
 20 28  2  0  0  0  0
 21 22  2  0  0  0  0
 21 29  1  0  0  0  0
 22 23  1  0  0  0  0
 23 24  2  0  0  0  0
 24 25  1  0  0  0  0
 25 29  2  0  0  0  0
M  END
>  <CHROM.1>
70.62461481,-137.73240757,83.28768527,92.20279585,-85.70560625,-52.52837487
43.33822629,41.13842560,41.35636158,0.52676195,-0.55610546,-0.39772793

>  <Name>
ligand

>  <RI>
0

>  <Rbt.Current_Directory>
/home/itssahil/PROJECTS/Mol_Feturizer/New_Systems/rnas/4JIY

>  <Rbt.Executable>
rbdock ($Id: //depot/dev/client3/rdock/2013.1/src/exe/rbdock.cxx#4 $)

>  <Rbt.Library>
libRbt.so (2013.1, Build901 2013/11/27)

>  <Rbt.Parameter_File>
/export/apps/rDock/src/rDock_2013.1_src/data/scripts/dock_solv.prm

>  <Rbt.Receptor>
prm/pocket_docking_4.prm

>  <SCORE>
4.91528

>  <SCORE.INTER>
5.67576

>  <SCORE.INTER.CONST>
1

>  <SCORE.INTER.POLAR>
0

>  <SCORE.INTER.ROT>
6

>  <SCORE.INTER.SOLV>
0.551964

>  <SCORE.INTER.VDW>
-4.00015

>  <SCORE.INTER.norm>
0.195716

>  <SCORE.INTRA>
-0.760471

>  <SCORE.INTRA.DIHEDRAL>
0.151072

>  <SCORE.INTRA.DIHEDRAL.0>
7.2424

>  <SCORE.INTRA.POLAR>
0

>  <SCORE.INTRA.POLAR.0>
0

>  <SCORE.INTRA.REPUL>
0

>  <SCORE.INTRA.REPUL.0>
0

>  <SCORE.INTRA.SOLV>
-0.0188288

>  <SCORE.INTRA.SOLV.lig_0>
-3.36201

>  <SCORE.INTRA.VDW>
-0.826592

>  <SCORE.INTRA.VDW.0>
-0.910526

>  <SCORE.INTRA.norm>
-0.0262231

>  <SCORE.RESTR>
0

>  <SCORE.RESTR.CAVITY>
0

>  <SCORE.RESTR.norm>
0

>  <SCORE.SYSTEM>
0

>  <SCORE.SYSTEM.CONST>
0

>  <SCORE.SYSTEM.DIHEDRAL>
0

>  <SCORE.SYSTEM.SOLV>
0

>  <SCORE.SYSTEM.norm>
0

>  <SCORE.heavy>
29

>  <SCORE.norm>
0.169493

>  <RMSD>
3.548

$$$$
ligand
 OpenBabel11021811493D
libRbt.so/2013.1/901 2013/11/27
 29 32  0  0  0  0  0  0  0  0999 V2000
   40.5258   42.4578   38.5913 C   0  0  0  0  0  0  0  0  0  0  0  0
   51.8725   45.4838   43.2318 C   0  0  0  0  0  0  0  0  0  0  0  0
   51.8411   44.8547   44.4836 C   0  0  0  0  0  0  0  0  0  0  0  0
   50.7126   44.2599   44.9293 C   0  0  0  0  0  0  0  0  0  0  0  0
   49.5683   44.3460   44.1479 C   0  0  0  0  0  0  0  0  0  0  0  0
   49.6439   44.9161   42.9047 C   0  0  0  0  0  0  0  0  0  0  0  0
   48.5614   44.9723   41.9246 C   0  0  0  0  0  0  0  0  0  0  0  0
   46.3405   45.4486   41.4228 C   0  0  0  0  0  0  0  0  0  0  0  0
   45.9734   46.5971   40.7497 C   0  0  0  0  0  0  0  0  0  0  0  0
   44.8702   46.5550   39.8951 C   0  0  0  0  0  0  0  0  0  0  0  0
   44.2017   45.3891   39.6269 C   0  0  0  0  0  0  0  0  0  0  0  0
   44.6094   44.2319   40.3250 C   0  0  0  0  0  0  0  0  0  0  0  0
   45.6340   44.2733   41.2638 C   0  0  0  0  0  0  0  0  0  0  0  0
   43.0910   45.3170   38.5812 C   0  0  0  0  0  0  0  0  0  0  0  0
   41.9411   44.4044   38.9844 C   0  0  0  0  0  0  0  0  0  0  0  0
   41.5663   43.3072   38.2519 C   0  0  0  0  0  0  0  0  0  0  0  0
   39.8506   42.7392   39.7487 C   0  0  0  0  0  0  0  0  0  0  0  0
   40.2122   43.8228   40.4709 C   0  0  0  0  0  0  0  0  0  0  0  0
   41.2360   44.6750   40.1235 C   0  0  0  0  0  0  0  0  0  0  0  0
   37.5679   42.4049   40.0089 C   0  0  0  0  0  0  0  0  0  0  0  0
   36.4463   41.6524   40.5294 C   0  0  0  0  0  0  0  0  0  0  0  0
   36.0900   40.3562   40.1354 C   0  0  0  0  0  0  0  0  0  0  0  0
   34.9790   39.7825   40.7192 C   0  0  0  0  0  0  0  0  0  0  0  0
   34.2970   40.5040   41.6862 C   0  0  0  0  0  0  0  0  0  0  0  0
   34.6646   41.7912   42.0138 C   0  0  0  0  0  0  0  0  0  0  0  0
   50.7787   45.5103   42.4518 N   0  0  0  0  0  0  0  0  0  0  0  0
   47.4527   45.5042   42.3616 N   0  0  0  0  0  0  0  0  0  0  0  0
   38.7361   41.9042   40.2089 N   0  0  0  0  0  0  0  0  0  0  0  0
   35.7424   42.3425   41.4764 N   0  0  0  0  0  0  0  0  0  0  0  0
  1 17  2  0  0  0  0
  1 16  1  0  0  0  0
  2  3  2  0  0  0  0
  2 26  1  0  0  0  0
  3  4  1  0  0  0  0
  4  5  2  0  0  0  0
  5  6  1  0  0  0  0
  6  7  1  0  0  0  0
  6 26  2  0  0  0  0
  7 27  2  0  0  0  0
  8  9  2  0  0  0  0
  8 13  1  0  0  0  0
  8 27  1  0  0  0  0
  9 10  1  0  0  0  0
 10 11  2  0  0  0  0
 11 12  1  0  0  0  0
 11 14  1  0  0  0  0
 12 13  2  0  0  0  0
 14 15  1  0  0  0  0
 15 16  2  0  0  0  0
 15 19  1  0  0  0  0
 17 18  1  0  0  0  0
 17 28  1  0  0  0  0
 18 19  2  0  0  0  0
 20 21  1  0  0  0  0
 20 28  2  0  0  0  0
 21 22  2  0  0  0  0
 21 29  1  0  0  0  0
 22 23  1  0  0  0  0
 23 24  2  0  0  0  0
 24 25  1  0  0  0  0
 25 29  2  0  0  0  0
M  END
>  <CHROM.1>
54.61592692,-142.35526646,-120.12043682,-62.07934175,-104.51158831,-103.21441886
43.07168516,43.79499571,41.07507933,-3.13108975,0.31405697,2.11315815

>  <Name>
ligand

>  <RI>
0

>  <Rbt.Current_Directory>
/home/itssahil/PROJECTS/Mol_Feturizer/New_Systems/rnas/4JIY

>  <Rbt.Executable>
rbdock ($Id: //depot/dev/client3/rdock/2013.1/src/exe/rbdock.cxx#4 $)

>  <Rbt.Library>
libRbt.so (2013.1, Build901 2013/11/27)

>  <Rbt.Parameter_File>
/export/apps/rDock/src/rDock_2013.1_src/data/scripts/dock_solv.prm

>  <Rbt.Receptor>
prm/pocket_docking_4.prm

>  <SCORE>
5.09342

>  <SCORE.INTER>
6.02786

>  <SCORE.INTER.CONST>
1

>  <SCORE.INTER.POLAR>
0

>  <SCORE.INTER.ROT>
6

>  <SCORE.INTER.SOLV>
0.612071

>  <SCORE.INTER.VDW>
-3.78545

>  <SCORE.INTER.norm>
0.207857

>  <SCORE.INTRA>
-0.935749

>  <SCORE.INTRA.DIHEDRAL>
-0.12731

>  <SCORE.INTRA.DIHEDRAL.0>
7.2424

>  <SCORE.INTRA.POLAR>
0

>  <SCORE.INTRA.POLAR.0>
0

>  <SCORE.INTRA.REPUL>
0

>  <SCORE.INTRA.REPUL.0>
0

>  <SCORE.INTRA.SOLV>
-0.0201016

>  <SCORE.INTRA.SOLV.lig_0>
-3.36201

>  <SCORE.INTRA.VDW>
-0.862043

>  <SCORE.INTRA.VDW.0>
-0.910526

>  <SCORE.INTRA.norm>
-0.0322672

>  <SCORE.RESTR>
0.00130849

>  <SCORE.RESTR.CAVITY>
0.00130849

>  <SCORE.RESTR.norm>
4.51204e-05

>  <SCORE.SYSTEM>
0

>  <SCORE.SYSTEM.CONST>
0

>  <SCORE.SYSTEM.DIHEDRAL>
0

>  <SCORE.SYSTEM.SOLV>
0

>  <SCORE.SYSTEM.norm>
0

>  <SCORE.heavy>
29

>  <SCORE.norm>
0.175635

>  <RMSD>
3.634

$$$$
ligand
 OpenBabel11021811503D
libRbt.so/2013.1/901 2013/11/27
 29 32  0  0  0  0  0  0  0  0999 V2000
   46.1768   42.4163   40.9275 C   0  0  0  0  0  0  0  0  0  0  0  0
   37.6287   35.8245   40.3280 C   0  0  0  0  0  0  0  0  0  0  0  0
   36.3755   35.9865   40.9337 C   0  0  0  0  0  0  0  0  0  0  0  0
   36.0323   37.1611   41.5069 C   0  0  0  0  0  0  0  0  0  0  0  0
   36.9753   38.1795   41.5405 C   0  0  0  0  0  0  0  0  0  0  0  0
   38.1693   38.0126   40.8904 C   0  0  0  0  0  0  0  0  0  0  0  0
   39.2063   39.0305   40.7361 C   0  0  0  0  0  0  0  0  0  0  0  0
   40.0197   40.9042   39.6231 C   0  0  0  0  0  0  0  0  0  0  0  0
   41.0302   40.5560   38.7487 C   0  0  0  0  0  0  0  0  0  0  0  0
   42.0981   41.4365   38.5664 C   0  0  0  0  0  0  0  0  0  0  0  0
   42.1267   42.6763   39.1499 C   0  0  0  0  0  0  0  0  0  0  0  0
   41.0729   43.0035   40.0304 C   0  0  0  0  0  0  0  0  0  0  0  0
   40.0557   42.0991   40.3135 C   0  0  0  0  0  0  0  0  0  0  0  0
   43.2209   43.6933   38.8328 C   0  0  0  0  0  0  0  0  0  0  0  0
   44.3927   43.6411   39.8033 C   0  0  0  0  0  0  0  0  0  0  0  0
   45.1066   42.4967   40.0513 C   0  0  0  0  0  0  0  0  0  0  0  0
   46.5421   43.5717   41.5647 C   0  0  0  0  0  0  0  0  0  0  0  0
   45.8379   44.7008   41.3283 C   0  0  0  0  0  0  0  0  0  0  0  0
   44.7645   44.7751   40.4696 C   0  0  0  0  0  0  0  0  0  0  0  0
   48.6706   44.3095   42.1260 C   0  0  0  0  0  0  0  0  0  0  0  0
   49.8328   44.2951   42.9889 C   0  0  0  0  0  0  0  0  0  0  0  0
   51.1638   44.2983   42.5522 C   0  0  0  0  0  0  0  0  0  0  0  0
   52.1602   44.2667   43.5064 C   0  0  0  0  0  0  0  0  0  0  0  0
   51.7922   44.2681   44.8426 C   0  0  0  0  0  0  0  0  0  0  0  0
   50.4680   44.2282   45.2225 C   0  0  0  0  0  0  0  0  0  0  0  0
   38.5149   36.8343   40.3088 N   0  0  0  0  0  0  0  0  0  0  0  0
   38.9356   39.9614   39.8623 N   0  0  0  0  0  0  0  0  0  0  0  0
   47.6641   43.6053   42.5086 N   0  0  0  0  0  0  0  0  0  0  0  0
   49.5041   44.2812   44.3157 N   0  0  0  0  0  0  0  0  0  0  0  0
  1 17  2  0  0  0  0
  1 16  1  0  0  0  0
  2  3  2  0  0  0  0
  2 26  1  0  0  0  0
  3  4  1  0  0  0  0
  4  5  2  0  0  0  0
  5  6  1  0  0  0  0
  6  7  1  0  0  0  0
  6 26  2  0  0  0  0
  7 27  2  0  0  0  0
  8  9  2  0  0  0  0
  8 13  1  0  0  0  0
  8 27  1  0  0  0  0
  9 10  1  0  0  0  0
 10 11  2  0  0  0  0
 11 12  1  0  0  0  0
 11 14  1  0  0  0  0
 12 13  2  0  0  0  0
 14 15  1  0  0  0  0
 15 16  2  0  0  0  0
 15 19  1  0  0  0  0
 17 18  1  0  0  0  0
 17 28  1  0  0  0  0
 18 19  2  0  0  0  0
 20 21  1  0  0  0  0
 20 28  2  0  0  0  0
 21 22  2  0  0  0  0
 21 29  1  0  0  0  0
 22 23  1  0  0  0  0
 23 24  2  0  0  0  0
 24 25  1  0  0  0  0
 25 29  2  0  0  0  0
M  END
>  <CHROM.1>
-74.62126146,-93.45261551,55.50453832,142.51842462,82.02089528,113.84583767
43.63893245,41.73970211,41.15951062,0.21010300,-0.47578155,-0.71687514

>  <Name>
ligand

>  <RI>
0

>  <Rbt.Current_Directory>
/home/itssahil/PROJECTS/Mol_Feturizer/New_Systems/rnas/4JIY

>  <Rbt.Executable>
rbdock ($Id: //depot/dev/client3/rdock/2013.1/src/exe/rbdock.cxx#4 $)

>  <Rbt.Library>
libRbt.so (2013.1, Build901 2013/11/27)

>  <Rbt.Parameter_File>
/export/apps/rDock/src/rDock_2013.1_src/data/scripts/dock_solv.prm

>  <Rbt.Receptor>
prm/pocket_docking_5.prm

>  <SCORE>
-0.572141

>  <SCORE.INTER>
-0.116139

>  <SCORE.INTER.CONST>
1

>  <SCORE.INTER.POLAR>
0

>  <SCORE.INTER.ROT>
6

>  <SCORE.INTER.SOLV>
1.65713

>  <SCORE.INTER.VDW>
-8.2298

>  <SCORE.INTER.norm>
-0.0040048

>  <SCORE.INTRA>
-0.456002

>  <SCORE.INTRA.DIHEDRAL>
0.606087

>  <SCORE.INTRA.DIHEDRAL.0>
7.2424

>  <SCORE.INTRA.POLAR>
0

>  <SCORE.INTRA.POLAR.0>
0

>  <SCORE.INTRA.REPUL>
0

>  <SCORE.INTRA.REPUL.0>
0

>  <SCORE.INTRA.SOLV>
-0.014306

>  <SCORE.INTRA.SOLV.lig_0>
-3.36201

>  <SCORE.INTRA.VDW>
-0.751893

>  <SCORE.INTRA.VDW.0>
-0.910526

>  <SCORE.INTRA.norm>
-0.0157242

>  <SCORE.RESTR>
0

>  <SCORE.RESTR.CAVITY>
0

>  <SCORE.RESTR.norm>
0

>  <SCORE.SYSTEM>
0

>  <SCORE.SYSTEM.CONST>
0

>  <SCORE.SYSTEM.DIHEDRAL>
0

>  <SCORE.SYSTEM.SOLV>
0

>  <SCORE.SYSTEM.norm>
0

>  <SCORE.heavy>
29

>  <SCORE.norm>
-0.019729

>  <RMSD>
3.701

$$$$
ligand
 OpenBabel11021811503D
libRbt.so/2013.1/901 2013/11/27
 29 32  0  0  0  0  0  0  0  0999 V2000
   46.3353   42.9543   40.2123 C   0  0  0  0  0  0  0  0  0  0  0  0
   37.2010   37.7396   43.5663 C   0  0  0  0  0  0  0  0  0  0  0  0
   36.9801   36.5371   42.8817 C   0  0  0  0  0  0  0  0  0  0  0  0
   37.6028   36.2856   41.7091 C   0  0  0  0  0  0  0  0  0  0  0  0
   38.4125   37.2743   41.1666 C   0  0  0  0  0  0  0  0  0  0  0  0
   38.6552   38.4148   41.8853 C   0  0  0  0  0  0  0  0  0  0  0  0
   39.5738   39.4850   41.5029 C   0  0  0  0  0  0  0  0  0  0  0  0
   40.1680   41.1762   40.0204 C   0  0  0  0  0  0  0  0  0  0  0  0
   41.1424   40.7918   39.1206 C   0  0  0  0  0  0  0  0  0  0  0  0
   42.1089   41.7221   38.7342 C   0  0  0  0  0  0  0  0  0  0  0  0
   42.0637   43.0300   39.1413 C   0  0  0  0  0  0  0  0  0  0  0  0
   41.0487   43.3910   40.0535 C   0  0  0  0  0  0  0  0  0  0  0  0
   40.1418   42.4554   40.5385 C   0  0  0  0  0  0  0  0  0  0  0  0
   43.0343   44.0781   38.6012 C   0  0  0  0  0  0  0  0  0  0  0  0
   44.3693   44.0979   39.3327 C   0  0  0  0  0  0  0  0  0  0  0  0
   45.1181   42.9698   39.5510 C   0  0  0  0  0  0  0  0  0  0  0  0
   46.8144   44.1586   40.6536 C   0  0  0  0  0  0  0  0  0  0  0  0
   46.0775   45.2723   40.4463 C   0  0  0  0  0  0  0  0  0  0  0  0
   44.8603   45.2835   39.8032 C   0  0  0  0  0  0  0  0  0  0  0  0
   48.0619   43.9010   42.5946 C   0  0  0  0  0  0  0  0  0  0  0  0
   49.2847   44.0730   43.3500 C   0  0  0  0  0  0  0  0  0  0  0  0
   49.3707   44.1282   44.7471 C   0  0  0  0  0  0  0  0  0  0  0  0
   50.6151   44.3130   45.3142 C   0  0  0  0  0  0  0  0  0  0  0  0
   51.7146   44.3997   44.4749 C   0  0  0  0  0  0  0  0  0  0  0  0
   51.5748   44.3765   43.1041 C   0  0  0  0  0  0  0  0  0  0  0  0
   38.0344   38.6679   43.0671 N   0  0  0  0  0  0  0  0  0  0  0  0
   39.1951   40.1911   40.4727 N   0  0  0  0  0  0  0  0  0  0  0  0
   48.0955   44.2621   41.3602 N   0  0  0  0  0  0  0  0  0  0  0  0
   50.3883   44.1768   42.5502 N   0  0  0  0  0  0  0  0  0  0  0  0
  1 17  2  0  0  0  0
  1 16  1  0  0  0  0
  2  3  2  0  0  0  0
  2 26  1  0  0  0  0
  3  4  1  0  0  0  0
  4  5  2  0  0  0  0
  5  6  1  0  0  0  0
  6  7  1  0  0  0  0
  6 26  2  0  0  0  0
  7 27  2  0  0  0  0
  8  9  2  0  0  0  0
  8 13  1  0  0  0  0
  8 27  1  0  0  0  0
  9 10  1  0  0  0  0
 10 11  2  0  0  0  0
 11 12  1  0  0  0  0
 11 14  1  0  0  0  0
 12 13  2  0  0  0  0
 14 15  1  0  0  0  0
 15 16  2  0  0  0  0
 15 19  1  0  0  0  0
 17 18  1  0  0  0  0
 17 28  1  0  0  0  0
 18 19  2  0  0  0  0
 20 21  1  0  0  0  0
 20 28  2  0  0  0  0
 21 22  2  0  0  0  0
 21 29  1  0  0  0  0
 22 23  1  0  0  0  0
 23 24  2  0  0  0  0
 24 25  1  0  0  0  0
 25 29  2  0  0  0  0
M  END
>  <CHROM.1>
69.29016625,-83.86049856,50.51456648,160.02457866,86.85513576,-77.59666839
43.72677020,42.05958185,41.37674942,0.20821513,-0.44641001,-0.90129556

>  <Name>
ligand

>  <RI>
0

>  <Rbt.Current_Directory>
/home/itssahil/PROJECTS/Mol_Feturizer/New_Systems/rnas/4JIY

>  <Rbt.Executable>
rbdock ($Id: //depot/dev/client3/rdock/2013.1/src/exe/rbdock.cxx#4 $)

>  <Rbt.Library>
libRbt.so (2013.1, Build901 2013/11/27)

>  <Rbt.Parameter_File>
/export/apps/rDock/src/rDock_2013.1_src/data/scripts/dock_solv.prm

>  <Rbt.Receptor>
prm/pocket_docking_5.prm

>  <SCORE>
-1.02103

>  <SCORE.INTER>
-0.514206

>  <SCORE.INTER.CONST>
1

>  <SCORE.INTER.POLAR>
0

>  <SCORE.INTER.ROT>
6

>  <SCORE.INTER.SOLV>
1.86672

>  <SCORE.INTER.VDW>
-8.56504

>  <SCORE.INTER.norm>
-0.0177313

>  <SCORE.INTRA>
-0.506823

>  <SCORE.INTRA.DIHEDRAL>
0.371655

>  <SCORE.INTRA.DIHEDRAL.0>
7.2424

>  <SCORE.INTRA.POLAR>
0

>  <SCORE.INTRA.POLAR.0>
0

>  <SCORE.INTRA.REPUL>
0

>  <SCORE.INTRA.REPUL.0>
0

>  <SCORE.INTRA.SOLV>
-0.0105002

>  <SCORE.INTRA.SOLV.lig_0>
-3.36201

>  <SCORE.INTRA.VDW>
-0.687401

>  <SCORE.INTRA.VDW.0>
-0.910526

>  <SCORE.INTRA.norm>
-0.0174767

>  <SCORE.RESTR>
0

>  <SCORE.RESTR.CAVITY>
0

>  <SCORE.RESTR.norm>
0

>  <SCORE.SYSTEM>
0

>  <SCORE.SYSTEM.CONST>
0

>  <SCORE.SYSTEM.DIHEDRAL>
0

>  <SCORE.SYSTEM.SOLV>
0

>  <SCORE.SYSTEM.norm>
0

>  <SCORE.heavy>
29

>  <SCORE.norm>
-0.0352079

>  <RMSD>
3.769

$$$$
ligand
 OpenBabel11021811503D
libRbt.so/2013.1/901 2013/11/27
 29 32  0  0  0  0  0  0  0  0999 V2000
   46.5531   42.9802   40.2167 C   0  0  0  0  0  0  0  0  0  0  0  0
   36.2758   37.3045   40.8269 C   0  0  0  0  0  0  0  0  0  0  0  0
   36.7119   36.0726   41.3328 C   0  0  0  0  0  0  0  0  0  0  0  0
   38.0222   35.7429   41.3129 C   0  0  0  0  0  0  0  0  0  0  0  0
   38.9155   36.6238   40.7185 C   0  0  0  0  0  0  0  0  0  0  0  0
   38.4693   37.8442   40.2851 C   0  0  0  0  0  0  0  0  0  0  0  0
   39.3048   38.9178   39.7516 C   0  0  0  0  0  0  0  0  0  0  0  0
   40.9393   40.5375   40.0927 C   0  0  0  0  0  0  0  0  0  0  0  0
   40.5211   41.8074   40.4380 C   0  0  0  0  0  0  0  0  0  0  0  0
   41.2039   42.9078   39.9165 C   0  0  0  0  0  0  0  0  0  0  0  0
   42.3344   42.7683   39.1543 C   0  0  0  0  0  0  0  0  0  0  0  0
   42.7393   41.4559   38.8283 C   0  0  0  0  0  0  0  0  0  0  0  0
   42.0113   40.3468   39.2441 C   0  0  0  0  0  0  0  0  0  0  0  0
   43.1621   43.9720   38.7091 C   0  0  0  0  0  0  0  0  0  0  0  0
   44.5262   44.0478   39.3808 C   0  0  0  0  0  0  0  0  0  0  0  0
   45.3088   42.9449   39.6087 C   0  0  0  0  0  0  0  0  0  0  0  0
   47.0233   44.2103   40.5913 C   0  0  0  0  0  0  0  0  0  0  0  0
   46.2534   45.2996   40.3744 C   0  0  0  0  0  0  0  0  0  0  0  0
   45.0100   45.2606   39.7848 C   0  0  0  0  0  0  0  0  0  0  0  0
   48.3942   43.9227   42.4428 C   0  0  0  0  0  0  0  0  0  0  0  0
   49.6410   44.1402   43.1454 C   0  0  0  0  0  0  0  0  0  0  0  0
   50.8940   44.2957   42.5388 C   0  0  0  0  0  0  0  0  0  0  0  0
   51.9918   44.4803   43.3544 C   0  0  0  0  0  0  0  0  0  0  0  0
   51.7917   44.5359   44.7247 C   0  0  0  0  0  0  0  0  0  0  0  0
   50.5440   44.3406   45.2764 C   0  0  0  0  0  0  0  0  0  0  0  0
   37.1531   38.1805   40.3087 N   0  0  0  0  0  0  0  0  0  0  0  0
   40.1918   39.3886   40.5853 N   0  0  0  0  0  0  0  0  0  0  0  0
   48.3306   44.3677   41.2373 N   0  0  0  0  0  0  0  0  0  0  0  0
   49.4806   44.1855   44.5021 N   0  0  0  0  0  0  0  0  0  0  0  0
  1 17  2  0  0  0  0
  1 16  1  0  0  0  0
  2  3  2  0  0  0  0
  2 26  1  0  0  0  0
  3  4  1  0  0  0  0
  4  5  2  0  0  0  0
  5  6  1  0  0  0  0
  6  7  1  0  0  0  0
  6 26  2  0  0  0  0
  7 27  2  0  0  0  0
  8  9  2  0  0  0  0
  8 13  1  0  0  0  0
  8 27  1  0  0  0  0
  9 10  1  0  0  0  0
 10 11  2  0  0  0  0
 11 12  1  0  0  0  0
 11 14  1  0  0  0  0
 12 13  2  0  0  0  0
 14 15  1  0  0  0  0
 15 16  2  0  0  0  0
 15 19  1  0  0  0  0
 17 18  1  0  0  0  0
 17 28  1  0  0  0  0
 18 19  2  0  0  0  0
 20 21  1  0  0  0  0
 20 28  2  0  0  0  0
 21 22  2  0  0  0  0
 21 29  1  0  0  0  0
 22 23  1  0  0  0  0
 23 24  2  0  0  0  0
 24 25  1  0  0  0  0
 25 29  2  0  0  0  0
M  END
>  <CHROM.1>
-61.85020033,110.98314852,40.11976564,-26.06445442,96.00472672,-70.60721515
43.91308169,41.82681395,40.99177223,0.23608322,-0.49587826,-0.74171035

>  <Name>
ligand

>  <RI>
0

>  <Rbt.Current_Directory>
/home/itssahil/PROJECTS/Mol_Feturizer/New_Systems/rnas/4JIY

>  <Rbt.Executable>
rbdock ($Id: //depot/dev/client3/rdock/2013.1/src/exe/rbdock.cxx#4 $)

>  <Rbt.Library>
libRbt.so (2013.1, Build901 2013/11/27)

>  <Rbt.Parameter_File>
/export/apps/rDock/src/rDock_2013.1_src/data/scripts/dock_solv.prm

>  <Rbt.Receptor>
prm/pocket_docking_5.prm

>  <SCORE>
-1.31983

>  <SCORE.INTER>
-0.721634

>  <SCORE.INTER.CONST>
1

>  <SCORE.INTER.POLAR>
0

>  <SCORE.INTER.ROT>
6

>  <SCORE.INTER.SOLV>
1.94264

>  <SCORE.INTER.VDW>
-8.72864

>  <SCORE.INTER.norm>
-0.0248839

>  <SCORE.INTRA>
-0.609261

>  <SCORE.INTRA.DIHEDRAL>
0.327291

>  <SCORE.INTRA.DIHEDRAL.0>
7.2424

>  <SCORE.INTRA.POLAR>
0

>  <SCORE.INTRA.POLAR.0>
0

>  <SCORE.INTRA.REPUL>
0

>  <SCORE.INTRA.REPUL.0>
0

>  <SCORE.INTRA.SOLV>
-0.01917

>  <SCORE.INTRA.SOLV.lig_0>
-3.36201

>  <SCORE.INTRA.VDW>
-0.763321

>  <SCORE.INTRA.VDW.0>
-0.910526

>  <SCORE.INTRA.norm>
-0.021009

>  <SCORE.RESTR>
0.0110652

>  <SCORE.RESTR.CAVITY>
0.0110652

>  <SCORE.RESTR.norm>
0.000381557

>  <SCORE.SYSTEM>
0

>  <SCORE.SYSTEM.CONST>
0

>  <SCORE.SYSTEM.DIHEDRAL>
0

>  <SCORE.SYSTEM.SOLV>
0

>  <SCORE.SYSTEM.norm>
0

>  <SCORE.heavy>
29

>  <SCORE.norm>
-0.0455114

>  <RMSD>
3.903

$$$$
ligand
 OpenBabel11021811503D
libRbt.so/2013.1/901 2013/11/27
 29 32  0  0  0  0  0  0  0  0999 V2000
   40.6207   42.4603   41.0593 C   0  0  0  0  0  0  0  0  0  0  0  0
   50.4712   44.2692   45.4333 C   0  0  0  0  0  0  0  0  0  0  0  0
   51.7379   44.4796   44.8723 C   0  0  0  0  0  0  0  0  0  0  0  0
   51.9047   44.4993   43.5315 C   0  0  0  0  0  0  0  0  0  0  0  0
   50.8046   44.2388   42.7257 C   0  0  0  0  0  0  0  0  0  0  0  0
   49.5693   44.0941   43.2996 C   0  0  0  0  0  0  0  0  0  0  0  0
   48.3074   43.9364   42.5800 C   0  0  0  0  0  0  0  0  0  0  0  0
   47.0314   44.3180   40.6728 C   0  0  0  0  0  0  0  0  0  0  0  0
   46.5304   43.0963   40.2687 C   0  0  0  0  0  0  0  0  0  0  0  0
   45.3222   43.0600   39.5702 C   0  0  0  0  0  0  0  0  0  0  0  0
   44.5692   44.1857   39.3599 C   0  0  0  0  0  0  0  0  0  0  0  0
   45.1068   45.4165   39.7945 C   0  0  0  0  0  0  0  0  0  0  0  0
   46.3591   45.4909   40.3936 C   0  0  0  0  0  0  0  0  0  0  0  0
   43.1808   44.1222   38.7270 C   0  0  0  0  0  0  0  0  0  0  0  0
   42.2687   43.0903   39.3758 C   0  0  0  0  0  0  0  0  0  0  0  0
   41.4612   43.3757   40.4469 C   0  0  0  0  0  0  0  0  0  0  0  0
   40.5955   41.1963   40.5335 C   0  0  0  0  0  0  0  0  0  0  0  0
   41.3939   40.9084   39.4818 C   0  0  0  0  0  0  0  0  0  0  0  0
   42.2405   41.8151   38.8848 C   0  0  0  0  0  0  0  0  0  0  0  0
   40.2651   39.4816   42.0635 C   0  0  0  0  0  0  0  0  0  0  0  0
   39.4855   38.3800   42.5869 C   0  0  0  0  0  0  0  0  0  0  0  0
   39.2988   37.1469   41.9490 C   0  0  0  0  0  0  0  0  0  0  0  0
   38.5109   36.2038   42.5767 C   0  0  0  0  0  0  0  0  0  0  0  0
   37.9758   36.5135   43.8172 C   0  0  0  0  0  0  0  0  0  0  0  0
   38.1578   37.7547   44.3878 C   0  0  0  0  0  0  0  0  0  0  0  0
   49.3979   44.0792   44.6474 N   0  0  0  0  0  0  0  0  0  0  0  0
   48.3214   44.3651   41.3474 N   0  0  0  0  0  0  0  0  0  0  0  0
   39.7384   40.1481   41.0972 N   0  0  0  0  0  0  0  0  0  0  0  0
   38.9307   38.6586   43.8047 N   0  0  0  0  0  0  0  0  0  0  0  0
  1 17  2  0  0  0  0
  1 16  1  0  0  0  0
  2  3  2  0  0  0  0
  2 26  1  0  0  0  0
  3  4  1  0  0  0  0
  4  5  2  0  0  0  0
  5  6  1  0  0  0  0
  6  7  1  0  0  0  0
  6 26  2  0  0  0  0
  7 27  2  0  0  0  0
  8  9  2  0  0  0  0
  8 13  1  0  0  0  0
  8 27  1  0  0  0  0
  9 10  1  0  0  0  0
 10 11  2  0  0  0  0
 11 12  1  0  0  0  0
 11 14  1  0  0  0  0
 12 13  2  0  0  0  0
 14 15  1  0  0  0  0
 15 16  2  0  0  0  0
 15 19  1  0  0  0  0
 17 18  1  0  0  0  0
 17 28  1  0  0  0  0
 18 19  2  0  0  0  0
 20 21  1  0  0  0  0
 20 28  2  0  0  0  0
 21 22  2  0  0  0  0
 21 29  1  0  0  0  0
 22 23  1  0  0  0  0
 23 24  2  0  0  0  0
 24 25  1  0  0  0  0
 25 29  2  0  0  0  0
M  END
>  <CHROM.1>
-21.46069895,49.83219818,89.04836197,74.32583373,-73.87595066,-87.24322533
44.11776312,42.09890331,41.70916669,2.87963347,0.44762423,2.23627594

>  <Name>
ligand

>  <RI>
0

>  <Rbt.Current_Directory>
/home/itssahil/PROJECTS/Mol_Feturizer/New_Systems/rnas/4JIY

>  <Rbt.Executable>
rbdock ($Id: //depot/dev/client3/rdock/2013.1/src/exe/rbdock.cxx#4 $)

>  <Rbt.Library>
libRbt.so (2013.1, Build901 2013/11/27)

>  <Rbt.Parameter_File>
/export/apps/rDock/src/rDock_2013.1_src/data/scripts/dock_solv.prm

>  <Rbt.Receptor>
prm/pocket_docking_5.prm

>  <SCORE>
-0.884687

>  <SCORE.INTER>
-0.210516

>  <SCORE.INTER.CONST>
1

>  <SCORE.INTER.POLAR>
0

>  <SCORE.INTER.ROT>
6

>  <SCORE.INTER.SOLV>
1.88837

>  <SCORE.INTER.VDW>
-8.3698

>  <SCORE.INTER.norm>
-0.00725917

>  <SCORE.INTRA>
-0.675628

>  <SCORE.INTRA.DIHEDRAL>
0.467577

>  <SCORE.INTRA.DIHEDRAL.0>
7.2424

>  <SCORE.INTRA.POLAR>
0

>  <SCORE.INTRA.POLAR.0>
0

>  <SCORE.INTRA.REPUL>
0

>  <SCORE.INTRA.REPUL.0>
0

>  <SCORE.INTRA.SOLV>
-0.0200086

>  <SCORE.INTRA.SOLV.lig_0>
-3.36201

>  <SCORE.INTRA.VDW>
-0.899412

>  <SCORE.INTRA.VDW.0>
-0.910526

>  <SCORE.INTRA.norm>
-0.0232975

>  <SCORE.RESTR>
0.00145702

>  <SCORE.RESTR.CAVITY>
0.00145702

>  <SCORE.RESTR.norm>
5.02422e-05

>  <SCORE.SYSTEM>
0

>  <SCORE.SYSTEM.CONST>
0

>  <SCORE.SYSTEM.DIHEDRAL>
0

>  <SCORE.SYSTEM.SOLV>
0

>  <SCORE.SYSTEM.norm>
0

>  <SCORE.heavy>
29

>  <SCORE.norm>
-0.0305065

>  <RMSD>
3.946

$$$$
ligand
 OpenBabel11021811503D
libRbt.so/2013.1/901 2013/11/27
 29 32  0  0  0  0  0  0  0  0999 V2000
   42.1808   40.4679   40.7406 C   0  0  0  0  0  0  0  0  0  0  0  0
   51.9595   44.5267   42.6363 C   0  0  0  0  0  0  0  0  0  0  0  0
   52.2155   44.6776   44.0058 C   0  0  0  0  0  0  0  0  0  0  0  0
   51.2069   44.6447   44.9045 C   0  0  0  0  0  0  0  0  0  0  0  0
   49.9065   44.5259   44.4331 C   0  0  0  0  0  0  0  0  0  0  0  0
   49.6915   44.3223   43.0957 C   0  0  0  0  0  0  0  0  0  0  0  0
   48.3972   44.0615   42.4696 C   0  0  0  0  0  0  0  0  0  0  0  0
   46.9993   44.2369   40.6186 C   0  0  0  0  0  0  0  0  0  0  0  0
   46.5838   42.9854   40.2087 C   0  0  0  0  0  0  0  0  0  0  0  0
   45.3384   42.8565   39.5911 C   0  0  0  0  0  0  0  0  0  0  0  0
   44.4743   43.9132   39.4683 C   0  0  0  0  0  0  0  0  0  0  0  0
   44.9274   45.1763   39.9065 C   0  0  0  0  0  0  0  0  0  0  0  0
   46.2063   45.3499   40.4233 C   0  0  0  0  0  0  0  0  0  0  0  0
   43.0569   43.7389   38.9272 C   0  0  0  0  0  0  0  0  0  0  0  0
   42.4493   42.3816   39.2531 C   0  0  0  0  0  0  0  0  0  0  0  0
   42.7169   41.7031   40.4145 C   0  0  0  0  0  0  0  0  0  0  0  0
   41.3139   39.9126   39.8380 C   0  0  0  0  0  0  0  0  0  0  0  0
   41.0516   40.5745   38.6893 C   0  0  0  0  0  0  0  0  0  0  0  0
   41.5979   41.7943   38.3597 C   0  0  0  0  0  0  0  0  0  0  0  0
   39.6226   38.6545   40.8112 C   0  0  0  0  0  0  0  0  0  0  0  0
   39.0207   37.3821   41.1487 C   0  0  0  0  0  0  0  0  0  0  0  0
   38.9444   36.2727   40.2968 C   0  0  0  0  0  0  0  0  0  0  0  0
   38.3217   35.1346   40.7671 C   0  0  0  0  0  0  0  0  0  0  0  0
   37.8367   35.1384   42.0655 C   0  0  0  0  0  0  0  0  0  0  0  0
   37.9029   36.2673   42.8531 C   0  0  0  0  0  0  0  0  0  0  0  0
   50.7043   44.3497   42.1904 N   0  0  0  0  0  0  0  0  0  0  0  0
   48.3233   44.3846   41.2073 N   0  0  0  0  0  0  0  0  0  0  0  0
   40.6817   38.6119   40.0820 N   0  0  0  0  0  0  0  0  0  0  0  0
   38.5185   37.3571   42.4198 N   0  0  0  0  0  0  0  0  0  0  0  0
  1 17  2  0  0  0  0
  1 16  1  0  0  0  0
  2  3  2  0  0  0  0
  2 26  1  0  0  0  0
  3  4  1  0  0  0  0
  4  5  2  0  0  0  0
  5  6  1  0  0  0  0
  6  7  1  0  0  0  0
  6 26  2  0  0  0  0
  7 27  2  0  0  0  0
  8  9  2  0  0  0  0
  8 13  1  0  0  0  0
  8 27  1  0  0  0  0
  9 10  1  0  0  0  0
 10 11  2  0  0  0  0
 11 12  1  0  0  0  0
 11 14  1  0  0  0  0
 12 13  2  0  0  0  0
 14 15  1  0  0  0  0
 15 16  2  0  0  0  0
 15 19  1  0  0  0  0
 17 18  1  0  0  0  0
 17 28  1  0  0  0  0
 18 19  2  0  0  0  0
 20 21  1  0  0  0  0
 20 28  2  0  0  0  0
 21 22  2  0  0  0  0
 21 29  1  0  0  0  0
 22 23  1  0  0  0  0
 23 24  2  0  0  0  0
 24 25  1  0  0  0  0
 25 29  2  0  0  0  0
M  END
>  <CHROM.1>
155.62666481,31.46614295,33.72460497,-37.12409086,-81.11071232,83.66897725
44.21214005,41.56797777,41.09670249,2.82010018,0.52195693,2.37913754

>  <Name>
ligand

>  <RI>
0

>  <Rbt.Current_Directory>
/home/itssahil/PROJECTS/Mol_Feturizer/New_Systems/rnas/4JIY

>  <Rbt.Executable>
rbdock ($Id: //depot/dev/client3/rdock/2013.1/src/exe/rbdock.cxx#4 $)

>  <Rbt.Library>
libRbt.so (2013.1, Build901 2013/11/27)

>  <Rbt.Parameter_File>
/export/apps/rDock/src/rDock_2013.1_src/data/scripts/dock_solv.prm

>  <Rbt.Receptor>
prm/pocket_docking_5.prm

>  <SCORE>
-0.840153

>  <SCORE.INTER>
-0.743631

>  <SCORE.INTER.CONST>
1

>  <SCORE.INTER.POLAR>
0

>  <SCORE.INTER.ROT>
6

>  <SCORE.INTER.SOLV>
1.68823

>  <SCORE.INTER.VDW>
-8.6585

>  <SCORE.INTER.norm>
-0.0256424

>  <SCORE.INTRA>
-0.096522

>  <SCORE.INTRA.DIHEDRAL>
0.404802

>  <SCORE.INTRA.DIHEDRAL.0>
7.2424

>  <SCORE.INTRA.POLAR>
0

>  <SCORE.INTRA.POLAR.0>
0

>  <SCORE.INTRA.REPUL>
0

>  <SCORE.INTRA.REPUL.0>
0

>  <SCORE.INTRA.SOLV>
-0.0120216

>  <SCORE.INTRA.SOLV.lig_0>
-3.36201

>  <SCORE.INTRA.VDW>
-0.292912

>  <SCORE.INTRA.VDW.0>
-0.910526

>  <SCORE.INTRA.norm>
-0.00332834

>  <SCORE.RESTR>
0

>  <SCORE.RESTR.CAVITY>
0

>  <SCORE.RESTR.norm>
0

>  <SCORE.SYSTEM>
0

>  <SCORE.SYSTEM.CONST>
0

>  <SCORE.SYSTEM.DIHEDRAL>
0

>  <SCORE.SYSTEM.SOLV>
0

>  <SCORE.SYSTEM.norm>
0

>  <SCORE.heavy>
29

>  <SCORE.norm>
-0.0289708

>  <RMSD>
4.039

$$$$
ligand
 OpenBabel11021811503D
libRbt.so/2013.1/901 2013/11/27
 29 32  0  0  0  0  0  0  0  0999 V2000
   39.6015   40.9907   40.9406 C   0  0  0  0  0  0  0  0  0  0  0  0
   51.4275   44.3799   43.1251 C   0  0  0  0  0  0  0  0  0  0  0  0
   51.4605   44.5878   44.5105 C   0  0  0  0  0  0  0  0  0  0  0  0
   50.3170   44.6346   45.2291 C   0  0  0  0  0  0  0  0  0  0  0  0
   49.1082   44.5399   44.5528 C   0  0  0  0  0  0  0  0  0  0  0  0
   49.1082   44.2795   43.2080 C   0  0  0  0  0  0  0  0  0  0  0  0
   47.9248   44.0352   42.3863 C   0  0  0  0  0  0  0  0  0  0  0  0
   46.2131   42.6083   41.7190 C   0  0  0  0  0  0  0  0  0  0  0  0
   45.1366   41.8847   42.1928 C   0  0  0  0  0  0  0  0  0  0  0  0
   44.1063   41.5525   41.3112 C   0  0  0  0  0  0  0  0  0  0  0  0
   44.0810   42.0052   40.0179 C   0  0  0  0  0  0  0  0  0  0  0  0
   45.1929   42.7504   39.5693 C   0  0  0  0  0  0  0  0  0  0  0  0
   46.2819   42.9994   40.3969 C   0  0  0  0  0  0  0  0  0  0  0  0
   42.8837   41.7644   39.1010 C   0  0  0  0  0  0  0  0  0  0  0  0
   41.7457   41.0143   39.7792 C   0  0  0  0  0  0  0  0  0  0  0  0
   40.6525   41.6437   40.3176 C   0  0  0  0  0  0  0  0  0  0  0  0
   39.6686   39.6243   40.9962 C   0  0  0  0  0  0  0  0  0  0  0  0
   40.7466   38.9998   40.4725 C   0  0  0  0  0  0  0  0  0  0  0  0
   41.7979   39.6515   39.8681 C   0  0  0  0  0  0  0  0  0  0  0  0
   37.6274   38.5276   40.8514 C   0  0  0  0  0  0  0  0  0  0  0  0
   36.5203   37.8204   41.4593 C   0  0  0  0  0  0  0  0  0  0  0  0
   35.5838   38.3848   42.3349 C   0  0  0  0  0  0  0  0  0  0  0  0
   34.5940   37.5675   42.8417 C   0  0  0  0  0  0  0  0  0  0  0  0
   34.5593   36.2440   42.4318 C   0  0  0  0  0  0  0  0  0  0  0  0
   35.5253   35.7256   41.5967 C   0  0  0  0  0  0  0  0  0  0  0  0
   50.2567   44.2267   42.4840 N   0  0  0  0  0  0  0  0  0  0  0  0
   47.3183   42.9036   42.6206 N   0  0  0  0  0  0  0  0  0  0  0  0
   38.6093   38.8293   41.6262 N   0  0  0  0  0  0  0  0  0  0  0  0
   36.4659   36.5064   41.0867 N   0  0  0  0  0  0  0  0  0  0  0  0
  1 17  2  0  0  0  0
  1 16  1  0  0  0  0
  2  3  2  0  0  0  0
  2 26  1  0  0  0  0
  3  4  1  0  0  0  0
  4  5  2  0  0  0  0
  5  6  1  0  0  0  0
  6  7  1  0  0  0  0
  6 26  2  0  0  0  0
  7 27  2  0  0  0  0
  8  9  2  0  0  0  0
  8 13  1  0  0  0  0
  8 27  1  0  0  0  0
  9 10  1  0  0  0  0
 10 11  2  0  0  0  0
 11 12  1  0  0  0  0
 11 14  1  0  0  0  0
 12 13  2  0  0  0  0
 14 15  1  0  0  0  0
 15 16  2  0  0  0  0
 15 19  1  0  0  0  0
 17 18  1  0  0  0  0
 17 28  1  0  0  0  0
 18 19  2  0  0  0  0
 20 21  1  0  0  0  0
 20 28  2  0  0  0  0
 21 22  2  0  0  0  0
 21 29  1  0  0  0  0
 22 23  1  0  0  0  0
 23 24  2  0  0  0  0
 24 25  1  0  0  0  0
 25 29  2  0  0  0  0
M  END
>  <CHROM.1>
-69.59271592,1.25319468,97.54187724,72.68891001,-148.25303543,86.49724860
42.91886178,41.05342656,41.68155206,-3.11193352,0.47385690,1.74585477

>  <Name>
ligand

>  <RI>
0

>  <Rbt.Current_Directory>
/home/itssahil/PROJECTS/Mol_Feturizer/New_Systems/rnas/4JIY

>  <Rbt.Executable>
rbdock ($Id: //depot/dev/client3/rdock/2013.1/src/exe/rbdock.cxx#4 $)

>  <Rbt.Library>
libRbt.so (2013.1, Build901 2013/11/27)

>  <Rbt.Parameter_File>
/export/apps/rDock/src/rDock_2013.1_src/data/scripts/dock_solv.prm

>  <Rbt.Receptor>
prm/pocket_docking_5.prm

>  <SCORE>
-1.51749

>  <SCORE.INTER>
-1.46009

>  <SCORE.INTER.CONST>
1

>  <SCORE.INTER.POLAR>
0

>  <SCORE.INTER.ROT>
6

>  <SCORE.INTER.SOLV>
1.63139

>  <SCORE.INTER.VDW>
-9.11719

>  <SCORE.INTER.norm>
-0.0503479

>  <SCORE.INTRA>
-0.0574044

>  <SCORE.INTRA.DIHEDRAL>
0.14352

>  <SCORE.INTRA.DIHEDRAL.0>
7.2424

>  <SCORE.INTRA.POLAR>
0

>  <SCORE.INTRA.POLAR.0>
0

>  <SCORE.INTRA.REPUL>
0

>  <SCORE.INTRA.REPUL.0>
0

>  <SCORE.INTRA.SOLV>
-0.0179839

>  <SCORE.INTRA.SOLV.lig_0>
-3.36201

>  <SCORE.INTRA.VDW>
-0.120172

>  <SCORE.INTRA.VDW.0>
-0.910526

>  <SCORE.INTRA.norm>
-0.00197946

>  <SCORE.RESTR>
0

>  <SCORE.RESTR.CAVITY>
0

>  <SCORE.RESTR.norm>
0

>  <SCORE.SYSTEM>
0

>  <SCORE.SYSTEM.CONST>
0

>  <SCORE.SYSTEM.DIHEDRAL>
0

>  <SCORE.SYSTEM.SOLV>
0

>  <SCORE.SYSTEM.norm>
0

>  <SCORE.heavy>
29

>  <SCORE.norm>
-0.0523273

>  <RMSD>
4.089

$$$$
ligand
 OpenBabel11021811503D
libRbt.so/2013.1/901 2013/11/27
 29 32  0  0  0  0  0  0  0  0999 V2000
   42.3300   39.9499   38.8155 C   0  0  0  0  0  0  0  0  0  0  0  0
   49.4179   42.6769   46.5836 C   0  0  0  0  0  0  0  0  0  0  0  0
   50.6817   43.2802   46.6345 C   0  0  0  0  0  0  0  0  0  0  0  0
   51.0817   44.1282   45.6614 C   0  0  0  0  0  0  0  0  0  0  0  0
   50.2387   44.3339   44.5777 C   0  0  0  0  0  0  0  0  0  0  0  0
   48.9873   43.7768   44.5833 C   0  0  0  0  0  0  0  0  0  0  0  0
   47.9501   43.9987   43.5782 C   0  0  0  0  0  0  0  0  0  0  0  0
   46.2479   43.1491   42.2397 C   0  0  0  0  0  0  0  0  0  0  0  0
   46.5657   42.6779   40.9811 C   0  0  0  0  0  0  0  0  0  0  0  0
   45.6781   42.9114   39.9292 C   0  0  0  0  0  0  0  0  0  0  0  0
   44.4582   43.5048   40.1245 C   0  0  0  0  0  0  0  0  0  0  0  0
   44.1617   43.9658   41.4253 C   0  0  0  0  0  0  0  0  0  0  0  0
   45.0764   43.8436   42.4652 C   0  0  0  0  0  0  0  0  0  0  0  0
   43.4297   43.6257   39.0020 C   0  0  0  0  0  0  0  0  0  0  0  0
   42.5784   42.3759   38.8267 C   0  0  0  0  0  0  0  0  0  0  0  0
   43.0775   41.1063   38.9682 C   0  0  0  0  0  0  0  0  0  0  0  0
   41.0019   40.1067   38.5218 C   0  0  0  0  0  0  0  0  0  0  0  0
   40.5065   41.3555   38.3753 C   0  0  0  0  0  0  0  0  0  0  0  0
   41.2546   42.5032   38.5115 C   0  0  0  0  0  0  0  0  0  0  0  0
   39.5836   38.5082   39.4292 C   0  0  0  0  0  0  0  0  0  0  0  0
   38.7722   37.3156   39.3082 C   0  0  0  0  0  0  0  0  0  0  0  0
   38.6954   36.2903   40.2595 C   0  0  0  0  0  0  0  0  0  0  0  0
   37.8836   35.2088   39.9844 C   0  0  0  0  0  0  0  0  0  0  0  0
   37.1633   35.2109   38.8004 C   0  0  0  0  0  0  0  0  0  0  0  0
   37.3004   36.2261   37.8785 C   0  0  0  0  0  0  0  0  0  0  0  0
   48.5806   42.9279   45.5631 N   0  0  0  0  0  0  0  0  0  0  0  0
   47.1995   42.9611   43.3261 N   0  0  0  0  0  0  0  0  0  0  0  0
   40.1141   38.9528   38.3447 N   0  0  0  0  0  0  0  0  0  0  0  0
   38.0590   37.2793   38.1426 N   0  0  0  0  0  0  0  0  0  0  0  0
  1 17  2  0  0  0  0
  1 16  1  0  0  0  0
  2  3  2  0  0  0  0
  2 26  1  0  0  0  0
  3  4  1  0  0  0  0
  4  5  2  0  0  0  0
  5  6  1  0  0  0  0
  6  7  1  0  0  0  0
  6 26  2  0  0  0  0
  7 27  2  0  0  0  0
  8  9  2  0  0  0  0
  8 13  1  0  0  0  0
  8 27  1  0  0  0  0
  9 10  1  0  0  0  0
 10 11  2  0  0  0  0
 11 12  1  0  0  0  0
 11 14  1  0  0  0  0
 12 13  2  0  0  0  0
 14 15  1  0  0  0  0
 15 16  2  0  0  0  0
 15 19  1  0  0  0  0
 17 18  1  0  0  0  0
 17 28  1  0  0  0  0
 18 19  2  0  0  0  0
 20 21  1  0  0  0  0
 20 28  2  0  0  0  0
 21 22  2  0  0  0  0
 21 29  1  0  0  0  0
 22 23  1  0  0  0  0
 23 24  2  0  0  0  0
 24 25  1  0  0  0  0
 25 29  2  0  0  0  0
M  END
>  <CHROM.1>
144.86790749,83.82999391,-37.61579664,143.92546973,98.12982111,87.04286995
43.72002024,41.17740699,41.06065234,3.07037725,0.69084747,2.44416477

>  <Name>
ligand

>  <RI>
0

>  <Rbt.Current_Directory>
/home/itssahil/PROJECTS/Mol_Feturizer/New_Systems/rnas/4JIY

>  <Rbt.Executable>
rbdock ($Id: //depot/dev/client3/rdock/2013.1/src/exe/rbdock.cxx#4 $)

>  <Rbt.Library>
libRbt.so (2013.1, Build901 2013/11/27)

>  <Rbt.Parameter_File>
/export/apps/rDock/src/rDock_2013.1_src/data/scripts/dock_solv.prm

>  <Rbt.Receptor>
prm/pocket_docking_5.prm

>  <SCORE>
-0.911091

>  <SCORE.INTER>
-0.573506

>  <SCORE.INTER.CONST>
1

>  <SCORE.INTER.POLAR>
0

>  <SCORE.INTER.ROT>
6

>  <SCORE.INTER.SOLV>
2.03351

>  <SCORE.INTER.VDW>
-8.66017

>  <SCORE.INTER.norm>
-0.0197761

>  <SCORE.INTRA>
-0.337835

>  <SCORE.INTRA.DIHEDRAL>
0.548736

>  <SCORE.INTRA.DIHEDRAL.0>
7.2424

>  <SCORE.INTRA.POLAR>
0

>  <SCORE.INTRA.POLAR.0>
0

>  <SCORE.INTRA.REPUL>
0

>  <SCORE.INTRA.REPUL.0>
0

>  <SCORE.INTRA.SOLV>
-0.00869915

>  <SCORE.INTRA.SOLV.lig_0>
-3.36201

>  <SCORE.INTRA.VDW>
-0.607854

>  <SCORE.INTRA.VDW.0>
-0.910526

>  <SCORE.INTRA.norm>
-0.0116495

>  <SCORE.RESTR>
0.000250414

>  <SCORE.RESTR.CAVITY>
0.000250414

>  <SCORE.RESTR.norm>
8.63498e-06

>  <SCORE.SYSTEM>
0

>  <SCORE.SYSTEM.CONST>
0

>  <SCORE.SYSTEM.DIHEDRAL>
0

>  <SCORE.SYSTEM.SOLV>
0

>  <SCORE.SYSTEM.norm>
0

>  <SCORE.heavy>
29

>  <SCORE.norm>
-0.0314169

>  <RMSD>
4.154

$$$$
ligand
 OpenBabel11021811503D
libRbt.so/2013.1/901 2013/11/27
 29 32  0  0  0  0  0  0  0  0999 V2000
   40.6341   43.6857   41.0446 C   0  0  0  0  0  0  0  0  0  0  0  0
   51.0044   44.3760   45.0521 C   0  0  0  0  0  0  0  0  0  0  0  0
   51.0550   43.6499   46.2495 C   0  0  0  0  0  0  0  0  0  0  0  0
   49.9934   42.9222   46.6611 C   0  0  0  0  0  0  0  0  0  0  0  0
   48.8301   42.9659   45.9046 C   0  0  0  0  0  0  0  0  0  0  0  0
   48.8289   43.6368   44.7104 C   0  0  0  0  0  0  0  0  0  0  0  0
   47.7257   43.6720   43.7527 C   0  0  0  0  0  0  0  0  0  0  0  0
   46.9887   43.9030   41.5585 C   0  0  0  0  0  0  0  0  0  0  0  0
   46.5441   42.7995   40.8574 C   0  0  0  0  0  0  0  0  0  0  0  0
   45.5303   42.9643   39.9119 C   0  0  0  0  0  0  0  0  0  0  0  0
   44.8948   44.1645   39.7280 C   0  0  0  0  0  0  0  0  0  0  0  0
   45.3683   45.2695   40.4680 C   0  0  0  0  0  0  0  0  0  0  0  0
   46.4496   45.1539   41.3342 C   0  0  0  0  0  0  0  0  0  0  0  0
   43.6896   44.3068   38.8009 C   0  0  0  0  0  0  0  0  0  0  0  0
   42.4124   43.7104   39.3760 C   0  0  0  0  0  0  0  0  0  0  0  0
   41.7958   44.2050   40.4968 C   0  0  0  0  0  0  0  0  0  0  0  0
   40.0694   42.6187   40.3987 C   0  0  0  0  0  0  0  0  0  0  0  0
   40.6764   42.1237   39.2973 C   0  0  0  0  0  0  0  0  0  0  0  0
   41.8396   42.6310   38.7637 C   0  0  0  0  0  0  0  0  0  0  0  0
   37.7507   42.5706   40.5062 C   0  0  0  0  0  0  0  0  0  0  0  0
   36.5153   42.0361   41.0388 C   0  0  0  0  0  0  0  0  0  0  0  0
   36.0936   40.7054   40.9220 C   0  0  0  0  0  0  0  0  0  0  0  0
   34.8773   40.3590   41.4742 C   0  0  0  0  0  0  0  0  0  0  0  0
   34.1559   41.3355   42.1426 C   0  0  0  0  0  0  0  0  0  0  0  0
   34.5956   42.6403   42.1993 C   0  0  0  0  0  0  0  0  0  0  0  0
   49.8967   44.3650   44.2916 N   0  0  0  0  0  0  0  0  0  0  0  0
   48.0879   43.7460   42.5010 N   0  0  0  0  0  0  0  0  0  0  0  0
   38.8357   41.9926   40.8857 N   0  0  0  0  0  0  0  0  0  0  0  0
   35.7718   42.9785   41.6926 N   0  0  0  0  0  0  0  0  0  0  0  0
  1 17  2  0  0  0  0
  1 16  1  0  0  0  0
  2  3  2  0  0  0  0
  2 26  1  0  0  0  0
  3  4  1  0  0  0  0
  4  5  2  0  0  0  0
  5  6  1  0  0  0  0
  6  7  1  0  0  0  0
  6 26  2  0  0  0  0
  7 27  2  0  0  0  0
  8  9  2  0  0  0  0
  8 13  1  0  0  0  0
  8 27  1  0  0  0  0
  9 10  1  0  0  0  0
 10 11  2  0  0  0  0
 11 12  1  0  0  0  0
 11 14  1  0  0  0  0
 12 13  2  0  0  0  0
 14 15  1  0  0  0  0
 15 16  2  0  0  0  0
 15 19  1  0  0  0  0
 17 18  1  0  0  0  0
 17 28  1  0  0  0  0
 18 19  2  0  0  0  0
 20 21  1  0  0  0  0
 20 28  2  0  0  0  0
 21 22  2  0  0  0  0
 21 29  1  0  0  0  0
 22 23  1  0  0  0  0
 23 24  2  0  0  0  0
 24 25  1  0  0  0  0
 25 29  2  0  0  0  0
M  END
>  <CHROM.1>
-147.05904274,74.02865122,65.16238583,-56.35355823,-100.85424873,83.87677456
43.13604043,43.16357939,41.79110142,-2.94263453,0.19644013,1.80660471

>  <Name>
ligand

>  <RI>
0

>  <Rbt.Current_Directory>
/home/itssahil/PROJECTS/Mol_Feturizer/New_Systems/rnas/4JIY

>  <Rbt.Executable>
rbdock ($Id: //depot/dev/client3/rdock/2013.1/src/exe/rbdock.cxx#4 $)

>  <Rbt.Library>
libRbt.so (2013.1, Build901 2013/11/27)

>  <Rbt.Parameter_File>
/export/apps/rDock/src/rDock_2013.1_src/data/scripts/dock_solv.prm

>  <Rbt.Receptor>
prm/pocket_docking_5.prm

>  <SCORE>
0.0738958

>  <SCORE.INTER>
0.898123

>  <SCORE.INTER.CONST>
1

>  <SCORE.INTER.POLAR>
0

>  <SCORE.INTER.ROT>
6

>  <SCORE.INTER.SOLV>
1.88924

>  <SCORE.INTER.VDW>
-7.631

>  <SCORE.INTER.norm>
0.0309698

>  <SCORE.INTRA>
-0.824227

>  <SCORE.INTRA.DIHEDRAL>
0.138249

>  <SCORE.INTRA.DIHEDRAL.0>
7.2424

>  <SCORE.INTRA.POLAR>
0

>  <SCORE.INTRA.POLAR.0>
0

>  <SCORE.INTRA.REPUL>
0

>  <SCORE.INTRA.REPUL.0>
0

>  <SCORE.INTRA.SOLV>
-0.0134857

>  <SCORE.INTRA.SOLV.lig_0>
-3.36201

>  <SCORE.INTRA.VDW>
-0.886609

>  <SCORE.INTRA.VDW.0>
-0.910526

>  <SCORE.INTRA.norm>
-0.0284216

>  <SCORE.RESTR>
0

>  <SCORE.RESTR.CAVITY>
0

>  <SCORE.RESTR.norm>
0

>  <SCORE.SYSTEM>
0

>  <SCORE.SYSTEM.CONST>
0

>  <SCORE.SYSTEM.DIHEDRAL>
0

>  <SCORE.SYSTEM.SOLV>
0

>  <SCORE.SYSTEM.norm>
0

>  <SCORE.heavy>
29

>  <SCORE.norm>
0.00254813

>  <RMSD>
4.192

$$$$
ligand
 OpenBabel11021811503D
libRbt.so/2013.1/901 2013/11/27
 29 32  0  0  0  0  0  0  0  0999 V2000
   41.9467   39.3453   43.1400 C   0  0  0  0  0  0  0  0  0  0  0  0
   50.8889   47.3592   45.6207 C   0  0  0  0  0  0  0  0  0  0  0  0
   51.3735   46.9581   46.8729 C   0  0  0  0  0  0  0  0  0  0  0  0
   50.8144   45.9171   47.5285 C   0  0  0  0  0  0  0  0  0  0  0  0
   49.7071   45.2992   46.9634 C   0  0  0  0  0  0  0  0  0  0  0  0
   49.2920   45.6747   45.7132 C   0  0  0  0  0  0  0  0  0  0  0  0
   48.2247   45.0407   44.9424 C   0  0  0  0  0  0  0  0  0  0  0  0
   47.4298   43.1964   43.7686 C   0  0  0  0  0  0  0  0  0  0  0  0
   47.5202   43.3956   42.4051 C   0  0  0  0  0  0  0  0  0  0  0  0
   46.5215   42.8760   41.5795 C   0  0  0  0  0  0  0  0  0  0  0  0
   45.5092   42.0915   42.0674 C   0  0  0  0  0  0  0  0  0  0  0  0
   45.4524   41.9003   43.4648 C   0  0  0  0  0  0  0  0  0  0  0  0
   46.3723   42.4995   44.3178 C   0  0  0  0  0  0  0  0  0  0  0  0
   44.5043   41.4039   41.1457 C   0  0  0  0  0  0  0  0  0  0  0  0
   43.2280   40.9760   41.8569 C   0  0  0  0  0  0  0  0  0  0  0  0
   43.0933   39.7641   42.4847 C   0  0  0  0  0  0  0  0  0  0  0  0
   40.8952   40.2218   43.1670 C   0  0  0  0  0  0  0  0  0  0  0  0
   41.0208   41.4148   42.5446 C   0  0  0  0  0  0  0  0  0  0  0  0
   42.1553   41.8227   41.8800 C   0  0  0  0  0  0  0  0  0  0  0  0
   38.8728   39.0816   43.1845 C   0  0  0  0  0  0  0  0  0  0  0  0
   37.5808   38.7974   43.7720 C   0  0  0  0  0  0  0  0  0  0  0  0
   37.3751   38.1792   45.0121 C   0  0  0  0  0  0  0  0  0  0  0  0
   36.0753   37.9650   45.4232 C   0  0  0  0  0  0  0  0  0  0  0  0
   35.0457   38.4026   44.6051 C   0  0  0  0  0  0  0  0  0  0  0  0
   35.2984   38.9730   43.3762 C   0  0  0  0  0  0  0  0  0  0  0  0
   49.8557   46.7176   45.0495 N   0  0  0  0  0  0  0  0  0  0  0  0
   48.4367   43.7894   44.6380 N   0  0  0  0  0  0  0  0  0  0  0  0
   39.6346   39.8869   43.8377 N   0  0  0  0  0  0  0  0  0  0  0  0
   36.5417   39.2037   42.9823 N   0  0  0  0  0  0  0  0  0  0  0  0
  1 17  2  0  0  0  0
  1 16  1  0  0  0  0
  2  3  2  0  0  0  0
  2 26  1  0  0  0  0
  3  4  1  0  0  0  0
  4  5  2  0  0  0  0
  5  6  1  0  0  0  0
  6  7  1  0  0  0  0
  6 26  2  0  0  0  0
  7 27  2  0  0  0  0
  8  9  2  0  0  0  0
  8 13  1  0  0  0  0
  8 27  1  0  0  0  0
  9 10  1  0  0  0  0
 10 11  2  0  0  0  0
 11 12  1  0  0  0  0
 11 14  1  0  0  0  0
 12 13  2  0  0  0  0
 14 15  1  0  0  0  0
 15 16  2  0  0  0  0
 15 19  1  0  0  0  0
 17 18  1  0  0  0  0
 17 28  1  0  0  0  0
 18 19  2  0  0  0  0
 20 21  1  0  0  0  0
 20 28  2  0  0  0  0
 21 22  2  0  0  0  0
 21 29  1  0  0  0  0
 22 23  1  0  0  0  0
 23 24  2  0  0  0  0
 24 25  1  0  0  0  0
 25 29  2  0  0  0  0
M  END
>  <CHROM.1>
-62.10897346,-161.01653502,-87.79842123,-62.00430245,82.77084153,-76.89394535
43.81403241,42.01095822,43.89866863,-2.87109224,0.43866759,1.24337975

>  <Name>
ligand

>  <RI>
0

>  <Rbt.Current_Directory>
/home/itssahil/PROJECTS/Mol_Feturizer/New_Systems/rnas/4JIY

>  <Rbt.Executable>
rbdock ($Id: //depot/dev/client3/rdock/2013.1/src/exe/rbdock.cxx#4 $)

>  <Rbt.Library>
libRbt.so (2013.1, Build901 2013/11/27)

>  <Rbt.Parameter_File>
/export/apps/rDock/src/rDock_2013.1_src/data/scripts/dock_solv.prm

>  <Rbt.Receptor>
prm/pocket_docking_5.prm

>  <SCORE>
-1.80883

>  <SCORE.INTER>
-0.877018

>  <SCORE.INTER.CONST>
1

>  <SCORE.INTER.POLAR>
0

>  <SCORE.INTER.ROT>
6

>  <SCORE.INTER.SOLV>
1.10131

>  <SCORE.INTER.VDW>
-8.55178

>  <SCORE.INTER.norm>
-0.030242

>  <SCORE.INTRA>
-0.93181

>  <SCORE.INTRA.DIHEDRAL>
-0.0173917

>  <SCORE.INTRA.DIHEDRAL.0>
7.2424

>  <SCORE.INTRA.POLAR>
0

>  <SCORE.INTRA.POLAR.0>
0

>  <SCORE.INTRA.REPUL>
0

>  <SCORE.INTRA.REPUL.0>
0

>  <SCORE.INTRA.SOLV>
-0.0191954

>  <SCORE.INTRA.SOLV.lig_0>
-3.36201

>  <SCORE.INTRA.VDW>
-0.913516

>  <SCORE.INTRA.VDW.0>
-0.910526

>  <SCORE.INTRA.norm>
-0.0321314

>  <SCORE.RESTR>
0

>  <SCORE.RESTR.CAVITY>
0

>  <SCORE.RESTR.norm>
0

>  <SCORE.SYSTEM>
0

>  <SCORE.SYSTEM.CONST>
0

>  <SCORE.SYSTEM.DIHEDRAL>
0

>  <SCORE.SYSTEM.SOLV>
0

>  <SCORE.SYSTEM.norm>
0

>  <SCORE.heavy>
29

>  <SCORE.norm>
-0.0623734

>  <RMSD>
4.203

$$$$
ligand
 OpenBabel11021811503D
libRbt.so/2013.1/901 2013/11/27
 29 32  0  0  0  0  0  0  0  0999 V2000
   45.4321   41.6498   41.9121 C   0  0  0  0  0  0  0  0  0  0  0  0
   34.3195   39.6702   43.5574 C   0  0  0  0  0  0  0  0  0  0  0  0
   33.2409   40.4670   43.1506 C   0  0  0  0  0  0  0  0  0  0  0  0
   33.3912   41.3838   42.1693 C   0  0  0  0  0  0  0  0  0  0  0  0
   34.6544   41.5638   41.6221 C   0  0  0  0  0  0  0  0  0  0  0  0
   35.6754   40.7318   41.9983 C   0  0  0  0  0  0  0  0  0  0  0  0
   37.0205   40.7198   41.4274 C   0  0  0  0  0  0  0  0  0  0  0  0
   39.0350   41.8135   41.0315 C   0  0  0  0  0  0  0  0  0  0  0  0
   40.1141   41.1836   41.6197 C   0  0  0  0  0  0  0  0  0  0  0  0
   41.3649   41.2743   41.0064 C   0  0  0  0  0  0  0  0  0  0  0  0
   41.5368   41.8831   39.7906 C   0  0  0  0  0  0  0  0  0  0  0  0
   40.4107   42.5085   39.2131 C   0  0  0  0  0  0  0  0  0  0  0  0
   39.1794   42.5267   39.8584 C   0  0  0  0  0  0  0  0  0  0  0  0
   42.8740   41.8524   39.0536 C   0  0  0  0  0  0  0  0  0  0  0  0
   44.0659   42.1463   39.9541 C   0  0  0  0  0  0  0  0  0  0  0  0
   44.3565   41.4085   41.0730 C   0  0  0  0  0  0  0  0  0  0  0  0
   46.2590   42.6874   41.5741 C   0  0  0  0  0  0  0  0  0  0  0  0
   45.9736   43.4213   40.4758 C   0  0  0  0  0  0  0  0  0  0  0  0
   44.8950   43.1902   39.6522 C   0  0  0  0  0  0  0  0  0  0  0  0
   47.2055   43.1215   43.6492 C   0  0  0  0  0  0  0  0  0  0  0  0
   48.3172   43.5448   44.4740 C   0  0  0  0  0  0  0  0  0  0  0  0
   48.3635   43.4639   45.8717 C   0  0  0  0  0  0  0  0  0  0  0  0
   49.4951   43.9268   46.5117 C   0  0  0  0  0  0  0  0  0  0  0  0
   50.5362   44.4142   45.7375 C   0  0  0  0  0  0  0  0  0  0  0  0
   50.4288   44.5075   44.3668 C   0  0  0  0  0  0  0  0  0  0  0  0
   35.5257   39.8056   42.9810 N   0  0  0  0  0  0  0  0  0  0  0  0
   37.7418   41.7726   41.7004 N   0  0  0  0  0  0  0  0  0  0  0  0
   47.4316   43.0295   42.3860 N   0  0  0  0  0  0  0  0  0  0  0  0
   49.3569   44.0452   43.7410 N   0  0  0  0  0  0  0  0  0  0  0  0
  1 17  2  0  0  0  0
  1 16  1  0  0  0  0
  2  3  2  0  0  0  0
  2 26  1  0  0  0  0
  3  4  1  0  0  0  0
  4  5  2  0  0  0  0
  5  6  1  0  0  0  0
  6  7  1  0  0  0  0
  6 26  2  0  0  0  0
  7 27  2  0  0  0  0
  8  9  2  0  0  0  0
  8 13  1  0  0  0  0
  8 27  1  0  0  0  0
  9 10  1  0  0  0  0
 10 11  2  0  0  0  0
 11 12  1  0  0  0  0
 11 14  1  0  0  0  0
 12 13  2  0  0  0  0
 14 15  1  0  0  0  0
 15 16  2  0  0  0  0
 15 19  1  0  0  0  0
 17 18  1  0  0  0  0
 17 28  1  0  0  0  0
 18 19  2  0  0  0  0
 20 21  1  0  0  0  0
 20 28  2  0  0  0  0
 21 22  2  0  0  0  0
 21 29  1  0  0  0  0
 22 23  1  0  0  0  0
 23 24  2  0  0  0  0
 24 25  1  0  0  0  0
 25 29  2  0  0  0  0
M  END
>  <CHROM.1>
68.83004981,-45.06342339,57.54986461,-167.07451471,-86.42299061,-48.39196433
42.35695525,42.19279595,42.12072027,-0.14857091,-0.20578326,-1.58700807

>  <Name>
ligand

>  <RI>
0

>  <Rbt.Current_Directory>
/home/itssahil/PROJECTS/Mol_Feturizer/New_Systems/rnas/4JIY

>  <Rbt.Executable>
rbdock ($Id: //depot/dev/client3/rdock/2013.1/src/exe/rbdock.cxx#4 $)

>  <Rbt.Library>
libRbt.so (2013.1, Build901 2013/11/27)

>  <Rbt.Parameter_File>
/export/apps/rDock/src/rDock_2013.1_src/data/scripts/dock_solv.prm

>  <Rbt.Receptor>
prm/pocket_docking_5.prm

>  <SCORE>
-0.780884

>  <SCORE.INTER>
-0.659881

>  <SCORE.INTER.CONST>
1

>  <SCORE.INTER.POLAR>
0

>  <SCORE.INTER.ROT>
6

>  <SCORE.INTER.SOLV>
1.85007

>  <SCORE.INTER.VDW>
-8.65661

>  <SCORE.INTER.norm>
-0.0227545

>  <SCORE.INTRA>
-0.121759

>  <SCORE.INTRA.DIHEDRAL>
-0.072998

>  <SCORE.INTRA.DIHEDRAL.0>
7.2424

>  <SCORE.INTRA.POLAR>
0

>  <SCORE.INTRA.POLAR.0>
0

>  <SCORE.INTRA.REPUL>
0

>  <SCORE.INTRA.REPUL.0>
0

>  <SCORE.INTRA.SOLV>
-0.0106622

>  <SCORE.INTRA.SOLV.lig_0>
-3.36201

>  <SCORE.INTRA.VDW>
-0.0799292

>  <SCORE.INTRA.VDW.0>
-0.910526

>  <SCORE.INTRA.norm>
-0.0041986

>  <SCORE.RESTR>
0.000756478

>  <SCORE.RESTR.CAVITY>
0.000756478

>  <SCORE.RESTR.norm>
2.60854e-05

>  <SCORE.SYSTEM>
0

>  <SCORE.SYSTEM.CONST>
0

>  <SCORE.SYSTEM.DIHEDRAL>
0

>  <SCORE.SYSTEM.SOLV>
0

>  <SCORE.SYSTEM.norm>
0

>  <SCORE.heavy>
29

>  <SCORE.norm>
-0.026927

>  <RMSD>
4.264

$$$$
ligand
 OpenBabel11021811503D
libRbt.so/2013.1/901 2013/11/27
 29 32  0  0  0  0  0  0  0  0999 V2000
   46.4171   42.4526   44.3352 C   0  0  0  0  0  0  0  0  0  0  0  0
   35.8245   37.9541   44.4192 C   0  0  0  0  0  0  0  0  0  0  0  0
   35.0180   38.9486   44.9886 C   0  0  0  0  0  0  0  0  0  0  0  0
   35.4097   40.2419   44.9838 C   0  0  0  0  0  0  0  0  0  0  0  0
   36.6587   40.5513   44.4626 C   0  0  0  0  0  0  0  0  0  0  0  0
   37.3992   39.5683   43.8614 C   0  0  0  0  0  0  0  0  0  0  0  0
   38.6699   39.7618   43.1661 C   0  0  0  0  0  0  0  0  0  0  0  0
   40.8882   40.4606   43.2113 C   0  0  0  0  0  0  0  0  0  0  0  0
   41.0078   41.6817   42.5777 C   0  0  0  0  0  0  0  0  0  0  0  0
   42.1649   41.9511   41.8446 C   0  0  0  0  0  0  0  0  0  0  0  0
   43.2261   41.0842   41.8153 C   0  0  0  0  0  0  0  0  0  0  0  0
   43.0736   39.8491   42.4817 C   0  0  0  0  0  0  0  0  0  0  0  0
   41.8881   39.5127   43.1255 C   0  0  0  0  0  0  0  0  0  0  0  0
   44.5453   41.4449   41.1358 C   0  0  0  0  0  0  0  0  0  0  0  0
   45.5636   42.0619   42.0845 C   0  0  0  0  0  0  0  0  0  0  0  0
   45.5071   41.9049   43.4458 C   0  0  0  0  0  0  0  0  0  0  0  0
   47.4448   43.1807   43.7982 C   0  0  0  0  0  0  0  0  0  0  0  0
   47.5015   43.3435   42.4578 C   0  0  0  0  0  0  0  0  0  0  0  0
   46.5871   42.8120   41.5766 C   0  0  0  0  0  0  0  0  0  0  0  0
   48.1234   44.9181   45.1806 C   0  0  0  0  0  0  0  0  0  0  0  0
   49.1384   45.6056   45.9504 C   0  0  0  0  0  0  0  0  0  0  0  0
   49.7265   45.1223   47.1264 C   0  0  0  0  0  0  0  0  0  0  0  0
   50.6717   45.9103   47.7509 C   0  0  0  0  0  0  0  0  0  0  0  0
   51.0125   47.1189   47.1644 C   0  0  0  0  0  0  0  0  0  0  0  0
   50.3789   47.5683   46.0260 C   0  0  0  0  0  0  0  0  0  0  0  0
   37.0054   38.2679   43.8602 N   0  0  0  0  0  0  0  0  0  0  0  0
   39.6568   40.1523   43.9256 N   0  0  0  0  0  0  0  0  0  0  0  0
   48.4695   43.8009   44.6445 N   0  0  0  0  0  0  0  0  0  0  0  0
   49.4871   46.8100   45.4063 N   0  0  0  0  0  0  0  0  0  0  0  0
  1 17  2  0  0  0  0
  1 16  1  0  0  0  0
  2  3  2  0  0  0  0
  2 26  1  0  0  0  0
  3  4  1  0  0  0  0
  4  5  2  0  0  0  0
  5  6  1  0  0  0  0
  6  7  1  0  0  0  0
  6 26  2  0  0  0  0
  7 27  2  0  0  0  0
  8  9  2  0  0  0  0
  8 13  1  0  0  0  0
  8 27  1  0  0  0  0
  9 10  1  0  0  0  0
 10 11  2  0  0  0  0
 11 12  1  0  0  0  0
 11 14  1  0  0  0  0
 12 13  2  0  0  0  0
 14 15  1  0  0  0  0
 15 16  2  0  0  0  0
 15 19  1  0  0  0  0
 17 18  1  0  0  0  0
 17 28  1  0  0  0  0
 18 19  2  0  0  0  0
 20 21  1  0  0  0  0
 20 28  2  0  0  0  0
 21 22  2  0  0  0  0
 21 29  1  0  0  0  0
 22 23  1  0  0  0  0
 23 24  2  0  0  0  0
 24 25  1  0  0  0  0
 25 29  2  0  0  0  0
M  END
>  <CHROM.1>
65.39327892,92.84024298,20.75454849,-64.07645147,79.89264828,-80.85083999
43.74087656,42.20585033,44.02201558,-0.32724996,-0.36288917,-2.05959846

>  <Name>
ligand

>  <RI>
0

>  <Rbt.Current_Directory>
/home/itssahil/PROJECTS/Mol_Feturizer/New_Systems/rnas/4JIY

>  <Rbt.Executable>
rbdock ($Id: //depot/dev/client3/rdock/2013.1/src/exe/rbdock.cxx#4 $)

>  <Rbt.Library>
libRbt.so (2013.1, Build901 2013/11/27)

>  <Rbt.Parameter_File>
/export/apps/rDock/src/rDock_2013.1_src/data/scripts/dock_solv.prm

>  <Rbt.Receptor>
prm/pocket_docking_5.prm

>  <SCORE>
-1.88019

>  <SCORE.INTER>
-0.922056

>  <SCORE.INTER.CONST>
1

>  <SCORE.INTER.POLAR>
0

>  <SCORE.INTER.ROT>
6

>  <SCORE.INTER.SOLV>
1.05969

>  <SCORE.INTER.VDW>
-8.56794

>  <SCORE.INTER.norm>
-0.031795

>  <SCORE.INTRA>
-0.958133

>  <SCORE.INTRA.DIHEDRAL>
-0.0195509

>  <SCORE.INTRA.DIHEDRAL.0>
7.2424

>  <SCORE.INTRA.POLAR>
0

>  <SCORE.INTRA.POLAR.0>
0

>  <SCORE.INTRA.REPUL>
0

>  <SCORE.INTRA.REPUL.0>
0

>  <SCORE.INTRA.SOLV>
-0.0189476

>  <SCORE.INTRA.SOLV.lig_0>
-3.36201

>  <SCORE.INTRA.VDW>
-0.938884

>  <SCORE.INTRA.VDW.0>
-0.910526

>  <SCORE.INTRA.norm>
-0.0330391

>  <SCORE.RESTR>
0

>  <SCORE.RESTR.CAVITY>
0

>  <SCORE.RESTR.norm>
0

>  <SCORE.SYSTEM>
0

>  <SCORE.SYSTEM.CONST>
0

>  <SCORE.SYSTEM.DIHEDRAL>
0

>  <SCORE.SYSTEM.SOLV>
0

>  <SCORE.SYSTEM.norm>
0

>  <SCORE.heavy>
29

>  <SCORE.norm>
-0.0648341

>  <RMSD>
4.284

$$$$
ligand
 OpenBabel11021811503D
libRbt.so/2013.1/901 2013/11/27
 29 32  0  0  0  0  0  0  0  0999 V2000
   40.2902   44.2948   40.7988 C   0  0  0  0  0  0  0  0  0  0  0  0
   50.7700   44.3050   45.1776 C   0  0  0  0  0  0  0  0  0  0  0  0
   52.0250   44.4587   44.5736 C   0  0  0  0  0  0  0  0  0  0  0  0
   52.1449   44.4866   43.2279 C   0  0  0  0  0  0  0  0  0  0  0  0
   51.0051   44.2915   42.4596 C   0  0  0  0  0  0  0  0  0  0  0  0
   49.7853   44.2018   43.0762 C   0  0  0  0  0  0  0  0  0  0  0  0
   48.4922   44.1163   42.4010 C   0  0  0  0  0  0  0  0  0  0  0  0
   47.2122   44.4310   40.4843 C   0  0  0  0  0  0  0  0  0  0  0  0
   46.6528   45.6521   40.1635 C   0  0  0  0  0  0  0  0  0  0  0  0
   45.3752   45.6824   39.6015 C   0  0  0  0  0  0  0  0  0  0  0  0
   44.7001   44.5376   39.2670 C   0  0  0  0  0  0  0  0  0  0  0  0
   45.3052   43.3066   39.6003 C   0  0  0  0  0  0  0  0  0  0  0  0
   46.5275   43.2533   40.2607 C   0  0  0  0  0  0  0  0  0  0  0  0
   43.3692   44.5740   38.5190 C   0  0  0  0  0  0  0  0  0  0  0  0
   42.2095   44.0027   39.3230 C   0  0  0  0  0  0  0  0  0  0  0  0
   41.3537   44.7832   40.0574 C   0  0  0  0  0  0  0  0  0  0  0  0
   40.0856   42.9413   40.7685 C   0  0  0  0  0  0  0  0  0  0  0  0
   40.9297   42.1672   40.0512 C   0  0  0  0  0  0  0  0  0  0  0  0
   41.9958   42.6527   39.3281 C   0  0  0  0  0  0  0  0  0  0  0  0
   39.1800   42.2117   42.7780 C   0  0  0  0  0  0  0  0  0  0  0  0
   38.1572   41.5187   43.5322 C   0  0  0  0  0  0  0  0  0  0  0  0
   36.8622   41.9980   43.7677 C   0  0  0  0  0  0  0  0  0  0  0  0
   36.0089   41.2193   44.5225 C   0  0  0  0  0  0  0  0  0  0  0  0
   36.4663   39.9926   44.9773 C   0  0  0  0  0  0  0  0  0  0  0  0
   37.7618   39.5806   44.7506 C   0  0  0  0  0  0  0  0  0  0  0  0
   49.6613   44.1788   44.4291 N   0  0  0  0  0  0  0  0  0  0  0  0
   48.5187   44.3988   41.1271 N   0  0  0  0  0  0  0  0  0  0  0  0
   38.9861   42.3151   41.5103 N   0  0  0  0  0  0  0  0  0  0  0  0
   38.5814   40.3096   44.0084 N   0  0  0  0  0  0  0  0  0  0  0  0
  1 17  2  0  0  0  0
  1 16  1  0  0  0  0
  2  3  2  0  0  0  0
  2 26  1  0  0  0  0
  3  4  1  0  0  0  0
  4  5  2  0  0  0  0
  5  6  1  0  0  0  0
  6  7  1  0  0  0  0
  6 26  2  0  0  0  0
  7 27  2  0  0  0  0
  8  9  2  0  0  0  0
  8 13  1  0  0  0  0
  8 27  1  0  0  0  0
  9 10  1  0  0  0  0
 10 11  2  0  0  0  0
 11 12  1  0  0  0  0
 11 14  1  0  0  0  0
 12 13  2  0  0  0  0
 14 15  1  0  0  0  0
 15 16  2  0  0  0  0
 15 19  1  0  0  0  0
 17 18  1  0  0  0  0
 17 28  1  0  0  0  0
 18 19  2  0  0  0  0
 20 21  1  0  0  0  0
 20 28  2  0  0  0  0
 21 22  2  0  0  0  0
 21 29  1  0  0  0  0
 22 23  1  0  0  0  0
 23 24  2  0  0  0  0
 24 25  1  0  0  0  0
 25 29  2  0  0  0  0
M  END
>  <CHROM.1>
-13.21375551,-116.70621664,95.90637211,-69.32686674,105.12837737,-76.21437302
43.80793150,43.30070662,41.88560592,3.01973380,0.21443911,1.96021217

>  <Name>
ligand

>  <RI>
0

>  <Rbt.Current_Directory>
/home/itssahil/PROJECTS/Mol_Feturizer/New_Systems/rnas/4JIY

>  <Rbt.Executable>
rbdock ($Id: //depot/dev/client3/rdock/2013.1/src/exe/rbdock.cxx#4 $)

>  <Rbt.Library>
libRbt.so (2013.1, Build901 2013/11/27)

>  <Rbt.Parameter_File>
/export/apps/rDock/src/rDock_2013.1_src/data/scripts/dock_solv.prm

>  <Rbt.Receptor>
prm/pocket_docking_5.prm

>  <SCORE>
-0.417392

>  <SCORE.INTER>
0.126077

>  <SCORE.INTER.CONST>
1

>  <SCORE.INTER.POLAR>
0

>  <SCORE.INTER.ROT>
6

>  <SCORE.INTER.SOLV>
1.86715

>  <SCORE.INTER.VDW>
-8.13833

>  <SCORE.INTER.norm>
0.0043475

>  <SCORE.INTRA>
-0.544665

>  <SCORE.INTRA.DIHEDRAL>
0.558936

>  <SCORE.INTRA.DIHEDRAL.0>
7.2424

>  <SCORE.INTRA.POLAR>
0

>  <SCORE.INTRA.POLAR.0>
0

>  <SCORE.INTRA.REPUL>
0

>  <SCORE.INTRA.REPUL.0>
0

>  <SCORE.INTRA.SOLV>
-0.0190797

>  <SCORE.INTRA.SOLV.lig_0>
-3.36201

>  <SCORE.INTRA.VDW>
-0.814593

>  <SCORE.INTRA.VDW.0>
-0.910526

>  <SCORE.INTRA.norm>
-0.0187815

>  <SCORE.RESTR>
0.00119502

>  <SCORE.RESTR.CAVITY>
0.00119502

>  <SCORE.RESTR.norm>
4.12074e-05

>  <SCORE.SYSTEM>
0

>  <SCORE.SYSTEM.CONST>
0

>  <SCORE.SYSTEM.DIHEDRAL>
0

>  <SCORE.SYSTEM.SOLV>
0

>  <SCORE.SYSTEM.norm>
0

>  <SCORE.heavy>
29

>  <SCORE.norm>
-0.0143928

>  <RMSD>
4.287

$$$$
ligand
 OpenBabel11021811503D
libRbt.so/2013.1/901 2013/11/27
 29 32  0  0  0  0  0  0  0  0999 V2000
   41.9635   39.1857   43.1760 C   0  0  0  0  0  0  0  0  0  0  0  0
   51.2356   47.1147   45.3451 C   0  0  0  0  0  0  0  0  0  0  0  0
   51.5960   46.8586   46.6748 C   0  0  0  0  0  0  0  0  0  0  0  0
   50.8733   46.0058   47.4341 C   0  0  0  0  0  0  0  0  0  0  0  0
   49.7284   45.4430   46.8867 C   0  0  0  0  0  0  0  0  0  0  0  0
   49.4334   45.6660   45.5678 C   0  0  0  0  0  0  0  0  0  0  0  0
   48.3371   45.0508   44.8228 C   0  0  0  0  0  0  0  0  0  0  0  0
   47.4269   43.1779   43.7860 C   0  0  0  0  0  0  0  0  0  0  0  0
   47.4914   43.3680   42.4198 C   0  0  0  0  0  0  0  0  0  0  0  0
   46.4706   42.8539   41.6181 C   0  0  0  0  0  0  0  0  0  0  0  0
   45.4604   42.0830   42.1315 C   0  0  0  0  0  0  0  0  0  0  0  0
   45.4304   41.9008   43.5309 C   0  0  0  0  0  0  0  0  0  0  0  0
   46.3738   42.4954   44.3612 C   0  0  0  0  0  0  0  0  0  0  0  0
   44.4297   41.4004   41.2348 C   0  0  0  0  0  0  0  0  0  0  0  0
   43.1964   40.9227   41.9887 C   0  0  0  0  0  0  0  0  0  0  0  0
   43.0713   39.6508   42.4863 C   0  0  0  0  0  0  0  0  0  0  0  0
   40.9436   40.0762   43.3801 C   0  0  0  0  0  0  0  0  0  0  0  0
   41.0594   41.3289   42.8864 C   0  0  0  0  0  0  0  0  0  0  0  0
   42.1543   41.7845   42.1872 C   0  0  0  0  0  0  0  0  0  0  0  0
   38.8205   39.1367   43.3791 C   0  0  0  0  0  0  0  0  0  0  0  0
   37.5689   38.8272   44.0372 C   0  0  0  0  0  0  0  0  0  0  0  0
   37.4235   37.9696   45.1352 C   0  0  0  0  0  0  0  0  0  0  0  0
   36.1542   37.7675   45.6375 C   0  0  0  0  0  0  0  0  0  0  0  0
   35.0985   38.4485   45.0521 C   0  0  0  0  0  0  0  0  0  0  0  0
   35.2869   39.2536   43.9496 C   0  0  0  0  0  0  0  0  0  0  0  0
   50.1614   46.5190   44.8006 N   0  0  0  0  0  0  0  0  0  0  0  0
   48.4575   43.7654   44.6310 N   0  0  0  0  0  0  0  0  0  0  0  0
   39.7257   39.6951   44.1030 N   0  0  0  0  0  0  0  0  0  0  0  0
   36.5035   39.4723   43.4739 N   0  0  0  0  0  0  0  0  0  0  0  0
  1 17  2  0  0  0  0
  1 16  1  0  0  0  0
  2  3  2  0  0  0  0
  2 26  1  0  0  0  0
  3  4  1  0  0  0  0
  4  5  2  0  0  0  0
  5  6  1  0  0  0  0
  6  7  1  0  0  0  0
  6 26  2  0  0  0  0
  7 27  2  0  0  0  0
  8  9  2  0  0  0  0
  8 13  1  0  0  0  0
  8 27  1  0  0  0  0
  9 10  1  0  0  0  0
 10 11  2  0  0  0  0
 11 12  1  0  0  0  0
 11 14  1  0  0  0  0
 12 13  2  0  0  0  0
 14 15  1  0  0  0  0
 15 16  2  0  0  0  0
 15 19  1  0  0  0  0
 17 18  1  0  0  0  0
 17 28  1  0  0  0  0
 18 19  2  0  0  0  0
 20 21  1  0  0  0  0
 20 28  2  0  0  0  0
 21 22  2  0  0  0  0
 21 29  1  0  0  0  0
 22 23  1  0  0  0  0
 23 24  2  0  0  0  0
 24 25  1  0  0  0  0
 25 29  2  0  0  0  0
M  END
>  <CHROM.1>
-67.30698291,-164.14036302,-93.51665142,-60.57300020,76.27906292,-85.44070017
43.85621380,41.97927908,43.99459875,-2.90020530,0.44043602,1.23361924

>  <Name>
ligand

>  <RI>
0

>  <Rbt.Current_Directory>
/home/itssahil/PROJECTS/Mol_Feturizer/New_Systems/rnas/4JIY

>  <Rbt.Executable>
rbdock ($Id: //depot/dev/client3/rdock/2013.1/src/exe/rbdock.cxx#4 $)

>  <Rbt.Library>
libRbt.so (2013.1, Build901 2013/11/27)

>  <Rbt.Parameter_File>
/export/apps/rDock/src/rDock_2013.1_src/data/scripts/dock_solv.prm

>  <Rbt.Receptor>
prm/pocket_docking_5.prm

>  <SCORE>
-1.7816

>  <SCORE.INTER>
-0.89072

>  <SCORE.INTER.CONST>
1

>  <SCORE.INTER.POLAR>
0

>  <SCORE.INTER.ROT>
6

>  <SCORE.INTER.SOLV>
1.17725

>  <SCORE.INTER.VDW>
-8.58623

>  <SCORE.INTER.norm>
-0.0307145

>  <SCORE.INTRA>
-0.89088

>  <SCORE.INTRA.DIHEDRAL>
0.00245963

>  <SCORE.INTRA.DIHEDRAL.0>
7.2424

>  <SCORE.INTRA.POLAR>
0

>  <SCORE.INTRA.POLAR.0>
0

>  <SCORE.INTRA.REPUL>
0

>  <SCORE.INTRA.REPUL.0>
0

>  <SCORE.INTRA.SOLV>
-0.0190729

>  <SCORE.INTRA.SOLV.lig_0>
-3.36201

>  <SCORE.INTRA.VDW>
-0.882573

>  <SCORE.INTRA.VDW.0>
-0.910526

>  <SCORE.INTRA.norm>
-0.03072

>  <SCORE.RESTR>
0

>  <SCORE.RESTR.CAVITY>
0

>  <SCORE.RESTR.norm>
0

>  <SCORE.SYSTEM>
0

>  <SCORE.SYSTEM.CONST>
0

>  <SCORE.SYSTEM.DIHEDRAL>
0

>  <SCORE.SYSTEM.SOLV>
0

>  <SCORE.SYSTEM.norm>
0

>  <SCORE.heavy>
29

>  <SCORE.norm>
-0.0614345

>  <RMSD>
4.308

$$$$
ligand
 OpenBabel11021811503D
libRbt.so/2013.1/901 2013/11/27
 29 32  0  0  0  0  0  0  0  0999 V2000
   41.0182   41.6048   42.9192 C   0  0  0  0  0  0  0  0  0  0  0  0
   51.2195   47.2674   45.3200 C   0  0  0  0  0  0  0  0  0  0  0  0
   51.6644   46.9406   46.6080 C   0  0  0  0  0  0  0  0  0  0  0  0
   51.0299   45.9978   47.3392 C   0  0  0  0  0  0  0  0  0  0  0  0
   49.8882   45.4106   46.8110 C   0  0  0  0  0  0  0  0  0  0  0  0
   49.5108   45.7075   45.5281 C   0  0  0  0  0  0  0  0  0  0  0  0
   48.4097   45.0845   44.7968 C   0  0  0  0  0  0  0  0  0  0  0  0
   47.4950   43.2021   43.7813 C   0  0  0  0  0  0  0  0  0  0  0  0
   47.5414   43.3918   42.4143 C   0  0  0  0  0  0  0  0  0  0  0  0
   46.5148   42.8695   41.6253 C   0  0  0  0  0  0  0  0  0  0  0  0
   45.5169   42.0913   42.1514 C   0  0  0  0  0  0  0  0  0  0  0  0
   45.5052   41.9099   43.5513 C   0  0  0  0  0  0  0  0  0  0  0  0
   46.4542   42.5121   44.3697 C   0  0  0  0  0  0  0  0  0  0  0  0
   44.4805   41.4004   41.2678 C   0  0  0  0  0  0  0  0  0  0  0  0
   43.2067   41.0254   42.0125 C   0  0  0  0  0  0  0  0  0  0  0  0
   42.1887   41.9143   42.2457 C   0  0  0  0  0  0  0  0  0  0  0  0
   40.8798   40.3150   43.3573 C   0  0  0  0  0  0  0  0  0  0  0  0
   41.8827   39.4367   43.1353 C   0  0  0  0  0  0  0  0  0  0  0  0
   43.0521   39.7504   42.4800 C   0  0  0  0  0  0  0  0  0  0  0  0
   38.7196   39.4650   43.3234 C   0  0  0  0  0  0  0  0  0  0  0  0
   37.4862   39.1054   43.9904 C   0  0  0  0  0  0  0  0  0  0  0  0
   36.2243   39.6390   43.6987 C   0  0  0  0  0  0  0  0  0  0  0  0
   35.1466   39.2001   44.4404 C   0  0  0  0  0  0  0  0  0  0  0  0
   35.3642   38.2325   45.4086 C   0  0  0  0  0  0  0  0  0  0  0  0
   36.6309   37.7647   45.6839 C   0  0  0  0  0  0  0  0  0  0  0  0
   50.1502   46.6512   44.7887 N   0  0  0  0  0  0  0  0  0  0  0  0
   48.5313   43.7981   44.6134 N   0  0  0  0  0  0  0  0  0  0  0  0
   39.6799   39.8736   44.0759 N   0  0  0  0  0  0  0  0  0  0  0  0
   37.6684   38.1622   44.9629 N   0  0  0  0  0  0  0  0  0  0  0  0
  1 17  2  0  0  0  0
  1 16  1  0  0  0  0
  2  3  2  0  0  0  0
  2 26  1  0  0  0  0
  3  4  1  0  0  0  0
  4  5  2  0  0  0  0
  5  6  1  0  0  0  0
  6  7  1  0  0  0  0
  6 26  2  0  0  0  0
  7 27  2  0  0  0  0
  8  9  2  0  0  0  0
  8 13  1  0  0  0  0
  8 27  1  0  0  0  0
  9 10  1  0  0  0  0
 10 11  2  0  0  0  0
 11 12  1  0  0  0  0
 11 14  1  0  0  0  0
 12 13  2  0  0  0  0
 14 15  1  0  0  0  0
 15 16  2  0  0  0  0
 15 19  1  0  0  0  0
 17 18  1  0  0  0  0
 17 28  1  0  0  0  0
 18 19  2  0  0  0  0
 20 21  1  0  0  0  0
 20 28  2  0  0  0  0
 21 22  2  0  0  0  0
 21 29  1  0  0  0  0
 22 23  1  0  0  0  0
 23 24  2  0  0  0  0
 24 25  1  0  0  0  0
 25 29  2  0  0  0  0
M  END
>  <CHROM.1>
-61.35868142,-158.97377029,82.25966165,124.69648097,75.74452309,87.62936413
43.90242774,42.05833034,44.02192320,-2.91566806,0.44251090,1.24271948

>  <Name>
ligand

>  <RI>
0

>  <Rbt.Current_Directory>
/home/itssahil/PROJECTS/Mol_Feturizer/New_Systems/rnas/4JIY

>  <Rbt.Executable>
rbdock ($Id: //depot/dev/client3/rdock/2013.1/src/exe/rbdock.cxx#4 $)

>  <Rbt.Library>
libRbt.so (2013.1, Build901 2013/11/27)

>  <Rbt.Parameter_File>
/export/apps/rDock/src/rDock_2013.1_src/data/scripts/dock_solv.prm

>  <Rbt.Receptor>
prm/pocket_docking_5.prm

>  <SCORE>
-1.41456

>  <SCORE.INTER>
-0.750064

>  <SCORE.INTER.CONST>
1

>  <SCORE.INTER.POLAR>
0

>  <SCORE.INTER.ROT>
6

>  <SCORE.INTER.SOLV>
1.13327

>  <SCORE.INTER.VDW>
-8.4778

>  <SCORE.INTER.norm>
-0.0258643

>  <SCORE.INTRA>
-0.664493

>  <SCORE.INTRA.DIHEDRAL>
0.401635

>  <SCORE.INTRA.DIHEDRAL.0>
7.2424

>  <SCORE.INTRA.POLAR>
0

>  <SCORE.INTRA.POLAR.0>
0

>  <SCORE.INTRA.REPUL>
0

>  <SCORE.INTRA.REPUL.0>
0

>  <SCORE.INTRA.SOLV>
-0.0162136

>  <SCORE.INTRA.SOLV.lig_0>
-3.36201

>  <SCORE.INTRA.VDW>
-0.857204

>  <SCORE.INTRA.VDW.0>
-0.910526

>  <SCORE.INTRA.norm>
-0.0229136

>  <SCORE.RESTR>
0

>  <SCORE.RESTR.CAVITY>
0

>  <SCORE.RESTR.norm>
0

>  <SCORE.SYSTEM>
0

>  <SCORE.SYSTEM.CONST>
0

>  <SCORE.SYSTEM.DIHEDRAL>
0

>  <SCORE.SYSTEM.SOLV>
0

>  <SCORE.SYSTEM.norm>
0

>  <SCORE.heavy>
29

>  <SCORE.norm>
-0.0487778

>  <RMSD>
4.310

$$$$
ligand
 OpenBabel11021811503D
libRbt.so/2013.1/901 2013/11/27
 29 32  0  0  0  0  0  0  0  0999 V2000
   47.5815   43.3564   42.3983 C   0  0  0  0  0  0  0  0  0  0  0  0
   36.3490   37.6002   45.2885 C   0  0  0  0  0  0  0  0  0  0  0  0
   35.2963   38.5082   45.4643 C   0  0  0  0  0  0  0  0  0  0  0  0
   35.3843   39.7686   44.9848 C   0  0  0  0  0  0  0  0  0  0  0  0
   36.5678   40.1614   44.3746 C   0  0  0  0  0  0  0  0  0  0  0  0
   37.5563   39.2366   44.1656 C   0  0  0  0  0  0  0  0  0  0  0  0
   38.8007   39.4681   43.4354 C   0  0  0  0  0  0  0  0  0  0  0  0
   40.9375   40.3848   43.3650 C   0  0  0  0  0  0  0  0  0  0  0  0
   41.0307   41.6348   42.7856 C   0  0  0  0  0  0  0  0  0  0  0  0
   42.1491   41.9356   42.0060 C   0  0  0  0  0  0  0  0  0  0  0  0
   43.2020   41.0676   41.8787 C   0  0  0  0  0  0  0  0  0  0  0  0
   43.0777   39.8022   42.4919 C   0  0  0  0  0  0  0  0  0  0  0  0
   41.9259   39.4390   43.1806 C   0  0  0  0  0  0  0  0  0  0  0  0
   44.4857   41.4565   41.1484 C   0  0  0  0  0  0  0  0  0  0  0  0
   45.5382   42.0681   42.0626 C   0  0  0  0  0  0  0  0  0  0  0  0
   46.6077   42.7875   41.5937 C   0  0  0  0  0  0  0  0  0  0  0  0
   47.4387   43.1938   43.7503 C   0  0  0  0  0  0  0  0  0  0  0  0
   46.3899   42.4806   44.2170 C   0  0  0  0  0  0  0  0  0  0  0  0
   45.4321   41.9022   43.4151 C   0  0  0  0  0  0  0  0  0  0  0  0
   48.2826   45.0219   44.9062 C   0  0  0  0  0  0  0  0  0  0  0  0
   49.2745   45.6331   45.7652 C   0  0  0  0  0  0  0  0  0  0  0  0
   49.3673   45.4492   47.1508 C   0  0  0  0  0  0  0  0  0  0  0  0
   50.3650   46.1191   47.8292 C   0  0  0  0  0  0  0  0  0  0  0  0
   51.2405   46.9088   47.1008 C   0  0  0  0  0  0  0  0  0  0  0  0
   51.0859   47.0875   45.7430 C   0  0  0  0  0  0  0  0  0  0  0  0
   37.4684   37.9672   44.6421 N   0  0  0  0  0  0  0  0  0  0  0  0
   39.7438   40.0464   44.1278 N   0  0  0  0  0  0  0  0  0  0  0  0
   48.4061   43.7584   44.6971 N   0  0  0  0  0  0  0  0  0  0  0  0
   50.1462   46.4316   45.0789 N   0  0  0  0  0  0  0  0  0  0  0  0
  1 17  2  0  0  0  0
  1 16  1  0  0  0  0
  2  3  2  0  0  0  0
  2 26  1  0  0  0  0
  3  4  1  0  0  0  0
  4  5  2  0  0  0  0
  5  6  1  0  0  0  0
  6  7  1  0  0  0  0
  6 26  2  0  0  0  0
  7 27  2  0  0  0  0
  8  9  2  0  0  0  0
  8 13  1  0  0  0  0
  8 27  1  0  0  0  0
  9 10  1  0  0  0  0
 10 11  2  0  0  0  0
 11 12  1  0  0  0  0
 11 14  1  0  0  0  0
 12 13  2  0  0  0  0
 14 15  1  0  0  0  0
 15 16  2  0  0  0  0
 15 19  1  0  0  0  0
 17 18  1  0  0  0  0
 17 28  1  0  0  0  0
 18 19  2  0  0  0  0
 20 21  1  0  0  0  0
 20 28  2  0  0  0  0
 21 22  2  0  0  0  0
 21 29  1  0  0  0  0
 22 23  1  0  0  0  0
 23 24  2  0  0  0  0
 24 25  1  0  0  0  0
 25 29  2  0  0  0  0
M  END
>  <CHROM.1>
81.88324795,90.83356328,-163.06015578,-71.54753238,91.78181763,77.64024722
43.83655240,42.08863794,44.10068639,-0.26134422,-0.42239105,-1.95710127

>  <Name>
ligand

>  <RI>
0

>  <Rbt.Current_Directory>
/home/itssahil/PROJECTS/Mol_Feturizer/New_Systems/rnas/4JIY

>  <Rbt.Executable>
rbdock ($Id: //depot/dev/client3/rdock/2013.1/src/exe/rbdock.cxx#4 $)

>  <Rbt.Library>
libRbt.so (2013.1, Build901 2013/11/27)

>  <Rbt.Parameter_File>
/export/apps/rDock/src/rDock_2013.1_src/data/scripts/dock_solv.prm

>  <Rbt.Receptor>
prm/pocket_docking_5.prm

>  <SCORE>
-1.70466

>  <SCORE.INTER>
-0.901341

>  <SCORE.INTER.CONST>
1

>  <SCORE.INTER.POLAR>
0

>  <SCORE.INTER.ROT>
6

>  <SCORE.INTER.SOLV>
1.06709

>  <SCORE.INTER.VDW>
-8.55659

>  <SCORE.INTER.norm>
-0.0310807

>  <SCORE.INTRA>
-0.80503

>  <SCORE.INTRA.DIHEDRAL>
0.116825

>  <SCORE.INTRA.DIHEDRAL.0>
7.2424

>  <SCORE.INTRA.POLAR>
0

>  <SCORE.INTRA.POLAR.0>
0

>  <SCORE.INTRA.REPUL>
0

>  <SCORE.INTRA.REPUL.0>
0

>  <SCORE.INTRA.SOLV>
-0.0184743

>  <SCORE.INTRA.SOLV.lig_0>
-3.36201

>  <SCORE.INTRA.VDW>
-0.854205

>  <SCORE.INTRA.VDW.0>
-0.910526

>  <SCORE.INTRA.norm>
-0.0277596

>  <SCORE.RESTR>
0.00170831

>  <SCORE.RESTR.CAVITY>
0.00170831

>  <SCORE.RESTR.norm>
5.89072e-05

>  <SCORE.SYSTEM>
0

>  <SCORE.SYSTEM.CONST>
0

>  <SCORE.SYSTEM.DIHEDRAL>
0

>  <SCORE.SYSTEM.SOLV>
0

>  <SCORE.SYSTEM.norm>
0

>  <SCORE.heavy>
29

>  <SCORE.norm>
-0.0587815

>  <RMSD>
4.343

$$$$
ligand
 OpenBabel11021811503D
libRbt.so/2013.1/901 2013/11/27
 29 32  0  0  0  0  0  0  0  0999 V2000
   41.9736   39.1598   43.1846 C   0  0  0  0  0  0  0  0  0  0  0  0
   50.8702   47.3834   45.6605 C   0  0  0  0  0  0  0  0  0  0  0  0
   51.4197   46.9803   46.8849 C   0  0  0  0  0  0  0  0  0  0  0  0
   50.9158   45.9185   47.5518 C   0  0  0  0  0  0  0  0  0  0  0  0
   49.7995   45.2799   47.0288 C   0  0  0  0  0  0  0  0  0  0  0  0
   49.3201   45.6590   45.8030 C   0  0  0  0  0  0  0  0  0  0  0  0
   48.2350   45.0076   45.0725 C   0  0  0  0  0  0  0  0  0  0  0  0
   47.4725   43.2117   43.8059 C   0  0  0  0  0  0  0  0  0  0  0  0
   47.5191   43.3963   42.4382 C   0  0  0  0  0  0  0  0  0  0  0  0
   46.4916   42.8729   41.6512 C   0  0  0  0  0  0  0  0  0  0  0  0
   45.4924   42.0983   42.1802 C   0  0  0  0  0  0  0  0  0  0  0  0
   45.4805   41.9219   43.5807 C   0  0  0  0  0  0  0  0  0  0  0  0
   46.4305   42.5255   44.3968 C   0  0  0  0  0  0  0  0  0  0  0  0
   44.4548   41.4059   41.2991 C   0  0  0  0  0  0  0  0  0  0  0  0
   43.2327   40.9259   42.0698 C   0  0  0  0  0  0  0  0  0  0  0  0
   43.0724   39.6278   42.4824 C   0  0  0  0  0  0  0  0  0  0  0  0
   41.0024   40.0740   43.4935 C   0  0  0  0  0  0  0  0  0  0  0  0
   41.1528   41.3531   43.0840 C   0  0  0  0  0  0  0  0  0  0  0  0
   42.2378   41.8128   42.3722 C   0  0  0  0  0  0  0  0  0  0  0  0
   38.8656   39.1665   43.5263 C   0  0  0  0  0  0  0  0  0  0  0  0
   37.6276   38.8582   44.2101 C   0  0  0  0  0  0  0  0  0  0  0  0
   37.4997   37.9788   45.2930 C   0  0  0  0  0  0  0  0  0  0  0  0
   36.2414   37.7814   45.8239 C   0  0  0  0  0  0  0  0  0  0  0  0
   35.1798   38.4879   45.2812 C   0  0  0  0  0  0  0  0  0  0  0  0
   35.3498   39.3145   44.1916 C   0  0  0  0  0  0  0  0  0  0  0  0
   49.8283   46.7230   45.1278 N   0  0  0  0  0  0  0  0  0  0  0  0
   48.5099   43.8089   44.6357 N   0  0  0  0  0  0  0  0  0  0  0  0
   39.7987   39.6919   44.2394 N   0  0  0  0  0  0  0  0  0  0  0  0
   36.5564   39.5285   43.6889 N   0  0  0  0  0  0  0  0  0  0  0  0
  1 17  2  0  0  0  0
  1 16  1  0  0  0  0
  2  3  2  0  0  0  0
  2 26  1  0  0  0  0
  3  4  1  0  0  0  0
  4  5  2  0  0  0  0
  5  6  1  0  0  0  0
  6  7  1  0  0  0  0
  6 26  2  0  0  0  0
  7 27  2  0  0  0  0
  8  9  2  0  0  0  0
  8 13  1  0  0  0  0
  8 27  1  0  0  0  0
  9 10  1  0  0  0  0
 10 11  2  0  0  0  0
 11 12  1  0  0  0  0
 11 14  1  0  0  0  0
 12 13  2  0  0  0  0
 14 15  1  0  0  0  0
 15 16  2  0  0  0  0
 15 19  1  0  0  0  0
 17 18  1  0  0  0  0
 17 28  1  0  0  0  0
 18 19  2  0  0  0  0
 20 21  1  0  0  0  0
 20 28  2  0  0  0  0
 21 22  2  0  0  0  0
 21 29  1  0  0  0  0
 22 23  1  0  0  0  0
 23 24  2  0  0  0  0
 24 25  1  0  0  0  0
 25 29  2  0  0  0  0
M  END
>  <CHROM.1>
-68.17061146,-164.06144284,-98.90661719,-60.25033563,90.95320761,-82.37093873
43.86047713,42.00534777,44.13120370,-2.88633169,0.44144746,1.20800749

>  <Name>
ligand

>  <RI>
0

>  <Rbt.Current_Directory>
/home/itssahil/PROJECTS/Mol_Feturizer/New_Systems/rnas/4JIY

>  <Rbt.Executable>
rbdock ($Id: //depot/dev/client3/rdock/2013.1/src/exe/rbdock.cxx#4 $)

>  <Rbt.Library>
libRbt.so (2013.1, Build901 2013/11/27)

>  <Rbt.Parameter_File>
/export/apps/rDock/src/rDock_2013.1_src/data/scripts/dock_solv.prm

>  <Rbt.Receptor>
prm/pocket_docking_5.prm

>  <SCORE>
-1.79256

>  <SCORE.INTER>
-0.854825

>  <SCORE.INTER.CONST>
1

>  <SCORE.INTER.POLAR>
0

>  <SCORE.INTER.ROT>
6

>  <SCORE.INTER.SOLV>
1.19586

>  <SCORE.INTER.VDW>
-8.5685

>  <SCORE.INTER.norm>
-0.0294767

>  <SCORE.INTRA>
-0.937734

>  <SCORE.INTRA.DIHEDRAL>
0.0163319

>  <SCORE.INTRA.DIHEDRAL.0>
7.2424

>  <SCORE.INTRA.POLAR>
0

>  <SCORE.INTRA.POLAR.0>
0

>  <SCORE.INTRA.REPUL>
0

>  <SCORE.INTRA.REPUL.0>
0

>  <SCORE.INTRA.SOLV>
-0.0190919

>  <SCORE.INTRA.SOLV.lig_0>
-3.36201

>  <SCORE.INTRA.VDW>
-0.936354

>  <SCORE.INTRA.VDW.0>
-0.910526

>  <SCORE.INTRA.norm>
-0.0323356

>  <SCORE.RESTR>
0

>  <SCORE.RESTR.CAVITY>
0

>  <SCORE.RESTR.norm>
0

>  <SCORE.SYSTEM>
0

>  <SCORE.SYSTEM.CONST>
0

>  <SCORE.SYSTEM.DIHEDRAL>
0

>  <SCORE.SYSTEM.SOLV>
0

>  <SCORE.SYSTEM.norm>
0

>  <SCORE.heavy>
29

>  <SCORE.norm>
-0.0618124

>  <RMSD>
4.373

$$$$
ligand
 OpenBabel11021811503D
libRbt.so/2013.1/901 2013/11/27
 29 32  0  0  0  0  0  0  0  0999 V2000
   45.5107   41.8169   42.2671 C   0  0  0  0  0  0  0  0  0  0  0  0
   35.8729   36.1240   43.6661 C   0  0  0  0  0  0  0  0  0  0  0  0
   36.2253   34.8442   44.1148 C   0  0  0  0  0  0  0  0  0  0  0  0
   37.4145   34.2977   43.7782 C   0  0  0  0  0  0  0  0  0  0  0  0
   38.2479   35.0059   42.9231 C   0  0  0  0  0  0  0  0  0  0  0  0
   37.9031   36.2773   42.5477 C   0  0  0  0  0  0  0  0  0  0  0  0
   38.7282   37.1861   41.7548 C   0  0  0  0  0  0  0  0  0  0  0  0
   40.6267   38.5176   41.5706 C   0  0  0  0  0  0  0  0  0  0  0  0
   40.3236   39.8539   41.7424 C   0  0  0  0  0  0  0  0  0  0  0  0
   41.0170   40.8051   40.9918 C   0  0  0  0  0  0  0  0  0  0  0  0
   42.0550   40.4635   40.1646 C   0  0  0  0  0  0  0  0  0  0  0  0
   42.3443   39.0895   40.0197 C   0  0  0  0  0  0  0  0  0  0  0  0
   41.5949   38.1168   40.6719 C   0  0  0  0  0  0  0  0  0  0  0  0
   42.9063   41.5173   39.4594 C   0  0  0  0  0  0  0  0  0  0  0  0
   44.1319   41.9367   40.2592 C   0  0  0  0  0  0  0  0  0  0  0  0
   44.4054   41.4557   41.5141 C   0  0  0  0  0  0  0  0  0  0  0  0
   46.3863   42.7005   41.6950 C   0  0  0  0  0  0  0  0  0  0  0  0
   46.1182   43.1822   40.4611 C   0  0  0  0  0  0  0  0  0  0  0  0
   45.0108   42.8344   39.7209 C   0  0  0  0  0  0  0  0  0  0  0  0
   47.3824   43.6705   43.5544 C   0  0  0  0  0  0  0  0  0  0  0  0
   48.5391   44.2054   44.2409 C   0  0  0  0  0  0  0  0  0  0  0  0
   48.5133   44.8582   45.4801 C   0  0  0  0  0  0  0  0  0  0  0  0
   49.7063   45.3250   45.9929 C   0  0  0  0  0  0  0  0  0  0  0  0
   50.8677   45.0936   45.2729 C   0  0  0  0  0  0  0  0  0  0  0  0
   50.8373   44.4786   44.0399 C   0  0  0  0  0  0  0  0  0  0  0  0
   36.7103   36.8313   42.8889 N   0  0  0  0  0  0  0  0  0  0  0  0
   39.8631   37.5192   42.3064 N   0  0  0  0  0  0  0  0  0  0  0  0
   47.5934   43.1479   42.3978 N   0  0  0  0  0  0  0  0  0  0  0  0
   49.7012   44.0066   43.5492 N   0  0  0  0  0  0  0  0  0  0  0  0
  1 17  2  0  0  0  0
  1 16  1  0  0  0  0
  2  3  2  0  0  0  0
  2 26  1  0  0  0  0
  3  4  1  0  0  0  0
  4  5  2  0  0  0  0
  5  6  1  0  0  0  0
  6  7  1  0  0  0  0
  6 26  2  0  0  0  0
  7 27  2  0  0  0  0
  8  9  2  0  0  0  0
  8 13  1  0  0  0  0
  8 27  1  0  0  0  0
  9 10  1  0  0  0  0
 10 11  2  0  0  0  0
 11 12  1  0  0  0  0
 11 14  1  0  0  0  0
 12 13  2  0  0  0  0
 14 15  1  0  0  0  0
 15 16  2  0  0  0  0
 15 19  1  0  0  0  0
 17 18  1  0  0  0  0
 17 28  1  0  0  0  0
 18 19  2  0  0  0  0
 20 21  1  0  0  0  0
 20 28  2  0  0  0  0
 21 22  2  0  0  0  0
 21 29  1  0  0  0  0
 22 23  1  0  0  0  0
 23 24  2  0  0  0  0
 24 25  1  0  0  0  0
 25 29  2  0  0  0  0
M  END
>  <CHROM.1>
-62.21587589,91.05870201,-2.75269570,177.42568413,83.21418515,-55.53450960
43.32803182,40.52459688,42.37505744,0.07515278,-0.62354742,-1.30723932

>  <Name>
ligand

>  <RI>
0

>  <Rbt.Current_Directory>
/home/itssahil/PROJECTS/Mol_Feturizer/New_Systems/rnas/4JIY

>  <Rbt.Executable>
rbdock ($Id: //depot/dev/client3/rdock/2013.1/src/exe/rbdock.cxx#4 $)

>  <Rbt.Library>
libRbt.so (2013.1, Build901 2013/11/27)

>  <Rbt.Parameter_File>
/export/apps/rDock/src/rDock_2013.1_src/data/scripts/dock_solv.prm

>  <Rbt.Receptor>
prm/pocket_docking_5.prm

>  <SCORE>
-1.03873

>  <SCORE.INTER>
-0.730009

>  <SCORE.INTER.CONST>
1

>  <SCORE.INTER.POLAR>
0

>  <SCORE.INTER.ROT>
6

>  <SCORE.INTER.SOLV>
1.47341

>  <SCORE.INTER.VDW>
-8.57781

>  <SCORE.INTER.norm>
-0.0251727

>  <SCORE.INTRA>
-0.310883

>  <SCORE.INTRA.DIHEDRAL>
-0.0592842

>  <SCORE.INTRA.DIHEDRAL.0>
7.2424

>  <SCORE.INTRA.POLAR>
0

>  <SCORE.INTRA.POLAR.0>
0

>  <SCORE.INTRA.REPUL>
0

>  <SCORE.INTRA.REPUL.0>
0

>  <SCORE.INTRA.SOLV>
-0.00924583

>  <SCORE.INTRA.SOLV.lig_0>
-3.36201

>  <SCORE.INTRA.VDW>
-0.276618

>  <SCORE.INTRA.VDW.0>
-0.910526

>  <SCORE.INTRA.norm>
-0.0107201

>  <SCORE.RESTR>
0.00216643

>  <SCORE.RESTR.CAVITY>
0.00216643

>  <SCORE.RESTR.norm>
7.47045e-05

>  <SCORE.SYSTEM>
0

>  <SCORE.SYSTEM.CONST>
0

>  <SCORE.SYSTEM.DIHEDRAL>
0

>  <SCORE.SYSTEM.SOLV>
0

>  <SCORE.SYSTEM.norm>
0

>  <SCORE.heavy>
29

>  <SCORE.norm>
-0.0358181

>  <RMSD>
4.427

$$$$
ligand
 OpenBabel11021811503D
libRbt.so/2013.1/901 2013/11/27
 29 32  0  0  0  0  0  0  0  0999 V2000
   46.4773   42.2856   42.5815 C   0  0  0  0  0  0  0  0  0  0  0  0
   34.6445   42.3119   40.5175 C   0  0  0  0  0  0  0  0  0  0  0  0
   34.1156   42.4108   41.8113 C   0  0  0  0  0  0  0  0  0  0  0  0
   34.9147   42.2936   42.8948 C   0  0  0  0  0  0  0  0  0  0  0  0
   36.2582   42.0058   42.6959 C   0  0  0  0  0  0  0  0  0  0  0  0
   36.7575   41.9723   41.4208 C   0  0  0  0  0  0  0  0  0  0  0  0
   38.1631   41.8022   41.0592 C   0  0  0  0  0  0  0  0  0  0  0  0
   40.2859   42.7169   40.7984 C   0  0  0  0  0  0  0  0  0  0  0  0
   40.6209   43.2329   39.5620 C   0  0  0  0  0  0  0  0  0  0  0  0
   41.9210   43.0540   39.0859 C   0  0  0  0  0  0  0  0  0  0  0  0
   42.9007   42.4709   39.8465 C   0  0  0  0  0  0  0  0  0  0  0  0
   42.5259   41.9632   41.1092 C   0  0  0  0  0  0  0  0  0  0  0  0
   41.2119   42.0309   41.5584 C   0  0  0  0  0  0  0  0  0  0  0  0
   44.3544   42.4094   39.3825 C   0  0  0  0  0  0  0  0  0  0  0  0
   45.3519   42.7728   40.4737 C   0  0  0  0  0  0  0  0  0  0  0  0
   45.5776   41.9835   41.5722 C   0  0  0  0  0  0  0  0  0  0  0  0
   47.1924   43.4452   42.4453 C   0  0  0  0  0  0  0  0  0  0  0  0
   46.9693   44.2296   41.3676 C   0  0  0  0  0  0  0  0  0  0  0  0
   46.0631   43.9357   40.3738 C   0  0  0  0  0  0  0  0  0  0  0  0
   49.3461   44.1263   42.9819 C   0  0  0  0  0  0  0  0  0  0  0  0
   50.3693   44.4542   43.9520 C   0  0  0  0  0  0  0  0  0  0  0  0
   50.1493   45.1178   45.1659 C   0  0  0  0  0  0  0  0  0  0  0  0
   51.2385   45.3698   45.9748 C   0  0  0  0  0  0  0  0  0  0  0  0
   52.4835   44.9237   45.5602 C   0  0  0  0  0  0  0  0  0  0  0  0
   52.6551   44.3073   44.3396 C   0  0  0  0  0  0  0  0  0  0  0  0
   35.9572   42.0950   40.3297 N   0  0  0  0  0  0  0  0  0  0  0  0
   38.9146   42.8480   41.2712 N   0  0  0  0  0  0  0  0  0  0  0  0
   48.1771   43.8615   43.4494 N   0  0  0  0  0  0  0  0  0  0  0  0
   51.6136   44.0404   43.5661 N   0  0  0  0  0  0  0  0  0  0  0  0
  1 17  2  0  0  0  0
  1 16  1  0  0  0  0
  2  3  2  0  0  0  0
  2 26  1  0  0  0  0
  3  4  1  0  0  0  0
  4  5  2  0  0  0  0
  5  6  1  0  0  0  0
  6  7  1  0  0  0  0
  6 26  2  0  0  0  0
  7 27  2  0  0  0  0
  8  9  2  0  0  0  0
  8 13  1  0  0  0  0
  8 27  1  0  0  0  0
  9 10  1  0  0  0  0
 10 11  2  0  0  0  0
 11 12  1  0  0  0  0
 11 14  1  0  0  0  0
 12 13  2  0  0  0  0
 14 15  1  0  0  0  0
 15 16  2  0  0  0  0
 15 19  1  0  0  0  0
 17 18  1  0  0  0  0
 17 28  1  0  0  0  0
 18 19  2  0  0  0  0
 20 21  1  0  0  0  0
 20 28  2  0  0  0  0
 21 22  2  0  0  0  0
 21 29  1  0  0  0  0
 22 23  1  0  0  0  0
 23 24  2  0  0  0  0
 24 25  1  0  0  0  0
 25 29  2  0  0  0  0
M  END
>  <CHROM.1>
-73.73381060,135.41711113,68.73464505,-32.46299189,96.58256024,126.99769484
43.70021187,43.11687591,41.96046481,-0.22458317,-0.10672369,-1.77830080

>  <Name>
ligand

>  <RI>
0

>  <Rbt.Current_Directory>
/home/itssahil/PROJECTS/Mol_Feturizer/New_Systems/rnas/4JIY

>  <Rbt.Executable>
rbdock ($Id: //depot/dev/client3/rdock/2013.1/src/exe/rbdock.cxx#4 $)

>  <Rbt.Library>
libRbt.so (2013.1, Build901 2013/11/27)

>  <Rbt.Parameter_File>
/export/apps/rDock/src/rDock_2013.1_src/data/scripts/dock_solv.prm

>  <Rbt.Receptor>
prm/pocket_docking_5.prm

>  <SCORE>
-0.209205

>  <SCORE.INTER>
0.0864829

>  <SCORE.INTER.CONST>
1

>  <SCORE.INTER.POLAR>
0

>  <SCORE.INTER.ROT>
6

>  <SCORE.INTER.SOLV>
1.64129

>  <SCORE.INTER.VDW>
-8.08944

>  <SCORE.INTER.norm>
0.00298217

>  <SCORE.INTRA>
-0.298137

>  <SCORE.INTRA.DIHEDRAL>
0.441415

>  <SCORE.INTRA.DIHEDRAL.0>
7.2424

>  <SCORE.INTRA.POLAR>
0

>  <SCORE.INTRA.POLAR.0>
0

>  <SCORE.INTRA.REPUL>
0

>  <SCORE.INTRA.REPUL.0>
0

>  <SCORE.INTRA.SOLV>
-0.0188377

>  <SCORE.INTRA.SOLV.lig_0>
-3.36201

>  <SCORE.INTRA.VDW>
-0.509426

>  <SCORE.INTRA.VDW.0>
-0.910526

>  <SCORE.INTRA.norm>
-0.0102806

>  <SCORE.RESTR>
0.00244896

>  <SCORE.RESTR.CAVITY>
0.00244896

>  <SCORE.RESTR.norm>
8.44468e-05

>  <SCORE.SYSTEM>
0

>  <SCORE.SYSTEM.CONST>
0

>  <SCORE.SYSTEM.DIHEDRAL>
0

>  <SCORE.SYSTEM.SOLV>
0

>  <SCORE.SYSTEM.norm>
0

>  <SCORE.heavy>
29

>  <SCORE.norm>
-0.00721398

>  <RMSD>
4.450

$$$$
ligand
 OpenBabel11021811503D
libRbt.so/2013.1/901 2013/11/27
 29 32  0  0  0  0  0  0  0  0999 V2000
   41.5022   42.1204   41.0890 C   0  0  0  0  0  0  0  0  0  0  0  0
   52.5722   46.2022   44.3175 C   0  0  0  0  0  0  0  0  0  0  0  0
   53.0881   46.6362   43.0890 C   0  0  0  0  0  0  0  0  0  0  0  0
   52.5398   46.2228   41.9251 C   0  0  0  0  0  0  0  0  0  0  0  0
   51.4984   45.3062   41.9750 C   0  0  0  0  0  0  0  0  0  0  0  0
   50.9777   44.9448   43.1893 C   0  0  0  0  0  0  0  0  0  0  0  0
   49.8115   44.0891   43.3970 C   0  0  0  0  0  0  0  0  0  0  0  0
   47.5622   43.6441   43.0050 C   0  0  0  0  0  0  0  0  0  0  0  0
   47.0859   43.6187   44.3009 C   0  0  0  0  0  0  0  0  0  0  0  0
   45.9764   42.8245   44.5967 C   0  0  0  0  0  0  0  0  0  0  0  0
   45.2857   42.1485   43.6250 C   0  0  0  0  0  0  0  0  0  0  0  0
   45.7946   42.2039   42.3094 C   0  0  0  0  0  0  0  0  0  0  0  0
   46.9615   42.8983   42.0108 C   0  0  0  0  0  0  0  0  0  0  0  0
   43.9885   41.4014   43.9275 C   0  0  0  0  0  0  0  0  0  0  0  0
   43.0931   41.2294   42.7083 C   0  0  0  0  0  0  0  0  0  0  0  0
   42.3264   42.2444   42.1956 C   0  0  0  0  0  0  0  0  0  0  0  0
   41.4794   40.8999   40.4690 C   0  0  0  0  0  0  0  0  0  0  0  0
   42.2285   39.8947   40.9739 C   0  0  0  0  0  0  0  0  0  0  0  0
   43.0345   40.0153   42.0834 C   0  0  0  0  0  0  0  0  0  0  0  0
   39.4076   40.4255   39.5349 C   0  0  0  0  0  0  0  0  0  0  0  0
   38.5729   40.0922   38.4001 C   0  0  0  0  0  0  0  0  0  0  0  0
   37.2837   39.5496   38.4768 C   0  0  0  0  0  0  0  0  0  0  0  0
   36.6244   39.2731   37.2964 C   0  0  0  0  0  0  0  0  0  0  0  0
   37.2577   39.5778   36.1019 C   0  0  0  0  0  0  0  0  0  0  0  0
   38.5420   40.0770   36.0773 C   0  0  0  0  0  0  0  0  0  0  0  0
   51.5236   45.3631   44.3611 N   0  0  0  0  0  0  0  0  0  0  0  0
   48.7560   44.4229   42.7057 N   0  0  0  0  0  0  0  0  0  0  0  0
   40.6484   40.6563   39.2852 N   0  0  0  0  0  0  0  0  0  0  0  0
   39.1748   40.3672   37.2041 N   0  0  0  0  0  0  0  0  0  0  0  0
  1 17  2  0  0  0  0
  1 16  1  0  0  0  0
  2  3  2  0  0  0  0
  2 26  1  0  0  0  0
  3  4  1  0  0  0  0
  4  5  2  0  0  0  0
  5  6  1  0  0  0  0
  6  7  1  0  0  0  0
  6 26  2  0  0  0  0
  7 27  2  0  0  0  0
  8  9  2  0  0  0  0
  8 13  1  0  0  0  0
  8 27  1  0  0  0  0
  9 10  1  0  0  0  0
 10 11  2  0  0  0  0
 11 12  1  0  0  0  0
 11 14  1  0  0  0  0
 12 13  2  0  0  0  0
 14 15  1  0  0  0  0
 15 16  2  0  0  0  0
 15 19  1  0  0  0  0
 17 18  1  0  0  0  0
 17 28  1  0  0  0  0
 18 19  2  0  0  0  0
 20 21  1  0  0  0  0
 20 28  2  0  0  0  0
 21 22  2  0  0  0  0
 21 29  1  0  0  0  0
 22 23  1  0  0  0  0
 23 24  2  0  0  0  0
 24 25  1  0  0  0  0
 25 29  2  0  0  0  0
M  END
>  <CHROM.1>
-49.83741893,155.73015345,-76.70746766,166.38451543,57.62488175,-80.21683698
44.64598255,42.35862838,41.40421320,2.84989253,-0.45753497,-1.38726154

>  <Name>
ligand

>  <RI>
0

>  <Rbt.Current_Directory>
/home/itssahil/PROJECTS/Mol_Feturizer/New_Systems/rnas/4JIY

>  <Rbt.Executable>
rbdock ($Id: //depot/dev/client3/rdock/2013.1/src/exe/rbdock.cxx#4 $)

>  <Rbt.Library>
libRbt.so (2013.1, Build901 2013/11/27)

>  <Rbt.Parameter_File>
/export/apps/rDock/src/rDock_2013.1_src/data/scripts/dock_solv.prm

>  <Rbt.Receptor>
prm/pocket_docking_5.prm

>  <SCORE>
-1.04233

>  <SCORE.INTER>
-0.906364

>  <SCORE.INTER.CONST>
1

>  <SCORE.INTER.POLAR>
0

>  <SCORE.INTER.ROT>
6

>  <SCORE.INTER.SOLV>
1.39413

>  <SCORE.INTER.VDW>
-8.66895

>  <SCORE.INTER.norm>
-0.0312539

>  <SCORE.INTRA>
-0.136616

>  <SCORE.INTRA.DIHEDRAL>
0.254404

>  <SCORE.INTRA.DIHEDRAL.0>
7.2424

>  <SCORE.INTRA.POLAR>
0

>  <SCORE.INTRA.POLAR.0>
0

>  <SCORE.INTRA.REPUL>
0

>  <SCORE.INTRA.REPUL.0>
0

>  <SCORE.INTRA.SOLV>
-0.0100224

>  <SCORE.INTRA.SOLV.lig_0>
-3.36201

>  <SCORE.INTRA.VDW>
-0.258807

>  <SCORE.INTRA.VDW.0>
-0.910526

>  <SCORE.INTRA.norm>
-0.0047109

>  <SCORE.RESTR>
0.000649827

>  <SCORE.RESTR.CAVITY>
0.000649827

>  <SCORE.RESTR.norm>
2.24078e-05

>  <SCORE.SYSTEM>
0

>  <SCORE.SYSTEM.CONST>
0

>  <SCORE.SYSTEM.DIHEDRAL>
0

>  <SCORE.SYSTEM.SOLV>
0

>  <SCORE.SYSTEM.norm>
0

>  <SCORE.heavy>
29

>  <SCORE.norm>
-0.0359424

>  <RMSD>
4.491

$$$$
ligand
 OpenBabel11021811503D
libRbt.so/2013.1/901 2013/11/27
 29 32  0  0  0  0  0  0  0  0999 V2000
   48.4687   44.1963   43.2728 C   0  0  0  0  0  0  0  0  0  0  0  0
   36.4948   39.2854   44.2170 C   0  0  0  0  0  0  0  0  0  0  0  0
   35.5124   40.1826   43.7770 C   0  0  0  0  0  0  0  0  0  0  0  0
   35.8455   41.2625   43.0361 C   0  0  0  0  0  0  0  0  0  0  0  0
   37.1895   41.4978   42.7796 C   0  0  0  0  0  0  0  0  0  0  0  0
   38.1213   40.5739   43.1725 C   0  0  0  0  0  0  0  0  0  0  0  0
   39.5504   40.6222   42.8714 C   0  0  0  0  0  0  0  0  0  0  0  0
   41.5669   41.7806   42.9222 C   0  0  0  0  0  0  0  0  0  0  0  0
   42.5421   41.2269   43.7281 C   0  0  0  0  0  0  0  0  0  0  0  0
   43.8822   41.3803   43.3682 C   0  0  0  0  0  0  0  0  0  0  0  0
   44.2561   41.9755   42.1917 C   0  0  0  0  0  0  0  0  0  0  0  0
   43.2331   42.5221   41.3872 C   0  0  0  0  0  0  0  0  0  0  0  0
   41.8999   42.4792   41.7791 C   0  0  0  0  0  0  0  0  0  0  0  0
   45.7118   42.0104   41.7310 C   0  0  0  0  0  0  0  0  0  0  0  0
   46.6475   42.6653   42.7376 C   0  0  0  0  0  0  0  0  0  0  0  0
   47.6028   43.5829   42.3821 C   0  0  0  0  0  0  0  0  0  0  0  0
   48.3334   43.8645   44.5942 C   0  0  0  0  0  0  0  0  0  0  0  0
   47.3976   42.9562   44.9489 C   0  0  0  0  0  0  0  0  0  0  0  0
   46.5489   42.3356   44.0603 C   0  0  0  0  0  0  0  0  0  0  0  0
   48.8297   45.6258   46.0231 C   0  0  0  0  0  0  0  0  0  0  0  0
   49.7011   46.2814   46.9750 C   0  0  0  0  0  0  0  0  0  0  0  0
   50.0242   45.7904   48.2465 C   0  0  0  0  0  0  0  0  0  0  0  0
   50.8603   46.5473   49.0417 C   0  0  0  0  0  0  0  0  0  0  0  0
   51.3616   47.7330   48.5281 C   0  0  0  0  0  0  0  0  0  0  0  0
   50.9853   48.1925   47.2845 C   0  0  0  0  0  0  0  0  0  0  0  0
   37.7884   39.4844   43.9130 N   0  0  0  0  0  0  0  0  0  0  0  0
   40.1717   41.6757   43.3269 N   0  0  0  0  0  0  0  0  0  0  0  0
   49.1916   44.4569   45.6256 N   0  0  0  0  0  0  0  0  0  0  0  0
   50.2018   47.4631   46.5045 N   0  0  0  0  0  0  0  0  0  0  0  0
  1 17  2  0  0  0  0
  1 16  1  0  0  0  0
  2  3  2  0  0  0  0
  2 26  1  0  0  0  0
  3  4  1  0  0  0  0
  4  5  2  0  0  0  0
  5  6  1  0  0  0  0
  6  7  1  0  0  0  0
  6 26  2  0  0  0  0
  7 27  2  0  0  0  0
  8  9  2  0  0  0  0
  8 13  1  0  0  0  0
  8 27  1  0  0  0  0
  9 10  1  0  0  0  0
 10 11  2  0  0  0  0
 11 12  1  0  0  0  0
 11 14  1  0  0  0  0
 12 13  2  0  0  0  0
 14 15  1  0  0  0  0
 15 16  2  0  0  0  0
 15 19  1  0  0  0  0
 17 18  1  0  0  0  0
 17 28  1  0  0  0  0
 18 19  2  0  0  0  0
 20 21  1  0  0  0  0
 20 28  2  0  0  0  0
 21 22  2  0  0  0  0
 21 29  1  0  0  0  0
 22 23  1  0  0  0  0
 23 24  2  0  0  0  0
 24 25  1  0  0  0  0
 25 29  2  0  0  0  0
M  END
>  <CHROM.1>
60.21232560,-57.14914381,-134.69740605,-60.52419123,-90.98034407,81.55210336
44.48214868,43.08949203,44.28933753,-0.42806093,-0.26803941,-2.04487231

>  <Name>
ligand

>  <RI>
0

>  <Rbt.Current_Directory>
/home/itssahil/PROJECTS/Mol_Feturizer/New_Systems/rnas/4JIY

>  <Rbt.Executable>
rbdock ($Id: //depot/dev/client3/rdock/2013.1/src/exe/rbdock.cxx#4 $)

>  <Rbt.Library>
libRbt.so (2013.1, Build901 2013/11/27)

>  <Rbt.Parameter_File>
/export/apps/rDock/src/rDock_2013.1_src/data/scripts/dock_solv.prm

>  <Rbt.Receptor>
prm/pocket_docking_5.prm

>  <SCORE>
0.125407

>  <SCORE.INTER>
0.847966

>  <SCORE.INTER.CONST>
1

>  <SCORE.INTER.POLAR>
0

>  <SCORE.INTER.ROT>
6

>  <SCORE.INTER.SOLV>
0.866285

>  <SCORE.INTER.VDW>
-7.32345

>  <SCORE.INTER.norm>
0.0292402

>  <SCORE.INTRA>
-0.724932

>  <SCORE.INTRA.DIHEDRAL>
-0.0960254

>  <SCORE.INTRA.DIHEDRAL.0>
7.2424

>  <SCORE.INTRA.POLAR>
0

>  <SCORE.INTRA.POLAR.0>
0

>  <SCORE.INTRA.REPUL>
0

>  <SCORE.INTRA.REPUL.0>
0

>  <SCORE.INTRA.SOLV>
-0.0204037

>  <SCORE.INTRA.SOLV.lig_0>
-3.36201

>  <SCORE.INTRA.VDW>
-0.666717

>  <SCORE.INTRA.VDW.0>
-0.910526

>  <SCORE.INTRA.norm>
-0.0249976

>  <SCORE.RESTR>
0.00237218

>  <SCORE.RESTR.CAVITY>
0.00237218

>  <SCORE.RESTR.norm>
8.17993e-05

>  <SCORE.SYSTEM>
0

>  <SCORE.SYSTEM.CONST>
0

>  <SCORE.SYSTEM.DIHEDRAL>
0

>  <SCORE.SYSTEM.SOLV>
0

>  <SCORE.SYSTEM.norm>
0

>  <SCORE.heavy>
29

>  <SCORE.norm>
0.00432437

>  <RMSD>
4.504

$$$$
ligand
 OpenBabel11021811503D
libRbt.so/2013.1/901 2013/11/27
 29 32  0  0  0  0  0  0  0  0999 V2000
   46.4145   42.4255   44.4244 C   0  0  0  0  0  0  0  0  0  0  0  0
   36.3641   39.3164   46.0332 C   0  0  0  0  0  0  0  0  0  0  0  0
   35.9534   37.9777   46.0856 C   0  0  0  0  0  0  0  0  0  0  0  0
   36.7423   36.9939   45.6001 C   0  0  0  0  0  0  0  0  0  0  0  0
   37.9372   37.3476   44.9881 C   0  0  0  0  0  0  0  0  0  0  0  0
   38.3391   38.6569   45.0032 C   0  0  0  0  0  0  0  0  0  0  0  0
   39.6182   39.1625   44.5096 C   0  0  0  0  0  0  0  0  0  0  0  0
   40.8146   40.3537   42.9093 C   0  0  0  0  0  0  0  0  0  0  0  0
   41.5211   39.4535   42.1364 C   0  0  0  0  0  0  0  0  0  0  0  0
   42.7756   39.8226   41.6475 C   0  0  0  0  0  0  0  0  0  0  0  0
   43.2843   41.0826   41.8263 C   0  0  0  0  0  0  0  0  0  0  0  0
   42.5315   41.9807   42.6134 C   0  0  0  0  0  0  0  0  0  0  0  0
   41.3315   41.5995   43.2031 C   0  0  0  0  0  0  0  0  0  0  0  0
   44.5873   41.5289   41.1666 C   0  0  0  0  0  0  0  0  0  0  0  0
   45.5924   42.1124   42.1499 C   0  0  0  0  0  0  0  0  0  0  0  0
   45.5168   41.9092   43.5041 C   0  0  0  0  0  0  0  0  0  0  0  0
   47.4497   43.1708   43.9268 C   0  0  0  0  0  0  0  0  0  0  0  0
   47.5253   43.3791   42.5937 C   0  0  0  0  0  0  0  0  0  0  0  0
   46.6231   42.8786   41.6822 C   0  0  0  0  0  0  0  0  0  0  0  0
   48.1404   44.8985   45.3154 C   0  0  0  0  0  0  0  0  0  0  0  0
   49.1495   45.5553   46.1189 C   0  0  0  0  0  0  0  0  0  0  0  0
   49.7025   45.0426   47.2995 C   0  0  0  0  0  0  0  0  0  0  0  0
   50.6469   45.8035   47.9578 C   0  0  0  0  0  0  0  0  0  0  0  0
   51.0218   47.0153   47.3993 C   0  0  0  0  0  0  0  0  0  0  0  0
   50.4219   47.4942   46.2547 C   0  0  0  0  0  0  0  0  0  0  0  0
   37.5501   39.6476   45.4954 N   0  0  0  0  0  0  0  0  0  0  0  0
   39.5334   39.9496   43.4719 N   0  0  0  0  0  0  0  0  0  0  0  0
   48.4627   43.7610   44.8081 N   0  0  0  0  0  0  0  0  0  0  0  0
   49.5313   46.7621   45.6028 N   0  0  0  0  0  0  0  0  0  0  0  0
  1 17  2  0  0  0  0
  1 16  1  0  0  0  0
  2  3  2  0  0  0  0
  2 26  1  0  0  0  0
  3  4  1  0  0  0  0
  4  5  2  0  0  0  0
  5  6  1  0  0  0  0
  6  7  1  0  0  0  0
  6 26  2  0  0  0  0
  7 27  2  0  0  0  0
  8  9  2  0  0  0  0
  8 13  1  0  0  0  0
  8 27  1  0  0  0  0
  9 10  1  0  0  0  0
 10 11  2  0  0  0  0
 11 12  1  0  0  0  0
 11 14  1  0  0  0  0
 12 13  2  0  0  0  0
 14 15  1  0  0  0  0
 15 16  2  0  0  0  0
 15 19  1  0  0  0  0
 17 18  1  0  0  0  0
 17 28  1  0  0  0  0
 18 19  2  0  0  0  0
 20 21  1  0  0  0  0
 20 28  2  0  0  0  0
 21 22  2  0  0  0  0
 21 29  1  0  0  0  0
 22 23  1  0  0  0  0
 23 24  2  0  0  0  0
 24 25  1  0  0  0  0
 25 29  2  0  0  0  0
M  END
>  <CHROM.1>
114.30717883,-127.29438177,17.91206296,-61.65835387,76.61564547,-84.73908804
43.96692939,41.97866623,44.33220134,-0.22806636,-0.49797333,-1.85562697

>  <Name>
ligand

>  <RI>
0

>  <Rbt.Current_Directory>
/home/itssahil/PROJECTS/Mol_Feturizer/New_Systems/rnas/4JIY

>  <Rbt.Executable>
rbdock ($Id: //depot/dev/client3/rdock/2013.1/src/exe/rbdock.cxx#4 $)

>  <Rbt.Library>
libRbt.so (2013.1, Build901 2013/11/27)

>  <Rbt.Parameter_File>
/export/apps/rDock/src/rDock_2013.1_src/data/scripts/dock_solv.prm

>  <Rbt.Receptor>
prm/pocket_docking_5.prm

>  <SCORE>
-0.821435

>  <SCORE.INTER>
-0.32305

>  <SCORE.INTER.CONST>
1

>  <SCORE.INTER.POLAR>
0

>  <SCORE.INTER.ROT>
6

>  <SCORE.INTER.SOLV>
0.903592

>  <SCORE.INTER.VDW>
-8.11656

>  <SCORE.INTER.norm>
-0.0111396

>  <SCORE.INTRA>
-0.498386

>  <SCORE.INTRA.DIHEDRAL>
0.528952

>  <SCORE.INTRA.DIHEDRAL.0>
7.2424

>  <SCORE.INTRA.POLAR>
0

>  <SCORE.INTRA.POLAR.0>
0

>  <SCORE.INTRA.REPUL>
0

>  <SCORE.INTRA.REPUL.0>
0

>  <SCORE.INTRA.SOLV>
-0.0160079

>  <SCORE.INTRA.SOLV.lig_0>
-3.36201

>  <SCORE.INTRA.VDW>
-0.754858

>  <SCORE.INTRA.VDW.0>
-0.910526

>  <SCORE.INTRA.norm>
-0.0171857

>  <SCORE.RESTR>
0

>  <SCORE.RESTR.CAVITY>
0

>  <SCORE.RESTR.norm>
0

>  <SCORE.SYSTEM>
0

>  <SCORE.SYSTEM.CONST>
0

>  <SCORE.SYSTEM.DIHEDRAL>
0

>  <SCORE.SYSTEM.SOLV>
0

>  <SCORE.SYSTEM.norm>
0

>  <SCORE.heavy>
29

>  <SCORE.norm>
-0.0283254

>  <RMSD>
4.507

$$$$
ligand
 OpenBabel11021811503D
libRbt.so/2013.1/901 2013/11/27
 29 32  0  0  0  0  0  0  0  0999 V2000
   45.2673   42.0590   44.0115 C   0  0  0  0  0  0  0  0  0  0  0  0
   35.0023   36.5731   44.2016 C   0  0  0  0  0  0  0  0  0  0  0  0
   35.1562   35.4105   44.9687 C   0  0  0  0  0  0  0  0  0  0  0  0
   36.3640   34.8158   45.0863 C   0  0  0  0  0  0  0  0  0  0  0  0
   37.4323   35.3451   44.3751 C   0  0  0  0  0  0  0  0  0  0  0  0
   37.2653   36.5139   43.6807 C   0  0  0  0  0  0  0  0  0  0  0  0
   38.3185   37.2521   42.9870 C   0  0  0  0  0  0  0  0  0  0  0  0
   40.1889   38.6319   43.0819 C   0  0  0  0  0  0  0  0  0  0  0  0
   41.4915   38.1867   42.9730 C   0  0  0  0  0  0  0  0  0  0  0  0
   42.4392   39.0142   42.3680 C   0  0  0  0  0  0  0  0  0  0  0  0
   42.0987   40.2098   41.7910 C   0  0  0  0  0  0  0  0  0  0  0  0
   40.7565   40.6300   41.9124 C   0  0  0  0  0  0  0  0  0  0  0  0
   39.8189   39.8742   42.6071 C   0  0  0  0  0  0  0  0  0  0  0  0
   43.1071   41.0423   41.0022 C   0  0  0  0  0  0  0  0  0  0  0  0
   44.2735   41.5363   41.8467 C   0  0  0  0  0  0  0  0  0  0  0  0
   44.2245   41.6145   43.2150 C   0  0  0  0  0  0  0  0  0  0  0  0
   46.4219   42.4228   43.3718 C   0  0  0  0  0  0  0  0  0  0  0  0
   46.4732   42.3533   42.0231 C   0  0  0  0  0  0  0  0  0  0  0  0
   45.4303   41.9267   41.2322 C   0  0  0  0  0  0  0  0  0  0  0  0
   48.2481   43.8466   43.5380 C   0  0  0  0  0  0  0  0  0  0  0  0
   49.4600   44.2853   44.1969 C   0  0  0  0  0  0  0  0  0  0  0  0
   49.5252   44.8481   45.4780 C   0  0  0  0  0  0  0  0  0  0  0  0
   50.7616   45.2299   45.9573 C   0  0  0  0  0  0  0  0  0  0  0  0
   51.8740   45.0055   45.1616 C   0  0  0  0  0  0  0  0  0  0  0  0
   51.7547   44.4821   43.8923 C   0  0  0  0  0  0  0  0  0  0  0  0
   36.0532   37.1169   43.5651 N   0  0  0  0  0  0  0  0  0  0  0  0
   39.2114   37.7974   43.7672 N   0  0  0  0  0  0  0  0  0  0  0  0
   47.5920   42.9021   44.1148 N   0  0  0  0  0  0  0  0  0  0  0  0
   50.5760   44.0913   43.4317 N   0  0  0  0  0  0  0  0  0  0  0  0
  1 17  2  0  0  0  0
  1 16  1  0  0  0  0
  2  3  2  0  0  0  0
  2 26  1  0  0  0  0
  3  4  1  0  0  0  0
  4  5  2  0  0  0  0
  5  6  1  0  0  0  0
  6  7  1  0  0  0  0
  6 26  2  0  0  0  0
  7 27  2  0  0  0  0
  8  9  2  0  0  0  0
  8 13  1  0  0  0  0
  8 27  1  0  0  0  0
  9 10  1  0  0  0  0
 10 11  2  0  0  0  0
 11 12  1  0  0  0  0
 11 14  1  0  0  0  0
 12 13  2  0  0  0  0
 14 15  1  0  0  0  0
 15 16  2  0  0  0  0
 15 19  1  0  0  0  0
 17 18  1  0  0  0  0
 17 28  1  0  0  0  0
 18 19  2  0  0  0  0
 20 21  1  0  0  0  0
 20 28  2  0  0  0  0
 21 22  2  0  0  0  0
 21 29  1  0  0  0  0
 22 23  1  0  0  0  0
 23 24  2  0  0  0  0
 24 25  1  0  0  0  0
 25 29  2  0  0  0  0
M  END
>  <CHROM.1>
-68.04958775,-63.27493234,-19.98133467,-61.54979306,-109.17457287,-142.65623537
43.32966892,40.52004439,43.43416879,-0.11235257,0.52943431,1.83260404

>  <Name>
ligand

>  <RI>
0

>  <Rbt.Current_Directory>
/home/itssahil/PROJECTS/Mol_Feturizer/New_Systems/rnas/4JIY

>  <Rbt.Executable>
rbdock ($Id: //depot/dev/client3/rdock/2013.1/src/exe/rbdock.cxx#4 $)

>  <Rbt.Library>
libRbt.so (2013.1, Build901 2013/11/27)

>  <Rbt.Parameter_File>
/export/apps/rDock/src/rDock_2013.1_src/data/scripts/dock_solv.prm

>  <Rbt.Receptor>
prm/pocket_docking_5.prm

>  <SCORE>
-3.26395

>  <SCORE.INTER>
-3.26264

>  <SCORE.INTER.CONST>
1

>  <SCORE.INTER.POLAR>
0

>  <SCORE.INTER.ROT>
6

>  <SCORE.INTER.SOLV>
1.85963

>  <SCORE.INTER.VDW>
-10.395

>  <SCORE.INTER.norm>
-0.112505

>  <SCORE.INTRA>
-0.0095545

>  <SCORE.INTRA.DIHEDRAL>
-0.0110157

>  <SCORE.INTRA.DIHEDRAL.0>
7.2424

>  <SCORE.INTRA.POLAR>
0

>  <SCORE.INTRA.POLAR.0>
0

>  <SCORE.INTRA.REPUL>
0

>  <SCORE.INTRA.REPUL.0>
0

>  <SCORE.INTRA.SOLV>
-0.0176572

>  <SCORE.INTRA.SOLV.lig_0>
-3.36201

>  <SCORE.INTRA.VDW>
0.00478196

>  <SCORE.INTRA.VDW.0>
-0.910526

>  <SCORE.INTRA.norm>
-0.000329466

>  <SCORE.RESTR>
0.00823977

>  <SCORE.RESTR.CAVITY>
0.00823977

>  <SCORE.RESTR.norm>
0.00028413

>  <SCORE.SYSTEM>
0

>  <SCORE.SYSTEM.CONST>
0

>  <SCORE.SYSTEM.DIHEDRAL>
0

>  <SCORE.SYSTEM.SOLV>
0

>  <SCORE.SYSTEM.norm>
0

>  <SCORE.heavy>
29

>  <SCORE.norm>
-0.11255

>  <RMSD>
4.556

$$$$
ligand
 OpenBabel11021811503D
libRbt.so/2013.1/901 2013/11/27
 29 32  0  0  0  0  0  0  0  0999 V2000
   46.1280   42.5839   44.0844 C   0  0  0  0  0  0  0  0  0  0  0  0
   36.6134   37.5976   36.4940 C   0  0  0  0  0  0  0  0  0  0  0  0
   36.9517   36.3735   35.9018 C   0  0  0  0  0  0  0  0  0  0  0  0
   38.0033   35.6551   36.3535 C   0  0  0  0  0  0  0  0  0  0  0  0
   38.7798   36.1908   37.3721 C   0  0  0  0  0  0  0  0  0  0  0  0
   38.3915   37.3605   37.9699 C   0  0  0  0  0  0  0  0  0  0  0  0
   39.0340   37.9820   39.1259 C   0  0  0  0  0  0  0  0  0  0  0  0
   40.8509   39.1150   40.0351 C   0  0  0  0  0  0  0  0  0  0  0  0
   40.6012   40.4078   40.4513 C   0  0  0  0  0  0  0  0  0  0  0  0
   41.3153   40.9168   41.5376 C   0  0  0  0  0  0  0  0  0  0  0  0
   42.1825   40.1438   42.2649 C   0  0  0  0  0  0  0  0  0  0  0  0
   42.4069   38.8240   41.8174 C   0  0  0  0  0  0  0  0  0  0  0  0
   41.7909   38.3306   40.6728 C   0  0  0  0  0  0  0  0  0  0  0  0
   42.8493   40.6583   43.5389 C   0  0  0  0  0  0  0  0  0  0  0  0
   44.1612   41.3864   43.2814 C   0  0  0  0  0  0  0  0  0  0  0  0
   44.9307   41.9165   44.2853 C   0  0  0  0  0  0  0  0  0  0  0  0
   46.5640   42.6954   42.7913 C   0  0  0  0  0  0  0  0  0  0  0  0
   45.8064   42.1802   41.7979 C   0  0  0  0  0  0  0  0  0  0  0  0
   44.6088   41.5314   41.9982 C   0  0  0  0  0  0  0  0  0  0  0  0
   48.4568   43.8546   43.4724 C   0  0  0  0  0  0  0  0  0  0  0  0
   49.6559   44.6110   43.1802 C   0  0  0  0  0  0  0  0  0  0  0  0
   50.2397   45.5602   44.0289 C   0  0  0  0  0  0  0  0  0  0  0  0
   51.3778   46.2079   43.5934 C   0  0  0  0  0  0  0  0  0  0  0  0
   51.9002   45.8610   42.3574 C   0  0  0  0  0  0  0  0  0  0  0  0
   51.2688   44.9467   41.5422 C   0  0  0  0  0  0  0  0  0  0  0  0
   37.3315   38.0822   37.5212 N   0  0  0  0  0  0  0  0  0  0  0  0
   40.1525   38.6018   38.8645 N   0  0  0  0  0  0  0  0  0  0  0  0
   47.8208   43.3759   42.4617 N   0  0  0  0  0  0  0  0  0  0  0  0
   50.1892   44.3029   41.9599 N   0  0  0  0  0  0  0  0  0  0  0  0
  1 17  2  0  0  0  0
  1 16  1  0  0  0  0
  2  3  2  0  0  0  0
  2 26  1  0  0  0  0
  3  4  1  0  0  0  0
  4  5  2  0  0  0  0
  5  6  1  0  0  0  0
  6  7  1  0  0  0  0
  6 26  2  0  0  0  0
  7 27  2  0  0  0  0
  8  9  2  0  0  0  0
  8 13  1  0  0  0  0
  8 27  1  0  0  0  0
  9 10  1  0  0  0  0
 10 11  2  0  0  0  0
 11 12  1  0  0  0  0
 11 14  1  0  0  0  0
 12 13  2  0  0  0  0
 14 15  1  0  0  0  0
 15 16  2  0  0  0  0
 15 19  1  0  0  0  0
 17 18  1  0  0  0  0
 17 28  1  0  0  0  0
 18 19  2  0  0  0  0
 20 21  1  0  0  0  0
 20 28  2  0  0  0  0
 21 22  2  0  0  0  0
 21 29  1  0  0  0  0
 22 23  1  0  0  0  0
 23 24  2  0  0  0  0
 24 25  1  0  0  0  0
 25 29  2  0  0  0  0
M  END
>  <CHROM.1>
76.64029335,-88.24591503,-179.32160378,157.82728473,-91.93091174,-0.41312550
43.80143589,40.94144094,41.05670579,0.44876766,0.50820351,1.41479690

>  <Name>
ligand

>  <RI>
0

>  <Rbt.Current_Directory>
/home/itssahil/PROJECTS/Mol_Feturizer/New_Systems/rnas/4JIY

>  <Rbt.Executable>
rbdock ($Id: //depot/dev/client3/rdock/2013.1/src/exe/rbdock.cxx#4 $)

>  <Rbt.Library>
libRbt.so (2013.1, Build901 2013/11/27)

>  <Rbt.Parameter_File>
/export/apps/rDock/src/rDock_2013.1_src/data/scripts/dock_solv.prm

>  <Rbt.Receptor>
prm/pocket_docking_5.prm

>  <SCORE>
-2.16891

>  <SCORE.INTER>
-3.03926

>  <SCORE.INTER.CONST>
1

>  <SCORE.INTER.POLAR>
0

>  <SCORE.INTER.ROT>
6

>  <SCORE.INTER.SOLV>
1.77043

>  <SCORE.INTER.VDW>
-10.2163

>  <SCORE.INTER.norm>
-0.104802

>  <SCORE.INTRA>
0.854306

>  <SCORE.INTRA.DIHEDRAL>
0.323541

>  <SCORE.INTRA.DIHEDRAL.0>
7.2424

>  <SCORE.INTRA.POLAR>
0

>  <SCORE.INTRA.POLAR.0>
0

>  <SCORE.INTRA.REPUL>
0

>  <SCORE.INTRA.REPUL.0>
0

>  <SCORE.INTRA.SOLV>
-0.00908625

>  <SCORE.INTRA.SOLV.lig_0>
-3.36201

>  <SCORE.INTRA.VDW>
0.697078

>  <SCORE.INTRA.VDW.0>
-0.910526

>  <SCORE.INTRA.norm>
0.0294588

>  <SCORE.RESTR>
0.0160478

>  <SCORE.RESTR.CAVITY>
0.0160478

>  <SCORE.RESTR.norm>
0.000553374

>  <SCORE.SYSTEM>
0

>  <SCORE.SYSTEM.CONST>
0

>  <SCORE.SYSTEM.DIHEDRAL>
0

>  <SCORE.SYSTEM.SOLV>
0

>  <SCORE.SYSTEM.norm>
0

>  <SCORE.heavy>
29

>  <SCORE.norm>
-0.0747899

>  <RMSD>
4.565

$$$$
ligand
 OpenBabel11021811503D
libRbt.so/2013.1/901 2013/11/27
 29 32  0  0  0  0  0  0  0  0999 V2000
   46.2495   43.0722   40.5076 C   0  0  0  0  0  0  0  0  0  0  0  0
   37.9116   34.7142   44.0978 C   0  0  0  0  0  0  0  0  0  0  0  0
   37.0297   33.7897   43.5222 C   0  0  0  0  0  0  0  0  0  0  0  0
   36.7962   33.7945   42.1912 C   0  0  0  0  0  0  0  0  0  0  0  0
   37.3979   34.7790   41.4192 C   0  0  0  0  0  0  0  0  0  0  0  0
   38.2990   35.6321   41.9993 C   0  0  0  0  0  0  0  0  0  0  0  0
   39.0976   36.6352   41.2983 C   0  0  0  0  0  0  0  0  0  0  0  0
   40.7821   38.2389   41.3430 C   0  0  0  0  0  0  0  0  0  0  0  0
   40.3048   39.5290   41.4644 C   0  0  0  0  0  0  0  0  0  0  0  0
   40.9589   40.5574   40.7835 C   0  0  0  0  0  0  0  0  0  0  0  0
   42.1155   40.3437   40.0800 C   0  0  0  0  0  0  0  0  0  0  0  0
   42.5807   39.0144   39.9844 C   0  0  0  0  0  0  0  0  0  0  0  0
   41.8849   37.9581   40.5615 C   0  0  0  0  0  0  0  0  0  0  0  0
   42.9081   41.4927   39.4605 C   0  0  0  0  0  0  0  0  0  0  0  0
   44.1229   41.8999   40.2828 C   0  0  0  0  0  0  0  0  0  0  0  0
   45.1322   42.6845   39.7861 C   0  0  0  0  0  0  0  0  0  0  0  0
   46.3234   42.6486   41.8075 C   0  0  0  0  0  0  0  0  0  0  0  0
   45.3344   41.8702   42.2999 C   0  0  0  0  0  0  0  0  0  0  0  0
   44.2328   41.4725   41.5764 C   0  0  0  0  0  0  0  0  0  0  0  0
   48.0259   44.1212   42.3758 C   0  0  0  0  0  0  0  0  0  0  0  0
   49.2042   44.4642   43.1436 C   0  0  0  0  0  0  0  0  0  0  0  0
   50.5263   44.2383   42.7396 C   0  0  0  0  0  0  0  0  0  0  0  0
   51.5402   44.6110   43.5982 C   0  0  0  0  0  0  0  0  0  0  0  0
   51.1984   45.2183   44.7961 C   0  0  0  0  0  0  0  0  0  0  0  0
   49.8813   45.3859   45.1657 C   0  0  0  0  0  0  0  0  0  0  0  0
   38.5396   35.6261   43.3365 N   0  0  0  0  0  0  0  0  0  0  0  0
   40.0661   37.1552   42.0020 N   0  0  0  0  0  0  0  0  0  0  0  0
   47.4576   43.0043   42.6668 N   0  0  0  0  0  0  0  0  0  0  0  0
   48.9011   45.0528   44.3396 N   0  0  0  0  0  0  0  0  0  0  0  0
  1 17  2  0  0  0  0
  1 16  1  0  0  0  0
  2  3  2  0  0  0  0
  2 26  1  0  0  0  0
  3  4  1  0  0  0  0
  4  5  2  0  0  0  0
  5  6  1  0  0  0  0
  6  7  1  0  0  0  0
  6 26  2  0  0  0  0
  7 27  2  0  0  0  0
  8  9  2  0  0  0  0
  8 13  1  0  0  0  0
  8 27  1  0  0  0  0
  9 10  1  0  0  0  0
 10 11  2  0  0  0  0
 11 12  1  0  0  0  0
 11 14  1  0  0  0  0
 12 13  2  0  0  0  0
 14 15  1  0  0  0  0
 15 16  2  0  0  0  0
 15 19  1  0  0  0  0
 17 18  1  0  0  0  0
 17 28  1  0  0  0  0
 18 19  2  0  0  0  0
 20 21  1  0  0  0  0
 20 28  2  0  0  0  0
 21 22  2  0  0  0  0
 21 29  1  0  0  0  0
 22 23  1  0  0  0  0
 23 24  2  0  0  0  0
 24 25  1  0  0  0  0
 25 29  2  0  0  0  0
M  END
>  <CHROM.1>
-167.49622332,100.71631777,164.90373561,96.69001012,87.15521212,28.65859738
43.61247533,40.31524666,42.02993524,0.22849772,-0.64790418,-1.08439195

>  <Name>
ligand

>  <RI>
0

>  <Rbt.Current_Directory>
/home/itssahil/PROJECTS/Mol_Feturizer/New_Systems/rnas/4JIY

>  <Rbt.Executable>
rbdock ($Id: //depot/dev/client3/rdock/2013.1/src/exe/rbdock.cxx#4 $)

>  <Rbt.Library>
libRbt.so (2013.1, Build901 2013/11/27)

>  <Rbt.Parameter_File>
/export/apps/rDock/src/rDock_2013.1_src/data/scripts/dock_solv.prm

>  <Rbt.Receptor>
prm/pocket_docking_5.prm

>  <SCORE>
-0.756471

>  <SCORE.INTER>
-1.32741

>  <SCORE.INTER.CONST>
1

>  <SCORE.INTER.POLAR>
0

>  <SCORE.INTER.ROT>
6

>  <SCORE.INTER.SOLV>
1.5002

>  <SCORE.INTER.VDW>
-8.98501

>  <SCORE.INTER.norm>
-0.0457729

>  <SCORE.INTRA>
0.566427

>  <SCORE.INTRA.DIHEDRAL>
0.371729

>  <SCORE.INTRA.DIHEDRAL.0>
7.2424

>  <SCORE.INTRA.POLAR>
0

>  <SCORE.INTRA.POLAR.0>
0

>  <SCORE.INTRA.REPUL>
0

>  <SCORE.INTRA.REPUL.0>
0

>  <SCORE.INTRA.SOLV>
-0.00584056

>  <SCORE.INTRA.SOLV.lig_0>
-3.36201

>  <SCORE.INTRA.VDW>
0.383483

>  <SCORE.INTRA.VDW.0>
-0.910526

>  <SCORE.INTRA.norm>
0.019532

>  <SCORE.RESTR>
0.00451472

>  <SCORE.RESTR.CAVITY>
0.00451472

>  <SCORE.RESTR.norm>
0.00015568

>  <SCORE.SYSTEM>
0

>  <SCORE.SYSTEM.CONST>
0

>  <SCORE.SYSTEM.DIHEDRAL>
0

>  <SCORE.SYSTEM.SOLV>
0

>  <SCORE.SYSTEM.norm>
0

>  <SCORE.heavy>
29

>  <SCORE.norm>
-0.0260852

>  <RMSD>
4.582

$$$$
ligand
 OpenBabel11021811503D
libRbt.so/2013.1/901 2013/11/27
 29 32  0  0  0  0  0  0  0  0999 V2000
   41.7586   40.7617   39.3724 C   0  0  0  0  0  0  0  0  0  0  0  0
   51.9346   45.8665   44.6592 C   0  0  0  0  0  0  0  0  0  0  0  0
   51.2975   46.5159   45.7250 C   0  0  0  0  0  0  0  0  0  0  0  0
   49.9736   46.3524   45.9410 C   0  0  0  0  0  0  0  0  0  0  0  0
   49.2487   45.5809   45.0429 C   0  0  0  0  0  0  0  0  0  0  0  0
   49.9075   44.9124   44.0453 C   0  0  0  0  0  0  0  0  0  0  0  0
   49.3022   43.9738   43.1030 C   0  0  0  0  0  0  0  0  0  0  0  0
   47.6768   43.5139   41.5037 C   0  0  0  0  0  0  0  0  0  0  0  0
   46.5637   42.8589   41.9926 C   0  0  0  0  0  0  0  0  0  0  0  0
   45.9463   41.8919   41.1971 C   0  0  0  0  0  0  0  0  0  0  0  0
   46.3483   41.6428   39.9108 C   0  0  0  0  0  0  0  0  0  0  0  0
   47.4835   42.3371   39.4398 C   0  0  0  0  0  0  0  0  0  0  0  0
   48.1816   43.2235   40.2522 C   0  0  0  0  0  0  0  0  0  0  0  0
   45.5807   40.6925   38.9943 C   0  0  0  0  0  0  0  0  0  0  0  0
   44.1676   40.3977   39.4781 C   0  0  0  0  0  0  0  0  0  0  0  0
   43.0564   41.0077   38.9546 C   0  0  0  0  0  0  0  0  0  0  0  0
   41.5941   39.8305   40.3625 C   0  0  0  0  0  0  0  0  0  0  0  0
   42.6863   39.2310   40.8859 C   0  0  0  0  0  0  0  0  0  0  0  0
   43.9765   39.4887   40.4807 C   0  0  0  0  0  0  0  0  0  0  0  0
   39.6337   38.5983   40.1928 C   0  0  0  0  0  0  0  0  0  0  0  0
   38.2833   38.2962   40.6177 C   0  0  0  0  0  0  0  0  0  0  0  0
   37.1788   39.1439   40.4635 C   0  0  0  0  0  0  0  0  0  0  0  0
   35.9574   38.7118   40.9387 C   0  0  0  0  0  0  0  0  0  0  0  0
   35.8821   37.4516   41.5107 C   0  0  0  0  0  0  0  0  0  0  0  0
   37.0048   36.6689   41.6732 C   0  0  0  0  0  0  0  0  0  0  0  0
   51.2395   45.0708   43.8290 N   0  0  0  0  0  0  0  0  0  0  0  0
   48.3598   44.4788   42.3546 N   0  0  0  0  0  0  0  0  0  0  0  0
   40.2649   39.4857   40.8779 N   0  0  0  0  0  0  0  0  0  0  0  0
   38.1771   37.0643   41.2004 N   0  0  0  0  0  0  0  0  0  0  0  0
  1 17  2  0  0  0  0
  1 16  1  0  0  0  0
  2  3  2  0  0  0  0
  2 26  1  0  0  0  0
  3  4  1  0  0  0  0
  4  5  2  0  0  0  0
  5  6  1  0  0  0  0
  6  7  1  0  0  0  0
  6 26  2  0  0  0  0
  7 27  2  0  0  0  0
  8  9  2  0  0  0  0
  8 13  1  0  0  0  0
  8 27  1  0  0  0  0
  9 10  1  0  0  0  0
 10 11  2  0  0  0  0
 11 12  1  0  0  0  0
 11 14  1  0  0  0  0
 12 13  2  0  0  0  0
 14 15  1  0  0  0  0
 15 16  2  0  0  0  0
 15 19  1  0  0  0  0
 17 18  1  0  0  0  0
 17 28  1  0  0  0  0
 18 19  2  0  0  0  0
 20 21  1  0  0  0  0
 20 28  2  0  0  0  0
 21 22  2  0  0  0  0
 21 29  1  0  0  0  0
 22 23  1  0  0  0  0
 23 24  2  0  0  0  0
 24 25  1  0  0  0  0
 25 29  2  0  0  0  0
M  END
>  <CHROM.1>
60.38586304,17.03650997,100.76171527,71.75996318,89.49005938,84.32660957
44.44495906,41.54651007,41.54932847,-2.74572581,0.41382102,1.19095556

>  <Name>
ligand

>  <RI>
0

>  <Rbt.Current_Directory>
/home/itssahil/PROJECTS/Mol_Feturizer/New_Systems/rnas/4JIY

>  <Rbt.Executable>
rbdock ($Id: //depot/dev/client3/rdock/2013.1/src/exe/rbdock.cxx#4 $)

>  <Rbt.Library>
libRbt.so (2013.1, Build901 2013/11/27)

>  <Rbt.Parameter_File>
/export/apps/rDock/src/rDock_2013.1_src/data/scripts/dock_solv.prm

>  <Rbt.Receptor>
prm/pocket_docking_7.prm

>  <SCORE>
-7.84874

>  <SCORE.INTER>
-7.05866

>  <SCORE.INTER.CONST>
1

>  <SCORE.INTER.POLAR>
0

>  <SCORE.INTER.ROT>
6

>  <SCORE.INTER.SOLV>
2.15143

>  <SCORE.INTER.VDW>
-13.0229

>  <SCORE.INTER.norm>
-0.243402

>  <SCORE.INTRA>
-0.790089

>  <SCORE.INTRA.DIHEDRAL>
0.200991

>  <SCORE.INTRA.DIHEDRAL.0>
7.2424

>  <SCORE.INTRA.POLAR>
0

>  <SCORE.INTRA.POLAR.0>
0

>  <SCORE.INTRA.REPUL>
0

>  <SCORE.INTRA.REPUL.0>
0

>  <SCORE.INTRA.SOLV>
-0.0193277

>  <SCORE.INTRA.SOLV.lig_0>
-3.36201

>  <SCORE.INTRA.VDW>
-0.880921

>  <SCORE.INTRA.VDW.0>
-0.910526

>  <SCORE.INTRA.norm>
-0.0272445

>  <SCORE.RESTR>
0

>  <SCORE.RESTR.CAVITY>
0

>  <SCORE.RESTR.norm>
0

>  <SCORE.SYSTEM>
0

>  <SCORE.SYSTEM.CONST>
0

>  <SCORE.SYSTEM.DIHEDRAL>
0

>  <SCORE.SYSTEM.SOLV>
0

>  <SCORE.SYSTEM.norm>
0

>  <SCORE.heavy>
29

>  <SCORE.norm>
-0.270646

>  <RMSD>
4.585

$$$$
ligand
 OpenBabel11021811503D
libRbt.so/2013.1/901 2013/11/27
 29 32  0  0  0  0  0  0  0  0999 V2000
   39.6234   38.5143   40.3942 C   0  0  0  0  0  0  0  0  0  0  0  0
   49.1803   43.6742   44.7209 C   0  0  0  0  0  0  0  0  0  0  0  0
   50.3022   44.2378   44.0985 C   0  0  0  0  0  0  0  0  0  0  0  0
   50.2729   44.5653   42.7878 C   0  0  0  0  0  0  0  0  0  0  0  0
   49.1297   44.2677   42.0585 C   0  0  0  0  0  0  0  0  0  0  0  0
   48.0294   43.7706   42.7053 C   0  0  0  0  0  0  0  0  0  0  0  0
   46.7231   43.5223   42.0992 C   0  0  0  0  0  0  0  0  0  0  0  0
   45.2732   42.0773   40.9943 C   0  0  0  0  0  0  0  0  0  0  0  0
   45.1271   42.5944   39.7223 C   0  0  0  0  0  0  0  0  0  0  0  0
   43.9052   42.4365   39.0658 C   0  0  0  0  0  0  0  0  0  0  0  0
   42.8810   41.7003   39.6019 C   0  0  0  0  0  0  0  0  0  0  0  0
   43.0676   41.1780   40.9000 C   0  0  0  0  0  0  0  0  0  0  0  0
   44.2341   41.4161   41.6179 C   0  0  0  0  0  0  0  0  0  0  0  0
   41.6025   41.4059   38.8203 C   0  0  0  0  0  0  0  0  0  0  0  0
   40.5712   40.6245   39.6226 C   0  0  0  0  0  0  0  0  0  0  0  0
   40.5473   39.2542   39.6744 C   0  0  0  0  0  0  0  0  0  0  0  0
   38.6914   39.2170   41.1099 C   0  0  0  0  0  0  0  0  0  0  0  0
   38.7070   40.5673   41.0573 C   0  0  0  0  0  0  0  0  0  0  0  0
   39.6159   41.3006   40.3284 C   0  0  0  0  0  0  0  0  0  0  0  0
   38.0007   38.3210   43.1373 C   0  0  0  0  0  0  0  0  0  0  0  0
   37.0549   37.5735   43.9385 C   0  0  0  0  0  0  0  0  0  0  0  0
   36.8151   36.1975   43.8319 C   0  0  0  0  0  0  0  0  0  0  0  0
   35.8655   35.6377   44.6622 C   0  0  0  0  0  0  0  0  0  0  0  0
   35.2261   36.4581   45.5781 C   0  0  0  0  0  0  0  0  0  0  0  0
   35.4699   37.8139   45.6199 C   0  0  0  0  0  0  0  0  0  0  0  0
   48.0543   43.4453   44.0243 N   0  0  0  0  0  0  0  0  0  0  0  0
   46.5254   42.2936   41.7060 N   0  0  0  0  0  0  0  0  0  0  0  0
   37.6693   38.5378   41.9132 N   0  0  0  0  0  0  0  0  0  0  0  0
   36.3953   38.3573   44.8436 N   0  0  0  0  0  0  0  0  0  0  0  0
  1 17  2  0  0  0  0
  1 16  1  0  0  0  0
  2  3  2  0  0  0  0
  2 26  1  0  0  0  0
  3  4  1  0  0  0  0
  4  5  2  0  0  0  0
  5  6  1  0  0  0  0
  6  7  1  0  0  0  0
  6 26  2  0  0  0  0
  7 27  2  0  0  0  0
  8  9  2  0  0  0  0
  8 13  1  0  0  0  0
  8 27  1  0  0  0  0
  9 10  1  0  0  0  0
 10 11  2  0  0  0  0
 11 12  1  0  0  0  0
 11 14  1  0  0  0  0
 12 13  2  0  0  0  0
 14 15  1  0  0  0  0
 15 16  2  0  0  0  0
 15 19  1  0  0  0  0
 17 18  1  0  0  0  0
 17 28  1  0  0  0  0
 18 19  2  0  0  0  0
 20 21  1  0  0  0  0
 20 28  2  0  0  0  0
 21 22  2  0  0  0  0
 21 29  1  0  0  0  0
 22 23  1  0  0  0  0
 23 24  2  0  0  0  0
 24 25  1  0  0  0  0
 25 29  2  0  0  0  0
M  END
>  <CHROM.1>
95.89038609,-177.50530641,-87.92692481,73.47992497,70.78061017,91.18726526
42.22206763,40.72626978,42.09833159,2.96350255,0.45794178,1.78791819

>  <Name>
ligand

>  <RI>
0

>  <Rbt.Current_Directory>
/home/itssahil/PROJECTS/Mol_Feturizer/New_Systems/rnas/4JIY

>  <Rbt.Executable>
rbdock ($Id: //depot/dev/client3/rdock/2013.1/src/exe/rbdock.cxx#4 $)

>  <Rbt.Library>
libRbt.so (2013.1, Build901 2013/11/27)

>  <Rbt.Parameter_File>
/export/apps/rDock/src/rDock_2013.1_src/data/scripts/dock_solv.prm

>  <Rbt.Receptor>
prm/pocket_docking_5.prm

>  <SCORE>
-1.71706

>  <SCORE.INTER>
-1.07724

>  <SCORE.INTER.CONST>
1

>  <SCORE.INTER.POLAR>
0

>  <SCORE.INTER.ROT>
6

>  <SCORE.INTER.SOLV>
1.61119

>  <SCORE.INTER.VDW>
-8.85522

>  <SCORE.INTER.norm>
-0.0371462

>  <SCORE.INTRA>
-0.642921

>  <SCORE.INTRA.DIHEDRAL>
0.395391

>  <SCORE.INTRA.DIHEDRAL.0>
7.2424

>  <SCORE.INTRA.POLAR>
0

>  <SCORE.INTRA.POLAR.0>
0

>  <SCORE.INTRA.REPUL>
0

>  <SCORE.INTRA.REPUL.0>
0

>  <SCORE.INTRA.SOLV>
-0.0176329

>  <SCORE.INTRA.SOLV.lig_0>
-3.36201

>  <SCORE.INTRA.VDW>
-0.8318

>  <SCORE.INTRA.VDW.0>
-0.910526

>  <SCORE.INTRA.norm>
-0.0221697

>  <SCORE.RESTR>
0.00310457

>  <SCORE.RESTR.CAVITY>
0.00310457

>  <SCORE.RESTR.norm>
0.000107054

>  <SCORE.SYSTEM>
0

>  <SCORE.SYSTEM.CONST>
0

>  <SCORE.SYSTEM.DIHEDRAL>
0

>  <SCORE.SYSTEM.SOLV>
0

>  <SCORE.SYSTEM.norm>
0

>  <SCORE.heavy>
29

>  <SCORE.norm>
-0.0592088

>  <RMSD>
4.609

$$$$
ligand
 OpenBabel11021811503D
libRbt.so/2013.1/901 2013/11/27
 29 32  0  0  0  0  0  0  0  0999 V2000
   46.5687   42.3703   41.7120 C   0  0  0  0  0  0  0  0  0  0  0  0
   37.1104   36.9479   37.3137 C   0  0  0  0  0  0  0  0  0  0  0  0
   37.6262   36.5852   36.0623 C   0  0  0  0  0  0  0  0  0  0  0  0
   38.8704   36.9616   35.6929 C   0  0  0  0  0  0  0  0  0  0  0  0
   39.5977   37.7721   36.5540 C   0  0  0  0  0  0  0  0  0  0  0  0
   39.0915   38.0623   37.7932 C   0  0  0  0  0  0  0  0  0  0  0  0
   39.7862   38.7975   38.8478 C   0  0  0  0  0  0  0  0  0  0  0  0
   41.6347   39.0273   40.2412 C   0  0  0  0  0  0  0  0  0  0  0  0
   42.1636   40.2917   40.0721 C   0  0  0  0  0  0  0  0  0  0  0  0
   42.8307   40.8926   41.1411 C   0  0  0  0  0  0  0  0  0  0  0  0
   42.8913   40.3109   42.3806 C   0  0  0  0  0  0  0  0  0  0  0  0
   42.3320   39.0224   42.5206 C   0  0  0  0  0  0  0  0  0  0  0  0
   41.7602   38.3576   41.4417 C   0  0  0  0  0  0  0  0  0  0  0  0
   43.4919   41.0343   43.5840 C   0  0  0  0  0  0  0  0  0  0  0  0
   44.7755   41.7850   43.2576 C   0  0  0  0  0  0  0  0  0  0  0  0
   45.4011   41.7006   42.0401 C   0  0  0  0  0  0  0  0  0  0  0  0
   47.1085   43.1798   42.6753 C   0  0  0  0  0  0  0  0  0  0  0  0
   46.4991   43.2617   43.8788 C   0  0  0  0  0  0  0  0  0  0  0  0
   45.3478   42.5828   44.2085 C   0  0  0  0  0  0  0  0  0  0  0  0
   49.1983   43.8931   43.3922 C   0  0  0  0  0  0  0  0  0  0  0  0
   50.3868   44.7038   43.2324 C   0  0  0  0  0  0  0  0  0  0  0  0
   51.0595   44.9223   42.0232 C   0  0  0  0  0  0  0  0  0  0  0  0
   52.1914   45.7114   42.0434 C   0  0  0  0  0  0  0  0  0  0  0  0
   52.5816   46.2719   43.2495 C   0  0  0  0  0  0  0  0  0  0  0  0
   51.9077   45.9976   44.4199 C   0  0  0  0  0  0  0  0  0  0  0  0
   37.8429   37.6807   38.1694 N   0  0  0  0  0  0  0  0  0  0  0  0
   40.9921   38.3726   39.1099 N   0  0  0  0  0  0  0  0  0  0  0  0
   48.3388   43.9414   42.4361 N   0  0  0  0  0  0  0  0  0  0  0  0
   50.8073   45.2604   44.4079 N   0  0  0  0  0  0  0  0  0  0  0  0
  1 17  2  0  0  0  0
  1 16  1  0  0  0  0
  2  3  2  0  0  0  0
  2 26  1  0  0  0  0
  3  4  1  0  0  0  0
  4  5  2  0  0  0  0
  5  6  1  0  0  0  0
  6  7  1  0  0  0  0
  6 26  2  0  0  0  0
  7 27  2  0  0  0  0
  8  9  2  0  0  0  0
  8 13  1  0  0  0  0
  8 27  1  0  0  0  0
  9 10  1  0  0  0  0
 10 11  2  0  0  0  0
 11 12  1  0  0  0  0
 11 14  1  0  0  0  0
 12 13  2  0  0  0  0
 14 15  1  0  0  0  0
 15 16  2  0  0  0  0
 15 19  1  0  0  0  0
 17 18  1  0  0  0  0
 17 28  1  0  0  0  0
 18 19  2  0  0  0  0
 20 21  1  0  0  0  0
 20 28  2  0  0  0  0
 21 22  2  0  0  0  0
 21 29  1  0  0  0  0
 22 23  1  0  0  0  0
 23 24  2  0  0  0  0
 24 25  1  0  0  0  0
 25 29  2  0  0  0  0
M  END
>  <CHROM.1>
-49.92461234,-42.38777162,-6.50590316,-37.07080089,-77.55131410,-134.73690719
44.48401178,41.23236158,41.17919287,-0.43734268,-0.52732203,-1.67449942

>  <Name>
ligand

>  <RI>
0

>  <Rbt.Current_Directory>
/home/itssahil/PROJECTS/Mol_Feturizer/New_Systems/rnas/4JIY

>  <Rbt.Executable>
rbdock ($Id: //depot/dev/client3/rdock/2013.1/src/exe/rbdock.cxx#4 $)

>  <Rbt.Library>
libRbt.so (2013.1, Build901 2013/11/27)

>  <Rbt.Parameter_File>
/export/apps/rDock/src/rDock_2013.1_src/data/scripts/dock_solv.prm

>  <Rbt.Receptor>
prm/pocket_docking_5.prm

>  <SCORE>
-2.84122

>  <SCORE.INTER>
-3.28308

>  <SCORE.INTER.CONST>
1

>  <SCORE.INTER.POLAR>
0

>  <SCORE.INTER.ROT>
6

>  <SCORE.INTER.SOLV>
1.81618

>  <SCORE.INTER.VDW>
-10.3941

>  <SCORE.INTER.norm>
-0.11321

>  <SCORE.INTRA>
0.422511

>  <SCORE.INTRA.DIHEDRAL>
0.0322444

>  <SCORE.INTRA.DIHEDRAL.0>
7.2424

>  <SCORE.INTRA.POLAR>
0

>  <SCORE.INTRA.POLAR.0>
0

>  <SCORE.INTRA.REPUL>
0

>  <SCORE.INTRA.REPUL.0>
0

>  <SCORE.INTRA.SOLV>
-0.0187887

>  <SCORE.INTRA.SOLV.lig_0>
-3.36201

>  <SCORE.INTRA.VDW>
0.415783

>  <SCORE.INTRA.VDW.0>
-0.910526

>  <SCORE.INTRA.norm>
0.0145694

>  <SCORE.RESTR>
0.0193443

>  <SCORE.RESTR.CAVITY>
0.0193443

>  <SCORE.RESTR.norm>
0.000667044

>  <SCORE.SYSTEM>
0

>  <SCORE.SYSTEM.CONST>
0

>  <SCORE.SYSTEM.DIHEDRAL>
0

>  <SCORE.SYSTEM.SOLV>
0

>  <SCORE.SYSTEM.norm>
0

>  <SCORE.heavy>
29

>  <SCORE.norm>
-0.0979732

>  <RMSD>
4.623

$$$$
ligand
 OpenBabel11021811503D
libRbt.so/2013.1/901 2013/11/27
 29 32  0  0  0  0  0  0  0  0999 V2000
   39.4433   39.2367   40.5491 C   0  0  0  0  0  0  0  0  0  0  0  0
   48.7531   43.0715   45.8490 C   0  0  0  0  0  0  0  0  0  0  0  0
   49.8759   43.7798   45.4004 C   0  0  0  0  0  0  0  0  0  0  0  0
   49.9143   44.2938   44.1513 C   0  0  0  0  0  0  0  0  0  0  0  0
   48.8444   44.0453   43.3021 C   0  0  0  0  0  0  0  0  0  0  0  0
   47.7372   43.4003   43.7860 C   0  0  0  0  0  0  0  0  0  0  0  0
   46.4935   43.1736   43.0530 C   0  0  0  0  0  0  0  0  0  0  0  0
   45.3638   42.1387   41.3026 C   0  0  0  0  0  0  0  0  0  0  0  0
   45.2907   42.7960   40.0904 C   0  0  0  0  0  0  0  0  0  0  0  0
   44.1122   42.7113   39.3468 C   0  0  0  0  0  0  0  0  0  0  0  0
   43.0636   41.9177   39.7329 C   0  0  0  0  0  0  0  0  0  0  0  0
   43.1757   41.2523   40.9728 C   0  0  0  0  0  0  0  0  0  0  0  0
   44.2946   41.4096   41.7830 C   0  0  0  0  0  0  0  0  0  0  0  0
   41.8374   41.7115   38.8463 C   0  0  0  0  0  0  0  0  0  0  0  0
   41.0578   40.4470   39.1796 C   0  0  0  0  0  0  0  0  0  0  0  0
   40.1675   40.3710   40.2201 C   0  0  0  0  0  0  0  0  0  0  0  0
   39.6292   38.1339   39.7592 C   0  0  0  0  0  0  0  0  0  0  0  0
   40.5099   38.2019   38.7364 C   0  0  0  0  0  0  0  0  0  0  0  0
   41.2408   39.3250   38.4209 C   0  0  0  0  0  0  0  0  0  0  0  0
   37.6947   36.8615   39.5897 C   0  0  0  0  0  0  0  0  0  0  0  0
   36.9242   35.6755   39.8981 C   0  0  0  0  0  0  0  0  0  0  0  0
   37.1711   34.3953   39.3856 C   0  0  0  0  0  0  0  0  0  0  0  0
   36.3306   33.3698   39.7678 C   0  0  0  0  0  0  0  0  0  0  0  0
   35.3108   33.6533   40.6625 C   0  0  0  0  0  0  0  0  0  0  0  0
   35.0854   34.9370   41.1106 C   0  0  0  0  0  0  0  0  0  0  0  0
   47.6938   42.8869   45.0432 N   0  0  0  0  0  0  0  0  0  0  0  0
   46.5688   42.2751   42.1093 N   0  0  0  0  0  0  0  0  0  0  0  0
   38.9104   36.8804   40.0106 N   0  0  0  0  0  0  0  0  0  0  0  0
   35.8996   35.9239   40.7681 N   0  0  0  0  0  0  0  0  0  0  0  0
  1 17  2  0  0  0  0
  1 16  1  0  0  0  0
  2  3  2  0  0  0  0
  2 26  1  0  0  0  0
  3  4  1  0  0  0  0
  4  5  2  0  0  0  0
  5  6  1  0  0  0  0
  6  7  1  0  0  0  0
  6 26  2  0  0  0  0
  7 27  2  0  0  0  0
  8  9  2  0  0  0  0
  8 13  1  0  0  0  0
  8 27  1  0  0  0  0
  9 10  1  0  0  0  0
 10 11  2  0  0  0  0
 11 12  1  0  0  0  0
 11 14  1  0  0  0  0
 12 13  2  0  0  0  0
 14 15  1  0  0  0  0
 15 16  2  0  0  0  0
 15 19  1  0  0  0  0
 17 18  1  0  0  0  0
 17 28  1  0  0  0  0
 18 19  2  0  0  0  0
 20 21  1  0  0  0  0
 20 28  2  0  0  0  0
 21 22  2  0  0  0  0
 21 29  1  0  0  0  0
 22 23  1  0  0  0  0
 23 24  2  0  0  0  0
 24 25  1  0  0  0  0
 25 29  2  0  0  0  0
M  END
>  <CHROM.1>
72.35104666,158.46588113,80.46612448,-66.60774050,97.33597724,79.03016687
42.35203105,39.94092868,41.13910660,3.06281694,0.65729224,2.13508877

>  <Name>
ligand

>  <RI>
0

>  <Rbt.Current_Directory>
/home/itssahil/PROJECTS/Mol_Feturizer/New_Systems/rnas/4JIY

>  <Rbt.Executable>
rbdock ($Id: //depot/dev/client3/rdock/2013.1/src/exe/rbdock.cxx#4 $)

>  <Rbt.Library>
libRbt.so (2013.1, Build901 2013/11/27)

>  <Rbt.Parameter_File>
/export/apps/rDock/src/rDock_2013.1_src/data/scripts/dock_solv.prm

>  <Rbt.Receptor>
prm/pocket_docking_5.prm

>  <SCORE>
-1.95119

>  <SCORE.INTER>
-1.17271

>  <SCORE.INTER.CONST>
1

>  <SCORE.INTER.POLAR>
0

>  <SCORE.INTER.ROT>
6

>  <SCORE.INTER.SOLV>
1.77812

>  <SCORE.INTER.VDW>
-8.97451

>  <SCORE.INTER.norm>
-0.0404381

>  <SCORE.INTRA>
-0.778481

>  <SCORE.INTRA.DIHEDRAL>
0.229895

>  <SCORE.INTRA.DIHEDRAL.0>
7.2424

>  <SCORE.INTRA.POLAR>
0

>  <SCORE.INTRA.POLAR.0>
0

>  <SCORE.INTRA.REPUL>
0

>  <SCORE.INTRA.REPUL.0>
0

>  <SCORE.INTRA.SOLV>
-0.019

>  <SCORE.INTRA.SOLV.lig_0>
-3.36201

>  <SCORE.INTRA.VDW>
-0.883928

>  <SCORE.INTRA.VDW.0>
-0.910526

>  <SCORE.INTRA.norm>
-0.0268442

>  <SCORE.RESTR>
0

>  <SCORE.RESTR.CAVITY>
0

>  <SCORE.RESTR.norm>
0

>  <SCORE.SYSTEM>
0

>  <SCORE.SYSTEM.CONST>
0

>  <SCORE.SYSTEM.DIHEDRAL>
0

>  <SCORE.SYSTEM.SOLV>
0

>  <SCORE.SYSTEM.norm>
0

>  <SCORE.heavy>
29

>  <SCORE.norm>
-0.0672823

>  <RMSD>
4.644

$$$$
ligand
 OpenBabel11021811503D
libRbt.so/2013.1/901 2013/11/27
 29 32  0  0  0  0  0  0  0  0999 V2000
   39.9518   39.6790   42.7500 C   0  0  0  0  0  0  0  0  0  0  0  0
   51.7555   44.3051   43.8934 C   0  0  0  0  0  0  0  0  0  0  0  0
   51.8403   44.7484   45.2200 C   0  0  0  0  0  0  0  0  0  0  0  0
   50.7250   44.9198   45.9634 C   0  0  0  0  0  0  0  0  0  0  0  0
   49.4917   44.7115   45.3608 C   0  0  0  0  0  0  0  0  0  0  0  0
   49.4416   44.2235   44.0819 C   0  0  0  0  0  0  0  0  0  0  0  0
   48.2289   43.8428   43.3609 C   0  0  0  0  0  0  0  0  0  0  0  0
   46.3971   42.4268   43.1361 C   0  0  0  0  0  0  0  0  0  0  0  0
   45.2443   42.0448   43.7934 C   0  0  0  0  0  0  0  0  0  0  0  0
   44.1741   41.5494   43.0462 C   0  0  0  0  0  0  0  0  0  0  0  0
   44.1937   41.5229   41.6761 C   0  0  0  0  0  0  0  0  0  0  0  0
   45.3845   41.9296   41.0362 C   0  0  0  0  0  0  0  0  0  0  0  0
   46.5024   42.3220   41.7637 C   0  0  0  0  0  0  0  0  0  0  0  0
   42.9686   41.1197   40.8583 C   0  0  0  0  0  0  0  0  0  0  0  0
   42.0435   40.1584   41.5916 C   0  0  0  0  0  0  0  0  0  0  0  0
   40.8162   40.5287   42.0792 C   0  0  0  0  0  0  0  0  0  0  0  0
   40.3606   38.3821   42.9106 C   0  0  0  0  0  0  0  0  0  0  0  0
   41.5717   38.0138   42.4373 C   0  0  0  0  0  0  0  0  0  0  0  0
   42.4363   38.8637   41.7852 C   0  0  0  0  0  0  0  0  0  0  0  0
   38.6535   36.8096   42.8533 C   0  0  0  0  0  0  0  0  0  0  0  0
   37.7491   35.8930   43.5145 C   0  0  0  0  0  0  0  0  0  0  0  0
   36.8357   36.2416   44.5178 C   0  0  0  0  0  0  0  0  0  0  0  0
   36.0530   35.2421   45.0589 C   0  0  0  0  0  0  0  0  0  0  0  0
   36.1879   33.9567   44.5585 C   0  0  0  0  0  0  0  0  0  0  0  0
   37.1272   33.6561   43.5959 C   0  0  0  0  0  0  0  0  0  0  0  0
   50.5617   44.0452   43.3339 N   0  0  0  0  0  0  0  0  0  0  0  0
   47.5373   42.8861   43.9174 N   0  0  0  0  0  0  0  0  0  0  0  0
   39.5238   37.3939   43.5993 N   0  0  0  0  0  0  0  0  0  0  0  0
   37.8672   34.6115   43.0537 N   0  0  0  0  0  0  0  0  0  0  0  0
  1 17  2  0  0  0  0
  1 16  1  0  0  0  0
  2  3  2  0  0  0  0
  2 26  1  0  0  0  0
  3  4  1  0  0  0  0
  4  5  2  0  0  0  0
  5  6  1  0  0  0  0
  6  7  1  0  0  0  0
  6 26  2  0  0  0  0
  7 27  2  0  0  0  0
  8  9  2  0  0  0  0
  8 13  1  0  0  0  0
  8 27  1  0  0  0  0
  9 10  1  0  0  0  0
 10 11  2  0  0  0  0
 11 12  1  0  0  0  0
 11 14  1  0  0  0  0
 12 13  2  0  0  0  0
 14 15  1  0  0  0  0
 15 16  2  0  0  0  0
 15 19  1  0  0  0  0
 17 18  1  0  0  0  0
 17 28  1  0  0  0  0
 18 19  2  0  0  0  0
 20 21  1  0  0  0  0
 20 28  2  0  0  0  0
 21 22  2  0  0  0  0
 21 29  1  0  0  0  0
 22 23  1  0  0  0  0
 23 24  2  0  0  0  0
 24 25  1  0  0  0  0
 25 29  2  0  0  0  0
M  END
>  <CHROM.1>
-60.48544356,-28.05159910,108.18957177,61.92496137,-144.34293806,85.60258007
43.50909699,40.20312159,43.25740834,2.93259576,0.57601451,1.99805935

>  <Name>
ligand

>  <RI>
0

>  <Rbt.Current_Directory>
/home/itssahil/PROJECTS/Mol_Feturizer/New_Systems/rnas/4JIY

>  <Rbt.Executable>
rbdock ($Id: //depot/dev/client3/rdock/2013.1/src/exe/rbdock.cxx#4 $)

>  <Rbt.Library>
libRbt.so (2013.1, Build901 2013/11/27)

>  <Rbt.Parameter_File>
/export/apps/rDock/src/rDock_2013.1_src/data/scripts/dock_solv.prm

>  <Rbt.Receptor>
prm/pocket_docking_5.prm

>  <SCORE>
-3.44489

>  <SCORE.INTER>
-3.1311

>  <SCORE.INTER.CONST>
1

>  <SCORE.INTER.POLAR>
0

>  <SCORE.INTER.ROT>
6

>  <SCORE.INTER.SOLV>
1.91431

>  <SCORE.INTER.VDW>
-10.3255

>  <SCORE.INTER.norm>
-0.107969

>  <SCORE.INTRA>
-0.314823

>  <SCORE.INTRA.DIHEDRAL>
-0.080673

>  <SCORE.INTRA.DIHEDRAL.0>
7.2424

>  <SCORE.INTRA.POLAR>
0

>  <SCORE.INTRA.POLAR.0>
0

>  <SCORE.INTRA.REPUL>
0

>  <SCORE.INTRA.REPUL.0>
0

>  <SCORE.INTRA.SOLV>
-0.0187694

>  <SCORE.INTRA.SOLV.lig_0>
-3.36201

>  <SCORE.INTRA.VDW>
-0.265101

>  <SCORE.INTRA.VDW.0>
-0.910526

>  <SCORE.INTRA.norm>
-0.010856

>  <SCORE.RESTR>
0.00103334

>  <SCORE.RESTR.CAVITY>
0.00103334

>  <SCORE.RESTR.norm>
3.56323e-05

>  <SCORE.SYSTEM>
0

>  <SCORE.SYSTEM.CONST>
0

>  <SCORE.SYSTEM.DIHEDRAL>
0

>  <SCORE.SYSTEM.SOLV>
0

>  <SCORE.SYSTEM.norm>
0

>  <SCORE.heavy>
29

>  <SCORE.norm>
-0.118789

>  <RMSD>
4.650

$$$$
ligand
 OpenBabel11021811503D
libRbt.so/2013.1/901 2013/11/27
 29 32  0  0  0  0  0  0  0  0999 V2000
   41.6204   38.0874   42.8932 C   0  0  0  0  0  0  0  0  0  0  0  0
   51.8174   44.4051   42.5538 C   0  0  0  0  0  0  0  0  0  0  0  0
   52.5504   44.5962   43.7327 C   0  0  0  0  0  0  0  0  0  0  0  0
   51.9334   44.6091   44.9349 C   0  0  0  0  0  0  0  0  0  0  0  0
   50.5501   44.4965   44.9681 C   0  0  0  0  0  0  0  0  0  0  0  0
   49.8668   44.2532   43.8061 C   0  0  0  0  0  0  0  0  0  0  0  0
   48.4328   43.9934   43.6980 C   0  0  0  0  0  0  0  0  0  0  0  0
   46.5907   42.6830   44.2463 C   0  0  0  0  0  0  0  0  0  0  0  0
   45.7091   42.8334   45.2985 C   0  0  0  0  0  0  0  0  0  0  0  0
   44.3768   42.4556   45.1218 C   0  0  0  0  0  0  0  0  0  0  0  0
   43.8945   42.0343   43.9101 C   0  0  0  0  0  0  0  0  0  0  0  0
   44.8212   41.9012   42.8536 C   0  0  0  0  0  0  0  0  0  0  0  0
   46.1738   42.1657   43.0363 C   0  0  0  0  0  0  0  0  0  0  0  0
   42.4090   41.7632   43.6820 C   0  0  0  0  0  0  0  0  0  0  0  0
   42.1410   40.4696   42.9254 C   0  0  0  0  0  0  0  0  0  0  0  0
   41.8684   39.2806   43.5521 C   0  0  0  0  0  0  0  0  0  0  0  0
   41.6350   38.1225   41.5245 C   0  0  0  0  0  0  0  0  0  0  0  0
   41.9091   39.2904   40.9022 C   0  0  0  0  0  0  0  0  0  0  0  0
   42.1713   40.4716   41.5589 C   0  0  0  0  0  0  0  0  0  0  0  0
   40.1362   36.6717   40.5052 C   0  0  0  0  0  0  0  0  0  0  0  0
   39.8394   35.4458   39.7948 C   0  0  0  0  0  0  0  0  0  0  0  0
   40.1039   35.2130   38.4390 C   0  0  0  0  0  0  0  0  0  0  0  0
   39.7438   33.9914   37.9078 C   0  0  0  0  0  0  0  0  0  0  0  0
   39.1725   33.0502   38.7496 C   0  0  0  0  0  0  0  0  0  0  0  0
   38.8985   33.3395   40.0689 C   0  0  0  0  0  0  0  0  0  0  0  0
   50.4853   44.2345   42.5965 N   0  0  0  0  0  0  0  0  0  0  0  0
   47.9940   43.0183   44.4462 N   0  0  0  0  0  0  0  0  0  0  0  0
   41.3795   36.9207   40.7236 N   0  0  0  0  0  0  0  0  0  0  0  0
   39.2607   34.5002   40.5943 N   0  0  0  0  0  0  0  0  0  0  0  0
  1 17  2  0  0  0  0
  1 16  1  0  0  0  0
  2  3  2  0  0  0  0
  2 26  1  0  0  0  0
  3  4  1  0  0  0  0
  4  5  2  0  0  0  0
  5  6  1  0  0  0  0
  6  7  1  0  0  0  0
  6 26  2  0  0  0  0
  7 27  2  0  0  0  0
  8  9  2  0  0  0  0
  8 13  1  0  0  0  0
  8 27  1  0  0  0  0
  9 10  1  0  0  0  0
 10 11  2  0  0  0  0
 11 12  1  0  0  0  0
 11 14  1  0  0  0  0
 12 13  2  0  0  0  0
 14 15  1  0  0  0  0
 15 16  2  0  0  0  0
 15 19  1  0  0  0  0
 17 18  1  0  0  0  0
 17 28  1  0  0  0  0
 18 19  2  0  0  0  0
 20 21  1  0  0  0  0
 20 28  2  0  0  0  0
 21 22  2  0  0  0  0
 21 29  1  0  0  0  0
 22 23  1  0  0  0  0
 23 24  2  0  0  0  0
 24 25  1  0  0  0  0
 25 29  2  0  0  0  0
M  END
>  <CHROM.1>
-54.16856976,-135.20839318,94.70662184,-70.60396861,-117.55598977,85.18393155
44.39279928,40.14762822,42.37945412,2.41851244,-0.29415902,-2.39082185

>  <Name>
ligand

>  <RI>
0

>  <Rbt.Current_Directory>
/home/itssahil/PROJECTS/Mol_Feturizer/New_Systems/rnas/4JIY

>  <Rbt.Executable>
rbdock ($Id: //depot/dev/client3/rdock/2013.1/src/exe/rbdock.cxx#4 $)

>  <Rbt.Library>
libRbt.so (2013.1, Build901 2013/11/27)

>  <Rbt.Parameter_File>
/export/apps/rDock/src/rDock_2013.1_src/data/scripts/dock_solv.prm

>  <Rbt.Receptor>
prm/pocket_docking_5.prm

>  <SCORE>
-3.64084

>  <SCORE.INTER>
-2.69399

>  <SCORE.INTER.CONST>
1

>  <SCORE.INTER.POLAR>
0

>  <SCORE.INTER.ROT>
6

>  <SCORE.INTER.SOLV>
2.0428

>  <SCORE.INTER.VDW>
-10.0769

>  <SCORE.INTER.norm>
-0.0928963

>  <SCORE.INTRA>
-0.956526

>  <SCORE.INTRA.DIHEDRAL>
-0.0608855

>  <SCORE.INTRA.DIHEDRAL.0>
7.2424

>  <SCORE.INTRA.POLAR>
0

>  <SCORE.INTRA.POLAR.0>
0

>  <SCORE.INTRA.REPUL>
0

>  <SCORE.INTRA.REPUL.0>
0

>  <SCORE.INTRA.SOLV>
-0.0203179

>  <SCORE.INTRA.SOLV.lig_0>
-3.36201

>  <SCORE.INTRA.VDW>
-0.915924

>  <SCORE.INTRA.VDW.0>
-0.910526

>  <SCORE.INTRA.norm>
-0.0329837

>  <SCORE.RESTR>
0.00967584

>  <SCORE.RESTR.CAVITY>
0.00967584

>  <SCORE.RESTR.norm>
0.00033365

>  <SCORE.SYSTEM>
0

>  <SCORE.SYSTEM.CONST>
0

>  <SCORE.SYSTEM.DIHEDRAL>
0

>  <SCORE.SYSTEM.SOLV>
0

>  <SCORE.SYSTEM.norm>
0

>  <SCORE.heavy>
29

>  <SCORE.norm>
-0.125546

>  <RMSD>
4.691

$$$$
ligand
 OpenBabel11021811503D
libRbt.so/2013.1/901 2013/11/27
 29 32  0  0  0  0  0  0  0  0999 V2000
   45.4817   42.2565   44.6234 C   0  0  0  0  0  0  0  0  0  0  0  0
   35.1760   40.5608   44.2346 C   0  0  0  0  0  0  0  0  0  0  0  0
   34.8886   39.3502   44.8790 C   0  0  0  0  0  0  0  0  0  0  0  0
   35.8609   38.4384   45.1013 C   0  0  0  0  0  0  0  0  0  0  0  0
   37.1350   38.7007   44.6161 C   0  0  0  0  0  0  0  0  0  0  0  0
   37.3994   39.9159   44.0420 C   0  0  0  0  0  0  0  0  0  0  0  0
   38.7106   40.3814   43.5956 C   0  0  0  0  0  0  0  0  0  0  0  0
   40.4867   40.2240   42.1016 C   0  0  0  0  0  0  0  0  0  0  0  0
   40.6800   41.3500   41.3259 C   0  0  0  0  0  0  0  0  0  0  0  0
   41.9749   41.6726   40.9156 C   0  0  0  0  0  0  0  0  0  0  0  0
   43.0698   40.9655   41.3392 C   0  0  0  0  0  0  0  0  0  0  0  0
   42.8367   39.8259   42.1390 C   0  0  0  0  0  0  0  0  0  0  0  0
   41.5481   39.4212   42.4686 C   0  0  0  0  0  0  0  0  0  0  0  0
   44.4939   41.4077   41.0096 C   0  0  0  0  0  0  0  0  0  0  0  0
   45.2550   41.9394   42.2161 C   0  0  0  0  0  0  0  0  0  0  0  0
   44.8133   41.7851   43.5053 C   0  0  0  0  0  0  0  0  0  0  0  0
   46.6701   42.9010   44.4070 C   0  0  0  0  0  0  0  0  0  0  0  0
   47.1068   43.0610   43.1381 C   0  0  0  0  0  0  0  0  0  0  0  0
   46.4332   42.6061   42.0271 C   0  0  0  0  0  0  0  0  0  0  0  0
   48.6884   43.0356   45.5466 C   0  0  0  0  0  0  0  0  0  0  0  0
   49.4816   43.4700   46.6769 C   0  0  0  0  0  0  0  0  0  0  0  0
   49.0596   43.4585   48.0126 C   0  0  0  0  0  0  0  0  0  0  0  0
   49.9342   43.9226   48.9738 C   0  0  0  0  0  0  0  0  0  0  0  0
   51.1923   44.3421   48.5714 C   0  0  0  0  0  0  0  0  0  0  0  0
   51.5483   44.3690   47.2403 C   0  0  0  0  0  0  0  0  0  0  0  0
   36.4247   40.8366   43.8220 N   0  0  0  0  0  0  0  0  0  0  0  0
   39.1307   39.8503   42.4799 N   0  0  0  0  0  0  0  0  0  0  0  0
   47.4659   43.4357   45.5170 N   0  0  0  0  0  0  0  0  0  0  0  0
   50.7252   43.9046   46.3123 N   0  0  0  0  0  0  0  0  0  0  0  0
  1 17  2  0  0  0  0
  1 16  1  0  0  0  0
  2  3  2  0  0  0  0
  2 26  1  0  0  0  0
  3  4  1  0  0  0  0
  4  5  2  0  0  0  0
  5  6  1  0  0  0  0
  6  7  1  0  0  0  0
  6 26  2  0  0  0  0
  7 27  2  0  0  0  0
  8  9  2  0  0  0  0
  8 13  1  0  0  0  0
  8 27  1  0  0  0  0
  9 10  1  0  0  0  0
 10 11  2  0  0  0  0
 11 12  1  0  0  0  0
 11 14  1  0  0  0  0
 12 13  2  0  0  0  0
 14 15  1  0  0  0  0
 15 16  2  0  0  0  0
 15 19  1  0  0  0  0
 17 18  1  0  0  0  0
 17 28  1  0  0  0  0
 18 19  2  0  0  0  0
 20 21  1  0  0  0  0
 20 28  2  0  0  0  0
 21 22  2  0  0  0  0
 21 29  1  0  0  0  0
 22 23  1  0  0  0  0
 23 24  2  0  0  0  0
 24 25  1  0  0  0  0
 25 29  2  0  0  0  0
M  END
>  <CHROM.1>
75.37152706,109.06765799,12.54647969,44.82542619,-89.34122849,126.05015868
43.57766305,41.64149767,44.15953100,0.25937062,0.27964230,1.46276941

>  <Name>
ligand

>  <RI>
0

>  <Rbt.Current_Directory>
/home/itssahil/PROJECTS/Mol_Feturizer/New_Systems/rnas/4JIY

>  <Rbt.Executable>
rbdock ($Id: //depot/dev/client3/rdock/2013.1/src/exe/rbdock.cxx#4 $)

>  <Rbt.Library>
libRbt.so (2013.1, Build901 2013/11/27)

>  <Rbt.Parameter_File>
/export/apps/rDock/src/rDock_2013.1_src/data/scripts/dock_solv.prm

>  <Rbt.Receptor>
prm/pocket_docking_5.prm

>  <SCORE>
-1.66918

>  <SCORE.INTER>
-1.2627

>  <SCORE.INTER.CONST>
1

>  <SCORE.INTER.POLAR>
0

>  <SCORE.INTER.ROT>
6

>  <SCORE.INTER.SOLV>
1.21973

>  <SCORE.INTER.VDW>
-8.84838

>  <SCORE.INTER.norm>
-0.0435415

>  <SCORE.INTRA>
-0.441128

>  <SCORE.INTRA.DIHEDRAL>
0.0527624

>  <SCORE.INTRA.DIHEDRAL.0>
7.2424

>  <SCORE.INTRA.POLAR>
0

>  <SCORE.INTRA.POLAR.0>
0

>  <SCORE.INTRA.REPUL>
0

>  <SCORE.INTRA.REPUL.0>
0

>  <SCORE.INTRA.SOLV>
-0.0198305

>  <SCORE.INTRA.SOLV.lig_0>
-3.36201

>  <SCORE.INTRA.VDW>
-0.457594

>  <SCORE.INTRA.VDW.0>
-0.910526

>  <SCORE.INTRA.norm>
-0.0152113

>  <SCORE.RESTR>
0.0346561

>  <SCORE.RESTR.CAVITY>
0.0346561

>  <SCORE.RESTR.norm>
0.00119504

>  <SCORE.SYSTEM>
0

>  <SCORE.SYSTEM.CONST>
0

>  <SCORE.SYSTEM.DIHEDRAL>
0

>  <SCORE.SYSTEM.SOLV>
0

>  <SCORE.SYSTEM.norm>
0

>  <SCORE.heavy>
29

>  <SCORE.norm>
-0.0575578

>  <RMSD>
4.695

$$$$
ligand
 OpenBabel11021811503D
libRbt.so/2013.1/901 2013/11/27
 29 32  0  0  0  0  0  0  0  0999 V2000
   42.6587   38.9176   40.8771 C   0  0  0  0  0  0  0  0  0  0  0  0
   51.0061   47.0931   43.8746 C   0  0  0  0  0  0  0  0  0  0  0  0
   51.4749   46.6945   45.1336 C   0  0  0  0  0  0  0  0  0  0  0  0
   51.2737   45.4342   45.5780 C   0  0  0  0  0  0  0  0  0  0  0  0
   50.5336   44.5658   44.7871 C   0  0  0  0  0  0  0  0  0  0  0  0
   50.1383   44.9648   43.5378 C   0  0  0  0  0  0  0  0  0  0  0  0
   49.4619   44.1280   42.5491 C   0  0  0  0  0  0  0  0  0  0  0  0
   47.4834   43.3213   41.6295 C   0  0  0  0  0  0  0  0  0  0  0  0
   47.9003   43.2383   40.3157 C   0  0  0  0  0  0  0  0  0  0  0  0
   47.2102   42.3976   39.4405 C   0  0  0  0  0  0  0  0  0  0  0  0
   46.1969   41.5786   39.8655 C   0  0  0  0  0  0  0  0  0  0  0  0
   45.8026   41.6821   41.2170 C   0  0  0  0  0  0  0  0  0  0  0  0
   46.4014   42.5923   42.0807 C   0  0  0  0  0  0  0  0  0  0  0  0
   45.5437   40.5546   38.9398 C   0  0  0  0  0  0  0  0  0  0  0  0
   44.1466   40.1443   39.3843 C   0  0  0  0  0  0  0  0  0  0  0  0
   43.9163   39.3096   40.4478 C   0  0  0  0  0  0  0  0  0  0  0  0
   41.5864   39.4229   40.1919 C   0  0  0  0  0  0  0  0  0  0  0  0
   41.8082   40.2410   39.1393 C   0  0  0  0  0  0  0  0  0  0  0  0
   43.0592   40.6164   38.7041 C   0  0  0  0  0  0  0  0  0  0  0  0
   39.7350   39.7503   41.5539 C   0  0  0  0  0  0  0  0  0  0  0  0
   38.4110   39.3801   42.0073 C   0  0  0  0  0  0  0  0  0  0  0  0
   38.0931   38.2045   42.6995 C   0  0  0  0  0  0  0  0  0  0  0  0
   36.7748   37.9927   43.0481 C   0  0  0  0  0  0  0  0  0  0  0  0
   35.8439   38.9676   42.7257 C   0  0  0  0  0  0  0  0  0  0  0  0
   36.1994   40.0911   42.0111 C   0  0  0  0  0  0  0  0  0  0  0  0
   50.3439   46.2297   43.0863 N   0  0  0  0  0  0  0  0  0  0  0  0
   48.1621   44.2433   42.5298 N   0  0  0  0  0  0  0  0  0  0  0  0
   40.2091   39.0811   40.5627 N   0  0  0  0  0  0  0  0  0  0  0  0
   37.4651   40.3151   41.6916 N   0  0  0  0  0  0  0  0  0  0  0  0
  1 17  2  0  0  0  0
  1 16  1  0  0  0  0
  2  3  2  0  0  0  0
  2 26  1  0  0  0  0
  3  4  1  0  0  0  0
  4  5  2  0  0  0  0
  5  6  1  0  0  0  0
  6  7  1  0  0  0  0
  6 26  2  0  0  0  0
  7 27  2  0  0  0  0
  8  9  2  0  0  0  0
  8 13  1  0  0  0  0
  8 27  1  0  0  0  0
  9 10  1  0  0  0  0
 10 11  2  0  0  0  0
 11 12  1  0  0  0  0
 11 14  1  0  0  0  0
 12 13  2  0  0  0  0
 14 15  1  0  0  0  0
 15 16  2  0  0  0  0
 15 19  1  0  0  0  0
 17 18  1  0  0  0  0
 17 28  1  0  0  0  0
 18 19  2  0  0  0  0
 20 21  1  0  0  0  0
 20 28  2  0  0  0  0
 21 22  2  0  0  0  0
 21 29  1  0  0  0  0
 22 23  1  0  0  0  0
 23 24  2  0  0  0  0
 24 25  1  0  0  0  0
 25 29  2  0  0  0  0
M  END
>  <CHROM.1>
96.32850341,-157.62792891,-74.48799847,71.74635972,-51.50422500,80.74206786
44.44097363,41.77368611,41.70275790,-2.80092909,0.36291178,1.08356534

>  <Name>
ligand

>  <RI>
0

>  <Rbt.Current_Directory>
/home/itssahil/PROJECTS/Mol_Feturizer/New_Systems/rnas/4JIY

>  <Rbt.Executable>
rbdock ($Id: //depot/dev/client3/rdock/2013.1/src/exe/rbdock.cxx#4 $)

>  <Rbt.Library>
libRbt.so (2013.1, Build901 2013/11/27)

>  <Rbt.Parameter_File>
/export/apps/rDock/src/rDock_2013.1_src/data/scripts/dock_solv.prm

>  <Rbt.Receptor>
prm/pocket_docking_7.prm

>  <SCORE>
-7.86021

>  <SCORE.INTER>
-7.47211

>  <SCORE.INTER.CONST>
1

>  <SCORE.INTER.POLAR>
0

>  <SCORE.INTER.ROT>
6

>  <SCORE.INTER.SOLV>
2.23378

>  <SCORE.INTER.VDW>
-13.326

>  <SCORE.INTER.norm>
-0.257659

>  <SCORE.INTRA>
-0.388655

>  <SCORE.INTRA.DIHEDRAL>
0.281958

>  <SCORE.INTRA.DIHEDRAL.0>
7.2424

>  <SCORE.INTRA.POLAR>
0

>  <SCORE.INTRA.POLAR.0>
0

>  <SCORE.INTRA.REPUL>
0

>  <SCORE.INTRA.REPUL.0>
0

>  <SCORE.INTRA.SOLV>
-0.0182934

>  <SCORE.INTRA.SOLV.lig_0>
-3.36201

>  <SCORE.INTRA.VDW>
-0.520488

>  <SCORE.INTRA.VDW.0>
-0.910526

>  <SCORE.INTRA.norm>
-0.0134019

>  <SCORE.RESTR>
0.000556913

>  <SCORE.RESTR.CAVITY>
0.000556913

>  <SCORE.RESTR.norm>
1.92039e-05

>  <SCORE.SYSTEM>
0

>  <SCORE.SYSTEM.CONST>
0

>  <SCORE.SYSTEM.DIHEDRAL>
0

>  <SCORE.SYSTEM.SOLV>
0

>  <SCORE.SYSTEM.norm>
0

>  <SCORE.heavy>
29

>  <SCORE.norm>
-0.271042

>  <RMSD>
4.719

$$$$
ligand
 OpenBabel11021811503D
libRbt.so/2013.1/901 2013/11/27
 29 32  0  0  0  0  0  0  0  0999 V2000
   41.1900   40.4952   39.8113 C   0  0  0  0  0  0  0  0  0  0  0  0
   49.4470   42.6155   48.5597 C   0  0  0  0  0  0  0  0  0  0  0  0
   49.4056   43.9347   49.0306 C   0  0  0  0  0  0  0  0  0  0  0  0
   48.9721   44.9381   48.2361 C   0  0  0  0  0  0  0  0  0  0  0  0
   48.6339   44.6409   46.9228 C   0  0  0  0  0  0  0  0  0  0  0  0
   48.6290   43.3355   46.5082 C   0  0  0  0  0  0  0  0  0  0  0  0
   48.1844   42.8571   45.2010 C   0  0  0  0  0  0  0  0  0  0  0  0
   46.5279   42.7385   43.5721 C   0  0  0  0  0  0  0  0  0  0  0  0
   45.4332   41.8976   43.6088 C   0  0  0  0  0  0  0  0  0  0  0  0
   44.9979   41.3043   42.4224 C   0  0  0  0  0  0  0  0  0  0  0  0
   45.5591   41.6066   41.2091 C   0  0  0  0  0  0  0  0  0  0  0  0
   46.6703   42.4773   41.2070 C   0  0  0  0  0  0  0  0  0  0  0  0
   47.1909   42.9932   42.3884 C   0  0  0  0  0  0  0  0  0  0  0  0
   44.9869   41.0709   39.8985 C   0  0  0  0  0  0  0  0  0  0  0  0
   43.6153   40.4294   40.0566 C   0  0  0  0  0  0  0  0  0  0  0  0
   42.4521   41.0513   39.6809 C   0  0  0  0  0  0  0  0  0  0  0  0
   41.1221   39.2323   40.3356 C   0  0  0  0  0  0  0  0  0  0  0  0
   42.2649   38.6175   40.7130 C   0  0  0  0  0  0  0  0  0  0  0  0
   43.5170   39.1781   40.5976 C   0  0  0  0  0  0  0  0  0  0  0  0
   39.4827   37.8029   39.5234 C   0  0  0  0  0  0  0  0  0  0  0  0
   38.1812   37.1772   39.6227 C   0  0  0  0  0  0  0  0  0  0  0  0
   37.7804   36.3027   40.6409 C   0  0  0  0  0  0  0  0  0  0  0  0
   36.5057   35.7774   40.5812 C   0  0  0  0  0  0  0  0  0  0  0  0
   35.6808   36.1687   39.5385 C   0  0  0  0  0  0  0  0  0  0  0  0
   36.1332   37.0036   38.5398 C   0  0  0  0  0  0  0  0  0  0  0  0
   49.0593   42.3239   47.3067 N   0  0  0  0  0  0  0  0  0  0  0  0
   47.0222   43.3103   44.8171 N   0  0  0  0  0  0  0  0  0  0  0  0
   39.8395   38.5434   40.5132 N   0  0  0  0  0  0  0  0  0  0  0  0
   37.3466   37.5312   38.5996 N   0  0  0  0  0  0  0  0  0  0  0  0
  1 17  2  0  0  0  0
  1 16  1  0  0  0  0
  2  3  2  0  0  0  0
  2 26  1  0  0  0  0
  3  4  1  0  0  0  0
  4  5  2  0  0  0  0
  5  6  1  0  0  0  0
  6  7  1  0  0  0  0
  6 26  2  0  0  0  0
  7 27  2  0  0  0  0
  8  9  2  0  0  0  0
  8 13  1  0  0  0  0
  8 27  1  0  0  0  0
  9 10  1  0  0  0  0
 10 11  2  0  0  0  0
 11 12  1  0  0  0  0
 11 14  1  0  0  0  0
 12 13  2  0  0  0  0
 14 15  1  0  0  0  0
 15 16  2  0  0  0  0
 15 19  1  0  0  0  0
 17 18  1  0  0  0  0
 17 28  1  0  0  0  0
 18 19  2  0  0  0  0
 20 21  1  0  0  0  0
 20 28  2  0  0  0  0
 21 22  2  0  0  0  0
 21 29  1  0  0  0  0
 22 23  1  0  0  0  0
 23 24  2  0  0  0  0
 24 25  1  0  0  0  0
 25 29  2  0  0  0  0
M  END
>  <CHROM.1>
-48.90288369,11.55207736,103.36895151,-58.91951996,110.94750035,92.26482417
43.65049960,40.59579755,42.39628215,-2.67574005,0.57373135,1.67318486

>  <Name>
ligand

>  <RI>
0

>  <Rbt.Current_Directory>
/home/itssahil/PROJECTS/Mol_Feturizer/New_Systems/rnas/4JIY

>  <Rbt.Executable>
rbdock ($Id: //depot/dev/client3/rdock/2013.1/src/exe/rbdock.cxx#4 $)

>  <Rbt.Library>
libRbt.so (2013.1, Build901 2013/11/27)

>  <Rbt.Parameter_File>
/export/apps/rDock/src/rDock_2013.1_src/data/scripts/dock_solv.prm

>  <Rbt.Receptor>
prm/pocket_docking_6.prm

>  <SCORE>
-4.73897

>  <SCORE.INTER>
-4.15912

>  <SCORE.INTER.CONST>
1

>  <SCORE.INTER.POLAR>
0

>  <SCORE.INTER.ROT>
6

>  <SCORE.INTER.SOLV>
1.88909

>  <SCORE.INTER.VDW>
-11.0024

>  <SCORE.INTER.norm>
-0.143418

>  <SCORE.INTRA>
-0.581016

>  <SCORE.INTRA.DIHEDRAL>
0.136915

>  <SCORE.INTRA.DIHEDRAL.0>
7.2424

>  <SCORE.INTRA.POLAR>
0

>  <SCORE.INTRA.POLAR.0>
0

>  <SCORE.INTRA.REPUL>
0

>  <SCORE.INTRA.REPUL.0>
0

>  <SCORE.INTRA.SOLV>
-0.0196649

>  <SCORE.INTRA.SOLV.lig_0>
-3.36201

>  <SCORE.INTRA.VDW>
-0.639641

>  <SCORE.INTRA.VDW.0>
-0.910526

>  <SCORE.INTRA.norm>
-0.020035

>  <SCORE.RESTR>
0.00116374

>  <SCORE.RESTR.CAVITY>
0.00116374

>  <SCORE.RESTR.norm>
4.01291e-05

>  <SCORE.SYSTEM>
0

>  <SCORE.SYSTEM.CONST>
0

>  <SCORE.SYSTEM.DIHEDRAL>
0

>  <SCORE.SYSTEM.SOLV>
0

>  <SCORE.SYSTEM.norm>
0

>  <SCORE.heavy>
29

>  <SCORE.norm>
-0.163413

>  <RMSD>
4.757

$$$$
ligand
 OpenBabel11021811503D
libRbt.so/2013.1/901 2013/11/27
 29 32  0  0  0  0  0  0  0  0999 V2000
   42.4074   41.2303   39.3026 C   0  0  0  0  0  0  0  0  0  0  0  0
   51.6187   46.8359   44.8503 C   0  0  0  0  0  0  0  0  0  0  0  0
   51.3337   46.7638   46.2204 C   0  0  0  0  0  0  0  0  0  0  0  0
   50.4581   45.8512   46.6964 C   0  0  0  0  0  0  0  0  0  0  0  0
   49.7982   45.0337   45.7889 C   0  0  0  0  0  0  0  0  0  0  0  0
   50.1393   45.0871   44.4634 C   0  0  0  0  0  0  0  0  0  0  0  0
   49.6228   44.2118   43.4135 C   0  0  0  0  0  0  0  0  0  0  0  0
   48.0570   43.8006   41.7430 C   0  0  0  0  0  0  0  0  0  0  0  0
   46.9727   43.0358   42.1253 C   0  0  0  0  0  0  0  0  0  0  0  0
   46.4437   42.1146   41.2194 C   0  0  0  0  0  0  0  0  0  0  0  0
   46.9018   42.0153   39.9315 C   0  0  0  0  0  0  0  0  0  0  0  0
   48.0052   42.8187   39.5715 C   0  0  0  0  0  0  0  0  0  0  0  0
   48.6192   43.6630   40.4898 C   0  0  0  0  0  0  0  0  0  0  0  0
   46.2259   41.1134   38.9010 C   0  0  0  0  0  0  0  0  0  0  0  0
   44.7964   40.7417   39.2699 C   0  0  0  0  0  0  0  0  0  0  0  0
   43.7189   41.5396   38.9809 C   0  0  0  0  0  0  0  0  0  0  0  0
   42.1914   40.0352   39.9348 C   0  0  0  0  0  0  0  0  0  0  0  0
   43.2504   39.2482   40.2272 C   0  0  0  0  0  0  0  0  0  0  0  0
   44.5547   39.5647   39.9212 C   0  0  0  0  0  0  0  0  0  0  0  0
   40.1717   39.0352   39.3769 C   0  0  0  0  0  0  0  0  0  0  0  0
   38.8050   38.6743   39.6885 C   0  0  0  0  0  0  0  0  0  0  0  0
   38.3360   37.3671   39.8721 C   0  0  0  0  0  0  0  0  0  0  0  0
   36.9957   37.1912   40.1496 C   0  0  0  0  0  0  0  0  0  0  0  0
   36.1944   38.3161   40.2653 C   0  0  0  0  0  0  0  0  0  0  0  0
   36.6948   39.5802   40.0396 C   0  0  0  0  0  0  0  0  0  0  0  0
   51.0233   46.0002   43.9827 N   0  0  0  0  0  0  0  0  0  0  0  0
   48.6497   44.7182   42.7064 N   0  0  0  0  0  0  0  0  0  0  0  0
   40.8431   39.6022   40.3166 N   0  0  0  0  0  0  0  0  0  0  0  0
   37.9838   39.7618   39.7952 N   0  0  0  0  0  0  0  0  0  0  0  0
  1 17  2  0  0  0  0
  1 16  1  0  0  0  0
  2  3  2  0  0  0  0
  2 26  1  0  0  0  0
  3  4  1  0  0  0  0
  4  5  2  0  0  0  0
  5  6  1  0  0  0  0
  6  7  1  0  0  0  0
  6 26  2  0  0  0  0
  7 27  2  0  0  0  0
  8  9  2  0  0  0  0
  8 13  1  0  0  0  0
  8 27  1  0  0  0  0
  9 10  1  0  0  0  0
 10 11  2  0  0  0  0
 11 12  1  0  0  0  0
 11 14  1  0  0  0  0
 12 13  2  0  0  0  0
 14 15  1  0  0  0  0
 15 16  2  0  0  0  0
 15 19  1  0  0  0  0
 17 18  1  0  0  0  0
 17 28  1  0  0  0  0
 18 19  2  0  0  0  0
 20 21  1  0  0  0  0
 20 28  2  0  0  0  0
 21 22  2  0  0  0  0
 21 29  1  0  0  0  0
 22 23  1  0  0  0  0
 23 24  2  0  0  0  0
 24 25  1  0  0  0  0
 25 29  2  0  0  0  0
M  END
>  <CHROM.1>
98.45539723,19.72051347,84.82467936,-108.60357511,91.29718484,83.34236327
44.85840708,41.90284072,41.34744324,-2.63967848,0.35084491,1.15186720

>  <Name>
ligand

>  <RI>
0

>  <Rbt.Current_Directory>
/home/itssahil/PROJECTS/Mol_Feturizer/New_Systems/rnas/4JIY

>  <Rbt.Executable>
rbdock ($Id: //depot/dev/client3/rdock/2013.1/src/exe/rbdock.cxx#4 $)

>  <Rbt.Library>
libRbt.so (2013.1, Build901 2013/11/27)

>  <Rbt.Parameter_File>
/export/apps/rDock/src/rDock_2013.1_src/data/scripts/dock_solv.prm

>  <Rbt.Receptor>
prm/pocket_docking_8.prm

>  <SCORE>
-8.12674

>  <SCORE.INTER>
-7.61632

>  <SCORE.INTER.CONST>
1

>  <SCORE.INTER.POLAR>
0

>  <SCORE.INTER.ROT>
6

>  <SCORE.INTER.SOLV>
2.32323

>  <SCORE.INTER.VDW>
-13.452

>  <SCORE.INTER.norm>
-0.262632

>  <SCORE.INTRA>
-0.510426

>  <SCORE.INTRA.DIHEDRAL>
0.972963

>  <SCORE.INTRA.DIHEDRAL.0>
7.2424

>  <SCORE.INTRA.POLAR>
0

>  <SCORE.INTRA.POLAR.0>
0

>  <SCORE.INTRA.REPUL>
0

>  <SCORE.INTRA.REPUL.0>
0

>  <SCORE.INTRA.SOLV>
-0.0155223

>  <SCORE.INTRA.SOLV.lig_0>
-3.36201

>  <SCORE.INTRA.VDW>
-0.989147

>  <SCORE.INTRA.VDW.0>
-0.910526

>  <SCORE.INTRA.norm>
-0.0176009

>  <SCORE.RESTR>
0

>  <SCORE.RESTR.CAVITY>
0

>  <SCORE.RESTR.norm>
0

>  <SCORE.SYSTEM>
0

>  <SCORE.SYSTEM.CONST>
0

>  <SCORE.SYSTEM.DIHEDRAL>
0

>  <SCORE.SYSTEM.SOLV>
0

>  <SCORE.SYSTEM.norm>
0

>  <SCORE.heavy>
29

>  <SCORE.norm>
-0.280232

>  <RMSD>
4.759

$$$$
ligand
 OpenBabel11021811503D
libRbt.so/2013.1/901 2013/11/27
 29 32  0  0  0  0  0  0  0  0999 V2000
   39.9414   41.5524   40.0722 C   0  0  0  0  0  0  0  0  0  0  0  0
   50.0129   44.3289   45.6490 C   0  0  0  0  0  0  0  0  0  0  0  0
   49.5273   45.1820   46.6490 C   0  0  0  0  0  0  0  0  0  0  0  0
   48.2111   45.2093   46.9540 C   0  0  0  0  0  0  0  0  0  0  0  0
   47.3442   44.4227   46.2076 C   0  0  0  0  0  0  0  0  0  0  0  0
   47.8538   43.5569   45.2766 C   0  0  0  0  0  0  0  0  0  0  0  0
   47.0835   42.5857   44.5029 C   0  0  0  0  0  0  0  0  0  0  0  0
   45.6980   42.1163   42.6942 C   0  0  0  0  0  0  0  0  0  0  0  0
   44.6700   41.5038   43.3834 C   0  0  0  0  0  0  0  0  0  0  0  0
   43.8787   40.5642   42.7201 C   0  0  0  0  0  0  0  0  0  0  0  0
   44.0256   40.3035   41.3827 C   0  0  0  0  0  0  0  0  0  0  0  0
   45.0801   40.9544   40.7067 C   0  0  0  0  0  0  0  0  0  0  0  0
   45.9506   41.8103   41.3721 C   0  0  0  0  0  0  0  0  0  0  0  0
   43.0650   39.3869   40.6281 C   0  0  0  0  0  0  0  0  0  0  0  0
   41.6254   39.8819   40.6383 C   0  0  0  0  0  0  0  0  0  0  0  0
   41.2415   41.0741   40.0796 C   0  0  0  0  0  0  0  0  0  0  0  0
   38.9874   40.7584   40.6504 C   0  0  0  0  0  0  0  0  0  0  0  0
   39.3615   39.5854   41.2078 C   0  0  0  0  0  0  0  0  0  0  0  0
   40.6567   39.1193   41.2284 C   0  0  0  0  0  0  0  0  0  0  0  0
   36.8751   40.7774   39.6872 C   0  0  0  0  0  0  0  0  0  0  0  0
   35.5010   41.2311   39.6497 C   0  0  0  0  0  0  0  0  0  0  0  0
   34.4789   40.7846   40.4973 C   0  0  0  0  0  0  0  0  0  0  0  0
   33.2141   41.3073   40.3205 C   0  0  0  0  0  0  0  0  0  0  0  0
   33.0304   42.2684   39.3390 C   0  0  0  0  0  0  0  0  0  0  0  0
   34.0597   42.6487   38.5051 C   0  0  0  0  0  0  0  0  0  0  0  0
   49.1774   43.5236   44.9715 N   0  0  0  0  0  0  0  0  0  0  0  0
   46.5638   43.0511   43.3999 N   0  0  0  0  0  0  0  0  0  0  0  0
   37.5778   41.1612   40.6942 N   0  0  0  0  0  0  0  0  0  0  0  0
   35.2822   42.1704   38.6810 N   0  0  0  0  0  0  0  0  0  0  0  0
  1 17  2  0  0  0  0
  1 16  1  0  0  0  0
  2  3  2  0  0  0  0
  2 26  1  0  0  0  0
  3  4  1  0  0  0  0
  4  5  2  0  0  0  0
  5  6  1  0  0  0  0
  6  7  1  0  0  0  0
  6 26  2  0  0  0  0
  7 27  2  0  0  0  0
  8  9  2  0  0  0  0
  8 13  1  0  0  0  0
  8 27  1  0  0  0  0
  9 10  1  0  0  0  0
 10 11  2  0  0  0  0
 11 12  1  0  0  0  0
 11 14  1  0  0  0  0
 12 13  2  0  0  0  0
 14 15  1  0  0  0  0
 15 16  2  0  0  0  0
 15 19  1  0  0  0  0
 17 18  1  0  0  0  0
 17 28  1  0  0  0  0
 18 19  2  0  0  0  0
 20 21  1  0  0  0  0
 20 28  2  0  0  0  0
 21 22  2  0  0  0  0
 21 29  1  0  0  0  0
 22 23  1  0  0  0  0
 23 24  2  0  0  0  0
 24 25  1  0  0  0  0
 25 29  2  0  0  0  0
M  END
>  <CHROM.1>
86.53185398,60.86539027,62.10864306,-71.09112755,52.27667320,90.26430447
42.07500984,41.82149139,41.98307095,-2.76550473,-0.21675776,0.66728635

>  <Name>
ligand

>  <RI>
0

>  <Rbt.Current_Directory>
/home/itssahil/PROJECTS/Mol_Feturizer/New_Systems/rnas/4JIY

>  <Rbt.Executable>
rbdock ($Id: //depot/dev/client3/rdock/2013.1/src/exe/rbdock.cxx#4 $)

>  <Rbt.Library>
libRbt.so (2013.1, Build901 2013/11/27)

>  <Rbt.Parameter_File>
/export/apps/rDock/src/rDock_2013.1_src/data/scripts/dock_solv.prm

>  <Rbt.Receptor>
prm/pocket_docking_6.prm

>  <SCORE>
-3.52561

>  <SCORE.INTER>
-2.86702

>  <SCORE.INTER.CONST>
1

>  <SCORE.INTER.POLAR>
0

>  <SCORE.INTER.ROT>
6

>  <SCORE.INTER.SOLV>
2.08034

>  <SCORE.INTER.VDW>
-10.2048

>  <SCORE.INTER.norm>
-0.0988626

>  <SCORE.INTRA>
-0.658588

>  <SCORE.INTRA.DIHEDRAL>
0.208973

>  <SCORE.INTRA.DIHEDRAL.0>
7.2424

>  <SCORE.INTRA.POLAR>
0

>  <SCORE.INTRA.POLAR.0>
0

>  <SCORE.INTRA.REPUL>
0

>  <SCORE.INTRA.REPUL.0>
0

>  <SCORE.INTRA.SOLV>
-0.017784

>  <SCORE.INTRA.SOLV.lig_0>
-3.36201

>  <SCORE.INTRA.VDW>
-0.754183

>  <SCORE.INTRA.VDW.0>
-0.910526

>  <SCORE.INTRA.norm>
-0.0227099

>  <SCORE.RESTR>
0

>  <SCORE.RESTR.CAVITY>
0

>  <SCORE.RESTR.norm>
0

>  <SCORE.SYSTEM>
0

>  <SCORE.SYSTEM.CONST>
0

>  <SCORE.SYSTEM.DIHEDRAL>
0

>  <SCORE.SYSTEM.SOLV>
0

>  <SCORE.SYSTEM.norm>
0

>  <SCORE.heavy>
29

>  <SCORE.norm>
-0.121573

>  <RMSD>
4.785

$$$$
ligand
 OpenBabel11021811503D
libRbt.so/2013.1/901 2013/11/27
 29 32  0  0  0  0  0  0  0  0999 V2000
   38.8121   39.3471   40.5574 C   0  0  0  0  0  0  0  0  0  0  0  0
   49.0591   43.6829   44.9172 C   0  0  0  0  0  0  0  0  0  0  0  0
   50.1767   44.2485   44.2889 C   0  0  0  0  0  0  0  0  0  0  0  0
   50.1493   44.5502   42.9719 C   0  0  0  0  0  0  0  0  0  0  0  0
   49.0132   44.2241   42.2437 C   0  0  0  0  0  0  0  0  0  0  0  0
   47.9163   43.7258   42.8953 C   0  0  0  0  0  0  0  0  0  0  0  0
   46.6160   43.4494   42.2885 C   0  0  0  0  0  0  0  0  0  0  0  0
   45.2645   42.0618   41.0004 C   0  0  0  0  0  0  0  0  0  0  0  0
   45.1149   42.5691   39.7248 C   0  0  0  0  0  0  0  0  0  0  0  0
   43.8917   42.4049   39.0723 C   0  0  0  0  0  0  0  0  0  0  0  0
   42.8694   41.6719   39.6165 C   0  0  0  0  0  0  0  0  0  0  0  0
   43.0596   41.1596   40.9180 C   0  0  0  0  0  0  0  0  0  0  0  0
   44.2276   41.4044   41.6314 C   0  0  0  0  0  0  0  0  0  0  0  0
   41.5894   41.3702   38.8400 C   0  0  0  0  0  0  0  0  0  0  0  0
   40.7890   40.2135   39.4224 C   0  0  0  0  0  0  0  0  0  0  0  0
   39.5648   40.3778   40.0185 C   0  0  0  0  0  0  0  0  0  0  0  0
   39.3344   38.0851   40.4621 C   0  0  0  0  0  0  0  0  0  0  0  0
   40.5431   37.9187   39.8810 C   0  0  0  0  0  0  0  0  0  0  0  0
   41.2971   38.9462   39.3606 C   0  0  0  0  0  0  0  0  0  0  0  0
   38.4031   36.9486   42.2597 C   0  0  0  0  0  0  0  0  0  0  0  0
   37.7818   35.7747   42.8353 C   0  0  0  0  0  0  0  0  0  0  0  0
   36.6041   35.1741   42.3718 C   0  0  0  0  0  0  0  0  0  0  0  0
   36.1329   34.0650   43.0442 C   0  0  0  0  0  0  0  0  0  0  0  0
   36.8662   33.5855   44.1181 C   0  0  0  0  0  0  0  0  0  0  0  0
   37.9999   34.2330   44.5594 C   0  0  0  0  0  0  0  0  0  0  0  0
   47.9393   43.4264   44.2204 N   0  0  0  0  0  0  0  0  0  0  0  0
   46.5181   42.2848   41.7075 N   0  0  0  0  0  0  0  0  0  0  0  0
   38.6216   36.9180   40.9922 N   0  0  0  0  0  0  0  0  0  0  0  0
   38.4733   35.2844   43.9076 N   0  0  0  0  0  0  0  0  0  0  0  0
  1 17  2  0  0  0  0
  1 16  1  0  0  0  0
  2  3  2  0  0  0  0
  2 26  1  0  0  0  0
  3  4  1  0  0  0  0
  4  5  2  0  0  0  0
  5  6  1  0  0  0  0
  6  7  1  0  0  0  0
  6 26  2  0  0  0  0
  7 27  2  0  0  0  0
  8  9  2  0  0  0  0
  8 13  1  0  0  0  0
  8 27  1  0  0  0  0
  9 10  1  0  0  0  0
 10 11  2  0  0  0  0
 11 12  1  0  0  0  0
 11 14  1  0  0  0  0
 12 13  2  0  0  0  0
 14 15  1  0  0  0  0
 15 16  2  0  0  0  0
 15 19  1  0  0  0  0
 17 18  1  0  0  0  0
 17 28  1  0  0  0  0
 18 19  2  0  0  0  0
 20 21  1  0  0  0  0
 20 28  2  0  0  0  0
 21 22  2  0  0  0  0
 21 29  1  0  0  0  0
 22 23  1  0  0  0  0
 23 24  2  0  0  0  0
 24 25  1  0  0  0  0
 25 29  2  0  0  0  0
M  END
>  <CHROM.1>
84.34878652,161.93687767,111.93759003,-51.99096796,81.96860926,-61.03352123
42.57450873,39.96741341,41.73708088,2.83036312,0.58639767,2.13034632

>  <Name>
ligand

>  <RI>
0

>  <Rbt.Current_Directory>
/home/itssahil/PROJECTS/Mol_Feturizer/New_Systems/rnas/4JIY

>  <Rbt.Executable>
rbdock ($Id: //depot/dev/client3/rdock/2013.1/src/exe/rbdock.cxx#4 $)

>  <Rbt.Library>
libRbt.so (2013.1, Build901 2013/11/27)

>  <Rbt.Parameter_File>
/export/apps/rDock/src/rDock_2013.1_src/data/scripts/dock_solv.prm

>  <Rbt.Receptor>
prm/pocket_docking_5.prm

>  <SCORE>
-1.63756

>  <SCORE.INTER>
-1.14076

>  <SCORE.INTER.CONST>
1

>  <SCORE.INTER.POLAR>
0

>  <SCORE.INTER.ROT>
6

>  <SCORE.INTER.SOLV>
1.56665

>  <SCORE.INTER.VDW>
-8.88272

>  <SCORE.INTER.norm>
-0.0393366

>  <SCORE.INTRA>
-0.496797

>  <SCORE.INTRA.DIHEDRAL>
0.369825

>  <SCORE.INTRA.DIHEDRAL.0>
7.2424

>  <SCORE.INTRA.POLAR>
0

>  <SCORE.INTRA.POLAR.0>
0

>  <SCORE.INTRA.REPUL>
0

>  <SCORE.INTRA.REPUL.0>
0

>  <SCORE.INTRA.SOLV>
-0.018264

>  <SCORE.INTRA.SOLV.lig_0>
-3.36201

>  <SCORE.INTRA.VDW>
-0.672578

>  <SCORE.INTRA.VDW.0>
-0.910526

>  <SCORE.INTRA.norm>
-0.0171309

>  <SCORE.RESTR>
0

>  <SCORE.RESTR.CAVITY>
0

>  <SCORE.RESTR.norm>
0

>  <SCORE.SYSTEM>
0

>  <SCORE.SYSTEM.CONST>
0

>  <SCORE.SYSTEM.DIHEDRAL>
0

>  <SCORE.SYSTEM.SOLV>
0

>  <SCORE.SYSTEM.norm>
0

>  <SCORE.heavy>
29

>  <SCORE.norm>
-0.0564676

>  <RMSD>
4.786

$$$$
ligand
 OpenBabel11021811503D
libRbt.so/2013.1/901 2013/11/27
 29 32  0  0  0  0  0  0  0  0999 V2000
   42.6528   39.4485   41.2446 C   0  0  0  0  0  0  0  0  0  0  0  0
   52.0618   45.5316   44.8858 C   0  0  0  0  0  0  0  0  0  0  0  0
   51.4637   46.5182   45.6812 C   0  0  0  0  0  0  0  0  0  0  0  0
   50.1246   46.6991   45.6663 C   0  0  0  0  0  0  0  0  0  0  0  0
   49.3645   45.9308   44.7949 C   0  0  0  0  0  0  0  0  0  0  0  0
   49.9688   44.9359   44.0730 C   0  0  0  0  0  0  0  0  0  0  0  0
   49.2872   43.9729   43.2108 C   0  0  0  0  0  0  0  0  0  0  0  0
   47.8286   43.5475   41.4493 C   0  0  0  0  0  0  0  0  0  0  0  0
   48.2162   43.2731   40.1526 C   0  0  0  0  0  0  0  0  0  0  0  0
   47.4380   42.4046   39.3852 C   0  0  0  0  0  0  0  0  0  0  0  0
   46.3595   41.7395   39.9077 C   0  0  0  0  0  0  0  0  0  0  0  0
   45.9970   42.0364   41.2392 C   0  0  0  0  0  0  0  0  0  0  0  0
   46.6906   42.9808   41.9875 C   0  0  0  0  0  0  0  0  0  0  0  0
   45.6002   40.6804   39.1114 C   0  0  0  0  0  0  0  0  0  0  0  0
   44.1894   40.4339   39.6276 C   0  0  0  0  0  0  0  0  0  0  0  0
   43.9237   39.6910   40.7494 C   0  0  0  0  0  0  0  0  0  0  0  0
   41.6065   40.0122   40.5647 C   0  0  0  0  0  0  0  0  0  0  0  0
   41.8626   40.7401   39.4552 C   0  0  0  0  0  0  0  0  0  0  0  0
   43.1252   40.9665   38.9553 C   0  0  0  0  0  0  0  0  0  0  0  0
   39.7821   40.7303   41.8081 C   0  0  0  0  0  0  0  0  0  0  0  0
   38.4472   40.5350   42.3327 C   0  0  0  0  0  0  0  0  0  0  0  0
   37.2873   40.3959   41.5597 C   0  0  0  0  0  0  0  0  0  0  0  0
   36.0850   40.2317   42.2168 C   0  0  0  0  0  0  0  0  0  0  0  0
   36.0937   40.1790   43.6018 C   0  0  0  0  0  0  0  0  0  0  0  0
   37.2565   40.3576   44.3196 C   0  0  0  0  0  0  0  0  0  0  0  0
   51.3144   44.7484   44.0900 N   0  0  0  0  0  0  0  0  0  0  0  0
   48.6034   44.5004   42.2322 N   0  0  0  0  0  0  0  0  0  0  0  0
   40.2189   39.8275   41.0022 N   0  0  0  0  0  0  0  0  0  0  0  0
   38.4186   40.4930   43.6987 N   0  0  0  0  0  0  0  0  0  0  0  0
  1 17  2  0  0  0  0
  1 16  1  0  0  0  0
  2  3  2  0  0  0  0
  2 26  1  0  0  0  0
  3  4  1  0  0  0  0
  4  5  2  0  0  0  0
  5  6  1  0  0  0  0
  6  7  1  0  0  0  0
  6 26  2  0  0  0  0
  7 27  2  0  0  0  0
  8  9  2  0  0  0  0
  8 13  1  0  0  0  0
  8 27  1  0  0  0  0
  9 10  1  0  0  0  0
 10 11  2  0  0  0  0
 11 12  1  0  0  0  0
 11 14  1  0  0  0  0
 12 13  2  0  0  0  0
 14 15  1  0  0  0  0
 15 16  2  0  0  0  0
 15 19  1  0  0  0  0
 17 18  1  0  0  0  0
 17 28  1  0  0  0  0
 18 19  2  0  0  0  0
 20 21  1  0  0  0  0
 20 28  2  0  0  0  0
 21 22  2  0  0  0  0
 21 29  1  0  0  0  0
 22 23  1  0  0  0  0
 23 24  2  0  0  0  0
 24 25  1  0  0  0  0
 25 29  2  0  0  0  0
M  END
>  <CHROM.1>
59.40196552,-159.00450679,-77.22283151,-57.66266536,-110.18613075,91.31986550
44.53501348,42.18799506,42.03689029,-2.83993310,0.29080232,1.07923654

>  <Name>
ligand

>  <RI>
0

>  <Rbt.Current_Directory>
/home/itssahil/PROJECTS/Mol_Feturizer/New_Systems/rnas/4JIY

>  <Rbt.Executable>
rbdock ($Id: //depot/dev/client3/rdock/2013.1/src/exe/rbdock.cxx#4 $)

>  <Rbt.Library>
libRbt.so (2013.1, Build901 2013/11/27)

>  <Rbt.Parameter_File>
/export/apps/rDock/src/rDock_2013.1_src/data/scripts/dock_solv.prm

>  <Rbt.Receptor>
prm/pocket_docking_7.prm

>  <SCORE>
-8.01544

>  <SCORE.INTER>
-7.10473

>  <SCORE.INTER.CONST>
1

>  <SCORE.INTER.POLAR>
0

>  <SCORE.INTER.ROT>
6

>  <SCORE.INTER.SOLV>
2.16454

>  <SCORE.INTER.VDW>
-13.058

>  <SCORE.INTER.norm>
-0.244991

>  <SCORE.INTRA>
-0.910939

>  <SCORE.INTRA.DIHEDRAL>
-0.152275

>  <SCORE.INTRA.DIHEDRAL.0>
7.2424

>  <SCORE.INTRA.POLAR>
0

>  <SCORE.INTRA.POLAR.0>
0

>  <SCORE.INTRA.REPUL>
0

>  <SCORE.INTRA.REPUL.0>
0

>  <SCORE.INTRA.SOLV>
-0.0203855

>  <SCORE.INTRA.SOLV.lig_0>
-3.36201

>  <SCORE.INTRA.VDW>
-0.824609

>  <SCORE.INTRA.VDW.0>
-0.910526

>  <SCORE.INTRA.norm>
-0.0314117

>  <SCORE.RESTR>
0.000237937

>  <SCORE.RESTR.CAVITY>
0.000237937

>  <SCORE.RESTR.norm>
8.20472e-06

>  <SCORE.SYSTEM>
0

>  <SCORE.SYSTEM.CONST>
0

>  <SCORE.SYSTEM.DIHEDRAL>
0

>  <SCORE.SYSTEM.SOLV>
0

>  <SCORE.SYSTEM.norm>
0

>  <SCORE.heavy>
29

>  <SCORE.norm>
-0.276394

>  <RMSD>
4.821

$$$$
ligand
 OpenBabel11021811503D
libRbt.so/2013.1/901 2013/11/27
 29 32  0  0  0  0  0  0  0  0999 V2000
   43.8533   38.9186   38.7598 C   0  0  0  0  0  0  0  0  0  0  0  0
   48.1888   47.2704   46.3330 C   0  0  0  0  0  0  0  0  0  0  0  0
   48.4693   48.6216   46.0893 C   0  0  0  0  0  0  0  0  0  0  0  0
   48.4535   49.1140   44.8310 C   0  0  0  0  0  0  0  0  0  0  0  0
   48.2198   48.2359   43.7815 C   0  0  0  0  0  0  0  0  0  0  0  0
   47.8920   46.9341   44.0537 C   0  0  0  0  0  0  0  0  0  0  0  0
   47.5042   45.9278   43.0676 C   0  0  0  0  0  0  0  0  0  0  0  0
   47.9785   43.9542   41.9313 C   0  0  0  0  0  0  0  0  0  0  0  0
   46.9343   43.0686   42.1108 C   0  0  0  0  0  0  0  0  0  0  0  0
   46.6673   42.1291   41.1133 C   0  0  0  0  0  0  0  0  0  0  0  0
   47.3430   42.1217   39.9209 C   0  0  0  0  0  0  0  0  0  0  0  0
   48.3980   43.0469   39.7673 C   0  0  0  0  0  0  0  0  0  0  0  0
   48.7545   43.9184   40.7902 C   0  0  0  0  0  0  0  0  0  0  0  0
   46.9508   41.1904   38.7759 C   0  0  0  0  0  0  0  0  0  0  0  0
   45.5102   40.7052   38.8594 C   0  0  0  0  0  0  0  0  0  0  0  0
   45.1535   39.3918   38.6900 C   0  0  0  0  0  0  0  0  0  0  0  0
   42.8755   39.8365   39.0355 C   0  0  0  0  0  0  0  0  0  0  0  0
   43.2211   41.1329   39.1973 C   0  0  0  0  0  0  0  0  0  0  0  0
   44.5118   41.6039   39.1115 C   0  0  0  0  0  0  0  0  0  0  0  0
   41.0821   39.1168   40.3224 C   0  0  0  0  0  0  0  0  0  0  0  0
   39.7210   38.6408   40.4497 C   0  0  0  0  0  0  0  0  0  0  0  0
   39.2776   37.3581   40.1027 C   0  0  0  0  0  0  0  0  0  0  0  0
   37.9394   37.0662   40.2711 C   0  0  0  0  0  0  0  0  0  0  0  0
   37.1146   38.0436   40.8050 C   0  0  0  0  0  0  0  0  0  0  0  0
   37.5905   39.3036   41.0968 C   0  0  0  0  0  0  0  0  0  0  0  0
   47.9020   46.4375   45.3184 N   0  0  0  0  0  0  0  0  0  0  0  0
   48.2988   44.8949   42.9962 N   0  0  0  0  0  0  0  0  0  0  0  0
   41.4653   39.4471   39.1394 N   0  0  0  0  0  0  0  0  0  0  0  0
   38.8772   39.5871   40.9605 N   0  0  0  0  0  0  0  0  0  0  0  0
  1 17  2  0  0  0  0
  1 16  1  0  0  0  0
  2  3  2  0  0  0  0
  2 26  1  0  0  0  0
  3  4  1  0  0  0  0
  4  5  2  0  0  0  0
  5  6  1  0  0  0  0
  6  7  1  0  0  0  0
  6 26  2  0  0  0  0
  7 27  2  0  0  0  0
  8  9  2  0  0  0  0
  8 13  1  0  0  0  0
  8 27  1  0  0  0  0
  9 10  1  0  0  0  0
 10 11  2  0  0  0  0
 11 12  1  0  0  0  0
 11 14  1  0  0  0  0
 12 13  2  0  0  0  0
 14 15  1  0  0  0  0
 15 16  2  0  0  0  0
 15 19  1  0  0  0  0
 17 18  1  0  0  0  0
 17 28  1  0  0  0  0
 18 19  2  0  0  0  0
 20 21  1  0  0  0  0
 20 28  2  0  0  0  0
 21 22  2  0  0  0  0
 21 29  1  0  0  0  0
 22 23  1  0  0  0  0
 23 24  2  0  0  0  0
 24 25  1  0  0  0  0
 25 29  2  0  0  0  0
M  END
>  <CHROM.1>
118.38177301,22.05897774,-133.25157979,77.73421200,-78.20289814,90.46578591
44.69273235,42.31208753,41.30527351,-2.38851670,0.35293449,0.81399328

>  <Name>
ligand

>  <RI>
0

>  <Rbt.Current_Directory>
/home/itssahil/PROJECTS/Mol_Feturizer/New_Systems/rnas/4JIY

>  <Rbt.Executable>
rbdock ($Id: //depot/dev/client3/rdock/2013.1/src/exe/rbdock.cxx#4 $)

>  <Rbt.Library>
libRbt.so (2013.1, Build901 2013/11/27)

>  <Rbt.Parameter_File>
/export/apps/rDock/src/rDock_2013.1_src/data/scripts/dock_solv.prm

>  <Rbt.Receptor>
prm/pocket_docking_8.prm

>  <SCORE>
-7.58555

>  <SCORE.INTER>
-7.24757

>  <SCORE.INTER.CONST>
1

>  <SCORE.INTER.POLAR>
0

>  <SCORE.INTER.ROT>
6

>  <SCORE.INTER.SOLV>
1.78138

>  <SCORE.INTER.VDW>
-13.0255

>  <SCORE.INTER.norm>
-0.249916

>  <SCORE.INTRA>
-0.337976

>  <SCORE.INTRA.DIHEDRAL>
0.653661

>  <SCORE.INTRA.DIHEDRAL.0>
7.2424

>  <SCORE.INTRA.POLAR>
0

>  <SCORE.INTRA.POLAR.0>
0

>  <SCORE.INTRA.REPUL>
0

>  <SCORE.INTRA.REPUL.0>
0

>  <SCORE.INTRA.SOLV>
-0.0166292

>  <SCORE.INTRA.SOLV.lig_0>
-3.36201

>  <SCORE.INTRA.VDW>
-0.656492

>  <SCORE.INTRA.VDW.0>
-0.910526

>  <SCORE.INTRA.norm>
-0.0116544

>  <SCORE.RESTR>
0

>  <SCORE.RESTR.CAVITY>
0

>  <SCORE.RESTR.norm>
0

>  <SCORE.SYSTEM>
0

>  <SCORE.SYSTEM.CONST>
0

>  <SCORE.SYSTEM.DIHEDRAL>
0

>  <SCORE.SYSTEM.SOLV>
0

>  <SCORE.SYSTEM.norm>
0

>  <SCORE.heavy>
29

>  <SCORE.norm>
-0.261571

>  <RMSD>
4.853

$$$$
ligand
 OpenBabel11021811503D
libRbt.so/2013.1/901 2013/11/27
 29 32  0  0  0  0  0  0  0  0999 V2000
   47.0710   43.1313   43.1456 C   0  0  0  0  0  0  0  0  0  0  0  0
   37.0563   38.7576   46.2025 C   0  0  0  0  0  0  0  0  0  0  0  0
   35.9743   39.6199   45.9806 C   0  0  0  0  0  0  0  0  0  0  0  0
   36.0425   40.5846   45.0367 C   0  0  0  0  0  0  0  0  0  0  0  0
   37.2331   40.7439   44.3406 C   0  0  0  0  0  0  0  0  0  0  0  0
   38.2525   39.8505   44.5379 C   0  0  0  0  0  0  0  0  0  0  0  0
   39.5120   39.8162   43.7977 C   0  0  0  0  0  0  0  0  0  0  0  0
   41.4827   40.8710   43.1537 C   0  0  0  0  0  0  0  0  0  0  0  0
   41.4174   41.4409   41.8976 C   0  0  0  0  0  0  0  0  0  0  0  0
   42.5494   41.4067   41.0813 C   0  0  0  0  0  0  0  0  0  0  0  0
   43.7502   40.9152   41.5227 C   0  0  0  0  0  0  0  0  0  0  0  0
   43.7838   40.3488   42.8152 C   0  0  0  0  0  0  0  0  0  0  0  0
   42.6417   40.2715   43.6042 C   0  0  0  0  0  0  0  0  0  0  0  0
   45.0214   41.0134   40.6820 C   0  0  0  0  0  0  0  0  0  0  0  0
   46.0502   41.9785   41.2546 C   0  0  0  0  0  0  0  0  0  0  0  0
   46.1471   42.2590   42.5936 C   0  0  0  0  0  0  0  0  0  0  0  0
   47.9493   43.7292   42.2821 C   0  0  0  0  0  0  0  0  0  0  0  0
   47.8540   43.4609   40.9610 C   0  0  0  0  0  0  0  0  0  0  0  0
   46.9246   42.6062   40.4123 C   0  0  0  0  0  0  0  0  0  0  0  0
   50.0152   44.1111   43.2701 C   0  0  0  0  0  0  0  0  0  0  0  0
   51.0092   45.0018   43.8307 C   0  0  0  0  0  0  0  0  0  0  0  0
   51.6671   46.0216   43.1311 C   0  0  0  0  0  0  0  0  0  0  0  0
   52.6033   46.7748   43.8096 C   0  0  0  0  0  0  0  0  0  0  0  0
   52.8173   46.5053   45.1521 C   0  0  0  0  0  0  0  0  0  0  0  0
   52.1716   45.4668   45.7876 C   0  0  0  0  0  0  0  0  0  0  0  0
   38.1846   38.8763   45.4825 N   0  0  0  0  0  0  0  0  0  0  0  0
   40.2861   40.8503   43.9838 N   0  0  0  0  0  0  0  0  0  0  0  0
   48.9740   44.6653   42.7563 N   0  0  0  0  0  0  0  0  0  0  0  0
   51.2549   44.7526   45.1521 N   0  0  0  0  0  0  0  0  0  0  0  0
  1 17  2  0  0  0  0
  1 16  1  0  0  0  0
  2  3  2  0  0  0  0
  2 26  1  0  0  0  0
  3  4  1  0  0  0  0
  4  5  2  0  0  0  0
  5  6  1  0  0  0  0
  6  7  1  0  0  0  0
  6 26  2  0  0  0  0
  7 27  2  0  0  0  0
  8  9  2  0  0  0  0
  8 13  1  0  0  0  0
  8 27  1  0  0  0  0
  9 10  1  0  0  0  0
 10 11  2  0  0  0  0
 11 12  1  0  0  0  0
 11 14  1  0  0  0  0
 12 13  2  0  0  0  0
 14 15  1  0  0  0  0
 15 16  2  0  0  0  0
 15 19  1  0  0  0  0
 17 18  1  0  0  0  0
 17 28  1  0  0  0  0
 18 19  2  0  0  0  0
 20 21  1  0  0  0  0
 20 28  2  0  0  0  0
 21 22  2  0  0  0  0
 21 29  1  0  0  0  0
 22 23  1  0  0  0  0
 23 24  2  0  0  0  0
 24 25  1  0  0  0  0
 25 29  2  0  0  0  0
M  END
>  <CHROM.1>
65.94908538,110.76492375,27.78943805,-57.78126319,87.59789310,79.54681862
44.68148981,42.26166199,43.37503738,-0.03519573,-0.39412776,-1.82607663

>  <Name>
ligand

>  <RI>
0

>  <Rbt.Current_Directory>
/home/itssahil/PROJECTS/Mol_Feturizer/New_Systems/rnas/4JIY

>  <Rbt.Executable>
rbdock ($Id: //depot/dev/client3/rdock/2013.1/src/exe/rbdock.cxx#4 $)

>  <Rbt.Library>
libRbt.so (2013.1, Build901 2013/11/27)

>  <Rbt.Parameter_File>
/export/apps/rDock/src/rDock_2013.1_src/data/scripts/dock_solv.prm

>  <Rbt.Receptor>
prm/pocket_docking_6.prm

>  <SCORE>
-5.41198

>  <SCORE.INTER>
-4.56767

>  <SCORE.INTER.CONST>
1

>  <SCORE.INTER.POLAR>
0

>  <SCORE.INTER.ROT>
6

>  <SCORE.INTER.SOLV>
1.68632

>  <SCORE.INTER.VDW>
-11.2072

>  <SCORE.INTER.norm>
-0.157506

>  <SCORE.INTRA>
-0.844311

>  <SCORE.INTRA.DIHEDRAL>
0.0264048

>  <SCORE.INTRA.DIHEDRAL.0>
7.2424

>  <SCORE.INTRA.POLAR>
0

>  <SCORE.INTRA.POLAR.0>
0

>  <SCORE.INTRA.REPUL>
0

>  <SCORE.INTRA.REPUL.0>
0

>  <SCORE.INTRA.SOLV>
-0.0193114

>  <SCORE.INTRA.SOLV.lig_0>
-3.36201

>  <SCORE.INTRA.VDW>
-0.847858

>  <SCORE.INTRA.VDW.0>
-0.910526

>  <SCORE.INTRA.norm>
-0.0291142

>  <SCORE.RESTR>
0

>  <SCORE.RESTR.CAVITY>
0

>  <SCORE.RESTR.norm>
0

>  <SCORE.SYSTEM>
0

>  <SCORE.SYSTEM.CONST>
0

>  <SCORE.SYSTEM.DIHEDRAL>
0

>  <SCORE.SYSTEM.SOLV>
0

>  <SCORE.SYSTEM.norm>
0

>  <SCORE.heavy>
29

>  <SCORE.norm>
-0.18662

>  <RMSD>
4.890

$$$$
ligand
 OpenBabel11021811503D
libRbt.so/2013.1/901 2013/11/27
 29 32  0  0  0  0  0  0  0  0999 V2000
   42.4141   43.5962   38.8465 C   0  0  0  0  0  0  0  0  0  0  0  0
   50.1787   44.9788   48.3691 C   0  0  0  0  0  0  0  0  0  0  0  0
   49.5081   44.9279   49.5985 C   0  0  0  0  0  0  0  0  0  0  0  0
   48.1695   44.7501   49.6480 C   0  0  0  0  0  0  0  0  0  0  0  0
   47.4674   44.6871   48.4520 C   0  0  0  0  0  0  0  0  0  0  0  0
   48.1552   44.6816   47.2675 C   0  0  0  0  0  0  0  0  0  0  0  0
   47.5688   44.5011   45.9412 C   0  0  0  0  0  0  0  0  0  0  0  0
   47.4112   43.2679   43.9751 C   0  0  0  0  0  0  0  0  0  0  0  0
   47.8567   44.1633   43.0230 C   0  0  0  0  0  0  0  0  0  0  0  0
   47.3435   44.0816   41.7272 C   0  0  0  0  0  0  0  0  0  0  0  0
   46.4882   43.0812   41.3452 C   0  0  0  0  0  0  0  0  0  0  0  0
   46.0606   42.1773   42.3415 C   0  0  0  0  0  0  0  0  0  0  0  0
   46.4717   42.3057   43.6634 C   0  0  0  0  0  0  0  0  0  0  0  0
   46.0451   42.9076   39.8940 C   0  0  0  0  0  0  0  0  0  0  0  0
   44.5360   42.7861   39.7344 C   0  0  0  0  0  0  0  0  0  0  0  0
   43.7872   43.6787   39.0108 C   0  0  0  0  0  0  0  0  0  0  0  0
   41.7834   42.5351   39.4389 C   0  0  0  0  0  0  0  0  0  0  0  0
   42.5159   41.6562   40.1582 C   0  0  0  0  0  0  0  0  0  0  0  0
   43.8781   41.7488   40.3338 C   0  0  0  0  0  0  0  0  0  0  0  0
   39.9513   41.7303   38.2616 C   0  0  0  0  0  0  0  0  0  0  0  0
   38.5223   41.6014   38.0699 C   0  0  0  0  0  0  0  0  0  0  0  0
   37.6799   42.6039   37.5723 C   0  0  0  0  0  0  0  0  0  0  0  0
   36.3326   42.3255   37.4648 C   0  0  0  0  0  0  0  0  0  0  0  0
   35.8912   41.0612   37.8218 C   0  0  0  0  0  0  0  0  0  0  0  0
   36.7535   40.1200   38.3412 C   0  0  0  0  0  0  0  0  0  0  0  0
   49.5018   44.8550   47.2150 N   0  0  0  0  0  0  0  0  0  0  0  0
   47.8981   43.3892   45.3424 N   0  0  0  0  0  0  0  0  0  0  0  0
   40.3336   42.3440   39.3258 N   0  0  0  0  0  0  0  0  0  0  0  0
   38.0516   40.3688   38.4271 N   0  0  0  0  0  0  0  0  0  0  0  0
  1 17  2  0  0  0  0
  1 16  1  0  0  0  0
  2  3  2  0  0  0  0
  2 26  1  0  0  0  0
  3  4  1  0  0  0  0
  4  5  2  0  0  0  0
  5  6  1  0  0  0  0
  6  7  1  0  0  0  0
  6 26  2  0  0  0  0
  7 27  2  0  0  0  0
  8  9  2  0  0  0  0
  8 13  1  0  0  0  0
  8 27  1  0  0  0  0
  9 10  1  0  0  0  0
 10 11  2  0  0  0  0
 11 12  1  0  0  0  0
 11 14  1  0  0  0  0
 12 13  2  0  0  0  0
 14 15  1  0  0  0  0
 15 16  2  0  0  0  0
 15 19  1  0  0  0  0
 17 18  1  0  0  0  0
 17 28  1  0  0  0  0
 18 19  2  0  0  0  0
 20 21  1  0  0  0  0
 20 28  2  0  0  0  0
 21 22  2  0  0  0  0
 21 29  1  0  0  0  0
 22 23  1  0  0  0  0
 23 24  2  0  0  0  0
 24 25  1  0  0  0  0
 25 29  2  0  0  0  0
M  END
>  <CHROM.1>
-112.46262614,-129.58647107,118.71566655,80.09752884,63.27748693,84.74754117
44.09408317,42.99139735,42.08858783,-2.41112851,0.16955781,1.45188590

>  <Name>
ligand

>  <RI>
0

>  <Rbt.Current_Directory>
/home/itssahil/PROJECTS/Mol_Feturizer/New_Systems/rnas/4JIY

>  <Rbt.Executable>
rbdock ($Id: //depot/dev/client3/rdock/2013.1/src/exe/rbdock.cxx#4 $)

>  <Rbt.Library>
libRbt.so (2013.1, Build901 2013/11/27)

>  <Rbt.Parameter_File>
/export/apps/rDock/src/rDock_2013.1_src/data/scripts/dock_solv.prm

>  <Rbt.Receptor>
prm/pocket_docking_5.prm

>  <SCORE>
-0.840942

>  <SCORE.INTER>
-0.456965

>  <SCORE.INTER.CONST>
1

>  <SCORE.INTER.POLAR>
0

>  <SCORE.INTER.ROT>
6

>  <SCORE.INTER.SOLV>
1.27081

>  <SCORE.INTER.VDW>
-8.32825

>  <SCORE.INTER.norm>
-0.0157574

>  <SCORE.INTRA>
-0.445419

>  <SCORE.INTRA.DIHEDRAL>
0.546224

>  <SCORE.INTRA.DIHEDRAL.0>
7.2424

>  <SCORE.INTRA.POLAR>
0

>  <SCORE.INTRA.POLAR.0>
0

>  <SCORE.INTRA.REPUL>
0

>  <SCORE.INTRA.REPUL.0>
0

>  <SCORE.INTRA.SOLV>
-0.0162173

>  <SCORE.INTRA.SOLV.lig_0>
-3.36201

>  <SCORE.INTRA.VDW>
-0.710423

>  <SCORE.INTRA.VDW.0>
-0.910526

>  <SCORE.INTRA.norm>
-0.0153593

>  <SCORE.RESTR>
0.0614427

>  <SCORE.RESTR.CAVITY>
0.0614427

>  <SCORE.RESTR.norm>
0.00211871

>  <SCORE.SYSTEM>
0

>  <SCORE.SYSTEM.CONST>
0

>  <SCORE.SYSTEM.DIHEDRAL>
0

>  <SCORE.SYSTEM.SOLV>
0

>  <SCORE.SYSTEM.norm>
0

>  <SCORE.heavy>
29

>  <SCORE.norm>
-0.028998

>  <RMSD>
4.906

$$$$
ligand
 OpenBabel11021811503D
libRbt.so/2013.1/901 2013/11/27
 29 32  0  0  0  0  0  0  0  0999 V2000
   45.7091   41.8411   41.7842 C   0  0  0  0  0  0  0  0  0  0  0  0
   36.1910   33.3050   40.6190 C   0  0  0  0  0  0  0  0  0  0  0  0
   36.7944   32.0423   40.6886 C   0  0  0  0  0  0  0  0  0  0  0  0
   38.1316   31.9073   40.5478 C   0  0  0  0  0  0  0  0  0  0  0  0
   38.8831   33.0399   40.2653 C   0  0  0  0  0  0  0  0  0  0  0  0
   38.2748   34.2671   40.2606 C   0  0  0  0  0  0  0  0  0  0  0  0
   38.9495   35.5533   40.0994 C   0  0  0  0  0  0  0  0  0  0  0  0
   40.3945   37.1724   40.9368 C   0  0  0  0  0  0  0  0  0  0  0  0
   41.7086   37.3032   40.5330 C   0  0  0  0  0  0  0  0  0  0  0  0
   42.2801   38.5764   40.4974 C   0  0  0  0  0  0  0  0  0  0  0  0
   41.5516   39.7084   40.7543 C   0  0  0  0  0  0  0  0  0  0  0  0
   40.2087   39.5389   41.1550 C   0  0  0  0  0  0  0  0  0  0  0  0
   39.6496   38.2748   41.3048 C   0  0  0  0  0  0  0  0  0  0  0  0
   42.1392   41.1061   40.5712 C   0  0  0  0  0  0  0  0  0  0  0  0
   43.3346   41.3808   41.4731 C   0  0  0  0  0  0  0  0  0  0  0  0
   44.6016   41.5890   40.9911 C   0  0  0  0  0  0  0  0  0  0  0  0
   45.5005   41.9007   43.1361 C   0  0  0  0  0  0  0  0  0  0  0  0
   44.2550   41.6903   43.6165 C   0  0  0  0  0  0  0  0  0  0  0  0
   43.1586   41.4237   42.8278 C   0  0  0  0  0  0  0  0  0  0  0  0
   47.2620   43.2440   43.8311 C   0  0  0  0  0  0  0  0  0  0  0  0
   48.4093   43.4960   44.6770 C   0  0  0  0  0  0  0  0  0  0  0  0
   48.4885   43.1943   46.0427 C   0  0  0  0  0  0  0  0  0  0  0  0
   49.6523   43.5140   46.7118 C   0  0  0  0  0  0  0  0  0  0  0  0
   50.6903   44.0836   45.9915 C   0  0  0  0  0  0  0  0  0  0  0  0
   50.5512   44.3953   44.6563 C   0  0  0  0  0  0  0  0  0  0  0  0
   36.9312   34.4063   40.4071 N   0  0  0  0  0  0  0  0  0  0  0  0
   39.8140   35.8402   41.0341 N   0  0  0  0  0  0  0  0  0  0  0  0
   46.5989   42.1677   44.0706 N   0  0  0  0  0  0  0  0  0  0  0  0
   49.4474   44.0721   43.9995 N   0  0  0  0  0  0  0  0  0  0  0  0
  1 17  2  0  0  0  0
  1 16  1  0  0  0  0
  2  3  2  0  0  0  0
  2 26  1  0  0  0  0
  3  4  1  0  0  0  0
  4  5  2  0  0  0  0
  5  6  1  0  0  0  0
  6  7  1  0  0  0  0
  6 26  2  0  0  0  0
  7 27  2  0  0  0  0
  8  9  2  0  0  0  0
  8 13  1  0  0  0  0
  8 27  1  0  0  0  0
  9 10  1  0  0  0  0
 10 11  2  0  0  0  0
 11 12  1  0  0  0  0
 11 14  1  0  0  0  0
 12 13  2  0  0  0  0
 14 15  1  0  0  0  0
 15 16  2  0  0  0  0
 15 19  1  0  0  0  0
 17 18  1  0  0  0  0
 17 28  1  0  0  0  0
 18 19  2  0  0  0  0
 20 21  1  0  0  0  0
 20 28  2  0  0  0  0
 21 22  2  0  0  0  0
 21 29  1  0  0  0  0
 22 23  1  0  0  0  0
 23 24  2  0  0  0  0
 24 25  1  0  0  0  0
 25 29  2  0  0  0  0
M  END
>  <CHROM.1>
-62.05950105,-61.91053808,114.61119948,-36.28415243,-107.51672018,54.85288338
43.08553173,39.31784314,42.18297384,0.48779793,-0.62374619,-0.40635080

>  <Name>
ligand

>  <RI>
0

>  <Rbt.Current_Directory>
/home/itssahil/PROJECTS/Mol_Feturizer/New_Systems/rnas/4JIY

>  <Rbt.Executable>
rbdock ($Id: //depot/dev/client3/rdock/2013.1/src/exe/rbdock.cxx#4 $)

>  <Rbt.Library>
libRbt.so (2013.1, Build901 2013/11/27)

>  <Rbt.Parameter_File>
/export/apps/rDock/src/rDock_2013.1_src/data/scripts/dock_solv.prm

>  <Rbt.Receptor>
prm/pocket_docking_5.prm

>  <SCORE>
-2.13054

>  <SCORE.INTER>
-1.52523

>  <SCORE.INTER.CONST>
1

>  <SCORE.INTER.POLAR>
0

>  <SCORE.INTER.ROT>
6

>  <SCORE.INTER.SOLV>
1.89054

>  <SCORE.INTER.VDW>
-9.247

>  <SCORE.INTER.norm>
-0.0525942

>  <SCORE.INTRA>
-0.615555

>  <SCORE.INTRA.DIHEDRAL>
0.145826

>  <SCORE.INTRA.DIHEDRAL.0>
7.2424

>  <SCORE.INTRA.POLAR>
0

>  <SCORE.INTRA.POLAR.0>
0

>  <SCORE.INTRA.REPUL>
0

>  <SCORE.INTRA.REPUL.0>
0

>  <SCORE.INTRA.SOLV>
-0.0203507

>  <SCORE.INTRA.SOLV.lig_0>
-3.36201

>  <SCORE.INTRA.VDW>
-0.678293

>  <SCORE.INTRA.VDW.0>
-0.910526

>  <SCORE.INTRA.norm>
-0.021226

>  <SCORE.RESTR>
0.0102434

>  <SCORE.RESTR.CAVITY>
0.0102434

>  <SCORE.RESTR.norm>
0.000353222

>  <SCORE.SYSTEM>
0

>  <SCORE.SYSTEM.CONST>
0

>  <SCORE.SYSTEM.DIHEDRAL>
0

>  <SCORE.SYSTEM.SOLV>
0

>  <SCORE.SYSTEM.norm>
0

>  <SCORE.heavy>
29

>  <SCORE.norm>
-0.073467

>  <RMSD>
4.959

$$$$
ligand
 OpenBabel11021811503D
libRbt.so/2013.1/901 2013/11/27
 29 32  0  0  0  0  0  0  0  0999 V2000
   46.7816   42.8395   44.7402 C   0  0  0  0  0  0  0  0  0  0  0  0
   36.8370   41.0265   39.0739 C   0  0  0  0  0  0  0  0  0  0  0  0
   36.1112   42.2211   38.9752 C   0  0  0  0  0  0  0  0  0  0  0  0
   36.7366   43.4169   39.0464 C   0  0  0  0  0  0  0  0  0  0  0  0
   38.1037   43.4333   39.2874 C   0  0  0  0  0  0  0  0  0  0  0  0
   38.7952   42.2514   39.3217 C   0  0  0  0  0  0  0  0  0  0  0  0
   40.2447   42.1143   39.4452 C   0  0  0  0  0  0  0  0  0  0  0  0
   42.1898   42.4670   40.6715 C   0  0  0  0  0  0  0  0  0  0  0  0
   42.9107   43.4607   40.0393 C   0  0  0  0  0  0  0  0  0  0  0  0
   44.3053   43.4029   40.0648 C   0  0  0  0  0  0  0  0  0  0  0  0
   44.9811   42.4485   40.7795 C   0  0  0  0  0  0  0  0  0  0  0  0
   44.2127   41.4535   41.4216 C   0  0  0  0  0  0  0  0  0  0  0  0
   42.8265   41.4268   41.3182 C   0  0  0  0  0  0  0  0  0  0  0  0
   46.5009   42.4746   40.9265 C   0  0  0  0  0  0  0  0  0  0  0  0
   46.9659   42.9094   42.3095 C   0  0  0  0  0  0  0  0  0  0  0  0
   46.3825   42.4636   43.4679 C   0  0  0  0  0  0  0  0  0  0  0  0
   47.8430   43.7003   44.8259 C   0  0  0  0  0  0  0  0  0  0  0  0
   48.4174   44.1472   43.6872 C   0  0  0  0  0  0  0  0  0  0  0  0
   48.0090   43.7851   42.4234 C   0  0  0  0  0  0  0  0  0  0  0  0
   48.0877   45.3869   46.4025 C   0  0  0  0  0  0  0  0  0  0  0  0
   48.6520   45.9041   47.6311 C   0  0  0  0  0  0  0  0  0  0  0  0
   50.0126   45.8907   47.9641 C   0  0  0  0  0  0  0  0  0  0  0  0
   50.3870   46.4108   49.1862 C   0  0  0  0  0  0  0  0  0  0  0  0
   49.4038   46.9482   50.0019 C   0  0  0  0  0  0  0  0  0  0  0  0
   48.0731   46.9051   49.6460 C   0  0  0  0  0  0  0  0  0  0  0  0
   38.1696   41.0478   39.2450 N   0  0  0  0  0  0  0  0  0  0  0  0
   40.7355   42.4906   40.5945 N   0  0  0  0  0  0  0  0  0  0  0  0
   48.3548   44.1602   46.1212 N   0  0  0  0  0  0  0  0  0  0  0  0
   47.7055   46.4290   48.4660 N   0  0  0  0  0  0  0  0  0  0  0  0
  1 17  2  0  0  0  0
  1 16  1  0  0  0  0
  2  3  2  0  0  0  0
  2 26  1  0  0  0  0
  3  4  1  0  0  0  0
  4  5  2  0  0  0  0
  5  6  1  0  0  0  0
  6  7  1  0  0  0  0
  6 26  2  0  0  0  0
  7 27  2  0  0  0  0
  8  9  2  0  0  0  0
  8 13  1  0  0  0  0
  8 27  1  0  0  0  0
  9 10  1  0  0  0  0
 10 11  2  0  0  0  0
 11 12  1  0  0  0  0
 11 14  1  0  0  0  0
 12 13  2  0  0  0  0
 14 15  1  0  0  0  0
 15 16  2  0  0  0  0
 15 19  1  0  0  0  0
 17 18  1  0  0  0  0
 17 28  1  0  0  0  0
 18 19  2  0  0  0  0
 20 21  1  0  0  0  0
 20 28  2  0  0  0  0
 21 22  2  0  0  0  0
 21 29  1  0  0  0  0
 22 23  1  0  0  0  0
 23 24  2  0  0  0  0
 24 25  1  0  0  0  0
 25 29  2  0  0  0  0
M  END
>  <CHROM.1>
67.45962265,106.08262623,42.97969370,55.35287010,75.28029338,-107.50063425
44.43373188,43.54689439,43.00421496,-0.71603421,0.10916072,-2.09504854

>  <Name>
ligand

>  <RI>
0

>  <Rbt.Current_Directory>
/home/itssahil/PROJECTS/Mol_Feturizer/New_Systems/rnas/4JIY

>  <Rbt.Executable>
rbdock ($Id: //depot/dev/client3/rdock/2013.1/src/exe/rbdock.cxx#4 $)

>  <Rbt.Library>
libRbt.so (2013.1, Build901 2013/11/27)

>  <Rbt.Parameter_File>
/export/apps/rDock/src/rDock_2013.1_src/data/scripts/dock_solv.prm

>  <Rbt.Receptor>
prm/pocket_docking_5.prm

>  <SCORE>
-0.425198

>  <SCORE.INTER>
0.417639

>  <SCORE.INTER.CONST>
1

>  <SCORE.INTER.POLAR>
0

>  <SCORE.INTER.ROT>
6

>  <SCORE.INTER.SOLV>
0.702818

>  <SCORE.INTER.VDW>
-7.55585

>  <SCORE.INTER.norm>
0.0144013

>  <SCORE.INTRA>
-0.842837

>  <SCORE.INTRA.DIHEDRAL>
0.0238339

>  <SCORE.INTRA.DIHEDRAL.0>
7.2424

>  <SCORE.INTRA.POLAR>
0

>  <SCORE.INTRA.POLAR.0>
0

>  <SCORE.INTRA.REPUL>
0

>  <SCORE.INTRA.REPUL.0>
0

>  <SCORE.INTRA.SOLV>
-0.018984

>  <SCORE.INTRA.SOLV.lig_0>
-3.36201

>  <SCORE.INTRA.VDW>
-0.845262

>  <SCORE.INTRA.VDW.0>
-0.910526

>  <SCORE.INTRA.norm>
-0.0290633

>  <SCORE.RESTR>
0

>  <SCORE.RESTR.CAVITY>
0

>  <SCORE.RESTR.norm>
0

>  <SCORE.SYSTEM>
0

>  <SCORE.SYSTEM.CONST>
0

>  <SCORE.SYSTEM.DIHEDRAL>
0

>  <SCORE.SYSTEM.SOLV>
0

>  <SCORE.SYSTEM.norm>
0

>  <SCORE.heavy>
29

>  <SCORE.norm>
-0.014662

>  <RMSD>
4.970

$$$$
ligand
 OpenBabel11021811503D
libRbt.so/2013.1/901 2013/11/27
 29 32  0  0  0  0  0  0  0  0999 V2000
   41.4410   41.1844   41.8976 C   0  0  0  0  0  0  0  0  0  0  0  0
   52.6107   45.1892   45.4413 C   0  0  0  0  0  0  0  0  0  0  0  0
   53.0342   46.4494   44.9985 C   0  0  0  0  0  0  0  0  0  0  0  0
   52.5588   46.9722   43.8467 C   0  0  0  0  0  0  0  0  0  0  0  0
   51.6942   46.2028   43.0800 C   0  0  0  0  0  0  0  0  0  0  0  0
   51.2532   45.0003   43.5657 C   0  0  0  0  0  0  0  0  0  0  0  0
   50.2562   44.1388   42.9339 C   0  0  0  0  0  0  0  0  0  0  0  0
   48.0575   43.7829   42.2630 C   0  0  0  0  0  0  0  0  0  0  0  0
   48.0013   43.5434   40.9042 C   0  0  0  0  0  0  0  0  0  0  0  0
   46.9845   42.7279   40.4042 C   0  0  0  0  0  0  0  0  0  0  0  0
   46.1015   42.0787   41.2270 C   0  0  0  0  0  0  0  0  0  0  0  0
   46.1934   42.3387   42.6115 C   0  0  0  0  0  0  0  0  0  0  0  0
   47.1271   43.2333   43.1220 C   0  0  0  0  0  0  0  0  0  0  0  0
   45.0856   41.0733   40.6891 C   0  0  0  0  0  0  0  0  0  0  0  0
   43.8444   40.9445   41.5612 C   0  0  0  0  0  0  0  0  0  0  0  0
   42.5892   41.2896   41.1296 C   0  0  0  0  0  0  0  0  0  0  0  0
   41.5877   40.6829   43.1632 C   0  0  0  0  0  0  0  0  0  0  0  0
   42.8234   40.3471   43.5954 C   0  0  0  0  0  0  0  0  0  0  0  0
   43.9655   40.4676   42.8364 C   0  0  0  0  0  0  0  0  0  0  0  0
   39.7940   39.4179   43.9198 C   0  0  0  0  0  0  0  0  0  0  0  0
   38.6024   39.2601   44.7264 C   0  0  0  0  0  0  0  0  0  0  0  0
   37.3758   39.8938   44.4889 C   0  0  0  0  0  0  0  0  0  0  0  0
   36.3379   39.6482   45.3645 C   0  0  0  0  0  0  0  0  0  0  0  0
   36.5537   38.7637   46.4095 C   0  0  0  0  0  0  0  0  0  0  0  0
   37.7898   38.1930   46.6232 C   0  0  0  0  0  0  0  0  0  0  0  0
   51.7256   44.4746   44.7262 N   0  0  0  0  0  0  0  0  0  0  0  0
   49.0795   44.6822   42.7808 N   0  0  0  0  0  0  0  0  0  0  0  0
   40.4401   40.5214   44.0621 N   0  0  0  0  0  0  0  0  0  0  0  0
   38.7859   38.4039   45.7760 N   0  0  0  0  0  0  0  0  0  0  0  0
  1 17  2  0  0  0  0
  1 16  1  0  0  0  0
  2  3  2  0  0  0  0
  2 26  1  0  0  0  0
  3  4  1  0  0  0  0
  4  5  2  0  0  0  0
  5  6  1  0  0  0  0
  6  7  1  0  0  0  0
  6 26  2  0  0  0  0
  7 27  2  0  0  0  0
  8  9  2  0  0  0  0
  8 13  1  0  0  0  0
  8 27  1  0  0  0  0
  9 10  1  0  0  0  0
 10 11  2  0  0  0  0
 11 12  1  0  0  0  0
 11 14  1  0  0  0  0
 12 13  2  0  0  0  0
 14 15  1  0  0  0  0
 15 16  2  0  0  0  0
 15 19  1  0  0  0  0
 17 18  1  0  0  0  0
 17 28  1  0  0  0  0
 18 19  2  0  0  0  0
 20 21  1  0  0  0  0
 20 28  2  0  0  0  0
 21 22  2  0  0  0  0
 21 29  1  0  0  0  0
 22 23  1  0  0  0  0
 23 24  2  0  0  0  0
 24 25  1  0  0  0  0
 25 29  2  0  0  0  0
M  END
>  <CHROM.1>
-60.54013131,-153.89502372,116.05808484,75.22347158,-81.11961674,85.45236545
44.89059233,42.09089692,43.39065621,3.09306008,0.43822843,1.47319312

>  <Name>
ligand

>  <RI>
0

>  <Rbt.Current_Directory>
/home/itssahil/PROJECTS/Mol_Feturizer/New_Systems/rnas/4JIY

>  <Rbt.Executable>
rbdock ($Id: //depot/dev/client3/rdock/2013.1/src/exe/rbdock.cxx#4 $)

>  <Rbt.Library>
libRbt.so (2013.1, Build901 2013/11/27)

>  <Rbt.Parameter_File>
/export/apps/rDock/src/rDock_2013.1_src/data/scripts/dock_solv.prm

>  <Rbt.Receptor>
prm/pocket_docking_6.prm

>  <SCORE>
-5.52911

>  <SCORE.INTER>
-4.77525

>  <SCORE.INTER.CONST>
1

>  <SCORE.INTER.POLAR>
0

>  <SCORE.INTER.ROT>
6

>  <SCORE.INTER.SOLV>
1.69125

>  <SCORE.INTER.VDW>
-11.3473

>  <SCORE.INTER.norm>
-0.164664

>  <SCORE.INTRA>
-0.75386

>  <SCORE.INTRA.DIHEDRAL>
-0.116863

>  <SCORE.INTRA.DIHEDRAL.0>
7.2424

>  <SCORE.INTRA.POLAR>
0

>  <SCORE.INTRA.POLAR.0>
0

>  <SCORE.INTRA.REPUL>
0

>  <SCORE.INTRA.REPUL.0>
0

>  <SCORE.INTRA.SOLV>
-0.0203051

>  <SCORE.INTRA.SOLV.lig_0>
-3.36201

>  <SCORE.INTRA.VDW>
-0.685276

>  <SCORE.INTRA.VDW.0>
-0.910526

>  <SCORE.INTRA.norm>
-0.0259952

>  <SCORE.RESTR>
0

>  <SCORE.RESTR.CAVITY>
0

>  <SCORE.RESTR.norm>
0

>  <SCORE.SYSTEM>
0

>  <SCORE.SYSTEM.CONST>
0

>  <SCORE.SYSTEM.DIHEDRAL>
0

>  <SCORE.SYSTEM.SOLV>
0

>  <SCORE.SYSTEM.norm>
0

>  <SCORE.heavy>
29

>  <SCORE.norm>
-0.190659

>  <RMSD>
4.978

$$$$
ligand
 OpenBabel11021811503D
libRbt.so/2013.1/901 2013/11/27
 29 32  0  0  0  0  0  0  0  0999 V2000
   47.2746   42.6006   44.8706 C   0  0  0  0  0  0  0  0  0  0  0  0
   38.4709   36.2753   40.5983 C   0  0  0  0  0  0  0  0  0  0  0  0
   37.9237   35.9003   41.8326 C   0  0  0  0  0  0  0  0  0  0  0  0
   38.3688   36.4542   42.9821 C   0  0  0  0  0  0  0  0  0  0  0  0
   39.4258   37.3518   42.9161 C   0  0  0  0  0  0  0  0  0  0  0  0
   39.9014   37.7426   41.6924 C   0  0  0  0  0  0  0  0  0  0  0  0
   40.9216   38.7626   41.4596 C   0  0  0  0  0  0  0  0  0  0  0  0
   43.1317   39.4616   41.6539 C   0  0  0  0  0  0  0  0  0  0  0  0
   43.8789   39.5522   40.4961 C   0  0  0  0  0  0  0  0  0  0  0  0
   44.8720   40.5294   40.4086 C   0  0  0  0  0  0  0  0  0  0  0  0
   45.0624   41.4636   41.3931 C   0  0  0  0  0  0  0  0  0  0  0  0
   44.2748   41.3475   42.5589 C   0  0  0  0  0  0  0  0  0  0  0  0
   43.3563   40.3156   42.7150 C   0  0  0  0  0  0  0  0  0  0  0  0
   46.0475   42.6192   41.2306 C   0  0  0  0  0  0  0  0  0  0  0  0
   46.8645   42.8964   42.4849 C   0  0  0  0  0  0  0  0  0  0  0  0
   46.5523   42.3682   43.7115 C   0  0  0  0  0  0  0  0  0  0  0  0
   48.3813   43.3991   44.7595 C   0  0  0  0  0  0  0  0  0  0  0  0
   48.6898   43.9270   43.5543 C   0  0  0  0  0  0  0  0  0  0  0  0
   47.9615   43.7080   42.4068 C   0  0  0  0  0  0  0  0  0  0  0  0
   48.7578   44.6195   46.6984 C   0  0  0  0  0  0  0  0  0  0  0  0
   49.6024   45.0154   47.8054 C   0  0  0  0  0  0  0  0  0  0  0  0
   49.9016   44.2197   48.9187 C   0  0  0  0  0  0  0  0  0  0  0  0
   50.7135   44.7532   49.8988 C   0  0  0  0  0  0  0  0  0  0  0  0
   51.2157   46.0316   49.7135 C   0  0  0  0  0  0  0  0  0  0  0  0
   50.8628   46.7897   48.6180 C   0  0  0  0  0  0  0  0  0  0  0  0
   39.4521   37.1912   40.5348 N   0  0  0  0  0  0  0  0  0  0  0  0
   42.1369   38.4044   41.7726 N   0  0  0  0  0  0  0  0  0  0  0  0
   49.2241   43.7077   45.9196 N   0  0  0  0  0  0  0  0  0  0  0  0
   50.1031   46.2791   47.6607 N   0  0  0  0  0  0  0  0  0  0  0  0
  1 17  2  0  0  0  0
  1 16  1  0  0  0  0
  2  3  2  0  0  0  0
  2 26  1  0  0  0  0
  3  4  1  0  0  0  0
  4  5  2  0  0  0  0
  5  6  1  0  0  0  0
  6  7  1  0  0  0  0
  6 26  2  0  0  0  0
  7 27  2  0  0  0  0
  8  9  2  0  0  0  0
  8 13  1  0  0  0  0
  8 27  1  0  0  0  0
  9 10  1  0  0  0  0
 10 11  2  0  0  0  0
 11 12  1  0  0  0  0
 11 14  1  0  0  0  0
 12 13  2  0  0  0  0
 14 15  1  0  0  0  0
 15 16  2  0  0  0  0
 15 19  1  0  0  0  0
 17 18  1  0  0  0  0
 17 28  1  0  0  0  0
 18 19  2  0  0  0  0
 20 21  1  0  0  0  0
 20 28  2  0  0  0  0
 21 22  2  0  0  0  0
 21 29  1  0  0  0  0
 22 23  1  0  0  0  0
 23 24  2  0  0  0  0
 24 25  1  0  0  0  0
 25 29  2  0  0  0  0
M  END
>  <CHROM.1>
73.06061309,-138.20490815,-13.34896606,-69.52286262,-95.94226975,-78.96052797
45.28769780,41.51124530,43.82650914,-0.46058620,-0.64733801,-1.58211828

>  <Name>
ligand

>  <RI>
0

>  <Rbt.Current_Directory>
/home/itssahil/PROJECTS/Mol_Feturizer/New_Systems/rnas/4JIY

>  <Rbt.Executable>
rbdock ($Id: //depot/dev/client3/rdock/2013.1/src/exe/rbdock.cxx#4 $)

>  <Rbt.Library>
libRbt.so (2013.1, Build901 2013/11/27)

>  <Rbt.Parameter_File>
/export/apps/rDock/src/rDock_2013.1_src/data/scripts/dock_solv.prm

>  <Rbt.Receptor>
prm/pocket_docking_6.prm

>  <SCORE>
-6.27123

>  <SCORE.INTER>
-6.09257

>  <SCORE.INTER.CONST>
1

>  <SCORE.INTER.POLAR>
0

>  <SCORE.INTER.ROT>
6

>  <SCORE.INTER.SOLV>
2.15632

>  <SCORE.INTER.VDW>
-12.3805

>  <SCORE.INTER.norm>
-0.210088

>  <SCORE.INTRA>
-0.178661

>  <SCORE.INTRA.DIHEDRAL>
-0.0477047

>  <SCORE.INTRA.DIHEDRAL.0>
7.2424

>  <SCORE.INTRA.POLAR>
0

>  <SCORE.INTRA.POLAR.0>
0

>  <SCORE.INTRA.REPUL>
0

>  <SCORE.INTRA.REPUL.0>
0

>  <SCORE.INTRA.SOLV>
-0.0196145

>  <SCORE.INTRA.SOLV.lig_0>
-3.36201

>  <SCORE.INTRA.VDW>
-0.145001

>  <SCORE.INTRA.VDW.0>
-0.910526

>  <SCORE.INTRA.norm>
-0.00616072

>  <SCORE.RESTR>
0

>  <SCORE.RESTR.CAVITY>
0

>  <SCORE.RESTR.norm>
0

>  <SCORE.SYSTEM>
0

>  <SCORE.SYSTEM.CONST>
0

>  <SCORE.SYSTEM.DIHEDRAL>
0

>  <SCORE.SYSTEM.SOLV>
0

>  <SCORE.SYSTEM.norm>
0

>  <SCORE.heavy>
29

>  <SCORE.norm>
-0.216249

>  <RMSD>
4.983

$$$$
ligand
 OpenBabel11021811503D
libRbt.so/2013.1/901 2013/11/27
 29 32  0  0  0  0  0  0  0  0999 V2000
   43.3036   40.9969   43.3348 C   0  0  0  0  0  0  0  0  0  0  0  0
   49.4884   51.7148   42.4049 C   0  0  0  0  0  0  0  0  0  0  0  0
   50.4459   51.9055   41.3998 C   0  0  0  0  0  0  0  0  0  0  0  0
   51.1225   50.8563   40.8826 C   0  0  0  0  0  0  0  0  0  0  0  0
   50.8949   49.5957   41.4178 C   0  0  0  0  0  0  0  0  0  0  0  0
   49.9127   49.4313   42.3583 C   0  0  0  0  0  0  0  0  0  0  0  0
   49.4776   48.1560   42.9237 C   0  0  0  0  0  0  0  0  0  0  0  0
   48.2868   46.1705   42.6978 C   0  0  0  0  0  0  0  0  0  0  0  0
   47.0547   46.2173   43.3196 C   0  0  0  0  0  0  0  0  0  0  0  0
   46.5699   45.0668   43.9442 C   0  0  0  0  0  0  0  0  0  0  0  0
   47.2304   43.8679   43.8750 C   0  0  0  0  0  0  0  0  0  0  0  0
   48.4826   43.8537   43.2235 C   0  0  0  0  0  0  0  0  0  0  0  0
   49.0371   45.0118   42.6904 C   0  0  0  0  0  0  0  0  0  0  0  0
   46.6273   42.5800   44.4315 C   0  0  0  0  0  0  0  0  0  0  0  0
   45.5062   42.0169   43.5689 C   0  0  0  0  0  0  0  0  0  0  0  0
   44.3416   41.5157   44.0916 C   0  0  0  0  0  0  0  0  0  0  0  0
   43.4628   41.0114   41.9750 C   0  0  0  0  0  0  0  0  0  0  0  0
   44.6112   41.4987   41.4552 C   0  0  0  0  0  0  0  0  0  0  0  0
   45.6484   41.9989   42.2097 C   0  0  0  0  0  0  0  0  0  0  0  0
   41.7155   41.3958   40.4953 C   0  0  0  0  0  0  0  0  0  0  0  0
   40.6242   40.9241   39.6695 C   0  0  0  0  0  0  0  0  0  0  0  0
   40.7662   40.2611   38.4437 C   0  0  0  0  0  0  0  0  0  0  0  0
   39.6207   39.8894   37.7701 C   0  0  0  0  0  0  0  0  0  0  0  0
   38.3947   40.1606   38.3570 C   0  0  0  0  0  0  0  0  0  0  0  0
   38.3055   40.8483   39.5479 C   0  0  0  0  0  0  0  0  0  0  0  0
   49.2272   50.4839   42.8763 N   0  0  0  0  0  0  0  0  0  0  0  0
   48.8231   47.3850   42.0988 N   0  0  0  0  0  0  0  0  0  0  0  0
   42.4261   40.4939   41.0758 N   0  0  0  0  0  0  0  0  0  0  0  0
   39.3986   41.1894   40.2136 N   0  0  0  0  0  0  0  0  0  0  0  0
  1 17  2  0  0  0  0
  1 16  1  0  0  0  0
  2  3  2  0  0  0  0
  2 26  1  0  0  0  0
  3  4  1  0  0  0  0
  4  5  2  0  0  0  0
  5  6  1  0  0  0  0
  6  7  1  0  0  0  0
  6 26  2  0  0  0  0
  7 27  2  0  0  0  0
  8  9  2  0  0  0  0
  8 13  1  0  0  0  0
  8 27  1  0  0  0  0
  9 10  1  0  0  0  0
 10 11  2  0  0  0  0
 11 12  1  0  0  0  0
 11 14  1  0  0  0  0
 12 13  2  0  0  0  0
 14 15  1  0  0  0  0
 15 16  2  0  0  0  0
 15 19  1  0  0  0  0
 17 18  1  0  0  0  0
 17 28  1  0  0  0  0
 18 19  2  0  0  0  0
 20 21  1  0  0  0  0
 20 28  2  0  0  0  0
 21 22  2  0  0  0  0
 21 29  1  0  0  0  0
 22 23  1  0  0  0  0
 23 24  2  0  0  0  0
 24 25  1  0  0  0  0
 25 29  2  0  0  0  0
M  END
>  <CHROM.1>
-70.25365321,74.18339366,-137.38786538,-70.01654249,85.68754778,102.82844838
45.53862911,44.36598094,41.82744895,-2.64939767,-0.63747028,-0.58627453

>  <Name>
ligand

>  <RI>
0

>  <Rbt.Current_Directory>
/home/itssahil/PROJECTS/Mol_Feturizer/New_Systems/rnas/4JIY

>  <Rbt.Executable>
rbdock ($Id: //depot/dev/client3/rdock/2013.1/src/exe/rbdock.cxx#4 $)

>  <Rbt.Library>
libRbt.so (2013.1, Build901 2013/11/27)

>  <Rbt.Parameter_File>
/export/apps/rDock/src/rDock_2013.1_src/data/scripts/dock_solv.prm

>  <Rbt.Receptor>
prm/pocket_docking_5.prm

>  <SCORE>
-0.656552

>  <SCORE.INTER>
0.35949

>  <SCORE.INTER.CONST>
1

>  <SCORE.INTER.POLAR>
0

>  <SCORE.INTER.ROT>
6

>  <SCORE.INTER.SOLV>
0.696484

>  <SCORE.INTER.VDW>
-7.5925

>  <SCORE.INTER.norm>
0.0123962

>  <SCORE.INTRA>
-1.03685

>  <SCORE.INTRA.DIHEDRAL>
0.0263961

>  <SCORE.INTRA.DIHEDRAL.0>
7.2424

>  <SCORE.INTRA.POLAR>
0

>  <SCORE.INTRA.POLAR.0>
0

>  <SCORE.INTRA.REPUL>
0

>  <SCORE.INTRA.REPUL.0>
0

>  <SCORE.INTRA.SOLV>
-0.0190774

>  <SCORE.INTRA.SOLV.lig_0>
-3.36201

>  <SCORE.INTRA.VDW>
-1.04051

>  <SCORE.INTRA.VDW.0>
-0.910526

>  <SCORE.INTRA.norm>
-0.0357536

>  <SCORE.RESTR>
0.0208127

>  <SCORE.RESTR.CAVITY>
0.0208127

>  <SCORE.RESTR.norm>
0.000717681

>  <SCORE.SYSTEM>
0

>  <SCORE.SYSTEM.CONST>
0

>  <SCORE.SYSTEM.DIHEDRAL>
0

>  <SCORE.SYSTEM.SOLV>
0

>  <SCORE.SYSTEM.norm>
0

>  <SCORE.heavy>
29

>  <SCORE.norm>
-0.0226397

>  <RMSD>
5.012

$$$$
ligand
 OpenBabel11021811503D
libRbt.so/2013.1/901 2013/11/27
 29 32  0  0  0  0  0  0  0  0999 V2000
   42.5065   38.9109   41.9477 C   0  0  0  0  0  0  0  0  0  0  0  0
   52.6620   44.7889   45.5658 C   0  0  0  0  0  0  0  0  0  0  0  0
   52.8442   46.1782   45.5531 C   0  0  0  0  0  0  0  0  0  0  0  0
   52.1488   46.9579   44.6960 C   0  0  0  0  0  0  0  0  0  0  0  0
   51.3015   46.3435   43.7839 C   0  0  0  0  0  0  0  0  0  0  0  0
   51.1002   44.9907   43.8581 C   0  0  0  0  0  0  0  0  0  0  0  0
   50.1540   44.2233   43.0510 C   0  0  0  0  0  0  0  0  0  0  0  0
   47.9565   43.7682   42.4388 C   0  0  0  0  0  0  0  0  0  0  0  0
   47.0685   43.0011   43.1668 C   0  0  0  0  0  0  0  0  0  0  0  0
   46.1946   42.1516   42.4859 C   0  0  0  0  0  0  0  0  0  0  0  0
   46.1215   42.1279   41.1176 C   0  0  0  0  0  0  0  0  0  0  0  0
   47.0372   42.9316   40.4048 C   0  0  0  0  0  0  0  0  0  0  0  0
   47.9910   43.7019   41.0604 C   0  0  0  0  0  0  0  0  0  0  0  0
   45.0651   41.3086   40.3792 C   0  0  0  0  0  0  0  0  0  0  0  0
   44.0025   40.7245   41.2997 C   0  0  0  0  0  0  0  0  0  0  0  0
   43.4733   39.4709   41.1286 C   0  0  0  0  0  0  0  0  0  0  0  0
   42.0768   39.6688   43.0039 C   0  0  0  0  0  0  0  0  0  0  0  0
   42.5907   40.9072   43.1734 C   0  0  0  0  0  0  0  0  0  0  0  0
   43.5397   41.4682   42.3489 C   0  0  0  0  0  0  0  0  0  0  0  0
   39.8449   39.3611   43.5644 C   0  0  0  0  0  0  0  0  0  0  0  0
   38.8137   38.9680   44.5012 C   0  0  0  0  0  0  0  0  0  0  0  0
   38.4985   39.6442   45.6868 C   0  0  0  0  0  0  0  0  0  0  0  0
   37.4948   39.1285   46.4811 C   0  0  0  0  0  0  0  0  0  0  0  0
   36.8310   37.9917   46.0477 C   0  0  0  0  0  0  0  0  0  0  0  0
   37.2022   37.3408   44.8910 C   0  0  0  0  0  0  0  0  0  0  0  0
   51.7941   44.2049   44.7225 N   0  0  0  0  0  0  0  0  0  0  0  0
   48.9110   44.6092   43.1480 N   0  0  0  0  0  0  0  0  0  0  0  0
   41.0613   39.1746   43.9397 N   0  0  0  0  0  0  0  0  0  0  0  0
   38.1485   37.8398   44.1101 N   0  0  0  0  0  0  0  0  0  0  0  0
  1 17  2  0  0  0  0
  1 16  1  0  0  0  0
  2  3  2  0  0  0  0
  2 26  1  0  0  0  0
  3  4  1  0  0  0  0
  4  5  2  0  0  0  0
  5  6  1  0  0  0  0
  6  7  1  0  0  0  0
  6 26  2  0  0  0  0
  7 27  2  0  0  0  0
  8  9  2  0  0  0  0
  8 13  1  0  0  0  0
  8 27  1  0  0  0  0
  9 10  1  0  0  0  0
 10 11  2  0  0  0  0
 11 12  1  0  0  0  0
 11 14  1  0  0  0  0
 12 13  2  0  0  0  0
 14 15  1  0  0  0  0
 15 16  2  0  0  0  0
 15 19  1  0  0  0  0
 17 18  1  0  0  0  0
 17 28  1  0  0  0  0
 18 19  2  0  0  0  0
 20 21  1  0  0  0  0
 20 28  2  0  0  0  0
 21 22  2  0  0  0  0
 21 29  1  0  0  0  0
 22 23  1  0  0  0  0
 23 24  2  0  0  0  0
 24 25  1  0  0  0  0
 25 29  2  0  0  0  0
M  END
>  <CHROM.1>
-57.72285700,9.08197500,-141.39719035,72.39834723,111.01106761,-84.99103162
44.98104406,41.77916699,43.36062599,-3.09221887,0.48588675,1.37444641

>  <Name>
ligand

>  <RI>
0

>  <Rbt.Current_Directory>
/home/itssahil/PROJECTS/Mol_Feturizer/New_Systems/rnas/4JIY

>  <Rbt.Executable>
rbdock ($Id: //depot/dev/client3/rdock/2013.1/src/exe/rbdock.cxx#4 $)

>  <Rbt.Library>
libRbt.so (2013.1, Build901 2013/11/27)

>  <Rbt.Parameter_File>
/export/apps/rDock/src/rDock_2013.1_src/data/scripts/dock_solv.prm

>  <Rbt.Receptor>
prm/pocket_docking_6.prm

>  <SCORE>
-5.74281

>  <SCORE.INTER>
-5.94261

>  <SCORE.INTER.CONST>
1

>  <SCORE.INTER.POLAR>
0

>  <SCORE.INTER.ROT>
6

>  <SCORE.INTER.SOLV>
1.88724

>  <SCORE.INTER.VDW>
-12.1908

>  <SCORE.INTER.norm>
-0.204917

>  <SCORE.INTRA>
0.199795

>  <SCORE.INTRA.DIHEDRAL>
0.165561

>  <SCORE.INTRA.DIHEDRAL.0>
7.2424

>  <SCORE.INTRA.POLAR>
0

>  <SCORE.INTRA.POLAR.0>
0

>  <SCORE.INTRA.REPUL>
0

>  <SCORE.INTRA.REPUL.0>
0

>  <SCORE.INTRA.SOLV>
-0.0191871

>  <SCORE.INTRA.SOLV.lig_0>
-3.36201

>  <SCORE.INTRA.VDW>
0.126608

>  <SCORE.INTRA.VDW.0>
-0.910526

>  <SCORE.INTRA.norm>
0.0068895

>  <SCORE.RESTR>
0

>  <SCORE.RESTR.CAVITY>
0

>  <SCORE.RESTR.norm>
0

>  <SCORE.SYSTEM>
0

>  <SCORE.SYSTEM.CONST>
0

>  <SCORE.SYSTEM.DIHEDRAL>
0

>  <SCORE.SYSTEM.SOLV>
0

>  <SCORE.SYSTEM.norm>
0

>  <SCORE.heavy>
29

>  <SCORE.norm>
-0.198028

>  <RMSD>
5.017

$$$$
ligand
 OpenBabel11021811503D
libRbt.so/2013.1/901 2013/11/27
 29 32  0  0  0  0  0  0  0  0999 V2000
   42.0633   37.2375   40.8621 C   0  0  0  0  0  0  0  0  0  0  0  0
   51.7730   44.6254   44.1492 C   0  0  0  0  0  0  0  0  0  0  0  0
   51.6542   45.4452   45.2793 C   0  0  0  0  0  0  0  0  0  0  0  0
   50.4411   45.8577   45.7087 C   0  0  0  0  0  0  0  0  0  0  0  0
   49.3230   45.5058   44.9648 C   0  0  0  0  0  0  0  0  0  0  0  0
   49.4637   44.6568   43.8992 C   0  0  0  0  0  0  0  0  0  0  0  0
   48.3732   44.1045   43.0986 C   0  0  0  0  0  0  0  0  0  0  0  0
   46.6593   42.5507   42.8547 C   0  0  0  0  0  0  0  0  0  0  0  0
   45.5421   41.9974   43.4484 C   0  0  0  0  0  0  0  0  0  0  0  0
   44.6076   41.3396   42.6465 C   0  0  0  0  0  0  0  0  0  0  0  0
   44.7127   41.3114   41.2804 C   0  0  0  0  0  0  0  0  0  0  0  0
   45.8625   41.8951   40.7059 C   0  0  0  0  0  0  0  0  0  0  0  0
   46.8611   42.4584   41.4922 C   0  0  0  0  0  0  0  0  0  0  0  0
   43.6154   40.7205   40.3977 C   0  0  0  0  0  0  0  0  0  0  0  0
   42.9270   39.5127   41.0183 C   0  0  0  0  0  0  0  0  0  0  0  0
   42.6866   38.3530   40.3268 C   0  0  0  0  0  0  0  0  0  0  0  0
   41.6860   37.3113   42.1762 C   0  0  0  0  0  0  0  0  0  0  0  0
   41.9152   38.4540   42.8602 C   0  0  0  0  0  0  0  0  0  0  0  0
   42.5202   39.5674   42.3220 C   0  0  0  0  0  0  0  0  0  0  0  0
   39.7444   36.1598   42.7190 C   0  0  0  0  0  0  0  0  0  0  0  0
   39.0464   35.1179   43.4418 C   0  0  0  0  0  0  0  0  0  0  0  0
   38.7883   35.1230   44.8186 C   0  0  0  0  0  0  0  0  0  0  0  0
   38.1223   34.0417   45.3584 C   0  0  0  0  0  0  0  0  0  0  0  0
   37.7154   33.0271   44.5064 C   0  0  0  0  0  0  0  0  0  0  0  0
   38.0251   33.0499   43.1637 C   0  0  0  0  0  0  0  0  0  0  0  0
   50.6818   44.2364   43.4684 N   0  0  0  0  0  0  0  0  0  0  0  0
   47.6663   43.1838   43.6952 N   0  0  0  0  0  0  0  0  0  0  0  0
   41.0242   36.1882   42.8483 N   0  0  0  0  0  0  0  0  0  0  0  0
   38.6436   34.0932   42.6316 N   0  0  0  0  0  0  0  0  0  0  0  0
  1 17  2  0  0  0  0
  1 16  1  0  0  0  0
  2  3  2  0  0  0  0
  2 26  1  0  0  0  0
  3  4  1  0  0  0  0
  4  5  2  0  0  0  0
  5  6  1  0  0  0  0
  6  7  1  0  0  0  0
  6 26  2  0  0  0  0
  7 27  2  0  0  0  0
  8  9  2  0  0  0  0
  8 13  1  0  0  0  0
  8 27  1  0  0  0  0
  9 10  1  0  0  0  0
 10 11  2  0  0  0  0
 11 12  1  0  0  0  0
 11 14  1  0  0  0  0
 12 13  2  0  0  0  0
 14 15  1  0  0  0  0
 15 16  2  0  0  0  0
 15 19  1  0  0  0  0
 17 18  1  0  0  0  0
 17 28  1  0  0  0  0
 18 19  2  0  0  0  0
 20 21  1  0  0  0  0
 20 28  2  0  0  0  0
 21 22  2  0  0  0  0
 21 29  1  0  0  0  0
 22 23  1  0  0  0  0
 23 24  2  0  0  0  0
 24 25  1  0  0  0  0
 25 29  2  0  0  0  0
M  END
>  <CHROM.1>
-72.66597934,-35.49953275,-133.36367491,76.34505430,-154.12593229,-86.80944343
44.21418089,39.89622158,42.95992078,3.02540746,0.73752263,1.80936960

>  <Name>
ligand

>  <RI>
0

>  <Rbt.Current_Directory>
/home/itssahil/PROJECTS/Mol_Feturizer/New_Systems/rnas/4JIY

>  <Rbt.Executable>
rbdock ($Id: //depot/dev/client3/rdock/2013.1/src/exe/rbdock.cxx#4 $)

>  <Rbt.Library>
libRbt.so (2013.1, Build901 2013/11/27)

>  <Rbt.Parameter_File>
/export/apps/rDock/src/rDock_2013.1_src/data/scripts/dock_solv.prm

>  <Rbt.Receptor>
prm/pocket_docking_6.prm

>  <SCORE>
-5.36105

>  <SCORE.INTER>
-6.11545

>  <SCORE.INTER.CONST>
1

>  <SCORE.INTER.POLAR>
0

>  <SCORE.INTER.ROT>
6

>  <SCORE.INTER.SOLV>
2.61573

>  <SCORE.INTER.VDW>
-12.5489

>  <SCORE.INTER.norm>
-0.210878

>  <SCORE.INTRA>
0.754397

>  <SCORE.INTRA.DIHEDRAL>
0.0914071

>  <SCORE.INTRA.DIHEDRAL.0>
7.2424

>  <SCORE.INTRA.POLAR>
0

>  <SCORE.INTRA.POLAR.0>
0

>  <SCORE.INTRA.REPUL>
0

>  <SCORE.INTRA.REPUL.0>
0

>  <SCORE.INTRA.SOLV>
-0.0170022

>  <SCORE.INTRA.SOLV.lig_0>
-3.36201

>  <SCORE.INTRA.VDW>
0.717195

>  <SCORE.INTRA.VDW.0>
-0.910526

>  <SCORE.INTRA.norm>
0.0260137

>  <SCORE.RESTR>
0

>  <SCORE.RESTR.CAVITY>
0

>  <SCORE.RESTR.norm>
0

>  <SCORE.SYSTEM>
0

>  <SCORE.SYSTEM.CONST>
0

>  <SCORE.SYSTEM.DIHEDRAL>
0

>  <SCORE.SYSTEM.SOLV>
0

>  <SCORE.SYSTEM.norm>
0

>  <SCORE.heavy>
29

>  <SCORE.norm>
-0.184864

>  <RMSD>
5.151

$$$$
ligand
 OpenBabel11021811503D
libRbt.so/2013.1/901 2013/11/27
 29 32  0  0  0  0  0  0  0  0999 V2000
   45.8862   41.8855   40.7903 C   0  0  0  0  0  0  0  0  0  0  0  0
   34.4077   44.8440   40.5147 C   0  0  0  0  0  0  0  0  0  0  0  0
   33.2947   43.9994   40.6225 C   0  0  0  0  0  0  0  0  0  0  0  0
   33.4459   42.6567   40.6396 C   0  0  0  0  0  0  0  0  0  0  0  0
   34.7222   42.1342   40.4797 C   0  0  0  0  0  0  0  0  0  0  0  0
   35.7961   42.9832   40.4347 C   0  0  0  0  0  0  0  0  0  0  0  0
   37.2003   42.5812   40.3901 C   0  0  0  0  0  0  0  0  0  0  0  0
   38.9367   41.4997   39.2827 C   0  0  0  0  0  0  0  0  0  0  0  0
   39.1885   40.2583   39.8326 C   0  0  0  0  0  0  0  0  0  0  0  0
   40.5060   39.7998   39.8889 C   0  0  0  0  0  0  0  0  0  0  0  0
   41.5437   40.4971   39.3275 C   0  0  0  0  0  0  0  0  0  0  0  0
   41.2493   41.7580   38.7653 C   0  0  0  0  0  0  0  0  0  0  0  0
   39.9630   42.2847   38.7966 C   0  0  0  0  0  0  0  0  0  0  0  0
   42.9583   39.9254   39.2602 C   0  0  0  0  0  0  0  0  0  0  0  0
   43.9114   40.5537   40.2675 C   0  0  0  0  0  0  0  0  0  0  0  0
   45.0008   41.3010   39.8994 C   0  0  0  0  0  0  0  0  0  0  0  0
   45.6285   41.7088   42.1234 C   0  0  0  0  0  0  0  0  0  0  0  0
   44.5596   40.9682   42.4913 C   0  0  0  0  0  0  0  0  0  0  0  0
   43.6901   40.3745   41.6043 C   0  0  0  0  0  0  0  0  0  0  0  0
   47.2120   43.2815   42.7632 C   0  0  0  0  0  0  0  0  0  0  0  0
   48.1457   43.8231   43.7277 C   0  0  0  0  0  0  0  0  0  0  0  0
   47.8284   44.1904   45.0417 C   0  0  0  0  0  0  0  0  0  0  0  0
   48.8343   44.7079   45.8321 C   0  0  0  0  0  0  0  0  0  0  0  0
   50.1087   44.8043   45.2962 C   0  0  0  0  0  0  0  0  0  0  0  0
   50.3638   44.4640   43.9853 C   0  0  0  0  0  0  0  0  0  0  0  0
   35.6473   44.3337   40.4227 N   0  0  0  0  0  0  0  0  0  0  0  0
   37.5716   42.0073   39.2783 N   0  0  0  0  0  0  0  0  0  0  0  0
   46.4950   42.2878   43.1554 N   0  0  0  0  0  0  0  0  0  0  0  0
   49.4111   43.9452   43.2253 N   0  0  0  0  0  0  0  0  0  0  0  0
  1 17  2  0  0  0  0
  1 16  1  0  0  0  0
  2  3  2  0  0  0  0
  2 26  1  0  0  0  0
  3  4  1  0  0  0  0
  4  5  2  0  0  0  0
  5  6  1  0  0  0  0
  6  7  1  0  0  0  0
  6 26  2  0  0  0  0
  7 27  2  0  0  0  0
  8  9  2  0  0  0  0
  8 13  1  0  0  0  0
  8 27  1  0  0  0  0
  9 10  1  0  0  0  0
 10 11  2  0  0  0  0
 11 12  1  0  0  0  0
 11 14  1  0  0  0  0
 12 13  2  0  0  0  0
 14 15  1  0  0  0  0
 15 16  2  0  0  0  0
 15 19  1  0  0  0  0
 17 18  1  0  0  0  0
 17 28  1  0  0  0  0
 18 19  2  0  0  0  0
 20 21  1  0  0  0  0
 20 28  2  0  0  0  0
 21 22  2  0  0  0  0
 21 29  1  0  0  0  0
 22 23  1  0  0  0  0
 23 24  2  0  0  0  0
 24 25  1  0  0  0  0
 25 29  2  0  0  0  0
M  END
>  <CHROM.1>
68.75042101,-105.12811869,-115.19940456,-50.35235347,83.16246701,21.31093208
42.19630244,42.41422678,41.30965651,-0.22654018,0.17765317,-2.42655214

>  <Name>
ligand

>  <RI>
0

>  <Rbt.Current_Directory>
/home/itssahil/PROJECTS/Mol_Feturizer/New_Systems/rnas/4JIY

>  <Rbt.Executable>
rbdock ($Id: //depot/dev/client3/rdock/2013.1/src/exe/rbdock.cxx#4 $)

>  <Rbt.Library>
libRbt.so (2013.1, Build901 2013/11/27)

>  <Rbt.Parameter_File>
/export/apps/rDock/src/rDock_2013.1_src/data/scripts/dock_solv.prm

>  <Rbt.Receptor>
prm/pocket_docking_6.prm

>  <SCORE>
-4.16073

>  <SCORE.INTER>
-4.13061

>  <SCORE.INTER.CONST>
1

>  <SCORE.INTER.POLAR>
0

>  <SCORE.INTER.ROT>
6

>  <SCORE.INTER.SOLV>
1.82881

>  <SCORE.INTER.VDW>
-10.9633

>  <SCORE.INTER.norm>
-0.142435

>  <SCORE.INTRA>
-0.0314344

>  <SCORE.INTRA.DIHEDRAL>
0.24461

>  <SCORE.INTRA.DIHEDRAL.0>
7.2424

>  <SCORE.INTRA.POLAR>
0

>  <SCORE.INTRA.POLAR.0>
0

>  <SCORE.INTRA.REPUL>
0

>  <SCORE.INTRA.REPUL.0>
0

>  <SCORE.INTRA.SOLV>
-0.0170518

>  <SCORE.INTRA.SOLV.lig_0>
-3.36201

>  <SCORE.INTRA.VDW>
-0.145213

>  <SCORE.INTRA.VDW.0>
-0.910526

>  <SCORE.INTRA.norm>
-0.00108394

>  <SCORE.RESTR>
0.00131719

>  <SCORE.RESTR.CAVITY>
0.00131719

>  <SCORE.RESTR.norm>
4.54202e-05

>  <SCORE.SYSTEM>
0

>  <SCORE.SYSTEM.CONST>
0

>  <SCORE.SYSTEM.DIHEDRAL>
0

>  <SCORE.SYSTEM.SOLV>
0

>  <SCORE.SYSTEM.norm>
0

>  <SCORE.heavy>
29

>  <SCORE.norm>
-0.143473

>  <RMSD>
5.158

$$$$
ligand
 OpenBabel11021811503D
libRbt.so/2013.1/901 2013/11/27
 29 32  0  0  0  0  0  0  0  0999 V2000
   45.5596   42.0749   43.2912 C   0  0  0  0  0  0  0  0  0  0  0  0
   34.2740   40.7174   37.5716 C   0  0  0  0  0  0  0  0  0  0  0  0
   34.3965   41.6162   36.5035 C   0  0  0  0  0  0  0  0  0  0  0  0
   35.5905   42.1735   36.2036 C   0  0  0  0  0  0  0  0  0  0  0  0
   36.6763   41.8866   37.0197 C   0  0  0  0  0  0  0  0  0  0  0  0
   36.5402   40.9608   38.0200 C   0  0  0  0  0  0  0  0  0  0  0  0
   37.6151   40.4685   38.8789 C   0  0  0  0  0  0  0  0  0  0  0  0
   39.2251   40.8848   40.5054 C   0  0  0  0  0  0  0  0  0  0  0  0
   40.3352   40.4101   39.8351 C   0  0  0  0  0  0  0  0  0  0  0  0
   41.4126   39.9206   40.5758 C   0  0  0  0  0  0  0  0  0  0  0  0
   41.4450   39.9875   41.9443 C   0  0  0  0  0  0  0  0  0  0  0  0
   40.2973   40.4872   42.5969 C   0  0  0  0  0  0  0  0  0  0  0  0
   39.1689   40.8774   41.8847 C   0  0  0  0  0  0  0  0  0  0  0  0
   42.6835   39.5881   42.7435 C   0  0  0  0  0  0  0  0  0  0  0  0
   43.8803   40.4958   42.4953 C   0  0  0  0  0  0  0  0  0  0  0  0
   44.4708   41.2404   43.4842 C   0  0  0  0  0  0  0  0  0  0  0  0
   46.0775   42.1323   42.0251 C   0  0  0  0  0  0  0  0  0  0  0  0
   45.4955   41.4053   41.0458 C   0  0  0  0  0  0  0  0  0  0  0  0
   44.4035   40.5889   41.2361 C   0  0  0  0  0  0  0  0  0  0  0  0
   47.1038   43.6918   40.6448 C   0  0  0  0  0  0  0  0  0  0  0  0
   48.2570   44.4715   40.2477 C   0  0  0  0  0  0  0  0  0  0  0  0
   49.5924   44.1003   40.4506 C   0  0  0  0  0  0  0  0  0  0  0  0
   50.5788   44.9666   40.0254 C   0  0  0  0  0  0  0  0  0  0  0  0
   50.1972   46.1385   39.3915 C   0  0  0  0  0  0  0  0  0  0  0  0
   48.8690   46.4771   39.2478 C   0  0  0  0  0  0  0  0  0  0  0  0
   35.3420   40.3950   38.3204 N   0  0  0  0  0  0  0  0  0  0  0  0
   38.0750   41.3389   39.7357 N   0  0  0  0  0  0  0  0  0  0  0  0
   47.2334   42.9772   41.7068 N   0  0  0  0  0  0  0  0  0  0  0  0
   47.9147   45.6427   39.6316 N   0  0  0  0  0  0  0  0  0  0  0  0
  1 17  2  0  0  0  0
  1 16  1  0  0  0  0
  2  3  2  0  0  0  0
  2 26  1  0  0  0  0
  3  4  1  0  0  0  0
  4  5  2  0  0  0  0
  5  6  1  0  0  0  0
  6  7  1  0  0  0  0
  6 26  2  0  0  0  0
  7 27  2  0  0  0  0
  8  9  2  0  0  0  0
  8 13  1  0  0  0  0
  8 27  1  0  0  0  0
  9 10  1  0  0  0  0
 10 11  2  0  0  0  0
 11 12  1  0  0  0  0
 11 14  1  0  0  0  0
 12 13  2  0  0  0  0
 14 15  1  0  0  0  0
 15 16  2  0  0  0  0
 15 19  1  0  0  0  0
 17 18  1  0  0  0  0
 17 28  1  0  0  0  0
 18 19  2  0  0  0  0
 20 21  1  0  0  0  0
 20 28  2  0  0  0  0
 21 22  2  0  0  0  0
 21 29  1  0  0  0  0
 22 23  1  0  0  0  0
 23 24  2  0  0  0  0
 24 25  1  0  0  0  0
 25 29  2  0  0  0  0
M  END
>  <CHROM.1>
70.01391643,65.37118646,118.61082802,32.06155347,53.98286055,-133.13774524
42.49930685,42.00385391,40.25275851,-0.01816083,0.32320728,2.24580915

>  <Name>
ligand

>  <RI>
0

>  <Rbt.Current_Directory>
/home/itssahil/PROJECTS/Mol_Feturizer/New_Systems/rnas/4JIY

>  <Rbt.Executable>
rbdock ($Id: //depot/dev/client3/rdock/2013.1/src/exe/rbdock.cxx#4 $)

>  <Rbt.Library>
libRbt.so (2013.1, Build901 2013/11/27)

>  <Rbt.Parameter_File>
/export/apps/rDock/src/rDock_2013.1_src/data/scripts/dock_solv.prm

>  <Rbt.Receptor>
prm/pocket_docking_6.prm

>  <SCORE>
-5.69069

>  <SCORE.INTER>
-5.80211

>  <SCORE.INTER.CONST>
1

>  <SCORE.INTER.POLAR>
0

>  <SCORE.INTER.ROT>
6

>  <SCORE.INTER.SOLV>
2.12073

>  <SCORE.INTER.VDW>
-12.175

>  <SCORE.INTER.norm>
-0.200073

>  <SCORE.INTRA>
0.106398

>  <SCORE.INTRA.DIHEDRAL>
0.20102

>  <SCORE.INTRA.DIHEDRAL.0>
7.2424

>  <SCORE.INTRA.POLAR>
0

>  <SCORE.INTRA.POLAR.0>
0

>  <SCORE.INTRA.REPUL>
0

>  <SCORE.INTRA.REPUL.0>
0

>  <SCORE.INTRA.SOLV>
-0.0173361

>  <SCORE.INTRA.SOLV.lig_0>
-3.36201

>  <SCORE.INTRA.VDW>
0.0145559

>  <SCORE.INTRA.VDW.0>
-0.910526

>  <SCORE.INTRA.norm>
0.00366889

>  <SCORE.RESTR>
0.00502697

>  <SCORE.RESTR.CAVITY>
0.00502697

>  <SCORE.RESTR.norm>
0.000173344

>  <SCORE.SYSTEM>
0

>  <SCORE.SYSTEM.CONST>
0

>  <SCORE.SYSTEM.DIHEDRAL>
0

>  <SCORE.SYSTEM.SOLV>
0

>  <SCORE.SYSTEM.norm>
0

>  <SCORE.heavy>
29

>  <SCORE.norm>
-0.196231

>  <RMSD>
5.173

$$$$
ligand
 OpenBabel11021811503D
libRbt.so/2013.1/901 2013/11/27
 29 32  0  0  0  0  0  0  0  0999 V2000
   47.1026   42.9656   42.1435 C   0  0  0  0  0  0  0  0  0  0  0  0
   36.7257   35.6574   42.4101 C   0  0  0  0  0  0  0  0  0  0  0  0
   36.9046   34.2751   42.5545 C   0  0  0  0  0  0  0  0  0  0  0  0
   38.0531   33.6825   42.1599 C   0  0  0  0  0  0  0  0  0  0  0  0
   39.0226   34.4647   41.5469 C   0  0  0  0  0  0  0  0  0  0  0  0
   38.8445   35.8208   41.4718 C   0  0  0  0  0  0  0  0  0  0  0  0
   39.8217   36.7830   40.9672 C   0  0  0  0  0  0  0  0  0  0  0  0
   41.8827   37.8400   41.1821 C   0  0  0  0  0  0  0  0  0  0  0  0
   41.8289   39.0764   41.7946 C   0  0  0  0  0  0  0  0  0  0  0  0
   42.6759   40.0904   41.3435 C   0  0  0  0  0  0  0  0  0  0  0  0
   43.6263   39.8701   40.3810 C   0  0  0  0  0  0  0  0  0  0  0  0
   43.6599   38.5920   39.7827 C   0  0  0  0  0  0  0  0  0  0  0  0
   42.7530   37.5998   40.1379 C   0  0  0  0  0  0  0  0  0  0  0  0
   44.6475   40.9379   39.9948 C   0  0  0  0  0  0  0  0  0  0  0  0
   45.3480   41.5640   41.1927 C   0  0  0  0  0  0  0  0  0  0  0  0
   46.4433   42.3809   41.0745 C   0  0  0  0  0  0  0  0  0  0  0  0
   46.6006   42.7134   43.3921 C   0  0  0  0  0  0  0  0  0  0  0  0
   45.5252   41.9042   43.5144 C   0  0  0  0  0  0  0  0  0  0  0  0
   44.8811   41.3110   42.4521 C   0  0  0  0  0  0  0  0  0  0  0  0
   47.9518   42.4702   45.2643 C   0  0  0  0  0  0  0  0  0  0  0  0
   48.5029   42.9704   46.5059 C   0  0  0  0  0  0  0  0  0  0  0  0
   49.5958   43.8401   46.6127 C   0  0  0  0  0  0  0  0  0  0  0  0
   50.0088   44.2116   47.8759 C   0  0  0  0  0  0  0  0  0  0  0  0
   49.3009   43.7331   48.9671 C   0  0  0  0  0  0  0  0  0  0  0  0
   48.2544   42.8498   48.8125 C   0  0  0  0  0  0  0  0  0  0  0  0
   37.6928   36.4199   41.8727 N   0  0  0  0  0  0  0  0  0  0  0  0
   40.9580   36.7987   41.6089 N   0  0  0  0  0  0  0  0  0  0  0  0
   47.2143   43.2850   44.5953 N   0  0  0  0  0  0  0  0  0  0  0  0
   47.8356   42.5049   47.6043 N   0  0  0  0  0  0  0  0  0  0  0  0
  1 17  2  0  0  0  0
  1 16  1  0  0  0  0
  2  3  2  0  0  0  0
  2 26  1  0  0  0  0
  3  4  1  0  0  0  0
  4  5  2  0  0  0  0
  5  6  1  0  0  0  0
  6  7  1  0  0  0  0
  6 26  2  0  0  0  0
  7 27  2  0  0  0  0
  8  9  2  0  0  0  0
  8 13  1  0  0  0  0
  8 27  1  0  0  0  0
  9 10  1  0  0  0  0
 10 11  2  0  0  0  0
 11 12  1  0  0  0  0
 11 14  1  0  0  0  0
 12 13  2  0  0  0  0
 14 15  1  0  0  0  0
 15 16  2  0  0  0  0
 15 19  1  0  0  0  0
 17 18  1  0  0  0  0
 17 28  1  0  0  0  0
 18 19  2  0  0  0  0
 20 21  1  0  0  0  0
 20 28  2  0  0  0  0
 21 22  2  0  0  0  0
 21 29  1  0  0  0  0
 22 23  1  0  0  0  0
 23 24  2  0  0  0  0
 24 25  1  0  0  0  0
 25 29  2  0  0  0  0
M  END
>  <CHROM.1>
-59.52093286,49.18615724,169.24350569,-77.10280788,89.45583300,-102.02714321
43.91233363,39.88476612,43.07809586,-0.30769884,-0.69558672,-1.46611704

>  <Name>
ligand

>  <RI>
0

>  <Rbt.Current_Directory>
/home/itssahil/PROJECTS/Mol_Feturizer/New_Systems/rnas/4JIY

>  <Rbt.Executable>
rbdock ($Id: //depot/dev/client3/rdock/2013.1/src/exe/rbdock.cxx#4 $)

>  <Rbt.Library>
libRbt.so (2013.1, Build901 2013/11/27)

>  <Rbt.Parameter_File>
/export/apps/rDock/src/rDock_2013.1_src/data/scripts/dock_solv.prm

>  <Rbt.Receptor>
prm/pocket_docking_6.prm

>  <SCORE>
-5.46513

>  <SCORE.INTER>
-5.59544

>  <SCORE.INTER.CONST>
1

>  <SCORE.INTER.POLAR>
0

>  <SCORE.INTER.ROT>
6

>  <SCORE.INTER.SOLV>
2.49654

>  <SCORE.INTER.VDW>
-12.1625

>  <SCORE.INTER.norm>
-0.192946

>  <SCORE.INTRA>
0.130312

>  <SCORE.INTRA.DIHEDRAL>
0.25267

>  <SCORE.INTRA.DIHEDRAL.0>
7.2424

>  <SCORE.INTRA.POLAR>
0

>  <SCORE.INTRA.POLAR.0>
0

>  <SCORE.INTRA.REPUL>
0

>  <SCORE.INTRA.REPUL.0>
0

>  <SCORE.INTRA.SOLV>
-0.0188502

>  <SCORE.INTRA.SOLV.lig_0>
-3.36201

>  <SCORE.INTRA.VDW>
0.0134017

>  <SCORE.INTRA.VDW.0>
-0.910526

>  <SCORE.INTRA.norm>
0.00449351

>  <SCORE.RESTR>
0

>  <SCORE.RESTR.CAVITY>
0

>  <SCORE.RESTR.norm>
0

>  <SCORE.SYSTEM>
0

>  <SCORE.SYSTEM.CONST>
0

>  <SCORE.SYSTEM.DIHEDRAL>
0

>  <SCORE.SYSTEM.SOLV>
0

>  <SCORE.SYSTEM.norm>
0

>  <SCORE.heavy>
29

>  <SCORE.norm>
-0.188453

>  <RMSD>
5.188

$$$$
ligand
 OpenBabel11021811503D
libRbt.so/2013.1/901 2013/11/27
 29 32  0  0  0  0  0  0  0  0999 V2000
   45.3647   41.9989   40.9651 C   0  0  0  0  0  0  0  0  0  0  0  0
   35.2908   35.6043   43.1485 C   0  0  0  0  0  0  0  0  0  0  0  0
   35.2098   34.2169   42.9692 C   0  0  0  0  0  0  0  0  0  0  0  0
   36.1853   33.5469   42.3168 C   0  0  0  0  0  0  0  0  0  0  0  0
   37.2340   34.2745   41.7706 C   0  0  0  0  0  0  0  0  0  0  0  0
   37.3163   35.6204   42.0113 C   0  0  0  0  0  0  0  0  0  0  0  0
   38.4163   36.4936   41.6076 C   0  0  0  0  0  0  0  0  0  0  0  0
   39.6383   37.5183   39.9141 C   0  0  0  0  0  0  0  0  0  0  0  0
   39.5011   38.8740   39.6902 C   0  0  0  0  0  0  0  0  0  0  0  0
   40.6048   39.5981   39.2359 C   0  0  0  0  0  0  0  0  0  0  0  0
   41.8436   39.0276   39.1002 C   0  0  0  0  0  0  0  0  0  0  0  0
   41.9502   37.6417   39.3466 C   0  0  0  0  0  0  0  0  0  0  0  0
   40.8411   36.8781   39.6928 C   0  0  0  0  0  0  0  0  0  0  0  0
   43.0786   39.8530   38.7459 C   0  0  0  0  0  0  0  0  0  0  0  0
   43.7847   40.4350   39.9626 C   0  0  0  0  0  0  0  0  0  0  0  0
   44.7055   41.4479   39.8783 C   0  0  0  0  0  0  0  0  0  0  0  0
   45.0483   41.4973   42.1991 C   0  0  0  0  0  0  0  0  0  0  0  0
   44.1461   40.4949   42.2871 C   0  0  0  0  0  0  0  0  0  0  0  0
   43.5040   39.9376   41.2043 C   0  0  0  0  0  0  0  0  0  0  0  0
   46.7690   42.6664   43.2299 C   0  0  0  0  0  0  0  0  0  0  0  0
   47.4690   43.1113   44.4163 C   0  0  0  0  0  0  0  0  0  0  0  0
   47.9013   42.2813   45.4586 C   0  0  0  0  0  0  0  0  0  0  0  0
   48.5429   42.8666   46.5310 C   0  0  0  0  0  0  0  0  0  0  0  0
   48.7550   44.2360   46.5038 C   0  0  0  0  0  0  0  0  0  0  0  0
   48.2782   45.0157   45.4723 C   0  0  0  0  0  0  0  0  0  0  0  0
   36.3395   36.2958   42.6714 N   0  0  0  0  0  0  0  0  0  0  0  0
   38.4734   36.7487   40.3289 N   0  0  0  0  0  0  0  0  0  0  0  0
   45.6793   42.0095   43.4201 N   0  0  0  0  0  0  0  0  0  0  0  0
   47.6815   44.4616   44.4277 N   0  0  0  0  0  0  0  0  0  0  0  0
  1 17  2  0  0  0  0
  1 16  1  0  0  0  0
  2  3  2  0  0  0  0
  2 26  1  0  0  0  0
  3  4  1  0  0  0  0
  4  5  2  0  0  0  0
  5  6  1  0  0  0  0
  6  7  1  0  0  0  0
  6 26  2  0  0  0  0
  7 27  2  0  0  0  0
  8  9  2  0  0  0  0
  8 13  1  0  0  0  0
  8 27  1  0  0  0  0
  9 10  1  0  0  0  0
 10 11  2  0  0  0  0
 11 12  1  0  0  0  0
 11 14  1  0  0  0  0
 12 13  2  0  0  0  0
 14 15  1  0  0  0  0
 15 16  2  0  0  0  0
 15 19  1  0  0  0  0
 17 18  1  0  0  0  0
 17 28  1  0  0  0  0
 18 19  2  0  0  0  0
 20 21  1  0  0  0  0
 20 28  2  0  0  0  0
 21 22  2  0  0  0  0
 21 29  1  0  0  0  0
 22 23  1  0  0  0  0
 23 24  2  0  0  0  0
 24 25  1  0  0  0  0
 25 29  2  0  0  0  0
M  END
>  <CHROM.1>
72.38468414,87.88994427,-164.10593643,56.08376914,-100.43129252,-18.07988299
42.39538879,39.48254598,42.01678423,-0.21301095,-0.64152911,-1.56007908

>  <Name>
ligand

>  <RI>
0

>  <Rbt.Current_Directory>
/home/itssahil/PROJECTS/Mol_Feturizer/New_Systems/rnas/4JIY

>  <Rbt.Executable>
rbdock ($Id: //depot/dev/client3/rdock/2013.1/src/exe/rbdock.cxx#4 $)

>  <Rbt.Library>
libRbt.so (2013.1, Build901 2013/11/27)

>  <Rbt.Parameter_File>
/export/apps/rDock/src/rDock_2013.1_src/data/scripts/dock_solv.prm

>  <Rbt.Receptor>
prm/pocket_docking_6.prm

>  <SCORE>
-3.04173

>  <SCORE.INTER>
-3.12999

>  <SCORE.INTER.CONST>
1

>  <SCORE.INTER.POLAR>
0

>  <SCORE.INTER.ROT>
6

>  <SCORE.INTER.SOLV>
1.76427

>  <SCORE.INTER.VDW>
-10.2748

>  <SCORE.INTER.norm>
-0.107931

>  <SCORE.INTRA>
0.0882678

>  <SCORE.INTRA.DIHEDRAL>
-0.134676

>  <SCORE.INTRA.DIHEDRAL.0>
7.2424

>  <SCORE.INTRA.POLAR>
0

>  <SCORE.INTRA.POLAR.0>
0

>  <SCORE.INTRA.REPUL>
0

>  <SCORE.INTRA.REPUL.0>
0

>  <SCORE.INTRA.SOLV>
-0.0177938

>  <SCORE.INTRA.SOLV.lig_0>
-3.36201

>  <SCORE.INTRA.VDW>
0.164503

>  <SCORE.INTRA.VDW.0>
-0.910526

>  <SCORE.INTRA.norm>
0.00304372

>  <SCORE.RESTR>
0

>  <SCORE.RESTR.CAVITY>
0

>  <SCORE.RESTR.norm>
0

>  <SCORE.SYSTEM>
0

>  <SCORE.SYSTEM.CONST>
0

>  <SCORE.SYSTEM.DIHEDRAL>
0

>  <SCORE.SYSTEM.SOLV>
0

>  <SCORE.SYSTEM.norm>
0

>  <SCORE.heavy>
29

>  <SCORE.norm>
-0.104887

>  <RMSD>
5.215

$$$$
ligand
 OpenBabel11021811503D
libRbt.so/2013.1/901 2013/11/27
 29 32  0  0  0  0  0  0  0  0999 V2000
   45.4963   42.1306   43.8245 C   0  0  0  0  0  0  0  0  0  0  0  0
   37.6995   36.2437   35.4838 C   0  0  0  0  0  0  0  0  0  0  0  0
   37.0625   37.1125   34.5876 C   0  0  0  0  0  0  0  0  0  0  0  0
   36.9088   38.4214   34.8861 C   0  0  0  0  0  0  0  0  0  0  0  0
   37.3359   38.8695   36.1287 C   0  0  0  0  0  0  0  0  0  0  0  0
   38.0062   38.0113   36.9596 C   0  0  0  0  0  0  0  0  0  0  0  0
   38.6178   38.3654   38.2386 C   0  0  0  0  0  0  0  0  0  0  0  0
   40.4605   39.1408   39.4278 C   0  0  0  0  0  0  0  0  0  0  0  0
   41.3907   38.2285   39.8854 C   0  0  0  0  0  0  0  0  0  0  0  0
   41.9743   38.4300   41.1375 C   0  0  0  0  0  0  0  0  0  0  0  0
   41.7285   39.5538   41.8824 C   0  0  0  0  0  0  0  0  0  0  0  0
   40.7795   40.4704   41.3804 C   0  0  0  0  0  0  0  0  0  0  0  0
   40.1033   40.2360   40.1884 C   0  0  0  0  0  0  0  0  0  0  0  0
   42.4788   39.8423   43.1809 C   0  0  0  0  0  0  0  0  0  0  0  0
   43.7485   40.6568   42.9758 C   0  0  0  0  0  0  0  0  0  0  0  0
   44.3420   41.3801   43.9786 C   0  0  0  0  0  0  0  0  0  0  0  0
   46.0784   42.1218   42.5853 C   0  0  0  0  0  0  0  0  0  0  0  0
   45.4942   41.4155   41.5922 C   0  0  0  0  0  0  0  0  0  0  0  0
   44.3381   40.6834   41.7430 C   0  0  0  0  0  0  0  0  0  0  0  0
   47.3171   43.4962   41.1828 C   0  0  0  0  0  0  0  0  0  0  0  0
   48.5458   44.1774   40.8340 C   0  0  0  0  0  0  0  0  0  0  0  0
   48.8071   44.7935   39.6034 C   0  0  0  0  0  0  0  0  0  0  0  0
   50.0392   45.3884   39.4238 C   0  0  0  0  0  0  0  0  0  0  0  0
   50.9371   45.3743   40.4795 C   0  0  0  0  0  0  0  0  0  0  0  0
   50.6478   44.7230   41.6591 C   0  0  0  0  0  0  0  0  0  0  0  0
   38.1668   36.6958   36.6597 N   0  0  0  0  0  0  0  0  0  0  0  0
   39.8045   38.9012   38.1496 N   0  0  0  0  0  0  0  0  0  0  0  0
   47.3064   42.8748   42.3094 N   0  0  0  0  0  0  0  0  0  0  0  0
   49.4601   44.1688   41.8501 N   0  0  0  0  0  0  0  0  0  0  0  0
  1 17  2  0  0  0  0
  1 16  1  0  0  0  0
  2  3  2  0  0  0  0
  2 26  1  0  0  0  0
  3  4  1  0  0  0  0
  4  5  2  0  0  0  0
  5  6  1  0  0  0  0
  6  7  1  0  0  0  0
  6 26  2  0  0  0  0
  7 27  2  0  0  0  0
  8  9  2  0  0  0  0
  8 13  1  0  0  0  0
  8 27  1  0  0  0  0
  9 10  1  0  0  0  0
 10 11  2  0  0  0  0
 11 12  1  0  0  0  0
 11 14  1  0  0  0  0
 12 13  2  0  0  0  0
 14 15  1  0  0  0  0
 15 16  2  0  0  0  0
 15 19  1  0  0  0  0
 17 18  1  0  0  0  0
 17 28  1  0  0  0  0
 18 19  2  0  0  0  0
 20 21  1  0  0  0  0
 20 28  2  0  0  0  0
 21 22  2  0  0  0  0
 21 29  1  0  0  0  0
 22 23  1  0  0  0  0
 23 24  2  0  0  0  0
 24 25  1  0  0  0  0
 25 29  2  0  0  0  0
M  END
>  <CHROM.1>
-82.27348569,90.46114935,158.83208837,173.26346336,98.40053865,-137.84008575
43.28125882,40.74918892,40.08440000,0.29351576,0.56454642,1.69803416

>  <Name>
ligand

>  <RI>
0

>  <Rbt.Current_Directory>
/home/itssahil/PROJECTS/Mol_Feturizer/New_Systems/rnas/4JIY

>  <Rbt.Executable>
rbdock ($Id: //depot/dev/client3/rdock/2013.1/src/exe/rbdock.cxx#4 $)

>  <Rbt.Library>
libRbt.so (2013.1, Build901 2013/11/27)

>  <Rbt.Parameter_File>
/export/apps/rDock/src/rDock_2013.1_src/data/scripts/dock_solv.prm

>  <Rbt.Receptor>
prm/pocket_docking_6.prm

>  <SCORE>
-6.04601

>  <SCORE.INTER>
-6.31424

>  <SCORE.INTER.CONST>
1

>  <SCORE.INTER.POLAR>
0

>  <SCORE.INTER.ROT>
6

>  <SCORE.INTER.SOLV>
2.24123

>  <SCORE.INTER.VDW>
-12.5566

>  <SCORE.INTER.norm>
-0.217732

>  <SCORE.INTRA>
0.267637

>  <SCORE.INTRA.DIHEDRAL>
0.0887539

>  <SCORE.INTRA.DIHEDRAL.0>
7.2424

>  <SCORE.INTRA.POLAR>
0

>  <SCORE.INTRA.POLAR.0>
0

>  <SCORE.INTRA.REPUL>
0

>  <SCORE.INTRA.REPUL.0>
0

>  <SCORE.INTRA.SOLV>
-0.00690904

>  <SCORE.INTRA.SOLV.lig_0>
-3.36201

>  <SCORE.INTRA.VDW>
0.226715

>  <SCORE.INTRA.VDW.0>
-0.910526

>  <SCORE.INTRA.norm>
0.00922887

>  <SCORE.RESTR>
0.000591431

>  <SCORE.RESTR.CAVITY>
0.000591431

>  <SCORE.RESTR.norm>
2.03942e-05

>  <SCORE.SYSTEM>
0

>  <SCORE.SYSTEM.CONST>
0

>  <SCORE.SYSTEM.DIHEDRAL>
0

>  <SCORE.SYSTEM.SOLV>
0

>  <SCORE.SYSTEM.norm>
0

>  <SCORE.heavy>
29

>  <SCORE.norm>
-0.208483

>  <RMSD>
5.229

$$$$
ligand
 OpenBabel11021811503D
libRbt.so/2013.1/901 2013/11/27
 29 32  0  0  0  0  0  0  0  0999 V2000
   41.7889   44.5533   39.4616 C   0  0  0  0  0  0  0  0  0  0  0  0
   48.4734   45.8114   48.0833 C   0  0  0  0  0  0  0  0  0  0  0  0
   49.1220   44.8594   48.8812 C   0  0  0  0  0  0  0  0  0  0  0  0
   49.0669   43.5454   48.5709 C   0  0  0  0  0  0  0  0  0  0  0  0
   48.2972   43.1558   47.4832 C   0  0  0  0  0  0  0  0  0  0  0  0
   47.7225   44.1121   46.6886 C   0  0  0  0  0  0  0  0  0  0  0  0
   46.9889   43.8637   45.4494 C   0  0  0  0  0  0  0  0  0  0  0  0
   46.8897   42.8686   43.3492 C   0  0  0  0  0  0  0  0  0  0  0  0
   47.2859   43.6581   42.2877 C   0  0  0  0  0  0  0  0  0  0  0  0
   46.6020   43.5515   41.0753 C   0  0  0  0  0  0  0  0  0  0  0  0
   45.6170   42.6200   40.8750 C   0  0  0  0  0  0  0  0  0  0  0  0
   45.2436   41.8228   41.9785 C   0  0  0  0  0  0  0  0  0  0  0  0
   45.8343   41.9874   43.2263 C   0  0  0  0  0  0  0  0  0  0  0  0
   44.9737   42.4061   39.5065 C   0  0  0  0  0  0  0  0  0  0  0  0
   43.5116   42.8273   39.4547 C   0  0  0  0  0  0  0  0  0  0  0  0
   43.1096   44.1376   39.5065 C   0  0  0  0  0  0  0  0  0  0  0  0
   40.8372   43.5766   39.3388 C   0  0  0  0  0  0  0  0  0  0  0  0
   41.2278   42.2836   39.2934 C   0  0  0  0  0  0  0  0  0  0  0  0
   42.5399   41.8714   39.3545 C   0  0  0  0  0  0  0  0  0  0  0  0
   38.8250   43.9973   40.4177 C   0  0  0  0  0  0  0  0  0  0  0  0
   37.3962   44.2283   40.3946 C   0  0  0  0  0  0  0  0  0  0  0  0
   36.7771   45.4257   40.0136 C   0  0  0  0  0  0  0  0  0  0  0  0
   35.3994   45.4885   40.0625 C   0  0  0  0  0  0  0  0  0  0  0  0
   34.7023   44.3557   40.4523 C   0  0  0  0  0  0  0  0  0  0  0  0
   35.3581   43.2119   40.8533 C   0  0  0  0  0  0  0  0  0  0  0  0
   47.7807   45.4345   46.9953 N   0  0  0  0  0  0  0  0  0  0  0  0
   47.5606   43.0212   44.6329 N   0  0  0  0  0  0  0  0  0  0  0  0
   39.4084   43.9015   39.2750 N   0  0  0  0  0  0  0  0  0  0  0  0
   36.6787   43.1334   40.7884 N   0  0  0  0  0  0  0  0  0  0  0  0
  1 17  2  0  0  0  0
  1 16  1  0  0  0  0
  2  3  2  0  0  0  0
  2 26  1  0  0  0  0
  3  4  1  0  0  0  0
  4  5  2  0  0  0  0
  5  6  1  0  0  0  0
  6  7  1  0  0  0  0
  6 26  2  0  0  0  0
  7 27  2  0  0  0  0
  8  9  2  0  0  0  0
  8 13  1  0  0  0  0
  8 27  1  0  0  0  0
  9 10  1  0  0  0  0
 10 11  2  0  0  0  0
 11 12  1  0  0  0  0
 11 14  1  0  0  0  0
 12 13  2  0  0  0  0
 14 15  1  0  0  0  0
 15 16  2  0  0  0  0
 15 19  1  0  0  0  0
 17 18  1  0  0  0  0
 17 28  1  0  0  0  0
 18 19  2  0  0  0  0
 20 21  1  0  0  0  0
 20 28  2  0  0  0  0
 21 22  2  0  0  0  0
 21 29  1  0  0  0  0
 22 23  1  0  0  0  0
 23 24  2  0  0  0  0
 24 25  1  0  0  0  0
 25 29  2  0  0  0  0
M  END
>  <CHROM.1>
-45.41976404,-112.44853225,70.27124005,-71.29442987,92.51751706,-87.25771163
43.27464378,43.64488378,42.33672746,-2.62651082,-0.18698742,1.25740929

>  <Name>
ligand

>  <RI>
0

>  <Rbt.Current_Directory>
/home/itssahil/PROJECTS/Mol_Feturizer/New_Systems/rnas/4JIY

>  <Rbt.Executable>
rbdock ($Id: //depot/dev/client3/rdock/2013.1/src/exe/rbdock.cxx#4 $)

>  <Rbt.Library>
libRbt.so (2013.1, Build901 2013/11/27)

>  <Rbt.Parameter_File>
/export/apps/rDock/src/rDock_2013.1_src/data/scripts/dock_solv.prm

>  <Rbt.Receptor>
prm/pocket_docking_5.prm

>  <SCORE>
-0.744779

>  <SCORE.INTER>
0.202991

>  <SCORE.INTER.CONST>
1

>  <SCORE.INTER.POLAR>
0

>  <SCORE.INTER.ROT>
6

>  <SCORE.INTER.SOLV>
1.28629

>  <SCORE.INTER.VDW>
-7.89343

>  <SCORE.INTER.norm>
0.0069997

>  <SCORE.INTRA>
-0.950644

>  <SCORE.INTRA.DIHEDRAL>
0.260717

>  <SCORE.INTRA.DIHEDRAL.0>
7.2424

>  <SCORE.INTRA.POLAR>
0

>  <SCORE.INTRA.POLAR.0>
0

>  <SCORE.INTRA.REPUL>
0

>  <SCORE.INTRA.REPUL.0>
0

>  <SCORE.INTRA.SOLV>
-0.0191939

>  <SCORE.INTRA.SOLV.lig_0>
-3.36201

>  <SCORE.INTRA.VDW>
-1.07141

>  <SCORE.INTRA.VDW.0>
-0.910526

>  <SCORE.INTRA.norm>
-0.0327808

>  <SCORE.RESTR>
0.00287422

>  <SCORE.RESTR.CAVITY>
0.00287422

>  <SCORE.RESTR.norm>
9.9111e-05

>  <SCORE.SYSTEM>
0

>  <SCORE.SYSTEM.CONST>
0

>  <SCORE.SYSTEM.DIHEDRAL>
0

>  <SCORE.SYSTEM.SOLV>
0

>  <SCORE.SYSTEM.norm>
0

>  <SCORE.heavy>
29

>  <SCORE.norm>
-0.025682

>  <RMSD>
5.233

$$$$
ligand
 OpenBabel11021811503D
libRbt.so/2013.1/901 2013/11/27
 29 32  0  0  0  0  0  0  0  0999 V2000
   45.8675   42.1748   43.1093 C   0  0  0  0  0  0  0  0  0  0  0  0
   34.0435   44.5308   41.7232 C   0  0  0  0  0  0  0  0  0  0  0  0
   33.1084   43.7208   41.0651 C   0  0  0  0  0  0  0  0  0  0  0  0
   33.3729   42.4180   40.8226 C   0  0  0  0  0  0  0  0  0  0  0  0
   34.6185   41.9198   41.1802 C   0  0  0  0  0  0  0  0  0  0  0  0
   35.4891   42.7186   41.8731 C   0  0  0  0  0  0  0  0  0  0  0  0
   36.7789   42.3021   42.4191 C   0  0  0  0  0  0  0  0  0  0  0  0
   38.9834   41.6490   42.0657 C   0  0  0  0  0  0  0  0  0  0  0  0
   39.2553   40.3032   41.9180 C   0  0  0  0  0  0  0  0  0  0  0  0
   40.4257   39.7859   42.4763 C   0  0  0  0  0  0  0  0  0  0  0  0
   41.3602   40.5871   43.0791 C   0  0  0  0  0  0  0  0  0  0  0  0
   41.0544   41.9595   43.2045 C   0  0  0  0  0  0  0  0  0  0  0  0
   39.8454   42.4782   42.7547 C   0  0  0  0  0  0  0  0  0  0  0  0
   42.7043   40.0418   43.5567 C   0  0  0  0  0  0  0  0  0  0  0  0
   43.8988   40.7470   42.9292 C   0  0  0  0  0  0  0  0  0  0  0  0
   44.7724   41.5207   43.6498 C   0  0  0  0  0  0  0  0  0  0  0  0
   46.0855   42.0104   41.7676 C   0  0  0  0  0  0  0  0  0  0  0  0
   45.2241   41.2538   41.0520 C   0  0  0  0  0  0  0  0  0  0  0  0
   44.1271   40.6178   41.5879 C   0  0  0  0  0  0  0  0  0  0  0  0
   47.8028   43.5727   41.7709 C   0  0  0  0  0  0  0  0  0  0  0  0
   48.8681   44.2897   41.1027 C   0  0  0  0  0  0  0  0  0  0  0  0
   48.7280   45.0281   39.9206 C   0  0  0  0  0  0  0  0  0  0  0  0
   49.8496   45.6421   39.4018 C   0  0  0  0  0  0  0  0  0  0  0  0
   51.0444   45.5239   40.0943 C   0  0  0  0  0  0  0  0  0  0  0  0
   51.1403   44.7556   41.2343 C   0  0  0  0  0  0  0  0  0  0  0  0
   35.2235   44.0275   42.1228 N   0  0  0  0  0  0  0  0  0  0  0  0
   37.7340   42.1799   41.5380 N   0  0  0  0  0  0  0  0  0  0  0  0
   47.2180   42.6506   41.0904 N   0  0  0  0  0  0  0  0  0  0  0  0
   50.0655   44.1811   41.7531 N   0  0  0  0  0  0  0  0  0  0  0  0
  1 17  2  0  0  0  0
  1 16  1  0  0  0  0
  2  3  2  0  0  0  0
  2 26  1  0  0  0  0
  3  4  1  0  0  0  0
  4  5  2  0  0  0  0
  5  6  1  0  0  0  0
  6  7  1  0  0  0  0
  6 26  2  0  0  0  0
  7 27  2  0  0  0  0
  8  9  2  0  0  0  0
  8 13  1  0  0  0  0
  8 27  1  0  0  0  0
  9 10  1  0  0  0  0
 10 11  2  0  0  0  0
 11 12  1  0  0  0  0
 11 14  1  0  0  0  0
 12 13  2  0  0  0  0
 14 15  1  0  0  0  0
 15 16  2  0  0  0  0
 15 19  1  0  0  0  0
 17 18  1  0  0  0  0
 17 28  1  0  0  0  0
 18 19  2  0  0  0  0
 20 21  1  0  0  0  0
 20 28  2  0  0  0  0
 21 22  2  0  0  0  0
 21 29  1  0  0  0  0
 22 23  1  0  0  0  0
 23 24  2  0  0  0  0
 24 25  1  0  0  0  0
 25 29  2  0  0  0  0
M  END
>  <CHROM.1>
76.13726175,122.16855615,113.55221164,59.51992442,97.59767110,-13.76539584
42.37428887,42.57520926,41.80971867,-0.11043827,0.00214703,2.66568622

>  <Name>
ligand

>  <RI>
0

>  <Rbt.Current_Directory>
/home/itssahil/PROJECTS/Mol_Feturizer/New_Systems/rnas/4JIY

>  <Rbt.Executable>
rbdock ($Id: //depot/dev/client3/rdock/2013.1/src/exe/rbdock.cxx#4 $)

>  <Rbt.Library>
libRbt.so (2013.1, Build901 2013/11/27)

>  <Rbt.Parameter_File>
/export/apps/rDock/src/rDock_2013.1_src/data/scripts/dock_solv.prm

>  <Rbt.Receptor>
prm/pocket_docking_6.prm

>  <SCORE>
-5.70229

>  <SCORE.INTER>
-5.75482

>  <SCORE.INTER.CONST>
1

>  <SCORE.INTER.POLAR>
0

>  <SCORE.INTER.ROT>
6

>  <SCORE.INTER.SOLV>
2.00933

>  <SCORE.INTER.VDW>
-12.1063

>  <SCORE.INTER.norm>
-0.198442

>  <SCORE.INTRA>
0.0525328

>  <SCORE.INTRA.DIHEDRAL>
0.161449

>  <SCORE.INTRA.DIHEDRAL.0>
7.2424

>  <SCORE.INTRA.POLAR>
0

>  <SCORE.INTRA.POLAR.0>
0

>  <SCORE.INTRA.REPUL>
0

>  <SCORE.INTRA.REPUL.0>
0

>  <SCORE.INTRA.SOLV>
-0.016493

>  <SCORE.INTRA.SOLV.lig_0>
-3.36201

>  <SCORE.INTRA.VDW>
-0.0199452

>  <SCORE.INTRA.VDW.0>
-0.910526

>  <SCORE.INTRA.norm>
0.00181147

>  <SCORE.RESTR>
0

>  <SCORE.RESTR.CAVITY>
0

>  <SCORE.RESTR.norm>
0

>  <SCORE.SYSTEM>
0

>  <SCORE.SYSTEM.CONST>
0

>  <SCORE.SYSTEM.DIHEDRAL>
0

>  <SCORE.SYSTEM.SOLV>
0

>  <SCORE.SYSTEM.norm>
0

>  <SCORE.heavy>
29

>  <SCORE.norm>
-0.196631

>  <RMSD>
5.273

$$$$
ligand
 OpenBabel11021811503D
libRbt.so/2013.1/901 2013/11/27
 29 32  0  0  0  0  0  0  0  0999 V2000
   45.0747   41.7022   42.8242 C   0  0  0  0  0  0  0  0  0  0  0  0
   33.1750   41.9109   41.0457 C   0  0  0  0  0  0  0  0  0  0  0  0
   32.4471   42.7440   41.9059 C   0  0  0  0  0  0  0  0  0  0  0  0
   32.9035   43.0229   43.1469 C   0  0  0  0  0  0  0  0  0  0  0  0
   34.0748   42.4109   43.5723 C   0  0  0  0  0  0  0  0  0  0  0  0
   34.7941   41.6483   42.6906 C   0  0  0  0  0  0  0  0  0  0  0  0
   36.0976   41.0422   42.9529 C   0  0  0  0  0  0  0  0  0  0  0  0
   38.4048   41.0541   42.6563 C   0  0  0  0  0  0  0  0  0  0  0  0
   38.8695   40.2461   41.6375 C   0  0  0  0  0  0  0  0  0  0  0  0
   40.0747   39.5639   41.8135 C   0  0  0  0  0  0  0  0  0  0  0  0
   40.8594   39.7472   42.9221 C   0  0  0  0  0  0  0  0  0  0  0  0
   40.3585   40.5874   43.9399 C   0  0  0  0  0  0  0  0  0  0  0  0
   39.1100   41.1902   43.8352 C   0  0  0  0  0  0  0  0  0  0  0  0
   42.2440   39.1149   43.0453 C   0  0  0  0  0  0  0  0  0  0  0  0
   43.3605   39.9974   42.5045 C   0  0  0  0  0  0  0  0  0  0  0  0
   44.0546   40.8860   43.2852 C   0  0  0  0  0  0  0  0  0  0  0  0
   45.4094   41.5859   41.5016 C   0  0  0  0  0  0  0  0  0  0  0  0
   44.7243   40.7161   40.7267 C   0  0  0  0  0  0  0  0  0  0  0  0
   43.7001   39.9174   41.1830 C   0  0  0  0  0  0  0  0  0  0  0  0
   47.2416   42.9892   41.7553 C   0  0  0  0  0  0  0  0  0  0  0  0
   48.2524   43.8688   41.2077 C   0  0  0  0  0  0  0  0  0  0  0  0
   48.3535   44.2450   39.8621 C   0  0  0  0  0  0  0  0  0  0  0  0
   49.3889   45.0815   39.4980 C   0  0  0  0  0  0  0  0  0  0  0  0
   50.2507   45.5308   40.4860 C   0  0  0  0  0  0  0  0  0  0  0  0
   50.1321   45.1031   41.7907 C   0  0  0  0  0  0  0  0  0  0  0  0
   34.3401   41.3705   41.4405 N   0  0  0  0  0  0  0  0  0  0  0  0
   37.1181   41.7186   42.5008 N   0  0  0  0  0  0  0  0  0  0  0  0
   46.4781   42.3954   40.9068 N   0  0  0  0  0  0  0  0  0  0  0  0
   49.1289   44.3188   42.1551 N   0  0  0  0  0  0  0  0  0  0  0  0
  1 17  2  0  0  0  0
  1 16  1  0  0  0  0
  2  3  2  0  0  0  0
  2 26  1  0  0  0  0
  3  4  1  0  0  0  0
  4  5  2  0  0  0  0
  5  6  1  0  0  0  0
  6  7  1  0  0  0  0
  6 26  2  0  0  0  0
  7 27  2  0  0  0  0
  8  9  2  0  0  0  0
  8 13  1  0  0  0  0
  8 27  1  0  0  0  0
  9 10  1  0  0  0  0
 10 11  2  0  0  0  0
 11 12  1  0  0  0  0
 11 14  1  0  0  0  0
 12 13  2  0  0  0  0
 14 15  1  0  0  0  0
 15 16  2  0  0  0  0
 15 19  1  0  0  0  0
 17 18  1  0  0  0  0
 17 28  1  0  0  0  0
 18 19  2  0  0  0  0
 20 21  1  0  0  0  0
 20 28  2  0  0  0  0
 21 22  2  0  0  0  0
 21 29  1  0  0  0  0
 22 23  1  0  0  0  0
 23 24  2  0  0  0  0
 24 25  1  0  0  0  0
 25 29  2  0  0  0  0
M  END
>  <CHROM.1>
-97.76650843,90.03407508,91.54577533,8.30339485,90.92486282,14.03758993,41.74171359
41.91758327,42.02872767,-0.17186173,-0.04903301,2.83291707

>  <Name>
ligand

>  <RI>
0

>  <Rbt.Current_Directory>
/home/itssahil/PROJECTS/Mol_Feturizer/New_Systems/rnas/4JIY

>  <Rbt.Executable>
rbdock ($Id: //depot/dev/client3/rdock/2013.1/src/exe/rbdock.cxx#4 $)

>  <Rbt.Library>
libRbt.so (2013.1, Build901 2013/11/27)

>  <Rbt.Parameter_File>
/export/apps/rDock/src/rDock_2013.1_src/data/scripts/dock_solv.prm

>  <Rbt.Receptor>
prm/pocket_docking_6.prm

>  <SCORE>
-5.29153

>  <SCORE.INTER>
-5.67058

>  <SCORE.INTER.CONST>
1

>  <SCORE.INTER.POLAR>
0

>  <SCORE.INTER.ROT>
6

>  <SCORE.INTER.SOLV>
2.28123

>  <SCORE.INTER.VDW>
-12.1408

>  <SCORE.INTER.norm>
-0.195537

>  <SCORE.INTRA>
0.379051

>  <SCORE.INTRA.DIHEDRAL>
0.757858

>  <SCORE.INTRA.DIHEDRAL.0>
7.2424

>  <SCORE.INTRA.POLAR>
0

>  <SCORE.INTRA.POLAR.0>
0

>  <SCORE.INTRA.REPUL>
0

>  <SCORE.INTRA.REPUL.0>
0

>  <SCORE.INTRA.SOLV>
-0.0151947

>  <SCORE.INTRA.SOLV.lig_0>
-3.36201

>  <SCORE.INTRA.VDW>
0.00771981

>  <SCORE.INTRA.VDW.0>
-0.910526

>  <SCORE.INTRA.norm>
0.0130707

>  <SCORE.RESTR>
0

>  <SCORE.RESTR.CAVITY>
0

>  <SCORE.RESTR.norm>
0

>  <SCORE.SYSTEM>
0

>  <SCORE.SYSTEM.CONST>
0

>  <SCORE.SYSTEM.DIHEDRAL>
0

>  <SCORE.SYSTEM.SOLV>
0

>  <SCORE.SYSTEM.norm>
0

>  <SCORE.heavy>
29

>  <SCORE.norm>
-0.182467

>  <RMSD>
5.341

$$$$
ligand
 OpenBabel11021811503D
libRbt.so/2013.1/901 2013/11/27
 29 32  0  0  0  0  0  0  0  0999 V2000
   47.9652   43.4942   40.6967 C   0  0  0  0  0  0  0  0  0  0  0  0
   36.5313   39.7995   46.0278 C   0  0  0  0  0  0  0  0  0  0  0  0
   36.1442   40.9093   46.7906 C   0  0  0  0  0  0  0  0  0  0  0  0
   36.8523   42.0594   46.7451 C   0  0  0  0  0  0  0  0  0  0  0  0
   38.0090   42.0923   45.9780 C   0  0  0  0  0  0  0  0  0  0  0  0
   38.3304   41.0127   45.1987 C   0  0  0  0  0  0  0  0  0  0  0  0
   39.4424   40.9438   44.2531 C   0  0  0  0  0  0  0  0  0  0  0  0
   41.7331   40.9998   43.8521 C   0  0  0  0  0  0  0  0  0  0  0  0
   42.2813   39.8181   43.3938 C   0  0  0  0  0  0  0  0  0  0  0  0
   43.3784   39.8726   42.5323 C   0  0  0  0  0  0  0  0  0  0  0  0
   43.8659   41.0588   42.0490 C   0  0  0  0  0  0  0  0  0  0  0  0
   43.2759   42.2473   42.5308 C   0  0  0  0  0  0  0  0  0  0  0  0
   42.2550   42.2206   43.4742 C   0  0  0  0  0  0  0  0  0  0  0  0
   44.9688   41.1090   40.9939 C   0  0  0  0  0  0  0  0  0  0  0  0
   46.0990   42.0657   41.3476 C   0  0  0  0  0  0  0  0  0  0  0  0
   46.9290   42.6212   40.4077 C   0  0  0  0  0  0  0  0  0  0  0  0
   48.1447   43.8264   42.0128 C   0  0  0  0  0  0  0  0  0  0  0  0
   47.3332   43.2770   42.9435 C   0  0  0  0  0  0  0  0  0  0  0  0
   46.3143   42.3970   42.6561 C   0  0  0  0  0  0  0  0  0  0  0  0
   50.2529   44.1777   42.9194 C   0  0  0  0  0  0  0  0  0  0  0  0
   51.2859   45.0548   43.4285 C   0  0  0  0  0  0  0  0  0  0  0  0
   51.0846   46.0919   44.3484 C   0  0  0  0  0  0  0  0  0  0  0  0
   52.1760   46.8493   44.7220 C   0  0  0  0  0  0  0  0  0  0  0  0
   53.4154   46.5225   44.1948 C   0  0  0  0  0  0  0  0  0  0  0  0
   53.5569   45.5158   43.2643 C   0  0  0  0  0  0  0  0  0  0  0  0
   37.6172   39.8569   45.2385 N   0  0  0  0  0  0  0  0  0  0  0  0
   40.6278   40.9460   44.7992 N   0  0  0  0  0  0  0  0  0  0  0  0
   49.2062   44.7468   42.4337 N   0  0  0  0  0  0  0  0  0  0  0  0
   52.5204   44.7683   42.9162 N   0  0  0  0  0  0  0  0  0  0  0  0
  1 17  2  0  0  0  0
  1 16  1  0  0  0  0
  2  3  2  0  0  0  0
  2 26  1  0  0  0  0
  3  4  1  0  0  0  0
  4  5  2  0  0  0  0
  5  6  1  0  0  0  0
  6  7  1  0  0  0  0
  6 26  2  0  0  0  0
  7 27  2  0  0  0  0
  8  9  2  0  0  0  0
  8 13  1  0  0  0  0
  8 27  1  0  0  0  0
  9 10  1  0  0  0  0
 10 11  2  0  0  0  0
 11 12  1  0  0  0  0
 11 14  1  0  0  0  0
 12 13  2  0  0  0  0
 14 15  1  0  0  0  0
 15 16  2  0  0  0  0
 15 19  1  0  0  0  0
 17 18  1  0  0  0  0
 17 28  1  0  0  0  0
 18 19  2  0  0  0  0
 20 21  1  0  0  0  0
 20 28  2  0  0  0  0
 21 22  2  0  0  0  0
 21 29  1  0  0  0  0
 22 23  1  0  0  0  0
 23 24  2  0  0  0  0
 24 25  1  0  0  0  0
 25 29  2  0  0  0  0
M  END
>  <CHROM.1>
68.36160117,-131.51139838,-156.85694392,51.68506830,-91.27448791,-100.63333861
44.88537666,42.62280940,43.51576847,-0.04154730,-0.35655267,-2.15049409

>  <Name>
ligand

>  <RI>
0

>  <Rbt.Current_Directory>
/home/itssahil/PROJECTS/Mol_Feturizer/New_Systems/rnas/4JIY

>  <Rbt.Executable>
rbdock ($Id: //depot/dev/client3/rdock/2013.1/src/exe/rbdock.cxx#4 $)

>  <Rbt.Library>
libRbt.so (2013.1, Build901 2013/11/27)

>  <Rbt.Parameter_File>
/export/apps/rDock/src/rDock_2013.1_src/data/scripts/dock_solv.prm

>  <Rbt.Receptor>
prm/pocket_docking_6.prm

>  <SCORE>
-5.14407

>  <SCORE.INTER>
-4.50076

>  <SCORE.INTER.CONST>
1

>  <SCORE.INTER.POLAR>
0

>  <SCORE.INTER.ROT>
6

>  <SCORE.INTER.SOLV>
1.68538

>  <SCORE.INTER.VDW>
-11.1623

>  <SCORE.INTER.norm>
-0.155199

>  <SCORE.INTRA>
-0.643315

>  <SCORE.INTRA.DIHEDRAL>
-0.0575446

>  <SCORE.INTRA.DIHEDRAL.0>
7.2424

>  <SCORE.INTRA.POLAR>
0

>  <SCORE.INTRA.POLAR.0>
0

>  <SCORE.INTRA.REPUL>
0

>  <SCORE.INTRA.REPUL.0>
0

>  <SCORE.INTRA.SOLV>
-0.0200339

>  <SCORE.INTRA.SOLV.lig_0>
-3.36201

>  <SCORE.INTRA.VDW>
-0.604525

>  <SCORE.INTRA.VDW.0>
-0.910526

>  <SCORE.INTRA.norm>
-0.0221833

>  <SCORE.RESTR>
0

>  <SCORE.RESTR.CAVITY>
0

>  <SCORE.RESTR.norm>
0

>  <SCORE.SYSTEM>
0

>  <SCORE.SYSTEM.CONST>
0

>  <SCORE.SYSTEM.DIHEDRAL>
0

>  <SCORE.SYSTEM.SOLV>
0

>  <SCORE.SYSTEM.norm>
0

>  <SCORE.heavy>
29

>  <SCORE.norm>
-0.177382

>  <RMSD>
5.372

$$$$
ligand
 OpenBabel11021811503D
libRbt.so/2013.1/901 2013/11/27
 29 32  0  0  0  0  0  0  0  0999 V2000
   40.8857   37.2955   40.0614 C   0  0  0  0  0  0  0  0  0  0  0  0
   49.9924   44.6781   42.0395 C   0  0  0  0  0  0  0  0  0  0  0  0
   50.4753   45.1443   40.8094 C   0  0  0  0  0  0  0  0  0  0  0  0
   49.7832   44.9277   39.6691 C   0  0  0  0  0  0  0  0  0  0  0  0
   48.6188   44.1749   39.7366 C   0  0  0  0  0  0  0  0  0  0  0  0
   48.1414   43.7821   40.9590 C   0  0  0  0  0  0  0  0  0  0  0  0
   46.8754   43.0929   41.1992 C   0  0  0  0  0  0  0  0  0  0  0  0
   45.5571   41.7511   42.5676 C   0  0  0  0  0  0  0  0  0  0  0  0
   45.0517   41.0288   41.5046 C   0  0  0  0  0  0  0  0  0  0  0  0
   43.8595   40.3225   41.6747 C   0  0  0  0  0  0  0  0  0  0  0  0
   43.2282   40.2422   42.8885 C   0  0  0  0  0  0  0  0  0  0  0  0
   43.7772   40.9850   43.9559 C   0  0  0  0  0  0  0  0  0  0  0  0
   44.9014   41.7843   43.7819 C   0  0  0  0  0  0  0  0  0  0  0  0
   42.0077   39.3505   43.1067 C   0  0  0  0  0  0  0  0  0  0  0  0
   41.3235   38.9367   41.8112 C   0  0  0  0  0  0  0  0  0  0  0  0
   41.4933   37.7024   41.2381 C   0  0  0  0  0  0  0  0  0  0  0  0
   40.0490   38.1939   39.4551 C   0  0  0  0  0  0  0  0  0  0  0  0
   39.8830   39.4137   40.0126 C   0  0  0  0  0  0  0  0  0  0  0  0
   40.5004   39.8220   41.1734 C   0  0  0  0  0  0  0  0  0  0  0  0
   38.1423   37.4450   38.3625 C   0  0  0  0  0  0  0  0  0  0  0  0
   37.4475   37.0286   37.1628 C   0  0  0  0  0  0  0  0  0  0  0  0
   37.5206   35.7534   36.5878 C   0  0  0  0  0  0  0  0  0  0  0  0
   36.8067   35.5214   35.4299 C   0  0  0  0  0  0  0  0  0  0  0  0
   36.0306   36.5492   34.9181 C   0  0  0  0  0  0  0  0  0  0  0  0
   36.0200   37.7986   35.4996 C   0  0  0  0  0  0  0  0  0  0  0  0
   48.8325   44.0031   42.1077 N   0  0  0  0  0  0  0  0  0  0  0  0
   46.7673   42.5384   42.3757 N   0  0  0  0  0  0  0  0  0  0  0  0
   39.3475   37.8684   38.2089 N   0  0  0  0  0  0  0  0  0  0  0  0
   36.6832   38.0254   36.6234 N   0  0  0  0  0  0  0  0  0  0  0  0
  1 17  2  0  0  0  0
  1 16  1  0  0  0  0
  2  3  2  0  0  0  0
  2 26  1  0  0  0  0
  3  4  1  0  0  0  0
  4  5  2  0  0  0  0
  5  6  1  0  0  0  0
  6  7  1  0  0  0  0
  6 26  2  0  0  0  0
  7 27  2  0  0  0  0
  8  9  2  0  0  0  0
  8 13  1  0  0  0  0
  8 27  1  0  0  0  0
  9 10  1  0  0  0  0
 10 11  2  0  0  0  0
 11 12  1  0  0  0  0
 11 14  1  0  0  0  0
 12 13  2  0  0  0  0
 14 15  1  0  0  0  0
 15 16  2  0  0  0  0
 15 19  1  0  0  0  0
 17 18  1  0  0  0  0
 17 28  1  0  0  0  0
 18 19  2  0  0  0  0
 20 21  1  0  0  0  0
 20 28  2  0  0  0  0
 21 22  2  0  0  0  0
 21 29  1  0  0  0  0
 22 23  1  0  0  0  0
 23 24  2  0  0  0  0
 24 25  1  0  0  0  0
 25 29  2  0  0  0  0
M  END
>  <CHROM.1>
164.45168590,-18.18748686,101.30884766,85.66675499,35.86244467,96.24693397
42.75641149,40.18336474,40.17639513,2.87425120,-0.59092842,-1.42769864

>  <Name>
ligand

>  <RI>
0

>  <Rbt.Current_Directory>
/home/itssahil/PROJECTS/Mol_Feturizer/New_Systems/rnas/4JIY

>  <Rbt.Executable>
rbdock ($Id: //depot/dev/client3/rdock/2013.1/src/exe/rbdock.cxx#4 $)

>  <Rbt.Library>
libRbt.so (2013.1, Build901 2013/11/27)

>  <Rbt.Parameter_File>
/export/apps/rDock/src/rDock_2013.1_src/data/scripts/dock_solv.prm

>  <Rbt.Receptor>
prm/pocket_docking_6.prm

>  <SCORE>
-6.25137

>  <SCORE.INTER>
-6.59484

>  <SCORE.INTER.CONST>
1

>  <SCORE.INTER.POLAR>
0

>  <SCORE.INTER.ROT>
6

>  <SCORE.INTER.SOLV>
2.34488

>  <SCORE.INTER.VDW>
-12.7782

>  <SCORE.INTER.norm>
-0.227408

>  <SCORE.INTRA>
0.343463

>  <SCORE.INTRA.DIHEDRAL>
0.0916487

>  <SCORE.INTRA.DIHEDRAL.0>
7.2424

>  <SCORE.INTRA.POLAR>
0

>  <SCORE.INTRA.POLAR.0>
0

>  <SCORE.INTRA.REPUL>
0

>  <SCORE.INTRA.REPUL.0>
0

>  <SCORE.INTRA.SOLV>
-0.00680108

>  <SCORE.INTRA.SOLV.lig_0>
-3.36201

>  <SCORE.INTRA.VDW>
0.301039

>  <SCORE.INTRA.VDW.0>
-0.910526

>  <SCORE.INTRA.norm>
0.0118436

>  <SCORE.RESTR>
0

>  <SCORE.RESTR.CAVITY>
0

>  <SCORE.RESTR.norm>
0

>  <SCORE.SYSTEM>
0

>  <SCORE.SYSTEM.CONST>
0

>  <SCORE.SYSTEM.DIHEDRAL>
0

>  <SCORE.SYSTEM.SOLV>
0

>  <SCORE.SYSTEM.norm>
0

>  <SCORE.heavy>
29

>  <SCORE.norm>
-0.215565

>  <RMSD>
5.383

$$$$
ligand
 OpenBabel11021811503D
libRbt.so/2013.1/901 2013/11/27
 29 32  0  0  0  0  0  0  0  0999 V2000
   40.5099   40.0929   39.7817 C   0  0  0  0  0  0  0  0  0  0  0  0
   51.1224   45.2740   40.3531 C   0  0  0  0  0  0  0  0  0  0  0  0
   51.1609   46.3728   39.4844 C   0  0  0  0  0  0  0  0  0  0  0  0
   50.0293   46.8415   38.9134 C   0  0  0  0  0  0  0  0  0  0  0  0
   48.8401   46.1670   39.1546 C   0  0  0  0  0  0  0  0  0  0  0  0
   48.8233   45.1328   40.0525 C   0  0  0  0  0  0  0  0  0  0  0  0
   47.6347   44.4089   40.4980 C   0  0  0  0  0  0  0  0  0  0  0  0
   46.6966   42.5483   41.5322 C   0  0  0  0  0  0  0  0  0  0  0  0
   46.0004   41.9146   40.5219 C   0  0  0  0  0  0  0  0  0  0  0  0
   44.8362   41.2135   40.8415 C   0  0  0  0  0  0  0  0  0  0  0  0
   44.4171   41.0508   42.1362 C   0  0  0  0  0  0  0  0  0  0  0  0
   45.1577   41.7040   43.1449 C   0  0  0  0  0  0  0  0  0  0  0  0
   46.2566   42.4990   42.8397 C   0  0  0  0  0  0  0  0  0  0  0  0
   43.2284   40.1616   42.4948 C   0  0  0  0  0  0  0  0  0  0  0  0
   42.3972   39.7499   41.2876 C   0  0  0  0  0  0  0  0  0  0  0  0
   41.2868   40.4410   40.8747 C   0  0  0  0  0  0  0  0  0  0  0  0
   40.9043   38.9928   39.0683 C   0  0  0  0  0  0  0  0  0  0  0  0
   41.9942   38.3048   39.4747 C   0  0  0  0  0  0  0  0  0  0  0  0
   42.7556   38.6429   40.5706 C   0  0  0  0  0  0  0  0  0  0  0  0
   39.1127   37.8370   38.1492 C   0  0  0  0  0  0  0  0  0  0  0  0
   38.4023   37.2929   37.0113 C   0  0  0  0  0  0  0  0  0  0  0  0
   38.7779   36.1487   36.2957 C   0  0  0  0  0  0  0  0  0  0  0  0
   37.9987   35.7698   35.2217 C   0  0  0  0  0  0  0  0  0  0  0  0
   36.8701   36.5196   34.9303 C   0  0  0  0  0  0  0  0  0  0  0  0
   36.5621   37.6592   35.6415 C   0  0  0  0  0  0  0  0  0  0  0  0
   49.9588   44.6628   40.6322 N   0  0  0  0  0  0  0  0  0  0  0  0
   47.8770   43.3316   41.1938 N   0  0  0  0  0  0  0  0  0  0  0  0
   40.1609   38.5363   37.8892 N   0  0  0  0  0  0  0  0  0  0  0  0
   37.2902   38.0188   36.6879 N   0  0  0  0  0  0  0  0  0  0  0  0
  1 17  2  0  0  0  0
  1 16  1  0  0  0  0
  2  3  2  0  0  0  0
  2 26  1  0  0  0  0
  3  4  1  0  0  0  0
  4  5  2  0  0  0  0
  5  6  1  0  0  0  0
  6  7  1  0  0  0  0
  6 26  2  0  0  0  0
  7 27  2  0  0  0  0
  8  9  2  0  0  0  0
  8 13  1  0  0  0  0
  8 27  1  0  0  0  0
  9 10  1  0  0  0  0
 10 11  2  0  0  0  0
 11 12  1  0  0  0  0
 11 14  1  0  0  0  0
 12 13  2  0  0  0  0
 14 15  1  0  0  0  0
 15 16  2  0  0  0  0
 15 19  1  0  0  0  0
 17 18  1  0  0  0  0
 17 28  1  0  0  0  0
 18 19  2  0  0  0  0
 20 21  1  0  0  0  0
 20 28  2  0  0  0  0
 21 22  2  0  0  0  0
 21 29  1  0  0  0  0
 22 23  1  0  0  0  0
 23 24  2  0  0  0  0
 24 25  1  0  0  0  0
 25 29  2  0  0  0  0
M  END
>  <CHROM.1>
169.80593989,-12.87512447,-93.74665780,79.38587011,67.23339509,-80.87664823
43.69032015,40.94204131,39.54617983,2.99285717,-0.64384270,-1.37089288

>  <Name>
ligand

>  <RI>
0

>  <Rbt.Current_Directory>
/home/itssahil/PROJECTS/Mol_Feturizer/New_Systems/rnas/4JIY

>  <Rbt.Executable>
rbdock ($Id: //depot/dev/client3/rdock/2013.1/src/exe/rbdock.cxx#4 $)

>  <Rbt.Library>
libRbt.so (2013.1, Build901 2013/11/27)

>  <Rbt.Parameter_File>
/export/apps/rDock/src/rDock_2013.1_src/data/scripts/dock_solv.prm

>  <Rbt.Receptor>
prm/pocket_docking_6.prm

>  <SCORE>
-5.20258

>  <SCORE.INTER>
-4.97446

>  <SCORE.INTER.CONST>
1

>  <SCORE.INTER.POLAR>
0

>  <SCORE.INTER.ROT>
6

>  <SCORE.INTER.SOLV>
1.87351

>  <SCORE.INTER.VDW>
-11.5408

>  <SCORE.INTER.norm>
-0.171533

>  <SCORE.INTRA>
-0.255091

>  <SCORE.INTRA.DIHEDRAL>
0.13368

>  <SCORE.INTRA.DIHEDRAL.0>
7.2424

>  <SCORE.INTRA.POLAR>
0

>  <SCORE.INTRA.POLAR.0>
0

>  <SCORE.INTRA.REPUL>
0

>  <SCORE.INTRA.REPUL.0>
0

>  <SCORE.INTRA.SOLV>
-0.00813335

>  <SCORE.INTRA.SOLV.lig_0>
-3.36201

>  <SCORE.INTRA.VDW>
-0.317864

>  <SCORE.INTRA.VDW.0>
-0.910526

>  <SCORE.INTRA.norm>
-0.00879625

>  <SCORE.RESTR>
0.0269721

>  <SCORE.RESTR.CAVITY>
0.0269721

>  <SCORE.RESTR.norm>
0.000930072

>  <SCORE.SYSTEM>
0

>  <SCORE.SYSTEM.CONST>
0

>  <SCORE.SYSTEM.DIHEDRAL>
0

>  <SCORE.SYSTEM.SOLV>
0

>  <SCORE.SYSTEM.norm>
0

>  <SCORE.heavy>
29

>  <SCORE.norm>
-0.179399

>  <RMSD>
5.385

$$$$
ligand
 OpenBabel11021811503D
libRbt.so/2013.1/901 2013/11/27
 29 32  0  0  0  0  0  0  0  0999 V2000
   47.9250   43.9156   43.6101 C   0  0  0  0  0  0  0  0  0  0  0  0
   37.4687   44.4058   36.7074 C   0  0  0  0  0  0  0  0  0  0  0  0
   36.4032   44.7634   37.5443 C   0  0  0  0  0  0  0  0  0  0  0  0
   36.4766   44.5642   38.8789 C   0  0  0  0  0  0  0  0  0  0  0  0
   37.6034   43.9357   39.3914 C   0  0  0  0  0  0  0  0  0  0  0  0
   38.6523   43.6504   38.5580 C   0  0  0  0  0  0  0  0  0  0  0  0
   39.9437   43.1034   38.9684 C   0  0  0  0  0  0  0  0  0  0  0  0
   42.0066   43.4051   40.0002 C   0  0  0  0  0  0  0  0  0  0  0  0
   43.0593   43.7595   39.1798 C   0  0  0  0  0  0  0  0  0  0  0  0
   44.3251   43.2313   39.4400 C   0  0  0  0  0  0  0  0  0  0  0  0
   44.5768   42.4528   40.5395 C   0  0  0  0  0  0  0  0  0  0  0  0
   43.4797   42.1177   41.3622 C   0  0  0  0  0  0  0  0  0  0  0  0
   42.1901   42.5409   41.0610 C   0  0  0  0  0  0  0  0  0  0  0  0
   45.9893   41.9990   40.9018 C   0  0  0  0  0  0  0  0  0  0  0  0
   46.4600   42.5143   42.2548 C   0  0  0  0  0  0  0  0  0  0  0  0
   47.4738   43.4274   42.3947 C   0  0  0  0  0  0  0  0  0  0  0  0
   47.2913   43.4575   44.7340 C   0  0  0  0  0  0  0  0  0  0  0  0
   46.2959   42.5530   44.6019 C   0  0  0  0  0  0  0  0  0  0  0  0
   45.8596   42.0567   43.3942 C   0  0  0  0  0  0  0  0  0  0  0  0
   47.1453   45.0199   46.4450 C   0  0  0  0  0  0  0  0  0  0  0  0
   47.5739   45.5463   47.7236 C   0  0  0  0  0  0  0  0  0  0  0  0
   47.2761   44.9822   48.9707 C   0  0  0  0  0  0  0  0  0  0  0  0
   47.7489   45.6181   50.1005 C   0  0  0  0  0  0  0  0  0  0  0  0
   48.5197   46.7587   49.9398 C   0  0  0  0  0  0  0  0  0  0  0  0
   48.7549   47.2963   48.6929 C   0  0  0  0  0  0  0  0  0  0  0  0
   38.5833   43.8544   37.2165 N   0  0  0  0  0  0  0  0  0  0  0  0
   40.6731   43.9053   39.6953 N   0  0  0  0  0  0  0  0  0  0  0  0
   47.6813   43.9110   46.0732 N   0  0  0  0  0  0  0  0  0  0  0  0
   48.3253   46.6816   47.6011 N   0  0  0  0  0  0  0  0  0  0  0  0
  1 17  2  0  0  0  0
  1 16  1  0  0  0  0
  2  3  2  0  0  0  0
  2 26  1  0  0  0  0
  3  4  1  0  0  0  0
  4  5  2  0  0  0  0
  5  6  1  0  0  0  0
  6  7  1  0  0  0  0
  6 26  2  0  0  0  0
  7 27  2  0  0  0  0
  8  9  2  0  0  0  0
  8 13  1  0  0  0  0
  8 27  1  0  0  0  0
  9 10  1  0  0  0  0
 10 11  2  0  0  0  0
 11 12  1  0  0  0  0
 11 14  1  0  0  0  0
 12 13  2  0  0  0  0
 14 15  1  0  0  0  0
 15 16  2  0  0  0  0
 15 19  1  0  0  0  0
 17 18  1  0  0  0  0
 17 28  1  0  0  0  0
 18 19  2  0  0  0  0
 20 21  1  0  0  0  0
 20 28  2  0  0  0  0
 21 22  2  0  0  0  0
 21 29  1  0  0  0  0
 22 23  1  0  0  0  0
 23 24  2  0  0  0  0
 24 25  1  0  0  0  0
 25 29  2  0  0  0  0
M  END
>  <CHROM.1>
-67.29171064,118.17353187,-112.46467212,-69.32792506,93.62810051,84.22526801
43.99658218,43.98309232,42.61150757,-0.72195785,0.36594493,-2.11382473

>  <Name>
ligand

>  <RI>
0

>  <Rbt.Current_Directory>
/home/itssahil/PROJECTS/Mol_Feturizer/New_Systems/rnas/4JIY

>  <Rbt.Executable>
rbdock ($Id: //depot/dev/client3/rdock/2013.1/src/exe/rbdock.cxx#4 $)

>  <Rbt.Library>
libRbt.so (2013.1, Build901 2013/11/27)

>  <Rbt.Parameter_File>
/export/apps/rDock/src/rDock_2013.1_src/data/scripts/dock_solv.prm

>  <Rbt.Receptor>
prm/pocket_docking_5.prm

>  <SCORE>
-0.833645

>  <SCORE.INTER>
0.209309

>  <SCORE.INTER.CONST>
1

>  <SCORE.INTER.POLAR>
0

>  <SCORE.INTER.ROT>
6

>  <SCORE.INTER.SOLV>
0.948366

>  <SCORE.INTER.VDW>
-7.77658

>  <SCORE.INTER.norm>
0.00721754

>  <SCORE.INTRA>
-1.04344

>  <SCORE.INTRA.DIHEDRAL>
0.0994306

>  <SCORE.INTRA.DIHEDRAL.0>
7.2424

>  <SCORE.INTRA.POLAR>
0

>  <SCORE.INTRA.POLAR.0>
0

>  <SCORE.INTRA.REPUL>
0

>  <SCORE.INTRA.REPUL.0>
0

>  <SCORE.INTRA.SOLV>
-0.0192508

>  <SCORE.INTRA.SOLV.lig_0>
-3.36201

>  <SCORE.INTRA.VDW>
-1.08353

>  <SCORE.INTRA.VDW.0>
-0.910526

>  <SCORE.INTRA.norm>
-0.0359805

>  <SCORE.RESTR>
0.000481674

>  <SCORE.RESTR.CAVITY>
0.000481674

>  <SCORE.RESTR.norm>
1.66095e-05

>  <SCORE.SYSTEM>
0

>  <SCORE.SYSTEM.CONST>
0

>  <SCORE.SYSTEM.DIHEDRAL>
0

>  <SCORE.SYSTEM.SOLV>
0

>  <SCORE.SYSTEM.norm>
0

>  <SCORE.heavy>
29

>  <SCORE.norm>
-0.0287464

>  <RMSD>
5.435

$$$$
ligand
 OpenBabel11021811503D
libRbt.so/2013.1/901 2013/11/27
 29 32  0  0  0  0  0  0  0  0999 V2000
   47.0706   46.2297   41.7342 C   0  0  0  0  0  0  0  0  0  0  0  0
   39.3830   40.5170   46.2056 C   0  0  0  0  0  0  0  0  0  0  0  0
   38.9067   39.1993   46.1818 C   0  0  0  0  0  0  0  0  0  0  0  0
   39.3512   38.3211   45.2559 C   0  0  0  0  0  0  0  0  0  0  0  0
   40.2383   38.7740   44.2889 C   0  0  0  0  0  0  0  0  0  0  0  0
   40.7302   40.0498   44.3717 C   0  0  0  0  0  0  0  0  0  0  0  0
   41.7544   40.6272   43.5040 C   0  0  0  0  0  0  0  0  0  0  0  0
   43.9600   40.6671   42.7658 C   0  0  0  0  0  0  0  0  0  0  0  0
   44.0439   40.4231   41.4093 C   0  0  0  0  0  0  0  0  0  0  0  0
   45.0880   40.9991   40.6833 C   0  0  0  0  0  0  0  0  0  0  0  0
   45.9728   41.8770   41.2531 C   0  0  0  0  0  0  0  0  0  0  0  0
   45.8523   42.1112   42.6400 C   0  0  0  0  0  0  0  0  0  0  0  0
   44.8892   41.4631   43.4050 C   0  0  0  0  0  0  0  0  0  0  0  0
   47.0212   42.6182   40.4262 C   0  0  0  0  0  0  0  0  0  0  0  0
   47.4822   43.9212   41.0645 C   0  0  0  0  0  0  0  0  0  0  0  0
   46.6815   45.0305   41.1598 C   0  0  0  0  0  0  0  0  0  0  0  0
   48.3370   46.2848   42.2519 C   0  0  0  0  0  0  0  0  0  0  0  0
   49.1321   45.1963   42.1551 C   0  0  0  0  0  0  0  0  0  0  0  0
   48.7492   44.0107   41.5695 C   0  0  0  0  0  0  0  0  0  0  0  0
   49.4718   48.3044   42.0976 C   0  0  0  0  0  0  0  0  0  0  0  0
   50.0730   49.4724   42.7055 C   0  0  0  0  0  0  0  0  0  0  0  0
   51.2053   49.4621   43.5302 C   0  0  0  0  0  0  0  0  0  0  0  0
   51.6445   50.6647   44.0450 C   0  0  0  0  0  0  0  0  0  0  0  0
   50.9643   51.8195   43.6921 C   0  0  0  0  0  0  0  0  0  0  0  0
   49.8328   51.7743   42.9066 C   0  0  0  0  0  0  0  0  0  0  0  0
   40.2890   40.9333   45.3048 N   0  0  0  0  0  0  0  0  0  0  0  0
   42.9084   40.0186   43.5372 N   0  0  0  0  0  0  0  0  0  0  0  0
   48.8528   47.5010   42.8892 N   0  0  0  0  0  0  0  0  0  0  0  0
   49.4162   50.6286   42.3888 N   0  0  0  0  0  0  0  0  0  0  0  0
  1 17  2  0  0  0  0
  1 16  1  0  0  0  0
  2  3  2  0  0  0  0
  2 26  1  0  0  0  0
  3  4  1  0  0  0  0
  4  5  2  0  0  0  0
  5  6  1  0  0  0  0
  6  7  1  0  0  0  0
  6 26  2  0  0  0  0
  7 27  2  0  0  0  0
  8  9  2  0  0  0  0
  8 13  1  0  0  0  0
  8 27  1  0  0  0  0
  9 10  1  0  0  0  0
 10 11  2  0  0  0  0
 11 12  1  0  0  0  0
 11 14  1  0  0  0  0
 12 13  2  0  0  0  0
 14 15  1  0  0  0  0
 15 16  2  0  0  0  0
 15 19  1  0  0  0  0
 17 18  1  0  0  0  0
 17 28  1  0  0  0  0
 18 19  2  0  0  0  0
 20 21  1  0  0  0  0
 20 28  2  0  0  0  0
 21 22  2  0  0  0  0
 21 29  1  0  0  0  0
 22 23  1  0  0  0  0
 23 24  2  0  0  0  0
 24 25  1  0  0  0  0
 25 29  2  0  0  0  0
M  END
>  <CHROM.1>
-60.67986946,155.40333777,-70.14005129,71.25975789,-83.39870074,-91.33356512
45.83290715,44.10859761,42.94365690,-0.57322156,-0.63172191,-2.56041100

>  <Name>
ligand

>  <RI>
0

>  <Rbt.Current_Directory>
/home/itssahil/PROJECTS/Mol_Feturizer/New_Systems/rnas/4JIY

>  <Rbt.Executable>
rbdock ($Id: //depot/dev/client3/rdock/2013.1/src/exe/rbdock.cxx#4 $)

>  <Rbt.Library>
libRbt.so (2013.1, Build901 2013/11/27)

>  <Rbt.Parameter_File>
/export/apps/rDock/src/rDock_2013.1_src/data/scripts/dock_solv.prm

>  <Rbt.Receptor>
prm/pocket_docking_6.prm

>  <SCORE>
-4.72405

>  <SCORE.INTER>
-3.81676

>  <SCORE.INTER.CONST>
1

>  <SCORE.INTER.POLAR>
0

>  <SCORE.INTER.ROT>
6

>  <SCORE.INTER.SOLV>
1.62695

>  <SCORE.INTER.VDW>
-10.6868

>  <SCORE.INTER.norm>
-0.131612

>  <SCORE.INTRA>
-0.907294

>  <SCORE.INTRA.DIHEDRAL>
0.143595

>  <SCORE.INTRA.DIHEDRAL.0>
7.2424

>  <SCORE.INTRA.POLAR>
0

>  <SCORE.INTRA.POLAR.0>
0

>  <SCORE.INTRA.REPUL>
0

>  <SCORE.INTRA.REPUL.0>
0

>  <SCORE.INTRA.SOLV>
-0.0201265

>  <SCORE.INTRA.SOLV.lig_0>
-3.36201

>  <SCORE.INTRA.VDW>
-0.969028

>  <SCORE.INTRA.VDW.0>
-0.910526

>  <SCORE.INTRA.norm>
-0.031286

>  <SCORE.RESTR>
0

>  <SCORE.RESTR.CAVITY>
0

>  <SCORE.RESTR.norm>
0

>  <SCORE.SYSTEM>
0

>  <SCORE.SYSTEM.CONST>
0

>  <SCORE.SYSTEM.DIHEDRAL>
0

>  <SCORE.SYSTEM.SOLV>
0

>  <SCORE.SYSTEM.norm>
0

>  <SCORE.heavy>
29

>  <SCORE.norm>
-0.162898

>  <RMSD>
5.439

$$$$
ligand
 OpenBabel11021811503D
libRbt.so/2013.1/901 2013/11/27
 29 32  0  0  0  0  0  0  0  0999 V2000
   48.4404   46.8764   41.5780 C   0  0  0  0  0  0  0  0  0  0  0  0
   41.0986   37.4707   44.1222 C   0  0  0  0  0  0  0  0  0  0  0  0
   39.7786   37.7984   43.7846 C   0  0  0  0  0  0  0  0  0  0  0  0
   39.5172   38.7799   42.8933 C   0  0  0  0  0  0  0  0  0  0  0  0
   40.5840   39.4997   42.3725 C   0  0  0  0  0  0  0  0  0  0  0  0
   41.8644   39.1194   42.6760 C   0  0  0  0  0  0  0  0  0  0  0  0
   43.0824   39.6993   42.1142 C   0  0  0  0  0  0  0  0  0  0  0  0
   44.5618   41.4883   41.9658 C   0  0  0  0  0  0  0  0  0  0  0  0
   44.5538   41.6470   40.5941 C   0  0  0  0  0  0  0  0  0  0  0  0
   45.6759   42.1972   39.9719 C   0  0  0  0  0  0  0  0  0  0  0  0
   46.7430   42.6754   40.6866 C   0  0  0  0  0  0  0  0  0  0  0  0
   46.7140   42.5057   42.0877 C   0  0  0  0  0  0  0  0  0  0  0  0
   45.6567   41.8608   42.7194 C   0  0  0  0  0  0  0  0  0  0  0  0
   47.9017   43.4091   40.0147 C   0  0  0  0  0  0  0  0  0  0  0  0
   48.4634   44.5474   40.8553 C   0  0  0  0  0  0  0  0  0  0  0  0
   47.9526   45.8198   40.8263 C   0  0  0  0  0  0  0  0  0  0  0  0
   49.4915   46.6073   42.4131 C   0  0  0  0  0  0  0  0  0  0  0  0
   50.0025   45.3565   42.4408 C   0  0  0  0  0  0  0  0  0  0  0  0
   49.5268   44.3117   41.6810 C   0  0  0  0  0  0  0  0  0  0  0  0
   49.4244   47.9117   44.3326 C   0  0  0  0  0  0  0  0  0  0  0  0
   49.9288   48.9948   45.1498 C   0  0  0  0  0  0  0  0  0  0  0  0
   51.1578   48.9956   45.8220 C   0  0  0  0  0  0  0  0  0  0  0  0
   51.4851   50.1045   46.5753 C   0  0  0  0  0  0  0  0  0  0  0  0
   50.5982   51.1692   46.5989 C   0  0  0  0  0  0  0  0  0  0  0  0
   49.3839   51.1065   45.9503 C   0  0  0  0  0  0  0  0  0  0  0  0
   42.1302   38.1295   43.5678 N   0  0  0  0  0  0  0  0  0  0  0  0
   43.4182   40.8584   42.6114 N   0  0  0  0  0  0  0  0  0  0  0  0
   50.0841   47.6479   43.2600 N   0  0  0  0  0  0  0  0  0  0  0  0
   49.0699   50.0567   45.2062 N   0  0  0  0  0  0  0  0  0  0  0  0
  1 17  2  0  0  0  0
  1 16  1  0  0  0  0
  2  3  2  0  0  0  0
  2 26  1  0  0  0  0
  3  4  1  0  0  0  0
  4  5  2  0  0  0  0
  5  6  1  0  0  0  0
  6  7  1  0  0  0  0
  6 26  2  0  0  0  0
  7 27  2  0  0  0  0
  8  9  2  0  0  0  0
  8 13  1  0  0  0  0
  8 27  1  0  0  0  0
  9 10  1  0  0  0  0
 10 11  2  0  0  0  0
 11 12  1  0  0  0  0
 11 14  1  0  0  0  0
 12 13  2  0  0  0  0
 14 15  1  0  0  0  0
 15 16  2  0  0  0  0
 15 19  1  0  0  0  0
 17 18  1  0  0  0  0
 17 28  1  0  0  0  0
 18 19  2  0  0  0  0
 20 21  1  0  0  0  0
 20 28  2  0  0  0  0
 21 22  2  0  0  0  0
 21 29  1  0  0  0  0
 22 23  1  0  0  0  0
 23 24  2  0  0  0  0
 24 25  1  0  0  0  0
 25 29  2  0  0  0  0
M  END
>  <CHROM.1>
76.88305542,143.52469941,-86.77260661,-65.20401635,52.80030600,79.20385426
46.49226633,44.02092973,42.92827114,-0.60887445,-0.68820061,-2.19934530

>  <Name>
ligand

>  <RI>
0

>  <Rbt.Current_Directory>
/home/itssahil/PROJECTS/Mol_Feturizer/New_Systems/rnas/4JIY

>  <Rbt.Executable>
rbdock ($Id: //depot/dev/client3/rdock/2013.1/src/exe/rbdock.cxx#4 $)

>  <Rbt.Library>
libRbt.so (2013.1, Build901 2013/11/27)

>  <Rbt.Parameter_File>
/export/apps/rDock/src/rDock_2013.1_src/data/scripts/dock_solv.prm

>  <Rbt.Receptor>
prm/pocket_docking_6.prm

>  <SCORE>
-5.13562

>  <SCORE.INTER>
-4.56387

>  <SCORE.INTER.CONST>
1

>  <SCORE.INTER.POLAR>
0

>  <SCORE.INTER.ROT>
6

>  <SCORE.INTER.SOLV>
2.02621

>  <SCORE.INTER.VDW>
-11.318

>  <SCORE.INTER.norm>
-0.157375

>  <SCORE.INTRA>
-0.583234

>  <SCORE.INTRA.DIHEDRAL>
0.216962

>  <SCORE.INTRA.DIHEDRAL.0>
7.2424

>  <SCORE.INTRA.POLAR>
0

>  <SCORE.INTRA.POLAR.0>
0

>  <SCORE.INTRA.REPUL>
0

>  <SCORE.INTRA.REPUL.0>
0

>  <SCORE.INTRA.SOLV>
-0.0184521

>  <SCORE.INTRA.SOLV.lig_0>
-3.36201

>  <SCORE.INTRA.VDW>
-0.682489

>  <SCORE.INTRA.VDW.0>
-0.910526

>  <SCORE.INTRA.norm>
-0.0201115

>  <SCORE.RESTR>
0.0114874

>  <SCORE.RESTR.CAVITY>
0.0114874

>  <SCORE.RESTR.norm>
0.000396116

>  <SCORE.SYSTEM>
0

>  <SCORE.SYSTEM.CONST>
0

>  <SCORE.SYSTEM.DIHEDRAL>
0

>  <SCORE.SYSTEM.SOLV>
0

>  <SCORE.SYSTEM.norm>
0

>  <SCORE.heavy>
29

>  <SCORE.norm>
-0.17709

>  <RMSD>
5.511

$$$$
ligand
 OpenBabel11021811503D
libRbt.so/2013.1/901 2013/11/27
 29 32  0  0  0  0  0  0  0  0999 V2000
   45.6619   46.9359   40.4097 C   0  0  0  0  0  0  0  0  0  0  0  0
   39.5639   38.9309   43.9834 C   0  0  0  0  0  0  0  0  0  0  0  0
   39.8390   37.6410   44.4568 C   0  0  0  0  0  0  0  0  0  0  0  0
   41.0986   37.1521   44.4369 C   0  0  0  0  0  0  0  0  0  0  0  0
   42.1002   37.9317   43.8744 C   0  0  0  0  0  0  0  0  0  0  0  0
   41.8129   39.2094   43.4730 C   0  0  0  0  0  0  0  0  0  0  0  0
   42.7804   40.1856   42.9765 C   0  0  0  0  0  0  0  0  0  0  0  0
   44.3757   40.7951   41.3970 C   0  0  0  0  0  0  0  0  0  0  0  0
   44.4889   41.0984   40.0546 C   0  0  0  0  0  0  0  0  0  0  0  0
   45.5325   41.9255   39.6353 C   0  0  0  0  0  0  0  0  0  0  0  0
   46.3873   42.5252   40.5230 C   0  0  0  0  0  0  0  0  0  0  0  0
   46.2372   42.2006   41.8886 C   0  0  0  0  0  0  0  0  0  0  0  0
   45.2755   41.2930   42.3179 C   0  0  0  0  0  0  0  0  0  0  0  0
   47.4331   43.5438   40.0750 C   0  0  0  0  0  0  0  0  0  0  0  0
   47.1031   44.9704   40.4916 C   0  0  0  0  0  0  0  0  0  0  0  0
   45.9902   45.6391   40.0497 C   0  0  0  0  0  0  0  0  0  0  0  0
   46.5082   47.5688   41.2802 C   0  0  0  0  0  0  0  0  0  0  0  0
   47.6095   46.9165   41.7139 C   0  0  0  0  0  0  0  0  0  0  0  0
   47.9427   45.6335   41.3422 C   0  0  0  0  0  0  0  0  0  0  0  0
   45.6387   49.0313   42.8599 C   0  0  0  0  0  0  0  0  0  0  0  0
   45.2921   50.3664   43.2989 C   0  0  0  0  0  0  0  0  0  0  0  0
   46.2041   51.4060   43.5222 C   0  0  0  0  0  0  0  0  0  0  0  0
   45.7113   52.6198   43.9561 C   0  0  0  0  0  0  0  0  0  0  0  0
   44.3412   52.7553   44.1144 C   0  0  0  0  0  0  0  0  0  0  0  0
   43.4872   51.6917   43.9174 C   0  0  0  0  0  0  0  0  0  0  0  0
   40.5482   39.7054   43.4968 N   0  0  0  0  0  0  0  0  0  0  0  0
   43.3255   39.8834   41.8298 N   0  0  0  0  0  0  0  0  0  0  0  0
   46.2561   48.9403   41.7347 N   0  0  0  0  0  0  0  0  0  0  0  0
   43.9470   50.5295   43.4791 N   0  0  0  0  0  0  0  0  0  0  0  0
  1 17  2  0  0  0  0
  1 16  1  0  0  0  0
  2  3  2  0  0  0  0
  2 26  1  0  0  0  0
  3  4  1  0  0  0  0
  4  5  2  0  0  0  0
  5  6  1  0  0  0  0
  6  7  1  0  0  0  0
  6 26  2  0  0  0  0
  7 27  2  0  0  0  0
  8  9  2  0  0  0  0
  8 13  1  0  0  0  0
  8 27  1  0  0  0  0
  9 10  1  0  0  0  0
 10 11  2  0  0  0  0
 11 12  1  0  0  0  0
 11 14  1  0  0  0  0
 12 13  2  0  0  0  0
 14 15  1  0  0  0  0
 15 16  2  0  0  0  0
 15 19  1  0  0  0  0
 17 18  1  0  0  0  0
 17 28  1  0  0  0  0
 18 19  2  0  0  0  0
 20 21  1  0  0  0  0
 20 28  2  0  0  0  0
 21 22  2  0  0  0  0
 21 29  1  0  0  0  0
 22 23  1  0  0  0  0
 23 24  2  0  0  0  0
 24 25  1  0  0  0  0
 25 29  2  0  0  0  0
M  END
>  <CHROM.1>
66.68631257,108.13088185,-62.81294599,-58.93115335,-143.05233239,95.38577338
44.55945125,44.45198473,42.29473202,-1.19322872,-0.63530308,-2.92701259

>  <Name>
ligand

>  <RI>
0

>  <Rbt.Current_Directory>
/home/itssahil/PROJECTS/Mol_Feturizer/New_Systems/rnas/4JIY

>  <Rbt.Executable>
rbdock ($Id: //depot/dev/client3/rdock/2013.1/src/exe/rbdock.cxx#4 $)

>  <Rbt.Library>
libRbt.so (2013.1, Build901 2013/11/27)

>  <Rbt.Parameter_File>
/export/apps/rDock/src/rDock_2013.1_src/data/scripts/dock_solv.prm

>  <Rbt.Receptor>
prm/pocket_docking_6.prm

>  <SCORE>
-4.09619

>  <SCORE.INTER>
-3.6182

>  <SCORE.INTER.CONST>
1

>  <SCORE.INTER.POLAR>
0

>  <SCORE.INTER.ROT>
6

>  <SCORE.INTER.SOLV>
2.14314

>  <SCORE.INTER.VDW>
-10.7265

>  <SCORE.INTER.norm>
-0.124765

>  <SCORE.INTRA>
-0.482301

>  <SCORE.INTRA.DIHEDRAL>
-0.00171576

>  <SCORE.INTRA.DIHEDRAL.0>
7.2424

>  <SCORE.INTRA.POLAR>
0

>  <SCORE.INTRA.POLAR.0>
0

>  <SCORE.INTRA.REPUL>
0

>  <SCORE.INTRA.REPUL.0>
0

>  <SCORE.INTRA.SOLV>
-0.0185222

>  <SCORE.INTRA.SOLV.lig_0>
-3.36201

>  <SCORE.INTRA.VDW>
-0.472182

>  <SCORE.INTRA.VDW.0>
-0.910526

>  <SCORE.INTRA.norm>
-0.0166311

>  <SCORE.RESTR>
0.00431016

>  <SCORE.RESTR.CAVITY>
0.00431016

>  <SCORE.RESTR.norm>
0.000148626

>  <SCORE.SYSTEM>
0

>  <SCORE.SYSTEM.CONST>
0

>  <SCORE.SYSTEM.DIHEDRAL>
0

>  <SCORE.SYSTEM.SOLV>
0

>  <SCORE.SYSTEM.norm>
0

>  <SCORE.heavy>
29

>  <SCORE.norm>
-0.141248

>  <RMSD>
5.538

$$$$
ligand
 OpenBabel11021811503D
libRbt.so/2013.1/901 2013/11/27
 29 32  0  0  0  0  0  0  0  0999 V2000
   45.4186   42.2658   39.8008 C   0  0  0  0  0  0  0  0  0  0  0  0
   36.7992   37.6323   42.8424 C   0  0  0  0  0  0  0  0  0  0  0  0
   35.9410   36.6159   42.4019 C   0  0  0  0  0  0  0  0  0  0  0  0
   36.1314   36.0230   41.2025 C   0  0  0  0  0  0  0  0  0  0  0  0
   37.1551   36.4913   40.3900 C   0  0  0  0  0  0  0  0  0  0  0  0
   38.0126   37.4453   40.8704 C   0  0  0  0  0  0  0  0  0  0  0  0
   39.2007   37.9479   40.1840 C   0  0  0  0  0  0  0  0  0  0  0  0
   41.3466   37.5748   39.3673 C   0  0  0  0  0  0  0  0  0  0  0  0
   42.4261   37.8084   40.1962 C   0  0  0  0  0  0  0  0  0  0  0  0
   43.5847   38.3674   39.6539 C   0  0  0  0  0  0  0  0  0  0  0  0
   43.7207   38.5993   38.3100 C   0  0  0  0  0  0  0  0  0  0  0  0
   42.6010   38.3402   37.4903 C   0  0  0  0  0  0  0  0  0  0  0  0
   41.3995   37.8878   38.0238 C   0  0  0  0  0  0  0  0  0  0  0  0
   45.0392   39.0716   37.7011 C   0  0  0  0  0  0  0  0  0  0  0  0
   45.6469   40.2631   38.4282 C   0  0  0  0  0  0  0  0  0  0  0  0
   44.8966   41.1723   39.1292 C   0  0  0  0  0  0  0  0  0  0  0  0
   46.7784   42.4213   39.7656 C   0  0  0  0  0  0  0  0  0  0  0  0
   47.5217   41.5316   39.0712 C   0  0  0  0  0  0  0  0  0  0  0  0
   46.9997   40.4546   38.3908 C   0  0  0  0  0  0  0  0  0  0  0  0
   47.5573   43.4021   41.7206 C   0  0  0  0  0  0  0  0  0  0  0  0
   48.1245   44.5228   42.4400 C   0  0  0  0  0  0  0  0  0  0  0  0
   47.4891   45.7533   42.6504 C   0  0  0  0  0  0  0  0  0  0  0  0
   48.1753   46.7278   43.3459 C   0  0  0  0  0  0  0  0  0  0  0  0
   49.4395   46.4261   43.8273 C   0  0  0  0  0  0  0  0  0  0  0  0
   50.0376   45.2130   43.5629 C   0  0  0  0  0  0  0  0  0  0  0  0
   37.8266   38.0394   42.0781 N   0  0  0  0  0  0  0  0  0  0  0  0
   40.1153   37.0492   39.9410 N   0  0  0  0  0  0  0  0  0  0  0  0
   47.4405   43.5390   40.4466 N   0  0  0  0  0  0  0  0  0  0  0  0
   49.3792   44.2629   42.9163 N   0  0  0  0  0  0  0  0  0  0  0  0
  1 17  2  0  0  0  0
  1 16  1  0  0  0  0
  2  3  2  0  0  0  0
  2 26  1  0  0  0  0
  3  4  1  0  0  0  0
  4  5  2  0  0  0  0
  5  6  1  0  0  0  0
  6  7  1  0  0  0  0
  6 26  2  0  0  0  0
  7 27  2  0  0  0  0
  8  9  2  0  0  0  0
  8 13  1  0  0  0  0
  8 27  1  0  0  0  0
  9 10  1  0  0  0  0
 10 11  2  0  0  0  0
 11 12  1  0  0  0  0
 11 14  1  0  0  0  0
 12 13  2  0  0  0  0
 14 15  1  0  0  0  0
 15 16  2  0  0  0  0
 15 19  1  0  0  0  0
 17 18  1  0  0  0  0
 17 28  1  0  0  0  0
 18 19  2  0  0  0  0
 20 21  1  0  0  0  0
 20 28  2  0  0  0  0
 21 22  2  0  0  0  0
 21 29  1  0  0  0  0
 22 23  1  0  0  0  0
 23 24  2  0  0  0  0
 24 25  1  0  0  0  0
 25 29  2  0  0  0  0
M  END
>  <CHROM.1>
-61.49142748,-49.51212354,-26.87669518,70.59653018,98.46680883,77.55037721
43.66896399,40.44290310,40.56056263,-0.44941526,-0.46978353,-2.21541132

>  <Name>
ligand

>  <RI>
0

>  <Rbt.Current_Directory>
/home/itssahil/PROJECTS/Mol_Feturizer/New_Systems/rnas/4JIY

>  <Rbt.Executable>
rbdock ($Id: //depot/dev/client3/rdock/2013.1/src/exe/rbdock.cxx#4 $)

>  <Rbt.Library>
libRbt.so (2013.1, Build901 2013/11/27)

>  <Rbt.Parameter_File>
/export/apps/rDock/src/rDock_2013.1_src/data/scripts/dock_solv.prm

>  <Rbt.Receptor>
prm/pocket_docking_8.prm

>  <SCORE>
-9.28027

>  <SCORE.INTER>
-8.44564

>  <SCORE.INTER.CONST>
1

>  <SCORE.INTER.POLAR>
0

>  <SCORE.INTER.ROT>
6

>  <SCORE.INTER.SOLV>
2.16197

>  <SCORE.INTER.VDW>
-13.9511

>  <SCORE.INTER.norm>
-0.291229

>  <SCORE.INTRA>
-0.834633

>  <SCORE.INTRA.DIHEDRAL>
0.00532535

>  <SCORE.INTRA.DIHEDRAL.0>
7.2424

>  <SCORE.INTRA.POLAR>
0

>  <SCORE.INTRA.POLAR.0>
0

>  <SCORE.INTRA.REPUL>
0

>  <SCORE.INTRA.REPUL.0>
0

>  <SCORE.INTRA.SOLV>
-0.0194656

>  <SCORE.INTRA.SOLV.lig_0>
-3.36201

>  <SCORE.INTRA.VDW>
-0.827563

>  <SCORE.INTRA.VDW.0>
-0.910526

>  <SCORE.INTRA.norm>
-0.0287805

>  <SCORE.RESTR>
0

>  <SCORE.RESTR.CAVITY>
0

>  <SCORE.RESTR.norm>
0

>  <SCORE.SYSTEM>
0

>  <SCORE.SYSTEM.CONST>
0

>  <SCORE.SYSTEM.DIHEDRAL>
0

>  <SCORE.SYSTEM.SOLV>
0

>  <SCORE.SYSTEM.norm>
0

>  <SCORE.heavy>
29

>  <SCORE.norm>
-0.320009

>  <RMSD>
5.551

$$$$
ligand
 OpenBabel11021811503D
libRbt.so/2013.1/901 2013/11/27
 29 32  0  0  0  0  0  0  0  0999 V2000
   44.0655   39.8958   40.6583 C   0  0  0  0  0  0  0  0  0  0  0  0
   54.1372   47.6732   43.0106 C   0  0  0  0  0  0  0  0  0  0  0  0
   54.7465   47.1749   44.1700 C   0  0  0  0  0  0  0  0  0  0  0  0
   54.1290   46.2423   44.9283 C   0  0  0  0  0  0  0  0  0  0  0  0
   52.8498   45.8405   44.5684 C   0  0  0  0  0  0  0  0  0  0  0  0
   52.3036   46.3011   43.3997 C   0  0  0  0  0  0  0  0  0  0  0  0
   51.0256   45.8790   42.8307 C   0  0  0  0  0  0  0  0  0  0  0  0
   49.7165   44.2130   41.8706 C   0  0  0  0  0  0  0  0  0  0  0  0
   48.5819   43.9781   42.6220 C   0  0  0  0  0  0  0  0  0  0  0  0
   47.4231   43.5431   41.9763 C   0  0  0  0  0  0  0  0  0  0  0  0
   47.3463   43.4372   40.6121 C   0  0  0  0  0  0  0  0  0  0  0  0
   48.5219   43.6941   39.8741 C   0  0  0  0  0  0  0  0  0  0  0  0
   49.7176   44.0212   40.5036 C   0  0  0  0  0  0  0  0  0  0  0  0
   46.0369   43.1043   39.9001 C   0  0  0  0  0  0  0  0  0  0  0  0
   45.2095   42.0492   40.6211 C   0  0  0  0  0  0  0  0  0  0  0  0
   44.8177   40.8751   40.0302 C   0  0  0  0  0  0  0  0  0  0  0  0
   43.7154   40.1263   41.9617 C   0  0  0  0  0  0  0  0  0  0  0  0
   44.0938   41.2844   42.5466 C   0  0  0  0  0  0  0  0  0  0  0  0
   44.8275   42.2636   41.9157 C   0  0  0  0  0  0  0  0  0  0  0  0
   41.7250   38.9797   42.2991 C   0  0  0  0  0  0  0  0  0  0  0  0
   40.8852   38.0969   43.0807 C   0  0  0  0  0  0  0  0  0  0  0  0
   39.5113   38.2676   43.2942 C   0  0  0  0  0  0  0  0  0  0  0  0
   38.8565   37.3416   44.0803 C   0  0  0  0  0  0  0  0  0  0  0  0
   39.5840   36.2763   44.5870 C   0  0  0  0  0  0  0  0  0  0  0  0
   40.9424   36.1715   44.3794 C   0  0  0  0  0  0  0  0  0  0  0  0
   52.9246   47.2349   42.6327 N   0  0  0  0  0  0  0  0  0  0  0  0
   50.9440   44.6075   42.5481 N   0  0  0  0  0  0  0  0  0  0  0  0
   42.9256   39.1558   42.7269 N   0  0  0  0  0  0  0  0  0  0  0  0
   41.5762   37.0419   43.6080 N   0  0  0  0  0  0  0  0  0  0  0  0
  1 17  2  0  0  0  0
  1 16  1  0  0  0  0
  2  3  2  0  0  0  0
  2 26  1  0  0  0  0
  3  4  1  0  0  0  0
  4  5  2  0  0  0  0
  5  6  1  0  0  0  0
  6  7  1  0  0  0  0
  6 26  2  0  0  0  0
  7 27  2  0  0  0  0
  8  9  2  0  0  0  0
  8 13  1  0  0  0  0
  8 27  1  0  0  0  0
  9 10  1  0  0  0  0
 10 11  2  0  0  0  0
 11 12  1  0  0  0  0
 11 14  1  0  0  0  0
 12 13  2  0  0  0  0
 14 15  1  0  0  0  0
 15 16  2  0  0  0  0
 15 19  1  0  0  0  0
 17 18  1  0  0  0  0
 17 28  1  0  0  0  0
 18 19  2  0  0  0  0
 20 21  1  0  0  0  0
 20 28  2  0  0  0  0
 21 22  2  0  0  0  0
 21 29  1  0  0  0  0
 22 23  1  0  0  0  0
 23 24  2  0  0  0  0
 24 25  1  0  0  0  0
 25 29  2  0  0  0  0
M  END
>  <CHROM.1>
-60.44723931,-39.98168208,-122.74822704,143.90095554,-82.53226049,-65.53856349
46.66451181,42.23447630,42.45209505,2.94937526,0.59414788,1.89723006

>  <Name>
ligand

>  <RI>
0

>  <Rbt.Current_Directory>
/home/itssahil/PROJECTS/Mol_Feturizer/New_Systems/rnas/4JIY

>  <Rbt.Executable>
rbdock ($Id: //depot/dev/client3/rdock/2013.1/src/exe/rbdock.cxx#4 $)

>  <Rbt.Library>
libRbt.so (2013.1, Build901 2013/11/27)

>  <Rbt.Parameter_File>
/export/apps/rDock/src/rDock_2013.1_src/data/scripts/dock_solv.prm

>  <Rbt.Receptor>
prm/pocket_docking_6.prm

>  <SCORE>
-7.40749

>  <SCORE.INTER>
-7.12537

>  <SCORE.INTER.CONST>
1

>  <SCORE.INTER.POLAR>
0

>  <SCORE.INTER.ROT>
6

>  <SCORE.INTER.SOLV>
2.73568

>  <SCORE.INTER.VDW>
-13.2621

>  <SCORE.INTER.norm>
-0.245702

>  <SCORE.INTRA>
-0.282114

>  <SCORE.INTRA.DIHEDRAL>
0.172814

>  <SCORE.INTRA.DIHEDRAL.0>
7.2424

>  <SCORE.INTRA.POLAR>
0

>  <SCORE.INTRA.POLAR.0>
0

>  <SCORE.INTRA.REPUL>
0

>  <SCORE.INTRA.REPUL.0>
0

>  <SCORE.INTRA.SOLV>
-0.0151969

>  <SCORE.INTRA.SOLV.lig_0>
-3.36201

>  <SCORE.INTRA.VDW>
-0.360923

>  <SCORE.INTRA.VDW.0>
-0.910526

>  <SCORE.INTRA.norm>
-0.00972807

>  <SCORE.RESTR>
0

>  <SCORE.RESTR.CAVITY>
0

>  <SCORE.RESTR.norm>
0

>  <SCORE.SYSTEM>
0

>  <SCORE.SYSTEM.CONST>
0

>  <SCORE.SYSTEM.DIHEDRAL>
0

>  <SCORE.SYSTEM.SOLV>
0

>  <SCORE.SYSTEM.norm>
0

>  <SCORE.heavy>
29

>  <SCORE.norm>
-0.255431

>  <RMSD>
5.557

$$$$
ligand
 OpenBabel11021811503D
libRbt.so/2013.1/901 2013/11/27
 29 32  0  0  0  0  0  0  0  0999 V2000
   40.6515   39.1445   39.4855 C   0  0  0  0  0  0  0  0  0  0  0  0
   50.9984   44.9130   42.4244 C   0  0  0  0  0  0  0  0  0  0  0  0
   51.7224   45.9606   41.8396 C   0  0  0  0  0  0  0  0  0  0  0  0
   51.5436   46.2819   40.5392 C   0  0  0  0  0  0  0  0  0  0  0  0
   50.6768   45.5066   39.7810 C   0  0  0  0  0  0  0  0  0  0  0  0
   49.9403   44.5269   40.3927 C   0  0  0  0  0  0  0  0  0  0  0  0
   48.9064   43.7138   39.7561 C   0  0  0  0  0  0  0  0  0  0  0  0
   47.0242   42.3607   39.9505 C   0  0  0  0  0  0  0  0  0  0  0  0
   47.4790   41.4036   39.0650 C   0  0  0  0  0  0  0  0  0  0  0  0
   46.5512   40.5736   38.4332 C   0  0  0  0  0  0  0  0  0  0  0  0
   45.2153   40.6115   38.7373 C   0  0  0  0  0  0  0  0  0  0  0  0
   44.7862   41.5957   39.6537 C   0  0  0  0  0  0  0  0  0  0  0  0
   45.6766   42.5060   40.2119 C   0  0  0  0  0  0  0  0  0  0  0  0
   44.2254   39.6049   38.1550 C   0  0  0  0  0  0  0  0  0  0  0  0
   43.0498   39.3125   39.0769 C   0  0  0  0  0  0  0  0  0  0  0  0
   41.7426   39.4037   38.6721 C   0  0  0  0  0  0  0  0  0  0  0  0
   40.9175   38.7550   40.7709 C   0  0  0  0  0  0  0  0  0  0  0  0
   42.2038   38.6695   41.1765 C   0  0  0  0  0  0  0  0  0  0  0  0
   43.2864   38.9431   40.3714 C   0  0  0  0  0  0  0  0  0  0  0  0
   39.1778   39.4710   42.1314 C   0  0  0  0  0  0  0  0  0  0  0  0
   38.1652   39.2203   43.1350 C   0  0  0  0  0  0  0  0  0  0  0  0
   38.4174   38.8879   44.4722 C   0  0  0  0  0  0  0  0  0  0  0  0
   37.3367   38.6640   45.3005 C   0  0  0  0  0  0  0  0  0  0  0  0
   36.0628   38.8131   44.7753 C   0  0  0  0  0  0  0  0  0  0  0  0
   35.8654   39.1058   43.4431 C   0  0  0  0  0  0  0  0  0  0  0  0
   50.1143   44.2052   41.7012 N   0  0  0  0  0  0  0  0  0  0  0  0
   47.9835   43.2686   40.5645 N   0  0  0  0  0  0  0  0  0  0  0  0
   39.8403   38.4485   41.7180 N   0  0  0  0  0  0  0  0  0  0  0  0
   36.8952   39.3449   42.6451 N   0  0  0  0  0  0  0  0  0  0  0  0
  1 17  2  0  0  0  0
  1 16  1  0  0  0  0
  2  3  2  0  0  0  0
  2 26  1  0  0  0  0
  3  4  1  0  0  0  0
  4  5  2  0  0  0  0
  5  6  1  0  0  0  0
  6  7  1  0  0  0  0
  6 26  2  0  0  0  0
  7 27  2  0  0  0  0
  8  9  2  0  0  0  0
  8 13  1  0  0  0  0
  8 27  1  0  0  0  0
  9 10  1  0  0  0  0
 10 11  2  0  0  0  0
 11 12  1  0  0  0  0
 11 14  1  0  0  0  0
 12 13  2  0  0  0  0
 14 15  1  0  0  0  0
 15 16  2  0  0  0  0
 15 19  1  0  0  0  0
 17 18  1  0  0  0  0
 17 28  1  0  0  0  0
 18 19  2  0  0  0  0
 20 21  1  0  0  0  0
 20 28  2  0  0  0  0
 21 22  2  0  0  0  0
 21 29  1  0  0  0  0
 22 23  1  0  0  0  0
 23 24  2  0  0  0  0
 24 25  1  0  0  0  0
 25 29  2  0  0  0  0
M  END
>  <CHROM.1>
-152.82203149,149.61540367,127.68484376,71.53859944,41.38386985,-71.61935425
44.01022199,41.14308409,40.97763300,-3.08822692,0.46721331,1.06014817

>  <Name>
ligand

>  <RI>
0

>  <Rbt.Current_Directory>
/home/itssahil/PROJECTS/Mol_Feturizer/New_Systems/rnas/4JIY

>  <Rbt.Executable>
rbdock ($Id: //depot/dev/client3/rdock/2013.1/src/exe/rbdock.cxx#4 $)

>  <Rbt.Library>
libRbt.so (2013.1, Build901 2013/11/27)

>  <Rbt.Parameter_File>
/export/apps/rDock/src/rDock_2013.1_src/data/scripts/dock_solv.prm

>  <Rbt.Receptor>
prm/pocket_docking_8.prm

>  <SCORE>
-9.60359

>  <SCORE.INTER>
-9.9407

>  <SCORE.INTER.CONST>
1

>  <SCORE.INTER.POLAR>
0

>  <SCORE.INTER.ROT>
6

>  <SCORE.INTER.SOLV>
2.64265

>  <SCORE.INTER.VDW>
-15.108

>  <SCORE.INTER.norm>
-0.342783

>  <SCORE.INTRA>
0.337104

>  <SCORE.INTRA.DIHEDRAL>
0.366572

>  <SCORE.INTRA.DIHEDRAL.0>
7.2424

>  <SCORE.INTRA.POLAR>
0

>  <SCORE.INTRA.POLAR.0>
0

>  <SCORE.INTRA.REPUL>
0

>  <SCORE.INTRA.REPUL.0>
0

>  <SCORE.INTRA.SOLV>
-0.0091502

>  <SCORE.INTRA.SOLV.lig_0>
-3.36201

>  <SCORE.INTRA.VDW>
0.158393

>  <SCORE.INTRA.VDW.0>
-0.910526

>  <SCORE.INTRA.norm>
0.0116243

>  <SCORE.RESTR>
0

>  <SCORE.RESTR.CAVITY>
0

>  <SCORE.RESTR.norm>
0

>  <SCORE.SYSTEM>
0

>  <SCORE.SYSTEM.CONST>
0

>  <SCORE.SYSTEM.DIHEDRAL>
0

>  <SCORE.SYSTEM.SOLV>
0

>  <SCORE.SYSTEM.norm>
0

>  <SCORE.heavy>
29

>  <SCORE.norm>
-0.331158

>  <RMSD>
5.568

$$$$
ligand
 OpenBabel11021811503D
libRbt.so/2013.1/901 2013/11/27
 29 32  0  0  0  0  0  0  0  0999 V2000
   48.7523   45.0442   42.1672 C   0  0  0  0  0  0  0  0  0  0  0  0
   39.5421   37.6306   42.3783 C   0  0  0  0  0  0  0  0  0  0  0  0
   38.9538   37.9779   43.6017 C   0  0  0  0  0  0  0  0  0  0  0  0
   39.5996   38.7822   44.4748 C   0  0  0  0  0  0  0  0  0  0  0  0
   40.8856   39.1999   44.1602 C   0  0  0  0  0  0  0  0  0  0  0  0
   41.4117   38.8927   42.9333 C   0  0  0  0  0  0  0  0  0  0  0  0
   42.6955   39.3593   42.4144 C   0  0  0  0  0  0  0  0  0  0  0  0
   43.9804   41.0687   41.4987 C   0  0  0  0  0  0  0  0  0  0  0  0
   45.0169   41.5127   42.2959 C   0  0  0  0  0  0  0  0  0  0  0  0
   46.1809   41.9862   41.6877 C   0  0  0  0  0  0  0  0  0  0  0  0
   46.3667   41.9321   40.3309 C   0  0  0  0  0  0  0  0  0  0  0  0
   45.2904   41.4636   39.5468 C   0  0  0  0  0  0  0  0  0  0  0  0
   44.0809   41.0908   40.1221 C   0  0  0  0  0  0  0  0  0  0  0  0
   47.6956   42.3126   39.6817 C   0  0  0  0  0  0  0  0  0  0  0  0
   48.3188   43.5688   40.2745 C   0  0  0  0  0  0  0  0  0  0  0  0
   48.1979   43.9096   41.5975 C   0  0  0  0  0  0  0  0  0  0  0  0
   49.4813   45.8573   41.3414 C   0  0  0  0  0  0  0  0  0  0  0  0
   49.5984   45.5291   40.0357 C   0  0  0  0  0  0  0  0  0  0  0  0
   49.0331   44.4096   39.4678 C   0  0  0  0  0  0  0  0  0  0  0  0
   49.3528   48.1146   41.8690 C   0  0  0  0  0  0  0  0  0  0  0  0
   49.9691   49.3622   42.2681 C   0  0  0  0  0  0  0  0  0  0  0  0
   50.6210   49.5880   43.4872 C   0  0  0  0  0  0  0  0  0  0  0  0
   51.1435   50.8436   43.7212 C   0  0  0  0  0  0  0  0  0  0  0  0
   51.0257   51.8014   42.7264 C   0  0  0  0  0  0  0  0  0  0  0  0
   50.3428   51.5422   41.5578 C   0  0  0  0  0  0  0  0  0  0  0  0
   40.7623   38.0885   42.0515 N   0  0  0  0  0  0  0  0  0  0  0  0
   42.7416   40.6318   42.1280 N   0  0  0  0  0  0  0  0  0  0  0  0
   50.1188   47.0814   41.8378 N   0  0  0  0  0  0  0  0  0  0  0  0
   49.8575   50.3343   41.3136 N   0  0  0  0  0  0  0  0  0  0  0  0
  1 17  2  0  0  0  0
  1 16  1  0  0  0  0
  2  3  2  0  0  0  0
  2 26  1  0  0  0  0
  3  4  1  0  0  0  0
  4  5  2  0  0  0  0
  5  6  1  0  0  0  0
  6  7  1  0  0  0  0
  6 26  2  0  0  0  0
  7 27  2  0  0  0  0
  8  9  2  0  0  0  0
  8 13  1  0  0  0  0
  8 27  1  0  0  0  0
  9 10  1  0  0  0  0
 10 11  2  0  0  0  0
 11 12  1  0  0  0  0
 11 14  1  0  0  0  0
 12 13  2  0  0  0  0
 14 15  1  0  0  0  0
 15 16  2  0  0  0  0
 15 19  1  0  0  0  0
 17 18  1  0  0  0  0
 17 28  1  0  0  0  0
 18 19  2  0  0  0  0
 20 21  1  0  0  0  0
 20 28  2  0  0  0  0
 21 22  2  0  0  0  0
 21 29  1  0  0  0  0
 22 23  1  0  0  0  0
 23 24  2  0  0  0  0
 24 25  1  0  0  0  0
 25 29  2  0  0  0  0
M  END
>  <CHROM.1>
-69.82505765,-42.75031619,33.70286309,-58.37268143,-90.78342016,-84.49745068
46.24063671,43.75369996,41.81648807,-0.61855331,-0.62536298,-2.51291338

>  <Name>
ligand

>  <RI>
0

>  <Rbt.Current_Directory>
/home/itssahil/PROJECTS/Mol_Feturizer/New_Systems/rnas/4JIY

>  <Rbt.Executable>
rbdock ($Id: //depot/dev/client3/rdock/2013.1/src/exe/rbdock.cxx#4 $)

>  <Rbt.Library>
libRbt.so (2013.1, Build901 2013/11/27)

>  <Rbt.Parameter_File>
/export/apps/rDock/src/rDock_2013.1_src/data/scripts/dock_solv.prm

>  <Rbt.Receptor>
prm/pocket_docking_7.prm

>  <SCORE>
-7.37196

>  <SCORE.INTER>
-6.96025

>  <SCORE.INTER.CONST>
1

>  <SCORE.INTER.POLAR>
0

>  <SCORE.INTER.ROT>
6

>  <SCORE.INTER.SOLV>
2.06126

>  <SCORE.INTER.VDW>
-12.9273

>  <SCORE.INTER.norm>
-0.240009

>  <SCORE.INTRA>
-0.411712

>  <SCORE.INTRA.DIHEDRAL>
-0.0997205

>  <SCORE.INTRA.DIHEDRAL.0>
7.2424

>  <SCORE.INTRA.POLAR>
0

>  <SCORE.INTRA.POLAR.0>
0

>  <SCORE.INTRA.REPUL>
0

>  <SCORE.INTRA.REPUL.0>
0

>  <SCORE.INTRA.SOLV>
-0.0200453

>  <SCORE.INTRA.SOLV.lig_0>
-3.36201

>  <SCORE.INTRA.VDW>
-0.351829

>  <SCORE.INTRA.VDW.0>
-0.910526

>  <SCORE.INTRA.norm>
-0.014197

>  <SCORE.RESTR>
0

>  <SCORE.RESTR.CAVITY>
0

>  <SCORE.RESTR.norm>
0

>  <SCORE.SYSTEM>
0

>  <SCORE.SYSTEM.CONST>
0

>  <SCORE.SYSTEM.DIHEDRAL>
0

>  <SCORE.SYSTEM.SOLV>
0

>  <SCORE.SYSTEM.norm>
0

>  <SCORE.heavy>
29

>  <SCORE.norm>
-0.254206

>  <RMSD>
5.573

$$$$
ligand
 OpenBabel11021811503D
libRbt.so/2013.1/901 2013/11/27
 29 32  0  0  0  0  0  0  0  0999 V2000
   47.5652   43.4958   42.8080 C   0  0  0  0  0  0  0  0  0  0  0  0
   38.6404   35.9958   38.5044 C   0  0  0  0  0  0  0  0  0  0  0  0
   37.5175   36.4834   37.8225 C   0  0  0  0  0  0  0  0  0  0  0  0
   37.4124   37.7949   37.5144 C   0  0  0  0  0  0  0  0  0  0  0  0
   38.4103   38.6569   37.9488 C   0  0  0  0  0  0  0  0  0  0  0  0
   39.5227   38.1439   38.5618 C   0  0  0  0  0  0  0  0  0  0  0  0
   40.7027   38.9059   38.9646 C   0  0  0  0  0  0  0  0  0  0  0  0
   42.6778   39.9893   38.3845 C   0  0  0  0  0  0  0  0  0  0  0  0
   43.8374   39.2430   38.4574 C   0  0  0  0  0  0  0  0  0  0  0  0
   45.0086   39.8578   38.9038 C   0  0  0  0  0  0  0  0  0  0  0  0
   45.0675   41.1995   39.1769 C   0  0  0  0  0  0  0  0  0  0  0  0
   43.8659   41.9343   39.0829 C   0  0  0  0  0  0  0  0  0  0  0  0
   42.6640   41.3211   38.7475 C   0  0  0  0  0  0  0  0  0  0  0  0
   46.3817   41.8967   39.5220 C   0  0  0  0  0  0  0  0  0  0  0  0
   46.5073   42.2514   40.9972 C   0  0  0  0  0  0  0  0  0  0  0  0
   47.4258   43.1517   41.4733 C   0  0  0  0  0  0  0  0  0  0  0  0
   46.7069   42.9000   43.6928 C   0  0  0  0  0  0  0  0  0  0  0  0
   45.8040   42.0075   43.2295 C   0  0  0  0  0  0  0  0  0  0  0  0
   45.6777   41.6546   41.9048 C   0  0  0  0  0  0  0  0  0  0  0  0
   47.5291   42.4208   45.8105 C   0  0  0  0  0  0  0  0  0  0  0  0
   47.5391   42.6220   47.2440 C   0  0  0  0  0  0  0  0  0  0  0  0
   48.6241   43.1085   47.9844 C   0  0  0  0  0  0  0  0  0  0  0  0
   48.4764   43.2273   49.3513 C   0  0  0  0  0  0  0  0  0  0  0  0
   47.2544   42.8921   49.9128 C   0  0  0  0  0  0  0  0  0  0  0  0
   46.2280   42.3828   49.1469 C   0  0  0  0  0  0  0  0  0  0  0  0
   39.6333   36.8248   38.8682 N   0  0  0  0  0  0  0  0  0  0  0  0
   41.4410   39.3361   37.9781 N   0  0  0  0  0  0  0  0  0  0  0  0
   46.7594   43.1942   45.1288 N   0  0  0  0  0  0  0  0  0  0  0  0
   46.3514   42.2863   47.8317 N   0  0  0  0  0  0  0  0  0  0  0  0
  1 17  2  0  0  0  0
  1 16  1  0  0  0  0
  2  3  2  0  0  0  0
  2 26  1  0  0  0  0
  3  4  1  0  0  0  0
  4  5  2  0  0  0  0
  5  6  1  0  0  0  0
  6  7  1  0  0  0  0
  6 26  2  0  0  0  0
  7 27  2  0  0  0  0
  8  9  2  0  0  0  0
  8 13  1  0  0  0  0
  8 27  1  0  0  0  0
  9 10  1  0  0  0  0
 10 11  2  0  0  0  0
 11 12  1  0  0  0  0
 11 14  1  0  0  0  0
 12 13  2  0  0  0  0
 14 15  1  0  0  0  0
 15 16  2  0  0  0  0
 15 19  1  0  0  0  0
 17 18  1  0  0  0  0
 17 28  1  0  0  0  0
 18 19  2  0  0  0  0
 20 21  1  0  0  0  0
 20 28  2  0  0  0  0
 21 22  2  0  0  0  0
 21 29  1  0  0  0  0
 22 23  1  0  0  0  0
 23 24  2  0  0  0  0
 24 25  1  0  0  0  0
 25 29  2  0  0  0  0
M  END
>  <CHROM.1>
-70.34584561,-106.02422510,-163.58467224,-112.32118529,93.92747780,-90.70899290
44.17831767,40.86268292,41.89677026,-0.77238251,-0.57033268,-1.55415716

>  <Name>
ligand

>  <RI>
0

>  <Rbt.Current_Directory>
/home/itssahil/PROJECTS/Mol_Feturizer/New_Systems/rnas/4JIY

>  <Rbt.Executable>
rbdock ($Id: //depot/dev/client3/rdock/2013.1/src/exe/rbdock.cxx#4 $)

>  <Rbt.Library>
libRbt.so (2013.1, Build901 2013/11/27)

>  <Rbt.Parameter_File>
/export/apps/rDock/src/rDock_2013.1_src/data/scripts/dock_solv.prm

>  <Rbt.Receptor>
prm/pocket_docking_7.prm

>  <SCORE>
-8.13156

>  <SCORE.INTER>
-7.64344

>  <SCORE.INTER.CONST>
1

>  <SCORE.INTER.POLAR>
0

>  <SCORE.INTER.ROT>
6

>  <SCORE.INTER.SOLV>
2.16302

>  <SCORE.INTER.VDW>
-13.4166

>  <SCORE.INTER.norm>
-0.263567

>  <SCORE.INTRA>
-0.491897

>  <SCORE.INTRA.DIHEDRAL>
0.685542

>  <SCORE.INTRA.DIHEDRAL.0>
7.2424

>  <SCORE.INTRA.POLAR>
0

>  <SCORE.INTRA.POLAR.0>
0

>  <SCORE.INTRA.REPUL>
0

>  <SCORE.INTRA.REPUL.0>
0

>  <SCORE.INTRA.SOLV>
-0.0166067

>  <SCORE.INTRA.SOLV.lig_0>
-3.36201

>  <SCORE.INTRA.VDW>
-0.826365

>  <SCORE.INTRA.VDW.0>
-0.910526

>  <SCORE.INTRA.norm>
-0.016962

>  <SCORE.RESTR>
0.00377297

>  <SCORE.RESTR.CAVITY>
0.00377297

>  <SCORE.RESTR.norm>
0.000130103

>  <SCORE.SYSTEM>
0

>  <SCORE.SYSTEM.CONST>
0

>  <SCORE.SYSTEM.DIHEDRAL>
0

>  <SCORE.SYSTEM.SOLV>
0

>  <SCORE.SYSTEM.norm>
0

>  <SCORE.heavy>
29

>  <SCORE.norm>
-0.280399

>  <RMSD>
5.583

$$$$
ligand
 OpenBabel11021811503D
libRbt.so/2013.1/901 2013/11/27
 29 32  0  0  0  0  0  0  0  0999 V2000
   45.9755   41.9045   40.7449 C   0  0  0  0  0  0  0  0  0  0  0  0
   38.5336   31.4244   42.0277 C   0  0  0  0  0  0  0  0  0  0  0  0
   37.7037   31.5181   43.1529 C   0  0  0  0  0  0  0  0  0  0  0  0
   37.4712   32.7119   43.7419 C   0  0  0  0  0  0  0  0  0  0  0  0
   38.1274   33.8309   43.2472 C   0  0  0  0  0  0  0  0  0  0  0  0
   38.8861   33.7189   42.1122 C   0  0  0  0  0  0  0  0  0  0  0  0
   39.5357   34.8223   41.4080 C   0  0  0  0  0  0  0  0  0  0  0  0
   41.1427   36.5038   41.3749 C   0  0  0  0  0  0  0  0  0  0  0  0
   40.7112   37.7567   41.7632 C   0  0  0  0  0  0  0  0  0  0  0  0
   41.2163   38.8788   41.1038 C   0  0  0  0  0  0  0  0  0  0  0  0
   42.1986   38.7831   40.1529 C   0  0  0  0  0  0  0  0  0  0  0  0
   42.6233   37.4877   39.7868 C   0  0  0  0  0  0  0  0  0  0  0  0
   42.0556   36.3507   40.3507 C   0  0  0  0  0  0  0  0  0  0  0  0
   42.8528   40.0195   39.5401 C   0  0  0  0  0  0  0  0  0  0  0  0
   43.9039   40.6545   40.4399 C   0  0  0  0  0  0  0  0  0  0  0  0
   45.0022   41.3164   39.9536 C   0  0  0  0  0  0  0  0  0  0  0  0
   45.8015   41.8244   42.1006 C   0  0  0  0  0  0  0  0  0  0  0  0
   44.7240   41.1680   42.5850 C   0  0  0  0  0  0  0  0  0  0  0  0
   43.7663   40.5702   41.7972 C   0  0  0  0  0  0  0  0  0  0  0  0
   47.3985   43.4402   42.5791 C   0  0  0  0  0  0  0  0  0  0  0  0
   48.4223   43.9984   43.4368 C   0  0  0  0  0  0  0  0  0  0  0  0
   48.2155   44.4747   44.7378 C   0  0  0  0  0  0  0  0  0  0  0  0
   49.2980   44.9926   45.4192 C   0  0  0  0  0  0  0  0  0  0  0  0
   50.5351   44.9826   44.7946 C   0  0  0  0  0  0  0  0  0  0  0  0
   50.6813   44.5367   43.4988 C   0  0  0  0  0  0  0  0  0  0  0  0
   39.1173   32.5207   41.5149 N   0  0  0  0  0  0  0  0  0  0  0  0
   40.5721   35.3285   42.0186 N   0  0  0  0  0  0  0  0  0  0  0  0
   46.7654   42.4166   43.0340 N   0  0  0  0  0  0  0  0  0  0  0  0
   49.6540   44.0168   42.8442 N   0  0  0  0  0  0  0  0  0  0  0  0
  1 17  2  0  0  0  0
  1 16  1  0  0  0  0
  2  3  2  0  0  0  0
  2 26  1  0  0  0  0
  3  4  1  0  0  0  0
  4  5  2  0  0  0  0
  5  6  1  0  0  0  0
  6  7  1  0  0  0  0
  6 26  2  0  0  0  0
  7 27  2  0  0  0  0
  8  9  2  0  0  0  0
  8 13  1  0  0  0  0
  8 27  1  0  0  0  0
  9 10  1  0  0  0  0
 10 11  2  0  0  0  0
 11 12  1  0  0  0  0
 11 14  1  0  0  0  0
 12 13  2  0  0  0  0
 14 15  1  0  0  0  0
 15 16  2  0  0  0  0
 15 19  1  0  0  0  0
 17 18  1  0  0  0  0
 17 28  1  0  0  0  0
 18 19  2  0  0  0  0
 20 21  1  0  0  0  0
 20 28  2  0  0  0  0
 21 22  2  0  0  0  0
 21 29  1  0  0  0  0
 22 23  1  0  0  0  0
 23 24  2  0  0  0  0
 24 25  1  0  0  0  0
 25 29  2  0  0  0  0
M  END
>  <CHROM.1>
72.22029233,78.59804290,149.03384936,-58.01012892,92.36489566,28.70594899
43.55423862,39.02867950,42.10272934,0.20778914,-0.80492560,-1.16208491

>  <Name>
ligand

>  <RI>
0

>  <Rbt.Current_Directory>
/home/itssahil/PROJECTS/Mol_Feturizer/New_Systems/rnas/4JIY

>  <Rbt.Executable>
rbdock ($Id: //depot/dev/client3/rdock/2013.1/src/exe/rbdock.cxx#4 $)

>  <Rbt.Library>
libRbt.so (2013.1, Build901 2013/11/27)

>  <Rbt.Parameter_File>
/export/apps/rDock/src/rDock_2013.1_src/data/scripts/dock_solv.prm

>  <Rbt.Receptor>
prm/pocket_docking_6.prm

>  <SCORE>
-5.10112

>  <SCORE.INTER>
-5.0199

>  <SCORE.INTER.CONST>
1

>  <SCORE.INTER.POLAR>
0

>  <SCORE.INTER.ROT>
6

>  <SCORE.INTER.SOLV>
2.1179

>  <SCORE.INTER.VDW>
-11.6526

>  <SCORE.INTER.norm>
-0.1731

>  <SCORE.INTRA>
-0.0812233

>  <SCORE.INTRA.DIHEDRAL>
0.0387866

>  <SCORE.INTRA.DIHEDRAL.0>
7.2424

>  <SCORE.INTRA.POLAR>
0

>  <SCORE.INTRA.POLAR.0>
0

>  <SCORE.INTRA.REPUL>
0

>  <SCORE.INTRA.REPUL.0>
0

>  <SCORE.INTRA.SOLV>
-0.0173525

>  <SCORE.INTRA.SOLV.lig_0>
-3.36201

>  <SCORE.INTRA.VDW>
-0.0919403

>  <SCORE.INTRA.VDW.0>
-0.910526

>  <SCORE.INTRA.norm>
-0.0028008

>  <SCORE.RESTR>
0

>  <SCORE.RESTR.CAVITY>
0

>  <SCORE.RESTR.norm>
0

>  <SCORE.SYSTEM>
0

>  <SCORE.SYSTEM.CONST>
0

>  <SCORE.SYSTEM.DIHEDRAL>
0

>  <SCORE.SYSTEM.SOLV>
0

>  <SCORE.SYSTEM.norm>
0

>  <SCORE.heavy>
29

>  <SCORE.norm>
-0.175901

>  <RMSD>
5.595

$$$$
ligand
 OpenBabel11021811503D
libRbt.so/2013.1/901 2013/11/27
 29 32  0  0  0  0  0  0  0  0999 V2000
   40.8755   43.9159   43.0294 C   0  0  0  0  0  0  0  0  0  0  0  0
   51.2338   46.6990   44.2206 C   0  0  0  0  0  0  0  0  0  0  0  0
   52.3210   46.4778   43.3646 C   0  0  0  0  0  0  0  0  0  0  0  0
   52.3796   45.3684   42.5953 C   0  0  0  0  0  0  0  0  0  0  0  0
   51.3716   44.4224   42.7236 C   0  0  0  0  0  0  0  0  0  0  0  0
   50.2935   44.6922   43.5243 C   0  0  0  0  0  0  0  0  0  0  0  0
   49.1055   43.8534   43.6667 C   0  0  0  0  0  0  0  0  0  0  0  0
   47.0586   43.1270   42.8339 C   0  0  0  0  0  0  0  0  0  0  0  0
   46.4421   43.1623   44.0691 C   0  0  0  0  0  0  0  0  0  0  0  0
   45.2860   42.4054   44.2682 C   0  0  0  0  0  0  0  0  0  0  0  0
   44.6886   41.7082   43.2507 C   0  0  0  0  0  0  0  0  0  0  0  0
   45.3404   41.7014   41.9986 C   0  0  0  0  0  0  0  0  0  0  0  0
   46.5512   42.3571   41.8065 C   0  0  0  0  0  0  0  0  0  0  0  0
   43.3465   41.0029   43.4341 C   0  0  0  0  0  0  0  0  0  0  0  0
   42.1578   41.8421   42.9864 C   0  0  0  0  0  0  0  0  0  0  0  0
   41.9459   43.1267   43.4175 C   0  0  0  0  0  0  0  0  0  0  0  0
   39.9911   43.3647   42.1413 C   0  0  0  0  0  0  0  0  0  0  0  0
   40.1922   42.0970   41.7182 C   0  0  0  0  0  0  0  0  0  0  0  0
   41.2476   41.3085   42.1175 C   0  0  0  0  0  0  0  0  0  0  0  0
   39.0360   44.8165   40.6018 C   0  0  0  0  0  0  0  0  0  0  0  0
   37.9347   45.6372   40.1444 C   0  0  0  0  0  0  0  0  0  0  0  0
   36.6910   45.1553   39.7163 C   0  0  0  0  0  0  0  0  0  0  0  0
   35.7498   46.0721   39.2946 C   0  0  0  0  0  0  0  0  0  0  0  0
   36.0721   47.4189   39.3492 C   0  0  0  0  0  0  0  0  0  0  0  0
   37.3229   47.8422   39.7436 C   0  0  0  0  0  0  0  0  0  0  0  0
   50.2296   45.8093   44.2950 N   0  0  0  0  0  0  0  0  0  0  0  0
   48.2985   43.8665   42.6411 N   0  0  0  0  0  0  0  0  0  0  0  0
   38.8251   44.1109   41.6567 N   0  0  0  0  0  0  0  0  0  0  0  0
   38.2255   46.9725   40.1719 N   0  0  0  0  0  0  0  0  0  0  0  0
  1 17  2  0  0  0  0
  1 16  1  0  0  0  0
  2  3  2  0  0  0  0
  2 26  1  0  0  0  0
  3  4  1  0  0  0  0
  4  5  2  0  0  0  0
  5  6  1  0  0  0  0
  6  7  1  0  0  0  0
  6 26  2  0  0  0  0
  7 27  2  0  0  0  0
  8  9  2  0  0  0  0
  8 13  1  0  0  0  0
  8 27  1  0  0  0  0
  9 10  1  0  0  0  0
 10 11  2  0  0  0  0
 11 12  1  0  0  0  0
 11 14  1  0  0  0  0
 12 13  2  0  0  0  0
 14 15  1  0  0  0  0
 15 16  2  0  0  0  0
 15 19  1  0  0  0  0
 17 18  1  0  0  0  0
 17 28  1  0  0  0  0
 18 19  2  0  0  0  0
 20 21  1  0  0  0  0
 20 28  2  0  0  0  0
 21 22  2  0  0  0  0
 21 29  1  0  0  0  0
 22 23  1  0  0  0  0
 23 24  2  0  0  0  0
 24 25  1  0  0  0  0
 25 29  2  0  0  0  0
M  END
>  <CHROM.1>
-72.93344583,95.05296736,-51.92911510,-62.24636359,37.63223046,88.94270767
43.80152757,44.15592617,42.23904762,3.01744362,-0.20493109,-0.32766043

>  <Name>
ligand

>  <RI>
0

>  <Rbt.Current_Directory>
/home/itssahil/PROJECTS/Mol_Feturizer/New_Systems/rnas/4JIY

>  <Rbt.Executable>
rbdock ($Id: //depot/dev/client3/rdock/2013.1/src/exe/rbdock.cxx#4 $)

>  <Rbt.Library>
libRbt.so (2013.1, Build901 2013/11/27)

>  <Rbt.Parameter_File>
/export/apps/rDock/src/rDock_2013.1_src/data/scripts/dock_solv.prm

>  <Rbt.Receptor>
prm/pocket_docking_5.prm

>  <SCORE>
-1.33104

>  <SCORE.INTER>
-0.911568

>  <SCORE.INTER.CONST>
1

>  <SCORE.INTER.POLAR>
0

>  <SCORE.INTER.ROT>
6

>  <SCORE.INTER.SOLV>
1.51443

>  <SCORE.INTER.VDW>
-8.71252

>  <SCORE.INTER.norm>
-0.0314334

>  <SCORE.INTRA>
-0.429538

>  <SCORE.INTRA.DIHEDRAL>
-0.133317

>  <SCORE.INTRA.DIHEDRAL.0>
7.2424

>  <SCORE.INTRA.POLAR>
0

>  <SCORE.INTRA.POLAR.0>
0

>  <SCORE.INTRA.REPUL>
0

>  <SCORE.INTRA.REPUL.0>
0

>  <SCORE.INTRA.SOLV>
-0.0172818

>  <SCORE.INTRA.SOLV.lig_0>
-3.36201

>  <SCORE.INTRA.VDW>
-0.354239

>  <SCORE.INTRA.VDW.0>
-0.910526

>  <SCORE.INTRA.norm>
-0.0148117

>  <SCORE.RESTR>
0.0100645

>  <SCORE.RESTR.CAVITY>
0.0100645

>  <SCORE.RESTR.norm>
0.000347053

>  <SCORE.SYSTEM>
0

>  <SCORE.SYSTEM.CONST>
0

>  <SCORE.SYSTEM.DIHEDRAL>
0

>  <SCORE.SYSTEM.SOLV>
0

>  <SCORE.SYSTEM.norm>
0

>  <SCORE.heavy>
29

>  <SCORE.norm>
-0.045898

>  <RMSD>
5.607

$$$$
ligand
 OpenBabel11021811503D
libRbt.so/2013.1/901 2013/11/27
 29 32  0  0  0  0  0  0  0  0999 V2000
   44.0909   39.9259   40.9390 C   0  0  0  0  0  0  0  0  0  0  0  0
   54.1327   47.5949   43.1965 C   0  0  0  0  0  0  0  0  0  0  0  0
   54.7606   47.0327   44.3160 C   0  0  0  0  0  0  0  0  0  0  0  0
   54.1595   46.0515   45.0247 C   0  0  0  0  0  0  0  0  0  0  0  0
   52.8784   45.6622   44.6576 C   0  0  0  0  0  0  0  0  0  0  0  0
   52.3138   46.1879   43.5257 C   0  0  0  0  0  0  0  0  0  0  0  0
   51.0313   45.7910   42.9487 C   0  0  0  0  0  0  0  0  0  0  0  0
   49.7121   44.1659   41.9339 C   0  0  0  0  0  0  0  0  0  0  0  0
   49.7220   44.0367   40.5591 C   0  0  0  0  0  0  0  0  0  0  0  0
   48.5264   43.7444   39.9001 C   0  0  0  0  0  0  0  0  0  0  0  0
   47.3655   43.4841   40.5804 C   0  0  0  0  0  0  0  0  0  0  0  0
   47.3932   43.6158   41.9856 C   0  0  0  0  0  0  0  0  0  0  0  0
   48.5448   44.0141   42.6551 C   0  0  0  0  0  0  0  0  0  0  0  0
   46.0974   43.0209   39.8664 C   0  0  0  0  0  0  0  0  0  0  0  0
   45.2618   42.0504   40.6896 C   0  0  0  0  0  0  0  0  0  0  0  0
   44.8509   40.8307   40.2159 C   0  0  0  0  0  0  0  0  0  0  0  0
   43.7530   40.2843   42.2165 C   0  0  0  0  0  0  0  0  0  0  0  0
   44.1503   41.4877   42.6859 C   0  0  0  0  0  0  0  0  0  0  0  0
   44.8919   42.3924   41.9602 C   0  0  0  0  0  0  0  0  0  0  0  0
   41.7464   39.2128   42.6810 C   0  0  0  0  0  0  0  0  0  0  0  0
   40.9018   38.4202   43.5492 C   0  0  0  0  0  0  0  0  0  0  0  0
   41.0128   37.0372   43.7423 C   0  0  0  0  0  0  0  0  0  0  0  0
   40.1160   36.4266   44.5950 C   0  0  0  0  0  0  0  0  0  0  0  0
   39.1777   37.2173   45.2394 C   0  0  0  0  0  0  0  0  0  0  0  0
   39.0844   38.5692   44.9886 C   0  0  0  0  0  0  0  0  0  0  0  0
   52.9182   47.1708   42.8084 N   0  0  0  0  0  0  0  0  0  0  0  0
   50.9446   44.5313   42.6186 N   0  0  0  0  0  0  0  0  0  0  0  0
   42.9564   39.4017   43.0754 N   0  0  0  0  0  0  0  0  0  0  0  0
   39.9543   39.1688   44.1898 N   0  0  0  0  0  0  0  0  0  0  0  0
  1 17  2  0  0  0  0
  1 16  1  0  0  0  0
  2  3  2  0  0  0  0
  2 26  1  0  0  0  0
  3  4  1  0  0  0  0
  4  5  2  0  0  0  0
  5  6  1  0  0  0  0
  6  7  1  0  0  0  0
  6 26  2  0  0  0  0
  7 27  2  0  0  0  0
  8  9  2  0  0  0  0
  8 13  1  0  0  0  0
  8 27  1  0  0  0  0
  9 10  1  0  0  0  0
 10 11  2  0  0  0  0
 11 12  1  0  0  0  0
 11 14  1  0  0  0  0
 12 13  2  0  0  0  0
 14 15  1  0  0  0  0
 15 16  2  0  0  0  0
 15 19  1  0  0  0  0
 17 18  1  0  0  0  0
 17 28  1  0  0  0  0
 18 19  2  0  0  0  0
 20 21  1  0  0  0  0
 20 28  2  0  0  0  0
 21 22  2  0  0  0  0
 21 29  1  0  0  0  0
 22 23  1  0  0  0  0
 23 24  2  0  0  0  0
 24 25  1  0  0  0  0
 25 29  2  0  0  0  0
M  END
>  <CHROM.1>
-58.99234863,145.84457941,-127.07274883,-71.76970642,100.07867566,-66.23113922
46.63304899,42.37208715,42.66342405,3.01734188,0.57083819,1.74053676

>  <Name>
ligand

>  <RI>
0

>  <Rbt.Current_Directory>
/home/itssahil/PROJECTS/Mol_Feturizer/New_Systems/rnas/4JIY

>  <Rbt.Executable>
rbdock ($Id: //depot/dev/client3/rdock/2013.1/src/exe/rbdock.cxx#4 $)

>  <Rbt.Library>
libRbt.so (2013.1, Build901 2013/11/27)

>  <Rbt.Parameter_File>
/export/apps/rDock/src/rDock_2013.1_src/data/scripts/dock_solv.prm

>  <Rbt.Receptor>
prm/pocket_docking_6.prm

>  <SCORE>
-7.14237

>  <SCORE.INTER>
-7.0089

>  <SCORE.INTER.CONST>
1

>  <SCORE.INTER.POLAR>
0

>  <SCORE.INTER.ROT>
6

>  <SCORE.INTER.SOLV>
2.59475

>  <SCORE.INTER.VDW>
-13.1375

>  <SCORE.INTER.norm>
-0.241686

>  <SCORE.INTRA>
-0.13396

>  <SCORE.INTRA.DIHEDRAL>
0.245429

>  <SCORE.INTRA.DIHEDRAL.0>
7.2424

>  <SCORE.INTRA.POLAR>
0

>  <SCORE.INTRA.POLAR.0>
0

>  <SCORE.INTRA.REPUL>
0

>  <SCORE.INTRA.REPUL.0>
0

>  <SCORE.INTRA.SOLV>
-0.0190498

>  <SCORE.INTRA.SOLV.lig_0>
-3.36201

>  <SCORE.INTRA.VDW>
-0.24715

>  <SCORE.INTRA.VDW.0>
-0.910526

>  <SCORE.INTRA.norm>
-0.00461931

>  <SCORE.RESTR>
0.000483465

>  <SCORE.RESTR.CAVITY>
0.000483465

>  <SCORE.RESTR.norm>
1.66712e-05

>  <SCORE.SYSTEM>
0

>  <SCORE.SYSTEM.CONST>
0

>  <SCORE.SYSTEM.DIHEDRAL>
0

>  <SCORE.SYSTEM.SOLV>
0

>  <SCORE.SYSTEM.norm>
0

>  <SCORE.heavy>
29

>  <SCORE.norm>
-0.246289

>  <RMSD>
5.621

$$$$
ligand
 OpenBabel11021811503D
libRbt.so/2013.1/901 2013/11/27
 29 32  0  0  0  0  0  0  0  0999 V2000
   42.1972   38.6923   40.9635 C   0  0  0  0  0  0  0  0  0  0  0  0
   50.1211   47.1700   43.8013 C   0  0  0  0  0  0  0  0  0  0  0  0
   51.1274   47.8438   43.0964 C   0  0  0  0  0  0  0  0  0  0  0  0
   51.5066   47.4280   41.8678 C   0  0  0  0  0  0  0  0  0  0  0  0
   50.9237   46.2790   41.3508 C   0  0  0  0  0  0  0  0  0  0  0  0
   49.9031   45.6753   42.0365 C   0  0  0  0  0  0  0  0  0  0  0  0
   49.1157   44.5373   41.5670 C   0  0  0  0  0  0  0  0  0  0  0  0
   47.5604   43.6604   40.0760 C   0  0  0  0  0  0  0  0  0  0  0  0
   48.1207   42.4909   39.6014 C   0  0  0  0  0  0  0  0  0  0  0  0
   47.2776   41.4670   39.1657 C   0  0  0  0  0  0  0  0  0  0  0  0
   45.9146   41.5460   39.2860 C   0  0  0  0  0  0  0  0  0  0  0  0
   45.3760   42.7520   39.7840 C   0  0  0  0  0  0  0  0  0  0  0  0
   46.1908   43.8271   40.1204 C   0  0  0  0  0  0  0  0  0  0  0  0
   45.0041   40.3680   38.9462 C   0  0  0  0  0  0  0  0  0  0  0  0
   44.0859   39.9652   40.0918 C   0  0  0  0  0  0  0  0  0  0  0  0
   43.0497   39.0792   39.9423 C   0  0  0  0  0  0  0  0  0  0  0  0
   42.4329   39.2276   42.2014 C   0  0  0  0  0  0  0  0  0  0  0  0
   43.4489   40.1058   42.3527 C   0  0  0  0  0  0  0  0  0  0  0  0
   44.2850   40.5015   41.3331 C   0  0  0  0  0  0  0  0  0  0  0  0
   41.8092   37.7137   43.8474 C   0  0  0  0  0  0  0  0  0  0  0  0
   40.9434   37.3030   44.9324 C   0  0  0  0  0  0  0  0  0  0  0  0
   40.8175   37.9646   46.1606 C   0  0  0  0  0  0  0  0  0  0  0  0
   39.9567   37.4331   47.0991 C   0  0  0  0  0  0  0  0  0  0  0  0
   39.2392   36.2955   46.7645 C   0  0  0  0  0  0  0  0  0  0  0  0
   39.4249   35.6593   45.5562 C   0  0  0  0  0  0  0  0  0  0  0  0
   49.5162   46.0944   43.2697 N   0  0  0  0  0  0  0  0  0  0  0  0
   48.4368   44.7537   40.4736 N   0  0  0  0  0  0  0  0  0  0  0  0
   41.5977   38.8842   43.3572 N   0  0  0  0  0  0  0  0  0  0  0  0
   40.2312   36.1736   44.6398 N   0  0  0  0  0  0  0  0  0  0  0  0
  1 17  2  0  0  0  0
  1 16  1  0  0  0  0
  2  3  2  0  0  0  0
  2 26  1  0  0  0  0
  3  4  1  0  0  0  0
  4  5  2  0  0  0  0
  5  6  1  0  0  0  0
  6  7  1  0  0  0  0
  6 26  2  0  0  0  0
  7 27  2  0  0  0  0
  8  9  2  0  0  0  0
  8 13  1  0  0  0  0
  8 27  1  0  0  0  0
  9 10  1  0  0  0  0
 10 11  2  0  0  0  0
 11 12  1  0  0  0  0
 11 14  1  0  0  0  0
 12 13  2  0  0  0  0
 14 15  1  0  0  0  0
 15 16  2  0  0  0  0
 15 19  1  0  0  0  0
 17 18  1  0  0  0  0
 17 28  1  0  0  0  0
 18 19  2  0  0  0  0
 20 21  1  0  0  0  0
 20 28  2  0  0  0  0
 21 22  2  0  0  0  0
 21 29  1  0  0  0  0
 22 23  1  0  0  0  0
 23 24  2  0  0  0  0
 24 25  1  0  0  0  0
 25 29  2  0  0  0  0
M  END
>  <CHROM.1>
-61.60475011,124.46478931,169.52618487,-59.84441058,-70.43183023,74.83764199
45.15519183,41.40410316,42.19707722,3.03130829,0.77784400,1.38535094

>  <Name>
ligand

>  <RI>
0

>  <Rbt.Current_Directory>
/home/itssahil/PROJECTS/Mol_Feturizer/New_Systems/rnas/4JIY

>  <Rbt.Executable>
rbdock ($Id: //depot/dev/client3/rdock/2013.1/src/exe/rbdock.cxx#4 $)

>  <Rbt.Library>
libRbt.so (2013.1, Build901 2013/11/27)

>  <Rbt.Parameter_File>
/export/apps/rDock/src/rDock_2013.1_src/data/scripts/dock_solv.prm

>  <Rbt.Receptor>
prm/pocket_docking_7.prm

>  <SCORE>
-10.3172

>  <SCORE.INTER>
-9.92891

>  <SCORE.INTER.CONST>
1

>  <SCORE.INTER.POLAR>
0

>  <SCORE.INTER.ROT>
6

>  <SCORE.INTER.SOLV>
3.06884

>  <SCORE.INTER.VDW>
-15.2422

>  <SCORE.INTER.norm>
-0.342376

>  <SCORE.INTRA>
-0.388243

>  <SCORE.INTRA.DIHEDRAL>
0.0153118

>  <SCORE.INTRA.DIHEDRAL.0>
7.2424

>  <SCORE.INTRA.POLAR>
0

>  <SCORE.INTRA.POLAR.0>
0

>  <SCORE.INTRA.REPUL>
0

>  <SCORE.INTRA.REPUL.0>
0

>  <SCORE.INTRA.SOLV>
-0.0203654

>  <SCORE.INTRA.SOLV.lig_0>
-3.36201

>  <SCORE.INTRA.VDW>
-0.385716

>  <SCORE.INTRA.VDW.0>
-0.910526

>  <SCORE.INTRA.norm>
-0.0133877

>  <SCORE.RESTR>
0

>  <SCORE.RESTR.CAVITY>
0

>  <SCORE.RESTR.norm>
0

>  <SCORE.SYSTEM>
0

>  <SCORE.SYSTEM.CONST>
0

>  <SCORE.SYSTEM.DIHEDRAL>
0

>  <SCORE.SYSTEM.SOLV>
0

>  <SCORE.SYSTEM.norm>
0

>  <SCORE.heavy>
29

>  <SCORE.norm>
-0.355764

>  <RMSD>
5.638

$$$$
ligand
 OpenBabel11021811503D
libRbt.so/2013.1/901 2013/11/27
 29 32  0  0  0  0  0  0  0  0999 V2000
   39.7444   41.2570   40.6847 C   0  0  0  0  0  0  0  0  0  0  0  0
   51.0894   44.9258   41.6617 C   0  0  0  0  0  0  0  0  0  0  0  0
   51.4351   45.7994   40.6220 C   0  0  0  0  0  0  0  0  0  0  0  0
   50.6676   45.8916   39.5136 C   0  0  0  0  0  0  0  0  0  0  0  0
   49.5677   45.0520   39.4008 C   0  0  0  0  0  0  0  0  0  0  0  0
   49.2217   44.2507   40.4565 C   0  0  0  0  0  0  0  0  0  0  0  0
   48.0309   43.4073   40.5331 C   0  0  0  0  0  0  0  0  0  0  0  0
   46.3067   42.4914   41.7978 C   0  0  0  0  0  0  0  0  0  0  0  0
   45.8108   42.1861   43.0499 C   0  0  0  0  0  0  0  0  0  0  0  0
   44.7829   41.2477   43.1582 C   0  0  0  0  0  0  0  0  0  0  0  0
   44.1837   40.6945   42.0568 C   0  0  0  0  0  0  0  0  0  0  0  0
   44.7093   41.0359   40.7919 C   0  0  0  0  0  0  0  0  0  0  0  0
   45.8046   41.8828   40.6651 C   0  0  0  0  0  0  0  0  0  0  0  0
   42.9641   39.7826   42.1731 C   0  0  0  0  0  0  0  0  0  0  0  0
   41.6415   40.5229   42.0296 C   0  0  0  0  0  0  0  0  0  0  0  0
   40.9489   40.5923   40.8480 C   0  0  0  0  0  0  0  0  0  0  0  0
   39.2177   41.8633   41.7937 C   0  0  0  0  0  0  0  0  0  0  0  0
   39.8994   41.8029   42.9590 C   0  0  0  0  0  0  0  0  0  0  0  0
   41.1043   41.1556   43.1155 C   0  0  0  0  0  0  0  0  0  0  0  0
   38.0162   43.7660   41.2227 C   0  0  0  0  0  0  0  0  0  0  0  0
   36.7989   44.5493   41.2325 C   0  0  0  0  0  0  0  0  0  0  0  0
   36.2685   45.2048   42.3510 C   0  0  0  0  0  0  0  0  0  0  0  0
   35.0862   45.8995   42.1964 C   0  0  0  0  0  0  0  0  0  0  0  0
   34.5062   45.9398   40.9383 C   0  0  0  0  0  0  0  0  0  0  0  0
   35.0469   45.2478   39.8761 C   0  0  0  0  0  0  0  0  0  0  0  0
   49.9888   44.1600   41.5743 N   0  0  0  0  0  0  0  0  0  0  0  0
   47.4202   43.4237   41.6864 N   0  0  0  0  0  0  0  0  0  0  0  0
   37.9448   42.5897   41.7390 N   0  0  0  0  0  0  0  0  0  0  0  0
   36.1930   44.5971   40.0081 N   0  0  0  0  0  0  0  0  0  0  0  0
  1 17  2  0  0  0  0
  1 16  1  0  0  0  0
  2  3  2  0  0  0  0
  2 26  1  0  0  0  0
  3  4  1  0  0  0  0
  4  5  2  0  0  0  0
  5  6  1  0  0  0  0
  6  7  1  0  0  0  0
  6 26  2  0  0  0  0
  7 27  2  0  0  0  0
  8  9  2  0  0  0  0
  8 13  1  0  0  0  0
  8 27  1  0  0  0  0
  9 10  1  0  0  0  0
 10 11  2  0  0  0  0
 11 12  1  0  0  0  0
 11 14  1  0  0  0  0
 12 13  2  0  0  0  0
 14 15  1  0  0  0  0
 15 16  2  0  0  0  0
 15 19  1  0  0  0  0
 17 18  1  0  0  0  0
 17 28  1  0  0  0  0
 18 19  2  0  0  0  0
 20 21  1  0  0  0  0
 20 28  2  0  0  0  0
 21 22  2  0  0  0  0
 21 29  1  0  0  0  0
 22 23  1  0  0  0  0
 23 24  2  0  0  0  0
 24 25  1  0  0  0  0
 25 29  2  0  0  0  0
M  END
>  <CHROM.1>
-137.89082982,93.65870616,96.83391064,76.51814656,164.05399143,-77.99085975
42.91076665,43.14127302,41.38265631,-3.12911188,0.02876149,-0.30782455

>  <Name>
ligand

>  <RI>
0

>  <Rbt.Current_Directory>
/home/itssahil/PROJECTS/Mol_Feturizer/New_Systems/rnas/4JIY

>  <Rbt.Executable>
rbdock ($Id: //depot/dev/client3/rdock/2013.1/src/exe/rbdock.cxx#4 $)

>  <Rbt.Library>
libRbt.so (2013.1, Build901 2013/11/27)

>  <Rbt.Parameter_File>
/export/apps/rDock/src/rDock_2013.1_src/data/scripts/dock_solv.prm

>  <Rbt.Receptor>
prm/pocket_docking_6.prm

>  <SCORE>
-5.41197

>  <SCORE.INTER>
-5.8419

>  <SCORE.INTER.CONST>
1

>  <SCORE.INTER.POLAR>
0

>  <SCORE.INTER.ROT>
6

>  <SCORE.INTER.SOLV>
2.04665

>  <SCORE.INTER.VDW>
-12.1768

>  <SCORE.INTER.norm>
-0.201445

>  <SCORE.INTRA>
0.427826

>  <SCORE.INTRA.DIHEDRAL>
0.331336

>  <SCORE.INTRA.DIHEDRAL.0>
7.2424

>  <SCORE.INTRA.POLAR>
0

>  <SCORE.INTRA.POLAR.0>
0

>  <SCORE.INTRA.REPUL>
0

>  <SCORE.INTRA.REPUL.0>
0

>  <SCORE.INTRA.SOLV>
-0.0111773

>  <SCORE.INTRA.SOLV.lig_0>
-3.36201

>  <SCORE.INTRA.VDW>
0.267747

>  <SCORE.INTRA.VDW.0>
-0.910526

>  <SCORE.INTRA.norm>
0.0147526

>  <SCORE.RESTR>
0.00210531

>  <SCORE.RESTR.CAVITY>
0.00210531

>  <SCORE.RESTR.norm>
7.25971e-05

>  <SCORE.SYSTEM>
0

>  <SCORE.SYSTEM.CONST>
0

>  <SCORE.SYSTEM.DIHEDRAL>
0

>  <SCORE.SYSTEM.SOLV>
0

>  <SCORE.SYSTEM.norm>
0

>  <SCORE.heavy>
29

>  <SCORE.norm>
-0.18662

>  <RMSD>
5.642

$$$$
ligand
 OpenBabel11021811503D
libRbt.so/2013.1/901 2013/11/27
 29 32  0  0  0  0  0  0  0  0999 V2000
   48.8410   45.4607   42.0475 C   0  0  0  0  0  0  0  0  0  0  0  0
   38.9884   38.5427   44.7407 C   0  0  0  0  0  0  0  0  0  0  0  0
   38.8672   38.8673   46.0985 C   0  0  0  0  0  0  0  0  0  0  0  0
   39.7346   39.7219   46.6843 C   0  0  0  0  0  0  0  0  0  0  0  0
   40.7872   40.2167   45.9262 C   0  0  0  0  0  0  0  0  0  0  0  0
   40.8469   39.9281   44.5885 C   0  0  0  0  0  0  0  0  0  0  0  0
   41.8195   40.4690   43.6416 C   0  0  0  0  0  0  0  0  0  0  0  0
   44.0256   40.6549   42.9275 C   0  0  0  0  0  0  0  0  0  0  0  0
   44.9134   41.5606   43.4736 C   0  0  0  0  0  0  0  0  0  0  0  0
   45.8207   42.2074   42.6325 C   0  0  0  0  0  0  0  0  0  0  0  0
   45.9250   41.9000   41.3009 C   0  0  0  0  0  0  0  0  0  0  0  0
   45.0082   40.9628   40.7776 C   0  0  0  0  0  0  0  0  0  0  0  0
   44.0235   40.3879   41.5731 C   0  0  0  0  0  0  0  0  0  0  0  0
   47.0151   42.5008   40.4162 C   0  0  0  0  0  0  0  0  0  0  0  0
   47.4088   43.9148   40.8201 C   0  0  0  0  0  0  0  0  0  0  0  0
   48.4575   44.1867   41.6611 C   0  0  0  0  0  0  0  0  0  0  0  0
   48.1236   46.5057   41.5298 C   0  0  0  0  0  0  0  0  0  0  0  0
   47.0855   46.2428   40.7055 C   0  0  0  0  0  0  0  0  0  0  0  0
   46.6958   44.9754   40.3355 C   0  0  0  0  0  0  0  0  0  0  0  0
   49.3183   48.4491   41.0982 C   0  0  0  0  0  0  0  0  0  0  0  0
   49.7280   49.7920   41.4504 C   0  0  0  0  0  0  0  0  0  0  0  0
   50.3692   50.1553   42.6417 C   0  0  0  0  0  0  0  0  0  0  0  0
   50.6802   51.4862   42.8319 C   0  0  0  0  0  0  0  0  0  0  0  0
   50.3734   52.3846   41.8222 C   0  0  0  0  0  0  0  0  0  0  0  0
   49.7088   51.9847   40.6830 C   0  0  0  0  0  0  0  0  0  0  0  0
   39.9729   39.0732   43.9958 N   0  0  0  0  0  0  0  0  0  0  0  0
   43.0374   40.0244   43.7919 N   0  0  0  0  0  0  0  0  0  0  0  0
   48.4448   47.8970   41.8648 N   0  0  0  0  0  0  0  0  0  0  0  0
   49.4261   50.7067   40.4804 N   0  0  0  0  0  0  0  0  0  0  0  0
  1 17  2  0  0  0  0
  1 16  1  0  0  0  0
  2  3  2  0  0  0  0
  2 26  1  0  0  0  0
  3  4  1  0  0  0  0
  4  5  2  0  0  0  0
  5  6  1  0  0  0  0
  6  7  1  0  0  0  0
  6 26  2  0  0  0  0
  7 27  2  0  0  0  0
  8  9  2  0  0  0  0
  8 13  1  0  0  0  0
  8 27  1  0  0  0  0
  9 10  1  0  0  0  0
 10 11  2  0  0  0  0
 11 12  1  0  0  0  0
 11 14  1  0  0  0  0
 12 13  2  0  0  0  0
 14 15  1  0  0  0  0
 15 16  2  0  0  0  0
 15 19  1  0  0  0  0
 17 18  1  0  0  0  0
 17 28  1  0  0  0  0
 18 19  2  0  0  0  0
 20 21  1  0  0  0  0
 20 28  2  0  0  0  0
 21 22  2  0  0  0  0
 21 29  1  0  0  0  0
 22 23  1  0  0  0  0
 23 24  2  0  0  0  0
 24 25  1  0  0  0  0
 25 29  2  0  0  0  0
M  END
>  <CHROM.1>
70.53297574,-32.64661271,93.93142136,62.14631210,106.03734193,88.34570123
45.70088533,44.17558493,42.48972559,-0.61152186,-0.69530225,-2.68857722

>  <Name>
ligand

>  <RI>
0

>  <Rbt.Current_Directory>
/home/itssahil/PROJECTS/Mol_Feturizer/New_Systems/rnas/4JIY

>  <Rbt.Executable>
rbdock ($Id: //depot/dev/client3/rdock/2013.1/src/exe/rbdock.cxx#4 $)

>  <Rbt.Library>
libRbt.so (2013.1, Build901 2013/11/27)

>  <Rbt.Parameter_File>
/export/apps/rDock/src/rDock_2013.1_src/data/scripts/dock_solv.prm

>  <Rbt.Receptor>
prm/pocket_docking_6.prm

>  <SCORE>
-5.14359

>  <SCORE.INTER>
-4.1856

>  <SCORE.INTER.CONST>
1

>  <SCORE.INTER.POLAR>
0

>  <SCORE.INTER.ROT>
6

>  <SCORE.INTER.SOLV>
1.791

>  <SCORE.INTER.VDW>
-10.9874

>  <SCORE.INTER.norm>
-0.144331

>  <SCORE.INTRA>
-0.957989

>  <SCORE.INTRA.DIHEDRAL>
-0.0661023

>  <SCORE.INTRA.DIHEDRAL.0>
7.2424

>  <SCORE.INTRA.POLAR>
0

>  <SCORE.INTRA.POLAR.0>
0

>  <SCORE.INTRA.REPUL>
0

>  <SCORE.INTRA.REPUL.0>
0

>  <SCORE.INTRA.SOLV>
-0.0192424

>  <SCORE.INTRA.SOLV.lig_0>
-3.36201

>  <SCORE.INTRA.VDW>
-0.915317

>  <SCORE.INTRA.VDW.0>
-0.910526

>  <SCORE.INTRA.norm>
-0.0330341

>  <SCORE.RESTR>
0

>  <SCORE.RESTR.CAVITY>
0

>  <SCORE.RESTR.norm>
0

>  <SCORE.SYSTEM>
0

>  <SCORE.SYSTEM.CONST>
0

>  <SCORE.SYSTEM.DIHEDRAL>
0

>  <SCORE.SYSTEM.SOLV>
0

>  <SCORE.SYSTEM.norm>
0

>  <SCORE.heavy>
29

>  <SCORE.norm>
-0.177365

>  <RMSD>
5.645

$$$$
ligand
 OpenBabel11021811503D
libRbt.so/2013.1/901 2013/11/27
 29 32  0  0  0  0  0  0  0  0999 V2000
   43.7963   37.2164   39.2176 C   0  0  0  0  0  0  0  0  0  0  0  0
   50.6638   44.5188   45.8355 C   0  0  0  0  0  0  0  0  0  0  0  0
   50.1388   45.1564   46.9676 C   0  0  0  0  0  0  0  0  0  0  0  0
   48.8271   45.4741   47.0351 C   0  0  0  0  0  0  0  0  0  0  0  0
   48.0276   45.2151   45.9300 C   0  0  0  0  0  0  0  0  0  0  0  0
   48.5550   44.5395   44.8615 C   0  0  0  0  0  0  0  0  0  0  0  0
   47.8131   44.0915   43.6850 C   0  0  0  0  0  0  0  0  0  0  0  0
   46.5834   42.4377   42.6060 C   0  0  0  0  0  0  0  0  0  0  0  0
   47.1466   42.7372   41.3813 C   0  0  0  0  0  0  0  0  0  0  0  0
   46.5028   42.3076   40.2194 C   0  0  0  0  0  0  0  0  0  0  0  0
   45.3855   41.5149   40.2573 C   0  0  0  0  0  0  0  0  0  0  0  0
   44.8418   41.2200   41.5262 C   0  0  0  0  0  0  0  0  0  0  0  0
   45.4021   41.7288   42.6924 C   0  0  0  0  0  0  0  0  0  0  0  0
   44.7700   40.9252   38.9901 C   0  0  0  0  0  0  0  0  0  0  0  0
   43.9805   39.6479   39.2408 C   0  0  0  0  0  0  0  0  0  0  0  0
   44.4881   38.3968   39.0002 C   0  0  0  0  0  0  0  0  0  0  0  0
   42.5291   37.3269   39.7242 C   0  0  0  0  0  0  0  0  0  0  0  0
   42.0221   38.5578   39.9573 C   0  0  0  0  0  0  0  0  0  0  0  0
   42.7052   39.7303   39.7253 C   0  0  0  0  0  0  0  0  0  0  0  0
   41.8502   35.6499   41.1791 C   0  0  0  0  0  0  0  0  0  0  0  0
   41.1237   34.4296   41.4593 C   0  0  0  0  0  0  0  0  0  0  0  0
   39.7439   34.3444   41.6858 C   0  0  0  0  0  0  0  0  0  0  0  0
   39.2059   33.1027   41.9562 C   0  0  0  0  0  0  0  0  0  0  0  0
   40.0515   32.0046   41.9555 C   0  0  0  0  0  0  0  0  0  0  0  0
   41.4090   32.1442   41.7633 C   0  0  0  0  0  0  0  0  0  0  0  0
   49.8724   44.2142   44.7933 N   0  0  0  0  0  0  0  0  0  0  0  0
   47.2193   42.9369   43.8176 N   0  0  0  0  0  0  0  0  0  0  0  0
   41.7073   36.1438   39.9997 N   0  0  0  0  0  0  0  0  0  0  0  0
   41.9322   33.3277   41.4805 N   0  0  0  0  0  0  0  0  0  0  0  0
  1 17  2  0  0  0  0
  1 16  1  0  0  0  0
  2  3  2  0  0  0  0
  2 26  1  0  0  0  0
  3  4  1  0  0  0  0
  4  5  2  0  0  0  0
  5  6  1  0  0  0  0
  6  7  1  0  0  0  0
  6 26  2  0  0  0  0
  7 27  2  0  0  0  0
  8  9  2  0  0  0  0
  8 13  1  0  0  0  0
  8 27  1  0  0  0  0
  9 10  1  0  0  0  0
 10 11  2  0  0  0  0
 11 12  1  0  0  0  0
 11 14  1  0  0  0  0
 12 13  2  0  0  0  0
 14 15  1  0  0  0  0
 15 16  2  0  0  0  0
 15 19  1  0  0  0  0
 17 18  1  0  0  0  0
 17 28  1  0  0  0  0
 18 19  2  0  0  0  0
 20 21  1  0  0  0  0
 20 28  2  0  0  0  0
 21 22  2  0  0  0  0
 21 29  1  0  0  0  0
 22 23  1  0  0  0  0
 23 24  2  0  0  0  0
 24 25  1  0  0  0  0
 25 29  2  0  0  0  0
M  END
>  <CHROM.1>
-85.05254548,154.45960678,-99.93261325,-74.54771626,32.49570529,88.95061445
44.77829952,39.68710550,42.02859156,3.09199299,0.95220508,2.00227723

>  <Name>
ligand

>  <RI>
0

>  <Rbt.Current_Directory>
/home/itssahil/PROJECTS/Mol_Feturizer/New_Systems/rnas/4JIY

>  <Rbt.Executable>
rbdock ($Id: //depot/dev/client3/rdock/2013.1/src/exe/rbdock.cxx#4 $)

>  <Rbt.Library>
libRbt.so (2013.1, Build901 2013/11/27)

>  <Rbt.Parameter_File>
/export/apps/rDock/src/rDock_2013.1_src/data/scripts/dock_solv.prm

>  <Rbt.Receptor>
prm/pocket_docking_7.prm

>  <SCORE>
-6.26513

>  <SCORE.INTER>
-6.32978

>  <SCORE.INTER.CONST>
1

>  <SCORE.INTER.POLAR>
0

>  <SCORE.INTER.ROT>
6

>  <SCORE.INTER.SOLV>
2.65948

>  <SCORE.INTER.VDW>
-12.7063

>  <SCORE.INTER.norm>
-0.218268

>  <SCORE.INTRA>
0.0638809

>  <SCORE.INTRA.DIHEDRAL>
0.316933

>  <SCORE.INTRA.DIHEDRAL.0>
7.2424

>  <SCORE.INTRA.POLAR>
0

>  <SCORE.INTRA.POLAR.0>
0

>  <SCORE.INTRA.REPUL>
0

>  <SCORE.INTRA.REPUL.0>
0

>  <SCORE.INTRA.SOLV>
-0.0160628

>  <SCORE.INTRA.SOLV.lig_0>
-3.36201

>  <SCORE.INTRA.VDW>
-0.0865541

>  <SCORE.INTRA.VDW.0>
-0.910526

>  <SCORE.INTRA.norm>
0.00220279

>  <SCORE.RESTR>
0.000772046

>  <SCORE.RESTR.CAVITY>
0.000772046

>  <SCORE.RESTR.norm>
2.66223e-05

>  <SCORE.SYSTEM>
0

>  <SCORE.SYSTEM.CONST>
0

>  <SCORE.SYSTEM.DIHEDRAL>
0

>  <SCORE.SYSTEM.SOLV>
0

>  <SCORE.SYSTEM.norm>
0

>  <SCORE.heavy>
29

>  <SCORE.norm>
-0.216039

>  <RMSD>
5.650

$$$$
ligand
 OpenBabel11021811503D
libRbt.so/2013.1/901 2013/11/27
 29 32  0  0  0  0  0  0  0  0999 V2000
   43.6574   40.8165   42.0432 C   0  0  0  0  0  0  0  0  0  0  0  0
   53.0403   46.9192   44.1733 C   0  0  0  0  0  0  0  0  0  0  0  0
   53.0990   46.7971   45.5680 C   0  0  0  0  0  0  0  0  0  0  0  0
   52.3452   45.8797   46.2132 C   0  0  0  0  0  0  0  0  0  0  0  0
   51.4628   45.1089   45.4685 C   0  0  0  0  0  0  0  0  0  0  0  0
   51.4689   45.2097   44.1024 C   0  0  0  0  0  0  0  0  0  0  0  0
   50.6890   44.3846   43.1825 C   0  0  0  0  0  0  0  0  0  0  0  0
   48.8529   44.1487   41.7740 C   0  0  0  0  0  0  0  0  0  0  0  0
   47.7445   43.5554   42.3454 C   0  0  0  0  0  0  0  0  0  0  0  0
   46.9675   42.6912   41.5718 C   0  0  0  0  0  0  0  0  0  0  0  0
   47.2112   42.4904   40.2381 C   0  0  0  0  0  0  0  0  0  0  0  0
   48.3468   43.1199   39.6841 C   0  0  0  0  0  0  0  0  0  0  0  0
   49.1985   43.8964   40.4615 C   0  0  0  0  0  0  0  0  0  0  0  0
   46.2743   41.6623   39.3614 C   0  0  0  0  0  0  0  0  0  0  0  0
   45.1897   40.9418   40.1502 C   0  0  0  0  0  0  0  0  0  0  0  0
   44.6445   41.4466   41.3031 C   0  0  0  0  0  0  0  0  0  0  0  0
   43.1956   39.6195   41.5652 C   0  0  0  0  0  0  0  0  0  0  0  0
   43.7337   39.1149   40.4328 C   0  0  0  0  0  0  0  0  0  0  0  0
   44.7261   39.7347   39.7074 C   0  0  0  0  0  0  0  0  0  0  0  0
   42.3321   38.7328   43.5295 C   0  0  0  0  0  0  0  0  0  0  0  0
   41.3661   37.9210   44.2389 C   0  0  0  0  0  0  0  0  0  0  0  0
   40.0082   38.2292   44.3918 C   0  0  0  0  0  0  0  0  0  0  0  0
   39.2213   37.3547   45.1131 C   0  0  0  0  0  0  0  0  0  0  0  0
   39.8074   36.2044   45.6172 C   0  0  0  0  0  0  0  0  0  0  0  0
   41.1564   35.9632   45.4718 C   0  0  0  0  0  0  0  0  0  0  0  0
   52.2297   46.1277   43.4508 N   0  0  0  0  0  0  0  0  0  0  0  0
   49.7004   45.0021   42.5954 N   0  0  0  0  0  0  0  0  0  0  0  0
   42.1475   38.8677   42.2634 N   0  0  0  0  0  0  0  0  0  0  0  0
   41.9159   36.7842   44.7622 N   0  0  0  0  0  0  0  0  0  0  0  0
  1 17  2  0  0  0  0
  1 16  1  0  0  0  0
  2  3  2  0  0  0  0
  2 26  1  0  0  0  0
  3  4  1  0  0  0  0
  4  5  2  0  0  0  0
  5  6  1  0  0  0  0
  6  7  1  0  0  0  0
  6 26  2  0  0  0  0
  7 27  2  0  0  0  0
  8  9  2  0  0  0  0
  8 13  1  0  0  0  0
  8 27  1  0  0  0  0
  9 10  1  0  0  0  0
 10 11  2  0  0  0  0
 11 12  1  0  0  0  0
 11 14  1  0  0  0  0
 12 13  2  0  0  0  0
 14 15  1  0  0  0  0
 15 16  2  0  0  0  0
 15 19  1  0  0  0  0
 17 18  1  0  0  0  0
 17 28  1  0  0  0  0
 18 19  2  0  0  0  0
 20 21  1  0  0  0  0
 20 28  2  0  0  0  0
 21 22  2  0  0  0  0
 21 29  1  0  0  0  0
 22 23  1  0  0  0  0
 23 24  2  0  0  0  0
 24 25  1  0  0  0  0
 25 29  2  0  0  0  0
M  END
>  <CHROM.1>
108.57022578,-8.21727992,31.85834531,-64.77096649,91.15437739,-47.78790842
46.27319016,41.67971924,42.78024910,3.08389962,0.65157976,1.65604445

>  <Name>
ligand

>  <RI>
0

>  <Rbt.Current_Directory>
/home/itssahil/PROJECTS/Mol_Feturizer/New_Systems/rnas/4JIY

>  <Rbt.Executable>
rbdock ($Id: //depot/dev/client3/rdock/2013.1/src/exe/rbdock.cxx#4 $)

>  <Rbt.Library>
libRbt.so (2013.1, Build901 2013/11/27)

>  <Rbt.Parameter_File>
/export/apps/rDock/src/rDock_2013.1_src/data/scripts/dock_solv.prm

>  <Rbt.Receptor>
prm/pocket_docking_7.prm

>  <SCORE>
-9.89598

>  <SCORE.INTER>
-11.0388

>  <SCORE.INTER.CONST>
1

>  <SCORE.INTER.POLAR>
0

>  <SCORE.INTER.ROT>
6

>  <SCORE.INTER.SOLV>
3.5122

>  <SCORE.INTER.VDW>
-16.1299

>  <SCORE.INTER.norm>
-0.380647

>  <SCORE.INTRA>
1.14279

>  <SCORE.INTRA.DIHEDRAL>
0.483027

>  <SCORE.INTRA.DIHEDRAL.0>
7.2424

>  <SCORE.INTRA.POLAR>
0

>  <SCORE.INTRA.POLAR.0>
0

>  <SCORE.INTRA.REPUL>
0

>  <SCORE.INTRA.REPUL.0>
0

>  <SCORE.INTRA.SOLV>
-0.0163794

>  <SCORE.INTRA.SOLV.lig_0>
-3.36201

>  <SCORE.INTRA.VDW>
0.909468

>  <SCORE.INTRA.VDW.0>
-0.910526

>  <SCORE.INTRA.norm>
0.0394066

>  <SCORE.RESTR>
0

>  <SCORE.RESTR.CAVITY>
0

>  <SCORE.RESTR.norm>
0

>  <SCORE.SYSTEM>
0

>  <SCORE.SYSTEM.CONST>
0

>  <SCORE.SYSTEM.DIHEDRAL>
0

>  <SCORE.SYSTEM.SOLV>
0

>  <SCORE.SYSTEM.norm>
0

>  <SCORE.heavy>
29

>  <SCORE.norm>
-0.341241

>  <RMSD>
5.651

$$$$
ligand
 OpenBabel11021811503D
libRbt.so/2013.1/901 2013/11/27
 29 32  0  0  0  0  0  0  0  0999 V2000
   49.6613   45.2406   43.0419 C   0  0  0  0  0  0  0  0  0  0  0  0
   41.7680   36.0122   40.0268 C   0  0  0  0  0  0  0  0  0  0  0  0
   40.4771   36.4910   40.2874 C   0  0  0  0  0  0  0  0  0  0  0  0
   40.2534   37.8117   40.4657 C   0  0  0  0  0  0  0  0  0  0  0  0
   41.3420   38.6732   40.4519 C   0  0  0  0  0  0  0  0  0  0  0  0
   42.5826   38.1848   40.1378 C   0  0  0  0  0  0  0  0  0  0  0  0
   43.7952   38.9822   39.9669 C   0  0  0  0  0  0  0  0  0  0  0  0
   45.0769   40.8274   40.5696 C   0  0  0  0  0  0  0  0  0  0  0  0
   45.5880   41.5779   41.6101 C   0  0  0  0  0  0  0  0  0  0  0  0
   46.6479   42.4503   41.3559 C   0  0  0  0  0  0  0  0  0  0  0  0
   47.2613   42.5128   40.1320 C   0  0  0  0  0  0  0  0  0  0  0  0
   46.7193   41.7251   39.0935 C   0  0  0  0  0  0  0  0  0  0  0  0
   45.5951   40.9322   39.2944 C   0  0  0  0  0  0  0  0  0  0  0  0
   48.5119   43.3574   39.8974 C   0  0  0  0  0  0  0  0  0  0  0  0
   48.7084   44.4473   40.9420 C   0  0  0  0  0  0  0  0  0  0  0  0
   49.4630   44.2700   42.0734 C   0  0  0  0  0  0  0  0  0  0  0  0
   49.0710   46.4573   42.8276 C   0  0  0  0  0  0  0  0  0  0  0  0
   48.3215   46.6351   41.7172 C   0  0  0  0  0  0  0  0  0  0  0  0
   48.1122   45.6642   40.7639 C   0  0  0  0  0  0  0  0  0  0  0  0
   48.3471   47.5754   44.7292 C   0  0  0  0  0  0  0  0  0  0  0  0
   48.4044   48.6984   45.6407 C   0  0  0  0  0  0  0  0  0  0  0  0
   49.5005   49.0291   46.4479 C   0  0  0  0  0  0  0  0  0  0  0  0
   49.3886   50.1266   47.2769 C   0  0  0  0  0  0  0  0  0  0  0  0
   48.2139   50.8611   47.2416 C   0  0  0  0  0  0  0  0  0  0  0  0
   47.1489   50.4744   46.4570 C   0  0  0  0  0  0  0  0  0  0  0  0
   42.8094   36.8580   39.9528 N   0  0  0  0  0  0  0  0  0  0  0  0
   43.9317   39.9624   40.8177 N   0  0  0  0  0  0  0  0  0  0  0  0
   49.2187   47.5603   43.7830 N   0  0  0  0  0  0  0  0  0  0  0  0
   47.2538   49.4364   45.6410 N   0  0  0  0  0  0  0  0  0  0  0  0
  1 17  2  0  0  0  0
  1 16  1  0  0  0  0
  2  3  2  0  0  0  0
  2 26  1  0  0  0  0
  3  4  1  0  0  0  0
  4  5  2  0  0  0  0
  5  6  1  0  0  0  0
  6  7  1  0  0  0  0
  6 26  2  0  0  0  0
  7 27  2  0  0  0  0
  8  9  2  0  0  0  0
  8 13  1  0  0  0  0
  8 27  1  0  0  0  0
  9 10  1  0  0  0  0
 10 11  2  0  0  0  0
 11 12  1  0  0  0  0
 11 14  1  0  0  0  0
 12 13  2  0  0  0  0
 14 15  1  0  0  0  0
 15 16  2  0  0  0  0
 15 19  1  0  0  0  0
 17 18  1  0  0  0  0
 17 28  1  0  0  0  0
 18 19  2  0  0  0  0
 20 21  1  0  0  0  0
 20 28  2  0  0  0  0
 21 22  2  0  0  0  0
 21 29  1  0  0  0  0
 22 23  1  0  0  0  0
 23 24  2  0  0  0  0
 24 25  1  0  0  0  0
 25 29  2  0  0  0  0
M  END
>  <CHROM.1>
39.55764223,-20.05697823,92.71599988,-60.46840783,-157.77523791,-87.62083639
46.31586188,43.54144283,42.15712059,-1.01949880,-0.51660585,-2.39287802

>  <Name>
ligand

>  <RI>
0

>  <Rbt.Current_Directory>
/home/itssahil/PROJECTS/Mol_Feturizer/New_Systems/rnas/4JIY

>  <Rbt.Executable>
rbdock ($Id: //depot/dev/client3/rdock/2013.1/src/exe/rbdock.cxx#4 $)

>  <Rbt.Library>
libRbt.so (2013.1, Build901 2013/11/27)

>  <Rbt.Parameter_File>
/export/apps/rDock/src/rDock_2013.1_src/data/scripts/dock_solv.prm

>  <Rbt.Receptor>
prm/pocket_docking_7.prm

>  <SCORE>
-7.36187

>  <SCORE.INTER>
-7.62905

>  <SCORE.INTER.CONST>
1

>  <SCORE.INTER.POLAR>
0

>  <SCORE.INTER.ROT>
6

>  <SCORE.INTER.SOLV>
2.79095

>  <SCORE.INTER.VDW>
-13.6164

>  <SCORE.INTER.norm>
-0.263071

>  <SCORE.INTRA>
0.267181

>  <SCORE.INTRA.DIHEDRAL>
0.0970152

>  <SCORE.INTRA.DIHEDRAL.0>
7.2424

>  <SCORE.INTRA.POLAR>
0

>  <SCORE.INTRA.POLAR.0>
0

>  <SCORE.INTRA.REPUL>
0

>  <SCORE.INTRA.REPUL.0>
0

>  <SCORE.INTRA.SOLV>
-0.0173085

>  <SCORE.INTRA.SOLV.lig_0>
-3.36201

>  <SCORE.INTRA.VDW>
0.227327

>  <SCORE.INTRA.VDW.0>
-0.910526

>  <SCORE.INTRA.norm>
0.00921312

>  <SCORE.RESTR>
0

>  <SCORE.RESTR.CAVITY>
0

>  <SCORE.RESTR.norm>
0

>  <SCORE.SYSTEM>
0

>  <SCORE.SYSTEM.CONST>
0

>  <SCORE.SYSTEM.DIHEDRAL>
0

>  <SCORE.SYSTEM.SOLV>
0

>  <SCORE.SYSTEM.norm>
0

>  <SCORE.heavy>
29

>  <SCORE.norm>
-0.253858

>  <RMSD>
5.654

$$$$
ligand
 OpenBabel11021811503D
libRbt.so/2013.1/901 2013/11/27
 29 32  0  0  0  0  0  0  0  0999 V2000
   45.9195   41.9558   43.1846 C   0  0  0  0  0  0  0  0  0  0  0  0
   36.0078   46.7537   39.8738 C   0  0  0  0  0  0  0  0  0  0  0  0
   34.9943   45.9487   40.4109 C   0  0  0  0  0  0  0  0  0  0  0  0
   35.2786   44.7317   40.9248 C   0  0  0  0  0  0  0  0  0  0  0  0
   36.5860   44.2711   40.8462 C   0  0  0  0  0  0  0  0  0  0  0  0
   37.5646   45.1023   40.3691 C   0  0  0  0  0  0  0  0  0  0  0  0
   38.9951   44.8056   40.3370 C   0  0  0  0  0  0  0  0  0  0  0  0
   40.7754   43.6406   39.3964 C   0  0  0  0  0  0  0  0  0  0  0  0
   41.1671   42.6399   40.2636 C   0  0  0  0  0  0  0  0  0  0  0  0
   42.5207   42.3073   40.3430 C   0  0  0  0  0  0  0  0  0  0  0  0
   43.4582   42.8718   39.5180 C   0  0  0  0  0  0  0  0  0  0  0  0
   43.0217   43.8846   38.6369 C   0  0  0  0  0  0  0  0  0  0  0  0
   41.6983   44.3103   38.6183 C   0  0  0  0  0  0  0  0  0  0  0  0
   44.9110   42.4010   39.5049 C   0  0  0  0  0  0  0  0  0  0  0  0
   45.6126   42.5719   40.8451 C   0  0  0  0  0  0  0  0  0  0  0  0
   45.3005   41.8249   41.9521 C   0  0  0  0  0  0  0  0  0  0  0  0
   46.9198   42.8860   43.2782 C   0  0  0  0  0  0  0  0  0  0  0  0
   47.2270   43.6289   42.1919 C   0  0  0  0  0  0  0  0  0  0  0  0
   46.5997   43.5087   40.9724 C   0  0  0  0  0  0  0  0  0  0  0  0
   46.9072   43.3909   45.5443 C   0  0  0  0  0  0  0  0  0  0  0  0
   47.5949   43.7023   46.7794 C   0  0  0  0  0  0  0  0  0  0  0  0
   48.6740   42.9820   47.3074 C   0  0  0  0  0  0  0  0  0  0  0  0
   49.2095   43.4016   48.5080 C   0  0  0  0  0  0  0  0  0  0  0  0
   48.6746   44.5304   49.1085 C   0  0  0  0  0  0  0  0  0  0  0  0
   47.5882   45.1842   48.5685 C   0  0  0  0  0  0  0  0  0  0  0  0
   37.2823   46.3285   39.8565 N   0  0  0  0  0  0  0  0  0  0  0  0
   39.3731   44.0323   39.3559 N   0  0  0  0  0  0  0  0  0  0  0  0
   47.6483   43.1054   44.5321 N   0  0  0  0  0  0  0  0  0  0  0  0
   47.0814   44.8036   47.4055 N   0  0  0  0  0  0  0  0  0  0  0  0
  1 17  2  0  0  0  0
  1 16  1  0  0  0  0
  2  3  2  0  0  0  0
  2 26  1  0  0  0  0
  3  4  1  0  0  0  0
  4  5  2  0  0  0  0
  5  6  1  0  0  0  0
  6  7  1  0  0  0  0
  6 26  2  0  0  0  0
  7 27  2  0  0  0  0
  8  9  2  0  0  0  0
  8 13  1  0  0  0  0
  8 27  1  0  0  0  0
  9 10  1  0  0  0  0
 10 11  2  0  0  0  0
 11 12  1  0  0  0  0
 11 14  1  0  0  0  0
 12 13  2  0  0  0  0
 14 15  1  0  0  0  0
 15 16  2  0  0  0  0
 15 19  1  0  0  0  0
 17 18  1  0  0  0  0
 17 28  1  0  0  0  0
 18 19  2  0  0  0  0
 20 21  1  0  0  0  0
 20 28  2  0  0  0  0
 21 22  2  0  0  0  0
 21 29  1  0  0  0  0
 22 23  1  0  0  0  0
 23 24  2  0  0  0  0
 24 25  1  0  0  0  0
 25 29  2  0  0  0  0
M  END
>  <CHROM.1>
79.34854517,-60.98098835,69.37301215,-44.86622392,78.15450884,-55.71985708
43.26005436,43.85438651,42.35651963,-0.49493341,0.30688673,-1.88040394

>  <Name>
ligand

>  <RI>
0

>  <Rbt.Current_Directory>
/home/itssahil/PROJECTS/Mol_Feturizer/New_Systems/rnas/4JIY

>  <Rbt.Executable>
rbdock ($Id: //depot/dev/client3/rdock/2013.1/src/exe/rbdock.cxx#4 $)

>  <Rbt.Library>
libRbt.so (2013.1, Build901 2013/11/27)

>  <Rbt.Parameter_File>
/export/apps/rDock/src/rDock_2013.1_src/data/scripts/dock_solv.prm

>  <Rbt.Receptor>
prm/pocket_docking_5.prm

>  <SCORE>
-0.624633

>  <SCORE.INTER>
-0.0191453

>  <SCORE.INTER.CONST>
1

>  <SCORE.INTER.POLAR>
0

>  <SCORE.INTER.ROT>
6

>  <SCORE.INTER.SOLV>
1.47553

>  <SCORE.INTER.VDW>
-8.10461

>  <SCORE.INTER.norm>
-0.000660182

>  <SCORE.INTRA>
-0.609318

>  <SCORE.INTRA.DIHEDRAL>
0.248015

>  <SCORE.INTRA.DIHEDRAL.0>
7.2424

>  <SCORE.INTRA.POLAR>
0

>  <SCORE.INTRA.POLAR.0>
0

>  <SCORE.INTRA.REPUL>
0

>  <SCORE.INTRA.REPUL.0>
0

>  <SCORE.INTRA.SOLV>
-0.0184781

>  <SCORE.INTRA.SOLV.lig_0>
-3.36201

>  <SCORE.INTRA.VDW>
-0.724086

>  <SCORE.INTRA.VDW.0>
-0.910526

>  <SCORE.INTRA.norm>
-0.021011

>  <SCORE.RESTR>
0.00383083

>  <SCORE.RESTR.CAVITY>
0.00383083

>  <SCORE.RESTR.norm>
0.000132098

>  <SCORE.SYSTEM>
0

>  <SCORE.SYSTEM.CONST>
0

>  <SCORE.SYSTEM.DIHEDRAL>
0

>  <SCORE.SYSTEM.SOLV>
0

>  <SCORE.SYSTEM.norm>
0

>  <SCORE.heavy>
29

>  <SCORE.norm>
-0.0215391

>  <RMSD>
5.660

$$$$
ligand
 OpenBabel11021811503D
libRbt.so/2013.1/901 2013/11/27
 29 32  0  0  0  0  0  0  0  0999 V2000
   42.2531   43.4590   38.7611 C   0  0  0  0  0  0  0  0  0  0  0  0
   47.5772   42.9507   49.0841 C   0  0  0  0  0  0  0  0  0  0  0  0
   48.5155   43.9590   49.3424 C   0  0  0  0  0  0  0  0  0  0  0  0
   49.2295   44.5118   48.3371 C   0  0  0  0  0  0  0  0  0  0  0  0
   49.0598   44.0102   47.0537 C   0  0  0  0  0  0  0  0  0  0  0  0
   48.0951   43.0657   46.8225 C   0  0  0  0  0  0  0  0  0  0  0  0
   47.7191   42.5325   45.5149 C   0  0  0  0  0  0  0  0  0  0  0  0
   46.4689   42.7212   43.5624 C   0  0  0  0  0  0  0  0  0  0  0  0
   45.3571   41.9026   43.5827 C   0  0  0  0  0  0  0  0  0  0  0  0
   44.9438   41.2961   42.3951 C   0  0  0  0  0  0  0  0  0  0  0  0
   45.5451   41.5648   41.1932 C   0  0  0  0  0  0  0  0  0  0  0  0
   46.6730   42.4135   41.2074 C   0  0  0  0  0  0  0  0  0  0  0  0
   47.1702   42.9410   42.3938 C   0  0  0  0  0  0  0  0  0  0  0  0
   44.9997   41.0161   39.8765 C   0  0  0  0  0  0  0  0  0  0  0  0
   43.6443   41.5961   39.4966 C   0  0  0  0  0  0  0  0  0  0  0  0
   43.4715   42.9013   39.1126 C   0  0  0  0  0  0  0  0  0  0  0  0
   41.1634   42.6303   38.7877 C   0  0  0  0  0  0  0  0  0  0  0  0
   41.3273   41.3449   39.1714 C   0  0  0  0  0  0  0  0  0  0  0  0
   42.5364   40.7967   39.5359 C   0  0  0  0  0  0  0  0  0  0  0  0
   39.2014   43.7258   39.3716 C   0  0  0  0  0  0  0  0  0  0  0  0
   37.8434   44.1370   39.0850 C   0  0  0  0  0  0  0  0  0  0  0  0
   37.4591   44.9813   38.0353 C   0  0  0  0  0  0  0  0  0  0  0  0
   36.1202   45.2904   37.9079 C   0  0  0  0  0  0  0  0  0  0  0  0
   35.2258   44.7235   38.8019 C   0  0  0  0  0  0  0  0  0  0  0  0
   35.6568   43.9275   39.8411 C   0  0  0  0  0  0  0  0  0  0  0  0
   47.3722   42.5119   47.8308 N   0  0  0  0  0  0  0  0  0  0  0  0
   46.9391   43.3063   44.8106 N   0  0  0  0  0  0  0  0  0  0  0  0
   39.8251   43.1113   38.4289 N   0  0  0  0  0  0  0  0  0  0  0  0
   36.9363   43.6061   39.9590 N   0  0  0  0  0  0  0  0  0  0  0  0
  1 17  2  0  0  0  0
  1 16  1  0  0  0  0
  2  3  2  0  0  0  0
  2 26  1  0  0  0  0
  3  4  1  0  0  0  0
  4  5  2  0  0  0  0
  5  6  1  0  0  0  0
  6  7  1  0  0  0  0
  6 26  2  0  0  0  0
  7 27  2  0  0  0  0
  8  9  2  0  0  0  0
  8 13  1  0  0  0  0
  8 27  1  0  0  0  0
  9 10  1  0  0  0  0
 10 11  2  0  0  0  0
 11 12  1  0  0  0  0
 11 14  1  0  0  0  0
 12 13  2  0  0  0  0
 14 15  1  0  0  0  0
 15 16  2  0  0  0  0
 15 19  1  0  0  0  0
 17 18  1  0  0  0  0
 17 28  1  0  0  0  0
 18 19  2  0  0  0  0
 20 21  1  0  0  0  0
 20 28  2  0  0  0  0
 21 22  2  0  0  0  0
 21 29  1  0  0  0  0
 22 23  1  0  0  0  0
 23 24  2  0  0  0  0
 24 25  1  0  0  0  0
 25 29  2  0  0  0  0
M  END
>  <CHROM.1>
-78.86913419,66.81871510,69.37549531,-58.22071565,84.16674033,-81.94044948
43.38627612,42.99041243,42.05081707,-2.54282044,-0.32972451,1.20970195

>  <Name>
ligand

>  <RI>
0

>  <Rbt.Current_Directory>
/home/itssahil/PROJECTS/Mol_Feturizer/New_Systems/rnas/4JIY

>  <Rbt.Executable>
rbdock ($Id: //depot/dev/client3/rdock/2013.1/src/exe/rbdock.cxx#4 $)

>  <Rbt.Library>
libRbt.so (2013.1, Build901 2013/11/27)

>  <Rbt.Parameter_File>
/export/apps/rDock/src/rDock_2013.1_src/data/scripts/dock_solv.prm

>  <Rbt.Receptor>
prm/pocket_docking_6.prm

>  <SCORE>
-5.49766

>  <SCORE.INTER>
-4.43975

>  <SCORE.INTER.CONST>
1

>  <SCORE.INTER.POLAR>
0

>  <SCORE.INTER.ROT>
6

>  <SCORE.INTER.SOLV>
1.81311

>  <SCORE.INTER.VDW>
-11.1642

>  <SCORE.INTER.norm>
-0.153095

>  <SCORE.INTRA>
-1.08139

>  <SCORE.INTRA.DIHEDRAL>
0.141682

>  <SCORE.INTRA.DIHEDRAL.0>
7.2424

>  <SCORE.INTRA.POLAR>
0

>  <SCORE.INTRA.POLAR.0>
0

>  <SCORE.INTRA.REPUL>
0

>  <SCORE.INTRA.REPUL.0>
0

>  <SCORE.INTRA.SOLV>
-0.0187118

>  <SCORE.INTRA.SOLV.lig_0>
-3.36201

>  <SCORE.INTRA.VDW>
-1.14287

>  <SCORE.INTRA.VDW.0>
-0.910526

>  <SCORE.INTRA.norm>
-0.0372891

>  <SCORE.RESTR>
0.0234732

>  <SCORE.RESTR.CAVITY>
0.0234732

>  <SCORE.RESTR.norm>
0.000809421

>  <SCORE.SYSTEM>
0

>  <SCORE.SYSTEM.CONST>
0

>  <SCORE.SYSTEM.DIHEDRAL>
0

>  <SCORE.SYSTEM.SOLV>
0

>  <SCORE.SYSTEM.norm>
0

>  <SCORE.heavy>
29

>  <SCORE.norm>
-0.189575

>  <RMSD>
5.686

$$$$
ligand
 OpenBabel11021811503D
libRbt.so/2013.1/901 2013/11/27
 29 32  0  0  0  0  0  0  0  0999 V2000
   41.1998   36.7033   42.1486 C   0  0  0  0  0  0  0  0  0  0  0  0
   49.0770   45.4786   39.0655 C   0  0  0  0  0  0  0  0  0  0  0  0
   50.4368   45.5056   39.4029 C   0  0  0  0  0  0  0  0  0  0  0  0
   50.8878   44.8655   40.5043 C   0  0  0  0  0  0  0  0  0  0  0  0
   49.9629   44.2388   41.3285 C   0  0  0  0  0  0  0  0  0  0  0  0
   48.6498   44.1795   40.9433 C   0  0  0  0  0  0  0  0  0  0  0  0
   47.5880   43.4568   41.6402 C   0  0  0  0  0  0  0  0  0  0  0  0
   45.9115   41.8445   41.6076 C   0  0  0  0  0  0  0  0  0  0  0  0
   45.7043   42.0549   42.9566 C   0  0  0  0  0  0  0  0  0  0  0  0
   44.6486   41.3949   43.5882 C   0  0  0  0  0  0  0  0  0  0  0  0
   43.7529   40.6241   42.8939 C   0  0  0  0  0  0  0  0  0  0  0  0
   43.9892   40.4380   41.5147 C   0  0  0  0  0  0  0  0  0  0  0  0
   45.0969   40.9953   40.8859 C   0  0  0  0  0  0  0  0  0  0  0  0
   42.5165   40.0244   43.5602 C   0  0  0  0  0  0  0  0  0  0  0  0
   41.7956   39.0057   42.6882 C   0  0  0  0  0  0  0  0  0  0  0  0
   41.8438   37.6552   42.9223 C   0  0  0  0  0  0  0  0  0  0  0  0
   40.4556   37.1633   41.0954 C   0  0  0  0  0  0  0  0  0  0  0  0
   40.4099   38.4927   40.8569 C   0  0  0  0  0  0  0  0  0  0  0  0
   41.0637   39.4360   41.6172 C   0  0  0  0  0  0  0  0  0  0  0  0
   40.2934   36.0211   39.0806 C   0  0  0  0  0  0  0  0  0  0  0  0
   39.5613   35.1922   38.1465 C   0  0  0  0  0  0  0  0  0  0  0  0
   38.6109   35.6556   37.2277 C   0  0  0  0  0  0  0  0  0  0  0  0
   37.9884   34.7301   36.4151 C   0  0  0  0  0  0  0  0  0  0  0  0
   38.3605   33.3998   36.5274 C   0  0  0  0  0  0  0  0  0  0  0  0
   39.2748   32.9875   37.4727 C   0  0  0  0  0  0  0  0  0  0  0  0
   48.1945   44.8178   39.8337 N   0  0  0  0  0  0  0  0  0  0  0  0
   47.0486   42.4830   40.9590 N   0  0  0  0  0  0  0  0  0  0  0  0
   39.7262   36.2463   40.2132 N   0  0  0  0  0  0  0  0  0  0  0  0
   39.8946   33.8700   38.2417 N   0  0  0  0  0  0  0  0  0  0  0  0
  1 17  2  0  0  0  0
  1 16  1  0  0  0  0
  2  3  2  0  0  0  0
  2 26  1  0  0  0  0
  3  4  1  0  0  0  0
  4  5  2  0  0  0  0
  5  6  1  0  0  0  0
  6  7  1  0  0  0  0
  6 26  2  0  0  0  0
  7 27  2  0  0  0  0
  8  9  2  0  0  0  0
  8 13  1  0  0  0  0
  8 27  1  0  0  0  0
  9 10  1  0  0  0  0
 10 11  2  0  0  0  0
 11 12  1  0  0  0  0
 11 14  1  0  0  0  0
 12 13  2  0  0  0  0
 14 15  1  0  0  0  0
 15 16  2  0  0  0  0
 15 19  1  0  0  0  0
 17 18  1  0  0  0  0
 17 28  1  0  0  0  0
 18 19  2  0  0  0  0
 20 21  1  0  0  0  0
 20 28  2  0  0  0  0
 21 22  2  0  0  0  0
 21 29  1  0  0  0  0
 22 23  1  0  0  0  0
 23 24  2  0  0  0  0
 24 25  1  0  0  0  0
 25 29  2  0  0  0  0
M  END
>  <CHROM.1>
-116.59903126,-169.56905942,106.35981378,87.13418929,-15.89809116,-101.88205176
43.58321404,39.61639056,40.52902272,2.76798072,-0.71143369,-1.86901597

>  <Name>
ligand

>  <RI>
0

>  <Rbt.Current_Directory>
/home/itssahil/PROJECTS/Mol_Feturizer/New_Systems/rnas/4JIY

>  <Rbt.Executable>
rbdock ($Id: //depot/dev/client3/rdock/2013.1/src/exe/rbdock.cxx#4 $)

>  <Rbt.Library>
libRbt.so (2013.1, Build901 2013/11/27)

>  <Rbt.Parameter_File>
/export/apps/rDock/src/rDock_2013.1_src/data/scripts/dock_solv.prm

>  <Rbt.Receptor>
prm/pocket_docking_6.prm

>  <SCORE>
-6.65004

>  <SCORE.INTER>
-7.60703

>  <SCORE.INTER.CONST>
1

>  <SCORE.INTER.POLAR>
0

>  <SCORE.INTER.ROT>
6

>  <SCORE.INTER.SOLV>
2.52964

>  <SCORE.INTER.VDW>
-13.5146

>  <SCORE.INTER.norm>
-0.262311

>  <SCORE.INTRA>
0.956992

>  <SCORE.INTRA.DIHEDRAL>
0.683952

>  <SCORE.INTRA.DIHEDRAL.0>
7.2424

>  <SCORE.INTRA.POLAR>
0

>  <SCORE.INTRA.POLAR.0>
0

>  <SCORE.INTRA.REPUL>
0

>  <SCORE.INTRA.REPUL.0>
0

>  <SCORE.INTRA.SOLV>
-0.0125877

>  <SCORE.INTRA.SOLV.lig_0>
-3.36201

>  <SCORE.INTRA.VDW>
0.62131

>  <SCORE.INTRA.VDW.0>
-0.910526

>  <SCORE.INTRA.norm>
0.0329997

>  <SCORE.RESTR>
0

>  <SCORE.RESTR.CAVITY>
0

>  <SCORE.RESTR.norm>
0

>  <SCORE.SYSTEM>
0

>  <SCORE.SYSTEM.CONST>
0

>  <SCORE.SYSTEM.DIHEDRAL>
0

>  <SCORE.SYSTEM.SOLV>
0

>  <SCORE.SYSTEM.norm>
0

>  <SCORE.heavy>
29

>  <SCORE.norm>
-0.229312

>  <RMSD>
5.688

$$$$
ligand
 OpenBabel11021811503D
libRbt.so/2013.1/901 2013/11/27
 29 32  0  0  0  0  0  0  0  0999 V2000
   46.3607   41.5195   39.0506 C   0  0  0  0  0  0  0  0  0  0  0  0
   34.8546   43.6037   38.9411 C   0  0  0  0  0  0  0  0  0  0  0  0
   33.8626   43.0873   39.7854 C   0  0  0  0  0  0  0  0  0  0  0  0
   34.1541   42.1186   40.6813 C   0  0  0  0  0  0  0  0  0  0  0  0
   35.4421   41.6009   40.6980 C   0  0  0  0  0  0  0  0  0  0  0  0
   36.4042   42.1645   39.9024 C   0  0  0  0  0  0  0  0  0  0  0  0
   37.8220   41.8108   39.8972 C   0  0  0  0  0  0  0  0  0  0  0  0
   39.4856   40.2222   39.5514 C   0  0  0  0  0  0  0  0  0  0  0  0
   39.8814   39.4454   40.6223 C   0  0  0  0  0  0  0  0  0  0  0  0
   41.2320   39.1181   40.7561 C   0  0  0  0  0  0  0  0  0  0  0  0
   42.1605   39.4587   39.8073 C   0  0  0  0  0  0  0  0  0  0  0  0
   41.7199   40.2447   38.7208 C   0  0  0  0  0  0  0  0  0  0  0  0
   40.4018   40.6762   38.6240 C   0  0  0  0  0  0  0  0  0  0  0  0
   43.6068   38.9738   39.8819 C   0  0  0  0  0  0  0  0  0  0  0  0
   44.6171   40.1060   40.0041 C   0  0  0  0  0  0  0  0  0  0  0  0
   45.4322   40.4943   38.9717 C   0  0  0  0  0  0  0  0  0  0  0  0
   46.4419   42.1895   40.2419 C   0  0  0  0  0  0  0  0  0  0  0  0
   45.6451   41.8068   41.2642 C   0  0  0  0  0  0  0  0  0  0  0  0
   44.7344   40.7772   41.1890 C   0  0  0  0  0  0  0  0  0  0  0  0
   48.5199   43.1479   39.8502 C   0  0  0  0  0  0  0  0  0  0  0  0
   49.5094   44.1765   40.0917 C   0  0  0  0  0  0  0  0  0  0  0  0
   50.1975   44.3692   41.2966 C   0  0  0  0  0  0  0  0  0  0  0  0
   51.1013   45.4095   41.3689 C   0  0  0  0  0  0  0  0  0  0  0  0
   51.3045   46.1846   40.2381 C   0  0  0  0  0  0  0  0  0  0  0  0
   50.5763   45.9788   39.0864 C   0  0  0  0  0  0  0  0  0  0  0  0
   36.1150   43.1423   39.0043 N   0  0  0  0  0  0  0  0  0  0  0  0
   38.0878   40.6167   39.4425 N   0  0  0  0  0  0  0  0  0  0  0  0
   47.3845   43.2962   40.4368 N   0  0  0  0  0  0  0  0  0  0  0  0
   49.7232   44.9693   38.9989 N   0  0  0  0  0  0  0  0  0  0  0  0
  1 17  2  0  0  0  0
  1 16  1  0  0  0  0
  2  3  2  0  0  0  0
  2 26  1  0  0  0  0
  3  4  1  0  0  0  0
  4  5  2  0  0  0  0
  5  6  1  0  0  0  0
  6  7  1  0  0  0  0
  6 26  2  0  0  0  0
  7 27  2  0  0  0  0
  8  9  2  0  0  0  0
  8 13  1  0  0  0  0
  8 27  1  0  0  0  0
  9 10  1  0  0  0  0
 10 11  2  0  0  0  0
 11 12  1  0  0  0  0
 11 14  1  0  0  0  0
 12 13  2  0  0  0  0
 14 15  1  0  0  0  0
 15 16  2  0  0  0  0
 15 19  1  0  0  0  0
 17 18  1  0  0  0  0
 17 28  1  0  0  0  0
 18 19  2  0  0  0  0
 20 21  1  0  0  0  0
 20 28  2  0  0  0  0
 21 22  2  0  0  0  0
 21 29  1  0  0  0  0
 22 23  1  0  0  0  0
 23 24  2  0  0  0  0
 24 25  1  0  0  0  0
 25 29  2  0  0  0  0
M  END
>  <CHROM.1>
67.96150101,-118.29191291,-106.62982025,71.54327270,97.24943707,-36.71228979
42.99314699,42.09834801,39.93374448,-0.18418760,0.03278865,3.11588027

>  <Name>
ligand

>  <RI>
0

>  <Rbt.Current_Directory>
/home/itssahil/PROJECTS/Mol_Feturizer/New_Systems/rnas/4JIY

>  <Rbt.Executable>
rbdock ($Id: //depot/dev/client3/rdock/2013.1/src/exe/rbdock.cxx#4 $)

>  <Rbt.Library>
libRbt.so (2013.1, Build901 2013/11/27)

>  <Rbt.Parameter_File>
/export/apps/rDock/src/rDock_2013.1_src/data/scripts/dock_solv.prm

>  <Rbt.Receptor>
prm/pocket_docking_7.prm

>  <SCORE>
-8.61885

>  <SCORE.INTER>
-8.14866

>  <SCORE.INTER.CONST>
1

>  <SCORE.INTER.POLAR>
0

>  <SCORE.INTER.ROT>
6

>  <SCORE.INTER.SOLV>
2.61611

>  <SCORE.INTER.VDW>
-13.9045

>  <SCORE.INTER.norm>
-0.280988

>  <SCORE.INTRA>
-0.470188

>  <SCORE.INTRA.DIHEDRAL>
0.139549

>  <SCORE.INTRA.DIHEDRAL.0>
7.2424

>  <SCORE.INTRA.POLAR>
0

>  <SCORE.INTRA.POLAR.0>
0

>  <SCORE.INTRA.REPUL>
0

>  <SCORE.INTRA.REPUL.0>
0

>  <SCORE.INTRA.SOLV>
-0.0178628

>  <SCORE.INTRA.SOLV.lig_0>
-3.36201

>  <SCORE.INTRA.VDW>
-0.531031

>  <SCORE.INTRA.VDW.0>
-0.910526

>  <SCORE.INTRA.norm>
-0.0162134

>  <SCORE.RESTR>
0

>  <SCORE.RESTR.CAVITY>
0

>  <SCORE.RESTR.norm>
0

>  <SCORE.SYSTEM>
0

>  <SCORE.SYSTEM.CONST>
0

>  <SCORE.SYSTEM.DIHEDRAL>
0

>  <SCORE.SYSTEM.SOLV>
0

>  <SCORE.SYSTEM.norm>
0

>  <SCORE.heavy>
29

>  <SCORE.norm>
-0.297202

>  <RMSD>
5.705

$$$$
ligand
 OpenBabel11021811503D
libRbt.so/2013.1/901 2013/11/27
 29 32  0  0  0  0  0  0  0  0999 V2000
   44.1784   41.2228   42.9715 C   0  0  0  0  0  0  0  0  0  0  0  0
   53.9671   44.2377   45.6777 C   0  0  0  0  0  0  0  0  0  0  0  0
   54.7173   45.3877   45.3979 C   0  0  0  0  0  0  0  0  0  0  0  0
   54.4886   46.1053   44.2759 C   0  0  0  0  0  0  0  0  0  0  0  0
   53.5406   45.6383   43.3757 C   0  0  0  0  0  0  0  0  0  0  0  0
   52.7832   44.5449   43.7028 C   0  0  0  0  0  0  0  0  0  0  0  0
   51.6728   44.0103   42.9176 C   0  0  0  0  0  0  0  0  0  0  0  0
   49.5756   44.3107   41.9568 C   0  0  0  0  0  0  0  0  0  0  0  0
   48.4505   44.0058   42.6971 C   0  0  0  0  0  0  0  0  0  0  0  0
   47.3616   43.4118   42.0563 C   0  0  0  0  0  0  0  0  0  0  0  0
   47.3351   43.2128   40.7006 C   0  0  0  0  0  0  0  0  0  0  0  0
   48.4984   43.5446   39.9731 C   0  0  0  0  0  0  0  0  0  0  0  0
   49.6356   44.0343   40.6057 C   0  0  0  0  0  0  0  0  0  0  0  0
   46.0879   42.7002   39.9836 C   0  0  0  0  0  0  0  0  0  0  0  0
   45.2322   41.7811   40.8443 C   0  0  0  0  0  0  0  0  0  0  0  0
   44.9528   42.0381   42.1621 C   0  0  0  0  0  0  0  0  0  0  0  0
   43.6510   40.0994   42.3931 C   0  0  0  0  0  0  0  0  0  0  0  0
   43.9284   39.8385   41.0965 C   0  0  0  0  0  0  0  0  0  0  0  0
   44.7114   40.6415   40.2982 C   0  0  0  0  0  0  0  0  0  0  0  0
   41.6585   38.9319   42.6320 C   0  0  0  0  0  0  0  0  0  0  0  0
   40.7656   38.0878   43.3973 C   0  0  0  0  0  0  0  0  0  0  0  0
   41.0435   36.7764   43.8039 C   0  0  0  0  0  0  0  0  0  0  0  0
   40.0757   36.0989   44.5170 C   0  0  0  0  0  0  0  0  0  0  0  0
   38.8973   36.7620   44.8214 C   0  0  0  0  0  0  0  0  0  0  0  0
   38.6552   38.0405   44.3673 C   0  0  0  0  0  0  0  0  0  0  0  0
   53.0075   43.8245   44.8327 N   0  0  0  0  0  0  0  0  0  0  0  0
   50.7361   44.8736   42.6335 N   0  0  0  0  0  0  0  0  0  0  0  0
   42.8109   39.1678   43.1531 N   0  0  0  0  0  0  0  0  0  0  0  0
   39.5860   38.7077   43.7020 N   0  0  0  0  0  0  0  0  0  0  0  0
  1 17  2  0  0  0  0
  1 16  1  0  0  0  0
  2  3  2  0  0  0  0
  2 26  1  0  0  0  0
  3  4  1  0  0  0  0
  4  5  2  0  0  0  0
  5  6  1  0  0  0  0
  6  7  1  0  0  0  0
  6 26  2  0  0  0  0
  7 27  2  0  0  0  0
  8  9  2  0  0  0  0
  8 13  1  0  0  0  0
  8 27  1  0  0  0  0
  9 10  1  0  0  0  0
 10 11  2  0  0  0  0
 11 12  1  0  0  0  0
 11 14  1  0  0  0  0
 12 13  2  0  0  0  0
 14 15  1  0  0  0  0
 15 16  2  0  0  0  0
 15 19  1  0  0  0  0
 17 18  1  0  0  0  0
 17 28  1  0  0  0  0
 18 19  2  0  0  0  0
 20 21  1  0  0  0  0
 20 28  2  0  0  0  0
 21 22  2  0  0  0  0
 21 29  1  0  0  0  0
 22 23  1  0  0  0  0
 23 24  2  0  0  0  0
 24 25  1  0  0  0  0
 25 29  2  0  0  0  0
M  END
>  <CHROM.1>
-54.42082011,-30.66160108,42.97631365,-58.63601959,98.65301536,125.30388560
46.61622301,41.79429470,42.79295241,2.94776042,0.47794280,1.99552649

>  <Name>
ligand

>  <RI>
0

>  <Rbt.Current_Directory>
/home/itssahil/PROJECTS/Mol_Feturizer/New_Systems/rnas/4JIY

>  <Rbt.Executable>
rbdock ($Id: //depot/dev/client3/rdock/2013.1/src/exe/rbdock.cxx#4 $)

>  <Rbt.Library>
libRbt.so (2013.1, Build901 2013/11/27)

>  <Rbt.Parameter_File>
/export/apps/rDock/src/rDock_2013.1_src/data/scripts/dock_solv.prm

>  <Rbt.Receptor>
prm/pocket_docking_6.prm

>  <SCORE>
-9.50089

>  <SCORE.INTER>
-9.63198

>  <SCORE.INTER.CONST>
1

>  <SCORE.INTER.POLAR>
0

>  <SCORE.INTER.ROT>
6

>  <SCORE.INTER.SOLV>
3.20178

>  <SCORE.INTER.VDW>
-15.0886

>  <SCORE.INTER.norm>
-0.332137

>  <SCORE.INTRA>
0.131088

>  <SCORE.INTRA.DIHEDRAL>
-0.0426416

>  <SCORE.INTRA.DIHEDRAL.0>
7.2424

>  <SCORE.INTRA.POLAR>
0

>  <SCORE.INTRA.POLAR.0>
0

>  <SCORE.INTRA.REPUL>
0

>  <SCORE.INTRA.REPUL.0>
0

>  <SCORE.INTRA.SOLV>
-0.0193849

>  <SCORE.INTRA.SOLV.lig_0>
-3.36201

>  <SCORE.INTRA.VDW>
0.162101

>  <SCORE.INTRA.VDW.0>
-0.910526

>  <SCORE.INTRA.norm>
0.00452027

>  <SCORE.RESTR>
0

>  <SCORE.RESTR.CAVITY>
0

>  <SCORE.RESTR.norm>
0

>  <SCORE.SYSTEM>
0

>  <SCORE.SYSTEM.CONST>
0

>  <SCORE.SYSTEM.DIHEDRAL>
0

>  <SCORE.SYSTEM.SOLV>
0

>  <SCORE.SYSTEM.norm>
0

>  <SCORE.heavy>
29

>  <SCORE.norm>
-0.327617

>  <RMSD>
5.750

$$$$
ligand
 OpenBabel11021811503D
libRbt.so/2013.1/901 2013/11/27
 29 32  0  0  0  0  0  0  0  0999 V2000
   41.6073   36.6092   43.1647 C   0  0  0  0  0  0  0  0  0  0  0  0
   50.9192   44.7799   41.3963 C   0  0  0  0  0  0  0  0  0  0  0  0
   50.8811   45.3972   40.1388 C   0  0  0  0  0  0  0  0  0  0  0  0
   49.7433   45.4096   39.4099 C   0  0  0  0  0  0  0  0  0  0  0  0
   48.6341   44.7384   39.9063 C   0  0  0  0  0  0  0  0  0  0  0  0
   48.6834   44.1944   41.1625 C   0  0  0  0  0  0  0  0  0  0  0  0
   47.5664   43.5661   41.8645 C   0  0  0  0  0  0  0  0  0  0  0  0
   45.9631   41.8840   41.9711 C   0  0  0  0  0  0  0  0  0  0  0  0
   45.7699   42.0714   43.3255 C   0  0  0  0  0  0  0  0  0  0  0  0
   44.6609   41.4834   43.9367 C   0  0  0  0  0  0  0  0  0  0  0  0
   43.7063   40.8107   43.2194 C   0  0  0  0  0  0  0  0  0  0  0  0
   43.9306   40.6460   41.8355 C   0  0  0  0  0  0  0  0  0  0  0  0
   45.0829   41.1271   41.2242 C   0  0  0  0  0  0  0  0  0  0  0  0
   42.4222   40.2969   43.8669 C   0  0  0  0  0  0  0  0  0  0  0  0
   41.8819   39.0319   43.2146 C   0  0  0  0  0  0  0  0  0  0  0  0
   42.0851   37.7787   43.7334 C   0  0  0  0  0  0  0  0  0  0  0  0
   40.8698   36.7359   42.0181 C   0  0  0  0  0  0  0  0  0  0  0  0
   40.6719   37.9681   41.4995 C   0  0  0  0  0  0  0  0  0  0  0  0
   41.1612   39.1277   42.0572 C   0  0  0  0  0  0  0  0  0  0  0  0
   40.9232   35.2253   40.2559 C   0  0  0  0  0  0  0  0  0  0  0  0
   40.3467   34.1309   39.5040 C   0  0  0  0  0  0  0  0  0  0  0  0
   40.3305   32.7907   39.9111 C   0  0  0  0  0  0  0  0  0  0  0  0
   39.7535   31.8630   39.0680 C   0  0  0  0  0  0  0  0  0  0  0  0
   39.1919   32.3105   37.8826 C   0  0  0  0  0  0  0  0  0  0  0  0
   39.2653   33.6349   37.5086 C   0  0  0  0  0  0  0  0  0  0  0  0
   49.8246   44.1850   41.8998 N   0  0  0  0  0  0  0  0  0  0  0  0
   47.1514   42.4443   41.3423 N   0  0  0  0  0  0  0  0  0  0  0  0
   40.3089   35.5662   41.3337 N   0  0  0  0  0  0  0  0  0  0  0  0
   39.7964   34.5368   38.3204 N   0  0  0  0  0  0  0  0  0  0  0  0
  1 17  2  0  0  0  0
  1 16  1  0  0  0  0
  2  3  2  0  0  0  0
  2 26  1  0  0  0  0
  3  4  1  0  0  0  0
  4  5  2  0  0  0  0
  5  6  1  0  0  0  0
  6  7  1  0  0  0  0
  6 26  2  0  0  0  0
  7 27  2  0  0  0  0
  8  9  2  0  0  0  0
  8 13  1  0  0  0  0
  8 27  1  0  0  0  0
  9 10  1  0  0  0  0
 10 11  2  0  0  0  0
 11 12  1  0  0  0  0
 11 14  1  0  0  0  0
 12 13  2  0  0  0  0
 14 15  1  0  0  0  0
 15 16  2  0  0  0  0
 15 19  1  0  0  0  0
 17 18  1  0  0  0  0
 17 28  1  0  0  0  0
 18 19  2  0  0  0  0
 20 21  1  0  0  0  0
 20 28  2  0  0  0  0
 21 22  2  0  0  0  0
 21 29  1  0  0  0  0
 22 23  1  0  0  0  0
 23 24  2  0  0  0  0
 24 25  1  0  0  0  0
 25 29  2  0  0  0  0
M  END
>  <CHROM.1>
67.45657211,-149.26323223,99.52920088,-69.80893779,-32.89290900,-105.00948232
43.90296488,39.32498974,41.24264373,2.61949835,-0.70629500,-2.15211505

>  <Name>
ligand

>  <RI>
0

>  <Rbt.Current_Directory>
/home/itssahil/PROJECTS/Mol_Feturizer/New_Systems/rnas/4JIY

>  <Rbt.Executable>
rbdock ($Id: //depot/dev/client3/rdock/2013.1/src/exe/rbdock.cxx#4 $)

>  <Rbt.Library>
libRbt.so (2013.1, Build901 2013/11/27)

>  <Rbt.Parameter_File>
/export/apps/rDock/src/rDock_2013.1_src/data/scripts/dock_solv.prm

>  <Rbt.Receptor>
prm/pocket_docking_6.prm

>  <SCORE>
-7.76296

>  <SCORE.INTER>
-7.81361

>  <SCORE.INTER.CONST>
1

>  <SCORE.INTER.POLAR>
0

>  <SCORE.INTER.ROT>
6

>  <SCORE.INTER.SOLV>
2.49571

>  <SCORE.INTER.VDW>
-13.641

>  <SCORE.INTER.norm>
-0.269435

>  <SCORE.INTRA>
0.0506476

>  <SCORE.INTRA.DIHEDRAL>
0.00375356

>  <SCORE.INTRA.DIHEDRAL.0>
7.2424

>  <SCORE.INTRA.POLAR>
0

>  <SCORE.INTRA.POLAR.0>
0

>  <SCORE.INTRA.REPUL>
0

>  <SCORE.INTRA.REPUL.0>
0

>  <SCORE.INTRA.SOLV>
-0.0173827

>  <SCORE.INTRA.SOLV.lig_0>
-3.36201

>  <SCORE.INTRA.VDW>
0.0574622

>  <SCORE.INTRA.VDW.0>
-0.910526

>  <SCORE.INTRA.norm>
0.00174647

>  <SCORE.RESTR>
0

>  <SCORE.RESTR.CAVITY>
0

>  <SCORE.RESTR.norm>
0

>  <SCORE.SYSTEM>
0

>  <SCORE.SYSTEM.CONST>
0

>  <SCORE.SYSTEM.DIHEDRAL>
0

>  <SCORE.SYSTEM.SOLV>
0

>  <SCORE.SYSTEM.norm>
0

>  <SCORE.heavy>
29

>  <SCORE.norm>
-0.267688

>  <RMSD>
5.752

$$$$
ligand
 OpenBabel11021811503D
libRbt.so/2013.1/901 2013/11/27
 29 32  0  0  0  0  0  0  0  0999 V2000
   41.6905   36.6936   43.2281 C   0  0  0  0  0  0  0  0  0  0  0  0
   50.8130   44.4721   40.4074 C   0  0  0  0  0  0  0  0  0  0  0  0
   50.7955   45.5204   39.4777 C   0  0  0  0  0  0  0  0  0  0  0  0
   49.6273   46.0707   39.0795 C   0  0  0  0  0  0  0  0  0  0  0  0
   48.4439   45.5278   39.5614 C   0  0  0  0  0  0  0  0  0  0  0  0
   48.4935   44.5429   40.5120 C   0  0  0  0  0  0  0  0  0  0  0  0
   47.3421   43.9603   41.1978 C   0  0  0  0  0  0  0  0  0  0  0  0
   46.1493   42.0744   41.8547 C   0  0  0  0  0  0  0  0  0  0  0  0
   45.8938   42.2540   43.1998 C   0  0  0  0  0  0  0  0  0  0  0  0
   44.7700   41.6444   43.7606 C   0  0  0  0  0  0  0  0  0  0  0  0
   43.8599   40.9568   43.0008 C   0  0  0  0  0  0  0  0  0  0  0  0
   44.1473   40.8005   41.6276 C   0  0  0  0  0  0  0  0  0  0  0  0
   45.3163   41.3042   41.0683 C   0  0  0  0  0  0  0  0  0  0  0  0
   42.5583   40.4180   43.5904 C   0  0  0  0  0  0  0  0  0  0  0  0
   42.1364   39.0802   42.9989 C   0  0  0  0  0  0  0  0  0  0  0  0
   42.0702   37.9254   43.7358 C   0  0  0  0  0  0  0  0  0  0  0  0
   41.3443   36.6509   41.9040 C   0  0  0  0  0  0  0  0  0  0  0  0
   41.4136   37.7849   41.1721 C   0  0  0  0  0  0  0  0  0  0  0  0
   41.8068   39.0048   41.6746 C   0  0  0  0  0  0  0  0  0  0  0  0
   39.7378   35.0066   41.5791 C   0  0  0  0  0  0  0  0  0  0  0  0
   39.3172   33.7324   41.0361 C   0  0  0  0  0  0  0  0  0  0  0  0
   40.0774   32.5559   41.0532 C   0  0  0  0  0  0  0  0  0  0  0  0
   39.5361   31.4248   40.4771 C   0  0  0  0  0  0  0  0  0  0  0  0
   38.2592   31.5042   39.9442 C   0  0  0  0  0  0  0  0  0  0  0  0
   37.5650   32.6945   39.9183 C   0  0  0  0  0  0  0  0  0  0  0  0
   49.6669   43.9914   40.9182 N   0  0  0  0  0  0  0  0  0  0  0  0
   47.3536   42.6578   41.2797 N   0  0  0  0  0  0  0  0  0  0  0  0
   40.9203   35.4023   41.2620 N   0  0  0  0  0  0  0  0  0  0  0  0
   38.0656   33.7800   40.4886 N   0  0  0  0  0  0  0  0  0  0  0  0
  1 17  2  0  0  0  0
  1 16  1  0  0  0  0
  2  3  2  0  0  0  0
  2 26  1  0  0  0  0
  3  4  1  0  0  0  0
  4  5  2  0  0  0  0
  5  6  1  0  0  0  0
  6  7  1  0  0  0  0
  6 26  2  0  0  0  0
  7 27  2  0  0  0  0
  8  9  2  0  0  0  0
  8 13  1  0  0  0  0
  8 27  1  0  0  0  0
  9 10  1  0  0  0  0
 10 11  2  0  0  0  0
 11 12  1  0  0  0  0
 11 14  1  0  0  0  0
 12 13  2  0  0  0  0
 14 15  1  0  0  0  0
 15 16  2  0  0  0  0
 15 19  1  0  0  0  0
 17 18  1  0  0  0  0
 17 28  1  0  0  0  0
 18 19  2  0  0  0  0
 20 21  1  0  0  0  0
 20 28  2  0  0  0  0
 21 22  2  0  0  0  0
 21 29  1  0  0  0  0
 22 23  1  0  0  0  0
 23 24  2  0  0  0  0
 24 25  1  0  0  0  0
 25 29  2  0  0  0  0
M  END
>  <CHROM.1>
134.46574649,-144.03907691,115.35907313,47.46726738,-69.90817573,73.79936186
43.76176741,39.29091500,41.41662515,2.66665063,-0.73526371,-2.25721098

>  <Name>
ligand

>  <RI>
0

>  <Rbt.Current_Directory>
/home/itssahil/PROJECTS/Mol_Feturizer/New_Systems/rnas/4JIY

>  <Rbt.Executable>
rbdock ($Id: //depot/dev/client3/rdock/2013.1/src/exe/rbdock.cxx#4 $)

>  <Rbt.Library>
libRbt.so (2013.1, Build901 2013/11/27)

>  <Rbt.Parameter_File>
/export/apps/rDock/src/rDock_2013.1_src/data/scripts/dock_solv.prm

>  <Rbt.Receptor>
prm/pocket_docking_6.prm

>  <SCORE>
-8.33048

>  <SCORE.INTER>
-8.03595

>  <SCORE.INTER.CONST>
1

>  <SCORE.INTER.POLAR>
0

>  <SCORE.INTER.ROT>
6

>  <SCORE.INTER.SOLV>
2.64458

>  <SCORE.INTER.VDW>
-13.8388

>  <SCORE.INTER.norm>
-0.277102

>  <SCORE.INTRA>
-0.30149

>  <SCORE.INTRA.DIHEDRAL>
0.326195

>  <SCORE.INTRA.DIHEDRAL.0>
7.2424

>  <SCORE.INTRA.POLAR>
0

>  <SCORE.INTRA.POLAR.0>
0

>  <SCORE.INTRA.REPUL>
0

>  <SCORE.INTRA.REPUL.0>
0

>  <SCORE.INTRA.SOLV>
-0.0155119

>  <SCORE.INTRA.SOLV.lig_0>
-3.36201

>  <SCORE.INTRA.VDW>
-0.456831

>  <SCORE.INTRA.VDW.0>
-0.910526

>  <SCORE.INTRA.norm>
-0.0103962

>  <SCORE.RESTR>
0.00696697

>  <SCORE.RESTR.CAVITY>
0.00696697

>  <SCORE.RESTR.norm>
0.00024024

>  <SCORE.SYSTEM>
0

>  <SCORE.SYSTEM.CONST>
0

>  <SCORE.SYSTEM.DIHEDRAL>
0

>  <SCORE.SYSTEM.SOLV>
0

>  <SCORE.SYSTEM.norm>
0

>  <SCORE.heavy>
29

>  <SCORE.norm>
-0.287258

>  <RMSD>
5.759

$$$$
ligand
 OpenBabel11021811503D
libRbt.so/2013.1/901 2013/11/27
 29 32  0  0  0  0  0  0  0  0999 V2000
   47.4844   43.3614   42.4465 C   0  0  0  0  0  0  0  0  0  0  0  0
   36.4622   47.0185   41.1792 C   0  0  0  0  0  0  0  0  0  0  0  0
   36.0175   47.5549   39.9634 C   0  0  0  0  0  0  0  0  0  0  0  0
   36.7901   47.4905   38.8566 C   0  0  0  0  0  0  0  0  0  0  0  0
   38.0603   46.9418   38.9694 C   0  0  0  0  0  0  0  0  0  0  0  0
   38.4451   46.3740   40.1550 C   0  0  0  0  0  0  0  0  0  0  0  0
   39.6958   45.6560   40.3910 C   0  0  0  0  0  0  0  0  0  0  0  0
   41.0286   43.7857   40.0214 C   0  0  0  0  0  0  0  0  0  0  0  0
   40.9937   42.9262   41.1017 C   0  0  0  0  0  0  0  0  0  0  0  0
   42.1528   42.2290   41.4472 C   0  0  0  0  0  0  0  0  0  0  0  0
   43.2938   42.2941   40.6907 C   0  0  0  0  0  0  0  0  0  0  0  0
   43.2917   43.1752   39.5878 C   0  0  0  0  0  0  0  0  0  0  0  0
   42.1857   43.9631   39.2897 C   0  0  0  0  0  0  0  0  0  0  0  0
   44.5098   41.4187   40.9860 C   0  0  0  0  0  0  0  0  0  0  0  0
   45.4835   42.0510   41.9707 C   0  0  0  0  0  0  0  0  0  0  0  0
   46.5803   42.7739   41.5765 C   0  0  0  0  0  0  0  0  0  0  0  0
   47.2387   43.2144   43.7854 C   0  0  0  0  0  0  0  0  0  0  0  0
   46.1626   42.4979   44.1790 C   0  0  0  0  0  0  0  0  0  0  0  0
   45.2743   41.9011   43.3130 C   0  0  0  0  0  0  0  0  0  0  0  0
   47.7051   44.9013   45.3109 C   0  0  0  0  0  0  0  0  0  0  0  0
   48.5938   45.5560   46.2473 C   0  0  0  0  0  0  0  0  0  0  0  0
   48.8369   46.9345   46.3023 C   0  0  0  0  0  0  0  0  0  0  0  0
   49.7278   47.3995   47.2480 C   0  0  0  0  0  0  0  0  0  0  0  0
   50.3068   46.4843   48.1128 C   0  0  0  0  0  0  0  0  0  0  0  0
   50.0640   45.1328   47.9955 C   0  0  0  0  0  0  0  0  0  0  0  0
   37.6682   46.4326   41.2681 N   0  0  0  0  0  0  0  0  0  0  0  0
   39.8393   44.5608   39.6958 N   0  0  0  0  0  0  0  0  0  0  0  0
   48.1254   43.7994   44.7967 N   0  0  0  0  0  0  0  0  0  0  0  0
   49.1936   44.6783   47.1066 N   0  0  0  0  0  0  0  0  0  0  0  0
  1 17  2  0  0  0  0
  1 16  1  0  0  0  0
  2  3  2  0  0  0  0
  2 26  1  0  0  0  0
  3  4  1  0  0  0  0
  4  5  2  0  0  0  0
  5  6  1  0  0  0  0
  6  7  1  0  0  0  0
  6 26  2  0  0  0  0
  7 27  2  0  0  0  0
  8  9  2  0  0  0  0
  8 13  1  0  0  0  0
  8 27  1  0  0  0  0
  9 10  1  0  0  0  0
 10 11  2  0  0  0  0
 11 12  1  0  0  0  0
 11 14  1  0  0  0  0
 12 13  2  0  0  0  0
 14 15  1  0  0  0  0
 15 16  2  0  0  0  0
 15 19  1  0  0  0  0
 17 18  1  0  0  0  0
 17 28  1  0  0  0  0
 18 19  2  0  0  0  0
 20 21  1  0  0  0  0
 20 28  2  0  0  0  0
 21 22  2  0  0  0  0
 21 29  1  0  0  0  0
 22 23  1  0  0  0  0
 23 24  2  0  0  0  0
 24 25  1  0  0  0  0
 25 29  2  0  0  0  0
M  END
>  <CHROM.1>
-63.58400992,-88.94335004,-94.71222206,138.15665381,82.78727520,100.28150615
43.83507144,44.56215780,42.55917967,-0.23548564,0.48625897,-2.52039078

>  <Name>
ligand

>  <RI>
0

>  <Rbt.Current_Directory>
/home/itssahil/PROJECTS/Mol_Feturizer/New_Systems/rnas/4JIY

>  <Rbt.Executable>
rbdock ($Id: //depot/dev/client3/rdock/2013.1/src/exe/rbdock.cxx#4 $)

>  <Rbt.Library>
libRbt.so (2013.1, Build901 2013/11/27)

>  <Rbt.Parameter_File>
/export/apps/rDock/src/rDock_2013.1_src/data/scripts/dock_solv.prm

>  <Rbt.Receptor>
prm/pocket_docking_5.prm

>  <SCORE>
-0.0315019

>  <SCORE.INTER>
0.678194

>  <SCORE.INTER.CONST>
1

>  <SCORE.INTER.POLAR>
0

>  <SCORE.INTER.ROT>
6

>  <SCORE.INTER.SOLV>
0.74101

>  <SCORE.INTER.VDW>
-7.39487

>  <SCORE.INTER.norm>
0.023386

>  <SCORE.INTRA>
-0.712387

>  <SCORE.INTRA.DIHEDRAL>
0.589032

>  <SCORE.INTRA.DIHEDRAL.0>
7.2424

>  <SCORE.INTRA.POLAR>
0

>  <SCORE.INTRA.POLAR.0>
0

>  <SCORE.INTRA.REPUL>
0

>  <SCORE.INTRA.REPUL.0>
0

>  <SCORE.INTRA.SOLV>
-0.0150655

>  <SCORE.INTRA.SOLV.lig_0>
-3.36201

>  <SCORE.INTRA.VDW>
-0.99937

>  <SCORE.INTRA.VDW.0>
-0.910526

>  <SCORE.INTRA.norm>
-0.0245651

>  <SCORE.RESTR>
0.00269059

>  <SCORE.RESTR.CAVITY>
0.00269059

>  <SCORE.RESTR.norm>
9.27788e-05

>  <SCORE.SYSTEM>
0

>  <SCORE.SYSTEM.CONST>
0

>  <SCORE.SYSTEM.DIHEDRAL>
0

>  <SCORE.SYSTEM.SOLV>
0

>  <SCORE.SYSTEM.norm>
0

>  <SCORE.heavy>
29

>  <SCORE.norm>
-0.00108627

>  <RMSD>
5.765

$$$$
ligand
 OpenBabel11021811503D
libRbt.so/2013.1/901 2013/11/27
 29 32  0  0  0  0  0  0  0  0999 V2000
   42.6049   43.7871   38.7956 C   0  0  0  0  0  0  0  0  0  0  0  0
   52.5473   44.6807   45.5976 C   0  0  0  0  0  0  0  0  0  0  0  0
   52.7088   46.0687   45.7027 C   0  0  0  0  0  0  0  0  0  0  0  0
   51.8924   46.9115   45.0325 C   0  0  0  0  0  0  0  0  0  0  0  0
   50.9352   46.3692   44.1858 C   0  0  0  0  0  0  0  0  0  0  0  0
   50.7627   45.0109   44.1476 C   0  0  0  0  0  0  0  0  0  0  0  0
   49.7239   44.3034   43.4022 C   0  0  0  0  0  0  0  0  0  0  0  0
   47.4797   43.7552   43.1291 C   0  0  0  0  0  0  0  0  0  0  0  0
   47.2197   43.9765   41.7910 C   0  0  0  0  0  0  0  0  0  0  0  0
   46.1980   43.2529   41.1734 C   0  0  0  0  0  0  0  0  0  0  0  0
   45.5123   42.2612   41.8251 C   0  0  0  0  0  0  0  0  0  0  0  0
   45.8100   42.0551   43.1895 C   0  0  0  0  0  0  0  0  0  0  0  0
   46.7459   42.8387   43.8550 C   0  0  0  0  0  0  0  0  0  0  0  0
   44.4993   41.3728   41.1061 C   0  0  0  0  0  0  0  0  0  0  0  0
   43.3797   42.1559   40.4345 C   0  0  0  0  0  0  0  0  0  0  0  0
   43.6007   43.0594   39.4266 C   0  0  0  0  0  0  0  0  0  0  0  0
   41.3189   43.5612   39.2076 C   0  0  0  0  0  0  0  0  0  0  0  0
   41.0964   42.6764   40.2046 C   0  0  0  0  0  0  0  0  0  0  0  0
   42.0889   41.9662   40.8416 C   0  0  0  0  0  0  0  0  0  0  0  0
   39.4659   44.9414   39.4351 C   0  0  0  0  0  0  0  0  0  0  0  0
   38.2861   45.5821   38.8939 C   0  0  0  0  0  0  0  0  0  0  0  0
   37.1291   44.9175   38.4673 C   0  0  0  0  0  0  0  0  0  0  0  0
   36.0945   45.6762   37.9593 C   0  0  0  0  0  0  0  0  0  0  0  0
   36.2414   47.0541   37.9301 C   0  0  0  0  0  0  0  0  0  0  0  0
   37.4139   47.6595   38.3273 C   0  0  0  0  0  0  0  0  0  0  0  0
   51.5787   44.1612   44.8246 N   0  0  0  0  0  0  0  0  0  0  0  0
   48.5033   44.5520   43.7916 N   0  0  0  0  0  0  0  0  0  0  0  0
   40.1849   44.2704   38.6056 N   0  0  0  0  0  0  0  0  0  0  0  0
   38.4041   46.9428   38.8376 N   0  0  0  0  0  0  0  0  0  0  0  0
  1 17  2  0  0  0  0
  1 16  1  0  0  0  0
  2  3  2  0  0  0  0
  2 26  1  0  0  0  0
  3  4  1  0  0  0  0
  4  5  2  0  0  0  0
  5  6  1  0  0  0  0
  6  7  1  0  0  0  0
  6 26  2  0  0  0  0
  7 27  2  0  0  0  0
  8  9  2  0  0  0  0
  8 13  1  0  0  0  0
  8 27  1  0  0  0  0
  9 10  1  0  0  0  0
 10 11  2  0  0  0  0
 11 12  1  0  0  0  0
 11 14  1  0  0  0  0
 12 13  2  0  0  0  0
 14 15  1  0  0  0  0
 15 16  2  0  0  0  0
 15 19  1  0  0  0  0
 17 18  1  0  0  0  0
 17 28  1  0  0  0  0
 18 19  2  0  0  0  0
 20 21  1  0  0  0  0
 20 28  2  0  0  0  0
 21 22  2  0  0  0  0
 21 29  1  0  0  0  0
 22 23  1  0  0  0  0
 23 24  2  0  0  0  0
 24 25  1  0  0  0  0
 25 29  2  0  0  0  0
M  END
>  <CHROM.1>
-63.83253941,-57.06707383,62.13464895,70.90605697,-68.97385351,-122.30327219
44.46846135,44.33786724,41.38501544,3.13774784,-0.44194690,0.07824484

>  <Name>
ligand

>  <RI>
0

>  <Rbt.Current_Directory>
/home/itssahil/PROJECTS/Mol_Feturizer/New_Systems/rnas/4JIY

>  <Rbt.Executable>
rbdock ($Id: //depot/dev/client3/rdock/2013.1/src/exe/rbdock.cxx#4 $)

>  <Rbt.Library>
libRbt.so (2013.1, Build901 2013/11/27)

>  <Rbt.Parameter_File>
/export/apps/rDock/src/rDock_2013.1_src/data/scripts/dock_solv.prm

>  <Rbt.Receptor>
prm/pocket_docking_5.prm

>  <SCORE>
-0.909032

>  <SCORE.INTER>
-0.356601

>  <SCORE.INTER.CONST>
1

>  <SCORE.INTER.POLAR>
0

>  <SCORE.INTER.ROT>
6

>  <SCORE.INTER.SOLV>
1.26552

>  <SCORE.INTER.VDW>
-8.25957

>  <SCORE.INTER.norm>
-0.0122966

>  <SCORE.INTRA>
-0.584754

>  <SCORE.INTRA.DIHEDRAL>
0.000275451

>  <SCORE.INTRA.DIHEDRAL.0>
7.2424

>  <SCORE.INTRA.POLAR>
0

>  <SCORE.INTRA.POLAR.0>
0

>  <SCORE.INTRA.REPUL>
0

>  <SCORE.INTRA.REPUL.0>
0

>  <SCORE.INTRA.SOLV>
-0.019757

>  <SCORE.INTRA.SOLV.lig_0>
-3.36201

>  <SCORE.INTRA.VDW>
-0.575013

>  <SCORE.INTRA.VDW.0>
-0.910526

>  <SCORE.INTRA.norm>
-0.0201639

>  <SCORE.RESTR>
0.0323224

>  <SCORE.RESTR.CAVITY>
0.0323224

>  <SCORE.RESTR.norm>
0.00111456

>  <SCORE.SYSTEM>
0

>  <SCORE.SYSTEM.CONST>
0

>  <SCORE.SYSTEM.DIHEDRAL>
0

>  <SCORE.SYSTEM.SOLV>
0

>  <SCORE.SYSTEM.norm>
0

>  <SCORE.heavy>
29

>  <SCORE.norm>
-0.0313459

>  <RMSD>
5.802

$$$$
ligand
 OpenBabel11021811503D
libRbt.so/2013.1/901 2013/11/27
 29 32  0  0  0  0  0  0  0  0999 V2000
   47.0460   44.0503   40.2172 C   0  0  0  0  0  0  0  0  0  0  0  0
   39.8368   37.9928   47.0394 C   0  0  0  0  0  0  0  0  0  0  0  0
   39.3727   36.6721   47.1000 C   0  0  0  0  0  0  0  0  0  0  0  0
   39.3702   35.8898   45.9981 C   0  0  0  0  0  0  0  0  0  0  0  0
   39.7744   36.4468   44.7924 C   0  0  0  0  0  0  0  0  0  0  0  0
   40.2769   37.7209   44.7747 C   0  0  0  0  0  0  0  0  0  0  0  0
   40.8493   38.3962   43.6121 C   0  0  0  0  0  0  0  0  0  0  0  0
   42.7134   39.2437   42.5084 C   0  0  0  0  0  0  0  0  0  0  0  0
   42.5129   38.8151   41.2111 C   0  0  0  0  0  0  0  0  0  0  0  0
   43.1011   39.5297   40.1658 C   0  0  0  0  0  0  0  0  0  0  0  0
   43.7872   40.6970   40.3780 C   0  0  0  0  0  0  0  0  0  0  0  0
   43.9651   41.1111   41.7158 C   0  0  0  0  0  0  0  0  0  0  0  0
   43.4834   40.3568   42.7797 C   0  0  0  0  0  0  0  0  0  0  0  0
   44.3020   41.5529   39.2227 C   0  0  0  0  0  0  0  0  0  0  0  0
   45.6646   42.1754   39.4936 C   0  0  0  0  0  0  0  0  0  0  0  0
   45.8214   43.4553   39.9608 C   0  0  0  0  0  0  0  0  0  0  0  0
   48.1616   43.2868   40.0006 C   0  0  0  0  0  0  0  0  0  0  0  0
   48.0127   42.0270   39.5345 C   0  0  0  0  0  0  0  0  0  0  0  0
   46.7956   41.4429   39.2649 C   0  0  0  0  0  0  0  0  0  0  0  0
   49.7009   44.2785   41.4280 C   0  0  0  0  0  0  0  0  0  0  0  0
   50.9901   44.8867   41.6801 C   0  0  0  0  0  0  0  0  0  0  0  0
   51.4160   46.1195   41.1691 C   0  0  0  0  0  0  0  0  0  0  0  0
   52.6855   46.5528   41.4927 C   0  0  0  0  0  0  0  0  0  0  0  0
   53.4565   45.7634   42.3314 C   0  0  0  0  0  0  0  0  0  0  0  0
   53.0071   44.5400   42.7793 C   0  0  0  0  0  0  0  0  0  0  0  0
   40.2854   38.5079   45.8822 N   0  0  0  0  0  0  0  0  0  0  0  0
   42.1526   38.4658   43.6046 N   0  0  0  0  0  0  0  0  0  0  0  0
   49.5094   43.8114   40.2446 N   0  0  0  0  0  0  0  0  0  0  0  0
   51.7821   44.1254   42.4934 N   0  0  0  0  0  0  0  0  0  0  0  0
  1 17  2  0  0  0  0
  1 16  1  0  0  0  0
  2  3  2  0  0  0  0
  2 26  1  0  0  0  0
  3  4  1  0  0  0  0
  4  5  2  0  0  0  0
  5  6  1  0  0  0  0
  6  7  1  0  0  0  0
  6 26  2  0  0  0  0
  7 27  2  0  0  0  0
  8  9  2  0  0  0  0
  8 13  1  0  0  0  0
  8 27  1  0  0  0  0
  9 10  1  0  0  0  0
 10 11  2  0  0  0  0
 11 12  1  0  0  0  0
 11 14  1  0  0  0  0
 12 13  2  0  0  0  0
 14 15  1  0  0  0  0
 15 16  2  0  0  0  0
 15 19  1  0  0  0  0
 17 18  1  0  0  0  0
 17 28  1  0  0  0  0
 18 19  2  0  0  0  0
 20 21  1  0  0  0  0
 20 28  2  0  0  0  0
 21 22  2  0  0  0  0
 21 29  1  0  0  0  0
 22 23  1  0  0  0  0
 23 24  2  0  0  0  0
 24 25  1  0  0  0  0
 25 29  2  0  0  0  0
M  END
>  <CHROM.1>
-103.38353678,-142.03604982,-96.56708187,71.86026600,-63.16806465,54.78988102
45.51271185,41.30715502,42.17328455,0.37473957,-0.53802094,-1.37878536

>  <Name>
ligand

>  <RI>
0

>  <Rbt.Current_Directory>
/home/itssahil/PROJECTS/Mol_Feturizer/New_Systems/rnas/4JIY

>  <Rbt.Executable>
rbdock ($Id: //depot/dev/client3/rdock/2013.1/src/exe/rbdock.cxx#4 $)

>  <Rbt.Library>
libRbt.so (2013.1, Build901 2013/11/27)

>  <Rbt.Parameter_File>
/export/apps/rDock/src/rDock_2013.1_src/data/scripts/dock_solv.prm

>  <Rbt.Receptor>
prm/pocket_docking_7.prm

>  <SCORE>
-11.1356

>  <SCORE.INTER>
-10.6099

>  <SCORE.INTER.CONST>
1

>  <SCORE.INTER.POLAR>
0

>  <SCORE.INTER.ROT>
6

>  <SCORE.INTER.SOLV>
3.36871

>  <SCORE.INTER.VDW>
-15.7962

>  <SCORE.INTER.norm>
-0.365858

>  <SCORE.INTRA>
-0.525688

>  <SCORE.INTRA.DIHEDRAL>
0.348774

>  <SCORE.INTRA.DIHEDRAL.0>
7.2424

>  <SCORE.INTRA.POLAR>
0

>  <SCORE.INTRA.POLAR.0>
0

>  <SCORE.INTRA.REPUL>
0

>  <SCORE.INTRA.REPUL.0>
0

>  <SCORE.INTRA.SOLV>
-0.0179588

>  <SCORE.INTRA.SOLV.lig_0>
-3.36201

>  <SCORE.INTRA.VDW>
-0.691096

>  <SCORE.INTRA.VDW.0>
-0.910526

>  <SCORE.INTRA.norm>
-0.0181272

>  <SCORE.RESTR>
0

>  <SCORE.RESTR.CAVITY>
0

>  <SCORE.RESTR.norm>
0

>  <SCORE.SYSTEM>
0

>  <SCORE.SYSTEM.CONST>
0

>  <SCORE.SYSTEM.DIHEDRAL>
0

>  <SCORE.SYSTEM.SOLV>
0

>  <SCORE.SYSTEM.norm>
0

>  <SCORE.heavy>
29

>  <SCORE.norm>
-0.383986

>  <RMSD>
5.823

$$$$
ligand
 OpenBabel11021811503D
libRbt.so/2013.1/901 2013/11/27
 29 32  0  0  0  0  0  0  0  0999 V2000
   45.2234   41.3159   40.9553 C   0  0  0  0  0  0  0  0  0  0  0  0
   38.3204   31.8782   41.7591 C   0  0  0  0  0  0  0  0  0  0  0  0
   38.2045   31.4048   40.4453 C   0  0  0  0  0  0  0  0  0  0  0  0
   38.5370   32.1896   39.3967 C   0  0  0  0  0  0  0  0  0  0  0  0
   38.9308   33.4967   39.6494 C   0  0  0  0  0  0  0  0  0  0  0  0
   39.0901   33.9130   40.9446 C   0  0  0  0  0  0  0  0  0  0  0  0
   39.6098   35.2123   41.3654 C   0  0  0  0  0  0  0  0  0  0  0  0
   41.3753   36.4940   42.1725 C   0  0  0  0  0  0  0  0  0  0  0  0
   41.6063   37.5438   41.3055 C   0  0  0  0  0  0  0  0  0  0  0  0
   42.1310   38.7342   41.8120 C   0  0  0  0  0  0  0  0  0  0  0  0
   42.3308   38.9286   43.1538 C   0  0  0  0  0  0  0  0  0  0  0  0
   42.0753   37.8378   44.0126 C   0  0  0  0  0  0  0  0  0  0  0  0
   41.6577   36.6070   43.5190 C   0  0  0  0  0  0  0  0  0  0  0  0
   42.7644   40.2797   43.7186 C   0  0  0  0  0  0  0  0  0  0  0  0
   43.9642   40.8780   42.9973 C   0  0  0  0  0  0  0  0  0  0  0  0
   44.1440   40.7829   41.6410 C   0  0  0  0  0  0  0  0  0  0  0  0
   46.1525   41.9950   41.6970 C   0  0  0  0  0  0  0  0  0  0  0  0
   45.9831   42.0863   43.0347 C   0  0  0  0  0  0  0  0  0  0  0  0
   44.9181   41.5421   43.7165 C   0  0  0  0  0  0  0  0  0  0  0  0
   47.4043   43.8850   41.1958 C   0  0  0  0  0  0  0  0  0  0  0  0
   48.5068   44.5349   40.5194 C   0  0  0  0  0  0  0  0  0  0  0  0
   48.3811   45.5110   39.5226 C   0  0  0  0  0  0  0  0  0  0  0  0
   49.5354   46.0217   38.9648 C   0  0  0  0  0  0  0  0  0  0  0  0
   50.7544   45.5678   39.4433 C   0  0  0  0  0  0  0  0  0  0  0  0
   50.8265   44.5787   40.4003 C   0  0  0  0  0  0  0  0  0  0  0  0
   38.7615   33.1241   42.0009 N   0  0  0  0  0  0  0  0  0  0  0  0
   40.8859   35.2305   41.6382 N   0  0  0  0  0  0  0  0  0  0  0  0
   47.3322   42.6060   41.0756 N   0  0  0  0  0  0  0  0  0  0  0  0
   49.7255   44.0982   40.9583 N   0  0  0  0  0  0  0  0  0  0  0  0
  1 17  2  0  0  0  0
  1 16  1  0  0  0  0
  2  3  2  0  0  0  0
  2 26  1  0  0  0  0
  3  4  1  0  0  0  0
  4  5  2  0  0  0  0
  5  6  1  0  0  0  0
  6  7  1  0  0  0  0
  6 26  2  0  0  0  0
  7 27  2  0  0  0  0
  8  9  2  0  0  0  0
  8 13  1  0  0  0  0
  8 27  1  0  0  0  0
  9 10  1  0  0  0  0
 10 11  2  0  0  0  0
 11 12  1  0  0  0  0
 11 14  1  0  0  0  0
 12 13  2  0  0  0  0
 14 15  1  0  0  0  0
 15 16  2  0  0  0  0
 15 19  1  0  0  0  0
 17 18  1  0  0  0  0
 17 28  1  0  0  0  0
 18 19  2  0  0  0  0
 20 21  1  0  0  0  0
 20 28  2  0  0  0  0
 21 22  2  0  0  0  0
 21 29  1  0  0  0  0
 22 23  1  0  0  0  0
 23 24  2  0  0  0  0
 24 25  1  0  0  0  0
 25 29  2  0  0  0  0
M  END
>  <CHROM.1>
-95.46907850,-49.81036857,38.14178263,119.87376141,-78.40839731,117.91826813
43.76531114,39.24760588,41.49322244,-0.31071026,-0.80214353,-2.05323271

>  <Name>
ligand

>  <RI>
0

>  <Rbt.Current_Directory>
/home/itssahil/PROJECTS/Mol_Feturizer/New_Systems/rnas/4JIY

>  <Rbt.Executable>
rbdock ($Id: //depot/dev/client3/rdock/2013.1/src/exe/rbdock.cxx#4 $)

>  <Rbt.Library>
libRbt.so (2013.1, Build901 2013/11/27)

>  <Rbt.Parameter_File>
/export/apps/rDock/src/rDock_2013.1_src/data/scripts/dock_solv.prm

>  <Rbt.Receptor>
prm/pocket_docking_6.prm

>  <SCORE>
-8.80877

>  <SCORE.INTER>
-8.79702

>  <SCORE.INTER.CONST>
1

>  <SCORE.INTER.POLAR>
0

>  <SCORE.INTER.ROT>
6

>  <SCORE.INTER.SOLV>
2.96983

>  <SCORE.INTER.VDW>
-14.4546

>  <SCORE.INTER.norm>
-0.303345

>  <SCORE.INTRA>
-0.0117538

>  <SCORE.INTRA.DIHEDRAL>
0.700497

>  <SCORE.INTRA.DIHEDRAL.0>
7.2424

>  <SCORE.INTRA.POLAR>
0

>  <SCORE.INTRA.POLAR.0>
0

>  <SCORE.INTRA.REPUL>
0

>  <SCORE.INTRA.REPUL.0>
0

>  <SCORE.INTRA.SOLV>
-0.0158777

>  <SCORE.INTRA.SOLV.lig_0>
-3.36201

>  <SCORE.INTRA.VDW>
-0.354063

>  <SCORE.INTRA.VDW.0>
-0.910526

>  <SCORE.INTRA.norm>
-0.000405305

>  <SCORE.RESTR>
0

>  <SCORE.RESTR.CAVITY>
0

>  <SCORE.RESTR.norm>
0

>  <SCORE.SYSTEM>
0

>  <SCORE.SYSTEM.CONST>
0

>  <SCORE.SYSTEM.DIHEDRAL>
0

>  <SCORE.SYSTEM.SOLV>
0

>  <SCORE.SYSTEM.norm>
0

>  <SCORE.heavy>
29

>  <SCORE.norm>
-0.303751

>  <RMSD>
5.824

$$$$
ligand
 OpenBabel11021811503D
libRbt.so/2013.1/901 2013/11/27
 29 32  0  0  0  0  0  0  0  0999 V2000
   42.4034   43.4466   38.6601 C   0  0  0  0  0  0  0  0  0  0  0  0
   51.9909   46.4566   45.4192 C   0  0  0  0  0  0  0  0  0  0  0  0
   52.6619   45.7578   46.4317 C   0  0  0  0  0  0  0  0  0  0  0  0
   52.3532   44.4706   46.7035 C   0  0  0  0  0  0  0  0  0  0  0  0
   51.3108   43.8797   46.0024 C   0  0  0  0  0  0  0  0  0  0  0  0
   50.7124   44.5674   44.9800 C   0  0  0  0  0  0  0  0  0  0  0  0
   49.6906   44.0385   44.0792 C   0  0  0  0  0  0  0  0  0  0  0  0
   47.4817   43.4098   43.7096 C   0  0  0  0  0  0  0  0  0  0  0  0
   47.5020   43.6585   42.3514 C   0  0  0  0  0  0  0  0  0  0  0  0
   46.5110   43.0930   41.5469 C   0  0  0  0  0  0  0  0  0  0  0  0
   45.5789   42.2207   42.0456 C   0  0  0  0  0  0  0  0  0  0  0  0
   45.5929   41.9815   43.4367 C   0  0  0  0  0  0  0  0  0  0  0  0
   46.5008   42.6196   44.2743 C   0  0  0  0  0  0  0  0  0  0  0  0
   44.5899   41.4904   41.1396 C   0  0  0  0  0  0  0  0  0  0  0  0
   43.5151   42.4008   40.5621 C   0  0  0  0  0  0  0  0  0  0  0  0
   43.3700   42.6250   39.2168 C   0  0  0  0  0  0  0  0  0  0  0  0
   41.5329   44.0518   39.5265 C   0  0  0  0  0  0  0  0  0  0  0  0
   41.6755   43.8389   40.8534 C   0  0  0  0  0  0  0  0  0  0  0  0
   42.6468   43.0349   41.4059 C   0  0  0  0  0  0  0  0  0  0  0  0
   39.2777   44.5877   39.3961 C   0  0  0  0  0  0  0  0  0  0  0  0
   38.1908   45.3853   38.8691 C   0  0  0  0  0  0  0  0  0  0  0  0
   37.3481   45.0079   37.8157 C   0  0  0  0  0  0  0  0  0  0  0  0
   36.3657   45.8931   37.4210 C   0  0  0  0  0  0  0  0  0  0  0  0
   36.2438   47.0903   38.1084 C   0  0  0  0  0  0  0  0  0  0  0  0
   37.1209   47.4328   39.1148 C   0  0  0  0  0  0  0  0  0  0  0  0
   51.0244   45.8601   44.7011 N   0  0  0  0  0  0  0  0  0  0  0  0
   48.4774   44.0476   44.5601 N   0  0  0  0  0  0  0  0  0  0  0  0
   40.4660   44.9373   39.0482 N   0  0  0  0  0  0  0  0  0  0  0  0
   38.0525   46.5813   39.5165 N   0  0  0  0  0  0  0  0  0  0  0  0
  1 17  2  0  0  0  0
  1 16  1  0  0  0  0
  2  3  2  0  0  0  0
  2 26  1  0  0  0  0
  3  4  1  0  0  0  0
  4  5  2  0  0  0  0
  5  6  1  0  0  0  0
  6  7  1  0  0  0  0
  6 26  2  0  0  0  0
  7 27  2  0  0  0  0
  8  9  2  0  0  0  0
  8 13  1  0  0  0  0
  8 27  1  0  0  0  0
  9 10  1  0  0  0  0
 10 11  2  0  0  0  0
 11 12  1  0  0  0  0
 11 14  1  0  0  0  0
 12 13  2  0  0  0  0
 14 15  1  0  0  0  0
 15 16  2  0  0  0  0
 15 19  1  0  0  0  0
 17 18  1  0  0  0  0
 17 28  1  0  0  0  0
 18 19  2  0  0  0  0
 20 21  1  0  0  0  0
 20 28  2  0  0  0  0
 21 22  2  0  0  0  0
 21 29  1  0  0  0  0
 22 23  1  0  0  0  0
 23 24  2  0  0  0  0
 24 25  1  0  0  0  0
 25 29  2  0  0  0  0
M  END
>  <CHROM.1>
81.34185138,-71.43254683,117.57443046,103.32339712,-43.39042197,122.77075126
44.49012297,44.27994948,41.75595332,-3.09725222,-0.48589780,0.23676939

>  <Name>
ligand

>  <RI>
0

>  <Rbt.Current_Directory>
/home/itssahil/PROJECTS/Mol_Feturizer/New_Systems/rnas/4JIY

>  <Rbt.Executable>
rbdock ($Id: //depot/dev/client3/rdock/2013.1/src/exe/rbdock.cxx#4 $)

>  <Rbt.Library>
libRbt.so (2013.1, Build901 2013/11/27)

>  <Rbt.Parameter_File>
/export/apps/rDock/src/rDock_2013.1_src/data/scripts/dock_solv.prm

>  <Rbt.Receptor>
prm/pocket_docking_5.prm

>  <SCORE>
-0.746705

>  <SCORE.INTER>
-0.872816

>  <SCORE.INTER.CONST>
1

>  <SCORE.INTER.POLAR>
0

>  <SCORE.INTER.ROT>
6

>  <SCORE.INTER.SOLV>
1.49023

>  <SCORE.INTER.VDW>
-8.67862

>  <SCORE.INTER.norm>
-0.0300971

>  <SCORE.INTRA>
0.124414

>  <SCORE.INTRA.DIHEDRAL>
0.675599

>  <SCORE.INTRA.DIHEDRAL.0>
7.2424

>  <SCORE.INTRA.POLAR>
0

>  <SCORE.INTRA.POLAR.0>
0

>  <SCORE.INTRA.REPUL>
0

>  <SCORE.INTRA.REPUL.0>
0

>  <SCORE.INTRA.SOLV>
-0.0166669

>  <SCORE.INTRA.SOLV.lig_0>
-3.36201

>  <SCORE.INTRA.VDW>
-0.205052

>  <SCORE.INTRA.VDW.0>
-0.910526

>  <SCORE.INTRA.norm>
0.00429013

>  <SCORE.RESTR>
0.00169721

>  <SCORE.RESTR.CAVITY>
0.00169721

>  <SCORE.RESTR.norm>
5.85246e-05

>  <SCORE.SYSTEM>
0

>  <SCORE.SYSTEM.CONST>
0

>  <SCORE.SYSTEM.DIHEDRAL>
0

>  <SCORE.SYSTEM.SOLV>
0

>  <SCORE.SYSTEM.norm>
0

>  <SCORE.heavy>
29

>  <SCORE.norm>
-0.0257484

>  <RMSD>
5.842

$$$$
ligand
 OpenBabel11021811503D
libRbt.so/2013.1/901 2013/11/27
 29 32  0  0  0  0  0  0  0  0999 V2000
   44.2628   40.8917   43.0689 C   0  0  0  0  0  0  0  0  0  0  0  0
   50.6469   48.7949   42.8959 C   0  0  0  0  0  0  0  0  0  0  0  0
   51.7303   49.2429   42.1282 C   0  0  0  0  0  0  0  0  0  0  0  0
   52.1813   48.5175   41.0811 C   0  0  0  0  0  0  0  0  0  0  0  0
   51.5899   47.2876   40.8267 C   0  0  0  0  0  0  0  0  0  0  0  0
   50.4967   46.9027   41.5568 C   0  0  0  0  0  0  0  0  0  0  0  0
   49.6985   45.7001   41.3285 C   0  0  0  0  0  0  0  0  0  0  0  0
   48.1803   44.5273   40.0131 C   0  0  0  0  0  0  0  0  0  0  0  0
   46.8174   44.7150   40.1325 C   0  0  0  0  0  0  0  0  0  0  0  0
   45.9720   43.6092   40.0251 C   0  0  0  0  0  0  0  0  0  0  0  0
   46.4422   42.3619   39.7069 C   0  0  0  0  0  0  0  0  0  0  0  0
   47.8399   42.2076   39.5825 C   0  0  0  0  0  0  0  0  0  0  0  0
   48.7097   43.2713   39.7944 C   0  0  0  0  0  0  0  0  0  0  0  0
   45.5026   41.1868   39.4452 C   0  0  0  0  0  0  0  0  0  0  0  0
   44.7221   40.7523   40.6780 C   0  0  0  0  0  0  0  0  0  0  0  0
   44.9547   41.2654   41.9284 C   0  0  0  0  0  0  0  0  0  0  0  0
   43.2719   39.9597   42.9131 C   0  0  0  0  0  0  0  0  0  0  0  0
   43.0429   39.4465   41.6841 C   0  0  0  0  0  0  0  0  0  0  0  0
   43.7424   39.8073   40.5546 C   0  0  0  0  0  0  0  0  0  0  0  0
   41.3296   40.0748   44.1798 C   0  0  0  0  0  0  0  0  0  0  0  0
   40.5478   39.7073   45.3413 C   0  0  0  0  0  0  0  0  0  0  0  0
   39.9265   38.4673   45.5380 C   0  0  0  0  0  0  0  0  0  0  0  0
   39.2015   38.2811   46.6973 C   0  0  0  0  0  0  0  0  0  0  0  0
   39.1553   39.3159   47.6181 C   0  0  0  0  0  0  0  0  0  0  0  0
   39.7529   40.5312   47.3627 C   0  0  0  0  0  0  0  0  0  0  0  0
   50.0378   47.6326   42.6069 N   0  0  0  0  0  0  0  0  0  0  0  0
   49.0689   45.6683   40.1857 N   0  0  0  0  0  0  0  0  0  0  0  0
   42.4707   39.4947   44.0502 N   0  0  0  0  0  0  0  0  0  0  0  0
   40.4699   40.7127   46.2640 N   0  0  0  0  0  0  0  0  0  0  0  0
  1 17  2  0  0  0  0
  1 16  1  0  0  0  0
  2  3  2  0  0  0  0
  2 26  1  0  0  0  0
  3  4  1  0  0  0  0
  4  5  2  0  0  0  0
  5  6  1  0  0  0  0
  6  7  1  0  0  0  0
  6 26  2  0  0  0  0
  7 27  2  0  0  0  0
  8  9  2  0  0  0  0
  8 13  1  0  0  0  0
  8 27  1  0  0  0  0
  9 10  1  0  0  0  0
 10 11  2  0  0  0  0
 11 12  1  0  0  0  0
 11 14  1  0  0  0  0
 12 13  2  0  0  0  0
 14 15  1  0  0  0  0
 15 16  2  0  0  0  0
 15 19  1  0  0  0  0
 17 18  1  0  0  0  0
 17 28  1  0  0  0  0
 18 19  2  0  0  0  0
 20 21  1  0  0  0  0
 20 28  2  0  0  0  0
 21 22  2  0  0  0  0
 21 29  1  0  0  0  0
 22 23  1  0  0  0  0
 23 24  2  0  0  0  0
 24 25  1  0  0  0  0
 25 29  2  0  0  0  0
M  END
>  <CHROM.1>
-64.22683342,-66.25063689,-7.03041122,-70.12974791,104.16951628,97.72355401
45.57586817,42.77535872,42.39113893,-3.08842172,0.72357365,0.98420709

>  <Name>
ligand

>  <RI>
0

>  <Rbt.Current_Directory>
/home/itssahil/PROJECTS/Mol_Feturizer/New_Systems/rnas/4JIY

>  <Rbt.Executable>
rbdock ($Id: //depot/dev/client3/rdock/2013.1/src/exe/rbdock.cxx#4 $)

>  <Rbt.Library>
libRbt.so (2013.1, Build901 2013/11/27)

>  <Rbt.Parameter_File>
/export/apps/rDock/src/rDock_2013.1_src/data/scripts/dock_solv.prm

>  <Rbt.Receptor>
prm/pocket_docking_7.prm

>  <SCORE>
-10.3532

>  <SCORE.INTER>
-9.63166

>  <SCORE.INTER.CONST>
1

>  <SCORE.INTER.POLAR>
0

>  <SCORE.INTER.ROT>
6

>  <SCORE.INTER.SOLV>
2.53885

>  <SCORE.INTER.VDW>
-14.8674

>  <SCORE.INTER.norm>
-0.332126

>  <SCORE.INTRA>
-0.721505

>  <SCORE.INTRA.DIHEDRAL>
0.111214

>  <SCORE.INTRA.DIHEDRAL.0>
7.2424

>  <SCORE.INTRA.POLAR>
0

>  <SCORE.INTRA.POLAR.0>
0

>  <SCORE.INTRA.REPUL>
0

>  <SCORE.INTRA.REPUL.0>
0

>  <SCORE.INTRA.SOLV>
-0.0192724

>  <SCORE.INTRA.SOLV.lig_0>
-3.36201

>  <SCORE.INTRA.VDW>
-0.767476

>  <SCORE.INTRA.VDW.0>
-0.910526

>  <SCORE.INTRA.norm>
-0.0248795

>  <SCORE.RESTR>
0

>  <SCORE.RESTR.CAVITY>
0

>  <SCORE.RESTR.norm>
0

>  <SCORE.SYSTEM>
0

>  <SCORE.SYSTEM.CONST>
0

>  <SCORE.SYSTEM.DIHEDRAL>
0

>  <SCORE.SYSTEM.SOLV>
0

>  <SCORE.SYSTEM.norm>
0

>  <SCORE.heavy>
29

>  <SCORE.norm>
-0.357006

>  <RMSD>
5.846

$$$$
ligand
 OpenBabel11021811503D
libRbt.so/2013.1/901 2013/11/27
 29 32  0  0  0  0  0  0  0  0999 V2000
   46.0813   42.2805   40.3236 C   0  0  0  0  0  0  0  0  0  0  0  0
   36.2126   39.3445   45.5415 C   0  0  0  0  0  0  0  0  0  0  0  0
   36.5871   39.1612   46.8793 C   0  0  0  0  0  0  0  0  0  0  0  0
   37.8634   38.8583   47.2038 C   0  0  0  0  0  0  0  0  0  0  0  0
   38.7778   38.6668   46.1768 C   0  0  0  0  0  0  0  0  0  0  0  0
   38.3975   38.9091   44.8834 C   0  0  0  0  0  0  0  0  0  0  0  0
   39.2735   38.8678   43.7146 C   0  0  0  0  0  0  0  0  0  0  0  0
   41.0233   39.7935   42.4930 C   0  0  0  0  0  0  0  0  0  0  0  0
   40.4900   40.3796   41.3621 C   0  0  0  0  0  0  0  0  0  0  0  0
   41.2305   40.3601   40.1787 C   0  0  0  0  0  0  0  0  0  0  0  0
   42.5082   39.8671   40.1280 C   0  0  0  0  0  0  0  0  0  0  0  0
   43.0260   39.2840   41.3047 C   0  0  0  0  0  0  0  0  0  0  0  0
   42.2657   39.1923   42.4651 C   0  0  0  0  0  0  0  0  0  0  0  0
   43.3686   39.9809   38.8714 C   0  0  0  0  0  0  0  0  0  0  0  0
   44.7027   40.6730   39.1143 C   0  0  0  0  0  0  0  0  0  0  0  0
   44.8817   41.6326   40.0777 C   0  0  0  0  0  0  0  0  0  0  0  0
   47.1523   41.9108   39.5549 C   0  0  0  0  0  0  0  0  0  0  0  0
   46.9797   40.9700   38.6001 C   0  0  0  0  0  0  0  0  0  0  0  0
   45.7828   40.3389   38.3463 C   0  0  0  0  0  0  0  0  0  0  0  0
   48.4489   43.7622   40.0854 C   0  0  0  0  0  0  0  0  0  0  0  0
   49.7301   44.4288   40.1837 C   0  0  0  0  0  0  0  0  0  0  0  0
   50.3223   45.1950   39.1715 C   0  0  0  0  0  0  0  0  0  0  0  0
   51.5599   45.7529   39.4194 C   0  0  0  0  0  0  0  0  0  0  0  0
   52.1337   45.5544   40.6653 C   0  0  0  0  0  0  0  0  0  0  0  0
   51.5283   44.7617   41.6163 C   0  0  0  0  0  0  0  0  0  0  0  0
   37.1160   39.2189   44.5548 N   0  0  0  0  0  0  0  0  0  0  0  0
   40.2282   39.7577   43.7128 N   0  0  0  0  0  0  0  0  0  0  0  0
   48.4722   42.5252   39.7322 N   0  0  0  0  0  0  0  0  0  0  0  0
   50.3306   44.2405   41.3972 N   0  0  0  0  0  0  0  0  0  0  0  0
  1 17  2  0  0  0  0
  1 16  1  0  0  0  0
  2  3  2  0  0  0  0
  2 26  1  0  0  0  0
  3  4  1  0  0  0  0
  4  5  2  0  0  0  0
  5  6  1  0  0  0  0
  6  7  1  0  0  0  0
  6 26  2  0  0  0  0
  7 27  2  0  0  0  0
  8  9  2  0  0  0  0
  8 13  1  0  0  0  0
  8 27  1  0  0  0  0
  9 10  1  0  0  0  0
 10 11  2  0  0  0  0
 11 12  1  0  0  0  0
 11 14  1  0  0  0  0
 12 13  2  0  0  0  0
 14 15  1  0  0  0  0
 15 16  2  0  0  0  0
 15 19  1  0  0  0  0
 17 18  1  0  0  0  0
 17 28  1  0  0  0  0
 18 19  2  0  0  0  0
 20 21  1  0  0  0  0
 20 28  2  0  0  0  0
 21 22  2  0  0  0  0
 21 29  1  0  0  0  0
 22 23  1  0  0  0  0
 23 24  2  0  0  0  0
 24 25  1  0  0  0  0
 25 29  2  0  0  0  0
M  END
>  <CHROM.1>
-63.67801397,124.19697789,-29.81651051,94.92945725,75.82121503,-33.20462065
44.01232854,41.22797949,41.64827723,0.22088942,-0.49506499,-1.90055708

>  <Name>
ligand

>  <RI>
0

>  <Rbt.Current_Directory>
/home/itssahil/PROJECTS/Mol_Feturizer/New_Systems/rnas/4JIY

>  <Rbt.Executable>
rbdock ($Id: //depot/dev/client3/rdock/2013.1/src/exe/rbdock.cxx#4 $)

>  <Rbt.Library>
libRbt.so (2013.1, Build901 2013/11/27)

>  <Rbt.Parameter_File>
/export/apps/rDock/src/rDock_2013.1_src/data/scripts/dock_solv.prm

>  <Rbt.Receptor>
prm/pocket_docking_8.prm

>  <SCORE>
-11.0168

>  <SCORE.INTER>
-10.9297

>  <SCORE.INTER.CONST>
1

>  <SCORE.INTER.POLAR>
0

>  <SCORE.INTER.ROT>
6

>  <SCORE.INTER.SOLV>
2.89751

>  <SCORE.INTER.VDW>
-15.8523

>  <SCORE.INTER.norm>
-0.376885

>  <SCORE.INTRA>
-0.0871629

>  <SCORE.INTRA.DIHEDRAL>
0.381107

>  <SCORE.INTRA.DIHEDRAL.0>
7.2424

>  <SCORE.INTRA.POLAR>
0

>  <SCORE.INTRA.POLAR.0>
0

>  <SCORE.INTRA.REPUL>
0

>  <SCORE.INTRA.REPUL.0>
0

>  <SCORE.INTRA.SOLV>
-0.0168158

>  <SCORE.INTRA.SOLV.lig_0>
-3.36201

>  <SCORE.INTRA.VDW>
-0.269309

>  <SCORE.INTRA.VDW.0>
-0.910526

>  <SCORE.INTRA.norm>
-0.00300562

>  <SCORE.RESTR>
0

>  <SCORE.RESTR.CAVITY>
0

>  <SCORE.RESTR.norm>
0

>  <SCORE.SYSTEM>
0

>  <SCORE.SYSTEM.CONST>
0

>  <SCORE.SYSTEM.DIHEDRAL>
0

>  <SCORE.SYSTEM.SOLV>
0

>  <SCORE.SYSTEM.norm>
0

>  <SCORE.heavy>
29

>  <SCORE.norm>
-0.379891

>  <RMSD>
5.851

$$$$
ligand
 OpenBabel11021811503D
libRbt.so/2013.1/901 2013/11/27
 29 32  0  0  0  0  0  0  0  0999 V2000
   46.5407   42.5595   44.0079 C   0  0  0  0  0  0  0  0  0  0  0  0
   36.7349   46.9651   38.2493 C   0  0  0  0  0  0  0  0  0  0  0  0
   36.0448   47.5910   39.2959 C   0  0  0  0  0  0  0  0  0  0  0  0
   36.5031   47.5198   40.5652 C   0  0  0  0  0  0  0  0  0  0  0  0
   37.6349   46.7561   40.8163 C   0  0  0  0  0  0  0  0  0  0  0  0
   38.3206   46.2041   39.7668 C   0  0  0  0  0  0  0  0  0  0  0  0
   39.5865   45.4803   39.8610 C   0  0  0  0  0  0  0  0  0  0  0  0
   40.7350   43.5121   40.3284 C   0  0  0  0  0  0  0  0  0  0  0  0
   41.1385   43.2360   41.6199 C   0  0  0  0  0  0  0  0  0  0  0  0
   42.3769   42.6245   41.8238 C   0  0  0  0  0  0  0  0  0  0  0  0
   43.1593   42.2002   40.7816 C   0  0  0  0  0  0  0  0  0  0  0  0
   42.7121   42.4902   39.4745 C   0  0  0  0  0  0  0  0  0  0  0  0
   41.5358   43.1964   39.2492 C   0  0  0  0  0  0  0  0  0  0  0  0
   44.4412   41.4013   41.0069 C   0  0  0  0  0  0  0  0  0  0  0  0
   45.4670   42.1345   41.8600 C   0  0  0  0  0  0  0  0  0  0  0  0
   45.6179   41.9098   43.2045 C   0  0  0  0  0  0  0  0  0  0  0  0
   47.3600   43.4701   43.3961 C   0  0  0  0  0  0  0  0  0  0  0  0
   47.2112   43.6996   42.0726 C   0  0  0  0  0  0  0  0  0  0  0  0
   46.2826   43.0647   41.2790 C   0  0  0  0  0  0  0  0  0  0  0  0
   49.5767   44.0924   43.6953 C   0  0  0  0  0  0  0  0  0  0  0  0
   50.6219   44.7370   44.4617 C   0  0  0  0  0  0  0  0  0  0  0  0
   50.4569   45.8839   45.2488 C   0  0  0  0  0  0  0  0  0  0  0  0
   51.5619   46.3843   45.9068 C   0  0  0  0  0  0  0  0  0  0  0  0
   52.7649   45.7076   45.7814 C   0  0  0  0  0  0  0  0  0  0  0  0
   52.8859   44.6036   44.9655 C   0  0  0  0  0  0  0  0  0  0  0  0
   37.8649   46.2786   38.4890 N   0  0  0  0  0  0  0  0  0  0  0  0
   39.4719   44.2053   40.1153 N   0  0  0  0  0  0  0  0  0  0  0  0
   48.3780   44.2121   44.1473 N   0  0  0  0  0  0  0  0  0  0  0  0
   51.8270   44.1019   44.3478 N   0  0  0  0  0  0  0  0  0  0  0  0
  1 17  2  0  0  0  0
  1 16  1  0  0  0  0
  2  3  2  0  0  0  0
  2 26  1  0  0  0  0
  3  4  1  0  0  0  0
  4  5  2  0  0  0  0
  5  6  1  0  0  0  0
  6  7  1  0  0  0  0
  6 26  2  0  0  0  0
  7 27  2  0  0  0  0
  8  9  2  0  0  0  0
  8 13  1  0  0  0  0
  8 27  1  0  0  0  0
  9 10  1  0  0  0  0
 10 11  2  0  0  0  0
 11 12  1  0  0  0  0
 11 14  1  0  0  0  0
 12 13  2  0  0  0  0
 14 15  1  0  0  0  0
 15 16  2  0  0  0  0
 15 19  1  0  0  0  0
 17 18  1  0  0  0  0
 17 28  1  0  0  0  0
 18 19  2  0  0  0  0
 20 21  1  0  0  0  0
 20 28  2  0  0  0  0
 21 22  2  0  0  0  0
 21 29  1  0  0  0  0
 22 23  1  0  0  0  0
 23 24  2  0  0  0  0
 24 25  1  0  0  0  0
 25 29  2  0  0  0  0
M  END
>  <CHROM.1>
86.50022054,-59.10011194,97.98042894,-28.89320496,100.83364734,124.04394521
44.30802631,44.34609084,41.91546700,-0.01452027,0.38953066,-2.86071008

>  <Name>
ligand

>  <RI>
0

>  <Rbt.Current_Directory>
/home/itssahil/PROJECTS/Mol_Feturizer/New_Systems/rnas/4JIY

>  <Rbt.Executable>
rbdock ($Id: //depot/dev/client3/rdock/2013.1/src/exe/rbdock.cxx#4 $)

>  <Rbt.Library>
libRbt.so (2013.1, Build901 2013/11/27)

>  <Rbt.Parameter_File>
/export/apps/rDock/src/rDock_2013.1_src/data/scripts/dock_solv.prm

>  <Rbt.Receptor>
prm/pocket_docking_5.prm

>  <SCORE>
-0.830558

>  <SCORE.INTER>
-0.460858

>  <SCORE.INTER.CONST>
1

>  <SCORE.INTER.POLAR>
0

>  <SCORE.INTER.ROT>
6

>  <SCORE.INTER.SOLV>
1.22036

>  <SCORE.INTER.VDW>
-8.31402

>  <SCORE.INTER.norm>
-0.0158917

>  <SCORE.INTRA>
-0.378186

>  <SCORE.INTRA.DIHEDRAL>
0.507503

>  <SCORE.INTRA.DIHEDRAL.0>
7.2424

>  <SCORE.INTRA.POLAR>
0

>  <SCORE.INTRA.POLAR.0>
0

>  <SCORE.INTRA.REPUL>
0

>  <SCORE.INTRA.REPUL.0>
0

>  <SCORE.INTRA.SOLV>
-0.0181511

>  <SCORE.INTRA.SOLV.lig_0>
-3.36201

>  <SCORE.INTRA.VDW>
-0.622862

>  <SCORE.INTRA.VDW.0>
-0.910526

>  <SCORE.INTRA.norm>
-0.0130409

>  <SCORE.RESTR>
0.0084854

>  <SCORE.RESTR.CAVITY>
0.0084854

>  <SCORE.RESTR.norm>
0.0002926

>  <SCORE.SYSTEM>
0

>  <SCORE.SYSTEM.CONST>
0

>  <SCORE.SYSTEM.DIHEDRAL>
0

>  <SCORE.SYSTEM.SOLV>
0

>  <SCORE.SYSTEM.norm>
0

>  <SCORE.heavy>
29

>  <SCORE.norm>
-0.0286399

>  <RMSD>
5.858

$$$$
ligand
 OpenBabel11021811503D
libRbt.so/2013.1/901 2013/11/27
 29 32  0  0  0  0  0  0  0  0999 V2000
   41.2024   43.0082   39.0222 C   0  0  0  0  0  0  0  0  0  0  0  0
   48.7050   45.8654   47.9420 C   0  0  0  0  0  0  0  0  0  0  0  0
   49.2918   44.9124   48.7852 C   0  0  0  0  0  0  0  0  0  0  0  0
   49.1464   43.5914   48.5408 C   0  0  0  0  0  0  0  0  0  0  0  0
   48.3466   43.2015   47.4751 C   0  0  0  0  0  0  0  0  0  0  0  0
   47.8339   44.1540   46.6349 C   0  0  0  0  0  0  0  0  0  0  0  0
   47.0790   43.8949   45.4108 C   0  0  0  0  0  0  0  0  0  0  0  0
   46.9499   42.8945   43.3147 C   0  0  0  0  0  0  0  0  0  0  0  0
   47.3089   43.6936   42.2473 C   0  0  0  0  0  0  0  0  0  0  0  0
   46.6024   43.5764   41.0489 C   0  0  0  0  0  0  0  0  0  0  0  0
   45.6313   42.6266   40.8666 C   0  0  0  0  0  0  0  0  0  0  0  0
   45.2961   41.8202   41.9756 C   0  0  0  0  0  0  0  0  0  0  0  0
   45.9092   41.9934   43.2114 C   0  0  0  0  0  0  0  0  0  0  0  0
   44.9641   42.4033   39.5112 C   0  0  0  0  0  0  0  0  0  0  0  0
   43.6127   43.0924   39.3831 C   0  0  0  0  0  0  0  0  0  0  0  0
   42.4467   42.4113   39.1438 C   0  0  0  0  0  0  0  0  0  0  0  0
   41.1520   44.3682   39.1724 C   0  0  0  0  0  0  0  0  0  0  0  0
   42.2991   45.0447   39.4023 C   0  0  0  0  0  0  0  0  0  0  0  0
   43.5370   44.4515   39.5067 C   0  0  0  0  0  0  0  0  0  0  0  0
   39.2145   45.1758   40.1644 C   0  0  0  0  0  0  0  0  0  0  0  0
   37.9193   45.8172   40.0838 C   0  0  0  0  0  0  0  0  0  0  0  0
   37.7015   47.1590   39.7452 C   0  0  0  0  0  0  0  0  0  0  0  0
   36.4015   47.6216   39.7288 C   0  0  0  0  0  0  0  0  0  0  0  0
   35.3812   46.7280   40.0139 C   0  0  0  0  0  0  0  0  0  0  0  0
   35.6483   45.4258   40.3776 C   0  0  0  0  0  0  0  0  0  0  0  0
   47.9830   45.4830   46.8753 N   0  0  0  0  0  0  0  0  0  0  0  0
   47.6442   43.0573   44.5847 N   0  0  0  0  0  0  0  0  0  0  0  0
   39.8878   45.1048   39.0704 N   0  0  0  0  0  0  0  0  0  0  0  0
   36.8903   44.9656   40.3743 N   0  0  0  0  0  0  0  0  0  0  0  0
  1 17  2  0  0  0  0
  1 16  1  0  0  0  0
  2  3  2  0  0  0  0
  2 26  1  0  0  0  0
  3  4  1  0  0  0  0
  4  5  2  0  0  0  0
  5  6  1  0  0  0  0
  6  7  1  0  0  0  0
  6 26  2  0  0  0  0
  7 27  2  0  0  0  0
  8  9  2  0  0  0  0
  8 13  1  0  0  0  0
  8 27  1  0  0  0  0
  9 10  1  0  0  0  0
 10 11  2  0  0  0  0
 11 12  1  0  0  0  0
 11 14  1  0  0  0  0
 12 13  2  0  0  0  0
 14 15  1  0  0  0  0
 15 16  2  0  0  0  0
 15 19  1  0  0  0  0
 17 18  1  0  0  0  0
 17 28  1  0  0  0  0
 18 19  2  0  0  0  0
 20 21  1  0  0  0  0
 20 28  2  0  0  0  0
 21 22  2  0  0  0  0
 21 29  1  0  0  0  0
 22 23  1  0  0  0  0
 23 24  2  0  0  0  0
 24 25  1  0  0  0  0
 25 29  2  0  0  0  0
M  END
>  <CHROM.1>
-50.80268442,-98.61771316,-119.84204090,-63.33232581,92.01034899,86.14542585
43.51358795,44.25991796,42.19367271,-2.69305365,-0.40166169,1.12820913

>  <Name>
ligand

>  <RI>
0

>  <Rbt.Current_Directory>
/home/itssahil/PROJECTS/Mol_Feturizer/New_Systems/rnas/4JIY

>  <Rbt.Executable>
rbdock ($Id: //depot/dev/client3/rdock/2013.1/src/exe/rbdock.cxx#4 $)

>  <Rbt.Library>
libRbt.so (2013.1, Build901 2013/11/27)

>  <Rbt.Parameter_File>
/export/apps/rDock/src/rDock_2013.1_src/data/scripts/dock_solv.prm

>  <Rbt.Receptor>
prm/pocket_docking_5.prm

>  <SCORE>
-0.936245

>  <SCORE.INTER>
0.01135

>  <SCORE.INTER.CONST>
1

>  <SCORE.INTER.POLAR>
0

>  <SCORE.INTER.ROT>
6

>  <SCORE.INTER.SOLV>
1.3658

>  <SCORE.INTER.VDW>
-8.0477

>  <SCORE.INTER.norm>
0.000391378

>  <SCORE.INTRA>
-0.948415

>  <SCORE.INTRA.DIHEDRAL>
0.211453

>  <SCORE.INTRA.DIHEDRAL.0>
7.2424

>  <SCORE.INTRA.POLAR>
0

>  <SCORE.INTRA.POLAR.0>
0

>  <SCORE.INTRA.REPUL>
0

>  <SCORE.INTRA.REPUL.0>
0

>  <SCORE.INTRA.SOLV>
-0.0196241

>  <SCORE.INTRA.SOLV.lig_0>
-3.36201

>  <SCORE.INTRA.VDW>
-1.04433

>  <SCORE.INTRA.VDW.0>
-0.910526

>  <SCORE.INTRA.norm>
-0.032704

>  <SCORE.RESTR>
0.000820154

>  <SCORE.RESTR.CAVITY>
0.000820154

>  <SCORE.RESTR.norm>
2.82812e-05

>  <SCORE.SYSTEM>
0

>  <SCORE.SYSTEM.CONST>
0

>  <SCORE.SYSTEM.DIHEDRAL>
0

>  <SCORE.SYSTEM.SOLV>
0

>  <SCORE.SYSTEM.norm>
0

>  <SCORE.heavy>
29

>  <SCORE.norm>
-0.0322843

>  <RMSD>
5.881

$$$$
ligand
 OpenBabel11021811503D
libRbt.so/2013.1/901 2013/11/27
 29 32  0  0  0  0  0  0  0  0999 V2000
   48.6657   43.2419   39.8213 C   0  0  0  0  0  0  0  0  0  0  0  0
   38.6843   39.4281   46.4658 C   0  0  0  0  0  0  0  0  0  0  0  0
   39.1441   39.6823   47.7649 C   0  0  0  0  0  0  0  0  0  0  0  0
   40.3850   40.1747   47.9741 C   0  0  0  0  0  0  0  0  0  0  0  0
   41.2158   40.3583   46.8771 C   0  0  0  0  0  0  0  0  0  0  0  0
   40.7200   40.1564   45.6163 C   0  0  0  0  0  0  0  0  0  0  0  0
   41.4308   40.4218   44.3674 C   0  0  0  0  0  0  0  0  0  0  0  0
   43.2756   40.0538   42.9990 C   0  0  0  0  0  0  0  0  0  0  0  0
   42.9685   39.4494   41.7960 C   0  0  0  0  0  0  0  0  0  0  0  0
   43.7469   39.7432   40.6750 C   0  0  0  0  0  0  0  0  0  0  0  0
   44.7417   40.6854   40.7066 C   0  0  0  0  0  0  0  0  0  0  0  0
   45.0228   41.2908   41.9505 C   0  0  0  0  0  0  0  0  0  0  0  0
   44.3345   40.9332   43.1043 C   0  0  0  0  0  0  0  0  0  0  0  0
   45.4919   41.1107   39.4462 C   0  0  0  0  0  0  0  0  0  0  0  0
   46.4242   42.2934   39.6692 C   0  0  0  0  0  0  0  0  0  0  0  0
   47.7907   42.1863   39.6231 C   0  0  0  0  0  0  0  0  0  0  0  0
   48.1089   44.4698   40.0597 C   0  0  0  0  0  0  0  0  0  0  0  0
   46.7629   44.5795   40.1122 C   0  0  0  0  0  0  0  0  0  0  0  0
   45.8953   43.5262   39.9310 C   0  0  0  0  0  0  0  0  0  0  0  0
   49.4950   45.7250   41.4358 C   0  0  0  0  0  0  0  0  0  0  0  0
   50.2495   46.9268   41.7214 C   0  0  0  0  0  0  0  0  0  0  0  0
   51.4607   47.2841   41.1149 C   0  0  0  0  0  0  0  0  0  0  0  0
   52.0635   48.4602   41.5120 C   0  0  0  0  0  0  0  0  0  0  0  0
   51.4231   49.2399   42.4622 C   0  0  0  0  0  0  0  0  0  0  0  0
   50.2502   48.8277   43.0569 C   0  0  0  0  0  0  0  0  0  0  0  0
   39.4709   39.6663   45.4028 N   0  0  0  0  0  0  0  0  0  0  0  0
   42.5045   39.7029   44.1838 N   0  0  0  0  0  0  0  0  0  0  0  0
   48.9389   45.6592   40.2774 N   0  0  0  0  0  0  0  0  0  0  0  0
   49.6517   47.7123   42.6670 N   0  0  0  0  0  0  0  0  0  0  0  0
  1 17  2  0  0  0  0
  1 16  1  0  0  0  0
  2  3  2  0  0  0  0
  2 26  1  0  0  0  0
  3  4  1  0  0  0  0
  4  5  2  0  0  0  0
  5  6  1  0  0  0  0
  6  7  1  0  0  0  0
  6 26  2  0  0  0  0
  7 27  2  0  0  0  0
  8  9  2  0  0  0  0
  8 13  1  0  0  0  0
  8 27  1  0  0  0  0
  9 10  1  0  0  0  0
 10 11  2  0  0  0  0
 11 12  1  0  0  0  0
 11 14  1  0  0  0  0
 12 13  2  0  0  0  0
 14 15  1  0  0  0  0
 15 16  2  0  0  0  0
 15 19  1  0  0  0  0
 17 18  1  0  0  0  0
 17 28  1  0  0  0  0
 18 19  2  0  0  0  0
 20 21  1  0  0  0  0
 20 28  2  0  0  0  0
 21 22  2  0  0  0  0
 21 29  1  0  0  0  0
 22 23  1  0  0  0  0
 23 24  2  0  0  0  0
 24 25  1  0  0  0  0
 25 29  2  0  0  0  0
M  END
>  <CHROM.1>
63.16626531,172.40947793,111.29310645,-69.16995189,-88.42430546,-75.58123897
45.51906681,42.86026431,42.50896408,-0.03879727,-0.71826387,-2.15615599

>  <Name>
ligand

>  <RI>
0

>  <Rbt.Current_Directory>
/home/itssahil/PROJECTS/Mol_Feturizer/New_Systems/rnas/4JIY

>  <Rbt.Executable>
rbdock ($Id: //depot/dev/client3/rdock/2013.1/src/exe/rbdock.cxx#4 $)

>  <Rbt.Library>
libRbt.so (2013.1, Build901 2013/11/27)

>  <Rbt.Parameter_File>
/export/apps/rDock/src/rDock_2013.1_src/data/scripts/dock_solv.prm

>  <Rbt.Receptor>
prm/pocket_docking_7.prm

>  <SCORE>
-10.7729

>  <SCORE.INTER>
-10.0071

>  <SCORE.INTER.CONST>
1

>  <SCORE.INTER.POLAR>
0

>  <SCORE.INTER.ROT>
6

>  <SCORE.INTER.SOLV>
2.47342

>  <SCORE.INTER.VDW>
-15.0959

>  <SCORE.INTER.norm>
-0.345074

>  <SCORE.INTRA>
-0.765798

>  <SCORE.INTRA.DIHEDRAL>
0.0412734

>  <SCORE.INTRA.DIHEDRAL.0>
7.2424

>  <SCORE.INTRA.POLAR>
0

>  <SCORE.INTRA.POLAR.0>
0

>  <SCORE.INTRA.REPUL>
0

>  <SCORE.INTRA.REPUL.0>
0

>  <SCORE.INTRA.SOLV>
-0.0199002

>  <SCORE.INTRA.SOLV.lig_0>
-3.36201

>  <SCORE.INTRA.VDW>
-0.776484

>  <SCORE.INTRA.VDW.0>
-0.910526

>  <SCORE.INTRA.norm>
-0.0264068

>  <SCORE.RESTR>
0

>  <SCORE.RESTR.CAVITY>
0

>  <SCORE.RESTR.norm>
0

>  <SCORE.SYSTEM>
0

>  <SCORE.SYSTEM.CONST>
0

>  <SCORE.SYSTEM.DIHEDRAL>
0

>  <SCORE.SYSTEM.SOLV>
0

>  <SCORE.SYSTEM.norm>
0

>  <SCORE.heavy>
29

>  <SCORE.norm>
-0.37148

>  <RMSD>
5.882

$$$$
ligand
 OpenBabel11021811503D
libRbt.so/2013.1/901 2013/11/27
 29 32  0  0  0  0  0  0  0  0999 V2000
   43.7503   40.8230   42.6027 C   0  0  0  0  0  0  0  0  0  0  0  0
   51.1656   50.6794   40.8718 C   0  0  0  0  0  0  0  0  0  0  0  0
   52.5666   50.6880   40.8478 C   0  0  0  0  0  0  0  0  0  0  0  0
   53.2736   49.7092   41.4545 C   0  0  0  0  0  0  0  0  0  0  0  0
   52.5805   48.7338   42.1586 C   0  0  0  0  0  0  0  0  0  0  0  0
   51.2115   48.7183   42.1161 C   0  0  0  0  0  0  0  0  0  0  0  0
   50.3513   47.6930   42.7028 C   0  0  0  0  0  0  0  0  0  0  0  0
   49.5065   45.5261   42.6589 C   0  0  0  0  0  0  0  0  0  0  0  0
   49.9413   44.5923   43.5785 C   0  0  0  0  0  0  0  0  0  0  0  0
   49.0502   43.6109   44.0167 C   0  0  0  0  0  0  0  0  0  0  0  0
   47.7325   43.6042   43.6399 C   0  0  0  0  0  0  0  0  0  0  0  0
   47.3196   44.5789   42.7060 C   0  0  0  0  0  0  0  0  0  0  0  0
   48.2154   45.4977   42.1712 C   0  0  0  0  0  0  0  0  0  0  0  0
   46.7274   42.6201   44.2346 C   0  0  0  0  0  0  0  0  0  0  0  0
   45.7991   42.0048   43.1966 C   0  0  0  0  0  0  0  0  0  0  0  0
   44.6162   41.3919   43.5223 C   0  0  0  0  0  0  0  0  0  0  0  0
   44.1085   40.9047   41.2837 C   0  0  0  0  0  0  0  0  0  0  0  0
   45.2760   41.5024   40.9580 C   0  0  0  0  0  0  0  0  0  0  0  0
   46.1432   42.0528   41.8747 C   0  0  0  0  0  0  0  0  0  0  0  0
   43.5999   39.1630   39.8353 C   0  0  0  0  0  0  0  0  0  0  0  0
   42.8473   38.6104   38.7291 C   0  0  0  0  0  0  0  0  0  0  0  0
   42.8427   39.1151   37.4224 C   0  0  0  0  0  0  0  0  0  0  0  0
   42.0558   38.4796   36.4837 C   0  0  0  0  0  0  0  0  0  0  0  0
   41.3406   37.3587   36.8746 C   0  0  0  0  0  0  0  0  0  0  0  0
   41.3486   36.9219   38.1817 C   0  0  0  0  0  0  0  0  0  0  0  0
   50.4982   49.6983   41.5023 N   0  0  0  0  0  0  0  0  0  0  0  0
   50.4506   46.5134   42.1534 N   0  0  0  0  0  0  0  0  0  0  0  0
   43.2649   40.3430   40.2236 N   0  0  0  0  0  0  0  0  0  0  0  0
   42.1179   37.5105   39.0850 N   0  0  0  0  0  0  0  0  0  0  0  0
  1 17  2  0  0  0  0
  1 16  1  0  0  0  0
  2  3  2  0  0  0  0
  2 26  1  0  0  0  0
  3  4  1  0  0  0  0
  4  5  2  0  0  0  0
  5  6  1  0  0  0  0
  6  7  1  0  0  0  0
  6 26  2  0  0  0  0
  7 27  2  0  0  0  0
  8  9  2  0  0  0  0
  8 13  1  0  0  0  0
  8 27  1  0  0  0  0
  9 10  1  0  0  0  0
 10 11  2  0  0  0  0
 11 12  1  0  0  0  0
 11 14  1  0  0  0  0
 12 13  2  0  0  0  0
 14 15  1  0  0  0  0
 15 16  2  0  0  0  0
 15 19  1  0  0  0  0
 17 18  1  0  0  0  0
 17 28  1  0  0  0  0
 18 19  2  0  0  0  0
 20 21  1  0  0  0  0
 20 28  2  0  0  0  0
 21 22  2  0  0  0  0
 21 29  1  0  0  0  0
 22 23  1  0  0  0  0
 23 24  2  0  0  0  0
 24 25  1  0  0  0  0
 25 29  2  0  0  0  0
M  END
>  <CHROM.1>
-66.12502090,-136.59402179,-161.98572930,65.20451519,-101.05056993,-96.28046605
46.87915370,43.39987546,41.28341508,3.10973164,-0.87269582,-1.31507559

>  <Name>
ligand

>  <RI>
0

>  <Rbt.Current_Directory>
/home/itssahil/PROJECTS/Mol_Feturizer/New_Systems/rnas/4JIY

>  <Rbt.Executable>
rbdock ($Id: //depot/dev/client3/rdock/2013.1/src/exe/rbdock.cxx#4 $)

>  <Rbt.Library>
libRbt.so (2013.1, Build901 2013/11/27)

>  <Rbt.Parameter_File>
/export/apps/rDock/src/rDock_2013.1_src/data/scripts/dock_solv.prm

>  <Rbt.Receptor>
prm/pocket_docking_6.prm

>  <SCORE>
-4.98498

>  <SCORE.INTER>
-4.48142

>  <SCORE.INTER.CONST>
1

>  <SCORE.INTER.POLAR>
0

>  <SCORE.INTER.ROT>
6

>  <SCORE.INTER.SOLV>
1.60522

>  <SCORE.INTER.VDW>
-11.1227

>  <SCORE.INTER.norm>
-0.154532

>  <SCORE.INTRA>
-0.503554

>  <SCORE.INTRA.DIHEDRAL>
-0.104489

>  <SCORE.INTRA.DIHEDRAL.0>
7.2424

>  <SCORE.INTRA.POLAR>
0

>  <SCORE.INTRA.POLAR.0>
0

>  <SCORE.INTRA.REPUL>
0

>  <SCORE.INTRA.REPUL.0>
0

>  <SCORE.INTRA.SOLV>
-0.0201389

>  <SCORE.INTRA.SOLV.lig_0>
-3.36201

>  <SCORE.INTRA.VDW>
-0.44124

>  <SCORE.INTRA.VDW.0>
-0.910526

>  <SCORE.INTRA.norm>
-0.0173639

>  <SCORE.RESTR>
0

>  <SCORE.RESTR.CAVITY>
0

>  <SCORE.RESTR.norm>
0

>  <SCORE.SYSTEM>
0

>  <SCORE.SYSTEM.CONST>
0

>  <SCORE.SYSTEM.DIHEDRAL>
0

>  <SCORE.SYSTEM.SOLV>
0

>  <SCORE.SYSTEM.norm>
0

>  <SCORE.heavy>
29

>  <SCORE.norm>
-0.171896

>  <RMSD>
5.899

$$$$
ligand
 OpenBabel11021811503D
libRbt.so/2013.1/901 2013/11/27
 29 32  0  0  0  0  0  0  0  0999 V2000
   45.1464   41.2352   42.1927 C   0  0  0  0  0  0  0  0  0  0  0  0
   53.2034   46.5739   47.6308 C   0  0  0  0  0  0  0  0  0  0  0  0
   54.5477   46.6908   47.2528 C   0  0  0  0  0  0  0  0  0  0  0  0
   54.9236   46.4952   45.9697 C   0  0  0  0  0  0  0  0  0  0  0  0
   53.9574   46.1099   45.0503 C   0  0  0  0  0  0  0  0  0  0  0  0
   52.6439   46.0600   45.4355 C   0  0  0  0  0  0  0  0  0  0  0  0
   51.5071   45.7900   44.5580 C   0  0  0  0  0  0  0  0  0  0  0  0
   50.4391   44.3835   43.0440 C   0  0  0  0  0  0  0  0  0  0  0  0
   49.1575   44.1503   43.5023 C   0  0  0  0  0  0  0  0  0  0  0  0
   48.1484   43.8795   42.5763 C   0  0  0  0  0  0  0  0  0  0  0  0
   48.3673   43.9355   41.2245 C   0  0  0  0  0  0  0  0  0  0  0  0
   49.6870   44.1859   40.7906 C   0  0  0  0  0  0  0  0  0  0  0  0
   50.7303   44.3488   41.6950 C   0  0  0  0  0  0  0  0  0  0  0  0
   47.2310   43.7847   40.2153 C   0  0  0  0  0  0  0  0  0  0  0  0
   46.2634   42.6610   40.5598 C   0  0  0  0  0  0  0  0  0  0  0  0
   46.0199   42.2532   41.8464 C   0  0  0  0  0  0  0  0  0  0  0  0
   44.4774   40.6198   41.1689 C   0  0  0  0  0  0  0  0  0  0  0  0
   44.7183   41.0139   39.8988 C   0  0  0  0  0  0  0  0  0  0  0  0
   45.5988   42.0148   39.5554 C   0  0  0  0  0  0  0  0  0  0  0  0
   42.6844   39.7604   42.3676 C   0  0  0  0  0  0  0  0  0  0  0  0
   41.7848   38.6776   42.7046 C   0  0  0  0  0  0  0  0  0  0  0  0
   40.7023   38.2533   41.9232 C   0  0  0  0  0  0  0  0  0  0  0  0
   39.9292   37.2124   42.3956 C   0  0  0  0  0  0  0  0  0  0  0  0
   40.2844   36.6216   43.5979 C   0  0  0  0  0  0  0  0  0  0  0  0
   41.3369   37.0987   44.3488 C   0  0  0  0  0  0  0  0  0  0  0  0
   52.2624   46.2613   46.7239 N   0  0  0  0  0  0  0  0  0  0  0  0
   51.5061   44.6054   44.0102 N   0  0  0  0  0  0  0  0  0  0  0  0
   43.5236   39.5341   41.4190 N   0  0  0  0  0  0  0  0  0  0  0  0
   42.0991   38.0819   43.8941 N   0  0  0  0  0  0  0  0  0  0  0  0
  1 17  2  0  0  0  0
  1 16  1  0  0  0  0
  2  3  2  0  0  0  0
  2 26  1  0  0  0  0
  3  4  1  0  0  0  0
  4  5  2  0  0  0  0
  5  6  1  0  0  0  0
  6  7  1  0  0  0  0
  6 26  2  0  0  0  0
  7 27  2  0  0  0  0
  8  9  2  0  0  0  0
  8 13  1  0  0  0  0
  8 27  1  0  0  0  0
  9 10  1  0  0  0  0
 10 11  2  0  0  0  0
 11 12  1  0  0  0  0
 11 14  1  0  0  0  0
 12 13  2  0  0  0  0
 14 15  1  0  0  0  0
 15 16  2  0  0  0  0
 15 19  1  0  0  0  0
 17 18  1  0  0  0  0
 17 28  1  0  0  0  0
 18 19  2  0  0  0  0
 20 21  1  0  0  0  0
 20 28  2  0  0  0  0
 21 22  2  0  0  0  0
 21 29  1  0  0  0  0
 22 23  1  0  0  0  0
 23 24  2  0  0  0  0
 24 25  1  0  0  0  0
 25 29  2  0  0  0  0
M  END
>  <CHROM.1>
63.40908150,-43.58341507,28.87984861,-72.69652737,-76.32222571,46.63880639
47.33889941,42.49340606,43.02783320,-3.05791753,0.62623839,1.80455644

>  <Name>
ligand

>  <RI>
0

>  <Rbt.Current_Directory>
/home/itssahil/PROJECTS/Mol_Feturizer/New_Systems/rnas/4JIY

>  <Rbt.Executable>
rbdock ($Id: //depot/dev/client3/rdock/2013.1/src/exe/rbdock.cxx#4 $)

>  <Rbt.Library>
libRbt.so (2013.1, Build901 2013/11/27)

>  <Rbt.Parameter_File>
/export/apps/rDock/src/rDock_2013.1_src/data/scripts/dock_solv.prm

>  <Rbt.Receptor>
prm/pocket_docking_6.prm

>  <SCORE>
-9.05329

>  <SCORE.INTER>
-9.19854

>  <SCORE.INTER.CONST>
1

>  <SCORE.INTER.POLAR>
0

>  <SCORE.INTER.ROT>
6

>  <SCORE.INTER.SOLV>
2.87481

>  <SCORE.INTER.VDW>
-14.6906

>  <SCORE.INTER.norm>
-0.317191

>  <SCORE.INTRA>
0.145251

>  <SCORE.INTRA.DIHEDRAL>
-0.0547445

>  <SCORE.INTRA.DIHEDRAL.0>
7.2424

>  <SCORE.INTRA.POLAR>
0

>  <SCORE.INTRA.POLAR.0>
0

>  <SCORE.INTRA.REPUL>
0

>  <SCORE.INTRA.REPUL.0>
0

>  <SCORE.INTRA.SOLV>
-0.0197348

>  <SCORE.INTRA.SOLV.lig_0>
-3.36201

>  <SCORE.INTRA.VDW>
0.182491

>  <SCORE.INTRA.VDW.0>
-0.910526

>  <SCORE.INTRA.norm>
0.00500866

>  <SCORE.RESTR>
0

>  <SCORE.RESTR.CAVITY>
0

>  <SCORE.RESTR.norm>
0

>  <SCORE.SYSTEM>
0

>  <SCORE.SYSTEM.CONST>
0

>  <SCORE.SYSTEM.DIHEDRAL>
0

>  <SCORE.SYSTEM.SOLV>
0

>  <SCORE.SYSTEM.norm>
0

>  <SCORE.heavy>
29

>  <SCORE.norm>
-0.312182

>  <RMSD>
5.978

$$$$
ligand
 OpenBabel11021811503D
libRbt.so/2013.1/901 2013/11/27
 29 32  0  0  0  0  0  0  0  0999 V2000
   45.6486   41.1183   39.5818 C   0  0  0  0  0  0  0  0  0  0  0  0
   51.5782   51.2530   45.4505 C   0  0  0  0  0  0  0  0  0  0  0  0
   52.4652   50.8909   46.4731 C   0  0  0  0  0  0  0  0  0  0  0  0
   52.8925   49.6149   46.5968 C   0  0  0  0  0  0  0  0  0  0  0  0
   52.3793   48.6600   45.7295 C   0  0  0  0  0  0  0  0  0  0  0  0
   51.5596   49.0530   44.7049 C   0  0  0  0  0  0  0  0  0  0  0  0
   51.0408   48.1879   43.6476 C   0  0  0  0  0  0  0  0  0  0  0  0
   49.7920   46.3295   43.0168 C   0  0  0  0  0  0  0  0  0  0  0  0
   48.6868   46.6342   42.2470 C   0  0  0  0  0  0  0  0  0  0  0  0
   48.2513   45.7097   41.2958 C   0  0  0  0  0  0  0  0  0  0  0  0
   48.9423   44.5557   41.0331 C   0  0  0  0  0  0  0  0  0  0  0  0
   50.0729   44.2801   41.8321 C   0  0  0  0  0  0  0  0  0  0  0  0
   50.4612   45.1324   42.8596 C   0  0  0  0  0  0  0  0  0  0  0  0
   48.5474   43.6195   39.8929 C   0  0  0  0  0  0  0  0  0  0  0  0
   47.3756   42.7105   40.2370 C   0  0  0  0  0  0  0  0  0  0  0  0
   46.7171   41.9544   39.3014 C   0  0  0  0  0  0  0  0  0  0  0  0
   45.2503   41.0418   40.8896 C   0  0  0  0  0  0  0  0  0  0  0  0
   45.8921   41.7896   41.8145 C   0  0  0  0  0  0  0  0  0  0  0  0
   46.9432   42.6322   41.5312 C   0  0  0  0  0  0  0  0  0  0  0  0
   43.3058   40.7324   42.1197 C   0  0  0  0  0  0  0  0  0  0  0  0
   42.2409   39.8893   42.6204 C   0  0  0  0  0  0  0  0  0  0  0  0
   42.3767   38.9323   43.6343 C   0  0  0  0  0  0  0  0  0  0  0  0
   41.2633   38.1969   43.9862 C   0  0  0  0  0  0  0  0  0  0  0  0
   40.0656   38.4674   43.3433 C   0  0  0  0  0  0  0  0  0  0  0  0
   39.9905   39.3938   42.3257 C   0  0  0  0  0  0  0  0  0  0  0  0
   51.1326   50.3363   44.5750 N   0  0  0  0  0  0  0  0  0  0  0  0
   50.2121   47.2642   44.0518 N   0  0  0  0  0  0  0  0  0  0  0  0
   44.1347   40.1840   41.3027 N   0  0  0  0  0  0  0  0  0  0  0  0
   41.0473   40.1209   41.9959 N   0  0  0  0  0  0  0  0  0  0  0  0
  1 17  2  0  0  0  0
  1 16  1  0  0  0  0
  2  3  2  0  0  0  0
  2 26  1  0  0  0  0
  3  4  1  0  0  0  0
  4  5  2  0  0  0  0
  5  6  1  0  0  0  0
  6  7  1  0  0  0  0
  6 26  2  0  0  0  0
  7 27  2  0  0  0  0
  8  9  2  0  0  0  0
  8 13  1  0  0  0  0
  8 27  1  0  0  0  0
  9 10  1  0  0  0  0
 10 11  2  0  0  0  0
 11 12  1  0  0  0  0
 11 14  1  0  0  0  0
 12 13  2  0  0  0  0
 14 15  1  0  0  0  0
 15 16  2  0  0  0  0
 15 19  1  0  0  0  0
 17 18  1  0  0  0  0
 17 28  1  0  0  0  0
 18 19  2  0  0  0  0
 20 21  1  0  0  0  0
 20 28  2  0  0  0  0
 21 22  2  0  0  0  0
 21 29  1  0  0  0  0
 22 23  1  0  0  0  0
 23 24  2  0  0  0  0
 24 25  1  0  0  0  0
 25 29  2  0  0  0  0
M  END
>  <CHROM.1>
65.95053407,-79.77802357,168.91100139,78.08681815,-88.32758664,-135.37694299
47.24365743,44.10049938,42.68455307,-2.57942633,0.62554545,1.01882863

>  <Name>
ligand

>  <RI>
0

>  <Rbt.Current_Directory>
/home/itssahil/PROJECTS/Mol_Feturizer/New_Systems/rnas/4JIY

>  <Rbt.Executable>
rbdock ($Id: //depot/dev/client3/rdock/2013.1/src/exe/rbdock.cxx#4 $)

>  <Rbt.Library>
libRbt.so (2013.1, Build901 2013/11/27)

>  <Rbt.Parameter_File>
/export/apps/rDock/src/rDock_2013.1_src/data/scripts/dock_solv.prm

>  <Rbt.Receptor>
prm/pocket_docking_7.prm

>  <SCORE>
-8.52388

>  <SCORE.INTER>
-8.42854

>  <SCORE.INTER.CONST>
1

>  <SCORE.INTER.POLAR>
0

>  <SCORE.INTER.ROT>
6

>  <SCORE.INTER.SOLV>
2.45335

>  <SCORE.INTER.VDW>
-14.0368

>  <SCORE.INTER.norm>
-0.290639

>  <SCORE.INTRA>
-0.0953329

>  <SCORE.INTRA.DIHEDRAL>
0.165172

>  <SCORE.INTRA.DIHEDRAL.0>
7.2424

>  <SCORE.INTRA.POLAR>
0

>  <SCORE.INTRA.POLAR.0>
0

>  <SCORE.INTRA.REPUL>
0

>  <SCORE.INTRA.REPUL.0>
0

>  <SCORE.INTRA.SOLV>
-0.0181034

>  <SCORE.INTRA.SOLV.lig_0>
-3.36201

>  <SCORE.INTRA.VDW>
-0.168867

>  <SCORE.INTRA.VDW.0>
-0.910526

>  <SCORE.INTRA.norm>
-0.00328734

>  <SCORE.RESTR>
0

>  <SCORE.RESTR.CAVITY>
0

>  <SCORE.RESTR.norm>
0

>  <SCORE.SYSTEM>
0

>  <SCORE.SYSTEM.CONST>
0

>  <SCORE.SYSTEM.DIHEDRAL>
0

>  <SCORE.SYSTEM.SOLV>
0

>  <SCORE.SYSTEM.norm>
0

>  <SCORE.heavy>
29

>  <SCORE.norm>
-0.293927

>  <RMSD>
6.007

$$$$
ligand
 OpenBabel11021811503D
libRbt.so/2013.1/901 2013/11/27
 29 32  0  0  0  0  0  0  0  0999 V2000
   47.5517   43.3992   42.4090 C   0  0  0  0  0  0  0  0  0  0  0  0
   38.0871   48.9399   40.3987 C   0  0  0  0  0  0  0  0  0  0  0  0
   36.7619   48.5765   40.6737 C   0  0  0  0  0  0  0  0  0  0  0  0
   36.4579   47.3197   41.0665 C   0  0  0  0  0  0  0  0  0  0  0  0
   37.4794   46.3814   41.1252 C   0  0  0  0  0  0  0  0  0  0  0  0
   38.7719   46.7791   40.9072 C   0  0  0  0  0  0  0  0  0  0  0  0
   39.9588   45.9389   41.0505 C   0  0  0  0  0  0  0  0  0  0  0  0
   41.1681   44.0591   40.4063 C   0  0  0  0  0  0  0  0  0  0  0  0
   42.3047   44.1965   39.6341 C   0  0  0  0  0  0  0  0  0  0  0  0
   43.3517   43.2893   39.8070 C   0  0  0  0  0  0  0  0  0  0  0  0
   43.3288   42.3295   40.7851 C   0  0  0  0  0  0  0  0  0  0  0  0
   42.1554   42.2233   41.5626 C   0  0  0  0  0  0  0  0  0  0  0  0
   41.0563   43.0436   41.3346 C   0  0  0  0  0  0  0  0  0  0  0  0
   44.5344   41.4359   41.0683 C   0  0  0  0  0  0  0  0  0  0  0  0
   45.5462   42.0694   42.0132 C   0  0  0  0  0  0  0  0  0  0  0  0
   46.6144   42.8102   41.5760 C   0  0  0  0  0  0  0  0  0  0  0  0
   47.3715   43.2344   43.7562 C   0  0  0  0  0  0  0  0  0  0  0  0
   46.3239   42.5001   44.1919 C   0  0  0  0  0  0  0  0  0  0  0  0
   45.4027   41.9020   43.3620 C   0  0  0  0  0  0  0  0  0  0  0  0
   47.8923   44.9132   45.2730 C   0  0  0  0  0  0  0  0  0  0  0  0
   48.8170   45.5683   46.1736 C   0  0  0  0  0  0  0  0  0  0  0  0
   49.4260   44.9687   47.2835 C   0  0  0  0  0  0  0  0  0  0  0  0
   50.2742   45.7383   48.0533 C   0  0  0  0  0  0  0  0  0  0  0  0
   50.5043   47.0497   47.6686 C   0  0  0  0  0  0  0  0  0  0  0  0
   49.8528   47.6059   46.5889 C   0  0  0  0  0  0  0  0  0  0  0  0
   39.0810   48.0434   40.5172 N   0  0  0  0  0  0  0  0  0  0  0  0
   40.0497   44.9657   40.1857 N   0  0  0  0  0  0  0  0  0  0  0  0
   48.2982   43.8191   44.7312 N   0  0  0  0  0  0  0  0  0  0  0  0
   49.0546   46.8699   45.8303 N   0  0  0  0  0  0  0  0  0  0  0  0
  1 17  2  0  0  0  0
  1 16  1  0  0  0  0
  2  3  2  0  0  0  0
  2 26  1  0  0  0  0
  3  4  1  0  0  0  0
  4  5  2  0  0  0  0
  5  6  1  0  0  0  0
  6  7  1  0  0  0  0
  6 26  2  0  0  0  0
  7 27  2  0  0  0  0
  8  9  2  0  0  0  0
  8 13  1  0  0  0  0
  8 27  1  0  0  0  0
  9 10  1  0  0  0  0
 10 11  2  0  0  0  0
 11 12  1  0  0  0  0
 11 14  1  0  0  0  0
 12 13  2  0  0  0  0
 14 15  1  0  0  0  0
 15 16  2  0  0  0  0
 15 19  1  0  0  0  0
 17 18  1  0  0  0  0
 17 28  1  0  0  0  0
 18 19  2  0  0  0  0
 20 21  1  0  0  0  0
 20 28  2  0  0  0  0
 21 22  2  0  0  0  0
 21 29  1  0  0  0  0
 22 23  1  0  0  0  0
 23 24  2  0  0  0  0
 24 25  1  0  0  0  0
 25 29  2  0  0  0  0
M  END
>  <CHROM.1>
66.74651597,84.90538834,-91.77750294,-54.51913972,-100.96347838,99.97151218
44.05448574,44.83526986,42.73380759,-0.13311436,0.47453497,-2.63021450

>  <Name>
ligand

>  <RI>
0

>  <Rbt.Current_Directory>
/home/itssahil/PROJECTS/Mol_Feturizer/New_Systems/rnas/4JIY

>  <Rbt.Executable>
rbdock ($Id: //depot/dev/client3/rdock/2013.1/src/exe/rbdock.cxx#4 $)

>  <Rbt.Library>
libRbt.so (2013.1, Build901 2013/11/27)

>  <Rbt.Parameter_File>
/export/apps/rDock/src/rDock_2013.1_src/data/scripts/dock_solv.prm

>  <Rbt.Receptor>
prm/pocket_docking_5.prm

>  <SCORE>
-0.48259

>  <SCORE.INTER>
0.732631

>  <SCORE.INTER.CONST>
1

>  <SCORE.INTER.POLAR>
0

>  <SCORE.INTER.ROT>
6

>  <SCORE.INTER.SOLV>
0.776369

>  <SCORE.INTER.VDW>
-7.37037

>  <SCORE.INTER.norm>
0.0252631

>  <SCORE.INTRA>
-1.21884

>  <SCORE.INTRA.DIHEDRAL>
-0.152079

>  <SCORE.INTRA.DIHEDRAL.0>
7.2424

>  <SCORE.INTRA.POLAR>
0

>  <SCORE.INTRA.POLAR.0>
0

>  <SCORE.INTRA.REPUL>
0

>  <SCORE.INTRA.REPUL.0>
0

>  <SCORE.INTRA.SOLV>
-0.0202564

>  <SCORE.INTRA.SOLV.lig_0>
-3.36201

>  <SCORE.INTRA.VDW>
-1.13267

>  <SCORE.INTRA.VDW.0>
-0.910526

>  <SCORE.INTRA.norm>
-0.0420289

>  <SCORE.RESTR>
0.00361684

>  <SCORE.RESTR.CAVITY>
0.00361684

>  <SCORE.RESTR.norm>
0.000124719

>  <SCORE.SYSTEM>
0

>  <SCORE.SYSTEM.CONST>
0

>  <SCORE.SYSTEM.DIHEDRAL>
0

>  <SCORE.SYSTEM.SOLV>
0

>  <SCORE.SYSTEM.norm>
0

>  <SCORE.heavy>
29

>  <SCORE.norm>
-0.016641

>  <RMSD>
6.008

$$$$
ligand
 OpenBabel11021811503D
libRbt.so/2013.1/901 2013/11/27
 29 32  0  0  0  0  0  0  0  0999 V2000
   51.2418   44.5788   41.7259 C   0  0  0  0  0  0  0  0  0  0  0  0
   39.8939   38.2097   41.2094 C   0  0  0  0  0  0  0  0  0  0  0  0
   39.6618   37.6630   42.4787 C   0  0  0  0  0  0  0  0  0  0  0  0
   40.6208   37.6952   43.4302 C   0  0  0  0  0  0  0  0  0  0  0  0
   41.8621   38.2211   43.0986 C   0  0  0  0  0  0  0  0  0  0  0  0
   42.0413   38.7999   41.8702 C   0  0  0  0  0  0  0  0  0  0  0  0
   43.2451   39.4973   41.4230 C   0  0  0  0  0  0  0  0  0  0  0  0
   44.6018   41.3859   41.4848 C   0  0  0  0  0  0  0  0  0  0  0  0
   45.6779   41.6499   42.3089 C   0  0  0  0  0  0  0  0  0  0  0  0
   46.7339   42.4178   41.8147 C   0  0  0  0  0  0  0  0  0  0  0  0
   46.7828   42.8335   40.5097 C   0  0  0  0  0  0  0  0  0  0  0  0
   45.6703   42.5381   39.6924 C   0  0  0  0  0  0  0  0  0  0  0  0
   44.5582   41.8707   40.1931 C   0  0  0  0  0  0  0  0  0  0  0  0
   48.0052   43.5452   39.9338 C   0  0  0  0  0  0  0  0  0  0  0  0
   48.9804   44.0267   40.9991 C   0  0  0  0  0  0  0  0  0  0  0  0
   50.3289   44.1443   40.7788 C   0  0  0  0  0  0  0  0  0  0  0  0
   50.7418   44.9269   42.9521 C   0  0  0  0  0  0  0  0  0  0  0  0
   49.4144   44.8070   43.1762 C   0  0  0  0  0  0  0  0  0  0  0  0
   48.5110   44.3595   42.2388 C   0  0  0  0  0  0  0  0  0  0  0  0
   51.7420   46.6852   44.0914 C   0  0  0  0  0  0  0  0  0  0  0  0
   52.6657   47.1933   45.0834 C   0  0  0  0  0  0  0  0  0  0  0  0
   52.6556   46.8586   46.4436 C   0  0  0  0  0  0  0  0  0  0  0  0
   53.5984   47.4447   47.2634 C   0  0  0  0  0  0  0  0  0  0  0  0
   54.5237   48.3043   46.6927 C   0  0  0  0  0  0  0  0  0  0  0  0
   54.4701   48.6311   45.3549 C   0  0  0  0  0  0  0  0  0  0  0  0
   41.0770   38.7737   40.9133 N   0  0  0  0  0  0  0  0  0  0  0  0
   43.4710   40.6375   42.0165 N   0  0  0  0  0  0  0  0  0  0  0  0
   51.6150   45.4065   44.0285 N   0  0  0  0  0  0  0  0  0  0  0  0
   53.5840   48.0571   44.5551 N   0  0  0  0  0  0  0  0  0  0  0  0
  1 17  2  0  0  0  0
  1 16  1  0  0  0  0
  2  3  2  0  0  0  0
  2 26  1  0  0  0  0
  3  4  1  0  0  0  0
  4  5  2  0  0  0  0
  5  6  1  0  0  0  0
  6  7  1  0  0  0  0
  6 26  2  0  0  0  0
  7 27  2  0  0  0  0
  8  9  2  0  0  0  0
  8 13  1  0  0  0  0
  8 27  1  0  0  0  0
  9 10  1  0  0  0  0
 10 11  2  0  0  0  0
 11 12  1  0  0  0  0
 11 14  1  0  0  0  0
 12 13  2  0  0  0  0
 14 15  1  0  0  0  0
 15 16  2  0  0  0  0
 15 19  1  0  0  0  0
 17 18  1  0  0  0  0
 17 28  1  0  0  0  0
 18 19  2  0  0  0  0
 20 21  1  0  0  0  0
 20 28  2  0  0  0  0
 21 22  2  0  0  0  0
 21 29  1  0  0  0  0
 22 23  1  0  0  0  0
 23 24  2  0  0  0  0
 24 25  1  0  0  0  0
 25 29  2  0  0  0  0
M  END
>  <CHROM.1>
-69.20987552,-13.66574577,150.73413704,-52.25237379,-117.81673399,93.02961157
47.51726149,43.14715211,42.67084893,-0.22012367,-0.62898564,-1.55847100

>  <Name>
ligand

>  <RI>
0

>  <Rbt.Current_Directory>
/home/itssahil/PROJECTS/Mol_Feturizer/New_Systems/rnas/4JIY

>  <Rbt.Executable>
rbdock ($Id: //depot/dev/client3/rdock/2013.1/src/exe/rbdock.cxx#4 $)

>  <Rbt.Library>
libRbt.so (2013.1, Build901 2013/11/27)

>  <Rbt.Parameter_File>
/export/apps/rDock/src/rDock_2013.1_src/data/scripts/dock_solv.prm

>  <Rbt.Receptor>
prm/pocket_docking_6.prm

>  <SCORE>
-6.17637

>  <SCORE.INTER>
-6.82593

>  <SCORE.INTER.CONST>
1

>  <SCORE.INTER.POLAR>
0

>  <SCORE.INTER.ROT>
6

>  <SCORE.INTER.SOLV>
2.39869

>  <SCORE.INTER.VDW>
-12.9502

>  <SCORE.INTER.norm>
-0.235377

>  <SCORE.INTRA>
0.649564

>  <SCORE.INTRA.DIHEDRAL>
-0.0448384

>  <SCORE.INTRA.DIHEDRAL.0>
7.2424

>  <SCORE.INTRA.POLAR>
0

>  <SCORE.INTRA.POLAR.0>
0

>  <SCORE.INTRA.REPUL>
0

>  <SCORE.INTRA.REPUL.0>
0

>  <SCORE.INTRA.SOLV>
-0.0202538

>  <SCORE.INTRA.SOLV.lig_0>
-3.36201

>  <SCORE.INTRA.VDW>
0.68211

>  <SCORE.INTRA.VDW.0>
-0.910526

>  <SCORE.INTRA.norm>
0.0223988

>  <SCORE.RESTR>
0

>  <SCORE.RESTR.CAVITY>
0

>  <SCORE.RESTR.norm>
0

>  <SCORE.SYSTEM>
0

>  <SCORE.SYSTEM.CONST>
0

>  <SCORE.SYSTEM.DIHEDRAL>
0

>  <SCORE.SYSTEM.SOLV>
0

>  <SCORE.SYSTEM.norm>
0

>  <SCORE.heavy>
29

>  <SCORE.norm>
-0.212978

>  <RMSD>
6.011

$$$$
ligand
 OpenBabel11021811503D
libRbt.so/2013.1/901 2013/11/27
 29 32  0  0  0  0  0  0  0  0999 V2000
   44.3402   41.0317   43.1707 C   0  0  0  0  0  0  0  0  0  0  0  0
   52.6285   47.8908   41.7207 C   0  0  0  0  0  0  0  0  0  0  0  0
   52.1292   49.1883   41.8954 C   0  0  0  0  0  0  0  0  0  0  0  0
   50.8002   49.4286   41.8507 C   0  0  0  0  0  0  0  0  0  0  0  0
   49.9479   48.3719   41.5603 C   0  0  0  0  0  0  0  0  0  0  0  0
   50.4588   47.1057   41.4517 C   0  0  0  0  0  0  0  0  0  0  0  0
   49.6787   45.8836   41.2691 C   0  0  0  0  0  0  0  0  0  0  0  0
   48.1996   44.6280   39.9859 C   0  0  0  0  0  0  0  0  0  0  0  0
   46.8335   44.8023   40.0876 C   0  0  0  0  0  0  0  0  0  0  0  0
   46.0033   43.6819   40.0199 C   0  0  0  0  0  0  0  0  0  0  0  0
   46.4922   42.4289   39.7568 C   0  0  0  0  0  0  0  0  0  0  0  0
   47.8927   42.2882   39.6491 C   0  0  0  0  0  0  0  0  0  0  0  0
   48.7470   43.3712   39.8231 C   0  0  0  0  0  0  0  0  0  0  0  0
   45.5700   41.2317   39.5371 C   0  0  0  0  0  0  0  0  0  0  0  0
   44.7843   40.8391   40.7806 C   0  0  0  0  0  0  0  0  0  0  0  0
   45.0362   41.3675   42.0209 C   0  0  0  0  0  0  0  0  0  0  0  0
   43.3246   40.1234   43.0355 C   0  0  0  0  0  0  0  0  0  0  0  0
   43.0764   39.5952   41.8165 C   0  0  0  0  0  0  0  0  0  0  0  0
   43.7798   39.9180   40.6780 C   0  0  0  0  0  0  0  0  0  0  0  0
   41.5408   40.4846   44.4770 C   0  0  0  0  0  0  0  0  0  0  0  0
   40.7749   40.1479   45.6582 C   0  0  0  0  0  0  0  0  0  0  0  0
   39.9201   39.0449   45.7800 C   0  0  0  0  0  0  0  0  0  0  0  0
   39.2477   38.8732   46.9728 C   0  0  0  0  0  0  0  0  0  0  0  0
   39.4795   39.7794   47.9954 C   0  0  0  0  0  0  0  0  0  0  0  0
   40.3022   40.8702   47.8150 C   0  0  0  0  0  0  0  0  0  0  0  0
   51.7943   46.8605   41.5015 N   0  0  0  0  0  0  0  0  0  0  0  0
   49.0719   45.7869   40.1177 N   0  0  0  0  0  0  0  0  0  0  0  0
   42.5169   39.6993   44.1839 N   0  0  0  0  0  0  0  0  0  0  0  0
   40.9698   41.0318   46.6825 N   0  0  0  0  0  0  0  0  0  0  0  0
  1 17  2  0  0  0  0
  1 16  1  0  0  0  0
  2  3  2  0  0  0  0
  2 26  1  0  0  0  0
  3  4  1  0  0  0  0
  4  5  2  0  0  0  0
  5  6  1  0  0  0  0
  6  7  1  0  0  0  0
  6 26  2  0  0  0  0
  7 27  2  0  0  0  0
  8  9  2  0  0  0  0
  8 13  1  0  0  0  0
  8 27  1  0  0  0  0
  9 10  1  0  0  0  0
 10 11  2  0  0  0  0
 11 12  1  0  0  0  0
 11 14  1  0  0  0  0
 12 13  2  0  0  0  0
 14 15  1  0  0  0  0
 15 16  2  0  0  0  0
 15 19  1  0  0  0  0
 17 18  1  0  0  0  0
 17 28  1  0  0  0  0
 18 19  2  0  0  0  0
 20 21  1  0  0  0  0
 20 28  2  0  0  0  0
 21 22  2  0  0  0  0
 21 29  1  0  0  0  0
 22 23  1  0  0  0  0
 23 24  2  0  0  0  0
 24 25  1  0  0  0  0
 25 29  2  0  0  0  0
M  END
>  <CHROM.1>
67.62795208,-66.17533533,-9.78243460,-69.60927649,103.31738248,83.75482419
45.70875366,42.95727021,42.45906870,-3.13317129,0.72480402,0.99662805

>  <Name>
ligand

>  <RI>
0

>  <Rbt.Current_Directory>
/home/itssahil/PROJECTS/Mol_Feturizer/New_Systems/rnas/4JIY

>  <Rbt.Executable>
rbdock ($Id: //depot/dev/client3/rdock/2013.1/src/exe/rbdock.cxx#4 $)

>  <Rbt.Library>
libRbt.so (2013.1, Build901 2013/11/27)

>  <Rbt.Parameter_File>
/export/apps/rDock/src/rDock_2013.1_src/data/scripts/dock_solv.prm

>  <Rbt.Receptor>
prm/pocket_docking_7.prm

>  <SCORE>
-10.3428

>  <SCORE.INTER>
-9.58489

>  <SCORE.INTER.CONST>
1

>  <SCORE.INTER.POLAR>
0

>  <SCORE.INTER.ROT>
6

>  <SCORE.INTER.SOLV>
2.39021

>  <SCORE.INTER.VDW>
-14.7867

>  <SCORE.INTER.norm>
-0.330513

>  <SCORE.INTRA>
-0.757898

>  <SCORE.INTRA.DIHEDRAL>
0.124035

>  <SCORE.INTRA.DIHEDRAL.0>
7.2424

>  <SCORE.INTRA.POLAR>
0

>  <SCORE.INTRA.POLAR.0>
0

>  <SCORE.INTRA.REPUL>
0

>  <SCORE.INTRA.REPUL.0>
0

>  <SCORE.INTRA.SOLV>
-0.0190895

>  <SCORE.INTRA.SOLV.lig_0>
-3.36201

>  <SCORE.INTRA.VDW>
-0.810371

>  <SCORE.INTRA.VDW.0>
-0.910526

>  <SCORE.INTRA.norm>
-0.0261344

>  <SCORE.RESTR>
0

>  <SCORE.RESTR.CAVITY>
0

>  <SCORE.RESTR.norm>
0

>  <SCORE.SYSTEM>
0

>  <SCORE.SYSTEM.CONST>
0

>  <SCORE.SYSTEM.DIHEDRAL>
0

>  <SCORE.SYSTEM.SOLV>
0

>  <SCORE.SYSTEM.norm>
0

>  <SCORE.heavy>
29

>  <SCORE.norm>
-0.356648

>  <RMSD>
6.032

$$$$
ligand
 OpenBabel11021811503D
libRbt.so/2013.1/901 2013/11/27
 29 32  0  0  0  0  0  0  0  0999 V2000
   40.0477   39.8030   41.5592 C   0  0  0  0  0  0  0  0  0  0  0  0
   50.5461   45.9264   38.7880 C   0  0  0  0  0  0  0  0  0  0  0  0
   51.4553   46.0997   39.8401 C   0  0  0  0  0  0  0  0  0  0  0  0
   51.4195   45.2929   40.9236 C   0  0  0  0  0  0  0  0  0  0  0  0
   50.4188   44.3336   40.9993 C   0  0  0  0  0  0  0  0  0  0  0  0
   49.5811   44.1493   39.9313 C   0  0  0  0  0  0  0  0  0  0  0  0
   48.5639   43.1068   39.8148 C   0  0  0  0  0  0  0  0  0  0  0  0
   46.4180   42.3443   40.2892 C   0  0  0  0  0  0  0  0  0  0  0  0
   46.1597   41.6829   39.1048 C   0  0  0  0  0  0  0  0  0  0  0  0
   45.1817   40.6868   39.0876 C   0  0  0  0  0  0  0  0  0  0  0  0
   44.5408   40.2765   40.2274 C   0  0  0  0  0  0  0  0  0  0  0  0
   44.8358   40.9677   41.4223 C   0  0  0  0  0  0  0  0  0  0  0  0
   45.7246   42.0366   41.4425 C   0  0  0  0  0  0  0  0  0  0  0  0
   43.5808   39.0888   40.2314 C   0  0  0  0  0  0  0  0  0  0  0  0
   42.3962   39.2738   41.1695 C   0  0  0  0  0  0  0  0  0  0  0  0
   41.1452   39.6270   40.7322 C   0  0  0  0  0  0  0  0  0  0  0  0
   40.2413   39.5872   42.8973 C   0  0  0  0  0  0  0  0  0  0  0  0
   41.4735   39.2448   43.3341 C   0  0  0  0  0  0  0  0  0  0  0  0
   42.5668   39.0863   42.5126 C   0  0  0  0  0  0  0  0  0  0  0  0
   38.9409   40.9442   44.2604 C   0  0  0  0  0  0  0  0  0  0  0  0
   37.9308   41.1223   45.2818 C   0  0  0  0  0  0  0  0  0  0  0  0
   36.5692   40.8292   45.1319 C   0  0  0  0  0  0  0  0  0  0  0  0
   35.7313   41.0718   46.2012 C   0  0  0  0  0  0  0  0  0  0  0  0
   36.2855   41.5589   47.3744 C   0  0  0  0  0  0  0  0  0  0  0  0
   37.6261   41.8665   47.4614 C   0  0  0  0  0  0  0  0  0  0  0  0
   49.6183   44.9557   38.8384 N   0  0  0  0  0  0  0  0  0  0  0  0
   47.3937   43.4256   40.2969 N   0  0  0  0  0  0  0  0  0  0  0  0
   39.1489   39.7379   43.8644 N   0  0  0  0  0  0  0  0  0  0  0  0
   38.4428   41.6162   46.4491 N   0  0  0  0  0  0  0  0  0  0  0  0
  1 17  2  0  0  0  0
  1 16  1  0  0  0  0
  2  3  2  0  0  0  0
  2 26  1  0  0  0  0
  3  4  1  0  0  0  0
  4  5  2  0  0  0  0
  5  6  1  0  0  0  0
  6  7  1  0  0  0  0
  6 26  2  0  0  0  0
  7 27  2  0  0  0  0
  8  9  2  0  0  0  0
  8 13  1  0  0  0  0
  8 27  1  0  0  0  0
  9 10  1  0  0  0  0
 10 11  2  0  0  0  0
 11 12  1  0  0  0  0
 11 14  1  0  0  0  0
 12 13  2  0  0  0  0
 14 15  1  0  0  0  0
 15 16  2  0  0  0  0
 15 19  1  0  0  0  0
 17 18  1  0  0  0  0
 17 28  1  0  0  0  0
 18 19  2  0  0  0  0
 20 21  1  0  0  0  0
 20 28  2  0  0  0  0
 21 22  2  0  0  0  0
 21 29  1  0  0  0  0
 22 23  1  0  0  0  0
 23 24  2  0  0  0  0
 24 25  1  0  0  0  0
 25 29  2  0  0  0  0
M  END
>  <CHROM.1>
88.59569849,-144.00210902,101.72171975,-63.27057124,-53.84953580,-83.37322065
43.58802008,41.71822689,42.04723667,3.06288969,0.50662621,0.74401224

>  <Name>
ligand

>  <RI>
0

>  <Rbt.Current_Directory>
/home/itssahil/PROJECTS/Mol_Feturizer/New_Systems/rnas/4JIY

>  <Rbt.Executable>
rbdock ($Id: //depot/dev/client3/rdock/2013.1/src/exe/rbdock.cxx#4 $)

>  <Rbt.Library>
libRbt.so (2013.1, Build901 2013/11/27)

>  <Rbt.Parameter_File>
/export/apps/rDock/src/rDock_2013.1_src/data/scripts/dock_solv.prm

>  <Rbt.Receptor>
prm/pocket_docking_7.prm

>  <SCORE>
-9.26244

>  <SCORE.INTER>
-8.73809

>  <SCORE.INTER.CONST>
1

>  <SCORE.INTER.POLAR>
0

>  <SCORE.INTER.ROT>
6

>  <SCORE.INTER.SOLV>
2.98736

>  <SCORE.INTER.VDW>
-14.4212

>  <SCORE.INTER.norm>
-0.301314

>  <SCORE.INTRA>
-0.524343

>  <SCORE.INTRA.DIHEDRAL>
0.162847

>  <SCORE.INTRA.DIHEDRAL.0>
7.2424

>  <SCORE.INTRA.POLAR>
0

>  <SCORE.INTRA.POLAR.0>
0

>  <SCORE.INTRA.REPUL>
0

>  <SCORE.INTRA.REPUL.0>
0

>  <SCORE.INTRA.SOLV>
-0.0186087

>  <SCORE.INTRA.SOLV.lig_0>
-3.36201

>  <SCORE.INTRA.VDW>
-0.596463

>  <SCORE.INTRA.VDW.0>
-0.910526

>  <SCORE.INTRA.norm>
-0.0180808

>  <SCORE.RESTR>
0

>  <SCORE.RESTR.CAVITY>
0

>  <SCORE.RESTR.norm>
0

>  <SCORE.SYSTEM>
0

>  <SCORE.SYSTEM.CONST>
0

>  <SCORE.SYSTEM.DIHEDRAL>
0

>  <SCORE.SYSTEM.SOLV>
0

>  <SCORE.SYSTEM.norm>
0

>  <SCORE.heavy>
29

>  <SCORE.norm>
-0.319394

>  <RMSD>
6.036

$$$$
ligand
 OpenBabel11021811503D
libRbt.so/2013.1/901 2013/11/27
 29 32  0  0  0  0  0  0  0  0999 V2000
   41.2326   42.5433   40.0978 C   0  0  0  0  0  0  0  0  0  0  0  0
   51.7312   45.2309   46.6525 C   0  0  0  0  0  0  0  0  0  0  0  0
   51.4389   45.3240   48.0198 C   0  0  0  0  0  0  0  0  0  0  0  0
   50.3046   44.7877   48.5216 C   0  0  0  0  0  0  0  0  0  0  0  0
   49.4052   44.2028   47.6404 C   0  0  0  0  0  0  0  0  0  0  0  0
   49.7439   44.0751   46.3194 C   0  0  0  0  0  0  0  0  0  0  0  0
   48.9594   43.3805   45.3008 C   0  0  0  0  0  0  0  0  0  0  0  0
   47.1420   43.3542   43.8491 C   0  0  0  0  0  0  0  0  0  0  0  0
   47.4124   43.4139   42.4963 C   0  0  0  0  0  0  0  0  0  0  0  0
   46.5574   42.7596   41.6076 C   0  0  0  0  0  0  0  0  0  0  0  0
   45.5172   41.9791   42.0401 C   0  0  0  0  0  0  0  0  0  0  0  0
   45.2750   41.9326   43.4300 C   0  0  0  0  0  0  0  0  0  0  0  0
   46.0454   42.6647   44.3263 C   0  0  0  0  0  0  0  0  0  0  0  0
   44.6755   41.1475   41.0745 C   0  0  0  0  0  0  0  0  0  0  0  0
   43.5802   41.9490   40.3848 C   0  0  0  0  0  0  0  0  0  0  0  0
   42.2523   41.8292   40.7058 C   0  0  0  0  0  0  0  0  0  0  0  0
   41.5976   43.4367   39.1266 C   0  0  0  0  0  0  0  0  0  0  0  0
   42.9043   43.5541   38.8024 C   0  0  0  0  0  0  0  0  0  0  0  0
   43.9146   42.8318   39.3964 C   0  0  0  0  0  0  0  0  0  0  0  0
   39.9701   45.0921   39.1608 C   0  0  0  0  0  0  0  0  0  0  0  0
   38.9179   45.8514   38.5192 C   0  0  0  0  0  0  0  0  0  0  0  0
   39.1151   46.8728   37.5811 C   0  0  0  0  0  0  0  0  0  0  0  0
   38.0023   47.5119   37.0735 C   0  0  0  0  0  0  0  0  0  0  0  0
   36.7512   47.0871   37.4920 C   0  0  0  0  0  0  0  0  0  0  0  0
   36.6095   46.1019   38.4452 C   0  0  0  0  0  0  0  0  0  0  0  0
   50.8862   44.6089   45.8131 N   0  0  0  0  0  0  0  0  0  0  0  0
   47.9963   44.0863   44.7740 N   0  0  0  0  0  0  0  0  0  0  0  0
   40.6028   44.2512   38.4207 N   0  0  0  0  0  0  0  0  0  0  0  0
   37.6695   45.4667   38.9218 N   0  0  0  0  0  0  0  0  0  0  0  0
  1 17  2  0  0  0  0
  1 16  1  0  0  0  0
  2  3  2  0  0  0  0
  2 26  1  0  0  0  0
  3  4  1  0  0  0  0
  4  5  2  0  0  0  0
  5  6  1  0  0  0  0
  6  7  1  0  0  0  0
  6 26  2  0  0  0  0
  7 27  2  0  0  0  0
  8  9  2  0  0  0  0
  8 13  1  0  0  0  0
  8 27  1  0  0  0  0
  9 10  1  0  0  0  0
 10 11  2  0  0  0  0
 11 12  1  0  0  0  0
 11 14  1  0  0  0  0
 12 13  2  0  0  0  0
 14 15  1  0  0  0  0
 15 16  2  0  0  0  0
 15 19  1  0  0  0  0
 17 18  1  0  0  0  0
 17 28  1  0  0  0  0
 18 19  2  0  0  0  0
 20 21  1  0  0  0  0
 20 28  2  0  0  0  0
 21 22  2  0  0  0  0
 21 29  1  0  0  0  0
 22 23  1  0  0  0  0
 23 24  2  0  0  0  0
 24 25  1  0  0  0  0
 25 29  2  0  0  0  0
M  END
>  <CHROM.1>
83.06008624,-82.15193908,-106.40637722,-71.26941242,-95.18150696,64.57818619
44.35312035,44.04296264,41.92885214,-2.98583966,-0.62050511,0.42277096

>  <Name>
ligand

>  <RI>
0

>  <Rbt.Current_Directory>
/home/itssahil/PROJECTS/Mol_Feturizer/New_Systems/rnas/4JIY

>  <Rbt.Executable>
rbdock ($Id: //depot/dev/client3/rdock/2013.1/src/exe/rbdock.cxx#4 $)

>  <Rbt.Library>
libRbt.so (2013.1, Build901 2013/11/27)

>  <Rbt.Parameter_File>
/export/apps/rDock/src/rDock_2013.1_src/data/scripts/dock_solv.prm

>  <Rbt.Receptor>
prm/pocket_docking_5.prm

>  <SCORE>
-2.06285

>  <SCORE.INTER>
-1.50653

>  <SCORE.INTER.CONST>
1

>  <SCORE.INTER.POLAR>
0

>  <SCORE.INTER.ROT>
6

>  <SCORE.INTER.SOLV>
1.45261

>  <SCORE.INTER.VDW>
-9.08856

>  <SCORE.INTER.norm>
-0.0519494

>  <SCORE.INTRA>
-0.911831

>  <SCORE.INTRA.DIHEDRAL>
0.277905

>  <SCORE.INTRA.DIHEDRAL.0>
7.2424

>  <SCORE.INTRA.POLAR>
0

>  <SCORE.INTRA.POLAR.0>
0

>  <SCORE.INTRA.REPUL>
0

>  <SCORE.INTRA.REPUL.0>
0

>  <SCORE.INTRA.SOLV>
-0.0193499

>  <SCORE.INTRA.SOLV.lig_0>
-3.36201

>  <SCORE.INTRA.VDW>
-1.04111

>  <SCORE.INTRA.VDW.0>
-0.910526

>  <SCORE.INTRA.norm>
-0.0314424

>  <SCORE.RESTR>
0.355516

>  <SCORE.RESTR.CAVITY>
0.355516

>  <SCORE.RESTR.norm>
0.0122592

>  <SCORE.SYSTEM>
0

>  <SCORE.SYSTEM.CONST>
0

>  <SCORE.SYSTEM.DIHEDRAL>
0

>  <SCORE.SYSTEM.SOLV>
0

>  <SCORE.SYSTEM.norm>
0

>  <SCORE.heavy>
29

>  <SCORE.norm>
-0.0711327

>  <RMSD>
6.037

$$$$
ligand
 OpenBabel11021811503D
libRbt.so/2013.1/901 2013/11/27
 29 32  0  0  0  0  0  0  0  0999 V2000
   44.5988   41.2278   40.3652 C   0  0  0  0  0  0  0  0  0  0  0  0
   47.6905   53.0464   42.1439 C   0  0  0  0  0  0  0  0  0  0  0  0
   48.9358   53.5902   42.4860 C   0  0  0  0  0  0  0  0  0  0  0  0
   50.0604   52.8454   42.4048 C   0  0  0  0  0  0  0  0  0  0  0  0
   49.9432   51.5110   42.0399 C   0  0  0  0  0  0  0  0  0  0  0  0
   48.7223   51.0232   41.6558 C   0  0  0  0  0  0  0  0  0  0  0  0
   48.4647   49.6825   41.1347 C   0  0  0  0  0  0  0  0  0  0  0  0
   48.1481   47.4114   41.5259 C   0  0  0  0  0  0  0  0  0  0  0  0
   46.9258   47.0030   41.0297 C   0  0  0  0  0  0  0  0  0  0  0  0
   46.7829   45.6867   40.5870 C   0  0  0  0  0  0  0  0  0  0  0  0
   47.8410   44.8171   40.5366 C   0  0  0  0  0  0  0  0  0  0  0  0
   49.0782   45.2704   41.0429 C   0  0  0  0  0  0  0  0  0  0  0  0
   49.2171   46.5405   41.5911 C   0  0  0  0  0  0  0  0  0  0  0  0
   47.7156   43.4275   39.9155 C   0  0  0  0  0  0  0  0  0  0  0  0
   46.6194   42.5809   40.5474 C   0  0  0  0  0  0  0  0  0  0  0  0
   45.6099   42.0028   39.8210 C   0  0  0  0  0  0  0  0  0  0  0  0
   44.6381   41.0219   41.7183 C   0  0  0  0  0  0  0  0  0  0  0  0
   45.6273   41.5944   42.4394 C   0  0  0  0  0  0  0  0  0  0  0  0
   46.6221   42.3777   41.8990 C   0  0  0  0  0  0  0  0  0  0  0  0
   43.1554   40.7319   43.4812 C   0  0  0  0  0  0  0  0  0  0  0  0
   42.2172   39.9239   44.2311 C   0  0  0  0  0  0  0  0  0  0  0  0
   40.9349   39.5628   43.7980 C   0  0  0  0  0  0  0  0  0  0  0  0
   40.1557   38.7985   44.6424 C   0  0  0  0  0  0  0  0  0  0  0  0
   40.6946   38.4014   45.8559 C   0  0  0  0  0  0  0  0  0  0  0  0
   41.9484   38.8129   46.2536 C   0  0  0  0  0  0  0  0  0  0  0  0
   47.5907   51.7715   41.7315 N   0  0  0  0  0  0  0  0  0  0  0  0
   48.2836   48.7653   42.0454 N   0  0  0  0  0  0  0  0  0  0  0  0
   43.6229   40.2127   42.4008 N   0  0  0  0  0  0  0  0  0  0  0  0
   42.7130   39.5273   45.4416 N   0  0  0  0  0  0  0  0  0  0  0  0
  1 17  2  0  0  0  0
  1 16  1  0  0  0  0
  2  3  2  0  0  0  0
  2 26  1  0  0  0  0
  3  4  1  0  0  0  0
  4  5  2  0  0  0  0
  5  6  1  0  0  0  0
  6  7  1  0  0  0  0
  6 26  2  0  0  0  0
  7 27  2  0  0  0  0
  8  9  2  0  0  0  0
  8 13  1  0  0  0  0
  8 27  1  0  0  0  0
  9 10  1  0  0  0  0
 10 11  2  0  0  0  0
 11 12  1  0  0  0  0
 11 14  1  0  0  0  0
 12 13  2  0  0  0  0
 14 15  1  0  0  0  0
 15 16  2  0  0  0  0
 15 19  1  0  0  0  0
 17 18  1  0  0  0  0
 17 28  1  0  0  0  0
 18 19  2  0  0  0  0
 20 21  1  0  0  0  0
 20 28  2  0  0  0  0
 21 22  2  0  0  0  0
 21 29  1  0  0  0  0
 22 23  1  0  0  0  0
 23 24  2  0  0  0  0
 24 25  1  0  0  0  0
 25 29  2  0  0  0  0
M  END
>  <CHROM.1>
84.77338700,-56.69334447,125.16813484,-66.80971305,-81.12203344,-134.18811024
46.01721086,44.79952937,42.23562017,-2.31230135,0.77832516,0.38357422

>  <Name>
ligand

>  <RI>
0

>  <Rbt.Current_Directory>
/home/itssahil/PROJECTS/Mol_Feturizer/New_Systems/rnas/4JIY

>  <Rbt.Executable>
rbdock ($Id: //depot/dev/client3/rdock/2013.1/src/exe/rbdock.cxx#4 $)

>  <Rbt.Library>
libRbt.so (2013.1, Build901 2013/11/27)

>  <Rbt.Parameter_File>
/export/apps/rDock/src/rDock_2013.1_src/data/scripts/dock_solv.prm

>  <Rbt.Receptor>
prm/pocket_docking_6.prm

>  <SCORE>
-4.47219

>  <SCORE.INTER>
-4.10529

>  <SCORE.INTER.CONST>
1

>  <SCORE.INTER.POLAR>
0

>  <SCORE.INTER.ROT>
6

>  <SCORE.INTER.SOLV>
2.10178

>  <SCORE.INTER.VDW>
-11.0375

>  <SCORE.INTER.norm>
-0.141562

>  <SCORE.INTRA>
-0.377586

>  <SCORE.INTRA.DIHEDRAL>
0.120516

>  <SCORE.INTRA.DIHEDRAL.0>
7.2424

>  <SCORE.INTRA.POLAR>
0

>  <SCORE.INTRA.POLAR.0>
0

>  <SCORE.INTRA.REPUL>
0

>  <SCORE.INTRA.REPUL.0>
0

>  <SCORE.INTRA.SOLV>
-0.0176235

>  <SCORE.INTRA.SOLV.lig_0>
-3.36201

>  <SCORE.INTRA.VDW>
-0.429032

>  <SCORE.INTRA.VDW.0>
-0.910526

>  <SCORE.INTRA.norm>
-0.0130202

>  <SCORE.RESTR>
0.0106814

>  <SCORE.RESTR.CAVITY>
0.0106814

>  <SCORE.RESTR.norm>
0.000368324

>  <SCORE.SYSTEM>
0

>  <SCORE.SYSTEM.CONST>
0

>  <SCORE.SYSTEM.DIHEDRAL>
0

>  <SCORE.SYSTEM.SOLV>
0

>  <SCORE.SYSTEM.norm>
0

>  <SCORE.heavy>
29

>  <SCORE.norm>
-0.154213

>  <RMSD>
6.052

$$$$
ligand
 OpenBabel11021811503D
libRbt.so/2013.1/901 2013/11/27
 29 32  0  0  0  0  0  0  0  0999 V2000
   46.1218   42.2337   41.6472 C   0  0  0  0  0  0  0  0  0  0  0  0
   36.3182   42.8905   45.6663 C   0  0  0  0  0  0  0  0  0  0  0  0
   36.3467   42.4824   47.0066 C   0  0  0  0  0  0  0  0  0  0  0  0
   37.3782   41.7515   47.4840 C   0  0  0  0  0  0  0  0  0  0  0  0
   38.3733   41.3580   46.5996 C   0  0  0  0  0  0  0  0  0  0  0  0
   38.3487   41.8198   45.3102 C   0  0  0  0  0  0  0  0  0  0  0  0
   39.3822   41.5923   44.3026 C   0  0  0  0  0  0  0  0  0  0  0  0
   40.5949   40.1115   42.9805 C   0  0  0  0  0  0  0  0  0  0  0  0
   40.3968   40.2791   41.6242 C   0  0  0  0  0  0  0  0  0  0  0  0
   41.4434   39.9858   40.7480 C   0  0  0  0  0  0  0  0  0  0  0  0
   42.6897   39.6327   41.1955 C   0  0  0  0  0  0  0  0  0  0  0  0
   42.8598   39.4798   42.5885 C   0  0  0  0  0  0  0  0  0  0  0  0
   41.8024   39.6588   43.4732 C   0  0  0  0  0  0  0  0  0  0  0  0
   43.8701   39.4564   40.2427 C   0  0  0  0  0  0  0  0  0  0  0  0
   44.8997   40.5732   40.3447 C   0  0  0  0  0  0  0  0  0  0  0  0
   45.1914   41.2150   41.5211 C   0  0  0  0  0  0  0  0  0  0  0  0
   46.7979   42.5970   40.5133 C   0  0  0  0  0  0  0  0  0  0  0  0
   46.5098   41.9718   39.3503 C   0  0  0  0  0  0  0  0  0  0  0  0
   45.5733   40.9708   39.2238 C   0  0  0  0  0  0  0  0  0  0  0  0
   48.8675   43.4076   39.8427 C   0  0  0  0  0  0  0  0  0  0  0  0
   49.9270   44.3918   39.9070 C   0  0  0  0  0  0  0  0  0  0  0  0
   50.8391   44.5298   40.9612 C   0  0  0  0  0  0  0  0  0  0  0  0
   51.7828   45.5330   40.8761 C   0  0  0  0  0  0  0  0  0  0  0  0
   51.7994   46.3263   39.7398 C   0  0  0  0  0  0  0  0  0  0  0  0
   50.8574   46.1755   38.7452 C   0  0  0  0  0  0  0  0  0  0  0  0
   37.3154   42.5593   44.8290 N   0  0  0  0  0  0  0  0  0  0  0  0
   39.4864   40.3576   43.8927 N   0  0  0  0  0  0  0  0  0  0  0  0
   47.8097   43.6587   40.5306 N   0  0  0  0  0  0  0  0  0  0  0  0
   49.9619   45.2015   38.8063 N   0  0  0  0  0  0  0  0  0  0  0  0
  1 17  2  0  0  0  0
  1 16  1  0  0  0  0
  2  3  2  0  0  0  0
  2 26  1  0  0  0  0
  3  4  1  0  0  0  0
  4  5  2  0  0  0  0
  5  6  1  0  0  0  0
  6  7  1  0  0  0  0
  6 26  2  0  0  0  0
  7 27  2  0  0  0  0
  8  9  2  0  0  0  0
  8 13  1  0  0  0  0
  8 27  1  0  0  0  0
  9 10  1  0  0  0  0
 10 11  2  0  0  0  0
 11 12  1  0  0  0  0
 11 14  1  0  0  0  0
 12 13  2  0  0  0  0
 14 15  1  0  0  0  0
 15 16  2  0  0  0  0
 15 19  1  0  0  0  0
 17 18  1  0  0  0  0
 17 28  1  0  0  0  0
 18 19  2  0  0  0  0
 20 21  1  0  0  0  0
 20 28  2  0  0  0  0
 21 22  2  0  0  0  0
 21 29  1  0  0  0  0
 22 23  1  0  0  0  0
 23 24  2  0  0  0  0
 24 25  1  0  0  0  0
 25 29  2  0  0  0  0
M  END
>  <CHROM.1>
68.48214457,107.80746979,33.70678935,78.70968540,-88.53150603,138.28719133
43.91023262,42.14952738,42.05599655,0.04792864,-0.48347214,-2.51369422

>  <Name>
ligand

>  <RI>
0

>  <Rbt.Current_Directory>
/home/itssahil/PROJECTS/Mol_Feturizer/New_Systems/rnas/4JIY

>  <Rbt.Executable>
rbdock ($Id: //depot/dev/client3/rdock/2013.1/src/exe/rbdock.cxx#4 $)

>  <Rbt.Library>
libRbt.so (2013.1, Build901 2013/11/27)

>  <Rbt.Parameter_File>
/export/apps/rDock/src/rDock_2013.1_src/data/scripts/dock_solv.prm

>  <Rbt.Receptor>
prm/pocket_docking_8.prm

>  <SCORE>
-9.60378

>  <SCORE.INTER>
-9.27587

>  <SCORE.INTER.CONST>
1

>  <SCORE.INTER.POLAR>
0

>  <SCORE.INTER.ROT>
6

>  <SCORE.INTER.SOLV>
2.85295

>  <SCORE.INTER.VDW>
-14.7349

>  <SCORE.INTER.norm>
-0.319858

>  <SCORE.INTRA>
-0.327911

>  <SCORE.INTRA.DIHEDRAL>
0.0348475

>  <SCORE.INTRA.DIHEDRAL.0>
7.2424

>  <SCORE.INTRA.POLAR>
0

>  <SCORE.INTRA.POLAR.0>
0

>  <SCORE.INTRA.REPUL>
0

>  <SCORE.INTRA.REPUL.0>
0

>  <SCORE.INTRA.SOLV>
-0.0181481

>  <SCORE.INTRA.SOLV.lig_0>
-3.36201

>  <SCORE.INTRA.VDW>
-0.336261

>  <SCORE.INTRA.VDW.0>
-0.910526

>  <SCORE.INTRA.norm>
-0.0113073

>  <SCORE.RESTR>
0

>  <SCORE.RESTR.CAVITY>
0

>  <SCORE.RESTR.norm>
0

>  <SCORE.SYSTEM>
0

>  <SCORE.SYSTEM.CONST>
0

>  <SCORE.SYSTEM.DIHEDRAL>
0

>  <SCORE.SYSTEM.SOLV>
0

>  <SCORE.SYSTEM.norm>
0

>  <SCORE.heavy>
29

>  <SCORE.norm>
-0.331165

>  <RMSD>
6.066

$$$$
ligand
 OpenBabel11021811503D
libRbt.so/2013.1/901 2013/11/27
 29 32  0  0  0  0  0  0  0  0999 V2000
   45.6027   41.8856   43.1649 C   0  0  0  0  0  0  0  0  0  0  0  0
   54.5518   48.7069   45.7089 C   0  0  0  0  0  0  0  0  0  0  0  0
   54.5086   48.6097   47.1062 C   0  0  0  0  0  0  0  0  0  0  0  0
   53.4538   48.0359   47.7261 C   0  0  0  0  0  0  0  0  0  0  0  0
   52.3855   47.6071   46.9501 C   0  0  0  0  0  0  0  0  0  0  0  0
   52.4807   47.6622   45.5848 C   0  0  0  0  0  0  0  0  0  0  0  0
   51.4958   47.1417   44.6391 C   0  0  0  0  0  0  0  0  0  0  0  0
   50.4472   45.3192   43.6439 C   0  0  0  0  0  0  0  0  0  0  0  0
   50.9905   44.6758   42.5495 C   0  0  0  0  0  0  0  0  0  0  0  0
   50.1380   44.2237   41.5406 C   0  0  0  0  0  0  0  0  0  0  0  0
   48.7744   44.3092   41.6477 C   0  0  0  0  0  0  0  0  0  0  0  0
   48.2525   44.9644   42.7840 C   0  0  0  0  0  0  0  0  0  0  0  0
   49.0856   45.5208   43.7480 C   0  0  0  0  0  0  0  0  0  0  0  0
   47.8420   43.6827   40.6131 C   0  0  0  0  0  0  0  0  0  0  0  0
   46.7822   42.7776   41.2258 C   0  0  0  0  0  0  0  0  0  0  0  0
   46.5582   42.6981   42.5766 C   0  0  0  0  0  0  0  0  0  0  0  0
   44.8282   41.1330   42.3233 C   0  0  0  0  0  0  0  0  0  0  0  0
   45.0491   41.2032   40.9918 C   0  0  0  0  0  0  0  0  0  0  0  0
   46.0099   41.9991   40.4100 C   0  0  0  0  0  0  0  0  0  0  0  0
   42.6310   40.7955   42.9931 C   0  0  0  0  0  0  0  0  0  0  0  0
   41.5951   39.9727   43.5807 C   0  0  0  0  0  0  0  0  0  0  0  0
   40.2734   40.3773   43.8082 C   0  0  0  0  0  0  0  0  0  0  0  0
   39.4097   39.4743   44.3937 C   0  0  0  0  0  0  0  0  0  0  0  0
   39.8855   38.2076   44.6933 C   0  0  0  0  0  0  0  0  0  0  0  0
   41.2048   37.8684   44.4842 C   0  0  0  0  0  0  0  0  0  0  0  0
   53.5424   48.2339   44.9587 N   0  0  0  0  0  0  0  0  0  0  0  0
   51.3383   45.8464   44.6684 N   0  0  0  0  0  0  0  0  0  0  0  0
   43.7817   40.2420   42.8352 N   0  0  0  0  0  0  0  0  0  0  0  0
   42.0361   38.7195   43.9020 N   0  0  0  0  0  0  0  0  0  0  0  0
  1 17  2  0  0  0  0
  1 16  1  0  0  0  0
  2  3  2  0  0  0  0
  2 26  1  0  0  0  0
  3  4  1  0  0  0  0
  4  5  2  0  0  0  0
  5  6  1  0  0  0  0
  6  7  1  0  0  0  0
  6 26  2  0  0  0  0
  7 27  2  0  0  0  0
  8  9  2  0  0  0  0
  8 13  1  0  0  0  0
  8 27  1  0  0  0  0
  9 10  1  0  0  0  0
 10 11  2  0  0  0  0
 11 12  1  0  0  0  0
 11 14  1  0  0  0  0
 12 13  2  0  0  0  0
 14 15  1  0  0  0  0
 15 16  2  0  0  0  0
 15 19  1  0  0  0  0
 17 18  1  0  0  0  0
 17 28  1  0  0  0  0
 18 19  2  0  0  0  0
 20 21  1  0  0  0  0
 20 28  2  0  0  0  0
 21 22  2  0  0  0  0
 21 29  1  0  0  0  0
 22 23  1  0  0  0  0
 23 24  2  0  0  0  0
 24 25  1  0  0  0  0
 25 29  2  0  0  0  0
M  END
>  <CHROM.1>
-64.58726080,127.78506468,9.51869949,-178.54679322,104.17658287,88.11400175
47.41782638,43.51144840,43.62377079,-2.88718608,0.58760272,1.37929635

>  <Name>
ligand

>  <RI>
0

>  <Rbt.Current_Directory>
/home/itssahil/PROJECTS/Mol_Feturizer/New_Systems/rnas/4JIY

>  <Rbt.Executable>
rbdock ($Id: //depot/dev/client3/rdock/2013.1/src/exe/rbdock.cxx#4 $)

>  <Rbt.Library>
libRbt.so (2013.1, Build901 2013/11/27)

>  <Rbt.Parameter_File>
/export/apps/rDock/src/rDock_2013.1_src/data/scripts/dock_solv.prm

>  <Rbt.Receptor>
prm/pocket_docking_6.prm

>  <SCORE>
-6.2127

>  <SCORE.INTER>
-6.27815

>  <SCORE.INTER.CONST>
1

>  <SCORE.INTER.POLAR>
0

>  <SCORE.INTER.ROT>
6

>  <SCORE.INTER.SOLV>
1.9702

>  <SCORE.INTER.VDW>
-12.4422

>  <SCORE.INTER.norm>
-0.216488

>  <SCORE.INTRA>
0.0654536

>  <SCORE.INTRA.DIHEDRAL>
0.105959

>  <SCORE.INTRA.DIHEDRAL.0>
7.2424

>  <SCORE.INTRA.POLAR>
0

>  <SCORE.INTRA.POLAR.0>
0

>  <SCORE.INTRA.REPUL>
0

>  <SCORE.INTRA.REPUL.0>
0

>  <SCORE.INTRA.SOLV>
-0.00957878

>  <SCORE.INTRA.SOLV.lig_0>
-3.36201

>  <SCORE.INTRA.VDW>
0.0172637

>  <SCORE.INTRA.VDW.0>
-0.910526

>  <SCORE.INTRA.norm>
0.00225702

>  <SCORE.RESTR>
0

>  <SCORE.RESTR.CAVITY>
0

>  <SCORE.RESTR.norm>
0

>  <SCORE.SYSTEM>
0

>  <SCORE.SYSTEM.CONST>
0

>  <SCORE.SYSTEM.DIHEDRAL>
0

>  <SCORE.SYSTEM.SOLV>
0

>  <SCORE.SYSTEM.norm>
0

>  <SCORE.heavy>
29

>  <SCORE.norm>
-0.214231

>  <RMSD>
6.069

$$$$
ligand
 OpenBabel11021811503D
libRbt.so/2013.1/901 2013/11/27
 29 32  0  0  0  0  0  0  0  0999 V2000
   50.8319   44.2814   41.6347 C   0  0  0  0  0  0  0  0  0  0  0  0
   41.4015   37.5847   44.6196 C   0  0  0  0  0  0  0  0  0  0  0  0
   40.6065   36.7483   43.8246 C   0  0  0  0  0  0  0  0  0  0  0  0
   40.4889   36.9662   42.4961 C   0  0  0  0  0  0  0  0  0  0  0  0
   41.1191   38.0766   41.9511 C   0  0  0  0  0  0  0  0  0  0  0  0
   41.9354   38.8422   42.7408 C   0  0  0  0  0  0  0  0  0  0  0  0
   42.7548   39.9636   42.2865 C   0  0  0  0  0  0  0  0  0  0  0  0
   44.6231   40.7393   41.1381 C   0  0  0  0  0  0  0  0  0  0  0  0
   45.3347   41.3740   42.1370 C   0  0  0  0  0  0  0  0  0  0  0  0
   46.1375   42.4664   41.8039 C   0  0  0  0  0  0  0  0  0  0  0  0
   46.3195   42.8667   40.5058 C   0  0  0  0  0  0  0  0  0  0  0  0
   45.5843   42.1898   39.5089 C   0  0  0  0  0  0  0  0  0  0  0  0
   44.6939   41.1711   39.8288 C   0  0  0  0  0  0  0  0  0  0  0  0
   47.3113   43.9658   40.1309 C   0  0  0  0  0  0  0  0  0  0  0  0
   48.4524   44.1143   41.1277 C   0  0  0  0  0  0  0  0  0  0  0  0
   49.7714   44.1474   40.7534 C   0  0  0  0  0  0  0  0  0  0  0  0
   50.5205   44.4061   42.9622 C   0  0  0  0  0  0  0  0  0  0  0  0
   49.2225   44.3681   43.3367 C   0  0  0  0  0  0  0  0  0  0  0  0
   48.1708   44.2186   42.4610 C   0  0  0  0  0  0  0  0  0  0  0  0
   51.6870   45.7519   44.4515 C   0  0  0  0  0  0  0  0  0  0  0  0
   52.7634   45.9640   45.3958 C   0  0  0  0  0  0  0  0  0  0  0  0
   54.1287   45.8465   45.1049 C   0  0  0  0  0  0  0  0  0  0  0  0
   55.0312   46.0669   46.1252 C   0  0  0  0  0  0  0  0  0  0  0  0
   54.5414   46.4251   47.3712 C   0  0  0  0  0  0  0  0  0  0  0  0
   53.1872   46.4920   47.6181 C   0  0  0  0  0  0  0  0  0  0  0  0
   42.0597   38.6223   44.0758 N   0  0  0  0  0  0  0  0  0  0  0  0
   43.7372   39.6385   41.4912 N   0  0  0  0  0  0  0  0  0  0  0  0
   51.5620   44.5601   43.9832 N   0  0  0  0  0  0  0  0  0  0  0  0
   52.3132   46.3049   46.6406 N   0  0  0  0  0  0  0  0  0  0  0  0
  1 17  2  0  0  0  0
  1 16  1  0  0  0  0
  2  3  2  0  0  0  0
  2 26  1  0  0  0  0
  3  4  1  0  0  0  0
  4  5  2  0  0  0  0
  5  6  1  0  0  0  0
  6  7  1  0  0  0  0
  6 26  2  0  0  0  0
  7 27  2  0  0  0  0
  8  9  2  0  0  0  0
  8 13  1  0  0  0  0
  8 27  1  0  0  0  0
  9 10  1  0  0  0  0
 10 11  2  0  0  0  0
 11 12  1  0  0  0  0
 11 14  1  0  0  0  0
 12 13  2  0  0  0  0
 14 15  1  0  0  0  0
 15 16  2  0  0  0  0
 15 19  1  0  0  0  0
 17 18  1  0  0  0  0
 17 28  1  0  0  0  0
 18 19  2  0  0  0  0
 20 21  1  0  0  0  0
 20 28  2  0  0  0  0
 21 22  2  0  0  0  0
 21 29  1  0  0  0  0
 22 23  1  0  0  0  0
 23 24  2  0  0  0  0
 24 25  1  0  0  0  0
 25 29  2  0  0  0  0
M  END
>  <CHROM.1>
-67.03162813,25.77115699,129.81841164,64.43435512,62.24745906,104.65516604
47.45526981,42.56078292,43.02607578,-0.06971928,-0.61648445,-1.31042547

>  <Name>
ligand

>  <RI>
0

>  <Rbt.Current_Directory>
/home/itssahil/PROJECTS/Mol_Feturizer/New_Systems/rnas/4JIY

>  <Rbt.Executable>
rbdock ($Id: //depot/dev/client3/rdock/2013.1/src/exe/rbdock.cxx#4 $)

>  <Rbt.Library>
libRbt.so (2013.1, Build901 2013/11/27)

>  <Rbt.Parameter_File>
/export/apps/rDock/src/rDock_2013.1_src/data/scripts/dock_solv.prm

>  <Rbt.Receptor>
prm/pocket_docking_6.prm

>  <SCORE>
-8.51775

>  <SCORE.INTER>
-8.69201

>  <SCORE.INTER.CONST>
1

>  <SCORE.INTER.POLAR>
0

>  <SCORE.INTER.ROT>
6

>  <SCORE.INTER.SOLV>
2.8858

>  <SCORE.INTER.VDW>
-14.3566

>  <SCORE.INTER.norm>
-0.299724

>  <SCORE.INTRA>
0.138389

>  <SCORE.INTRA.DIHEDRAL>
0.165851

>  <SCORE.INTRA.DIHEDRAL.0>
7.2424

>  <SCORE.INTRA.POLAR>
0

>  <SCORE.INTRA.POLAR.0>
0

>  <SCORE.INTRA.REPUL>
0

>  <SCORE.INTRA.REPUL.0>
0

>  <SCORE.INTRA.SOLV>
-0.0192903

>  <SCORE.INTRA.SOLV.lig_0>
-3.36201

>  <SCORE.INTRA.VDW>
0.0651092

>  <SCORE.INTRA.VDW.0>
-0.910526

>  <SCORE.INTRA.norm>
0.00477205

>  <SCORE.RESTR>
0.0358695

>  <SCORE.RESTR.CAVITY>
0.0358695

>  <SCORE.RESTR.norm>
0.00123688

>  <SCORE.SYSTEM>
0

>  <SCORE.SYSTEM.CONST>
0

>  <SCORE.SYSTEM.DIHEDRAL>
0

>  <SCORE.SYSTEM.SOLV>
0

>  <SCORE.SYSTEM.norm>
0

>  <SCORE.heavy>
29

>  <SCORE.norm>
-0.293716

>  <RMSD>
6.076

$$$$
ligand
 OpenBabel11021811503D
libRbt.so/2013.1/901 2013/11/27
 29 32  0  0  0  0  0  0  0  0999 V2000
   44.8035   41.8715   40.5087 C   0  0  0  0  0  0  0  0  0  0  0  0
   54.0483   48.6319   46.0407 C   0  0  0  0  0  0  0  0  0  0  0  0
   54.0690   50.0239   45.8805 C   0  0  0  0  0  0  0  0  0  0  0  0
   53.4792   50.6048   44.8125 C   0  0  0  0  0  0  0  0  0  0  0  0
   52.9124   49.7861   43.8452 C   0  0  0  0  0  0  0  0  0  0  0  0
   52.8562   48.4340   44.0568 C   0  0  0  0  0  0  0  0  0  0  0  0
   52.1893   47.4622   43.1930 C   0  0  0  0  0  0  0  0  0  0  0  0
   50.2209   46.4967   42.4156 C   0  0  0  0  0  0  0  0  0  0  0  0
   49.6933   46.8054   41.1773 C   0  0  0  0  0  0  0  0  0  0  0  0
   49.0043   45.8171   40.4719 C   0  0  0  0  0  0  0  0  0  0  0  0
   48.9203   44.5257   40.9232 C   0  0  0  0  0  0  0  0  0  0  0  0
   49.4789   44.2428   42.1883 C   0  0  0  0  0  0  0  0  0  0  0  0
   50.0728   45.2362   42.9586 C   0  0  0  0  0  0  0  0  0  0  0  0
   48.2950   43.4151   40.0818 C   0  0  0  0  0  0  0  0  0  0  0  0
   47.0427   42.8167   40.7074 C   0  0  0  0  0  0  0  0  0  0  0  0
   45.9566   42.4190   39.9704 C   0  0  0  0  0  0  0  0  0  0  0  0
   44.7730   41.7079   41.8678 C   0  0  0  0  0  0  0  0  0  0  0  0
   45.8383   42.1039   42.5991 C   0  0  0  0  0  0  0  0  0  0  0  0
   46.9769   42.6627   42.0639 C   0  0  0  0  0  0  0  0  0  0  0  0
   43.3227   39.9257   42.2004 C   0  0  0  0  0  0  0  0  0  0  0  0
   42.1258   39.3542   42.7800 C   0  0  0  0  0  0  0  0  0  0  0  0
   42.0129   38.8725   44.0906 C   0  0  0  0  0  0  0  0  0  0  0  0
   40.8018   38.3417   44.4852 C   0  0  0  0  0  0  0  0  0  0  0  0
   39.7547   38.3447   43.5772 C   0  0  0  0  0  0  0  0  0  0  0  0
   39.9253   38.7964   42.2864 C   0  0  0  0  0  0  0  0  0  0  0  0
   53.4438   47.8476   45.1324 N   0  0  0  0  0  0  0  0  0  0  0  0
   50.8866   47.5418   43.1810 N   0  0  0  0  0  0  0  0  0  0  0  0
   43.6064   41.1324   42.5451 N   0  0  0  0  0  0  0  0  0  0  0  0
   41.0764   39.3286   41.9044 N   0  0  0  0  0  0  0  0  0  0  0  0
  1 17  2  0  0  0  0
  1 16  1  0  0  0  0
  2  3  2  0  0  0  0
  2 26  1  0  0  0  0
  3  4  1  0  0  0  0
  4  5  2  0  0  0  0
  5  6  1  0  0  0  0
  6  7  1  0  0  0  0
  6 26  2  0  0  0  0
  7 27  2  0  0  0  0
  8  9  2  0  0  0  0
  8 13  1  0  0  0  0
  8 27  1  0  0  0  0
  9 10  1  0  0  0  0
 10 11  2  0  0  0  0
 11 12  1  0  0  0  0
 11 14  1  0  0  0  0
 12 13  2  0  0  0  0
 14 15  1  0  0  0  0
 15 16  2  0  0  0  0
 15 19  1  0  0  0  0
 17 18  1  0  0  0  0
 17 28  1  0  0  0  0
 18 19  2  0  0  0  0
 20 21  1  0  0  0  0
 20 28  2  0  0  0  0
 21 22  2  0  0  0  0
 21 29  1  0  0  0  0
 22 23  1  0  0  0  0
 23 24  2  0  0  0  0
 24 25  1  0  0  0  0
 25 29  2  0  0  0  0
M  END
>  <CHROM.1>
-68.81662448,-116.39862914,143.05159435,-76.76559611,-104.63119118,61.55923179
47.50332215,43.94582808,42.68439668,-2.97970473,0.68696541,1.48385971

>  <Name>
ligand

>  <RI>
0

>  <Rbt.Current_Directory>
/home/itssahil/PROJECTS/Mol_Feturizer/New_Systems/rnas/4JIY

>  <Rbt.Executable>
rbdock ($Id: //depot/dev/client3/rdock/2013.1/src/exe/rbdock.cxx#4 $)

>  <Rbt.Library>
libRbt.so (2013.1, Build901 2013/11/27)

>  <Rbt.Parameter_File>
/export/apps/rDock/src/rDock_2013.1_src/data/scripts/dock_solv.prm

>  <Rbt.Receptor>
prm/pocket_docking_6.prm

>  <SCORE>
-5.47656

>  <SCORE.INTER>
-4.91818

>  <SCORE.INTER.CONST>
1

>  <SCORE.INTER.POLAR>
0

>  <SCORE.INTER.ROT>
6

>  <SCORE.INTER.SOLV>
1.9207

>  <SCORE.INTER.VDW>
-11.519

>  <SCORE.INTER.norm>
-0.169592

>  <SCORE.INTRA>
-0.558381

>  <SCORE.INTRA.DIHEDRAL>
0.11981

>  <SCORE.INTRA.DIHEDRAL.0>
7.2424

>  <SCORE.INTRA.POLAR>
0

>  <SCORE.INTRA.POLAR.0>
0

>  <SCORE.INTRA.REPUL>
0

>  <SCORE.INTRA.REPUL.0>
0

>  <SCORE.INTRA.SOLV>
-0.019874

>  <SCORE.INTRA.SOLV.lig_0>
-3.36201

>  <SCORE.INTRA.VDW>
-0.608349

>  <SCORE.INTRA.VDW.0>
-0.910526

>  <SCORE.INTRA.norm>
-0.0192545

>  <SCORE.RESTR>
0

>  <SCORE.RESTR.CAVITY>
0

>  <SCORE.RESTR.norm>
0

>  <SCORE.SYSTEM>
0

>  <SCORE.SYSTEM.CONST>
0

>  <SCORE.SYSTEM.DIHEDRAL>
0

>  <SCORE.SYSTEM.SOLV>
0

>  <SCORE.SYSTEM.norm>
0

>  <SCORE.heavy>
29

>  <SCORE.norm>
-0.188847

>  <RMSD>
6.095

$$$$
ligand
 OpenBabel11021811503D
libRbt.so/2013.1/901 2013/11/27
 29 32  0  0  0  0  0  0  0  0999 V2000
   45.9077   42.0820   43.1945 C   0  0  0  0  0  0  0  0  0  0  0  0
   50.2533   50.3131   46.9340 C   0  0  0  0  0  0  0  0  0  0  0  0
   51.6156   50.5598   47.1506 C   0  0  0  0  0  0  0  0  0  0  0  0
   52.5574   49.7545   46.6114 C   0  0  0  0  0  0  0  0  0  0  0  0
   52.1416   48.6401   45.8956 C   0  0  0  0  0  0  0  0  0  0  0  0
   50.8063   48.4568   45.6516 C   0  0  0  0  0  0  0  0  0  0  0  0
   50.2277   47.4049   44.8184 C   0  0  0  0  0  0  0  0  0  0  0  0
   49.8999   46.4760   42.7111 C   0  0  0  0  0  0  0  0  0  0  0  0
   50.4610   45.2242   42.5530 C   0  0  0  0  0  0  0  0  0  0  0  0
   49.8464   44.3130   41.6922 C   0  0  0  0  0  0  0  0  0  0  0  0
   48.6523   44.5848   41.0770 C   0  0  0  0  0  0  0  0  0  0  0  0
   48.1018   45.8705   41.2681 C   0  0  0  0  0  0  0  0  0  0  0  0
   48.7523   46.8329   42.0320 C   0  0  0  0  0  0  0  0  0  0  0  0
   47.9095   43.5338   40.2549 C   0  0  0  0  0  0  0  0  0  0  0  0
   46.8813   42.7529   41.0616 C   0  0  0  0  0  0  0  0  0  0  0  0
   46.8298   42.7802   42.4319 C   0  0  0  0  0  0  0  0  0  0  0  0
   44.9829   41.3350   42.5153 C   0  0  0  0  0  0  0  0  0  0  0  0
   45.0332   41.3000   41.1652 C   0  0  0  0  0  0  0  0  0  0  0  0
   45.9603   41.9816   40.4097 C   0  0  0  0  0  0  0  0  0  0  0  0
   43.0303   41.2653   43.7693 C   0  0  0  0  0  0  0  0  0  0  0  0
   42.0475   40.5434   44.5493 C   0  0  0  0  0  0  0  0  0  0  0  0
   40.6897   40.8743   44.6449 C   0  0  0  0  0  0  0  0  0  0  0  0
   39.8853   40.0904   45.4466 C   0  0  0  0  0  0  0  0  0  0  0  0
   40.4550   39.0005   46.0854 C   0  0  0  0  0  0  0  0  0  0  0  0
   41.8044   38.7369   45.9897 C   0  0  0  0  0  0  0  0  0  0  0  0
   49.8574   49.2679   46.1881 N   0  0  0  0  0  0  0  0  0  0  0  0
   50.5720   47.4499   43.5603 N   0  0  0  0  0  0  0  0  0  0  0  0
   43.9557   40.5605   43.2196 N   0  0  0  0  0  0  0  0  0  0  0  0
   42.5808   39.4691   45.2051 N   0  0  0  0  0  0  0  0  0  0  0  0
  1 17  2  0  0  0  0
  1 16  1  0  0  0  0
  2  3  2  0  0  0  0
  2 26  1  0  0  0  0
  3  4  1  0  0  0  0
  4  5  2  0  0  0  0
  5  6  1  0  0  0  0
  6  7  1  0  0  0  0
  6 26  2  0  0  0  0
  7 27  2  0  0  0  0
  8  9  2  0  0  0  0
  8 13  1  0  0  0  0
  8 27  1  0  0  0  0
  9 10  1  0  0  0  0
 10 11  2  0  0  0  0
 11 12  1  0  0  0  0
 11 14  1  0  0  0  0
 12 13  2  0  0  0  0
 14 15  1  0  0  0  0
 15 16  2  0  0  0  0
 15 19  1  0  0  0  0
 17 18  1  0  0  0  0
 17 28  1  0  0  0  0
 18 19  2  0  0  0  0
 20 21  1  0  0  0  0
 20 28  2  0  0  0  0
 21 22  2  0  0  0  0
 21 29  1  0  0  0  0
 22 23  1  0  0  0  0
 23 24  2  0  0  0  0
 24 25  1  0  0  0  0
 25 29  2  0  0  0  0
M  END
>  <CHROM.1>
-62.90461394,92.88630968,-13.41824037,-144.96313702,-88.83189991,71.57610598
46.95388981,44.18521817,43.72894952,-2.73869750,0.68130791,1.07572609

>  <Name>
ligand

>  <RI>
0

>  <Rbt.Current_Directory>
/home/itssahil/PROJECTS/Mol_Feturizer/New_Systems/rnas/4JIY

>  <Rbt.Executable>
rbdock ($Id: //depot/dev/client3/rdock/2013.1/src/exe/rbdock.cxx#4 $)

>  <Rbt.Library>
libRbt.so (2013.1, Build901 2013/11/27)

>  <Rbt.Parameter_File>
/export/apps/rDock/src/rDock_2013.1_src/data/scripts/dock_solv.prm

>  <Rbt.Receptor>
prm/pocket_docking_6.prm

>  <SCORE>
-5.82627

>  <SCORE.INTER>
-5.1383

>  <SCORE.INTER.CONST>
1

>  <SCORE.INTER.POLAR>
0

>  <SCORE.INTER.ROT>
6

>  <SCORE.INTER.SOLV>
1.87178

>  <SCORE.INTER.VDW>
-11.6495

>  <SCORE.INTER.norm>
-0.177183

>  <SCORE.INTRA>
-0.687968

>  <SCORE.INTRA.DIHEDRAL>
0.118242

>  <SCORE.INTRA.DIHEDRAL.0>
7.2424

>  <SCORE.INTRA.POLAR>
0

>  <SCORE.INTRA.POLAR.0>
0

>  <SCORE.INTRA.REPUL>
0

>  <SCORE.INTRA.REPUL.0>
0

>  <SCORE.INTRA.SOLV>
-0.0155048

>  <SCORE.INTRA.SOLV.lig_0>
-3.36201

>  <SCORE.INTRA.VDW>
-0.739337

>  <SCORE.INTRA.VDW.0>
-0.910526

>  <SCORE.INTRA.norm>
-0.023723

>  <SCORE.RESTR>
0

>  <SCORE.RESTR.CAVITY>
0

>  <SCORE.RESTR.norm>
0

>  <SCORE.SYSTEM>
0

>  <SCORE.SYSTEM.CONST>
0

>  <SCORE.SYSTEM.DIHEDRAL>
0

>  <SCORE.SYSTEM.SOLV>
0

>  <SCORE.SYSTEM.norm>
0

>  <SCORE.heavy>
29

>  <SCORE.norm>
-0.200906

>  <RMSD>
6.098

$$$$
ligand
 OpenBabel11021811503D
libRbt.so/2013.1/901 2013/11/27
 29 32  0  0  0  0  0  0  0  0999 V2000
   43.0017   39.5469   41.9628 C   0  0  0  0  0  0  0  0  0  0  0  0
   50.7028   48.5583   43.0902 C   0  0  0  0  0  0  0  0  0  0  0  0
   51.8153   48.9886   42.3549 C   0  0  0  0  0  0  0  0  0  0  0  0
   52.2658   48.2721   41.3015 C   0  0  0  0  0  0  0  0  0  0  0  0
   51.6424   47.0669   41.0080 C   0  0  0  0  0  0  0  0  0  0  0  0
   50.5228   46.7008   41.7069 C   0  0  0  0  0  0  0  0  0  0  0  0
   49.6931   45.5288   41.4360 C   0  0  0  0  0  0  0  0  0  0  0  0
   48.1718   44.4299   40.0614 C   0  0  0  0  0  0  0  0  0  0  0  0
   48.6847   43.1754   39.7966 C   0  0  0  0  0  0  0  0  0  0  0  0
   47.8014   42.1274   39.5313 C   0  0  0  0  0  0  0  0  0  0  0  0
   46.4425   42.2804   39.6227 C   0  0  0  0  0  0  0  0  0  0  0  0
   45.9526   43.5739   39.9047 C   0  0  0  0  0  0  0  0  0  0  0  0
   46.8102   44.6567   40.0632 C   0  0  0  0  0  0  0  0  0  0  0  0
   45.4851   41.0995   39.4772 C   0  0  0  0  0  0  0  0  0  0  0  0
   44.7391   40.7658   40.7617 C   0  0  0  0  0  0  0  0  0  0  0  0
   43.7001   39.8720   40.8114 C   0  0  0  0  0  0  0  0  0  0  0  0
   43.4029   40.1557   43.1217 C   0  0  0  0  0  0  0  0  0  0  0  0
   44.4223   41.0419   43.0770 C   0  0  0  0  0  0  0  0  0  0  0  0
   45.1045   41.3759   41.9289 C   0  0  0  0  0  0  0  0  0  0  0  0
   41.6504   40.5378   44.5958 C   0  0  0  0  0  0  0  0  0  0  0  0
   41.0139   40.3626   45.8840 C   0  0  0  0  0  0  0  0  0  0  0  0
   40.3817   39.1913   46.3206 C   0  0  0  0  0  0  0  0  0  0  0  0
   39.8075   39.1925   47.5754 C   0  0  0  0  0  0  0  0  0  0  0  0
   39.9164   40.3380   48.3480 C   0  0  0  0  0  0  0  0  0  0  0  0
   40.5166   41.4786   47.8600 C   0  0  0  0  0  0  0  0  0  0  0  0
   50.0645   47.4220   42.7633 N   0  0  0  0  0  0  0  0  0  0  0  0
   49.0914   45.5384   40.2778 N   0  0  0  0  0  0  0  0  0  0  0  0
   42.7400   39.8821   44.4011 N   0  0  0  0  0  0  0  0  0  0  0  0
   41.0907   41.4809   46.6664 N   0  0  0  0  0  0  0  0  0  0  0  0
  1 17  2  0  0  0  0
  1 16  1  0  0  0  0
  2  3  2  0  0  0  0
  2 26  1  0  0  0  0
  3  4  1  0  0  0  0
  4  5  2  0  0  0  0
  5  6  1  0  0  0  0
  6  7  1  0  0  0  0
  6 26  2  0  0  0  0
  7 27  2  0  0  0  0
  8  9  2  0  0  0  0
  8 13  1  0  0  0  0
  8 27  1  0  0  0  0
  9 10  1  0  0  0  0
 10 11  2  0  0  0  0
 11 12  1  0  0  0  0
 11 14  1  0  0  0  0
 12 13  2  0  0  0  0
 14 15  1  0  0  0  0
 15 16  2  0  0  0  0
 15 19  1  0  0  0  0
 17 18  1  0  0  0  0
 17 28  1  0  0  0  0
 18 19  2  0  0  0  0
 20 21  1  0  0  0  0
 20 28  2  0  0  0  0
 21 22  2  0  0  0  0
 21 29  1  0  0  0  0
 22 23  1  0  0  0  0
 23 24  2  0  0  0  0
 24 25  1  0  0  0  0
 25 29  2  0  0  0  0
M  END
>  <CHROM.1>
-63.95804879,113.28476186,170.56948144,-69.69673226,-74.65013871,-81.61074763
45.74415044,42.92379524,42.61575461,3.09877357,0.71648908,1.03528755

>  <Name>
ligand

>  <RI>
0

>  <Rbt.Current_Directory>
/home/itssahil/PROJECTS/Mol_Feturizer/New_Systems/rnas/4JIY

>  <Rbt.Executable>
rbdock ($Id: //depot/dev/client3/rdock/2013.1/src/exe/rbdock.cxx#4 $)

>  <Rbt.Library>
libRbt.so (2013.1, Build901 2013/11/27)

>  <Rbt.Parameter_File>
/export/apps/rDock/src/rDock_2013.1_src/data/scripts/dock_solv.prm

>  <Rbt.Receptor>
prm/pocket_docking_7.prm

>  <SCORE>
-10.8236

>  <SCORE.INTER>
-10.1337

>  <SCORE.INTER.CONST>
1

>  <SCORE.INTER.POLAR>
0

>  <SCORE.INTER.ROT>
6

>  <SCORE.INTER.SOLV>
2.50613

>  <SCORE.INTER.VDW>
-15.1912

>  <SCORE.INTER.norm>
-0.349438

>  <SCORE.INTRA>
-0.689859

>  <SCORE.INTRA.DIHEDRAL>
-0.00571649

>  <SCORE.INTRA.DIHEDRAL.0>
7.2424

>  <SCORE.INTRA.POLAR>
0

>  <SCORE.INTRA.POLAR.0>
0

>  <SCORE.INTRA.REPUL>
0

>  <SCORE.INTRA.REPUL.0>
0

>  <SCORE.INTRA.SOLV>
-0.0199243

>  <SCORE.INTRA.SOLV.lig_0>
-3.36201

>  <SCORE.INTRA.VDW>
-0.677039

>  <SCORE.INTRA.VDW.0>
-0.910526

>  <SCORE.INTRA.norm>
-0.0237883

>  <SCORE.RESTR>
0

>  <SCORE.RESTR.CAVITY>
0

>  <SCORE.RESTR.norm>
0

>  <SCORE.SYSTEM>
0

>  <SCORE.SYSTEM.CONST>
0

>  <SCORE.SYSTEM.DIHEDRAL>
0

>  <SCORE.SYSTEM.SOLV>
0

>  <SCORE.SYSTEM.norm>
0

>  <SCORE.heavy>
29

>  <SCORE.norm>
-0.373226

>  <RMSD>
6.129

$$$$
ligand
 OpenBabel11021811503D
libRbt.so/2013.1/901 2013/11/27
 29 32  0  0  0  0  0  0  0  0999 V2000
   46.8852   44.7259   40.0432 C   0  0  0  0  0  0  0  0  0  0  0  0
   40.7981   38.6353   47.5651 C   0  0  0  0  0  0  0  0  0  0  0  0
   39.9735   39.4928   48.3056 C   0  0  0  0  0  0  0  0  0  0  0  0
   39.7217   40.7493   47.8768 C   0  0  0  0  0  0  0  0  0  0  0  0
   40.3530   41.1916   46.7222 C   0  0  0  0  0  0  0  0  0  0  0  0
   41.1068   40.3138   45.9891 C   0  0  0  0  0  0  0  0  0  0  0  0
   41.7306   40.5963   44.6982 C   0  0  0  0  0  0  0  0  0  0  0  0
   43.3871   40.1306   43.1328 C   0  0  0  0  0  0  0  0  0  0  0  0
   44.4030   41.0645   43.1866 C   0  0  0  0  0  0  0  0  0  0  0  0
   45.0320   41.4464   42.0002 C   0  0  0  0  0  0  0  0  0  0  0  0
   44.7424   40.8528   40.7993 C   0  0  0  0  0  0  0  0  0  0  0  0
   43.7053   39.8953   40.7822 C   0  0  0  0  0  0  0  0  0  0  0  0
   42.9894   39.5794   41.9314 C   0  0  0  0  0  0  0  0  0  0  0  0
   45.5335   41.1670   39.5314 C   0  0  0  0  0  0  0  0  0  0  0  0
   46.4823   42.3470   39.6891 C   0  0  0  0  0  0  0  0  0  0  0  0
   46.0486   43.6316   39.8959 C   0  0  0  0  0  0  0  0  0  0  0  0
   48.2322   44.4852   39.9944 C   0  0  0  0  0  0  0  0  0  0  0  0
   48.6646   43.2221   39.7848 C   0  0  0  0  0  0  0  0  0  0  0  0
   47.8314   42.1383   39.6223 C   0  0  0  0  0  0  0  0  0  0  0  0
   49.7435   45.6550   41.3127 C   0  0  0  0  0  0  0  0  0  0  0  0
   50.6473   46.7651   41.5272 C   0  0  0  0  0  0  0  0  0  0  0  0
   51.8079   47.0176   40.7847 C   0  0  0  0  0  0  0  0  0  0  0  0
   52.5726   48.1139   41.1278 C   0  0  0  0  0  0  0  0  0  0  0  0
   52.1345   48.9237   42.1638 C   0  0  0  0  0  0  0  0  0  0  0  0
   51.0045   48.6131   42.8890 C   0  0  0  0  0  0  0  0  0  0  0  0
   41.3574   39.0482   46.4152 N   0  0  0  0  0  0  0  0  0  0  0  0
   42.6875   39.7756   44.3600 N   0  0  0  0  0  0  0  0  0  0  0  0
   49.2107   45.5673   40.1448 N   0  0  0  0  0  0  0  0  0  0  0  0
   50.2513   47.5766   42.5535 N   0  0  0  0  0  0  0  0  0  0  0  0
  1 17  2  0  0  0  0
  1 16  1  0  0  0  0
  2  3  2  0  0  0  0
  2 26  1  0  0  0  0
  3  4  1  0  0  0  0
  4  5  2  0  0  0  0
  5  6  1  0  0  0  0
  6  7  1  0  0  0  0
  6 26  2  0  0  0  0
  7 27  2  0  0  0  0
  8  9  2  0  0  0  0
  8 13  1  0  0  0  0
  8 27  1  0  0  0  0
  9 10  1  0  0  0  0
 10 11  2  0  0  0  0
 11 12  1  0  0  0  0
 11 14  1  0  0  0  0
 12 13  2  0  0  0  0
 14 15  1  0  0  0  0
 15 16  2  0  0  0  0
 15 19  1  0  0  0  0
 17 18  1  0  0  0  0
 17 28  1  0  0  0  0
 18 19  2  0  0  0  0
 20 21  1  0  0  0  0
 20 28  2  0  0  0  0
 21 22  2  0  0  0  0
 21 29  1  0  0  0  0
 22 23  1  0  0  0  0
 23 24  2  0  0  0  0
 24 25  1  0  0  0  0
 25 29  2  0  0  0  0
M  END
>  <CHROM.1>
161.77092431,-9.80178679,-66.09121540,-58.43835154,82.87314839,100.68833170
45.82777670,42.84764840,42.58309909,0.08169425,-0.73114642,-2.04701757

>  <Name>
ligand

>  <RI>
0

>  <Rbt.Current_Directory>
/home/itssahil/PROJECTS/Mol_Feturizer/New_Systems/rnas/4JIY

>  <Rbt.Executable>
rbdock ($Id: //depot/dev/client3/rdock/2013.1/src/exe/rbdock.cxx#4 $)

>  <Rbt.Library>
libRbt.so (2013.1, Build901 2013/11/27)

>  <Rbt.Parameter_File>
/export/apps/rDock/src/rDock_2013.1_src/data/scripts/dock_solv.prm

>  <Rbt.Receptor>
prm/pocket_docking_7.prm

>  <SCORE>
-10.3698

>  <SCORE.INTER>
-10.0583

>  <SCORE.INTER.CONST>
1

>  <SCORE.INTER.POLAR>
0

>  <SCORE.INTER.ROT>
6

>  <SCORE.INTER.SOLV>
2.487

>  <SCORE.INTER.VDW>
-15.1345

>  <SCORE.INTER.norm>
-0.346838

>  <SCORE.INTRA>
-0.311547

>  <SCORE.INTRA.DIHEDRAL>
0.101403

>  <SCORE.INTRA.DIHEDRAL.0>
7.2424

>  <SCORE.INTRA.POLAR>
0

>  <SCORE.INTRA.POLAR.0>
0

>  <SCORE.INTRA.REPUL>
0

>  <SCORE.INTRA.REPUL.0>
0

>  <SCORE.INTRA.SOLV>
-0.00984765

>  <SCORE.INTRA.SOLV.lig_0>
-3.36201

>  <SCORE.INTRA.VDW>
-0.357325

>  <SCORE.INTRA.VDW.0>
-0.910526

>  <SCORE.INTRA.norm>
-0.010743

>  <SCORE.RESTR>
0

>  <SCORE.RESTR.CAVITY>
0

>  <SCORE.RESTR.norm>
0

>  <SCORE.SYSTEM>
0

>  <SCORE.SYSTEM.CONST>
0

>  <SCORE.SYSTEM.DIHEDRAL>
0

>  <SCORE.SYSTEM.SOLV>
0

>  <SCORE.SYSTEM.norm>
0

>  <SCORE.heavy>
29

>  <SCORE.norm>
-0.357581

>  <RMSD>
6.138

$$$$
ligand
 OpenBabel11021811503D
libRbt.so/2013.1/901 2013/11/27
 29 32  0  0  0  0  0  0  0  0999 V2000
   47.9911   47.2621   40.1332 C   0  0  0  0  0  0  0  0  0  0  0  0
   40.5462   40.3020   45.2671 C   0  0  0  0  0  0  0  0  0  0  0  0
   40.3504   38.9527   45.5905 C   0  0  0  0  0  0  0  0  0  0  0  0
   41.1065   37.9891   45.0197 C   0  0  0  0  0  0  0  0  0  0  0  0
   42.0341   38.3620   44.0565 C   0  0  0  0  0  0  0  0  0  0  0  0
   42.2436   39.6917   43.8032 C   0  0  0  0  0  0  0  0  0  0  0  0
   43.2626   40.2402   42.9109 C   0  0  0  0  0  0  0  0  0  0  0  0
   45.1715   41.5353   42.6117 C   0  0  0  0  0  0  0  0  0  0  0  0
   46.1636   42.3334   43.1462 C   0  0  0  0  0  0  0  0  0  0  0  0
   47.0331   42.9999   42.2807 C   0  0  0  0  0  0  0  0  0  0  0  0
   46.9966   42.8098   40.9239 C   0  0  0  0  0  0  0  0  0  0  0  0
   45.9757   41.9800   40.4122 C   0  0  0  0  0  0  0  0  0  0  0  0
   45.0299   41.3938   41.2458 C   0  0  0  0  0  0  0  0  0  0  0  0
   48.0408   43.4237   39.9939 C   0  0  0  0  0  0  0  0  0  0  0  0
   48.3862   44.8648   40.3423 C   0  0  0  0  0  0  0  0  0  0  0  0
   47.7020   45.9402   39.8361 C   0  0  0  0  0  0  0  0  0  0  0  0
   49.0206   47.4884   41.0070 C   0  0  0  0  0  0  0  0  0  0  0  0
   49.7019   46.4323   41.5039 C   0  0  0  0  0  0  0  0  0  0  0  0
   49.4236   45.1200   41.1949 C   0  0  0  0  0  0  0  0  0  0  0  0
   48.8204   49.2962   42.4498 C   0  0  0  0  0  0  0  0  0  0  0  0
   49.1111   50.6661   42.8166 C   0  0  0  0  0  0  0  0  0  0  0  0
   48.8738   51.7865   42.0100 C   0  0  0  0  0  0  0  0  0  0  0  0
   49.2236   53.0271   42.5028 C   0  0  0  0  0  0  0  0  0  0  0  0
   49.7581   53.1014   43.7794 C   0  0  0  0  0  0  0  0  0  0  0  0
   50.0068   51.9664   44.5206 C   0  0  0  0  0  0  0  0  0  0  0  0
   41.4883   40.6630   44.3796 N   0  0  0  0  0  0  0  0  0  0  0  0
   44.2248   40.8878   43.5093 N   0  0  0  0  0  0  0  0  0  0  0  0
   49.4101   48.8472   41.3981 N   0  0  0  0  0  0  0  0  0  0  0  0
   49.6539   50.7733   44.0665 N   0  0  0  0  0  0  0  0  0  0  0  0
  1 17  2  0  0  0  0
  1 16  1  0  0  0  0
  2  3  2  0  0  0  0
  2 26  1  0  0  0  0
  3  4  1  0  0  0  0
  4  5  2  0  0  0  0
  5  6  1  0  0  0  0
  6  7  1  0  0  0  0
  6 26  2  0  0  0  0
  7 27  2  0  0  0  0
  8  9  2  0  0  0  0
  8 13  1  0  0  0  0
  8 27  1  0  0  0  0
  9 10  1  0  0  0  0
 10 11  2  0  0  0  0
 11 12  1  0  0  0  0
 11 14  1  0  0  0  0
 12 13  2  0  0  0  0
 14 15  1  0  0  0  0
 15 16  2  0  0  0  0
 15 19  1  0  0  0  0
 17 18  1  0  0  0  0
 17 28  1  0  0  0  0
 18 19  2  0  0  0  0
 20 21  1  0  0  0  0
 20 28  2  0  0  0  0
 21 22  2  0  0  0  0
 21 29  1  0  0  0  0
 22 23  1  0  0  0  0
 23 24  2  0  0  0  0
 24 25  1  0  0  0  0
 25 29  2  0  0  0  0
M  END
>  <CHROM.1>
-111.02163497,-42.60150093,-88.74027937,59.52996041,174.89438785,91.12898407
46.44098005,44.83425668,42.51263765,-0.73249994,-0.75465203,-2.62179393

>  <Name>
ligand

>  <RI>
0

>  <Rbt.Current_Directory>
/home/itssahil/PROJECTS/Mol_Feturizer/New_Systems/rnas/4JIY

>  <Rbt.Executable>
rbdock ($Id: //depot/dev/client3/rdock/2013.1/src/exe/rbdock.cxx#4 $)

>  <Rbt.Library>
libRbt.so (2013.1, Build901 2013/11/27)

>  <Rbt.Parameter_File>
/export/apps/rDock/src/rDock_2013.1_src/data/scripts/dock_solv.prm

>  <Rbt.Receptor>
prm/pocket_docking_6.prm

>  <SCORE>
-5.25028

>  <SCORE.INTER>
-5.8099

>  <SCORE.INTER.CONST>
1

>  <SCORE.INTER.POLAR>
0

>  <SCORE.INTER.ROT>
6

>  <SCORE.INTER.SOLV>
2.42844

>  <SCORE.INTER.VDW>
-12.2827

>  <SCORE.INTER.norm>
-0.200342

>  <SCORE.INTRA>
0.558033

>  <SCORE.INTRA.DIHEDRAL>
0.345904

>  <SCORE.INTRA.DIHEDRAL.0>
7.2424

>  <SCORE.INTRA.POLAR>
0

>  <SCORE.INTRA.POLAR.0>
0

>  <SCORE.INTRA.REPUL>
0

>  <SCORE.INTRA.REPUL.0>
0

>  <SCORE.INTRA.SOLV>
-0.014027

>  <SCORE.INTRA.SOLV.lig_0>
-3.36201

>  <SCORE.INTRA.VDW>
0.392094

>  <SCORE.INTRA.VDW.0>
-0.910526

>  <SCORE.INTRA.norm>
0.0192425

>  <SCORE.RESTR>
0.00159506

>  <SCORE.RESTR.CAVITY>
0.00159506

>  <SCORE.RESTR.norm>
5.50019e-05

>  <SCORE.SYSTEM>
0

>  <SCORE.SYSTEM.CONST>
0

>  <SCORE.SYSTEM.DIHEDRAL>
0

>  <SCORE.SYSTEM.SOLV>
0

>  <SCORE.SYSTEM.norm>
0

>  <SCORE.heavy>
29

>  <SCORE.norm>
-0.181044

>  <RMSD>
6.147

$$$$
ligand
 OpenBabel11021811503D
libRbt.so/2013.1/901 2013/11/27
 29 32  0  0  0  0  0  0  0  0999 V2000
   45.0021   41.2054   41.1474 C   0  0  0  0  0  0  0  0  0  0  0  0
   52.9553   50.8342   44.8125 C   0  0  0  0  0  0  0  0  0  0  0  0
   54.0866   50.3638   45.4926 C   0  0  0  0  0  0  0  0  0  0  0  0
   54.4388   49.0608   45.4282 C   0  0  0  0  0  0  0  0  0  0  0  0
   53.6159   48.1885   44.7287 C   0  0  0  0  0  0  0  0  0  0  0  0
   52.5501   48.6860   44.0267 C   0  0  0  0  0  0  0  0  0  0  0  0
   51.6696   47.9147   43.1521 C   0  0  0  0  0  0  0  0  0  0  0  0
   50.2073   46.1298   42.8568 C   0  0  0  0  0  0  0  0  0  0  0  0
   50.7765   44.9764   42.3540 C   0  0  0  0  0  0  0  0  0  0  0  0
   50.0452   44.2005   41.4528 C   0  0  0  0  0  0  0  0  0  0  0  0
   48.7461   44.4927   41.1281 C   0  0  0  0  0  0  0  0  0  0  0  0
   48.1924   45.6738   41.6675 C   0  0  0  0  0  0  0  0  0  0  0  0
   48.9384   46.5208   42.4793 C   0  0  0  0  0  0  0  0  0  0  0  0
   47.9019   43.5629   40.2592 C   0  0  0  0  0  0  0  0  0  0  0  0
   46.8666   42.7741   41.0490 C   0  0  0  0  0  0  0  0  0  0  0  0
   45.9558   41.9363   40.4579 C   0  0  0  0  0  0  0  0  0  0  0  0
   44.9968   41.3274   42.5112 C   0  0  0  0  0  0  0  0  0  0  0  0
   45.8883   42.1563   43.0980 C   0  0  0  0  0  0  0  0  0  0  0  0
   46.8247   42.8943   42.4098 C   0  0  0  0  0  0  0  0  0  0  0  0
   43.0378   40.0962   42.7027 C   0  0  0  0  0  0  0  0  0  0  0  0
   42.0215   39.4433   43.5005 C   0  0  0  0  0  0  0  0  0  0  0  0
   41.0377   40.0998   44.2510 C   0  0  0  0  0  0  0  0  0  0  0  0
   40.1492   39.3288   44.9724 C   0  0  0  0  0  0  0  0  0  0  0  0
   40.2560   37.9495   44.8889 C   0  0  0  0  0  0  0  0  0  0  0  0
   41.2645   37.3501   44.1657 C   0  0  0  0  0  0  0  0  0  0  0  0
   52.1967   49.9967   44.0855 N   0  0  0  0  0  0  0  0  0  0  0  0
   50.9903   46.9737   43.7491 N   0  0  0  0  0  0  0  0  0  0  0  0
   44.0359   40.5954   43.3430 N   0  0  0  0  0  0  0  0  0  0  0  0
   42.1082   38.0800   43.4516 N   0  0  0  0  0  0  0  0  0  0  0  0
  1 17  2  0  0  0  0
  1 16  1  0  0  0  0
  2  3  2  0  0  0  0
  2 26  1  0  0  0  0
  3  4  1  0  0  0  0
  4  5  2  0  0  0  0
  5  6  1  0  0  0  0
  6  7  1  0  0  0  0
  6 26  2  0  0  0  0
  7 27  2  0  0  0  0
  8  9  2  0  0  0  0
  8 13  1  0  0  0  0
  8 27  1  0  0  0  0
  9 10  1  0  0  0  0
 10 11  2  0  0  0  0
 11 12  1  0  0  0  0
 11 14  1  0  0  0  0
 12 13  2  0  0  0  0
 14 15  1  0  0  0  0
 15 16  2  0  0  0  0
 15 19  1  0  0  0  0
 17 18  1  0  0  0  0
 17 28  1  0  0  0  0
 18 19  2  0  0  0  0
 20 21  1  0  0  0  0
 20 28  2  0  0  0  0
 21 22  2  0  0  0  0
 21 29  1  0  0  0  0
 22 23  1  0  0  0  0
 23 24  2  0  0  0  0
 24 25  1  0  0  0  0
 25 29  2  0  0  0  0
M  END
>  <CHROM.1>
62.79288267,105.00004650,176.35230961,77.31651092,91.33948009,-15.17186497
47.47292456,43.88936403,43.08623160,-2.86435278,0.68904216,1.20831331

>  <Name>
ligand

>  <RI>
0

>  <Rbt.Current_Directory>
/home/itssahil/PROJECTS/Mol_Feturizer/New_Systems/rnas/4JIY

>  <Rbt.Executable>
rbdock ($Id: //depot/dev/client3/rdock/2013.1/src/exe/rbdock.cxx#4 $)

>  <Rbt.Library>
libRbt.so (2013.1, Build901 2013/11/27)

>  <Rbt.Parameter_File>
/export/apps/rDock/src/rDock_2013.1_src/data/scripts/dock_solv.prm

>  <Rbt.Receptor>
prm/pocket_docking_6.prm

>  <SCORE>
-6.21282

>  <SCORE.INTER>
-6.52173

>  <SCORE.INTER.CONST>
1

>  <SCORE.INTER.POLAR>
0

>  <SCORE.INTER.ROT>
6

>  <SCORE.INTER.SOLV>
2.47345

>  <SCORE.INTER.VDW>
-12.7723

>  <SCORE.INTER.norm>
-0.224887

>  <SCORE.INTRA>
0.308915

>  <SCORE.INTRA.DIHEDRAL>
0.0692158

>  <SCORE.INTRA.DIHEDRAL.0>
7.2424

>  <SCORE.INTRA.POLAR>
0

>  <SCORE.INTRA.POLAR.0>
0

>  <SCORE.INTRA.REPUL>
0

>  <SCORE.INTRA.REPUL.0>
0

>  <SCORE.INTRA.SOLV>
-0.0165844

>  <SCORE.INTRA.SOLV.lig_0>
-3.36201

>  <SCORE.INTRA.VDW>
0.282599

>  <SCORE.INTRA.VDW.0>
-0.910526

>  <SCORE.INTRA.norm>
0.0106522

>  <SCORE.RESTR>
0

>  <SCORE.RESTR.CAVITY>
0

>  <SCORE.RESTR.norm>
0

>  <SCORE.SYSTEM>
0

>  <SCORE.SYSTEM.CONST>
0

>  <SCORE.SYSTEM.DIHEDRAL>
0

>  <SCORE.SYSTEM.SOLV>
0

>  <SCORE.SYSTEM.norm>
0

>  <SCORE.heavy>
29

>  <SCORE.norm>
-0.214235

>  <RMSD>
6.148

$$$$
ligand
 OpenBabel11021811503D
libRbt.so/2013.1/901 2013/11/27
 29 32  0  0  0  0  0  0  0  0999 V2000
   48.7211   43.2433   39.7872 C   0  0  0  0  0  0  0  0  0  0  0  0
   41.0150   40.9678   48.2070 C   0  0  0  0  0  0  0  0  0  0  0  0
   40.1711   39.8878   48.4987 C   0  0  0  0  0  0  0  0  0  0  0  0
   39.8083   39.0146   47.5333 C   0  0  0  0  0  0  0  0  0  0  0  0
   40.2362   39.2520   46.2341 C   0  0  0  0  0  0  0  0  0  0  0  0
   41.1062   40.2813   45.9896 C   0  0  0  0  0  0  0  0  0  0  0  0
   41.7344   40.5805   44.7046 C   0  0  0  0  0  0  0  0  0  0  0  0
   43.3430   40.0808   43.1003 C   0  0  0  0  0  0  0  0  0  0  0  0
   44.3776   40.9925   43.1734 C   0  0  0  0  0  0  0  0  0  0  0  0
   45.0165   41.3839   41.9954 C   0  0  0  0  0  0  0  0  0  0  0  0
   44.7171   40.8194   40.7830 C   0  0  0  0  0  0  0  0  0  0  0  0
   43.6607   39.8838   40.7461 C   0  0  0  0  0  0  0  0  0  0  0  0
   42.9363   39.5608   41.8879 C   0  0  0  0  0  0  0  0  0  0  0  0
   45.5168   41.1414   39.5225 C   0  0  0  0  0  0  0  0  0  0  0  0
   46.4664   42.3188   39.6948 C   0  0  0  0  0  0  0  0  0  0  0  0
   47.8307   42.1929   39.6348 C   0  0  0  0  0  0  0  0  0  0  0  0
   48.1824   44.4853   39.9924 C   0  0  0  0  0  0  0  0  0  0  0  0
   46.8387   44.6137   40.0584 C   0  0  0  0  0  0  0  0  0  0  0  0
   45.9560   43.5660   39.9228 C   0  0  0  0  0  0  0  0  0  0  0  0
   49.6350   45.7454   41.2934 C   0  0  0  0  0  0  0  0  0  0  0  0
   50.4098   46.9445   41.5324 C   0  0  0  0  0  0  0  0  0  0  0  0
   51.5997   47.2824   40.8749 C   0  0  0  0  0  0  0  0  0  0  0  0
   52.2270   48.4587   41.2314 C   0  0  0  0  0  0  0  0  0  0  0  0
   51.6300   49.2575   42.1939 C   0  0  0  0  0  0  0  0  0  0  0  0
   50.4774   48.8642   42.8390 C   0  0  0  0  0  0  0  0  0  0  0  0
   41.4768   41.1577   46.9595 N   0  0  0  0  0  0  0  0  0  0  0  0
   42.6339   39.7169   44.3194 N   0  0  0  0  0  0  0  0  0  0  0  0
   49.0298   45.6706   40.1605 N   0  0  0  0  0  0  0  0  0  0  0  0
   49.8552   47.7487   42.4885 N   0  0  0  0  0  0  0  0  0  0  0  0
  1 17  2  0  0  0  0
  1 16  1  0  0  0  0
  2  3  2  0  0  0  0
  2 26  1  0  0  0  0
  3  4  1  0  0  0  0
  4  5  2  0  0  0  0
  5  6  1  0  0  0  0
  6  7  1  0  0  0  0
  6 26  2  0  0  0  0
  7 27  2  0  0  0  0
  8  9  2  0  0  0  0
  8 13  1  0  0  0  0
  8 27  1  0  0  0  0
  9 10  1  0  0  0  0
 10 11  2  0  0  0  0
 11 12  1  0  0  0  0
 11 14  1  0  0  0  0
 12 13  2  0  0  0  0
 14 15  1  0  0  0  0
 15 16  2  0  0  0  0
 15 19  1  0  0  0  0
 17 18  1  0  0  0  0
 17 28  1  0  0  0  0
 18 19  2  0  0  0  0
 20 21  1  0  0  0  0
 20 28  2  0  0  0  0
 21 22  2  0  0  0  0
 21 29  1  0  0  0  0
 22 23  1  0  0  0  0
 23 24  2  0  0  0  0
 24 25  1  0  0  0  0
 25 29  2  0  0  0  0
M  END
>  <CHROM.1>
-69.97357587,-11.11133985,114.70852597,-69.45497758,79.94702837,-73.49536334
45.74359967,42.94031695,42.60319109,0.05259299,-0.75309865,-2.08794605

>  <Name>
ligand

>  <RI>
0

>  <Rbt.Current_Directory>
/home/itssahil/PROJECTS/Mol_Feturizer/New_Systems/rnas/4JIY

>  <Rbt.Executable>
rbdock ($Id: //depot/dev/client3/rdock/2013.1/src/exe/rbdock.cxx#4 $)

>  <Rbt.Library>
libRbt.so (2013.1, Build901 2013/11/27)

>  <Rbt.Parameter_File>
/export/apps/rDock/src/rDock_2013.1_src/data/scripts/dock_solv.prm

>  <Rbt.Receptor>
prm/pocket_docking_7.prm

>  <SCORE>
-10.5707

>  <SCORE.INTER>
-9.83351

>  <SCORE.INTER.CONST>
1

>  <SCORE.INTER.POLAR>
0

>  <SCORE.INTER.ROT>
6

>  <SCORE.INTER.SOLV>
2.46184

>  <SCORE.INTER.VDW>
-14.9763

>  <SCORE.INTER.norm>
-0.339087

>  <SCORE.INTRA>
-0.737179

>  <SCORE.INTRA.DIHEDRAL>
0.0752534

>  <SCORE.INTRA.DIHEDRAL.0>
7.2424

>  <SCORE.INTRA.POLAR>
0

>  <SCORE.INTRA.POLAR.0>
0

>  <SCORE.INTRA.REPUL>
0

>  <SCORE.INTRA.REPUL.0>
0

>  <SCORE.INTRA.SOLV>
-0.0188492

>  <SCORE.INTRA.SOLV.lig_0>
-3.36201

>  <SCORE.INTRA.VDW>
-0.765381

>  <SCORE.INTRA.VDW.0>
-0.910526

>  <SCORE.INTRA.norm>
-0.02542

>  <SCORE.RESTR>
0

>  <SCORE.RESTR.CAVITY>
0

>  <SCORE.RESTR.norm>
0

>  <SCORE.SYSTEM>
0

>  <SCORE.SYSTEM.CONST>
0

>  <SCORE.SYSTEM.DIHEDRAL>
0

>  <SCORE.SYSTEM.SOLV>
0

>  <SCORE.SYSTEM.norm>
0

>  <SCORE.heavy>
29

>  <SCORE.norm>
-0.364506

>  <RMSD>
6.150

$$$$
ligand
 OpenBabel11021811503D
libRbt.so/2013.1/901 2013/11/27
 29 32  0  0  0  0  0  0  0  0999 V2000
   43.7477   40.7839   39.0741 C   0  0  0  0  0  0  0  0  0  0  0  0
   46.6757   45.7603   49.2135 C   0  0  0  0  0  0  0  0  0  0  0  0
   46.4490   44.7920   50.2007 C   0  0  0  0  0  0  0  0  0  0  0  0
   46.0823   43.5356   49.8642 C   0  0  0  0  0  0  0  0  0  0  0  0
   45.8702   43.2469   48.5229 C   0  0  0  0  0  0  0  0  0  0  0  0
   46.1553   44.1958   47.5771 C   0  0  0  0  0  0  0  0  0  0  0  0
   46.0978   44.0021   46.1299 C   0  0  0  0  0  0  0  0  0  0  0  0
   46.9619   43.0166   44.2081 C   0  0  0  0  0  0  0  0  0  0  0  0
   46.0514   42.1908   43.5788 C   0  0  0  0  0  0  0  0  0  0  0  0
   46.1157   42.0486   42.1915 C   0  0  0  0  0  0  0  0  0  0  0  0
   46.9876   42.7771   41.4250 C   0  0  0  0  0  0  0  0  0  0  0  0
   47.8978   43.6187   42.1001 C   0  0  0  0  0  0  0  0  0  0  0  0
   47.9263   43.6927   43.4881 C   0  0  0  0  0  0  0  0  0  0  0  0
   46.9555   42.7295   39.8989 C   0  0  0  0  0  0  0  0  0  0  0  0
   45.9986   41.6814   39.3480 C   0  0  0  0  0  0  0  0  0  0  0  0
   44.6444   41.7210   39.5611 C   0  0  0  0  0  0  0  0  0  0  0  0
   44.2659   39.7681   38.3163 C   0  0  0  0  0  0  0  0  0  0  0  0
   45.6005   39.7212   38.1085 C   0  0  0  0  0  0  0  0  0  0  0  0
   46.4919   40.6444   38.6068 C   0  0  0  0  0  0  0  0  0  0  0  0
   43.1533   37.7422   38.5351 C   0  0  0  0  0  0  0  0  0  0  0  0
   42.3852   36.6490   37.9780 C   0  0  0  0  0  0  0  0  0  0  0  0
   42.8540   35.7343   37.0263 C   0  0  0  0  0  0  0  0  0  0  0  0
   41.9872   34.7559   36.5840 C   0  0  0  0  0  0  0  0  0  0  0  0
   40.7136   34.7097   37.1287 C   0  0  0  0  0  0  0  0  0  0  0  0
   40.2863   35.6548   38.0362 C   0  0  0  0  0  0  0  0  0  0  0  0
   46.5292   45.4582   47.9124 N   0  0  0  0  0  0  0  0  0  0  0  0
   46.9370   43.1194   45.6607 N   0  0  0  0  0  0  0  0  0  0  0  0
   43.4093   38.7241   37.7442 N   0  0  0  0  0  0  0  0  0  0  0  0
   41.1171   36.5840   38.4843 N   0  0  0  0  0  0  0  0  0  0  0  0
  1 17  2  0  0  0  0
  1 16  1  0  0  0  0
  2  3  2  0  0  0  0
  2 26  1  0  0  0  0
  3  4  1  0  0  0  0
  4  5  2  0  0  0  0
  5  6  1  0  0  0  0
  6  7  1  0  0  0  0
  6 26  2  0  0  0  0
  7 27  2  0  0  0  0
  8  9  2  0  0  0  0
  8 13  1  0  0  0  0
  8 27  1  0  0  0  0
  9 10  1  0  0  0  0
 10 11  2  0  0  0  0
 11 12  1  0  0  0  0
 11 14  1  0  0  0  0
 12 13  2  0  0  0  0
 14 15  1  0  0  0  0
 15 16  2  0  0  0  0
 15 19  1  0  0  0  0
 17 18  1  0  0  0  0
 17 28  1  0  0  0  0
 18 19  2  0  0  0  0
 20 21  1  0  0  0  0
 20 28  2  0  0  0  0
 21 22  2  0  0  0  0
 21 29  1  0  0  0  0
 22 23  1  0  0  0  0
 23 24  2  0  0  0  0
 24 25  1  0  0  0  0
 25 29  2  0  0  0  0
M  END
>  <CHROM.1>
-63.21774310,-7.20311072,62.86345827,70.60005583,-85.79828417,-84.90008348
45.04265343,41.01026931,41.95020384,-2.04980009,0.80645931,1.28709906

>  <Name>
ligand

>  <RI>
0

>  <Rbt.Current_Directory>
/home/itssahil/PROJECTS/Mol_Feturizer/New_Systems/rnas/4JIY

>  <Rbt.Executable>
rbdock ($Id: //depot/dev/client3/rdock/2013.1/src/exe/rbdock.cxx#4 $)

>  <Rbt.Library>
libRbt.so (2013.1, Build901 2013/11/27)

>  <Rbt.Parameter_File>
/export/apps/rDock/src/rDock_2013.1_src/data/scripts/dock_solv.prm

>  <Rbt.Receptor>
prm/pocket_docking_8.prm

>  <SCORE>
-10.5213

>  <SCORE.INTER>
-9.74578

>  <SCORE.INTER.CONST>
1

>  <SCORE.INTER.POLAR>
0

>  <SCORE.INTER.ROT>
6

>  <SCORE.INTER.SOLV>
1.88895

>  <SCORE.INTER.VDW>
-14.7268

>  <SCORE.INTER.norm>
-0.336061

>  <SCORE.INTRA>
-0.776046

>  <SCORE.INTRA.DIHEDRAL>
-0.0313846

>  <SCORE.INTRA.DIHEDRAL.0>
7.2424

>  <SCORE.INTRA.POLAR>
0

>  <SCORE.INTRA.POLAR.0>
0

>  <SCORE.INTRA.REPUL>
0

>  <SCORE.INTRA.REPUL.0>
0

>  <SCORE.INTRA.SOLV>
-0.0201167

>  <SCORE.INTRA.SOLV.lig_0>
-3.36201

>  <SCORE.INTRA.VDW>
-0.750295

>  <SCORE.INTRA.VDW.0>
-0.910526

>  <SCORE.INTRA.norm>
-0.0267602

>  <SCORE.RESTR>
0.000477043

>  <SCORE.RESTR.CAVITY>
0.000477043

>  <SCORE.RESTR.norm>
1.64498e-05

>  <SCORE.SYSTEM>
0

>  <SCORE.SYSTEM.CONST>
0

>  <SCORE.SYSTEM.DIHEDRAL>
0

>  <SCORE.SYSTEM.SOLV>
0

>  <SCORE.SYSTEM.norm>
0

>  <SCORE.heavy>
29

>  <SCORE.norm>
-0.362805

>  <RMSD>
6.162

$$$$
ligand
 OpenBabel11021811503D
libRbt.so/2013.1/901 2013/11/27
 29 32  0  0  0  0  0  0  0  0999 V2000
   47.1084   42.9431   42.4234 C   0  0  0  0  0  0  0  0  0  0  0  0
   36.0509   44.6870   38.1226 C   0  0  0  0  0  0  0  0  0  0  0  0
   35.9824   45.9317   37.4827 C   0  0  0  0  0  0  0  0  0  0  0  0
   37.0942   46.6790   37.3051 C   0  0  0  0  0  0  0  0  0  0  0  0
   38.2922   46.2150   37.8313 C   0  0  0  0  0  0  0  0  0  0  0  0
   38.3399   44.9698   38.4001 C   0  0  0  0  0  0  0  0  0  0  0  0
   39.5438   44.2995   38.8865 C   0  0  0  0  0  0  0  0  0  0  0  0
   41.5769   43.2634   38.4348 C   0  0  0  0  0  0  0  0  0  0  0  0
   42.7404   43.9241   38.7763 C   0  0  0  0  0  0  0  0  0  0  0  0
   43.8524   43.1752   39.1657 C   0  0  0  0  0  0  0  0  0  0  0  0
   43.7968   41.8140   39.3153 C   0  0  0  0  0  0  0  0  0  0  0  0
   42.5891   41.1717   38.9666 C   0  0  0  0  0  0  0  0  0  0  0  0
   41.5038   41.8853   38.4708 C   0  0  0  0  0  0  0  0  0  0  0  0
   44.9685   41.0151   39.8820 C   0  0  0  0  0  0  0  0  0  0  0  0
   45.5072   41.5793   41.1893 C   0  0  0  0  0  0  0  0  0  0  0  0
   46.5942   42.4133   41.2512 C   0  0  0  0  0  0  0  0  0  0  0  0
   46.4631   42.6147   43.5855 C   0  0  0  0  0  0  0  0  0  0  0  0
   45.3951   41.7883   43.5305 C   0  0  0  0  0  0  0  0  0  0  0  0
   44.8953   41.2498   42.3662 C   0  0  0  0  0  0  0  0  0  0  0  0
   47.7891   42.3875   45.4776 C   0  0  0  0  0  0  0  0  0  0  0  0
   48.1945   42.8089   46.8018 C   0  0  0  0  0  0  0  0  0  0  0  0
   49.4444   43.3490   47.1308 C   0  0  0  0  0  0  0  0  0  0  0  0
   49.6794   43.6868   48.4480 C   0  0  0  0  0  0  0  0  0  0  0  0
   48.6572   43.5060   49.3662 C   0  0  0  0  0  0  0  0  0  0  0  0
   47.4565   42.9364   49.0009 C   0  0  0  0  0  0  0  0  0  0  0  0
   37.2244   44.2141   38.5752 N   0  0  0  0  0  0  0  0  0  0  0  0
   40.4346   44.0378   37.9692 N   0  0  0  0  0  0  0  0  0  0  0  0
   46.9160   43.1232   44.8845 N   0  0  0  0  0  0  0  0  0  0  0  0
   47.2125   42.6299   47.7357 N   0  0  0  0  0  0  0  0  0  0  0  0
  1 17  2  0  0  0  0
  1 16  1  0  0  0  0
  2  3  2  0  0  0  0
  2 26  1  0  0  0  0
  3  4  1  0  0  0  0
  4  5  2  0  0  0  0
  5  6  1  0  0  0  0
  6  7  1  0  0  0  0
  6 26  2  0  0  0  0
  7 27  2  0  0  0  0
  8  9  2  0  0  0  0
  8 13  1  0  0  0  0
  8 27  1  0  0  0  0
  9 10  1  0  0  0  0
 10 11  2  0  0  0  0
 11 12  1  0  0  0  0
 11 14  1  0  0  0  0
 12 13  2  0  0  0  0
 14 15  1  0  0  0  0
 15 16  2  0  0  0  0
 15 19  1  0  0  0  0
 17 18  1  0  0  0  0
 17 28  1  0  0  0  0
 18 19  2  0  0  0  0
 20 21  1  0  0  0  0
 20 28  2  0  0  0  0
 21 22  2  0  0  0  0
 21 29  1  0  0  0  0
 22 23  1  0  0  0  0
 23 24  2  0  0  0  0
 24 25  1  0  0  0  0
 25 29  2  0  0  0  0
M  END
>  <CHROM.1>
-63.27790696,50.24274578,-96.77842014,-108.85645979,-97.43145817,-89.19332602
43.62367038,43.24522191,41.75481392,-0.58878753,0.49762428,-1.98918072

>  <Name>
ligand

>  <RI>
0

>  <Rbt.Current_Directory>
/home/itssahil/PROJECTS/Mol_Feturizer/New_Systems/rnas/4JIY

>  <Rbt.Executable>
rbdock ($Id: //depot/dev/client3/rdock/2013.1/src/exe/rbdock.cxx#4 $)

>  <Rbt.Library>
libRbt.so (2013.1, Build901 2013/11/27)

>  <Rbt.Parameter_File>
/export/apps/rDock/src/rDock_2013.1_src/data/scripts/dock_solv.prm

>  <Rbt.Receptor>
prm/pocket_docking_6.prm

>  <SCORE>
-6.73785

>  <SCORE.INTER>
-5.82994

>  <SCORE.INTER.CONST>
1

>  <SCORE.INTER.POLAR>
0

>  <SCORE.INTER.ROT>
6

>  <SCORE.INTER.SOLV>
2.22362

>  <SCORE.INTER.VDW>
-12.2278

>  <SCORE.INTER.norm>
-0.201032

>  <SCORE.INTRA>
-0.925724

>  <SCORE.INTRA.DIHEDRAL>
0.494722

>  <SCORE.INTRA.DIHEDRAL.0>
7.2424

>  <SCORE.INTRA.POLAR>
0

>  <SCORE.INTRA.POLAR.0>
0

>  <SCORE.INTRA.REPUL>
0

>  <SCORE.INTRA.REPUL.0>
0

>  <SCORE.INTRA.SOLV>
-0.0180409

>  <SCORE.INTRA.SOLV.lig_0>
-3.36201

>  <SCORE.INTRA.VDW>
-1.16406

>  <SCORE.INTRA.VDW.0>
-0.910526

>  <SCORE.INTRA.norm>
-0.0319215

>  <SCORE.RESTR>
0.0178166

>  <SCORE.RESTR.CAVITY>
0.0178166

>  <SCORE.RESTR.norm>
0.000614364

>  <SCORE.SYSTEM>
0

>  <SCORE.SYSTEM.CONST>
0

>  <SCORE.SYSTEM.DIHEDRAL>
0

>  <SCORE.SYSTEM.SOLV>
0

>  <SCORE.SYSTEM.norm>
0

>  <SCORE.heavy>
29

>  <SCORE.norm>
-0.23234

>  <RMSD>
6.191

$$$$
ligand
 OpenBabel11021811503D
libRbt.so/2013.1/901 2013/11/27
 29 32  0  0  0  0  0  0  0  0999 V2000
   47.7851   41.8369   39.3972 C   0  0  0  0  0  0  0  0  0  0  0  0
   39.9676   36.5397   46.7131 C   0  0  0  0  0  0  0  0  0  0  0  0
   39.8896   35.1472   46.8490 C   0  0  0  0  0  0  0  0  0  0  0  0
   40.5147   34.3317   45.9714 C   0  0  0  0  0  0  0  0  0  0  0  0
   41.1782   34.9050   44.8951 C   0  0  0  0  0  0  0  0  0  0  0  0
   41.2865   36.2684   44.8202 C   0  0  0  0  0  0  0  0  0  0  0  0
   42.0509   37.0098   43.8195 C   0  0  0  0  0  0  0  0  0  0  0  0
   42.1137   38.6111   42.1334 C   0  0  0  0  0  0  0  0  0  0  0  0
   41.9378   38.1638   40.8388 C   0  0  0  0  0  0  0  0  0  0  0  0
   42.6794   38.7545   39.8141 C   0  0  0  0  0  0  0  0  0  0  0  0
   43.5012   39.8285   40.0366 C   0  0  0  0  0  0  0  0  0  0  0  0
   43.6503   40.2661   41.3704 C   0  0  0  0  0  0  0  0  0  0  0  0
   43.0076   39.6227   42.4220 C   0  0  0  0  0  0  0  0  0  0  0  0
   44.1958   40.5648   38.8931 C   0  0  0  0  0  0  0  0  0  0  0  0
   45.3870   41.3972   39.3469 C   0  0  0  0  0  0  0  0  0  0  0  0
   46.6806   41.1005   39.0012 C   0  0  0  0  0  0  0  0  0  0  0  0
   47.5466   42.9417   40.1700 C   0  0  0  0  0  0  0  0  0  0  0  0
   46.2743   43.2350   40.5185 C   0  0  0  0  0  0  0  0  0  0  0  0
   45.1793   42.4926   40.1374 C   0  0  0  0  0  0  0  0  0  0  0  0
   49.5618   44.0241   39.7728 C   0  0  0  0  0  0  0  0  0  0  0  0
   50.7018   44.7916   40.2275 C   0  0  0  0  0  0  0  0  0  0  0  0
   51.5836   44.4037   41.2445 C   0  0  0  0  0  0  0  0  0  0  0  0
   52.6155   45.2599   41.5706 C   0  0  0  0  0  0  0  0  0  0  0  0
   52.7443   46.4388   40.8532 C   0  0  0  0  0  0  0  0  0  0  0  0
   51.8294   46.7938   39.8856 C   0  0  0  0  0  0  0  0  0  0  0  0
   40.6634   37.0907   45.7042 N   0  0  0  0  0  0  0  0  0  0  0  0
   41.3876   37.9559   43.2126 N   0  0  0  0  0  0  0  0  0  0  0  0
   48.6397   43.7986   40.6413 N   0  0  0  0  0  0  0  0  0  0  0  0
   50.8489   45.9692   39.5493 N   0  0  0  0  0  0  0  0  0  0  0  0
  1 17  2  0  0  0  0
  1 16  1  0  0  0  0
  2  3  2  0  0  0  0
  2 26  1  0  0  0  0
  3  4  1  0  0  0  0
  4  5  2  0  0  0  0
  5  6  1  0  0  0  0
  6  7  1  0  0  0  0
  6 26  2  0  0  0  0
  7 27  2  0  0  0  0
  8  9  2  0  0  0  0
  8 13  1  0  0  0  0
  8 27  1  0  0  0  0
  9 10  1  0  0  0  0
 10 11  2  0  0  0  0
 11 12  1  0  0  0  0
 11 14  1  0  0  0  0
 12 13  2  0  0  0  0
 14 15  1  0  0  0  0
 15 16  2  0  0  0  0
 15 19  1  0  0  0  0
 17 18  1  0  0  0  0
 17 28  1  0  0  0  0
 18 19  2  0  0  0  0
 20 21  1  0  0  0  0
 20 28  2  0  0  0  0
 21 22  2  0  0  0  0
 21 29  1  0  0  0  0
 22 23  1  0  0  0  0
 23 24  2  0  0  0  0
 24 25  1  0  0  0  0
 25 29  2  0  0  0  0
M  END
>  <CHROM.1>
128.77279529,-160.92526259,112.74191936,61.90247465,94.56933409,41.00571445
45.35527932,40.68415260,41.71460061,0.52757750,-0.60700865,-1.25410965

>  <Name>
ligand

>  <RI>
0

>  <Rbt.Current_Directory>
/home/itssahil/PROJECTS/Mol_Feturizer/New_Systems/rnas/4JIY

>  <Rbt.Executable>
rbdock ($Id: //depot/dev/client3/rdock/2013.1/src/exe/rbdock.cxx#4 $)

>  <Rbt.Library>
libRbt.so (2013.1, Build901 2013/11/27)

>  <Rbt.Parameter_File>
/export/apps/rDock/src/rDock_2013.1_src/data/scripts/dock_solv.prm

>  <Rbt.Receptor>
prm/pocket_docking_8.prm

>  <SCORE>
-10.902

>  <SCORE.INTER>
-11.0237

>  <SCORE.INTER.CONST>
1

>  <SCORE.INTER.POLAR>
0

>  <SCORE.INTER.ROT>
6

>  <SCORE.INTER.SOLV>
3.68951

>  <SCORE.INTER.VDW>
-16.1789

>  <SCORE.INTER.norm>
-0.380126

>  <SCORE.INTRA>
0.121678

>  <SCORE.INTRA.DIHEDRAL>
0.435866

>  <SCORE.INTRA.DIHEDRAL.0>
7.2424

>  <SCORE.INTRA.POLAR>
0

>  <SCORE.INTRA.POLAR.0>
0

>  <SCORE.INTRA.REPUL>
0

>  <SCORE.INTRA.REPUL.0>
0

>  <SCORE.INTRA.SOLV>
-0.0143228

>  <SCORE.INTRA.SOLV.lig_0>
-3.36201

>  <SCORE.INTRA.VDW>
-0.0890931

>  <SCORE.INTRA.VDW.0>
-0.910526

>  <SCORE.INTRA.norm>
0.00419581

>  <SCORE.RESTR>
0

>  <SCORE.RESTR.CAVITY>
0

>  <SCORE.RESTR.norm>
0

>  <SCORE.SYSTEM>
0

>  <SCORE.SYSTEM.CONST>
0

>  <SCORE.SYSTEM.DIHEDRAL>
0

>  <SCORE.SYSTEM.SOLV>
0

>  <SCORE.SYSTEM.norm>
0

>  <SCORE.heavy>
29

>  <SCORE.norm>
-0.375931

>  <RMSD>
6.192

$$$$
ligand
 OpenBabel11021811503D
libRbt.so/2013.1/901 2013/11/27
 29 32  0  0  0  0  0  0  0  0999 V2000
   46.1641   41.3886   39.6556 C   0  0  0  0  0  0  0  0  0  0  0  0
   51.5131   48.1839   48.4158 C   0  0  0  0  0  0  0  0  0  0  0  0
   50.9079   49.4170   48.6928 C   0  0  0  0  0  0  0  0  0  0  0  0
   49.9516   49.9153   47.8784 C   0  0  0  0  0  0  0  0  0  0  0  0
   49.6324   49.2094   46.7264 C   0  0  0  0  0  0  0  0  0  0  0  0
   50.1979   47.9804   46.5118 C   0  0  0  0  0  0  0  0  0  0  0  0
   49.8733   47.0717   45.4145 C   0  0  0  0  0  0  0  0  0  0  0  0
   50.3103   46.2934   43.2663 C   0  0  0  0  0  0  0  0  0  0  0  0
   50.8964   45.0549   43.0949 C   0  0  0  0  0  0  0  0  0  0  0  0
   50.5624   44.3003   41.9688 C   0  0  0  0  0  0  0  0  0  0  0  0
   49.5994   44.7047   41.0814 C   0  0  0  0  0  0  0  0  0  0  0  0
   49.0138   45.9716   41.2921 C   0  0  0  0  0  0  0  0  0  0  0  0
   49.4102   46.7891   42.3445 C   0  0  0  0  0  0  0  0  0  0  0  0
   49.1319   43.8115   39.9343 C   0  0  0  0  0  0  0  0  0  0  0  0
   47.8934   42.9934   40.2729 C   0  0  0  0  0  0  0  0  0  0  0  0
   47.2905   42.1461   39.3787 C   0  0  0  0  0  0  0  0  0  0  0  0
   45.6438   41.4931   40.9177 C   0  0  0  0  0  0  0  0  0  0  0  0
   46.2307   42.3313   41.8007 C   0  0  0  0  0  0  0  0  0  0  0  0
   47.3404   43.0955   41.5187 C   0  0  0  0  0  0  0  0  0  0  0  0
   44.1345   39.7719   40.5311 C   0  0  0  0  0  0  0  0  0  0  0  0
   42.9180   39.0548   40.8493 C   0  0  0  0  0  0  0  0  0  0  0  0
   42.1071   38.3876   39.9222 C   0  0  0  0  0  0  0  0  0  0  0  0
   40.9678   37.7631   40.3872 C   0  0  0  0  0  0  0  0  0  0  0  0
   40.7055   37.8002   41.7476 C   0  0  0  0  0  0  0  0  0  0  0  0
   41.5144   38.5011   42.6157 C   0  0  0  0  0  0  0  0  0  0  0  0
   51.1559   47.4746   47.3319 N   0  0  0  0  0  0  0  0  0  0  0  0
   50.7024   47.1094   44.4073 N   0  0  0  0  0  0  0  0  0  0  0  0
   44.4572   40.7326   41.3236 N   0  0  0  0  0  0  0  0  0  0  0  0
   42.6221   39.0845   42.1835 N   0  0  0  0  0  0  0  0  0  0  0  0
  1 17  2  0  0  0  0
  1 16  1  0  0  0  0
  2  3  2  0  0  0  0
  2 26  1  0  0  0  0
  3  4  1  0  0  0  0
  4  5  2  0  0  0  0
  5  6  1  0  0  0  0
  6  7  1  0  0  0  0
  6 26  2  0  0  0  0
  7 27  2  0  0  0  0
  8  9  2  0  0  0  0
  8 13  1  0  0  0  0
  8 27  1  0  0  0  0
  9 10  1  0  0  0  0
 10 11  2  0  0  0  0
 11 12  1  0  0  0  0
 11 14  1  0  0  0  0
 12 13  2  0  0  0  0
 14 15  1  0  0  0  0
 15 16  2  0  0  0  0
 15 19  1  0  0  0  0
 17 18  1  0  0  0  0
 17 28  1  0  0  0  0
 18 19  2  0  0  0  0
 20 21  1  0  0  0  0
 20 28  2  0  0  0  0
 21 22  2  0  0  0  0
 21 29  1  0  0  0  0
 22 23  1  0  0  0  0
 23 24  2  0  0  0  0
 24 25  1  0  0  0  0
 25 29  2  0  0  0  0
M  END
>  <CHROM.1>
98.73396841,94.37439104,178.65946486,153.00582734,-99.93212755,14.50778821
47.34541595,43.71455708,42.81620111,-2.41021397,0.63571534,1.12559295

>  <Name>
ligand

>  <RI>
0

>  <Rbt.Current_Directory>
/home/itssahil/PROJECTS/Mol_Feturizer/New_Systems/rnas/4JIY

>  <Rbt.Executable>
rbdock ($Id: //depot/dev/client3/rdock/2013.1/src/exe/rbdock.cxx#4 $)

>  <Rbt.Library>
libRbt.so (2013.1, Build901 2013/11/27)

>  <Rbt.Parameter_File>
/export/apps/rDock/src/rDock_2013.1_src/data/scripts/dock_solv.prm

>  <Rbt.Receptor>
prm/pocket_docking_7.prm

>  <SCORE>
-8.11043

>  <SCORE.INTER>
-8.80394

>  <SCORE.INTER.CONST>
1

>  <SCORE.INTER.POLAR>
0

>  <SCORE.INTER.ROT>
6

>  <SCORE.INTER.SOLV>
2.86199

>  <SCORE.INTER.VDW>
-14.4233

>  <SCORE.INTER.norm>
-0.303584

>  <SCORE.INTRA>
0.693512

>  <SCORE.INTRA.DIHEDRAL>
0.414648

>  <SCORE.INTRA.DIHEDRAL.0>
7.2424

>  <SCORE.INTRA.POLAR>
0

>  <SCORE.INTRA.POLAR.0>
0

>  <SCORE.INTRA.REPUL>
0

>  <SCORE.INTRA.REPUL.0>
0

>  <SCORE.INTRA.SOLV>
-0.0089665

>  <SCORE.INTRA.SOLV.lig_0>
-3.36201

>  <SCORE.INTRA.VDW>
0.490671

>  <SCORE.INTRA.VDW.0>
-0.910526

>  <SCORE.INTRA.norm>
0.0239142

>  <SCORE.RESTR>
0

>  <SCORE.RESTR.CAVITY>
0

>  <SCORE.RESTR.norm>
0

>  <SCORE.SYSTEM>
0

>  <SCORE.SYSTEM.CONST>
0

>  <SCORE.SYSTEM.DIHEDRAL>
0

>  <SCORE.SYSTEM.SOLV>
0

>  <SCORE.SYSTEM.norm>
0

>  <SCORE.heavy>
29

>  <SCORE.norm>
-0.27967

>  <RMSD>
6.214

$$$$
ligand
 OpenBabel11021811503D
libRbt.so/2013.1/901 2013/11/27
 29 32  0  0  0  0  0  0  0  0999 V2000
   46.8460   43.8567   40.1356 C   0  0  0  0  0  0  0  0  0  0  0  0
   40.4921   39.2957   48.2354 C   0  0  0  0  0  0  0  0  0  0  0  0
   39.9939   38.0112   48.4914 C   0  0  0  0  0  0  0  0  0  0  0  0
   39.8369   37.1190   47.4887 C   0  0  0  0  0  0  0  0  0  0  0  0
   40.1166   37.5278   46.1918 C   0  0  0  0  0  0  0  0  0  0  0  0
   40.6563   38.7686   45.9790 C   0  0  0  0  0  0  0  0  0  0  0  0
   41.1121   39.2917   44.6929 C   0  0  0  0  0  0  0  0  0  0  0  0
   42.7380   39.3773   43.0315 C   0  0  0  0  0  0  0  0  0  0  0  0
   42.3465   38.8650   41.8104 C   0  0  0  0  0  0  0  0  0  0  0  0
   42.8868   39.4113   40.6448 C   0  0  0  0  0  0  0  0  0  0  0  0
   43.7155   40.5027   40.6689 C   0  0  0  0  0  0  0  0  0  0  0  0
   44.0877   41.0069   41.9338 C   0  0  0  0  0  0  0  0  0  0  0  0
   43.6503   40.4102   43.1109 C   0  0  0  0  0  0  0  0  0  0  0  0
   44.1862   41.1880   39.3879 C   0  0  0  0  0  0  0  0  0  0  0  0
   45.5261   41.8948   39.5392 C   0  0  0  0  0  0  0  0  0  0  0  0
   45.6430   43.1859   39.9869 C   0  0  0  0  0  0  0  0  0  0  0  0
   47.9840   43.1608   39.8272 C   0  0  0  0  0  0  0  0  0  0  0  0
   47.8738   41.8903   39.3798 C   0  0  0  0  0  0  0  0  0  0  0  0
   46.6764   41.2307   39.2173 C   0  0  0  0  0  0  0  0  0  0  0  0
   49.5932   44.2150   41.1269 C   0  0  0  0  0  0  0  0  0  0  0  0
   50.8593   44.9021   41.2699 C   0  0  0  0  0  0  0  0  0  0  0  0
   52.1160   44.3455   40.9996 C   0  0  0  0  0  0  0  0  0  0  0  0
   53.2317   45.1318   41.2028 C   0  0  0  0  0  0  0  0  0  0  0  0
   53.0477   46.4375   41.6295 C   0  0  0  0  0  0  0  0  0  0  0  0
   51.7926   46.9285   41.9174 C   0  0  0  0  0  0  0  0  0  0  0  0
   40.8201   39.6659   46.9861 N   0  0  0  0  0  0  0  0  0  0  0  0
   42.2235   38.7694   44.2510 N   0  0  0  0  0  0  0  0  0  0  0  0
   49.3128   43.7688   39.9533 N   0  0  0  0  0  0  0  0  0  0  0  0
   50.7140   46.1900   41.7042 N   0  0  0  0  0  0  0  0  0  0  0  0
  1 17  2  0  0  0  0
  1 16  1  0  0  0  0
  2  3  2  0  0  0  0
  2 26  1  0  0  0  0
  3  4  1  0  0  0  0
  4  5  2  0  0  0  0
  5  6  1  0  0  0  0
  6  7  1  0  0  0  0
  6 26  2  0  0  0  0
  7 27  2  0  0  0  0
  8  9  2  0  0  0  0
  8 13  1  0  0  0  0
  8 27  1  0  0  0  0
  9 10  1  0  0  0  0
 10 11  2  0  0  0  0
 11 12  1  0  0  0  0
 11 14  1  0  0  0  0
 12 13  2  0  0  0  0
 14 15  1  0  0  0  0
 15 16  2  0  0  0  0
 15 19  1  0  0  0  0
 17 18  1  0  0  0  0
 17 28  1  0  0  0  0
 18 19  2  0  0  0  0
 20 21  1  0  0  0  0
 20 28  2  0  0  0  0
 21 22  2  0  0  0  0
 21 29  1  0  0  0  0
 22 23  1  0  0  0  0
 23 24  2  0  0  0  0
 24 25  1  0  0  0  0
 25 29  2  0  0  0  0
M  END
>  <CHROM.1>
-72.64002067,-152.95807827,-86.95950070,-59.12490475,-90.27898504,57.11165681
45.51706341,41.60790931,42.44404849,0.37154286,-0.58867092,-1.63093011

>  <Name>
ligand

>  <RI>
0

>  <Rbt.Current_Directory>
/home/itssahil/PROJECTS/Mol_Feturizer/New_Systems/rnas/4JIY

>  <Rbt.Executable>
rbdock ($Id: //depot/dev/client3/rdock/2013.1/src/exe/rbdock.cxx#4 $)

>  <Rbt.Library>
libRbt.so (2013.1, Build901 2013/11/27)

>  <Rbt.Parameter_File>
/export/apps/rDock/src/rDock_2013.1_src/data/scripts/dock_solv.prm

>  <Rbt.Receptor>
prm/pocket_docking_8.prm

>  <SCORE>
-11.8997

>  <SCORE.INTER>
-11.0109

>  <SCORE.INTER.CONST>
1

>  <SCORE.INTER.POLAR>
0

>  <SCORE.INTER.ROT>
6

>  <SCORE.INTER.SOLV>
3.25166

>  <SCORE.INTER.VDW>
-16.0245

>  <SCORE.INTER.norm>
-0.379688

>  <SCORE.INTRA>
-0.888769

>  <SCORE.INTRA.DIHEDRAL>
-0.118349

>  <SCORE.INTRA.DIHEDRAL.0>
7.2424

>  <SCORE.INTRA.POLAR>
0

>  <SCORE.INTRA.POLAR.0>
0

>  <SCORE.INTRA.REPUL>
0

>  <SCORE.INTRA.REPUL.0>
0

>  <SCORE.INTRA.SOLV>
-0.0201133

>  <SCORE.INTRA.SOLV.lig_0>
-3.36201

>  <SCORE.INTRA.VDW>
-0.819538

>  <SCORE.INTRA.VDW.0>
-0.910526

>  <SCORE.INTRA.norm>
-0.0306472

>  <SCORE.RESTR>
0

>  <SCORE.RESTR.CAVITY>
0

>  <SCORE.RESTR.norm>
0

>  <SCORE.SYSTEM>
0

>  <SCORE.SYSTEM.CONST>
0

>  <SCORE.SYSTEM.DIHEDRAL>
0

>  <SCORE.SYSTEM.SOLV>
0

>  <SCORE.SYSTEM.norm>
0

>  <SCORE.heavy>
29

>  <SCORE.norm>
-0.410335

>  <RMSD>
6.226

$$$$
ligand
 OpenBabel11021811503D
libRbt.so/2013.1/901 2013/11/27
 29 32  0  0  0  0  0  0  0  0999 V2000
   45.4531   41.4931   42.4316 C   0  0  0  0  0  0  0  0  0  0  0  0
   52.8710   45.5952   47.9244 C   0  0  0  0  0  0  0  0  0  0  0  0
   54.1348   46.1670   47.7262 C   0  0  0  0  0  0  0  0  0  0  0  0
   54.6841   46.2174   46.4926 C   0  0  0  0  0  0  0  0  0  0  0  0
   53.9968   45.6292   45.4396 C   0  0  0  0  0  0  0  0  0  0  0  0
   52.7393   45.1297   45.6523 C   0  0  0  0  0  0  0  0  0  0  0  0
   51.8497   44.5922   44.6252 C   0  0  0  0  0  0  0  0  0  0  0  0
   50.5162   44.9424   42.7516 C   0  0  0  0  0  0  0  0  0  0  0  0
   49.1886   44.8802   43.1264 C   0  0  0  0  0  0  0  0  0  0  0  0
   48.2598   44.3420   42.2337 C   0  0  0  0  0  0  0  0  0  0  0  0
   48.6062   43.9658   40.9622 C   0  0  0  0  0  0  0  0  0  0  0  0
   49.9702   44.0516   40.6090 C   0  0  0  0  0  0  0  0  0  0  0  0
   50.9304   44.4801   41.5185 C   0  0  0  0  0  0  0  0  0  0  0  0
   47.5638   43.5166   39.9405 C   0  0  0  0  0  0  0  0  0  0  0  0
   46.5024   42.5959   40.5264 C   0  0  0  0  0  0  0  0  0  0  0  0
   46.4062   42.3253   41.8675 C   0  0  0  0  0  0  0  0  0  0  0  0
   44.5440   40.9270   41.5784 C   0  0  0  0  0  0  0  0  0  0  0  0
   44.6382   41.1857   40.2553 C   0  0  0  0  0  0  0  0  0  0  0  0
   45.5961   42.0002   39.6947 C   0  0  0  0  0  0  0  0  0  0  0  0
   42.9613   40.3827   43.1874 C   0  0  0  0  0  0  0  0  0  0  0  0
   41.9772   39.4798   43.7458 C   0  0  0  0  0  0  0  0  0  0  0  0
   42.1135   38.0883   43.8313 C   0  0  0  0  0  0  0  0  0  0  0  0
   41.0727   37.3664   44.3789 C   0  0  0  0  0  0  0  0  0  0  0  0
   39.9656   38.0579   44.8449 C   0  0  0  0  0  0  0  0  0  0  0  0
   39.8621   39.4250   44.7051 C   0  0  0  0  0  0  0  0  0  0  0  0
   52.1823   45.0825   46.8907 N   0  0  0  0  0  0  0  0  0  0  0  0
   51.4967   45.4462   43.7035 N   0  0  0  0  0  0  0  0  0  0  0  0
   43.4869   40.0347   42.0658 N   0  0  0  0  0  0  0  0  0  0  0  0
   40.8645   40.1296   44.2020 N   0  0  0  0  0  0  0  0  0  0  0  0
  1 17  2  0  0  0  0
  1 16  1  0  0  0  0
  2  3  2  0  0  0  0
  2 26  1  0  0  0  0
  3  4  1  0  0  0  0
  4  5  2  0  0  0  0
  5  6  1  0  0  0  0
  6  7  1  0  0  0  0
  6 26  2  0  0  0  0
  7 27  2  0  0  0  0
  8  9  2  0  0  0  0
  8 13  1  0  0  0  0
  8 27  1  0  0  0  0
  9 10  1  0  0  0  0
 10 11  2  0  0  0  0
 11 12  1  0  0  0  0
 11 14  1  0  0  0  0
 12 13  2  0  0  0  0
 14 15  1  0  0  0  0
 15 16  2  0  0  0  0
 15 19  1  0  0  0  0
 17 18  1  0  0  0  0
 17 28  1  0  0  0  0
 18 19  2  0  0  0  0
 20 21  1  0  0  0  0
 20 28  2  0  0  0  0
 21 22  2  0  0  0  0
 21 29  1  0  0  0  0
 22 23  1  0  0  0  0
 23 24  2  0  0  0  0
 24 25  1  0  0  0  0
 25 29  2  0  0  0  0
M  END
>  <CHROM.1>
-62.03261946,-42.24054227,7.12763343,45.54340348,78.10534807,38.77356845
47.38671639,42.67711005,43.34525994,-3.04824068,0.52708504,1.70664764

>  <Name>
ligand

>  <RI>
0

>  <Rbt.Current_Directory>
/home/itssahil/PROJECTS/Mol_Feturizer/New_Systems/rnas/4JIY

>  <Rbt.Executable>
rbdock ($Id: //depot/dev/client3/rdock/2013.1/src/exe/rbdock.cxx#4 $)

>  <Rbt.Library>
libRbt.so (2013.1, Build901 2013/11/27)

>  <Rbt.Parameter_File>
/export/apps/rDock/src/rDock_2013.1_src/data/scripts/dock_solv.prm

>  <Rbt.Receptor>
prm/pocket_docking_6.prm

>  <SCORE>
-7.96983

>  <SCORE.INTER>
-8.49243

>  <SCORE.INTER.CONST>
1

>  <SCORE.INTER.POLAR>
0

>  <SCORE.INTER.ROT>
6

>  <SCORE.INTER.SOLV>
2.60531

>  <SCORE.INTER.VDW>
-14.1301

>  <SCORE.INTER.norm>
-0.292843

>  <SCORE.INTRA>
0.515864

>  <SCORE.INTRA.DIHEDRAL>
0.0463095

>  <SCORE.INTRA.DIHEDRAL.0>
7.2424

>  <SCORE.INTRA.POLAR>
0

>  <SCORE.INTRA.POLAR.0>
0

>  <SCORE.INTRA.REPUL>
0

>  <SCORE.INTRA.REPUL.0>
0

>  <SCORE.INTRA.SOLV>
-0.0186325

>  <SCORE.INTRA.SOLV.lig_0>
-3.36201

>  <SCORE.INTRA.VDW>
0.502025

>  <SCORE.INTRA.VDW.0>
-0.910526

>  <SCORE.INTRA.norm>
0.0177884

>  <SCORE.RESTR>
0.00673812

>  <SCORE.RESTR.CAVITY>
0.00673812

>  <SCORE.RESTR.norm>
0.000232349

>  <SCORE.SYSTEM>
0

>  <SCORE.SYSTEM.CONST>
0

>  <SCORE.SYSTEM.DIHEDRAL>
0

>  <SCORE.SYSTEM.SOLV>
0

>  <SCORE.SYSTEM.norm>
0

>  <SCORE.heavy>
29

>  <SCORE.norm>
-0.274822

>  <RMSD>
6.233

$$$$
ligand
 OpenBabel11021811503D
libRbt.so/2013.1/901 2013/11/27
 29 32  0  0  0  0  0  0  0  0999 V2000
   46.9015   44.7264   40.1095 C   0  0  0  0  0  0  0  0  0  0  0  0
   41.1307   41.0164   48.2860 C   0  0  0  0  0  0  0  0  0  0  0  0
   40.3079   39.9230   48.5881 C   0  0  0  0  0  0  0  0  0  0  0  0
   39.9515   39.0412   47.6282 C   0  0  0  0  0  0  0  0  0  0  0  0
   40.3638   39.2821   46.3246 C   0  0  0  0  0  0  0  0  0  0  0  0
   41.2140   40.3254   46.0698 C   0  0  0  0  0  0  0  0  0  0  0  0
   41.8257   40.6316   44.7785 C   0  0  0  0  0  0  0  0  0  0  0  0
   43.3867   40.1166   43.1325 C   0  0  0  0  0  0  0  0  0  0  0  0
   44.4096   41.0423   43.1939 C   0  0  0  0  0  0  0  0  0  0  0  0
   45.0352   41.4363   42.0097 C   0  0  0  0  0  0  0  0  0  0  0  0
   44.7349   40.8618   40.8021 C   0  0  0  0  0  0  0  0  0  0  0  0
   43.6907   39.9121   40.7771 C   0  0  0  0  0  0  0  0  0  0  0  0
   42.9786   39.5853   41.9256 C   0  0  0  0  0  0  0  0  0  0  0  0
   45.5215   41.1880   39.5345 C   0  0  0  0  0  0  0  0  0  0  0  0
   46.4794   42.3592   39.7035 C   0  0  0  0  0  0  0  0  0  0  0  0
   46.0565   43.6402   39.9508 C   0  0  0  0  0  0  0  0  0  0  0  0
   48.2460   44.4806   40.0286 C   0  0  0  0  0  0  0  0  0  0  0  0
   48.6677   43.2211   39.7790 C   0  0  0  0  0  0  0  0  0  0  0  0
   47.8258   42.1458   39.6054 C   0  0  0  0  0  0  0  0  0  0  0  0
   49.8317   45.5727   41.3259 C   0  0  0  0  0  0  0  0  0  0  0  0
   50.7477   46.6700   41.5545 C   0  0  0  0  0  0  0  0  0  0  0  0
   51.9445   46.8823   40.8580 C   0  0  0  0  0  0  0  0  0  0  0  0
   52.7156   47.9715   41.2092 C   0  0  0  0  0  0  0  0  0  0  0  0
   52.2494   48.8140   42.2061 C   0  0  0  0  0  0  0  0  0  0  0  0
   51.0829   48.5426   42.8879 C   0  0  0  0  0  0  0  0  0  0  0  0
   41.5782   41.2106   47.0340 N   0  0  0  0  0  0  0  0  0  0  0  0
   42.6909   39.7495   44.3583 N   0  0  0  0  0  0  0  0  0  0  0  0
   49.2329   45.5539   40.1873 N   0  0  0  0  0  0  0  0  0  0  0  0
   50.3241   47.5131   42.5435 N   0  0  0  0  0  0  0  0  0  0  0  0
  1 17  2  0  0  0  0
  1 16  1  0  0  0  0
  2  3  2  0  0  0  0
  2 26  1  0  0  0  0
  3  4  1  0  0  0  0
  4  5  2  0  0  0  0
  5  6  1  0  0  0  0
  6  7  1  0  0  0  0
  6 26  2  0  0  0  0
  7 27  2  0  0  0  0
  8  9  2  0  0  0  0
  8 13  1  0  0  0  0
  8 27  1  0  0  0  0
  9 10  1  0  0  0  0
 10 11  2  0  0  0  0
 11 12  1  0  0  0  0
 11 14  1  0  0  0  0
 12 13  2  0  0  0  0
 14 15  1  0  0  0  0
 15 16  2  0  0  0  0
 15 19  1  0  0  0  0
 17 18  1  0  0  0  0
 17 28  1  0  0  0  0
 18 19  2  0  0  0  0
 20 21  1  0  0  0  0
 20 28  2  0  0  0  0
 21 22  2  0  0  0  0
 21 29  1  0  0  0  0
 22 23  1  0  0  0  0
 23 24  2  0  0  0  0
 24 25  1  0  0  0  0
 25 29  2  0  0  0  0
M  END
>  <CHROM.1>
-66.91825751,-9.82351904,-65.05272929,-66.02521093,76.99198133,103.65273940
45.89958528,42.88218182,42.63907776,0.12284843,-0.71923042,-2.00398895

>  <Name>
ligand

>  <RI>
0

>  <Rbt.Current_Directory>
/home/itssahil/PROJECTS/Mol_Feturizer/New_Systems/rnas/4JIY

>  <Rbt.Executable>
rbdock ($Id: //depot/dev/client3/rdock/2013.1/src/exe/rbdock.cxx#4 $)

>  <Rbt.Library>
libRbt.so (2013.1, Build901 2013/11/27)

>  <Rbt.Parameter_File>
/export/apps/rDock/src/rDock_2013.1_src/data/scripts/dock_solv.prm

>  <Rbt.Receptor>
prm/pocket_docking_8.prm

>  <SCORE>
-10.7175

>  <SCORE.INTER>
-9.98117

>  <SCORE.INTER.CONST>
1

>  <SCORE.INTER.POLAR>
0

>  <SCORE.INTER.ROT>
6

>  <SCORE.INTER.SOLV>
2.4949

>  <SCORE.INTER.VDW>
-15.0857

>  <SCORE.INTER.norm>
-0.344178

>  <SCORE.INTRA>
-0.736318

>  <SCORE.INTRA.DIHEDRAL>
0.0212355

>  <SCORE.INTRA.DIHEDRAL.0>
7.2424

>  <SCORE.INTRA.POLAR>
0

>  <SCORE.INTRA.POLAR.0>
0

>  <SCORE.INTRA.REPUL>
0

>  <SCORE.INTRA.REPUL.0>
0

>  <SCORE.INTRA.SOLV>
-0.0192264

>  <SCORE.INTRA.SOLV.lig_0>
-3.36201

>  <SCORE.INTRA.VDW>
-0.737323

>  <SCORE.INTRA.VDW.0>
-0.910526

>  <SCORE.INTRA.norm>
-0.0253903

>  <SCORE.RESTR>
0

>  <SCORE.RESTR.CAVITY>
0

>  <SCORE.RESTR.norm>
0

>  <SCORE.SYSTEM>
0

>  <SCORE.SYSTEM.CONST>
0

>  <SCORE.SYSTEM.DIHEDRAL>
0

>  <SCORE.SYSTEM.SOLV>
0

>  <SCORE.SYSTEM.norm>
0

>  <SCORE.heavy>
29

>  <SCORE.norm>
-0.369568

>  <RMSD>
6.233

$$$$
ligand
 OpenBabel11021811503D
libRbt.so/2013.1/901 2013/11/27
 29 32  0  0  0  0  0  0  0  0999 V2000
   44.9347   41.7893   40.4110 C   0  0  0  0  0  0  0  0  0  0  0  0
   53.1917   48.2756   47.3863 C   0  0  0  0  0  0  0  0  0  0  0  0
   54.5773   48.3376   47.1867 C   0  0  0  0  0  0  0  0  0  0  0  0
   55.1282   47.9090   46.0296 C   0  0  0  0  0  0  0  0  0  0  0  0
   54.2964   47.3442   45.0721 C   0  0  0  0  0  0  0  0  0  0  0  0
   52.9411   47.3498   45.2705 C   0  0  0  0  0  0  0  0  0  0  0  0
   51.9361   46.9038   44.3080 C   0  0  0  0  0  0  0  0  0  0  0  0
   50.8812   45.1651   43.1788 C   0  0  0  0  0  0  0  0  0  0  0  0
   51.3974   44.5628   42.0484 C   0  0  0  0  0  0  0  0  0  0  0  0
   50.5251   44.1917   41.0235 C   0  0  0  0  0  0  0  0  0  0  0  0
   49.1655   44.3150   41.1447 C   0  0  0  0  0  0  0  0  0  0  0  0
   48.6714   44.9262   42.3174 C   0  0  0  0  0  0  0  0  0  0  0  0
   49.5274   45.4044   43.3031 C   0  0  0  0  0  0  0  0  0  0  0  0
   48.2077   43.7736   40.0857 C   0  0  0  0  0  0  0  0  0  0  0  0
   47.0414   42.9897   40.6714 C   0  0  0  0  0  0  0  0  0  0  0  0
   46.0092   42.5055   39.9092 C   0  0  0  0  0  0  0  0  0  0  0  0
   44.9308   41.5433   41.7579 C   0  0  0  0  0  0  0  0  0  0  0  0
   45.9425   42.0235   42.5143 C   0  0  0  0  0  0  0  0  0  0  0  0
   47.0012   42.7489   42.0162 C   0  0  0  0  0  0  0  0  0  0  0  0
   43.4166   39.7837   41.7196 C   0  0  0  0  0  0  0  0  0  0  0  0
   42.2875   39.0682   42.2751 C   0  0  0  0  0  0  0  0  0  0  0  0
   42.2302   38.5247   43.5649 C   0  0  0  0  0  0  0  0  0  0  0  0
   41.0821   37.8557   43.9371 C   0  0  0  0  0  0  0  0  0  0  0  0
   40.0368   37.7871   43.0296 C   0  0  0  0  0  0  0  0  0  0  0  0
   40.1546   38.3061   41.7584 C   0  0  0  0  0  0  0  0  0  0  0  0
   52.3842   47.7850   46.4309 N   0  0  0  0  0  0  0  0  0  0  0  0
   51.7945   45.6092   44.2229 N   0  0  0  0  0  0  0  0  0  0  0  0
   43.8469   40.7895   42.3968 N   0  0  0  0  0  0  0  0  0  0  0  0
   41.2430   38.9697   41.3988 N   0  0  0  0  0  0  0  0  0  0  0  0
  1 17  2  0  0  0  0
  1 16  1  0  0  0  0
  2  3  2  0  0  0  0
  2 26  1  0  0  0  0
  3  4  1  0  0  0  0
  4  5  2  0  0  0  0
  5  6  1  0  0  0  0
  6  7  1  0  0  0  0
  6 26  2  0  0  0  0
  7 27  2  0  0  0  0
  8  9  2  0  0  0  0
  8 13  1  0  0  0  0
  8 27  1  0  0  0  0
  9 10  1  0  0  0  0
 10 11  2  0  0  0  0
 11 12  1  0  0  0  0
 11 14  1  0  0  0  0
 12 13  2  0  0  0  0
 14 15  1  0  0  0  0
 15 16  2  0  0  0  0
 15 19  1  0  0  0  0
 17 18  1  0  0  0  0
 17 28  1  0  0  0  0
 18 19  2  0  0  0  0
 20 21  1  0  0  0  0
 20 28  2  0  0  0  0
 21 22  2  0  0  0  0
 21 29  1  0  0  0  0
 22 23  1  0  0  0  0
 23 24  2  0  0  0  0
 24 25  1  0  0  0  0
 25 29  2  0  0  0  0
M  END
>  <CHROM.1>
78.12724216,133.67072868,174.77840159,-54.51086382,107.80295581,39.63872876
47.74365383,43.33057376,42.97629934,-2.89385466,0.62134843,1.53044945

>  <Name>
ligand

>  <RI>
0

>  <Rbt.Current_Directory>
/home/itssahil/PROJECTS/Mol_Feturizer/New_Systems/rnas/4JIY

>  <Rbt.Executable>
rbdock ($Id: //depot/dev/client3/rdock/2013.1/src/exe/rbdock.cxx#4 $)

>  <Rbt.Library>
libRbt.so (2013.1, Build901 2013/11/27)

>  <Rbt.Parameter_File>
/export/apps/rDock/src/rDock_2013.1_src/data/scripts/dock_solv.prm

>  <Rbt.Receptor>
prm/pocket_docking_6.prm

>  <SCORE>
-6.44199

>  <SCORE.INTER>
-7.17513

>  <SCORE.INTER.CONST>
1

>  <SCORE.INTER.POLAR>
0

>  <SCORE.INTER.ROT>
6

>  <SCORE.INTER.SOLV>
2.42309

>  <SCORE.INTER.VDW>
-13.1911

>  <SCORE.INTER.norm>
-0.247418

>  <SCORE.INTRA>
0.733143

>  <SCORE.INTRA.DIHEDRAL>
0.271823

>  <SCORE.INTRA.DIHEDRAL.0>
7.2424

>  <SCORE.INTRA.POLAR>
0

>  <SCORE.INTRA.POLAR.0>
0

>  <SCORE.INTRA.REPUL>
0

>  <SCORE.INTRA.REPUL.0>
0

>  <SCORE.INTRA.SOLV>
-0.0179748

>  <SCORE.INTRA.SOLV.lig_0>
-3.36201

>  <SCORE.INTRA.VDW>
0.606219

>  <SCORE.INTRA.VDW.0>
-0.910526

>  <SCORE.INTRA.norm>
0.0252808

>  <SCORE.RESTR>
0

>  <SCORE.RESTR.CAVITY>
0

>  <SCORE.RESTR.norm>
0

>  <SCORE.SYSTEM>
0

>  <SCORE.SYSTEM.CONST>
0

>  <SCORE.SYSTEM.DIHEDRAL>
0

>  <SCORE.SYSTEM.SOLV>
0

>  <SCORE.SYSTEM.norm>
0

>  <SCORE.heavy>
29

>  <SCORE.norm>
-0.222137

>  <RMSD>
6.237

$$$$
ligand
 OpenBabel11021811503D
libRbt.so/2013.1/901 2013/11/27
 29 32  0  0  0  0  0  0  0  0999 V2000
   41.0592   42.0769   38.1069 C   0  0  0  0  0  0  0  0  0  0  0  0
   47.8987   46.4610   46.9084 C   0  0  0  0  0  0  0  0  0  0  0  0
   49.2980   46.5297   46.8839 C   0  0  0  0  0  0  0  0  0  0  0  0
   50.0043   45.8860   45.9284 C   0  0  0  0  0  0  0  0  0  0  0  0
   49.3148   45.1012   45.0141 C   0  0  0  0  0  0  0  0  0  0  0  0
   47.9451   45.0994   45.0269 C   0  0  0  0  0  0  0  0  0  0  0  0
   47.0837   44.4233   44.0593 C   0  0  0  0  0  0  0  0  0  0  0  0
   46.4463   42.4676   42.9729 C   0  0  0  0  0  0  0  0  0  0  0  0
   45.3503   41.7050   43.3251 C   0  0  0  0  0  0  0  0  0  0  0  0
   44.6498   41.0279   42.3252 C   0  0  0  0  0  0  0  0  0  0  0  0
   44.9538   41.1747   40.9969 C   0  0  0  0  0  0  0  0  0  0  0  0
   46.0744   41.9693   40.6717 C   0  0  0  0  0  0  0  0  0  0  0  0
   46.8539   42.5637   41.6575 C   0  0  0  0  0  0  0  0  0  0  0  0
   44.0957   40.5514   39.8981 C   0  0  0  0  0  0  0  0  0  0  0  0
   43.1603   41.5465   39.2256 C   0  0  0  0  0  0  0  0  0  0  0  0
   41.9329   41.1963   38.7238 C   0  0  0  0  0  0  0  0  0  0  0  0
   41.4586   43.3835   38.0185 C   0  0  0  0  0  0  0  0  0  0  0  0
   42.6698   43.7326   38.5060 C   0  0  0  0  0  0  0  0  0  0  0  0
   43.5435   42.8529   39.1042 C   0  0  0  0  0  0  0  0  0  0  0  0
   39.9082   45.1007   38.2130 C   0  0  0  0  0  0  0  0  0  0  0  0
   38.9928   46.0569   37.6273 C   0  0  0  0  0  0  0  0  0  0  0  0
   39.3673   47.2295   36.9586 C   0  0  0  0  0  0  0  0  0  0  0  0
   38.3677   48.0458   36.4702 C   0  0  0  0  0  0  0  0  0  0  0  0
   37.0512   47.6461   36.6369 C   0  0  0  0  0  0  0  0  0  0  0  0
   36.7314   46.5014   37.3345 C   0  0  0  0  0  0  0  0  0  0  0  0
   47.2323   45.7500   45.9833 N   0  0  0  0  0  0  0  0  0  0  0  0
   47.2159   43.1254   44.0199 N   0  0  0  0  0  0  0  0  0  0  0  0
   40.6116   44.4037   37.3916 N   0  0  0  0  0  0  0  0  0  0  0  0
   37.6832   45.6993   37.7874 N   0  0  0  0  0  0  0  0  0  0  0  0
  1 17  2  0  0  0  0
  1 16  1  0  0  0  0
  2  3  2  0  0  0  0
  2 26  1  0  0  0  0
  3  4  1  0  0  0  0
  4  5  2  0  0  0  0
  5  6  1  0  0  0  0
  6  7  1  0  0  0  0
  6 26  2  0  0  0  0
  7 27  2  0  0  0  0
  8  9  2  0  0  0  0
  8 13  1  0  0  0  0
  8 27  1  0  0  0  0
  9 10  1  0  0  0  0
 10 11  2  0  0  0  0
 11 12  1  0  0  0  0
 11 14  1  0  0  0  0
 12 13  2  0  0  0  0
 14 15  1  0  0  0  0
 15 16  2  0  0  0  0
 15 19  1  0  0  0  0
 17 18  1  0  0  0  0
 17 28  1  0  0  0  0
 18 19  2  0  0  0  0
 20 21  1  0  0  0  0
 20 28  2  0  0  0  0
 21 22  2  0  0  0  0
 21 29  1  0  0  0  0
 22 23  1  0  0  0  0
 23 24  2  0  0  0  0
 24 25  1  0  0  0  0
 25 29  2  0  0  0  0
M  END
>  <CHROM.1>
62.01424175,101.27360365,-148.21239438,-69.63573132,-108.99322150,97.19080548
43.67817721,44.11172080,40.89367861,-2.97085394,-0.68944334,0.39351485

>  <Name>
ligand

>  <RI>
0

>  <Rbt.Current_Directory>
/home/itssahil/PROJECTS/Mol_Feturizer/New_Systems/rnas/4JIY

>  <Rbt.Executable>
rbdock ($Id: //depot/dev/client3/rdock/2013.1/src/exe/rbdock.cxx#4 $)

>  <Rbt.Library>
libRbt.so (2013.1, Build901 2013/11/27)

>  <Rbt.Parameter_File>
/export/apps/rDock/src/rDock_2013.1_src/data/scripts/dock_solv.prm

>  <Rbt.Receptor>
prm/pocket_docking_6.prm

>  <SCORE>
-5.17063

>  <SCORE.INTER>
-4.25648

>  <SCORE.INTER.CONST>
1

>  <SCORE.INTER.POLAR>
0

>  <SCORE.INTER.ROT>
6

>  <SCORE.INTER.SOLV>
1.87143

>  <SCORE.INTER.VDW>
-11.0615

>  <SCORE.INTER.norm>
-0.146775

>  <SCORE.INTRA>
-0.917804

>  <SCORE.INTRA.DIHEDRAL>
-0.118969

>  <SCORE.INTRA.DIHEDRAL.0>
7.2424

>  <SCORE.INTRA.POLAR>
0

>  <SCORE.INTRA.POLAR.0>
0

>  <SCORE.INTRA.REPUL>
0

>  <SCORE.INTRA.REPUL.0>
0

>  <SCORE.INTRA.SOLV>
-0.0201364

>  <SCORE.INTRA.SOLV.lig_0>
-3.36201

>  <SCORE.INTRA.VDW>
-0.848251

>  <SCORE.INTRA.VDW.0>
-0.910526

>  <SCORE.INTRA.norm>
-0.0316484

>  <SCORE.RESTR>
0.00364699

>  <SCORE.RESTR.CAVITY>
0.00364699

>  <SCORE.RESTR.norm>
0.000125758

>  <SCORE.SYSTEM>
0

>  <SCORE.SYSTEM.CONST>
0

>  <SCORE.SYSTEM.DIHEDRAL>
0

>  <SCORE.SYSTEM.SOLV>
0

>  <SCORE.SYSTEM.norm>
0

>  <SCORE.heavy>
29

>  <SCORE.norm>
-0.178298

>  <RMSD>
6.246

$$$$
ligand
 OpenBabel11021811503D
libRbt.so/2013.1/901 2013/11/27
 29 32  0  0  0  0  0  0  0  0999 V2000
   42.4634   42.8007   39.0038 C   0  0  0  0  0  0  0  0  0  0  0  0
   48.3840   45.3885   49.2667 C   0  0  0  0  0  0  0  0  0  0  0  0
   49.7247   45.1344   49.5852 C   0  0  0  0  0  0  0  0  0  0  0  0
   50.5807   44.6691   48.6488 C   0  0  0  0  0  0  0  0  0  0  0  0
   50.0842   44.3851   47.3837 C   0  0  0  0  0  0  0  0  0  0  0  0
   48.7844   44.6976   47.0853 C   0  0  0  0  0  0  0  0  0  0  0  0
   48.1562   44.5702   45.7721 C   0  0  0  0  0  0  0  0  0  0  0  0
   47.6643   43.2682   43.9082 C   0  0  0  0  0  0  0  0  0  0  0  0
   48.2707   43.9980   42.9048 C   0  0  0  0  0  0  0  0  0  0  0  0
   47.7365   43.9469   41.6160 C   0  0  0  0  0  0  0  0  0  0  0  0
   46.6920   43.1202   41.2936 C   0  0  0  0  0  0  0  0  0  0  0  0
   46.1020   42.3811   42.3416 C   0  0  0  0  0  0  0  0  0  0  0  0
   46.5460   42.5000   43.6537 C   0  0  0  0  0  0  0  0  0  0  0  0
   46.2060   42.9561   39.8551 C   0  0  0  0  0  0  0  0  0  0  0  0
   44.7470   43.3462   39.6630 C   0  0  0  0  0  0  0  0  0  0  0  0
   43.7976   42.4771   39.1896 C   0  0  0  0  0  0  0  0  0  0  0  0
   42.0836   44.0729   39.3382 C   0  0  0  0  0  0  0  0  0  0  0  0
   43.0166   44.9350   39.7995 C   0  0  0  0  0  0  0  0  0  0  0  0
   44.3452   44.6165   39.9682 C   0  0  0  0  0  0  0  0  0  0  0  0
   40.4692   45.2367   38.1426 C   0  0  0  0  0  0  0  0  0  0  0  0
   39.1324   45.7748   38.0064 C   0  0  0  0  0  0  0  0  0  0  0  0
   38.6334   46.8850   38.6999 C   0  0  0  0  0  0  0  0  0  0  0  0
   37.3266   47.2623   38.4670 C   0  0  0  0  0  0  0  0  0  0  0  0
   36.5904   46.5457   37.5368 C   0  0  0  0  0  0  0  0  0  0  0  0
   37.1140   45.4376   36.9066 C   0  0  0  0  0  0  0  0  0  0  0  0
   47.9230   45.1706   48.0235 N   0  0  0  0  0  0  0  0  0  0  0  0
   48.1817   43.3674   45.2661 N   0  0  0  0  0  0  0  0  0  0  0  0
   40.6958   44.5232   39.1890 N   0  0  0  0  0  0  0  0  0  0  0  0
   38.3739   45.0806   37.1057 N   0  0  0  0  0  0  0  0  0  0  0  0
  1 17  2  0  0  0  0
  1 16  1  0  0  0  0
  2  3  2  0  0  0  0
  2 26  1  0  0  0  0
  3  4  1  0  0  0  0
  4  5  2  0  0  0  0
  5  6  1  0  0  0  0
  6  7  1  0  0  0  0
  6 26  2  0  0  0  0
  7 27  2  0  0  0  0
  8  9  2  0  0  0  0
  8 13  1  0  0  0  0
  8 27  1  0  0  0  0
  9 10  1  0  0  0  0
 10 11  2  0  0  0  0
 11 12  1  0  0  0  0
 11 14  1  0  0  0  0
 12 13  2  0  0  0  0
 14 15  1  0  0  0  0
 15 16  2  0  0  0  0
 15 19  1  0  0  0  0
 17 18  1  0  0  0  0
 17 28  1  0  0  0  0
 18 19  2  0  0  0  0
 20 21  1  0  0  0  0
 20 28  2  0  0  0  0
 21 22  2  0  0  0  0
 21 29  1  0  0  0  0
 22 23  1  0  0  0  0
 23 24  2  0  0  0  0
 24 25  1  0  0  0  0
 25 29  2  0  0  0  0
M  END
>  <CHROM.1>
58.05365762,-120.53572000,-121.09833816,77.57041469,59.83011079,-100.87443498
44.47036114,44.42933212,41.98389105,-2.54448819,-0.47105303,1.10005318

>  <Name>
ligand

>  <RI>
0

>  <Rbt.Current_Directory>
/home/itssahil/PROJECTS/Mol_Feturizer/New_Systems/rnas/4JIY

>  <Rbt.Executable>
rbdock ($Id: //depot/dev/client3/rdock/2013.1/src/exe/rbdock.cxx#4 $)

>  <Rbt.Library>
libRbt.so (2013.1, Build901 2013/11/27)

>  <Rbt.Parameter_File>
/export/apps/rDock/src/rDock_2013.1_src/data/scripts/dock_solv.prm

>  <Rbt.Receptor>
prm/pocket_docking_5.prm

>  <SCORE>
-1.70595

>  <SCORE.INTER>
-1.26088

>  <SCORE.INTER.CONST>
1

>  <SCORE.INTER.POLAR>
0

>  <SCORE.INTER.ROT>
6

>  <SCORE.INTER.SOLV>
1.3776

>  <SCORE.INTER.VDW>
-8.89979

>  <SCORE.INTER.norm>
-0.0434786

>  <SCORE.INTRA>
-0.729473

>  <SCORE.INTRA.DIHEDRAL>
0.131663

>  <SCORE.INTRA.DIHEDRAL.0>
7.2424

>  <SCORE.INTRA.POLAR>
0

>  <SCORE.INTRA.POLAR.0>
0

>  <SCORE.INTRA.REPUL>
0

>  <SCORE.INTRA.REPUL.0>
0

>  <SCORE.INTRA.SOLV>
-0.0187468

>  <SCORE.INTRA.SOLV.lig_0>
-3.36201

>  <SCORE.INTRA.VDW>
-0.785931

>  <SCORE.INTRA.VDW.0>
-0.910526

>  <SCORE.INTRA.norm>
-0.0251542

>  <SCORE.RESTR>
0.284401

>  <SCORE.RESTR.CAVITY>
0.284401

>  <SCORE.RESTR.norm>
0.00980694

>  <SCORE.SYSTEM>
0

>  <SCORE.SYSTEM.CONST>
0

>  <SCORE.SYSTEM.DIHEDRAL>
0

>  <SCORE.SYSTEM.SOLV>
0

>  <SCORE.SYSTEM.norm>
0

>  <SCORE.heavy>
29

>  <SCORE.norm>
-0.0588259

>  <RMSD>
6.256

$$$$
ligand
 OpenBabel11021811503D
libRbt.so/2013.1/901 2013/11/27
 29 32  0  0  0  0  0  0  0  0999 V2000
   44.3010   41.5371   42.9373 C   0  0  0  0  0  0  0  0  0  0  0  0
   51.9321   51.1832   42.6456 C   0  0  0  0  0  0  0  0  0  0  0  0
   52.8788   51.0832   41.6174 C   0  0  0  0  0  0  0  0  0  0  0  0
   53.0354   49.9286   40.9329 C   0  0  0  0  0  0  0  0  0  0  0  0
   52.2845   48.8261   41.3177 C   0  0  0  0  0  0  0  0  0  0  0  0
   51.3270   48.9693   42.2867 C   0  0  0  0  0  0  0  0  0  0  0  0
   50.3826   47.9384   42.7118 C   0  0  0  0  0  0  0  0  0  0  0  0
   49.8859   46.1213   44.0767 C   0  0  0  0  0  0  0  0  0  0  0  0
   48.7879   46.3685   44.8768 C   0  0  0  0  0  0  0  0  0  0  0  0
   47.9731   45.2994   45.2537 C   0  0  0  0  0  0  0  0  0  0  0  0
   48.1702   44.0304   44.7751 C   0  0  0  0  0  0  0  0  0  0  0  0
   49.2965   43.8150   43.9518 C   0  0  0  0  0  0  0  0  0  0  0  0
   50.1847   44.8420   43.6530 C   0  0  0  0  0  0  0  0  0  0  0  0
   47.1928   42.8947   45.0705 C   0  0  0  0  0  0  0  0  0  0  0  0
   46.3261   42.5188   43.8766 C   0  0  0  0  0  0  0  0  0  0  0  0
   45.1127   41.8920   44.0024 C   0  0  0  0  0  0  0  0  0  0  0  0
   44.7496   41.8587   41.6843 C   0  0  0  0  0  0  0  0  0  0  0  0
   45.9474   42.4709   41.5546 C   0  0  0  0  0  0  0  0  0  0  0  0
   46.7602   42.8083   42.6133 C   0  0  0  0  0  0  0  0  0  0  0  0
   43.1148   42.4342   40.1396 C   0  0  0  0  0  0  0  0  0  0  0  0
   42.2637   42.1145   39.0131 C   0  0  0  0  0  0  0  0  0  0  0  0
   41.9742   40.8209   38.5603 C   0  0  0  0  0  0  0  0  0  0  0  0
   41.1542   40.6870   37.4585 C   0  0  0  0  0  0  0  0  0  0  0  0
   40.6348   41.8349   36.8812 C   0  0  0  0  0  0  0  0  0  0  0  0
   40.9785   43.0880   37.3406 C   0  0  0  0  0  0  0  0  0  0  0  0
   51.1638   50.1305   42.9729 N   0  0  0  0  0  0  0  0  0  0  0  0
   50.7725   47.2244   43.7324 N   0  0  0  0  0  0  0  0  0  0  0  0
   43.9699   41.5369   40.4845 N   0  0  0  0  0  0  0  0  0  0  0  0
   41.7461   43.2271   38.4110 N   0  0  0  0  0  0  0  0  0  0  0  0
  1 17  2  0  0  0  0
  1 16  1  0  0  0  0
  2  3  2  0  0  0  0
  2 26  1  0  0  0  0
  3  4  1  0  0  0  0
  4  5  2  0  0  0  0
  5  6  1  0  0  0  0
  6  7  1  0  0  0  0
  6 26  2  0  0  0  0
  7 27  2  0  0  0  0
  8  9  2  0  0  0  0
  8 13  1  0  0  0  0
  8 27  1  0  0  0  0
  9 10  1  0  0  0  0
 10 11  2  0  0  0  0
 11 12  1  0  0  0  0
 11 14  1  0  0  0  0
 12 13  2  0  0  0  0
 14 15  1  0  0  0  0
 15 16  2  0  0  0  0
 15 19  1  0  0  0  0
 17 18  1  0  0  0  0
 17 28  1  0  0  0  0
 18 19  2  0  0  0  0
 20 21  1  0  0  0  0
 20 28  2  0  0  0  0
 21 22  2  0  0  0  0
 21 29  1  0  0  0  0
 22 23  1  0  0  0  0
 23 24  2  0  0  0  0
 24 25  1  0  0  0  0
 25 29  2  0  0  0  0
M  END
>  <CHROM.1>
93.24854023,105.71014277,-156.84529592,22.22247775,-83.86661192,87.91719163
47.04111804,44.75048442,41.89508181,-3.02392722,-0.70632410,-0.91978427

>  <Name>
ligand

>  <RI>
0

>  <Rbt.Current_Directory>
/home/itssahil/PROJECTS/Mol_Feturizer/New_Systems/rnas/4JIY

>  <Rbt.Executable>
rbdock ($Id: //depot/dev/client3/rdock/2013.1/src/exe/rbdock.cxx#4 $)

>  <Rbt.Library>
libRbt.so (2013.1, Build901 2013/11/27)

>  <Rbt.Parameter_File>
/export/apps/rDock/src/rDock_2013.1_src/data/scripts/dock_solv.prm

>  <Rbt.Receptor>
prm/pocket_docking_5.prm

>  <SCORE>
-2.60209

>  <SCORE.INTER>
-2.16037

>  <SCORE.INTER.CONST>
1

>  <SCORE.INTER.POLAR>
0

>  <SCORE.INTER.ROT>
6

>  <SCORE.INTER.SOLV>
1.28277

>  <SCORE.INTER.VDW>
-9.46783

>  <SCORE.INTER.norm>
-0.0744954

>  <SCORE.INTRA>
-0.448334

>  <SCORE.INTRA.DIHEDRAL>
0.486626

>  <SCORE.INTRA.DIHEDRAL.0>
7.2424

>  <SCORE.INTRA.POLAR>
0

>  <SCORE.INTRA.POLAR.0>
0

>  <SCORE.INTRA.REPUL>
0

>  <SCORE.INTRA.REPUL.0>
0

>  <SCORE.INTRA.SOLV>
-0.0189343

>  <SCORE.INTRA.SOLV.lig_0>
-3.36201

>  <SCORE.INTRA.VDW>
-0.68218

>  <SCORE.INTRA.VDW.0>
-0.910526

>  <SCORE.INTRA.norm>
-0.0154598

>  <SCORE.RESTR>
0.00661382

>  <SCORE.RESTR.CAVITY>
0.00661382

>  <SCORE.RESTR.norm>
0.000228063

>  <SCORE.SYSTEM>
0

>  <SCORE.SYSTEM.CONST>
0

>  <SCORE.SYSTEM.DIHEDRAL>
0

>  <SCORE.SYSTEM.SOLV>
0

>  <SCORE.SYSTEM.norm>
0

>  <SCORE.heavy>
29

>  <SCORE.norm>
-0.0897271

>  <RMSD>
6.275

$$$$
ligand
 OpenBabel11021811503D
libRbt.so/2013.1/901 2013/11/27
 29 32  0  0  0  0  0  0  0  0999 V2000
   46.8388   43.0744   44.2921 C   0  0  0  0  0  0  0  0  0  0  0  0
   37.0432   48.4433   42.2062 C   0  0  0  0  0  0  0  0  0  0  0  0
   36.4886   48.9321   43.3966 C   0  0  0  0  0  0  0  0  0  0  0  0
   36.9085   48.4696   44.5949 C   0  0  0  0  0  0  0  0  0  0  0  0
   37.8523   47.4517   44.6156 C   0  0  0  0  0  0  0  0  0  0  0  0
   38.4179   47.0346   43.4399 C   0  0  0  0  0  0  0  0  0  0  0  0
   39.5029   46.0641   43.3122 C   0  0  0  0  0  0  0  0  0  0  0  0
   40.2883   43.8932   43.5980 C   0  0  0  0  0  0  0  0  0  0  0  0
   40.6239   43.2664   42.4142 C   0  0  0  0  0  0  0  0  0  0  0  0
   41.6502   42.3201   42.4190 C   0  0  0  0  0  0  0  0  0  0  0  0
   42.4003   42.0658   43.5375 C   0  0  0  0  0  0  0  0  0  0  0  0
   42.0361   42.7312   44.7280 C   0  0  0  0  0  0  0  0  0  0  0  0
   40.9475   43.5947   44.7736 C   0  0  0  0  0  0  0  0  0  0  0  0
   43.6149   41.1408   43.5025 C   0  0  0  0  0  0  0  0  0  0  0  0
   44.9343   41.8833   43.3427 C   0  0  0  0  0  0  0  0  0  0  0  0
   45.6369   42.3946   44.4039 C   0  0  0  0  0  0  0  0  0  0  0  0
   47.3522   43.2190   43.0311 C   0  0  0  0  0  0  0  0  0  0  0  0
   46.6607   42.7223   41.9815 C   0  0  0  0  0  0  0  0  0  0  0  0
   45.4583   42.0612   42.0930 C   0  0  0  0  0  0  0  0  0  0  0  0
   48.5216   45.1918   42.6698 C   0  0  0  0  0  0  0  0  0  0  0  0
   49.7392   45.9049   42.3467 C   0  0  0  0  0  0  0  0  0  0  0  0
   50.4039   45.8524   41.1147 C   0  0  0  0  0  0  0  0  0  0  0  0
   51.5665   46.5822   40.9727 C   0  0  0  0  0  0  0  0  0  0  0  0
   51.9947   47.3527   42.0422 C   0  0  0  0  0  0  0  0  0  0  0  0
   51.3261   47.3429   43.2472 C   0  0  0  0  0  0  0  0  0  0  0  0
   38.0014   47.5017   42.2339 N   0  0  0  0  0  0  0  0  0  0  0  0
   39.1777   44.8355   43.6090 N   0  0  0  0  0  0  0  0  0  0  0  0
   48.6213   43.9152   42.7948 N   0  0  0  0  0  0  0  0  0  0  0  0
   50.1972   46.6643   43.3868 N   0  0  0  0  0  0  0  0  0  0  0  0
  1 17  2  0  0  0  0
  1 16  1  0  0  0  0
  2  3  2  0  0  0  0
  2 26  1  0  0  0  0
  3  4  1  0  0  0  0
  4  5  2  0  0  0  0
  5  6  1  0  0  0  0
  6  7  1  0  0  0  0
  6 26  2  0  0  0  0
  7 27  2  0  0  0  0
  8  9  2  0  0  0  0
  8 13  1  0  0  0  0
  8 27  1  0  0  0  0
  9 10  1  0  0  0  0
 10 11  2  0  0  0  0
 11 12  1  0  0  0  0
 11 14  1  0  0  0  0
 12 13  2  0  0  0  0
 14 15  1  0  0  0  0
 15 16  2  0  0  0  0
 15 19  1  0  0  0  0
 17 18  1  0  0  0  0
 17 28  1  0  0  0  0
 18 19  2  0  0  0  0
 20 21  1  0  0  0  0
 20 28  2  0  0  0  0
 21 22  2  0  0  0  0
 21 29  1  0  0  0  0
 22 23  1  0  0  0  0
 23 24  2  0  0  0  0
 24 25  1  0  0  0  0
 25 29  2  0  0  0  0
M  END
>  <CHROM.1>
69.59026214,96.52620962,86.13342181,70.38983277,-87.77919751,-85.98198388
43.93808663,44.89495960,43.10622886,0.08722095,-0.09783223,3.03256893

>  <Name>
ligand

>  <RI>
0

>  <Rbt.Current_Directory>
/home/itssahil/PROJECTS/Mol_Feturizer/New_Systems/rnas/4JIY

>  <Rbt.Executable>
rbdock ($Id: //depot/dev/client3/rdock/2013.1/src/exe/rbdock.cxx#4 $)

>  <Rbt.Library>
libRbt.so (2013.1, Build901 2013/11/27)

>  <Rbt.Parameter_File>
/export/apps/rDock/src/rDock_2013.1_src/data/scripts/dock_solv.prm

>  <Rbt.Receptor>
prm/pocket_docking_5.prm

>  <SCORE>
0.140662

>  <SCORE.INTER>
1.40446

>  <SCORE.INTER.CONST>
1

>  <SCORE.INTER.POLAR>
0

>  <SCORE.INTER.ROT>
6

>  <SCORE.INTER.SOLV>
1.04661

>  <SCORE.INTER.VDW>
-7.01256

>  <SCORE.INTER.norm>
0.0484297

>  <SCORE.INTRA>
-1.26515

>  <SCORE.INTRA.DIHEDRAL>
-0.0903998

>  <SCORE.INTRA.DIHEDRAL.0>
7.2424

>  <SCORE.INTRA.POLAR>
0

>  <SCORE.INTRA.POLAR.0>
0

>  <SCORE.INTRA.REPUL>
0

>  <SCORE.INTRA.REPUL.0>
0

>  <SCORE.INTRA.SOLV>
-0.0198198

>  <SCORE.INTRA.SOLV.lig_0>
-3.36201

>  <SCORE.INTRA.VDW>
-1.21004

>  <SCORE.INTRA.VDW.0>
-0.910526

>  <SCORE.INTRA.norm>
-0.0436259

>  <SCORE.RESTR>
0.001351

>  <SCORE.RESTR.CAVITY>
0.001351

>  <SCORE.RESTR.norm>
4.65863e-05

>  <SCORE.SYSTEM>
0

>  <SCORE.SYSTEM.CONST>
0

>  <SCORE.SYSTEM.DIHEDRAL>
0

>  <SCORE.SYSTEM.SOLV>
0

>  <SCORE.SYSTEM.norm>
0

>  <SCORE.heavy>
29

>  <SCORE.norm>
0.0048504

>  <RMSD>
6.284

$$$$
ligand
 OpenBabel11021811503D
libRbt.so/2013.1/901 2013/11/27
 29 32  0  0  0  0  0  0  0  0999 V2000
   45.7927   41.9680   42.5607 C   0  0  0  0  0  0  0  0  0  0  0  0
   53.3740   46.4459   47.5773 C   0  0  0  0  0  0  0  0  0  0  0  0
   54.5816   47.1087   47.3203 C   0  0  0  0  0  0  0  0  0  0  0  0
   55.1043   47.1331   46.0744 C   0  0  0  0  0  0  0  0  0  0  0  0
   54.4519   46.4295   45.0711 C   0  0  0  0  0  0  0  0  0  0  0  0
   53.2447   45.8400   45.3384 C   0  0  0  0  0  0  0  0  0  0  0  0
   52.3869   45.1715   44.3624 C   0  0  0  0  0  0  0  0  0  0  0  0
   50.9532   45.3066   42.5356 C   0  0  0  0  0  0  0  0  0  0  0  0
   49.6178   45.2710   42.8854 C   0  0  0  0  0  0  0  0  0  0  0  0
   48.7194   44.6025   42.0518 C   0  0  0  0  0  0  0  0  0  0  0  0
   49.1026   44.0668   40.8499 C   0  0  0  0  0  0  0  0  0  0  0  0
   50.4735   44.1292   40.5192 C   0  0  0  0  0  0  0  0  0  0  0  0
   51.4045   44.6920   41.3848 C   0  0  0  0  0  0  0  0  0  0  0  0
   48.0925   43.4672   39.8739 C   0  0  0  0  0  0  0  0  0  0  0  0
   46.8944   42.8284   40.5625 C   0  0  0  0  0  0  0  0  0  0  0  0
   46.8662   42.5481   41.9047 C   0  0  0  0  0  0  0  0  0  0  0  0
   44.6886   41.6794   41.8041 C   0  0  0  0  0  0  0  0  0  0  0  0
   44.7137   41.9480   40.4799 C   0  0  0  0  0  0  0  0  0  0  0  0
   45.7875   42.5097   39.8267 C   0  0  0  0  0  0  0  0  0  0  0  0
   43.2740   39.8533   42.0378 C   0  0  0  0  0  0  0  0  0  0  0  0
   42.0548   39.2465   42.5283 C   0  0  0  0  0  0  0  0  0  0  0  0
   40.7824   39.4234   41.9698 C   0  0  0  0  0  0  0  0  0  0  0  0
   39.7159   38.7846   42.5687 C   0  0  0  0  0  0  0  0  0  0  0  0
   39.9649   37.9770   43.6672 C   0  0  0  0  0  0  0  0  0  0  0  0
   41.2297   37.8635   44.2027 C   0  0  0  0  0  0  0  0  0  0  0  0
   52.7143   45.8184   46.5891 N   0  0  0  0  0  0  0  0  0  0  0  0
   51.9024   45.9499   43.4336 N   0  0  0  0  0  0  0  0  0  0  0  0
   43.4922   41.0701   42.3944 N   0  0  0  0  0  0  0  0  0  0  0  0
   42.2636   38.4538   43.6222 N   0  0  0  0  0  0  0  0  0  0  0  0
  1 17  2  0  0  0  0
  1 16  1  0  0  0  0
  2  3  2  0  0  0  0
  2 26  1  0  0  0  0
  3  4  1  0  0  0  0
  4  5  2  0  0  0  0
  5  6  1  0  0  0  0
  6  7  1  0  0  0  0
  6 26  2  0  0  0  0
  7 27  2  0  0  0  0
  8  9  2  0  0  0  0
  8 13  1  0  0  0  0
  8 27  1  0  0  0  0
  9 10  1  0  0  0  0
 10 11  2  0  0  0  0
 11 12  1  0  0  0  0
 11 14  1  0  0  0  0
 12 13  2  0  0  0  0
 14 15  1  0  0  0  0
 15 16  2  0  0  0  0
 15 19  1  0  0  0  0
 17 18  1  0  0  0  0
 17 28  1  0  0  0  0
 18 19  2  0  0  0  0
 20 21  1  0  0  0  0
 20 28  2  0  0  0  0
 21 22  2  0  0  0  0
 21 29  1  0  0  0  0
 22 23  1  0  0  0  0
 23 24  2  0  0  0  0
 24 25  1  0  0  0  0
 25 29  2  0  0  0  0
M  END
>  <CHROM.1>
-64.78140827,-31.79934675,-13.93586462,81.19887017,87.16898340,-110.40688189
47.71203137,43.01549921,42.97256374,-3.02590184,0.55852623,1.71472398

>  <Name>
ligand

>  <RI>
0

>  <Rbt.Current_Directory>
/home/itssahil/PROJECTS/Mol_Feturizer/New_Systems/rnas/4JIY

>  <Rbt.Executable>
rbdock ($Id: //depot/dev/client3/rdock/2013.1/src/exe/rbdock.cxx#4 $)

>  <Rbt.Library>
libRbt.so (2013.1, Build901 2013/11/27)

>  <Rbt.Parameter_File>
/export/apps/rDock/src/rDock_2013.1_src/data/scripts/dock_solv.prm

>  <Rbt.Receptor>
prm/pocket_docking_6.prm

>  <SCORE>
-6.77155

>  <SCORE.INTER>
-6.74469

>  <SCORE.INTER.CONST>
1

>  <SCORE.INTER.POLAR>
0

>  <SCORE.INTER.ROT>
6

>  <SCORE.INTER.SOLV>
2.25246

>  <SCORE.INTER.VDW>
-12.8473

>  <SCORE.INTER.norm>
-0.232575

>  <SCORE.INTRA>
-0.0268654

>  <SCORE.INTRA.DIHEDRAL>
0.0868987

>  <SCORE.INTRA.DIHEDRAL.0>
7.2424

>  <SCORE.INTRA.POLAR>
0

>  <SCORE.INTRA.POLAR.0>
0

>  <SCORE.INTRA.REPUL>
0

>  <SCORE.INTRA.REPUL.0>
0

>  <SCORE.INTRA.SOLV>
-0.018669

>  <SCORE.INTRA.SOLV.lig_0>
-3.36201

>  <SCORE.INTRA.VDW>
-0.0609803

>  <SCORE.INTRA.VDW.0>
-0.910526

>  <SCORE.INTRA.norm>
-0.000926394

>  <SCORE.RESTR>
0

>  <SCORE.RESTR.CAVITY>
0

>  <SCORE.RESTR.norm>
0

>  <SCORE.SYSTEM>
0

>  <SCORE.SYSTEM.CONST>
0

>  <SCORE.SYSTEM.DIHEDRAL>
0

>  <SCORE.SYSTEM.SOLV>
0

>  <SCORE.SYSTEM.norm>
0

>  <SCORE.heavy>
29

>  <SCORE.norm>
-0.233502

>  <RMSD>
6.327

$$$$
ligand
 OpenBabel11021811503D
libRbt.so/2013.1/901 2013/11/27
 29 32  0  0  0  0  0  0  0  0999 V2000
   45.3176   42.1052   39.8945 C   0  0  0  0  0  0  0  0  0  0  0  0
   39.3001   35.2776   44.9693 C   0  0  0  0  0  0  0  0  0  0  0  0
   39.3538   33.8804   45.0619 C   0  0  0  0  0  0  0  0  0  0  0  0
   40.1643   33.1653   44.2508 C   0  0  0  0  0  0  0  0  0  0  0  0
   40.8900   33.8419   43.2799 C   0  0  0  0  0  0  0  0  0  0  0  0
   40.8619   35.2111   43.2509 C   0  0  0  0  0  0  0  0  0  0  0  0
   41.6601   36.0625   42.3716 C   0  0  0  0  0  0  0  0  0  0  0  0
   42.2674   36.7027   40.2193 C   0  0  0  0  0  0  0  0  0  0  0  0
   41.9831   38.0309   39.9704 C   0  0  0  0  0  0  0  0  0  0  0  0
   42.7919   38.7388   39.0796 C   0  0  0  0  0  0  0  0  0  0  0  0
   43.9157   38.1874   38.5214 C   0  0  0  0  0  0  0  0  0  0  0  0
   44.1819   36.8303   38.8047 C   0  0  0  0  0  0  0  0  0  0  0  0
   43.3293   36.0738   39.6007 C   0  0  0  0  0  0  0  0  0  0  0  0
   44.8783   39.0077   37.6655 C   0  0  0  0  0  0  0  0  0  0  0  0
   45.5040   40.1768   38.4133 C   0  0  0  0  0  0  0  0  0  0  0  0
   44.7788   41.0333   39.2016 C   0  0  0  0  0  0  0  0  0  0  0  0
   46.6693   42.2943   39.7865 C   0  0  0  0  0  0  0  0  0  0  0  0
   47.3876   41.4567   39.0061 C   0  0  0  0  0  0  0  0  0  0  0  0
   46.8478   40.4018   38.3054 C   0  0  0  0  0  0  0  0  0  0  0  0
   47.3991   43.2727   41.7615 C   0  0  0  0  0  0  0  0  0  0  0  0
   47.9815   44.3794   42.4904 C   0  0  0  0  0  0  0  0  0  0  0  0
   47.3920   45.6397   42.6529 C   0  0  0  0  0  0  0  0  0  0  0  0
   48.0878   46.5949   43.3656 C   0  0  0  0  0  0  0  0  0  0  0  0
   49.3138   46.2465   43.9100 C   0  0  0  0  0  0  0  0  0  0  0  0
   49.8693   45.0043   43.6914 C   0  0  0  0  0  0  0  0  0  0  0  0
   40.0518   35.9329   44.0688 N   0  0  0  0  0  0  0  0  0  0  0  0
   41.3895   35.9447   41.1002 N   0  0  0  0  0  0  0  0  0  0  0  0
   47.3480   43.3931   40.4815 N   0  0  0  0  0  0  0  0  0  0  0  0
   49.2001   44.0732   43.0285 N   0  0  0  0  0  0  0  0  0  0  0  0
  1 17  2  0  0  0  0
  1 16  1  0  0  0  0
  2  3  2  0  0  0  0
  2 26  1  0  0  0  0
  3  4  1  0  0  0  0
  4  5  2  0  0  0  0
  5  6  1  0  0  0  0
  6  7  1  0  0  0  0
  6 26  2  0  0  0  0
  7 27  2  0  0  0  0
  8  9  2  0  0  0  0
  8 13  1  0  0  0  0
  8 27  1  0  0  0  0
  9 10  1  0  0  0  0
 10 11  2  0  0  0  0
 11 12  1  0  0  0  0
 11 14  1  0  0  0  0
 12 13  2  0  0  0  0
 14 15  1  0  0  0  0
 15 16  2  0  0  0  0
 15 19  1  0  0  0  0
 17 18  1  0  0  0  0
 17 28  1  0  0  0  0
 18 19  2  0  0  0  0
 20 21  1  0  0  0  0
 20 28  2  0  0  0  0
 21 22  2  0  0  0  0
 21 29  1  0  0  0  0
 22 23  1  0  0  0  0
 23 24  2  0  0  0  0
 24 25  1  0  0  0  0
 25 29  2  0  0  0  0
M  END
>  <CHROM.1>
65.04692318,60.67231668,-45.90434597,70.63948248,-84.86596791,69.44391689
44.48941166,39.62096128,41.32003297,-0.14751762,-0.89341180,-1.84274852

>  <Name>
ligand

>  <RI>
0

>  <Rbt.Current_Directory>
/home/itssahil/PROJECTS/Mol_Feturizer/New_Systems/rnas/4JIY

>  <Rbt.Executable>
rbdock ($Id: //depot/dev/client3/rdock/2013.1/src/exe/rbdock.cxx#4 $)

>  <Rbt.Library>
libRbt.so (2013.1, Build901 2013/11/27)

>  <Rbt.Parameter_File>
/export/apps/rDock/src/rDock_2013.1_src/data/scripts/dock_solv.prm

>  <Rbt.Receptor>
prm/pocket_docking_8.prm

>  <SCORE>
-9.97238

>  <SCORE.INTER>
-9.08555

>  <SCORE.INTER.CONST>
1

>  <SCORE.INTER.POLAR>
0

>  <SCORE.INTER.ROT>
6

>  <SCORE.INTER.SOLV>
2.8592

>  <SCORE.INTER.VDW>
-14.6101

>  <SCORE.INTER.norm>
-0.313295

>  <SCORE.INTRA>
-0.886829

>  <SCORE.INTRA.DIHEDRAL>
-0.0246083

>  <SCORE.INTRA.DIHEDRAL.0>
7.2424

>  <SCORE.INTRA.POLAR>
0

>  <SCORE.INTRA.POLAR.0>
0

>  <SCORE.INTRA.REPUL>
0

>  <SCORE.INTRA.REPUL.0>
0

>  <SCORE.INTRA.SOLV>
-0.0201797

>  <SCORE.INTRA.SOLV.lig_0>
-3.36201

>  <SCORE.INTRA.VDW>
-0.864435

>  <SCORE.INTRA.VDW.0>
-0.910526

>  <SCORE.INTRA.norm>
-0.0305803

>  <SCORE.RESTR>
0

>  <SCORE.RESTR.CAVITY>
0

>  <SCORE.RESTR.norm>
0

>  <SCORE.SYSTEM>
0

>  <SCORE.SYSTEM.CONST>
0

>  <SCORE.SYSTEM.DIHEDRAL>
0

>  <SCORE.SYSTEM.SOLV>
0

>  <SCORE.SYSTEM.norm>
0

>  <SCORE.heavy>
29

>  <SCORE.norm>
-0.343875

>  <RMSD>
6.340

$$$$
ligand
 OpenBabel11021811503D
libRbt.so/2013.1/901 2013/11/27
 29 32  0  0  0  0  0  0  0  0999 V2000
   46.4847   43.2722   40.5823 C   0  0  0  0  0  0  0  0  0  0  0  0
   39.6502   37.1840   46.9752 C   0  0  0  0  0  0  0  0  0  0  0  0
   39.7412   35.8720   47.4589 C   0  0  0  0  0  0  0  0  0  0  0  0
   40.5663   34.9760   46.8737 C   0  0  0  0  0  0  0  0  0  0  0  0
   41.2693   35.3670   45.7422 C   0  0  0  0  0  0  0  0  0  0  0  0
   41.2049   36.6708   45.3272 C   0  0  0  0  0  0  0  0  0  0  0  0
   41.9762   37.2570   44.2332 C   0  0  0  0  0  0  0  0  0  0  0  0
   42.2433   38.9441   42.6541 C   0  0  0  0  0  0  0  0  0  0  0  0
   41.9974   38.3797   41.4180 C   0  0  0  0  0  0  0  0  0  0  0  0
   42.7083   38.8449   40.3102 C   0  0  0  0  0  0  0  0  0  0  0  0
   43.5683   39.9089   40.3920 C   0  0  0  0  0  0  0  0  0  0  0  0
   43.7890   40.4682   41.6691 C   0  0  0  0  0  0  0  0  0  0  0  0
   43.1767   39.9500   42.8047 C   0  0  0  0  0  0  0  0  0  0  0  0
   44.2309   40.5089   39.1538 C   0  0  0  0  0  0  0  0  0  0  0  0
   45.4510   41.3608   39.4755 C   0  0  0  0  0  0  0  0  0  0  0  0
   45.3941   42.4767   40.2708 C   0  0  0  0  0  0  0  0  0  0  0  0
   47.6947   42.8916   40.0668 C   0  0  0  0  0  0  0  0  0  0  0  0
   47.7550   41.7962   39.2775 C   0  0  0  0  0  0  0  0  0  0  0  0
   46.6672   41.0162   38.9559 C   0  0  0  0  0  0  0  0  0  0  0  0
   49.2237   44.5202   39.4344 C   0  0  0  0  0  0  0  0  0  0  0  0
   50.4711   45.2309   39.6198 C   0  0  0  0  0  0  0  0  0  0  0  0
   51.7421   44.6421   39.6360 C   0  0  0  0  0  0  0  0  0  0  0  0
   52.8342   45.4604   39.8405 C   0  0  0  0  0  0  0  0  0  0  0  0
   52.6187   46.8219   39.9844 C   0  0  0  0  0  0  0  0  0  0  0  0
   51.3456   47.3496   39.9979 C   0  0  0  0  0  0  0  0  0  0  0  0
   40.3801   37.5751   45.9170 N   0  0  0  0  0  0  0  0  0  0  0  0
   41.5486   38.4194   43.8218 N   0  0  0  0  0  0  0  0  0  0  0  0
   48.9176   43.6552   40.3362 N   0  0  0  0  0  0  0  0  0  0  0  0
   50.2925   46.5766   39.7798 N   0  0  0  0  0  0  0  0  0  0  0  0
  1 17  2  0  0  0  0
  1 16  1  0  0  0  0
  2  3  2  0  0  0  0
  2 26  1  0  0  0  0
  3  4  1  0  0  0  0
  4  5  2  0  0  0  0
  5  6  1  0  0  0  0
  6  7  1  0  0  0  0
  6 26  2  0  0  0  0
  7 27  2  0  0  0  0
  8  9  2  0  0  0  0
  8 13  1  0  0  0  0
  8 27  1  0  0  0  0
  9 10  1  0  0  0  0
 10 11  2  0  0  0  0
 11 12  1  0  0  0  0
 11 14  1  0  0  0  0
 12 13  2  0  0  0  0
 14 15  1  0  0  0  0
 15 16  2  0  0  0  0
 15 19  1  0  0  0  0
 17 18  1  0  0  0  0
 17 28  1  0  0  0  0
 18 19  2  0  0  0  0
 20 21  1  0  0  0  0
 20 28  2  0  0  0  0
 21 22  2  0  0  0  0
 21 29  1  0  0  0  0
 22 23  1  0  0  0  0
 23 24  2  0  0  0  0
 24 25  1  0  0  0  0
 25 29  2  0  0  0  0
M  END
>  <CHROM.1>
165.52068744,-161.82022986,-60.06790512,63.01828749,73.46715200,-95.02707529
45.33678795,40.95551557,41.79371879,0.49743028,-0.66108784,-1.43330979

>  <Name>
ligand

>  <RI>
0

>  <Rbt.Current_Directory>
/home/itssahil/PROJECTS/Mol_Feturizer/New_Systems/rnas/4JIY

>  <Rbt.Executable>
rbdock ($Id: //depot/dev/client3/rdock/2013.1/src/exe/rbdock.cxx#4 $)

>  <Rbt.Library>
libRbt.so (2013.1, Build901 2013/11/27)

>  <Rbt.Parameter_File>
/export/apps/rDock/src/rDock_2013.1_src/data/scripts/dock_solv.prm

>  <Rbt.Receptor>
prm/pocket_docking_8.prm

>  <SCORE>
-11.4238

>  <SCORE.INTER>
-11.3321

>  <SCORE.INTER.CONST>
1

>  <SCORE.INTER.POLAR>
0

>  <SCORE.INTER.ROT>
6

>  <SCORE.INTER.SOLV>
3.75556

>  <SCORE.INTER.VDW>
-16.4066

>  <SCORE.INTER.norm>
-0.390763

>  <SCORE.INTRA>
-0.0916368

>  <SCORE.INTRA.DIHEDRAL>
0.0302172

>  <SCORE.INTRA.DIHEDRAL.0>
7.2424

>  <SCORE.INTRA.POLAR>
0

>  <SCORE.INTRA.POLAR.0>
0

>  <SCORE.INTRA.REPUL>
0

>  <SCORE.INTRA.REPUL.0>
0

>  <SCORE.INTRA.SOLV>
-0.0090446

>  <SCORE.INTRA.SOLV.lig_0>
-3.36201

>  <SCORE.INTRA.VDW>
-0.102223

>  <SCORE.INTRA.VDW.0>
-0.910526

>  <SCORE.INTRA.norm>
-0.00315989

>  <SCORE.RESTR>
0

>  <SCORE.RESTR.CAVITY>
0

>  <SCORE.RESTR.norm>
0

>  <SCORE.SYSTEM>
0

>  <SCORE.SYSTEM.CONST>
0

>  <SCORE.SYSTEM.DIHEDRAL>
0

>  <SCORE.SYSTEM.SOLV>
0

>  <SCORE.SYSTEM.norm>
0

>  <SCORE.heavy>
29

>  <SCORE.norm>
-0.393923

>  <RMSD>
6.350

$$$$
ligand
 OpenBabel11021811503D
libRbt.so/2013.1/901 2013/11/27
 29 32  0  0  0  0  0  0  0  0999 V2000
   46.2159   42.3025   41.9836 C   0  0  0  0  0  0  0  0  0  0  0  0
   50.9320   49.4458   47.9109 C   0  0  0  0  0  0  0  0  0  0  0  0
   51.2783   50.7652   47.5904 C   0  0  0  0  0  0  0  0  0  0  0  0
   51.2528   51.1940   46.3091 C   0  0  0  0  0  0  0  0  0  0  0  0
   50.9415   50.2785   45.3129 C   0  0  0  0  0  0  0  0  0  0  0  0
   50.5515   49.0123   45.6607 C   0  0  0  0  0  0  0  0  0  0  0  0
   50.0813   47.9809   44.7385 C   0  0  0  0  0  0  0  0  0  0  0  0
   50.4454   46.6657   42.8547 C   0  0  0  0  0  0  0  0  0  0  0  0
   49.7460   47.1529   41.7682 C   0  0  0  0  0  0  0  0  0  0  0  0
   49.2079   46.2483   40.8512 C   0  0  0  0  0  0  0  0  0  0  0  0
   49.4353   44.8997   40.9404 C   0  0  0  0  0  0  0  0  0  0  0  0
   50.1622   44.4368   42.0585 C   0  0  0  0  0  0  0  0  0  0  0  0
   50.6131   45.3085   43.0432 C   0  0  0  0  0  0  0  0  0  0  0  0
   48.9707   43.9287   39.8571 C   0  0  0  0  0  0  0  0  0  0  0  0
   47.8016   43.0553   40.2907 C   0  0  0  0  0  0  0  0  0  0  0  0
   47.2781   43.0835   41.5580 C   0  0  0  0  0  0  0  0  0  0  0  0
   45.6533   41.4663   41.0568 C   0  0  0  0  0  0  0  0  0  0  0  0
   46.1694   41.4303   39.8083 C   0  0  0  0  0  0  0  0  0  0  0  0
   47.2354   42.1954   39.3918 C   0  0  0  0  0  0  0  0  0  0  0  0
   44.0717   40.7378   42.5924 C   0  0  0  0  0  0  0  0  0  0  0  0
   43.0118   39.8368   42.9927 C   0  0  0  0  0  0  0  0  0  0  0  0
   42.2164   39.0853   42.1182 C   0  0  0  0  0  0  0  0  0  0  0  0
   41.2340   38.2827   42.6614 C   0  0  0  0  0  0  0  0  0  0  0  0
   41.1096   38.2370   44.0410 C   0  0  0  0  0  0  0  0  0  0  0  0
   41.8921   39.0234   44.8586 C   0  0  0  0  0  0  0  0  0  0  0  0
   50.5711   48.5802   46.9487 N   0  0  0  0  0  0  0  0  0  0  0  0
   50.9552   47.6035   43.8457 N   0  0  0  0  0  0  0  0  0  0  0  0
   44.5198   40.5989   41.3944 N   0  0  0  0  0  0  0  0  0  0  0  0
   42.8528   39.7797   44.3492 N   0  0  0  0  0  0  0  0  0  0  0  0
  1 17  2  0  0  0  0
  1 16  1  0  0  0  0
  2  3  2  0  0  0  0
  2 26  1  0  0  0  0
  3  4  1  0  0  0  0
  4  5  2  0  0  0  0
  5  6  1  0  0  0  0
  6  7  1  0  0  0  0
  6 26  2  0  0  0  0
  7 27  2  0  0  0  0
  8  9  2  0  0  0  0
  8 13  1  0  0  0  0
  8 27  1  0  0  0  0
  9 10  1  0  0  0  0
 10 11  2  0  0  0  0
 11 12  1  0  0  0  0
 11 14  1  0  0  0  0
 12 13  2  0  0  0  0
 14 15  1  0  0  0  0
 15 16  2  0  0  0  0
 15 19  1  0  0  0  0
 17 18  1  0  0  0  0
 17 28  1  0  0  0  0
 18 19  2  0  0  0  0
 20 21  1  0  0  0  0
 20 28  2  0  0  0  0
 21 22  2  0  0  0  0
 21 29  1  0  0  0  0
 22 23  1  0  0  0  0
 23 24  2  0  0  0  0
 24 25  1  0  0  0  0
 25 29  2  0  0  0  0
M  END
>  <CHROM.1>
62.29721989,-108.40664361,-3.90501929,-17.23820115,82.37270013,3.10981239
47.46330100,44.22525555,43.07084154,-2.55780099,0.73067900,1.08434583

>  <Name>
ligand

>  <RI>
0

>  <Rbt.Current_Directory>
/home/itssahil/PROJECTS/Mol_Feturizer/New_Systems/rnas/4JIY

>  <Rbt.Executable>
rbdock ($Id: //depot/dev/client3/rdock/2013.1/src/exe/rbdock.cxx#4 $)

>  <Rbt.Library>
libRbt.so (2013.1, Build901 2013/11/27)

>  <Rbt.Parameter_File>
/export/apps/rDock/src/rDock_2013.1_src/data/scripts/dock_solv.prm

>  <Rbt.Receptor>
prm/pocket_docking_7.prm

>  <SCORE>
-9.29816

>  <SCORE.INTER>
-10.0386

>  <SCORE.INTER.CONST>
1

>  <SCORE.INTER.POLAR>
0

>  <SCORE.INTER.ROT>
6

>  <SCORE.INTER.SOLV>
3.0657

>  <SCORE.INTER.VDW>
-15.3143

>  <SCORE.INTER.norm>
-0.34616

>  <SCORE.INTRA>
0.740477

>  <SCORE.INTRA.DIHEDRAL>
0.551714

>  <SCORE.INTRA.DIHEDRAL.0>
7.2424

>  <SCORE.INTRA.POLAR>
0

>  <SCORE.INTRA.POLAR.0>
0

>  <SCORE.INTRA.REPUL>
0

>  <SCORE.INTRA.REPUL.0>
0

>  <SCORE.INTRA.SOLV>
-0.016477

>  <SCORE.INTRA.SOLV.lig_0>
-3.36201

>  <SCORE.INTRA.VDW>
0.472858

>  <SCORE.INTRA.VDW.0>
-0.910526

>  <SCORE.INTRA.norm>
0.0255337

>  <SCORE.RESTR>
0

>  <SCORE.RESTR.CAVITY>
0

>  <SCORE.RESTR.norm>
0

>  <SCORE.SYSTEM>
0

>  <SCORE.SYSTEM.CONST>
0

>  <SCORE.SYSTEM.DIHEDRAL>
0

>  <SCORE.SYSTEM.SOLV>
0

>  <SCORE.SYSTEM.norm>
0

>  <SCORE.heavy>
29

>  <SCORE.norm>
-0.320626

>  <RMSD>
6.366

$$$$
ligand
 OpenBabel11021811503D
libRbt.so/2013.1/901 2013/11/27
 29 32  0  0  0  0  0  0  0  0999 V2000
   46.5944   42.2052   40.9501 C   0  0  0  0  0  0  0  0  0  0  0  0
   39.1636   38.1084   48.5027 C   0  0  0  0  0  0  0  0  0  0  0  0
   37.9577   38.8034   48.6645 C   0  0  0  0  0  0  0  0  0  0  0  0
   37.4740   39.5866   47.6753 C   0  0  0  0  0  0  0  0  0  0  0  0
   38.2334   39.7391   46.5232 C   0  0  0  0  0  0  0  0  0  0  0  0
   39.3783   39.0030   46.3696 C   0  0  0  0  0  0  0  0  0  0  0  0
   40.2141   38.9651   45.1715 C   0  0  0  0  0  0  0  0  0  0  0  0
   41.4617   40.0961   43.5668 C   0  0  0  0  0  0  0  0  0  0  0  0
   42.8327   39.9326   43.5900 C   0  0  0  0  0  0  0  0  0  0  0  0
   43.5380   39.9760   42.3860 C   0  0  0  0  0  0  0  0  0  0  0  0
   42.9044   40.0760   41.1748 C   0  0  0  0  0  0  0  0  0  0  0  0
   41.5015   40.2320   41.1872 C   0  0  0  0  0  0  0  0  0  0  0  0
   40.7892   40.3030   42.3791 C   0  0  0  0  0  0  0  0  0  0  0  0
   43.6652   39.9748   39.8544 C   0  0  0  0  0  0  0  0  0  0  0  0
   44.9861   40.7318   39.8597 C   0  0  0  0  0  0  0  0  0  0  0  0
   45.3997   41.5049   40.9143 C   0  0  0  0  0  0  0  0  0  0  0  0
   47.4113   42.0902   39.8574 C   0  0  0  0  0  0  0  0  0  0  0  0
   47.0056   41.3345   38.8130 C   0  0  0  0  0  0  0  0  0  0  0  0
   45.8106   40.6522   38.7725 C   0  0  0  0  0  0  0  0  0  0  0  0
   48.6247   44.0638   39.7063 C   0  0  0  0  0  0  0  0  0  0  0  0
   49.8744   44.7767   39.5467 C   0  0  0  0  0  0  0  0  0  0  0  0
   50.9788   44.6736   40.4023 C   0  0  0  0  0  0  0  0  0  0  0  0
   52.0937   45.4354   40.1180 C   0  0  0  0  0  0  0  0  0  0  0  0
   52.0739   46.2338   38.9853 C   0  0  0  0  0  0  0  0  0  0  0  0
   50.9495   46.3297   38.1942 C   0  0  0  0  0  0  0  0  0  0  0  0
   39.8642   38.2106   47.3607 N   0  0  0  0  0  0  0  0  0  0  0  0
   40.7302   40.1130   44.8262 N   0  0  0  0  0  0  0  0  0  0  0  0
   48.7026   42.7823   39.7888 N   0  0  0  0  0  0  0  0  0  0  0  0
   49.8827   45.5858   38.4450 N   0  0  0  0  0  0  0  0  0  0  0  0
  1 17  2  0  0  0  0
  1 16  1  0  0  0  0
  2  3  2  0  0  0  0
  2 26  1  0  0  0  0
  3  4  1  0  0  0  0
  4  5  2  0  0  0  0
  5  6  1  0  0  0  0
  6  7  1  0  0  0  0
  6 26  2  0  0  0  0
  7 27  2  0  0  0  0
  8  9  2  0  0  0  0
  8 13  1  0  0  0  0
  8 27  1  0  0  0  0
  9 10  1  0  0  0  0
 10 11  2  0  0  0  0
 11 12  1  0  0  0  0
 11 14  1  0  0  0  0
 12 13  2  0  0  0  0
 14 15  1  0  0  0  0
 15 16  2  0  0  0  0
 15 19  1  0  0  0  0
 17 18  1  0  0  0  0
 17 28  1  0  0  0  0
 18 19  2  0  0  0  0
 20 21  1  0  0  0  0
 20 28  2  0  0  0  0
 21 22  2  0  0  0  0
 21 29  1  0  0  0  0
 22 23  1  0  0  0  0
 23 24  2  0  0  0  0
 24 25  1  0  0  0  0
 25 29  2  0  0  0  0
M  END
>  <CHROM.1>
60.93155451,-42.17761824,-4.43991222,-55.21494952,-95.88889043,-68.13994090
44.48795678,41.42937168,42.19004515,-0.39036734,0.59693269,1.28348093

>  <Name>
ligand

>  <RI>
0

>  <Rbt.Current_Directory>
/home/itssahil/PROJECTS/Mol_Feturizer/New_Systems/rnas/4JIY

>  <Rbt.Executable>
rbdock ($Id: //depot/dev/client3/rdock/2013.1/src/exe/rbdock.cxx#4 $)

>  <Rbt.Library>
libRbt.so (2013.1, Build901 2013/11/27)

>  <Rbt.Parameter_File>
/export/apps/rDock/src/rDock_2013.1_src/data/scripts/dock_solv.prm

>  <Rbt.Receptor>
prm/pocket_docking_8.prm

>  <SCORE>
-11.3925

>  <SCORE.INTER>
-11.1089

>  <SCORE.INTER.CONST>
1

>  <SCORE.INTER.POLAR>
0

>  <SCORE.INTER.ROT>
6

>  <SCORE.INTER.SOLV>
3.22794

>  <SCORE.INTER.VDW>
-16.0819

>  <SCORE.INTER.norm>
-0.383064

>  <SCORE.INTRA>
-0.283693

>  <SCORE.INTRA.DIHEDRAL>
-0.142175

>  <SCORE.INTRA.DIHEDRAL.0>
7.2424

>  <SCORE.INTRA.POLAR>
0

>  <SCORE.INTRA.POLAR.0>
0

>  <SCORE.INTRA.REPUL>
0

>  <SCORE.INTRA.REPUL.0>
0

>  <SCORE.INTRA.SOLV>
-0.0201319

>  <SCORE.INTRA.SOLV.lig_0>
-3.36201

>  <SCORE.INTRA.VDW>
-0.20254

>  <SCORE.INTRA.VDW.0>
-0.910526

>  <SCORE.INTRA.norm>
-0.00978252

>  <SCORE.RESTR>
0

>  <SCORE.RESTR.CAVITY>
0

>  <SCORE.RESTR.norm>
0

>  <SCORE.SYSTEM>
0

>  <SCORE.SYSTEM.CONST>
0

>  <SCORE.SYSTEM.DIHEDRAL>
0

>  <SCORE.SYSTEM.SOLV>
0

>  <SCORE.SYSTEM.norm>
0

>  <SCORE.heavy>
29

>  <SCORE.norm>
-0.392846

>  <RMSD>
6.376

$$$$
ligand
 OpenBabel11021811503D
libRbt.so/2013.1/901 2013/11/27
 29 32  0  0  0  0  0  0  0  0999 V2000
   46.9966   42.8500   42.3808 C   0  0  0  0  0  0  0  0  0  0  0  0
   38.2849   47.8642   37.3942 C   0  0  0  0  0  0  0  0  0  0  0  0
   37.0373   47.3921   36.9649 C   0  0  0  0  0  0  0  0  0  0  0  0
   36.7445   46.0737   37.0122 C   0  0  0  0  0  0  0  0  0  0  0  0
   37.7321   45.1929   37.4318 C   0  0  0  0  0  0  0  0  0  0  0  0
   38.9206   45.6878   37.8995 C   0  0  0  0  0  0  0  0  0  0  0  0
   40.0031   44.8984   38.4829 C   0  0  0  0  0  0  0  0  0  0  0  0
   41.7676   43.4087   38.2026 C   0  0  0  0  0  0  0  0  0  0  0  0
   42.9670   43.9454   38.6273 C   0  0  0  0  0  0  0  0  0  0  0  0
   43.9473   43.0901   39.1339 C   0  0  0  0  0  0  0  0  0  0  0  0
   43.7212   41.7506   39.3153 C   0  0  0  0  0  0  0  0  0  0  0  0
   42.4807   41.2371   38.8791 C   0  0  0  0  0  0  0  0  0  0  0  0
   41.5317   42.0503   38.2699 C   0  0  0  0  0  0  0  0  0  0  0  0
   44.7397   40.8456   40.0050 C   0  0  0  0  0  0  0  0  0  0  0  0
   45.3338   41.4573   41.2662 C   0  0  0  0  0  0  0  0  0  0  0  0
   46.4324   42.2781   41.2521 C   0  0  0  0  0  0  0  0  0  0  0  0
   46.3912   42.5802   43.5788 C   0  0  0  0  0  0  0  0  0  0  0  0
   45.3119   41.7670   43.5987 C   0  0  0  0  0  0  0  0  0  0  0  0
   44.7624   41.1865   42.4779 C   0  0  0  0  0  0  0  0  0  0  0  0
   48.1534   42.9444   45.0458 C   0  0  0  0  0  0  0  0  0  0  0  0
   48.6729   43.4005   46.3176 C   0  0  0  0  0  0  0  0  0  0  0  0
   48.7021   42.6448   47.4967 C   0  0  0  0  0  0  0  0  0  0  0  0
   49.2181   43.2340   48.6329 C   0  0  0  0  0  0  0  0  0  0  0  0
   49.7100   44.5263   48.5387 C   0  0  0  0  0  0  0  0  0  0  0  0
   49.6257   45.2426   47.3644 C   0  0  0  0  0  0  0  0  0  0  0  0
   39.2157   47.0134   37.8581 N   0  0  0  0  0  0  0  0  0  0  0  0
   40.7667   44.2899   37.6169 N   0  0  0  0  0  0  0  0  0  0  0  0
   46.8985   43.1371   44.8372 N   0  0  0  0  0  0  0  0  0  0  0  0
   49.1533   44.6791   46.2627 N   0  0  0  0  0  0  0  0  0  0  0  0
  1 17  2  0  0  0  0
  1 16  1  0  0  0  0
  2  3  2  0  0  0  0
  2 26  1  0  0  0  0
  3  4  1  0  0  0  0
  4  5  2  0  0  0  0
  5  6  1  0  0  0  0
  6  7  1  0  0  0  0
  6 26  2  0  0  0  0
  7 27  2  0  0  0  0
  8  9  2  0  0  0  0
  8 13  1  0  0  0  0
  8 27  1  0  0  0  0
  9 10  1  0  0  0  0
 10 11  2  0  0  0  0
 11 12  1  0  0  0  0
 11 14  1  0  0  0  0
 12 13  2  0  0  0  0
 14 15  1  0  0  0  0
 15 16  2  0  0  0  0
 15 19  1  0  0  0  0
 17 18  1  0  0  0  0
 17 28  1  0  0  0  0
 18 19  2  0  0  0  0
 20 21  1  0  0  0  0
 20 28  2  0  0  0  0
 21 22  2  0  0  0  0
 21 29  1  0  0  0  0
 22 23  1  0  0  0  0
 23 24  2  0  0  0  0
 24 25  1  0  0  0  0
 25 29  2  0  0  0  0
M  END
>  <CHROM.1>
79.61171739,44.36190743,-86.95862706,88.48044830,-84.24918164,-51.71709538
43.97884985,43.68813965,41.45109825,-0.27974267,0.71761568,-2.50300788

>  <Name>
ligand

>  <RI>
0

>  <Rbt.Current_Directory>
/home/itssahil/PROJECTS/Mol_Feturizer/New_Systems/rnas/4JIY

>  <Rbt.Executable>
rbdock ($Id: //depot/dev/client3/rdock/2013.1/src/exe/rbdock.cxx#4 $)

>  <Rbt.Library>
libRbt.so (2013.1, Build901 2013/11/27)

>  <Rbt.Parameter_File>
/export/apps/rDock/src/rDock_2013.1_src/data/scripts/dock_solv.prm

>  <Rbt.Receptor>
prm/pocket_docking_6.prm

>  <SCORE>
-6.25732

>  <SCORE.INTER>
-5.59065

>  <SCORE.INTER.CONST>
1

>  <SCORE.INTER.POLAR>
0

>  <SCORE.INTER.ROT>
6

>  <SCORE.INTER.SOLV>
2.30606

>  <SCORE.INTER.VDW>
-12.0958

>  <SCORE.INTER.norm>
-0.192781

>  <SCORE.INTRA>
-0.666669

>  <SCORE.INTRA.DIHEDRAL>
0.392474

>  <SCORE.INTRA.DIHEDRAL.0>
7.2424

>  <SCORE.INTRA.POLAR>
0

>  <SCORE.INTRA.POLAR.0>
0

>  <SCORE.INTRA.REPUL>
0

>  <SCORE.INTRA.REPUL.0>
0

>  <SCORE.INTRA.SOLV>
-0.0186564

>  <SCORE.INTRA.SOLV.lig_0>
-3.36201

>  <SCORE.INTRA.VDW>
-0.853578

>  <SCORE.INTRA.VDW.0>
-0.910526

>  <SCORE.INTRA.norm>
-0.0229886

>  <SCORE.RESTR>
0

>  <SCORE.RESTR.CAVITY>
0

>  <SCORE.RESTR.norm>
0

>  <SCORE.SYSTEM>
0

>  <SCORE.SYSTEM.CONST>
0

>  <SCORE.SYSTEM.DIHEDRAL>
0

>  <SCORE.SYSTEM.SOLV>
0

>  <SCORE.SYSTEM.norm>
0

>  <SCORE.heavy>
29

>  <SCORE.norm>
-0.21577

>  <RMSD>
6.417

$$$$
ligand
 OpenBabel11021811503D
libRbt.so/2013.1/901 2013/11/27
 29 32  0  0  0  0  0  0  0  0999 V2000
   41.6946   37.4209   41.5908 C   0  0  0  0  0  0  0  0  0  0  0  0
   51.2547   44.8491   41.7753 C   0  0  0  0  0  0  0  0  0  0  0  0
   51.7821   45.6680   40.7679 C   0  0  0  0  0  0  0  0  0  0  0  0
   51.1552   45.7880   39.5768 C   0  0  0  0  0  0  0  0  0  0  0  0
   50.0149   45.0288   39.3518 C   0  0  0  0  0  0  0  0  0  0  0  0
   49.4909   44.2825   40.3739 C   0  0  0  0  0  0  0  0  0  0  0  0
   48.2385   43.5311   40.3265 C   0  0  0  0  0  0  0  0  0  0  0  0
   46.9334   41.8793   39.3368 C   0  0  0  0  0  0  0  0  0  0  0  0
   46.8565   40.7113   38.6041 C   0  0  0  0  0  0  0  0  0  0  0  0
   45.6114   40.1043   38.4305 C   0  0  0  0  0  0  0  0  0  0  0  0
   44.4805   40.5747   39.0455 C   0  0  0  0  0  0  0  0  0  0  0  0
   44.5968   41.7653   39.7948 C   0  0  0  0  0  0  0  0  0  0  0  0
   45.8041   42.4483   39.8904 C   0  0  0  0  0  0  0  0  0  0  0  0
   43.1512   39.8262   38.9739 C   0  0  0  0  0  0  0  0  0  0  0  0
   42.7318   39.2131   40.3028 C   0  0  0  0  0  0  0  0  0  0  0  0
   42.0890   38.0054   40.3983 C   0  0  0  0  0  0  0  0  0  0  0  0
   41.9920   38.1016   42.7409 C   0  0  0  0  0  0  0  0  0  0  0  0
   42.6200   39.2950   42.6518 C   0  0  0  0  0  0  0  0  0  0  0  0
   42.9967   39.8820   41.4649 C   0  0  0  0  0  0  0  0  0  0  0  0
   40.4027   37.7699   44.4005 C   0  0  0  0  0  0  0  0  0  0  0  0
   40.0275   37.3437   45.7321 C   0  0  0  0  0  0  0  0  0  0  0  0
   40.1039   36.0298   46.2117 C   0  0  0  0  0  0  0  0  0  0  0  0
   39.6910   35.7860   47.5056 C   0  0  0  0  0  0  0  0  0  0  0  0
   39.2561   36.8567   48.2706 C   0  0  0  0  0  0  0  0  0  0  0  0
   39.1643   38.1262   47.7419 C   0  0  0  0  0  0  0  0  0  0  0  0
   50.1162   44.1643   41.5743 N   0  0  0  0  0  0  0  0  0  0  0  0
   48.2206   42.5481   39.4681 N   0  0  0  0  0  0  0  0  0  0  0  0
   41.6280   37.5744   44.0603 N   0  0  0  0  0  0  0  0  0  0  0  0
   39.5794   38.3752   46.5090 N   0  0  0  0  0  0  0  0  0  0  0  0
  1 17  2  0  0  0  0
  1 16  1  0  0  0  0
  2  3  2  0  0  0  0
  2 26  1  0  0  0  0
  3  4  1  0  0  0  0
  4  5  2  0  0  0  0
  5  6  1  0  0  0  0
  6  7  1  0  0  0  0
  6 26  2  0  0  0  0
  7 27  2  0  0  0  0
  8  9  2  0  0  0  0
  8 13  1  0  0  0  0
  8 27  1  0  0  0  0
  9 10  1  0  0  0  0
 10 11  2  0  0  0  0
 11 12  1  0  0  0  0
 11 14  1  0  0  0  0
 12 13  2  0  0  0  0
 14 15  1  0  0  0  0
 15 16  2  0  0  0  0
 15 19  1  0  0  0  0
 17 18  1  0  0  0  0
 17 28  1  0  0  0  0
 18 19  2  0  0  0  0
 20 21  1  0  0  0  0
 20 28  2  0  0  0  0
 21 22  2  0  0  0  0
 21 29  1  0  0  0  0
 22 23  1  0  0  0  0
 23 24  2  0  0  0  0
 24 25  1  0  0  0  0
 25 29  2  0  0  0  0
M  END
>  <CHROM.1>
64.20607401,110.36235265,-143.68875347,-60.42965172,-170.75357195,-80.42901610
44.53947218,40.44904544,41.96751253,2.73721241,0.65681834,1.49042556

>  <Name>
ligand

>  <RI>
0

>  <Rbt.Current_Directory>
/home/itssahil/PROJECTS/Mol_Feturizer/New_Systems/rnas/4JIY

>  <Rbt.Executable>
rbdock ($Id: //depot/dev/client3/rdock/2013.1/src/exe/rbdock.cxx#4 $)

>  <Rbt.Library>
libRbt.so (2013.1, Build901 2013/11/27)

>  <Rbt.Parameter_File>
/export/apps/rDock/src/rDock_2013.1_src/data/scripts/dock_solv.prm

>  <Rbt.Receptor>
prm/pocket_docking_8.prm

>  <SCORE>
-11.9028

>  <SCORE.INTER>
-12.4604

>  <SCORE.INTER.CONST>
1

>  <SCORE.INTER.POLAR>
0

>  <SCORE.INTER.ROT>
6

>  <SCORE.INTER.SOLV>
3.77963

>  <SCORE.INTER.VDW>
-17.1668

>  <SCORE.INTER.norm>
-0.429669

>  <SCORE.INTRA>
0.557557

>  <SCORE.INTRA.DIHEDRAL>
0.005917

>  <SCORE.INTRA.DIHEDRAL.0>
7.2424

>  <SCORE.INTRA.POLAR>
0

>  <SCORE.INTRA.POLAR.0>
0

>  <SCORE.INTRA.REPUL>
0

>  <SCORE.INTRA.REPUL.0>
0

>  <SCORE.INTRA.SOLV>
-0.0163982

>  <SCORE.INTRA.SOLV.lig_0>
-3.36201

>  <SCORE.INTRA.VDW>
0.562798

>  <SCORE.INTRA.VDW.0>
-0.910526

>  <SCORE.INTRA.norm>
0.0192261

>  <SCORE.RESTR>
0

>  <SCORE.RESTR.CAVITY>
0

>  <SCORE.RESTR.norm>
0

>  <SCORE.SYSTEM>
0

>  <SCORE.SYSTEM.CONST>
0

>  <SCORE.SYSTEM.DIHEDRAL>
0

>  <SCORE.SYSTEM.SOLV>
0

>  <SCORE.SYSTEM.norm>
0

>  <SCORE.heavy>
29

>  <SCORE.norm>
-0.410443

>  <RMSD>
6.422

$$$$
ligand
 OpenBabel11021811503D
libRbt.so/2013.1/901 2013/11/27
 29 32  0  0  0  0  0  0  0  0999 V2000
   42.9203   39.4095   41.7987 C   0  0  0  0  0  0  0  0  0  0  0  0
   50.7875   49.4087   38.7332 C   0  0  0  0  0  0  0  0  0  0  0  0
   52.1143   49.2992   39.1705 C   0  0  0  0  0  0  0  0  0  0  0  0
   52.6141   48.1084   39.5686 C   0  0  0  0  0  0  0  0  0  0  0  0
   51.7630   47.0120   39.5980 C   0  0  0  0  0  0  0  0  0  0  0  0
   50.4889   47.1361   39.1106 C   0  0  0  0  0  0  0  0  0  0  0  0
   49.5216   46.0504   38.9651 C   0  0  0  0  0  0  0  0  0  0  0  0
   48.1208   44.4748   39.9480 C   0  0  0  0  0  0  0  0  0  0  0  0
   46.7527   44.6523   40.0097 C   0  0  0  0  0  0  0  0  0  0  0  0
   45.9230   43.5317   39.9395 C   0  0  0  0  0  0  0  0  0  0  0  0
   46.4169   42.2737   39.7120 C   0  0  0  0  0  0  0  0  0  0  0  0
   47.8196   42.1297   39.6446 C   0  0  0  0  0  0  0  0  0  0  0  0
   48.6704   43.2148   39.8224 C   0  0  0  0  0  0  0  0  0  0  0  0
   45.4991   41.0737   39.4888 C   0  0  0  0  0  0  0  0  0  0  0  0
   44.6927   40.6931   40.7227 C   0  0  0  0  0  0  0  0  0  0  0  0
   43.6722   39.7773   40.6948 C   0  0  0  0  0  0  0  0  0  0  0  0
   43.2453   39.9975   42.9917 C   0  0  0  0  0  0  0  0  0  0  0  0
   44.2461   40.9051   43.0233 C   0  0  0  0  0  0  0  0  0  0  0  0
   44.9816   41.2813   41.9221 C   0  0  0  0  0  0  0  0  0  0  0  0
   41.4008   40.2952   44.3698 C   0  0  0  0  0  0  0  0  0  0  0  0
   40.6989   40.0755   45.6166 C   0  0  0  0  0  0  0  0  0  0  0  0
   40.3482   38.8230   46.1368 C   0  0  0  0  0  0  0  0  0  0  0  0
   39.6640   38.7860   47.3347 C   0  0  0  0  0  0  0  0  0  0  0  0
   39.3913   39.9850   47.9742 C   0  0  0  0  0  0  0  0  0  0  0  0
   39.7247   41.1946   47.4041 C   0  0  0  0  0  0  0  0  0  0  0  0
   49.9854   48.3310   38.7048 N   0  0  0  0  0  0  0  0  0  0  0  0
   48.9910   45.6349   40.0828 N   0  0  0  0  0  0  0  0  0  0  0  0
   42.5209   39.6787   44.2265 N   0  0  0  0  0  0  0  0  0  0  0  0
   40.4013   41.2406   46.2664 N   0  0  0  0  0  0  0  0  0  0  0  0
  1 17  2  0  0  0  0
  1 16  1  0  0  0  0
  2  3  2  0  0  0  0
  2 26  1  0  0  0  0
  3  4  1  0  0  0  0
  4  5  2  0  0  0  0
  5  6  1  0  0  0  0
  6  7  1  0  0  0  0
  6 26  2  0  0  0  0
  7 27  2  0  0  0  0
  8  9  2  0  0  0  0
  8 13  1  0  0  0  0
  8 27  1  0  0  0  0
  9 10  1  0  0  0  0
 10 11  2  0  0  0  0
 11 12  1  0  0  0  0
 11 14  1  0  0  0  0
 12 13  2  0  0  0  0
 14 15  1  0  0  0  0
 15 16  2  0  0  0  0
 15 19  1  0  0  0  0
 17 18  1  0  0  0  0
 17 28  1  0  0  0  0
 18 19  2  0  0  0  0
 20 21  1  0  0  0  0
 20 28  2  0  0  0  0
 21 22  2  0  0  0  0
 21 29  1  0  0  0  0
 22 23  1  0  0  0  0
 23 24  2  0  0  0  0
 24 25  1  0  0  0  0
 25 29  2  0  0  0  0
M  END
>  <CHROM.1>
74.18135797,-66.91292174,170.31675871,-54.36905356,-104.39710595,-80.82907839
45.62844182,42.92196802,41.82388624,-3.05292175,0.78565902,0.72782260

>  <Name>
ligand

>  <RI>
0

>  <Rbt.Current_Directory>
/home/itssahil/PROJECTS/Mol_Feturizer/New_Systems/rnas/4JIY

>  <Rbt.Executable>
rbdock ($Id: //depot/dev/client3/rdock/2013.1/src/exe/rbdock.cxx#4 $)

>  <Rbt.Library>
libRbt.so (2013.1, Build901 2013/11/27)

>  <Rbt.Parameter_File>
/export/apps/rDock/src/rDock_2013.1_src/data/scripts/dock_solv.prm

>  <Rbt.Receptor>
prm/pocket_docking_7.prm

>  <SCORE>
-10.6286

>  <SCORE.INTER>
-10.0332

>  <SCORE.INTER.CONST>
1

>  <SCORE.INTER.POLAR>
0

>  <SCORE.INTER.ROT>
6

>  <SCORE.INTER.SOLV>
2.70128

>  <SCORE.INTER.VDW>
-15.1892

>  <SCORE.INTER.norm>
-0.345972

>  <SCORE.INTRA>
-0.595442

>  <SCORE.INTRA.DIHEDRAL>
0.102841

>  <SCORE.INTRA.DIHEDRAL.0>
7.2424

>  <SCORE.INTRA.POLAR>
0

>  <SCORE.INTRA.POLAR.0>
0

>  <SCORE.INTRA.REPUL>
0

>  <SCORE.INTRA.REPUL.0>
0

>  <SCORE.INTRA.SOLV>
-0.0197568

>  <SCORE.INTRA.SOLV.lig_0>
-3.36201

>  <SCORE.INTRA.VDW>
-0.636984

>  <SCORE.INTRA.VDW.0>
-0.910526

>  <SCORE.INTRA.norm>
-0.0205325

>  <SCORE.RESTR>
0

>  <SCORE.RESTR.CAVITY>
0

>  <SCORE.RESTR.norm>
0

>  <SCORE.SYSTEM>
0

>  <SCORE.SYSTEM.CONST>
0

>  <SCORE.SYSTEM.DIHEDRAL>
0

>  <SCORE.SYSTEM.SOLV>
0

>  <SCORE.SYSTEM.norm>
0

>  <SCORE.heavy>
29

>  <SCORE.norm>
-0.366504

>  <RMSD>
6.443

$$$$
ligand
 OpenBabel11021811503D
libRbt.so/2013.1/901 2013/11/27
 29 32  0  0  0  0  0  0  0  0999 V2000
   45.1374   41.9276   40.1789 C   0  0  0  0  0  0  0  0  0  0  0  0
   52.4946   47.6390   48.2982 C   0  0  0  0  0  0  0  0  0  0  0  0
   53.8924   47.5514   48.3424 C   0  0  0  0  0  0  0  0  0  0  0  0
   54.5706   46.8539   47.4046 C   0  0  0  0  0  0  0  0  0  0  0  0
   53.8456   46.1712   46.4372 C   0  0  0  0  0  0  0  0  0  0  0  0
   52.4852   46.3222   46.3845 C   0  0  0  0  0  0  0  0  0  0  0  0
   51.6044   45.7678   45.3588 C   0  0  0  0  0  0  0  0  0  0  0  0
   50.8721   45.7446   43.1510 C   0  0  0  0  0  0  0  0  0  0  0  0
   49.6131   46.3110   43.1163 C   0  0  0  0  0  0  0  0  0  0  0  0
   48.6804   45.8268   42.1973 C   0  0  0  0  0  0  0  0  0  0  0  0
   49.0043   44.8775   41.2633 C   0  0  0  0  0  0  0  0  0  0  0  0
   50.3028   44.3269   41.3212 C   0  0  0  0  0  0  0  0  0  0  0  0
   51.2131   44.7140   42.2982 C   0  0  0  0  0  0  0  0  0  0  0  0
   48.0282   44.4572   40.1667 C   0  0  0  0  0  0  0  0  0  0  0  0
   47.0291   43.4018   40.6204 C   0  0  0  0  0  0  0  0  0  0  0  0
   46.0603   42.8876   39.7970 C   0  0  0  0  0  0  0  0  0  0  0  0
   45.2267   41.4605   41.4628 C   0  0  0  0  0  0  0  0  0  0  0  0
   46.1757   41.9684   42.2800 C   0  0  0  0  0  0  0  0  0  0  0  0
   47.0817   42.9342   41.9036 C   0  0  0  0  0  0  0  0  0  0  0  0
   43.6860   40.7626   43.0533 C   0  0  0  0  0  0  0  0  0  0  0  0
   42.8361   39.7468   43.6375 C   0  0  0  0  0  0  0  0  0  0  0  0
   42.4949   39.6603   44.9933 C   0  0  0  0  0  0  0  0  0  0  0  0
   41.6840   38.6179   45.3934 C   0  0  0  0  0  0  0  0  0  0  0  0
   41.2240   37.7344   44.4297 C   0  0  0  0  0  0  0  0  0  0  0  0
   41.6174   37.8398   43.1131 C   0  0  0  0  0  0  0  0  0  0  0  0
   51.8013   47.0273   47.3232 N   0  0  0  0  0  0  0  0  0  0  0  0
   51.8273   46.2051   44.1495 N   0  0  0  0  0  0  0  0  0  0  0  0
   44.3060   40.4392   41.9733 N   0  0  0  0  0  0  0  0  0  0  0  0
   42.3766   38.8492   42.7145 N   0  0  0  0  0  0  0  0  0  0  0  0
  1 17  2  0  0  0  0
  1 16  1  0  0  0  0
  2  3  2  0  0  0  0
  2 26  1  0  0  0  0
  3  4  1  0  0  0  0
  4  5  2  0  0  0  0
  5  6  1  0  0  0  0
  6  7  1  0  0  0  0
  6 26  2  0  0  0  0
  7 27  2  0  0  0  0
  8  9  2  0  0  0  0
  8 13  1  0  0  0  0
  8 27  1  0  0  0  0
  9 10  1  0  0  0  0
 10 11  2  0  0  0  0
 11 12  1  0  0  0  0
 11 14  1  0  0  0  0
 12 13  2  0  0  0  0
 14 15  1  0  0  0  0
 15 16  2  0  0  0  0
 15 19  1  0  0  0  0
 17 18  1  0  0  0  0
 17 28  1  0  0  0  0
 18 19  2  0  0  0  0
 20 21  1  0  0  0  0
 20 28  2  0  0  0  0
 21 22  2  0  0  0  0
 21 29  1  0  0  0  0
 22 23  1  0  0  0  0
 23 24  2  0  0  0  0
 24 25  1  0  0  0  0
 25 29  2  0  0  0  0
M  END
>  <CHROM.1>
-62.29145084,-83.54189744,179.70817295,154.01900927,75.60005039,-125.61305188
47.82787042,43.38005244,43.53937246,-2.98060628,0.65458700,1.70971586

>  <Name>
ligand

>  <RI>
0

>  <Rbt.Current_Directory>
/home/itssahil/PROJECTS/Mol_Feturizer/New_Systems/rnas/4JIY

>  <Rbt.Executable>
rbdock ($Id: //depot/dev/client3/rdock/2013.1/src/exe/rbdock.cxx#4 $)

>  <Rbt.Library>
libRbt.so (2013.1, Build901 2013/11/27)

>  <Rbt.Parameter_File>
/export/apps/rDock/src/rDock_2013.1_src/data/scripts/dock_solv.prm

>  <Rbt.Receptor>
prm/pocket_docking_6.prm

>  <SCORE>
-6.81698

>  <SCORE.INTER>
-7.00245

>  <SCORE.INTER.CONST>
1

>  <SCORE.INTER.POLAR>
0

>  <SCORE.INTER.ROT>
6

>  <SCORE.INTER.SOLV>
2.8374

>  <SCORE.INTER.VDW>
-13.2141

>  <SCORE.INTER.norm>
-0.241464

>  <SCORE.INTRA>
0.182757

>  <SCORE.INTRA.DIHEDRAL>
0.376288

>  <SCORE.INTRA.DIHEDRAL.0>
7.2424

>  <SCORE.INTRA.POLAR>
0

>  <SCORE.INTRA.POLAR.0>
0

>  <SCORE.INTRA.REPUL>
0

>  <SCORE.INTRA.REPUL.0>
0

>  <SCORE.INTRA.SOLV>
-0.0114177

>  <SCORE.INTRA.SOLV.lig_0>
-3.36201

>  <SCORE.INTRA.VDW>
0.000321548

>  <SCORE.INTRA.VDW.0>
-0.910526

>  <SCORE.INTRA.norm>
0.00630195

>  <SCORE.RESTR>
0.00271366

>  <SCORE.RESTR.CAVITY>
0.00271366

>  <SCORE.RESTR.norm>
9.35745e-05

>  <SCORE.SYSTEM>
0

>  <SCORE.SYSTEM.CONST>
0

>  <SCORE.SYSTEM.DIHEDRAL>
0

>  <SCORE.SYSTEM.SOLV>
0

>  <SCORE.SYSTEM.norm>
0

>  <SCORE.heavy>
29

>  <SCORE.norm>
-0.235068

>  <RMSD>
6.458

$$$$
ligand
 OpenBabel11021811503D
libRbt.so/2013.1/901 2013/11/27
 29 32  0  0  0  0  0  0  0  0999 V2000
   44.0793   44.6267   39.0193 C   0  0  0  0  0  0  0  0  0  0  0  0
   48.8097   47.4220   48.6142 C   0  0  0  0  0  0  0  0  0  0  0  0
   48.9255   46.7796   49.8542 C   0  0  0  0  0  0  0  0  0  0  0  0
   48.4557   45.5245   50.0281 C   0  0  0  0  0  0  0  0  0  0  0  0
   47.7963   44.9141   48.9699 C   0  0  0  0  0  0  0  0  0  0  0  0
   47.7493   45.5427   47.7538 C   0  0  0  0  0  0  0  0  0  0  0  0
   47.1998   44.9790   46.5227 C   0  0  0  0  0  0  0  0  0  0  0  0
   47.3292   43.4118   44.8086 C   0  0  0  0  0  0  0  0  0  0  0  0
   47.9520   43.8507   43.6569 C   0  0  0  0  0  0  0  0  0  0  0  0
   47.4612   43.4264   42.4207 C   0  0  0  0  0  0  0  0  0  0  0  0
   46.4459   42.5118   42.3159 C   0  0  0  0  0  0  0  0  0  0  0  0
   45.8383   42.0768   43.5135 C   0  0  0  0  0  0  0  0  0  0  0  0
   46.2367   42.5700   44.7509 C   0  0  0  0  0  0  0  0  0  0  0  0
   46.0107   41.9388   40.9689 C   0  0  0  0  0  0  0  0  0  0  0  0
   44.8811   42.7234   40.3162 C   0  0  0  0  0  0  0  0  0  0  0  0
   45.0846   43.8899   39.6241 C   0  0  0  0  0  0  0  0  0  0  0  0
   42.8067   44.1307   39.1146 C   0  0  0  0  0  0  0  0  0  0  0  0
   42.6000   42.9848   39.8006 C   0  0  0  0  0  0  0  0  0  0  0  0
   43.5982   42.2625   40.4149 C   0  0  0  0  0  0  0  0  0  0  0  0
   41.1235   45.7241   39.2490 C   0  0  0  0  0  0  0  0  0  0  0  0
   39.9398   46.3680   38.7203 C   0  0  0  0  0  0  0  0  0  0  0  0
   39.6865   46.6050   37.3631 C   0  0  0  0  0  0  0  0  0  0  0  0
   38.5129   47.2469   37.0241 C   0  0  0  0  0  0  0  0  0  0  0  0
   37.6342   47.5913   38.0390 C   0  0  0  0  0  0  0  0  0  0  0  0
   37.9448   47.3698   39.3633 C   0  0  0  0  0  0  0  0  0  0  0  0
   48.2255   46.8025   47.5747 N   0  0  0  0  0  0  0  0  0  0  0  0
   47.7998   43.9009   46.0973 N   0  0  0  0  0  0  0  0  0  0  0  0
   41.6659   44.8238   38.5070 N   0  0  0  0  0  0  0  0  0  0  0  0
   39.0576   46.7343   39.6981 N   0  0  0  0  0  0  0  0  0  0  0  0
  1 17  2  0  0  0  0
  1 16  1  0  0  0  0
  2  3  2  0  0  0  0
  2 26  1  0  0  0  0
  3  4  1  0  0  0  0
  4  5  2  0  0  0  0
  5  6  1  0  0  0  0
  6  7  1  0  0  0  0
  6 26  2  0  0  0  0
  7 27  2  0  0  0  0
  8  9  2  0  0  0  0
  8 13  1  0  0  0  0
  8 27  1  0  0  0  0
  9 10  1  0  0  0  0
 10 11  2  0  0  0  0
 11 12  1  0  0  0  0
 11 14  1  0  0  0  0
 12 13  2  0  0  0  0
 14 15  1  0  0  0  0
 15 16  2  0  0  0  0
 15 19  1  0  0  0  0
 17 18  1  0  0  0  0
 17 28  1  0  0  0  0
 18 19  2  0  0  0  0
 20 21  1  0  0  0  0
 20 28  2  0  0  0  0
 21 22  2  0  0  0  0
 21 29  1  0  0  0  0
 22 23  1  0  0  0  0
 23 24  2  0  0  0  0
 24 25  1  0  0  0  0
 25 29  2  0  0  0  0
M  END
>  <CHROM.1>
-61.54775174,-92.12822907,80.12032130,-31.85290055,91.01360583,-86.96417412
44.51132462,44.78846810,42.55745156,-2.56844062,-0.66450741,0.89280799

>  <Name>
ligand

>  <RI>
0

>  <Rbt.Current_Directory>
/home/itssahil/PROJECTS/Mol_Feturizer/New_Systems/rnas/4JIY

>  <Rbt.Executable>
rbdock ($Id: //depot/dev/client3/rdock/2013.1/src/exe/rbdock.cxx#4 $)

>  <Rbt.Library>
libRbt.so (2013.1, Build901 2013/11/27)

>  <Rbt.Parameter_File>
/export/apps/rDock/src/rDock_2013.1_src/data/scripts/dock_solv.prm

>  <Rbt.Receptor>
prm/pocket_docking_5.prm

>  <SCORE>
-1.46022

>  <SCORE.INTER>
-0.641984

>  <SCORE.INTER.CONST>
1

>  <SCORE.INTER.POLAR>
0

>  <SCORE.INTER.ROT>
6

>  <SCORE.INTER.SOLV>
1.1296

>  <SCORE.INTER.VDW>
-8.40452

>  <SCORE.INTER.norm>
-0.0221374

>  <SCORE.INTRA>
-0.818232

>  <SCORE.INTRA.DIHEDRAL>
0.436675

>  <SCORE.INTRA.DIHEDRAL.0>
7.2424

>  <SCORE.INTRA.POLAR>
0

>  <SCORE.INTRA.POLAR.0>
0

>  <SCORE.INTRA.REPUL>
0

>  <SCORE.INTRA.REPUL.0>
0

>  <SCORE.INTRA.SOLV>
-0.0192289

>  <SCORE.INTRA.SOLV.lig_0>
-3.36201

>  <SCORE.INTRA.VDW>
-1.02696

>  <SCORE.INTRA.VDW.0>
-0.910526

>  <SCORE.INTRA.norm>
-0.0282149

>  <SCORE.RESTR>
0

>  <SCORE.RESTR.CAVITY>
0

>  <SCORE.RESTR.norm>
0

>  <SCORE.SYSTEM>
0

>  <SCORE.SYSTEM.CONST>
0

>  <SCORE.SYSTEM.DIHEDRAL>
0

>  <SCORE.SYSTEM.SOLV>
0

>  <SCORE.SYSTEM.norm>
0

>  <SCORE.heavy>
29

>  <SCORE.norm>
-0.0503523

>  <RMSD>
6.459

$$$$
ligand
 OpenBabel11021811503D
libRbt.so/2013.1/901 2013/11/27
 29 32  0  0  0  0  0  0  0  0999 V2000
   42.9169   39.4313   41.7973 C   0  0  0  0  0  0  0  0  0  0  0  0
   50.7932   49.4206   38.8264 C   0  0  0  0  0  0  0  0  0  0  0  0
   52.1469   49.2797   39.1601 C   0  0  0  0  0  0  0  0  0  0  0  0
   52.6634   48.0654   39.4514 C   0  0  0  0  0  0  0  0  0  0  0  0
   51.8070   46.9731   39.4781 C   0  0  0  0  0  0  0  0  0  0  0  0
   50.5025   47.1312   39.0915 C   0  0  0  0  0  0  0  0  0  0  0  0
   49.5179   46.0604   38.9531 C   0  0  0  0  0  0  0  0  0  0  0  0
   48.1636   44.4485   39.9425 C   0  0  0  0  0  0  0  0  0  0  0  0
   46.7985   44.6460   40.0096 C   0  0  0  0  0  0  0  0  0  0  0  0
   45.9520   43.5383   39.9370 C   0  0  0  0  0  0  0  0  0  0  0  0
   46.4264   42.2741   39.7021 C   0  0  0  0  0  0  0  0  0  0  0  0
   47.8265   42.1096   39.6292 C   0  0  0  0  0  0  0  0  0  0  0  0
   48.6940   43.1810   39.8092 C   0  0  0  0  0  0  0  0  0  0  0  0
   45.4900   41.0890   39.4764 C   0  0  0  0  0  0  0  0  0  0  0  0
   44.6910   40.7070   40.7146 C   0  0  0  0  0  0  0  0  0  0  0  0
   43.6626   39.8000   40.6895 C   0  0  0  0  0  0  0  0  0  0  0  0
   43.2571   40.0087   42.9913 C   0  0  0  0  0  0  0  0  0  0  0  0
   44.2657   40.9076   43.0203 C   0  0  0  0  0  0  0  0  0  0  0  0
   44.9950   41.2849   41.9153 C   0  0  0  0  0  0  0  0  0  0  0  0
   41.4500   40.3467   44.4092 C   0  0  0  0  0  0  0  0  0  0  0  0
   40.7604   40.1235   45.6622 C   0  0  0  0  0  0  0  0  0  0  0  0
   40.3125   38.8807   46.1282 C   0  0  0  0  0  0  0  0  0  0  0  0
   39.6555   38.8404   47.3410 C   0  0  0  0  0  0  0  0  0  0  0  0
   39.5045   40.0232   48.0474 C   0  0  0  0  0  0  0  0  0  0  0  0
   39.9301   41.2276   47.5301 C   0  0  0  0  0  0  0  0  0  0  0  0
   49.9818   48.3502   38.7931 N   0  0  0  0  0  0  0  0  0  0  0  0
   49.0514   45.5949   40.0796 N   0  0  0  0  0  0  0  0  0  0  0  0
   42.5405   39.6878   44.2302 N   0  0  0  0  0  0  0  0  0  0  0  0
   40.5818   41.2744   46.3779 N   0  0  0  0  0  0  0  0  0  0  0  0
  1 17  2  0  0  0  0
  1 16  1  0  0  0  0
  2  3  2  0  0  0  0
  2 26  1  0  0  0  0
  3  4  1  0  0  0  0
  4  5  2  0  0  0  0
  5  6  1  0  0  0  0
  6  7  1  0  0  0  0
  6 26  2  0  0  0  0
  7 27  2  0  0  0  0
  8  9  2  0  0  0  0
  8 13  1  0  0  0  0
  8 27  1  0  0  0  0
  9 10  1  0  0  0  0
 10 11  2  0  0  0  0
 11 12  1  0  0  0  0
 11 14  1  0  0  0  0
 12 13  2  0  0  0  0
 14 15  1  0  0  0  0
 15 16  2  0  0  0  0
 15 19  1  0  0  0  0
 17 18  1  0  0  0  0
 17 28  1  0  0  0  0
 18 19  2  0  0  0  0
 20 21  1  0  0  0  0
 20 28  2  0  0  0  0
 21 22  2  0  0  0  0
 21 29  1  0  0  0  0
 22 23  1  0  0  0  0
 23 24  2  0  0  0  0
 24 25  1  0  0  0  0
 25 29  2  0  0  0  0
M  END
>  <CHROM.1>
75.06632811,-67.40882165,170.68293542,-57.39807588,-100.27254395,-83.12009866
45.66199598,42.93008436,41.83209893,-3.07163503,0.78874961,0.74730857

>  <Name>
ligand

>  <RI>
0

>  <Rbt.Current_Directory>
/home/itssahil/PROJECTS/Mol_Feturizer/New_Systems/rnas/4JIY

>  <Rbt.Executable>
rbdock ($Id: //depot/dev/client3/rdock/2013.1/src/exe/rbdock.cxx#4 $)

>  <Rbt.Library>
libRbt.so (2013.1, Build901 2013/11/27)

>  <Rbt.Parameter_File>
/export/apps/rDock/src/rDock_2013.1_src/data/scripts/dock_solv.prm

>  <Rbt.Receptor>
prm/pocket_docking_7.prm

>  <SCORE>
-10.6488

>  <SCORE.INTER>
-10.0175

>  <SCORE.INTER.CONST>
1

>  <SCORE.INTER.POLAR>
0

>  <SCORE.INTER.ROT>
6

>  <SCORE.INTER.SOLV>
2.71963

>  <SCORE.INTER.VDW>
-15.1849

>  <SCORE.INTER.norm>
-0.345432

>  <SCORE.INTRA>
-0.631252

>  <SCORE.INTRA.DIHEDRAL>
0.0999815

>  <SCORE.INTRA.DIHEDRAL.0>
7.2424

>  <SCORE.INTRA.POLAR>
0

>  <SCORE.INTRA.POLAR.0>
0

>  <SCORE.INTRA.REPUL>
0

>  <SCORE.INTRA.REPUL.0>
0

>  <SCORE.INTRA.SOLV>
-0.0197174

>  <SCORE.INTRA.SOLV.lig_0>
-3.36201

>  <SCORE.INTRA.VDW>
-0.671384

>  <SCORE.INTRA.VDW.0>
-0.910526

>  <SCORE.INTRA.norm>
-0.0217673

>  <SCORE.RESTR>
0

>  <SCORE.RESTR.CAVITY>
0

>  <SCORE.RESTR.norm>
0

>  <SCORE.SYSTEM>
0

>  <SCORE.SYSTEM.CONST>
0

>  <SCORE.SYSTEM.DIHEDRAL>
0

>  <SCORE.SYSTEM.SOLV>
0

>  <SCORE.SYSTEM.norm>
0

>  <SCORE.heavy>
29

>  <SCORE.norm>
-0.367199

>  <RMSD>
6.478

$$$$
ligand
 OpenBabel11021811503D
libRbt.so/2013.1/901 2013/11/27
 29 32  0  0  0  0  0  0  0  0999 V2000
   49.9819   47.0506   41.5089 C   0  0  0  0  0  0  0  0  0  0  0  0
   40.3384   40.7277   43.7110 C   0  0  0  0  0  0  0  0  0  0  0  0
   40.3124   39.3997   44.1574 C   0  0  0  0  0  0  0  0  0  0  0  0
   41.3210   38.5511   43.8592 C   0  0  0  0  0  0  0  0  0  0  0  0
   42.3482   39.0074   43.0444 C   0  0  0  0  0  0  0  0  0  0  0  0
   42.3763   40.3251   42.6713 C   0  0  0  0  0  0  0  0  0  0  0  0
   43.4475   40.9766   41.9206 C   0  0  0  0  0  0  0  0  0  0  0  0
   45.6800   41.6107   41.7635 C   0  0  0  0  0  0  0  0  0  0  0  0
   46.4363   42.5147   42.4831 C   0  0  0  0  0  0  0  0  0  0  0  0
   47.3963   43.2756   41.8134 C   0  0  0  0  0  0  0  0  0  0  0  0
   47.6805   43.0840   40.4865 C   0  0  0  0  0  0  0  0  0  0  0  0
   46.8949   42.1453   39.7835 C   0  0  0  0  0  0  0  0  0  0  0  0
   45.8591   41.4556   40.4036 C   0  0  0  0  0  0  0  0  0  0  0  0
   48.8300   43.8124   39.7933 C   0  0  0  0  0  0  0  0  0  0  0  0
   49.5636   44.7867   40.7044 C   0  0  0  0  0  0  0  0  0  0  0  0
   49.3320   46.1384   40.6934 C   0  0  0  0  0  0  0  0  0  0  0  0
   50.9002   46.5467   42.3906 C   0  0  0  0  0  0  0  0  0  0  0  0
   51.1365   45.2161   42.4012 C   0  0  0  0  0  0  0  0  0  0  0  0
   50.5014   44.3131   41.5787 C   0  0  0  0  0  0  0  0  0  0  0  0
   50.9557   47.8770   44.2926 C   0  0  0  0  0  0  0  0  0  0  0  0
   51.6289   48.8126   45.1683 C   0  0  0  0  0  0  0  0  0  0  0  0
   52.8068   48.5499   45.8795 C   0  0  0  0  0  0  0  0  0  0  0  0
   53.3141   49.5476   46.6867 C   0  0  0  0  0  0  0  0  0  0  0  0
   52.6518   50.7645   46.7240 C   0  0  0  0  0  0  0  0  0  0  0  0
   51.4752   50.9628   46.0343 C   0  0  0  0  0  0  0  0  0  0  0  0
   41.3662   41.1818   42.9742 N   0  0  0  0  0  0  0  0  0  0  0  0
   44.6359   40.8599   42.4473 N   0  0  0  0  0  0  0  0  0  0  0  0
   51.6431   47.4189   43.3062 N   0  0  0  0  0  0  0  0  0  0  0  0
   50.9922   50.0201   45.2391 N   0  0  0  0  0  0  0  0  0  0  0  0
  1 17  2  0  0  0  0
  1 16  1  0  0  0  0
  2  3  2  0  0  0  0
  2 26  1  0  0  0  0
  3  4  1  0  0  0  0
  4  5  2  0  0  0  0
  5  6  1  0  0  0  0
  6  7  1  0  0  0  0
  6 26  2  0  0  0  0
  7 27  2  0  0  0  0
  8  9  2  0  0  0  0
  8 13  1  0  0  0  0
  8 27  1  0  0  0  0
  9 10  1  0  0  0  0
 10 11  2  0  0  0  0
 11 12  1  0  0  0  0
 11 14  1  0  0  0  0
 12 13  2  0  0  0  0
 14 15  1  0  0  0  0
 15 16  2  0  0  0  0
 15 19  1  0  0  0  0
 17 18  1  0  0  0  0
 17 28  1  0  0  0  0
 18 19  2  0  0  0  0
 20 21  1  0  0  0  0
 20 28  2  0  0  0  0
 21 22  2  0  0  0  0
 21 29  1  0  0  0  0
 22 23  1  0  0  0  0
 23 24  2  0  0  0  0
 24 25  1  0  0  0  0
 25 29  2  0  0  0  0
M  END
>  <CHROM.1>
-54.98835063,-2.27144583,-99.77762451,-58.34608473,124.31007786,73.85715529
47.64176059,44.38502797,42.89089079,-0.52318430,-0.57664583,-2.14751986

>  <Name>
ligand

>  <RI>
0

>  <Rbt.Current_Directory>
/home/itssahil/PROJECTS/Mol_Feturizer/New_Systems/rnas/4JIY

>  <Rbt.Executable>
rbdock ($Id: //depot/dev/client3/rdock/2013.1/src/exe/rbdock.cxx#4 $)

>  <Rbt.Library>
libRbt.so (2013.1, Build901 2013/11/27)

>  <Rbt.Parameter_File>
/export/apps/rDock/src/rDock_2013.1_src/data/scripts/dock_solv.prm

>  <Rbt.Receptor>
prm/pocket_docking_7.prm

>  <SCORE>
-7.70555

>  <SCORE.INTER>
-7.22347

>  <SCORE.INTER.CONST>
1

>  <SCORE.INTER.POLAR>
0

>  <SCORE.INTER.ROT>
6

>  <SCORE.INTER.SOLV>
2.34824

>  <SCORE.INTER.VDW>
-13.1984

>  <SCORE.INTER.norm>
-0.249085

>  <SCORE.INTRA>
-0.482082

>  <SCORE.INTRA.DIHEDRAL>
-0.00808281

>  <SCORE.INTRA.DIHEDRAL.0>
7.2424

>  <SCORE.INTRA.POLAR>
0

>  <SCORE.INTRA.POLAR.0>
0

>  <SCORE.INTRA.REPUL>
0

>  <SCORE.INTRA.REPUL.0>
0

>  <SCORE.INTRA.SOLV>
-0.0195827

>  <SCORE.INTRA.SOLV.lig_0>
-3.36201

>  <SCORE.INTRA.VDW>
-0.468249

>  <SCORE.INTRA.VDW.0>
-0.910526

>  <SCORE.INTRA.norm>
-0.0166235

>  <SCORE.RESTR>
0

>  <SCORE.RESTR.CAVITY>
0

>  <SCORE.RESTR.norm>
0

>  <SCORE.SYSTEM>
0

>  <SCORE.SYSTEM.CONST>
0

>  <SCORE.SYSTEM.DIHEDRAL>
0

>  <SCORE.SYSTEM.SOLV>
0

>  <SCORE.SYSTEM.norm>
0

>  <SCORE.heavy>
29

>  <SCORE.norm>
-0.265709

>  <RMSD>
6.485

$$$$
ligand
 OpenBabel11021811503D
libRbt.so/2013.1/901 2013/11/27
 29 32  0  0  0  0  0  0  0  0999 V2000
   49.3940   46.5708   42.5558 C   0  0  0  0  0  0  0  0  0  0  0  0
   41.9542   38.9583   44.9363 C   0  0  0  0  0  0  0  0  0  0  0  0
   41.1667   38.1454   44.1100 C   0  0  0  0  0  0  0  0  0  0  0  0
   41.3046   38.1873   42.7664 C   0  0  0  0  0  0  0  0  0  0  0  0
   42.1958   39.1024   42.2226 C   0  0  0  0  0  0  0  0  0  0  0  0
   42.9928   39.8420   43.0557 C   0  0  0  0  0  0  0  0  0  0  0  0
   44.0551   40.7525   42.6339 C   0  0  0  0  0  0  0  0  0  0  0  0
   45.6018   41.4133   41.0270 C   0  0  0  0  0  0  0  0  0  0  0  0
   46.0720   41.3533   39.7299 C   0  0  0  0  0  0  0  0  0  0  0  0
   47.2000   42.1004   39.3858 C   0  0  0  0  0  0  0  0  0  0  0  0
   47.7954   42.9663   40.2656 C   0  0  0  0  0  0  0  0  0  0  0  0
   47.2833   43.0098   41.5803 C   0  0  0  0  0  0  0  0  0  0  0  0
   46.2305   42.1930   41.9770 C   0  0  0  0  0  0  0  0  0  0  0  0
   48.9357   43.8901   39.8430 C   0  0  0  0  0  0  0  0  0  0  0  0
   49.5133   44.7013   40.9945 C   0  0  0  0  0  0  0  0  0  0  0  0
   48.8952   45.8119   41.5096 C   0  0  0  0  0  0  0  0  0  0  0  0
   50.5752   46.1573   43.1110 C   0  0  0  0  0  0  0  0  0  0  0  0
   51.1914   45.0670   42.6031 C   0  0  0  0  0  0  0  0  0  0  0  0
   50.7023   44.3235   41.5528 C   0  0  0  0  0  0  0  0  0  0  0  0
   50.7245   46.5827   45.3885 C   0  0  0  0  0  0  0  0  0  0  0  0
   51.2452   47.3397   46.5071 C   0  0  0  0  0  0  0  0  0  0  0  0
   52.5508   47.2491   47.0066 C   0  0  0  0  0  0  0  0  0  0  0  0
   52.8858   48.0305   48.0936 C   0  0  0  0  0  0  0  0  0  0  0  0
   51.9255   48.8859   48.6101 C   0  0  0  0  0  0  0  0  0  0  0  0
   50.6427   48.9126   48.1071 C   0  0  0  0  0  0  0  0  0  0  0  0
   42.8599   39.7981   44.4071 N   0  0  0  0  0  0  0  0  0  0  0  0
   44.4627   40.5881   41.4050 N   0  0  0  0  0  0  0  0  0  0  0  0
   51.1926   46.8805   44.2277 N   0  0  0  0  0  0  0  0  0  0  0  0
   50.3172   48.1838   47.0501 N   0  0  0  0  0  0  0  0  0  0  0  0
  1 17  2  0  0  0  0
  1 16  1  0  0  0  0
  2  3  2  0  0  0  0
  2 26  1  0  0  0  0
  3  4  1  0  0  0  0
  4  5  2  0  0  0  0
  5  6  1  0  0  0  0
  6  7  1  0  0  0  0
  6 26  2  0  0  0  0
  7 27  2  0  0  0  0
  8  9  2  0  0  0  0
  8 13  1  0  0  0  0
  8 27  1  0  0  0  0
  9 10  1  0  0  0  0
 10 11  2  0  0  0  0
 11 12  1  0  0  0  0
 11 14  1  0  0  0  0
 12 13  2  0  0  0  0
 14 15  1  0  0  0  0
 15 16  2  0  0  0  0
 15 19  1  0  0  0  0
 17 18  1  0  0  0  0
 17 28  1  0  0  0  0
 18 19  2  0  0  0  0
 20 21  1  0  0  0  0
 20 28  2  0  0  0  0
 21 22  2  0  0  0  0
 21 29  1  0  0  0  0
 22 23  1  0  0  0  0
 23 24  2  0  0  0  0
 24 25  1  0  0  0  0
 25 29  2  0  0  0  0
M  END
>  <CHROM.1>
-17.02149302,-176.15313804,-77.51638515,-69.22551992,-177.29280424,82.75973084
47.64647332,43.69437775,43.33828979,-0.47676381,-0.67770827,-1.83753501

>  <Name>
ligand

>  <RI>
0

>  <Rbt.Current_Directory>
/home/itssahil/PROJECTS/Mol_Feturizer/New_Systems/rnas/4JIY

>  <Rbt.Executable>
rbdock ($Id: //depot/dev/client3/rdock/2013.1/src/exe/rbdock.cxx#4 $)

>  <Rbt.Library>
libRbt.so (2013.1, Build901 2013/11/27)

>  <Rbt.Parameter_File>
/export/apps/rDock/src/rDock_2013.1_src/data/scripts/dock_solv.prm

>  <Rbt.Receptor>
prm/pocket_docking_7.prm

>  <SCORE>
-9.88425

>  <SCORE.INTER>
-10.7646

>  <SCORE.INTER.CONST>
1

>  <SCORE.INTER.POLAR>
0

>  <SCORE.INTER.ROT>
6

>  <SCORE.INTER.SOLV>
3.10892

>  <SCORE.INTER.VDW>
-15.8127

>  <SCORE.INTER.norm>
-0.371194

>  <SCORE.INTRA>
0.880374

>  <SCORE.INTRA.DIHEDRAL>
0.415541

>  <SCORE.INTRA.DIHEDRAL.0>
7.2424

>  <SCORE.INTRA.POLAR>
0

>  <SCORE.INTRA.POLAR.0>
0

>  <SCORE.INTRA.REPUL>
0

>  <SCORE.INTRA.REPUL.0>
0

>  <SCORE.INTRA.SOLV>
-0.0165732

>  <SCORE.INTRA.SOLV.lig_0>
-3.36201

>  <SCORE.INTRA.VDW>
0.68089

>  <SCORE.INTRA.VDW.0>
-0.910526

>  <SCORE.INTRA.norm>
0.0303577

>  <SCORE.RESTR>
0

>  <SCORE.RESTR.CAVITY>
0

>  <SCORE.RESTR.norm>
0

>  <SCORE.SYSTEM>
0

>  <SCORE.SYSTEM.CONST>
0

>  <SCORE.SYSTEM.DIHEDRAL>
0

>  <SCORE.SYSTEM.SOLV>
0

>  <SCORE.SYSTEM.norm>
0

>  <SCORE.heavy>
29

>  <SCORE.norm>
-0.340836

>  <RMSD>
6.486

$$$$
ligand
 OpenBabel11021811503D
libRbt.so/2013.1/901 2013/11/27
 29 32  0  0  0  0  0  0  0  0999 V2000
   47.0258   41.0510   38.6337 C   0  0  0  0  0  0  0  0  0  0  0  0
   39.3175   37.9214   48.0262 C   0  0  0  0  0  0  0  0  0  0  0  0
   39.2577   36.5614   48.3583 C   0  0  0  0  0  0  0  0  0  0  0  0
   39.5542   35.6133   47.4421 C   0  0  0  0  0  0  0  0  0  0  0  0
   39.8531   36.0168   46.1478 C   0  0  0  0  0  0  0  0  0  0  0  0
   39.9605   37.3532   45.8675 C   0  0  0  0  0  0  0  0  0  0  0  0
   40.3825   37.9260   44.5912 C   0  0  0  0  0  0  0  0  0  0  0  0
   42.0632   38.3103   43.0296 C   0  0  0  0  0  0  0  0  0  0  0  0
   41.7967   37.7345   41.8031 C   0  0  0  0  0  0  0  0  0  0  0  0
   42.2867   38.3480   40.6488 C   0  0  0  0  0  0  0  0  0  0  0  0
   42.9374   39.5536   40.6858 C   0  0  0  0  0  0  0  0  0  0  0  0
   43.1847   40.1188   41.9555 C   0  0  0  0  0  0  0  0  0  0  0  0
   42.8037   39.4714   43.1253 C   0  0  0  0  0  0  0  0  0  0  0  0
   43.3414   40.2930   39.4120 C   0  0  0  0  0  0  0  0  0  0  0  0
   44.7434   40.8829   39.4758 C   0  0  0  0  0  0  0  0  0  0  0  0
   45.7413   40.5331   38.6024 C   0  0  0  0  0  0  0  0  0  0  0  0
   47.2917   41.9869   39.5971 C   0  0  0  0  0  0  0  0  0  0  0  0
   46.3135   42.3306   40.4640 C   0  0  0  0  0  0  0  0  0  0  0  0
   45.0422   41.8028   40.4415 C   0  0  0  0  0  0  0  0  0  0  0  0
   48.6053   43.8922   39.7830 C   0  0  0  0  0  0  0  0  0  0  0  0
   49.8964   44.5459   39.8142 C   0  0  0  0  0  0  0  0  0  0  0  0
   50.8484   44.4068   40.8323 C   0  0  0  0  0  0  0  0  0  0  0  0
   52.0282   45.1136   40.7189 C   0  0  0  0  0  0  0  0  0  0  0  0
   52.2219   45.8944   39.5904 C   0  0  0  0  0  0  0  0  0  0  0  0
   51.2397   46.0282   38.6329 C   0  0  0  0  0  0  0  0  0  0  0  0
   39.6679   38.3087   46.7882 N   0  0  0  0  0  0  0  0  0  0  0  0
   41.6064   37.6403   44.2395 N   0  0  0  0  0  0  0  0  0  0  0  0
   48.6151   42.6072   39.7194 N   0  0  0  0  0  0  0  0  0  0  0  0
   50.1134   45.3367   38.7205 N   0  0  0  0  0  0  0  0  0  0  0  0
  1 17  2  0  0  0  0
  1 16  1  0  0  0  0
  2  3  2  0  0  0  0
  2 26  1  0  0  0  0
  3  4  1  0  0  0  0
  4  5  2  0  0  0  0
  5  6  1  0  0  0  0
  6  7  1  0  0  0  0
  6 26  2  0  0  0  0
  7 27  2  0  0  0  0
  8  9  2  0  0  0  0
  8 13  1  0  0  0  0
  8 27  1  0  0  0  0
  9 10  1  0  0  0  0
 10 11  2  0  0  0  0
 11 12  1  0  0  0  0
 11 14  1  0  0  0  0
 12 13  2  0  0  0  0
 14 15  1  0  0  0  0
 15 16  2  0  0  0  0
 15 19  1  0  0  0  0
 17 18  1  0  0  0  0
 17 28  1  0  0  0  0
 18 19  2  0  0  0  0
 20 21  1  0  0  0  0
 20 28  2  0  0  0  0
 21 22  2  0  0  0  0
 21 29  1  0  0  0  0
 22 23  1  0  0  0  0
 23 24  2  0  0  0  0
 24 25  1  0  0  0  0
 25 29  2  0  0  0  0
M  END
>  <CHROM.1>
-63.35000180,-136.97757785,119.93931015,-63.57912298,-86.18136142,129.92293407
44.74590446,40.61438048,41.96626297,0.45465761,-0.64561224,-1.61915883

>  <Name>
ligand

>  <RI>
0

>  <Rbt.Current_Directory>
/home/itssahil/PROJECTS/Mol_Feturizer/New_Systems/rnas/4JIY

>  <Rbt.Executable>
rbdock ($Id: //depot/dev/client3/rdock/2013.1/src/exe/rbdock.cxx#4 $)

>  <Rbt.Library>
libRbt.so (2013.1, Build901 2013/11/27)

>  <Rbt.Parameter_File>
/export/apps/rDock/src/rDock_2013.1_src/data/scripts/dock_solv.prm

>  <Rbt.Receptor>
prm/pocket_docking_8.prm

>  <SCORE>
-13.0609

>  <SCORE.INTER>
-12.6843

>  <SCORE.INTER.CONST>
1

>  <SCORE.INTER.POLAR>
0

>  <SCORE.INTER.ROT>
6

>  <SCORE.INTER.SOLV>
3.87698

>  <SCORE.INTER.VDW>
-17.3485

>  <SCORE.INTER.norm>
-0.437389

>  <SCORE.INTRA>
-0.376594

>  <SCORE.INTRA.DIHEDRAL>
-0.125455

>  <SCORE.INTRA.DIHEDRAL.0>
7.2424

>  <SCORE.INTRA.POLAR>
0

>  <SCORE.INTRA.POLAR.0>
0

>  <SCORE.INTRA.REPUL>
0

>  <SCORE.INTRA.REPUL.0>
0

>  <SCORE.INTRA.SOLV>
-0.0196858

>  <SCORE.INTRA.SOLV.lig_0>
-3.36201

>  <SCORE.INTRA.VDW>
-0.304024

>  <SCORE.INTRA.VDW.0>
-0.910526

>  <SCORE.INTRA.norm>
-0.012986

>  <SCORE.RESTR>
0

>  <SCORE.RESTR.CAVITY>
0

>  <SCORE.RESTR.norm>
0

>  <SCORE.SYSTEM>
0

>  <SCORE.SYSTEM.CONST>
0

>  <SCORE.SYSTEM.DIHEDRAL>
0

>  <SCORE.SYSTEM.SOLV>
0

>  <SCORE.SYSTEM.norm>
0

>  <SCORE.heavy>
29

>  <SCORE.norm>
-0.450375

>  <RMSD>
6.495

$$$$
ligand
 OpenBabel11021811503D
libRbt.so/2013.1/901 2013/11/27
 29 32  0  0  0  0  0  0  0  0999 V2000
   42.2982   38.8039   41.8525 C   0  0  0  0  0  0  0  0  0  0  0  0
   51.9605   47.2915   39.9153 C   0  0  0  0  0  0  0  0  0  0  0  0
   53.1904   46.6248   39.8355 C   0  0  0  0  0  0  0  0  0  0  0  0
   53.2402   45.2892   39.6360 C   0  0  0  0  0  0  0  0  0  0  0  0
   52.0448   44.5853   39.5801 C   0  0  0  0  0  0  0  0  0  0  0  0
   50.8589   45.2703   39.6031 C   0  0  0  0  0  0  0  0  0  0  0  0
   49.5313   44.6837   39.4334 C   0  0  0  0  0  0  0  0  0  0  0  0
   47.9404   43.1148   40.0806 C   0  0  0  0  0  0  0  0  0  0  0  0
   47.9357   41.9024   39.4195 C   0  0  0  0  0  0  0  0  0  0  0  0
   46.7121   41.2926   39.1369 C   0  0  0  0  0  0  0  0  0  0  0  0
   45.5224   41.8084   39.5808 C   0  0  0  0  0  0  0  0  0  0  0  0
   45.5646   43.0442   40.2616 C   0  0  0  0  0  0  0  0  0  0  0  0
   46.7610   43.7249   40.4576 C   0  0  0  0  0  0  0  0  0  0  0  0
   44.2012   41.0645   39.3981 C   0  0  0  0  0  0  0  0  0  0  0  0
   43.6766   40.4418   40.6845 C   0  0  0  0  0  0  0  0  0  0  0  0
   42.7938   39.3923   40.7004 C   0  0  0  0  0  0  0  0  0  0  0  0
   42.7460   39.3062   43.0449 C   0  0  0  0  0  0  0  0  0  0  0  0
   43.6112   40.3444   43.0347 C   0  0  0  0  0  0  0  0  0  0  0  0
   44.0901   40.9384   41.8889 C   0  0  0  0  0  0  0  0  0  0  0  0
   41.3848   39.4475   44.9204 C   0  0  0  0  0  0  0  0  0  0  0  0
   40.9762   38.9860   46.2302 C   0  0  0  0  0  0  0  0  0  0  0  0
   41.7700   39.0219   47.3838 C   0  0  0  0  0  0  0  0  0  0  0  0
   41.2353   38.5264   48.5555 C   0  0  0  0  0  0  0  0  0  0  0  0
   39.9331   38.0526   48.5360 C   0  0  0  0  0  0  0  0  0  0  0  0
   39.2043   38.0041   47.3673 C   0  0  0  0  0  0  0  0  0  0  0  0
   50.8061   46.6139   39.7983 N   0  0  0  0  0  0  0  0  0  0  0  0
   49.2117   43.7833   40.3224 N   0  0  0  0  0  0  0  0  0  0  0  0
   42.2935   38.7564   44.3272 N   0  0  0  0  0  0  0  0  0  0  0  0
   39.6995   38.4978   46.2425 N   0  0  0  0  0  0  0  0  0  0  0  0
  1 17  2  0  0  0  0
  1 16  1  0  0  0  0
  2  3  2  0  0  0  0
  2 26  1  0  0  0  0
  3  4  1  0  0  0  0
  4  5  2  0  0  0  0
  5  6  1  0  0  0  0
  6  7  1  0  0  0  0
  6 26  2  0  0  0  0
  7 27  2  0  0  0  0
  8  9  2  0  0  0  0
  8 13  1  0  0  0  0
  8 27  1  0  0  0  0
  9 10  1  0  0  0  0
 10 11  2  0  0  0  0
 11 12  1  0  0  0  0
 11 14  1  0  0  0  0
 12 13  2  0  0  0  0
 14 15  1  0  0  0  0
 15 16  2  0  0  0  0
 15 19  1  0  0  0  0
 17 18  1  0  0  0  0
 17 28  1  0  0  0  0
 18 19  2  0  0  0  0
 20 21  1  0  0  0  0
 20 28  2  0  0  0  0
 21 22  2  0  0  0  0
 21 29  1  0  0  0  0
 22 23  1  0  0  0  0
 23 24  2  0  0  0  0
 24 25  1  0  0  0  0
 25 29  2  0  0  0  0
M  END
>  <CHROM.1>
60.12296452,105.57948640,-157.68597540,68.86304575,95.62686092,-101.04681313
45.54902411,41.68031879,42.10892920,2.68757572,0.60789243,1.50598521

>  <Name>
ligand

>  <RI>
0

>  <Rbt.Current_Directory>
/home/itssahil/PROJECTS/Mol_Feturizer/New_Systems/rnas/4JIY

>  <Rbt.Executable>
rbdock ($Id: //depot/dev/client3/rdock/2013.1/src/exe/rbdock.cxx#4 $)

>  <Rbt.Library>
libRbt.so (2013.1, Build901 2013/11/27)

>  <Rbt.Parameter_File>
/export/apps/rDock/src/rDock_2013.1_src/data/scripts/dock_solv.prm

>  <Rbt.Receptor>
prm/pocket_docking_8.prm

>  <SCORE>
-11.8109

>  <SCORE.INTER>
-11.1133

>  <SCORE.INTER.CONST>
1

>  <SCORE.INTER.POLAR>
0

>  <SCORE.INTER.ROT>
6

>  <SCORE.INTER.SOLV>
3.40945

>  <SCORE.INTER.VDW>
-16.1453

>  <SCORE.INTER.norm>
-0.383217

>  <SCORE.INTRA>
-0.697633

>  <SCORE.INTRA.DIHEDRAL>
0.0191846

>  <SCORE.INTRA.DIHEDRAL.0>
7.2424

>  <SCORE.INTRA.POLAR>
0

>  <SCORE.INTRA.POLAR.0>
0

>  <SCORE.INTRA.REPUL>
0

>  <SCORE.INTRA.REPUL.0>
0

>  <SCORE.INTRA.SOLV>
-0.019068

>  <SCORE.INTRA.SOLV.lig_0>
-3.36201

>  <SCORE.INTRA.VDW>
-0.697691

>  <SCORE.INTRA.VDW.0>
-0.910526

>  <SCORE.INTRA.norm>
-0.0240563

>  <SCORE.RESTR>
0

>  <SCORE.RESTR.CAVITY>
0

>  <SCORE.RESTR.norm>
0

>  <SCORE.SYSTEM>
0

>  <SCORE.SYSTEM.CONST>
0

>  <SCORE.SYSTEM.DIHEDRAL>
0

>  <SCORE.SYSTEM.SOLV>
0

>  <SCORE.SYSTEM.norm>
0

>  <SCORE.heavy>
29

>  <SCORE.norm>
-0.407273

>  <RMSD>
6.500

$$$$
ligand
 OpenBabel11021811503D
libRbt.so/2013.1/901 2013/11/27
 29 32  0  0  0  0  0  0  0  0999 V2000
   42.9862   39.5376   41.9232 C   0  0  0  0  0  0  0  0  0  0  0  0
   52.9267   47.4567   39.2897 C   0  0  0  0  0  0  0  0  0  0  0  0
   52.7291   48.7172   39.8691 C   0  0  0  0  0  0  0  0  0  0  0  0
   51.4928   49.1240   40.2325 C   0  0  0  0  0  0  0  0  0  0  0  0
   50.4164   48.2918   39.9562 C   0  0  0  0  0  0  0  0  0  0  0  0
   50.6460   47.0428   39.4427 C   0  0  0  0  0  0  0  0  0  0  0  0
   49.6327   46.0155   39.2125 C   0  0  0  0  0  0  0  0  0  0  0  0
   48.1685   44.4233   40.0682 C   0  0  0  0  0  0  0  0  0  0  0  0
   48.6814   43.1687   39.8043 C   0  0  0  0  0  0  0  0  0  0  0  0
   47.7985   42.1227   39.5294 C   0  0  0  0  0  0  0  0  0  0  0  0
   46.4392   42.2777   39.6105 C   0  0  0  0  0  0  0  0  0  0  0  0
   45.9492   43.5713   39.8918 C   0  0  0  0  0  0  0  0  0  0  0  0
   46.8072   44.6523   40.0598 C   0  0  0  0  0  0  0  0  0  0  0  0
   45.4811   41.0987   39.4545 C   0  0  0  0  0  0  0  0  0  0  0  0
   44.7346   40.7544   40.7358 C   0  0  0  0  0  0  0  0  0  0  0  0
   43.6855   39.8719   40.7749 C   0  0  0  0  0  0  0  0  0  0  0  0
   43.3973   40.1244   43.0900 C   0  0  0  0  0  0  0  0  0  0  0  0
   44.4267   40.9993   43.0559 C   0  0  0  0  0  0  0  0  0  0  0  0
   45.1099   41.3427   41.9111 C   0  0  0  0  0  0  0  0  0  0  0  0
   41.7461   40.6137   44.6470 C   0  0  0  0  0  0  0  0  0  0  0  0
   41.1228   40.4217   45.9393 C   0  0  0  0  0  0  0  0  0  0  0  0
   41.7159   40.7140   47.1742 C   0  0  0  0  0  0  0  0  0  0  0  0
   40.9907   40.4573   48.3198 C   0  0  0  0  0  0  0  0  0  0  0  0
   39.7049   39.9574   48.1866 C   0  0  0  0  0  0  0  0  0  0  0  0
   39.1783   39.6513   46.9504 C   0  0  0  0  0  0  0  0  0  0  0  0
   51.8888   46.6293   39.0813 N   0  0  0  0  0  0  0  0  0  0  0  0
   49.0881   45.5299   40.2946 N   0  0  0  0  0  0  0  0  0  0  0  0
   42.7345   39.8392   44.3669 N   0  0  0  0  0  0  0  0  0  0  0  0
   39.8568   39.9150   45.8439 N   0  0  0  0  0  0  0  0  0  0  0  0
  1 17  2  0  0  0  0
  1 16  1  0  0  0  0
  2  3  2  0  0  0  0
  2 26  1  0  0  0  0
  3  4  1  0  0  0  0
  4  5  2  0  0  0  0
  5  6  1  0  0  0  0
  6  7  1  0  0  0  0
  6 26  2  0  0  0  0
  7 27  2  0  0  0  0
  8  9  2  0  0  0  0
  8 13  1  0  0  0  0
  8 27  1  0  0  0  0
  9 10  1  0  0  0  0
 10 11  2  0  0  0  0
 11 12  1  0  0  0  0
 11 14  1  0  0  0  0
 12 13  2  0  0  0  0
 14 15  1  0  0  0  0
 15 16  2  0  0  0  0
 15 19  1  0  0  0  0
 17 18  1  0  0  0  0
 17 28  1  0  0  0  0
 18 19  2  0  0  0  0
 20 21  1  0  0  0  0
 20 28  2  0  0  0  0
 21 22  2  0  0  0  0
 21 29  1  0  0  0  0
 22 23  1  0  0  0  0
 23 24  2  0  0  0  0
 24 25  1  0  0  0  0
 25 29  2  0  0  0  0
M  END
>  <CHROM.1>
-67.07668108,112.72280010,169.82947383,68.77816198,77.05723167,-89.51360864
45.84416650,42.90137297,42.01800866,3.04543640,0.75733409,0.97138567

>  <Name>
ligand

>  <RI>
0

>  <Rbt.Current_Directory>
/home/itssahil/PROJECTS/Mol_Feturizer/New_Systems/rnas/4JIY

>  <Rbt.Executable>
rbdock ($Id: //depot/dev/client3/rdock/2013.1/src/exe/rbdock.cxx#4 $)

>  <Rbt.Library>
libRbt.so (2013.1, Build901 2013/11/27)

>  <Rbt.Parameter_File>
/export/apps/rDock/src/rDock_2013.1_src/data/scripts/dock_solv.prm

>  <Rbt.Receptor>
prm/pocket_docking_7.prm

>  <SCORE>
-11.0914

>  <SCORE.INTER>
-10.4249

>  <SCORE.INTER.CONST>
1

>  <SCORE.INTER.POLAR>
0

>  <SCORE.INTER.ROT>
6

>  <SCORE.INTER.SOLV>
2.71154

>  <SCORE.INTER.VDW>
-15.4538

>  <SCORE.INTER.norm>
-0.35948

>  <SCORE.INTRA>
-0.666484

>  <SCORE.INTRA.DIHEDRAL>
0.083732

>  <SCORE.INTRA.DIHEDRAL.0>
7.2424

>  <SCORE.INTRA.POLAR>
0

>  <SCORE.INTRA.POLAR.0>
0

>  <SCORE.INTRA.REPUL>
0

>  <SCORE.INTRA.REPUL.0>
0

>  <SCORE.INTRA.SOLV>
-0.0190568

>  <SCORE.INTRA.SOLV.lig_0>
-3.36201

>  <SCORE.INTRA.VDW>
-0.698822

>  <SCORE.INTRA.VDW.0>
-0.910526

>  <SCORE.INTRA.norm>
-0.0229822

>  <SCORE.RESTR>
0

>  <SCORE.RESTR.CAVITY>
0

>  <SCORE.RESTR.norm>
0

>  <SCORE.SYSTEM>
0

>  <SCORE.SYSTEM.CONST>
0

>  <SCORE.SYSTEM.DIHEDRAL>
0

>  <SCORE.SYSTEM.SOLV>
0

>  <SCORE.SYSTEM.norm>
0

>  <SCORE.heavy>
29

>  <SCORE.norm>
-0.382462

>  <RMSD>
6.502

$$$$
ligand
 OpenBabel11021811503D
libRbt.so/2013.1/901 2013/11/27
 29 32  0  0  0  0  0  0  0  0999 V2000
   47.0155   42.8825   42.3829 C   0  0  0  0  0  0  0  0  0  0  0  0
   37.8389   46.5755   36.1770 C   0  0  0  0  0  0  0  0  0  0  0  0
   36.8983   47.3009   36.9204 C   0  0  0  0  0  0  0  0  0  0  0  0
   36.9145   47.2711   38.2713 C   0  0  0  0  0  0  0  0  0  0  0  0
   37.8412   46.4523   38.9024 C   0  0  0  0  0  0  0  0  0  0  0  0
   38.7842   45.8007   38.1524 C   0  0  0  0  0  0  0  0  0  0  0  0
   39.8911   45.0045   38.6778 C   0  0  0  0  0  0  0  0  0  0  0  0
   41.7054   43.6010   38.2909 C   0  0  0  0  0  0  0  0  0  0  0  0
   42.9232   44.1315   38.6681 C   0  0  0  0  0  0  0  0  0  0  0  0
   43.9273   43.2683   39.1107 C   0  0  0  0  0  0  0  0  0  0  0  0
   43.7112   41.9251   39.2766 C   0  0  0  0  0  0  0  0  0  0  0  0
   42.4518   41.4179   38.8903 C   0  0  0  0  0  0  0  0  0  0  0  0
   41.4741   42.2410   38.3430 C   0  0  0  0  0  0  0  0  0  0  0  0
   44.7623   41.0088   39.8993 C   0  0  0  0  0  0  0  0  0  0  0  0
   45.3508   41.5567   41.1920 C   0  0  0  0  0  0  0  0  0  0  0  0
   46.4561   42.3679   41.2246 C   0  0  0  0  0  0  0  0  0  0  0  0
   46.3979   42.5629   43.5623 C   0  0  0  0  0  0  0  0  0  0  0  0
   45.3119   41.7589   43.5362 C   0  0  0  0  0  0  0  0  0  0  0  0
   44.7671   41.2353   42.3854 C   0  0  0  0  0  0  0  0  0  0  0  0
   47.8121   42.3283   45.3886 C   0  0  0  0  0  0  0  0  0  0  0  0
   48.2688   42.7339   46.7010 C   0  0  0  0  0  0  0  0  0  0  0  0
   47.4578   42.8579   47.8364 C   0  0  0  0  0  0  0  0  0  0  0  0
   48.0473   43.2724   49.0132 C   0  0  0  0  0  0  0  0  0  0  0  0
   49.4127   43.5102   49.0172 C   0  0  0  0  0  0  0  0  0  0  0  0
   50.1622   43.4098   47.8651 C   0  0  0  0  0  0  0  0  0  0  0  0
   38.7735   45.8331   36.7942 N   0  0  0  0  0  0  0  0  0  0  0  0
   40.6769   44.4915   37.7708 N   0  0  0  0  0  0  0  0  0  0  0  0
   46.8992   43.0569   44.8491 N   0  0  0  0  0  0  0  0  0  0  0  0
   49.6109   42.9909   46.7360 N   0  0  0  0  0  0  0  0  0  0  0  0
  1 17  2  0  0  0  0
  1 16  1  0  0  0  0
  2  3  2  0  0  0  0
  2 26  1  0  0  0  0
  3  4  1  0  0  0  0
  4  5  2  0  0  0  0
  5  6  1  0  0  0  0
  6  7  1  0  0  0  0
  6 26  2  0  0  0  0
  7 27  2  0  0  0  0
  8  9  2  0  0  0  0
  8 13  1  0  0  0  0
  8 27  1  0  0  0  0
  9 10  1  0  0  0  0
 10 11  2  0  0  0  0
 11 12  1  0  0  0  0
 11 14  1  0  0  0  0
 12 13  2  0  0  0  0
 14 15  1  0  0  0  0
 15 16  2  0  0  0  0
 15 19  1  0  0  0  0
 17 18  1  0  0  0  0
 17 28  1  0  0  0  0
 18 19  2  0  0  0  0
 20 21  1  0  0  0  0
 20 28  2  0  0  0  0
 21 22  2  0  0  0  0
 21 29  1  0  0  0  0
 22 23  1  0  0  0  0
 23 24  2  0  0  0  0
 24 25  1  0  0  0  0
 25 29  2  0  0  0  0
M  END
>  <CHROM.1>
-179.06372897,48.09337128,-89.52669347,58.87148729,-89.10469538,-86.58034788
43.85469543,43.54505693,41.57269380,-0.46826082,0.66107823,-2.16015745

>  <Name>
ligand

>  <RI>
0

>  <Rbt.Current_Directory>
/home/itssahil/PROJECTS/Mol_Feturizer/New_Systems/rnas/4JIY

>  <Rbt.Executable>
rbdock ($Id: //depot/dev/client3/rdock/2013.1/src/exe/rbdock.cxx#4 $)

>  <Rbt.Library>
libRbt.so (2013.1, Build901 2013/11/27)

>  <Rbt.Parameter_File>
/export/apps/rDock/src/rDock_2013.1_src/data/scripts/dock_solv.prm

>  <Rbt.Receptor>
prm/pocket_docking_6.prm

>  <SCORE>
-6.44735

>  <SCORE.INTER>
-5.86318

>  <SCORE.INTER.CONST>
1

>  <SCORE.INTER.POLAR>
0

>  <SCORE.INTER.ROT>
6

>  <SCORE.INTER.SOLV>
2.35202

>  <SCORE.INTER.VDW>
-12.2928

>  <SCORE.INTER.norm>
-0.202179

>  <SCORE.INTRA>
-0.584171

>  <SCORE.INTRA.DIHEDRAL>
0.0503603

>  <SCORE.INTRA.DIHEDRAL.0>
7.2424

>  <SCORE.INTRA.POLAR>
0

>  <SCORE.INTRA.POLAR.0>
0

>  <SCORE.INTRA.REPUL>
0

>  <SCORE.INTRA.REPUL.0>
0

>  <SCORE.INTRA.SOLV>
-0.00906521

>  <SCORE.INTRA.SOLV.lig_0>
-3.36201

>  <SCORE.INTRA.VDW>
-0.604818

>  <SCORE.INTRA.VDW.0>
-0.910526

>  <SCORE.INTRA.norm>
-0.0201438

>  <SCORE.RESTR>
0

>  <SCORE.RESTR.CAVITY>
0

>  <SCORE.RESTR.norm>
0

>  <SCORE.SYSTEM>
0

>  <SCORE.SYSTEM.CONST>
0

>  <SCORE.SYSTEM.DIHEDRAL>
0

>  <SCORE.SYSTEM.SOLV>
0

>  <SCORE.SYSTEM.norm>
0

>  <SCORE.heavy>
29

>  <SCORE.norm>
-0.222322

>  <RMSD>
6.539

$$$$
ligand
 OpenBabel11021811503D
libRbt.so/2013.1/901 2013/11/27
 29 32  0  0  0  0  0  0  0  0999 V2000
   46.2768   41.5371   39.7824 C   0  0  0  0  0  0  0  0  0  0  0  0
   51.3566   49.0239   48.0663 C   0  0  0  0  0  0  0  0  0  0  0  0
   52.7092   49.1547   48.4082 C   0  0  0  0  0  0  0  0  0  0  0  0
   53.6558   48.4323   47.7693 C   0  0  0  0  0  0  0  0  0  0  0  0
   53.2497   47.5098   46.8147 C   0  0  0  0  0  0  0  0  0  0  0  0
   51.9280   47.4453   46.4608 C   0  0  0  0  0  0  0  0  0  0  0  0
   51.3696   46.6158   45.3953 C   0  0  0  0  0  0  0  0  0  0  0  0
   51.1288   46.1716   43.1246 C   0  0  0  0  0  0  0  0  0  0  0  0
   49.9385   46.6416   42.6056 C   0  0  0  0  0  0  0  0  0  0  0  0
   49.2885   45.8928   41.6228 C   0  0  0  0  0  0  0  0  0  0  0  0
   49.8418   44.7594   41.0867 C   0  0  0  0  0  0  0  0  0  0  0  0
   51.0639   44.3125   41.6339 C   0  0  0  0  0  0  0  0  0  0  0  0
   51.6747   44.9808   42.6891 C   0  0  0  0  0  0  0  0  0  0  0  0
   49.2003   44.0255   39.9110 C   0  0  0  0  0  0  0  0  0  0  0  0
   47.9943   43.1862   40.3094 C   0  0  0  0  0  0  0  0  0  0  0  0
   47.3748   42.3143   39.4510 C   0  0  0  0  0  0  0  0  0  0  0  0
   45.8050   41.6479   41.0629 C   0  0  0  0  0  0  0  0  0  0  0  0
   46.4082   42.5102   41.9108 C   0  0  0  0  0  0  0  0  0  0  0  0
   47.4891   43.2937   41.5749 C   0  0  0  0  0  0  0  0  0  0  0  0
   44.1845   40.0334   40.6656 C   0  0  0  0  0  0  0  0  0  0  0  0
   42.9921   39.3095   41.0521 C   0  0  0  0  0  0  0  0  0  0  0  0
   42.5110   39.1851   42.3618 C   0  0  0  0  0  0  0  0  0  0  0  0
   41.3643   38.4448   42.5647 C   0  0  0  0  0  0  0  0  0  0  0  0
   40.7326   37.8940   41.4609 C   0  0  0  0  0  0  0  0  0  0  0  0
   41.2650   38.0133   40.1954 C   0  0  0  0  0  0  0  0  0  0  0  0
   50.9747   48.1742   47.0980 N   0  0  0  0  0  0  0  0  0  0  0  0
   51.7780   46.9185   44.1932 N   0  0  0  0  0  0  0  0  0  0  0  0
   44.6521   40.8682   41.5257 N   0  0  0  0  0  0  0  0  0  0  0  0
   42.3522   38.7405   39.9867 N   0  0  0  0  0  0  0  0  0  0  0  0
  1 17  2  0  0  0  0
  1 16  1  0  0  0  0
  2  3  2  0  0  0  0
  2 26  1  0  0  0  0
  3  4  1  0  0  0  0
  4  5  2  0  0  0  0
  5  6  1  0  0  0  0
  6  7  1  0  0  0  0
  6 26  2  0  0  0  0
  7 27  2  0  0  0  0
  8  9  2  0  0  0  0
  8 13  1  0  0  0  0
  8 27  1  0  0  0  0
  9 10  1  0  0  0  0
 10 11  2  0  0  0  0
 11 12  1  0  0  0  0
 11 14  1  0  0  0  0
 12 13  2  0  0  0  0
 14 15  1  0  0  0  0
 15 16  2  0  0  0  0
 15 19  1  0  0  0  0
 17 18  1  0  0  0  0
 17 28  1  0  0  0  0
 18 19  2  0  0  0  0
 20 21  1  0  0  0  0
 20 28  2  0  0  0  0
 21 22  2  0  0  0  0
 21 29  1  0  0  0  0
 22 23  1  0  0  0  0
 23 24  2  0  0  0  0
 24 25  1  0  0  0  0
 25 29  2  0  0  0  0
M  END
>  <CHROM.1>
-64.22241198,-76.95236653,-171.35206340,-16.92489201,86.59723467,3.81165336
47.94504986,43.69039743,42.78014533,-2.56143691,0.61820245,1.27734325

>  <Name>
ligand

>  <RI>
0

>  <Rbt.Current_Directory>
/home/itssahil/PROJECTS/Mol_Feturizer/New_Systems/rnas/4JIY

>  <Rbt.Executable>
rbdock ($Id: //depot/dev/client3/rdock/2013.1/src/exe/rbdock.cxx#4 $)

>  <Rbt.Library>
libRbt.so (2013.1, Build901 2013/11/27)

>  <Rbt.Parameter_File>
/export/apps/rDock/src/rDock_2013.1_src/data/scripts/dock_solv.prm

>  <Rbt.Receptor>
prm/pocket_docking_7.prm

>  <SCORE>
-8.13466

>  <SCORE.INTER>
-9.00006

>  <SCORE.INTER.CONST>
1

>  <SCORE.INTER.POLAR>
0

>  <SCORE.INTER.ROT>
6

>  <SCORE.INTER.SOLV>
2.77403

>  <SCORE.INTER.VDW>
-14.5247

>  <SCORE.INTER.norm>
-0.310347

>  <SCORE.INTRA>
0.865405

>  <SCORE.INTRA.DIHEDRAL>
0.575335

>  <SCORE.INTRA.DIHEDRAL.0>
7.2424

>  <SCORE.INTRA.POLAR>
0

>  <SCORE.INTRA.POLAR.0>
0

>  <SCORE.INTRA.REPUL>
0

>  <SCORE.INTRA.REPUL.0>
0

>  <SCORE.INTRA.SOLV>
-0.0165873

>  <SCORE.INTRA.SOLV.lig_0>
-3.36201

>  <SCORE.INTRA.VDW>
0.586031

>  <SCORE.INTRA.VDW.0>
-0.910526

>  <SCORE.INTRA.norm>
0.0298415

>  <SCORE.RESTR>
0

>  <SCORE.RESTR.CAVITY>
0

>  <SCORE.RESTR.norm>
0

>  <SCORE.SYSTEM>
0

>  <SCORE.SYSTEM.CONST>
0

>  <SCORE.SYSTEM.DIHEDRAL>
0

>  <SCORE.SYSTEM.SOLV>
0

>  <SCORE.SYSTEM.norm>
0

>  <SCORE.heavy>
29

>  <SCORE.norm>
-0.280505

>  <RMSD>
6.566

$$$$
ligand
 OpenBabel11021811503D
libRbt.so/2013.1/901 2013/11/27
 29 32  0  0  0  0  0  0  0  0999 V2000
   44.3215   35.7985   39.3181 C   0  0  0  0  0  0  0  0  0  0  0  0
   49.4517   47.1934   41.7060 C   0  0  0  0  0  0  0  0  0  0  0  0
   49.4732   47.2442   43.1062 C   0  0  0  0  0  0  0  0  0  0  0  0
   48.7612   46.3609   43.8402 C   0  0  0  0  0  0  0  0  0  0  0  0
   47.9560   45.4468   43.1742 C   0  0  0  0  0  0  0  0  0  0  0  0
   47.9996   45.3829   41.8066 C   0  0  0  0  0  0  0  0  0  0  0  0
   47.3060   44.4011   40.9758 C   0  0  0  0  0  0  0  0  0  0  0  0
   46.8005   42.1799   40.5051 C   0  0  0  0  0  0  0  0  0  0  0  0
   45.6079   41.5810   40.8604 C   0  0  0  0  0  0  0  0  0  0  0  0
   45.0768   40.5909   40.0317 C   0  0  0  0  0  0  0  0  0  0  0  0
   45.6481   40.2648   38.8294 C   0  0  0  0  0  0  0  0  0  0  0  0
   46.8614   40.9031   38.4931 C   0  0  0  0  0  0  0  0  0  0  0  0
   47.4671   41.8115   39.3538 C   0  0  0  0  0  0  0  0  0  0  0  0
   44.9862   39.2891   37.8587 C   0  0  0  0  0  0  0  0  0  0  0  0
   44.3111   38.1135   38.5516 C   0  0  0  0  0  0  0  0  0  0  0  0
   44.9082   36.8871   38.6935 C   0  0  0  0  0  0  0  0  0  0  0  0
   43.0686   35.9854   39.8378 C   0  0  0  0  0  0  0  0  0  0  0  0
   42.4734   37.1903   39.6952 C   0  0  0  0  0  0  0  0  0  0  0  0
   43.0516   38.2661   39.0600 C   0  0  0  0  0  0  0  0  0  0  0  0
   41.5084   34.2666   39.7966 C   0  0  0  0  0  0  0  0  0  0  0  0
   40.7194   33.2520   40.4625 C   0  0  0  0  0  0  0  0  0  0  0  0
   39.5606   33.4918   41.2120 C   0  0  0  0  0  0  0  0  0  0  0  0
   38.9316   32.4125   41.7983 C   0  0  0  0  0  0  0  0  0  0  0  0
   39.4591   31.1485   41.5865 C   0  0  0  0  0  0  0  0  0  0  0  0
   40.6231   30.9671   40.8713 C   0  0  0  0  0  0  0  0  0  0  0  0
   48.7188   46.2665   41.0662 N   0  0  0  0  0  0  0  0  0  0  0  0
   47.3885   43.1690   41.3981 N   0  0  0  0  0  0  0  0  0  0  0  0
   42.3547   34.9047   40.5259 N   0  0  0  0  0  0  0  0  0  0  0  0
   41.2219   31.9931   40.2855 N   0  0  0  0  0  0  0  0  0  0  0  0
  1 17  2  0  0  0  0
  1 16  1  0  0  0  0
  2  3  2  0  0  0  0
  2 26  1  0  0  0  0
  3  4  1  0  0  0  0
  4  5  2  0  0  0  0
  5  6  1  0  0  0  0
  6  7  1  0  0  0  0
  6 26  2  0  0  0  0
  7 27  2  0  0  0  0
  8  9  2  0  0  0  0
  8 13  1  0  0  0  0
  8 27  1  0  0  0  0
  9 10  1  0  0  0  0
 10 11  2  0  0  0  0
 11 12  1  0  0  0  0
 11 14  1  0  0  0  0
 12 13  2  0  0  0  0
 14 15  1  0  0  0  0
 15 16  2  0  0  0  0
 15 19  1  0  0  0  0
 17 18  1  0  0  0  0
 17 28  1  0  0  0  0
 18 19  2  0  0  0  0
 20 21  1  0  0  0  0
 20 28  2  0  0  0  0
 21 22  2  0  0  0  0
 21 29  1  0  0  0  0
 22 23  1  0  0  0  0
 23 24  2  0  0  0  0
 24 25  1  0  0  0  0
 25 29  2  0  0  0  0
M  END
>  <CHROM.1>
-44.83349397,-38.48397798,-97.53861238,82.06156851,-107.24305373,-97.39487956
44.69540347,39.19741320,40.49833044,-2.64238291,0.94008918,1.07479001

>  <Name>
ligand

>  <RI>
0

>  <Rbt.Current_Directory>
/home/itssahil/PROJECTS/Mol_Feturizer/New_Systems/rnas/4JIY

>  <Rbt.Executable>
rbdock ($Id: //depot/dev/client3/rdock/2013.1/src/exe/rbdock.cxx#4 $)

>  <Rbt.Library>
libRbt.so (2013.1, Build901 2013/11/27)

>  <Rbt.Parameter_File>
/export/apps/rDock/src/rDock_2013.1_src/data/scripts/dock_solv.prm

>  <Rbt.Receptor>
prm/pocket_docking_8.prm

>  <SCORE>
-8.22454

>  <SCORE.INTER>
-7.348

>  <SCORE.INTER.CONST>
1

>  <SCORE.INTER.POLAR>
0

>  <SCORE.INTER.ROT>
6

>  <SCORE.INTER.SOLV>
2.55377

>  <SCORE.INTER.VDW>
-13.3499

>  <SCORE.INTER.norm>
-0.253379

>  <SCORE.INTRA>
-0.876541

>  <SCORE.INTRA.DIHEDRAL>
0.0942402

>  <SCORE.INTRA.DIHEDRAL.0>
7.2424

>  <SCORE.INTRA.POLAR>
0

>  <SCORE.INTRA.POLAR.0>
0

>  <SCORE.INTRA.REPUL>
0

>  <SCORE.INTRA.REPUL.0>
0

>  <SCORE.INTRA.SOLV>
-0.0198839

>  <SCORE.INTRA.SOLV.lig_0>
-3.36201

>  <SCORE.INTRA.VDW>
-0.913719

>  <SCORE.INTRA.VDW.0>
-0.910526

>  <SCORE.INTRA.norm>
-0.0302256

>  <SCORE.RESTR>
0

>  <SCORE.RESTR.CAVITY>
0

>  <SCORE.RESTR.norm>
0

>  <SCORE.SYSTEM>
0

>  <SCORE.SYSTEM.CONST>
0

>  <SCORE.SYSTEM.DIHEDRAL>
0

>  <SCORE.SYSTEM.SOLV>
0

>  <SCORE.SYSTEM.norm>
0

>  <SCORE.heavy>
29

>  <SCORE.norm>
-0.283605

>  <RMSD>
6.602

$$$$
ligand
 OpenBabel11021811503D
libRbt.so/2013.1/901 2013/11/27
 29 32  0  0  0  0  0  0  0  0999 V2000
   46.7063   41.4167   38.9996 C   0  0  0  0  0  0  0  0  0  0  0  0
   37.9443   43.0877   48.3805 C   0  0  0  0  0  0  0  0  0  0  0  0
   36.9054   43.9821   48.0901 C   0  0  0  0  0  0  0  0  0  0  0  0
   36.6293   44.3287   46.8135 C   0  0  0  0  0  0  0  0  0  0  0  0
   37.4420   43.8308   45.8040 C   0  0  0  0  0  0  0  0  0  0  0  0
   38.4124   42.9143   46.1118 C   0  0  0  0  0  0  0  0  0  0  0  0
   39.2614   42.2150   45.1498 C   0  0  0  0  0  0  0  0  0  0  0  0
   41.2931   42.0427   44.0302 C   0  0  0  0  0  0  0  0  0  0  0  0
   42.1999   41.0606   44.3772 C   0  0  0  0  0  0  0  0  0  0  0  0
   43.0138   40.5125   43.3842 C   0  0  0  0  0  0  0  0  0  0  0  0
   42.8735   40.8457   42.0622 C   0  0  0  0  0  0  0  0  0  0  0  0
   41.9305   41.8460   41.7417 C   0  0  0  0  0  0  0  0  0  0  0  0
   41.1866   42.4853   42.7271 C   0  0  0  0  0  0  0  0  0  0  0  0
   43.6622   40.1378   40.9626 C   0  0  0  0  0  0  0  0  0  0  0  0
   44.9649   40.8407   40.6066 C   0  0  0  0  0  0  0  0  0  0  0  0
   45.5237   40.7889   39.3552 C   0  0  0  0  0  0  0  0  0  0  0  0
   47.3345   42.1479   39.9719 C   0  0  0  0  0  0  0  0  0  0  0  0
   46.7911   42.1972   41.2083 C   0  0  0  0  0  0  0  0  0  0  0  0
   45.6242   41.5593   41.5642 C   0  0  0  0  0  0  0  0  0  0  0  0
   48.5328   44.1341   39.8742 C   0  0  0  0  0  0  0  0  0  0  0  0
   49.7249   44.8822   39.5358 C   0  0  0  0  0  0  0  0  0  0  0  0
   49.7485   46.0810   38.8114 C   0  0  0  0  0  0  0  0  0  0  0  0
   50.9740   46.6626   38.5582 C   0  0  0  0  0  0  0  0  0  0  0  0
   52.1102   46.0494   39.0620 C   0  0  0  0  0  0  0  0  0  0  0  0
   52.0391   44.8505   39.7379 C   0  0  0  0  0  0  0  0  0  0  0  0
   38.6886   42.5601   47.3941 N   0  0  0  0  0  0  0  0  0  0  0  0
   40.4859   42.6601   45.0736 N   0  0  0  0  0  0  0  0  0  0  0  0
   48.5890   42.8598   39.7060 N   0  0  0  0  0  0  0  0  0  0  0  0
   50.8666   44.2957   40.0060 N   0  0  0  0  0  0  0  0  0  0  0  0
  1 17  2  0  0  0  0
  1 16  1  0  0  0  0
  2  3  2  0  0  0  0
  2 26  1  0  0  0  0
  3  4  1  0  0  0  0
  4  5  2  0  0  0  0
  5  6  1  0  0  0  0
  6  7  1  0  0  0  0
  6 26  2  0  0  0  0
  7 27  2  0  0  0  0
  8  9  2  0  0  0  0
  8 13  1  0  0  0  0
  8 27  1  0  0  0  0
  9 10  1  0  0  0  0
 10 11  2  0  0  0  0
 11 12  1  0  0  0  0
 11 14  1  0  0  0  0
 12 13  2  0  0  0  0
 14 15  1  0  0  0  0
 15 16  2  0  0  0  0
 15 19  1  0  0  0  0
 17 18  1  0  0  0  0
 17 28  1  0  0  0  0
 18 19  2  0  0  0  0
 20 21  1  0  0  0  0
 20 28  2  0  0  0  0
 21 22  2  0  0  0  0
 21 29  1  0  0  0  0
 22 23  1  0  0  0  0
 23 24  2  0  0  0  0
 24 25  1  0  0  0  0
 25 29  2  0  0  0  0
M  END
>  <CHROM.1>
103.97545374,-92.98524819,-150.33600901,135.57929544,-101.34849426,119.61257941
44.19405683,42.86287731,42.39020090,0.15678574,-0.53443867,-2.63329672

>  <Name>
ligand

>  <RI>
0

>  <Rbt.Current_Directory>
/home/itssahil/PROJECTS/Mol_Feturizer/New_Systems/rnas/4JIY

>  <Rbt.Executable>
rbdock ($Id: //depot/dev/client3/rdock/2013.1/src/exe/rbdock.cxx#4 $)

>  <Rbt.Library>
libRbt.so (2013.1, Build901 2013/11/27)

>  <Rbt.Parameter_File>
/export/apps/rDock/src/rDock_2013.1_src/data/scripts/dock_solv.prm

>  <Rbt.Receptor>
prm/pocket_docking_7.prm

>  <SCORE>
-9.79218

>  <SCORE.INTER>
-9.65566

>  <SCORE.INTER.CONST>
1

>  <SCORE.INTER.POLAR>
0

>  <SCORE.INTER.ROT>
6

>  <SCORE.INTER.SOLV>
2.99246

>  <SCORE.INTER.VDW>
-15.0346

>  <SCORE.INTER.norm>
-0.332954

>  <SCORE.INTRA>
-0.13652

>  <SCORE.INTRA.DIHEDRAL>
0.913861

>  <SCORE.INTRA.DIHEDRAL.0>
7.2424

>  <SCORE.INTRA.POLAR>
0

>  <SCORE.INTRA.POLAR.0>
0

>  <SCORE.INTRA.REPUL>
0

>  <SCORE.INTRA.REPUL.0>
0

>  <SCORE.INTRA.SOLV>
-0.01383

>  <SCORE.INTRA.SOLV.lig_0>
-3.36201

>  <SCORE.INTRA.VDW>
-0.586536

>  <SCORE.INTRA.VDW.0>
-0.910526

>  <SCORE.INTRA.norm>
-0.0047076

>  <SCORE.RESTR>
0

>  <SCORE.RESTR.CAVITY>
0

>  <SCORE.RESTR.norm>
0

>  <SCORE.SYSTEM>
0

>  <SCORE.SYSTEM.CONST>
0

>  <SCORE.SYSTEM.DIHEDRAL>
0

>  <SCORE.SYSTEM.SOLV>
0

>  <SCORE.SYSTEM.norm>
0

>  <SCORE.heavy>
29

>  <SCORE.norm>
-0.337662

>  <RMSD>
6.605

$$$$
ligand
 OpenBabel11021811503D
libRbt.so/2013.1/901 2013/11/27
 29 32  0  0  0  0  0  0  0  0999 V2000
   45.6986   41.6748   41.0620 C   0  0  0  0  0  0  0  0  0  0  0  0
   54.3100   47.9043   47.5989 C   0  0  0  0  0  0  0  0  0  0  0  0
   54.2000   49.2944   47.7365 C   0  0  0  0  0  0  0  0  0  0  0  0
   53.3067   49.9926   47.0012 C   0  0  0  0  0  0  0  0  0  0  0  0
   52.5496   49.3092   46.0594 C   0  0  0  0  0  0  0  0  0  0  0  0
   52.6370   47.9441   45.9877 C   0  0  0  0  0  0  0  0  0  0  0  0
   51.8215   47.0805   45.1366 C   0  0  0  0  0  0  0  0  0  0  0  0
   51.1889   46.3933   43.0062 C   0  0  0  0  0  0  0  0  0  0  0  0
   50.1146   47.0288   42.4155 C   0  0  0  0  0  0  0  0  0  0  0  0
   49.2259   46.2767   41.6450 C   0  0  0  0  0  0  0  0  0  0  0  0
   49.4398   44.9502   41.3748 C   0  0  0  0  0  0  0  0  0  0  0  0
   50.5528   44.3345   41.9870 C   0  0  0  0  0  0  0  0  0  0  0  0
   51.3892   45.0367   42.8473 C   0  0  0  0  0  0  0  0  0  0  0  0
   48.5481   44.1678   40.4130 C   0  0  0  0  0  0  0  0  0  0  0  0
   47.5049   43.3122   41.1184 C   0  0  0  0  0  0  0  0  0  0  0  0
   46.6575   42.4657   40.4503 C   0  0  0  0  0  0  0  0  0  0  0  0
   45.6199   41.7435   42.4272 C   0  0  0  0  0  0  0  0  0  0  0  0
   46.4486   42.5806   43.0897 C   0  0  0  0  0  0  0  0  0  0  0  0
   47.3899   43.3779   42.4787 C   0  0  0  0  0  0  0  0  0  0  0  0
   43.5275   40.7488   42.5773 C   0  0  0  0  0  0  0  0  0  0  0  0
   42.5083   40.0422   43.3239 C   0  0  0  0  0  0  0  0  0  0  0  0
   41.5803   40.6378   44.1879 C   0  0  0  0  0  0  0  0  0  0  0  0
   40.6808   39.8186   44.8390 C   0  0  0  0  0  0  0  0  0  0  0  0
   40.7211   38.4580   44.5779 C   0  0  0  0  0  0  0  0  0  0  0  0
   41.6771   37.9146   43.7473 C   0  0  0  0  0  0  0  0  0  0  0  0
   53.5307   47.2391   46.7296 N   0  0  0  0  0  0  0  0  0  0  0  0
   52.0830   47.1627   43.8606 N   0  0  0  0  0  0  0  0  0  0  0  0
   44.6467   40.9457   43.1805 N   0  0  0  0  0  0  0  0  0  0  0  0
   42.5303   38.6940   43.0999 N   0  0  0  0  0  0  0  0  0  0  0  0
  1 17  2  0  0  0  0
  1 16  1  0  0  0  0
  2  3  2  0  0  0  0
  2 26  1  0  0  0  0
  3  4  1  0  0  0  0
  4  5  2  0  0  0  0
  5  6  1  0  0  0  0
  6  7  1  0  0  0  0
  6 26  2  0  0  0  0
  7 27  2  0  0  0  0
  8  9  2  0  0  0  0
  8 13  1  0  0  0  0
  8 27  1  0  0  0  0
  9 10  1  0  0  0  0
 10 11  2  0  0  0  0
 11 12  1  0  0  0  0
 11 14  1  0  0  0  0
 12 13  2  0  0  0  0
 14 15  1  0  0  0  0
 15 16  2  0  0  0  0
 15 19  1  0  0  0  0
 17 18  1  0  0  0  0
 17 28  1  0  0  0  0
 18 19  2  0  0  0  0
 20 21  1  0  0  0  0
 20 28  2  0  0  0  0
 21 22  2  0  0  0  0
 21 29  1  0  0  0  0
 22 23  1  0  0  0  0
 23 24  2  0  0  0  0
 24 25  1  0  0  0  0
 25 29  2  0  0  0  0
M  END
>  <CHROM.1>
70.63318043,-100.05497006,-175.77096775,87.26077008,96.41380712,-33.56874043
48.00860046,44.00724544,43.58260407,-2.87970040,0.65107282,1.43244325

>  <Name>
ligand

>  <RI>
0

>  <Rbt.Current_Directory>
/home/itssahil/PROJECTS/Mol_Feturizer/New_Systems/rnas/4JIY

>  <Rbt.Executable>
rbdock ($Id: //depot/dev/client3/rdock/2013.1/src/exe/rbdock.cxx#4 $)

>  <Rbt.Library>
libRbt.so (2013.1, Build901 2013/11/27)

>  <Rbt.Parameter_File>
/export/apps/rDock/src/rDock_2013.1_src/data/scripts/dock_solv.prm

>  <Rbt.Receptor>
prm/pocket_docking_6.prm

>  <SCORE>
-5.99676

>  <SCORE.INTER>
-6.11991

>  <SCORE.INTER.CONST>
1

>  <SCORE.INTER.POLAR>
0

>  <SCORE.INTER.ROT>
6

>  <SCORE.INTER.SOLV>
2.52572

>  <SCORE.INTER.VDW>
-12.5218

>  <SCORE.INTER.norm>
-0.211031

>  <SCORE.INTRA>
0.109993

>  <SCORE.INTRA.DIHEDRAL>
0.413757

>  <SCORE.INTRA.DIHEDRAL.0>
7.2424

>  <SCORE.INTRA.POLAR>
0

>  <SCORE.INTRA.POLAR.0>
0

>  <SCORE.INTRA.REPUL>
0

>  <SCORE.INTRA.REPUL.0>
0

>  <SCORE.INTRA.SOLV>
-0.0169656

>  <SCORE.INTRA.SOLV.lig_0>
-3.36201

>  <SCORE.INTRA.VDW>
-0.0884026

>  <SCORE.INTRA.VDW.0>
-0.910526

>  <SCORE.INTRA.norm>
0.00379287

>  <SCORE.RESTR>
0.0131525

>  <SCORE.RESTR.CAVITY>
0.0131525

>  <SCORE.RESTR.norm>
0.000453535

>  <SCORE.SYSTEM>
0

>  <SCORE.SYSTEM.CONST>
0

>  <SCORE.SYSTEM.DIHEDRAL>
0

>  <SCORE.SYSTEM.SOLV>
0

>  <SCORE.SYSTEM.norm>
0

>  <SCORE.heavy>
29

>  <SCORE.norm>
-0.206785

>  <RMSD>
6.632

$$$$
ligand
 OpenBabel11021811503D
libRbt.so/2013.1/901 2013/11/27
 29 32  0  0  0  0  0  0  0  0999 V2000
   42.2970   40.2428   44.2188 C   0  0  0  0  0  0  0  0  0  0  0  0
   50.6295   46.5662   38.0429 C   0  0  0  0  0  0  0  0  0  0  0  0
   51.9244   46.2990   38.5069 C   0  0  0  0  0  0  0  0  0  0  0  0
   52.1431   45.3319   39.4250 C   0  0  0  0  0  0  0  0  0  0  0  0
   51.0476   44.6570   39.9464 C   0  0  0  0  0  0  0  0  0  0  0  0
   49.8012   44.8990   39.4325 C   0  0  0  0  0  0  0  0  0  0  0  0
   48.5770   44.1866   39.7920 C   0  0  0  0  0  0  0  0  0  0  0  0
   47.4103   42.1828   39.9776 C   0  0  0  0  0  0  0  0  0  0  0  0
   46.8246   41.4829   38.9413 C   0  0  0  0  0  0  0  0  0  0  0  0
   45.5944   40.8595   39.1582 C   0  0  0  0  0  0  0  0  0  0  0  0
   44.9982   40.8362   40.3920 C   0  0  0  0  0  0  0  0  0  0  0  0
   45.6288   41.5537   41.4312 C   0  0  0  0  0  0  0  0  0  0  0  0
   46.7973   42.2743   41.2111 C   0  0  0  0  0  0  0  0  0  0  0  0
   43.7290   40.0303   40.6607 C   0  0  0  0  0  0  0  0  0  0  0  0
   42.9616   40.5045   41.8871 C   0  0  0  0  0  0  0  0  0  0  0  0
   42.9833   39.8379   43.0855 C   0  0  0  0  0  0  0  0  0  0  0  0
   41.5688   41.3981   44.1206 C   0  0  0  0  0  0  0  0  0  0  0  0
   41.5393   42.0554   42.9401 C   0  0  0  0  0  0  0  0  0  0  0  0
   42.2089   41.6427   41.8103 C   0  0  0  0  0  0  0  0  0  0  0  0
   39.5528   41.6430   45.2458 C   0  0  0  0  0  0  0  0  0  0  0  0
   38.7518   42.2198   46.3047 C   0  0  0  0  0  0  0  0  0  0  0  0
   38.8159   41.8564   47.6560 C   0  0  0  0  0  0  0  0  0  0  0  0
   37.9700   42.4939   48.5405 C   0  0  0  0  0  0  0  0  0  0  0  0
   37.1287   43.4808   48.0516 C   0  0  0  0  0  0  0  0  0  0  0  0
   37.0759   43.7775   46.7068 C   0  0  0  0  0  0  0  0  0  0  0  0
   49.5792   45.8672   38.5055 N   0  0  0  0  0  0  0  0  0  0  0  0
   48.6632   42.8855   39.7371 N   0  0  0  0  0  0  0  0  0  0  0  0
   40.8082   41.9245   45.2588 N   0  0  0  0  0  0  0  0  0  0  0  0
   37.8992   43.1880   45.8530 N   0  0  0  0  0  0  0  0  0  0  0  0
  1 17  2  0  0  0  0
  1 16  1  0  0  0  0
  2  3  2  0  0  0  0
  2 26  1  0  0  0  0
  3  4  1  0  0  0  0
  4  5  2  0  0  0  0
  5  6  1  0  0  0  0
  6  7  1  0  0  0  0
  6 26  2  0  0  0  0
  7 27  2  0  0  0  0
  8  9  2  0  0  0  0
  8 13  1  0  0  0  0
  8 27  1  0  0  0  0
  9 10  1  0  0  0  0
 10 11  2  0  0  0  0
 11 12  1  0  0  0  0
 11 14  1  0  0  0  0
 12 13  2  0  0  0  0
 14 15  1  0  0  0  0
 15 16  2  0  0  0  0
 15 19  1  0  0  0  0
 17 18  1  0  0  0  0
 17 28  1  0  0  0  0
 18 19  2  0  0  0  0
 20 21  1  0  0  0  0
 20 28  2  0  0  0  0
 21 22  2  0  0  0  0
 21 29  1  0  0  0  0
 22 23  1  0  0  0  0
 23 24  2  0  0  0  0
 24 25  1  0  0  0  0
 25 29  2  0  0  0  0
M  END
>  <CHROM.1>
-50.77143139,-159.44430265,-103.61512118,-69.62442980,112.67340152,-98.59617382
44.30108119,42.63249436,42.29758014,3.03024156,0.58872432,0.50257968

>  <Name>
ligand

>  <RI>
0

>  <Rbt.Current_Directory>
/home/itssahil/PROJECTS/Mol_Feturizer/New_Systems/rnas/4JIY

>  <Rbt.Executable>
rbdock ($Id: //depot/dev/client3/rdock/2013.1/src/exe/rbdock.cxx#4 $)

>  <Rbt.Library>
libRbt.so (2013.1, Build901 2013/11/27)

>  <Rbt.Parameter_File>
/export/apps/rDock/src/rDock_2013.1_src/data/scripts/dock_solv.prm

>  <Rbt.Receptor>
prm/pocket_docking_7.prm

>  <SCORE>
-11.1433

>  <SCORE.INTER>
-10.3949

>  <SCORE.INTER.CONST>
1

>  <SCORE.INTER.POLAR>
0

>  <SCORE.INTER.ROT>
6

>  <SCORE.INTER.SOLV>
3.17074

>  <SCORE.INTER.VDW>
-15.5868

>  <SCORE.INTER.norm>
-0.358444

>  <SCORE.INTRA>
-0.748468

>  <SCORE.INTRA.DIHEDRAL>
-0.00241215

>  <SCORE.INTRA.DIHEDRAL.0>
7.2424

>  <SCORE.INTRA.POLAR>
0

>  <SCORE.INTRA.POLAR.0>
0

>  <SCORE.INTRA.REPUL>
0

>  <SCORE.INTRA.REPUL.0>
0

>  <SCORE.INTRA.SOLV>
-0.0191622

>  <SCORE.INTRA.SOLV.lig_0>
-3.36201

>  <SCORE.INTRA.VDW>
-0.737681

>  <SCORE.INTRA.VDW.0>
-0.910526

>  <SCORE.INTRA.norm>
-0.0258093

>  <SCORE.RESTR>
0

>  <SCORE.RESTR.CAVITY>
0

>  <SCORE.RESTR.norm>
0

>  <SCORE.SYSTEM>
0

>  <SCORE.SYSTEM.CONST>
0

>  <SCORE.SYSTEM.DIHEDRAL>
0

>  <SCORE.SYSTEM.SOLV>
0

>  <SCORE.SYSTEM.norm>
0

>  <SCORE.heavy>
29

>  <SCORE.norm>
-0.384253

>  <RMSD>
6.637

$$$$
ligand
 OpenBabel11021811503D
libRbt.so/2013.1/901 2013/11/27
 29 32  0  0  0  0  0  0  0  0999 V2000
   43.1075   41.2398   44.6281 C   0  0  0  0  0  0  0  0  0  0  0  0
   49.3930   43.0166   35.9076 C   0  0  0  0  0  0  0  0  0  0  0  0
   50.6994   42.5234   35.7901 C   0  0  0  0  0  0  0  0  0  0  0  0
   51.3718   42.0836   36.8767 C   0  0  0  0  0  0  0  0  0  0  0  0
   50.7629   42.1952   38.1193 C   0  0  0  0  0  0  0  0  0  0  0  0
   49.4652   42.6267   38.1965 C   0  0  0  0  0  0  0  0  0  0  0  0
   48.6555   42.6827   39.4117 C   0  0  0  0  0  0  0  0  0  0  0  0
   47.6181   43.9452   41.0673 C   0  0  0  0  0  0  0  0  0  0  0  0
   48.1663   44.6789   42.1008 C   0  0  0  0  0  0  0  0  0  0  0  0
   47.5215   44.6866   43.3390 C   0  0  0  0  0  0  0  0  0  0  0  0
   46.3123   44.0716   43.5336 C   0  0  0  0  0  0  0  0  0  0  0  0
   45.7759   43.3384   42.4531 C   0  0  0  0  0  0  0  0  0  0  0  0
   46.4541   43.2246   41.2447 C   0  0  0  0  0  0  0  0  0  0  0  0
   45.5395   44.2053   44.8440 C   0  0  0  0  0  0  0  0  0  0  0  0
   44.2675   43.3698   44.8822 C   0  0  0  0  0  0  0  0  0  0  0  0
   44.2469   42.0274   44.6020 C   0  0  0  0  0  0  0  0  0  0  0  0
   41.9367   41.8580   44.9769 C   0  0  0  0  0  0  0  0  0  0  0  0
   41.9505   43.1819   45.2480 C   0  0  0  0  0  0  0  0  0  0  0  0
   43.0811   43.9663   45.2058 C   0  0  0  0  0  0  0  0  0  0  0  0
   40.3928   40.6280   46.1991 C   0  0  0  0  0  0  0  0  0  0  0  0
   39.1961   39.8180   46.2838 C   0  0  0  0  0  0  0  0  0  0  0  0
   37.8925   40.2751   46.0509 C   0  0  0  0  0  0  0  0  0  0  0  0
   36.8549   39.3759   46.1889 C   0  0  0  0  0  0  0  0  0  0  0  0
   37.1598   38.0641   46.5162 C   0  0  0  0  0  0  0  0  0  0  0  0
   38.4557   37.6707   46.7716 C   0  0  0  0  0  0  0  0  0  0  0  0
   48.7850   43.0646   37.1049 N   0  0  0  0  0  0  0  0  0  0  0  0
   48.3204   43.8852   39.7927 N   0  0  0  0  0  0  0  0  0  0  0  0
   40.6704   41.1209   45.0436 N   0  0  0  0  0  0  0  0  0  0  0  0
   39.4609   38.5198   46.6198 N   0  0  0  0  0  0  0  0  0  0  0  0
  1 17  2  0  0  0  0
  1 16  1  0  0  0  0
  2  3  2  0  0  0  0
  2 26  1  0  0  0  0
  3  4  1  0  0  0  0
  4  5  2  0  0  0  0
  5  6  1  0  0  0  0
  6  7  1  0  0  0  0
  6 26  2  0  0  0  0
  7 27  2  0  0  0  0
  8  9  2  0  0  0  0
  8 13  1  0  0  0  0
  8 27  1  0  0  0  0
  9 10  1  0  0  0  0
 10 11  2  0  0  0  0
 11 12  1  0  0  0  0
 11 14  1  0  0  0  0
 12 13  2  0  0  0  0
 14 15  1  0  0  0  0
 15 16  2  0  0  0  0
 15 19  1  0  0  0  0
 17 18  1  0  0  0  0
 17 28  1  0  0  0  0
 18 19  2  0  0  0  0
 20 21  1  0  0  0  0
 20 28  2  0  0  0  0
 21 22  2  0  0  0  0
 21 29  1  0  0  0  0
 22 23  1  0  0  0  0
 23 24  2  0  0  0  0
 24 25  1  0  0  0  0
 25 29  2  0  0  0  0
M  END
>  <CHROM.1>
114.41980182,-176.20215260,52.45850401,-63.13286250,120.52337094,91.54948365
44.60219832,42.11408160,42.72348060,-2.83644760,-0.63278531,-2.26606500

>  <Name>
ligand

>  <RI>
0

>  <Rbt.Current_Directory>
/home/itssahil/PROJECTS/Mol_Feturizer/New_Systems/rnas/4JIY

>  <Rbt.Executable>
rbdock ($Id: //depot/dev/client3/rdock/2013.1/src/exe/rbdock.cxx#4 $)

>  <Rbt.Library>
libRbt.so (2013.1, Build901 2013/11/27)

>  <Rbt.Parameter_File>
/export/apps/rDock/src/rDock_2013.1_src/data/scripts/dock_solv.prm

>  <Rbt.Receptor>
prm/pocket_docking_8.prm

>  <SCORE>
902.59

>  <SCORE.INTER>
892.092

>  <SCORE.INTER.CONST>
1

>  <SCORE.INTER.POLAR>
0

>  <SCORE.INTER.ROT>
6

>  <SCORE.INTER.SOLV>
4.95304

>  <SCORE.INTER.VDW>
585.477

>  <SCORE.INTER.norm>
30.7618

>  <SCORE.INTRA>
-0.0723087

>  <SCORE.INTRA.DIHEDRAL>
0.444772

>  <SCORE.INTRA.DIHEDRAL.0>
7.2424

>  <SCORE.INTRA.POLAR>
0

>  <SCORE.INTRA.POLAR.0>
0

>  <SCORE.INTRA.REPUL>
0

>  <SCORE.INTRA.REPUL.0>
0

>  <SCORE.INTRA.SOLV>
-0.0162559

>  <SCORE.INTRA.SOLV.lig_0>
-3.36201

>  <SCORE.INTRA.VDW>
-0.286567

>  <SCORE.INTRA.VDW.0>
-0.910526

>  <SCORE.INTRA.norm>
-0.0024934

>  <SCORE.RESTR>
10.5703

>  <SCORE.RESTR.CAVITY>
10.5703

>  <SCORE.RESTR.norm>
0.364494

>  <SCORE.SYSTEM>
0

>  <SCORE.SYSTEM.CONST>
0

>  <SCORE.SYSTEM.DIHEDRAL>
0

>  <SCORE.SYSTEM.SOLV>
0

>  <SCORE.SYSTEM.norm>
0

>  <SCORE.heavy>
29

>  <SCORE.norm>
31.1238

>  <RMSD>
6.640

$$$$
ligand
 OpenBabel11021811503D
libRbt.so/2013.1/901 2013/11/27
 29 32  0  0  0  0  0  0  0  0999 V2000
   51.1098   44.8877   43.2441 C   0  0  0  0  0  0  0  0  0  0  0  0
   42.1957   39.1776   44.8138 C   0  0  0  0  0  0  0  0  0  0  0  0
   41.4149   38.3589   43.9869 C   0  0  0  0  0  0  0  0  0  0  0  0
   41.5522   38.4033   42.6433 C   0  0  0  0  0  0  0  0  0  0  0  0
   42.4355   39.3265   42.1003 C   0  0  0  0  0  0  0  0  0  0  0  0
   43.2264   40.0720   42.9340 C   0  0  0  0  0  0  0  0  0  0  0  0
   44.2808   40.9919   42.5129 C   0  0  0  0  0  0  0  0  0  0  0  0
   45.9160   41.5881   40.9695 C   0  0  0  0  0  0  0  0  0  0  0  0
   46.4410   42.4506   41.9115 C   0  0  0  0  0  0  0  0  0  0  0  0
   47.4866   43.2985   41.5417 C   0  0  0  0  0  0  0  0  0  0  0  0
   48.0737   43.2331   40.3050 C   0  0  0  0  0  0  0  0  0  0  0  0
   47.5182   42.3336   39.3697 C   0  0  0  0  0  0  0  0  0  0  0  0
   46.4065   41.5583   39.6795 C   0  0  0  0  0  0  0  0  0  0  0  0
   49.3105   44.0571   39.9535 C   0  0  0  0  0  0  0  0  0  0  0  0
   49.8815   44.8237   41.1384 C   0  0  0  0  0  0  0  0  0  0  0  0
   50.5781   44.2192   42.1534 C   0  0  0  0  0  0  0  0  0  0  0  0
   50.9332   46.2449   43.2835 C   0  0  0  0  0  0  0  0  0  0  0  0
   50.2423   46.8446   42.2887 C   0  0  0  0  0  0  0  0  0  0  0  0
   49.7006   46.1764   41.2139 C   0  0  0  0  0  0  0  0  0  0  0  0
   50.6318   47.2549   45.3522 C   0  0  0  0  0  0  0  0  0  0  0  0
   51.0827   48.1239   46.4184 C   0  0  0  0  0  0  0  0  0  0  0  0
   51.2281   49.5138   46.3214 C   0  0  0  0  0  0  0  0  0  0  0  0
   51.6859   50.1975   47.4291 C   0  0  0  0  0  0  0  0  0  0  0  0
   51.9441   49.4790   48.5858 C   0  0  0  0  0  0  0  0  0  0  0  0
   51.8208   48.1069   48.6211 C   0  0  0  0  0  0  0  0  0  0  0  0
   43.0941   40.0256   44.2854 N   0  0  0  0  0  0  0  0  0  0  0  0
   44.7850   40.7461   41.3344 N   0  0  0  0  0  0  0  0  0  0  0  0
   51.4590   47.0551   44.3872 N   0  0  0  0  0  0  0  0  0  0  0  0
   51.3605   47.4437   47.5710 N   0  0  0  0  0  0  0  0  0  0  0  0
  1 17  2  0  0  0  0
  1 16  1  0  0  0  0
  2  3  2  0  0  0  0
  2 26  1  0  0  0  0
  3  4  1  0  0  0  0
  4  5  2  0  0  0  0
  5  6  1  0  0  0  0
  6  7  1  0  0  0  0
  6 26  2  0  0  0  0
  7 27  2  0  0  0  0
  8  9  2  0  0  0  0
  8 13  1  0  0  0  0
  8 27  1  0  0  0  0
  9 10  1  0  0  0  0
 10 11  2  0  0  0  0
 11 12  1  0  0  0  0
 11 14  1  0  0  0  0
 12 13  2  0  0  0  0
 14 15  1  0  0  0  0
 15 16  2  0  0  0  0
 15 19  1  0  0  0  0
 17 18  1  0  0  0  0
 17 28  1  0  0  0  0
 18 19  2  0  0  0  0
 20 21  1  0  0  0  0
 20 28  2  0  0  0  0
 21 22  2  0  0  0  0
 21 29  1  0  0  0  0
 22 23  1  0  0  0  0
 23 24  2  0  0  0  0
 24 25  1  0  0  0  0
 25 29  2  0  0  0  0
M  END
>  <CHROM.1>
-23.70561307,5.77542723,73.96564494,72.35811104,6.57750122,-92.88419068,47.85694043
43.99671916,43.33072058,-0.52939250,-0.69167965,-1.89537384

>  <Name>
ligand

>  <RI>
0

>  <Rbt.Current_Directory>
/home/itssahil/PROJECTS/Mol_Feturizer/New_Systems/rnas/4JIY

>  <Rbt.Executable>
rbdock ($Id: //depot/dev/client3/rdock/2013.1/src/exe/rbdock.cxx#4 $)

>  <Rbt.Library>
libRbt.so (2013.1, Build901 2013/11/27)

>  <Rbt.Parameter_File>
/export/apps/rDock/src/rDock_2013.1_src/data/scripts/dock_solv.prm

>  <Rbt.Receptor>
prm/pocket_docking_7.prm

>  <SCORE>
-9.69783

>  <SCORE.INTER>
-10.7229

>  <SCORE.INTER.CONST>
1

>  <SCORE.INTER.POLAR>
0

>  <SCORE.INTER.ROT>
6

>  <SCORE.INTER.SOLV>
3.14687

>  <SCORE.INTER.VDW>
-15.7976

>  <SCORE.INTER.norm>
-0.369756

>  <SCORE.INTRA>
1.02509

>  <SCORE.INTRA.DIHEDRAL>
0.425547

>  <SCORE.INTRA.DIHEDRAL.0>
7.2424

>  <SCORE.INTRA.POLAR>
0

>  <SCORE.INTRA.POLAR.0>
0

>  <SCORE.INTRA.REPUL>
0

>  <SCORE.INTRA.REPUL.0>
0

>  <SCORE.INTRA.SOLV>
-0.0158374

>  <SCORE.INTRA.SOLV.lig_0>
-3.36201

>  <SCORE.INTRA.VDW>
0.82024

>  <SCORE.INTRA.VDW.0>
-0.910526

>  <SCORE.INTRA.norm>
0.0353481

>  <SCORE.RESTR>
0

>  <SCORE.RESTR.CAVITY>
0

>  <SCORE.RESTR.norm>
0

>  <SCORE.SYSTEM>
0

>  <SCORE.SYSTEM.CONST>
0

>  <SCORE.SYSTEM.DIHEDRAL>
0

>  <SCORE.SYSTEM.SOLV>
0

>  <SCORE.SYSTEM.norm>
0

>  <SCORE.heavy>
29

>  <SCORE.norm>
-0.334408

>  <RMSD>
6.678

$$$$
ligand
 OpenBabel11021811503D
libRbt.so/2013.1/901 2013/11/27
 29 32  0  0  0  0  0  0  0  0999 V2000
   46.7314   41.0071   38.5296 C   0  0  0  0  0  0  0  0  0  0  0  0
   35.1835   42.1031   34.4665 C   0  0  0  0  0  0  0  0  0  0  0  0
   35.0979   43.3950   33.9304 C   0  0  0  0  0  0  0  0  0  0  0  0
   35.9904   44.3478   34.2792 C   0  0  0  0  0  0  0  0  0  0  0  0
   36.9512   44.0353   35.2314 C   0  0  0  0  0  0  0  0  0  0  0  0
   37.0465   42.7496   35.6943 C   0  0  0  0  0  0  0  0  0  0  0  0
   38.0746   42.2433   36.6009 C   0  0  0  0  0  0  0  0  0  0  0  0
   40.2911   41.6460   36.9774 C   0  0  0  0  0  0  0  0  0  0  0  0
   40.9092   42.4138   37.9444 C   0  0  0  0  0  0  0  0  0  0  0  0
   41.9122   41.8365   38.7253 C   0  0  0  0  0  0  0  0  0  0  0  0
   42.2337   40.5076   38.6308 C   0  0  0  0  0  0  0  0  0  0  0  0
   41.5756   39.7498   37.6382 C   0  0  0  0  0  0  0  0  0  0  0  0
   40.6528   40.3293   36.7747 C   0  0  0  0  0  0  0  0  0  0  0  0
   43.2252   39.8465   39.5858 C   0  0  0  0  0  0  0  0  0  0  0  0
   44.5929   40.5152   39.5935 C   0  0  0  0  0  0  0  0  0  0  0  0
   45.4808   40.4114   38.5534 C   0  0  0  0  0  0  0  0  0  0  0  0
   47.0779   41.7606   39.6190 C   0  0  0  0  0  0  0  0  0  0  0  0
   46.2089   41.8610   40.6491 C   0  0  0  0  0  0  0  0  0  0  0  0
   44.9732   41.2551   40.6780 C   0  0  0  0  0  0  0  0  0  0  0  0
   48.3053   43.7122   39.8928 C   0  0  0  0  0  0  0  0  0  0  0  0
   49.5601   44.4339   39.8885 C   0  0  0  0  0  0  0  0  0  0  0  0
   49.9882   45.3048   38.8783 C   0  0  0  0  0  0  0  0  0  0  0  0
   51.2231   45.9046   39.0183 C   0  0  0  0  0  0  0  0  0  0  0  0
   51.9569   45.6405   40.1640 C   0  0  0  0  0  0  0  0  0  0  0  0
   51.5093   44.7472   41.1131 C   0  0  0  0  0  0  0  0  0  0  0  0
   36.1537   41.7883   35.3412 N   0  0  0  0  0  0  0  0  0  0  0  0
   39.2878   42.2620   36.1199 N   0  0  0  0  0  0  0  0  0  0  0  0
   48.3742   42.4421   39.6992 N   0  0  0  0  0  0  0  0  0  0  0  0
   50.3159   44.1838   40.9997 N   0  0  0  0  0  0  0  0  0  0  0  0
  1 17  2  0  0  0  0
  1 16  1  0  0  0  0
  2  3  2  0  0  0  0
  2 26  1  0  0  0  0
  3  4  1  0  0  0  0
  4  5  2  0  0  0  0
  5  6  1  0  0  0  0
  6  7  1  0  0  0  0
  6 26  2  0  0  0  0
  7 27  2  0  0  0  0
  8  9  2  0  0  0  0
  8 13  1  0  0  0  0
  8 27  1  0  0  0  0
  9 10  1  0  0  0  0
 10 11  2  0  0  0  0
 11 12  1  0  0  0  0
 11 14  1  0  0  0  0
 12 13  2  0  0  0  0
 14 15  1  0  0  0  0
 15 16  2  0  0  0  0
 15 19  1  0  0  0  0
 17 18  1  0  0  0  0
 17 28  1  0  0  0  0
 18 19  2  0  0  0  0
 20 21  1  0  0  0  0
 20 28  2  0  0  0  0
 21 22  2  0  0  0  0
 21 29  1  0  0  0  0
 22 23  1  0  0  0  0
 23 24  2  0  0  0  0
 24 25  1  0  0  0  0
 25 29  2  0  0  0  0
M  END
>  <CHROM.1>
-64.35745933,-56.93260051,-72.07978478,108.49176855,-87.36282773,123.76681840
43.47689686,42.48934991,38.11836519,0.03694458,0.36304823,2.72563636

>  <Name>
ligand

>  <RI>
0

>  <Rbt.Current_Directory>
/home/itssahil/PROJECTS/Mol_Feturizer/New_Systems/rnas/4JIY

>  <Rbt.Executable>
rbdock ($Id: //depot/dev/client3/rdock/2013.1/src/exe/rbdock.cxx#4 $)

>  <Rbt.Library>
libRbt.so (2013.1, Build901 2013/11/27)

>  <Rbt.Parameter_File>
/export/apps/rDock/src/rDock_2013.1_src/data/scripts/dock_solv.prm

>  <Rbt.Receptor>
prm/pocket_docking_8.prm

>  <SCORE>
-11.1233

>  <SCORE.INTER>
-10.5119

>  <SCORE.INTER.CONST>
1

>  <SCORE.INTER.POLAR>
0

>  <SCORE.INTER.ROT>
6

>  <SCORE.INTER.SOLV>
3.14548

>  <SCORE.INTER.VDW>
-15.6564

>  <SCORE.INTER.norm>
-0.362478

>  <SCORE.INTRA>
-0.61148

>  <SCORE.INTRA.DIHEDRAL>
0.384986

>  <SCORE.INTRA.DIHEDRAL.0>
7.2424

>  <SCORE.INTRA.POLAR>
0

>  <SCORE.INTRA.POLAR.0>
0

>  <SCORE.INTRA.REPUL>
0

>  <SCORE.INTRA.REPUL.0>
0

>  <SCORE.INTRA.SOLV>
-0.0182058

>  <SCORE.INTRA.SOLV.lig_0>
-3.36201

>  <SCORE.INTRA.VDW>
-0.79487

>  <SCORE.INTRA.VDW.0>
-0.910526

>  <SCORE.INTRA.norm>
-0.0210855

>  <SCORE.RESTR>
0

>  <SCORE.RESTR.CAVITY>
0

>  <SCORE.RESTR.norm>
0

>  <SCORE.SYSTEM>
0

>  <SCORE.SYSTEM.CONST>
0

>  <SCORE.SYSTEM.DIHEDRAL>
0

>  <SCORE.SYSTEM.SOLV>
0

>  <SCORE.SYSTEM.norm>
0

>  <SCORE.heavy>
29

>  <SCORE.norm>
-0.383563

>  <RMSD>
6.688

$$$$
ligand
 OpenBabel11021811503D
libRbt.so/2013.1/901 2013/11/27
 29 32  0  0  0  0  0  0  0  0999 V2000
   46.6608   42.2818   41.1964 C   0  0  0  0  0  0  0  0  0  0  0  0
   37.4478   47.1898   37.1755 C   0  0  0  0  0  0  0  0  0  0  0  0
   36.3858   47.4677   38.0465 C   0  0  0  0  0  0  0  0  0  0  0  0
   36.2948   46.8485   39.2441 C   0  0  0  0  0  0  0  0  0  0  0  0
   37.2401   45.8823   39.5610 C   0  0  0  0  0  0  0  0  0  0  0  0
   38.2980   45.6735   38.7164 C   0  0  0  0  0  0  0  0  0  0  0  0
   39.4286   44.7828   38.9691 C   0  0  0  0  0  0  0  0  0  0  0  0
   40.2277   42.6498   39.4412 C   0  0  0  0  0  0  0  0  0  0  0  0
   41.0096   42.0980   38.4457 C   0  0  0  0  0  0  0  0  0  0  0  0
   42.0340   41.2188   38.8016 C   0  0  0  0  0  0  0  0  0  0  0  0
   42.3519   40.9634   40.1100 C   0  0  0  0  0  0  0  0  0  0  0  0
   41.5380   41.5515   41.1022 C   0  0  0  0  0  0  0  0  0  0  0  0
   40.4438   42.3420   40.7694 C   0  0  0  0  0  0  0  0  0  0  0  0
   43.5642   40.1191   40.4968 C   0  0  0  0  0  0  0  0  0  0  0  0
   44.8882   40.8509   40.3261 C   0  0  0  0  0  0  0  0  0  0  0  0
   45.4586   41.6045   41.3199 C   0  0  0  0  0  0  0  0  0  0  0  0
   47.3169   42.1633   40.0006 C   0  0  0  0  0  0  0  0  0  0  0  0
   46.7561   41.4268   39.0160 C   0  0  0  0  0  0  0  0  0  0  0  0
   45.5534   40.7677   39.1350 C   0  0  0  0  0  0  0  0  0  0  0  0
   48.5745   44.1117   39.8871 C   0  0  0  0  0  0  0  0  0  0  0  0
   49.7992   44.8156   39.5709 C   0  0  0  0  0  0  0  0  0  0  0  0
   49.8845   45.9848   38.8043 C   0  0  0  0  0  0  0  0  0  0  0  0
   51.1346   46.5248   38.5807 C   0  0  0  0  0  0  0  0  0  0  0  0
   52.2325   45.9023   39.1534 C   0  0  0  0  0  0  0  0  0  0  0  0
   52.1015   44.7323   39.8698 C   0  0  0  0  0  0  0  0  0  0  0  0
   38.3948   46.2986   37.5139 N   0  0  0  0  0  0  0  0  0  0  0  0
   39.1194   43.5188   39.0697 N   0  0  0  0  0  0  0  0  0  0  0  0
   48.6002   42.8316   39.7603 N   0  0  0  0  0  0  0  0  0  0  0  0
   50.9046   44.2184   40.1095 N   0  0  0  0  0  0  0  0  0  0  0  0
  1 17  2  0  0  0  0
  1 16  1  0  0  0  0
  2  3  2  0  0  0  0
  2 26  1  0  0  0  0
  3  4  1  0  0  0  0
  4  5  2  0  0  0  0
  5  6  1  0  0  0  0
  6  7  1  0  0  0  0
  6 26  2  0  0  0  0
  7 27  2  0  0  0  0
  8  9  2  0  0  0  0
  8 13  1  0  0  0  0
  8 27  1  0  0  0  0
  9 10  1  0  0  0  0
 10 11  2  0  0  0  0
 11 12  1  0  0  0  0
 11 14  1  0  0  0  0
 12 13  2  0  0  0  0
 14 15  1  0  0  0  0
 15 16  2  0  0  0  0
 15 19  1  0  0  0  0
 17 18  1  0  0  0  0
 17 28  1  0  0  0  0
 18 19  2  0  0  0  0
 20 21  1  0  0  0  0
 20 28  2  0  0  0  0
 21 22  2  0  0  0  0
 21 29  1  0  0  0  0
 22 23  1  0  0  0  0
 23 24  2  0  0  0  0
 24 25  1  0  0  0  0
 25 29  2  0  0  0  0
M  END
>  <CHROM.1>
63.53273336,74.78057879,89.55953282,135.13983486,-89.61852232,-58.76266209
43.92468774,43.67961701,39.45304361,0.10257299,0.04597076,2.85045637

>  <Name>
ligand

>  <RI>
0

>  <Rbt.Current_Directory>
/home/itssahil/PROJECTS/Mol_Feturizer/New_Systems/rnas/4JIY

>  <Rbt.Executable>
rbdock ($Id: //depot/dev/client3/rdock/2013.1/src/exe/rbdock.cxx#4 $)

>  <Rbt.Library>
libRbt.so (2013.1, Build901 2013/11/27)

>  <Rbt.Parameter_File>
/export/apps/rDock/src/rDock_2013.1_src/data/scripts/dock_solv.prm

>  <Rbt.Receptor>
prm/pocket_docking_7.prm

>  <SCORE>
-9.74696

>  <SCORE.INTER>
-9.02464

>  <SCORE.INTER.CONST>
1

>  <SCORE.INTER.POLAR>
0

>  <SCORE.INTER.ROT>
6

>  <SCORE.INTER.SOLV>
2.86154

>  <SCORE.INTER.VDW>
-14.5703

>  <SCORE.INTER.norm>
-0.311194

>  <SCORE.INTRA>
-0.722328

>  <SCORE.INTRA.DIHEDRAL>
0.273632

>  <SCORE.INTRA.DIHEDRAL.0>
7.2424

>  <SCORE.INTRA.POLAR>
0

>  <SCORE.INTRA.POLAR.0>
0

>  <SCORE.INTRA.REPUL>
0

>  <SCORE.INTRA.REPUL.0>
0

>  <SCORE.INTRA.SOLV>
-0.0158594

>  <SCORE.INTRA.SOLV.lig_0>
-3.36201

>  <SCORE.INTRA.VDW>
-0.851214

>  <SCORE.INTRA.VDW.0>
-0.910526

>  <SCORE.INTRA.norm>
-0.0249079

>  <SCORE.RESTR>
0

>  <SCORE.RESTR.CAVITY>
0

>  <SCORE.RESTR.norm>
0

>  <SCORE.SYSTEM>
0

>  <SCORE.SYSTEM.CONST>
0

>  <SCORE.SYSTEM.DIHEDRAL>
0

>  <SCORE.SYSTEM.SOLV>
0

>  <SCORE.SYSTEM.norm>
0

>  <SCORE.heavy>
29

>  <SCORE.norm>
-0.336102

>  <RMSD>
6.699

$$$$
ligand
 OpenBabel11021811503D
libRbt.so/2013.1/901 2013/11/27
 29 32  0  0  0  0  0  0  0  0999 V2000
   45.2815   42.9517   39.8015 C   0  0  0  0  0  0  0  0  0  0  0  0
   51.6834   45.6796   49.7916 C   0  0  0  0  0  0  0  0  0  0  0  0
   51.2024   44.7772   50.7496 C   0  0  0  0  0  0  0  0  0  0  0  0
   50.2112   43.9105   50.4456 C   0  0  0  0  0  0  0  0  0  0  0  0
   49.6357   43.9822   49.1842 C   0  0  0  0  0  0  0  0  0  0  0  0
   50.1645   44.8338   48.2508 C   0  0  0  0  0  0  0  0  0  0  0  0
   49.7472   44.9342   46.8540 C   0  0  0  0  0  0  0  0  0  0  0  0
   49.6237   43.9917   44.7308 C   0  0  0  0  0  0  0  0  0  0  0  0
   50.6391   44.3311   43.8586 C   0  0  0  0  0  0  0  0  0  0  0  0
   50.3341   44.5231   42.5099 C   0  0  0  0  0  0  0  0  0  0  0  0
   49.0809   44.2891   42.0068 C   0  0  0  0  0  0  0  0  0  0  0  0
   48.0690   43.9343   42.9248 C   0  0  0  0  0  0  0  0  0  0  0  0
   48.3243   43.8452   44.2886 C   0  0  0  0  0  0  0  0  0  0  0  0
   48.7857   44.3568   40.5100 C   0  0  0  0  0  0  0  0  0  0  0  0
   47.6565   43.4328   40.0754 C   0  0  0  0  0  0  0  0  0  0  0  0
   46.3315   43.7689   40.1873 C   0  0  0  0  0  0  0  0  0  0  0  0
   45.6098   41.7388   39.2575 C   0  0  0  0  0  0  0  0  0  0  0  0
   46.9138   41.4004   39.1506 C   0  0  0  0  0  0  0  0  0  0  0  0
   47.9555   42.2072   39.5496 C   0  0  0  0  0  0  0  0  0  0  0  0
   44.4950   39.7174   39.5046 C   0  0  0  0  0  0  0  0  0  0  0  0
   43.5522   38.7224   39.0393 C   0  0  0  0  0  0  0  0  0  0  0  0
   43.4510   38.2588   37.7213 C   0  0  0  0  0  0  0  0  0  0  0  0
   42.4846   37.3155   37.4373 C   0  0  0  0  0  0  0  0  0  0  0  0
   41.6907   36.8535   38.4751 C   0  0  0  0  0  0  0  0  0  0  0  0
   41.8037   37.3673   39.7489 C   0  0  0  0  0  0  0  0  0  0  0  0
   51.1648   45.7026   48.5522 N   0  0  0  0  0  0  0  0  0  0  0  0
   49.9270   43.8510   46.1484 N   0  0  0  0  0  0  0  0  0  0  0  0
   44.5803   40.7958   38.8081 N   0  0  0  0  0  0  0  0  0  0  0  0
   42.7427   38.2559   40.0371 N   0  0  0  0  0  0  0  0  0  0  0  0
  1 17  2  0  0  0  0
  1 16  1  0  0  0  0
  2  3  2  0  0  0  0
  2 26  1  0  0  0  0
  3  4  1  0  0  0  0
  4  5  2  0  0  0  0
  5  6  1  0  0  0  0
  6  7  1  0  0  0  0
  6 26  2  0  0  0  0
  7 27  2  0  0  0  0
  8  9  2  0  0  0  0
  8 13  1  0  0  0  0
  8 27  1  0  0  0  0
  9 10  1  0  0  0  0
 10 11  2  0  0  0  0
 11 12  1  0  0  0  0
 11 14  1  0  0  0  0
 12 13  2  0  0  0  0
 14 15  1  0  0  0  0
 15 16  2  0  0  0  0
 15 19  1  0  0  0  0
 17 18  1  0  0  0  0
 17 28  1  0  0  0  0
 18 19  2  0  0  0  0
 20 21  1  0  0  0  0
 20 28  2  0  0  0  0
 21 22  2  0  0  0  0
 21 29  1  0  0  0  0
 22 23  1  0  0  0  0
 23 24  2  0  0  0  0
 24 25  1  0  0  0  0
 25 29  2  0  0  0  0
M  END
>  <CHROM.1>
-62.52649414,150.32930153,82.67392660,48.55035531,92.61180478,-112.17568416
47.35101740,42.40930904,42.74895575,-2.46109366,0.81149797,1.74831332

>  <Name>
ligand

>  <RI>
0

>  <Rbt.Current_Directory>
/home/itssahil/PROJECTS/Mol_Feturizer/New_Systems/rnas/4JIY

>  <Rbt.Executable>
rbdock ($Id: //depot/dev/client3/rdock/2013.1/src/exe/rbdock.cxx#4 $)

>  <Rbt.Library>
libRbt.so (2013.1, Build901 2013/11/27)

>  <Rbt.Parameter_File>
/export/apps/rDock/src/rDock_2013.1_src/data/scripts/dock_solv.prm

>  <Rbt.Receptor>
prm/pocket_docking_7.prm

>  <SCORE>
-10.4838

>  <SCORE.INTER>
-9.83109

>  <SCORE.INTER.CONST>
1

>  <SCORE.INTER.POLAR>
0

>  <SCORE.INTER.ROT>
6

>  <SCORE.INTER.SOLV>
2.85495

>  <SCORE.INTER.VDW>
-15.1057

>  <SCORE.INTER.norm>
-0.339003

>  <SCORE.INTRA>
-0.652753

>  <SCORE.INTRA.DIHEDRAL>
0.251245

>  <SCORE.INTRA.DIHEDRAL.0>
7.2424

>  <SCORE.INTRA.POLAR>
0

>  <SCORE.INTRA.POLAR.0>
0

>  <SCORE.INTRA.REPUL>
0

>  <SCORE.INTRA.REPUL.0>
0

>  <SCORE.INTRA.SOLV>
-0.0192631

>  <SCORE.INTRA.SOLV.lig_0>
-3.36201

>  <SCORE.INTRA.VDW>
-0.768744

>  <SCORE.INTRA.VDW.0>
-0.910526

>  <SCORE.INTRA.norm>
-0.0225087

>  <SCORE.RESTR>
0

>  <SCORE.RESTR.CAVITY>
0

>  <SCORE.RESTR.norm>
0

>  <SCORE.SYSTEM>
0

>  <SCORE.SYSTEM.CONST>
0

>  <SCORE.SYSTEM.DIHEDRAL>
0

>  <SCORE.SYSTEM.SOLV>
0

>  <SCORE.SYSTEM.norm>
0

>  <SCORE.heavy>
29

>  <SCORE.norm>
-0.361512

>  <RMSD>
6.702

$$$$
ligand
 OpenBabel11021811503D
libRbt.so/2013.1/901 2013/11/27
 29 32  0  0  0  0  0  0  0  0999 V2000
   42.3043   41.4325   43.6951 C   0  0  0  0  0  0  0  0  0  0  0  0
   50.8504   46.2350   38.0305 C   0  0  0  0  0  0  0  0  0  0  0  0
   52.0569   46.1052   38.7313 C   0  0  0  0  0  0  0  0  0  0  0  0
   52.1423   45.3049   39.8168 C   0  0  0  0  0  0  0  0  0  0  0  0
   50.9906   44.6688   40.2599 C   0  0  0  0  0  0  0  0  0  0  0  0
   49.8407   44.7682   39.5223 C   0  0  0  0  0  0  0  0  0  0  0  0
   48.5896   44.0636   39.7934 C   0  0  0  0  0  0  0  0  0  0  0  0
   47.3898   42.0719   39.8600 C   0  0  0  0  0  0  0  0  0  0  0  0
   46.6850   42.2147   41.0389 C   0  0  0  0  0  0  0  0  0  0  0  0
   45.4946   41.5043   41.2039 C   0  0  0  0  0  0  0  0  0  0  0  0
   44.9528   40.7485   40.1971 C   0  0  0  0  0  0  0  0  0  0  0  0
   45.6949   40.6319   39.0019 C   0  0  0  0  0  0  0  0  0  0  0  0
   46.9362   41.2406   38.8555 C   0  0  0  0  0  0  0  0  0  0  0  0
   43.5798   40.0930   40.3285 C   0  0  0  0  0  0  0  0  0  0  0  0
   43.0122   40.1591   41.7396 C   0  0  0  0  0  0  0  0  0  0  0  0
   42.8181   41.3385   42.4120 C   0  0  0  0  0  0  0  0  0  0  0  0
   41.9559   40.2592   44.3089 C   0  0  0  0  0  0  0  0  0  0  0  0
   42.1509   39.0938   43.6529 C   0  0  0  0  0  0  0  0  0  0  0  0
   42.6768   39.0014   42.3840 C   0  0  0  0  0  0  0  0  0  0  0  0
   40.1427   40.5205   45.7351 C   0  0  0  0  0  0  0  0  0  0  0  0
   39.5736   40.5990   47.0638 C   0  0  0  0  0  0  0  0  0  0  0  0
   39.5309   41.7521   47.8580 C   0  0  0  0  0  0  0  0  0  0  0  0
   38.9655   41.6555   49.1131 C   0  0  0  0  0  0  0  0  0  0  0  0
   38.4410   40.4345   49.5064 C   0  0  0  0  0  0  0  0  0  0  0  0
   38.5397   39.3187   48.7036 C   0  0  0  0  0  0  0  0  0  0  0  0
   49.7535   45.5680   38.4274 N   0  0  0  0  0  0  0  0  0  0  0  0
   48.6627   42.7633   39.7090 N   0  0  0  0  0  0  0  0  0  0  0  0
   41.3962   40.2394   45.6644 N   0  0  0  0  0  0  0  0  0  0  0  0
   39.0597   39.4057   47.4885 N   0  0  0  0  0  0  0  0  0  0  0  0
  1 17  2  0  0  0  0
  1 16  1  0  0  0  0
  2  3  2  0  0  0  0
  2 26  1  0  0  0  0
  3  4  1  0  0  0  0
  4  5  2  0  0  0  0
  5  6  1  0  0  0  0
  6  7  1  0  0  0  0
  6 26  2  0  0  0  0
  7 27  2  0  0  0  0
  8  9  2  0  0  0  0
  8 13  1  0  0  0  0
  8 27  1  0  0  0  0
  9 10  1  0  0  0  0
 10 11  2  0  0  0  0
 11 12  1  0  0  0  0
 11 14  1  0  0  0  0
 12 13  2  0  0  0  0
 14 15  1  0  0  0  0
 15 16  2  0  0  0  0
 15 19  1  0  0  0  0
 17 18  1  0  0  0  0
 17 28  1  0  0  0  0
 18 19  2  0  0  0  0
 20 21  1  0  0  0  0
 20 28  2  0  0  0  0
 21 22  2  0  0  0  0
 21 29  1  0  0  0  0
 22 23  1  0  0  0  0
 23 24  2  0  0  0  0
 24 25  1  0  0  0  0
 25 29  2  0  0  0  0
M  END
>  <CHROM.1>
-63.38823254,-10.12024482,57.34410383,88.72769192,-60.64662434,80.01061191
44.62184636,41.83055868,42.54986251,2.83033201,0.66161894,0.96335325

>  <Name>
ligand

>  <RI>
0

>  <Rbt.Current_Directory>
/home/itssahil/PROJECTS/Mol_Feturizer/New_Systems/rnas/4JIY

>  <Rbt.Executable>
rbdock ($Id: //depot/dev/client3/rdock/2013.1/src/exe/rbdock.cxx#4 $)

>  <Rbt.Library>
libRbt.so (2013.1, Build901 2013/11/27)

>  <Rbt.Parameter_File>
/export/apps/rDock/src/rDock_2013.1_src/data/scripts/dock_solv.prm

>  <Rbt.Receptor>
prm/pocket_docking_8.prm

>  <SCORE>
-12.108

>  <SCORE.INTER>
-11.777

>  <SCORE.INTER.CONST>
1

>  <SCORE.INTER.POLAR>
0

>  <SCORE.INTER.ROT>
6

>  <SCORE.INTER.SOLV>
3.37517

>  <SCORE.INTER.VDW>
-16.5764

>  <SCORE.INTER.norm>
-0.406102

>  <SCORE.INTRA>
-0.331044

>  <SCORE.INTRA.DIHEDRAL>
0.170633

>  <SCORE.INTRA.DIHEDRAL.0>
7.2424

>  <SCORE.INTRA.POLAR>
0

>  <SCORE.INTRA.POLAR.0>
0

>  <SCORE.INTRA.REPUL>
0

>  <SCORE.INTRA.REPUL.0>
0

>  <SCORE.INTRA.SOLV>
-0.0194781

>  <SCORE.INTRA.SOLV.lig_0>
-3.36201

>  <SCORE.INTRA.VDW>
-0.406622

>  <SCORE.INTRA.VDW.0>
-0.910526

>  <SCORE.INTRA.norm>
-0.0114153

>  <SCORE.RESTR>
0

>  <SCORE.RESTR.CAVITY>
0

>  <SCORE.RESTR.norm>
0

>  <SCORE.SYSTEM>
0

>  <SCORE.SYSTEM.CONST>
0

>  <SCORE.SYSTEM.DIHEDRAL>
0

>  <SCORE.SYSTEM.SOLV>
0

>  <SCORE.SYSTEM.norm>
0

>  <SCORE.heavy>
29

>  <SCORE.norm>
-0.417517

>  <RMSD>
6.771

$$$$
ligand
 OpenBabel11021811503D
libRbt.so/2013.1/901 2013/11/27
 29 32  0  0  0  0  0  0  0  0999 V2000
   45.6214   41.7180   41.2096 C   0  0  0  0  0  0  0  0  0  0  0  0
   51.5565   45.2965   50.3788 C   0  0  0  0  0  0  0  0  0  0  0  0
   52.9443   45.1765   50.5315 C   0  0  0  0  0  0  0  0  0  0  0  0
   53.7474   45.0307   49.4546 C   0  0  0  0  0  0  0  0  0  0  0  0
   53.1592   44.9348   48.2007 C   0  0  0  0  0  0  0  0  0  0  0  0
   51.8068   45.1134   48.0766 C   0  0  0  0  0  0  0  0  0  0  0  0
   51.0643   45.1602   46.8188 C   0  0  0  0  0  0  0  0  0  0  0  0
   50.3356   44.0914   44.8855 C   0  0  0  0  0  0  0  0  0  0  0  0
   48.9737   43.8854   44.7879 C   0  0  0  0  0  0  0  0  0  0  0  0
   48.3780   43.8979   43.5254 C   0  0  0  0  0  0  0  0  0  0  0  0
   49.0831   44.2058   42.3912 C   0  0  0  0  0  0  0  0  0  0  0  0
   50.4716   44.4201   42.5285 C   0  0  0  0  0  0  0  0  0  0  0  0
   51.1062   44.3038   43.7600 C   0  0  0  0  0  0  0  0  0  0  0  0
   48.4011   44.3633   41.0339 C   0  0  0  0  0  0  0  0  0  0  0  0
   47.4840   43.2006   40.6809 C   0  0  0  0  0  0  0  0  0  0  0  0
   46.4723   42.7716   41.5014 C   0  0  0  0  0  0  0  0  0  0  0  0
   45.8077   41.0875   40.0086 C   0  0  0  0  0  0  0  0  0  0  0  0
   46.8072   41.5024   39.1992 C   0  0  0  0  0  0  0  0  0  0  0  0
   47.6621   42.5392   39.4981 C   0  0  0  0  0  0  0  0  0  0  0  0
   43.7577   40.2849   39.2713 C   0  0  0  0  0  0  0  0  0  0  0  0
   42.8659   39.1935   38.9413 C   0  0  0  0  0  0  0  0  0  0  0  0
   42.1110   39.0938   37.7655 C   0  0  0  0  0  0  0  0  0  0  0  0
   41.2941   37.9926   37.6099 C   0  0  0  0  0  0  0  0  0  0  0  0
   41.2900   37.0299   38.6069 C   0  0  0  0  0  0  0  0  0  0  0  0
   42.0228   37.1907   39.7629 C   0  0  0  0  0  0  0  0  0  0  0  0
   50.9975   45.2654   49.1573 N   0  0  0  0  0  0  0  0  0  0  0  0
   50.9698   44.0180   46.1946 N   0  0  0  0  0  0  0  0  0  0  0  0
   44.9615   39.9640   39.5927 N   0  0  0  0  0  0  0  0  0  0  0  0
   42.8273   38.2322   39.9123 N   0  0  0  0  0  0  0  0  0  0  0  0
  1 17  2  0  0  0  0
  1 16  1  0  0  0  0
  2  3  2  0  0  0  0
  2 26  1  0  0  0  0
  3  4  1  0  0  0  0
  4  5  2  0  0  0  0
  5  6  1  0  0  0  0
  6  7  1  0  0  0  0
  6 26  2  0  0  0  0
  7 27  2  0  0  0  0
  8  9  2  0  0  0  0
  8 13  1  0  0  0  0
  8 27  1  0  0  0  0
  9 10  1  0  0  0  0
 10 11  2  0  0  0  0
 11 12  1  0  0  0  0
 11 14  1  0  0  0  0
 12 13  2  0  0  0  0
 14 15  1  0  0  0  0
 15 16  2  0  0  0  0
 15 19  1  0  0  0  0
 17 18  1  0  0  0  0
 17 28  1  0  0  0  0
 18 19  2  0  0  0  0
 20 21  1  0  0  0  0
 20 28  2  0  0  0  0
 21 22  2  0  0  0  0
 21 29  1  0  0  0  0
 22 23  1  0  0  0  0
 23 24  2  0  0  0  0
 24 25  1  0  0  0  0
 25 29  2  0  0  0  0
M  END
>  <CHROM.1>
70.60042172,-50.15620223,54.20773573,-126.91464150,-92.39494195,71.73647796
47.71918863,42.44651565,42.94794541,-2.57031052,0.72592744,1.79408758

>  <Name>
ligand

>  <RI>
0

>  <Rbt.Current_Directory>
/home/itssahil/PROJECTS/Mol_Feturizer/New_Systems/rnas/4JIY

>  <Rbt.Executable>
rbdock ($Id: //depot/dev/client3/rdock/2013.1/src/exe/rbdock.cxx#4 $)

>  <Rbt.Library>
libRbt.so (2013.1, Build901 2013/11/27)

>  <Rbt.Parameter_File>
/export/apps/rDock/src/rDock_2013.1_src/data/scripts/dock_solv.prm

>  <Rbt.Receptor>
prm/pocket_docking_7.prm

>  <SCORE>
-9.79843

>  <SCORE.INTER>
-9.22991

>  <SCORE.INTER.CONST>
1

>  <SCORE.INTER.POLAR>
0

>  <SCORE.INTER.ROT>
6

>  <SCORE.INTER.SOLV>
2.46268

>  <SCORE.INTER.VDW>
-14.5742

>  <SCORE.INTER.norm>
-0.318273

>  <SCORE.INTRA>
-0.568527

>  <SCORE.INTRA.DIHEDRAL>
0.386938

>  <SCORE.INTRA.DIHEDRAL.0>
7.2424

>  <SCORE.INTRA.POLAR>
0

>  <SCORE.INTRA.POLAR.0>
0

>  <SCORE.INTRA.REPUL>
0

>  <SCORE.INTRA.REPUL.0>
0

>  <SCORE.INTRA.SOLV>
-0.0165375

>  <SCORE.INTRA.SOLV.lig_0>
-3.36201

>  <SCORE.INTRA.VDW>
-0.753727

>  <SCORE.INTRA.VDW.0>
-0.910526

>  <SCORE.INTRA.norm>
-0.0196044

>  <SCORE.RESTR>
0

>  <SCORE.RESTR.CAVITY>
0

>  <SCORE.RESTR.norm>
0

>  <SCORE.SYSTEM>
0

>  <SCORE.SYSTEM.CONST>
0

>  <SCORE.SYSTEM.DIHEDRAL>
0

>  <SCORE.SYSTEM.SOLV>
0

>  <SCORE.SYSTEM.norm>
0

>  <SCORE.heavy>
29

>  <SCORE.norm>
-0.337877

>  <RMSD>
6.777

$$$$
ligand
 OpenBabel11021811503D
libRbt.so/2013.1/901 2013/11/27
 29 32  0  0  0  0  0  0  0  0999 V2000
   47.0434   42.8437   42.2178 C   0  0  0  0  0  0  0  0  0  0  0  0
   39.5117   46.9808   34.4673 C   0  0  0  0  0  0  0  0  0  0  0  0
   38.1220   46.9503   34.6443 C   0  0  0  0  0  0  0  0  0  0  0  0
   37.5385   45.9632   35.3593 C   0  0  0  0  0  0  0  0  0  0  0  0
   38.3411   44.9449   35.8557 C   0  0  0  0  0  0  0  0  0  0  0  0
   39.7010   45.0316   35.7167 C   0  0  0  0  0  0  0  0  0  0  0  0
   40.6776   44.1058   36.2863 C   0  0  0  0  0  0  0  0  0  0  0  0
   41.6667   43.1450   38.1598 C   0  0  0  0  0  0  0  0  0  0  0  0
   42.8235   43.7485   38.6121 C   0  0  0  0  0  0  0  0  0  0  0  0
   43.8525   42.9469   39.1099 C   0  0  0  0  0  0  0  0  0  0  0  0
   43.7132   41.5914   39.2559 C   0  0  0  0  0  0  0  0  0  0  0  0
   42.5140   41.0086   38.7920 C   0  0  0  0  0  0  0  0  0  0  0  0
   41.5201   41.7728   38.1911 C   0  0  0  0  0  0  0  0  0  0  0  0
   44.7817   40.7381   39.9360 C   0  0  0  0  0  0  0  0  0  0  0  0
   45.3843   41.3962   41.1695 C   0  0  0  0  0  0  0  0  0  0  0  0
   46.4719   42.2299   41.1151 C   0  0  0  0  0  0  0  0  0  0  0  0
   46.4574   42.6037   43.4317 C   0  0  0  0  0  0  0  0  0  0  0  0
   45.3892   41.7780   43.4914 C   0  0  0  0  0  0  0  0  0  0  0  0
   44.8325   41.1561   42.3966 C   0  0  0  0  0  0  0  0  0  0  0  0
   47.7620   42.4501   45.3460 C   0  0  0  0  0  0  0  0  0  0  0  0
   48.2217   42.9746   46.6145 C   0  0  0  0  0  0  0  0  0  0  0  0
   47.3948   43.3560   47.6789 C   0  0  0  0  0  0  0  0  0  0  0  0
   47.9920   43.8538   48.8190 C   0  0  0  0  0  0  0  0  0  0  0  0
   49.3758   43.9177   48.8628 C   0  0  0  0  0  0  0  0  0  0  0  0
   50.1455   43.5647   47.7755 C   0  0  0  0  0  0  0  0  0  0  0  0
   40.2907   46.0259   35.0028 N   0  0  0  0  0  0  0  0  0  0  0  0
   40.6163   43.9730   37.5832 N   0  0  0  0  0  0  0  0  0  0  0  0
   46.9740   43.2058   44.6653 N   0  0  0  0  0  0  0  0  0  0  0  0
   49.5839   43.0645   46.6852 N   0  0  0  0  0  0  0  0  0  0  0  0
  1 17  2  0  0  0  0
  1 16  1  0  0  0  0
  2  3  2  0  0  0  0
  2 26  1  0  0  0  0
  3  4  1  0  0  0  0
  4  5  2  0  0  0  0
  5  6  1  0  0  0  0
  6  7  1  0  0  0  0
  6 26  2  0  0  0  0
  7 27  2  0  0  0  0
  8  9  2  0  0  0  0
  8 13  1  0  0  0  0
  8 27  1  0  0  0  0
  9 10  1  0  0  0  0
 10 11  2  0  0  0  0
 11 12  1  0  0  0  0
 11 14  1  0  0  0  0
 12 13  2  0  0  0  0
 14 15  1  0  0  0  0
 15 16  2  0  0  0  0
 15 19  1  0  0  0  0
 17 18  1  0  0  0  0
 17 28  1  0  0  0  0
 18 19  2  0  0  0  0
 20 21  1  0  0  0  0
 20 28  2  0  0  0  0
 21 22  2  0  0  0  0
 21 29  1  0  0  0  0
 22 23  1  0  0  0  0
 23 24  2  0  0  0  0
 24 25  1  0  0  0  0
 25 29  2  0  0  0  0
M  END
>  <CHROM.1>
-57.16995997,40.66261622,-88.64217131,59.02253508,92.82592858,-96.71400819
44.10367655,43.35660262,40.93405930,-0.26082361,0.87417453,-2.62370963

>  <Name>
ligand

>  <RI>
0

>  <Rbt.Current_Directory>
/home/itssahil/PROJECTS/Mol_Feturizer/New_Systems/rnas/4JIY

>  <Rbt.Executable>
rbdock ($Id: //depot/dev/client3/rdock/2013.1/src/exe/rbdock.cxx#4 $)

>  <Rbt.Library>
libRbt.so (2013.1, Build901 2013/11/27)

>  <Rbt.Parameter_File>
/export/apps/rDock/src/rDock_2013.1_src/data/scripts/dock_solv.prm

>  <Rbt.Receptor>
prm/pocket_docking_7.prm

>  <SCORE>
-7.78827

>  <SCORE.INTER>
-6.85157

>  <SCORE.INTER.CONST>
1

>  <SCORE.INTER.POLAR>
0

>  <SCORE.INTER.ROT>
6

>  <SCORE.INTER.SOLV>
2.79212

>  <SCORE.INTER.VDW>
-13.0984

>  <SCORE.INTER.norm>
-0.236261

>  <SCORE.INTRA>
-0.936703

>  <SCORE.INTRA.DIHEDRAL>
0.209105

>  <SCORE.INTRA.DIHEDRAL.0>
7.2424

>  <SCORE.INTRA.POLAR>
0

>  <SCORE.INTRA.POLAR.0>
0

>  <SCORE.INTRA.REPUL>
0

>  <SCORE.INTRA.REPUL.0>
0

>  <SCORE.INTRA.SOLV>
-0.0194082

>  <SCORE.INTRA.SOLV.lig_0>
-3.36201

>  <SCORE.INTRA.VDW>
-1.03155

>  <SCORE.INTRA.VDW.0>
-0.910526

>  <SCORE.INTRA.norm>
-0.0323001

>  <SCORE.RESTR>
0

>  <SCORE.RESTR.CAVITY>
0

>  <SCORE.RESTR.norm>
0

>  <SCORE.SYSTEM>
0

>  <SCORE.SYSTEM.CONST>
0

>  <SCORE.SYSTEM.DIHEDRAL>
0

>  <SCORE.SYSTEM.SOLV>
0

>  <SCORE.SYSTEM.norm>
0

>  <SCORE.heavy>
29

>  <SCORE.norm>
-0.268561

>  <RMSD>
6.778

$$$$
ligand
 OpenBabel11021811503D
libRbt.so/2013.1/901 2013/11/27
 29 32  0  0  0  0  0  0  0  0999 V2000
   41.1470   40.7211   37.7549 C   0  0  0  0  0  0  0  0  0  0  0  0
   50.7276   46.3689   38.0108 C   0  0  0  0  0  0  0  0  0  0  0  0
   51.9863   46.1801   38.5971 C   0  0  0  0  0  0  0  0  0  0  0  0
   52.1436   45.3301   39.6358 C   0  0  0  0  0  0  0  0  0  0  0  0
   51.0179   44.7013   40.1504 C   0  0  0  0  0  0  0  0  0  0  0  0
   49.8117   44.8601   39.5211 C   0  0  0  0  0  0  0  0  0  0  0  0
   48.5702   44.1730   39.8702 C   0  0  0  0  0  0  0  0  0  0  0  0
   47.3483   42.1985   40.0102 C   0  0  0  0  0  0  0  0  0  0  0  0
   46.7402   42.3188   41.2442 C   0  0  0  0  0  0  0  0  0  0  0  0
   45.5525   41.6246   41.4818 C   0  0  0  0  0  0  0  0  0  0  0  0
   44.9195   40.9083   40.4997 C   0  0  0  0  0  0  0  0  0  0  0  0
   45.5640   40.8141   39.2474 C   0  0  0  0  0  0  0  0  0  0  0  0
   46.8019   41.4053   39.0214 C   0  0  0  0  0  0  0  0  0  0  0  0
   43.5482   40.2731   40.7197 C   0  0  0  0  0  0  0  0  0  0  0  0
   42.4705   40.8308   39.8003 C   0  0  0  0  0  0  0  0  0  0  0  0
   42.1222   40.2392   38.6130 C   0  0  0  0  0  0  0  0  0  0  0  0
   40.4857   41.8546   38.1452 C   0  0  0  0  0  0  0  0  0  0  0  0
   40.8294   42.4448   39.3113 C   0  0  0  0  0  0  0  0  0  0  0  0
   41.8099   41.9736   40.1550 C   0  0  0  0  0  0  0  0  0  0  0  0
   39.8483   43.2544   36.4060 C   0  0  0  0  0  0  0  0  0  0  0  0
   38.8321   43.9308   35.6280 C   0  0  0  0  0  0  0  0  0  0  0  0
   39.0778   44.7777   34.5396 C   0  0  0  0  0  0  0  0  0  0  0  0
   37.9950   45.3594   33.9123 C   0  0  0  0  0  0  0  0  0  0  0  0
   36.7242   45.0485   34.3697 C   0  0  0  0  0  0  0  0  0  0  0  0
   36.5350   44.2381   35.4682 C   0  0  0  0  0  0  0  0  0  0  0  0
   49.6517   45.7101   38.4732 N   0  0  0  0  0  0  0  0  0  0  0  0
   48.6190   42.8719   39.7796 N   0  0  0  0  0  0  0  0  0  0  0  0
   39.4302   42.4498   37.3187 N   0  0  0  0  0  0  0  0  0  0  0  0
   37.5657   43.6567   36.0632 N   0  0  0  0  0  0  0  0  0  0  0  0
  1 17  2  0  0  0  0
  1 16  1  0  0  0  0
  2  3  2  0  0  0  0
  2 26  1  0  0  0  0
  3  4  1  0  0  0  0
  4  5  2  0  0  0  0
  5  6  1  0  0  0  0
  6  7  1  0  0  0  0
  6 26  2  0  0  0  0
  7 27  2  0  0  0  0
  8  9  2  0  0  0  0
  8 13  1  0  0  0  0
  8 27  1  0  0  0  0
  9 10  1  0  0  0  0
 10 11  2  0  0  0  0
 11 12  1  0  0  0  0
 11 14  1  0  0  0  0
 12 13  2  0  0  0  0
 14 15  1  0  0  0  0
 15 16  2  0  0  0  0
 15 19  1  0  0  0  0
 17 18  1  0  0  0  0
 17 28  1  0  0  0  0
 18 19  2  0  0  0  0
 20 21  1  0  0  0  0
 20 28  2  0  0  0  0
 21 22  2  0  0  0  0
 21 29  1  0  0  0  0
 22 23  1  0  0  0  0
 23 24  2  0  0  0  0
 24 25  1  0  0  0  0
 25 29  2  0  0  0  0
M  END
>  <CHROM.1>
-60.56214551,117.40643642,94.99051626,-175.82431508,-62.41634387,-85.49059490
44.05708893,43.12087812,38.40555812,3.00881142,-0.27802564,-0.69033060

>  <Name>
ligand

>  <RI>
0

>  <Rbt.Current_Directory>
/home/itssahil/PROJECTS/Mol_Feturizer/New_Systems/rnas/4JIY

>  <Rbt.Executable>
rbdock ($Id: //depot/dev/client3/rdock/2013.1/src/exe/rbdock.cxx#4 $)

>  <Rbt.Library>
libRbt.so (2013.1, Build901 2013/11/27)

>  <Rbt.Parameter_File>
/export/apps/rDock/src/rDock_2013.1_src/data/scripts/dock_solv.prm

>  <Rbt.Receptor>
prm/pocket_docking_7.prm

>  <SCORE>
-10.0847

>  <SCORE.INTER>
-9.58953

>  <SCORE.INTER.CONST>
1

>  <SCORE.INTER.POLAR>
0

>  <SCORE.INTER.ROT>
6

>  <SCORE.INTER.SOLV>
3.01701

>  <SCORE.INTER.VDW>
-14.9987

>  <SCORE.INTER.norm>
-0.330673

>  <SCORE.INTRA>
-0.495368

>  <SCORE.INTRA.DIHEDRAL>
0.0164835

>  <SCORE.INTRA.DIHEDRAL.0>
7.2424

>  <SCORE.INTRA.POLAR>
0

>  <SCORE.INTRA.POLAR.0>
0

>  <SCORE.INTRA.REPUL>
0

>  <SCORE.INTRA.REPUL.0>
0

>  <SCORE.INTRA.SOLV>
-0.010203

>  <SCORE.INTRA.SOLV.lig_0>
-3.36201

>  <SCORE.INTRA.VDW>
-0.498509

>  <SCORE.INTRA.VDW.0>
-0.910526

>  <SCORE.INTRA.norm>
-0.0170817

>  <SCORE.RESTR>
0.000231542

>  <SCORE.RESTR.CAVITY>
0.000231542

>  <SCORE.RESTR.norm>
7.9842e-06

>  <SCORE.SYSTEM>
0

>  <SCORE.SYSTEM.CONST>
0

>  <SCORE.SYSTEM.DIHEDRAL>
0

>  <SCORE.SYSTEM.SOLV>
0

>  <SCORE.SYSTEM.norm>
0

>  <SCORE.heavy>
29

>  <SCORE.norm>
-0.347747

>  <RMSD>
6.792

$$$$
ligand
 OpenBabel11021811503D
libRbt.so/2013.1/901 2013/11/27
 29 32  0  0  0  0  0  0  0  0999 V2000
   41.1368   42.6824   38.1846 C   0  0  0  0  0  0  0  0  0  0  0  0
   51.5368   44.8175   41.0252 C   0  0  0  0  0  0  0  0  0  0  0  0
   51.9307   45.7560   40.0620 C   0  0  0  0  0  0  0  0  0  0  0  0
   51.1337   46.0401   39.0083 C   0  0  0  0  0  0  0  0  0  0  0  0
   49.9483   45.3314   38.8674 C   0  0  0  0  0  0  0  0  0  0  0  0
   49.5624   44.4628   39.8538 C   0  0  0  0  0  0  0  0  0  0  0  0
   48.2936   43.7396   39.9053 C   0  0  0  0  0  0  0  0  0  0  0  0
   47.1095   41.7564   39.6303 C   0  0  0  0  0  0  0  0  0  0  0  0
   46.2245   41.8729   40.6840 C   0  0  0  0  0  0  0  0  0  0  0  0
   45.0273   41.1559   40.6422 C   0  0  0  0  0  0  0  0  0  0  0  0
   44.6580   40.4197   39.5468 C   0  0  0  0  0  0  0  0  0  0  0  0
   45.5822   40.3299   38.4836 C   0  0  0  0  0  0  0  0  0  0  0  0
   46.8273   40.9449   38.5497 C   0  0  0  0  0  0  0  0  0  0  0  0
   43.2855   39.7578   39.4438 C   0  0  0  0  0  0  0  0  0  0  0  0
   42.2782   40.5782   38.6501 C   0  0  0  0  0  0  0  0  0  0  0  0
   42.0455   41.9087   38.8881 C   0  0  0  0  0  0  0  0  0  0  0  0
   40.4482   42.0633   37.1760 C   0  0  0  0  0  0  0  0  0  0  0  0
   40.6695   40.7509   36.9414 C   0  0  0  0  0  0  0  0  0  0  0  0
   41.5611   39.9796   37.6524 C   0  0  0  0  0  0  0  0  0  0  0  0
   38.3451   43.0198   36.9478 C   0  0  0  0  0  0  0  0  0  0  0  0
   37.3181   43.6522   36.1473 C   0  0  0  0  0  0  0  0  0  0  0  0
   36.0542   44.0380   36.6120 C   0  0  0  0  0  0  0  0  0  0  0  0
   35.1810   44.6166   35.7136 C   0  0  0  0  0  0  0  0  0  0  0  0
   35.6122   44.8156   34.4116 C   0  0  0  0  0  0  0  0  0  0  0  0
   36.8526   44.3853   33.9926 C   0  0  0  0  0  0  0  0  0  0  0  0
   50.3593   44.1792   40.9170 N   0  0  0  0  0  0  0  0  0  0  0  0
   48.3860   42.4543   39.6986 N   0  0  0  0  0  0  0  0  0  0  0  0
   39.4662   42.7865   36.3613 N   0  0  0  0  0  0  0  0  0  0  0  0
   37.7067   43.8498   34.8517 N   0  0  0  0  0  0  0  0  0  0  0  0
  1 17  2  0  0  0  0
  1 16  1  0  0  0  0
  2  3  2  0  0  0  0
  2 26  1  0  0  0  0
  3  4  1  0  0  0  0
  4  5  2  0  0  0  0
  5  6  1  0  0  0  0
  6  7  1  0  0  0  0
  6 26  2  0  0  0  0
  7 27  2  0  0  0  0
  8  9  2  0  0  0  0
  8 13  1  0  0  0  0
  8 27  1  0  0  0  0
  9 10  1  0  0  0  0
 10 11  2  0  0  0  0
 11 12  1  0  0  0  0
 11 14  1  0  0  0  0
 12 13  2  0  0  0  0
 14 15  1  0  0  0  0
 15 16  2  0  0  0  0
 15 19  1  0  0  0  0
 17 18  1  0  0  0  0
 17 28  1  0  0  0  0
 18 19  2  0  0  0  0
 20 21  1  0  0  0  0
 20 28  2  0  0  0  0
 21 22  2  0  0  0  0
 21 29  1  0  0  0  0
 22 23  1  0  0  0  0
 23 24  2  0  0  0  0
 24 25  1  0  0  0  0
 25 29  2  0  0  0  0
M  END
>  <CHROM.1>
109.43219390,97.06929080,-49.95488281,-177.23901457,-55.34076258,-75.09214361
43.60976643,42.82918566,38.23779537,3.06820546,-0.31933350,-0.34802849

>  <Name>
ligand

>  <RI>
0

>  <Rbt.Current_Directory>
/home/itssahil/PROJECTS/Mol_Feturizer/New_Systems/rnas/4JIY

>  <Rbt.Executable>
rbdock ($Id: //depot/dev/client3/rdock/2013.1/src/exe/rbdock.cxx#4 $)

>  <Rbt.Library>
libRbt.so (2013.1, Build901 2013/11/27)

>  <Rbt.Parameter_File>
/export/apps/rDock/src/rDock_2013.1_src/data/scripts/dock_solv.prm

>  <Rbt.Receptor>
prm/pocket_docking_8.prm

>  <SCORE>
-10.8791

>  <SCORE.INTER>
-10.7528

>  <SCORE.INTER.CONST>
1

>  <SCORE.INTER.POLAR>
0

>  <SCORE.INTER.ROT>
6

>  <SCORE.INTER.SOLV>
3.20807

>  <SCORE.INTER.VDW>
-15.8379

>  <SCORE.INTER.norm>
-0.370787

>  <SCORE.INTRA>
-0.126242

>  <SCORE.INTRA.DIHEDRAL>
0.382594

>  <SCORE.INTRA.DIHEDRAL.0>
7.2424

>  <SCORE.INTRA.POLAR>
0

>  <SCORE.INTRA.POLAR.0>
0

>  <SCORE.INTRA.REPUL>
0

>  <SCORE.INTRA.REPUL.0>
0

>  <SCORE.INTRA.SOLV>
-0.00726639

>  <SCORE.INTRA.SOLV.lig_0>
-3.36201

>  <SCORE.INTRA.VDW>
-0.313906

>  <SCORE.INTRA.VDW.0>
-0.910526

>  <SCORE.INTRA.norm>
-0.00435317

>  <SCORE.RESTR>
0

>  <SCORE.RESTR.CAVITY>
0

>  <SCORE.RESTR.norm>
0

>  <SCORE.SYSTEM>
0

>  <SCORE.SYSTEM.CONST>
0

>  <SCORE.SYSTEM.DIHEDRAL>
0

>  <SCORE.SYSTEM.SOLV>
0

>  <SCORE.SYSTEM.norm>
0

>  <SCORE.heavy>
29

>  <SCORE.norm>
-0.375141

>  <RMSD>
6.793

$$$$
ligand
 OpenBabel11021811503D
libRbt.so/2013.1/901 2013/11/27
 29 32  0  0  0  0  0  0  0  0999 V2000
   45.1872   42.8858   39.8241 C   0  0  0  0  0  0  0  0  0  0  0  0
   51.9054   44.9918   49.5374 C   0  0  0  0  0  0  0  0  0  0  0  0
   53.3019   45.0108   49.6508 C   0  0  0  0  0  0  0  0  0  0  0  0
   54.0835   45.0563   48.5494 C   0  0  0  0  0  0  0  0  0  0  0  0
   53.4718   45.0152   47.3039 C   0  0  0  0  0  0  0  0  0  0  0  0
   52.1049   45.0552   47.2239 C   0  0  0  0  0  0  0  0  0  0  0  0
   51.3245   45.1388   45.9913 C   0  0  0  0  0  0  0  0  0  0  0  0
   50.6540   44.1819   43.9799 C   0  0  0  0  0  0  0  0  0  0  0  0
   49.2792   44.0609   43.9326 C   0  0  0  0  0  0  0  0  0  0  0  0
   48.6385   44.1234   42.6938 C   0  0  0  0  0  0  0  0  0  0  0  0
   49.3182   44.3995   41.5362 C   0  0  0  0  0  0  0  0  0  0  0  0
   50.7215   44.5269   41.6222 C   0  0  0  0  0  0  0  0  0  0  0  0
   51.3934   44.3586   42.8277 C   0  0  0  0  0  0  0  0  0  0  0  0
   48.5968   44.6132   40.2072 C   0  0  0  0  0  0  0  0  0  0  0  0
   47.5264   43.5675   39.9269 C   0  0  0  0  0  0  0  0  0  0  0  0
   46.1851   43.8146   40.0709 C   0  0  0  0  0  0  0  0  0  0  0  0
   45.5866   41.6500   39.3908 C   0  0  0  0  0  0  0  0  0  0  0  0
   46.9075   41.3995   39.2531 C   0  0  0  0  0  0  0  0  0  0  0  0
   47.8984   42.3187   39.5144 C   0  0  0  0  0  0  0  0  0  0  0  0
   44.3267   39.8286   40.0876 C   0  0  0  0  0  0  0  0  0  0  0  0
   43.4414   38.7171   39.8115 C   0  0  0  0  0  0  0  0  0  0  0  0
   43.8204   37.5139   39.2025 C   0  0  0  0  0  0  0  0  0  0  0  0
   42.8482   36.5567   38.9954 C   0  0  0  0  0  0  0  0  0  0  0  0
   41.5595   36.8225   39.4306 C   0  0  0  0  0  0  0  0  0  0  0  0
   41.2275   38.0366   39.9918 C   0  0  0  0  0  0  0  0  0  0  0  0
   51.3166   45.0149   48.3298 N   0  0  0  0  0  0  0  0  0  0  0  0
   51.3311   44.0557   45.2632 N   0  0  0  0  0  0  0  0  0  0  0  0
   44.6164   40.5912   39.0927 N   0  0  0  0  0  0  0  0  0  0  0  0
   42.1571   38.9531   40.2159 N   0  0  0  0  0  0  0  0  0  0  0  0
  1 17  2  0  0  0  0
  1 16  1  0  0  0  0
  2  3  2  0  0  0  0
  2 26  1  0  0  0  0
  3  4  1  0  0  0  0
  4  5  2  0  0  0  0
  5  6  1  0  0  0  0
  6  7  1  0  0  0  0
  6 26  2  0  0  0  0
  7 27  2  0  0  0  0
  8  9  2  0  0  0  0
  8 13  1  0  0  0  0
  8 27  1  0  0  0  0
  9 10  1  0  0  0  0
 10 11  2  0  0  0  0
 11 12  1  0  0  0  0
 11 14  1  0  0  0  0
 12 13  2  0  0  0  0
 14 15  1  0  0  0  0
 15 16  2  0  0  0  0
 15 19  1  0  0  0  0
 17 18  1  0  0  0  0
 17 28  1  0  0  0  0
 18 19  2  0  0  0  0
 20 21  1  0  0  0  0
 20 28  2  0  0  0  0
 21 22  2  0  0  0  0
 21 29  1  0  0  0  0
 22 23  1  0  0  0  0
 23 24  2  0  0  0  0
 24 25  1  0  0  0  0
 25 29  2  0  0  0  0
M  END
>  <CHROM.1>
70.80507709,-46.00604528,103.52217164,78.56271022,-81.62201217,-90.37637660
47.94574993,42.49601905,42.53817203,-2.75738405,0.76001190,1.95314543

>  <Name>
ligand

>  <RI>
0

>  <Rbt.Current_Directory>
/home/itssahil/PROJECTS/Mol_Feturizer/New_Systems/rnas/4JIY

>  <Rbt.Executable>
rbdock ($Id: //depot/dev/client3/rdock/2013.1/src/exe/rbdock.cxx#4 $)

>  <Rbt.Library>
libRbt.so (2013.1, Build901 2013/11/27)

>  <Rbt.Parameter_File>
/export/apps/rDock/src/rDock_2013.1_src/data/scripts/dock_solv.prm

>  <Rbt.Receptor>
prm/pocket_docking_7.prm

>  <SCORE>
-10.9065

>  <SCORE.INTER>
-9.84894

>  <SCORE.INTER.CONST>
1

>  <SCORE.INTER.POLAR>
0

>  <SCORE.INTER.ROT>
6

>  <SCORE.INTER.SOLV>
3.15172

>  <SCORE.INTER.VDW>
-15.2165

>  <SCORE.INTER.norm>
-0.339619

>  <SCORE.INTRA>
-1.05808

>  <SCORE.INTRA.DIHEDRAL>
0.0249458

>  <SCORE.INTRA.DIHEDRAL.0>
7.2424

>  <SCORE.INTRA.POLAR>
0

>  <SCORE.INTRA.POLAR.0>
0

>  <SCORE.INTRA.REPUL>
0

>  <SCORE.INTRA.REPUL.0>
0

>  <SCORE.INTRA.SOLV>
-0.019503

>  <SCORE.INTRA.SOLV.lig_0>
-3.36201

>  <SCORE.INTRA.VDW>
-1.0608

>  <SCORE.INTRA.VDW.0>
-0.910526

>  <SCORE.INTRA.norm>
-0.0364855

>  <SCORE.RESTR>
0.000478945

>  <SCORE.RESTR.CAVITY>
0.000478945

>  <SCORE.RESTR.norm>
1.65154e-05

>  <SCORE.SYSTEM>
0

>  <SCORE.SYSTEM.CONST>
0

>  <SCORE.SYSTEM.DIHEDRAL>
0

>  <SCORE.SYSTEM.SOLV>
0

>  <SCORE.SYSTEM.norm>
0

>  <SCORE.heavy>
29

>  <SCORE.norm>
-0.376088

>  <RMSD>
6.800

$$$$
ligand
 OpenBabel11021811503D
libRbt.so/2013.1/901 2013/11/27
 29 32  0  0  0  0  0  0  0  0999 V2000
   42.2452   39.5862   44.1988 C   0  0  0  0  0  0  0  0  0  0  0  0
   50.7160   46.1346   37.9367 C   0  0  0  0  0  0  0  0  0  0  0  0
   51.9580   46.0217   38.5758 C   0  0  0  0  0  0  0  0  0  0  0  0
   52.1009   45.2498   39.6757 C   0  0  0  0  0  0  0  0  0  0  0  0
   50.9744   44.6266   40.1955 C   0  0  0  0  0  0  0  0  0  0  0  0
   49.7871   44.7081   39.5174 C   0  0  0  0  0  0  0  0  0  0  0  0
   48.5522   44.0122   39.8725 C   0  0  0  0  0  0  0  0  0  0  0  0
   47.3126   42.0449   39.9363 C   0  0  0  0  0  0  0  0  0  0  0  0
   46.7471   41.3006   38.9199 C   0  0  0  0  0  0  0  0  0  0  0  0
   45.5029   40.7041   39.1321 C   0  0  0  0  0  0  0  0  0  0  0  0
   44.8716   40.7505   40.3477 C   0  0  0  0  0  0  0  0  0  0  0  0
   45.4822   41.5120   41.3674 C   0  0  0  0  0  0  0  0  0  0  0  0
   46.6662   42.2062   41.1453 C   0  0  0  0  0  0  0  0  0  0  0  0
   43.5845   39.9748   40.6196 C   0  0  0  0  0  0  0  0  0  0  0  0
   42.9689   40.2843   41.9771 C   0  0  0  0  0  0  0  0  0  0  0  0
   42.8012   39.3370   42.9546 C   0  0  0  0  0  0  0  0  0  0  0  0
   41.8605   40.8746   44.4571 C   0  0  0  0  0  0  0  0  0  0  0  0
   42.0180   41.8105   43.4949 C   0  0  0  0  0  0  0  0  0  0  0  0
   42.5558   41.5576   42.2532 C   0  0  0  0  0  0  0  0  0  0  0  0
   40.0072   41.0112   45.8488 C   0  0  0  0  0  0  0  0  0  0  0  0
   39.3655   41.4533   47.0687 C   0  0  0  0  0  0  0  0  0  0  0  0
   39.7836   41.1282   48.3656 C   0  0  0  0  0  0  0  0  0  0  0  0
   39.0503   41.6194   49.4264 C   0  0  0  0  0  0  0  0  0  0  0  0
   37.9625   42.4338   49.1536 C   0  0  0  0  0  0  0  0  0  0  0  0
   37.5684   42.6953   47.8591 C   0  0  0  0  0  0  0  0  0  0  0  0
   49.6419   45.4794   38.4082 N   0  0  0  0  0  0  0  0  0  0  0  0
   48.5813   42.7193   39.6973 N   0  0  0  0  0  0  0  0  0  0  0  0
   41.2661   41.2545   45.7430 N   0  0  0  0  0  0  0  0  0  0  0  0
   38.2782   42.2479   46.8343 N   0  0  0  0  0  0  0  0  0  0  0  0
  1 17  2  0  0  0  0
  1 16  1  0  0  0  0
  2  3  2  0  0  0  0
  2 26  1  0  0  0  0
  3  4  1  0  0  0  0
  4  5  2  0  0  0  0
  5  6  1  0  0  0  0
  6  7  1  0  0  0  0
  6 26  2  0  0  0  0
  7 27  2  0  0  0  0
  8  9  2  0  0  0  0
  8 13  1  0  0  0  0
  8 27  1  0  0  0  0
  9 10  1  0  0  0  0
 10 11  2  0  0  0  0
 11 12  1  0  0  0  0
 11 14  1  0  0  0  0
 12 13  2  0  0  0  0
 14 15  1  0  0  0  0
 15 16  2  0  0  0  0
 15 19  1  0  0  0  0
 17 18  1  0  0  0  0
 17 28  1  0  0  0  0
 18 19  2  0  0  0  0
 20 21  1  0  0  0  0
 20 28  2  0  0  0  0
 21 22  2  0  0  0  0
 21 29  1  0  0  0  0
 22 23  1  0  0  0  0
 23 24  2  0  0  0  0
 24 25  1  0  0  0  0
 25 29  2  0  0  0  0
M  END
>  <CHROM.1>
-69.56473775,-173.67354347,-118.28912859,-54.08313128,122.00764593,-82.05463712
44.48269950,42.23665814,42.57803137,2.86818614,0.63033026,0.79022811

>  <Name>
ligand

>  <RI>
0

>  <Rbt.Current_Directory>
/home/itssahil/PROJECTS/Mol_Feturizer/New_Systems/rnas/4JIY

>  <Rbt.Executable>
rbdock ($Id: //depot/dev/client3/rdock/2013.1/src/exe/rbdock.cxx#4 $)

>  <Rbt.Library>
libRbt.so (2013.1, Build901 2013/11/27)

>  <Rbt.Parameter_File>
/export/apps/rDock/src/rDock_2013.1_src/data/scripts/dock_solv.prm

>  <Rbt.Receptor>
prm/pocket_docking_8.prm

>  <SCORE>
-12.0945

>  <SCORE.INTER>
-11.684

>  <SCORE.INTER.CONST>
1

>  <SCORE.INTER.POLAR>
0

>  <SCORE.INTER.ROT>
6

>  <SCORE.INTER.SOLV>
3.41528

>  <SCORE.INTER.VDW>
-16.5278

>  <SCORE.INTER.norm>
-0.402898

>  <SCORE.INTRA>
-0.410481

>  <SCORE.INTRA.DIHEDRAL>
0.00940794

>  <SCORE.INTRA.DIHEDRAL.0>
7.2424

>  <SCORE.INTRA.POLAR>
0

>  <SCORE.INTRA.POLAR.0>
0

>  <SCORE.INTRA.REPUL>
0

>  <SCORE.INTRA.REPUL.0>
0

>  <SCORE.INTRA.SOLV>
-0.0190608

>  <SCORE.INTRA.SOLV.lig_0>
-3.36201

>  <SCORE.INTRA.VDW>
-0.405655

>  <SCORE.INTRA.VDW.0>
-0.910526

>  <SCORE.INTRA.norm>
-0.0141545

>  <SCORE.RESTR>
0

>  <SCORE.RESTR.CAVITY>
0

>  <SCORE.RESTR.norm>
0

>  <SCORE.SYSTEM>
0

>  <SCORE.SYSTEM.CONST>
0

>  <SCORE.SYSTEM.DIHEDRAL>
0

>  <SCORE.SYSTEM.SOLV>
0

>  <SCORE.SYSTEM.norm>
0

>  <SCORE.heavy>
29

>  <SCORE.norm>
-0.417052

>  <RMSD>
6.833

$$$$
ligand
 OpenBabel11021811503D
libRbt.so/2013.1/901 2013/11/27
 29 32  0  0  0  0  0  0  0  0999 V2000
   40.6813   42.7346   39.7665 C   0  0  0  0  0  0  0  0  0  0  0  0
   52.1021   44.9324   40.0761 C   0  0  0  0  0  0  0  0  0  0  0  0
   52.2770   46.0099   39.1975 C   0  0  0  0  0  0  0  0  0  0  0  0
   51.2353   46.4998   38.4897 C   0  0  0  0  0  0  0  0  0  0  0  0
   50.0047   45.8673   38.6030 C   0  0  0  0  0  0  0  0  0  0  0  0
   49.8500   44.8543   39.5120 C   0  0  0  0  0  0  0  0  0  0  0  0
   48.5947   44.1769   39.8291 C   0  0  0  0  0  0  0  0  0  0  0  0
   47.3655   42.2072   39.9717 C   0  0  0  0  0  0  0  0  0  0  0  0
   46.7436   42.3004   41.2011 C   0  0  0  0  0  0  0  0  0  0  0  0
   45.5465   41.6118   41.4058 C   0  0  0  0  0  0  0  0  0  0  0  0
   44.9187   40.9283   40.3973 C   0  0  0  0  0  0  0  0  0  0  0  0
   45.5775   40.8613   39.1507 C   0  0  0  0  0  0  0  0  0  0  0  0
   46.8237   41.4461   38.9554 C   0  0  0  0  0  0  0  0  0  0  0  0
   43.5388   40.3010   40.5837 C   0  0  0  0  0  0  0  0  0  0  0  0
   42.4344   41.0412   39.8419 C   0  0  0  0  0  0  0  0  0  0  0  0
   41.6918   42.0424   40.4137 C   0  0  0  0  0  0  0  0  0  0  0  0
   40.4352   42.3938   38.4634 C   0  0  0  0  0  0  0  0  0  0  0  0
   41.1601   41.4037   37.8972 C   0  0  0  0  0  0  0  0  0  0  0  0
   42.1530   40.7059   38.5471 C   0  0  0  0  0  0  0  0  0  0  0  0
   39.7475   44.1867   37.1584 C   0  0  0  0  0  0  0  0  0  0  0  0
   38.7205   44.9223   36.4516 C   0  0  0  0  0  0  0  0  0  0  0  0
   37.6270   45.5612   37.0502 C   0  0  0  0  0  0  0  0  0  0  0  0
   36.7252   46.2090   36.2308 C   0  0  0  0  0  0  0  0  0  0  0  0
   36.9673   46.2220   34.8662 C   0  0  0  0  0  0  0  0  0  0  0  0
   38.0381   45.5473   34.3207 C   0  0  0  0  0  0  0  0  0  0  0  0
   50.8946   44.3632   40.2288 N   0  0  0  0  0  0  0  0  0  0  0  0
   48.6453   42.8739   39.7744 N   0  0  0  0  0  0  0  0  0  0  0  0
   39.3932   43.0647   37.6788 N   0  0  0  0  0  0  0  0  0  0  0  0
   38.9218   44.9419   35.0998 N   0  0  0  0  0  0  0  0  0  0  0  0
  1 17  2  0  0  0  0
  1 16  1  0  0  0  0
  2  3  2  0  0  0  0
  2 26  1  0  0  0  0
  3  4  1  0  0  0  0
  4  5  2  0  0  0  0
  5  6  1  0  0  0  0
  6  7  1  0  0  0  0
  6 26  2  0  0  0  0
  7 27  2  0  0  0  0
  8  9  2  0  0  0  0
  8 13  1  0  0  0  0
  8 27  1  0  0  0  0
  9 10  1  0  0  0  0
 10 11  2  0  0  0  0
 11 12  1  0  0  0  0
 11 14  1  0  0  0  0
 12 13  2  0  0  0  0
 14 15  1  0  0  0  0
 15 16  2  0  0  0  0
 15 19  1  0  0  0  0
 17 18  1  0  0  0  0
 17 28  1  0  0  0  0
 18 19  2  0  0  0  0
 20 21  1  0  0  0  0
 20 28  2  0  0  0  0
 21 22  2  0  0  0  0
 21 29  1  0  0  0  0
 22 23  1  0  0  0  0
 23 24  2  0  0  0  0
 24 25  1  0  0  0  0
 25 29  2  0  0  0  0
M  END
>  <CHROM.1>
128.70931777,107.84826689,-91.82177526,70.26371378,-65.87424392,82.49909491
44.10246597,43.44982247,38.66029189,2.98416040,-0.21773337,-0.57318553

>  <Name>
ligand

>  <RI>
0

>  <Rbt.Current_Directory>
/home/itssahil/PROJECTS/Mol_Feturizer/New_Systems/rnas/4JIY

>  <Rbt.Executable>
rbdock ($Id: //depot/dev/client3/rdock/2013.1/src/exe/rbdock.cxx#4 $)

>  <Rbt.Library>
libRbt.so (2013.1, Build901 2013/11/27)

>  <Rbt.Parameter_File>
/export/apps/rDock/src/rDock_2013.1_src/data/scripts/dock_solv.prm

>  <Rbt.Receptor>
prm/pocket_docking_7.prm

>  <SCORE>
-10.0052

>  <SCORE.INTER>
-9.27794

>  <SCORE.INTER.CONST>
1

>  <SCORE.INTER.POLAR>
0

>  <SCORE.INTER.ROT>
6

>  <SCORE.INTER.SOLV>
2.86202

>  <SCORE.INTER.VDW>
-14.7393

>  <SCORE.INTER.norm>
-0.319929

>  <SCORE.INTRA>
-0.72729

>  <SCORE.INTRA.DIHEDRAL>
0.415799

>  <SCORE.INTRA.DIHEDRAL.0>
7.2424

>  <SCORE.INTRA.POLAR>
0

>  <SCORE.INTRA.POLAR.0>
0

>  <SCORE.INTRA.REPUL>
0

>  <SCORE.INTRA.REPUL.0>
0

>  <SCORE.INTRA.SOLV>
-0.015783

>  <SCORE.INTRA.SOLV.lig_0>
-3.36201

>  <SCORE.INTRA.VDW>
-0.927298

>  <SCORE.INTRA.VDW.0>
-0.910526

>  <SCORE.INTRA.norm>
-0.025079

>  <SCORE.RESTR>
0

>  <SCORE.RESTR.CAVITY>
0

>  <SCORE.RESTR.norm>
0

>  <SCORE.SYSTEM>
0

>  <SCORE.SYSTEM.CONST>
0

>  <SCORE.SYSTEM.DIHEDRAL>
0

>  <SCORE.SYSTEM.SOLV>
0

>  <SCORE.SYSTEM.norm>
0

>  <SCORE.heavy>
29

>  <SCORE.norm>
-0.345008

>  <RMSD>
6.842

$$$$
ligand
 OpenBabel11021811503D
libRbt.so/2013.1/901 2013/11/27
 29 32  0  0  0  0  0  0  0  0999 V2000
   52.0155   44.6101   42.0267 C   0  0  0  0  0  0  0  0  0  0  0  0
   41.5602   38.1092   42.0499 C   0  0  0  0  0  0  0  0  0  0  0  0
   41.0133   37.9497   43.3302 C   0  0  0  0  0  0  0  0  0  0  0  0
   41.4539   38.6958   44.3671 C   0  0  0  0  0  0  0  0  0  0  0  0
   42.5064   39.5743   44.1478 C   0  0  0  0  0  0  0  0  0  0  0  0
   42.9815   39.7507   42.8753 C   0  0  0  0  0  0  0  0  0  0  0  0
   43.9967   40.7207   42.4705 C   0  0  0  0  0  0  0  0  0  0  0  0
   45.6631   41.3686   40.9824 C   0  0  0  0  0  0  0  0  0  0  0  0
   46.1553   41.3643   39.6922 C   0  0  0  0  0  0  0  0  0  0  0  0
   47.2420   42.1838   39.3817 C   0  0  0  0  0  0  0  0  0  0  0  0
   47.7718   43.0643   40.2885 C   0  0  0  0  0  0  0  0  0  0  0  0
   47.2384   43.0493   41.5954 C   0  0  0  0  0  0  0  0  0  0  0  0
   46.2302   42.1635   41.9582 C   0  0  0  0  0  0  0  0  0  0  0  0
   48.8615   44.0626   39.9034 C   0  0  0  0  0  0  0  0  0  0  0  0
   49.7850   44.4231   41.0588 C   0  0  0  0  0  0  0  0  0  0  0  0
   51.1486   44.2911   40.9942 C   0  0  0  0  0  0  0  0  0  0  0  0
   51.4552   45.1060   43.1733 C   0  0  0  0  0  0  0  0  0  0  0  0
   50.1115   45.2323   43.2442 C   0  0  0  0  0  0  0  0  0  0  0  0
   49.2504   44.8995   42.2230 C   0  0  0  0  0  0  0  0  0  0  0  0
   52.3980   46.7505   44.5138 C   0  0  0  0  0  0  0  0  0  0  0  0
   53.2744   47.1637   45.5893 C   0  0  0  0  0  0  0  0  0  0  0  0
   53.2147   46.6922   46.9070 C   0  0  0  0  0  0  0  0  0  0  0  0
   54.1159   47.2006   47.8200 C   0  0  0  0  0  0  0  0  0  0  0  0
   55.0514   48.1227   47.3779 C   0  0  0  0  0  0  0  0  0  0  0  0
   55.0467   48.5836   46.0791 C   0  0  0  0  0  0  0  0  0  0  0  0
   42.5366   39.0056   41.8299 N   0  0  0  0  0  0  0  0  0  0  0  0
   44.5695   40.4697   41.3250 N   0  0  0  0  0  0  0  0  0  0  0  0
   52.2774   45.4832   44.3278 N   0  0  0  0  0  0  0  0  0  0  0  0
   54.2012   48.0855   45.1895 N   0  0  0  0  0  0  0  0  0  0  0  0
  1 17  2  0  0  0  0
  1 16  1  0  0  0  0
  2  3  2  0  0  0  0
  2 26  1  0  0  0  0
  3  4  1  0  0  0  0
  4  5  2  0  0  0  0
  5  6  1  0  0  0  0
  6  7  1  0  0  0  0
  6 26  2  0  0  0  0
  7 27  2  0  0  0  0
  8  9  2  0  0  0  0
  8 13  1  0  0  0  0
  8 27  1  0  0  0  0
  9 10  1  0  0  0  0
 10 11  2  0  0  0  0
 11 12  1  0  0  0  0
 11 14  1  0  0  0  0
 12 13  2  0  0  0  0
 14 15  1  0  0  0  0
 15 16  2  0  0  0  0
 15 19  1  0  0  0  0
 17 18  1  0  0  0  0
 17 28  1  0  0  0  0
 18 19  2  0  0  0  0
 20 21  1  0  0  0  0
 20 28  2  0  0  0  0
 21 22  2  0  0  0  0
 21 29  1  0  0  0  0
 22 23  1  0  0  0  0
 23 24  2  0  0  0  0
 24 25  1  0  0  0  0
 25 29  2  0  0  0  0
M  END
>  <CHROM.1>
161.22997502,-150.65539503,125.08402249,-51.36509054,-167.12751244,106.52011842
48.38557420,43.38838525,42.97988131,-0.27046778,-0.60967183,-1.62596201

>  <Name>
ligand

>  <RI>
0

>  <Rbt.Current_Directory>
/home/itssahil/PROJECTS/Mol_Feturizer/New_Systems/rnas/4JIY

>  <Rbt.Executable>
rbdock ($Id: //depot/dev/client3/rdock/2013.1/src/exe/rbdock.cxx#4 $)

>  <Rbt.Library>
libRbt.so (2013.1, Build901 2013/11/27)

>  <Rbt.Parameter_File>
/export/apps/rDock/src/rDock_2013.1_src/data/scripts/dock_solv.prm

>  <Rbt.Receptor>
prm/pocket_docking_7.prm

>  <SCORE>
-10.7254

>  <SCORE.INTER>
-12.1324

>  <SCORE.INTER.CONST>
1

>  <SCORE.INTER.POLAR>
0

>  <SCORE.INTER.ROT>
6

>  <SCORE.INTER.SOLV>
3.24242

>  <SCORE.INTER.VDW>
-16.7691

>  <SCORE.INTER.norm>
-0.41836

>  <SCORE.INTRA>
1.40703

>  <SCORE.INTRA.DIHEDRAL>
0.0425758

>  <SCORE.INTRA.DIHEDRAL.0>
7.2424

>  <SCORE.INTRA.POLAR>
0

>  <SCORE.INTRA.POLAR.0>
0

>  <SCORE.INTRA.REPUL>
0

>  <SCORE.INTRA.REPUL.0>
0

>  <SCORE.INTRA.SOLV>
-0.00744591

>  <SCORE.INTRA.SOLV.lig_0>
-3.36201

>  <SCORE.INTRA.VDW>
1.38946

>  <SCORE.INTRA.VDW.0>
-0.910526

>  <SCORE.INTRA.norm>
0.0485181

>  <SCORE.RESTR>
0

>  <SCORE.RESTR.CAVITY>
0

>  <SCORE.RESTR.norm>
0

>  <SCORE.SYSTEM>
0

>  <SCORE.SYSTEM.CONST>
0

>  <SCORE.SYSTEM.DIHEDRAL>
0

>  <SCORE.SYSTEM.SOLV>
0

>  <SCORE.SYSTEM.norm>
0

>  <SCORE.heavy>
29

>  <SCORE.norm>
-0.369842

>  <RMSD>
6.863

$$$$
ligand
 OpenBabel11021811503D
libRbt.so/2013.1/901 2013/11/27
 29 32  0  0  0  0  0  0  0  0999 V2000
   47.0857   41.5409   39.1809 C   0  0  0  0  0  0  0  0  0  0  0  0
   36.6856   41.9553   33.4716 C   0  0  0  0  0  0  0  0  0  0  0  0
   35.5498   41.5497   34.1851 C   0  0  0  0  0  0  0  0  0  0  0  0
   35.6698   40.8403   35.3290 C   0  0  0  0  0  0  0  0  0  0  0  0
   36.9410   40.4658   35.7430 C   0  0  0  0  0  0  0  0  0  0  0  0
   38.0344   40.9253   35.0578 C   0  0  0  0  0  0  0  0  0  0  0  0
   39.4296   40.7172   35.4391 C   0  0  0  0  0  0  0  0  0  0  0  0
   41.1587   39.2584   35.9809 C   0  0  0  0  0  0  0  0  0  0  0  0
   42.2030   39.2050   35.0790 C   0  0  0  0  0  0  0  0  0  0  0  0
   43.4905   38.9450   35.5521 C   0  0  0  0  0  0  0  0  0  0  0  0
   43.7665   38.8398   36.8904 C   0  0  0  0  0  0  0  0  0  0  0  0
   42.6769   38.9088   37.7851 C   0  0  0  0  0  0  0  0  0  0  0  0
   41.3715   39.0563   37.3298 C   0  0  0  0  0  0  0  0  0  0  0  0
   45.1953   38.7030   37.4122 C   0  0  0  0  0  0  0  0  0  0  0  0
   45.5783   39.7846   38.4128 C   0  0  0  0  0  0  0  0  0  0  0  0
   46.7095   40.5499   38.2888 C   0  0  0  0  0  0  0  0  0  0  0  0
   46.2493   41.7683   40.2408 C   0  0  0  0  0  0  0  0  0  0  0  0
   45.1364   41.0127   40.3708 C   0  0  0  0  0  0  0  0  0  0  0  0
   44.7726   40.0174   39.4920 C   0  0  0  0  0  0  0  0  0  0  0  0
   46.5241   42.3847   42.4622 C   0  0  0  0  0  0  0  0  0  0  0  0
   46.7220   43.3888   43.4860 C   0  0  0  0  0  0  0  0  0  0  0  0
   47.9364   44.0279   43.7672 C   0  0  0  0  0  0  0  0  0  0  0  0
   47.9610   44.9541   44.7898 C   0  0  0  0  0  0  0  0  0  0  0  0
   46.7787   45.2267   45.4595 C   0  0  0  0  0  0  0  0  0  0  0  0
   45.6164   44.5447   45.1707 C   0  0  0  0  0  0  0  0  0  0  0  0
   37.9167   41.6431   33.9102 N   0  0  0  0  0  0  0  0  0  0  0  0
   39.8056   39.4682   35.4842 N   0  0  0  0  0  0  0  0  0  0  0  0
   46.5444   42.7971   41.2437 N   0  0  0  0  0  0  0  0  0  0  0  0
   45.5764   43.6706   44.1764 N   0  0  0  0  0  0  0  0  0  0  0  0
  1 17  2  0  0  0  0
  1 16  1  0  0  0  0
  2  3  2  0  0  0  0
  2 26  1  0  0  0  0
  3  4  1  0  0  0  0
  4  5  2  0  0  0  0
  5  6  1  0  0  0  0
  6  7  1  0  0  0  0
  6 26  2  0  0  0  0
  7 27  2  0  0  0  0
  8  9  2  0  0  0  0
  8 13  1  0  0  0  0
  8 27  1  0  0  0  0
  9 10  1  0  0  0  0
 10 11  2  0  0  0  0
 11 12  1  0  0  0  0
 11 14  1  0  0  0  0
 12 13  2  0  0  0  0
 14 15  1  0  0  0  0
 15 16  2  0  0  0  0
 15 19  1  0  0  0  0
 17 18  1  0  0  0  0
 17 28  1  0  0  0  0
 18 19  2  0  0  0  0
 20 21  1  0  0  0  0
 20 28  2  0  0  0  0
 21 22  2  0  0  0  0
 21 29  1  0  0  0  0
 22 23  1  0  0  0  0
 23 24  2  0  0  0  0
 24 25  1  0  0  0  0
 25 29  2  0  0  0  0
M  END
>  <CHROM.1>
61.30216992,123.34682236,-128.08543859,-71.93489243,-92.14986894,-127.41798635
43.06974769,41.24837096,38.65730012,-0.73189733,0.35528871,-2.27356291

>  <Name>
ligand

>  <RI>
0

>  <Rbt.Current_Directory>
/home/itssahil/PROJECTS/Mol_Feturizer/New_Systems/rnas/4JIY

>  <Rbt.Executable>
rbdock ($Id: //depot/dev/client3/rdock/2013.1/src/exe/rbdock.cxx#4 $)

>  <Rbt.Library>
libRbt.so (2013.1, Build901 2013/11/27)

>  <Rbt.Parameter_File>
/export/apps/rDock/src/rDock_2013.1_src/data/scripts/dock_solv.prm

>  <Rbt.Receptor>
prm/pocket_docking_8.prm

>  <SCORE>
-9.43783

>  <SCORE.INTER>
-9.06019

>  <SCORE.INTER.CONST>
1

>  <SCORE.INTER.POLAR>
0

>  <SCORE.INTER.ROT>
6

>  <SCORE.INTER.SOLV>
1.97918

>  <SCORE.INTER.VDW>
-14.2999

>  <SCORE.INTER.norm>
-0.31242

>  <SCORE.INTRA>
-0.377646

>  <SCORE.INTRA.DIHEDRAL>
0.0218786

>  <SCORE.INTRA.DIHEDRAL.0>
7.2424

>  <SCORE.INTRA.POLAR>
0

>  <SCORE.INTRA.POLAR.0>
0

>  <SCORE.INTRA.REPUL>
0

>  <SCORE.INTRA.REPUL.0>
0

>  <SCORE.INTRA.SOLV>
-0.019224

>  <SCORE.INTRA.SOLV.lig_0>
-3.36201

>  <SCORE.INTRA.VDW>
-0.378973

>  <SCORE.INTRA.VDW.0>
-0.910526

>  <SCORE.INTRA.norm>
-0.0130223

>  <SCORE.RESTR>
0

>  <SCORE.RESTR.CAVITY>
0

>  <SCORE.RESTR.norm>
0

>  <SCORE.SYSTEM>
0

>  <SCORE.SYSTEM.CONST>
0

>  <SCORE.SYSTEM.DIHEDRAL>
0

>  <SCORE.SYSTEM.SOLV>
0

>  <SCORE.SYSTEM.norm>
0

>  <SCORE.heavy>
29

>  <SCORE.norm>
-0.325443

>  <RMSD>
6.881

$$$$
ligand
 OpenBabel11021811503D
libRbt.so/2013.1/901 2013/11/27
 29 32  0  0  0  0  0  0  0  0999 V2000
   45.9753   41.9402   41.9762 C   0  0  0  0  0  0  0  0  0  0  0  0
   54.9709   43.9124   47.4441 C   0  0  0  0  0  0  0  0  0  0  0  0
   54.5563   44.5499   48.6211 C   0  0  0  0  0  0  0  0  0  0  0  0
   53.3014   45.0377   48.7370 C   0  0  0  0  0  0  0  0  0  0  0  0
   52.4562   44.9522   47.6390 C   0  0  0  0  0  0  0  0  0  0  0  0
   52.8689   44.2731   46.5233 C   0  0  0  0  0  0  0  0  0  0  0  0
   52.0538   43.9969   45.3424 C   0  0  0  0  0  0  0  0  0  0  0  0
   51.1882   44.6995   43.3008 C   0  0  0  0  0  0  0  0  0  0  0  0
   51.7159   44.3921   42.0623 C   0  0  0  0  0  0  0  0  0  0  0  0
   50.8493   44.2398   40.9784 C   0  0  0  0  0  0  0  0  0  0  0  0
   49.4873   44.2874   41.1235 C   0  0  0  0  0  0  0  0  0  0  0  0
   48.9816   44.5944   42.4052 C   0  0  0  0  0  0  0  0  0  0  0  0
   49.8282   44.8593   43.4757 C   0  0  0  0  0  0  0  0  0  0  0  0
   48.5403   43.9747   39.9669 C   0  0  0  0  0  0  0  0  0  0  0  0
   47.4479   42.9798   40.3338 C   0  0  0  0  0  0  0  0  0  0  0  0
   46.9675   42.8351   41.6102 C   0  0  0  0  0  0  0  0  0  0  0  0
   45.4385   41.1707   40.9791 C   0  0  0  0  0  0  0  0  0  0  0  0
   45.9126   41.3052   39.7207 C   0  0  0  0  0  0  0  0  0  0  0  0
   46.9100   42.1835   39.3618 C   0  0  0  0  0  0  0  0  0  0  0  0
   43.6193   40.4846   42.2480 C   0  0  0  0  0  0  0  0  0  0  0  0
   42.6172   39.5022   42.6030 C   0  0  0  0  0  0  0  0  0  0  0  0
   41.7712   38.8474   41.6986 C   0  0  0  0  0  0  0  0  0  0  0  0
   40.8556   37.9460   42.2020 C   0  0  0  0  0  0  0  0  0  0  0  0
   40.8452   37.7120   43.5680 C   0  0  0  0  0  0  0  0  0  0  0  0
   41.6728   38.4084   44.4220 C   0  0  0  0  0  0  0  0  0  0  0  0
   54.1284   43.7771   46.4061 N   0  0  0  0  0  0  0  0  0  0  0  0
   52.0936   44.9196   44.4203 N   0  0  0  0  0  0  0  0  0  0  0  0
   44.3780   40.1945   41.2502 N   0  0  0  0  0  0  0  0  0  0  0  0
   42.5706   39.2587   43.9472 N   0  0  0  0  0  0  0  0  0  0  0  0
  1 17  2  0  0  0  0
  1 16  1  0  0  0  0
  2  3  2  0  0  0  0
  2 26  1  0  0  0  0
  3  4  1  0  0  0  0
  4  5  2  0  0  0  0
  5  6  1  0  0  0  0
  6  7  1  0  0  0  0
  6 26  2  0  0  0  0
  7 27  2  0  0  0  0
  8  9  2  0  0  0  0
  8 13  1  0  0  0  0
  8 27  1  0  0  0  0
  9 10  1  0  0  0  0
 10 11  2  0  0  0  0
 11 12  1  0  0  0  0
 11 14  1  0  0  0  0
 12 13  2  0  0  0  0
 14 15  1  0  0  0  0
 15 16  2  0  0  0  0
 15 19  1  0  0  0  0
 17 18  1  0  0  0  0
 17 28  1  0  0  0  0
 18 19  2  0  0  0  0
 20 21  1  0  0  0  0
 20 28  2  0  0  0  0
 21 22  2  0  0  0  0
 21 29  1  0  0  0  0
 22 23  1  0  0  0  0
 23 24  2  0  0  0  0
 24 25  1  0  0  0  0
 25 29  2  0  0  0  0
M  END
>  <CHROM.1>
89.12256983,130.52410577,27.69770006,-46.11323351,-111.05112762,28.51944740
48.07532588,42.45437315,43.25532469,-2.95214476,0.52825952,1.85431167

>  <Name>
ligand

>  <RI>
0

>  <Rbt.Current_Directory>
/home/itssahil/PROJECTS/Mol_Feturizer/New_Systems/rnas/4JIY

>  <Rbt.Executable>
rbdock ($Id: //depot/dev/client3/rdock/2013.1/src/exe/rbdock.cxx#4 $)

>  <Rbt.Library>
libRbt.so (2013.1, Build901 2013/11/27)

>  <Rbt.Parameter_File>
/export/apps/rDock/src/rDock_2013.1_src/data/scripts/dock_solv.prm

>  <Rbt.Receptor>
prm/pocket_docking_7.prm

>  <SCORE>
-11.5344

>  <SCORE.INTER>
-12.2208

>  <SCORE.INTER.CONST>
1

>  <SCORE.INTER.POLAR>
0

>  <SCORE.INTER.ROT>
6

>  <SCORE.INTER.SOLV>
3.48959

>  <SCORE.INTER.VDW>
-16.9104

>  <SCORE.INTER.norm>
-0.421407

>  <SCORE.INTRA>
0.686373

>  <SCORE.INTRA.DIHEDRAL>
0.381709

>  <SCORE.INTRA.DIHEDRAL.0>
7.2424

>  <SCORE.INTRA.POLAR>
0

>  <SCORE.INTRA.POLAR.0>
0

>  <SCORE.INTRA.REPUL>
0

>  <SCORE.INTRA.REPUL.0>
0

>  <SCORE.INTRA.SOLV>
-0.0174819

>  <SCORE.INTRA.SOLV.lig_0>
-3.36201

>  <SCORE.INTRA.VDW>
0.504259

>  <SCORE.INTRA.VDW.0>
-0.910526

>  <SCORE.INTRA.norm>
0.023668

>  <SCORE.RESTR>
0

>  <SCORE.RESTR.CAVITY>
0

>  <SCORE.RESTR.norm>
0

>  <SCORE.SYSTEM>
0

>  <SCORE.SYSTEM.CONST>
0

>  <SCORE.SYSTEM.DIHEDRAL>
0

>  <SCORE.SYSTEM.SOLV>
0

>  <SCORE.SYSTEM.norm>
0

>  <SCORE.heavy>
29

>  <SCORE.norm>
-0.397739

>  <RMSD>
6.890

$$$$
ligand
 OpenBabel11021811503D
libRbt.so/2013.1/901 2013/11/27
 29 32  0  0  0  0  0  0  0  0999 V2000
   41.9640   43.1786   38.8652 C   0  0  0  0  0  0  0  0  0  0  0  0
   52.5838   45.2593   39.6353 C   0  0  0  0  0  0  0  0  0  0  0  0
   52.7155   46.6406   39.4398 C   0  0  0  0  0  0  0  0  0  0  0  0
   51.6263   47.4185   39.2533 C   0  0  0  0  0  0  0  0  0  0  0  0
   50.3813   46.8072   39.1927 C   0  0  0  0  0  0  0  0  0  0  0  0
   50.2778   45.4649   39.4447 C   0  0  0  0  0  0  0  0  0  0  0  0
   49.0314   44.7073   39.5350 C   0  0  0  0  0  0  0  0  0  0  0  0
   47.8510   42.8930   40.3869 C   0  0  0  0  0  0  0  0  0  0  0  0
   47.0849   42.8232   41.5337 C   0  0  0  0  0  0  0  0  0  0  0  0
   45.9687   41.9848   41.5497 C   0  0  0  0  0  0  0  0  0  0  0  0
   45.5525   41.3061   40.4341 C   0  0  0  0  0  0  0  0  0  0  0  0
   46.3537   41.4075   39.2763 C   0  0  0  0  0  0  0  0  0  0  0  0
   47.5302   42.1482   39.2698 C   0  0  0  0  0  0  0  0  0  0  0  0
   44.2506   40.5081   40.4130 C   0  0  0  0  0  0  0  0  0  0  0  0
   43.1446   41.1791   39.6104 C   0  0  0  0  0  0  0  0  0  0  0  0
   42.9596   42.5378   39.5846 C   0  0  0  0  0  0  0  0  0  0  0  0
   41.1308   42.3861   38.1221 C   0  0  0  0  0  0  0  0  0  0  0  0
   41.3051   41.0462   38.1489 C   0  0  0  0  0  0  0  0  0  0  0  0
   42.2849   40.4100   38.8773 C   0  0  0  0  0  0  0  0  0  0  0  0
   40.3880   43.3211   36.1311 C   0  0  0  0  0  0  0  0  0  0  0  0
   39.3671   43.9709   35.3367 C   0  0  0  0  0  0  0  0  0  0  0  0
   38.2580   43.3326   34.7670 C   0  0  0  0  0  0  0  0  0  0  0  0
   37.3823   44.0950   34.0213 C   0  0  0  0  0  0  0  0  0  0  0  0
   37.6276   45.4541   33.9047 C   0  0  0  0  0  0  0  0  0  0  0  0
   38.7531   46.0300   34.4534 C   0  0  0  0  0  0  0  0  0  0  0  0
   51.3708   44.6812   39.6377 N   0  0  0  0  0  0  0  0  0  0  0  0
   49.0506   43.7190   40.3872 N   0  0  0  0  0  0  0  0  0  0  0  0
   40.0460   42.9568   37.3167 N   0  0  0  0  0  0  0  0  0  0  0  0
   39.5876   45.3120   35.1898 N   0  0  0  0  0  0  0  0  0  0  0  0
  1 17  2  0  0  0  0
  1 16  1  0  0  0  0
  2  3  2  0  0  0  0
  2 26  1  0  0  0  0
  3  4  1  0  0  0  0
  4  5  2  0  0  0  0
  5  6  1  0  0  0  0
  6  7  1  0  0  0  0
  6 26  2  0  0  0  0
  7 27  2  0  0  0  0
  8  9  2  0  0  0  0
  8 13  1  0  0  0  0
  8 27  1  0  0  0  0
  9 10  1  0  0  0  0
 10 11  2  0  0  0  0
 11 12  1  0  0  0  0
 11 14  1  0  0  0  0
 12 13  2  0  0  0  0
 14 15  1  0  0  0  0
 15 16  2  0  0  0  0
 15 19  1  0  0  0  0
 17 18  1  0  0  0  0
 17 28  1  0  0  0  0
 18 19  2  0  0  0  0
 20 21  1  0  0  0  0
 20 28  2  0  0  0  0
 21 22  2  0  0  0  0
 21 29  1  0  0  0  0
 22 23  1  0  0  0  0
 23 24  2  0  0  0  0
 24 25  1  0  0  0  0
 25 29  2  0  0  0  0
M  END
>  <CHROM.1>
-146.70326538,106.54663115,-36.60118489,-72.35496530,-117.73824917,86.66163369
44.68875319,43.55022807,38.40611384,3.00784900,-0.34158123,-0.65182118

>  <Name>
ligand

>  <RI>
0

>  <Rbt.Current_Directory>
/home/itssahil/PROJECTS/Mol_Feturizer/New_Systems/rnas/4JIY

>  <Rbt.Executable>
rbdock ($Id: //depot/dev/client3/rdock/2013.1/src/exe/rbdock.cxx#4 $)

>  <Rbt.Library>
libRbt.so (2013.1, Build901 2013/11/27)

>  <Rbt.Parameter_File>
/export/apps/rDock/src/rDock_2013.1_src/data/scripts/dock_solv.prm

>  <Rbt.Receptor>
prm/pocket_docking_7.prm

>  <SCORE>
-8.89758

>  <SCORE.INTER>
-8.28553

>  <SCORE.INTER.CONST>
1

>  <SCORE.INTER.POLAR>
0

>  <SCORE.INTER.ROT>
6

>  <SCORE.INTER.SOLV>
2.79804

>  <SCORE.INTER.VDW>
-14.0564

>  <SCORE.INTER.norm>
-0.285708

>  <SCORE.INTRA>
-0.612051

>  <SCORE.INTRA.DIHEDRAL>
0.241611

>  <SCORE.INTRA.DIHEDRAL.0>
7.2424

>  <SCORE.INTRA.POLAR>
0

>  <SCORE.INTRA.POLAR.0>
0

>  <SCORE.INTRA.REPUL>
0

>  <SCORE.INTRA.REPUL.0>
0

>  <SCORE.INTRA.SOLV>
-0.0131958

>  <SCORE.INTRA.SOLV.lig_0>
-3.36201

>  <SCORE.INTRA.VDW>
-0.726259

>  <SCORE.INTRA.VDW.0>
-0.910526

>  <SCORE.INTRA.norm>
-0.0211052

>  <SCORE.RESTR>
0

>  <SCORE.RESTR.CAVITY>
0

>  <SCORE.RESTR.norm>
0

>  <SCORE.SYSTEM>
0

>  <SCORE.SYSTEM.CONST>
0

>  <SCORE.SYSTEM.DIHEDRAL>
0

>  <SCORE.SYSTEM.SOLV>
0

>  <SCORE.SYSTEM.norm>
0

>  <SCORE.heavy>
29

>  <SCORE.norm>
-0.306813

>  <RMSD>
6.912

$$$$
ligand
 OpenBabel11021811503D
libRbt.so/2013.1/901 2013/11/27
 29 32  0  0  0  0  0  0  0  0999 V2000
   51.7143   44.4725   42.0347 C   0  0  0  0  0  0  0  0  0  0  0  0
   41.7470   38.2358   44.3953 C   0  0  0  0  0  0  0  0  0  0  0  0
   40.8972   37.5540   43.5140 C   0  0  0  0  0  0  0  0  0  0  0  0
   40.9026   37.8363   42.1925 C   0  0  0  0  0  0  0  0  0  0  0  0
   41.7201   38.8632   41.7403 C   0  0  0  0  0  0  0  0  0  0  0  0
   42.5812   39.4721   42.6143 C   0  0  0  0  0  0  0  0  0  0  0  0
   43.5809   40.4790   42.2649 C   0  0  0  0  0  0  0  0  0  0  0  0
   45.3371   41.1651   40.9025 C   0  0  0  0  0  0  0  0  0  0  0  0
   45.8014   41.2887   39.6078 C   0  0  0  0  0  0  0  0  0  0  0  0
   46.8718   42.1483   39.3540 C   0  0  0  0  0  0  0  0  0  0  0  0
   47.4110   42.9465   40.3289 C   0  0  0  0  0  0  0  0  0  0  0  0
   46.9062   42.8015   41.6391 C   0  0  0  0  0  0  0  0  0  0  0  0
   45.9160   41.8721   41.9372 C   0  0  0  0  0  0  0  0  0  0  0  0
   48.4809   43.9909   40.0175 C   0  0  0  0  0  0  0  0  0  0  0  0
   49.4474   44.2265   41.1699 C   0  0  0  0  0  0  0  0  0  0  0  0
   50.8088   44.2605   41.0078 C   0  0  0  0  0  0  0  0  0  0  0  0
   51.1943   44.6779   43.2845 C   0  0  0  0  0  0  0  0  0  0  0  0
   49.8537   44.6394   43.4507 C   0  0  0  0  0  0  0  0  0  0  0  0
   48.9562   44.4124   42.4318 C   0  0  0  0  0  0  0  0  0  0  0  0
   52.4876   43.8554   45.0284 C   0  0  0  0  0  0  0  0  0  0  0  0
   53.2703   44.0508   46.2304 C   0  0  0  0  0  0  0  0  0  0  0  0
   54.4421   44.8135   46.3168 C   0  0  0  0  0  0  0  0  0  0  0  0
   55.0804   44.8868   47.5380 C   0  0  0  0  0  0  0  0  0  0  0  0
   54.5111   44.2319   48.6186 C   0  0  0  0  0  0  0  0  0  0  0  0
   53.3762   43.4633   48.4755 C   0  0  0  0  0  0  0  0  0  0  0  0
   42.5816   39.1866   43.9427 N   0  0  0  0  0  0  0  0  0  0  0  0
   44.2614   40.2235   41.1809 N   0  0  0  0  0  0  0  0  0  0  0  0
   52.0587   44.9187   44.4448 N   0  0  0  0  0  0  0  0  0  0  0  0
   52.7432   43.4047   47.3135 N   0  0  0  0  0  0  0  0  0  0  0  0
  1 17  2  0  0  0  0
  1 16  1  0  0  0  0
  2  3  2  0  0  0  0
  2 26  1  0  0  0  0
  3  4  1  0  0  0  0
  4  5  2  0  0  0  0
  5  6  1  0  0  0  0
  6  7  1  0  0  0  0
  6 26  2  0  0  0  0
  7 27  2  0  0  0  0
  8  9  2  0  0  0  0
  8 13  1  0  0  0  0
  8 27  1  0  0  0  0
  9 10  1  0  0  0  0
 10 11  2  0  0  0  0
 11 12  1  0  0  0  0
 11 14  1  0  0  0  0
 12 13  2  0  0  0  0
 14 15  1  0  0  0  0
 15 16  2  0  0  0  0
 15 19  1  0  0  0  0
 17 18  1  0  0  0  0
 17 28  1  0  0  0  0
 18 19  2  0  0  0  0
 20 21  1  0  0  0  0
 20 28  2  0  0  0  0
 21 22  2  0  0  0  0
 21 29  1  0  0  0  0
 22 23  1  0  0  0  0
 23 24  2  0  0  0  0
 24 25  1  0  0  0  0
 25 29  2  0  0  0  0
M  END
>  <CHROM.1>
-43.46267679,-149.12513544,132.54057575,-56.83373314,-157.47007906,-85.85318484
48.09893538,42.35652228,43.21321448,-0.14855385,-0.52275816,-1.21845217

>  <Name>
ligand

>  <RI>
0

>  <Rbt.Current_Directory>
/home/itssahil/PROJECTS/Mol_Feturizer/New_Systems/rnas/4JIY

>  <Rbt.Executable>
rbdock ($Id: //depot/dev/client3/rdock/2013.1/src/exe/rbdock.cxx#4 $)

>  <Rbt.Library>
libRbt.so (2013.1, Build901 2013/11/27)

>  <Rbt.Parameter_File>
/export/apps/rDock/src/rDock_2013.1_src/data/scripts/dock_solv.prm

>  <Rbt.Receptor>
prm/pocket_docking_7.prm

>  <SCORE>
-11.8491

>  <SCORE.INTER>
-12.958

>  <SCORE.INTER.CONST>
1

>  <SCORE.INTER.POLAR>
0

>  <SCORE.INTER.ROT>
6

>  <SCORE.INTER.SOLV>
3.43384

>  <SCORE.INTER.VDW>
-17.3833

>  <SCORE.INTER.norm>
-0.446827

>  <SCORE.INTRA>
1.10889

>  <SCORE.INTRA.DIHEDRAL>
0.0563835

>  <SCORE.INTRA.DIHEDRAL.0>
7.2424

>  <SCORE.INTRA.POLAR>
0

>  <SCORE.INTRA.POLAR.0>
0

>  <SCORE.INTRA.REPUL>
0

>  <SCORE.INTRA.REPUL.0>
0

>  <SCORE.INTRA.SOLV>
-0.0174658

>  <SCORE.INTRA.SOLV.lig_0>
-3.36201

>  <SCORE.INTRA.VDW>
1.08943

>  <SCORE.INTRA.VDW.0>
-0.910526

>  <SCORE.INTRA.norm>
0.0382376

>  <SCORE.RESTR>
0

>  <SCORE.RESTR.CAVITY>
0

>  <SCORE.RESTR.norm>
0

>  <SCORE.SYSTEM>
0

>  <SCORE.SYSTEM.CONST>
0

>  <SCORE.SYSTEM.DIHEDRAL>
0

>  <SCORE.SYSTEM.SOLV>
0

>  <SCORE.SYSTEM.norm>
0

>  <SCORE.heavy>
29

>  <SCORE.norm>
-0.408589

>  <RMSD>
6.918

$$$$
ligand
 OpenBabel11021811503D
libRbt.so/2013.1/901 2013/11/27
 29 32  0  0  0  0  0  0  0  0999 V2000
   46.7960   40.4021   38.3336 C   0  0  0  0  0  0  0  0  0  0  0  0
   48.0445   44.5224   50.1456 C   0  0  0  0  0  0  0  0  0  0  0  0
   47.5952   43.4730   50.9584 C   0  0  0  0  0  0  0  0  0  0  0  0
   46.8923   42.4452   50.4333 C   0  0  0  0  0  0  0  0  0  0  0  0
   46.5686   42.4883   49.0840 C   0  0  0  0  0  0  0  0  0  0  0  0
   47.0700   43.4960   48.3035 C   0  0  0  0  0  0  0  0  0  0  0  0
   46.9175   43.6095   46.8547 C   0  0  0  0  0  0  0  0  0  0  0  0
   47.5896   42.9829   44.7177 C   0  0  0  0  0  0  0  0  0  0  0  0
   48.5565   43.7543   44.1037 C   0  0  0  0  0  0  0  0  0  0  0  0
   48.4602   43.9905   42.7311 C   0  0  0  0  0  0  0  0  0  0  0  0
   47.4946   43.4012   41.9573 C   0  0  0  0  0  0  0  0  0  0  0  0
   46.5280   42.6110   42.6160 C   0  0  0  0  0  0  0  0  0  0  0  0
   46.5388   42.4516   43.9971 C   0  0  0  0  0  0  0  0  0  0  0  0
   47.4801   43.5429   40.4368 C   0  0  0  0  0  0  0  0  0  0  0  0
   46.7629   42.4003   39.7312 C   0  0  0  0  0  0  0  0  0  0  0  0
   47.4187   41.4531   38.9871 C   0  0  0  0  0  0  0  0  0  0  0  0
   45.4364   40.3100   38.4669 C   0  0  0  0  0  0  0  0  0  0  0  0
   44.7848   41.2444   39.1941 C   0  0  0  0  0  0  0  0  0  0  0  0
   45.4035   42.2974   39.8294 C   0  0  0  0  0  0  0  0  0  0  0  0
   44.6271   38.1341   38.4890 C   0  0  0  0  0  0  0  0  0  0  0  0
   43.9597   37.0212   37.8475 C   0  0  0  0  0  0  0  0  0  0  0  0
   42.8073   36.3850   38.3263 C   0  0  0  0  0  0  0  0  0  0  0  0
   42.3027   35.3243   37.6019 C   0  0  0  0  0  0  0  0  0  0  0  0
   42.9415   34.9682   36.4247 C   0  0  0  0  0  0  0  0  0  0  0  0
   44.0946   35.6014   36.0137 C   0  0  0  0  0  0  0  0  0  0  0  0
   47.7815   44.5280   48.8279 N   0  0  0  0  0  0  0  0  0  0  0  0
   47.6528   42.7854   46.1593 N   0  0  0  0  0  0  0  0  0  0  0  0
   44.6738   39.2346   37.8242 N   0  0  0  0  0  0  0  0  0  0  0  0
   44.5741   36.6349   36.6892 N   0  0  0  0  0  0  0  0  0  0  0  0
  1 17  2  0  0  0  0
  1 16  1  0  0  0  0
  2  3  2  0  0  0  0
  2 26  1  0  0  0  0
  3  4  1  0  0  0  0
  4  5  2  0  0  0  0
  5  6  1  0  0  0  0
  6  7  1  0  0  0  0
  6 26  2  0  0  0  0
  7 27  2  0  0  0  0
  8  9  2  0  0  0  0
  8 13  1  0  0  0  0
  8 27  1  0  0  0  0
  9 10  1  0  0  0  0
 10 11  2  0  0  0  0
 11 12  1  0  0  0  0
 11 14  1  0  0  0  0
 12 13  2  0  0  0  0
 14 15  1  0  0  0  0
 15 16  2  0  0  0  0
 15 19  1  0  0  0  0
 17 18  1  0  0  0  0
 17 28  1  0  0  0  0
 18 19  2  0  0  0  0
 20 21  1  0  0  0  0
 20 28  2  0  0  0  0
 21 22  2  0  0  0  0
 21 29  1  0  0  0  0
 22 23  1  0  0  0  0
 23 24  2  0  0  0  0
 24 25  1  0  0  0  0
 25 29  2  0  0  0  0
M  END
>  <CHROM.1>
-74.23456396,155.08652125,-109.39631534,-117.53867563,95.49702817,84.39807900
46.13589243,41.09209230,42.23949904,-2.10018112,1.02996311,1.51278954

>  <Name>
ligand

>  <RI>
0

>  <Rbt.Current_Directory>
/home/itssahil/PROJECTS/Mol_Feturizer/New_Systems/rnas/4JIY

>  <Rbt.Executable>
rbdock ($Id: //depot/dev/client3/rdock/2013.1/src/exe/rbdock.cxx#4 $)

>  <Rbt.Library>
libRbt.so (2013.1, Build901 2013/11/27)

>  <Rbt.Parameter_File>
/export/apps/rDock/src/rDock_2013.1_src/data/scripts/dock_solv.prm

>  <Rbt.Receptor>
prm/pocket_docking_8.prm

>  <SCORE>
-12.9283

>  <SCORE.INTER>
-12.4512

>  <SCORE.INTER.CONST>
1

>  <SCORE.INTER.POLAR>
0

>  <SCORE.INTER.ROT>
6

>  <SCORE.INTER.SOLV>
2.48114

>  <SCORE.INTER.VDW>
-16.7278

>  <SCORE.INTER.norm>
-0.42935

>  <SCORE.INTRA>
-0.477105

>  <SCORE.INTRA.DIHEDRAL>
0.734369

>  <SCORE.INTRA.DIHEDRAL.0>
7.2424

>  <SCORE.INTRA.POLAR>
0

>  <SCORE.INTRA.POLAR.0>
0

>  <SCORE.INTRA.REPUL>
0

>  <SCORE.INTRA.REPUL.0>
0

>  <SCORE.INTRA.SOLV>
-0.0163612

>  <SCORE.INTRA.SOLV.lig_0>
-3.36201

>  <SCORE.INTRA.VDW>
-0.836109

>  <SCORE.INTRA.VDW.0>
-0.910526

>  <SCORE.INTRA.norm>
-0.0164519

>  <SCORE.RESTR>
0

>  <SCORE.RESTR.CAVITY>
0

>  <SCORE.RESTR.norm>
0

>  <SCORE.SYSTEM>
0

>  <SCORE.SYSTEM.CONST>
0

>  <SCORE.SYSTEM.DIHEDRAL>
0

>  <SCORE.SYSTEM.SOLV>
0

>  <SCORE.SYSTEM.norm>
0

>  <SCORE.heavy>
29

>  <SCORE.norm>
-0.445802

>  <RMSD>
6.927

$$$$
ligand
 OpenBabel11021811503D
libRbt.so/2013.1/901 2013/11/27
 29 32  0  0  0  0  0  0  0  0999 V2000
   40.5349   42.3080   42.2189 C   0  0  0  0  0  0  0  0  0  0  0  0
   51.8743   44.8581   39.6699 C   0  0  0  0  0  0  0  0  0  0  0  0
   51.8932   45.9505   38.7926 C   0  0  0  0  0  0  0  0  0  0  0  0
   50.7458   46.4351   38.2684 C   0  0  0  0  0  0  0  0  0  0  0  0
   49.5570   45.7830   38.5663 C   0  0  0  0  0  0  0  0  0  0  0  0
   49.5621   44.7549   39.4714 C   0  0  0  0  0  0  0  0  0  0  0  0
   48.3820   44.0546   39.9738 C   0  0  0  0  0  0  0  0  0  0  0  0
   47.1113   42.1099   40.0956 C   0  0  0  0  0  0  0  0  0  0  0  0
   46.3934   41.4109   39.1454 C   0  0  0  0  0  0  0  0  0  0  0  0
   45.1831   40.8203   39.5136 C   0  0  0  0  0  0  0  0  0  0  0  0
   44.7342   40.8273   40.8085 C   0  0  0  0  0  0  0  0  0  0  0  0
   45.4976   41.5430   41.7560 C   0  0  0  0  0  0  0  0  0  0  0  0
   46.6484   42.2322   41.3904 C   0  0  0  0  0  0  0  0  0  0  0  0
   43.4873   40.0559   41.2354 C   0  0  0  0  0  0  0  0  0  0  0  0
   42.5125   40.8905   42.0544 C   0  0  0  0  0  0  0  0  0  0  0  0
   41.4393   41.5416   41.5019 C   0  0  0  0  0  0  0  0  0  0  0  0
   40.7327   42.3936   43.5711 C   0  0  0  0  0  0  0  0  0  0  0  0
   41.7923   41.7589   44.1195 C   0  0  0  0  0  0  0  0  0  0  0  0
   42.6992   41.0111   43.4030 C   0  0  0  0  0  0  0  0  0  0  0  0
   39.9670   44.4481   44.3347 C   0  0  0  0  0  0  0  0  0  0  0  0
   39.1607   45.2490   45.2312 C   0  0  0  0  0  0  0  0  0  0  0  0
   37.7605   45.2926   45.2380 C   0  0  0  0  0  0  0  0  0  0  0  0
   37.1413   46.1231   46.1497 C   0  0  0  0  0  0  0  0  0  0  0  0
   37.9345   46.8417   47.0302 C   0  0  0  0  0  0  0  0  0  0  0  0
   39.3100   46.7935   46.9601 C   0  0  0  0  0  0  0  0  0  0  0  0
   50.7137   44.2690   40.0041 N   0  0  0  0  0  0  0  0  0  0  0  0
   48.3431   42.7790   39.7002 N   0  0  0  0  0  0  0  0  0  0  0  0
   39.8339   43.1720   44.4299 N   0  0  0  0  0  0  0  0  0  0  0  0
   39.9140   45.9827   46.1045 N   0  0  0  0  0  0  0  0  0  0  0  0
  1 17  2  0  0  0  0
  1 16  1  0  0  0  0
  2  3  2  0  0  0  0
  2 26  1  0  0  0  0
  3  4  1  0  0  0  0
  4  5  2  0  0  0  0
  5  6  1  0  0  0  0
  6  7  1  0  0  0  0
  6 26  2  0  0  0  0
  7 27  2  0  0  0  0
  8  9  2  0  0  0  0
  8 13  1  0  0  0  0
  8 27  1  0  0  0  0
  9 10  1  0  0  0  0
 10 11  2  0  0  0  0
 11 12  1  0  0  0  0
 11 14  1  0  0  0  0
 12 13  2  0  0  0  0
 14 15  1  0  0  0  0
 15 16  2  0  0  0  0
 15 19  1  0  0  0  0
 17 18  1  0  0  0  0
 17 28  1  0  0  0  0
 18 19  2  0  0  0  0
 20 21  1  0  0  0  0
 20 28  2  0  0  0  0
 21 22  2  0  0  0  0
 21 29  1  0  0  0  0
 22 23  1  0  0  0  0
 23 24  2  0  0  0  0
 24 25  1  0  0  0  0
 25 29  2  0  0  0  0
M  END
>  <CHROM.1>
118.32532649,-131.00800665,95.27094741,-63.19000315,124.66051444,-73.82433515
44.17561868,43.50347103,42.10027877,2.91844163,0.46719313,0.37190966

>  <Name>
ligand

>  <RI>
0

>  <Rbt.Current_Directory>
/home/itssahil/PROJECTS/Mol_Feturizer/New_Systems/rnas/4JIY

>  <Rbt.Executable>
rbdock ($Id: //depot/dev/client3/rdock/2013.1/src/exe/rbdock.cxx#4 $)

>  <Rbt.Library>
libRbt.so (2013.1, Build901 2013/11/27)

>  <Rbt.Parameter_File>
/export/apps/rDock/src/rDock_2013.1_src/data/scripts/dock_solv.prm

>  <Rbt.Receptor>
prm/pocket_docking_7.prm

>  <SCORE>
-9.72073

>  <SCORE.INTER>
-9.30741

>  <SCORE.INTER.CONST>
1

>  <SCORE.INTER.POLAR>
0

>  <SCORE.INTER.ROT>
6

>  <SCORE.INTER.SOLV>
2.94672

>  <SCORE.INTER.VDW>
-14.7872

>  <SCORE.INTER.norm>
-0.320945

>  <SCORE.INTRA>
-0.41332

>  <SCORE.INTRA.DIHEDRAL>
0.430166

>  <SCORE.INTRA.DIHEDRAL.0>
7.2424

>  <SCORE.INTRA.POLAR>
0

>  <SCORE.INTRA.POLAR.0>
0

>  <SCORE.INTRA.REPUL>
0

>  <SCORE.INTRA.REPUL.0>
0

>  <SCORE.INTRA.SOLV>
-0.0156094

>  <SCORE.INTRA.SOLV.lig_0>
-3.36201

>  <SCORE.INTRA.VDW>
-0.620598

>  <SCORE.INTRA.VDW.0>
-0.910526

>  <SCORE.INTRA.norm>
-0.0142524

>  <SCORE.RESTR>
0

>  <SCORE.RESTR.CAVITY>
0

>  <SCORE.RESTR.norm>
0

>  <SCORE.SYSTEM>
0

>  <SCORE.SYSTEM.CONST>
0

>  <SCORE.SYSTEM.DIHEDRAL>
0

>  <SCORE.SYSTEM.SOLV>
0

>  <SCORE.SYSTEM.norm>
0

>  <SCORE.heavy>
29

>  <SCORE.norm>
-0.335198

>  <RMSD>
6.950

$$$$
ligand
 OpenBabel11021811503D
libRbt.so/2013.1/901 2013/11/27
 29 32  0  0  0  0  0  0  0  0999 V2000
   46.9178   40.4966   38.3695 C   0  0  0  0  0  0  0  0  0  0  0  0
   46.0827   43.5992   50.4033 C   0  0  0  0  0  0  0  0  0  0  0  0
   47.2740   43.6702   51.1377 C   0  0  0  0  0  0  0  0  0  0  0  0
   48.4637   43.8082   50.5119 C   0  0  0  0  0  0  0  0  0  0  0  0
   48.4830   43.8097   49.1238 C   0  0  0  0  0  0  0  0  0  0  0  0
   47.2994   43.7970   48.4344 C   0  0  0  0  0  0  0  0  0  0  0  0
   47.1550   43.9151   46.9851 C   0  0  0  0  0  0  0  0  0  0  0  0
   47.5680   43.0680   44.8584 C   0  0  0  0  0  0  0  0  0  0  0  0
   46.5543   42.4701   44.1359 C   0  0  0  0  0  0  0  0  0  0  0  0
   46.5570   42.5878   42.7448 C   0  0  0  0  0  0  0  0  0  0  0  0
   47.4755   43.3590   42.0816 C   0  0  0  0  0  0  0  0  0  0  0  0
   48.4922   43.9637   42.8519 C   0  0  0  0  0  0  0  0  0  0  0  0
   48.5745   43.7700   44.2262 C   0  0  0  0  0  0  0  0  0  0  0  0
   47.3879   43.6049   40.5769 C   0  0  0  0  0  0  0  0  0  0  0  0
   46.7470   42.4540   39.8139 C   0  0  0  0  0  0  0  0  0  0  0  0
   47.4703   41.5535   39.0743 C   0  0  0  0  0  0  0  0  0  0  0  0
   45.5588   40.3473   38.4437 C   0  0  0  0  0  0  0  0  0  0  0  0
   44.8409   41.2355   39.1661 C   0  0  0  0  0  0  0  0  0  0  0  0
   45.3901   42.2949   39.8528 C   0  0  0  0  0  0  0  0  0  0  0  0
   44.7489   38.1716   38.4190 C   0  0  0  0  0  0  0  0  0  0  0  0
   44.1518   37.0470   37.7304 C   0  0  0  0  0  0  0  0  0  0  0  0
   44.5569   36.5555   36.4828 C   0  0  0  0  0  0  0  0  0  0  0  0
   43.8706   35.4813   35.9542 C   0  0  0  0  0  0  0  0  0  0  0  0
   42.8423   34.9261   36.6992 C   0  0  0  0  0  0  0  0  0  0  0  0
   42.4565   35.4684   37.9060 C   0  0  0  0  0  0  0  0  0  0  0  0
   46.1014   43.6636   49.0613 N   0  0  0  0  0  0  0  0  0  0  0  0
   47.6024   42.8955   46.3042 N   0  0  0  0  0  0  0  0  0  0  0  0
   44.8672   39.2600   37.7432 N   0  0  0  0  0  0  0  0  0  0  0  0
   43.1228   36.4847   38.4328 N   0  0  0  0  0  0  0  0  0  0  0  0
  1 17  2  0  0  0  0
  1 16  1  0  0  0  0
  2  3  2  0  0  0  0
  2 26  1  0  0  0  0
  3  4  1  0  0  0  0
  4  5  2  0  0  0  0
  5  6  1  0  0  0  0
  6  7  1  0  0  0  0
  6 26  2  0  0  0  0
  7 27  2  0  0  0  0
  8  9  2  0  0  0  0
  8 13  1  0  0  0  0
  8 27  1  0  0  0  0
  9 10  1  0  0  0  0
 10 11  2  0  0  0  0
 11 12  1  0  0  0  0
 11 14  1  0  0  0  0
 12 13  2  0  0  0  0
 14 15  1  0  0  0  0
 15 16  2  0  0  0  0
 15 19  1  0  0  0  0
 17 18  1  0  0  0  0
 17 28  1  0  0  0  0
 18 19  2  0  0  0  0
 20 21  1  0  0  0  0
 20 28  2  0  0  0  0
 21 22  2  0  0  0  0
 21 29  1  0  0  0  0
 22 23  1  0  0  0  0
 23 24  2  0  0  0  0
 24 25  1  0  0  0  0
 25 29  2  0  0  0  0
M  END
>  <CHROM.1>
68.33966726,-30.02476721,-103.48081485,51.57043240,-101.38895755,89.44912609
46.14848887,41.16402799,42.33308371,-2.05025881,0.99959948,1.45741212

>  <Name>
ligand

>  <RI>
0

>  <Rbt.Current_Directory>
/home/itssahil/PROJECTS/Mol_Feturizer/New_Systems/rnas/4JIY

>  <Rbt.Executable>
rbdock ($Id: //depot/dev/client3/rdock/2013.1/src/exe/rbdock.cxx#4 $)

>  <Rbt.Library>
libRbt.so (2013.1, Build901 2013/11/27)

>  <Rbt.Parameter_File>
/export/apps/rDock/src/rDock_2013.1_src/data/scripts/dock_solv.prm

>  <Rbt.Receptor>
prm/pocket_docking_8.prm

>  <SCORE>
-13.095

>  <SCORE.INTER>
-12.1272

>  <SCORE.INTER.CONST>
1

>  <SCORE.INTER.POLAR>
0

>  <SCORE.INTER.ROT>
6

>  <SCORE.INTER.SOLV>
2.39312

>  <SCORE.INTER.VDW>
-16.4825

>  <SCORE.INTER.norm>
-0.418179

>  <SCORE.INTRA>
-0.967833

>  <SCORE.INTRA.DIHEDRAL>
-0.133736

>  <SCORE.INTRA.DIHEDRAL.0>
7.2424

>  <SCORE.INTRA.POLAR>
0

>  <SCORE.INTRA.POLAR.0>
0

>  <SCORE.INTRA.REPUL>
0

>  <SCORE.INTRA.REPUL.0>
0

>  <SCORE.INTRA.SOLV>
-0.0203569

>  <SCORE.INTRA.SOLV.lig_0>
-3.36201

>  <SCORE.INTRA.VDW>
-0.890786

>  <SCORE.INTRA.VDW.0>
-0.910526

>  <SCORE.INTRA.norm>
-0.0333735

>  <SCORE.RESTR>
0

>  <SCORE.RESTR.CAVITY>
0

>  <SCORE.RESTR.norm>
0

>  <SCORE.SYSTEM>
0

>  <SCORE.SYSTEM.CONST>
0

>  <SCORE.SYSTEM.DIHEDRAL>
0

>  <SCORE.SYSTEM.SOLV>
0

>  <SCORE.SYSTEM.norm>
0

>  <SCORE.heavy>
29

>  <SCORE.norm>
-0.451552

>  <RMSD>
6.951

$$$$
ligand
 OpenBabel11021811503D
libRbt.so/2013.1/901 2013/11/27
 29 32  0  0  0  0  0  0  0  0999 V2000
   46.3780   41.6018   39.7231 C   0  0  0  0  0  0  0  0  0  0  0  0
   53.2783   49.6111   46.9606 C   0  0  0  0  0  0  0  0  0  0  0  0
   54.4966   49.2653   47.5605 C   0  0  0  0  0  0  0  0  0  0  0  0
   55.2103   48.2081   47.1144 C   0  0  0  0  0  0  0  0  0  0  0  0
   54.6752   47.4338   46.0939 C   0  0  0  0  0  0  0  0  0  0  0  0
   53.5117   47.8291   45.4887 C   0  0  0  0  0  0  0  0  0  0  0  0
   52.8924   47.1891   44.3302 C   0  0  0  0  0  0  0  0  0  0  0  0
   51.0239   46.2161   43.3439 C   0  0  0  0  0  0  0  0  0  0  0  0
   50.5290   46.9080   42.2561 C   0  0  0  0  0  0  0  0  0  0  0  0
   49.9122   46.1949   41.2265 C   0  0  0  0  0  0  0  0  0  0  0  0
   49.8703   44.8251   41.2137 C   0  0  0  0  0  0  0  0  0  0  0  0
   50.3940   44.1493   42.3370 C   0  0  0  0  0  0  0  0  0  0  0  0
   50.9133   44.8424   43.4246 C   0  0  0  0  0  0  0  0  0  0  0  0
   49.3277   44.0447   40.0183 C   0  0  0  0  0  0  0  0  0  0  0  0
   48.0815   43.2328   40.3433 C   0  0  0  0  0  0  0  0  0  0  0  0
   47.5105   42.3545   39.4582 C   0  0  0  0  0  0  0  0  0  0  0  0
   45.8169   41.7449   40.9638 C   0  0  0  0  0  0  0  0  0  0  0  0
   46.3723   42.6137   41.8375 C   0  0  0  0  0  0  0  0  0  0  0  0
   47.4882   43.3729   41.5666 C   0  0  0  0  0  0  0  0  0  0  0  0
   44.4154   40.9272   42.6243 C   0  0  0  0  0  0  0  0  0  0  0  0
   43.2945   40.1188   43.0552 C   0  0  0  0  0  0  0  0  0  0  0  0
   42.7342   40.1327   44.3389 C   0  0  0  0  0  0  0  0  0  0  0  0
   41.6745   39.2864   44.5939 C   0  0  0  0  0  0  0  0  0  0  0  0
   41.2006   38.4949   43.5596 C   0  0  0  0  0  0  0  0  0  0  0  0
   41.8090   38.4896   42.3231 C   0  0  0  0  0  0  0  0  0  0  0  0
   52.7947   48.8948   45.9318 N   0  0  0  0  0  0  0  0  0  0  0  0
   51.6127   46.9617   44.4479 N   0  0  0  0  0  0  0  0  0  0  0  0
   44.6202   40.9931   41.3558 N   0  0  0  0  0  0  0  0  0  0  0  0
   42.8118   39.3143   42.0611 N   0  0  0  0  0  0  0  0  0  0  0  0
  1 17  2  0  0  0  0
  1 16  1  0  0  0  0
  2  3  2  0  0  0  0
  2 26  1  0  0  0  0
  3  4  1  0  0  0  0
  4  5  2  0  0  0  0
  5  6  1  0  0  0  0
  6  7  1  0  0  0  0
  6 26  2  0  0  0  0
  7 27  2  0  0  0  0
  8  9  2  0  0  0  0
  8 13  1  0  0  0  0
  8 27  1  0  0  0  0
  9 10  1  0  0  0  0
 10 11  2  0  0  0  0
 11 12  1  0  0  0  0
 11 14  1  0  0  0  0
 12 13  2  0  0  0  0
 14 15  1  0  0  0  0
 15 16  2  0  0  0  0
 15 19  1  0  0  0  0
 17 18  1  0  0  0  0
 17 28  1  0  0  0  0
 18 19  2  0  0  0  0
 20 21  1  0  0  0  0
 20 28  2  0  0  0  0
 21 22  2  0  0  0  0
 21 29  1  0  0  0  0
 22 23  1  0  0  0  0
 23 24  2  0  0  0  0
 24 25  1  0  0  0  0
 25 29  2  0  0  0  0
M  END
>  <CHROM.1>
132.46525322,-116.39519708,-173.13997833,-166.06075166,-89.31346716,161.52861370
48.43185039,43.97651650,43.08102391,-2.81727620,0.64345825,1.43168539

>  <Name>
ligand

>  <RI>
0

>  <Rbt.Current_Directory>
/home/itssahil/PROJECTS/Mol_Feturizer/New_Systems/rnas/4JIY

>  <Rbt.Executable>
rbdock ($Id: //depot/dev/client3/rdock/2013.1/src/exe/rbdock.cxx#4 $)

>  <Rbt.Library>
libRbt.so (2013.1, Build901 2013/11/27)

>  <Rbt.Parameter_File>
/export/apps/rDock/src/rDock_2013.1_src/data/scripts/dock_solv.prm

>  <Rbt.Receptor>
prm/pocket_docking_7.prm

>  <SCORE>
-8.97126

>  <SCORE.INTER>
-10.3348

>  <SCORE.INTER.CONST>
1

>  <SCORE.INTER.POLAR>
0

>  <SCORE.INTER.ROT>
6

>  <SCORE.INTER.SOLV>
2.95963

>  <SCORE.INTER.VDW>
-15.4764

>  <SCORE.INTER.norm>
-0.356372

>  <SCORE.INTRA>
1.36353

>  <SCORE.INTRA.DIHEDRAL>
0.49701

>  <SCORE.INTRA.DIHEDRAL.0>
7.2424

>  <SCORE.INTRA.POLAR>
0

>  <SCORE.INTRA.POLAR.0>
0

>  <SCORE.INTRA.REPUL>
0

>  <SCORE.INTRA.REPUL.0>
0

>  <SCORE.INTRA.SOLV>
-0.0028873

>  <SCORE.INTRA.SOLV.lig_0>
-3.36201

>  <SCORE.INTRA.VDW>
1.11647

>  <SCORE.INTRA.VDW.0>
-0.910526

>  <SCORE.INTRA.norm>
0.0470182

>  <SCORE.RESTR>
0

>  <SCORE.RESTR.CAVITY>
0

>  <SCORE.RESTR.norm>
0

>  <SCORE.SYSTEM>
0

>  <SCORE.SYSTEM.CONST>
0

>  <SCORE.SYSTEM.DIHEDRAL>
0

>  <SCORE.SYSTEM.SOLV>
0

>  <SCORE.SYSTEM.norm>
0

>  <SCORE.heavy>
29

>  <SCORE.norm>
-0.309354

>  <RMSD>
6.960

$$$$
ligand
 OpenBabel11021811503D
libRbt.so/2013.1/901 2013/11/27
 29 32  0  0  0  0  0  0  0  0999 V2000
   46.7366   42.4787   44.1044 C   0  0  0  0  0  0  0  0  0  0  0  0
   44.0893   34.6112   37.7537 C   0  0  0  0  0  0  0  0  0  0  0  0
   43.3156   34.5876   36.5856 C   0  0  0  0  0  0  0  0  0  0  0  0
   42.8829   35.7364   36.0208 C   0  0  0  0  0  0  0  0  0  0  0  0
   43.1656   36.9347   36.6623 C   0  0  0  0  0  0  0  0  0  0  0  0
   43.9719   36.9311   37.7696 C   0  0  0  0  0  0  0  0  0  0  0  0
   44.4533   38.1149   38.4782 C   0  0  0  0  0  0  0  0  0  0  0  0
   45.4892   40.1969   38.4205 C   0  0  0  0  0  0  0  0  0  0  0  0
   46.8480   40.4191   38.3147 C   0  0  0  0  0  0  0  0  0  0  0  0
   47.4199   41.4632   39.0439 C   0  0  0  0  0  0  0  0  0  0  0  0
   46.6630   42.3351   39.7822 C   0  0  0  0  0  0  0  0  0  0  0  0
   45.2760   42.0843   39.8609 C   0  0  0  0  0  0  0  0  0  0  0  0
   44.6999   40.9857   39.2332 C   0  0  0  0  0  0  0  0  0  0  0  0
   47.2722   43.5616   40.4580 C   0  0  0  0  0  0  0  0  0  0  0  0
   47.4511   43.3960   41.9608 C   0  0  0  0  0  0  0  0  0  0  0  0
   46.6015   42.6490   42.7362 C   0  0  0  0  0  0  0  0  0  0  0  0
   47.8067   43.0901   44.7007 C   0  0  0  0  0  0  0  0  0  0  0  0
   48.6434   43.8322   43.9420 C   0  0  0  0  0  0  0  0  0  0  0  0
   48.4983   44.0137   42.5851 C   0  0  0  0  0  0  0  0  0  0  0  0
   47.4437   43.8451   46.8659 C   0  0  0  0  0  0  0  0  0  0  0  0
   47.7305   43.8185   48.2845 C   0  0  0  0  0  0  0  0  0  0  0  0
   48.6229   44.6728   48.9449 C   0  0  0  0  0  0  0  0  0  0  0  0
   48.7959   44.5063   50.3038 C   0  0  0  0  0  0  0  0  0  0  0  0
   48.0541   43.5279   50.9467 C   0  0  0  0  0  0  0  0  0  0  0  0
   47.2155   42.6872   50.2472 C   0  0  0  0  0  0  0  0  0  0  0  0
   44.4128   35.7778   38.3366 N   0  0  0  0  0  0  0  0  0  0  0  0
   44.8994   39.0708   37.7097 N   0  0  0  0  0  0  0  0  0  0  0  0
   48.0520   42.9727   46.1419 N   0  0  0  0  0  0  0  0  0  0  0  0
   47.0249   42.8532   48.9470 N   0  0  0  0  0  0  0  0  0  0  0  0
  1 17  2  0  0  0  0
  1 16  1  0  0  0  0
  2  3  2  0  0  0  0
  2 26  1  0  0  0  0
  3  4  1  0  0  0  0
  4  5  2  0  0  0  0
  5  6  1  0  0  0  0
  6  7  1  0  0  0  0
  6 26  2  0  0  0  0
  7 27  2  0  0  0  0
  8  9  2  0  0  0  0
  8 13  1  0  0  0  0
  8 27  1  0  0  0  0
  9 10  1  0  0  0  0
 10 11  2  0  0  0  0
 11 12  1  0  0  0  0
 11 14  1  0  0  0  0
 12 13  2  0  0  0  0
 14 15  1  0  0  0  0
 15 16  2  0  0  0  0
 15 19  1  0  0  0  0
 17 18  1  0  0  0  0
 17 28  1  0  0  0  0
 18 19  2  0  0  0  0
 20 21  1  0  0  0  0
 20 28  2  0  0  0  0
 21 22  2  0  0  0  0
 21 29  1  0  0  0  0
 22 23  1  0  0  0  0
 23 24  2  0  0  0  0
 24 25  1  0  0  0  0
 25 29  2  0  0  0  0
M  END
>  <CHROM.1>
-44.85853079,-103.97033918,-32.40126687,99.49547947,111.92796294,-86.95061717
46.32686144,41.06758783,42.25053578,-0.85461002,-1.12144045,-1.45304987

>  <Name>
ligand

>  <RI>
0

>  <Rbt.Current_Directory>
/home/itssahil/PROJECTS/Mol_Feturizer/New_Systems/rnas/4JIY

>  <Rbt.Executable>
rbdock ($Id: //depot/dev/client3/rdock/2013.1/src/exe/rbdock.cxx#4 $)

>  <Rbt.Library>
libRbt.so (2013.1, Build901 2013/11/27)

>  <Rbt.Parameter_File>
/export/apps/rDock/src/rDock_2013.1_src/data/scripts/dock_solv.prm

>  <Rbt.Receptor>
prm/pocket_docking_8.prm

>  <SCORE>
-12.5584

>  <SCORE.INTER>
-12.0396

>  <SCORE.INTER.CONST>
1

>  <SCORE.INTER.POLAR>
0

>  <SCORE.INTER.ROT>
6

>  <SCORE.INTER.SOLV>
2.37334

>  <SCORE.INTER.VDW>
-16.4175

>  <SCORE.INTER.norm>
-0.415159

>  <SCORE.INTRA>
-0.518771

>  <SCORE.INTRA.DIHEDRAL>
0.584792

>  <SCORE.INTRA.DIHEDRAL.0>
7.2424

>  <SCORE.INTRA.POLAR>
0

>  <SCORE.INTRA.POLAR.0>
0

>  <SCORE.INTRA.REPUL>
0

>  <SCORE.INTRA.REPUL.0>
0

>  <SCORE.INTRA.SOLV>
-0.0180213

>  <SCORE.INTRA.SOLV.lig_0>
-3.36201

>  <SCORE.INTRA.VDW>
-0.802157

>  <SCORE.INTRA.VDW.0>
-0.910526

>  <SCORE.INTRA.norm>
-0.0178887

>  <SCORE.RESTR>
0

>  <SCORE.RESTR.CAVITY>
0

>  <SCORE.RESTR.norm>
0

>  <SCORE.SYSTEM>
0

>  <SCORE.SYSTEM.CONST>
0

>  <SCORE.SYSTEM.DIHEDRAL>
0

>  <SCORE.SYSTEM.SOLV>
0

>  <SCORE.SYSTEM.norm>
0

>  <SCORE.heavy>
29

>  <SCORE.norm>
-0.433047

>  <RMSD>
6.960

$$$$
ligand
 OpenBabel11021811503D
libRbt.so/2013.1/901 2013/11/27
 29 32  0  0  0  0  0  0  0  0999 V2000
   50.2249   44.3479   43.4703 C   0  0  0  0  0  0  0  0  0  0  0  0
   41.9368   38.4961   44.6003 C   0  0  0  0  0  0  0  0  0  0  0  0
   41.0878   37.7275   43.7928 C   0  0  0  0  0  0  0  0  0  0  0  0
   41.0501   37.9156   42.4552 C   0  0  0  0  0  0  0  0  0  0  0  0
   41.8213   38.9330   41.9098 C   0  0  0  0  0  0  0  0  0  0  0  0
   42.6839   39.6289   42.7149 C   0  0  0  0  0  0  0  0  0  0  0  0
   43.6404   40.6393   42.2683 C   0  0  0  0  0  0  0  0  0  0  0  0
   45.5037   41.2054   40.9959 C   0  0  0  0  0  0  0  0  0  0  0  0
   46.0287   42.0170   41.9821 C   0  0  0  0  0  0  0  0  0  0  0  0
   46.9702   42.9855   41.6288 C   0  0  0  0  0  0  0  0  0  0  0  0
   47.4629   43.0904   40.3542 C   0  0  0  0  0  0  0  0  0  0  0  0
   46.9110   42.2388   39.3730 C   0  0  0  0  0  0  0  0  0  0  0  0
   45.8932   41.3423   39.6787 C   0  0  0  0  0  0  0  0  0  0  0  0
   48.5978   44.0502   40.0034 C   0  0  0  0  0  0  0  0  0  0  0  0
   49.6346   44.1885   41.1095 C   0  0  0  0  0  0  0  0  0  0  0  0
   49.3064   44.2232   42.4407 C   0  0  0  0  0  0  0  0  0  0  0  0
   51.5452   44.4217   43.1151 C   0  0  0  0  0  0  0  0  0  0  0  0
   51.8734   44.3940   41.8044 C   0  0  0  0  0  0  0  0  0  0  0  0
   50.9579   44.2863   40.7819 C   0  0  0  0  0  0  0  0  0  0  0  0
   52.6125   45.6667   44.7586 C   0  0  0  0  0  0  0  0  0  0  0  0
   53.6964   45.8660   45.6971 C   0  0  0  0  0  0  0  0  0  0  0  0
   54.7851   46.7260   45.5037 C   0  0  0  0  0  0  0  0  0  0  0  0
   55.7457   46.7898   46.4923 C   0  0  0  0  0  0  0  0  0  0  0  0
   55.5652   46.0274   47.6356 C   0  0  0  0  0  0  0  0  0  0  0  0
   54.4956   45.1679   47.7638 C   0  0  0  0  0  0  0  0  0  0  0  0
   42.7276   39.4382   44.0594 N   0  0  0  0  0  0  0  0  0  0  0  0
   44.4764   40.2358   41.3508 N   0  0  0  0  0  0  0  0  0  0  0  0
   52.6043   44.5488   44.1217 N   0  0  0  0  0  0  0  0  0  0  0  0
   53.5563   45.1161   46.8313 N   0  0  0  0  0  0  0  0  0  0  0  0
  1 17  2  0  0  0  0
  1 16  1  0  0  0  0
  2  3  2  0  0  0  0
  2 26  1  0  0  0  0
  3  4  1  0  0  0  0
  4  5  2  0  0  0  0
  5  6  1  0  0  0  0
  6  7  1  0  0  0  0
  6 26  2  0  0  0  0
  7 27  2  0  0  0  0
  8  9  2  0  0  0  0
  8 13  1  0  0  0  0
  8 27  1  0  0  0  0
  9 10  1  0  0  0  0
 10 11  2  0  0  0  0
 11 12  1  0  0  0  0
 11 14  1  0  0  0  0
 12 13  2  0  0  0  0
 14 15  1  0  0  0  0
 15 16  2  0  0  0  0
 15 19  1  0  0  0  0
 17 18  1  0  0  0  0
 17 28  1  0  0  0  0
 18 19  2  0  0  0  0
 20 21  1  0  0  0  0
 20 28  2  0  0  0  0
 21 22  2  0  0  0  0
 21 29  1  0  0  0  0
 22 23  1  0  0  0  0
 23 24  2  0  0  0  0
 24 25  1  0  0  0  0
 25 29  2  0  0  0  0
M  END
>  <CHROM.1>
-55.96123634,35.59966716,-38.73289855,106.94091165,36.00143516,-67.59188033
48.39144471,42.81580112,43.06673032,-0.14096988,-0.54677845,-1.36748310

>  <Name>
ligand

>  <RI>
0

>  <Rbt.Current_Directory>
/home/itssahil/PROJECTS/Mol_Feturizer/New_Systems/rnas/4JIY

>  <Rbt.Executable>
rbdock ($Id: //depot/dev/client3/rdock/2013.1/src/exe/rbdock.cxx#4 $)

>  <Rbt.Library>
libRbt.so (2013.1, Build901 2013/11/27)

>  <Rbt.Parameter_File>
/export/apps/rDock/src/rDock_2013.1_src/data/scripts/dock_solv.prm

>  <Rbt.Receptor>
prm/pocket_docking_7.prm

>  <SCORE>
-11.8432

>  <SCORE.INTER>
-12.7383

>  <SCORE.INTER.CONST>
1

>  <SCORE.INTER.POLAR>
0

>  <SCORE.INTER.ROT>
6

>  <SCORE.INTER.SOLV>
3.44785

>  <SCORE.INTER.VDW>
-17.2415

>  <SCORE.INTER.norm>
-0.439253

>  <SCORE.INTRA>
0.893377

>  <SCORE.INTRA.DIHEDRAL>
0.522338

>  <SCORE.INTRA.DIHEDRAL.0>
7.2424

>  <SCORE.INTRA.POLAR>
0

>  <SCORE.INTRA.POLAR.0>
0

>  <SCORE.INTRA.REPUL>
0

>  <SCORE.INTRA.REPUL.0>
0

>  <SCORE.INTRA.SOLV>
-0.0153786

>  <SCORE.INTRA.SOLV.lig_0>
-3.36201

>  <SCORE.INTRA.VDW>
0.639897

>  <SCORE.INTRA.VDW.0>
-0.910526

>  <SCORE.INTRA.norm>
0.0308061

>  <SCORE.RESTR>
0.00174642

>  <SCORE.RESTR.CAVITY>
0.00174642

>  <SCORE.RESTR.norm>
6.02215e-05

>  <SCORE.SYSTEM>
0

>  <SCORE.SYSTEM.CONST>
0

>  <SCORE.SYSTEM.DIHEDRAL>
0

>  <SCORE.SYSTEM.SOLV>
0

>  <SCORE.SYSTEM.norm>
0

>  <SCORE.heavy>
29

>  <SCORE.norm>
-0.408386

>  <RMSD>
6.973

$$$$
ligand
 OpenBabel11021811503D
libRbt.so/2013.1/901 2013/11/27
 29 32  0  0  0  0  0  0  0  0999 V2000
   51.9620   44.5953   42.4919 C   0  0  0  0  0  0  0  0  0  0  0  0
   41.3159   38.5212   42.4181 C   0  0  0  0  0  0  0  0  0  0  0  0
   40.7634   37.8725   41.3056 C   0  0  0  0  0  0  0  0  0  0  0  0
   41.3146   38.0136   40.0799 C   0  0  0  0  0  0  0  0  0  0  0  0
   42.3987   38.8691   39.9383 C   0  0  0  0  0  0  0  0  0  0  0  0
   42.9524   39.4437   41.0516 C   0  0  0  0  0  0  0  0  0  0  0  0
   44.1604   40.2655   41.0764 C   0  0  0  0  0  0  0  0  0  0  0  0
   45.4573   41.9440   40.1215 C   0  0  0  0  0  0  0  0  0  0  0  0
   46.5279   41.3990   39.4406 C   0  0  0  0  0  0  0  0  0  0  0  0
   47.7465   42.0802   39.4428 C   0  0  0  0  0  0  0  0  0  0  0  0
   47.8872   43.3180   40.0142 C   0  0  0  0  0  0  0  0  0  0  0  0
   46.7700   43.8497   40.6937 C   0  0  0  0  0  0  0  0  0  0  0  0
   45.5791   43.1403   40.7997 C   0  0  0  0  0  0  0  0  0  0  0  0
   49.1780   44.1242   39.8874 C   0  0  0  0  0  0  0  0  0  0  0  0
   49.9064   44.3089   41.2114 C   0  0  0  0  0  0  0  0  0  0  0  0
   51.2697   44.4264   41.3038 C   0  0  0  0  0  0  0  0  0  0  0  0
   51.2156   44.6655   43.6376 C   0  0  0  0  0  0  0  0  0  0  0  0
   49.8723   44.5442   43.5525 C   0  0  0  0  0  0  0  0  0  0  0  0
   49.1874   44.3601   42.3726 C   0  0  0  0  0  0  0  0  0  0  0  0
   52.2425   43.7646   45.5148 C   0  0  0  0  0  0  0  0  0  0  0  0
   52.7848   43.8946   46.8507 C   0  0  0  0  0  0  0  0  0  0  0  0
   53.9989   44.5143   47.1733 C   0  0  0  0  0  0  0  0  0  0  0  0
   54.3822   44.5408   48.4987 C   0  0  0  0  0  0  0  0  0  0  0  0
   53.5317   43.9846   49.4411 C   0  0  0  0  0  0  0  0  0  0  0  0
   52.3641   43.3532   49.0703 C   0  0  0  0  0  0  0  0  0  0  0  0
   42.4033   39.2994   42.2860 N   0  0  0  0  0  0  0  0  0  0  0  0
   44.2025   41.2064   40.1729 N   0  0  0  0  0  0  0  0  0  0  0  0
   51.8420   44.8494   44.9510 N   0  0  0  0  0  0  0  0  0  0  0  0
   51.9758   43.3422   47.8041 N   0  0  0  0  0  0  0  0  0  0  0  0
  1 17  2  0  0  0  0
  1 16  1  0  0  0  0
  2  3  2  0  0  0  0
  2 26  1  0  0  0  0
  3  4  1  0  0  0  0
  4  5  2  0  0  0  0
  5  6  1  0  0  0  0
  6  7  1  0  0  0  0
  6 26  2  0  0  0  0
  7 27  2  0  0  0  0
  8  9  2  0  0  0  0
  8 13  1  0  0  0  0
  8 27  1  0  0  0  0
  9 10  1  0  0  0  0
 10 11  2  0  0  0  0
 11 12  1  0  0  0  0
 11 14  1  0  0  0  0
 12 13  2  0  0  0  0
 14 15  1  0  0  0  0
 15 16  2  0  0  0  0
 15 19  1  0  0  0  0
 17 18  1  0  0  0  0
 17 28  1  0  0  0  0
 18 19  2  0  0  0  0
 20 21  1  0  0  0  0
 20 28  2  0  0  0  0
 21 22  2  0  0  0  0
 21 29  1  0  0  0  0
 22 23  1  0  0  0  0
 23 24  2  0  0  0  0
 24 25  1  0  0  0  0
 25 29  2  0  0  0  0
M  END
>  <CHROM.1>
48.02231761,-113.57789155,149.57619580,-69.23834976,81.26543045,-85.13116421
48.10540944,42.49885237,42.85545890,-0.33683053,-0.56995302,-1.23522122

>  <Name>
ligand

>  <RI>
0

>  <Rbt.Current_Directory>
/home/itssahil/PROJECTS/Mol_Feturizer/New_Systems/rnas/4JIY

>  <Rbt.Executable>
rbdock ($Id: //depot/dev/client3/rdock/2013.1/src/exe/rbdock.cxx#4 $)

>  <Rbt.Library>
libRbt.so (2013.1, Build901 2013/11/27)

>  <Rbt.Parameter_File>
/export/apps/rDock/src/rDock_2013.1_src/data/scripts/dock_solv.prm

>  <Rbt.Receptor>
prm/pocket_docking_7.prm

>  <SCORE>
-10.4058

>  <SCORE.INTER>
-9.87345

>  <SCORE.INTER.CONST>
1

>  <SCORE.INTER.POLAR>
0

>  <SCORE.INTER.ROT>
6

>  <SCORE.INTER.SOLV>
2.63428

>  <SCORE.INTER.VDW>
-15.0604

>  <SCORE.INTER.norm>
-0.340464

>  <SCORE.INTRA>
-0.533362

>  <SCORE.INTRA.DIHEDRAL>
0.220616

>  <SCORE.INTRA.DIHEDRAL.0>
7.2424

>  <SCORE.INTRA.POLAR>
0

>  <SCORE.INTRA.POLAR.0>
0

>  <SCORE.INTRA.REPUL>
0

>  <SCORE.INTRA.REPUL.0>
0

>  <SCORE.INTRA.SOLV>
-0.0191067

>  <SCORE.INTRA.SOLV.lig_0>
-3.36201

>  <SCORE.INTRA.VDW>
-0.634116

>  <SCORE.INTRA.VDW.0>
-0.910526

>  <SCORE.INTRA.norm>
-0.0183918

>  <SCORE.RESTR>
0.000966938

>  <SCORE.RESTR.CAVITY>
0.000966938

>  <SCORE.RESTR.norm>
3.33427e-05

>  <SCORE.SYSTEM>
0

>  <SCORE.SYSTEM.CONST>
0

>  <SCORE.SYSTEM.DIHEDRAL>
0

>  <SCORE.SYSTEM.SOLV>
0

>  <SCORE.SYSTEM.norm>
0

>  <SCORE.heavy>
29

>  <SCORE.norm>
-0.358822

>  <RMSD>
7.019

$$$$
ligand
 OpenBabel11021811503D
libRbt.so/2013.1/901 2013/11/27
 29 32  0  0  0  0  0  0  0  0999 V2000
   46.5625   42.1585   41.0205 C   0  0  0  0  0  0  0  0  0  0  0  0
   40.9259   43.5162   48.9607 C   0  0  0  0  0  0  0  0  0  0  0  0
   39.5986   43.3365   49.3726 C   0  0  0  0  0  0  0  0  0  0  0  0
   38.6660   42.8702   48.5129 C   0  0  0  0  0  0  0  0  0  0  0  0
   39.0394   42.6386   47.1960 C   0  0  0  0  0  0  0  0  0  0  0  0
   40.3550   42.7677   46.8370 C   0  0  0  0  0  0  0  0  0  0  0  0
   40.9177   42.4449   45.5276 C   0  0  0  0  0  0  0  0  0  0  0  0
   41.5690   40.8447   43.9700 C   0  0  0  0  0  0  0  0  0  0  0  0
   40.8659   40.9446   42.7857 C   0  0  0  0  0  0  0  0  0  0  0  0
   41.4919   40.5694   41.5956 C   0  0  0  0  0  0  0  0  0  0  0  0
   42.8110   40.2001   41.5523 C   0  0  0  0  0  0  0  0  0  0  0  0
   43.5025   40.1178   42.7802 C   0  0  0  0  0  0  0  0  0  0  0  0
   42.8686   40.3797   43.9896 C   0  0  0  0  0  0  0  0  0  0  0  0
   43.5322   39.9331   40.2328 C   0  0  0  0  0  0  0  0  0  0  0  0
   44.8551   40.6760   40.1073 C   0  0  0  0  0  0  0  0  0  0  0  0
   45.3631   41.4701   41.1034 C   0  0  0  0  0  0  0  0  0  0  0  0
   47.2827   42.0085   39.8657 C   0  0  0  0  0  0  0  0  0  0  0  0
   46.7835   41.2319   38.8787 C   0  0  0  0  0  0  0  0  0  0  0  0
   45.5836   40.5615   38.9566 C   0  0  0  0  0  0  0  0  0  0  0  0
   48.5334   43.9636   39.8094 C   0  0  0  0  0  0  0  0  0  0  0  0
   49.7636   44.6763   39.5372 C   0  0  0  0  0  0  0  0  0  0  0  0
   50.9046   44.6589   40.3497 C   0  0  0  0  0  0  0  0  0  0  0  0
   51.9941   45.4083   39.9552 C   0  0  0  0  0  0  0  0  0  0  0  0
   51.9138   46.1089   38.7620 C   0  0  0  0  0  0  0  0  0  0  0  0
   50.7556   46.1243   38.0152 C   0  0  0  0  0  0  0  0  0  0  0  0
   41.2958   43.2313   47.7007 N   0  0  0  0  0  0  0  0  0  0  0  0
   40.8993   41.1767   45.2201 N   0  0  0  0  0  0  0  0  0  0  0  0
   48.5693   42.6850   39.6708 N   0  0  0  0  0  0  0  0  0  0  0  0
   49.7125   45.3906   38.3728 N   0  0  0  0  0  0  0  0  0  0  0  0
  1 17  2  0  0  0  0
  1 16  1  0  0  0  0
  2  3  2  0  0  0  0
  2 26  1  0  0  0  0
  3  4  1  0  0  0  0
  4  5  2  0  0  0  0
  5  6  1  0  0  0  0
  6  7  1  0  0  0  0
  6 26  2  0  0  0  0
  7 27  2  0  0  0  0
  8  9  2  0  0  0  0
  8 13  1  0  0  0  0
  8 27  1  0  0  0  0
  9 10  1  0  0  0  0
 10 11  2  0  0  0  0
 11 12  1  0  0  0  0
 11 14  1  0  0  0  0
 12 13  2  0  0  0  0
 14 15  1  0  0  0  0
 15 16  2  0  0  0  0
 15 19  1  0  0  0  0
 17 18  1  0  0  0  0
 17 28  1  0  0  0  0
 18 19  2  0  0  0  0
 20 21  1  0  0  0  0
 20 28  2  0  0  0  0
 21 22  2  0  0  0  0
 21 29  1  0  0  0  0
 22 23  1  0  0  0  0
 23 24  2  0  0  0  0
 24 25  1  0  0  0  0
 25 29  2  0  0  0  0
M  END
>  <CHROM.1>
-66.91580053,129.71179608,2.01681617,-71.70668482,-85.40750519,-55.89158536
44.72343351,42.48980394,42.43155122,0.39023388,-0.58621035,-2.23688494

>  <Name>
ligand

>  <RI>
0

>  <Rbt.Current_Directory>
/home/itssahil/PROJECTS/Mol_Feturizer/New_Systems/rnas/4JIY

>  <Rbt.Executable>
rbdock ($Id: //depot/dev/client3/rdock/2013.1/src/exe/rbdock.cxx#4 $)

>  <Rbt.Library>
libRbt.so (2013.1, Build901 2013/11/27)

>  <Rbt.Parameter_File>
/export/apps/rDock/src/rDock_2013.1_src/data/scripts/dock_solv.prm

>  <Rbt.Receptor>
prm/pocket_docking_8.prm

>  <SCORE>
-11.7793

>  <SCORE.INTER>
-11.5471

>  <SCORE.INTER.CONST>
1

>  <SCORE.INTER.POLAR>
0

>  <SCORE.INTER.ROT>
6

>  <SCORE.INTER.SOLV>
3.25283

>  <SCORE.INTER.VDW>
-16.3824

>  <SCORE.INTER.norm>
-0.398177

>  <SCORE.INTRA>
-0.232191

>  <SCORE.INTRA.DIHEDRAL>
0.0846346

>  <SCORE.INTRA.DIHEDRAL.0>
7.2424

>  <SCORE.INTRA.POLAR>
0

>  <SCORE.INTRA.POLAR.0>
0

>  <SCORE.INTRA.REPUL>
0

>  <SCORE.INTRA.REPUL.0>
0

>  <SCORE.INTRA.SOLV>
-0.0198054

>  <SCORE.INTRA.SOLV.lig_0>
-3.36201

>  <SCORE.INTRA.VDW>
-0.264606

>  <SCORE.INTRA.VDW.0>
-0.910526

>  <SCORE.INTRA.norm>
-0.0080066

>  <SCORE.RESTR>
0

>  <SCORE.RESTR.CAVITY>
0

>  <SCORE.RESTR.norm>
0

>  <SCORE.SYSTEM>
0

>  <SCORE.SYSTEM.CONST>
0

>  <SCORE.SYSTEM.DIHEDRAL>
0

>  <SCORE.SYSTEM.SOLV>
0

>  <SCORE.SYSTEM.norm>
0

>  <SCORE.heavy>
29

>  <SCORE.norm>
-0.406184

>  <RMSD>
7.024

$$$$
ligand
 OpenBabel11021811503D
libRbt.so/2013.1/901 2013/11/27
 29 32  0  0  0  0  0  0  0  0999 V2000
   46.8607   40.4048   38.2920 C   0  0  0  0  0  0  0  0  0  0  0  0
   46.0569   42.5844   50.4342 C   0  0  0  0  0  0  0  0  0  0  0  0
   47.0638   43.2074   51.1837 C   0  0  0  0  0  0  0  0  0  0  0  0
   48.0203   43.9443   50.5771 C   0  0  0  0  0  0  0  0  0  0  0  0
   48.0204   44.0130   49.1905 C   0  0  0  0  0  0  0  0  0  0  0  0
   46.9918   43.4426   48.4885 C   0  0  0  0  0  0  0  0  0  0  0  0
   46.7910   43.5335   47.0439 C   0  0  0  0  0  0  0  0  0  0  0  0
   47.4139   42.8992   44.8943 C   0  0  0  0  0  0  0  0  0  0  0  0
   46.3807   42.2771   44.2217 C   0  0  0  0  0  0  0  0  0  0  0  0
   46.3084   42.4006   42.8330 C   0  0  0  0  0  0  0  0  0  0  0  0
   47.1704   43.1992   42.1277 C   0  0  0  0  0  0  0  0  0  0  0  0
   48.2088   43.8281   42.8480 C   0  0  0  0  0  0  0  0  0  0  0  0
   48.3672   43.6310   44.2151 C   0  0  0  0  0  0  0  0  0  0  0  0
   46.9986   43.4489   40.6309 C   0  0  0  0  0  0  0  0  0  0  0  0
   46.4987   42.2292   39.8693 C   0  0  0  0  0  0  0  0  0  0  0  0
   47.2851   41.5178   38.9995 C   0  0  0  0  0  0  0  0  0  0  0  0
   45.5722   39.9926   38.5031 C   0  0  0  0  0  0  0  0  0  0  0  0
   44.7914   40.6938   39.3546 C   0  0  0  0  0  0  0  0  0  0  0  0
   45.2099   41.8092   40.0444 C   0  0  0  0  0  0  0  0  0  0  0  0
   43.9864   39.0646   37.0839 C   0  0  0  0  0  0  0  0  0  0  0  0
   43.3572   37.9211   36.4579 C   0  0  0  0  0  0  0  0  0  0  0  0
   42.6690   36.9060   37.1348 C   0  0  0  0  0  0  0  0  0  0  0  0
   42.1384   35.8728   36.3897 C   0  0  0  0  0  0  0  0  0  0  0  0
   42.2848   35.9122   35.0120 C   0  0  0  0  0  0  0  0  0  0  0  0
   43.0025   36.9138   34.3948 C   0  0  0  0  0  0  0  0  0  0  0  0
   46.0257   42.7055   49.0964 N   0  0  0  0  0  0  0  0  0  0  0  0
   47.5275   42.7217   46.3355 N   0  0  0  0  0  0  0  0  0  0  0  0
   45.0184   38.8228   37.8131 N   0  0  0  0  0  0  0  0  0  0  0  0
   43.4961   37.9218   35.0980 N   0  0  0  0  0  0  0  0  0  0  0  0
  1 17  2  0  0  0  0
  1 16  1  0  0  0  0
  2  3  2  0  0  0  0
  2 26  1  0  0  0  0
  3  4  1  0  0  0  0
  4  5  2  0  0  0  0
  5  6  1  0  0  0  0
  6  7  1  0  0  0  0
  6 26  2  0  0  0  0
  7 27  2  0  0  0  0
  8  9  2  0  0  0  0
  8 13  1  0  0  0  0
  8 27  1  0  0  0  0
  9 10  1  0  0  0  0
 10 11  2  0  0  0  0
 11 12  1  0  0  0  0
 11 14  1  0  0  0  0
 12 13  2  0  0  0  0
 14 15  1  0  0  0  0
 15 16  2  0  0  0  0
 15 19  1  0  0  0  0
 17 18  1  0  0  0  0
 17 28  1  0  0  0  0
 18 19  2  0  0  0  0
 20 21  1  0  0  0  0
 20 28  2  0  0  0  0
 21 22  2  0  0  0  0
 21 29  1  0  0  0  0
 22 23  1  0  0  0  0
 23 24  2  0  0  0  0
 24 25  1  0  0  0  0
 25 29  2  0  0  0  0
M  END
>  <CHROM.1>
79.67478477,-36.60128485,-109.45490840,68.08219780,-84.20968655,-120.39464966
45.84200290,41.16587842,42.01350649,-1.98218587,0.86303497,1.46639814

>  <Name>
ligand

>  <RI>
0

>  <Rbt.Current_Directory>
/home/itssahil/PROJECTS/Mol_Feturizer/New_Systems/rnas/4JIY

>  <Rbt.Executable>
rbdock ($Id: //depot/dev/client3/rdock/2013.1/src/exe/rbdock.cxx#4 $)

>  <Rbt.Library>
libRbt.so (2013.1, Build901 2013/11/27)

>  <Rbt.Parameter_File>
/export/apps/rDock/src/rDock_2013.1_src/data/scripts/dock_solv.prm

>  <Rbt.Receptor>
prm/pocket_docking_8.prm

>  <SCORE>
-13.306

>  <SCORE.INTER>
-12.6531

>  <SCORE.INTER.CONST>
1

>  <SCORE.INTER.POLAR>
0

>  <SCORE.INTER.ROT>
6

>  <SCORE.INTER.SOLV>
2.10503

>  <SCORE.INTER.VDW>
-16.737

>  <SCORE.INTER.norm>
-0.436312

>  <SCORE.INTRA>
-0.652977

>  <SCORE.INTRA.DIHEDRAL>
-0.0229594

>  <SCORE.INTRA.DIHEDRAL.0>
7.2424

>  <SCORE.INTRA.POLAR>
0

>  <SCORE.INTRA.POLAR.0>
0

>  <SCORE.INTRA.REPUL>
0

>  <SCORE.INTRA.REPUL.0>
0

>  <SCORE.INTRA.SOLV>
-0.0192772

>  <SCORE.INTRA.SOLV.lig_0>
-3.36201

>  <SCORE.INTRA.VDW>
-0.631859

>  <SCORE.INTRA.VDW.0>
-0.910526

>  <SCORE.INTRA.norm>
-0.0225165

>  <SCORE.RESTR>
0

>  <SCORE.RESTR.CAVITY>
0

>  <SCORE.RESTR.norm>
0

>  <SCORE.SYSTEM>
0

>  <SCORE.SYSTEM.CONST>
0

>  <SCORE.SYSTEM.DIHEDRAL>
0

>  <SCORE.SYSTEM.SOLV>
0

>  <SCORE.SYSTEM.norm>
0

>  <SCORE.heavy>
29

>  <SCORE.norm>
-0.458829

>  <RMSD>
7.027

$$$$
ligand
 OpenBabel11021811503D
libRbt.so/2013.1/901 2013/11/27
 29 32  0  0  0  0  0  0  0  0999 V2000
   46.5903   42.1276   41.0923 C   0  0  0  0  0  0  0  0  0  0  0  0
   38.9313   41.9571   48.7692 C   0  0  0  0  0  0  0  0  0  0  0  0
   39.5691   41.8720   50.0140 C   0  0  0  0  0  0  0  0  0  0  0  0
   40.8942   41.6195   50.0951 C   0  0  0  0  0  0  0  0  0  0  0  0
   41.5934   41.3796   48.9200 C   0  0  0  0  0  0  0  0  0  0  0  0
   40.9566   41.5264   47.7162 C   0  0  0  0  0  0  0  0  0  0  0  0
   41.5849   41.4260   46.4007 C   0  0  0  0  0  0  0  0  0  0  0  0
   41.5516   40.6008   44.2260 C   0  0  0  0  0  0  0  0  0  0  0  0
   41.9322   39.3229   43.8670 C   0  0  0  0  0  0  0  0  0  0  0  0
   42.6335   39.1376   42.6742 C   0  0  0  0  0  0  0  0  0  0  0  0
   42.8692   40.1676   41.8013 C   0  0  0  0  0  0  0  0  0  0  0  0
   42.4582   41.4592   42.1954 C   0  0  0  0  0  0  0  0  0  0  0  0
   41.8569   41.6853   43.4284 C   0  0  0  0  0  0  0  0  0  0  0  0
   43.5050   39.9365   40.4321 C   0  0  0  0  0  0  0  0  0  0  0  0
   44.8259   40.6708   40.2486 C   0  0  0  0  0  0  0  0  0  0  0  0
   45.3910   41.4473   41.2277 C   0  0  0  0  0  0  0  0  0  0  0  0
   47.2490   41.9878   39.9002 C   0  0  0  0  0  0  0  0  0  0  0  0
   46.6933   41.2288   38.9299 C   0  0  0  0  0  0  0  0  0  0  0  0
   45.4934   40.5665   39.0605 C   0  0  0  0  0  0  0  0  0  0  0  0
   48.5880   43.8787   40.0478 C   0  0  0  0  0  0  0  0  0  0  0  0
   49.8035   44.6010   39.7374 C   0  0  0  0  0  0  0  0  0  0  0  0
   49.9632   45.4932   38.6693 C   0  0  0  0  0  0  0  0  0  0  0  0
   51.1958   46.0904   38.5010 C   0  0  0  0  0  0  0  0  0  0  0  0
   52.1969   45.8026   39.4152 C   0  0  0  0  0  0  0  0  0  0  0  0
   52.0025   44.8893   40.4288 C   0  0  0  0  0  0  0  0  0  0  0  0
   39.6255   41.7855   47.6316 N   0  0  0  0  0  0  0  0  0  0  0  0
   40.8741   40.8054   45.4990 N   0  0  0  0  0  0  0  0  0  0  0  0
   48.5295   42.6571   39.6484 N   0  0  0  0  0  0  0  0  0  0  0  0
   50.8171   44.3279   40.6129 N   0  0  0  0  0  0  0  0  0  0  0  0
  1 17  2  0  0  0  0
  1 16  1  0  0  0  0
  2  3  2  0  0  0  0
  2 26  1  0  0  0  0
  3  4  1  0  0  0  0
  4  5  2  0  0  0  0
  5  6  1  0  0  0  0
  6  7  1  0  0  0  0
  6 26  2  0  0  0  0
  7 27  2  0  0  0  0
  8  9  2  0  0  0  0
  8 13  1  0  0  0  0
  8 27  1  0  0  0  0
  9 10  1  0  0  0  0
 10 11  2  0  0  0  0
 11 12  1  0  0  0  0
 11 14  1  0  0  0  0
 12 13  2  0  0  0  0
 14 15  1  0  0  0  0
 15 16  2  0  0  0  0
 15 19  1  0  0  0  0
 17 18  1  0  0  0  0
 17 28  1  0  0  0  0
 18 19  2  0  0  0  0
 20 21  1  0  0  0  0
 20 28  2  0  0  0  0
 21 22  2  0  0  0  0
 21 29  1  0  0  0  0
 22 23  1  0  0  0  0
 23 24  2  0  0  0  0
 24 25  1  0  0  0  0
 25 29  2  0  0  0  0
M  END
>  <CHROM.1>
139.95999093,-119.09641781,0.80924981,99.15214151,109.63532739,-43.11479983
44.83043650,42.08251789,42.80094195,0.47834059,-0.58339819,-2.03262057

>  <Name>
ligand

>  <RI>
0

>  <Rbt.Current_Directory>
/home/itssahil/PROJECTS/Mol_Feturizer/New_Systems/rnas/4JIY

>  <Rbt.Executable>
rbdock ($Id: //depot/dev/client3/rdock/2013.1/src/exe/rbdock.cxx#4 $)

>  <Rbt.Library>
libRbt.so (2013.1, Build901 2013/11/27)

>  <Rbt.Parameter_File>
/export/apps/rDock/src/rDock_2013.1_src/data/scripts/dock_solv.prm

>  <Rbt.Receptor>
prm/pocket_docking_8.prm

>  <SCORE>
-11.0206

>  <SCORE.INTER>
-11.3555

>  <SCORE.INTER.CONST>
1

>  <SCORE.INTER.POLAR>
0

>  <SCORE.INTER.ROT>
6

>  <SCORE.INTER.SOLV>
3.26113

>  <SCORE.INTER.VDW>
-16.2574

>  <SCORE.INTER.norm>
-0.391568

>  <SCORE.INTRA>
0.334873

>  <SCORE.INTRA.DIHEDRAL>
0.763066

>  <SCORE.INTRA.DIHEDRAL.0>
7.2424

>  <SCORE.INTRA.POLAR>
0

>  <SCORE.INTRA.POLAR.0>
0

>  <SCORE.INTRA.REPUL>
0

>  <SCORE.INTRA.REPUL.0>
0

>  <SCORE.INTRA.SOLV>
-0.0119746

>  <SCORE.INTRA.SOLV.lig_0>
-3.36201

>  <SCORE.INTRA.VDW>
-0.0406721

>  <SCORE.INTRA.VDW.0>
-0.910526

>  <SCORE.INTRA.norm>
0.0115474

>  <SCORE.RESTR>
0

>  <SCORE.RESTR.CAVITY>
0

>  <SCORE.RESTR.norm>
0

>  <SCORE.SYSTEM>
0

>  <SCORE.SYSTEM.CONST>
0

>  <SCORE.SYSTEM.DIHEDRAL>
0

>  <SCORE.SYSTEM.SOLV>
0

>  <SCORE.SYSTEM.norm>
0

>  <SCORE.heavy>
29

>  <SCORE.norm>
-0.380021

>  <RMSD>
7.035

$$$$
ligand
 OpenBabel11021811503D
libRbt.so/2013.1/901 2013/11/27
 29 32  0  0  0  0  0  0  0  0999 V2000
   52.1905   44.4146   41.9162 C   0  0  0  0  0  0  0  0  0  0  0  0
   41.5287   37.9163   41.3763 C   0  0  0  0  0  0  0  0  0  0  0  0
   40.9142   37.6744   42.6122 C   0  0  0  0  0  0  0  0  0  0  0  0
   41.2638   38.3841   43.7078 C   0  0  0  0  0  0  0  0  0  0  0  0
   42.2922   39.3098   43.5940 C   0  0  0  0  0  0  0  0  0  0  0  0
   42.8340   39.5656   42.3622 C   0  0  0  0  0  0  0  0  0  0  0  0
   43.8326   40.5904   42.0655 C   0  0  0  0  0  0  0  0  0  0  0  0
   45.6734   41.2901   40.8274 C   0  0  0  0  0  0  0  0  0  0  0  0
   46.2306   41.3992   39.5687 C   0  0  0  0  0  0  0  0  0  0  0  0
   47.2958   42.2809   39.3764 C   0  0  0  0  0  0  0  0  0  0  0  0
   47.7405   43.1127   40.3707 C   0  0  0  0  0  0  0  0  0  0  0  0
   47.1422   42.9814   41.6425 C   0  0  0  0  0  0  0  0  0  0  0  0
   46.1554   42.0329   41.8864 C   0  0  0  0  0  0  0  0  0  0  0  0
   48.8049   44.1780   40.1170 C   0  0  0  0  0  0  0  0  0  0  0  0
   49.8624   44.2466   41.2100 C   0  0  0  0  0  0  0  0  0  0  0  0
   51.2042   44.3501   40.9455 C   0  0  0  0  0  0  0  0  0  0  0  0
   51.7762   44.3903   43.2210 C   0  0  0  0  0  0  0  0  0  0  0  0
   50.4555   44.2823   43.4869 C   0  0  0  0  0  0  0  0  0  0  0  0
   49.4780   44.2020   42.5208 C   0  0  0  0  0  0  0  0  0  0  0  0
   52.5851   45.4741   45.1081 C   0  0  0  0  0  0  0  0  0  0  0  0
   53.5650   45.6260   46.1627 C   0  0  0  0  0  0  0  0  0  0  0  0
   54.7596   46.3502   46.0578 C   0  0  0  0  0  0  0  0  0  0  0  0
   55.5965   46.3843   47.1545 C   0  0  0  0  0  0  0  0  0  0  0  0
   55.1956   45.7306   48.3090 C   0  0  0  0  0  0  0  0  0  0  0  0
   54.0277   45.0003   48.3516 C   0  0  0  0  0  0  0  0  0  0  0  0
   42.4806   38.8572   41.2580 N   0  0  0  0  0  0  0  0  0  0  0  0
   44.6030   40.3267   41.0457 N   0  0  0  0  0  0  0  0  0  0  0  0
   52.7325   44.4595   44.3309 N   0  0  0  0  0  0  0  0  0  0  0  0
   53.2065   44.9798   47.3126 N   0  0  0  0  0  0  0  0  0  0  0  0
  1 17  2  0  0  0  0
  1 16  1  0  0  0  0
  2  3  2  0  0  0  0
  2 26  1  0  0  0  0
  3  4  1  0  0  0  0
  4  5  2  0  0  0  0
  5  6  1  0  0  0  0
  6  7  1  0  0  0  0
  6 26  2  0  0  0  0
  7 27  2  0  0  0  0
  8  9  2  0  0  0  0
  8 13  1  0  0  0  0
  8 27  1  0  0  0  0
  9 10  1  0  0  0  0
 10 11  2  0  0  0  0
 11 12  1  0  0  0  0
 11 14  1  0  0  0  0
 12 13  2  0  0  0  0
 14 15  1  0  0  0  0
 15 16  2  0  0  0  0
 15 19  1  0  0  0  0
 17 18  1  0  0  0  0
 17 28  1  0  0  0  0
 18 19  2  0  0  0  0
 20 21  1  0  0  0  0
 20 28  2  0  0  0  0
 21 22  2  0  0  0  0
 21 29  1  0  0  0  0
 22 23  1  0  0  0  0
 23 24  2  0  0  0  0
 24 25  1  0  0  0  0
 25 29  2  0  0  0  0
M  END
>  <CHROM.1>
152.43980208,-136.37380962,135.65936145,90.61363254,-157.12147752,119.15865080
48.45891144,42.74774502,43.02788261,-0.23317845,-0.55274807,-1.39348683

>  <Name>
ligand

>  <RI>
0

>  <Rbt.Current_Directory>
/home/itssahil/PROJECTS/Mol_Feturizer/New_Systems/rnas/4JIY

>  <Rbt.Executable>
rbdock ($Id: //depot/dev/client3/rdock/2013.1/src/exe/rbdock.cxx#4 $)

>  <Rbt.Library>
libRbt.so (2013.1, Build901 2013/11/27)

>  <Rbt.Parameter_File>
/export/apps/rDock/src/rDock_2013.1_src/data/scripts/dock_solv.prm

>  <Rbt.Receptor>
prm/pocket_docking_7.prm

>  <SCORE>
-11.7336

>  <SCORE.INTER>
-13.1858

>  <SCORE.INTER.CONST>
1

>  <SCORE.INTER.POLAR>
0

>  <SCORE.INTER.ROT>
6

>  <SCORE.INTER.SOLV>
3.49848

>  <SCORE.INTER.VDW>
-17.5567

>  <SCORE.INTER.norm>
-0.454684

>  <SCORE.INTRA>
1.45226

>  <SCORE.INTRA.DIHEDRAL>
0.442695

>  <SCORE.INTRA.DIHEDRAL.0>
7.2424

>  <SCORE.INTRA.POLAR>
0

>  <SCORE.INTRA.POLAR.0>
0

>  <SCORE.INTRA.REPUL>
0

>  <SCORE.INTRA.REPUL.0>
0

>  <SCORE.INTRA.SOLV>
-0.00879986

>  <SCORE.INTRA.SOLV.lig_0>
-3.36201

>  <SCORE.INTRA.VDW>
1.23531

>  <SCORE.INTRA.VDW.0>
-0.910526

>  <SCORE.INTRA.norm>
0.0500779

>  <SCORE.RESTR>
0

>  <SCORE.RESTR.CAVITY>
0

>  <SCORE.RESTR.norm>
0

>  <SCORE.SYSTEM>
0

>  <SCORE.SYSTEM.CONST>
0

>  <SCORE.SYSTEM.DIHEDRAL>
0

>  <SCORE.SYSTEM.SOLV>
0

>  <SCORE.SYSTEM.norm>
0

>  <SCORE.heavy>
29

>  <SCORE.norm>
-0.404606

>  <RMSD>
7.049

$$$$
ligand
 OpenBabel11021811503D
libRbt.so/2013.1/901 2013/11/27
 29 32  0  0  0  0  0  0  0  0999 V2000
   48.3723   43.6057   44.1035 C   0  0  0  0  0  0  0  0  0  0  0  0
   43.3494   35.3751   36.8786 C   0  0  0  0  0  0  0  0  0  0  0  0
   42.8631   35.1939   35.5769 C   0  0  0  0  0  0  0  0  0  0  0  0
   42.7962   36.2318   34.7141 C   0  0  0  0  0  0  0  0  0  0  0  0
   43.1566   37.4928   35.1693 C   0  0  0  0  0  0  0  0  0  0  0  0
   43.6823   37.6293   36.4268 C   0  0  0  0  0  0  0  0  0  0  0  0
   44.2150   38.8637   36.9994 C   0  0  0  0  0  0  0  0  0  0  0  0
   45.5851   39.9181   38.5559 C   0  0  0  0  0  0  0  0  0  0  0  0
   44.6987   40.6049   39.3618 C   0  0  0  0  0  0  0  0  0  0  0  0
   45.1060   41.8083   39.9405 C   0  0  0  0  0  0  0  0  0  0  0  0
   46.3871   42.2789   39.8155 C   0  0  0  0  0  0  0  0  0  0  0  0
   47.2698   41.5470   38.9922 C   0  0  0  0  0  0  0  0  0  0  0  0
   46.8543   40.4052   38.3165 C   0  0  0  0  0  0  0  0  0  0  0  0
   46.8702   43.5162   40.5691 C   0  0  0  0  0  0  0  0  0  0  0  0
   47.0933   43.2689   42.0547 C   0  0  0  0  0  0  0  0  0  0  0  0
   48.1418   43.8111   42.7529 C   0  0  0  0  0  0  0  0  0  0  0  0
   47.4715   42.8206   44.7719 C   0  0  0  0  0  0  0  0  0  0  0  0
   46.4399   42.2790   44.0870 C   0  0  0  0  0  0  0  0  0  0  0  0
   46.2216   42.4710   42.7415 C   0  0  0  0  0  0  0  0  0  0  0  0
   47.0958   43.4269   46.9813 C   0  0  0  0  0  0  0  0  0  0  0  0
   47.2924   43.2324   48.4022 C   0  0  0  0  0  0  0  0  0  0  0  0
   46.8183   42.1413   49.1418 C   0  0  0  0  0  0  0  0  0  0  0  0
   47.0785   42.1132   50.4967 C   0  0  0  0  0  0  0  0  0  0  0  0
   47.8222   43.1459   51.0457 C   0  0  0  0  0  0  0  0  0  0  0  0
   48.2355   44.2169   50.2832 C   0  0  0  0  0  0  0  0  0  0  0  0
   43.7556   36.5865   37.2947 N   0  0  0  0  0  0  0  0  0  0  0  0
   45.1431   38.6943   37.9012 N   0  0  0  0  0  0  0  0  0  0  0  0
   47.6126   42.5409   46.2047 N   0  0  0  0  0  0  0  0  0  0  0  0
   48.0110   44.2425   48.9781 N   0  0  0  0  0  0  0  0  0  0  0  0
  1 17  2  0  0  0  0
  1 16  1  0  0  0  0
  2  3  2  0  0  0  0
  2 26  1  0  0  0  0
  3  4  1  0  0  0  0
  4  5  2  0  0  0  0
  5  6  1  0  0  0  0
  6  7  1  0  0  0  0
  6 26  2  0  0  0  0
  7 27  2  0  0  0  0
  8  9  2  0  0  0  0
  8 13  1  0  0  0  0
  8 27  1  0  0  0  0
  9 10  1  0  0  0  0
 10 11  2  0  0  0  0
 11 12  1  0  0  0  0
 11 14  1  0  0  0  0
 12 13  2  0  0  0  0
 14 15  1  0  0  0  0
 15 16  2  0  0  0  0
 15 19  1  0  0  0  0
 17 18  1  0  0  0  0
 17 28  1  0  0  0  0
 18 19  2  0  0  0  0
 20 21  1  0  0  0  0
 20 28  2  0  0  0  0
 21 22  2  0  0  0  0
 21 29  1  0  0  0  0
 22 23  1  0  0  0  0
 23 24  2  0  0  0  0
 24 25  1  0  0  0  0
 25 29  2  0  0  0  0
M  END
>  <CHROM.1>
-151.74414516,73.79079648,140.90832373,-62.41138611,66.22433487,85.89638906
46.05379717,41.01957665,42.02370176,-0.97820652,-1.06663459,-1.49251771

>  <Name>
ligand

>  <RI>
0

>  <Rbt.Current_Directory>
/home/itssahil/PROJECTS/Mol_Feturizer/New_Systems/rnas/4JIY

>  <Rbt.Executable>
rbdock ($Id: //depot/dev/client3/rdock/2013.1/src/exe/rbdock.cxx#4 $)

>  <Rbt.Library>
libRbt.so (2013.1, Build901 2013/11/27)

>  <Rbt.Parameter_File>
/export/apps/rDock/src/rDock_2013.1_src/data/scripts/dock_solv.prm

>  <Rbt.Receptor>
prm/pocket_docking_8.prm

>  <SCORE>
-12.5273

>  <SCORE.INTER>
-12.157

>  <SCORE.INTER.CONST>
1

>  <SCORE.INTER.POLAR>
0

>  <SCORE.INTER.ROT>
6

>  <SCORE.INTER.SOLV>
2.15772

>  <SCORE.INTER.VDW>
-16.4239

>  <SCORE.INTER.norm>
-0.419208

>  <SCORE.INTRA>
-0.373875

>  <SCORE.INTRA.DIHEDRAL>
0.163743

>  <SCORE.INTRA.DIHEDRAL.0>
7.2424

>  <SCORE.INTRA.POLAR>
0

>  <SCORE.INTRA.POLAR.0>
0

>  <SCORE.INTRA.REPUL>
0

>  <SCORE.INTRA.REPUL.0>
0

>  <SCORE.INTRA.SOLV>
-0.0112431

>  <SCORE.INTRA.SOLV.lig_0>
-3.36201

>  <SCORE.INTRA.VDW>
-0.450124

>  <SCORE.INTRA.VDW.0>
-0.910526

>  <SCORE.INTRA.norm>
-0.0128922

>  <SCORE.RESTR>
0.00359433

>  <SCORE.RESTR.CAVITY>
0.00359433

>  <SCORE.RESTR.norm>
0.000123942

>  <SCORE.SYSTEM>
0

>  <SCORE.SYSTEM.CONST>
0

>  <SCORE.SYSTEM.DIHEDRAL>
0

>  <SCORE.SYSTEM.SOLV>
0

>  <SCORE.SYSTEM.norm>
0

>  <SCORE.heavy>
29

>  <SCORE.norm>
-0.431976

>  <RMSD>
7.066

$$$$
ligand
 OpenBabel11021811503D
libRbt.so/2013.1/901 2013/11/27
 29 32  0  0  0  0  0  0  0  0999 V2000
   48.5711   43.7421   44.2752 C   0  0  0  0  0  0  0  0  0  0  0  0
   42.8326   35.1664   38.2132 C   0  0  0  0  0  0  0  0  0  0  0  0
   43.1768   34.7260   36.9282 C   0  0  0  0  0  0  0  0  0  0  0  0
   44.0395   35.4319   36.1644 C   0  0  0  0  0  0  0  0  0  0  0  0
   44.5229   36.6368   36.6563 C   0  0  0  0  0  0  0  0  0  0  0  0
   44.2150   37.0127   37.9370 C   0  0  0  0  0  0  0  0  0  0  0  0
   44.7419   38.1852   38.6320 C   0  0  0  0  0  0  0  0  0  0  0  0
   45.5936   40.3481   38.5426 C   0  0  0  0  0  0  0  0  0  0  0  0
   44.8076   41.2502   39.2320 C   0  0  0  0  0  0  0  0  0  0  0  0
   45.4145   42.3589   39.8248 C   0  0  0  0  0  0  0  0  0  0  0  0
   46.7745   42.5282   39.8294 C   0  0  0  0  0  0  0  0  0  0  0  0
   47.5486   41.5821   39.1235 C   0  0  0  0  0  0  0  0  0  0  0  0
   46.9574   40.5308   38.4320 C   0  0  0  0  0  0  0  0  0  0  0  0
   47.4449   43.6611   40.6036 C   0  0  0  0  0  0  0  0  0  0  0  0
   47.5130   43.4091   42.1035 C   0  0  0  0  0  0  0  0  0  0  0  0
   48.4816   43.9517   42.9087 C   0  0  0  0  0  0  0  0  0  0  0  0
   47.6080   42.9523   44.8438 C   0  0  0  0  0  0  0  0  0  0  0  0
   46.6549   42.4104   44.0537 C   0  0  0  0  0  0  0  0  0  0  0  0
   46.5770   42.6066   42.6933 C   0  0  0  0  0  0  0  0  0  0  0  0
   46.7512   43.3536   46.9640 C   0  0  0  0  0  0  0  0  0  0  0  0
   46.7750   43.1665   48.3992 C   0  0  0  0  0  0  0  0  0  0  0  0
   46.4411   41.9802   49.0653 C   0  0  0  0  0  0  0  0  0  0  0  0
   46.5005   41.9710   50.4439 C   0  0  0  0  0  0  0  0  0  0  0  0
   46.9189   43.1221   51.0925 C   0  0  0  0  0  0  0  0  0  0  0  0
   47.2017   44.2765   50.3949 C   0  0  0  0  0  0  0  0  0  0  0  0
   43.3520   36.3021   38.7091 N   0  0  0  0  0  0  0  0  0  0  0  0
   44.9563   39.2237   37.8710 N   0  0  0  0  0  0  0  0  0  0  0  0
   47.6002   42.6679   46.2826 N   0  0  0  0  0  0  0  0  0  0  0  0
   47.1700   44.2896   49.0708 N   0  0  0  0  0  0  0  0  0  0  0  0
  1 17  2  0  0  0  0
  1 16  1  0  0  0  0
  2  3  2  0  0  0  0
  2 26  1  0  0  0  0
  3  4  1  0  0  0  0
  4  5  2  0  0  0  0
  5  6  1  0  0  0  0
  6  7  1  0  0  0  0
  6 26  2  0  0  0  0
  7 27  2  0  0  0  0
  8  9  2  0  0  0  0
  8 13  1  0  0  0  0
  8 27  1  0  0  0  0
  9 10  1  0  0  0  0
 10 11  2  0  0  0  0
 11 12  1  0  0  0  0
 11 14  1  0  0  0  0
 12 13  2  0  0  0  0
 14 15  1  0  0  0  0
 15 16  2  0  0  0  0
 15 19  1  0  0  0  0
 17 18  1  0  0  0  0
 17 28  1  0  0  0  0
 18 19  2  0  0  0  0
 20 21  1  0  0  0  0
 20 28  2  0  0  0  0
 21 22  2  0  0  0  0
 21 29  1  0  0  0  0
 22 23  1  0  0  0  0
 23 24  2  0  0  0  0
 24 25  1  0  0  0  0
 25 29  2  0  0  0  0
M  END
>  <CHROM.1>
34.22382739,76.46841999,152.86842648,-65.85042825,-85.14348752,101.72510143
46.10630485,41.00000252,42.39479295,-1.09716520,-1.06132258,-1.66108775

>  <Name>
ligand

>  <RI>
0

>  <Rbt.Current_Directory>
/home/itssahil/PROJECTS/Mol_Feturizer/New_Systems/rnas/4JIY

>  <Rbt.Executable>
rbdock ($Id: //depot/dev/client3/rdock/2013.1/src/exe/rbdock.cxx#4 $)

>  <Rbt.Library>
libRbt.so (2013.1, Build901 2013/11/27)

>  <Rbt.Parameter_File>
/export/apps/rDock/src/rDock_2013.1_src/data/scripts/dock_solv.prm

>  <Rbt.Receptor>
prm/pocket_docking_8.prm

>  <SCORE>
-13.123

>  <SCORE.INTER>
-12.4387

>  <SCORE.INTER.CONST>
1

>  <SCORE.INTER.POLAR>
0

>  <SCORE.INTER.ROT>
6

>  <SCORE.INTER.SOLV>
2.60041

>  <SCORE.INTER.VDW>
-16.7593

>  <SCORE.INTER.norm>
-0.42892

>  <SCORE.INTRA>
-0.684366

>  <SCORE.INTRA.DIHEDRAL>
0.0434086

>  <SCORE.INTRA.DIHEDRAL.0>
7.2424

>  <SCORE.INTRA.POLAR>
0

>  <SCORE.INTRA.POLAR.0>
0

>  <SCORE.INTRA.REPUL>
0

>  <SCORE.INTRA.REPUL.0>
0

>  <SCORE.INTRA.SOLV>
-0.0204063

>  <SCORE.INTRA.SOLV.lig_0>
-3.36201

>  <SCORE.INTRA.VDW>
-0.695867

>  <SCORE.INTRA.VDW.0>
-0.910526

>  <SCORE.INTRA.norm>
-0.0235988

>  <SCORE.RESTR>
0

>  <SCORE.RESTR.CAVITY>
0

>  <SCORE.RESTR.norm>
0

>  <SCORE.SYSTEM>
0

>  <SCORE.SYSTEM.CONST>
0

>  <SCORE.SYSTEM.DIHEDRAL>
0

>  <SCORE.SYSTEM.SOLV>
0

>  <SCORE.SYSTEM.norm>
0

>  <SCORE.heavy>
29

>  <SCORE.norm>
-0.452519

>  <RMSD>
7.070

$$$$
ligand
 OpenBabel11021811503D
libRbt.so/2013.1/901 2013/11/27
 29 32  0  0  0  0  0  0  0  0999 V2000
   52.0354   44.5690   42.1833 C   0  0  0  0  0  0  0  0  0  0  0  0
   41.9658   38.7031   44.4622 C   0  0  0  0  0  0  0  0  0  0  0  0
   41.2710   37.8640   43.5808 C   0  0  0  0  0  0  0  0  0  0  0  0
   41.4634   37.9534   42.2463 C   0  0  0  0  0  0  0  0  0  0  0  0
   42.3134   38.9406   41.7666 C   0  0  0  0  0  0  0  0  0  0  0  0
   43.0222   39.7072   42.6533 C   0  0  0  0  0  0  0  0  0  0  0  0
   44.0379   40.6977   42.3030 C   0  0  0  0  0  0  0  0  0  0  0  0
   45.7332   41.4053   40.8759 C   0  0  0  0  0  0  0  0  0  0  0  0
   46.2470   41.4544   39.5951 C   0  0  0  0  0  0  0  0  0  0  0  0
   47.3334   42.2920   39.3356 C   0  0  0  0  0  0  0  0  0  0  0  0
   47.8420   43.1394   40.2851 C   0  0  0  0  0  0  0  0  0  0  0  0
   47.2868   43.0700   41.5811 C   0  0  0  0  0  0  0  0  0  0  0  0
   46.2784   42.1646   41.8917 C   0  0  0  0  0  0  0  0  0  0  0  0
   48.9314   44.1585   39.9580 C   0  0  0  0  0  0  0  0  0  0  0  0
   49.8318   44.4803   41.1427 C   0  0  0  0  0  0  0  0  0  0  0  0
   51.1893   44.2865   41.1233 C   0  0  0  0  0  0  0  0  0  0  0  0
   51.4608   45.0931   43.3102 C   0  0  0  0  0  0  0  0  0  0  0  0
   50.1226   45.2802   43.3365 C   0  0  0  0  0  0  0  0  0  0  0  0
   49.2813   44.9838   42.2879 C   0  0  0  0  0  0  0  0  0  0  0  0
   52.4503   44.4664   45.3147 C   0  0  0  0  0  0  0  0  0  0  0  0
   53.1590   44.7870   46.5355 C   0  0  0  0  0  0  0  0  0  0  0  0
   54.4058   45.4219   46.6034 C   0  0  0  0  0  0  0  0  0  0  0  0
   54.9552   45.6422   47.8499 C   0  0  0  0  0  0  0  0  0  0  0  0
   54.2306   45.2555   48.9663 C   0  0  0  0  0  0  0  0  0  0  0  0
   53.0238   44.6007   48.8472 C   0  0  0  0  0  0  0  0  0  0  0  0
   42.8347   39.6159   43.9959 N   0  0  0  0  0  0  0  0  0  0  0  0
   44.6399   40.4871   41.1643 N   0  0  0  0  0  0  0  0  0  0  0  0
   52.2608   45.4360   44.4906 N   0  0  0  0  0  0  0  0  0  0  0  0
   52.4770   44.4048   47.6568 N   0  0  0  0  0  0  0  0  0  0  0  0
  1 17  2  0  0  0  0
  1 16  1  0  0  0  0
  2  3  2  0  0  0  0
  2 26  1  0  0  0  0
  3  4  1  0  0  0  0
  4  5  2  0  0  0  0
  5  6  1  0  0  0  0
  6  7  1  0  0  0  0
  6 26  2  0  0  0  0
  7 27  2  0  0  0  0
  8  9  2  0  0  0  0
  8 13  1  0  0  0  0
  8 27  1  0  0  0  0
  9 10  1  0  0  0  0
 10 11  2  0  0  0  0
 11 12  1  0  0  0  0
 11 14  1  0  0  0  0
 12 13  2  0  0  0  0
 14 15  1  0  0  0  0
 15 16  2  0  0  0  0
 15 19  1  0  0  0  0
 17 18  1  0  0  0  0
 17 28  1  0  0  0  0
 18 19  2  0  0  0  0
 20 21  1  0  0  0  0
 20 28  2  0  0  0  0
 21 22  2  0  0  0  0
 21 29  1  0  0  0  0
 22 23  1  0  0  0  0
 23 24  2  0  0  0  0
 24 25  1  0  0  0  0
 25 29  2  0  0  0  0
M  END
>  <CHROM.1>
-26.05121428,-150.72893633,121.21566426,-53.36363045,-166.49449822,-86.84292703
48.34389431,42.77144352,43.29500812,-0.22621001,-0.55908996,-1.35243338

>  <Name>
ligand

>  <RI>
0

>  <Rbt.Current_Directory>
/home/itssahil/PROJECTS/Mol_Feturizer/New_Systems/rnas/4JIY

>  <Rbt.Executable>
rbdock ($Id: //depot/dev/client3/rdock/2013.1/src/exe/rbdock.cxx#4 $)

>  <Rbt.Library>
libRbt.so (2013.1, Build901 2013/11/27)

>  <Rbt.Parameter_File>
/export/apps/rDock/src/rDock_2013.1_src/data/scripts/dock_solv.prm

>  <Rbt.Receptor>
prm/pocket_docking_7.prm

>  <SCORE>
-11.3638

>  <SCORE.INTER>
-12.3877

>  <SCORE.INTER.CONST>
1

>  <SCORE.INTER.POLAR>
0

>  <SCORE.INTER.ROT>
6

>  <SCORE.INTER.SOLV>
3.46645

>  <SCORE.INTER.VDW>
-17.0139

>  <SCORE.INTER.norm>
-0.427162

>  <SCORE.INTRA>
1.02389

>  <SCORE.INTRA.DIHEDRAL>
0.258352

>  <SCORE.INTRA.DIHEDRAL.0>
7.2424

>  <SCORE.INTRA.POLAR>
0

>  <SCORE.INTRA.POLAR.0>
0

>  <SCORE.INTRA.REPUL>
0

>  <SCORE.INTRA.REPUL.0>
0

>  <SCORE.INTRA.SOLV>
-0.016892

>  <SCORE.INTRA.SOLV.lig_0>
-3.36201

>  <SCORE.INTRA.VDW>
0.903157

>  <SCORE.INTRA.VDW.0>
-0.910526

>  <SCORE.INTRA.norm>
0.0353064

>  <SCORE.RESTR>
0

>  <SCORE.RESTR.CAVITY>
0

>  <SCORE.RESTR.norm>
0

>  <SCORE.SYSTEM>
0

>  <SCORE.SYSTEM.CONST>
0

>  <SCORE.SYSTEM.DIHEDRAL>
0

>  <SCORE.SYSTEM.SOLV>
0

>  <SCORE.SYSTEM.norm>
0

>  <SCORE.heavy>
29

>  <SCORE.norm>
-0.391855

>  <RMSD>
7.072

$$$$
ligand
 OpenBabel11021811503D
libRbt.so/2013.1/901 2013/11/27
 29 32  0  0  0  0  0  0  0  0999 V2000
   52.1762   44.3332   42.0690 C   0  0  0  0  0  0  0  0  0  0  0  0
   41.6322   38.8731   43.4449 C   0  0  0  0  0  0  0  0  0  0  0  0
   41.1226   37.9840   42.4891 C   0  0  0  0  0  0  0  0  0  0  0  0
   41.6351   37.9454   41.2394 C   0  0  0  0  0  0  0  0  0  0  0  0
   42.6311   38.8534   40.9062 C   0  0  0  0  0  0  0  0  0  0  0  0
   43.1488   39.6703   41.8762 C   0  0  0  0  0  0  0  0  0  0  0  0
   44.2743   40.5870   41.7083 C   0  0  0  0  0  0  0  0  0  0  0  0
   45.5448   41.9623   40.3280 C   0  0  0  0  0  0  0  0  0  0  0  0
   45.5863   43.2315   40.8705 C   0  0  0  0  0  0  0  0  0  0  0  0
   46.7015   44.0345   40.6244 C   0  0  0  0  0  0  0  0  0  0  0  0
   47.7978   43.5692   39.9461 C   0  0  0  0  0  0  0  0  0  0  0  0
   47.7254   42.2640   39.4133 C   0  0  0  0  0  0  0  0  0  0  0  0
   46.5814   41.4859   39.5507 C   0  0  0  0  0  0  0  0  0  0  0  0
   49.0728   44.3979   39.8061 C   0  0  0  0  0  0  0  0  0  0  0  0
   49.9665   44.3426   41.0374 C   0  0  0  0  0  0  0  0  0  0  0  0
   51.3357   44.3815   40.9688 C   0  0  0  0  0  0  0  0  0  0  0  0
   51.5800   44.2603   43.2994 C   0  0  0  0  0  0  0  0  0  0  0  0
   50.2313   44.2156   43.3721 C   0  0  0  0  0  0  0  0  0  0  0  0
   49.3981   44.2473   42.2767 C   0  0  0  0  0  0  0  0  0  0  0  0
   52.4050   45.3117   45.1979 C   0  0  0  0  0  0  0  0  0  0  0  0
   53.2481   45.3291   46.3745 C   0  0  0  0  0  0  0  0  0  0  0  0
   54.6376   45.5063   46.3706 C   0  0  0  0  0  0  0  0  0  0  0  0
   55.2986   45.4815   47.5817 C   0  0  0  0  0  0  0  0  0  0  0  0
   54.5504   45.3172   48.7367 C   0  0  0  0  0  0  0  0  0  0  0  0
   53.1889   45.1098   48.6865 C   0  0  0  0  0  0  0  0  0  0  0  0
   42.6389   39.7074   43.1351 N   0  0  0  0  0  0  0  0  0  0  0  0
   44.3566   41.1450   40.5314 N   0  0  0  0  0  0  0  0  0  0  0  0
   52.3713   44.2105   44.5334 N   0  0  0  0  0  0  0  0  0  0  0  0
   52.5418   45.1545   47.5317 N   0  0  0  0  0  0  0  0  0  0  0  0
  1 17  2  0  0  0  0
  1 16  1  0  0  0  0
  2  3  2  0  0  0  0
  2 26  1  0  0  0  0
  3  4  1  0  0  0  0
  4  5  2  0  0  0  0
  5  6  1  0  0  0  0
  6  7  1  0  0  0  0
  6 26  2  0  0  0  0
  7 27  2  0  0  0  0
  8  9  2  0  0  0  0
  8 13  1  0  0  0  0
  8 27  1  0  0  0  0
  9 10  1  0  0  0  0
 10 11  2  0  0  0  0
 11 12  1  0  0  0  0
 11 14  1  0  0  0  0
 12 13  2  0  0  0  0
 14 15  1  0  0  0  0
 15 16  2  0  0  0  0
 15 19  1  0  0  0  0
 17 18  1  0  0  0  0
 17 28  1  0  0  0  0
 18 19  2  0  0  0  0
 20 21  1  0  0  0  0
 20 28  2  0  0  0  0
 21 22  2  0  0  0  0
 21 29  1  0  0  0  0
 22 23  1  0  0  0  0
 23 24  2  0  0  0  0
 24 25  1  0  0  0  0
 25 29  2  0  0  0  0
M  END
>  <CHROM.1>
34.74273106,80.54726077,145.90809623,80.22672058,-78.23226157,104.04350242
48.38670376,42.86139594,42.90220199,-0.28475361,-0.54766412,-1.35460821

>  <Name>
ligand

>  <RI>
0

>  <Rbt.Current_Directory>
/home/itssahil/PROJECTS/Mol_Feturizer/New_Systems/rnas/4JIY

>  <Rbt.Executable>
rbdock ($Id: //depot/dev/client3/rdock/2013.1/src/exe/rbdock.cxx#4 $)

>  <Rbt.Library>
libRbt.so (2013.1, Build901 2013/11/27)

>  <Rbt.Parameter_File>
/export/apps/rDock/src/rDock_2013.1_src/data/scripts/dock_solv.prm

>  <Rbt.Receptor>
prm/pocket_docking_7.prm

>  <SCORE>
-11.4955

>  <SCORE.INTER>
-10.767

>  <SCORE.INTER.CONST>
1

>  <SCORE.INTER.POLAR>
0

>  <SCORE.INTER.ROT>
6

>  <SCORE.INTER.SOLV>
3.06648

>  <SCORE.INTER.VDW>
-15.8002

>  <SCORE.INTER.norm>
-0.371276

>  <SCORE.INTRA>
-0.728548

>  <SCORE.INTRA.DIHEDRAL>
0.144344

>  <SCORE.INTRA.DIHEDRAL.0>
7.2424

>  <SCORE.INTRA.POLAR>
0

>  <SCORE.INTRA.POLAR.0>
0

>  <SCORE.INTRA.REPUL>
0

>  <SCORE.INTRA.REPUL.0>
0

>  <SCORE.INTRA.SOLV>
-0.0200728

>  <SCORE.INTRA.SOLV.lig_0>
-3.36201

>  <SCORE.INTRA.VDW>
-0.790683

>  <SCORE.INTRA.VDW.0>
-0.910526

>  <SCORE.INTRA.norm>
-0.0251223

>  <SCORE.RESTR>
0

>  <SCORE.RESTR.CAVITY>
0

>  <SCORE.RESTR.norm>
0

>  <SCORE.SYSTEM>
0

>  <SCORE.SYSTEM.CONST>
0

>  <SCORE.SYSTEM.DIHEDRAL>
0

>  <SCORE.SYSTEM.SOLV>
0

>  <SCORE.SYSTEM.norm>
0

>  <SCORE.heavy>
29

>  <SCORE.norm>
-0.396398

>  <RMSD>
7.073

$$$$
ligand
 OpenBabel11021811503D
libRbt.so/2013.1/901 2013/11/27
 29 32  0  0  0  0  0  0  0  0999 V2000
   46.0592   42.1335   41.8223 C   0  0  0  0  0  0  0  0  0  0  0  0
   54.6457   44.5372   47.8052 C   0  0  0  0  0  0  0  0  0  0  0  0
   55.5809   45.5701   47.9543 C   0  0  0  0  0  0  0  0  0  0  0  0
   55.6058   46.6091   47.0907 C   0  0  0  0  0  0  0  0  0  0  0  0
   54.7285   46.5941   46.0148 C   0  0  0  0  0  0  0  0  0  0  0  0
   53.7880   45.6021   45.9272 C   0  0  0  0  0  0  0  0  0  0  0  0
   52.7267   45.5186   44.9262 C   0  0  0  0  0  0  0  0  0  0  0  0
   51.6514   44.3212   43.2466 C   0  0  0  0  0  0  0  0  0  0  0  0
   52.0964   44.3347   41.9394 C   0  0  0  0  0  0  0  0  0  0  0  0
   51.1569   44.3535   40.9069 C   0  0  0  0  0  0  0  0  0  0  0  0
   49.8108   44.2590   41.1462 C   0  0  0  0  0  0  0  0  0  0  0  0
   49.3912   44.2375   42.4938 C   0  0  0  0  0  0  0  0  0  0  0  0
   50.3024   44.3295   43.5398 C   0  0  0  0  0  0  0  0  0  0  0  0
   48.7958   44.1312   40.0122 C   0  0  0  0  0  0  0  0  0  0  0  0
   47.6879   43.1287   40.3044 C   0  0  0  0  0  0  0  0  0  0  0  0
   47.0693   43.0337   41.5248 C   0  0  0  0  0  0  0  0  0  0  0  0
   45.6530   41.3041   40.8115 C   0  0  0  0  0  0  0  0  0  0  0  0
   46.2635   41.3896   39.6088 C   0  0  0  0  0  0  0  0  0  0  0  0
   47.2783   42.2738   39.3198 C   0  0  0  0  0  0  0  0  0  0  0  0
   43.7818   40.5796   41.9794 C   0  0  0  0  0  0  0  0  0  0  0  0
   42.7706   39.5841   42.2655 C   0  0  0  0  0  0  0  0  0  0  0  0
   41.9351   38.9843   41.3145 C   0  0  0  0  0  0  0  0  0  0  0  0
   41.0086   38.0611   41.7544 C   0  0  0  0  0  0  0  0  0  0  0  0
   40.9774   37.7523   43.1052 C   0  0  0  0  0  0  0  0  0  0  0  0
   41.7955   38.3966   44.0079 C   0  0  0  0  0  0  0  0  0  0  0  0
   53.7573   44.5590   46.7972 N   0  0  0  0  0  0  0  0  0  0  0  0
   52.6279   44.3637   44.3264 N   0  0  0  0  0  0  0  0  0  0  0  0
   44.5872   40.3165   41.0112 N   0  0  0  0  0  0  0  0  0  0  0  0
   42.7036   39.2673   43.5935 N   0  0  0  0  0  0  0  0  0  0  0  0
  1 17  2  0  0  0  0
  1 16  1  0  0  0  0
  2  3  2  0  0  0  0
  2 26  1  0  0  0  0
  3  4  1  0  0  0  0
  4  5  2  0  0  0  0
  5  6  1  0  0  0  0
  6  7  1  0  0  0  0
  6 26  2  0  0  0  0
  7 27  2  0  0  0  0
  8  9  2  0  0  0  0
  8 13  1  0  0  0  0
  8 27  1  0  0  0  0
  9 10  1  0  0  0  0
 10 11  2  0  0  0  0
 11 12  1  0  0  0  0
 11 14  1  0  0  0  0
 12 13  2  0  0  0  0
 14 15  1  0  0  0  0
 15 16  2  0  0  0  0
 15 19  1  0  0  0  0
 17 18  1  0  0  0  0
 17 28  1  0  0  0  0
 18 19  2  0  0  0  0
 20 21  1  0  0  0  0
 20 28  2  0  0  0  0
 21 22  2  0  0  0  0
 21 29  1  0  0  0  0
 22 23  1  0  0  0  0
 23 24  2  0  0  0  0
 24 25  1  0  0  0  0
 25 29  2  0  0  0  0
M  END
>  <CHROM.1>
130.33177872,138.55594971,42.14923372,-48.76068995,104.54064625,22.81132026
48.48971572,42.73811125,42.99147215,-2.96639647,0.54347289,1.81541811

>  <Name>
ligand

>  <RI>
0

>  <Rbt.Current_Directory>
/home/itssahil/PROJECTS/Mol_Feturizer/New_Systems/rnas/4JIY

>  <Rbt.Executable>
rbdock ($Id: //depot/dev/client3/rdock/2013.1/src/exe/rbdock.cxx#4 $)

>  <Rbt.Library>
libRbt.so (2013.1, Build901 2013/11/27)

>  <Rbt.Parameter_File>
/export/apps/rDock/src/rDock_2013.1_src/data/scripts/dock_solv.prm

>  <Rbt.Receptor>
prm/pocket_docking_7.prm

>  <SCORE>
-12.0263

>  <SCORE.INTER>
-13.0702

>  <SCORE.INTER.CONST>
1

>  <SCORE.INTER.POLAR>
0

>  <SCORE.INTER.ROT>
6

>  <SCORE.INTER.SOLV>
3.45756

>  <SCORE.INTER.VDW>
-17.466

>  <SCORE.INTER.norm>
-0.450697

>  <SCORE.INTRA>
1.04391

>  <SCORE.INTRA.DIHEDRAL>
0.684352

>  <SCORE.INTRA.DIHEDRAL.0>
7.2424

>  <SCORE.INTRA.POLAR>
0

>  <SCORE.INTRA.POLAR.0>
0

>  <SCORE.INTRA.REPUL>
0

>  <SCORE.INTRA.REPUL.0>
0

>  <SCORE.INTRA.SOLV>
-0.0128318

>  <SCORE.INTRA.SOLV.lig_0>
-3.36201

>  <SCORE.INTRA.VDW>
0.708145

>  <SCORE.INTRA.VDW.0>
-0.910526

>  <SCORE.INTRA.norm>
0.0359967

>  <SCORE.RESTR>
0

>  <SCORE.RESTR.CAVITY>
0

>  <SCORE.RESTR.norm>
0

>  <SCORE.SYSTEM>
0

>  <SCORE.SYSTEM.CONST>
0

>  <SCORE.SYSTEM.DIHEDRAL>
0

>  <SCORE.SYSTEM.SOLV>
0

>  <SCORE.SYSTEM.norm>
0

>  <SCORE.heavy>
29

>  <SCORE.norm>
-0.4147

>  <RMSD>
7.079

$$$$
ligand
 OpenBabel11021811503D
libRbt.so/2013.1/901 2013/11/27
 29 32  0  0  0  0  0  0  0  0999 V2000
   41.2758   40.2728   37.1523 C   0  0  0  0  0  0  0  0  0  0  0  0
   52.0282   45.0442   40.2720 C   0  0  0  0  0  0  0  0  0  0  0  0
   52.1805   46.2261   39.5347 C   0  0  0  0  0  0  0  0  0  0  0  0
   51.1388   46.7558   38.8563 C   0  0  0  0  0  0  0  0  0  0  0  0
   49.9343   46.0653   38.8521 C   0  0  0  0  0  0  0  0  0  0  0  0
   49.7985   44.9446   39.6278 C   0  0  0  0  0  0  0  0  0  0  0  0
   48.5656   44.1841   39.8198 C   0  0  0  0  0  0  0  0  0  0  0  0
   47.4658   42.1348   39.8613 C   0  0  0  0  0  0  0  0  0  0  0  0
   46.6896   42.2274   40.9997 C   0  0  0  0  0  0  0  0  0  0  0  0
   45.5270   41.4595   41.0882 C   0  0  0  0  0  0  0  0  0  0  0  0
   45.0797   40.6936   40.0434 C   0  0  0  0  0  0  0  0  0  0  0  0
   45.8927   40.6292   38.8912 C   0  0  0  0  0  0  0  0  0  0  0  0
   47.1099   41.2976   38.8230 C   0  0  0  0  0  0  0  0  0  0  0  0
   43.7343   39.9724   40.0885 C   0  0  0  0  0  0  0  0  0  0  0  0
   42.7174   40.5302   39.1023 C   0  0  0  0  0  0  0  0  0  0  0  0
   42.2014   39.7951   38.0658 C   0  0  0  0  0  0  0  0  0  0  0  0
   40.8463   41.5615   37.3239 C   0  0  0  0  0  0  0  0  0  0  0  0
   41.3564   42.2920   38.3401 C   0  0  0  0  0  0  0  0  0  0  0  0
   42.2883   41.8208   39.2372 C   0  0  0  0  0  0  0  0  0  0  0  0
   40.3632   42.7216   35.3717 C   0  0  0  0  0  0  0  0  0  0  0  0
   39.4341   43.4100   34.5009 C   0  0  0  0  0  0  0  0  0  0  0  0
   39.7470   44.5118   33.6945 C   0  0  0  0  0  0  0  0  0  0  0  0
   38.7391   45.0649   32.9313 C   0  0  0  0  0  0  0  0  0  0  0  0
   37.4829   44.4811   32.9771 C   0  0  0  0  0  0  0  0  0  0  0  0
   37.2147   43.4200   33.8146 C   0  0  0  0  0  0  0  0  0  0  0  0
   50.8429   44.4128   40.3152 N   0  0  0  0  0  0  0  0  0  0  0  0
   48.7108   42.8874   39.7913 N   0  0  0  0  0  0  0  0  0  0  0  0
   39.8634   42.1691   36.4207 N   0  0  0  0  0  0  0  0  0  0  0  0
   38.1799   42.8674   34.5339 N   0  0  0  0  0  0  0  0  0  0  0  0
  1 17  2  0  0  0  0
  1 16  1  0  0  0  0
  2  3  2  0  0  0  0
  2 26  1  0  0  0  0
  3  4  1  0  0  0  0
  4  5  2  0  0  0  0
  5  6  1  0  0  0  0
  6  7  1  0  0  0  0
  6 26  2  0  0  0  0
  7 27  2  0  0  0  0
  8  9  2  0  0  0  0
  8 13  1  0  0  0  0
  8 27  1  0  0  0  0
  9 10  1  0  0  0  0
 10 11  2  0  0  0  0
 11 12  1  0  0  0  0
 11 14  1  0  0  0  0
 12 13  2  0  0  0  0
 14 15  1  0  0  0  0
 15 16  2  0  0  0  0
 15 19  1  0  0  0  0
 17 18  1  0  0  0  0
 17 28  1  0  0  0  0
 18 19  2  0  0  0  0
 20 21  1  0  0  0  0
 20 28  2  0  0  0  0
 21 22  2  0  0  0  0
 21 29  1  0  0  0  0
 22 23  1  0  0  0  0
 23 24  2  0  0  0  0
 24 25  1  0  0  0  0
 25 29  2  0  0  0  0
M  END
>  <CHROM.1>
137.61764969,112.44764934,116.73830701,150.56784015,-63.88638336,-87.08743063
44.35689566,42.88255807,37.94858472,2.97389393,-0.41138064,-0.67037797

>  <Name>
ligand

>  <RI>
0

>  <Rbt.Current_Directory>
/home/itssahil/PROJECTS/Mol_Feturizer/New_Systems/rnas/4JIY

>  <Rbt.Executable>
rbdock ($Id: //depot/dev/client3/rdock/2013.1/src/exe/rbdock.cxx#4 $)

>  <Rbt.Library>
libRbt.so (2013.1, Build901 2013/11/27)

>  <Rbt.Parameter_File>
/export/apps/rDock/src/rDock_2013.1_src/data/scripts/dock_solv.prm

>  <Rbt.Receptor>
prm/pocket_docking_8.prm

>  <SCORE>
-11.9826

>  <SCORE.INTER>
-11.7509

>  <SCORE.INTER.CONST>
1

>  <SCORE.INTER.POLAR>
0

>  <SCORE.INTER.ROT>
6

>  <SCORE.INTER.SOLV>
3.61984

>  <SCORE.INTER.VDW>
-16.6406

>  <SCORE.INTER.norm>
-0.405205

>  <SCORE.INTRA>
-0.231699

>  <SCORE.INTRA.DIHEDRAL>
0.612989

>  <SCORE.INTRA.DIHEDRAL.0>
7.2424

>  <SCORE.INTRA.POLAR>
0

>  <SCORE.INTRA.POLAR.0>
0

>  <SCORE.INTRA.REPUL>
0

>  <SCORE.INTRA.REPUL.0>
0

>  <SCORE.INTRA.SOLV>
-0.00813014

>  <SCORE.INTRA.SOLV.lig_0>
-3.36201

>  <SCORE.INTRA.VDW>
-0.534128

>  <SCORE.INTRA.VDW.0>
-0.910526

>  <SCORE.INTRA.norm>
-0.00798962

>  <SCORE.RESTR>
0

>  <SCORE.RESTR.CAVITY>
0

>  <SCORE.RESTR.norm>
0

>  <SCORE.SYSTEM>
0

>  <SCORE.SYSTEM.CONST>
0

>  <SCORE.SYSTEM.DIHEDRAL>
0

>  <SCORE.SYSTEM.SOLV>
0

>  <SCORE.SYSTEM.norm>
0

>  <SCORE.heavy>
29

>  <SCORE.norm>
-0.413195

>  <RMSD>
7.101

$$$$
ligand
 OpenBabel11021811503D
libRbt.so/2013.1/901 2013/11/27
 29 32  0  0  0  0  0  0  0  0999 V2000
   51.7881   44.3729   41.2405 C   0  0  0  0  0  0  0  0  0  0  0  0
   40.3353   38.4042   41.7294 C   0  0  0  0  0  0  0  0  0  0  0  0
   40.3474   37.7387   42.9624 C   0  0  0  0  0  0  0  0  0  0  0  0
   41.3341   37.9625   43.8582 C   0  0  0  0  0  0  0  0  0  0  0  0
   42.3697   38.8149   43.5001 C   0  0  0  0  0  0  0  0  0  0  0  0
   42.3015   39.4950   42.3131 C   0  0  0  0  0  0  0  0  0  0  0  0
   43.2482   40.5098   41.8556 C   0  0  0  0  0  0  0  0  0  0  0  0
   45.3179   41.0456   40.9389 C   0  0  0  0  0  0  0  0  0  0  0  0
   45.7824   41.1114   39.6401 C   0  0  0  0  0  0  0  0  0  0  0  0
   46.7787   42.0375   39.3258 C   0  0  0  0  0  0  0  0  0  0  0  0
   47.2392   42.9491   40.2397 C   0  0  0  0  0  0  0  0  0  0  0  0
   46.7359   42.8598   41.5555 C   0  0  0  0  0  0  0  0  0  0  0  0
   45.8250   41.8745   41.9194 C   0  0  0  0  0  0  0  0  0  0  0  0
   48.2198   44.0546   39.8543 C   0  0  0  0  0  0  0  0  0  0  0  0
   49.3948   44.1804   40.8142 C   0  0  0  0  0  0  0  0  0  0  0  0
   50.6978   44.2578   40.3936 C   0  0  0  0  0  0  0  0  0  0  0  0
   51.5247   44.4299   42.5829 C   0  0  0  0  0  0  0  0  0  0  0  0
   50.2427   44.3479   43.0028 C   0  0  0  0  0  0  0  0  0  0  0  0
   49.1618   44.2173   42.1605 C   0  0  0  0  0  0  0  0  0  0  0  0
   53.1846   43.4539   43.8800 C   0  0  0  0  0  0  0  0  0  0  0  0
   54.1915   43.5253   44.9175 C   0  0  0  0  0  0  0  0  0  0  0  0
   55.1775   44.5150   45.0201 C   0  0  0  0  0  0  0  0  0  0  0  0
   56.0760   44.4306   46.0641 C   0  0  0  0  0  0  0  0  0  0  0  0
   55.9343   43.3932   46.9722 C   0  0  0  0  0  0  0  0  0  0  0  0
   54.9702   42.4222   46.8079 C   0  0  0  0  0  0  0  0  0  0  0  0
   41.3077   39.2758   41.4128 N   0  0  0  0  0  0  0  0  0  0  0  0
   44.3229   40.0394   41.2838 N   0  0  0  0  0  0  0  0  0  0  0  0
   52.6010   44.5581   43.5710 N   0  0  0  0  0  0  0  0  0  0  0  0
   54.0888   42.5064   45.8228 N   0  0  0  0  0  0  0  0  0  0  0  0
  1 17  2  0  0  0  0
  1 16  1  0  0  0  0
  2  3  2  0  0  0  0
  2 26  1  0  0  0  0
  3  4  1  0  0  0  0
  4  5  2  0  0  0  0
  5  6  1  0  0  0  0
  6  7  1  0  0  0  0
  6 26  2  0  0  0  0
  7 27  2  0  0  0  0
  8  9  2  0  0  0  0
  8 13  1  0  0  0  0
  8 27  1  0  0  0  0
  9 10  1  0  0  0  0
 10 11  2  0  0  0  0
 11 12  1  0  0  0  0
 11 14  1  0  0  0  0
 12 13  2  0  0  0  0
 14 15  1  0  0  0  0
 15 16  2  0  0  0  0
 15 19  1  0  0  0  0
 17 18  1  0  0  0  0
 17 28  1  0  0  0  0
 18 19  2  0  0  0  0
 20 21  1  0  0  0  0
 20 28  2  0  0  0  0
 21 22  2  0  0  0  0
 21 29  1  0  0  0  0
 22 23  1  0  0  0  0
 23 24  2  0  0  0  0
 24 25  1  0  0  0  0
 25 29  2  0  0  0  0
M  END
>  <CHROM.1>
83.31326803,-132.37324335,131.73012162,-43.95583805,-126.21018758,-82.04923275
48.28753288,42.16186501,42.60348407,-0.00438504,-0.42280681,-1.02016566

>  <Name>
ligand

>  <RI>
0

>  <Rbt.Current_Directory>
/home/itssahil/PROJECTS/Mol_Feturizer/New_Systems/rnas/4JIY

>  <Rbt.Executable>
rbdock ($Id: //depot/dev/client3/rdock/2013.1/src/exe/rbdock.cxx#4 $)

>  <Rbt.Library>
libRbt.so (2013.1, Build901 2013/11/27)

>  <Rbt.Parameter_File>
/export/apps/rDock/src/rDock_2013.1_src/data/scripts/dock_solv.prm

>  <Rbt.Receptor>
prm/pocket_docking_8.prm

>  <SCORE>
-13.1713

>  <SCORE.INTER>
-13.0775

>  <SCORE.INTER.CONST>
1

>  <SCORE.INTER.POLAR>
0

>  <SCORE.INTER.ROT>
6

>  <SCORE.INTER.SOLV>
3.49858

>  <SCORE.INTER.VDW>
-17.4845

>  <SCORE.INTER.norm>
-0.450948

>  <SCORE.INTRA>
-0.0998538

>  <SCORE.INTRA.DIHEDRAL>
0.221692

>  <SCORE.INTRA.DIHEDRAL.0>
7.2424

>  <SCORE.INTRA.POLAR>
0

>  <SCORE.INTRA.POLAR.0>
0

>  <SCORE.INTRA.REPUL>
0

>  <SCORE.INTRA.REPUL.0>
0

>  <SCORE.INTRA.SOLV>
-0.0191511

>  <SCORE.INTRA.SOLV.lig_0>
-3.36201

>  <SCORE.INTRA.VDW>
-0.201124

>  <SCORE.INTRA.VDW.0>
-0.910526

>  <SCORE.INTRA.norm>
-0.00344323

>  <SCORE.RESTR>
0.00604826

>  <SCORE.RESTR.CAVITY>
0.00604826

>  <SCORE.RESTR.norm>
0.000208561

>  <SCORE.SYSTEM>
0

>  <SCORE.SYSTEM.CONST>
0

>  <SCORE.SYSTEM.DIHEDRAL>
0

>  <SCORE.SYSTEM.SOLV>
0

>  <SCORE.SYSTEM.norm>
0

>  <SCORE.heavy>
29

>  <SCORE.norm>
-0.454183

>  <RMSD>
7.113

$$$$
ligand
 OpenBabel11021811503D
libRbt.so/2013.1/901 2013/11/27
 29 32  0  0  0  0  0  0  0  0999 V2000
   51.6845   44.3348   41.3414 C   0  0  0  0  0  0  0  0  0  0  0  0
   41.7568   38.0178   44.3207 C   0  0  0  0  0  0  0  0  0  0  0  0
   40.9369   37.2488   43.4840 C   0  0  0  0  0  0  0  0  0  0  0  0
   40.8932   37.4842   42.1540 C   0  0  0  0  0  0  0  0  0  0  0  0
   41.6271   38.5484   41.6477 C   0  0  0  0  0  0  0  0  0  0  0  0
   42.4631   39.2453   42.4793 C   0  0  0  0  0  0  0  0  0  0  0  0
   43.3825   40.3055   42.0718 C   0  0  0  0  0  0  0  0  0  0  0  0
   45.2606   40.9725   40.8724 C   0  0  0  0  0  0  0  0  0  0  0  0
   45.7533   41.0566   39.5851 C   0  0  0  0  0  0  0  0  0  0  0  0
   46.7437   41.9989   39.3017 C   0  0  0  0  0  0  0  0  0  0  0  0
   47.1710   42.9081   40.2340 C   0  0  0  0  0  0  0  0  0  0  0  0
   46.6395   42.7997   41.5372 C   0  0  0  0  0  0  0  0  0  0  0  0
   45.7343   41.7989   41.8715 C   0  0  0  0  0  0  0  0  0  0  0  0
   48.1448   44.0302   39.8808 C   0  0  0  0  0  0  0  0  0  0  0  0
   49.2994   44.1590   40.8647 C   0  0  0  0  0  0  0  0  0  0  0  0
   50.6122   44.2177   40.4722 C   0  0  0  0  0  0  0  0  0  0  0  0
   51.3920   44.4141   42.6766 C   0  0  0  0  0  0  0  0  0  0  0  0
   50.1003   44.3507   43.0690 C   0  0  0  0  0  0  0  0  0  0  0  0
   49.0370   44.2180   42.2047 C   0  0  0  0  0  0  0  0  0  0  0  0
   53.1565   43.4887   43.8683 C   0  0  0  0  0  0  0  0  0  0  0  0
   54.1497   43.5511   44.9196 C   0  0  0  0  0  0  0  0  0  0  0  0
   55.1188   44.5532   45.0574 C   0  0  0  0  0  0  0  0  0  0  0  0
   56.0059   44.4580   46.1101 C   0  0  0  0  0  0  0  0  0  0  0  0
   55.8695   43.3976   46.9920 C   0  0  0  0  0  0  0  0  0  0  0  0
   54.9227   42.4161   46.7933 C   0  0  0  0  0  0  0  0  0  0  0  0
   42.5130   39.0072   43.8161 N   0  0  0  0  0  0  0  0  0  0  0  0
   44.2721   39.9498   41.1856 N   0  0  0  0  0  0  0  0  0  0  0  0
   52.4473   44.5466   43.6865 N   0  0  0  0  0  0  0  0  0  0  0  0
   54.0520   42.5098   45.7996 N   0  0  0  0  0  0  0  0  0  0  0  0
  1 17  2  0  0  0  0
  1 16  1  0  0  0  0
  2  3  2  0  0  0  0
  2 26  1  0  0  0  0
  3  4  1  0  0  0  0
  4  5  2  0  0  0  0
  5  6  1  0  0  0  0
  6  7  1  0  0  0  0
  6 26  2  0  0  0  0
  7 27  2  0  0  0  0
  8  9  2  0  0  0  0
  8 13  1  0  0  0  0
  8 27  1  0  0  0  0
  9 10  1  0  0  0  0
 10 11  2  0  0  0  0
 11 12  1  0  0  0  0
 11 14  1  0  0  0  0
 12 13  2  0  0  0  0
 14 15  1  0  0  0  0
 15 16  2  0  0  0  0
 15 19  1  0  0  0  0
 17 18  1  0  0  0  0
 17 28  1  0  0  0  0
 18 19  2  0  0  0  0
 20 21  1  0  0  0  0
 20 28  2  0  0  0  0
 21 22  2  0  0  0  0
 21 29  1  0  0  0  0
 22 23  1  0  0  0  0
 23 24  2  0  0  0  0
 24 25  1  0  0  0  0
 25 29  2  0  0  0  0
M  END
>  <CHROM.1>
-58.91665660,-132.12080962,129.73203595,-52.02677959,-145.78282429,-71.37594362
48.31407973,42.06601083,42.70607872,0.02759178,-0.44366616,-1.00564426

>  <Name>
ligand

>  <RI>
0

>  <Rbt.Current_Directory>
/home/itssahil/PROJECTS/Mol_Feturizer/New_Systems/rnas/4JIY

>  <Rbt.Executable>
rbdock ($Id: //depot/dev/client3/rdock/2013.1/src/exe/rbdock.cxx#4 $)

>  <Rbt.Library>
libRbt.so (2013.1, Build901 2013/11/27)

>  <Rbt.Parameter_File>
/export/apps/rDock/src/rDock_2013.1_src/data/scripts/dock_solv.prm

>  <Rbt.Receptor>
prm/pocket_docking_8.prm

>  <SCORE>
-13.9416

>  <SCORE.INTER>
-14.1894

>  <SCORE.INTER.CONST>
1

>  <SCORE.INTER.POLAR>
0

>  <SCORE.INTER.ROT>
6

>  <SCORE.INTER.SOLV>
3.93402

>  <SCORE.INTER.VDW>
-18.371

>  <SCORE.INTER.norm>
-0.48929

>  <SCORE.INTRA>
0.245786

>  <SCORE.INTRA.DIHEDRAL>
0.0351024

>  <SCORE.INTRA.DIHEDRAL.0>
7.2424

>  <SCORE.INTRA.POLAR>
0

>  <SCORE.INTRA.POLAR.0>
0

>  <SCORE.INTRA.REPUL>
0

>  <SCORE.INTRA.REPUL.0>
0

>  <SCORE.INTRA.SOLV>
-0.0183249

>  <SCORE.INTRA.SOLV.lig_0>
-3.36201

>  <SCORE.INTRA.VDW>
0.237397

>  <SCORE.INTRA.VDW.0>
-0.910526

>  <SCORE.INTRA.norm>
0.00847536

>  <SCORE.RESTR>
0.00198655

>  <SCORE.RESTR.CAVITY>
0.00198655

>  <SCORE.RESTR.norm>
6.85016e-05

>  <SCORE.SYSTEM>
0

>  <SCORE.SYSTEM.CONST>
0

>  <SCORE.SYSTEM.DIHEDRAL>
0

>  <SCORE.SYSTEM.SOLV>
0

>  <SCORE.SYSTEM.norm>
0

>  <SCORE.heavy>
29

>  <SCORE.norm>
-0.480747

>  <RMSD>
7.116

$$$$
ligand
 OpenBabel11021811503D
libRbt.so/2013.1/901 2013/11/27
 29 32  0  0  0  0  0  0  0  0999 V2000
   46.7971   40.4198   38.4427 C   0  0  0  0  0  0  0  0  0  0  0  0
   49.9588   40.5795   49.5162 C   0  0  0  0  0  0  0  0  0  0  0  0
   49.0019   40.9275   50.4789 C   0  0  0  0  0  0  0  0  0  0  0  0
   47.8763   41.5870   50.1266 C   0  0  0  0  0  0  0  0  0  0  0  0
   47.7234   41.9703   48.8011 C   0  0  0  0  0  0  0  0  0  0  0  0
   48.6463   41.5664   47.8731 C   0  0  0  0  0  0  0  0  0  0  0  0
   48.5597   41.7877   46.4313 C   0  0  0  0  0  0  0  0  0  0  0  0
   47.9675   43.1628   44.6510 C   0  0  0  0  0  0  0  0  0  0  0  0
   48.9122   43.8590   43.9231 C   0  0  0  0  0  0  0  0  0  0  0  0
   48.6875   44.0806   42.5631 C   0  0  0  0  0  0  0  0  0  0  0  0
   47.6099   43.5452   41.9070 C   0  0  0  0  0  0  0  0  0  0  0  0
   46.6689   42.8310   42.6797 C   0  0  0  0  0  0  0  0  0  0  0  0
   46.8146   42.6918   44.0553 C   0  0  0  0  0  0  0  0  0  0  0  0
   47.4446   43.6649   40.3935 C   0  0  0  0  0  0  0  0  0  0  0  0
   46.7446   42.4672   39.7665 C   0  0  0  0  0  0  0  0  0  0  0  0
   47.4043   41.5200   39.0258 C   0  0  0  0  0  0  0  0  0  0  0  0
   45.4507   40.2766   38.6465 C   0  0  0  0  0  0  0  0  0  0  0  0
   44.7949   41.2105   39.3705 C   0  0  0  0  0  0  0  0  0  0  0  0
   45.3972   42.3119   39.9356 C   0  0  0  0  0  0  0  0  0  0  0  0
   44.5561   38.1468   38.8778 C   0  0  0  0  0  0  0  0  0  0  0  0
   43.9040   36.9771   38.3282 C   0  0  0  0  0  0  0  0  0  0  0  0
   44.5614   35.8603   37.7963 C   0  0  0  0  0  0  0  0  0  0  0  0
   43.7908   34.8308   37.2958 C   0  0  0  0  0  0  0  0  0  0  0  0
   42.4116   34.9414   37.3769 C   0  0  0  0  0  0  0  0  0  0  0  0
   41.8107   36.0769   37.8759 C   0  0  0  0  0  0  0  0  0  0  0  0
   49.7765   40.8986   48.2237 N   0  0  0  0  0  0  0  0  0  0  0  0
   48.1692   42.9831   46.0822 N   0  0  0  0  0  0  0  0  0  0  0  0
   44.7055   39.1466   38.0820 N   0  0  0  0  0  0  0  0  0  0  0  0
   42.5406   37.0607   38.3796 N   0  0  0  0  0  0  0  0  0  0  0  0
  1 17  2  0  0  0  0
  1 16  1  0  0  0  0
  2  3  2  0  0  0  0
  2 26  1  0  0  0  0
  3  4  1  0  0  0  0
  4  5  2  0  0  0  0
  5  6  1  0  0  0  0
  6  7  1  0  0  0  0
  6 26  2  0  0  0  0
  7 27  2  0  0  0  0
  8  9  2  0  0  0  0
  8 13  1  0  0  0  0
  8 27  1  0  0  0  0
  9 10  1  0  0  0  0
 10 11  2  0  0  0  0
 11 12  1  0  0  0  0
 11 14  1  0  0  0  0
 12 13  2  0  0  0  0
 14 15  1  0  0  0  0
 15 16  2  0  0  0  0
 15 19  1  0  0  0  0
 17 18  1  0  0  0  0
 17 28  1  0  0  0  0
 18 19  2  0  0  0  0
 20 21  1  0  0  0  0
 20 28  2  0  0  0  0
 21 22  2  0  0  0  0
 21 29  1  0  0  0  0
 22 23  1  0  0  0  0
 23 24  2  0  0  0  0
 24 25  1  0  0  0  0
 25 29  2  0  0  0  0
M  END
>  <CHROM.1>
43.31634169,147.40079802,-106.07375118,95.74628620,-104.24483760,95.04263224
46.50735824,40.60020678,42.30686491,-2.63025403,1.08429913,2.13580027

>  <Name>
ligand

>  <RI>
0

>  <Rbt.Current_Directory>
/home/itssahil/PROJECTS/Mol_Feturizer/New_Systems/rnas/4JIY

>  <Rbt.Executable>
rbdock ($Id: //depot/dev/client3/rdock/2013.1/src/exe/rbdock.cxx#4 $)

>  <Rbt.Library>
libRbt.so (2013.1, Build901 2013/11/27)

>  <Rbt.Parameter_File>
/export/apps/rDock/src/rDock_2013.1_src/data/scripts/dock_solv.prm

>  <Rbt.Receptor>
prm/pocket_docking_8.prm

>  <SCORE>
-15.5065

>  <SCORE.INTER>
-14.8876

>  <SCORE.INTER.CONST>
1

>  <SCORE.INTER.POLAR>
0

>  <SCORE.INTER.ROT>
6

>  <SCORE.INTER.SOLV>
3.09552

>  <SCORE.INTER.VDW>
-18.5569

>  <SCORE.INTER.norm>
-0.513367

>  <SCORE.INTRA>
-0.618899

>  <SCORE.INTRA.DIHEDRAL>
0.483839

>  <SCORE.INTRA.DIHEDRAL.0>
7.2424

>  <SCORE.INTRA.POLAR>
0

>  <SCORE.INTRA.POLAR.0>
0

>  <SCORE.INTRA.REPUL>
0

>  <SCORE.INTRA.REPUL.0>
0

>  <SCORE.INTRA.SOLV>
-0.0194048

>  <SCORE.INTRA.SOLV.lig_0>
-3.36201

>  <SCORE.INTRA.VDW>
-0.851117

>  <SCORE.INTRA.VDW.0>
-0.910526

>  <SCORE.INTRA.norm>
-0.0213414

>  <SCORE.RESTR>
0

>  <SCORE.RESTR.CAVITY>
0

>  <SCORE.RESTR.norm>
0

>  <SCORE.SYSTEM>
0

>  <SCORE.SYSTEM.CONST>
0

>  <SCORE.SYSTEM.DIHEDRAL>
0

>  <SCORE.SYSTEM.SOLV>
0

>  <SCORE.SYSTEM.norm>
0

>  <SCORE.heavy>
29

>  <SCORE.norm>
-0.534708

>  <RMSD>
7.140

$$$$
ligand
 OpenBabel11021811503D
libRbt.so/2013.1/901 2013/11/27
 29 32  0  0  0  0  0  0  0  0999 V2000
   44.6636   41.1640   39.1777 C   0  0  0  0  0  0  0  0  0  0  0  0
   49.0789   40.0328   49.3867 C   0  0  0  0  0  0  0  0  0  0  0  0
   48.9964   40.9623   50.4321 C   0  0  0  0  0  0  0  0  0  0  0  0
   48.8904   42.2845   50.1738 C   0  0  0  0  0  0  0  0  0  0  0  0
   48.9337   42.7040   48.8511 C   0  0  0  0  0  0  0  0  0  0  0  0
   48.9566   41.7700   47.8494 C   0  0  0  0  0  0  0  0  0  0  0  0
   48.8836   42.0527   46.4175 C   0  0  0  0  0  0  0  0  0  0  0  0
   47.7743   43.0423   44.6283 C   0  0  0  0  0  0  0  0  0  0  0  0
   48.6804   43.8415   43.9597 C   0  0  0  0  0  0  0  0  0  0  0  0
   48.5046   44.0631   42.5926 C   0  0  0  0  0  0  0  0  0  0  0  0
   47.5212   43.4345   41.8741 C   0  0  0  0  0  0  0  0  0  0  0  0
   46.6183   42.6169   42.5875 C   0  0  0  0  0  0  0  0  0  0  0  0
   46.7065   42.4692   43.9671 C   0  0  0  0  0  0  0  0  0  0  0  0
   47.4226   43.5633   40.3556 C   0  0  0  0  0  0  0  0  0  0  0  0
   46.7046   42.3938   39.6963 C   0  0  0  0  0  0  0  0  0  0  0  0
   45.3465   42.2162   39.7659 C   0  0  0  0  0  0  0  0  0  0  0  0
   45.4106   40.2619   38.4686 C   0  0  0  0  0  0  0  0  0  0  0  0
   46.7500   40.4291   38.4021 C   0  0  0  0  0  0  0  0  0  0  0  0
   47.4287   41.4664   39.0009 C   0  0  0  0  0  0  0  0  0  0  0  0
   44.3528   38.1987   38.5905 C   0  0  0  0  0  0  0  0  0  0  0  0
   43.8169   37.0080   37.9658 C   0  0  0  0  0  0  0  0  0  0  0  0
   44.5768   35.9253   37.5048 C   0  0  0  0  0  0  0  0  0  0  0  0
   43.9116   34.8690   36.9163 C   0  0  0  0  0  0  0  0  0  0  0  0
   42.5286   34.9204   36.8439 C   0  0  0  0  0  0  0  0  0  0  0  0
   41.8275   36.0245   37.2785 C   0  0  0  0  0  0  0  0  0  0  0  0
   49.0578   40.4397   48.1063 N   0  0  0  0  0  0  0  0  0  0  0  0
   47.9193   42.8589   46.0659 N   0  0  0  0  0  0  0  0  0  0  0  0
   44.7926   39.1126   37.7988 N   0  0  0  0  0  0  0  0  0  0  0  0
   42.4539   37.0333   37.8654 N   0  0  0  0  0  0  0  0  0  0  0  0
  1 17  2  0  0  0  0
  1 16  1  0  0  0  0
  2  3  2  0  0  0  0
  2 26  1  0  0  0  0
  3  4  1  0  0  0  0
  4  5  2  0  0  0  0
  5  6  1  0  0  0  0
  6  7  1  0  0  0  0
  6 26  2  0  0  0  0
  7 27  2  0  0  0  0
  8  9  2  0  0  0  0
  8 13  1  0  0  0  0
  8 27  1  0  0  0  0
  9 10  1  0  0  0  0
 10 11  2  0  0  0  0
 11 12  1  0  0  0  0
 11 14  1  0  0  0  0
 12 13  2  0  0  0  0
 14 15  1  0  0  0  0
 15 16  2  0  0  0  0
 15 19  1  0  0  0  0
 17 18  1  0  0  0  0
 17 28  1  0  0  0  0
 18 19  2  0  0  0  0
 20 21  1  0  0  0  0
 20 28  2  0  0  0  0
 21 22  2  0  0  0  0
 21 29  1  0  0  0  0
 22 23  1  0  0  0  0
 23 24  2  0  0  0  0
 24 25  1  0  0  0  0
 25 29  2  0  0  0  0
M  END
>  <CHROM.1>
-49.13860530,155.33702777,73.93032904,82.46577786,-75.46600025,-70.63156178
46.49628830,40.58951213,42.15455654,-2.68754594,1.10707611,2.20682922

>  <Name>
ligand

>  <RI>
0

>  <Rbt.Current_Directory>
/home/itssahil/PROJECTS/Mol_Feturizer/New_Systems/rnas/4JIY

>  <Rbt.Executable>
rbdock ($Id: //depot/dev/client3/rdock/2013.1/src/exe/rbdock.cxx#4 $)

>  <Rbt.Library>
libRbt.so (2013.1, Build901 2013/11/27)

>  <Rbt.Parameter_File>
/export/apps/rDock/src/rDock_2013.1_src/data/scripts/dock_solv.prm

>  <Rbt.Receptor>
prm/pocket_docking_8.prm

>  <SCORE>
-15.6735

>  <SCORE.INTER>
-15.0502

>  <SCORE.INTER.CONST>
1

>  <SCORE.INTER.POLAR>
0

>  <SCORE.INTER.ROT>
6

>  <SCORE.INTER.SOLV>
3.06281

>  <SCORE.INTER.VDW>
-18.6544

>  <SCORE.INTER.norm>
-0.518974

>  <SCORE.INTRA>
-0.626223

>  <SCORE.INTRA.DIHEDRAL>
0.291204

>  <SCORE.INTRA.DIHEDRAL.0>
7.2424

>  <SCORE.INTRA.POLAR>
0

>  <SCORE.INTRA.POLAR.0>
0

>  <SCORE.INTRA.REPUL>
0

>  <SCORE.INTRA.REPUL.0>
0

>  <SCORE.INTRA.SOLV>
-0.0198216

>  <SCORE.INTRA.SOLV.lig_0>
-3.36201

>  <SCORE.INTRA.VDW>
-0.761914

>  <SCORE.INTRA.VDW.0>
-0.910526

>  <SCORE.INTRA.norm>
-0.0215939

>  <SCORE.RESTR>
0.00302044

>  <SCORE.RESTR.CAVITY>
0.00302044

>  <SCORE.RESTR.norm>
0.000104153

>  <SCORE.SYSTEM>
0

>  <SCORE.SYSTEM.CONST>
0

>  <SCORE.SYSTEM.DIHEDRAL>
0

>  <SCORE.SYSTEM.SOLV>
0

>  <SCORE.SYSTEM.norm>
0

>  <SCORE.heavy>
29

>  <SCORE.norm>
-0.540464

>  <RMSD>
7.154

$$$$
ligand
 OpenBabel11021811503D
libRbt.so/2013.1/901 2013/11/27
 29 32  0  0  0  0  0  0  0  0999 V2000
   46.3667   41.2698   39.5043 C   0  0  0  0  0  0  0  0  0  0  0  0
   55.5022   43.4265   47.3907 C   0  0  0  0  0  0  0  0  0  0  0  0
   55.1030   44.0312   48.5901 C   0  0  0  0  0  0  0  0  0  0  0  0
   53.8671   44.5625   48.7176 C   0  0  0  0  0  0  0  0  0  0  0  0
   53.0281   44.5549   47.6115 C   0  0  0  0  0  0  0  0  0  0  0  0
   53.4234   43.9062   46.4716 C   0  0  0  0  0  0  0  0  0  0  0  0
   52.6079   43.7104   45.2750 C   0  0  0  0  0  0  0  0  0  0  0  0
   51.5493   44.6065   43.4075 C   0  0  0  0  0  0  0  0  0  0  0  0
   50.1933   44.5135   43.6510 C   0  0  0  0  0  0  0  0  0  0  0  0
   49.3282   44.2947   42.5773 C   0  0  0  0  0  0  0  0  0  0  0  0
   49.7704   44.2684   41.2804 C   0  0  0  0  0  0  0  0  0  0  0  0
   51.1616   44.3761   41.0668 C   0  0  0  0  0  0  0  0  0  0  0  0
   52.0532   44.4835   42.1282 C   0  0  0  0  0  0  0  0  0  0  0  0
   48.8059   44.1769   40.0998 C   0  0  0  0  0  0  0  0  0  0  0  0
   47.7015   43.1486   40.3014 C   0  0  0  0  0  0  0  0  0  0  0  0
   47.3653   42.2179   39.3518 C   0  0  0  0  0  0  0  0  0  0  0  0
   45.6945   41.2665   40.6971 C   0  0  0  0  0  0  0  0  0  0  0  0
   46.0179   42.1856   41.6337 C   0  0  0  0  0  0  0  0  0  0  0  0
   46.9996   43.1374   41.4741 C   0  0  0  0  0  0  0  0  0  0  0  0
   44.0530   39.8177   39.9245 C   0  0  0  0  0  0  0  0  0  0  0  0
   42.9313   38.9319   40.1538 C   0  0  0  0  0  0  0  0  0  0  0  0
   41.7389   39.2876   40.7971 C   0  0  0  0  0  0  0  0  0  0  0  0
   40.7696   38.3175   40.9506 C   0  0  0  0  0  0  0  0  0  0  0  0
   41.0131   37.0559   40.4312 C   0  0  0  0  0  0  0  0  0  0  0  0
   42.2175   36.7438   39.8385 C   0  0  0  0  0  0  0  0  0  0  0  0
   54.6636   43.3666   46.3425 N   0  0  0  0  0  0  0  0  0  0  0  0
   52.4598   44.7731   44.5320 N   0  0  0  0  0  0  0  0  0  0  0  0
   44.6227   40.3034   40.9709 N   0  0  0  0  0  0  0  0  0  0  0  0
   43.1453   37.6731   39.6658 N   0  0  0  0  0  0  0  0  0  0  0  0
  1 17  2  0  0  0  0
  1 16  1  0  0  0  0
  2  3  2  0  0  0  0
  2 26  1  0  0  0  0
  3  4  1  0  0  0  0
  4  5  2  0  0  0  0
  5  6  1  0  0  0  0
  6  7  1  0  0  0  0
  6 26  2  0  0  0  0
  7 27  2  0  0  0  0
  8  9  2  0  0  0  0
  8 13  1  0  0  0  0
  8 27  1  0  0  0  0
  9 10  1  0  0  0  0
 10 11  2  0  0  0  0
 11 12  1  0  0  0  0
 11 14  1  0  0  0  0
 12 13  2  0  0  0  0
 14 15  1  0  0  0  0
 15 16  2  0  0  0  0
 15 19  1  0  0  0  0
 17 18  1  0  0  0  0
 17 28  1  0  0  0  0
 18 19  2  0  0  0  0
 20 21  1  0  0  0  0
 20 28  2  0  0  0  0
 21 22  2  0  0  0  0
 21 29  1  0  0  0  0
 22 23  1  0  0  0  0
 23 24  2  0  0  0  0
 24 25  1  0  0  0  0
 25 29  2  0  0  0  0
M  END
>  <CHROM.1>
75.04804480,-44.47478221,-131.96326554,61.45751060,71.93166980,-23.47526288
48.42750147,42.21401093,42.57339031,-2.95973699,0.62392985,2.11217506

>  <Name>
ligand

>  <RI>
0

>  <Rbt.Current_Directory>
/home/itssahil/PROJECTS/Mol_Feturizer/New_Systems/rnas/4JIY

>  <Rbt.Executable>
rbdock ($Id: //depot/dev/client3/rdock/2013.1/src/exe/rbdock.cxx#4 $)

>  <Rbt.Library>
libRbt.so (2013.1, Build901 2013/11/27)

>  <Rbt.Parameter_File>
/export/apps/rDock/src/rDock_2013.1_src/data/scripts/dock_solv.prm

>  <Rbt.Receptor>
prm/pocket_docking_8.prm

>  <SCORE>
-10.4833

>  <SCORE.INTER>
-10.9849

>  <SCORE.INTER.CONST>
1

>  <SCORE.INTER.POLAR>
0

>  <SCORE.INTER.ROT>
6

>  <SCORE.INTER.SOLV>
3.13645

>  <SCORE.INTER.VDW>
-15.9687

>  <SCORE.INTER.norm>
-0.378788

>  <SCORE.INTRA>
0.501528

>  <SCORE.INTRA.DIHEDRAL>
0.00645268

>  <SCORE.INTRA.DIHEDRAL.0>
7.2424

>  <SCORE.INTRA.POLAR>
0

>  <SCORE.INTRA.POLAR.0>
0

>  <SCORE.INTRA.REPUL>
0

>  <SCORE.INTRA.REPUL.0>
0

>  <SCORE.INTRA.SOLV>
-0.016867

>  <SCORE.INTRA.SOLV.lig_0>
-3.36201

>  <SCORE.INTRA.VDW>
0.506735

>  <SCORE.INTRA.VDW.0>
-0.910526

>  <SCORE.INTRA.norm>
0.0172941

>  <SCORE.RESTR>
0

>  <SCORE.RESTR.CAVITY>
0

>  <SCORE.RESTR.norm>
0

>  <SCORE.SYSTEM>
0

>  <SCORE.SYSTEM.CONST>
0

>  <SCORE.SYSTEM.DIHEDRAL>
0

>  <SCORE.SYSTEM.SOLV>
0

>  <SCORE.SYSTEM.norm>
0

>  <SCORE.heavy>
29

>  <SCORE.norm>
-0.361494

>  <RMSD>
7.158

$$$$
ligand
 OpenBabel11021811503D
libRbt.so/2013.1/901 2013/11/27
 29 32  0  0  0  0  0  0  0  0999 V2000
   49.4191   43.9632   44.0493 C   0  0  0  0  0  0  0  0  0  0  0  0
   43.9500   36.7412   35.5862 C   0  0  0  0  0  0  0  0  0  0  0  0
   43.7223   35.4484   36.0766 C   0  0  0  0  0  0  0  0  0  0  0  0
   43.9182   35.1607   37.3823 C   0  0  0  0  0  0  0  0  0  0  0  0
   44.4146   36.1582   38.2106 C   0  0  0  0  0  0  0  0  0  0  0  0
   44.5726   37.4261   37.7169 C   0  0  0  0  0  0  0  0  0  0  0  0
   44.9684   38.6002   38.4915 C   0  0  0  0  0  0  0  0  0  0  0  0
   45.8506   40.7517   38.5524 C   0  0  0  0  0  0  0  0  0  0  0  0
   47.2159   40.9276   38.6620 C   0  0  0  0  0  0  0  0  0  0  0  0
   47.7006   41.9712   39.4527 C   0  0  0  0  0  0  0  0  0  0  0  0
   46.8667   42.8852   40.0423 C   0  0  0  0  0  0  0  0  0  0  0  0
   45.4770   42.6808   39.9019 C   0  0  0  0  0  0  0  0  0  0  0  0
   44.9700   41.5856   39.2118 C   0  0  0  0  0  0  0  0  0  0  0  0
   47.4032   44.1084   40.7827 C   0  0  0  0  0  0  0  0  0  0  0  0
   47.8163   43.8118   42.2176 C   0  0  0  0  0  0  0  0  0  0  0  0
   49.0141   44.2167   42.7489 C   0  0  0  0  0  0  0  0  0  0  0  0
   48.5430   43.2770   44.8469 C   0  0  0  0  0  0  0  0  0  0  0  0
   47.3639   42.8705   44.3263 C   0  0  0  0  0  0  0  0  0  0  0  0
   46.9700   43.1093   43.0290 C   0  0  0  0  0  0  0  0  0  0  0  0
   48.7204   43.9365   47.0659 C   0  0  0  0  0  0  0  0  0  0  0  0
   49.1126   43.6875   48.4368 C   0  0  0  0  0  0  0  0  0  0  0  0
   48.5482   42.7179   49.2756 C   0  0  0  0  0  0  0  0  0  0  0  0
   49.0261   42.6182   50.5663 C   0  0  0  0  0  0  0  0  0  0  0  0
   50.0596   43.4572   50.9521 C   0  0  0  0  0  0  0  0  0  0  0  0
   50.5573   44.4208   50.1018 C   0  0  0  0  0  0  0  0  0  0  0  0
   44.3713   37.7193   36.4055 N   0  0  0  0  0  0  0  0  0  0  0  0
   45.3425   39.6273   37.7785 N   0  0  0  0  0  0  0  0  0  0  0  0
   48.8639   42.9586   46.2422 N   0  0  0  0  0  0  0  0  0  0  0  0
   50.1216   44.5098   48.8541 N   0  0  0  0  0  0  0  0  0  0  0  0
  1 17  2  0  0  0  0
  1 16  1  0  0  0  0
  2  3  2  0  0  0  0
  2 26  1  0  0  0  0
  3  4  1  0  0  0  0
  4  5  2  0  0  0  0
  5  6  1  0  0  0  0
  6  7  1  0  0  0  0
  6 26  2  0  0  0  0
  7 27  2  0  0  0  0
  8  9  2  0  0  0  0
  8 13  1  0  0  0  0
  8 27  1  0  0  0  0
  9 10  1  0  0  0  0
 10 11  2  0  0  0  0
 11 12  1  0  0  0  0
 11 14  1  0  0  0  0
 12 13  2  0  0  0  0
 14 15  1  0  0  0  0
 15 16  2  0  0  0  0
 15 19  1  0  0  0  0
 17 18  1  0  0  0  0
 17 28  1  0  0  0  0
 18 19  2  0  0  0  0
 20 21  1  0  0  0  0
 20 28  2  0  0  0  0
 21 22  2  0  0  0  0
 21 29  1  0  0  0  0
 22 23  1  0  0  0  0
 23 24  2  0  0  0  0
 24 25  1  0  0  0  0
 25 29  2  0  0  0  0
M  END
>  <CHROM.1>
165.45016242,-82.69397065,132.00469651,-60.97552846,99.98013402,78.36205083
47.06792416,41.43496404,42.30352573,-0.45863853,-1.16634083,-0.98175645

>  <Name>
ligand

>  <RI>
0

>  <Rbt.Current_Directory>
/home/itssahil/PROJECTS/Mol_Feturizer/New_Systems/rnas/4JIY

>  <Rbt.Executable>
rbdock ($Id: //depot/dev/client3/rdock/2013.1/src/exe/rbdock.cxx#4 $)

>  <Rbt.Library>
libRbt.so (2013.1, Build901 2013/11/27)

>  <Rbt.Parameter_File>
/export/apps/rDock/src/rDock_2013.1_src/data/scripts/dock_solv.prm

>  <Rbt.Receptor>
prm/pocket_docking_8.prm

>  <SCORE>
-12.2257

>  <SCORE.INTER>
-11.825

>  <SCORE.INTER.CONST>
1

>  <SCORE.INTER.POLAR>
0

>  <SCORE.INTER.ROT>
6

>  <SCORE.INTER.SOLV>
2.71683

>  <SCORE.INTER.VDW>
-16.389

>  <SCORE.INTER.norm>
-0.407759

>  <SCORE.INTRA>
-0.400715

>  <SCORE.INTRA.DIHEDRAL>
0.238008

>  <SCORE.INTRA.DIHEDRAL.0>
7.2424

>  <SCORE.INTRA.POLAR>
0

>  <SCORE.INTRA.POLAR.0>
0

>  <SCORE.INTRA.REPUL>
0

>  <SCORE.INTRA.REPUL.0>
0

>  <SCORE.INTRA.SOLV>
-0.00932382

>  <SCORE.INTRA.SOLV.lig_0>
-3.36201

>  <SCORE.INTRA.VDW>
-0.515057

>  <SCORE.INTRA.VDW.0>
-0.910526

>  <SCORE.INTRA.norm>
-0.0138178

>  <SCORE.RESTR>
0

>  <SCORE.RESTR.CAVITY>
0

>  <SCORE.RESTR.norm>
0

>  <SCORE.SYSTEM>
0

>  <SCORE.SYSTEM.CONST>
0

>  <SCORE.SYSTEM.DIHEDRAL>
0

>  <SCORE.SYSTEM.SOLV>
0

>  <SCORE.SYSTEM.norm>
0

>  <SCORE.heavy>
29

>  <SCORE.norm>
-0.421577

>  <RMSD>
7.168

$$$$
ligand
 OpenBabel11021811503D
libRbt.so/2013.1/901 2013/11/27
 29 32  0  0  0  0  0  0  0  0999 V2000
   48.6476   43.8524   43.9328 C   0  0  0  0  0  0  0  0  0  0  0  0
   41.5608   36.4434   36.7500 C   0  0  0  0  0  0  0  0  0  0  0  0
   42.1603   35.4727   35.9363 C   0  0  0  0  0  0  0  0  0  0  0  0
   43.4217   35.6371   35.4804 C   0  0  0  0  0  0  0  0  0  0  0  0
   44.0833   36.8200   35.7812 C   0  0  0  0  0  0  0  0  0  0  0  0
   43.4949   37.7241   36.6255 C   0  0  0  0  0  0  0  0  0  0  0  0
   44.1121   38.9499   37.1272 C   0  0  0  0  0  0  0  0  0  0  0  0
   45.5102   40.0029   38.6594 C   0  0  0  0  0  0  0  0  0  0  0  0
   44.6786   40.7833   39.4381 C   0  0  0  0  0  0  0  0  0  0  0  0
   45.1645   41.9903   39.9441 C   0  0  0  0  0  0  0  0  0  0  0  0
   46.4684   42.3774   39.7761 C   0  0  0  0  0  0  0  0  0  0  0  0
   47.2935   41.5514   38.9827 C   0  0  0  0  0  0  0  0  0  0  0  0
   46.8014   40.4010   38.3765 C   0  0  0  0  0  0  0  0  0  0  0  0
   47.0349   43.6232   40.4539 C   0  0  0  0  0  0  0  0  0  0  0  0
   47.3080   43.4305   41.9392 C   0  0  0  0  0  0  0  0  0  0  0  0
   48.3718   44.0079   42.5840 C   0  0  0  0  0  0  0  0  0  0  0  0
   47.7776   43.0819   44.6567 C   0  0  0  0  0  0  0  0  0  0  0  0
   46.7311   42.5058   44.0247 C   0  0  0  0  0  0  0  0  0  0  0  0
   46.4678   42.6482   42.6810 C   0  0  0  0  0  0  0  0  0  0  0  0
   48.8589   41.9741   46.3870 C   0  0  0  0  0  0  0  0  0  0  0  0
   49.0127   41.6562   47.7908 C   0  0  0  0  0  0  0  0  0  0  0  0
   50.2138   41.7257   48.5084 C   0  0  0  0  0  0  0  0  0  0  0  0
   50.1946   41.3725   49.8422 C   0  0  0  0  0  0  0  0  0  0  0  0
   48.9847   41.0017   50.4075 C   0  0  0  0  0  0  0  0  0  0  0  0
   47.8361   40.9134   49.6511 C   0  0  0  0  0  0  0  0  0  0  0  0
   42.2287   37.5588   37.0896 N   0  0  0  0  0  0  0  0  0  0  0  0
   44.9874   38.7735   38.0792 N   0  0  0  0  0  0  0  0  0  0  0  0
   47.9676   42.8541   46.0931 N   0  0  0  0  0  0  0  0  0  0  0  0
   47.8387   41.2719   48.3760 N   0  0  0  0  0  0  0  0  0  0  0  0
  1 17  2  0  0  0  0
  1 16  1  0  0  0  0
  2  3  2  0  0  0  0
  2 26  1  0  0  0  0
  3  4  1  0  0  0  0
  4  5  2  0  0  0  0
  5  6  1  0  0  0  0
  6  7  1  0  0  0  0
  6 26  2  0  0  0  0
  7 27  2  0  0  0  0
  8  9  2  0  0  0  0
  8 13  1  0  0  0  0
  8 27  1  0  0  0  0
  9 10  1  0  0  0  0
 10 11  2  0  0  0  0
 11 12  1  0  0  0  0
 11 14  1  0  0  0  0
 12 13  2  0  0  0  0
 14 15  1  0  0  0  0
 15 16  2  0  0  0  0
 15 19  1  0  0  0  0
 17 18  1  0  0  0  0
 17 28  1  0  0  0  0
 18 19  2  0  0  0  0
 20 21  1  0  0  0  0
 20 28  2  0  0  0  0
 21 22  2  0  0  0  0
 21 29  1  0  0  0  0
 22 23  1  0  0  0  0
 23 24  2  0  0  0  0
 24 25  1  0  0  0  0
 25 29  2  0  0  0  0
M  END
>  <CHROM.1>
-76.40752288,75.56083547,144.13083168,-125.06311784,70.02153249,-78.52258288
46.37681095,40.70556220,41.91155759,-0.57449448,-1.06742942,-1.01201639

>  <Name>
ligand

>  <RI>
0

>  <Rbt.Current_Directory>
/home/itssahil/PROJECTS/Mol_Feturizer/New_Systems/rnas/4JIY

>  <Rbt.Executable>
rbdock ($Id: //depot/dev/client3/rdock/2013.1/src/exe/rbdock.cxx#4 $)

>  <Rbt.Library>
libRbt.so (2013.1, Build901 2013/11/27)

>  <Rbt.Parameter_File>
/export/apps/rDock/src/rDock_2013.1_src/data/scripts/dock_solv.prm

>  <Rbt.Receptor>
prm/pocket_docking_8.prm

>  <SCORE>
-14.5368

>  <SCORE.INTER>
-14.0516

>  <SCORE.INTER.CONST>
1

>  <SCORE.INTER.POLAR>
0

>  <SCORE.INTER.ROT>
6

>  <SCORE.INTER.SOLV>
2.63402

>  <SCORE.INTER.VDW>
-17.8457

>  <SCORE.INTER.norm>
-0.484537

>  <SCORE.INTRA>
-0.49714

>  <SCORE.INTRA.DIHEDRAL>
0.534696

>  <SCORE.INTRA.DIHEDRAL.0>
7.2424

>  <SCORE.INTRA.POLAR>
0

>  <SCORE.INTRA.POLAR.0>
0

>  <SCORE.INTRA.REPUL>
0

>  <SCORE.INTRA.REPUL.0>
0

>  <SCORE.INTRA.SOLV>
-0.0153144

>  <SCORE.INTRA.SOLV.lig_0>
-3.36201

>  <SCORE.INTRA.VDW>
-0.756831

>  <SCORE.INTRA.VDW.0>
-0.910526

>  <SCORE.INTRA.norm>
-0.0171428

>  <SCORE.RESTR>
0.0119132

>  <SCORE.RESTR.CAVITY>
0.0119132

>  <SCORE.RESTR.norm>
0.000410799

>  <SCORE.SYSTEM>
0

>  <SCORE.SYSTEM.CONST>
0

>  <SCORE.SYSTEM.DIHEDRAL>
0

>  <SCORE.SYSTEM.SOLV>
0

>  <SCORE.SYSTEM.norm>
0

>  <SCORE.heavy>
29

>  <SCORE.norm>
-0.501269

>  <RMSD>
7.169

$$$$
ligand
 OpenBabel11021811503D
libRbt.so/2013.1/901 2013/11/27
 29 32  0  0  0  0  0  0  0  0999 V2000
   46.9457   43.1442   43.8297 C   0  0  0  0  0  0  0  0  0  0  0  0
   41.9198   35.6550   34.9340 C   0  0  0  0  0  0  0  0  0  0  0  0
   41.0565   36.0503   33.9034 C   0  0  0  0  0  0  0  0  0  0  0  0
   40.9903   37.3432   33.5159 C   0  0  0  0  0  0  0  0  0  0  0  0
   41.7469   38.2792   34.2080 C   0  0  0  0  0  0  0  0  0  0  0  0
   42.6239   37.8560   35.1713 C   0  0  0  0  0  0  0  0  0  0  0  0
   43.5679   38.7029   35.8971 C   0  0  0  0  0  0  0  0  0  0  0  0
   44.2562   39.6733   37.8961 C   0  0  0  0  0  0  0  0  0  0  0  0
   43.6851   40.7417   38.5589 C   0  0  0  0  0  0  0  0  0  0  0  0
   44.5181   41.6708   39.1849 C   0  0  0  0  0  0  0  0  0  0  0  0
   45.8770   41.5037   39.2474 C   0  0  0  0  0  0  0  0  0  0  0  0
   46.4265   40.3956   38.5671 C   0  0  0  0  0  0  0  0  0  0  0  0
   45.6269   39.5180   37.8436 C   0  0  0  0  0  0  0  0  0  0  0  0
   46.7698   42.4414   40.0573 C   0  0  0  0  0  0  0  0  0  0  0  0
   46.4817   42.4074   41.5518 C   0  0  0  0  0  0  0  0  0  0  0  0
   47.1830   43.1527   42.4648 C   0  0  0  0  0  0  0  0  0  0  0  0
   45.9266   42.3456   44.2749 C   0  0  0  0  0  0  0  0  0  0  0  0
   45.2364   41.6046   43.3800 C   0  0  0  0  0  0  0  0  0  0  0  0
   45.4843   41.6020   42.0258 C   0  0  0  0  0  0  0  0  0  0  0  0
   44.6300   43.0447   46.0695 C   0  0  0  0  0  0  0  0  0  0  0  0
   44.3213   43.0580   47.4836 C   0  0  0  0  0  0  0  0  0  0  0  0
   44.5946   44.1156   48.3607 C   0  0  0  0  0  0  0  0  0  0  0  0
   44.2500   43.9636   49.6883 C   0  0  0  0  0  0  0  0  0  0  0  0
   43.6227   42.7899   50.0753 C   0  0  0  0  0  0  0  0  0  0  0  0
   43.4082   41.7625   49.1821 C   0  0  0  0  0  0  0  0  0  0  0  0
   42.6963   36.5558   35.5593 N   0  0  0  0  0  0  0  0  0  0  0  0
   43.3932   38.7362   37.1901 N   0  0  0  0  0  0  0  0  0  0  0  0
   45.5824   42.2634   45.6982 N   0  0  0  0  0  0  0  0  0  0  0  0
   43.7142   41.9068   47.9015 N   0  0  0  0  0  0  0  0  0  0  0  0
  1 17  2  0  0  0  0
  1 16  1  0  0  0  0
  2  3  2  0  0  0  0
  2 26  1  0  0  0  0
  3  4  1  0  0  0  0
  4  5  2  0  0  0  0
  5  6  1  0  0  0  0
  6  7  1  0  0  0  0
  6 26  2  0  0  0  0
  7 27  2  0  0  0  0
  8  9  2  0  0  0  0
  8 13  1  0  0  0  0
  8 27  1  0  0  0  0
  9 10  1  0  0  0  0
 10 11  2  0  0  0  0
 11 12  1  0  0  0  0
 11 14  1  0  0  0  0
 12 13  2  0  0  0  0
 14 15  1  0  0  0  0
 15 16  2  0  0  0  0
 15 19  1  0  0  0  0
 17 18  1  0  0  0  0
 17 28  1  0  0  0  0
 18 19  2  0  0  0  0
 20 21  1  0  0  0  0
 20 28  2  0  0  0  0
 21 22  2  0  0  0  0
 21 29  1  0  0  0  0
 22 23  1  0  0  0  0
 23 24  2  0  0  0  0
 24 25  1  0  0  0  0
 25 29  2  0  0  0  0
M  END
>  <CHROM.1>
119.04902847,63.32824141,178.77033150,108.97227200,115.98086829,95.27633482
44.36383820,40.75836733,41.16498226,-1.38329836,-0.61391651,-1.86432520

>  <Name>
ligand

>  <RI>
0

>  <Rbt.Current_Directory>
/home/itssahil/PROJECTS/Mol_Feturizer/New_Systems/rnas/4JIY

>  <Rbt.Executable>
rbdock ($Id: //depot/dev/client3/rdock/2013.1/src/exe/rbdock.cxx#4 $)

>  <Rbt.Library>
libRbt.so (2013.1, Build901 2013/11/27)

>  <Rbt.Parameter_File>
/export/apps/rDock/src/rDock_2013.1_src/data/scripts/dock_solv.prm

>  <Rbt.Receptor>
prm/pocket_docking_8.prm

>  <SCORE>
-11.145

>  <SCORE.INTER>
-11.2617

>  <SCORE.INTER.CONST>
1

>  <SCORE.INTER.POLAR>
0

>  <SCORE.INTER.ROT>
6

>  <SCORE.INTER.SOLV>
2.25609

>  <SCORE.INTER.VDW>
-15.8598

>  <SCORE.INTER.norm>
-0.388335

>  <SCORE.INTRA>
0.0849995

>  <SCORE.INTRA.DIHEDRAL>
0.915958

>  <SCORE.INTRA.DIHEDRAL.0>
7.2424

>  <SCORE.INTRA.POLAR>
0

>  <SCORE.INTRA.POLAR.0>
0

>  <SCORE.INTRA.REPUL>
0

>  <SCORE.INTRA.REPUL.0>
0

>  <SCORE.INTRA.SOLV>
-0.0138518

>  <SCORE.INTRA.SOLV.lig_0>
-3.36201

>  <SCORE.INTRA.VDW>
-0.366054

>  <SCORE.INTRA.VDW.0>
-0.910526

>  <SCORE.INTRA.norm>
0.00293102

>  <SCORE.RESTR>
0.0316965

>  <SCORE.RESTR.CAVITY>
0.0316965

>  <SCORE.RESTR.norm>
0.00109298

>  <SCORE.SYSTEM>
0

>  <SCORE.SYSTEM.CONST>
0

>  <SCORE.SYSTEM.DIHEDRAL>
0

>  <SCORE.SYSTEM.SOLV>
0

>  <SCORE.SYSTEM.norm>
0

>  <SCORE.heavy>
29

>  <SCORE.norm>
-0.384311

>  <RMSD>
7.180

$$$$
ligand
 OpenBabel11021811503D
libRbt.so/2013.1/901 2013/11/27
 29 32  0  0  0  0  0  0  0  0999 V2000
   47.1542   42.6625   44.5391 C   0  0  0  0  0  0  0  0  0  0  0  0
   42.5517   35.8155   37.2141 C   0  0  0  0  0  0  0  0  0  0  0  0
   42.7012   35.4682   35.8647 C   0  0  0  0  0  0  0  0  0  0  0  0
   43.2639   36.3294   34.9884 C   0  0  0  0  0  0  0  0  0  0  0  0
   43.6276   37.5898   35.4428 C   0  0  0  0  0  0  0  0  0  0  0  0
   43.5231   37.8799   36.7774 C   0  0  0  0  0  0  0  0  0  0  0  0
   43.9747   39.1119   37.4205 C   0  0  0  0  0  0  0  0  0  0  0  0
   45.5154   40.2150   38.7698 C   0  0  0  0  0  0  0  0  0  0  0  0
   46.7433   40.7925   38.5133 C   0  0  0  0  0  0  0  0  0  0  0  0
   47.1388   41.8996   39.2663 C   0  0  0  0  0  0  0  0  0  0  0  0
   46.3080   42.4913   40.1818 C   0  0  0  0  0  0  0  0  0  0  0  0
   45.0564   41.8806   40.4121 C   0  0  0  0  0  0  0  0  0  0  0  0
   44.6857   40.7133   39.7541 C   0  0  0  0  0  0  0  0  0  0  0  0
   46.6856   43.7872   40.8961 C   0  0  0  0  0  0  0  0  0  0  0  0
   47.2873   43.5621   42.2763 C   0  0  0  0  0  0  0  0  0  0  0  0
   46.6347   42.8841   43.2740 C   0  0  0  0  0  0  0  0  0  0  0  0
   48.4121   43.1447   44.7839 C   0  0  0  0  0  0  0  0  0  0  0  0
   49.0569   43.8187   43.8060 C   0  0  0  0  0  0  0  0  0  0  0  0
   48.5325   44.0521   42.5547 C   0  0  0  0  0  0  0  0  0  0  0  0
   49.1613   41.7398   46.4736 C   0  0  0  0  0  0  0  0  0  0  0  0
   49.7174   41.5250   47.7927 C   0  0  0  0  0  0  0  0  0  0  0  0
   49.0405   41.7403   49.0001 C   0  0  0  0  0  0  0  0  0  0  0  0
   49.7204   41.5019   50.1770 C   0  0  0  0  0  0  0  0  0  0  0  0
   51.0217   41.0308   50.1016 C   0  0  0  0  0  0  0  0  0  0  0  0
   51.6575   40.8694   48.8896 C   0  0  0  0  0  0  0  0  0  0  0  0
   42.9625   37.0140   37.6616 N   0  0  0  0  0  0  0  0  0  0  0  0
   45.1260   39.0232   38.0287 N   0  0  0  0  0  0  0  0  0  0  0  0
   49.0635   42.9625   46.0853 N   0  0  0  0  0  0  0  0  0  0  0  0
   51.0070   41.0734   47.7540 N   0  0  0  0  0  0  0  0  0  0  0  0
  1 17  2  0  0  0  0
  1 16  1  0  0  0  0
  2  3  2  0  0  0  0
  2 26  1  0  0  0  0
  3  4  1  0  0  0  0
  4  5  2  0  0  0  0
  5  6  1  0  0  0  0
  6  7  1  0  0  0  0
  6 26  2  0  0  0  0
  7 27  2  0  0  0  0
  8  9  2  0  0  0  0
  8 13  1  0  0  0  0
  8 27  1  0  0  0  0
  9 10  1  0  0  0  0
 10 11  2  0  0  0  0
 11 12  1  0  0  0  0
 11 14  1  0  0  0  0
 12 13  2  0  0  0  0
 14 15  1  0  0  0  0
 15 16  2  0  0  0  0
 15 19  1  0  0  0  0
 17 18  1  0  0  0  0
 17 28  1  0  0  0  0
 18 19  2  0  0  0  0
 20 21  1  0  0  0  0
 20 28  2  0  0  0  0
 21 22  2  0  0  0  0
 21 29  1  0  0  0  0
 22 23  1  0  0  0  0
 23 24  2  0  0  0  0
 24 25  1  0  0  0  0
 25 29  2  0  0  0  0
M  END
>  <CHROM.1>
-99.91546504,-96.82135683,-57.59705193,75.77941972,-125.99016512,56.21047906
46.80773985,40.77659349,42.02532336,-0.09724379,-1.08412820,-0.47718197

>  <Name>
ligand

>  <RI>
0

>  <Rbt.Current_Directory>
/home/itssahil/PROJECTS/Mol_Feturizer/New_Systems/rnas/4JIY

>  <Rbt.Executable>
rbdock ($Id: //depot/dev/client3/rdock/2013.1/src/exe/rbdock.cxx#4 $)

>  <Rbt.Library>
libRbt.so (2013.1, Build901 2013/11/27)

>  <Rbt.Parameter_File>
/export/apps/rDock/src/rDock_2013.1_src/data/scripts/dock_solv.prm

>  <Rbt.Receptor>
prm/pocket_docking_8.prm

>  <SCORE>
-14.3894

>  <SCORE.INTER>
-14.0401

>  <SCORE.INTER.CONST>
1

>  <SCORE.INTER.POLAR>
0

>  <SCORE.INTER.ROT>
6

>  <SCORE.INTER.SOLV>
2.79229

>  <SCORE.INTER.VDW>
-17.8908

>  <SCORE.INTER.norm>
-0.484142

>  <SCORE.INTRA>
-0.350945

>  <SCORE.INTRA.DIHEDRAL>
0.597791

>  <SCORE.INTRA.DIHEDRAL.0>
7.2424

>  <SCORE.INTRA.POLAR>
0

>  <SCORE.INTRA.POLAR.0>
0

>  <SCORE.INTRA.REPUL>
0

>  <SCORE.INTRA.REPUL.0>
0

>  <SCORE.INTRA.SOLV>
-0.0181439

>  <SCORE.INTRA.SOLV.lig_0>
-3.36201

>  <SCORE.INTRA.VDW>
-0.640769

>  <SCORE.INTRA.VDW.0>
-0.910526

>  <SCORE.INTRA.norm>
-0.0121016

>  <SCORE.RESTR>
0.00160964

>  <SCORE.RESTR.CAVITY>
0.00160964

>  <SCORE.RESTR.norm>
5.5505e-05

>  <SCORE.SYSTEM>
0

>  <SCORE.SYSTEM.CONST>
0

>  <SCORE.SYSTEM.DIHEDRAL>
0

>  <SCORE.SYSTEM.SOLV>
0

>  <SCORE.SYSTEM.norm>
0

>  <SCORE.heavy>
29

>  <SCORE.norm>
-0.496188

>  <RMSD>
7.197

$$$$
ligand
 OpenBabel11021811503D
libRbt.so/2013.1/901 2013/11/27
 29 32  0  0  0  0  0  0  0  0999 V2000
   51.8282   44.2885   41.3943 C   0  0  0  0  0  0  0  0  0  0  0  0
   41.8276   37.9615   44.0578 C   0  0  0  0  0  0  0  0  0  0  0  0
   40.9813   37.2591   43.1895 C   0  0  0  0  0  0  0  0  0  0  0  0
   40.9222   37.5754   41.8770 C   0  0  0  0  0  0  0  0  0  0  0  0
   41.6681   38.6552   41.4241 C   0  0  0  0  0  0  0  0  0  0  0  0
   42.5292   39.2856   42.2828 C   0  0  0  0  0  0  0  0  0  0  0  0
   43.4619   40.3522   41.9254 C   0  0  0  0  0  0  0  0  0  0  0  0
   45.3610   41.0462   40.7752 C   0  0  0  0  0  0  0  0  0  0  0  0
   45.8534   41.1882   39.4929 C   0  0  0  0  0  0  0  0  0  0  0  0
   46.8546   42.1316   39.2551 C   0  0  0  0  0  0  0  0  0  0  0  0
   47.2937   42.9883   40.2306 C   0  0  0  0  0  0  0  0  0  0  0  0
   46.7622   42.8217   41.5277 C   0  0  0  0  0  0  0  0  0  0  0  0
   45.8454   41.8163   41.8134 C   0  0  0  0  0  0  0  0  0  0  0  0
   48.2804   44.1150   39.9319 C   0  0  0  0  0  0  0  0  0  0  0  0
   49.4392   44.1789   40.9172 C   0  0  0  0  0  0  0  0  0  0  0  0
   50.7521   44.2296   40.5239 C   0  0  0  0  0  0  0  0  0  0  0  0
   51.5400   44.3153   42.7326 C   0  0  0  0  0  0  0  0  0  0  0  0
   50.2481   44.2594   43.1255 C   0  0  0  0  0  0  0  0  0  0  0  0
   49.1808   44.1846   42.2593 C   0  0  0  0  0  0  0  0  0  0  0  0
   53.1205   43.2500   44.0582 C   0  0  0  0  0  0  0  0  0  0  0  0
   54.1071   43.2649   45.1173 C   0  0  0  0  0  0  0  0  0  0  0  0
   54.0739   42.4611   46.2641 C   0  0  0  0  0  0  0  0  0  0  0  0
   55.0865   42.6089   47.1900 C   0  0  0  0  0  0  0  0  0  0  0  0
   56.0975   43.5177   46.9203 C   0  0  0  0  0  0  0  0  0  0  0  0
   56.0667   44.3125   45.7948 C   0  0  0  0  0  0  0  0  0  0  0  0
   42.5945   38.9662   43.6018 N   0  0  0  0  0  0  0  0  0  0  0  0
   44.3606   40.0209   41.0389 N   0  0  0  0  0  0  0  0  0  0  0  0
   52.5997   44.3838   43.7442 N   0  0  0  0  0  0  0  0  0  0  0  0
   55.1121   44.1628   44.8890 N   0  0  0  0  0  0  0  0  0  0  0  0
  1 17  2  0  0  0  0
  1 16  1  0  0  0  0
  2  3  2  0  0  0  0
  2 26  1  0  0  0  0
  3  4  1  0  0  0  0
  4  5  2  0  0  0  0
  5  6  1  0  0  0  0
  6  7  1  0  0  0  0
  6 26  2  0  0  0  0
  7 27  2  0  0  0  0
  8  9  2  0  0  0  0
  8 13  1  0  0  0  0
  8 27  1  0  0  0  0
  9 10  1  0  0  0  0
 10 11  2  0  0  0  0
 11 12  1  0  0  0  0
 11 14  1  0  0  0  0
 12 13  2  0  0  0  0
 14 15  1  0  0  0  0
 15 16  2  0  0  0  0
 15 19  1  0  0  0  0
 17 18  1  0  0  0  0
 17 28  1  0  0  0  0
 18 19  2  0  0  0  0
 20 21  1  0  0  0  0
 20 28  2  0  0  0  0
 21 22  2  0  0  0  0
 21 29  1  0  0  0  0
 22 23  1  0  0  0  0
 23 24  2  0  0  0  0
 24 25  1  0  0  0  0
 25 29  2  0  0  0  0
M  END
>  <CHROM.1>
-61.17601059,-131.98042120,129.14384031,126.88226205,-144.59337976,-83.80888812
48.41292500,42.06151916,42.66833889,0.00670357,-0.44486466,-0.99895075

>  <Name>
ligand

>  <RI>
0

>  <Rbt.Current_Directory>
/home/itssahil/PROJECTS/Mol_Feturizer/New_Systems/rnas/4JIY

>  <Rbt.Executable>
rbdock ($Id: //depot/dev/client3/rdock/2013.1/src/exe/rbdock.cxx#4 $)

>  <Rbt.Library>
libRbt.so (2013.1, Build901 2013/11/27)

>  <Rbt.Parameter_File>
/export/apps/rDock/src/rDock_2013.1_src/data/scripts/dock_solv.prm

>  <Rbt.Receptor>
prm/pocket_docking_8.prm

>  <SCORE>
-14.1534

>  <SCORE.INTER>
-14.5408

>  <SCORE.INTER.CONST>
1

>  <SCORE.INTER.POLAR>
0

>  <SCORE.INTER.ROT>
6

>  <SCORE.INTER.SOLV>
4.05519

>  <SCORE.INTER.VDW>
-18.6456

>  <SCORE.INTER.norm>
-0.501407

>  <SCORE.INTRA>
0.387434

>  <SCORE.INTRA.DIHEDRAL>
0.498819

>  <SCORE.INTRA.DIHEDRAL.0>
7.2424

>  <SCORE.INTRA.POLAR>
0

>  <SCORE.INTRA.POLAR.0>
0

>  <SCORE.INTRA.REPUL>
0

>  <SCORE.INTRA.REPUL.0>
0

>  <SCORE.INTRA.SOLV>
-0.0148939

>  <SCORE.INTRA.SOLV.lig_0>
-3.36201

>  <SCORE.INTRA.VDW>
0.145472

>  <SCORE.INTRA.VDW.0>
-0.910526

>  <SCORE.INTRA.norm>
0.0133598

>  <SCORE.RESTR>
0

>  <SCORE.RESTR.CAVITY>
0

>  <SCORE.RESTR.norm>
0

>  <SCORE.SYSTEM>
0

>  <SCORE.SYSTEM.CONST>
0

>  <SCORE.SYSTEM.DIHEDRAL>
0

>  <SCORE.SYSTEM.SOLV>
0

>  <SCORE.SYSTEM.norm>
0

>  <SCORE.heavy>
29

>  <SCORE.norm>
-0.488048

>  <RMSD>
7.200

$$$$
ligand
 OpenBabel11021811503D
libRbt.so/2013.1/901 2013/11/27
 29 32  0  0  0  0  0  0  0  0999 V2000
   44.9489   41.3245   39.0833 C   0  0  0  0  0  0  0  0  0  0  0  0
   48.8276   44.1675   50.4705 C   0  0  0  0  0  0  0  0  0  0  0  0
   48.4193   43.0782   51.2518 C   0  0  0  0  0  0  0  0  0  0  0  0
   47.6521   42.0990   50.7240 C   0  0  0  0  0  0  0  0  0  0  0  0
   47.2229   42.2325   49.4105 C   0  0  0  0  0  0  0  0  0  0  0  0
   47.6847   43.2772   48.6546 C   0  0  0  0  0  0  0  0  0  0  0  0
   47.4198   43.4839   47.2324 C   0  0  0  0  0  0  0  0  0  0  0  0
   47.8739   42.9478   45.0149 C   0  0  0  0  0  0  0  0  0  0  0  0
   46.7740   42.4354   44.3556 C   0  0  0  0  0  0  0  0  0  0  0  0
   46.6440   42.6606   42.9840 C   0  0  0  0  0  0  0  0  0  0  0  0
   47.5190   43.4560   42.2910 C   0  0  0  0  0  0  0  0  0  0  0  0
   48.6268   43.9714   42.9980 C   0  0  0  0  0  0  0  0  0  0  0  0
   48.8371   43.6695   44.3388 C   0  0  0  0  0  0  0  0  0  0  0  0
   47.2925   43.8202   40.8253 C   0  0  0  0  0  0  0  0  0  0  0  0
   46.7803   42.6573   39.9869 C   0  0  0  0  0  0  0  0  0  0  0  0
   45.4467   42.3740   39.8384 C   0  0  0  0  0  0  0  0  0  0  0  0
   45.8651   40.5404   38.4350 C   0  0  0  0  0  0  0  0  0  0  0  0
   47.1807   40.8117   38.5830 C   0  0  0  0  0  0  0  0  0  0  0  0
   47.6742   41.8452   39.3469 C   0  0  0  0  0  0  0  0  0  0  0  0
   44.7264   38.5302   38.2052 C   0  0  0  0  0  0  0  0  0  0  0  0
   44.3726   37.3515   37.4431 C   0  0  0  0  0  0  0  0  0  0  0  0
   44.4740   37.2283   36.0514 C   0  0  0  0  0  0  0  0  0  0  0  0
   44.0793   36.0385   35.4745 C   0  0  0  0  0  0  0  0  0  0  0  0
   43.6371   35.0197   36.3037 C   0  0  0  0  0  0  0  0  0  0  0  0
   43.5206   35.2017   37.6648 C   0  0  0  0  0  0  0  0  0  0  0  0
   48.4605   44.2605   49.1812 N   0  0  0  0  0  0  0  0  0  0  0  0
   48.0443   42.6628   46.4330 N   0  0  0  0  0  0  0  0  0  0  0  0
   45.4514   39.4058   37.6027 N   0  0  0  0  0  0  0  0  0  0  0  0
   43.9180   36.3312   38.2310 N   0  0  0  0  0  0  0  0  0  0  0  0
  1 17  2  0  0  0  0
  1 16  1  0  0  0  0
  2  3  2  0  0  0  0
  2 26  1  0  0  0  0
  3  4  1  0  0  0  0
  4  5  2  0  0  0  0
  5  6  1  0  0  0  0
  6  7  1  0  0  0  0
  6 26  2  0  0  0  0
  7 27  2  0  0  0  0
  8  9  2  0  0  0  0
  8 13  1  0  0  0  0
  8 27  1  0  0  0  0
  9 10  1  0  0  0  0
 10 11  2  0  0  0  0
 11 12  1  0  0  0  0
 11 14  1  0  0  0  0
 12 13  2  0  0  0  0
 14 15  1  0  0  0  0
 15 16  2  0  0  0  0
 15 19  1  0  0  0  0
 17 18  1  0  0  0  0
 17 28  1  0  0  0  0
 18 19  2  0  0  0  0
 20 21  1  0  0  0  0
 20 28  2  0  0  0  0
 21 22  2  0  0  0  0
 21 29  1  0  0  0  0
 22 23  1  0  0  0  0
 23 24  2  0  0  0  0
 24 25  1  0  0  0  0
 25 29  2  0  0  0  0
M  END
>  <CHROM.1>
-72.13822103,-40.86868451,88.74396754,-15.95304831,-85.83269639,-56.36495637
46.53047795,41.13781929,42.36372656,-2.25629401,1.13794722,1.74087036

>  <Name>
ligand

>  <RI>
0

>  <Rbt.Current_Directory>
/home/itssahil/PROJECTS/Mol_Feturizer/New_Systems/rnas/4JIY

>  <Rbt.Executable>
rbdock ($Id: //depot/dev/client3/rdock/2013.1/src/exe/rbdock.cxx#4 $)

>  <Rbt.Library>
libRbt.so (2013.1, Build901 2013/11/27)

>  <Rbt.Parameter_File>
/export/apps/rDock/src/rDock_2013.1_src/data/scripts/dock_solv.prm

>  <Rbt.Receptor>
prm/pocket_docking_8.prm

>  <SCORE>
-12.8407

>  <SCORE.INTER>
-12.3232

>  <SCORE.INTER.CONST>
1

>  <SCORE.INTER.POLAR>
0

>  <SCORE.INTER.ROT>
6

>  <SCORE.INTER.SOLV>
2.56365

>  <SCORE.INTER.VDW>
-16.67

>  <SCORE.INTER.norm>
-0.424939

>  <SCORE.INTRA>
-0.519853

>  <SCORE.INTRA.DIHEDRAL>
0.283861

>  <SCORE.INTRA.DIHEDRAL.0>
7.2424

>  <SCORE.INTRA.POLAR>
0

>  <SCORE.INTRA.POLAR.0>
0

>  <SCORE.INTRA.REPUL>
0

>  <SCORE.INTRA.REPUL.0>
0

>  <SCORE.INTRA.SOLV>
-0.0197346

>  <SCORE.INTRA.SOLV.lig_0>
-3.36201

>  <SCORE.INTRA.VDW>
-0.651916

>  <SCORE.INTRA.VDW.0>
-0.910526

>  <SCORE.INTRA.norm>
-0.017926

>  <SCORE.RESTR>
0.00239061

>  <SCORE.RESTR.CAVITY>
0.00239061

>  <SCORE.RESTR.norm>
8.24348e-05

>  <SCORE.SYSTEM>
0

>  <SCORE.SYSTEM.CONST>
0

>  <SCORE.SYSTEM.DIHEDRAL>
0

>  <SCORE.SYSTEM.SOLV>
0

>  <SCORE.SYSTEM.norm>
0

>  <SCORE.heavy>
29

>  <SCORE.norm>
-0.442783

>  <RMSD>
7.205

$$$$
ligand
 OpenBabel11021811503D
libRbt.so/2013.1/901 2013/11/27
 29 32  0  0  0  0  0  0  0  0999 V2000
   44.7756   40.8412   39.4510 C   0  0  0  0  0  0  0  0  0  0  0  0
   49.8688   40.4355   49.4957 C   0  0  0  0  0  0  0  0  0  0  0  0
   49.0067   40.9123   50.4922 C   0  0  0  0  0  0  0  0  0  0  0  0
   47.9465   41.6878   50.1750 C   0  0  0  0  0  0  0  0  0  0  0  0
   47.7716   42.0557   48.8478 C   0  0  0  0  0  0  0  0  0  0  0  0
   48.5953   41.5280   47.8891 C   0  0  0  0  0  0  0  0  0  0  0  0
   48.4621   41.7247   46.4472 C   0  0  0  0  0  0  0  0  0  0  0  0
   47.9431   43.1183   44.6584 C   0  0  0  0  0  0  0  0  0  0  0  0
   48.8178   43.8800   43.9090 C   0  0  0  0  0  0  0  0  0  0  0  0
   48.5422   44.0891   42.5565 C   0  0  0  0  0  0  0  0  0  0  0  0
   47.4870   43.4824   41.9266 C   0  0  0  0  0  0  0  0  0  0  0  0
   46.6184   42.7028   42.7207 C   0  0  0  0  0  0  0  0  0  0  0  0
   46.8100   42.5704   44.0913 C   0  0  0  0  0  0  0  0  0  0  0  0
   47.2736   43.5944   40.4186 C   0  0  0  0  0  0  0  0  0  0  0  0
   46.6647   42.3432   39.8009 C   0  0  0  0  0  0  0  0  0  0  0  0
   45.3592   41.9722   39.9983 C   0  0  0  0  0  0  0  0  0  0  0  0
   45.5668   40.0647   38.6475 C   0  0  0  0  0  0  0  0  0  0  0  0
   46.8557   40.4226   38.4547 C   0  0  0  0  0  0  0  0  0  0  0  0
   47.4384   41.5382   39.0124 C   0  0  0  0  0  0  0  0  0  0  0  0
   44.0469   39.0314   37.2289 C   0  0  0  0  0  0  0  0  0  0  0  0
   43.4546   37.8437   36.6509 C   0  0  0  0  0  0  0  0  0  0  0  0
   43.8004   37.2892   35.4119 C   0  0  0  0  0  0  0  0  0  0  0  0
   43.1271   36.1587   34.9960 C   0  0  0  0  0  0  0  0  0  0  0  0
   42.1713   35.6143   35.8391 C   0  0  0  0  0  0  0  0  0  0  0  0
   41.8401   36.2176   37.0331 C   0  0  0  0  0  0  0  0  0  0  0  0
   49.6590   40.7437   48.2048 N   0  0  0  0  0  0  0  0  0  0  0  0
   48.1948   42.9492   46.0830 N   0  0  0  0  0  0  0  0  0  0  0  0
   45.0526   38.8480   38.0101 N   0  0  0  0  0  0  0  0  0  0  0  0
   42.4958   37.2894   37.4521 N   0  0  0  0  0  0  0  0  0  0  0  0
  1 17  2  0  0  0  0
  1 16  1  0  0  0  0
  2  3  2  0  0  0  0
  2 26  1  0  0  0  0
  3  4  1  0  0  0  0
  4  5  2  0  0  0  0
  5  6  1  0  0  0  0
  6  7  1  0  0  0  0
  6 26  2  0  0  0  0
  7 27  2  0  0  0  0
  8  9  2  0  0  0  0
  8 13  1  0  0  0  0
  8 27  1  0  0  0  0
  9 10  1  0  0  0  0
 10 11  2  0  0  0  0
 11 12  1  0  0  0  0
 11 14  1  0  0  0  0
 12 13  2  0  0  0  0
 14 15  1  0  0  0  0
 15 16  2  0  0  0  0
 15 19  1  0  0  0  0
 17 18  1  0  0  0  0
 17 28  1  0  0  0  0
 18 19  2  0  0  0  0
 20 21  1  0  0  0  0
 20 28  2  0  0  0  0
 21 22  2  0  0  0  0
 21 29  1  0  0  0  0
 22 23  1  0  0  0  0
 23 24  2  0  0  0  0
 24 25  1  0  0  0  0
 25 29  2  0  0  0  0
M  END
>  <CHROM.1>
43.45618824,146.35143134,71.46787982,-92.40421839,-115.07233630,59.24106874
46.40451727,40.71956095,41.93003035,-2.49380605,1.05400654,2.06650357

>  <Name>
ligand

>  <RI>
0

>  <Rbt.Current_Directory>
/home/itssahil/PROJECTS/Mol_Feturizer/New_Systems/rnas/4JIY

>  <Rbt.Executable>
rbdock ($Id: //depot/dev/client3/rdock/2013.1/src/exe/rbdock.cxx#4 $)

>  <Rbt.Library>
libRbt.so (2013.1, Build901 2013/11/27)

>  <Rbt.Parameter_File>
/export/apps/rDock/src/rDock_2013.1_src/data/scripts/dock_solv.prm

>  <Rbt.Receptor>
prm/pocket_docking_8.prm

>  <SCORE>
-15.5047

>  <SCORE.INTER>
-15.1468

>  <SCORE.INTER.CONST>
1

>  <SCORE.INTER.POLAR>
0

>  <SCORE.INTER.ROT>
6

>  <SCORE.INTER.SOLV>
2.79086

>  <SCORE.INTER.VDW>
-18.6282

>  <SCORE.INTER.norm>
-0.522305

>  <SCORE.INTRA>
-0.357888

>  <SCORE.INTRA.DIHEDRAL>
0.48477

>  <SCORE.INTRA.DIHEDRAL.0>
7.2424

>  <SCORE.INTRA.POLAR>
0

>  <SCORE.INTRA.POLAR.0>
0

>  <SCORE.INTRA.REPUL>
0

>  <SCORE.INTRA.REPUL.0>
0

>  <SCORE.INTRA.SOLV>
-0.0193061

>  <SCORE.INTRA.SOLV.lig_0>
-3.36201

>  <SCORE.INTRA.VDW>
-0.59062

>  <SCORE.INTRA.VDW.0>
-0.910526

>  <SCORE.INTRA.norm>
-0.012341

>  <SCORE.RESTR>
4.46545e-05

>  <SCORE.RESTR.CAVITY>
4.46545e-05

>  <SCORE.RESTR.norm>
1.53981e-06

>  <SCORE.SYSTEM>
0

>  <SCORE.SYSTEM.CONST>
0

>  <SCORE.SYSTEM.DIHEDRAL>
0

>  <SCORE.SYSTEM.SOLV>
0

>  <SCORE.SYSTEM.norm>
0

>  <SCORE.heavy>
29

>  <SCORE.norm>
-0.534644

>  <RMSD>
7.247

$$$$
ligand
 OpenBabel11021811503D
libRbt.so/2013.1/901 2013/11/27
 29 32  0  0  0  0  0  0  0  0999 V2000
   41.0164   40.3259   36.4650 C   0  0  0  0  0  0  0  0  0  0  0  0
   51.6586   44.8623   41.0693 C   0  0  0  0  0  0  0  0  0  0  0  0
   52.0706   45.8161   40.1290 C   0  0  0  0  0  0  0  0  0  0  0  0
   51.2898   46.1236   39.0698 C   0  0  0  0  0  0  0  0  0  0  0  0
   50.1030   45.4237   38.8995 C   0  0  0  0  0  0  0  0  0  0  0  0
   49.6990   44.5393   39.8643 C   0  0  0  0  0  0  0  0  0  0  0  0
   48.4262   43.8219   39.8850 C   0  0  0  0  0  0  0  0  0  0  0  0
   47.2466   41.8336   39.6270 C   0  0  0  0  0  0  0  0  0  0  0  0
   47.0302   40.9810   38.5624 C   0  0  0  0  0  0  0  0  0  0  0  0
   45.7859   40.3607   38.4368 C   0  0  0  0  0  0  0  0  0  0  0  0
   44.8078   40.4925   39.3877 C   0  0  0  0  0  0  0  0  0  0  0  0
   45.0660   41.3642   40.4676 C   0  0  0  0  0  0  0  0  0  0  0  0
   46.2554   42.0787   40.5559 C   0  0  0  0  0  0  0  0  0  0  0  0
   43.5054   39.6977   39.3226 C   0  0  0  0  0  0  0  0  0  0  0  0
   42.4473   40.3446   38.4396 C   0  0  0  0  0  0  0  0  0  0  0  0
   41.9776   39.7639   37.2894 C   0  0  0  0  0  0  0  0  0  0  0  0
   40.5001   41.5336   36.8516 C   0  0  0  0  0  0  0  0  0  0  0  0
   40.9640   42.1129   37.9811 C   0  0  0  0  0  0  0  0  0  0  0  0
   41.9310   41.5605   38.7905 C   0  0  0  0  0  0  0  0  0  0  0  0
   39.9280   43.0228   35.1648 C   0  0  0  0  0  0  0  0  0  0  0  0
   38.9456   43.7840   34.4227 C   0  0  0  0  0  0  0  0  0  0  0  0
   38.9897   45.1673   34.2065 C   0  0  0  0  0  0  0  0  0  0  0  0
   37.9628   45.7453   33.4884 C   0  0  0  0  0  0  0  0  0  0  0  0
   36.9634   44.9237   32.9915 C   0  0  0  0  0  0  0  0  0  0  0  0
   36.9443   43.5725   33.2620 C   0  0  0  0  0  0  0  0  0  0  0  0
   50.4797   44.2321   40.9331 N   0  0  0  0  0  0  0  0  0  0  0  0
   48.5220   42.5298   39.7272 N   0  0  0  0  0  0  0  0  0  0  0  0
   39.4729   42.2177   36.0592 N   0  0  0  0  0  0  0  0  0  0  0  0
   37.9365   43.0042   33.9306 N   0  0  0  0  0  0  0  0  0  0  0  0
  1 17  2  0  0  0  0
  1 16  1  0  0  0  0
  2  3  2  0  0  0  0
  2 26  1  0  0  0  0
  3  4  1  0  0  0  0
  4  5  2  0  0  0  0
  5  6  1  0  0  0  0
  6  7  1  0  0  0  0
  6 26  2  0  0  0  0
  7 27  2  0  0  0  0
  8  9  2  0  0  0  0
  8 13  1  0  0  0  0
  8 27  1  0  0  0  0
  9 10  1  0  0  0  0
 10 11  2  0  0  0  0
 11 12  1  0  0  0  0
 11 14  1  0  0  0  0
 12 13  2  0  0  0  0
 14 15  1  0  0  0  0
 15 16  2  0  0  0  0
 15 19  1  0  0  0  0
 17 18  1  0  0  0  0
 17 28  1  0  0  0  0
 18 19  2  0  0  0  0
 20 21  1  0  0  0  0
 20 28  2  0  0  0  0
 21 22  2  0  0  0  0
 21 29  1  0  0  0  0
 22 23  1  0  0  0  0
 23 24  2  0  0  0  0
 24 25  1  0  0  0  0
 25 29  2  0  0  0  0
M  END
>  <CHROM.1>
112.92858456,-84.46774546,115.57387224,130.96133901,128.10269212,-90.20851496
44.06469597,42.79166689,37.77327140,2.98766611,-0.42642519,-0.49859892

>  <Name>
ligand

>  <RI>
0

>  <Rbt.Current_Directory>
/home/itssahil/PROJECTS/Mol_Feturizer/New_Systems/rnas/4JIY

>  <Rbt.Executable>
rbdock ($Id: //depot/dev/client3/rdock/2013.1/src/exe/rbdock.cxx#4 $)

>  <Rbt.Library>
libRbt.so (2013.1, Build901 2013/11/27)

>  <Rbt.Parameter_File>
/export/apps/rDock/src/rDock_2013.1_src/data/scripts/dock_solv.prm

>  <Rbt.Receptor>
prm/pocket_docking_8.prm

>  <SCORE>
-11.2502

>  <SCORE.INTER>
-11.2254

>  <SCORE.INTER.CONST>
1

>  <SCORE.INTER.POLAR>
0

>  <SCORE.INTER.ROT>
6

>  <SCORE.INTER.SOLV>
3.37461

>  <SCORE.INTER.VDW>
-16.2084

>  <SCORE.INTER.norm>
-0.387082

>  <SCORE.INTRA>
-0.0248756

>  <SCORE.INTRA.DIHEDRAL>
1.05621

>  <SCORE.INTRA.DIHEDRAL.0>
7.2424

>  <SCORE.INTRA.POLAR>
0

>  <SCORE.INTRA.POLAR.0>
0

>  <SCORE.INTRA.REPUL>
0

>  <SCORE.INTRA.REPUL.0>
0

>  <SCORE.INTRA.SOLV>
-0.0123228

>  <SCORE.INTRA.SOLV.lig_0>
-3.36201

>  <SCORE.INTRA.VDW>
-0.546821

>  <SCORE.INTRA.VDW.0>
-0.910526

>  <SCORE.INTRA.norm>
-0.00085778

>  <SCORE.RESTR>
0

>  <SCORE.RESTR.CAVITY>
0

>  <SCORE.RESTR.norm>
0

>  <SCORE.SYSTEM>
0

>  <SCORE.SYSTEM.CONST>
0

>  <SCORE.SYSTEM.DIHEDRAL>
0

>  <SCORE.SYSTEM.SOLV>
0

>  <SCORE.SYSTEM.norm>
0

>  <SCORE.heavy>
29

>  <SCORE.norm>
-0.387939

>  <RMSD>
7.264

$$$$
ligand
 OpenBabel11021811503D
libRbt.so/2013.1/901 2013/11/27
 29 32  0  0  0  0  0  0  0  0999 V2000
   44.5071   40.9123   38.8029 C   0  0  0  0  0  0  0  0  0  0  0  0
   48.8319   42.3818   49.7941 C   0  0  0  0  0  0  0  0  0  0  0  0
   48.9737   41.1193   50.3853 C   0  0  0  0  0  0  0  0  0  0  0  0
   48.9561   39.9979   49.6315 C   0  0  0  0  0  0  0  0  0  0  0  0
   48.7268   40.1228   48.2680 C   0  0  0  0  0  0  0  0  0  0  0  0
   48.6497   41.3715   47.7102 C   0  0  0  0  0  0  0  0  0  0  0  0
   48.5321   41.6627   46.2831 C   0  0  0  0  0  0  0  0  0  0  0  0
   47.5509   42.8876   44.5661 C   0  0  0  0  0  0  0  0  0  0  0  0
   46.5103   42.2322   43.9380 C   0  0  0  0  0  0  0  0  0  0  0  0
   46.3460   42.3910   42.5608 C   0  0  0  0  0  0  0  0  0  0  0  0
   47.1217   43.2526   41.8300 C   0  0  0  0  0  0  0  0  0  0  0  0
   48.1702   43.9137   42.5055 C   0  0  0  0  0  0  0  0  0  0  0  0
   48.4227   43.6865   43.8537 C   0  0  0  0  0  0  0  0  0  0  0  0
   46.8453   43.5353   40.3549 C   0  0  0  0  0  0  0  0  0  0  0  0
   46.3350   42.3200   39.5931 C   0  0  0  0  0  0  0  0  0  0  0  0
   45.0033   42.0094   39.4881 C   0  0  0  0  0  0  0  0  0  0  0  0
   45.4226   40.1067   38.1804 C   0  0  0  0  0  0  0  0  0  0  0  0
   46.7364   40.4050   38.2859 C   0  0  0  0  0  0  0  0  0  0  0  0
   47.2287   41.4867   38.9808 C   0  0  0  0  0  0  0  0  0  0  0  0
   44.4452   38.0016   38.1208 C   0  0  0  0  0  0  0  0  0  0  0  0
   44.1048   36.7792   37.4242 C   0  0  0  0  0  0  0  0  0  0  0  0
   44.2194   35.4878   37.9547 C   0  0  0  0  0  0  0  0  0  0  0  0
   43.8667   34.4224   37.1517 C   0  0  0  0  0  0  0  0  0  0  0  0
   43.3870   34.6880   35.8789 C   0  0  0  0  0  0  0  0  0  0  0  0
   43.3271   35.9745   35.3884 C   0  0  0  0  0  0  0  0  0  0  0  0
   48.6723   42.5009   48.4652 N   0  0  0  0  0  0  0  0  0  0  0  0
   47.7624   42.6756   45.9915 N   0  0  0  0  0  0  0  0  0  0  0  0
   45.0103   38.9215   37.4210 N   0  0  0  0  0  0  0  0  0  0  0  0
   43.6414   37.0054   36.1583 N   0  0  0  0  0  0  0  0  0  0  0  0
  1 17  2  0  0  0  0
  1 16  1  0  0  0  0
  2  3  2  0  0  0  0
  2 26  1  0  0  0  0
  3  4  1  0  0  0  0
  4  5  2  0  0  0  0
  5  6  1  0  0  0  0
  6  7  1  0  0  0  0
  6 26  2  0  0  0  0
  7 27  2  0  0  0  0
  8  9  2  0  0  0  0
  8 13  1  0  0  0  0
  8 27  1  0  0  0  0
  9 10  1  0  0  0  0
 10 11  2  0  0  0  0
 11 12  1  0  0  0  0
 11 14  1  0  0  0  0
 12 13  2  0  0  0  0
 14 15  1  0  0  0  0
 15 16  2  0  0  0  0
 15 19  1  0  0  0  0
 17 18  1  0  0  0  0
 17 28  1  0  0  0  0
 18 19  2  0  0  0  0
 20 21  1  0  0  0  0
 20 28  2  0  0  0  0
 21 22  2  0  0  0  0
 21 29  1  0  0  0  0
 22 23  1  0  0  0  0
 23 24  2  0  0  0  0
 24 25  1  0  0  0  0
 25 29  2  0  0  0  0
M  END
>  <CHROM.1>
142.73328872,-35.49446753,89.40398639,141.49661995,88.20522078,-63.95573570
46.45705040,40.43334511,41.89103127,-2.88337721,1.20638465,2.44792877

>  <Name>
ligand

>  <RI>
0

>  <Rbt.Current_Directory>
/home/itssahil/PROJECTS/Mol_Feturizer/New_Systems/rnas/4JIY

>  <Rbt.Executable>
rbdock ($Id: //depot/dev/client3/rdock/2013.1/src/exe/rbdock.cxx#4 $)

>  <Rbt.Library>
libRbt.so (2013.1, Build901 2013/11/27)

>  <Rbt.Parameter_File>
/export/apps/rDock/src/rDock_2013.1_src/data/scripts/dock_solv.prm

>  <Rbt.Receptor>
prm/pocket_docking_8.prm

>  <SCORE>
-15.224

>  <SCORE.INTER>
-15.0676

>  <SCORE.INTER.CONST>
1

>  <SCORE.INTER.POLAR>
0

>  <SCORE.INTER.ROT>
6

>  <SCORE.INTER.SOLV>
3.12281

>  <SCORE.INTER.VDW>
-18.686

>  <SCORE.INTER.norm>
-0.519573

>  <SCORE.INTRA>
-0.189596

>  <SCORE.INTRA.DIHEDRAL>
0.632204

>  <SCORE.INTRA.DIHEDRAL.0>
7.2424

>  <SCORE.INTRA.POLAR>
0

>  <SCORE.INTRA.POLAR.0>
0

>  <SCORE.INTRA.REPUL>
0

>  <SCORE.INTRA.REPUL.0>
0

>  <SCORE.INTRA.SOLV>
-0.00891022

>  <SCORE.INTRA.SOLV.lig_0>
-3.36201

>  <SCORE.INTRA.VDW>
-0.501242

>  <SCORE.INTRA.VDW.0>
-0.910526

>  <SCORE.INTRA.norm>
-0.00653778

>  <SCORE.RESTR>
0.0332565

>  <SCORE.RESTR.CAVITY>
0.0332565

>  <SCORE.RESTR.norm>
0.00114678

>  <SCORE.SYSTEM>
0

>  <SCORE.SYSTEM.CONST>
0

>  <SCORE.SYSTEM.DIHEDRAL>
0

>  <SCORE.SYSTEM.SOLV>
0

>  <SCORE.SYSTEM.norm>
0

>  <SCORE.heavy>
29

>  <SCORE.norm>
-0.524964

>  <RMSD>
7.342

$$$$
ligand
 OpenBabel11021811503D
libRbt.so/2013.1/901 2013/11/27
 29 32  0  0  0  0  0  0  0  0999 V2000
   51.1001   44.3566   41.5302 C   0  0  0  0  0  0  0  0  0  0  0  0
   44.6276   35.2426   38.5996 C   0  0  0  0  0  0  0  0  0  0  0  0
   43.9685   35.0391   37.3799 C   0  0  0  0  0  0  0  0  0  0  0  0
   43.5459   36.0879   36.6400 C   0  0  0  0  0  0  0  0  0  0  0  0
   43.7199   37.3676   37.1493 C   0  0  0  0  0  0  0  0  0  0  0  0
   44.4182   37.5386   38.3152 C   0  0  0  0  0  0  0  0  0  0  0  0
   44.7841   38.8221   38.9102 C   0  0  0  0  0  0  0  0  0  0  0  0
   45.9547   40.8277   38.7757 C   0  0  0  0  0  0  0  0  0  0  0  0
   47.3099   41.0905   38.8139 C   0  0  0  0  0  0  0  0  0  0  0  0
   47.7569   42.2351   39.4765 C   0  0  0  0  0  0  0  0  0  0  0  0
   46.8896   43.1562   40.0036 C   0  0  0  0  0  0  0  0  0  0  0  0
   45.5108   42.8606   39.9386 C   0  0  0  0  0  0  0  0  0  0  0  0
   45.0479   41.6737   39.3819 C   0  0  0  0  0  0  0  0  0  0  0  0
   47.3760   44.4770   40.5962 C   0  0  0  0  0  0  0  0  0  0  0  0
   48.6653   44.3416   41.3944 C   0  0  0  0  0  0  0  0  0  0  0  0
   49.9092   44.4738   40.8322 C   0  0  0  0  0  0  0  0  0  0  0  0
   51.0073   44.1103   42.8738 C   0  0  0  0  0  0  0  0  0  0  0  0
   49.7840   43.9731   43.4316 C   0  0  0  0  0  0  0  0  0  0  0  0
   48.6019   44.0739   42.7332 C   0  0  0  0  0  0  0  0  0  0  0  0
   52.3791   44.9258   44.5601 C   0  0  0  0  0  0  0  0  0  0  0  0
   53.5944   44.8734   45.3446 C   0  0  0  0  0  0  0  0  0  0  0  0
   54.8628   45.2652   44.8972 C   0  0  0  0  0  0  0  0  0  0  0  0
   55.9262   45.1373   45.7673 C   0  0  0  0  0  0  0  0  0  0  0  0
   55.6777   44.6614   47.0450 C   0  0  0  0  0  0  0  0  0  0  0  0
   54.4177   44.2540   47.4268 C   0  0  0  0  0  0  0  0  0  0  0  0
   44.8488   36.4859   39.0586 N   0  0  0  0  0  0  0  0  0  0  0  0
   45.4897   39.6032   38.1387 N   0  0  0  0  0  0  0  0  0  0  0  0
   52.2024   43.9737   43.7129 N   0  0  0  0  0  0  0  0  0  0  0  0
   53.3864   44.3938   46.6076 N   0  0  0  0  0  0  0  0  0  0  0  0
  1 17  2  0  0  0  0
  1 16  1  0  0  0  0
  2  3  2  0  0  0  0
  2 26  1  0  0  0  0
  3  4  1  0  0  0  0
  4  5  2  0  0  0  0
  5  6  1  0  0  0  0
  6  7  1  0  0  0  0
  6 26  2  0  0  0  0
  7 27  2  0  0  0  0
  8  9  2  0  0  0  0
  8 13  1  0  0  0  0
  8 27  1  0  0  0  0
  9 10  1  0  0  0  0
 10 11  2  0  0  0  0
 11 12  1  0  0  0  0
 11 14  1  0  0  0  0
 12 13  2  0  0  0  0
 14 15  1  0  0  0  0
 15 16  2  0  0  0  0
 15 19  1  0  0  0  0
 17 18  1  0  0  0  0
 17 28  1  0  0  0  0
 18 19  2  0  0  0  0
 20 21  1  0  0  0  0
 20 28  2  0  0  0  0
 21 22  2  0  0  0  0
 21 29  1  0  0  0  0
 22 23  1  0  0  0  0
 23 24  2  0  0  0  0
 24 25  1  0  0  0  0
 25 29  2  0  0  0  0
M  END
>  <CHROM.1>
-57.26617460,-39.22073263,89.79974462,79.28581374,122.38591535,111.55543488
48.71360292,41.90425713,41.36583351,0.50809808,-0.69851516,-0.05970744

>  <Name>
ligand

>  <RI>
0

>  <Rbt.Current_Directory>
/home/itssahil/PROJECTS/Mol_Feturizer/New_Systems/rnas/4JIY

>  <Rbt.Executable>
rbdock ($Id: //depot/dev/client3/rdock/2013.1/src/exe/rbdock.cxx#4 $)

>  <Rbt.Library>
libRbt.so (2013.1, Build901 2013/11/27)

>  <Rbt.Parameter_File>
/export/apps/rDock/src/rDock_2013.1_src/data/scripts/dock_solv.prm

>  <Rbt.Receptor>
prm/pocket_docking_8.prm

>  <SCORE>
-12.579

>  <SCORE.INTER>
-11.9469

>  <SCORE.INTER.CONST>
1

>  <SCORE.INTER.POLAR>
0

>  <SCORE.INTER.ROT>
6

>  <SCORE.INTER.SOLV>
3.13037

>  <SCORE.INTER.VDW>
-16.608

>  <SCORE.INTER.norm>
-0.411961

>  <SCORE.INTRA>
-0.632103

>  <SCORE.INTRA.DIHEDRAL>
-0.01895

>  <SCORE.INTRA.DIHEDRAL.0>
7.2424

>  <SCORE.INTRA.POLAR>
0

>  <SCORE.INTRA.POLAR.0>
0

>  <SCORE.INTRA.REPUL>
0

>  <SCORE.INTRA.REPUL.0>
0

>  <SCORE.INTRA.SOLV>
-0.0191095

>  <SCORE.INTRA.SOLV.lig_0>
-3.36201

>  <SCORE.INTRA.VDW>
-0.613074

>  <SCORE.INTRA.VDW.0>
-0.910526

>  <SCORE.INTRA.norm>
-0.0217967

>  <SCORE.RESTR>
0

>  <SCORE.RESTR.CAVITY>
0

>  <SCORE.RESTR.norm>
0

>  <SCORE.SYSTEM>
0

>  <SCORE.SYSTEM.CONST>
0

>  <SCORE.SYSTEM.DIHEDRAL>
0

>  <SCORE.SYSTEM.SOLV>
0

>  <SCORE.SYSTEM.norm>
0

>  <SCORE.heavy>
29

>  <SCORE.norm>
-0.433758

>  <RMSD>
7.434

$$$$
ligand
 OpenBabel11021811503D
libRbt.so/2013.1/901 2013/11/27
 29 32  0  0  0  0  0  0  0  0999 V2000
   46.3795   41.5145   39.6190 C   0  0  0  0  0  0  0  0  0  0  0  0
   55.1358   45.6087   47.6781 C   0  0  0  0  0  0  0  0  0  0  0  0
   56.4749   45.8261   47.3274 C   0  0  0  0  0  0  0  0  0  0  0  0
   56.8402   45.9359   46.0310 C   0  0  0  0  0  0  0  0  0  0  0  0
   55.8689   45.7607   45.0546 C   0  0  0  0  0  0  0  0  0  0  0  0
   54.5599   45.6072   45.4276 C   0  0  0  0  0  0  0  0  0  0  0  0
   53.4173   45.5325   44.5197 C   0  0  0  0  0  0  0  0  0  0  0  0
   52.1863   44.3384   42.9481 C   0  0  0  0  0  0  0  0  0  0  0  0
   50.8736   44.2851   43.3733 C   0  0  0  0  0  0  0  0  0  0  0  0
   49.8586   44.1913   42.4193 C   0  0  0  0  0  0  0  0  0  0  0  0
   50.1162   44.2504   41.0745 C   0  0  0  0  0  0  0  0  0  0  0  0
   51.4686   44.3143   40.6751 C   0  0  0  0  0  0  0  0  0  0  0  0
   52.5021   44.2970   41.6049 C   0  0  0  0  0  0  0  0  0  0  0  0
   48.9951   44.2962   40.0385 C   0  0  0  0  0  0  0  0  0  0  0  0
   47.8694   43.3118   40.3238 C   0  0  0  0  0  0  0  0  0  0  0  0
   47.4010   42.4221   39.3911 C   0  0  0  0  0  0  0  0  0  0  0  0
   45.8259   41.5086   40.8713 C   0  0  0  0  0  0  0  0  0  0  0  0
   46.2797   42.3875   41.7921 C   0  0  0  0  0  0  0  0  0  0  0  0
   47.2840   43.2997   41.5588 C   0  0  0  0  0  0  0  0  0  0  0  0
   44.1591   40.8431   42.3441 C   0  0  0  0  0  0  0  0  0  0  0  0
   43.1450   39.9035   42.7731 C   0  0  0  0  0  0  0  0  0  0  0  0
   42.6922   39.7480   44.0896 C   0  0  0  0  0  0  0  0  0  0  0  0
   41.7274   38.7926   44.3358 C   0  0  0  0  0  0  0  0  0  0  0  0
   41.2347   38.0635   43.2650 C   0  0  0  0  0  0  0  0  0  0  0  0
   41.7385   38.2273   41.9927 C   0  0  0  0  0  0  0  0  0  0  0  0
   54.1891   45.5017   46.7304 N   0  0  0  0  0  0  0  0  0  0  0  0
   53.2505   44.3742   43.9419 N   0  0  0  0  0  0  0  0  0  0  0  0
   44.7426   40.5859   41.2267 N   0  0  0  0  0  0  0  0  0  0  0  0
   42.6479   39.1570   41.7416 N   0  0  0  0  0  0  0  0  0  0  0  0
  1 17  2  0  0  0  0
  1 16  1  0  0  0  0
  2  3  2  0  0  0  0
  2 26  1  0  0  0  0
  3  4  1  0  0  0  0
  4  5  2  0  0  0  0
  5  6  1  0  0  0  0
  6  7  1  0  0  0  0
  6 26  2  0  0  0  0
  7 27  2  0  0  0  0
  8  9  2  0  0  0  0
  8 13  1  0  0  0  0
  8 27  1  0  0  0  0
  9 10  1  0  0  0  0
 10 11  2  0  0  0  0
 11 12  1  0  0  0  0
 11 14  1  0  0  0  0
 12 13  2  0  0  0  0
 14 15  1  0  0  0  0
 15 16  2  0  0  0  0
 15 19  1  0  0  0  0
 17 18  1  0  0  0  0
 17 28  1  0  0  0  0
 18 19  2  0  0  0  0
 20 21  1  0  0  0  0
 20 28  2  0  0  0  0
 21 22  2  0  0  0  0
 21 29  1  0  0  0  0
 22 23  1  0  0  0  0
 23 24  2  0  0  0  0
 24 25  1  0  0  0  0
 25 29  2  0  0  0  0
M  END
>  <CHROM.1>
78.69677577,-44.01778760,-128.25595588,159.21125672,-76.67400997,-168.23275257
48.92110774,42.89127090,42.90058504,-3.00089263,0.49541833,1.77953006

>  <Name>
ligand

>  <RI>
0

>  <Rbt.Current_Directory>
/home/itssahil/PROJECTS/Mol_Feturizer/New_Systems/rnas/4JIY

>  <Rbt.Executable>
rbdock ($Id: //depot/dev/client3/rdock/2013.1/src/exe/rbdock.cxx#4 $)

>  <Rbt.Library>
libRbt.so (2013.1, Build901 2013/11/27)

>  <Rbt.Parameter_File>
/export/apps/rDock/src/rDock_2013.1_src/data/scripts/dock_solv.prm

>  <Rbt.Receptor>
prm/pocket_docking_8.prm

>  <SCORE>
-12.2343

>  <SCORE.INTER>
-13.5344

>  <SCORE.INTER.CONST>
1

>  <SCORE.INTER.POLAR>
0

>  <SCORE.INTER.ROT>
6

>  <SCORE.INTER.SOLV>
3.50642

>  <SCORE.INTER.VDW>
-17.7917

>  <SCORE.INTER.norm>
-0.466704

>  <SCORE.INTRA>
1.30014

>  <SCORE.INTRA.DIHEDRAL>
0.101227

>  <SCORE.INTRA.DIHEDRAL.0>
7.2424

>  <SCORE.INTRA.POLAR>
0

>  <SCORE.INTRA.POLAR.0>
0

>  <SCORE.INTRA.REPUL>
0

>  <SCORE.INTRA.REPUL.0>
0

>  <SCORE.INTRA.SOLV>
-0.007195

>  <SCORE.INTRA.SOLV.lig_0>
-3.36201

>  <SCORE.INTRA.VDW>
1.25312

>  <SCORE.INTRA.VDW.0>
-0.910526

>  <SCORE.INTRA.norm>
0.0448323

>  <SCORE.RESTR>
0

>  <SCORE.RESTR.CAVITY>
0

>  <SCORE.RESTR.norm>
0

>  <SCORE.SYSTEM>
0

>  <SCORE.SYSTEM.CONST>
0

>  <SCORE.SYSTEM.DIHEDRAL>
0

>  <SCORE.SYSTEM.SOLV>
0

>  <SCORE.SYSTEM.norm>
0

>  <SCORE.heavy>
29

>  <SCORE.norm>
-0.421871

>  <RMSD>
7.460

$$$$
ligand
 OpenBabel11021811503D
libRbt.so/2013.1/901 2013/11/27
 29 32  0  0  0  0  0  0  0  0999 V2000
   46.6120   41.6343   39.7281 C   0  0  0  0  0  0  0  0  0  0  0  0
   56.7807   45.7986   46.0065 C   0  0  0  0  0  0  0  0  0  0  0  0
   56.8578   44.9478   47.1172 C   0  0  0  0  0  0  0  0  0  0  0  0
   55.8280   44.1329   47.4357 C   0  0  0  0  0  0  0  0  0  0  0  0
   54.6677   44.2083   46.6770 C   0  0  0  0  0  0  0  0  0  0  0  0
   54.6424   45.0062   45.5639 C   0  0  0  0  0  0  0  0  0  0  0  0
   53.5436   45.0981   44.6049 C   0  0  0  0  0  0  0  0  0  0  0  0
   52.2438   44.1042   42.9514 C   0  0  0  0  0  0  0  0  0  0  0  0
   52.6436   44.1606   41.6309 C   0  0  0  0  0  0  0  0  0  0  0  0
   51.6762   44.3367   40.6399 C   0  0  0  0  0  0  0  0  0  0  0  0
   50.3361   44.3559   40.9264 C   0  0  0  0  0  0  0  0  0  0  0  0
   49.9621   44.2863   42.2858 C   0  0  0  0  0  0  0  0  0  0  0  0
   50.9128   44.2222   43.2982 C   0  0  0  0  0  0  0  0  0  0  0  0
   49.2757   44.4002   39.8282 C   0  0  0  0  0  0  0  0  0  0  0  0
   48.0437   43.5639   40.1451 C   0  0  0  0  0  0  0  0  0  0  0  0
   47.7243   42.4168   39.4645 C   0  0  0  0  0  0  0  0  0  0  0  0
   45.7994   42.0403   40.7526 C   0  0  0  0  0  0  0  0  0  0  0  0
   46.1064   43.1732   41.4224 C   0  0  0  0  0  0  0  0  0  0  0  0
   47.2035   43.9584   41.1483 C   0  0  0  0  0  0  0  0  0  0  0  0
   44.5565   40.9071   42.3530 C   0  0  0  0  0  0  0  0  0  0  0  0
   43.4297   40.0832   42.7362 C   0  0  0  0  0  0  0  0  0  0  0  0
   42.6715   39.2936   41.8621 C   0  0  0  0  0  0  0  0  0  0  0  0
   41.6153   38.5764   42.3858 C   0  0  0  0  0  0  0  0  0  0  0  0
   41.3827   38.6486   43.7502 C   0  0  0  0  0  0  0  0  0  0  0  0
   42.1340   39.4687   44.5639 C   0  0  0  0  0  0  0  0  0  0  0  0
   55.6785   45.8227   45.2384 N   0  0  0  0  0  0  0  0  0  0  0  0
   53.2557   43.9824   43.9919 N   0  0  0  0  0  0  0  0  0  0  0  0
   44.5980   41.2854   41.1240 N   0  0  0  0  0  0  0  0  0  0  0  0
   43.1640   40.1434   44.0757 N   0  0  0  0  0  0  0  0  0  0  0  0
  1 17  2  0  0  0  0
  1 16  1  0  0  0  0
  2  3  2  0  0  0  0
  2 26  1  0  0  0  0
  3  4  1  0  0  0  0
  4  5  2  0  0  0  0
  5  6  1  0  0  0  0
  6  7  1  0  0  0  0
  6 26  2  0  0  0  0
  7 27  2  0  0  0  0
  8  9  2  0  0  0  0
  8 13  1  0  0  0  0
  8 27  1  0  0  0  0
  9 10  1  0  0  0  0
 10 11  2  0  0  0  0
 11 12  1  0  0  0  0
 11 14  1  0  0  0  0
 12 13  2  0  0  0  0
 14 15  1  0  0  0  0
 15 16  2  0  0  0  0
 15 19  1  0  0  0  0
 17 18  1  0  0  0  0
 17 28  1  0  0  0  0
 18 19  2  0  0  0  0
 20 21  1  0  0  0  0
 20 28  2  0  0  0  0
 21 22  2  0  0  0  0
 21 29  1  0  0  0  0
 22 23  1  0  0  0  0
 23 24  2  0  0  0  0
 24 25  1  0  0  0  0
 25 29  2  0  0  0  0
M  END
>  <CHROM.1>
-60.95538906,142.42663243,-111.20184831,23.65850682,100.71898028,123.52551855
49.08386328,42.90548463,42.88866998,-3.04159421,0.43824551,1.89570303

>  <Name>
ligand

>  <RI>
0

>  <Rbt.Current_Directory>
/home/itssahil/PROJECTS/Mol_Feturizer/New_Systems/rnas/4JIY

>  <Rbt.Executable>
rbdock ($Id: //depot/dev/client3/rdock/2013.1/src/exe/rbdock.cxx#4 $)

>  <Rbt.Library>
libRbt.so (2013.1, Build901 2013/11/27)

>  <Rbt.Parameter_File>
/export/apps/rDock/src/rDock_2013.1_src/data/scripts/dock_solv.prm

>  <Rbt.Receptor>
prm/pocket_docking_8.prm

>  <SCORE>
-12.3161

>  <SCORE.INTER>
-12.1808

>  <SCORE.INTER.CONST>
1

>  <SCORE.INTER.POLAR>
0

>  <SCORE.INTER.ROT>
6

>  <SCORE.INTER.SOLV>
3.05558

>  <SCORE.INTER.VDW>
-16.739

>  <SCORE.INTER.norm>
-0.420026

>  <SCORE.INTRA>
-0.135314

>  <SCORE.INTRA.DIHEDRAL>
0.52276

>  <SCORE.INTRA.DIHEDRAL.0>
7.2424

>  <SCORE.INTRA.POLAR>
0

>  <SCORE.INTRA.POLAR.0>
0

>  <SCORE.INTRA.REPUL>
0

>  <SCORE.INTRA.REPUL.0>
0

>  <SCORE.INTRA.SOLV>
-0.0192671

>  <SCORE.INTRA.SOLV.lig_0>
-3.36201

>  <SCORE.INTRA.VDW>
-0.387061

>  <SCORE.INTRA.VDW.0>
-0.910526

>  <SCORE.INTRA.norm>
-0.004666

>  <SCORE.RESTR>
0

>  <SCORE.RESTR.CAVITY>
0

>  <SCORE.RESTR.norm>
0

>  <SCORE.SYSTEM>
0

>  <SCORE.SYSTEM.CONST>
0

>  <SCORE.SYSTEM.DIHEDRAL>
0

>  <SCORE.SYSTEM.SOLV>
0

>  <SCORE.SYSTEM.norm>
0

>  <SCORE.heavy>
29

>  <SCORE.norm>
-0.424692

>  <RMSD>
7.700

$$$$
ligand
 OpenBabel11021811503D
libRbt.so/2013.1/901 2013/11/27
 29 32  0  0  0  0  0  0  0  0999 V2000
   52.8273   44.1510   41.6171 C   0  0  0  0  0  0  0  0  0  0  0  0
   42.1387   39.5045   44.2984 C   0  0  0  0  0  0  0  0  0  0  0  0
   41.4825   38.6402   43.4119 C   0  0  0  0  0  0  0  0  0  0  0  0
   41.8579   38.5649   42.1160 C   0  0  0  0  0  0  0  0  0  0  0  0
   42.8627   39.4126   41.6697 C   0  0  0  0  0  0  0  0  0  0  0  0
   43.5245   40.2044   42.5704 C   0  0  0  0  0  0  0  0  0  0  0  0
   44.6758   41.0544   42.2748 C   0  0  0  0  0  0  0  0  0  0  0  0
   45.8649   42.3535   40.7552 C   0  0  0  0  0  0  0  0  0  0  0  0
   46.0614   43.5984   41.3197 C   0  0  0  0  0  0  0  0  0  0  0  0
   47.1866   44.3373   40.9496 C   0  0  0  0  0  0  0  0  0  0  0  0
   48.1520   43.8270   40.1213 C   0  0  0  0  0  0  0  0  0  0  0  0
   47.9237   42.5479   39.5696 C   0  0  0  0  0  0  0  0  0  0  0  0
   46.7577   41.8393   39.8364 C   0  0  0  0  0  0  0  0  0  0  0  0
   49.4508   44.5779   39.8359 C   0  0  0  0  0  0  0  0  0  0  0  0
   50.5031   44.3972   40.9212 C   0  0  0  0  0  0  0  0  0  0  0  0
   51.8457   44.3152   40.6534 C   0  0  0  0  0  0  0  0  0  0  0  0
   52.4102   44.0868   42.9196 C   0  0  0  0  0  0  0  0  0  0  0  0
   51.0878   44.1611   43.1882 C   0  0  0  0  0  0  0  0  0  0  0  0
   50.1124   44.3079   42.2279 C   0  0  0  0  0  0  0  0  0  0  0  0
   53.7845   45.0198   44.5417 C   0  0  0  0  0  0  0  0  0  0  0  0
   54.7932   44.9000   45.5730 C   0  0  0  0  0  0  0  0  0  0  0  0
   54.7214   44.0421   46.6780 C   0  0  0  0  0  0  0  0  0  0  0  0
   55.7637   44.0596   47.5823 C   0  0  0  0  0  0  0  0  0  0  0  0
   56.8386   44.8979   47.3316 C   0  0  0  0  0  0  0  0  0  0  0  0
   56.8464   45.7509   46.2492 C   0  0  0  0  0  0  0  0  0  0  0  0
   43.1525   40.2781   43.8751 N   0  0  0  0  0  0  0  0  0  0  0  0
   44.6610   41.6064   41.0923 N   0  0  0  0  0  0  0  0  0  0  0  0
   53.3625   43.9208   44.0226 N   0  0  0  0  0  0  0  0  0  0  0  0
   55.8622   45.7257   45.3632 N   0  0  0  0  0  0  0  0  0  0  0  0
  1 17  2  0  0  0  0
  1 16  1  0  0  0  0
  2  3  2  0  0  0  0
  2 26  1  0  0  0  0
  3  4  1  0  0  0  0
  4  5  2  0  0  0  0
  5  6  1  0  0  0  0
  6  7  1  0  0  0  0
  6 26  2  0  0  0  0
  7 27  2  0  0  0  0
  8  9  2  0  0  0  0
  8 13  1  0  0  0  0
  8 27  1  0  0  0  0
  9 10  1  0  0  0  0
 10 11  2  0  0  0  0
 11 12  1  0  0  0  0
 11 14  1  0  0  0  0
 12 13  2  0  0  0  0
 14 15  1  0  0  0  0
 15 16  2  0  0  0  0
 15 19  1  0  0  0  0
 17 18  1  0  0  0  0
 17 28  1  0  0  0  0
 18 19  2  0  0  0  0
 20 21  1  0  0  0  0
 20 28  2  0  0  0  0
 21 22  2  0  0  0  0
 21 29  1  0  0  0  0
 22 23  1  0  0  0  0
 23 24  2  0  0  0  0
 24 25  1  0  0  0  0
 25 29  2  0  0  0  0
M  END
>  <CHROM.1>
35.15453257,81.93276393,144.10839840,-49.11535577,-75.91420594,91.80758740
49.19327455,42.97586337,42.84979544,-0.10536320,-0.43328883,-1.20319404

>  <Name>
ligand

>  <RI>
0

>  <Rbt.Current_Directory>
/home/itssahil/PROJECTS/Mol_Feturizer/New_Systems/rnas/4JIY

>  <Rbt.Executable>
rbdock ($Id: //depot/dev/client3/rdock/2013.1/src/exe/rbdock.cxx#4 $)

>  <Rbt.Library>
libRbt.so (2013.1, Build901 2013/11/27)

>  <Rbt.Parameter_File>
/export/apps/rDock/src/rDock_2013.1_src/data/scripts/dock_solv.prm

>  <Rbt.Receptor>
prm/pocket_docking_8.prm

>  <SCORE>
-12.3204

>  <SCORE.INTER>
-11.5719

>  <SCORE.INTER.CONST>
1

>  <SCORE.INTER.POLAR>
0

>  <SCORE.INTER.ROT>
6

>  <SCORE.INTER.SOLV>
2.83724

>  <SCORE.INTER.VDW>
-16.2604

>  <SCORE.INTER.norm>
-0.399032

>  <SCORE.INTRA>
-0.750599

>  <SCORE.INTRA.DIHEDRAL>
0.0504837

>  <SCORE.INTRA.DIHEDRAL.0>
7.2424

>  <SCORE.INTRA.POLAR>
0

>  <SCORE.INTRA.POLAR.0>
0

>  <SCORE.INTRA.REPUL>
0

>  <SCORE.INTRA.REPUL.0>
0

>  <SCORE.INTRA.SOLV>
-0.0205333

>  <SCORE.INTRA.SOLV.lig_0>
-3.36201

>  <SCORE.INTRA.VDW>
-0.765575

>  <SCORE.INTRA.VDW.0>
-0.910526

>  <SCORE.INTRA.norm>
-0.0258827

>  <SCORE.RESTR>
0.00214973

>  <SCORE.RESTR.CAVITY>
0.00214973

>  <SCORE.RESTR.norm>
7.41287e-05

>  <SCORE.SYSTEM>
0

>  <SCORE.SYSTEM.CONST>
0

>  <SCORE.SYSTEM.DIHEDRAL>
0

>  <SCORE.SYSTEM.SOLV>
0

>  <SCORE.SYSTEM.norm>
0

>  <SCORE.heavy>
29

>  <SCORE.norm>
-0.424841

>  <RMSD>
7.807

$$$$
ligand
 OpenBabel11021811503D
libRbt.so/2013.1/901 2013/11/27
 29 32  0  0  0  0  0  0  0  0999 V2000
   37.6285   36.5540   37.4497 C   0  0  0  0  0  0  0  0  0  0  0  0
   48.0764   42.7972   39.7581 C   0  0  0  0  0  0  0  0  0  0  0  0
   47.7841   43.2402   41.0549 C   0  0  0  0  0  0  0  0  0  0  0  0
   46.6845   42.7982   41.7042 C   0  0  0  0  0  0  0  0  0  0  0  0
   45.8172   41.9488   41.0306 C   0  0  0  0  0  0  0  0  0  0  0  0
   46.1580   41.4875   39.7867 C   0  0  0  0  0  0  0  0  0  0  0  0
   45.4114   40.5016   39.0083 C   0  0  0  0  0  0  0  0  0  0  0  0
   43.4590   39.8894   37.9018 C   0  0  0  0  0  0  0  0  0  0  0  0
   44.1033   38.9295   37.1466 C   0  0  0  0  0  0  0  0  0  0  0  0
   43.3379   37.9871   36.4575 C   0  0  0  0  0  0  0  0  0  0  0  0
   41.9748   37.9227   36.5854 C   0  0  0  0  0  0  0  0  0  0  0  0
   41.3495   38.9135   37.3728 C   0  0  0  0  0  0  0  0  0  0  0  0
   42.0812   39.9284   37.9789 C   0  0  0  0  0  0  0  0  0  0  0  0
   41.1558   36.8018   35.9489 C   0  0  0  0  0  0  0  0  0  0  0  0
   39.9708   36.3635   36.7983 C   0  0  0  0  0  0  0  0  0  0  0  0
   38.7261   36.9297   36.6925 C   0  0  0  0  0  0  0  0  0  0  0  0
   37.8148   35.5350   38.3450 C   0  0  0  0  0  0  0  0  0  0  0  0
   39.0409   34.9778   38.4573 C   0  0  0  0  0  0  0  0  0  0  0  0
   40.1346   35.3635   37.7154 C   0  0  0  0  0  0  0  0  0  0  0  0
   36.1009   34.0194   38.7397 C   0  0  0  0  0  0  0  0  0  0  0  0
   34.9587   33.5654   39.5044 C   0  0  0  0  0  0  0  0  0  0  0  0
   34.9298   33.4043   40.8956 C   0  0  0  0  0  0  0  0  0  0  0  0
   33.7628   32.9457   41.4719 C   0  0  0  0  0  0  0  0  0  0  0  0
   32.6740   32.7024   40.6496 C   0  0  0  0  0  0  0  0  0  0  0  0
   32.7627   32.8409   39.2813 C   0  0  0  0  0  0  0  0  0  0  0  0
   47.2658   41.9262   39.1337 N   0  0  0  0  0  0  0  0  0  0  0  0
   44.2515   40.9111   38.5722 N   0  0  0  0  0  0  0  0  0  0  0  0
   36.7215   35.0507   39.1943 N   0  0  0  0  0  0  0  0  0  0  0  0
   33.8704   33.3020   38.7203 N   0  0  0  0  0  0  0  0  0  0  0  0
  1 17  2  0  0  0  0
  1 16  1  0  0  0  0
  2  3  2  0  0  0  0
  2 26  1  0  0  0  0
  3  4  1  0  0  0  0
  4  5  2  0  0  0  0
  5  6  1  0  0  0  0
  6  7  1  0  0  0  0
  6 26  2  0  0  0  0
  7 27  2  0  0  0  0
  8  9  2  0  0  0  0
  8 13  1  0  0  0  0
  8 27  1  0  0  0  0
  9 10  1  0  0  0  0
 10 11  2  0  0  0  0
 11 12  1  0  0  0  0
 11 14  1  0  0  0  0
 12 13  2  0  0  0  0
 14 15  1  0  0  0  0
 15 16  2  0  0  0  0
 15 19  1  0  0  0  0
 17 18  1  0  0  0  0
 17 28  1  0  0  0  0
 18 19  2  0  0  0  0
 20 21  1  0  0  0  0
 20 28  2  0  0  0  0
 21 22  2  0  0  0  0
 21 29  1  0  0  0  0
 22 23  1  0  0  0  0
 23 24  2  0  0  0  0
 24 25  1  0  0  0  0
 25 29  2  0  0  0  0
M  END
>  <CHROM.1>
68.59942482,143.96858110,90.00294203,-46.25603123,-34.77482423,95.97170706
40.62260207,37.56926368,38.72532885,-2.99101855,0.59708769,1.31809328

>  <Name>
ligand

>  <RI>
0

>  <Rbt.Current_Directory>
/home/itssahil/PROJECTS/Mol_Feturizer/New_Systems/rnas/4JIY

>  <Rbt.Executable>
rbdock ($Id: //depot/dev/client3/rdock/2013.1/src/exe/rbdock.cxx#4 $)

>  <Rbt.Library>
libRbt.so (2013.1, Build901 2013/11/27)

>  <Rbt.Parameter_File>
/export/apps/rDock/src/rDock_2013.1_src/data/scripts/dock_solv.prm

>  <Rbt.Receptor>
prm/pocket_docking_7.prm

>  <SCORE>
-4.62565

>  <SCORE.INTER>
-4.65817

>  <SCORE.INTER.CONST>
1

>  <SCORE.INTER.POLAR>
0

>  <SCORE.INTER.ROT>
6

>  <SCORE.INTER.SOLV>
2.0129

>  <SCORE.INTER.VDW>
-11.3764

>  <SCORE.INTER.norm>
-0.160626

>  <SCORE.INTRA>
0.0292135

>  <SCORE.INTRA.DIHEDRAL>
0.260768

>  <SCORE.INTRA.DIHEDRAL.0>
7.2424

>  <SCORE.INTRA.POLAR>
0

>  <SCORE.INTRA.POLAR.0>
0

>  <SCORE.INTRA.REPUL>
0

>  <SCORE.INTRA.REPUL.0>
0

>  <SCORE.INTRA.SOLV>
-0.0181021

>  <SCORE.INTRA.SOLV.lig_0>
-3.36201

>  <SCORE.INTRA.VDW>
-0.0921193

>  <SCORE.INTRA.VDW.0>
-0.910526

>  <SCORE.INTRA.norm>
0.00100736

>  <SCORE.RESTR>
0.00330534

>  <SCORE.RESTR.CAVITY>
0.00330534

>  <SCORE.RESTR.norm>
0.000113977

>  <SCORE.SYSTEM>
0

>  <SCORE.SYSTEM.CONST>
0

>  <SCORE.SYSTEM.DIHEDRAL>
0

>  <SCORE.SYSTEM.SOLV>
0

>  <SCORE.SYSTEM.norm>
0

>  <SCORE.heavy>
29

>  <SCORE.norm>
-0.159505

>  <RMSD>
8.133

$$$$
