@<TRIPOS>MOLECULE
4JIY_rdock.pdb
 125 139 0 0 0
SMALL
GASTEIGER

@<TRIPOS>ATOM
      1  C5'       41.0020   38.7160   26.7290 C.3     1  C1          0.2141
      2  O5'       40.2650   39.3960   27.7480 O.3     1  C1         -0.2176
      3  C4'       42.4200   39.2410   26.6020 C.3     1  C1          0.1802
      4  O4'       42.3800   40.6660   26.2880 O.3     1  C1         -0.3306
      5  C3'       43.3190   39.1700   27.8260 C.3     1  C1          0.1861
      6  O3'       43.9150   37.8880   27.9990 O.3     1  C1         -0.3112
      7  C2'       44.3440   40.2370   27.5260 C.3     1  C1          0.2309
      8  O2'       45.2230   39.7990   26.5020 O.3     1  C1         -0.2156
      9  C1'       43.4720   41.3160   26.9200 C.3     1  C1          0.2420
     10  N1        42.9130   42.2510   27.9130 N.ar    1  C1         -0.2535
     11  C2        43.7600   43.1990   28.4700 C.ar    1  C1          0.3532
     12  O2        44.9630   43.2350   28.1160 O.2     1  C1         -0.2443
     13  N3        43.2540   44.0660   29.3850 N.ar    1  C1         -0.1739
     14  C4        41.9670   43.9840   29.7260 C.ar    1  C1          0.1759
     15  N4        41.5300   44.8670   30.6380 N.pl3   1  C1         -0.1070
     16  C5        41.0730   43.0080   29.1680 C.ar    1  C1          0.0566
     17  C6        41.6050   42.1690   28.2660 C.ar    1  C1          0.0850
     18  P         44.2830   37.3890   29.4770 P.3     2  G2          0.2141
     19  C5'       46.7230   38.3730   29.3340 C.3     2  G2          0.1812
     20  O5'       45.4510   38.3320   29.9870 O.3     2  G2         -0.3114
     21  C4'       47.5930   39.4560   29.9120 C.3     2  G2          0.1773
     22  O4'       46.9250   40.7360   29.6840 O.3     2  G2         -0.3307
     23  C3'       47.8440   39.4590   31.4010 C.3     2  G2          0.1860
     24  O3'       48.8810   38.5770   31.8110 O.3     2  G2         -0.3112
     25  C2'       48.2360   40.9060   31.6410 C.3     2  G2          0.2309
     26  O2'       49.5280   41.0790   31.0390 O.3     2  G2         -0.2156
     27  C1'       47.2680   41.6410   30.7340 C.3     2  G2          0.2408
     28  N1        45.2720   45.1090   33.7710 N.ar    2  G2         -0.1709
     29  C2        46.5650   44.9300   33.3340 C.ar    2  G2          0.2606
     30  N2        47.5230   45.7780   33.7390 N.pl3   2  G2         -0.0859
     31  N3        46.9350   43.9590   32.5280 N.ar    2  G2         -0.1918
     32  C4        45.9120   43.1740   32.1870 C.ar    2  G2          0.1723
     33  C5        44.5910   43.2580   32.5580 C.ar    2  G2          0.1748
     34  C6        44.2020   44.3130   33.4300 C.ar    2  G2          0.3023
     35  O6        43.0600   44.5400   33.8670 O.2     2  G2         -0.2633
     36  N7        43.8510   42.2310   31.9710 N.ar    2  G2         -0.2173
     37  C8        44.7340   41.5550   31.2650 C.ar    2  G2          0.1817
     38  N9        45.9950   42.0800   31.3580 N.ar    2  G2         -0.2693
     39  OP1       44.8680   36.0270   29.3250 O.2     2  G2         -0.5172
     40  OP2       43.1060   37.5400   30.3800 O.co2   2  G2         -0.4373
     41  P         48.8820   38.0730   33.3350 P.3     3  U3          0.2141
     42  C5'       50.4090   40.0160   34.1260 C.3     3  U3          0.1812
     43  O5'       49.1690   39.3120   34.2730 O.3     3  U3         -0.3114
     44  C4'       50.4490   41.1460   35.1060 C.3     3  U3          0.1773
     45  O4'       49.4100   42.0860   34.7530 O.3     3  U3         -0.3307
     46  C3'       50.1740   40.7590   36.5470 C.3     3  U3          0.1860
     47  O3'       51.3570   40.3000   37.1800 O.3     3  U3         -0.3112
     48  C2'       49.6460   42.0480   37.1310 C.3     3  U3          0.2309
     49  O2'       50.7800   42.8710   37.4000 O.3     3  U3         -0.2156
     50  C1'       48.8890   42.6660   35.9590 C.3     3  U3          0.2420
     51  N1        47.4100   42.4530   35.9320 N.ar    3  U3         -0.2534
     52  C2        46.6970   43.3960   36.6310 C.ar    3  U3          0.3546
     53  O2        47.2320   44.3230   37.2310 O.2     3  U3         -0.2443
     54  N3        45.3480   43.2140   36.6120 N.ar    3  U3         -0.1530
     55  C4        44.6500   42.2160   35.9710 C.ar    3  U3          0.2846
     56  O4        43.4090   42.2030   36.0540 O.2     3  U3         -0.2650
     57  C5        45.4690   41.2640   35.2490 C.ar    3  U3          0.0814
     58  C6        46.8080   41.4270   35.2620 C.ar    3  U3          0.0870
     59  OP1       50.1050   37.2410   33.5020 O.2     3  U3         -0.5172
     60  OP2       47.5420   37.5050   33.6380 O.co2   3  U3         -0.4373
     61  P         51.3880   39.1750   38.3380 P.3     4  A4          0.2141
     62  C5'       51.5220   41.0580   40.1840 C.3     4  A4          0.1812
     63  O5'       50.8290   39.9340   39.6190 O.3     4  A4         -0.3114
     64  C4'       51.1540   41.1910   41.6400 C.3     4  A4          0.1773
     65  O4'       49.7210   41.4410   41.7200 O.3     4  A4         -0.3307
     66  C3'       51.3610   39.9880   42.5340 C.3     4  A4          0.1860
     67  O3'       52.7020   39.8530   42.9750 O.3     4  A4         -0.3112
     68  C2'       50.3940   40.3040   43.6690 C.3     4  A4          0.2309
     69  O2'       50.9370   41.4250   44.3860 O.3     4  A4         -0.2156
     70  C1'       49.1910   40.8070   42.9030 C.3     4  A4          0.2408
     71  N1        45.2080   37.9430   44.1200 N.ar    4  A4         -0.2040
     72  C2        45.9510   38.7600   44.8430 C.ar    4  A4          0.2016
     73  N3        46.9880   39.4760   44.4370 N.ar    4  A4         -0.2048
     74  C4        47.2050   39.2630   43.1210 C.ar    4  A4          0.1692
     75  C5        46.5200   38.4520   42.2450 C.ar    4  A4          0.1518
     76  C6        45.4410   37.7450   42.8010 C.ar    4  A4          0.1919
     77  N6        44.6410   36.8980   42.1360 N.pl3   4  A4         -0.1054
     78  N7        47.0690   38.5170   40.9750 N.ar    4  A4         -0.2193
     79  C8        48.0620   39.3590   41.1040 C.ar    4  A4          0.1816
     80  N9        48.1930   39.8370   42.3780 N.ar    4  A4         -0.2693
     81  OP1       52.8190   38.8250   38.6270 O.3     4  A4         -0.4373
     82  OP2       50.4590   38.0740   38.0090 O.co2   4  A4         -0.5172
     83  P         53.3930   38.4590   43.3130 P.3     5  C5          0.2141
     84  C5'       52.7710   38.6120   45.8620 C.3     5  C5          0.1812
     85  O5'       52.7510   37.8670   44.6320 O.3     5  C5         -0.3114
     86  C4'       51.7970   38.0240   46.8380 C.3     5  C5          0.1773
     87  O4'       50.4360   38.2970   46.3960 O.3     5  C5         -0.3307
     88  C3'       51.8150   36.5190   46.9820 C.3     5  C5          0.1860
     89  O3'       52.8320   36.0770   47.8560 O.3     5  C5         -0.3112
     90  C2'       50.4480   36.2270   47.5580 C.3     5  C5          0.2309
     91  O2'       50.5490   36.7650   48.8790 O.3     5  C5         -0.2156
     92  C1'       49.6030   37.2050   46.7400 C.3     5  C5          0.2420
     93  N1        49.0570   36.5920   45.5050 N.ar    5  C5         -0.2535
     94  C2        47.8630   35.8770   45.6520 C.ar    5  C5          0.3532
     95  O2        47.3760   35.8210   46.7950 O.2     5  C5         -0.2443
     96  N3        47.3200   35.2950   44.5650 N.ar    5  C5         -0.1739
     97  C4        47.8980   35.3970   43.3620 C.ar    5  C5          0.1759
     98  N4        47.2870   34.7890   42.3430 N.pl3   5  C5         -0.1070
     99  C5        49.1130   36.1180   43.2000 C.ar    5  C5          0.0566
    100  C6        49.6570   36.7000   44.2920 C.ar    5  C5          0.0850
    101  OP1       54.8170   38.8250   43.6470 O.3     5  C5         -0.4373
    102  OP2       53.1920   37.4970   42.1970 O.co2   5  C5         -0.5172
    103  P         53.4790   34.6200   47.6930 P.3     6  G6          0.2141
    104  C5'       51.8400   33.7860   49.5640 C.3     6  G6          0.1813
    105  O5'       52.3540   33.6230   48.2420 O.3     6  G6         -0.3114
    106  C4'       50.9310   32.6450   49.9390 C.3     6  G6          0.1801
    107  O4'       49.6540   32.9840   49.3030 O.3     6  G6         -0.3306
    108  C3'       51.2060   31.2390   49.4650 C.3     6  G6          0.2161
    109  O3'       52.0200   30.4850   50.3620 O.3     6  G6         -0.2175
    110  C2'       49.8160   30.6320   49.3660 C.3     6  G6          0.2337
    111  O2'       49.4220   30.2660   50.6850 O.3     6  G6         -0.2155
    112  C1'       48.9770   31.8070   48.8820 C.3     6  G6          0.2409
    113  N1        46.0520   30.4070   45.0200 N.ar    6  G6         -0.1709
    114  C2        45.9390   30.1010   46.3610 C.ar    6  G6          0.2606
    115  N2        44.9120   29.3170   46.7380 N.pl3   6  G6         -0.0859
    116  N3        46.7860   30.5400   47.2770 N.ar    6  G6         -0.1918
    117  C4        47.7560   31.3160   46.7180 C.ar    6  G6          0.1723
    118  C5        47.9510   31.6740   45.4060 C.ar    6  G6          0.1748
    119  C6        47.0270   31.1890   44.4330 C.ar    6  G6          0.3023
    120  O6        47.0450   31.4070   43.2170 O.2     6  G6         -0.2633
    121  N7        49.0710   32.4850   45.2510 N.ar    6  G6         -0.2173
    122  C8        49.5320   32.6030   46.4710 C.ar    6  G6          0.1817
    123  N9        48.7850   31.9220   47.4020 N.ar    6  G6         -0.2693
    124  OP1       54.6620   34.6000   48.5850 O.3     6  G6         -0.4373
    125  OP2       53.6720   34.4010   46.2370 O.co2   6  G6         -0.5172
@<TRIPOS>BOND
     1     4     3    1
     2     4     9    1
     3     8     7    1
     4     3     1    1
     5     3     5    1
     6     1     2    1
     7     9     7    1
     8     9    10    1
     9     7     5    1
    10     5     6    1
    11    10    17   ar
    12    10    11   ar
    13     6    18    1
    14    12    11    2
    15    17    16   ar
    16    11    13   ar
    17    16    14   ar
    18    39    18    2
    19    19    21    1
    20    19    20    1
    21    13    14   ar
    22    18    20    1
    23    18    40    1
    24    22    21    1
    25    22    27    1
    26    14    15    1
    27    21    23    1
    28    27    38    1
    29    27    25    1
    30    26    25    1
    31    37    38   ar
    32    37    36   ar
    33    38    32   ar
    34    23    25    1
    35    23    24    1
    36    24    41    1
    37    36    33   ar
    38    32    31   ar
    39    32    33   ar
    40    31    29   ar
    41    33    34   ar
    42    29    30    1
    43    29    28   ar
    44    41    59    2
    45    41    60    1
    46    41    43    1
    47    34    28   ar
    48    34    35    2
    49    42    43    1
    50    42    44    1
    51    45    44    1
    52    45    50    1
    53    44    46    1
    54    57    58   ar
    55    57    55   ar
    56    58    51   ar
    57    51    50    1
    58    51    52   ar
    59    50    48    1
    60    55    56    2
    61    55    54   ar
    62    46    48    1
    63    46    47    1
    64    54    52   ar
    65    52    53    2
    66    48    49    1
    67    47    61    1
    68    82    61    2
    69    61    81    1
    70    61    63    1
    71    63    62    1
    72    62    64    1
    73    78    79   ar
    74    78    75   ar
    75    79    80   ar
    76    64    65    1
    77    64    66    1
    78    65    70    1
    79    77    76    1
    80   102    83    2
    81    75    76   ar
    82    75    74   ar
    83    98    97    1
    84    80    70    1
    85    80    74   ar
    86    66    67    1
    87    66    68    1
    88    76    71   ar
    89    70    68    1
    90    67    83    1
    91    74    73   ar
    92    99    97   ar
    93    99   100   ar
    94   120   119    2
    95    83   101    1
    96    83    85    1
    97    97    96   ar
    98    68    69    1
    99    71    72   ar
   100   100    93   ar
   101   119   113   ar
   102   119   118   ar
   103    73    72   ar
   104    96    94   ar
   105    85    84    1
   106   113   114   ar
   107   121   118   ar
   108   121   122   ar
   109   118   117   ar
   110    93    94   ar
   111    93    92    1
   112    94    95    2
   113    84    86    1
   114   125   103    2
   115   114   115    1
   116   114   116   ar
   117    87    92    1
   118    87    86    1
   119   122   123   ar
   120   117   116   ar
   121   117   123   ar
   122    92    90    1
   123    86    88    1
   124    88    90    1
   125    88    89    1
   126   123   112    1
   127    90    91    1
   128   103    89    1
   129   103   105    1
   130   103   124    1
   131   105   104    1
   132   112   107    1
   133   112   110    1
   134   107   106    1
   135   110   108    1
   136   110   111    1
   137   108   106    1
   138   108   109    1
   139   104   106    1
